# Generated by pormake.
# Topology ptr, (4,4)-cn, num edge types: 1
# Building blocks:
#     Node 0, Type 0, BuildingBlock: CEKHIL_clean_sbu_0, # of connection points: 4
#     Node 1, Type 0, BuildingBlock: CEKHIL_clean_sbu_0, # of connection points: 4
#     Node 2, Type 0, BuildingBlock: CEKHIL_clean_sbu_0, # of connection points: 4
#     Node 3, Type 0, BuildingBlock: CEKHIL_clean_sbu_0, # of connection points: 4
#     Node 4, Type 0, BuildingBlock: CEKHIL_clean_sbu_0, # of connection points: 4
#     Node 5, Type 0, BuildingBlock: CEKHIL_clean_sbu_0, # of connection points: 4
#     Node 6, Type 0, BuildingBlock: CEKHIL_clean_sbu_0, # of connection points: 4
#     Node 7, Type 0, BuildingBlock: CEKHIL_clean_sbu_0, # of connection points: 4
#     Node 8, Type 0, BuildingBlock: CEKHIL_clean_sbu_0, # of connection points: 4
#     Node 9, Type 0, BuildingBlock: CEKHIL_clean_sbu_0, # of connection points: 4
#     Node 10, Type 0, BuildingBlock: CEKHIL_clean_sbu_0, # of connection points: 4
#     Node 11, Type 0, BuildingBlock: CEKHIL_clean_sbu_0, # of connection points: 4
#     Node 12, Type 0, BuildingBlock: CEKHIL_clean_sbu_0, # of connection points: 4
#     Node 13, Type 0, BuildingBlock: CEKHIL_clean_sbu_0, # of connection points: 4
#     Node 14, Type 0, BuildingBlock: CEKHIL_clean_sbu_0, # of connection points: 4
#     Node 15, Type 0, BuildingBlock: CEKHIL_clean_sbu_0, # of connection points: 4
#     Node 16, Type 0, BuildingBlock: CEKHIL_clean_sbu_0, # of connection points: 4
#     Node 17, Type 0, BuildingBlock: CEKHIL_clean_sbu_0, # of connection points: 4
#     Node 18, Type 1, BuildingBlock: NAHDIM_clean_linker_0, # of connection points: 4
#     Node 19, Type 1, BuildingBlock: NAHDIM_clean_linker_0, # of connection points: 4
#     Node 20, Type 1, BuildingBlock: NAHDIM_clean_linker_0, # of connection points: 4
#     Node 21, Type 1, BuildingBlock: NAHDIM_clean_linker_0, # of connection points: 4
#     Node 22, Type 1, BuildingBlock: NAHDIM_clean_linker_0, # of connection points: 4
#     Node 23, Type 1, BuildingBlock: NAHDIM_clean_linker_0, # of connection points: 4
#     Node 24, Type 1, BuildingBlock: NAHDIM_clean_linker_0, # of connection points: 4
#     Node 25, Type 1, BuildingBlock: NAHDIM_clean_linker_0, # of connection points: 4
#     Node 26, Type 1, BuildingBlock: NAHDIM_clean_linker_0, # of connection points: 4
#     Node 27, Type 1, BuildingBlock: NAHDIM_clean_linker_0, # of connection points: 4
#     Node 28, Type 1, BuildingBlock: NAHDIM_clean_linker_0, # of connection points: 4
#     Node 29, Type 1, BuildingBlock: NAHDIM_clean_linker_0, # of connection points: 4
#     Node 30, Type 1, BuildingBlock: NAHDIM_clean_linker_0, # of connection points: 4
#     Node 31, Type 1, BuildingBlock: NAHDIM_clean_linker_0, # of connection points: 4
#     Node 32, Type 1, BuildingBlock: NAHDIM_clean_linker_0, # of connection points: 4
#     Node 33, Type 1, BuildingBlock: NAHDIM_clean_linker_0, # of connection points: 4
#     Node 34, Type 1, BuildingBlock: NAHDIM_clean_linker_0, # of connection points: 4
#     Node 35, Type 1, BuildingBlock: NAHDIM_clean_linker_0, # of connection points: 4
#     Edge 36, Type (0, 1), BuildingBlock: KIFKEQ_clean_linker_1, # of connection points: 2
#     Edge 37, Type (0, 1), BuildingBlock: KIFKEQ_clean_linker_1, # of connection points: 2
#     Edge 38, Type (0, 1), BuildingBlock: KIFKEQ_clean_linker_1, # of connection points: 2
#     Edge 39, Type (0, 1), BuildingBlock: KIFKEQ_clean_linker_1, # of connection points: 2
#     Edge 40, Type (0, 1), BuildingBlock: KIFKEQ_clean_linker_1, # of connection points: 2
#     Edge 41, Type (0, 1), BuildingBlock: KIFKEQ_clean_linker_1, # of connection points: 2
#     Edge 42, Type (0, 1), BuildingBlock: KIFKEQ_clean_linker_1, # of connection points: 2
#     Edge 43, Type (0, 1), BuildingBlock: KIFKEQ_clean_linker_1, # of connection points: 2
#     Edge 44, Type (0, 1), BuildingBlock: KIFKEQ_clean_linker_1, # of connection points: 2
#     Edge 45, Type (0, 1), BuildingBlock: KIFKEQ_clean_linker_1, # of connection points: 2
#     Edge 46, Type (0, 1), BuildingBlock: KIFKEQ_clean_linker_1, # of connection points: 2
#     Edge 47, Type (0, 1), BuildingBlock: KIFKEQ_clean_linker_1, # of connection points: 2
#     Edge 48, Type (0, 1), BuildingBlock: KIFKEQ_clean_linker_1, # of connection points: 2
#     Edge 49, Type (0, 1), BuildingBlock: KIFKEQ_clean_linker_1, # of connection points: 2
#     Edge 50, Type (0, 1), BuildingBlock: KIFKEQ_clean_linker_1, # of connection points: 2
#     Edge 51, Type (0, 1), BuildingBlock: KIFKEQ_clean_linker_1, # of connection points: 2
#     Edge 52, Type (0, 1), BuildingBlock: KIFKEQ_clean_linker_1, # of connection points: 2
#     Edge 53, Type (0, 1), BuildingBlock: KIFKEQ_clean_linker_1, # of connection points: 2
#     Edge 54, Type (0, 1), BuildingBlock: KIFKEQ_clean_linker_1, # of connection points: 2
#     Edge 55, Type (0, 1), BuildingBlock: KIFKEQ_clean_linker_1, # of connection points: 2
#     Edge 56, Type (0, 1), BuildingBlock: KIFKEQ_clean_linker_1, # of connection points: 2
#     Edge 57, Type (0, 1), BuildingBlock: KIFKEQ_clean_linker_1, # of connection points: 2
#     Edge 58, Type (0, 1), BuildingBlock: KIFKEQ_clean_linker_1, # of connection points: 2
#     Edge 59, Type (0, 1), BuildingBlock: KIFKEQ_clean_linker_1, # of connection points: 2
#     Edge 60, Type (0, 1), BuildingBlock: KIFKEQ_clean_linker_1, # of connection points: 2
#     Edge 61, Type (0, 1), BuildingBlock: KIFKEQ_clean_linker_1, # of connection points: 2
#     Edge 62, Type (0, 1), BuildingBlock: KIFKEQ_clean_linker_1, # of connection points: 2
#     Edge 63, Type (0, 1), BuildingBlock: KIFKEQ_clean_linker_1, # of connection points: 2
#     Edge 64, Type (0, 1), BuildingBlock: KIFKEQ_clean_linker_1, # of connection points: 2
#     Edge 65, Type (0, 1), BuildingBlock: KIFKEQ_clean_linker_1, # of connection points: 2
#     Edge 66, Type (0, 1), BuildingBlock: KIFKEQ_clean_linker_1, # of connection points: 2
#     Edge 67, Type (0, 1), BuildingBlock: KIFKEQ_clean_linker_1, # of connection points: 2
#     Edge 68, Type (0, 1), BuildingBlock: KIFKEQ_clean_linker_1, # of connection points: 2
#     Edge 69, Type (0, 1), BuildingBlock: KIFKEQ_clean_linker_1, # of connection points: 2
#     Edge 70, Type (0, 1), BuildingBlock: KIFKEQ_clean_linker_1, # of connection points: 2
#     Edge 71, Type (0, 1), BuildingBlock: KIFKEQ_clean_linker_1, # of connection points: 2
#     Edge 72, Type (0, 1), BuildingBlock: KIFKEQ_clean_linker_1, # of connection points: 2
#     Edge 73, Type (0, 1), BuildingBlock: KIFKEQ_clean_linker_1, # of connection points: 2
#     Edge 74, Type (0, 1), BuildingBlock: KIFKEQ_clean_linker_1, # of connection points: 2
#     Edge 75, Type (0, 1), BuildingBlock: KIFKEQ_clean_linker_1, # of connection points: 2
#     Edge 76, Type (0, 1), BuildingBlock: KIFKEQ_clean_linker_1, # of connection points: 2
#     Edge 77, Type (0, 1), BuildingBlock: KIFKEQ_clean_linker_1, # of connection points: 2
#     Edge 78, Type (0, 1), BuildingBlock: KIFKEQ_clean_linker_1, # of connection points: 2
#     Edge 79, Type (0, 1), BuildingBlock: KIFKEQ_clean_linker_1, # of connection points: 2
#     Edge 80, Type (0, 1), BuildingBlock: KIFKEQ_clean_linker_1, # of connection points: 2
#     Edge 81, Type (0, 1), BuildingBlock: KIFKEQ_clean_linker_1, # of connection points: 2
#     Edge 82, Type (0, 1), BuildingBlock: KIFKEQ_clean_linker_1, # of connection points: 2
#     Edge 83, Type (0, 1), BuildingBlock: KIFKEQ_clean_linker_1, # of connection points: 2
#     Edge 84, Type (0, 1), BuildingBlock: KIFKEQ_clean_linker_1, # of connection points: 2
#     Edge 85, Type (0, 1), BuildingBlock: KIFKEQ_clean_linker_1, # of connection points: 2
#     Edge 86, Type (0, 1), BuildingBlock: KIFKEQ_clean_linker_1, # of connection points: 2
#     Edge 87, Type (0, 1), BuildingBlock: KIFKEQ_clean_linker_1, # of connection points: 2
#     Edge 88, Type (0, 1), BuildingBlock: KIFKEQ_clean_linker_1, # of connection points: 2
#     Edge 89, Type (0, 1), BuildingBlock: KIFKEQ_clean_linker_1, # of connection points: 2
#     Edge 90, Type (0, 1), BuildingBlock: KIFKEQ_clean_linker_1, # of connection points: 2
#     Edge 91, Type (0, 1), BuildingBlock: KIFKEQ_clean_linker_1, # of connection points: 2
#     Edge 92, Type (0, 1), BuildingBlock: KIFKEQ_clean_linker_1, # of connection points: 2
#     Edge 93, Type (0, 1), BuildingBlock: KIFKEQ_clean_linker_1, # of connection points: 2
#     Edge 94, Type (0, 1), BuildingBlock: KIFKEQ_clean_linker_1, # of connection points: 2
#     Edge 95, Type (0, 1), BuildingBlock: KIFKEQ_clean_linker_1, # of connection points: 2
#     Edge 96, Type (0, 1), BuildingBlock: KIFKEQ_clean_linker_1, # of connection points: 2
#     Edge 97, Type (0, 1), BuildingBlock: KIFKEQ_clean_linker_1, # of connection points: 2
#     Edge 98, Type (0, 1), BuildingBlock: KIFKEQ_clean_linker_1, # of connection points: 2
#     Edge 99, Type (0, 1), BuildingBlock: KIFKEQ_clean_linker_1, # of connection points: 2
#     Edge 100, Type (0, 1), BuildingBlock: KIFKEQ_clean_linker_1, # of connection points: 2
#     Edge 101, Type (0, 1), BuildingBlock: KIFKEQ_clean_linker_1, # of connection points: 2
#     Edge 102, Type (0, 1), BuildingBlock: KIFKEQ_clean_linker_1, # of connection points: 2
#     Edge 103, Type (0, 1), BuildingBlock: KIFKEQ_clean_linker_1, # of connection points: 2
#     Edge 104, Type (0, 1), BuildingBlock: KIFKEQ_clean_linker_1, # of connection points: 2
#     Edge 105, Type (0, 1), BuildingBlock: KIFKEQ_clean_linker_1, # of connection points: 2
#     Edge 106, Type (0, 1), BuildingBlock: KIFKEQ_clean_linker_1, # of connection points: 2
#     Edge 107, Type (0, 1), BuildingBlock: KIFKEQ_clean_linker_1, # of connection points: 2
# Relax obj value: 0.030
# Max RMSD: 0.167
# Mean RMSD: 0.058
data_MOF--net-ptr--node1-CEKHIL_clean_sbu_0--node2-NAHDIM_clean_linker_0--edge1-KIFKEQ_clean_linker_1
_symmetry_space_group_name_H-M    P1
_symmetry_Int_Tables_number       1
_symmetry_cell_setting            triclinic
loop_
_symmetry_equiv_pos_as_xyz
'x, y, z'
_cell_length_a     96.290891
_cell_length_b     94.675954
_cell_length_c     81.656258
_cell_angle_alpha  91.800962
_cell_angle_beta   89.880799
_cell_angle_gamma 121.1109
loop_
_atom_site_label
_atom_site_type_symbol
_atom_site_fract_x
_atom_site_fract_y
_atom_site_fract_z
_atom_type_partial_charge
Co0 Co 0.00838 0.3369 0.00533 0.0
O1 O 0.01185 0.32506 0.02185 0.0
O2 O 0.03103 0.34887 0.01231 0.0
C3 C 0.9942 0.31498 0.988 0.0
O4 O 0.0091 0.35224 0.98786 0.0
Co5 Co 0.97349 0.32834 0.99713 0.0
O6 O 0.98388 0.3406 0.9771 0.0
C7 C 0.9901 0.34879 0.0268 0.0
C8 C 0.027 0.33666 0.02194 0.0
C9 C 0.99902 0.35121 0.97684 0.0
O10 O 0.00301 0.34884 0.02263 0.0
O11 O 0.97665 0.34054 0.01878 0.0
O12 O 0.00993 0.32307 0.98832 0.0
O13 O 0.98748 0.31937 0.99919 0.0
Co14 Co 0.66248 0.66164 0.01697 0.0
O15 O 0.6768 0.67619 0.0008 0.0
O16 O 0.67218 0.65109 0.00488 0.0
C17 C 0.67186 0.68079 0.03766 0.0
O18 O 0.64909 0.64335 0.03278 0.0
Co19 Co 0.6371 0.6678 0.03363 0.0
O20 O 0.63361 0.64986 0.04804 0.0
C21 C 0.6312 0.6539 0.99974 0.0
C22 C 0.67992 0.66472 0.99697 0.0
C23 C 0.6391 0.64046 0.04451 0.0
O24 O 0.64376 0.6525 0.00084 0.0
O25 O 0.62719 0.66076 0.01103 0.0
O26 O 0.67933 0.67304 0.0338 0.0
O27 O 0.65977 0.67766 0.0282 0.0
Co28 Co 0.33903 0.00484 0.00721 0.0
O29 O 0.32694 0.00755 0.99024 0.0
O30 O 0.34967 0.02791 0.00156 0.0
C31 C 0.31745 0.98916 0.02289 0.0
O32 O 0.35447 0.00661 0.02544 0.0
Co33 Co 0.33285 0.9702 0.01404 0.0
O34 O 0.34493 0.98113 0.03469 0.0
C35 C 0.35286 0.988 0.98594 0.0
C36 C 0.33774 0.02317 0.99111 0.0
C37 C 0.35449 0.99672 0.03594 0.0
O38 O 0.35168 0.00053 0.99017 0.0
O39 O 0.34569 0.97439 0.99342 0.0
O40 O 0.32463 0.00514 0.02371 0.0
O41 O 0.32259 0.98307 0.01168 0.0
Co42 Co 0.00358 0.67211 0.01701 0.0
O43 O 0.00178 0.68645 0.00234 0.0
O44 O 0.98104 0.66271 0.01014 0.0
C45 C 0.01943 0.69254 0.03541 0.0
O46 O 0.001 0.65458 0.0327 0.0
Co47 Co 0.037 0.6764 0.02315 0.0
O48 O 0.02571 0.65931 0.03959 0.0
C49 C 0.01961 0.66025 0.99239 0.0
C50 C 0.9863 0.67602 0.00183 0.0
C51 C 0.01033 0.65124 0.04086 0.0
O52 O 0.00719 0.66034 0.99804 0.0
O53 O 0.03334 0.66737 0.99993 0.0
O54 O 0.00375 0.68542 0.03559 0.0
O55 O 0.02517 0.68792 0.0234 0.0
Co56 Co 0.34293 0.34438 0.99692 0.0
O57 O 0.32902 0.33091 0.01402 0.0
O58 O 0.33223 0.35483 0.00711 0.0
C59 C 0.33427 0.32326 0.97826 0.0
O60 O 0.35531 0.36142 0.97966 0.0
Co61 Co 0.36957 0.33944 0.9822 0.0
O62 O 0.37317 0.35666 0.96672 0.0
C63 C 0.37394 0.35412 0.0155 0.0
C64 C 0.325 0.34197 0.01615 0.0
C65 C 0.36606 0.36478 0.96865 0.0
O66 O 0.36168 0.35581 0.01306 0.0
O67 O 0.3781 0.3465 0.00527 0.0
O68 O 0.32628 0.33075 0.98059 0.0
O69 O 0.34676 0.32816 0.9878 0.0
Co70 Co 0.66713 0.00499 0.00863 0.0
O71 O 0.67991 0.00139 0.024 0.0
O72 O 0.65626 0.98173 0.01369 0.0
C73 C 0.68797 0.02079 0.99222 0.0
O74 O 0.651 0.00426 0.99182 0.0
Co75 Co 0.67405 0.04032 0.00451 0.0
O76 O 0.65941 0.03031 0.98516 0.0
C77 C 0.65604 0.02209 0.0332 0.0
C78 C 0.66878 0.98589 0.02314 0.0
C79 C 0.64998 0.01477 0.983 0.0
O80 O 0.65582 0.00924 0.02721 0.0
O81 O 0.66361 0.03614 0.02655 0.0
O82 O 0.68035 0.0048 0.99072 0.0
O83 O 0.68367 0.02669 0.0044 0.0
Co84 Co 0.67087 0.67594 0.33963 0.0
O85 O 0.66973 0.66178 0.35653 0.0
O86 O 0.6914 0.68604 0.35166 0.0
C87 C 0.65959 0.65544 0.32013 0.0
O88 O 0.67666 0.6937 0.32283 0.0
Co89 Co 0.63958 0.67031 0.32279 0.0
O90 O 0.6546 0.68709 0.30754 0.0
C91 C 0.64849 0.6856 0.35616 0.0
C92 C 0.68469 0.67275 0.36016 0.0
C93 C 0.66971 0.69631 0.31079 0.0
O94 O 0.66231 0.68657 0.35518 0.0
O95 O 0.63738 0.67845 0.34507 0.0
O96 O 0.67503 0.66297 0.32348 0.0
O97 O 0.6514 0.6599 0.32919 0.0
Co98 Co 0.32609 0.99328 0.35314 0.0
O99 O 0.34029 0.00408 0.33515 0.0
O100 O 0.33346 0.97939 0.34377 0.0
C101 C 0.33763 0.01545 0.37061 0.0
O102 O 0.31272 0.97837 0.37152 0.0
Co103 Co 0.30334 0.00426 0.36786 0.0
O104 O 0.30131 0.99007 0.38617 0.0
C105 C 0.29462 0.9853 0.33622 0.0
C106 C 0.34183 0.99124 0.33382 0.0
C107 C 0.30497 0.979 0.3841 0.0
O108 O 0.30665 0.98307 0.33782 0.0
O109 O 0.2919 0.99419 0.34633 0.0
O110 O 0.34399 0.0063 0.36864 0.0
O111 O 0.32533 0.01166 0.3612 0.0
Co112 Co 0.01563 0.33775 0.34235 0.0
O113 O 0.00476 0.34061 0.32406 0.0
O114 O 0.02832 0.36 0.33489 0.0
C115 C 0.99329 0.32476 0.35789 0.0
O116 O 0.03044 0.34026 0.36143 0.0
Co117 Co 0.00692 0.3038 0.35512 0.0
O118 O 0.02054 0.31653 0.3745 0.0
C119 C 0.02579 0.3159 0.3247 0.0
C120 C 0.01676 0.35582 0.32417 0.0
C121 C 0.03063 0.33194 0.37349 0.0
O122 O 0.02701 0.33003 0.32698 0.0
O123 O 0.01749 0.30369 0.33394 0.0
O124 O 0.00159 0.34078 0.35755 0.0
O125 O 0.99821 0.31716 0.34832 0.0
Co126 Co 0.66265 0.98767 0.34702 0.0
O127 O 0.65916 0.99748 0.32821 0.0
O128 O 0.6408 0.97381 0.33873 0.0
C129 C 0.67539 0.01116 0.3627 0.0
O130 O 0.66073 0.97373 0.36638 0.0
Co131 Co 0.69636 0.99746 0.36096 0.0
O132 O 0.68455 0.9832 0.37942 0.0
C133 C 0.68425 0.97713 0.3303 0.0
C134 C 0.64447 0.98475 0.32771 0.0
C135 C 0.66928 0.97331 0.37824 0.0
O136 O 0.67029 0.97564 0.33226 0.0
O137 O 0.69647 0.98614 0.3398 0.0
O138 O 0.65963 0.00259 0.36163 0.0
O139 O 0.68288 0.00587 0.35363 0.0
Co140 Co 0.01367 0.68364 0.33791 0.0
O141 O 0.99886 0.66967 0.35433 0.0
O142 O 0.00115 0.69286 0.34622 0.0
C143 C 0.00799 0.66287 0.31967 0.0
O144 O 0.02651 0.70091 0.32094 0.0
Co145 Co 0.04279 0.68102 0.32585 0.0
O146 O 0.04481 0.69633 0.30876 0.0
C147 C 0.04347 0.69484 0.35901 0.0
C148 C 0.99383 0.68002 0.35527 0.0
C149 C 0.03728 0.70411 0.30998 0.0
O150 O 0.03112 0.69603 0.3553 0.0
O151 O 0.04888 0.68783 0.34949 0.0
O152 O 0.9986 0.66894 0.32066 0.0
O153 O 0.01978 0.66878 0.33025 0.0
Co154 Co 0.32731 0.33887 0.34108 0.0
O155 O 0.34154 0.33869 0.35749 0.0
O156 O 0.31784 0.31705 0.34976 0.0
C157 C 0.3471 0.35262 0.32278 0.0
O158 O 0.30975 0.33383 0.32402 0.0
Co159 Co 0.33105 0.37125 0.32917 0.0
O160 O 0.31391 0.35705 0.31279 0.0
C161 C 0.31818 0.35973 0.36199 0.0
C162 C 0.33098 0.32308 0.35872 0.0
C163 C 0.30611 0.34139 0.31361 0.0
O164 O 0.31651 0.3456 0.35832 0.0
O165 O 0.32518 0.37204 0.35262 0.0
O166 O 0.34028 0.33674 0.32388 0.0
O167 O 0.34244 0.35974 0.3333 0.0
Co168 Co 0.34008 0.01331 0.67362 0.0
O169 O 0.34351 0.00286 0.69179 0.0
O170 O 0.36186 0.02709 0.68233 0.0
C171 C 0.32844 0.99062 0.65677 0.0
O172 O 0.34171 0.02786 0.65492 0.0
Co173 Co 0.30603 0.00234 0.65934 0.0
O174 O 0.31817 0.01628 0.64078 0.0
C175 C 0.31737 0.0223 0.69047 0.0
C176 C 0.35826 0.01546 0.69253 0.0
C177 C 0.33314 0.02724 0.64254 0.0
O178 O 0.33156 0.02421 0.68887 0.0
O179 O 0.30547 0.01325 0.6806 0.0
O180 O 0.34413 0.99962 0.65828 0.0
O181 O 0.32036 0.99491 0.6662 0.0
Co182 Co 0.99232 0.32662 0.67726 0.0
O183 O 0.00751 0.34157 0.66176 0.0
O184 O 0.00525 0.31801 0.66851 0.0
C185 C 0.9972 0.34597 0.69688 0.0
O186 O 0.9789 0.30842 0.69322 0.0
Co187 Co 0.9627 0.32878 0.68871 0.0
O188 O 0.96086 0.31334 0.70554 0.0
C189 C 0.9616 0.31337 0.65633 0.0
C190 C 0.0127 0.33138 0.6602 0.0
C191 C 0.96805 0.30525 0.7041 0.0
O192 O 0.97547 0.31491 0.65921 0.0
O193 O 0.95491 0.31882 0.66614 0.0
O194 O 0.00673 0.34012 0.69534 0.0
O195 O 0.98595 0.34105 0.68576 0.0
Co196 Co 0.67645 0.66788 0.67 0.0
O197 O 0.66374 0.66814 0.65196 0.0
O198 O 0.68665 0.68978 0.66143 0.0
C199 C 0.65516 0.65411 0.68672 0.0
O200 O 0.6926 0.67292 0.68868 0.0
Co201 Co 0.6716 0.63574 0.684 0.0
O202 O 0.68431 0.65015 0.70302 0.0
C203 C 0.69 0.6484 0.6534 0.0
C204 C 0.67434 0.68381 0.65131 0.0
C205 C 0.69351 0.66562 0.70132 0.0
O206 O 0.68876 0.66131 0.65454 0.0
O207 O 0.68349 0.63665 0.66346 0.0
O208 O 0.66212 0.66998 0.68546 0.0
O209 O 0.6606 0.64693 0.67723 0.0
Co210 Co 0.33853 0.32939 0.6851 0.0
O211 O 0.3398 0.34417 0.66883 0.0
O212 O 0.31755 0.32058 0.67428 0.0
C213 C 0.35163 0.34963 0.70459 0.0
O214 O 0.3324 0.31137 0.70162 0.0
Co215 Co 0.36941 0.33241 0.6997 0.0
O216 O 0.35461 0.31657 0.71579 0.0
C217 C 0.3587 0.31843 0.66615 0.0
C218 C 0.32445 0.33404 0.66604 0.0
C219 C 0.33932 0.3083 0.71333 0.0
O220 O 0.3452 0.3179 0.66844 0.0
O221 O 0.37042 0.32502 0.67664 0.0
O222 O 0.33614 0.34286 0.70203 0.0
O223 O 0.35887 0.34457 0.6948 0.0
Co224 Co 0.67976 0.01746 0.66265 0.0
O225 O 0.66563 0.00654 0.68077 0.0
O226 O 0.67034 0.02998 0.67056 0.0
C227 C 0.67023 0.99447 0.64644 0.0
O228 O 0.69236 0.03228 0.64389 0.0
Co229 Co 0.70529 0.00988 0.64944 0.0
O230 O 0.70768 0.02404 0.63103 0.0
C231 C 0.7116 0.02903 0.68068 0.0
C232 C 0.66267 0.01848 0.68103 0.0
C233 C 0.70178 0.03335 0.63218 0.0
O234 O 0.69882 0.02985 0.67832 0.0
O235 O 0.71567 0.02084 0.67112 0.0
O236 O 0.6626 0.00246 0.64725 0.0
O237 O 0.68282 1.00004 0.65598 0.0
Co238 Co 0.97894 0.66656 0.6749 0.0
O239 O 0.99015 0.66385 0.69293 0.0
O240 O 0.96584 0.64476 0.68339 0.0
C241 C 0.0006 0.67788 0.65837 0.0
O242 O 0.96376 0.66402 0.6561 0.0
Co243 Co 0.98861 0.7005 0.66149 0.0
O244 O 0.97371 0.68772 0.64295 0.0
C245 C 0.97083 0.69012 0.69255 0.0
C246 C 0.97781 0.64888 0.69357 0.0
C247 C 0.96342 0.67239 0.64413 0.0
O248 O 0.96889 0.67566 0.69044 0.0
O249 O 0.97911 0.70195 0.68292 0.0
O250 O 0.99172 0.66196 0.65953 0.0
O251 O 0.99672 0.68646 0.66786 0.0
C252 C 0.20568 0.29498 0.05191 0.0
C253 C 0.21686 0.30528 0.06634 0.0
C254 C 0.20308 0.29628 0.09213 0.0
C255 C 0.20661 0.31131 0.09966 0.0
C256 C 0.19594 0.31193 0.11097 0.0
C257 C 0.18146 0.29719 0.11479 0.0
C258 C 0.17832 0.2819 0.10785 0.0
C259 C 0.18933 0.28163 0.09672 0.0
C260 C 0.19985 0.3284 0.1184 0.0
C261 C 0.16302 0.26596 0.11169 0.0
C262 C 0.08147 0.31308 0.07417 0.0
C263 C 0.08996 0.3056 0.08206 0.0
C264 C 0.11434 0.31318 0.09816 0.0
C265 C 0.11118 0.29694 0.09896 0.0
C266 C 0.12166 0.29357 0.1076 0.0
C267 C 0.13574 0.30669 0.11539 0.0
C268 C 0.13922 0.32309 0.11423 0.0
C269 C 0.12839 0.32609 0.10572 0.0
C270 C 0.11762 0.27594 0.10855 0.0
C271 C 0.15432 0.33741 0.12209 0.0
C272 C 0.10523 0.30002 0.22 0.0
C273 C 0.10129 0.28513 0.21167 0.0
C274 C 0.11322 0.28346 0.20348 0.0
C275 C 0.12933 0.29706 0.20325 0.0
C276 C 0.13338 0.31199 0.21171 0.0
C277 C 0.12128 0.31321 0.22009 0.0
C278 C 0.10855 0.26722 0.19487 0.0
C279 C 0.15041 0.32676 0.21164 0.0
C280 C 0.21376 0.25873 0.22705 0.0
C281 C 0.21659 0.27617 0.22919 0.0
C282 C 0.19328 0.27859 0.22307 0.0
C283 C 0.17722 0.26662 0.21916 0.0
C284 C 0.16775 0.27017 0.20902 0.0
C285 C 0.17438 0.28634 0.20322 0.0
C286 C 0.19057 0.29863 0.20752 0.0
C287 C 0.19995 0.29453 0.21721 0.0
C288 C 0.15061 0.25666 0.20466 0.0
C289 C 0.19787 0.31617 0.20221 0.0
C290 C 0.16897 0.29805 0.12471 0.0
C291 C 0.15842 0.30156 0.11652 0.0
C292 C 0.14667 0.30319 0.12495 0.0
C293 C 0.14538 0.30136 0.1421 0.0
C294 C 0.13377 0.30304 0.15097 0.0
C295 C 0.13267 0.30138 0.16785 0.0
C296 C 0.14299 0.29773 0.1765 0.0
C297 C 0.1418 0.29582 0.19363 0.0
C298 C 0.15235 0.29239 0.2019 0.0
C299 C 0.16401 0.29051 0.19349 0.0
C300 C 0.16528 0.2922 0.17629 0.0
C301 C 0.17667 0.29018 0.16733 0.0
C302 C 0.178 0.2922 0.15045 0.0
C303 C 0.16776 0.29598 0.14184 0.0
C304 C 0.15597 0.29774 0.15057 0.0
C305 C 0.15477 0.29592 0.1678 0.0
C306 C 0.06999 0.29332 0.21191 0.0
C307 C 0.07738 0.29185 0.22789 0.0
O308 O 0.21253 0.29572 0.08009 0.0
O309 O 0.2019 0.27471 0.2331 0.0
O310 O 0.09409 0.30232 0.228 0.0
O311 O 0.10419 0.31687 0.09035 0.0
H312 H 0.21508 0.31593 0.06835 0.0
H313 H 0.19298 0.29132 0.05472 0.0
H314 H 0.20607 0.28357 0.04955 0.0
H315 H 0.20929 0.30229 0.04066 0.0
H316 H 0.21759 0.32257 0.09649 0.0
H317 H 0.18686 0.27007 0.09097 0.0
H318 H 0.19117 0.33169 0.11352 0.0
H319 H 0.21236 0.33841 0.11561 0.0
H320 H 0.19846 0.32764 0.1319 0.0
H321 H 0.16253 0.25506 0.10556 0.0
H322 H 0.15228 0.26648 0.10769 0.0
H323 H 0.16218 0.2643 0.12513 0.0
H324 H 0.08189 0.29458 0.08935 0.0
H325 H 0.08277 0.30853 0.04914 0.0
H326 H 0.08684 0.32591 0.07978 0.0
H327 H 0.06961 0.30795 0.08071 0.0
H328 H 0.10051 0.28679 0.09298 0.0
H329 H 0.13083 0.33857 0.10495 0.0
H330 H 0.12734 0.27464 0.10269 0.0
H331 H 0.10586 0.26703 0.1024 0.0
H332 H 0.11708 0.27266 0.12157 0.0
H333 H 0.15588 0.3495 0.11907 0.0
H334 H 0.16517 0.33711 0.118 0.0
H335 H 0.1537 0.33633 0.1356 0.0
H336 H 0.07429 0.27888 0.22907 0.0
H337 H 0.08897 0.27474 0.21139 0.0
H338 H 0.12424 0.32463 0.22656 0.0
H339 H 0.1092 0.26873 0.18142 0.0
H340 H 0.09607 0.25728 0.19786 0.0
H341 H 0.11719 0.2633 0.19828 0.0
H342 H 0.15143 0.33772 0.21821 0.0
H343 H 0.15439 0.33 0.19882 0.0
H344 H 0.15884 0.32367 0.21755 0.0
H345 H 0.22109 0.28244 0.21735 0.0
H346 H 0.22488 0.25909 0.22273 0.0
H347 H 0.20399 0.25153 0.21775 0.0
H348 H 0.21002 0.25225 0.23881 0.0
H349 H 0.17219 0.25439 0.22392 0.0
H350 H 0.21232 0.30382 0.22063 0.0
H351 H 0.14815 0.25654 0.19136 0.0
H352 H 0.14197 0.25902 0.21145 0.0
H353 H 0.14824 0.24429 0.20783 0.0
H354 H 0.20973 0.32467 0.2084 0.0
H355 H 0.18948 0.32069 0.20488 0.0
H356 H 0.19976 0.31664 0.18879 0.0
H357 H 0.1594 0.3031 0.10337 0.0
H358 H 0.12542 0.30574 0.14499 0.0
H359 H 0.12358 0.30295 0.17402 0.0
H360 H 0.15134 0.29097 0.21506 0.0
H361 H 0.18475 0.28711 0.17329 0.0
H362 H 0.18709 0.29067 0.14421 0.0
H363 H 0.05659 0.28501 0.21184 0.0
H364 H 0.07299 0.30623 0.21047 0.0
H365 H 0.0748 0.2897 0.20125 0.0
C366 C 0.7079 0.90772 0.06331 0.0
C367 C 0.69491 0.90653 0.07502 0.0
C368 C 0.70263 0.9005 0.10086 0.0
C369 C 0.68884 0.8859 0.10559 0.0
C370 C 0.69024 0.87487 0.11554 0.0
C371 C 0.70583 0.87844 0.12062 0.0
C372 C 0.71976 0.89339 0.11614 0.0
C373 C 0.71794 0.9044 0.10652 0.0
C374 C 0.67508 0.85928 0.12039 0.0
C375 C 0.73656 0.89756 0.1212 0.0
C376 C 0.70593 0.76439 0.08282 0.0
C377 C 0.7132 0.78164 0.08936 0.0
C378 C 0.70383 0.79981 0.09965 0.0
C379 C 0.71905 0.81264 0.10545 0.0
C380 C 0.72044 0.82612 0.11462 0.0
C381 C 0.70629 0.82654 0.11837 0.0
C382 C 0.69098 0.81365 0.11246 0.0
C383 C 0.69001 0.80056 0.10299 0.0
C384 C 0.737 0.83987 0.12037 0.0
C385 C 0.67562 0.81365 0.11617 0.0
C386 C 0.70655 0.80088 0.22448 0.0
C387 C 0.72206 0.81441 0.22139 0.0
C388 C 0.72388 0.82789 0.21277 0.0
C389 C 0.70994 0.82784 0.20721 0.0
C390 C 0.69433 0.81427 0.21042 0.0
C391 C 0.69287 0.80095 0.21894 0.0
C392 C 0.74068 0.84215 0.20949 0.0
C393 C 0.67918 0.81383 0.20482 0.0
C394 C 0.71685 0.94507 0.21663 0.0
C395 C 0.70833 0.9307 0.22822 0.0
C396 C 0.71677 0.91048 0.22481 0.0
C397 C 0.7308 0.9104 0.22064 0.0
C398 C 0.72986 0.89653 0.21277 0.0
C399 C 0.71447 0.88237 0.20923 0.0
C400 C 0.70026 0.88201 0.21438 0.0
C401 C 0.70155 0.89605 0.22222 0.0
C402 C 0.74526 0.89718 0.20775 0.0
C403 C 0.68369 0.86692 0.21118 0.0
C404 C 0.70751 0.86608 0.12983 0.0
C405 C 0.7069 0.85295 0.12086 0.0
C406 C 0.70745 0.84031 0.12867 0.0
C407 C 0.70861 0.84067 0.14596 0.0
C408 C 0.70863 0.82787 0.15424 0.0
C409 C 0.70969 0.82829 0.17126 0.0
C410 C 0.71075 0.84152 0.18067 0.0
C411 C 0.71155 0.84191 0.19801 0.0
C412 C 0.71295 0.85544 0.20696 0.0
C413 C 0.7132 0.86847 0.19908 0.0
C414 C 0.71191 0.86805 0.18179 0.0
C415 C 0.71152 0.88067 0.17352 0.0
C416 C 0.70997 0.88 0.15654 0.0
C417 C 0.70908 0.86688 0.14712 0.0
C418 C 0.70959 0.85409 0.1552 0.0
C419 C 0.71083 0.85459 0.17256 0.0
C420 C 0.70874 0.7709 0.25082 0.0
C421 C 0.71585 0.7854 0.24008 0.0
O422 O 0.7014 0.91094 0.09081 0.0
O423 O 0.71838 0.92461 0.2314 0.0
O424 O 0.70413 0.78755 0.23271 0.0
O425 O 0.70191 0.78649 0.09087 0.0
H426 H 0.68447 0.89357 0.07452 0.0
H427 H 0.71204 0.8993 0.06708 0.0
H428 H 0.71854 0.92054 0.06348 0.0
H429 H 0.70295 0.90405 0.0506 0.0
H430 H 0.67698 0.88318 0.10149 0.0
H431 H 0.7285 0.91582 0.10288 0.0
H432 H 0.67435 0.84859 0.11358 0.0
H433 H 0.66392 0.85953 0.1176 0.0
H434 H 0.67547 0.85734 0.13368 0.0
H435 H 0.74618 0.90932 0.11608 0.0
H436 H 0.73856 0.88747 0.11705 0.0
H437 H 0.73774 0.89863 0.13476 0.0
H438 H 0.72458 0.79091 0.08335 0.0
H439 H 0.71193 0.76553 0.07068 0.0
H440 H 0.6938 0.76075 0.07719 0.0
H441 H 0.70837 0.75192 0.10232 0.0
H442 H 0.72987 0.81227 0.10278 0.0
H443 H 0.67835 0.79062 0.09839 0.0
H444 H 0.73877 0.85201 0.11722 0.0
H445 H 0.74691 0.83864 0.11487 0.0
H446 H 0.73796 0.83977 0.1339 0.0
H447 H 0.66456 0.80168 0.11265 0.0
H448 H 0.67554 0.82351 0.10927 0.0
H449 H 0.67512 0.81632 0.12943 0.0
H450 H 0.72517 0.78624 0.23138 0.0
H451 H 0.73275 0.81449 0.22561 0.0
H452 H 0.68097 0.79047 0.2214 0.0
H453 H 0.74219 0.84411 0.19611 0.0
H454 H 0.75032 0.8401 0.21411 0.0
H455 H 0.74229 0.85362 0.21545 0.0
H456 H 0.66795 0.80281 0.20909 0.0
H457 H 0.67875 0.81371 0.19123 0.0
H458 H 0.67939 0.8251 0.20944 0.0
H459 H 0.69695 0.92127 0.22179 0.0
H460 H 0.70917 0.95043 0.21431 0.0
H461 H 0.71899 0.94055 0.20473 0.0
H462 H 0.72876 0.95489 0.22182 0.0
H463 H 0.7425 0.92147 0.22305 0.0
H464 H 0.69068 0.89569 0.22629 0.0
H465 H 0.74562 0.89634 0.19418 0.0
H466 H 0.74546 0.88645 0.21258 0.0
H467 H 0.7563 0.90872 0.21225 0.0
H468 H 0.67386 0.8683 0.21663 0.0
H469 H 0.68319 0.85594 0.21628 0.0
H470 H 0.68142 0.86457 0.19776 0.0
H471 H 0.70576 0.85243 0.10761 0.0
H472 H 0.70777 0.81733 0.14767 0.0
H473 H 0.70966 0.8181 0.17695 0.0
H474 H 0.71356 0.8557 0.22024 0.0
H475 H 0.71226 0.89115 0.18009 0.0
H476 H 0.70955 0.88997 0.15087 0.0
H477 H 0.71204 0.76215 0.24489 0.0
H478 H 0.69546 0.76305 0.2474 0.0
H479 H 0.7169 0.78143 0.27435 0.0
C480 C 0.19853 0.91574 0.06606 0.0
C481 C 0.21077 0.92389 0.08035 0.0
C482 C 0.19692 0.90318 0.10135 0.0
C483 C 0.1853 0.90743 0.10545 0.0
C484 C 0.17233 0.89754 0.11567 0.0
C485 C 0.1708 0.88299 0.12178 0.0
C486 C 0.18263 0.87884 0.11796 0.0
C487 C 0.19565 0.88913 0.10795 0.0
C488 C 0.16005 0.90245 0.11967 0.0
C489 C 0.18127 0.86331 0.12407 0.0
C490 C 0.06521 0.81438 0.05852 0.0
C491 C 0.07563 0.81088 0.06984 0.0
C492 C 0.08684 0.82313 0.09683 0.0
C493 C 0.09849 0.81853 0.09805 0.0
C494 C 0.11144 0.82665 0.10936 0.0
C495 C 0.11297 0.83993 0.11931 0.0
C496 C 0.10109 0.84446 0.11817 0.0
C497 C 0.08793 0.83565 0.10722 0.0
C498 C 0.12364 0.82124 0.11044 0.0
C499 C 0.10251 0.85891 0.12807 0.0
C500 C 0.08244 0.81592 0.22414 0.0
C501 C 0.09247 0.81024 0.21827 0.0
C502 C 0.10709 0.82093 0.21048 0.0
C503 C 0.1116 0.83755 0.20832 0.0
C504 C 0.10171 0.84339 0.21467 0.0
C505 C 0.08736 0.83252 0.22272 0.0
C506 C 0.11764 0.81444 0.20445 0.0
C507 C 0.10615 0.86104 0.2127 0.0
C508 C 0.2266 0.94304 0.22292 0.0
C509 C 0.21736 0.93533 0.2386 0.0
C510 C 0.19645 0.90729 0.22886 0.0
C511 C 0.19277 0.89097 0.22725 0.0
C512 C 0.17915 0.87902 0.21815 0.0
C513 C 0.16877 0.88349 0.21073 0.0
C514 C 0.17209 0.89986 0.21274 0.0
C515 C 0.18601 0.91165 0.22157 0.0
C516 C 0.17601 0.8617 0.21621 0.0
C517 C 0.16104 0.90497 0.20537 0.0
C518 C 0.15619 0.87152 0.13109 0.0
C519 C 0.14203 0.86095 0.1221 0.0
C520 C 0.12764 0.84994 0.12985 0.0
C521 C 0.12734 0.84922 0.14713 0.0
C522 C 0.11321 0.838 0.15533 0.0
C523 C 0.11288 0.83783 0.17236 0.0
C524 C 0.12676 0.84871 0.18186 0.0
C525 C 0.1265 0.84878 0.19921 0.0
C526 C 0.14044 0.86003 0.20823 0.0
C527 C 0.15473 0.87123 0.20043 0.0
C528 C 0.15532 0.8711 0.18312 0.0
C529 C 0.16961 0.88197 0.17488 0.0
C530 C 0.16995 0.88212 0.15785 0.0
C531 C 0.15605 0.87132 0.14839 0.0
C532 C 0.14156 0.86009 0.15643 0.0
C533 C 0.14124 0.85991 0.17382 0.0
C534 C 0.0405 0.78708 0.22364 0.0
C535 C 0.05725 0.78942 0.2266 0.0
O536 O 0.20931 0.91204 0.09094 0.0
O537 O 0.21014 0.9183 0.23744 0.0
O538 O 0.06802 0.80577 0.23128 0.0
O539 O 0.07449 0.81583 0.08568 0.0
H540 H 0.20851 0.93288 0.08708 0.0
H541 H 0.18593 0.90939 0.07063 0.0
H542 H 0.20042 0.9065 0.05932 0.0
H543 H 0.19988 0.9252 0.05743 0.0
H544 H 0.1861 0.91833 0.10066 0.0
H545 H 0.20468 0.88597 0.10481 0.0
H546 H 0.14835 0.89366 0.11338 0.0
H547 H 0.16401 0.9151 0.11575 0.0
H548 H 0.15783 0.90184 0.13306 0.0
H549 H 0.19118 0.86154 0.11954 0.0
H550 H 0.16944 0.85242 0.12007 0.0
H551 H 0.18164 0.86378 0.13767 0.0
H552 H 0.08839 0.81836 0.06564 0.0
H553 H 0.0663 0.81114 0.04557 0.0
H554 H 0.06934 0.82772 0.0594 0.0
H555 H 0.05226 0.80716 0.06204 0.0
H556 H 0.09745 0.80857 0.09023 0.0
H557 H 0.07877 0.83899 0.1062 0.0
H558 H 0.12656 0.82059 0.12345 0.0
H559 H 0.13505 0.83042 0.10454 0.0
H560 H 0.11919 0.809 0.10421 0.0
H561 H 0.09379 0.86241 0.12378 0.0
H562 H 0.11499 0.86981 0.12741 0.0
H563 H 0.10004 0.85565 0.14111 0.0
H564 H 0.06088 0.78627 0.2147 0.0
H565 H 0.08895 0.79751 0.21988 0.0
H566 H 0.07963 0.83682 0.22752 0.0
H567 H 0.11753 0.814 0.19085 0.0
H568 H 0.11342 0.80186 0.20876 0.0
H569 H 0.13038 0.82286 0.20867 0.0
H570 H 0.09655 0.86329 0.2172 0.0
H571 H 0.10835 0.86422 0.1996 0.0
H572 H 0.11757 0.86945 0.21963 0.0
H573 H 0.20794 0.93864 0.2405 0.0
H574 H 0.21814 0.93844 0.21219 0.0
H575 H 0.23246 0.95669 0.22384 0.0
H576 H 0.23606 0.93983 0.22079 0.0
H577 H 0.20083 0.88769 0.23294 0.0
H578 H 0.18855 0.92417 0.22262 0.0
H579 H 0.17499 0.85807 0.203 0.0
H580 H 0.1643 0.85296 0.22193 0.0
H581 H 0.18576 0.86045 0.22195 0.0
H582 H 0.16396 0.91738 0.21 0.0
H583 H 0.14819 0.89588 0.20812 0.0
H584 H 0.16226 0.90525 0.19185 0.0
H585 H 0.14215 0.86146 0.10884 0.0
H586 H 0.10219 0.82931 0.14865 0.0
H587 H 0.10158 0.82909 0.17799 0.0
H588 H 0.14009 0.86023 0.22152 0.0
H589 H 0.1807 0.89057 0.18151 0.0
H590 H 0.18123 0.89087 0.15218 0.0
H591 H 0.03163 0.77407 0.21979 0.0
H592 H 0.04115 0.79519 0.21374 0.0
H593 H 0.03611 0.79033 0.23492 0.0
C594 C 0.2948 0.09947 0.9553 0.0
C595 C 0.29856 0.09201 0.94024 0.0
C596 C 0.30447 0.11288 0.91974 0.0
C597 C 0.28825 0.10818 0.91643 0.0
C598 C 0.28455 0.11753 0.90629 0.0
C599 C 0.29726 0.13206 0.89952 0.0
C600 C 0.31357 0.1368 0.90274 0.0
C601 C 0.31693 0.12701 0.91264 0.0
C602 C 0.267 0.11198 0.90298 0.0
C603 C 0.32746 0.15237 0.89599 0.0
C604 C 0.25587 0.19974 0.95729 0.0
C605 C 0.27023 0.2038 0.94627 0.0
C606 C 0.2699 0.1903 0.92035 0.0
C607 C 0.28642 0.19557 0.91944 0.0
C608 C 0.29169 0.18715 0.90917 0.0
C609 C 0.28013 0.17295 0.89995 0.0
C610 C 0.26344 0.16767 0.90086 0.0
C611 C 0.25862 0.17672 0.91075 0.0
C612 C 0.30959 0.19335 0.9083 0.0
C613 C 0.25061 0.15225 0.89175 0.0
C614 C 0.2722 0.19231 0.79405 0.0
C615 C 0.28798 0.19903 0.80045 0.0
C616 C 0.29245 0.18913 0.80868 0.0
C617 C 0.28077 0.17225 0.81086 0.0
C618 C 0.26498 0.1654 0.80403 0.0
C619 C 0.261 0.17549 0.79545 0.0
C620 C 0.30961 0.19673 0.81514 0.0
C621 C 0.25219 0.14748 0.80603 0.0
C622 C 0.2924 0.06883 0.80131 0.0
C623 C 0.2907 0.07565 0.78516 0.0
C624 C 0.2976 0.10383 0.79357 0.0
C625 C 0.31022 0.12032 0.7946 0.0
C626 C 0.30842 0.13237 0.80312 0.0
C627 C 0.29345 0.12782 0.81053 0.0
C628 C 0.28042 0.11126 0.80908 0.0
C629 C 0.28268 0.09939 0.80083 0.0
C630 C 0.32258 0.14989 0.80446 0.0
C631 C 0.26412 0.10604 0.81645 0.0
C632 C 0.29345 0.14266 0.88973 0.0
C633 C 0.28942 0.15305 0.89825 0.0
C634 C 0.28537 0.16317 0.88998 0.0
C635 C 0.28566 0.16324 0.87266 0.0
C636 C 0.28212 0.17362 0.86394 0.0
C637 C 0.28184 0.17316 0.84689 0.0
C638 C 0.28533 0.16249 0.83787 0.0
C639 C 0.28495 0.16183 0.82051 0.0
C640 C 0.28801 0.1507 0.81198 0.0
C641 C 0.29153 0.1402 0.8203 0.0
C642 C 0.29241 0.14101 0.83762 0.0
C643 C 0.2963 0.13089 0.84636 0.0
C644 C 0.29669 0.13143 0.86341 0.0
C645 C 0.29329 0.14216 0.8724 0.0
C646 C 0.28945 0.15256 0.86384 0.0
C647 C 0.28916 0.15209 0.84643 0.0
C648 C 0.25565 0.21761 0.79384 0.0
C649 C 0.27133 0.21742 0.79164 0.0
O650 O 0.30865 0.10435 0.92976 0.0
O651 O 0.30044 0.09273 0.78558 0.0
O652 O 0.26747 0.20171 0.78641 0.0
O653 O 0.26446 0.19797 0.93047 0.0
H654 H 0.28703 0.08309 0.93371 0.0
H655 H 0.28687 0.08961 0.96377 0.0
H656 H 0.30618 0.1086 0.96192 0.0
H657 H 0.28836 0.1058 0.95158 0.0
H658 H 0.27835 0.0973 0.92171 0.0
H659 H 0.32939 0.13057 0.9152 0.0
H660 H 0.26411 0.12071 0.90923 0.0
H661 H 0.25856 0.0994 0.9074 0.0
H662 H 0.26483 0.11206 0.88964 0.0
H663 H 0.33944 0.15495 0.90056 0.0
H664 H 0.32613 0.16306 0.89939 0.0
H665 H 0.32722 0.15125 0.88241 0.0
H666 H 0.27611 0.19725 0.95117 0.0
H667 H 0.26011 0.20399 0.97014 0.0
H668 H 0.24729 0.18618 0.95709 0.0
H669 H 0.2493 0.20576 0.95298 0.0
H670 H 0.2952 0.20631 0.92667 0.0
H671 H 0.2459 0.17283 0.91153 0.0
H672 H 0.31326 0.1937 0.89534 0.0
H673 H 0.31218 0.18477 0.9147 0.0
H674 H 0.31711 0.20587 0.91412 0.0
H675 H 0.2382 0.14832 0.89602 0.0
H676 H 0.2528 0.14194 0.89328 0.0
H677 H 0.25111 0.15461 0.87848 0.0
H678 H 0.27749 0.22066 0.8039 0.0
H679 H 0.29681 0.21198 0.79889 0.0
H680 H 0.24893 0.1704 0.79025 0.0
H681 H 0.30968 0.19786 0.82871 0.0
H682 H 0.31777 0.2092 0.81034 0.0
H683 H 0.31452 0.18869 0.81182 0.0
H684 H 0.24007 0.1445 0.80146 0.0
H685 H 0.25124 0.14434 0.81913 0.0
H686 H 0.25572 0.13956 0.79914 0.0
H687 H 0.27781 0.07193 0.78319 0.0
H688 H 0.28845 0.0737 0.8117 0.0
H689 H 0.28468 0.05515 0.80097 0.0
H690 H 0.30523 0.07247 0.80355 0.0
H691 H 0.32167 0.12366 0.78893 0.0
H692 H 0.2727 0.08675 0.8002 0.0
H693 H 0.32532 0.15401 0.81756 0.0
H694 H 0.31937 0.15819 0.79841 0.0
H695 H 0.33366 0.15127 0.79872 0.0
H696 H 0.25464 0.09334 0.81233 0.0
H697 H 0.26012 0.11469 0.81313 0.0
H698 H 0.26517 0.10642 0.83001 0.0
H699 H 0.28917 0.15306 0.91154 0.0
H700 H 0.27941 0.18214 0.87021 0.0
H701 H 0.27879 0.18125 0.84087 0.0
H702 H 0.28738 0.14999 0.79869 0.0
H703 H 0.29905 0.12239 0.84011 0.0
H704 H 0.29961 0.12326 0.86946 0.0
H705 H 0.25843 0.23007 0.79812 0.0
H706 H 0.24804 0.20862 0.80316 0.0
H707 H 0.2486 0.21416 0.78214 0.0
C708 C 0.80883 0.07852 0.96081 0.0
C709 C 0.80017 0.0829 0.94803 0.0
C710 C 0.8105 0.08942 0.92048 0.0
C711 C 0.80703 0.10177 0.91732 0.0
C712 C 0.81619 0.11396 0.90606 0.0
C713 C 0.82913 0.11382 0.89795 0.0
C714 C 0.83198 0.10078 0.90042 0.0
C715 C 0.8224 0.08856 0.91151 0.0
C716 C 0.81248 0.12737 0.90335 0.0
C717 C 0.84567 0.10022 0.892 0.0
C718 C 0.9376 0.23066 0.9403 0.0
C719 C 0.92789 0.21441 0.93143 0.0
C720 C 0.90052 0.19592 0.9205 0.0
C721 C 0.90404 0.18464 0.91281 0.0
C722 C 0.89244 0.17151 0.9028 0.0
C723 C 0.87716 0.16985 0.90007 0.0
C724 C 0.87359 0.1812 0.90773 0.0
C725 C 0.88529 0.194 0.91799 0.0
C726 C 0.89649 0.15933 0.89525 0.0
C727 C 0.85741 0.1798 0.9051 0.0
C728 C 0.90507 0.19687 0.79639 0.0
C729 C 0.90605 0.18291 0.7997 0.0
C730 C 0.89316 0.16924 0.80715 0.0
C731 C 0.87898 0.16945 0.81122 0.0
C732 C 0.87777 0.18326 0.80746 0.0
C733 C 0.8909 0.19683 0.80018 0.0
C734 C 0.89483 0.1547 0.81104 0.0
C735 C 0.86276 0.18382 0.81149 0.0
C736 C 0.76714 0.04944 0.79723 0.0
C737 C 0.77446 0.0654 0.78779 0.0
C738 C 0.80323 0.08599 0.79292 0.0
C739 C 0.81768 0.08673 0.79695 0.0
C740 C 0.83046 0.10075 0.80501 0.0
C741 C 0.82869 0.11438 0.80899 0.0
C742 C 0.81446 0.11409 0.8041 0.0
C743 C 0.80191 0.09994 0.79597 0.0
C744 C 0.84564 0.10082 0.80971 0.0
C745 C 0.8124 0.12861 0.8078 0.0
C746 C 0.84081 0.12826 0.88853 0.0
C747 C 0.85279 0.14202 0.89746 0.0
C748 C 0.86471 0.15591 0.88964 0.0
C749 C 0.86489 0.15612 0.87233 0.0
C750 C 0.87689 0.1698 0.86404 0.0
C751 C 0.87726 0.16966 0.84701 0.0
C752 C 0.86546 0.15597 0.8376 0.0
C753 C 0.86582 0.15566 0.82027 0.0
C754 C 0.85373 0.14199 0.81129 0.0
C755 C 0.84125 0.12848 0.81917 0.0
C756 C 0.84084 0.12843 0.8365 0.0
C757 C 0.82858 0.11493 0.84483 0.0
C758 C 0.82846 0.11487 0.86187 0.0
C759 C 0.84056 0.12833 0.87123 0.0
C760 C 0.85279 0.14225 0.8631 0.0
C761 C 0.85301 0.14224 0.84572 0.0
C762 C 0.94401 0.21787 0.79859 0.0
C763 C 0.93211 0.21325 0.78406 0.0
O764 O 0.80296 0.07859 0.93253 0.0
O765 O 0.79096 0.0717 0.78603 0.0
O766 O 0.9175 0.21075 0.78996 0.0
O767 O 0.91145 0.20875 0.93033 0.0
H768 H 0.8056 0.09652 0.94946 0.0
H769 H 0.82213 0.0858 0.95886 0.0
H770 H 0.80481 0.06521 0.95981 0.0
H771 H 0.80641 0.0815 0.97337 0.0
H772 H 0.79739 0.10204 0.92389 0.0
H773 H 0.82477 0.07879 0.9139 0.0
H774 H 0.82195 0.139 0.90957 0.0
H775 H 0.80048 0.1242 0.90829 0.0
H776 H 0.81266 0.12966 0.89007 0.0
H777 H 0.84652 0.08947 0.89557 0.0
H778 H 0.85737 0.11171 0.89506 0.0
H779 H 0.84387 0.09953 0.87851 0.0
H780 H 0.93047 0.20479 0.93531 0.0
H781 H 0.94264 0.22806 0.95148 0.0
H782 H 0.92875 0.23281 0.94735 0.0
H783 H 0.95247 0.24635 0.92212 0.0
H784 H 0.91575 0.18588 0.91469 0.0
H785 H 0.88267 0.20273 0.92398 0.0
H786 H 0.88679 0.14651 0.89784 0.0
H787 H 0.90825 0.16137 0.89988 0.0
H788 H 0.89716 0.16045 0.88174 0.0
H789 H 0.85717 0.19058 0.91049 0.0
H790 H 0.84778 0.16847 0.91083 0.0
H791 H 0.85449 0.17865 0.89179 0.0
H792 H 0.93025 0.20182 0.77772 0.0
H793 H 0.91692 0.1827 0.79686 0.0
H794 H 0.89021 0.2076 0.79754 0.0
H795 H 0.89388 0.15293 0.82447 0.0
H796 H 0.90655 0.15631 0.80693 0.0
H797 H 0.88477 0.14328 0.80504 0.0
H798 H 0.86328 0.19496 0.80679 0.0
H799 H 0.86131 0.18376 0.82498 0.0
H800 H 0.85186 0.17266 0.80618 0.0
H801 H 0.77208 0.07392 0.79526 0.0
H802 H 0.75385 0.04396 0.79847 0.0
H803 H 0.77271 0.05216 0.8097 0.0
H804 H 0.76943 0.04028 0.79092 0.0
H805 H 0.81874 0.07605 0.79419 0.0
H806 H 0.79116 0.09988 0.79203 0.0
H807 H 0.84685 0.10135 0.82327 0.0
H808 H 0.85647 0.11198 0.80506 0.0
H809 H 0.84555 0.08969 0.80483 0.0
H810 H 0.80082 0.12668 0.80273 0.0
H811 H 0.82264 0.13993 0.80262 0.0
H812 H 0.81268 0.13078 0.82127 0.0
H813 H 0.85294 0.14184 0.91075 0.0
H814 H 0.88623 0.1807 0.87062 0.0
H815 H 0.88693 0.18046 0.84132 0.0
H816 H 0.85404 0.14186 0.798 0.0
H817 H 0.81898 0.10418 0.83827 0.0
H818 H 0.8188 0.10413 0.86764 0.0
H819 H 0.94787 0.23042 0.80367 0.0
H820 H 0.9548 0.21734 0.79476 0.0
H821 H 0.93823 0.20904 0.80855 0.0
C822 C 0.7967 0.70675 0.95549 0.0
C823 C 0.78615 0.70571 0.94091 0.0
C824 C 0.79983 0.70018 0.91829 0.0
C825 C 0.81342 0.71628 0.91773 0.0
C826 C 0.82669 0.71967 0.9079 0.0
C827 C 0.82642 0.70672 0.89851 0.0
C828 C 0.81264 0.69059 0.89877 0.0
C829 C 0.79946 0.68759 0.90856 0.0
C830 C 0.84116 0.73704 0.90776 0.0
C831 C 0.81201 0.67648 0.88898 0.0
C832 C 0.93951 0.72641 0.92461 0.0
C833 C 0.92558 0.7154 0.93597 0.0
C834 C 0.90158 0.70631 0.91819 0.0
C835 C 0.88963 0.69308 0.90867 0.0
C836 C 0.87839 0.69474 0.8993 0.0
C837 C 0.87917 0.71008 0.89946 0.0
C838 C 0.89118 0.72354 0.9091 0.0
C839 C 0.90226 0.72153 0.91839 0.0
C840 C 0.86566 0.6801 0.88923 0.0
C841 C 0.89229 0.74004 0.90956 0.0
C842 C 0.91791 0.7322 0.80019 0.0
C843 C 0.90405 0.71632 0.8007 0.0
C844 C 0.88954 0.71398 0.80723 0.0
C845 C 0.88885 0.72781 0.81317 0.0
C846 C 0.90247 0.74388 0.81165 0.0
C847 C 0.91683 0.74587 0.80506 0.0
C848 C 0.87509 0.69669 0.80825 0.0
C849 C 0.90203 0.7589 0.81759 0.0
C850 C 0.78034 0.72471 0.80004 0.0
C851 C 0.78673 0.72241 0.78356 0.0
C852 C 0.80676 0.71548 0.79329 0.0
C853 C 0.80898 0.70223 0.7956 0.0
C854 C 0.82238 0.70426 0.80446 0.0
C855 C 0.83396 0.72006 0.81108 0.0
C856 C 0.83209 0.73369 0.80839 0.0
C857 C 0.8185 0.73128 0.79949 0.0
C858 C 0.82401 0.68946 0.80698 0.0
C859 C 0.84432 0.75069 0.81519 0.0
C860 C 0.84094 0.70987 0.88922 0.0
C861 C 0.85312 0.7091 0.89767 0.0
C862 C 0.86717 0.7119 0.88982 0.0
C863 C 0.86932 0.71578 0.87308 0.0
C864 C 0.88346 0.71901 0.8649 0.0
C865 C 0.88527 0.72239 0.84832 0.0
C866 C 0.87294 0.72254 0.83924 0.0
C867 C 0.87442 0.72533 0.82223 0.0
C868 C 0.86179 0.72504 0.81349 0.0
C869 C 0.84762 0.72204 0.82132 0.0
C870 C 0.84607 0.71956 0.83839 0.0
C871 C 0.8321 0.71677 0.84671 0.0
C872 C 0.83049 0.71386 0.86341 0.0
C873 C 0.84267 0.71336 0.87237 0.0
C874 C 0.85693 0.71633 0.86429 0.0
C875 C 0.8587 0.71961 0.84732 0.0
C876 C 0.95414 0.73345 0.80742 0.0
C877 C 0.93834 0.7243 0.79732 0.0
O878 O 0.78698 0.69616 0.92816 0.0
O879 O 0.79309 0.71229 0.78514 0.0
O880 O 0.93248 0.73479 0.79516 0.0
O881 O 0.91215 0.70378 0.92683 0.0
H882 H 0.79039 0.71834 0.93667 0.0
H883 H 0.80963 0.7128 0.95201 0.0
H884 H 0.79277 0.6942 0.95975 0.0
H885 H 0.7958 0.71417 0.9658 0.0
H886 H 0.81391 0.72627 0.925 0.0
H887 H 0.78891 0.67524 0.909 0.0
H888 H 0.85182 0.73735 0.91334 0.0
H889 H 0.83897 0.746 0.91464 0.0
H890 H 0.84424 0.74102 0.89494 0.0
H891 H 0.80047 0.66461 0.89065 0.0
H892 H 0.82228 0.67503 0.89272 0.0
H893 H 0.81336 0.67923 0.87576 0.0
H894 H 0.92233 0.72316 0.94362 0.0
H895 H 0.95031 0.73565 0.93194 0.0
H896 H 0.93593 0.7332 0.91647 0.0
H897 H 0.94289 0.71884 0.91681 0.0
H898 H 0.88916 0.68139 0.90858 0.0
H899 H 0.91135 0.73194 0.9257 0.0
H900 H 0.86713 0.68308 0.87606 0.0
H901 H 0.85338 0.67733 0.89278 0.0
H902 H 0.8664 0.66889 0.89077 0.0
H903 H 0.9028 0.74954 0.91705 0.0
H904 H 0.881 0.73866 0.91475 0.0
H905 H 0.89337 0.74446 0.89692 0.0
H906 H 0.92984 0.71352 0.8046 0.0
H907 H 0.90455 0.70574 0.79613 0.0
H908 H 0.92749 0.7581 0.80427 0.0
H909 H 0.87217 0.69363 0.8213 0.0
H910 H 0.87726 0.68733 0.80226 0.0
H911 H 0.86433 0.69593 0.80236 0.0
H912 H 0.91333 0.77059 0.81472 0.0
H913 H 0.90035 0.75852 0.83106 0.0
H914 H 0.89154 0.75883 0.81188 0.0
H915 H 0.79628 0.73462 0.77915 0.0
H916 H 0.77487 0.73247 0.79863 0.0
H917 H 0.79032 0.73099 0.80928 0.0
H918 H 0.77102 0.71257 0.80476 0.0
H919 H 0.79994 0.69013 0.79065 0.0
H920 H 0.81711 0.74173 0.79754 0.0
H921 H 0.82416 0.68746 0.82029 0.0
H922 H 0.83569 0.69176 0.80194 0.0
H923 H 0.81397 0.67801 0.80099 0.0
H924 H 0.84149 0.76016 0.81153 0.0
H925 H 0.85662 0.75429 0.81087 0.0
H926 H 0.8446 0.75056 0.82877 0.0
H927 H 0.85158 0.70616 0.91054 0.0
H928 H 0.89329 0.71891 0.87123 0.0
H929 H 0.89642 0.72472 0.84269 0.0
H930 H 0.86283 0.72674 0.80037 0.0
H931 H 0.82224 0.7168 0.8404 0.0
H932 H 0.81948 0.71179 0.86916 0.0
H933 H 0.96327 0.7449 0.80143 0.0
H934 H 0.95924 0.72539 0.80901 0.0
H935 H 0.9517 0.73693 0.81974 0.0
C936 C 0.87295 0.63636 0.38408 0.0
C937 C 0.88344 0.64551 0.39929 0.0
C938 C 0.86703 0.63536 0.4235 0.0
C939 C 0.86991 0.65007 0.43129 0.0
C940 C 0.85833 0.65018 0.44165 0.0
C941 C 0.84358 0.63526 0.44431 0.0
C942 C 0.84097 0.62029 0.43704 0.0
C943 C 0.85285 0.62052 0.42684 0.0
C944 C 0.86169 0.66632 0.44949 0.0
C945 C 0.82546 0.60415 0.43975 0.0
C946 C 0.73886 0.64674 0.40709 0.0
C947 C 0.74769 0.63996 0.41566 0.0
C948 C 0.77465 0.64791 0.42601 0.0
C949 C 0.76974 0.63257 0.43282 0.0
C950 C 0.78072 0.63011 0.44171 0.0
C951 C 0.79685 0.64337 0.44433 0.0
C952 C 0.80183 0.65885 0.43756 0.0
C953 C 0.79068 0.66084 0.42835 0.0
C954 C 0.77503 0.61325 0.44827 0.0
C955 C 0.8189 0.67329 0.44011 0.0
C956 C 0.7724 0.64464 0.55223 0.0
C957 C 0.76628 0.63026 0.54217 0.0
C958 C 0.77677 0.62708 0.53294 0.0
C959 C 0.79362 0.63891 0.53309 0.0
C960 C 0.79974 0.65355 0.54297 0.0
C961 C 0.78906 0.65605 0.55262 0.0
C962 C 0.76978 0.61099 0.52312 0.0
C963 C 0.81756 0.66658 0.54336 0.0
C964 C 0.88006 0.59778 0.54922 0.0
C965 C 0.87946 0.61336 0.55313 0.0
C966 C 0.85473 0.61405 0.54921 0.0
C967 C 0.83838 0.60268 0.54579 0.0
C968 C 0.82879 0.60723 0.53714 0.0
C969 C 0.83566 0.62374 0.5323 0.0
C970 C 0.85203 0.63552 0.53652 0.0
C971 C 0.86146 0.6305 0.54479 0.0
C972 C 0.81137 0.59434 0.53298 0.0
C973 C 0.85958 0.65339 0.53224 0.0
C974 C 0.83066 0.63562 0.45396 0.0
C975 C 0.81994 0.63881 0.44564 0.0
C976 C 0.80846 0.64094 0.45407 0.0
C977 C 0.80784 0.64021 0.47136 0.0
C978 C 0.79728 0.64348 0.48036 0.0
C979 C 0.79652 0.6424 0.49733 0.0
C980 C 0.80603 0.63767 0.50594 0.0
C981 C 0.8049 0.63595 0.52313 0.0
C982 C 0.8147 0.63141 0.53127 0.0
C983 C 0.82574 0.62862 0.52278 0.0
C984 C 0.82702 0.63028 0.50558 0.0
C985 C 0.83799 0.62758 0.49661 0.0
C986 C 0.83936 0.62952 0.47974 0.0
C987 C 0.82947 0.63374 0.47111 0.0
C988 C 0.8181 0.6362 0.47986 0.0
C989 C 0.81705 0.63471 0.49714 0.0
C990 C 0.73898 0.64359 0.57593 0.0
C991 C 0.746 0.63992 0.56125 0.0
O992 O 0.87763 0.6353 0.41255 0.0
O993 O 0.86366 0.6088 0.5569 0.0
O994 O 0.7628 0.64787 0.56198 0.0
O995 O 0.76433 0.65069 0.41719 0.0
H996 H 0.88239 0.6566 0.40142 0.0
H997 H 0.86032 0.63342 0.38608 0.0
H998 H 0.87263 0.6246 0.38152 0.0
H999 H 0.87772 0.6442 0.37322 0.0
H1000 H 0.88118 0.66147 0.42917 0.0
H1001 H 0.85086 0.60919 0.42093 0.0
H1002 H 0.85277 0.66938 0.44481 0.0
H1003 H 0.8741 0.67669 0.44694 0.0
H1004 H 0.86022 0.66516 0.46296 0.0
H1005 H 0.82541 0.59353 0.43352 0.0
H1006 H 0.81498 0.6048 0.43509 0.0
H1007 H 0.82372 0.60194 0.45307 0.0
H1008 H 0.74433 0.6273 0.41122 0.0
H1009 H 0.73367 0.63879 0.39559 0.0
H1010 H 0.74831 0.6579 0.40053 0.0
H1011 H 0.72427 0.64806 0.42536 0.0
H1012 H 0.75739 0.62239 0.43118 0.0
H1013 H 0.7944 0.67262 0.42307 0.0
H1014 H 0.78396 0.60945 0.44553 0.0
H1015 H 0.76304 0.60368 0.44304 0.0
H1016 H 0.77398 0.61372 0.46179 0.0
H1017 H 0.82026 0.68499 0.43591 0.0
H1018 H 0.8274 0.67085 0.43316 0.0
H1019 H 0.82247 0.67489 0.45327 0.0
H1020 H 0.74138 0.64103 0.54914 0.0
H1021 H 0.75341 0.62132 0.54166 0.0
H1022 H 0.79368 0.66709 0.56041 0.0
H1023 H 0.76944 0.6133 0.50994 0.0
H1024 H 0.75724 0.60187 0.52685 0.0
H1025 H 0.77747 0.6055 0.52456 0.0
H1026 H 0.82 0.67819 0.54975 0.0
H1027 H 0.82226 0.66939 0.53071 0.0
H1028 H 0.8244 0.66188 0.54986 0.0
H1029 H 0.88339 0.62075 0.54188 0.0
H1030 H 0.89258 0.60108 0.54598 0.0
H1031 H 0.87187 0.59084 0.53862 0.0
H1032 H 0.87608 0.58963 0.55988 0.0
H1033 H 0.83327 0.59006 0.54948 0.0
H1034 H 0.87401 0.63943 0.54794 0.0
H1035 H 0.80901 0.59419 0.51965 0.0
H1036 H 0.80318 0.59747 0.5396 0.0
H1037 H 0.80829 0.58177 0.53635 0.0
H1038 H 0.87164 0.66135 0.53828 0.0
H1039 H 0.8515 0.65804 0.5359 0.0
H1040 H 0.86111 0.65449 0.51878 0.0
H1041 H 0.82063 0.63977 0.43242 0.0
H1042 H 0.78955 0.647 0.47439 0.0
H1043 H 0.78824 0.64518 0.50359 0.0
H1044 H 0.81375 0.63006 0.54445 0.0
H1045 H 0.84574 0.62406 0.50254 0.0
H1046 H 0.84811 0.62745 0.47349 0.0
H1047 H 0.72534 0.62061 0.58675 0.0
H1048 H 0.73334 0.65053 0.57112 0.0
H1049 H 0.74927 0.6547 0.58254 0.0
C1050 C 0.38147 0.25388 0.39207 0.0
C1051 C 0.36778 0.24995 0.40404 0.0
C1052 C 0.37389 0.2416 0.42941 0.0
C1053 C 0.35936 0.22718 0.43305 0.0
C1054 C 0.3594 0.21518 0.44268 0.0
C1055 C 0.37433 0.2176 0.44857 0.0
C1056 C 0.38901 0.23228 0.44503 0.0
C1057 C 0.38856 0.24425 0.43571 0.0
C1058 C 0.34348 0.19986 0.44646 0.0
C1059 C 0.40516 0.23521 0.45094 0.0
C1060 C 0.37155 0.10134 0.41352 0.0
C1061 C 0.37856 0.11848 0.42036 0.0
C1062 C 0.36912 0.1367 0.4304 0.0
C1063 C 0.38428 0.14938 0.43652 0.0
C1064 C 0.38574 0.16313 0.44522 0.0
C1065 C 0.37172 0.16406 0.44811 0.0
C1066 C 0.35647 0.15133 0.4419 0.0
C1067 C 0.35542 0.1379 0.43298 0.0
C1068 C 0.40224 0.17662 0.45143 0.0
C1069 C 0.34126 0.15185 0.44477 0.0
C1070 C 0.3702 0.13937 0.55346 0.0
C1071 C 0.3855 0.15184 0.54823 0.0
C1072 C 0.38722 0.16549 0.54006 0.0
C1073 C 0.37338 0.16662 0.53697 0.0
C1074 C 0.35805 0.15428 0.54254 0.0
C1075 C 0.3567 0.14087 0.5508 0.0
C1076 C 0.40379 0.1786 0.53451 0.0
C1077 C 0.34304 0.15511 0.53949 0.0
C1078 C 0.38955 0.28754 0.55083 0.0
C1079 C 0.37829 0.27234 0.56063 0.0
C1080 C 0.38344 0.24988 0.55486 0.0
C1081 C 0.39681 0.24831 0.55151 0.0
C1082 C 0.39502 0.23449 0.54272 0.0
C1083 C 0.37936 0.22175 0.5375 0.0
C1084 C 0.36567 0.22294 0.54145 0.0
C1085 C 0.36785 0.23702 0.5501 0.0
C1086 C 0.40987 0.23357 0.53884 0.0
C1087 C 0.34876 0.20933 0.53649 0.0
C1088 C 0.37454 0.20466 0.45823 0.0
C1089 C 0.37355 0.19113 0.44968 0.0
C1090 C 0.37293 0.17812 0.45796 0.0
C1091 C 0.37326 0.17852 0.47529 0.0
C1092 C 0.37214 0.16541 0.48402 0.0
C1093 C 0.37257 0.16595 0.50107 0.0
C1094 C 0.3742 0.17965 0.51006 0.0
C1095 C 0.37478 0.18037 0.5274 0.0
C1096 C 0.37642 0.19419 0.53595 0.0
C1097 C 0.37738 0.20736 0.52766 0.0
C1098 C 0.37666 0.2068 0.51033 0.0
C1099 C 0.37737 0.21973 0.5016 0.0
C1100 C 0.37651 0.21899 0.48456 0.0
C1101 C 0.37526 0.20546 0.47556 0.0
C1102 C 0.37461 0.19233 0.48411 0.0
C1103 C 0.37517 0.19293 0.50151 0.0
C1104 C 0.3806 0.11348 0.54583 0.0
C1105 C 0.37848 0.12007 0.56246 0.0
O1106 O 0.37398 0.25313 0.41993 0.0
O1107 O 0.38601 0.26363 0.56328 0.0
O1108 O 0.36777 0.12565 0.56096 0.0
O1109 O 0.36713 0.12314 0.42202 0.0
H1110 H 0.35832 0.23665 0.40217 0.0
H1111 H 0.38677 0.24615 0.39456 0.0
H1112 H 0.39121 0.26709 0.39343 0.0
H1113 H 0.37676 0.25119 0.37923 0.0
H1114 H 0.348 0.22541 0.42845 0.0
H1115 H 0.39969 0.25553 0.43289 0.0
H1116 H 0.34276 0.18904 0.43993 0.0
H1117 H 0.33289 0.20073 0.44263 0.0
H1118 H 0.34273 0.19763 0.45979 0.0
H1119 H 0.41553 0.24662 0.44604 0.0
H1120 H 0.40643 0.22455 0.44723 0.0
H1121 H 0.40581 0.23631 0.46452 0.0
H1122 H 0.38994 0.12794 0.41448 0.0
H1123 H 0.37766 0.10276 0.4014 0.0
H1124 H 0.35941 0.09763 0.40787 0.0
H1125 H 0.37411 0.08871 0.43278 0.0
H1126 H 0.39501 0.14865 0.43453 0.0
H1127 H 0.3438 0.12808 0.42817 0.0
H1128 H 0.40456 0.18884 0.44774 0.0
H1129 H 0.41213 0.17491 0.44674 0.0
H1130 H 0.40258 0.17677 0.46502 0.0
H1131 H 0.33015 0.14025 0.44052 0.0
H1132 H 0.34201 0.16225 0.4381 0.0
H1133 H 0.34012 0.15406 0.45802 0.0
H1134 H 0.39043 0.13034 0.56714 0.0
H1135 H 0.39613 0.15101 0.55038 0.0
H1136 H 0.34498 0.13126 0.55498 0.0
H1137 H 0.40397 0.1786 0.52092 0.0
H1138 H 0.41354 0.17662 0.53895 0.0
H1139 H 0.40647 0.19098 0.53898 0.0
H1140 H 0.33194 0.14432 0.5443 0.0
H1141 H 0.34133 0.15567 0.52613 0.0
H1142 H 0.34455 0.16655 0.54542 0.0
H1143 H 0.36689 0.26481 0.55333 0.0
H1144 H 0.38359 0.29461 0.5481 0.0
H1145 H 0.39249 0.28362 0.53901 0.0
H1146 H 0.40104 0.29572 0.55778 0.0
H1147 H 0.40875 0.25817 0.55555 0.0
H1148 H 0.35735 0.23777 0.55338 0.0
H1149 H 0.41063 0.23204 0.52539 0.0
H1150 H 0.40889 0.22261 0.54456 0.0
H1151 H 0.42125 0.24475 0.54332 0.0
H1152 H 0.3393 0.21161 0.54139 0.0
H1153 H 0.34649 0.19735 0.54092 0.0
H1154 H 0.34762 0.20821 0.52292 0.0
H1155 H 0.3731 0.19064 0.43638 0.0
H1156 H 0.3709 0.15455 0.47778 0.0
H1157 H 0.37165 0.15548 0.50709 0.0
H1158 H 0.37692 0.19469 0.54925 0.0
H1159 H 0.3785 0.23054 0.50785 0.0
H1160 H 0.37695 0.22923 0.47854 0.0
H1161 H 0.38897 0.10875 0.54709 0.0
H1162 H 0.38585 0.12342 0.53684 0.0
H1163 H 0.36871 0.10333 0.54092 0.0
C1164 C 0.87175 0.25458 0.39175 0.0
C1165 C 0.88223 0.26015 0.40746 0.0
C1166 C 0.86571 0.23618 0.42458 0.0
C1167 C 0.85353 0.23973 0.42829 0.0
C1168 C 0.83973 0.22861 0.43696 0.0
C1169 C 0.83801 0.21361 0.44194 0.0
C1170 C 0.8502 0.20998 0.43818 0.0
C1171 C 0.86396 0.22141 0.42968 0.0
C1172 C 0.827 0.23292 0.4409 0.0
C1173 C 0.8487 0.19404 0.44316 0.0
C1174 C 0.73275 0.13763 0.38376 0.0
C1175 C 0.74044 0.13133 0.39561 0.0
C1176 C 0.75318 0.14674 0.421 0.0
C1177 C 0.76569 0.14343 0.42283 0.0
C1178 C 0.7794 0.15388 0.43268 0.0
C1179 C 0.78068 0.16803 0.44063 0.0
C1180 C 0.76801 0.17134 0.43879 0.0
C1181 C 0.75424 0.16041 0.42926 0.0
C1182 C 0.79252 0.1498 0.43458 0.0
C1183 C 0.76908 0.1865 0.44671 0.0
C1184 C 0.75228 0.14552 0.54515 0.0
C1185 C 0.76274 0.14036 0.53934 0.0
C1186 C 0.77727 0.15144 0.53165 0.0
C1187 C 0.78127 0.16791 0.52958 0.0
C1188 C 0.77103 0.17327 0.53599 0.0
C1189 C 0.75674 0.16201 0.54391 0.0
C1190 C 0.78823 0.14548 0.52553 0.0
C1191 C 0.77497 0.19076 0.53414 0.0
C1192 C 0.90172 0.26563 0.53854 0.0
C1193 C 0.89254 0.26203 0.55469 0.0
C1194 C 0.86801 0.23508 0.54786 0.0
C1195 C 0.86271 0.21831 0.54623 0.0
C1196 C 0.8484 0.20726 0.53752 0.0
C1197 C 0.83885 0.21309 0.53073 0.0
C1198 C 0.84372 0.22993 0.53303 0.0
C1199 C 0.8584 0.24082 0.54131 0.0
C1200 C 0.84364 0.18941 0.53535 0.0
C1201 C 0.83351 0.23647 0.52659 0.0
C1202 C 0.82358 0.20187 0.45135 0.0
C1203 C 0.80937 0.19075 0.44264 0.0
C1204 C 0.79533 0.17944 0.45074 0.0
C1205 C 0.79538 0.17921 0.46806 0.0
C1206 C 0.78151 0.16801 0.47663 0.0
C1207 C 0.78157 0.16813 0.49367 0.0
C1208 C 0.79562 0.17923 0.50283 0.0
C1209 C 0.79583 0.17937 0.52017 0.0
C1210 C 0.81001 0.1906 0.52888 0.0
C1211 C 0.82412 0.20169 0.52074 0.0
C1212 C 0.82415 0.20168 0.50341 0.0
C1213 C 0.83816 0.21256 0.49481 0.0
C1214 C 0.83797 0.21274 0.4778 0.0
C1215 C 0.82386 0.2018 0.46866 0.0
C1216 C 0.80969 0.19049 0.47704 0.0
C1217 C 0.80982 0.19047 0.49444 0.0
C1218 C 0.71081 0.11638 0.54287 0.0
C1219 C 0.72736 0.11867 0.54692 0.0
O1220 O 0.87926 0.2465 0.41613 0.0
O1221 O 0.88232 0.24511 0.55597 0.0
O1222 O 0.73786 0.13495 0.55205 0.0
O1223 O 0.73995 0.13693 0.41137 0.0
H1224 H 0.87944 0.26822 0.41521 0.0
H1225 H 0.85867 0.24758 0.39471 0.0
H1226 H 0.87445 0.24652 0.3839 0.0
H1227 H 0.8741 0.26545 0.38473 0.0
H1228 H 0.85467 0.25113 0.42454 0.0
H1229 H 0.8734 0.21876 0.42679 0.0
H1230 H 0.81531 0.22366 0.43487 0.0
H1231 H 0.83042 0.24537 0.43678 0.0
H1232 H 0.825 0.23248 0.45432 0.0
H1233 H 0.85865 0.19253 0.43827 0.0
H1234 H 0.8369 0.18339 0.43873 0.0
H1235 H 0.84893 0.19373 0.45673 0.0
H1236 H 0.75325 0.1365 0.39175 0.0
H1237 H 0.7332 0.13351 0.37097 0.0
H1238 H 0.73953 0.15134 0.38439 0.0
H1239 H 0.71991 0.13302 0.38696 0.0
H1240 H 0.76463 0.1326 0.41669 0.0
H1241 H 0.74444 0.16276 0.4278 0.0
H1242 H 0.79547 0.15003 0.44776 0.0
H1243 H 0.80371 0.15928 0.42859 0.0
H1244 H 0.78894 0.1375 0.42901 0.0
H1245 H 0.75925 0.18838 0.44237 0.0
H1246 H 0.78097 0.19765 0.44412 0.0
H1247 H 0.76819 0.18527 0.4602 0.0
H1248 H 0.73168 0.11567 0.5354 0.0
H1249 H 0.75959 0.12772 0.54087 0.0
H1250 H 0.74869 0.16591 0.54869 0.0
H1251 H 0.78814 0.14513 0.51193 0.0
H1252 H 0.78438 0.13295 0.52974 0.0
H1253 H 0.80091 0.15417 0.52977 0.0
H1254 H 0.7654 0.1928 0.53923 0.0
H1255 H 0.77646 0.19379 0.52098 0.0
H1256 H 0.78664 0.19944 0.54053 0.0
H1257 H 0.88545 0.26827 0.55506 0.0
H1258 H 0.90981 0.27914 0.5372 0.0
H1259 H 0.89299 0.26074 0.52803 0.0
H1260 H 0.90911 0.2597 0.53806 0.0
H1261 H 0.87012 0.21397 0.55146 0.0
H1262 H 0.86208 0.25368 0.54272 0.0
H1263 H 0.84132 0.18551 0.52218 0.0
H1264 H 0.83223 0.18152 0.54197 0.0
H1265 H 0.85312 0.18718 0.54009 0.0
H1266 H 0.83735 0.24893 0.53192 0.0
H1267 H 0.82051 0.22796 0.52932 0.0
H1268 H 0.83464 0.23735 0.51308 0.0
H1269 H 0.80924 0.19091 0.42936 0.0
H1270 H 0.77038 0.15908 0.47026 0.0
H1271 H 0.77046 0.15935 0.49956 0.0
H1272 H 0.81007 0.19066 0.54217 0.0
H1273 H 0.84944 0.22117 0.50114 0.0
H1274 H 0.84907 0.22155 0.4719 0.0
H1275 H 0.70217 0.10345 0.53858 0.0
H1276 H 0.71206 0.12472 0.53296 0.0
H1277 H 0.70577 0.11935 0.55381 0.0
C1278 C 0.0135 0.45865 0.28644 0.0
C1279 C 0.00605 0.44502 0.27297 0.0
C1280 C 0.00979 0.46012 0.2482 0.0
C1281 C 0.99369 0.4548 0.24381 0.0
C1282 C 0.99007 0.46447 0.23406 0.0
C1283 C 0.00282 0.47975 0.22858 0.0
C1284 C 0.0191 0.48487 0.23256 0.0
C1285 C 0.02238 0.47485 0.24216 0.0
C1286 C 0.9726 0.45842 0.22971 0.0
C1287 C 0.03298 0.50107 0.22689 0.0
C1288 C 0.95914 0.53986 0.28783 0.0
C1289 C 0.97362 0.54937 0.27664 0.0
C1290 C 0.97414 0.5369 0.2504 0.0
C1291 C 0.99078 0.54294 0.24891 0.0
C1292 C 0.9963 0.53471 0.23869 0.0
C1293 C 0.98489 0.52003 0.22999 0.0
C1294 C 0.96808 0.51402 0.23142 0.0
C1295 C 0.96296 0.52278 0.24135 0.0
C1296 C 0.01429 0.54164 0.23724 0.0
C1297 C 0.95549 0.49817 0.22274 0.0
C1298 C 0.97354 0.53796 0.12442 0.0
C1299 C 0.98945 0.54577 0.13068 0.0
C1300 C 0.99505 0.53673 0.13879 0.0
C1301 C 0.98433 0.51963 0.14102 0.0
C1302 C 0.96833 0.51174 0.13446 0.0
C1303 C 0.96326 0.52099 0.12596 0.0
C1304 C 0.01238 0.54545 0.14499 0.0
C1305 C 0.95651 0.49356 0.13649 0.0
C1306 C 0.01314 0.42609 0.13411 0.0
C1307 C 0.00121 0.42587 0.1216 0.0
C1308 C 0.00416 0.45308 0.12366 0.0
C1309 C 0.017 0.46941 0.12549 0.0
C1310 C 0.0149 0.48145 0.13364 0.0
C1311 C 0.99949 0.47702 0.13981 0.0
C1312 C 0.98624 0.4607 0.13722 0.0
C1313 C 0.9887 0.4489 0.12912 0.0
C1314 C 0.02923 0.49877 0.13608 0.0
C1315 C 0.96953 0.45565 0.14328 0.0
C1316 C 0.99904 0.49054 0.21912 0.0
C1317 C 0.99476 0.50061 0.22788 0.0
C1318 C 0.99045 0.51065 0.21984 0.0
C1319 C 0.99068 0.51093 0.20253 0.0
C1320 C 0.98664 0.52104 0.19404 0.0
C1321 C 0.98626 0.52074 0.177 0.0
C1322 C 0.99022 0.51055 0.16775 0.0
C1323 C 0.98967 0.50999 0.1504 0.0
C1324 C 0.99327 0.49936 0.14164 0.0
C1325 C 0.99731 0.48914 0.14973 0.0
C1326 C 0.99822 0.48976 0.16705 0.0
C1327 C 0.00243 0.47977 0.17555 0.0
C1328 C 0.00282 0.48008 0.19259 0.0
C1329 C 0.99902 0.49039 0.2018 0.0
C1330 C 0.99486 0.50067 0.19348 0.0
C1331 C 0.99457 0.50043 0.17608 0.0
C1332 C 0.95142 0.55558 0.12816 0.0
C1333 C 0.96844 0.56047 0.12244 0.0
O1334 O 0.01352 0.4513 0.2582 0.0
O1335 O 0.00702 0.44175 0.11637 0.0
O1336 O 0.96799 0.5464 0.11634 0.0
O1337 O 0.96855 0.54442 0.26051 0.0
H1338 H 0.99289 0.4406 0.2721 0.0
H1339 H 0.01141 0.46878 0.28344 0.0
H1340 H 0.02678 0.46383 0.2876 0.0
H1341 H 0.00777 0.45371 0.29839 0.0
H1342 H 0.98394 0.44304 0.24784 0.0
H1343 H 0.03478 0.47872 0.24544 0.0
H1344 H 0.96903 0.46679 0.23557 0.0
H1345 H 0.96421 0.44569 0.23378 0.0
H1346 H 0.97116 0.45866 0.21625 0.0
H1347 H 0.04492 0.50355 0.23148 0.0
H1348 H 0.0313 0.51133 0.23117 0.0
H1349 H 0.03311 0.50097 0.2133 0.0
H1350 H 0.98286 0.54622 0.28016 0.0
H1351 H 0.96293 0.54344 0.30088 0.0
H1352 H 0.95421 0.5264 0.2861 0.0
H1353 H 0.94937 0.54239 0.28492 0.0
H1354 H 0.99941 0.55414 0.25568 0.0
H1355 H 0.95014 0.51832 0.24255 0.0
H1356 H 0.01764 0.54238 0.22414 0.0
H1357 H 0.01752 0.53325 0.24308 0.0
H1358 H 0.02158 0.5541 0.24324 0.0
H1359 H 0.94301 0.49408 0.22688 0.0
H1360 H 0.95804 0.48819 0.22485 0.0
H1361 H 0.95596 0.49999 0.20935 0.0
H1362 H 0.97687 0.56592 0.13323 0.0
H1363 H 0.99753 0.55886 0.12897 0.0
H1364 H 0.95108 0.51508 0.12081 0.0
H1365 H 0.01261 0.54661 0.15856 0.0
H1366 H 0.01978 0.55802 0.14011 0.0
H1367 H 0.01808 0.53818 0.14152 0.0
H1368 H 0.94395 0.48987 0.13278 0.0
H1369 H 0.95647 0.49026 0.14943 0.0
H1370 H 0.96033 0.48634 0.12879 0.0
H1371 H 0.98938 0.42101 0.12777 0.0
H1372 H 0.00876 0.41342 0.13826 0.0
H1373 H 0.01422 0.43398 0.14498 0.0
H1374 H 0.02536 0.43113 0.12874 0.0
H1375 H 0.02881 0.47258 0.12094 0.0
H1376 H 0.9785 0.4365 0.12697 0.0
H1377 H 0.03166 0.5019 0.14939 0.0
H1378 H 0.02639 0.50768 0.13079 0.0
H1379 H 0.04037 0.50033 0.13031 0.0
H1380 H 0.96028 0.4428 0.13933 0.0
H1381 H 0.96579 0.46413 0.13869 0.0
H1382 H 0.96978 0.45663 0.15687 0.0
H1383 H 0.99446 0.50038 0.24116 0.0
H1384 H 0.98356 0.5292 0.20049 0.0
H1385 H 0.98278 0.52859 0.17118 0.0
H1386 H 0.99249 0.49871 0.12836 0.0
H1387 H 0.00543 0.47153 0.16913 0.0
H1388 H 0.00604 0.47204 0.19846 0.0
H1389 H 0.94266 0.55054 0.11767 0.0
H1390 H 0.95138 0.56636 0.13387 0.0
H1391 H 0.94736 0.54596 0.13747 0.0
C1392 C 0.46857 0.42014 0.29222 0.0
C1393 C 0.45863 0.42124 0.27821 0.0
C1394 C 0.47308 0.42835 0.2526 0.0
C1395 C 0.47092 0.44118 0.24776 0.0
C1396 C 0.48207 0.45336 0.23746 0.0
C1397 C 0.49561 0.45262 0.23187 0.0
C1398 C 0.49739 0.43925 0.23613 0.0
C1399 C 0.48595 0.42714 0.24633 0.0
C1400 C 0.47954 0.46717 0.23278 0.0
C1401 C 0.51157 0.43799 0.2302 0.0
C1402 C 0.60748 0.57443 0.26367 0.0
C1403 C 0.59795 0.5584 0.25438 0.0
C1404 C 0.56974 0.53747 0.24769 0.0
C1405 C 0.57297 0.52533 0.24187 0.0
C1406 C 0.5607 0.51061 0.23426 0.0
C1407 C 0.54501 0.50816 0.23209 0.0
C1408 C 0.54163 0.52016 0.23834 0.0
C1409 C 0.55403 0.53459 0.24622 0.0
C1410 C 0.5646 0.49785 0.2282 0.0
C1411 C 0.52502 0.51792 0.23637 0.0
C1412 C 0.56747 0.53363 0.12692 0.0
C1413 C 0.56983 0.52056 0.13038 0.0
C1414 C 0.55797 0.50676 0.13861 0.0
C1415 C 0.5435 0.50604 0.14344 0.0
C1416 C 0.54102 0.51909 0.13978 0.0
C1417 C 0.55308 0.53273 0.13159 0.0
C1418 C 0.56096 0.49305 0.14238 0.0
C1419 C 0.52573 0.5187 0.14473 0.0
C1420 C 0.43786 0.38467 0.12959 0.0
C1421 C 0.4418 0.39983 0.11988 0.0
C1422 C 0.46977 0.42238 0.12534 0.0
C1423 C 0.4849 0.42413 0.12803 0.0
C1424 C 0.49721 0.43786 0.13687 0.0
C1425 C 0.49433 0.45029 0.14285 0.0
C1426 C 0.47925 0.44894 0.13958 0.0
C1427 C 0.46711 0.43498 0.13082 0.0
C1428 C 0.51321 0.43901 0.13998 0.0
C1429 C 0.47599 0.46224 0.14536 0.0
C1430 C 0.5082 0.46619 0.22214 0.0
C1431 C 0.52052 0.48009 0.23067 0.0
C1432 C 0.53247 0.49361 0.22235 0.0
C1433 C 0.53223 0.49332 0.20503 0.0
C1434 C 0.54393 0.50681 0.19628 0.0
C1435 C 0.5437 0.50638 0.17925 0.0
C1436 C 0.53163 0.49251 0.17028 0.0
C1437 C 0.53126 0.49201 0.15296 0.0
C1438 C 0.519 0.47812 0.1444 0.0
C1439 C 0.50702 0.46459 0.1527 0.0
C1440 C 0.50724 0.46481 0.17003 0.0
C1441 C 0.49542 0.45139 0.17878 0.0
C1442 C 0.49567 0.45181 0.19584 0.0
C1443 C 0.50784 0.46561 0.2048 0.0
C1444 C 0.51991 0.47923 0.19624 0.0
C1445 C 0.5196 0.47884 0.17884 0.0
C1446 C 0.60085 0.56467 0.1021 0.0
C1447 C 0.59324 0.55021 0.11281 0.0
O1448 O 0.46306 0.41714 0.26347 0.0
O1449 O 0.45832 0.4087 0.1169 0.0
O1450 O 0.57867 0.5473 0.11918 0.0
O1451 O 0.58137 0.55208 0.25467 0.0
H1452 H 0.46168 0.43432 0.27856 0.0
H1453 H 0.4816 0.42959 0.29079 0.0
H1454 H 0.46738 0.40783 0.29215 0.0
H1455 H 0.46457 0.42252 0.30423 0.0
H1456 H 0.46055 0.44171 0.25211 0.0
H1457 H 0.48733 0.41702 0.24994 0.0
H1458 H 0.48947 0.47903 0.23818 0.0
H1459 H 0.46777 0.46529 0.23709 0.0
H1460 H 0.48 0.46823 0.21925 0.0
H1461 H 0.51123 0.42684 0.23462 0.0
H1462 H 0.5231 0.44911 0.23447 0.0
H1463 H 0.51159 0.43758 0.2166 0.0
H1464 H 0.60244 0.55803 0.24185 0.0
H1465 H 0.61802 0.56895 0.28293 0.0
H1466 H 0.59914 0.57935 0.26572 0.0
H1467 H 0.61488 0.58363 0.25416 0.0
H1468 H 0.58503 0.52728 0.24318 0.0
H1469 H 0.55163 0.54394 0.2509 0.0
H1470 H 0.5551 0.48538 0.23203 0.0
H1471 H 0.57658 0.50049 0.23284 0.0
H1472 H 0.56476 0.49758 0.2146 0.0
H1473 H 0.52462 0.52884 0.24107 0.0
H1474 H 0.51607 0.50697 0.24312 0.0
H1475 H 0.52126 0.5156 0.22324 0.0
H1476 H 0.60148 0.5499 0.12218 0.0
H1477 H 0.58093 0.52111 0.12682 0.0
H1478 H 0.55137 0.54286 0.12883 0.0
H1479 H 0.56089 0.4917 0.15585 0.0
H1480 H 0.57273 0.49532 0.1376 0.0
H1481 H 0.55105 0.48118 0.13695 0.0
H1482 H 0.52536 0.52951 0.14039 0.0
H1483 H 0.52483 0.51855 0.15829 0.0
H1484 H 0.51495 0.50724 0.13971 0.0
H1485 H 0.43805 0.40727 0.12738 0.0
H1486 H 0.4247 0.37741 0.1323 0.0
H1487 H 0.44474 0.38864 0.1414 0.0
H1488 H 0.44124 0.37666 0.12258 0.0
H1489 H 0.48693 0.41449 0.12344 0.0
H1490 H 0.45572 0.43415 0.12804 0.0
H1491 H 0.51582 0.44027 0.15336 0.0
H1492 H 0.52311 0.4502 0.13429 0.0
H1493 H 0.51334 0.42804 0.13496 0.0
H1494 H 0.46401 0.45983 0.141 0.0
H1495 H 0.48562 0.47439 0.14097 0.0
H1496 H 0.47634 0.46309 0.15896 0.0
H1497 H 0.52072 0.48046 0.24396 0.0
H1498 H 0.55346 0.51788 0.20248 0.0
H1499 H 0.55308 0.5171 0.17322 0.0
H1500 H 0.51874 0.47786 0.1311 0.0
H1501 H 0.48579 0.44041 0.17254 0.0
H1502 H 0.48622 0.44115 0.20191 0.0
H1503 H 0.61256 0.57387 0.10859 0.0
H1504 H 0.5948 0.57197 0.10479 0.0
H1505 H 0.60016 0.55432 0.07883 0.0
C1506 C 0.44518 0.99149 0.29323 0.0
C1507 C 0.44006 0.99995 0.28096 0.0
C1508 C 0.45111 0.99583 0.25547 0.0
C1509 C 0.4653 0.01145 0.2546 0.0
C1510 C 0.47818 0.01378 0.24467 0.0
C1511 C 0.47685 0.00025 0.23543 0.0
C1512 C 0.46242 0.98461 0.23594 0.0
C1513 C 0.44964 0.98267 0.24581 0.0
C1514 C 0.49326 0.03071 0.24409 0.0
C1515 C 0.46063 0.9699 0.22624 0.0
C1516 C 0.57391 0.98159 0.2755 0.0
C1517 C 0.55986 0.9798 0.266 0.0
C1518 C 0.5508 0.99621 0.25219 0.0
C1519 C 0.53709 0.98259 0.24463 0.0
C1520 C 0.52586 0.98465 0.23569 0.0
C1521 C 0.5283 0.00063 0.23433 0.0
C1522 C 0.54212 0.01439 0.24181 0.0
C1523 C 0.55325 0.01199 0.25056 0.0
C1524 C 0.51135 0.96974 0.2277 0.0
C1525 C 0.54506 0.03159 0.24061 0.0
C1526 C 0.55976 0.01341 0.1314 0.0
C1527 C 0.54594 0.99855 0.13594 0.0
C1528 C 0.53287 0.99855 0.14353 0.0
C1529 C 0.53379 0.01372 0.14716 0.0
C1530 C 0.54745 0.02865 0.14228 0.0
C1531 C 0.56018 0.02826 0.13428 0.0
C1532 C 0.51824 0.98229 0.14804 0.0
C1533 C 0.54879 0.04504 0.14592 0.0
C1534 C 0.43533 0.02958 0.13872 0.0
C1535 C 0.4422 0.0283 0.12214 0.0
C1536 C 0.45848 0.01631 0.13061 0.0
C1537 C 0.45832 0.0015 0.13132 0.0
C1538 C 0.47037 0.00058 0.14003 0.0
C1539 C 0.48303 0.01493 0.14809 0.0
C1540 C 0.4835 0.03008 0.14713 0.0
C1541 C 0.47121 0.03062 0.13843 0.0
C1542 C 0.46949 0.98423 0.14073 0.0
C1543 C 0.49697 0.04566 0.15539 0.0
C1544 C 0.49076 0.00239 0.2256 0.0
C1545 C 0.50285 0.00106 0.23358 0.0
C1546 C 0.51629 0.00288 0.22516 0.0
C1547 C 0.51779 0.00614 0.20826 0.0
C1548 C 0.53114 0.00803 0.19942 0.0
C1549 C 0.53235 0.01087 0.18273 0.0
C1550 C 0.52017 0.01179 0.17419 0.0
C1551 C 0.52094 0.01392 0.15708 0.0
C1552 C 0.50884 0.01517 0.14902 0.0
C1553 C 0.49571 0.01405 0.15756 0.0
C1554 C 0.49452 0.01149 0.17463 0.0
C1555 C 0.4813 0.00988 0.18356 0.0
C1556 C 0.48009 0.00704 0.20028 0.0
C1557 C 0.49203 0.00564 0.2087 0.0
C1558 C 0.50557 0.00744 0.2 0.0
C1559 C 0.5068 0.01034 0.18295 0.0
C1560 C 0.58251 0.99975 0.14016 0.0
C1561 C 0.57642 0.00155 0.12348 0.0
O1562 O 0.4386 0.99302 0.26536 0.0
O1563 O 0.4461 0.01609 0.12232 0.0
O1564 O 0.57292 0.01404 0.12441 0.0
O1565 O 0.5618 0.99462 0.26115 0.0
H1566 H 0.44946 0.01328 0.28127 0.0
H1567 H 0.45728 0.99353 0.29002 0.0
H1568 H 0.43632 0.97798 0.29308 0.0
H1569 H 0.44602 0.99673 0.30581 0.0
H1570 H 0.46637 0.02195 0.26141 0.0
H1571 H 0.43857 0.97073 0.24639 0.0
H1572 H 0.50375 0.03033 0.24914 0.0
H1573 H 0.49203 0.0402 0.25119 0.0
H1574 H 0.496 0.03449 0.23118 0.0
H1575 H 0.44881 0.95846 0.22834 0.0
H1576 H 0.47057 0.96781 0.22964 0.0
H1577 H 0.46166 0.9724 0.21297 0.0
H1578 H 0.54778 0.97161 0.27153 0.0
H1579 H 0.56911 0.97728 0.2881 0.0
H1580 H 0.58158 0.99501 0.27946 0.0
H1581 H 0.58253 0.96971 0.26038 0.0
H1582 H 0.53509 0.9703 0.24559 0.0
H1583 H 0.56386 0.02244 0.25635 0.0
H1584 H 0.51107 0.97156 0.21436 0.0
H1585 H 0.50004 0.96825 0.23294 0.0
H1586 H 0.51145 0.9582 0.22944 0.0
H1587 H 0.55623 0.04097 0.24736 0.0
H1588 H 0.53454 0.03202 0.24562 0.0
H1589 H 0.54616 0.03488 0.22755 0.0
H1590 H 0.56537 0.98966 0.11976 0.0
H1591 H 0.54518 0.98686 0.13375 0.0
H1592 H 0.57079 0.03965 0.13065 0.0
H1593 H 0.51841 0.98084 0.16145 0.0
H1594 H 0.51804 0.97162 0.14174 0.0
H1595 H 0.50686 0.98197 0.14488 0.0
H1596 H 0.56048 0.0556 0.14182 0.0
H1597 H 0.54767 0.04664 0.15929 0.0
H1598 H 0.53869 0.04529 0.13968 0.0
H1599 H 0.45322 0.04035 0.1195 0.0
H1600 H 0.43198 0.03919 0.13851 0.0
H1601 H 0.44445 0.03308 0.14869 0.0
H1602 H 0.42439 0.01757 0.14158 0.0
H1603 H 0.44853 0.99055 0.12518 0.0
H1604 H 0.47166 0.04225 0.13785 0.0
H1605 H 0.46955 0.98105 0.1537 0.0
H1606 H 0.48034 0.98518 0.13487 0.0
H1607 H 0.45846 0.97405 0.13444 0.0
H1608 H 0.49612 0.05664 0.15279 0.0
H1609 H 0.50892 0.0479 0.15124 0.0
H1610 H 0.49651 0.04418 0.16884 0.0
H1611 H 0.50172 0.99847 0.24653 0.0
H1612 H 0.5408 0.00727 0.20528 0.0
H1613 H 0.54293 0.01224 0.17659 0.0
H1614 H 0.50947 0.01669 0.13587 0.0
H1615 H 0.47167 0.01069 0.1777 0.0
H1616 H 0.46962 0.00585 0.2065 0.0
H1617 H 0.59339 0.01158 0.14436 0.0
H1618 H 0.58565 0.98999 0.13934 0.0
H1619 H 0.57292 0.99617 0.14945 0.0
C1620 C 0.55516 0.00757 0.72434 0.0
C1621 C 0.56733 0.01299 0.73865 0.0
C1622 C 0.55021 0.00249 0.76252 0.0
C1623 C 0.55358 0.01727 0.77059 0.0
C1624 C 0.54247 0.01757 0.78152 0.0
C1625 C 0.52775 0.00277 0.78455 0.0
C1626 C 0.52461 0.98775 0.77692 0.0
C1627 C 0.536 0.98779 0.76612 0.0
C1628 C 0.54636 0.03376 0.78971 0.0
C1629 C 0.50908 0.97173 0.77998 0.0
C1630 C 0.43261 0.01914 0.74091 0.0
C1631 C 0.44627 0.01755 0.74719 0.0
C1632 C 0.45881 0.01639 0.7721 0.0
C1633 C 0.45572 0.00034 0.77359 0.0
C1634 C 0.46676 0.99747 0.78184 0.0
C1635 C 0.48121 0.011 0.78868 0.0
C1636 C 0.48429 0.02724 0.78726 0.0
C1637 C 0.47292 0.02972 0.77911 0.0
C1638 C 0.46298 0.97998 0.78329 0.0
C1639 C 0.4996 0.04194 0.79431 0.0
C1640 C 0.45882 0.00764 0.89546 0.0
C1641 C 0.45316 0.99261 0.88678 0.0
C1642 C 0.46383 0.98973 0.87754 0.0
C1643 C 0.48039 0.00232 0.87672 0.0
C1644 C 0.48614 0.01735 0.88584 0.0
C1645 C 0.47528 0.0197 0.89532 0.0
C1646 C 0.45738 0.97331 0.86852 0.0
C1647 C 0.50369 0.03104 0.88531 0.0
C1648 C 0.56756 0.96349 0.88031 0.0
C1649 C 0.56823 0.97827 0.88927 0.0
C1650 C 0.54341 0.97904 0.88717 0.0
C1651 C 0.52719 0.96743 0.88344 0.0
C1652 C 0.51718 0.97204 0.8757 0.0
C1653 C 0.5235 0.98879 0.87207 0.0
C1654 C 0.53975 0.00074 0.87654 0.0
C1655 C 0.54958 0.99571 0.88395 0.0
C1656 C 0.49991 0.95897 0.87124 0.0
C1657 C 0.5467 0.01879 0.87347 0.0
C1658 C 0.51546 0.00321 0.79523 0.0
C1659 C 0.50444 0.00667 0.78799 0.0
C1660 C 0.493 0.00806 0.79734 0.0
C1661 C 0.49266 0.00622 0.81449 0.0
C1662 C 0.48169 0.00808 0.82435 0.0
C1663 C 0.48149 0.00634 0.84121 0.0
C1664 C 0.49195 0.00221 0.84883 0.0
C1665 C 0.49158 1.00005 0.86593 0.0
C1666 C 0.50207 0.99583 0.87309 0.0
C1667 C 0.51307 0.99375 0.86365 0.0
C1668 C 0.51375 0.99605 0.84654 0.0
C1669 C 0.52474 0.99422 0.83666 0.0
C1670 C 0.52545 0.99671 0.81989 0.0
C1671 C 0.51493 0.00075 0.81228 0.0
C1672 C 0.50357 0.0024 0.82195 0.0
C1673 C 0.5031 0.00022 0.83913 0.0
C1674 C 0.43993 0.02693 0.89146 0.0
C1675 C 0.435 0.01001 0.89804 0.0
O1676 O 0.56042 0.00206 0.75125 0.0
O1677 O 0.55273 0.97387 0.89414 0.0
O1678 O 0.44867 0.01063 0.90437 0.0
O1679 O 0.44815 0.01913 0.76411 0.0
H1680 H 0.57036 0.02559 0.74275 0.0
H1681 H 0.54434 0.008 0.72831 0.0
H1682 H 0.5511 0.99474 0.72001 0.0
H1683 H 0.56071 0.01598 0.71399 0.0
H1684 H 0.56492 0.02858 0.76848 0.0
H1685 H 0.53363 0.9764 0.76002 0.0
H1686 H 0.5373 0.03694 0.78581 0.0
H1687 H 0.55866 0.04405 0.78668 0.0
H1688 H 0.54556 0.03257 0.80322 0.0
H1689 H 0.50847 0.96108 0.77316 0.0
H1690 H 0.49853 0.97271 0.77625 0.0
H1691 H 0.508 0.96931 0.79327 0.0
H1692 H 0.45802 0.0249 0.74078 0.0
H1693 H 0.4166 0.99575 0.73029 0.0
H1694 H 0.43857 0.03067 0.73363 0.0
H1695 H 0.42907 0.02473 0.75128 0.0
H1696 H 0.44461 0.99003 0.76843 0.0
H1697 H 0.4751 0.04207 0.77796 0.0
H1698 H 0.46322 0.97728 0.79639 0.0
H1699 H 0.47243 0.97853 0.77698 0.0
H1700 H 0.45094 0.97077 0.77786 0.0
H1701 H 0.50055 0.05381 0.79154 0.0
H1702 H 0.51036 0.04197 0.78934 0.0
H1703 H 0.49992 0.04104 0.80781 0.0
H1704 H 0.42961 0.00068 0.88773 0.0
H1705 H 0.44046 0.9831 0.88738 0.0
H1706 H 0.4795 0.03116 0.90231 0.0
H1707 H 0.45715 0.97497 0.85515 0.0
H1708 H 0.44489 0.96406 0.8723 0.0
H1709 H 0.46545 0.96838 0.87071 0.0
H1710 H 0.50599 0.04238 0.8922 0.0
H1711 H 0.50738 0.03417 0.87241 0.0
H1712 H 0.51147 0.02683 0.89066 0.0
H1713 H 0.57295 0.98839 0.8804 0.0
H1714 H 0.57987 0.96675 0.87628 0.0
H1715 H 0.55953 0.95987 0.86929 0.0
H1716 H 0.56268 0.95276 0.88838 0.0
H1717 H 0.5225 0.95464 0.88622 0.0
H1718 H 0.562 0.0048 0.88742 0.0
H1719 H 0.49751 0.95949 0.85804 0.0
H1720 H 0.49146 0.96136 0.87837 0.0
H1721 H 0.49722 0.94634 0.87376 0.0
H1722 H 0.55896 0.0267 0.87912 0.0
H1723 H 0.53853 0.02287 0.87842 0.0
H1724 H 0.54758 0.02069 0.86008 0.0
H1725 H 0.50478 0.00832 0.77487 0.0
H1726 H 0.47321 0.01106 0.81916 0.0
H1727 H 0.47291 0.00814 0.84816 0.0
H1728 H 0.50163 0.99409 0.88619 0.0
H1729 H 0.53302 0.99095 0.8418 0.0
H1730 H 0.53425 0.99528 0.81292 0.0
H1731 H 0.44513 0.03657 0.90149 0.0
H1732 H 0.42931 0.02673 0.88588 0.0
H1733 H 0.44921 0.03027 0.88186 0.0
C1734 C 0.00266 0.56044 0.73281 0.0
C1735 C 0.98983 0.56012 0.74417 0.0
C1736 C 0.99477 0.55063 0.76948 0.0
C1737 C 0.98012 0.5359 0.77202 0.0
C1738 C 0.97974 0.5235 0.78134 0.0
C1739 C 0.99437 0.52588 0.78809 0.0
C1740 C 0.00916 0.54084 0.78561 0.0
C1741 C 0.00909 0.55317 0.77658 0.0
C1742 C 0.96374 0.50783 0.78394 0.0
C1743 C 0.02505 0.54372 0.79232 0.0
C1744 C 0.00911 0.42082 0.74987 0.0
C1745 C 0.01251 0.43621 0.75884 0.0
C1746 C 0.99858 0.45041 0.7681 0.0
C1747 C 0.01213 0.46345 0.77645 0.0
C1748 C 0.01085 0.47555 0.78548 0.0
C1749 C 0.99561 0.47437 0.7866 0.0
C1750 C 0.98194 0.46129 0.7782 0.0
C1751 C 0.98367 0.44955 0.76893 0.0
C1752 C 0.02583 0.48959 0.79387 0.0
C1753 C 0.96552 0.45963 0.77914 0.0
C1754 C 0.00175 0.45187 0.89144 0.0
C1755 C 0.01492 0.46382 0.88265 0.0
C1756 C 0.0139 0.47619 0.87467 0.0
C1757 C 0.99924 0.4763 0.87512 0.0
C1758 C 0.98606 0.46443 0.88424 0.0
C1759 C 0.98762 0.45253 0.89253 0.0
C1760 C 0.02852 0.48911 0.86575 0.0
C1761 C 0.97027 0.46414 0.88504 0.0
C1762 C 0.01059 0.5912 0.88076 0.0
C1763 C 0.00304 0.58226 0.89661 0.0
C1764 C 0.00661 0.5586 0.89328 0.0
C1765 C 0.0196 0.55638 0.89003 0.0
C1766 C 0.01721 0.54215 0.88158 0.0
C1767 C 0.00131 0.52961 0.87677 0.0
C1768 C 0.98798 0.53137 0.88088 0.0
C1769 C 0.99078 0.54595 0.88896 0.0
C1770 C 0.03172 0.54069 0.87749 0.0
C1771 C 0.9708 0.51794 0.87655 0.0
C1772 C 0.99421 0.51261 0.79749 0.0
C1773 C 0.99406 0.49963 0.78867 0.0
C1774 C 0.99406 0.4868 0.79667 0.0
C1775 C 0.99391 0.48668 0.81399 0.0
C1776 C 0.99325 0.47362 0.82242 0.0
C1777 C 0.99409 0.47408 0.83945 0.0
C1778 C 0.99578 0.48768 0.8487 0.0
C1779 C 0.99771 0.48877 0.86596 0.0
C1780 C 0.99909 0.50237 0.87477 0.0
C1781 C 0.99876 0.51505 0.8668 0.0
C1782 C 0.99701 0.51425 0.84954 0.0
C1783 C 0.9968 0.52688 0.8411 0.0
C1784 C 0.99544 0.52616 0.8241 0.0
C1785 C 0.9947 0.51302 0.81483 0.0
C1786 C 0.99464 0.50004 0.82308 0.0
C1787 C 0.99567 0.50059 0.84046 0.0
C1788 C 0.99832 0.41933 0.87863 0.0
C1789 C 0.00894 0.43064 0.89298 0.0
O1790 O 0.99535 0.5626 0.76028 0.0
O1791 O 0.00977 0.57296 0.90082 0.0
O1792 O 0.00229 0.43965 0.89916 0.0
O1793 O 0.99939 0.4385 0.75917 0.0
H1794 H 0.97847 0.54787 0.74252 0.0
H1795 H 0.00494 0.55046 0.73589 0.0
H1796 H 0.01425 0.57249 0.73416 0.0
H1797 H 0.99843 0.55842 0.71982 0.0
H1798 H 0.96896 0.53417 0.76687 0.0
H1799 H 0.02031 0.56469 0.7746 0.0
H1800 H 0.96375 0.49731 0.77757 0.0
H1801 H 0.9533 0.50851 0.77921 0.0
H1802 H 0.96203 0.50523 0.7972 0.0
H1803 H 0.03562 0.55516 0.78774 0.0
H1804 H 0.02647 0.53309 0.78894 0.0
H1805 H 0.02514 0.54478 0.8059 0.0
H1806 H 0.02407 0.44747 0.75543 0.0
H1807 H 0.01743 0.42509 0.73907 0.0
H1808 H 0.99776 0.41649 0.74228 0.0
H1809 H 0.01069 0.40667 0.76817 0.0
H1810 H 0.02378 0.46434 0.77593 0.0
H1811 H 0.97329 0.43948 0.76243 0.0
H1812 H 0.02496 0.48793 0.8073 0.0
H1813 H 0.02681 0.50157 0.79157 0.0
H1814 H 0.0371 0.49019 0.78968 0.0
H1815 H 0.95582 0.44793 0.77317 0.0
H1816 H 0.96593 0.47013 0.77301 0.0
H1817 H 0.96233 0.46012 0.79214 0.0
H1818 H 0.0214 0.43906 0.88855 0.0
H1819 H 0.02611 0.46377 0.88223 0.0
H1820 H 0.97759 0.44335 0.89952 0.0
H1821 H 0.02642 0.48659 0.85234 0.0
H1822 H 0.03972 0.48914 0.86909 0.0
H1823 H 0.03051 0.50159 0.86849 0.0
H1824 H 0.96068 0.45314 0.89128 0.0
H1825 H 0.96591 0.46426 0.87249 0.0
H1826 H 0.97222 0.47539 0.89183 0.0
H1827 H 0.98973 0.57417 0.89463 0.0
H1828 H 0.00537 0.59879 0.87731 0.0
H1829 H 0.008 0.58206 0.87059 0.0
H1830 H 0.02395 0.59933 0.8823 0.0
H1831 H 0.03173 0.56613 0.89367 0.0
H1832 H 0.98058 0.54729 0.89207 0.0
H1833 H 0.03185 0.53822 0.86412 0.0
H1834 H 0.03087 0.5301 0.88389 0.0
H1835 H 0.04336 0.55201 0.88114 0.0
H1836 H 0.96171 0.5202 0.88251 0.0
H1837 H 0.96864 0.50578 0.88026 0.0
H1838 H 0.96892 0.51724 0.86308 0.0
H1839 H 0.99425 0.49969 0.77538 0.0
H1840 H 0.9922 0.46295 0.81594 0.0
H1841 H 0.99363 0.46372 0.84526 0.0
H1842 H 0.00078 0.50325 0.88797 0.0
H1843 H 0.99774 0.53752 0.84753 0.0
H1844 H 0.9953 0.53621 0.81831 0.0
H1845 H 0.98582 0.41062 0.88282 0.0
H1846 H 0.00349 0.41216 0.87324 0.0
H1847 H 0.99764 0.42681 0.8688 0.0
C1848 C 0.53717 0.57983 0.73006 0.0
C1849 C 0.54871 0.58876 0.74472 0.0
C1850 C 0.53481 0.56797 0.76565 0.0
C1851 C 0.52238 0.57128 0.76884 0.0
C1852 C 0.50925 0.56095 0.7787 0.0
C1853 C 0.50838 0.5469 0.78535 0.0
C1854 C 0.52092 0.5436 0.78229 0.0
C1855 C 0.53408 0.55433 0.77266 0.0
C1856 C 0.49619 0.56497 0.78186 0.0
C1857 C 0.52029 0.5286 0.78897 0.0
C1858 C 0.40317 0.47299 0.72505 0.0
C1859 C 0.41226 0.46863 0.73728 0.0
C1860 C 0.42408 0.4831 0.76333 0.0
C1861 C 0.43593 0.47887 0.76532 0.0
C1862 C 0.44929 0.48826 0.77594 0.0
C1863 C 0.45093 0.50232 0.78445 0.0
C1864 C 0.43885 0.50647 0.78256 0.0
C1865 C 0.42536 0.49652 0.77229 0.0
C1866 C 0.46174 0.48327 0.77788 0.0
C1867 C 0.44036 0.52164 0.791 0.0
C1868 C 0.42317 0.48459 0.89208 0.0
C1869 C 0.43197 0.47796 0.88513 0.0
C1870 C 0.44603 0.48787 0.87616 0.0
C1871 C 0.45099 0.50458 0.87368 0.0
C1872 C 0.44201 0.51122 0.88073 0.0
C1873 C 0.42839 0.50118 0.89014 0.0
C1874 C 0.45564 0.48052 0.86949 0.0
C1875 C 0.44678 0.52891 0.87834 0.0
C1876 C 0.56484 0.612 0.88491 0.0
C1877 C 0.55585 0.60427 0.9007 0.0
C1878 C 0.53555 0.57578 0.89153 0.0
C1879 C 0.53233 0.55959 0.8905 0.0
C1880 C 0.51872 0.54709 0.88181 0.0
C1881 C 0.5079 0.55086 0.87423 0.0
C1882 C 0.51078 0.56711 0.87562 0.0
C1883 C 0.52469 0.57945 0.88405 0.0
C1884 C 0.51604 0.52992 0.88052 0.0
C1885 C 0.49927 0.57149 0.86803 0.0
C1886 C 0.49405 0.53539 0.79501 0.0
C1887 C 0.47986 0.52409 0.7864 0.0
C1888 C 0.4657 0.51322 0.79457 0.0
C1889 C 0.46566 0.51339 0.8119 0.0
C1890 C 0.4517 0.50251 0.82054 0.0
C1891 C 0.45163 0.50316 0.83759 0.0
C1892 C 0.46563 0.51447 0.84669 0.0
C1893 C 0.46569 0.51527 0.86404 0.0
C1894 C 0.47976 0.52697 0.87262 0.0
C1895 C 0.49381 0.53799 0.86439 0.0
C1896 C 0.49408 0.53716 0.84708 0.0
C1897 C 0.50811 0.5479 0.83843 0.0
C1898 C 0.50814 0.54736 0.8214 0.0
C1899 C 0.49419 0.53593 0.81234 0.0
C1900 C 0.47995 0.52485 0.8208 0.0
C1901 C 0.47991 0.52542 0.83821 0.0
C1902 C 0.3821 0.46374 0.89489 0.0
C1903 C 0.39627 0.46075 0.89567 0.0
O1904 O 0.54755 0.57739 0.75581 0.0
O1905 O 0.54924 0.58732 0.89977 0.0
O1906 O 0.4099 0.47532 0.90119 0.0
O1907 O 0.41138 0.47459 0.75272 0.0
H1908 H 0.54557 0.59738 0.75084 0.0
H1909 H 0.5244 0.57283 0.73411 0.0
H1910 H 0.54007 0.57105 0.72389 0.0
H1911 H 0.5382 0.58888 0.72106 0.0
H1912 H 0.52275 0.58184 0.76369 0.0
H1913 H 0.54372 0.55188 0.7702 0.0
H1914 H 0.48478 0.55551 0.77553 0.0
H1915 H 0.49953 0.57729 0.77741 0.0
H1916 H 0.49372 0.56465 0.79518 0.0
H1917 H 0.53037 0.52712 0.78447 0.0
H1918 H 0.50858 0.51731 0.78546 0.0
H1919 H 0.52101 0.52966 0.80256 0.0
H1920 H 0.42513 0.47487 0.73329 0.0
H1921 H 0.40397 0.46869 0.71245 0.0
H1922 H 0.40866 0.4866 0.7251 0.0
H1923 H 0.39019 0.46721 0.72835 0.0
H1924 H 0.43471 0.46821 0.75863 0.0
H1925 H 0.41606 0.49958 0.7707 0.0
H1926 H 0.46462 0.48336 0.79106 0.0
H1927 H 0.47312 0.49233 0.77185 0.0
H1928 H 0.45756 0.47082 0.77233 0.0
H1929 H 0.43113 0.52434 0.78647 0.0
H1930 H 0.45261 0.53256 0.78912 0.0
H1931 H 0.43878 0.51979 0.80437 0.0
H1932 H 0.39811 0.45722 0.88306 0.0
H1933 H 0.428 0.46515 0.88704 0.0
H1934 H 0.42153 0.50616 0.89576 0.0
H1935 H 0.45412 0.47896 0.85597 0.0
H1936 H 0.45164 0.46828 0.8746 0.0
H1937 H 0.46876 0.48892 0.87231 0.0
H1938 H 0.43723 0.53141 0.88251 0.0
H1939 H 0.44922 0.53195 0.86523 0.0
H1940 H 0.45809 0.53726 0.88544 0.0
H1941 H 0.54608 0.60709 0.90254 0.0
H1942 H 0.57023 0.6256 0.88566 0.0
H1943 H 0.55633 0.60698 0.87424 0.0
H1944 H 0.57465 0.60929 0.88284 0.0
H1945 H 0.54073 0.55684 0.89632 0.0
H1946 H 0.52689 0.59186 0.88465 0.0
H1947 H 0.51493 0.52586 0.86743 0.0
H1948 H 0.5045 0.52117 0.88651 0.0
H1949 H 0.52606 0.5292 0.88636 0.0
H1950 H 0.50197 0.58398 0.87213 0.0
H1951 H 0.48655 0.56231 0.87118 0.0
H1952 H 0.50018 0.57121 0.85449 0.0
H1953 H 0.47977 0.52394 0.7731 0.0
H1954 H 0.4406 0.49346 0.8142 0.0
H1955 H 0.44043 0.49468 0.84355 0.0
H1956 H 0.47967 0.52773 0.88591 0.0
H1957 H 0.51924 0.55693 0.84474 0.0
H1958 H 0.51923 0.55606 0.81542 0.0
H1959 H 0.37922 0.46645 0.90736 0.0
H1960 H 0.3711 0.45286 0.88934 0.0
H1961 H 0.38539 0.47446 0.88717 0.0
C1962 C 0.62994 0.75912 0.62021 0.0
C1963 C 0.63321 0.75243 0.60424 0.0
C1964 C 0.63923 0.77474 0.58548 0.0
C1965 C 0.62312 0.77083 0.58316 0.0
C1966 C 0.61959 0.78094 0.57398 0.0
C1967 C 0.63241 0.79535 0.56716 0.0
C1968 C 0.64863 0.79939 0.56956 0.0
C1969 C 0.65178 0.78891 0.57854 0.0
C1970 C 0.60215 0.77619 0.57156 0.0
C1971 C 0.66263 0.8148 0.56269 0.0
C1972 C 0.59988 0.86852 0.62463 0.0
C1973 C 0.61418 0.8746 0.61303 0.0
C1974 C 0.61203 0.85969 0.5875 0.0
C1975 C 0.62811 0.86362 0.58569 0.0
C1976 C 0.63176 0.85359 0.57579 0.0
C1977 C 0.61899 0.83919 0.56783 0.0
C1978 C 0.60275 0.83525 0.56969 0.0
C1979 C 0.59954 0.84581 0.57921 0.0
C1980 C 0.64923 0.85836 0.57388 0.0
C1981 C 0.58873 0.81977 0.56185 0.0
C1982 C 0.61038 0.85843 0.46291 0.0
C1983 C 0.62614 0.86382 0.4686 0.0
C1984 C 0.62962 0.85296 0.4764 0.0
C1985 C 0.61699 0.83649 0.4788 0.0
C1986 C 0.60122 0.83092 0.47254 0.0
C1987 C 0.59819 0.84194 0.46442 0.0
C1988 C 0.64674 0.85916 0.48227 0.0
C1989 C 0.58747 0.81344 0.47476 0.0
C1990 C 0.62413 0.73005 0.46936 0.0
C1991 C 0.62242 0.73691 0.45324 0.0
C1992 C 0.62993 0.76531 0.46152 0.0
C1993 C 0.64277 0.7817 0.46234 0.0
C1994 C 0.64136 0.79402 0.4708 0.0
C1995 C 0.62656 0.78987 0.47836 0.0
C1996 C 0.61329 0.77342 0.47711 0.0
C1997 C 0.61516 0.76126 0.46892 0.0
C1998 C 0.65578 0.81142 0.47192 0.0
C1999 C 0.59715 0.76861 0.48464 0.0
C2000 C 0.62884 0.80621 0.55753 0.0
C2001 C 0.62599 0.81747 0.5661 0.0
C2002 C 0.62258 0.82808 0.55784 0.0
C2003 C 0.62219 0.82765 0.54051 0.0
C2004 C 0.61921 0.83841 0.53178 0.0
C2005 C 0.61844 0.83762 0.51474 0.0
C2006 C 0.62086 0.82618 0.50572 0.0
C2007 C 0.62013 0.82529 0.48837 0.0
C2008 C 0.62219 0.81348 0.47983 0.0
C2009 C 0.62512 0.80255 0.48813 0.0
C2010 C 0.62629 0.80353 0.50545 0.0
C2011 C 0.62962 0.793 0.51417 0.0
C2012 C 0.63043 0.79383 0.5312 0.0
C2013 C 0.62808 0.80531 0.5402 0.0
C2014 C 0.6248 0.81611 0.53167 0.0
C2015 C 0.62402 0.8153 0.51426 0.0
C2016 C 0.59666 0.8856 0.46621 0.0
C2017 C 0.61161 0.88472 0.46163 0.0
O2018 O 0.64326 0.76536 0.59433 0.0
O2019 O 0.63241 0.75396 0.45356 0.0
O2020 O 0.60661 0.86884 0.45584 0.0
O2021 O 0.60824 0.86906 0.59721 0.0
H2022 H 0.62152 0.74402 0.59768 0.0
H2023 H 0.62376 0.76598 0.6176 0.0
H2024 H 0.64151 0.76761 0.6269 0.0
H2025 H 0.62195 0.7488 0.62821 0.0
H2026 H 0.61318 0.75995 0.5884 0.0
H2027 H 0.66416 0.79187 0.58037 0.0
H2028 H 0.60017 0.7856 0.57777 0.0
H2029 H 0.59349 0.76394 0.57654 0.0
H2030 H 0.59941 0.77593 0.55831 0.0
H2031 H 0.67457 0.81694 0.56684 0.0
H2032 H 0.66178 0.82572 0.56643 0.0
H2033 H 0.66203 0.81377 0.5491 0.0
H2034 H 0.62148 0.86921 0.61708 0.0
H2035 H 0.60429 0.87254 0.63748 0.0
H2036 H 0.5925 0.85482 0.62395 0.0
H2037 H 0.592 0.8734 0.62123 0.0
H2038 H 0.63778 0.8746 0.5919 0.0
H2039 H 0.58718 0.84297 0.58067 0.0
H2040 H 0.65197 0.85792 0.56072 0.0
H2041 H 0.65131 0.84939 0.58019 0.0
H2042 H 0.65779 0.87092 0.57914 0.0
H2043 H 0.57684 0.81722 0.56655 0.0
H2044 H 0.58997 0.80896 0.5641 0.0
H2045 H 0.58875 0.82111 0.5484 0.0
H2046 H 0.61912 0.88781 0.47303 0.0
H2047 H 0.63571 0.87647 0.46687 0.0
H2048 H 0.58613 0.83787 0.45973 0.0
H2049 H 0.64729 0.8603 0.49585 0.0
H2050 H 0.65554 0.87141 0.47738 0.0
H2051 H 0.65048 0.85024 0.47857 0.0
H2052 H 0.57568 0.81138 0.47018 0.0
H2053 H 0.58633 0.81048 0.48793 0.0
H2054 H 0.59011 0.80473 0.46806 0.0
H2055 H 0.60958 0.73342 0.45141 0.0
H2056 H 0.61622 0.71638 0.46909 0.0
H2057 H 0.6204 0.7351 0.4798 0.0
H2058 H 0.63691 0.73348 0.47147 0.0
H2059 H 0.65409 0.78475 0.45656 0.0
H2060 H 0.60502 0.7487 0.46844 0.0
H2061 H 0.65865 0.81571 0.48496 0.0
H2062 H 0.6528 0.81981 0.46571 0.0
H2063 H 0.66673 0.81244 0.46619 0.0
H2064 H 0.58743 0.756 0.48055 0.0
H2065 H 0.59344 0.77752 0.48143 0.0
H2066 H 0.5983 0.76895 0.49818 0.0
H2067 H 0.62632 0.81789 0.57939 0.0
H2068 H 0.61735 0.84755 0.53804 0.0
H2069 H 0.6159 0.84609 0.50874 0.0
H2070 H 0.62139 0.8127 0.46655 0.0
H2071 H 0.63161 0.78395 0.50793 0.0
H2072 H 0.6329 0.78531 0.53723 0.0
H2073 H 0.60034 0.89818 0.47105 0.0
H2074 H 0.58986 0.87666 0.47588 0.0
H2075 H 0.58849 0.88249 0.45539 0.0
C2076 C 0.10669 0.72561 0.58448 0.0
C2077 C 0.10817 0.73486 0.60077 0.0
C2078 C 0.1274 0.76342 0.59273 0.0
C2079 C 0.12821 0.77776 0.58766 0.0
C2080 C 0.14237 0.79055 0.58089 0.0
C2081 C 0.15612 0.78894 0.57924 0.0
C2082 C 0.15568 0.77479 0.58505 0.0
C2083 C 0.14131 0.76216 0.5918 0.0
C2084 C 0.14246 0.80554 0.57497 0.0
C2085 C 0.17022 0.77283 0.58364 0.0
C2086 C 0.2729 0.90395 0.61555 0.0
C2087 C 0.26224 0.88679 0.60888 0.0
C2088 C 0.23425 0.86878 0.59892 0.0
C2089 C 0.2364 0.85597 0.59289 0.0
C2090 C 0.22387 0.84228 0.58417 0.0
C2091 C 0.20904 0.84155 0.58115 0.0
C2092 C 0.20681 0.85435 0.58733 0.0
C2093 C 0.21942 0.86774 0.59627 0.0
C2094 C 0.22655 0.82868 0.57803 0.0
C2095 C 0.19118 0.85402 0.58431 0.0
C2096 C 0.23321 0.86814 0.47574 0.0
C2097 C 0.2361 0.85571 0.48045 0.0
C2098 C 0.22419 0.84189 0.48863 0.0
C2099 C 0.20919 0.84055 0.49226 0.0
C2100 C 0.20617 0.85291 0.48729 0.0
C2101 C 0.21821 0.86649 0.47902 0.0
C2102 C 0.22768 0.82878 0.49357 0.0
C2103 C 0.1903 0.85186 0.49091 0.0
C2104 C 0.09806 0.72251 0.47763 0.0
C2105 C 0.10439 0.73787 0.46743 0.0
C2106 C 0.13303 0.75847 0.47372 0.0
C2107 C 0.14749 0.75891 0.47697 0.0
C2108 C 0.16034 0.77237 0.48559 0.0
C2109 C 0.15872 0.78581 0.49083 0.0
C2110 C 0.14438 0.78577 0.48697 0.0
C2111 C 0.13168 0.77211 0.47838 0.0
C2112 C 0.17554 0.7721 0.48935 0.0
C2113 C 0.14245 0.80012 0.49204 0.0
C2114 C 0.1704 0.80144 0.57021 0.0
C2115 C 0.18305 0.81475 0.57906 0.0
C2116 C 0.19607 0.82767 0.57104 0.0
C2117 C 0.19643 0.82744 0.55371 0.0
C2118 C 0.20891 0.84059 0.54521 0.0
C2119 C 0.20907 0.84031 0.52817 0.0
C2120 C 0.1968 0.82682 0.51893 0.0
C2121 C 0.19676 0.82647 0.50159 0.0
C2122 C 0.18434 0.8129 0.4928 0.0
C2123 C 0.17177 0.79964 0.50086 0.0
C2124 C 0.17155 0.7998 0.51818 0.0
C2125 C 0.159 0.78672 0.52666 0.0
C2126 C 0.15864 0.78719 0.54368 0.0
C2127 C 0.1709 0.80068 0.55291 0.0
C2128 C 0.18387 0.81381 0.54464 0.0
C2129 C 0.18412 0.81344 0.52724 0.0
C2130 C 0.27034 0.89423 0.48173 0.0
C2131 C 0.26065 0.88748 0.4656 0.0
O2132 O 0.1129 0.75114 0.59814 0.0
O2133 O 0.12099 0.74494 0.46558 0.0
O2134 O 0.24441 0.88195 0.46815 0.0
O2135 O 0.24613 0.88234 0.60723 0.0
H2136 H 0.11724 0.73453 0.60891 0.0
H2137 H 0.1186 0.73103 0.57841 0.0
H2138 H 0.098 0.72622 0.57602 0.0
H2139 H 0.10239 0.71245 0.58665 0.0
H2140 H 0.11748 0.7787 0.5886 0.0
H2141 H 0.141 0.7513 0.59605 0.0
H2142 H 0.15318 0.81697 0.58012 0.0
H2143 H 0.13131 0.80557 0.57843 0.0
H2144 H 0.1434 0.80583 0.56142 0.0
H2145 H 0.16816 0.76138 0.58927 0.0
H2146 H 0.18094 0.78362 0.58968 0.0
H2147 H 0.17311 0.7725 0.57051 0.0
H2148 H 0.2638 0.87726 0.61485 0.0
H2149 H 0.27749 0.90254 0.62769 0.0
H2150 H 0.26469 0.90794 0.62115 0.0
H2151 H 0.28835 0.91616 0.59615 0.0
H2152 H 0.24779 0.85656 0.59495 0.0
H2153 H 0.21787 0.87765 0.60101 0.0
H2154 H 0.21623 0.81648 0.58148 0.0
H2155 H 0.23798 0.83014 0.58298 0.0
H2156 H 0.22711 0.8287 0.56446 0.0
H2157 H 0.19182 0.86552 0.58889 0.0
H2158 H 0.18113 0.8434 0.59055 0.0
H2159 H 0.1882 0.85228 0.57099 0.0
H2160 H 0.26191 0.87715 0.46053 0.0
H2161 H 0.24758 0.85669 0.47788 0.0
H2162 H 0.21606 0.87608 0.47525 0.0
H2163 H 0.22782 0.82837 0.50714 0.0
H2164 H 0.2395 0.83107 0.48896 0.0
H2165 H 0.2179 0.81647 0.48883 0.0
H2166 H 0.19008 0.86281 0.48676 0.0
H2167 H 0.18804 0.85074 0.50428 0.0
H2168 H 0.18021 0.84064 0.48468 0.0
H2169 H 0.10145 0.7464 0.47407 0.0
H2170 H 0.0848 0.71667 0.47952 0.0
H2171 H 0.10424 0.726 0.48984 0.0
H2172 H 0.10048 0.71338 0.47144 0.0
H2173 H 0.14853 0.74847 0.47301 0.0
H2174 H 0.12091 0.77233 0.47514 0.0
H2175 H 0.17749 0.77287 0.50283 0.0
H2176 H 0.1862 0.78304 0.48416 0.0
H2177 H 0.17495 0.76076 0.48432 0.0
H2178 H 0.13085 0.79854 0.48749 0.0
H2179 H 0.15266 0.81173 0.48731 0.0
H2180 H 0.14286 0.80148 0.50562 0.0
H2181 H 0.18262 0.81521 0.59234 0.0
H2182 H 0.21866 0.85132 0.55164 0.0
H2183 H 0.21894 0.85081 0.52232 0.0
H2184 H 0.18433 0.81276 0.47951 0.0
H2185 H 0.14922 0.77601 0.52023 0.0
H2186 H 0.1486 0.7768 0.5495 0.0
H2187 H 0.2834 0.89886 0.47965 0.0
H2188 H 0.26595 0.88439 0.49081 0.0
H2189 H 0.26909 0.90447 0.487 0.0
C2190 C 0.13356 0.3744 0.62857 0.0
C2191 C 0.12381 0.37341 0.61328 0.0
C2192 C 0.13823 0.36735 0.59179 0.0
C2193 C 0.15215 0.38326 0.59156 0.0
C2194 C 0.16559 0.38634 0.58213 0.0
C2195 C 0.16515 0.37326 0.57281 0.0
C2196 C 0.15111 0.35729 0.57288 0.0
C2197 C 0.13779 0.35461 0.58227 0.0
C2198 C 0.18034 0.40354 0.58221 0.0
C2199 C 0.15026 0.34301 0.5632 0.0
C2200 C 0.27808 0.38749 0.58811 0.0
C2201 C 0.26655 0.37868 0.60223 0.0
C2202 C 0.24021 0.37004 0.58902 0.0
C2203 C 0.22673 0.35673 0.58113 0.0
C2204 C 0.21518 0.35884 0.57294 0.0
C2205 C 0.21712 0.3747 0.57275 0.0
C2206 C 0.23049 0.38818 0.58105 0.0
C2207 C 0.24193 0.38574 0.58911 0.0
C2208 C 0.20101 0.34416 0.56426 0.0
C2209 C 0.2328 0.40521 0.58118 0.0
C2210 C 0.2493 0.38744 0.46855 0.0
C2211 C 0.23605 0.37229 0.47319 0.0
C2212 C 0.223 0.37165 0.48155 0.0
C2213 C 0.22325 0.38648 0.48539 0.0
C2214 C 0.23635 0.4017 0.48025 0.0
C2215 C 0.24914 0.40194 0.47171 0.0
C2216 C 0.20895 0.35513 0.48634 0.0
C2217 C 0.23695 0.41771 0.484 0.0
C2218 C 0.11686 0.38808 0.47331 0.0
C2219 C 0.12314 0.38515 0.45704 0.0
C2220 C 0.14268 0.37778 0.46723 0.0
C2221 C 0.14447 0.36435 0.47012 0.0
C2222 C 0.15788 0.36634 0.47891 0.0
C2223 C 0.16994 0.38226 0.48481 0.0
C2224 C 0.16848 0.39603 0.48155 0.0
C2225 C 0.15483 0.39367 0.4728 0.0
C2226 C 0.15907 0.35136 0.48205 0.0
C2227 C 0.18125 0.41318 0.4875 0.0
C2228 C 0.17955 0.37616 0.56338 0.0
C2229 C 0.19176 0.3753 0.57168 0.0
C2230 C 0.20533 0.37717 0.56348 0.0
C2231 C 0.20697 0.38024 0.54654 0.0
C2232 C 0.22059 0.38242 0.53797 0.0
C2233 C 0.22177 0.38471 0.52116 0.0
C2234 C 0.20928 0.3847 0.51224 0.0
C2235 C 0.20993 0.38603 0.49502 0.0
C2236 C 0.19725 0.38587 0.48652 0.0
C2237 C 0.18379 0.38428 0.49475 0.0
C2238 C 0.18298 0.38304 0.512 0.0
C2239 C 0.16964 0.38145 0.52068 0.0
C2240 C 0.16864 0.37955 0.53756 0.0
C2241 C 0.18083 0.37893 0.54637 0.0
C2242 C 0.19457 0.38089 0.53792 0.0
C2243 C 0.19569 0.38306 0.52073 0.0
C2244 C 0.28399 0.39057 0.47611 0.0
C2245 C 0.26992 0.38001 0.4641 0.0
O2246 O 0.12507 0.36363 0.60106 0.0
O2247 O 0.129 0.37467 0.45912 0.0
O2248 O 0.26212 0.38845 0.46049 0.0
O2249 O 0.25122 0.36712 0.59616 0.0
H2250 H 0.12848 0.38603 0.60877 0.0
H2251 H 0.14662 0.38018 0.62576 0.0
H2252 H 0.12916 0.36186 0.63313 0.0
H2253 H 0.13237 0.38205 0.63843 0.0
H2254 H 0.15271 0.39335 0.59873 0.0
H2255 H 0.12701 0.3424 0.58245 0.0
H2256 H 0.19081 0.40348 0.58781 0.0
H2257 H 0.17839 0.41263 0.58917 0.0
H2258 H 0.1836 0.40763 0.56945 0.0
H2259 H 0.1388 0.33118 0.56524 0.0
H2260 H 0.16065 0.34165 0.56664 0.0
H2261 H 0.15117 0.34549 0.54993 0.0
H2262 H 0.26578 0.3879 0.61035 0.0
H2263 H 0.29041 0.39661 0.59298 0.0
H2264 H 0.27377 0.39425 0.58088 0.0
H2265 H 0.27886 0.37842 0.57978 0.0
H2266 H 0.22545 0.34466 0.58119 0.0
H2267 H 0.25216 0.39618 0.59531 0.0
H2268 H 0.20146 0.34632 0.55094 0.0
H2269 H 0.18945 0.3426 0.56885 0.0
H2270 H 0.20094 0.33254 0.56602 0.0
H2271 H 0.24375 0.41442 0.58833 0.0
H2272 H 0.222 0.40483 0.58651 0.0
H2273 H 0.2339 0.40935 0.56842 0.0
H2274 H 0.26155 0.36819 0.47002 0.0
H2275 H 0.23569 0.36092 0.47004 0.0
H2276 H 0.25928 0.41353 0.46777 0.0
H2277 H 0.20872 0.35436 0.49988 0.0
H2278 H 0.20977 0.34466 0.48096 0.0
H2279 H 0.19731 0.35378 0.4823 0.0
H2280 H 0.24832 0.42858 0.47976 0.0
H2281 H 0.23593 0.41924 0.49741 0.0
H2282 H 0.22647 0.4174 0.47795 0.0
H2283 H 0.13296 0.39712 0.45245 0.0
H2284 H 0.11191 0.39625 0.47156 0.0
H2285 H 0.12682 0.39417 0.48259 0.0
H2286 H 0.10717 0.37618 0.47813 0.0
H2287 H 0.1351 0.35218 0.46566 0.0
H2288 H 0.15374 0.40424 0.47045 0.0
H2289 H 0.16003 0.3502 0.49543 0.0
H2290 H 0.17022 0.35286 0.47639 0.0
H2291 H 0.14844 0.33977 0.477 0.0
H2292 H 0.17875 0.42273 0.48335 0.0
H2293 H 0.19333 0.41613 0.48303 0.0
H2294 H 0.18186 0.41373 0.5011 0.0
H2295 H 0.19052 0.37278 0.58465 0.0
H2296 H 0.23046 0.38228 0.54413 0.0
H2297 H 0.2325 0.38624 0.51522 0.0
H2298 H 0.19762 0.38646 0.47326 0.0
H2299 H 0.15976 0.38157 0.51451 0.0
H2300 H 0.15806 0.37833 0.54358 0.0
H2301 H 0.29036 0.38401 0.47927 0.0
H2302 H 0.27928 0.39308 0.48758 0.0
H2303 H 0.29279 0.40255 0.47071 0.0
H2304 H 0.01653 0.36833 0.04664 0.0
H2305 H 0.96618 0.35336 0.03947 0.0
H2306 H 0.01881 0.3867 0.06932 0.0
H2307 H 0.96862 0.372 0.0621 0.0
H2308 H 0.97561 0.39458 0.11462 0.0
H2309 H 0.97258 0.37561 0.09202 0.0
H2310 H 0.01908 0.41251 0.07356 0.0
H2311 H 0.02217 0.43136 0.09631 0.0
C2312 C 0.00592 0.36891 0.04988 0.0
C2313 C 0.99116 0.35935 0.04115 0.0
C2314 C 0.00728 0.37956 0.06284 0.0
C2315 C 0.99394 0.38092 0.06743 0.0
C2316 C 0.9791 0.37115 0.05893 0.0
C2317 C 0.97772 0.3605 0.04592 0.0
C2318 C 0.9851 0.39866 0.10563 0.0
C2319 C 0.99903 0.41451 0.10709 0.0
C2320 C 0.98335 0.38782 0.09268 0.0
C2321 C 0.99558 0.39255 0.08099 0.0
C2322 C 0.00952 0.40843 0.08246 0.0
C2323 C 0.01124 0.41927 0.09538 0.0
H2324 H 0.61329 0.6268 0.065 0.0
H2325 H 0.65035 0.61903 0.04442 0.0
H2326 H 0.60139 0.60047 0.07821 0.0
H2327 H 0.63828 0.59252 0.05778 0.0
H2328 H 0.62066 0.54639 0.09972 0.0
H2329 H 0.63599 0.57725 0.08297 0.0
H2330 H 0.58199 0.57114 0.07123 0.0
H2331 H 0.56529 0.54013 0.08755 0.0
C2332 C 0.61899 0.61955 0.06337 0.0
C2333 C 0.63275 0.62502 0.05355 0.0
C2334 C 0.61206 0.60438 0.07085 0.0
C2335 C 0.61881 0.59441 0.06885 0.0
C2336 C 0.63288 0.60003 0.05956 0.0
C2337 C 0.63973 0.61517 0.05186 0.0
C2338 C 0.61347 0.55053 0.09367 0.0
C2339 C 0.59151 0.54153 0.09793 0.0
C2340 C 0.62293 0.5701 0.08388 0.0
C2341 C 0.61081 0.57805 0.07612 0.0
C2342 C 0.58888 0.56633 0.07662 0.0
C2343 C 0.5783 0.54666 0.08609 0.0
H2344 H 0.35214 0.98305 0.06533 0.0
H2345 H 0.38467 0.02486 0.03682 0.0
H2346 H 0.37316 0.9915 0.08619 0.0
H2347 H 0.40611 0.03305 0.05746 0.0
H2348 H 0.4374 0.04975 0.10472 0.0
H2349 H 0.41598 0.04344 0.08463 0.0
H2350 H 0.39723 0.99131 0.08958 0.0
H2351 H 0.41805 0.99766 0.11011 0.0
C2352 C 0.36382 0.9941 0.06354 0.0
C2353 C 0.36678 0.00322 0.04937 0.0
C2354 C 0.37595 0.99888 0.07545 0.0
C2355 C 0.3915 0.01278 0.0734 0.0
C2356 C 0.39428 0.02232 0.05951 0.0
C2357 C 0.382 0.01764 0.04766 0.0
C2358 C 0.42874 0.03696 0.10136 0.0
C2359 C 0.42964 0.02424 0.10874 0.0
C2360 C 0.41649 0.03333 0.08983 0.0
C2361 C 0.4048 0.01685 0.08546 0.0
C2362 C 0.4058 0.00414 0.09281 0.0
C2363 C 0.41792 0.00778 0.10444 0.0
H2364 H 0.36899 0.97158 0.98079 0.0
H2365 H 0.36127 0.00855 0.96026 0.0
H2366 H 0.38843 0.97602 0.95926 0.0
H2367 H 0.38045 0.01266 0.93854 0.0
H2368 H 0.4031 0.99991 0.89349 0.0
H2369 H 0.38237 0.99374 0.91413 0.0
H2370 H 0.41721 0.00325 0.95245 0.0
H2371 H 0.43807 0.01 0.93203 0.0
C2372 C 0.37127 0.98047 0.97156 0.0
C2373 C 0.36363 0.98974 0.97222 0.0
C2374 C 0.38244 0.98306 0.95932 0.0
C2375 C 0.38589 0.99468 0.94732 0.0
C2376 C 0.3779 0.00358 0.94765 0.0
C2377 C 0.367 0.00126 0.96009 0.0
C2378 C 0.40629 0.00062 0.90632 0.0
C2379 C 0.42219 0.00528 0.91105 0.0
C2380 C 0.39447 0.99713 0.91809 0.0
C2381 C 0.39823 0.99795 0.93481 0.0
C2382 C 0.41401 0.00237 0.93959 0.0
C2383 C 0.42593 0.00621 0.92786 0.0
H2384 H 0.01925 0.38452 0.98067 0.0
H2385 H 0.9906 0.34577 0.94462 0.0
H2386 H 0.02406 0.4053 0.96052 0.0
H2387 H 0.99593 0.36651 0.9244 0.0
H2388 H 0.02483 0.41368 0.89149 0.0
H2389 H 0.02533 0.39519 0.91155 0.0
H2390 H 0.997 0.40639 0.94448 0.0
H2391 H 0.99574 0.42419 0.92434 0.0
C2392 C 0.01445 0.38049 0.96831 0.0
C2393 C 0.0046 0.36361 0.96412 0.0
C2394 C 0.01711 0.39233 0.95687 0.0
C2395 C 0.01035 0.3874 0.94101 0.0
C2396 C 0.00132 0.37054 0.93655 0.0
C2397 C 0.99829 0.35873 0.94808 0.0
C2398 C 0.01875 0.41224 0.90304 0.0
C2399 C 0.01021 0.4204 0.90621 0.0
C2400 C 0.01912 0.40175 0.91448 0.0
C2401 C 0.01133 0.39958 0.92951 0.0
C2402 C 0.00326 0.40809 0.933 0.0
C2403 C 0.00253 0.41825 0.92141 0.0
H2404 H 0.63716 0.64228 0.97099 0.0
H2405 H 0.60118 0.64968 0.99492 0.0
H2406 H 0.61956 0.63078 0.94675 0.0
H2407 H 0.58349 0.63777 0.97097 0.0
H2408 H 0.56215 0.63107 0.92003 0.0
H2409 H 0.58094 0.64359 0.9433 0.0
H2410 H 0.59468 0.60692 0.93715 0.0
H2411 H 0.57631 0.59483 0.91349 0.0
C2412 C 0.62548 0.6414 0.97113 0.0
C2413 C 0.62062 0.64696 0.98491 0.0
C2414 C 0.61535 0.63472 0.95725 0.0
C2415 C 0.6001 0.63337 0.95688 0.0
C2416 C 0.59526 0.6389 0.97069 0.0
C2417 C 0.6054 0.64566 0.98449 0.0
C2418 C 0.56914 0.62566 0.92374 0.0
C2419 C 0.56741 0.6117 0.91525 0.0
C2420 C 0.57987 0.63278 0.93709 0.0
C2421 C 0.58918 0.62614 0.94225 0.0
C2422 C 0.58776 0.61241 0.93348 0.0
C2423 C 0.57709 0.60535 0.92004 0.0
H2424 H 0.0433 0.66143 0.97277 0.0
H2425 H 0.99125 0.63684 0.97744 0.0
H2426 H 0.03976 0.64397 0.94867 0.0
H2427 H 0.98771 0.61893 0.9539 0.0
H2428 H 0.98505 0.59633 0.9038 0.0
H2429 H 0.9896 0.61674 0.9254 0.0
H2430 H 0.03227 0.61667 0.94171 0.0
H2431 H 0.02819 0.59706 0.91957 0.0
C2432 C 0.0311 0.6523 0.96866 0.0
C2433 C 0.01757 0.65051 0.97707 0.0
C2434 C 0.02906 0.64219 0.9549 0.0
C2435 C 0.01344 0.6299 0.94936 0.0
C2436 C 0.99992 0.62839 0.9576 0.0
C2437 C 0.00196 0.63864 0.9712 0.0
C2438 C 0.99537 0.6007 0.91206 0.0
C2439 C 0.00597 0.59473 0.91028 0.0
C2440 C 0.99797 0.61235 0.92448 0.0
C2441 C 0.01121 0.61826 0.93548 0.0
C2442 C 0.02203 0.61256 0.93342 0.0
C2443 C 0.01955 0.60109 0.92085 0.0
H2444 H 0.39507 0.38411 0.95388 0.0
H2445 H 0.34739 0.37733 0.95952 0.0
H2446 H 0.40275 0.40764 0.93658 0.0
H2447 H 0.35501 0.4006 0.94181 0.0
H2448 H 0.37226 0.42841 0.89146 0.0
H2449 H 0.36477 0.40541 0.9094 0.0
H2450 H 0.40446 0.43761 0.94224 0.0
H2451 H 0.41163 0.46085 0.92482 0.0
C2452 C 0.38621 0.38758 0.95135 0.0
C2453 C 0.37062 0.37886 0.95803 0.0
C2454 C 0.39065 0.40107 0.94154 0.0
C2455 C 0.37945 0.40585 0.93791 0.0
C2456 C 0.36382 0.39708 0.94443 0.0
C2457 C 0.3595 0.38383 0.95457 0.0
C2458 C 0.37929 0.43066 0.90261 0.0
C2459 C 0.39236 0.44658 0.90677 0.0
C2460 C 0.375 0.41749 0.91282 0.0
C2461 C 0.384 0.41984 0.92718 0.0
C2462 C 0.39735 0.43556 0.9312 0.0
C2463 C 0.40142 0.44885 0.92119 0.0
H2464 H 0.62831 0.98279 0.97217 0.0
H2465 H 0.64278 0.0335 0.96415 0.0
H2466 H 0.60809 0.97373 0.95 0.0
H2467 H 0.62256 0.02446 0.94244 0.0
H2468 H 0.59925 0.00472 0.89204 0.0
H2469 H 0.61848 0.01288 0.91484 0.0
H2470 H 0.58244 0.97203 0.94229 0.0
H2471 H 0.56324 0.96371 0.91922 0.0
C2472 C 0.62715 0.99199 0.96578 0.0
C2473 C 0.6373 0.00888 0.9699 0.0
C2474 C 0.6155 0.9868 0.95313 0.0
C2475 C 0.61379 0.99839 0.94435 0.0
C2476 C 0.62375 0.01522 0.94871 0.0
C2477 C 0.63534 0.02039 0.96126 0.0
C2478 C 0.59539 0.99759 0.90301 0.0
C2479 C 0.57966 0.98377 0.90397 0.0
C2480 C 0.60639 0.00226 0.91609 0.0
C2481 C 0.60197 0.99317 0.93045 0.0
C2482 C 0.58626 0.97923 0.93138 0.0
C2483 C 0.57522 0.97457 0.91826 0.0
H2484 H 0.64237 0.99622 0.05379 0.0
H2485 H 0.64759 0.04368 0.04599 0.0
H2486 H 0.62446 0.99202 0.07656 0.0
H2487 H 0.62929 0.03925 0.0685 0.0
H2488 H 0.60479 0.03102 0.1183 0.0
H2489 H 0.6255 0.03668 0.09783 0.0
H2490 H 0.59722 0.98608 0.07953 0.0
H2491 H 0.5769 0.98041 0.10018 0.0
C2492 C 0.63974 0.00578 0.05694 0.0
C2493 C 0.64632 0.02023 0.04795 0.0
C2494 C 0.62938 0.00333 0.06996 0.0
C2495 C 0.62526 0.0152 0.07423 0.0
C2496 C 0.63231 0.02991 0.06563 0.0
C2497 C 0.64276 0.03242 0.05266 0.0
C2498 C 0.60304 0.02118 0.10983 0.0
C2499 C 0.58911 0.00535 0.11063 0.0
C2500 C 0.61486 0.0244 0.09811 0.0
C2501 C 0.61302 0.01184 0.08703 0.0
C2502 C 0.59916 0.99599 0.088 0.0
C2503 C 0.58741 0.99277 0.09971 0.0
H2504 H 0.98268 0.63972 0.0588 0.0
H2505 H 0.02177 0.63123 0.04799 0.0
H2506 H 0.97178 0.61729 0.07828 0.0
H2507 H 0.01064 0.60865 0.06702 0.0
H2508 H 0.97274 0.55778 0.08885 0.0
H2509 H 0.98199 0.5793 0.06878 0.0
H2510 H 0.98541 0.61391 0.10652 0.0
H2511 H 0.97675 0.59259 0.12688 0.0
C2512 C 0.98881 0.63296 0.06046 0.0
C2513 C 0.0031 0.63725 0.05197 0.0
C2514 C 0.98264 0.62022 0.07161 0.0
C2515 C 0.99041 0.61131 0.07407 0.0
C2516 C 0.00441 0.61531 0.06526 0.0
C2517 C 0.0108 0.62826 0.05445 0.0
C2518 C 0.97555 0.56997 0.09297 0.0
C2519 C 0.97412 0.5735 0.10957 0.0
C2520 C 0.98078 0.58225 0.08144 0.0
C2521 C 0.98429 0.59817 0.08615 0.0
C2522 C 0.9826 0.60166 0.1026 0.0
C2523 C 0.97773 0.5895 0.11421 0.0
H2524 H 0.37405 0.37682 0.03737 0.0
H2525 H 0.39611 0.34757 0.02821 0.0
H2526 H 0.3908 0.38887 0.06212 0.0
H2527 H 0.4123 0.35906 0.05313 0.0
H2528 H 0.45064 0.39325 0.08963 0.0
H2529 H 0.43457 0.38338 0.06442 0.0
H2530 H 0.39455 0.38274 0.08926 0.0
H2531 H 0.41107 0.39348 0.11432 0.0
C2532 C 0.38238 0.37288 0.04068 0.0
C2533 C 0.3838 0.3613 0.03074 0.0
C2534 C 0.39194 0.37973 0.05492 0.0
C2535 C 0.40301 0.37503 0.05961 0.0
C2536 C 0.40422 0.36329 0.04974 0.0
C2537 C 0.39482 0.3566 0.03546 0.0
C2538 C 0.43853 0.39132 0.08963 0.0
C2539 C 0.43224 0.39451 0.10388 0.0
C2540 C 0.42921 0.38543 0.07522 0.0
C2541 C 0.4132 0.38219 0.07477 0.0
C2542 C 0.40691 0.38536 0.08904 0.0
C2543 C 0.41633 0.39145 0.10342 0.0
H2544 H 0.66666 0.69861 0.38457 0.0
H2545 H 0.62281 0.68993 0.36055 0.0
H2546 H 0.66068 0.71072 0.4084 0.0
H2547 H 0.61713 0.70235 0.38403 0.0
H2548 H 0.6021 0.70932 0.43457 0.0
H2549 H 0.60872 0.69665 0.41183 0.0
H2550 H 0.65934 0.73459 0.41741 0.0
H2551 H 0.6527 0.74691 0.44057 0.0
C2552 C 0.6558 0.69935 0.38432 0.0
C2553 C 0.64518 0.69321 0.37065 0.0
C2554 C 0.65242 0.70637 0.39795 0.0
C2555 C 0.63837 0.70743 0.39818 0.0
C2556 C 0.62788 0.70143 0.38443 0.0
C2557 C 0.63121 0.69438 0.37089 0.0
C2558 C 0.61462 0.71498 0.43085 0.0
C2559 C 0.6268 0.72938 0.43901 0.0
C2560 C 0.61843 0.70777 0.4178 0.0
C2561 C 0.63454 0.71474 0.41261 0.0
C2562 C 0.64682 0.72888 0.4211 0.0
C2563 C 0.643 0.73605 0.43424 0.0
H2564 H 0.30211 0.94878 0.38036 0.0
H2565 H 0.29537 0.97976 0.41546 0.0
H2566 H 0.2916 0.9268 0.3999 0.0
H2567 H 0.28554 0.9581 0.43526 0.0
H2568 H 0.25179 0.91047 0.46021 0.0
H2569 H 0.26276 0.93229 0.44057 0.0
H2570 H 0.29688 0.91808 0.42475 0.0
H2571 H 0.28518 0.89561 0.4439 0.0
C2572 C 0.29858 0.95098 0.39233 0.0
C2573 C 0.29947 0.96598 0.3963 0.0
C2574 C 0.29262 0.93839 0.40359 0.0
C2575 C 0.28761 0.94058 0.41918 0.0
C2576 C 0.28891 0.95578 0.42326 0.0
C2577 C 0.29466 0.96827 0.41193 0.0
C2578 C 0.26145 0.91183 0.45235 0.0
C2579 C 0.26731 0.901 0.45325 0.0
C2580 C 0.26793 0.92452 0.44123 0.0
C2581 C 0.28073 0.927 0.431 0.0
C2582 C 0.28682 0.91636 0.43217 0.0
C2583 C 0.28018 0.90352 0.44317 0.0
H2584 H 0.05937 0.36123 0.37138 0.0
H2585 H 0.0313 0.32174 0.40428 0.0
H2586 H 0.08149 0.37417 0.39146 0.0
H2587 H 0.05309 0.33504 0.4247 0.0
H2588 H 0.10116 0.35208 0.45012 0.0
H2589 H 0.07901 0.33987 0.43015 0.0
H2590 H 0.09065 0.38864 0.41689 0.0
H2591 H 0.11349 0.40082 0.43634 0.0
C2592 C 0.05782 0.35543 0.38301 0.0
C2593 C 0.0436 0.34039 0.38618 0.0
C2594 C 0.0705 0.36291 0.39459 0.0
C2595 C 0.06919 0.35565 0.40973 0.0
C2596 C 0.05474 0.34083 0.41305 0.0
C2597 C 0.04217 0.33323 0.40138 0.0
C2598 C 0.09916 0.3602 0.44275 0.0
C2599 C 0.10939 0.37744 0.44445 0.0
C2600 C 0.08627 0.3532 0.43144 0.0
C2601 C 0.08296 0.36323 0.42182 0.0
C2602 C 0.09299 0.38049 0.4238 0.0
C2603 C 0.10605 0.3875 0.43498 0.0
H2604 H 0.03897 0.33511 0.29789 0.0
H2605 H 0.03182 0.29095 0.31994 0.0
H2606 H 0.05154 0.32978 0.27435 0.0
H2607 H 0.04472 0.28594 0.29681 0.0
H2608 H 0.05104 0.27081 0.24566 0.0
H2609 H 0.03885 0.27723 0.26867 0.0
H2610 H 0.07512 0.32902 0.26552 0.0
H2611 H 0.08695 0.32257 0.24206 0.0
C2612 C 0.04021 0.32437 0.2978 0.0
C2613 C 0.03424 0.31339 0.31074 0.0
C2614 C 0.04748 0.32135 0.28434 0.0
C2615 C 0.049 0.30734 0.2836 0.0
C2616 C 0.0434 0.29663 0.29676 0.0
C2617 C 0.03607 0.29957 0.3101 0.0
C2618 C 0.05645 0.28355 0.24998 0.0
C2619 C 0.07022 0.29612 0.24238 0.0
C2620 C 0.04952 0.28724 0.26319 0.0
C2621 C 0.05616 0.30363 0.26913 0.0
C2622 C 0.06969 0.31628 0.26125 0.0
C2623 C 0.07658 0.31258 0.24794 0.0
H2624 H 0.65798 0.70814 0.28797 0.0
H2625 H 0.70268 0.71872 0.31162 0.0
H2626 H 0.67253 0.73393 0.27389 0.0
H2627 H 0.71727 0.74475 0.2973 0.0
H2628 H 0.74703 0.79093 0.2554 0.0
H2629 H 0.73133 0.76006 0.27218 0.0
H2630 H 0.68121 0.76304 0.28003 0.0
H2631 H 0.6956 0.79397 0.26358 0.0
C2632 C 0.67095 0.71587 0.29009 0.0
C2633 C 0.67911 0.71134 0.30108 0.0
C2634 C 0.67926 0.73076 0.28208 0.0
C2635 C 0.69597 0.74142 0.28466 0.0
C2636 C 0.70437 0.73669 0.29504 0.0
C2637 C 0.69599 0.72182 0.30329 0.0
C2638 C 0.73519 0.7862 0.26072 0.0
C2639 C 0.72178 0.79417 0.25514 0.0
C2640 C 0.725 0.76659 0.27048 0.0
C2641 C 0.70425 0.75765 0.27703 0.0
C2642 C 0.69333 0.76839 0.27528 0.0
C2643 C 0.70244 0.78803 0.26577 0.0
H2644 H 0.26463 0.98122 0.33211 0.0
H2645 H 0.29891 0.97117 0.30829 0.0
H2646 H 0.24616 0.96868 0.30879 0.0
H2647 H 0.28055 0.95904 0.28461 0.0
H2648 H 0.23659 0.92439 0.25155 0.0
H2649 H 0.25508 0.93587 0.27521 0.0
H2650 H 0.24373 0.97434 0.28113 0.0
H2651 H 0.22482 0.96244 0.25793 0.0
C2652 C 0.26829 0.97643 0.32184 0.0
C2653 C 0.2833 0.97728 0.32205 0.0
C2654 C 0.25771 0.9693 0.3084 0.0
C2655 C 0.26191 0.96297 0.29472 0.0
C2656 C 0.27685 0.96363 0.295 0.0
C2657 C 0.28741 0.97066 0.30854 0.0
C2658 C 0.2379 0.93516 0.25808 0.0
C2659 C 0.22887 0.94223 0.25323 0.0
C2660 C 0.24863 0.94186 0.27151 0.0
C2661 C 0.25077 0.95593 0.28022 0.0
C2662 C 0.24208 0.96325 0.27501 0.0
C2663 C 0.23129 0.95649 0.26169 0.0
H2664 H 0.70733 0.96879 0.32694 0.0
H2665 H 0.66647 0.96583 0.30172 0.0
H2666 H 0.71234 0.95605 0.30315 0.0
H2667 H 0.67188 0.95373 0.27759 0.0
H2668 H 0.6782 0.92093 0.24052 0.0
H2669 H 0.67156 0.9304 0.26583 0.0
H2670 H 0.72273 0.96295 0.27664 0.0
H2671 H 0.72924 0.95282 0.25178 0.0
C2672 C 0.69944 0.96545 0.31628 0.0
C2673 C 0.68656 0.96841 0.31618 0.0
C2674 C 0.70237 0.95823 0.30258 0.0
C2675 C 0.69265 0.95401 0.28833 0.0
C2676 C 0.67951 0.95662 0.28839 0.0
C2677 C 0.67644 0.96363 0.3022 0.0
C2678 C 0.68799 0.93002 0.24841 0.0
C2679 C 0.70423 0.93622 0.24415 0.0
C2680 C 0.68421 0.93555 0.26285 0.0
C2681 C 0.69659 0.94751 0.2733 0.0
C2682 C 0.71285 0.95355 0.26907 0.0
C2683 C 0.71662 0.94788 0.25474 0.0
H2684 H 0.02402 0.72366 0.30822 0.0
H2685 H 0.05951 0.71479 0.28538 0.0
H2686 H 0.03004 0.74495 0.28866 0.0
H2687 H 0.06568 0.73626 0.26608 0.0
H2688 H 0.05669 0.76035 0.22234 0.0
H2689 H 0.0526 0.7404 0.24284 0.0
H2690 H 0.05118 0.77252 0.28073 0.0
H2691 H 0.05502 0.79236 0.26007 0.0
C2692 C 0.03317 0.72629 0.29911 0.0
C2693 C 0.0412 0.7174 0.29836 0.0
C2694 C 0.0367 0.7386 0.28796 0.0
C2695 C 0.04833 0.74231 0.27578 0.0
C2696 C 0.0565 0.73357 0.27516 0.0
C2697 C 0.05299 0.72128 0.2863 0.0
C2698 C 0.05573 0.76323 0.23509 0.0
C2699 C 0.05638 0.77798 0.23964 0.0
C2700 C 0.05343 0.75183 0.24685 0.0
C2701 C 0.05158 0.75486 0.26344 0.0
C2702 C 0.05241 0.76973 0.26803 0.0
C2703 C 0.05476 0.78116 0.25625 0.0
H2704 H 0.28669 0.35073 0.29916 0.0
H2705 H 0.29451 0.30984 0.30188 0.0
H2706 H 0.26443 0.33472 0.27939 0.0
H2707 H 0.27251 0.29406 0.28176 0.0
H2708 H 0.24859 0.28562 0.22867 0.0
H2709 H 0.26961 0.30065 0.24977 0.0
H2710 H 0.23526 0.30514 0.28004 0.0
H2711 H 0.21396 0.28951 0.25936 0.0
C2712 C 0.28366 0.33834 0.29552 0.0
C2713 C 0.29236 0.33154 0.30203 0.0
C2714 C 0.2709 0.32919 0.2843 0.0
C2715 C 0.26685 0.31323 0.27908 0.0
C2716 C 0.27548 0.30639 0.28559 0.0
C2717 C 0.28799 0.31538 0.29712 0.0
C2718 C 0.24544 0.28963 0.2399 0.0
C2719 C 0.2295 0.2861 0.24233 0.0
C2720 C 0.25747 0.29823 0.25194 0.0
C2721 C 0.25397 0.30391 0.26651 0.0
C2722 C 0.2382 0.30083 0.26888 0.0
C2723 C 0.22603 0.29187 0.25699 0.0
H2724 H 0.29458 0.33603 0.38104 0.0
H2725 H 0.32667 0.38876 0.37807 0.0
H2726 H 0.28242 0.3404 0.40551 0.0
H2727 H 0.31508 0.3931 0.40271 0.0
H2728 H 0.28022 0.39771 0.4358 0.0
H2729 H 0.29133 0.39201 0.41146 0.0
H2730 H 0.28667 0.34898 0.43377 0.0
H2731 H 0.27476 0.35431 0.45786 0.0
C2732 C 0.29917 0.34852 0.38572 0.0
C2733 C 0.31147 0.36204 0.3775 0.0
C2734 C 0.29224 0.35105 0.39978 0.0
C2735 C 0.29761 0.36713 0.40601 0.0
C2736 C 0.31029 0.38057 0.39804 0.0
C2737 C 0.31704 0.37807 0.38394 0.0
C2738 C 0.28129 0.38687 0.43539 0.0
C2739 C 0.27624 0.37622 0.4486 0.0
C2740 C 0.28788 0.3837 0.42151 0.0
C2741 C 0.28997 0.37004 0.42061 0.0
C2742 C 0.285 0.35944 0.43388 0.0
C2743 C 0.27823 0.36252 0.44771 0.0
H2744 H 0.68324 0.96652 0.40368 0.0
H2745 H 0.6368 0.95071 0.38071 0.0
H2746 H 0.66992 0.94469 0.42325 0.0
H2747 H 0.62348 0.92916 0.40053 0.0
H2748 H 0.60613 0.88213 0.4282 0.0
H2749 H 0.62043 0.90328 0.40801 0.0
H2750 H 0.65214 0.93708 0.44636 0.0
H2751 H 0.6381 0.91576 0.46638 0.0
C2752 C 0.67018 0.95848 0.40285 0.0
C2753 C 0.66112 0.96042 0.39058 0.0
C2754 C 0.66253 0.94599 0.41413 0.0
C2755 C 0.64562 0.93512 0.41346 0.0
C2756 C 0.63655 0.93712 0.40125 0.0
C2757 C 0.6442 0.94959 0.38995 0.0
C2758 C 0.61635 0.89399 0.43222 0.0
C2759 C 0.62122 0.8972 0.4488 0.0
C2760 C 0.62442 0.90618 0.42071 0.0
C2761 C 0.63744 0.92191 0.42555 0.0
C2762 C 0.64235 0.92504 0.44214 0.0
C2763 C 0.6343 0.91285 0.45362 0.0
H2764 H 0.06292 0.68657 0.37477 0.0
H2765 H 0.04298 0.7182 0.37958 0.0
H2766 H 0.07729 0.69753 0.40065 0.0
H2767 H 0.05805 0.72981 0.40545 0.0
H2768 H 0.07498 0.73393 0.45944 0.0
H2769 H 0.05988 0.72396 0.43345 0.0
H2770 H 0.09969 0.72137 0.41217 0.0
H2771 H 0.11422 0.73037 0.43823 0.0
C2772 C 0.06174 0.69604 0.38129 0.0
C2773 C 0.0519 0.70161 0.37502 0.0
C2774 C 0.07011 0.70243 0.39613 0.0
C2775 C 0.06909 0.71478 0.40507 0.0
C2776 C 0.05905 0.72024 0.39895 0.0
C2777 C 0.05046 0.71364 0.3841 0.0
C2778 C 0.0805 0.73135 0.44911 0.0
C2779 C 0.09587 0.73319 0.45084 0.0
C2780 C 0.0719 0.72571 0.4342 0.0
C2781 C 0.07851 0.72178 0.42068 0.0
C2782 C 0.09406 0.72396 0.42237 0.0
C2783 C 0.10252 0.72936 0.43729 0.0
H2784 H 0.29197 0.02716 0.69379 0.0
H2785 H 0.33608 0.03717 0.71827 0.0
H2786 H 0.28638 0.04055 0.71643 0.0
H2787 H 0.33017 0.05026 0.74133 0.0
H2788 H 0.32118 0.08624 0.77263 0.0
H2789 H 0.32827 0.07396 0.74976 0.0
H2790 H 0.27791 0.03531 0.74414 0.0
H2791 H 0.27085 0.04791 0.76654 0.0
C2792 C 0.30045 0.03213 0.70407 0.0
C2793 C 0.31443 0.03096 0.70425 0.0
C2794 C 0.29718 0.03976 0.71712 0.0
C2795 C 0.3077 0.04631 0.73082 0.0
C2796 C 0.32186 0.04544 0.73091 0.0
C2797 C 0.32522 0.03788 0.71773 0.0
C2798 C 0.31164 0.07524 0.76633 0.0
C2799 C 0.29538 0.06832 0.771 0.0
C2800 C 0.31571 0.0681 0.75336 0.0
C2801 C 0.30364 0.05376 0.74495 0.0
C2802 C 0.28747 0.04659 0.75003 0.0
C2803 C 0.28341 0.05377 0.76289 0.0
H2804 H 0.94262 0.29201 0.72507 0.0
H2805 H 0.98252 0.28699 0.70821 0.0
H2806 H 0.9345 0.26932 0.74325 0.0
H2807 H 0.97418 0.26402 0.72646 0.0
H2808 H 0.96415 0.23771 0.77624 0.0
H2809 H 0.97275 0.25906 0.75636 0.0
H2810 H 0.92292 0.23921 0.74131 0.0
H2811 H 0.91412 0.21787 0.76137 0.0
C2812 C 0.94967 0.28606 0.7252 0.0
C2813 C 0.96325 0.29137 0.71515 0.0
C2814 C 0.94491 0.27295 0.73556 0.0
C2815 C 0.95363 0.26481 0.73622 0.0
C2816 C 0.96727 0.27012 0.72627 0.0
C2817 C 0.97199 0.28322 0.71577 0.0
C2818 C 0.95489 0.23786 0.76892 0.0
C2819 C 0.93824 0.22644 0.77119 0.0
C2820 C 0.95992 0.25007 0.75732 0.0
C2821 C 0.9485 0.25103 0.74751 0.0
C2822 C 0.93199 0.23908 0.74903 0.0
C2823 C 0.92696 0.22687 0.76057 0.0
H2824 H 0.69443 0.65752 0.73287 0.0
H2825 H 0.72174 0.69534 0.69813 0.0
H2826 H 0.71635 0.67201 0.75293 0.0
H2827 H 0.74407 0.70954 0.718 0.0
H2828 H 0.76479 0.68932 0.77731 0.0
H2829 H 0.74238 0.67666 0.75768 0.0
H2830 H 0.75375 0.72501 0.74324 0.0
H2831 H 0.77686 0.73768 0.76245 0.0
C2832 C 0.70515 0.66894 0.7295 0.0
C2833 C 0.70639 0.6752 0.71386 0.0
C2834 C 0.7178 0.6772 0.74098 0.0
C2835 C 0.73216 0.69184 0.73704 0.0
C2836 C 0.73318 0.69839 0.72154 0.0
C2837 C 0.72039 0.69021 0.71011 0.0
C2838 C 0.76268 0.69726 0.76977 0.0
C2839 C 0.77289 0.71452 0.77109 0.0
C2840 C 0.74964 0.69 0.75865 0.0
C2841 C 0.74616 0.69978 0.74884 0.0
C2842 C 0.75621 0.71707 0.75037 0.0
C2843 C 0.76941 0.72435 0.7614 0.0
H2844 H 0.7088 0.63488 0.6547 0.0
H2845 H 0.6922 0.65805 0.62171 0.0
H2846 H 0.72241 0.62969 0.63221 0.0
H2847 H 0.70567 0.65251 0.59894 0.0
H2848 H 0.71061 0.61581 0.55323 0.0
H2849 H 0.69869 0.62705 0.58013 0.0
H2850 H 0.74674 0.64008 0.61531 0.0
H2851 H 0.75982 0.62897 0.58947 0.0
C2852 C 0.70821 0.639 0.64263 0.0
C2853 C 0.6994 0.64681 0.63992 0.0
C2854 C 0.71612 0.63615 0.62977 0.0
C2855 C 0.71511 0.64074 0.61386 0.0
C2856 C 0.70657 0.64882 0.61112 0.0
C2857 C 0.69895 0.65206 0.62412 0.0
C2858 C 0.71692 0.61963 0.56496 0.0
C2859 C 0.73802 0.62405 0.56758 0.0
C2860 C 0.71013 0.62759 0.58141 0.0
C2861 C 0.72198 0.63596 0.60014 0.0
C2862 C 0.74039 0.63573 0.60364 0.0
C2863 C 0.74823 0.62807 0.58797 0.0
H2864 H 0.36119 0.05736 0.64583 0.0
H2865 H 0.32201 0.02674 0.61164 0.0
H2866 H 0.37228 0.07965 0.62661 0.0
H2867 H 0.33343 0.04873 0.59215 0.0
H2868 H 0.34658 0.09681 0.56894 0.0
H2869 H 0.33632 0.07457 0.5881 0.0
H2870 H 0.38551 0.08902 0.6013 0.0
H2871 H 0.39572 0.11186 0.58264 0.0
C2872 C 0.35508 0.05529 0.63411 0.0
C2873 C 0.34064 0.04031 0.63033 0.0
C2874 C 0.36148 0.06807 0.62303 0.0
C2875 C 0.35371 0.06609 0.60783 0.0
C2876 C 0.33955 0.05088 0.60388 0.0
C2877 C 0.33305 0.0382 0.61502 0.0
C2878 C 0.3552 0.0954 0.57613 0.0
C2879 C 0.37198 0.10639 0.57464 0.0
C2880 C 0.34933 0.08248 0.58697 0.0
C2881 C 0.36006 0.07994 0.59631 0.0
C2882 C 0.37686 0.09076 0.59458 0.0
C2883 C 0.38273 0.10382 0.58386 0.0
H2884 H 0.92904 0.29357 0.65229 0.0
H2885 H 0.974 0.31381 0.62601 0.0
H2886 H 0.91381 0.28043 0.62682 0.0
H2887 H 0.95856 0.30097 0.60035 0.0
H2888 H 0.91141 0.29436 0.56466 0.0
H2889 H 0.92985 0.30625 0.58849 0.0
H2890 H 0.91876 0.25768 0.60113 0.0
H2891 H 0.90084 0.24573 0.57708 0.0
C2892 C 0.93565 0.29518 0.64106 0.0
C2893 C 0.95268 0.30474 0.64107 0.0
C2894 C 0.92695 0.28762 0.62658 0.0
C2895 C 0.9351 0.28977 0.61179 0.0
C2896 C 0.95211 0.29916 0.61171 0.0
C2897 C 0.96088 0.30643 0.62632 0.0
C2898 C 0.91307 0.28625 0.57241 0.0
C2899 C 0.90442 0.2691 0.5691 0.0
C2900 C 0.92364 0.29305 0.58594 0.0
C2901 C 0.92562 0.28281 0.59647 0.0
C2902 C 0.91737 0.26575 0.59306 0.0
C2903 C 0.90703 0.25896 0.57936 0.0
H2904 H 0.38664 0.3211 0.65488 0.0
H2905 H 0.33581 0.29923 0.64247 0.0
H2906 H 0.39057 0.30943 0.62974 0.0
H2907 H 0.33964 0.28694 0.61745 0.0
H2908 H 0.35673 0.2825 0.56583 0.0
H2909 H 0.3515 0.29329 0.59113 0.0
H2910 H 0.38524 0.2845 0.61714 0.0
H2911 H 0.39112 0.2747 0.59179 0.0
C2912 C 0.37623 0.31366 0.64686 0.0
C2913 C 0.36089 0.31109 0.65076 0.0
C2914 C 0.37848 0.30683 0.63244 0.0
C2915 C 0.3654 0.29708 0.62157 0.0
C2916 C 0.35003 0.29452 0.62544 0.0
C2917 C 0.34781 0.3015 0.63984 0.0
C2918 C 0.36292 0.2828 0.57702 0.0
C2919 C 0.3742 0.27759 0.57678 0.0
C2920 C 0.35987 0.28889 0.59154 0.0
C2921 C 0.36797 0.28983 0.60623 0.0
C2922 C 0.37899 0.28427 0.60603 0.0
C2923 C 0.38223 0.27843 0.59148 0.0
H2924 H 0.72309 0.04124 0.60689 0.0
H2925 H 0.69065 0.05461 0.62955 0.0
H2926 H 0.73063 0.06254 0.58695 0.0
H2927 H 0.69792 0.0756 0.60937 0.0
H2928 H 0.72518 0.12206 0.58034 0.0
H2929 H 0.72001 0.102 0.60116 0.0
H2930 H 0.71919 0.06832 0.56365 0.0
H2931 H 0.72479 0.0886 0.54298 0.0
C2932 C 0.7175 0.04865 0.60759 0.0
C2933 C 0.70624 0.04616 0.61985 0.0
C2934 C 0.72179 0.06083 0.5961 0.0
C2935 C 0.71491 0.07081 0.59655 0.0
C2936 C 0.70366 0.06833 0.60881 0.0
C2937 C 0.6994 0.05618 0.62032 0.0
C2938 C 0.72419 0.11049 0.57664 0.0
C2939 C 0.72568 0.107 0.56009 0.0
C2940 C 0.72105 0.09891 0.58851 0.0
C2941 C 0.71915 0.08352 0.58409 0.0
C2942 C 0.72083 0.08014 0.56754 0.0
C2943 C 0.724 0.09172 0.55569 0.0
H2944 H 0.94025 0.63943 0.64075 0.0
H2945 H 0.95717 0.68632 0.61847 0.0
H2946 H 0.91949 0.62572 0.61928 0.0
H2947 H 0.93621 0.67267 0.59731 0.0
H2948 H 0.91026 0.64002 0.55161 0.0
H2949 H 0.93002 0.6543 0.57382 0.0
H2950 H 0.89454 0.62266 0.60871 0.0
H2951 H 0.8749 0.60811 0.5863 0.0
C2952 C 0.93949 0.64685 0.63136 0.0
C2953 C 0.95047 0.66399 0.63133 0.0
C2954 C 0.9275 0.63899 0.6191 0.0
C2955 C 0.92618 0.64808 0.60653 0.0
C2956 C 0.93703 0.66524 0.60664 0.0
C2957 C 0.94902 0.67309 0.61885 0.0
C2958 C 0.90664 0.6363 0.56406 0.0
C2959 C 0.89097 0.62316 0.56725 0.0
C2960 C 0.91794 0.64449 0.57681 0.0
C2961 C 0.91387 0.63968 0.59309 0.0
C2962 C 0.89813 0.62659 0.5963 0.0
C2963 C 0.88682 0.61838 0.58352 0.0
H2964 H 0.96293 0.71381 0.69619 0.0
H2965 H 0.96247 0.67425 0.7216 0.0
H2966 H 0.95299 0.72099 0.72053 0.0
H2967 H 0.95322 0.68189 0.74629 0.0
H2968 H 0.92641 0.69246 0.78571 0.0
H2969 H 0.93207 0.68309 0.75972 0.0
H2970 H 0.96293 0.7339 0.74633 0.0
H2971 H 0.95655 0.74307 0.7719 0.0
C2972 C 0.96072 0.70666 0.70702 0.0
C2973 C 0.9636 0.69354 0.70701 0.0
C2974 C 0.95512 0.71084 0.72103 0.0
C2975 C 0.95249 0.70219 0.73551 0.0
C2976 C 0.95491 0.68873 0.73534 0.0
C2977 C 0.9603 0.68438 0.7212 0.0
C2978 C 0.93425 0.70157 0.77709 0.0
C2979 C 0.94111 0.71849 0.78084 0.0
C2980 C 0.93762 0.69623 0.76225 0.0
C2981 C 0.94804 0.70771 0.75089 0.0
C2982 C 0.95465 0.72465 0.7546 0.0
C2983 C 0.95113 0.72996 0.76932 0.0
H2984 H 0.34976 0.29807 0.73896 0.0
H2985 H 0.30621 0.28707 0.71256 0.0
H2986 H 0.33367 0.27561 0.75705 0.0
H2987 H 0.29003 0.26465 0.73099 0.0
H2988 H 0.2682 0.21578 0.75793 0.0
H2989 H 0.28455 0.23726 0.73856 0.0
H2990 H 0.31434 0.26942 0.77878 0.0
H2991 H 0.29817 0.2479 0.79797 0.0
C2992 C 0.33674 0.29091 0.73701 0.0
C2993 C 0.3293 0.29448 0.72428 0.0
C2994 C 0.3275 0.27804 0.74747 0.0
C2995 C 0.31056 0.26837 0.74553 0.0
C2996 C 0.30309 0.27177 0.73271 0.0
C2997 C 0.31235 0.2847 0.72222 0.0
C2998 C 0.27839 0.22738 0.76254 0.0
C2999 C 0.28209 0.23009 0.77942 0.0
C3000 C 0.28765 0.23973 0.7515 0.0
C3001 C 0.30078 0.25505 0.75712 0.0
C3002 C 0.30448 0.25768 0.774 0.0
C3003 C 0.29522 0.24537 0.78501 0.0
H3004 H 0.74358 0.03948 0.68506 0.0
H3005 H 0.70273 0.03711 0.70971 0.0
H3006 H 0.75982 0.05052 0.71011 0.0
H3007 H 0.71875 0.04748 0.73506 0.0
H3008 H 0.75467 0.07605 0.77643 0.0
H3009 H 0.74066 0.06976 0.74991 0.0
H3010 H 0.76157 0.04044 0.73547 0.0
H3011 H 0.77607 0.0474 0.76163 0.0
C3012 C 0.73807 0.04135 0.69586 0.0
C3013 C 0.72183 0.03731 0.69545 0.0
C3014 C 0.74736 0.04758 0.71027 0.0
C3015 C 0.74056 0.04967 0.72473 0.0
C3016 C 0.72447 0.0462 0.72415 0.0
C3017 C 0.71524 0.04019 0.70963 0.0
C3018 C 0.75637 0.06841 0.76747 0.0
C3019 C 0.76642 0.06218 0.77108 0.0
C3020 C 0.74826 0.06469 0.75232 0.0
C3021 C 0.74991 0.05454 0.7405 0.0
C3022 C 0.76018 0.04852 0.7441 0.0
C3023 C 0.7684 0.05237 0.75916 0.0
H3024 H 0.05992 0.35205 0.01761 0.0
H3025 H 0.02103 0.31672 0.04739 0.0
H3026 H 0.07823 0.34432 0.02968 0.0
H3027 H 0.03929 0.30934 0.05964 0.0
H3028 H 0.06486 0.27503 0.06354 0.0
H3029 H 0.04679 0.28957 0.05242 0.0
H3030 H 0.09773 0.34513 0.04918 0.0
H3031 H 0.11721 0.3318 0.05994 0.0
C3032 C 0.05542 0.34298 0.02704 0.0
C3033 C 0.039 0.33481 0.03138 0.0
C3034 C 0.0659 0.33856 0.03397 0.0
C3035 C 0.06008 0.32595 0.04534 0.0
C3036 C 0.044 0.31872 0.05054 0.0
C3037 C 0.03357 0.32306 0.04361 0.0
C3038 C 0.071 0.28782 0.06019 0.0
C3039 C 0.09261 0.30258 0.06576 0.0
C3040 C 0.05978 0.29723 0.05416 0.0
C3041 C 0.07004 0.31916 0.0507 0.0
C3042 C 0.09193 0.33223 0.05196 0.0
C3043 C 0.10425 0.32392 0.05795 0.0
H3044 H 0.65758 0.69751 0.0492 0.0
H3045 H 0.69984 0.69337 0.05571 0.0
H3046 H 0.66893 0.72086 0.06882 0.0
H3047 H 0.71111 0.71664 0.0755 0.0
H3048 H 0.74233 0.77803 0.09399 0.0
H3049 H 0.72764 0.74632 0.07688 0.0
H3050 H 0.67247 0.73137 0.09683 0.0
H3051 H 0.68582 0.76274 0.11447 0.0
C3052 C 0.66918 0.70144 0.05501 0.0
C3053 C 0.67787 0.69369 0.05085 0.0
C3054 C 0.67565 0.71475 0.06635 0.0
C3055 C 0.69094 0.7206 0.07364 0.0
C3056 C 0.69941 0.71254 0.06988 0.0
C3057 C 0.69289 0.69914 0.05864 0.0
C3058 C 0.72957 0.76902 0.09532 0.0
C3059 C 0.71512 0.77483 0.10363 0.0
C3060 C 0.72016 0.74947 0.08415 0.0
C3061 C 0.69837 0.73564 0.0843 0.0
C3062 C 0.68537 0.74016 0.09656 0.0
C3063 C 0.69362 0.75936 0.10815 0.0
H3064 H 0.30757 0.99895 0.04983 0.0
H3065 H 0.2955 0.95602 0.01914 0.0
H3066 H 0.28292 0.98278 0.06525 0.0
H3067 H 0.27043 0.93987 0.03422 0.0
H3068 H 0.23109 0.91233 0.07181 0.0
H3069 H 0.25793 0.92758 0.05959 0.0
H3070 H 0.25471 0.97148 0.0602 0.0
H3071 H 0.22827 0.95638 0.07287 0.0
C3072 C 0.29965 0.98601 0.04642 0.0
C3073 C 0.30337 0.97878 0.03319 0.0
C3074 C 0.28546 0.97676 0.05519 0.0
C3075 C 0.27453 0.96008 0.05083 0.0
C3076 C 0.27861 0.95266 0.038 0.0
C3077 C 0.29293 0.96191 0.0293 0.0
C3078 C 0.23632 0.92533 0.06961 0.0
C3079 C 0.22779 0.93331 0.0737 0.0
C3080 C 0.2516 0.93402 0.06245 0.0
C3081 C 0.25858 0.95082 0.05904 0.0
C3082 C 0.24994 0.95869 0.06303 0.0
C3083 C 0.23475 0.95004 0.07024 0.0
H3084 H 0.35008 0.05628 0.99728 0.0
H3085 H 0.32028 0.01614 0.96294 0.0
H3086 H 0.34225 0.0738 0.98348 0.0
H3087 H 0.31294 0.03365 0.94885 0.0
H3088 H 0.28383 0.059 0.94506 0.0
H3089 H 0.29539 0.04361 0.95584 0.0
H3090 H 0.34256 0.0883 0.95918 0.0
H3091 H 0.33072 0.10385 0.9487 0.0
C3092 C 0.3422 0.05136 0.98654 0.0
C3093 C 0.33561 0.0348 0.98131 0.0
C3094 C 0.33772 0.06138 0.97861 0.0
C3095 C 0.3267 0.05504 0.96523 0.0
C3096 C 0.32108 0.03881 0.95938 0.0
C3097 C 0.32538 0.0288 0.96739 0.0
C3098 C 0.29672 0.0655 0.94784 0.0
C3099 C 0.30643 0.08255 0.94565 0.0
C3100 C 0.30339 0.05667 0.95397 0.0
C3101 C 0.31999 0.06465 0.95817 0.0
C3102 C 0.32974 0.08177 0.95608 0.0
C3103 C 0.32302 0.09064 0.94993 0.0
H3104 H 0.0062 0.30169 0.96656 0.0
H3105 H 0.96125 0.29723 0.98225 0.0
H3106 H 0.99133 0.27853 0.94729 0.0
H3107 H 0.94623 0.27372 0.9628 0.0
H3108 H 0.91868 0.2363 0.91175 0.0
H3109 H 0.93682 0.26508 0.93342 0.0
H3110 H 0.97796 0.24911 0.9451 0.0
H3111 H 0.96095 0.22007 0.92388 0.0
C3112 C 0.99311 0.29575 0.96588 0.0
C3113 C 0.98487 0.30123 0.97598 0.0
C3114 C 0.98457 0.28236 0.95492 0.0
C3115 C 0.96762 0.27421 0.9537 0.0
C3116 C 0.95933 0.27986 0.96347 0.0
C3117 C 0.9679 0.29324 0.97463 0.0
C3118 C 0.93 0.23907 0.91742 0.0
C3119 C 0.93645 0.22359 0.9179 0.0
C3120 C 0.94095 0.25649 0.93154 0.0
C3121 C 0.95879 0.25976 0.94239 0.0
C3122 C 0.96701 0.24655 0.93877 0.0
C3123 C 0.95695 0.22883 0.92496 0.0
H3124 H 0.69224 0.68783 0.97371 0.0
H3125 H 0.69703 0.64906 0.99423 0.0
H3126 H 0.71637 0.69621 0.95751 0.0
H3127 H 0.72163 0.65786 0.97857 0.0
H3128 H 0.76211 0.67275 0.94234 0.0
H3129 H 0.73473 0.66111 0.95297 0.0
H3130 H 0.74445 0.71043 0.9639 0.0
H3131 H 0.77145 0.72192 0.95268 0.0
C3132 C 0.69839 0.681 0.97463 0.0
C3133 C 0.69287 0.6679 0.98533 0.0
C3134 C 0.7123 0.68588 0.96545 0.0
C3135 C 0.72116 0.67794 0.96697 0.0
C3136 C 0.71508 0.6642 0.977 0.0
C3137 C 0.701 0.65917 0.98602 0.0
C3138 C 0.75821 0.68106 0.94668 0.0
C3139 C 0.76877 0.69826 0.94631 0.0
C3140 C 0.74259 0.6744 0.95293 0.0
C3141 C 0.73729 0.68481 0.95919 0.0
C3142 C 0.74791 0.70201 0.9588 0.0
C3143 C 0.76343 0.70864 0.95245 0.0
H3144 H 0.95436 0.65527 0.99198 0.0
H3145 H 0.99396 0.70597 0.99151 0.0
H3146 H 0.93716 0.66296 0.977 0.0
H3147 H 0.97694 0.71351 0.97696 0.0
H3148 H 0.93884 0.72571 0.96668 0.0
H3149 H 0.9514 0.71445 0.98369 0.0
H3150 H 0.93829 0.67513 0.94756 0.0
H3151 H 0.92576 0.68647 0.93041 0.0
C3152 C 0.95934 0.66799 0.98875 0.0
C3153 C 0.97549 0.68 0.99288 0.0
C3154 C 0.94955 0.67237 0.98018 0.0
C3155 C 0.95571 0.68885 0.976 0.0
C3156 C 0.97181 0.70076 0.98024 0.0
C3157 C 0.98159 0.69639 0.98847 0.0
C3158 C 0.93831 0.71446 0.96254 0.0
C3159 C 0.93113 0.70686 0.94733 0.0
C3160 C 0.94554 0.70805 0.97223 0.0
C3161 C 0.94579 0.69393 0.96691 0.0
C3162 C 0.93806 0.68591 0.95202 0.0
C3163 C 0.93093 0.69241 0.94223 0.0
H3164 H 0.30453 0.30626 0.9632 0.0
H3165 H 0.34803 0.30477 0.97147 0.0
H3166 H 0.29083 0.27803 0.95219 0.0
H3167 H 0.33451 0.27663 0.95985 0.0
H3168 H 0.29692 0.22115 0.96613 0.0
H3169 H 0.31415 0.25092 0.97016 0.0
H3170 H 0.28745 0.25785 0.93191 0.0
H3171 H 0.26982 0.22792 0.92837 0.0
C3172 C 0.31132 0.30005 0.96223 0.0
C3173 C 0.32727 0.30763 0.96845 0.0
C3174 C 0.30348 0.28385 0.95582 0.0
C3175 C 0.31148 0.27492 0.95535 0.0
C3176 C 0.32787 0.283 0.9604 0.0
C3177 C 0.33566 0.29917 0.96694 0.0
C3178 C 0.29496 0.22907 0.95838 0.0
C3179 C 0.28217 0.22223 0.94683 0.0
C3180 C 0.3049 0.24615 0.96059 0.0
C3181 C 0.30225 0.25685 0.95133 0.0
C3182 C 0.28975 0.24999 0.93936 0.0
C3183 C 0.27974 0.23286 0.93722 0.0
H3184 H 0.69702 0.01234 0.96371 0.0
H3185 H 0.71167 0.05273 0.99893 0.0
H3186 H 0.7228 0.02814 0.94983 0.0
H3187 H 0.73771 0.06825 0.98564 0.0
H3188 H 0.78187 0.09668 0.95585 0.0
H3189 H 0.75334 0.0827 0.96321 0.0
H3190 H 0.74969 0.0355 0.95516 0.0
H3191 H 0.77791 0.04956 0.94692 0.0
C3192 C 0.70572 0.02467 0.96839 0.0
C3193 C 0.70243 0.03126 0.98248 0.0
C3194 C 0.72055 0.03369 0.96052 0.0
C3195 C 0.73251 0.0494 0.96674 0.0
C3196 C 0.7288 0.05629 0.98035 0.0
C3197 C 0.71387 0.04736 0.98806 0.0
C3198 C 0.77486 0.08331 0.95544 0.0
C3199 C 0.78215 0.07419 0.9511 0.0
C3200 C 0.75854 0.07529 0.95977 0.0
C3201 C 0.7492 0.05795 0.96002 0.0
C3202 C 0.75638 0.04885 0.95496 0.0
C3203 C 0.77262 0.05688 0.95042 0.0
H3204 H 0.64685 0.9528 0.02709 0.0
H3205 H 0.69587 0.99167 0.03929 0.0
H3206 H 0.65144 0.93319 0.04143 0.0
H3207 H 0.70069 0.97222 0.05281 0.0
H3208 H 0.70376 0.93813 0.08646 0.0
H3209 H 0.69545 0.95633 0.07568 0.0
H3210 H 0.66546 0.9188 0.03899 0.0
H3211 H 0.67305 0.90024 0.05053 0.0
C3212 C 0.65857 0.95714 0.03281 0.0
C3213 C 0.67096 0.97378 0.03207 0.0
C3214 C 0.66126 0.9459 0.04096 0.0
C3215 C 0.67644 0.95107 0.04839 0.0
C3216 C 0.68873 0.96777 0.04764 0.0
C3217 C 0.68599 0.97896 0.03971 0.0
C3218 C 0.6951 0.93361 0.07634 0.0
C3219 C 0.68888 0.91762 0.06948 0.0
C3220 C 0.69047 0.94414 0.06999 0.0
C3221 C 0.67986 0.93915 0.05632 0.0
C3222 C 0.67343 0.92304 0.04966 0.0
C3223 C 0.67785 0.91241 0.0562 0.0
H3224 H 0.05259 0.71238 0.03572 0.0
H3225 H 0.00936 0.70764 0.05706 0.0
H3226 H 0.0686 0.74031 0.04776 0.0
H3227 H 0.02499 0.73558 0.06828 0.0
H3228 H 0.05506 0.78558 0.09013 0.0
H3229 H 0.04422 0.75611 0.08584 0.0
H3230 H 0.07173 0.76574 0.04135 0.0
H3231 H 0.08329 0.79521 0.04631 0.0
C3232 C 0.04656 0.71721 0.04318 0.0
C3233 C 0.0297 0.70792 0.04523 0.0
C3234 C 0.05569 0.73327 0.04996 0.0
C3235 C 0.04809 0.74041 0.05875 0.0
C3236 C 0.03138 0.73058 0.06175 0.0
C3237 C 0.02234 0.71451 0.05517 0.0
C3238 C 0.05911 0.78141 0.07968 0.0
C3239 C 0.07012 0.79272 0.06858 0.0
C3240 C 0.05277 0.76448 0.07711 0.0
C3241 C 0.05695 0.75842 0.06315 0.0
C3242 C 0.06841 0.76984 0.05239 0.0
C3243 C 0.07495 0.78676 0.05513 0.0
H3244 H 0.30765 0.35738 0.01633 0.0
H3245 H 0.31174 0.31963 0.04026 0.0
H3246 H 0.28272 0.34935 0.03087 0.0
H3247 H 0.28718 0.31205 0.05548 0.0
H3248 H 0.23177 0.28758 0.05969 0.0
H3249 H 0.25919 0.29783 0.05 0.0
H3250 H 0.26934 0.34791 0.05532 0.0
H3251 H 0.2416 0.33748 0.06412 0.0
C3252 C 0.30344 0.34765 0.02505 0.0
C3253 C 0.31156 0.33904 0.02704 0.0
C3254 C 0.28915 0.34306 0.03347 0.0
C3255 C 0.28276 0.3299 0.04428 0.0
C3256 C 0.29148 0.32196 0.04698 0.0
C3257 C 0.30565 0.3264 0.03836 0.0
C3258 C 0.23991 0.30077 0.05882 0.0
C3259 C 0.23445 0.3117 0.06235 0.0
C3260 C 0.25571 0.3067 0.05343 0.0
C3261 C 0.26653 0.32375 0.0517 0.0
C3262 C 0.26128 0.3347 0.05611 0.0
C3263 C 0.24541 0.32875 0.06128 0.0
H3264 H 0.67202 0.64748 0.38099 0.0
H3265 H 0.71744 0.69031 0.36775 0.0
H3266 H 0.68621 0.64002 0.4 0.0
H3267 H 0.73187 0.68253 0.38682 0.0
H3268 H 0.7583 0.67248 0.4365 0.0
H3269 H 0.74147 0.6831 0.41537 0.0
H3270 H 0.69844 0.62426 0.40172 0.0
H3271 H 0.71403 0.61228 0.42237 0.0
C3272 C 0.68508 0.65534 0.38214 0.0
C3273 C 0.69361 0.66943 0.37274 0.0
C3274 C 0.69327 0.65093 0.39296 0.0
C3275 C 0.71021 0.66046 0.39465 0.0
C3276 C 0.71878 0.67494 0.38576 0.0
C3277 C 0.71054 0.67939 0.37484 0.0
C3278 C 0.74689 0.66364 0.43054 0.0
C3279 C 0.73936 0.64107 0.42929 0.0
C3280 C 0.73676 0.67008 0.41672 0.0
C3281 C 0.71868 0.65495 0.40543 0.0
C3282 C 0.70948 0.63301 0.40828 0.0
C3283 C 0.71867 0.62537 0.42174 0.0
H3284 H 0.32379 0.03313 0.38024 0.0
H3285 H 0.36626 0.0296 0.38789 0.0
H3286 H 0.3352 0.05738 0.39871 0.0
H3287 H 0.37766 0.05389 0.40648 0.0
H3288 H 0.40798 0.11535 0.42491 0.0
H3289 H 0.39385 0.08388 0.40734 0.0
H3290 H 0.33829 0.06771 0.42702 0.0
H3291 H 0.35105 0.09878 0.44514 0.0
C3292 C 0.33551 0.03746 0.38598 0.0
C3293 C 0.34416 0.0295 0.38259 0.0
C3294 C 0.342 0.05129 0.39666 0.0
C3295 C 0.35732 0.05752 0.40402 0.0
C3296 C 0.36591 0.04947 0.40081 0.0
C3297 C 0.35933 0.0355 0.39027 0.0
C3298 C 0.39525 0.10616 0.42606 0.0
C3299 C 0.3805 0.11151 0.43449 0.0
C3300 C 0.38619 0.0868 0.41458 0.0
C3301 C 0.36445 0.07268 0.41452 0.0
C3302 C 0.35114 0.0767 0.42684 0.0
C3303 C 0.35903 0.09569 0.43874 0.0
H3304 H 0.97166 0.29175 0.35636 0.0
H3305 H 0.98113 0.33697 0.381 0.0
H3306 H 0.94586 0.27665 0.36997 0.0
H3307 H 0.95547 0.32169 0.39537 0.0
H3308 H 0.89979 0.29279 0.40044 0.0
H3309 H 0.92734 0.30864 0.3902 0.0
H3310 H 0.93227 0.266 0.39425 0.0
H3311 H 0.90447 0.24999 0.40349 0.0
C3312 C 0.96835 0.29843 0.36495 0.0
C3313 C 0.97839 0.31557 0.36754 0.0
C3314 C 0.95355 0.28972 0.37289 0.0
C3315 C 0.94847 0.29789 0.38383 0.0
C3316 C 0.95882 0.31501 0.38683 0.0
C3317 C 0.97358 0.32377 0.37869 0.0
C3318 C 0.90689 0.28692 0.39931 0.0
C3319 C 0.9 0.27022 0.40299 0.0
C3320 C 0.92272 0.29601 0.39353 0.0
C3321 C 0.93212 0.28865 0.39136 0.0
C3322 C 0.92535 0.27205 0.39549 0.0
C3323 C 0.90943 0.26289 0.40101 0.0
H3324 H 0.03943 0.38872 0.32288 0.0
H3325 H 0.99352 0.35078 0.3017 0.0
H3326 H 0.0373 0.40957 0.3082 0.0
H3327 H 0.99154 0.3716 0.28678 0.0
H3328 H 0.98309 0.41547 0.28518 0.0
H3329 H 0.98648 0.39345 0.29515 0.0
H3330 H 0.0369 0.4205 0.28154 0.0
H3331 H 0.03348 0.44273 0.27175 0.0
C3332 C 0.02902 0.38479 0.31486 0.0
C3333 C 0.01657 0.36812 0.31358 0.0
C3334 C 0.02784 0.39674 0.30637 0.0
C3335 C 0.01417 0.39228 0.29643 0.0
C3336 C 0.0021 0.37548 0.29456 0.0
C3337 C 0.00328 0.36354 0.30303 0.0
C3338 C 0.99482 0.41658 0.28406 0.0
C3339 C 0.00796 0.43072 0.27751 0.0
C3340 C 0.99676 0.40393 0.28971 0.0
C3341 C 0.01195 0.40517 0.28908 0.0
C3342 C 0.02507 0.41922 0.28228 0.0
C3343 C 0.0231 0.43188 0.27657 0.0
H3344 H 0.62751 0.63736 0.31163 0.0
H3345 H 0.6731 0.63979 0.30409 0.0
H3346 H 0.61331 0.61068 0.29697 0.0
H3347 H 0.65885 0.61289 0.28982 0.0
H3348 H 0.63076 0.56162 0.25232 0.0
H3349 H 0.64807 0.59463 0.26679 0.0
H3350 H 0.60078 0.58219 0.30251 0.0
H3351 H 0.5823 0.54888 0.28884 0.0
C3352 C 0.63451 0.63226 0.30669 0.0
C3353 C 0.6514 0.6406 0.30913 0.0
C3354 C 0.62635 0.61688 0.29844 0.0
C3355 C 0.63491 0.60952 0.29247 0.0
C3356 C 0.65189 0.61825 0.29414 0.0
C3357 C 0.66007 0.63366 0.30238 0.0
C3358 C 0.62554 0.56519 0.26217 0.0
C3359 C 0.60358 0.55275 0.26696 0.0
C3360 C 0.63592 0.58599 0.27072 0.0
C3361 C 0.62603 0.59248 0.28545 0.0
C3362 C 0.60601 0.57822 0.29304 0.0
C3363 C 0.59468 0.55719 0.28523 0.0
H3364 H 0.34939 0.96719 0.33017 0.0
H3365 H 0.36151 0.0147 0.31247 0.0
H3366 H 0.37196 0.9687 0.31502 0.0
H3367 H 0.38388 0.01608 0.2971 0.0
H3368 H 0.43515 0.02331 0.29571 0.0
H3369 H 0.40999 0.02024 0.30587 0.0
H3370 H 0.3838 0.96939 0.2881 0.0
H3371 H 0.4092 0.97248 0.27807 0.0
C3372 C 0.35667 0.9778 0.32278 0.0
C3373 C 0.35379 0.99092 0.32267 0.0
C3374 C 0.36956 0.97863 0.31404 0.0
C3375 C 0.37983 0.99261 0.30501 0.0
C3376 C 0.37636 0.00529 0.30418 0.0
C3377 C 0.36348 0.00445 0.31291 0.0
C3378 C 0.42398 0.01155 0.29375 0.0
C3379 C 0.42411 0.99819 0.28593 0.0
C3380 C 0.40954 0.0098 0.29949 0.0
C3381 C 0.39486 0.9946 0.29769 0.0
C3382 C 0.39492 0.98124 0.28972 0.0
C3383 C 0.40941 0.98302 0.2839 0.0
H3384 H 0.64424 0.00864 0.30992 0.0
H3385 H 0.6174 0.95624 0.31749 0.0
H3386 H 0.62351 0.00522 0.29039 0.0
H3387 H 0.59731 0.95256 0.29731 0.0
H3388 H 0.54809 0.94379 0.26729 0.0
H3389 H 0.57327 0.9484 0.2895 0.0
H3390 H 0.6131 0.00239 0.26445 0.0
H3391 H 0.58849 0.999 0.24171 0.0
C3392 C 0.63399 0.99636 0.30722 0.0
C3393 C 0.63238 0.98272 0.31529 0.0
C3394 C 0.62211 0.99435 0.29593 0.0
C3395 C 0.60854 0.9786 0.29223 0.0
C3396 C 0.6072 0.96496 0.3001 0.0
C3397 C 0.61887 0.96702 0.31161 0.0
C3398 C 0.56032 0.95419 0.26623 0.0
C3399 C 0.56488 0.97237 0.25415 0.0
C3400 C 0.57604 0.95761 0.28054 0.0
C3401 C 0.59588 0.97636 0.28027 0.0
C3402 C 0.60096 0.99177 0.26498 0.0
C3403 C 0.58596 0.98941 0.25017 0.0
H3404 H 0.02869 0.65284 0.31021 0.0
H3405 H 0.97901 0.64047 0.30502 0.0
H3406 H 0.02186 0.62686 0.29629 0.0
H3407 H 0.97191 0.61409 0.29174 0.0
H3408 H 0.96391 0.56923 0.26272 0.0
H3409 H 0.97363 0.59825 0.26947 0.0
H3410 H 0.00778 0.59921 0.30447 0.0
H3411 H 0.99848 0.57056 0.29722 0.0
C3412 C 0.01633 0.6446 0.30593 0.0
C3413 C 0.00433 0.64856 0.30884 0.0
C3414 C 0.01237 0.62965 0.29806 0.0
C3415 C 0.99626 0.61818 0.29317 0.0
C3416 C 0.98446 0.62263 0.29521 0.0
C3417 C 0.9885 0.63773 0.30288 0.0
C3418 C 0.97378 0.57583 0.27154 0.0
C3419 C 0.98067 0.56774 0.27924 0.0
C3420 C 0.97923 0.59239 0.27554 0.0
C3421 C 0.99153 0.60114 0.28749 0.0
C3422 C 0.99856 0.59306 0.29494 0.0
C3423 C 0.99319 0.57658 0.29087 0.0
H3424 H 0.36682 0.38598 0.32286 0.0
H3425 H 0.35949 0.34113 0.29923 0.0
H3426 H 0.3924 0.4018 0.30905 0.0
H3427 H 0.3849 0.3571 0.28466 0.0
H3428 H 0.44107 0.3876 0.28291 0.0
H3429 H 0.41282 0.37079 0.29072 0.0
H3430 H 0.40675 0.41257 0.2851 0.0
H3431 H 0.4353 0.42959 0.27837 0.0
C3432 C 0.3705 0.37954 0.31438 0.0
C3433 C 0.36123 0.36229 0.31227 0.0
C3434 C 0.38518 0.38865 0.30632 0.0
C3435 C 0.39088 0.38077 0.29576 0.0
C3436 C 0.3811 0.36357 0.29295 0.0
C3437 C 0.36646 0.35442 0.30119 0.0
C3438 C 0.4337 0.39318 0.28341 0.0
C3439 C 0.44057 0.41009 0.2807 0.0
C3440 C 0.41739 0.38348 0.28766 0.0
C3441 C 0.40749 0.39037 0.28889 0.0
C3442 C 0.4141 0.40696 0.28483 0.0
C3443 C 0.43045 0.41671 0.28086 0.0
H3444 H 0.35942 0.33179 0.37425 0.0
H3445 H 0.31088 0.29039 0.36525 0.0
H3446 H 0.36685 0.31386 0.38717 0.0
H3447 H 0.3181 0.27242 0.37891 0.0
H3448 H 0.3438 0.24277 0.38177 0.0
H3449 H 0.33361 0.26016 0.37306 0.0
H3450 H 0.36468 0.29768 0.40927 0.0
H3451 H 0.37544 0.28055 0.41732 0.0
C3452 C 0.35021 0.31889 0.37537 0.0
C3453 C 0.33459 0.31248 0.3686 0.0
C3454 C 0.35445 0.30858 0.3829 0.0
C3455 C 0.34313 0.2916 0.38404 0.0
C3456 C 0.32724 0.28536 0.37797 0.0
C3457 C 0.32305 0.29567 0.37026 0.0
C3458 C 0.34824 0.25464 0.38801 0.0
C3459 C 0.36023 0.26016 0.40038 0.0
C3460 C 0.34234 0.2646 0.3831 0.0
C3461 C 0.34826 0.28037 0.39046 0.0
C3462 C 0.35997 0.28571 0.40316 0.0
C3463 C 0.36602 0.27581 0.40793 0.0
H3464 H 0.70729 0.0279 0.3716 0.0
H3465 H 0.66399 0.03068 0.37418 0.0
H3466 H 0.72328 0.05603 0.38289 0.0
H3467 H 0.68005 0.05912 0.38488 0.0
H3468 H 0.71209 0.10869 0.41065 0.0
H3469 H 0.69645 0.07869 0.40612 0.0
H3470 H 0.73254 0.0823 0.37211 0.0
H3471 H 0.74827 0.11203 0.37712 0.0
C3472 C 0.70117 0.0345 0.37473 0.0
C3473 C 0.68443 0.02717 0.37185 0.0
C3474 C 0.71035 0.05068 0.3811 0.0
C3475 C 0.70305 0.06001 0.38452 0.0
C3476 C 0.68611 0.05231 0.3825 0.0
C3477 C 0.67688 0.03602 0.37631 0.0
C3478 C 0.71681 0.10296 0.40252 0.0
C3479 C 0.73155 0.11265 0.39446 0.0
C3480 C 0.70779 0.0858 0.39979 0.0
C3481 C 0.71322 0.07801 0.38878 0.0
C3482 C 0.72811 0.08776 0.38095 0.0
C3483 C 0.73713 0.10484 0.38375 0.0
H3484 H 0.97702 0.69596 0.35462 0.0
H3485 H 0.97791 0.65595 0.37755 0.0
H3486 H 0.95141 0.68804 0.3676 0.0
H3487 H 0.95253 0.64837 0.39118 0.0
H3488 H 0.89703 0.62645 0.3929 0.0
H3489 H 0.92467 0.63563 0.38452 0.0
H3490 H 0.93745 0.68643 0.39168 0.0
H3491 H 0.90961 0.67716 0.39917 0.0
C3492 C 0.97192 0.68568 0.36274 0.0
C3493 C 0.97945 0.67653 0.36497 0.0
C3494 C 0.95722 0.68117 0.37029 0.0
C3495 C 0.94976 0.66748 0.38044 0.0
C3496 C 0.95771 0.65877 0.38322 0.0
C3497 C 0.97234 0.6632 0.37551 0.0
C3498 C 0.9058 0.63956 0.39274 0.0
C3499 C 0.90107 0.65107 0.39637 0.0
C3500 C 0.92171 0.64487 0.38808 0.0
C3501 C 0.93334 0.66182 0.38719 0.0
C3502 C 0.92878 0.67329 0.39179 0.0
C3503 C 0.91283 0.66799 0.39623 0.0
H3504 H 0.39113 0.03599 0.69127 0.0
H3505 H 0.35371 0.99491 0.71738 0.0
H3506 H 0.4118 0.03319 0.70554 0.0
H3507 H 0.37439 0.99214 0.73161 0.0
H3508 H 0.4169 0.99007 0.76613 0.0
H3509 H 0.39396 0.99828 0.75354 0.0
H3510 H 0.42366 0.01569 0.70052 0.0
H3511 H 0.44749 0.00822 0.71181 0.0
C3512 C 0.38733 0.02658 0.7003 0.0
C3513 C 0.37078 0.01558 0.70311 0.0
C3514 C 0.39917 0.02491 0.70837 0.0
C3515 C 0.3947 0.01238 0.71958 0.0
C3516 C 0.37823 0.00204 0.72317 0.0
C3517 C 0.36637 0.00356 0.71493 0.0
C3518 C 0.4178 0.99427 0.75379 0.0
C3519 C 0.43635 0.00118 0.74134 0.0
C3520 C 0.40407 0.00019 0.74613 0.0
C3521 C 0.40695 0.00904 0.72619 0.0
C3522 C 0.42287 0.01129 0.71275 0.0
C3523 C 0.43721 0.00574 0.71925 0.0
H3524 H 0.97692 0.35717 0.70487 0.0
H3525 H 0.0218 0.36088 0.71955 0.0
H3526 H 0.98088 0.37743 0.72643 0.0
H3527 H 0.02568 0.38102 0.74117 0.0
H3528 H 0.0435 0.4376 0.76781 0.0
H3529 H 0.03716 0.41013 0.74627 0.0
H3530 H 0.97724 0.38275 0.75532 0.0
H3531 H 0.98211 0.40964 0.7772 0.0
C3532 C 0.98756 0.36223 0.71278 0.0
C3533 C 0.9991 0.35753 0.71047 0.0
C3534 C 0.98977 0.37374 0.7252 0.0
C3535 C 0.00362 0.38085 0.73541 0.0
C3536 C 0.01501 0.37594 0.7333 0.0
C3537 C 0.01274 0.36432 0.72099 0.0
C3538 C 0.03134 0.42703 0.76623 0.0
C3539 C 0.01319 0.42787 0.77245 0.0
C3540 C 0.02717 0.41017 0.75227 0.0
C3541 C 0.00651 0.39383 0.74772 0.0
C3542 C 0.98938 0.39303 0.75784 0.0
C3543 C 0.99231 0.40933 0.77204 0.0
H3544 H 0.64326 0.66625 0.70997 0.0
H3545 H 0.63539 0.62069 0.68763 0.0
H3546 H 0.61887 0.65077 0.7261 0.0
H3547 H 0.61068 0.60523 0.70317 0.0
H3548 H 0.56397 0.62026 0.73416 0.0
H3549 H 0.59048 0.6361 0.72173 0.0
H3550 H 0.59872 0.59592 0.72889 0.0
H3551 H 0.57182 0.57983 0.7406 0.0
C3552 C 0.63633 0.65292 0.70855 0.0
C3553 C 0.64117 0.64469 0.69748 0.0
C3554 C 0.62228 0.64403 0.7177 0.0
C3555 C 0.61266 0.62672 0.71586 0.0
C3556 C 0.61784 0.6185 0.70511 0.0
C3557 C 0.63198 0.62738 0.6961 0.0
C3558 C 0.57158 0.61495 0.73328 0.0
C3559 C 0.56593 0.59895 0.73867 0.0
C3560 C 0.58682 0.62404 0.72623 0.0
C3561 C 0.59686 0.61737 0.72437 0.0
C3562 C 0.59129 0.60142 0.72997 0.0
C3563 C 0.57594 0.59225 0.73687 0.0
H3564 H 0.6885 0.71733 0.65405 0.0
H3565 H 0.65301 0.67448 0.62562 0.0
H3566 H 0.67981 0.73416 0.64061 0.0
H3567 H 0.64477 0.69139 0.61162 0.0
H3568 H 0.6179 0.71956 0.60993 0.0
H3569 H 0.62948 0.70355 0.61899 0.0
H3570 H 0.67758 0.74684 0.61699 0.0
H3571 H 0.66579 0.76301 0.60858 0.0
C3572 C 0.67915 0.71161 0.64459 0.0
C3573 C 0.67131 0.69456 0.64101 0.0
C3574 C 0.67418 0.72127 0.63682 0.0
C3575 C 0.66138 0.71412 0.62517 0.0
C3576 C 0.65435 0.69726 0.62083 0.0
C3577 C 0.65917 0.68757 0.62875 0.0
C3578 C 0.63097 0.72557 0.61118 0.0
C3579 C 0.64093 0.74244 0.6082 0.0
C3580 C 0.63766 0.71638 0.61629 0.0
C3581 C 0.65453 0.72382 0.61858 0.0
C3582 C 0.66454 0.7407 0.61545 0.0
C3583 C 0.65781 0.74994 0.61045 0.0
H3584 H 0.29646 0.97331 0.64784 0.0
H3585 H 0.34181 0.9754 0.63965 0.0
H3586 H 0.28248 0.94866 0.62996 0.0
H3587 H 0.32777 0.95069 0.62167 0.0
H3588 H 0.29446 0.88912 0.60425 0.0
H3589 H 0.31287 0.9207 0.6215 0.0
H3590 H 0.27461 0.93786 0.60173 0.0
H3591 H 0.25523 0.90668 0.58392 0.0
C3592 C 0.30346 0.96857 0.64212 0.0
C3593 C 0.32023 0.97626 0.64517 0.0
C3594 C 0.29546 0.9545 0.63178 0.0
C3595 C 0.30403 0.94775 0.62445 0.0
C3596 C 0.32082 0.95551 0.62734 0.0
C3597 C 0.32888 0.96973 0.63752 0.0
C3598 C 0.29132 0.89848 0.60303 0.0
C3599 C 0.27126 0.89348 0.59467 0.0
C3600 C 0.30228 0.91792 0.61432 0.0
C3601 C 0.29534 0.93241 0.61426 0.0
C3602 C 0.27804 0.92865 0.60201 0.0
C3603 C 0.26629 0.90959 0.59028 0.0
H3604 H 0.02796 0.35608 0.63863 0.0
H3605 H 0.03061 0.31651 0.6603 0.0
H3606 H 0.05371 0.36519 0.62522 0.0
H3607 H 0.05669 0.32596 0.64741 0.0
H3608 H 0.10904 0.39005 0.62369 0.0
H3609 H 0.08145 0.37891 0.63328 0.0
H3610 H 0.07133 0.32937 0.62292 0.0
H3611 H 0.09919 0.34061 0.61397 0.0
C3612 C 0.03401 0.34926 0.64044 0.0
C3613 C 0.0273 0.33563 0.65059 0.0
C3614 C 0.04885 0.35457 0.63286 0.0
C3615 C 0.05744 0.34647 0.63538 0.0
C3616 C 0.05038 0.33242 0.64503 0.0
C3617 C 0.03544 0.32701 0.65249 0.0
C3618 C 0.10082 0.37679 0.62326 0.0
C3619 C 0.10618 0.36624 0.61774 0.0
C3620 C 0.08497 0.37037 0.62868 0.0
C3621 C 0.07405 0.35321 0.62875 0.0
C3622 C 0.07941 0.34264 0.62314 0.0
C3623 C 0.09533 0.34907 0.61783 0.0
H3624 H 0.29193 0.31622 0.6577 0.0
H3625 H 0.33621 0.36267 0.65014 0.0
H3626 H 0.27674 0.32588 0.64219 0.0
H3627 H 0.32111 0.37219 0.63494 0.0
H3628 H 0.28695 0.39148 0.62884 0.0
H3629 H 0.30011 0.37944 0.6437 0.0
H3630 H 0.27519 0.3353 0.61269 0.0
H3631 H 0.26208 0.34743 0.59766 0.0
C3632 C 0.29843 0.32837 0.65259 0.0
C3633 C 0.31525 0.3387 0.65522 0.0
C3634 C 0.28975 0.33388 0.64374 0.0
C3635 C 0.29774 0.34987 0.6376 0.0
C3636 C 0.3146 0.35993 0.63978 0.0
C3637 C 0.32326 0.35439 0.64841 0.0
C3638 C 0.28409 0.37911 0.62537 0.0
C3639 C 0.27326 0.3703 0.6123 0.0
C3640 C 0.2917 0.37227 0.63378 0.0
C3641 C 0.28867 0.35645 0.62932 0.0
C3642 C 0.27759 0.34745 0.61648 0.0
C3643 C 0.2701 0.35438 0.60792 0.0
H3644 H 0.63986 0.97514 0.63305 0.0
H3645 H 0.68562 0.9777 0.63936 0.0
H3646 H 0.62762 0.94686 0.62222 0.0
H3647 H 0.67363 0.94966 0.6279 0.0
H3648 H 0.6407 0.89348 0.63272 0.0
H3649 H 0.65533 0.92321 0.63782 0.0
H3650 H 0.62531 0.92757 0.60143 0.0
H3651 H 0.61026 0.8976 0.59684 0.0
C3652 C 0.64741 0.96979 0.63172 0.0
C3653 C 0.66362 0.97853 0.63725 0.0
C3654 C 0.64042 0.95358 0.62543 0.0
C3655 C 0.64957 0.94584 0.62438 0.0
C3656 C 0.6661 0.95505 0.62891 0.0
C3657 C 0.67302 0.97118 0.63537 0.0
C3658 C 0.63745 0.90085 0.62559 0.0
C3659 C 0.62452 0.89325 0.61421 0.0
C3660 C 0.64588 0.91793 0.62844 0.0
C3661 C 0.64158 0.92788 0.61999 0.0
C3662 C 0.62888 0.9203 0.60827 0.0
C3663 C 0.62036 0.90315 0.6055 0.0
H3664 H 0.01561 0.66331 0.6433 0.0
H3665 H 0.01901 0.71036 0.6511 0.0
H3666 H 0.04136 0.67689 0.62887 0.0
H3667 H 0.04472 0.7239 0.63666 0.0
H3668 H 0.08214 0.73883 0.59549 0.0
H3669 H 0.05564 0.72471 0.60842 0.0
H3670 H 0.0706 0.69705 0.63692 0.0
H3671 H 0.09719 0.71127 0.62402 0.0
C3672 C 0.02176 0.67652 0.64177 0.0
C3673 C 0.01532 0.68579 0.64834 0.0
C3674 C 0.03655 0.68429 0.63363 0.0
C3675 C 0.04508 0.70146 0.63173 0.0
C3676 C 0.03837 0.71064 0.63786 0.0
C3677 C 0.02368 0.7029 0.64616 0.0
C3678 C 0.07983 0.72989 0.60467 0.0
C3679 C 0.09189 0.72647 0.60909 0.0
C3680 C 0.06466 0.72179 0.61203 0.0
C3681 C 0.06109 0.70985 0.62372 0.0
C3682 C 0.073 0.70614 0.62788 0.0
C3683 C 0.08824 0.71437 0.62063 0.0
H3684 H 0.95281 0.61794 0.70024 0.0
H3685 H 0.00368 0.65214 0.71054 0.0
H3686 H 0.9543 0.59674 0.71499 0.0
H3687 H 0.00543 0.63085 0.72456 0.0
H3688 H 0.00361 0.59238 0.75643 0.0
H3689 H 0.99906 0.61385 0.74697 0.0
H3690 H 0.9648 0.57944 0.71046 0.0
H3691 H 0.96875 0.55784 0.72059 0.0
C3692 C 0.96428 0.62096 0.70576 0.0
C3693 C 0.97814 0.63667 0.70416 0.0
C3694 C 0.96519 0.60877 0.7141 0.0
C3695 C 0.98004 0.61195 0.72084 0.0
C3696 C 0.99373 0.62793 0.71976 0.0
C3697 C 0.99276 0.64016 0.71162 0.0
C3698 C 0.99481 0.58932 0.74666 0.0
C3699 C 0.98626 0.5733 0.73947 0.0
C3700 C 0.99234 0.60169 0.74108 0.0
C3701 C 0.98154 0.59845 0.72792 0.0
C3702 C 0.97292 0.58237 0.72085 0.0
C3703 C 0.97524 0.56998 0.72657 0.0
H3704 H 0.34009 0.36738 0.71994 0.0
H3705 H 0.38408 0.36667 0.71197 0.0
H3706 H 0.35589 0.39537 0.73134 0.0
H3707 H 0.39997 0.39456 0.72406 0.0
H3708 H 0.42111 0.45057 0.71821 0.0
H3709 H 0.40725 0.42074 0.71421 0.0
H3710 H 0.37302 0.41509 0.75159 0.0
H3711 H 0.38659 0.44507 0.75499 0.0
C3712 C 0.35313 0.37304 0.72108 0.0
C3713 C 0.36087 0.36494 0.7148 0.0
C3714 C 0.36222 0.38912 0.72772 0.0
C3715 C 0.37927 0.39739 0.72841 0.0
C3716 C 0.38689 0.38873 0.72335 0.0
C3717 C 0.37779 0.37269 0.71654 0.0
C3718 C 0.41082 0.44291 0.72579 0.0
C3719 C 0.40504 0.45014 0.73701 0.0
C3720 C 0.40291 0.42578 0.7236 0.0
C3721 C 0.38898 0.41542 0.73259 0.0
C3722 C 0.38359 0.42267 0.74432 0.0
C3723 C 0.39144 0.43984 0.7464 0.0
H3724 H 0.64501 0.99651 0.70464 0.0
H3725 H 0.65218 0.04024 0.68169 0.0
H3726 H 0.62315 0.99543 0.72088 0.0
H3727 H 0.63012 0.03889 0.6974 0.0
H3728 H 0.59751 0.04045 0.73524 0.0
H3729 H 0.6217 0.04219 0.72379 0.0
H3730 H 0.59575 0.98907 0.71703 0.0
H3731 H 0.57173 0.98737 0.72917 0.0
C3732 C 0.64198 0.00594 0.70313 0.0
C3733 C 0.65031 0.01845 0.69187 0.0
C3734 C 0.62937 0.00526 0.71235 0.0
C3735 C 0.6248 0.01704 0.71045 0.0
C3736 C 0.63344 0.02975 0.69943 0.0
C3737 C 0.64606 0.03048 0.69031 0.0
C3738 C 0.59707 0.02913 0.73155 0.0
C3739 C 0.58272 0.01377 0.73305 0.0
C3740 C 0.61089 0.03013 0.72484 0.0
C3741 C 0.61066 0.01579 0.71928 0.0
C3742 C 0.59645 0.00036 0.72132 0.0
C3743 C 0.58265 0.99937 0.72817 0.0
loop_
_geom_bond_atom_site_label_1
_geom_bond_atom_site_label_2
_geom_bond_distance
_geom_bond_site_symmetry_2
_ccdc_geom_bond_type
Co0 O1 2.216 . S
Co0 O2 2.091 . S
Co0 O4 2.004 1_554 S
Co0 O10 2.021 . S
Co0 O12 2.137 1_454 S
Co0 O13 2.244 1_455 S
O1 Co0 2.216 . S
O1 C8 1.247 . S
O2 Co0 2.091 . S
O2 C8 1.261 . S
C3 O12 1.242 . S
C3 O13 1.271 1_556 S
O4 Co0 2.004 1_556 S
O4 C9 1.259 . S
Co5 O6 2.086 . S
Co5 O11 2.013 1_556 S
Co5 O13 2.133 1_556 S
O6 Co5 2.086 . S
O6 C9 1.235 1_655 S
C7 O10 1.238 1_655 S
C7 O11 1.241 . S
C8 O1 1.247 . S
C8 O2 1.261 . S
C9 O4 1.259 . S
C9 O6 1.235 1_455 S
O10 Co0 2.021 . S
O10 C7 1.238 1_455 S
O11 Co5 2.013 1_554 S
O11 C7 1.241 . S
O12 Co0 2.137 1_656 S
O12 C3 1.242 . S
O13 Co0 2.244 1_655 S
O13 C3 1.271 1_554 S
O13 Co5 2.133 1_554 S
Co14 O15 2.216 1_554 S
Co14 O16 2.091 . S
Co14 O18 2.004 . S
Co14 O24 2.021 1_554 S
Co14 O26 2.137 . S
Co14 O27 2.244 . S
O15 Co14 2.216 1_556 S
O15 C22 1.247 . S
O16 Co14 2.091 . S
O16 C22 1.261 1_554 S
C17 O26 1.247 . S
C17 O27 1.272 . S
O18 Co14 2.004 . S
O18 C23 1.259 . S
Co19 O20 2.061 . S
Co19 O25 2.052 . S
Co19 O27 2.135 . S
O20 Co19 2.061 . S
O20 C23 1.235 . S
C21 O24 1.238 . S
C21 O25 1.241 1_556 S
C22 O15 1.247 . S
C22 O16 1.261 1_556 S
C23 O18 1.259 . S
C23 O20 1.235 . S
O24 Co14 2.021 1_556 S
O24 C21 1.238 . S
O25 Co19 2.052 . S
O25 C21 1.241 1_554 S
O26 Co14 2.137 . S
O26 C17 1.247 . S
O27 Co14 2.244 . S
O27 C17 1.272 . S
O27 Co19 2.135 . S
Co28 O29 2.216 1_554 S
Co28 O30 2.091 . S
Co28 O32 2.004 . S
Co28 O38 2.021 1_554 S
Co28 O40 2.137 . S
Co28 O41 2.244 1_545 S
O29 Co28 2.216 1_556 S
O29 C36 1.247 . S
O30 Co28 2.091 . S
O30 C36 1.261 1_554 S
C31 O40 1.247 1_565 S
C31 O41 1.272 . S
O32 Co28 2.004 . S
O32 C37 1.259 . S
Co33 O34 2.061 . S
Co33 O39 2.052 1_554 S
Co33 O41 2.135 . S
O34 Co33 2.061 . S
O34 C37 1.235 1_565 S
C35 O38 1.238 1_565 S
C35 O39 1.241 . S
C36 O29 1.247 . S
C36 O30 1.261 1_556 S
C37 O32 1.259 . S
C37 O34 1.235 1_545 S
O38 Co28 2.021 1_556 S
O38 C35 1.238 1_545 S
O39 Co33 2.052 1_556 S
O39 C35 1.241 . S
O40 Co28 2.137 . S
O40 C31 1.247 1_545 S
O41 Co28 2.244 1_565 S
O41 C31 1.272 . S
O41 Co33 2.135 . S
Co42 O43 2.216 1_554 S
Co42 O44 2.091 . S
Co42 O46 2.004 . S
Co42 O52 2.021 1_554 S
Co42 O54 2.137 1_655 S
Co42 O55 2.244 1_655 S
O43 Co42 2.216 1_556 S
O43 C50 1.247 . S
O44 Co42 2.091 . S
O44 C50 1.261 1_554 S
C45 O54 1.247 . S
C45 O55 1.272 . S
O46 Co42 2.004 . S
O46 C51 1.259 . S
Co47 O48 2.061 . S
Co47 O53 2.052 1_554 S
Co47 O55 2.135 . S
O48 Co47 2.061 . S
O48 C51 1.235 1_455 S
C49 O52 1.238 1_455 S
C49 O53 1.241 . S
C50 O43 1.247 . S
C50 O44 1.261 1_556 S
C51 O46 1.259 . S
C51 O48 1.235 1_655 S
O52 Co42 2.021 1_556 S
O52 C49 1.238 1_655 S
O53 Co47 2.052 1_556 S
O53 C49 1.241 . S
O54 Co42 2.137 1_455 S
O54 C45 1.247 . S
O55 Co42 2.244 1_455 S
O55 C45 1.272 . S
O55 Co47 2.135 . S
Co56 O57 2.216 . S
Co56 O58 2.091 . S
Co56 O60 2.004 1_554 S
Co56 O66 2.021 . S
Co56 O68 2.137 1_554 S
Co56 O69 2.244 1_554 S
O57 Co56 2.216 . S
O57 C64 1.247 . S
O58 Co56 2.091 . S
O58 C64 1.261 . S
C59 O68 1.247 . S
C59 O69 1.272 . S
O60 Co56 2.004 1_556 S
O60 C65 1.259 . S
Co61 O62 2.061 . S
Co61 O67 2.052 1_556 S
Co61 O69 2.135 . S
O62 Co61 2.061 . S
O62 C65 1.235 . S
C63 O66 1.238 . S
C63 O67 1.241 . S
C64 O57 1.247 . S
C64 O58 1.261 . S
C65 O60 1.259 . S
C65 O62 1.235 . S
O66 Co56 2.021 . S
O66 C63 1.238 . S
O67 Co61 2.052 1_554 S
O67 C63 1.241 . S
O68 Co56 2.137 1_556 S
O68 C59 1.247 . S
O69 Co56 2.244 1_556 S
O69 C59 1.272 . S
O69 Co61 2.135 . S
Co70 O71 2.216 . S
Co70 O72 2.091 . S
Co70 O74 2.004 1_554 S
Co70 O80 2.021 . S
Co70 O82 2.137 1_564 S
Co70 O83 2.244 1_565 S
O71 Co70 2.216 . S
O71 C78 1.247 . S
O72 Co70 2.091 . S
O72 C78 1.261 . S
C73 O82 1.247 . S
C73 O83 1.272 1_556 S
O74 Co70 2.004 1_556 S
O74 C79 1.259 . S
Co75 O76 2.061 1_554 S
Co75 O81 2.052 . S
Co75 O83 2.135 . S
O76 Co75 2.061 1_556 S
O76 C79 1.235 1_545 S
C77 O80 1.238 1_545 S
C77 O81 1.241 . S
C78 O71 1.247 . S
C78 O72 1.261 . S
C79 O74 1.259 . S
C79 O76 1.235 1_565 S
O80 Co70 2.021 . S
O80 C77 1.238 1_565 S
O81 Co75 2.052 . S
O81 C77 1.241 . S
O82 Co70 2.137 1_546 S
O82 C73 1.247 . S
O83 Co70 2.244 1_545 S
O83 C73 1.272 1_554 S
O83 Co75 2.135 . S
Co84 O85 2.216 . S
Co84 O86 2.091 . S
Co84 O88 2.004 . S
Co84 O94 2.021 . S
Co84 O96 2.137 . S
Co84 O97 2.244 . S
O85 Co84 2.216 . S
O85 C92 1.247 . S
O86 Co84 2.091 . S
O86 C92 1.261 . S
C87 O96 1.247 . S
C87 O97 1.272 . S
O88 Co84 2.004 . S
O88 C93 1.259 . S
Co89 O90 2.061 . S
Co89 O95 2.052 . S
Co89 O97 2.135 . S
O90 Co89 2.061 . S
O90 C93 1.235 . S
C91 O94 1.238 . S
C91 O95 1.241 . S
C92 O85 1.247 . S
C92 O86 1.261 . S
C93 O88 1.259 . S
C93 O90 1.235 . S
O94 Co84 2.021 . S
O94 C91 1.238 . S
O95 Co89 2.052 . S
O95 C91 1.241 . S
O96 Co84 2.137 . S
O96 C87 1.247 . S
O97 Co84 2.244 . S
O97 C87 1.272 . S
O97 Co89 2.135 . S
Co98 O99 2.216 . S
Co98 O100 2.091 . S
Co98 O102 2.004 . S
Co98 O108 2.021 . S
Co98 O110 2.137 1_565 S
Co98 O111 2.245 1_565 S
O99 Co98 2.216 . S
O99 C106 1.247 . S
O100 Co98 2.091 . S
O100 C106 1.261 . S
C101 O110 1.247 . S
C101 O111 1.271 . S
O102 Co98 2.004 . S
O102 C107 1.259 . S
Co103 O104 2.061 . S
Co103 O109 2.052 . S
Co103 O111 2.135 1_565 S
O104 Co103 2.061 . S
O104 C107 1.235 . S
C105 O108 1.238 . S
C105 O109 1.241 . S
C106 O99 1.247 . S
C106 O100 1.261 . S
C107 O102 1.259 . S
C107 O104 1.235 . S
O108 Co98 2.021 . S
O108 C105 1.238 . S
O109 Co103 2.052 . S
O109 C105 1.241 . S
O110 Co98 2.137 1_545 S
O110 C101 1.247 . S
O111 Co98 2.245 1_545 S
O111 C101 1.271 . S
O111 Co103 2.135 1_545 S
Co112 O113 2.216 . S
Co112 O114 2.091 . S
Co112 O116 2.004 . S
Co112 O122 2.021 . S
Co112 O124 2.137 . S
Co112 O125 2.244 . S
O113 Co112 2.216 . S
O113 C120 1.247 . S
O114 Co112 2.091 . S
O114 C120 1.261 . S
C115 O124 1.264 1_655 S
C115 O125 1.214 1_655 S
O116 Co112 2.004 . S
O116 C121 1.259 . S
Co117 O118 2.061 . S
Co117 O123 2.052 . S
Co117 O125 2.135 . S
O118 Co117 2.061 . S
O118 C121 1.235 . S
C119 O122 1.238 . S
C119 O123 1.241 . S
C120 O113 1.247 . S
C120 O114 1.261 . S
C121 O116 1.259 . S
C121 O118 1.235 . S
O122 Co112 2.021 . S
O122 C119 1.238 . S
O123 Co117 2.052 . S
O123 C119 1.241 . S
O124 Co112 2.137 . S
O124 C115 1.264 1_455 S
O125 Co112 2.244 . S
O125 C115 1.214 1_455 S
O125 Co117 2.135 . S
Co126 O127 2.216 . S
Co126 O128 2.091 . S
Co126 O130 2.004 . S
Co126 O136 2.021 . S
Co126 O138 2.137 1_565 S
Co126 O139 2.235 1_565 S
O127 Co126 2.216 . S
O127 C134 1.247 . S
O128 Co126 2.091 . S
O128 C134 1.261 . S
C129 O138 1.247 . S
C129 O139 1.324 . S
O130 Co126 2.004 . S
O130 C135 1.259 . S
Co131 O132 2.061 . S
Co131 O137 2.052 . S
Co131 O139 2.076 1_565 S
O132 Co131 2.061 . S
O132 C135 1.235 . S
C133 O136 1.238 . S
C133 O137 1.241 . S
C134 O127 1.247 . S
C134 O128 1.261 . S
C135 O130 1.259 . S
C135 O132 1.235 . S
O136 Co126 2.021 . S
O136 C133 1.238 . S
O137 Co131 2.052 . S
O137 C133 1.241 . S
O138 Co126 2.137 1_545 S
O138 C129 1.247 . S
O139 Co126 2.235 1_545 S
O139 C129 1.324 . S
O139 Co131 2.076 1_545 S
Co140 O141 2.216 1_455 S
Co140 O142 2.091 1_455 S
Co140 O144 2.004 . S
Co140 O150 2.021 . S
Co140 O152 2.137 1_455 S
Co140 O153 2.244 . S
O141 Co140 2.216 1_655 S
O141 C148 1.247 . S
O142 Co140 2.091 1_655 S
O142 C148 1.261 . S
C143 O152 1.247 1_455 S
C143 O153 1.272 . S
O144 Co140 2.004 . S
O144 C149 1.259 . S
Co145 O146 2.061 . S
Co145 O151 2.052 . S
Co145 O153 2.135 . S
O146 Co145 2.061 . S
O146 C149 1.235 . S
C147 O150 1.238 . S
C147 O151 1.241 . S
C148 O141 1.247 . S
C148 O142 1.261 . S
C149 O144 1.259 . S
C149 O146 1.235 . S
O150 Co140 2.021 . S
O150 C147 1.238 . S
O151 Co145 2.052 . S
O151 C147 1.241 . S
O152 Co140 2.137 1_655 S
O152 C143 1.247 1_655 S
O153 Co140 2.244 . S
O153 C143 1.272 . S
O153 Co145 2.135 . S
Co154 O155 2.216 . S
Co154 O156 2.091 . S
Co154 O158 2.004 . S
Co154 O164 2.021 . S
Co154 O166 2.137 . S
Co154 O167 2.244 . S
O155 Co154 2.216 . S
O155 C162 1.247 . S
O156 Co154 2.091 . S
O156 C162 1.261 . S
C157 O166 1.247 . S
C157 O167 1.272 . S
O158 Co154 2.004 . S
O158 C163 1.259 . S
Co159 O160 2.061 . S
Co159 O165 2.052 . S
Co159 O167 2.135 . S
O160 Co159 2.061 . S
O160 C163 1.235 . S
C161 O164 1.238 . S
C161 O165 1.241 . S
C162 O155 1.247 . S
C162 O156 1.261 . S
C163 O158 1.259 . S
C163 O160 1.235 . S
O164 Co154 2.021 . S
O164 C161 1.238 . S
O165 Co159 2.052 . S
O165 C161 1.241 . S
O166 Co154 2.137 . S
O166 C157 1.247 . S
O167 Co154 2.244 . S
O167 C157 1.272 . S
O167 Co159 2.135 . S
Co168 O169 2.216 . S
Co168 O170 2.091 . S
Co168 O172 2.004 . S
Co168 O178 2.021 . S
Co168 O180 2.107 1_545 S
Co168 O181 2.244 . S
O169 Co168 2.216 . S
O169 C176 1.247 . S
O170 Co168 2.091 . S
O170 C176 1.261 . S
C171 O180 1.238 . S
C171 O181 1.272 1_565 S
O172 Co168 2.004 . S
O172 C177 1.259 . S
Co173 O174 2.061 . S
Co173 O179 2.052 . S
Co173 O181 2.135 . S
O174 Co173 2.061 . S
O174 C177 1.235 . S
C175 O178 1.238 . S
C175 O179 1.241 . S
C176 O169 1.247 . S
C176 O170 1.261 . S
C177 O172 1.259 . S
C177 O174 1.235 . S
O178 Co168 2.021 . S
O178 C175 1.238 . S
O179 Co173 2.052 . S
O179 C175 1.241 . S
O180 Co168 2.107 1_565 S
O180 C171 1.238 . S
O181 Co168 2.244 . S
O181 C171 1.272 1_545 S
O181 Co173 2.135 . S
Co182 O183 2.216 1_655 S
Co182 O184 2.091 1_655 S
Co182 O186 2.004 . S
Co182 O192 2.021 . S
Co182 O194 2.137 1_655 S
Co182 O195 2.244 . S
O183 Co182 2.216 1_455 S
O183 C190 1.247 . S
O184 Co182 2.091 1_455 S
O184 C190 1.261 . S
C185 O194 1.247 1_655 S
C185 O195 1.272 . S
O186 Co182 2.004 . S
O186 C191 1.259 . S
Co187 O188 2.061 . S
Co187 O193 2.052 . S
Co187 O195 2.135 . S
O188 Co187 2.061 . S
O188 C191 1.235 . S
C189 O192 1.238 . S
C189 O193 1.241 . S
C190 O183 1.247 . S
C190 O184 1.261 . S
C191 O186 1.259 . S
C191 O188 1.235 . S
O192 Co182 2.021 . S
O192 C189 1.238 . S
O193 Co187 2.052 . S
O193 C189 1.241 . S
O194 Co182 2.137 1_455 S
O194 C185 1.247 1_455 S
O195 Co182 2.244 . S
O195 C185 1.272 . S
O195 Co187 2.135 . S
Co196 O197 2.216 . S
Co196 O198 2.091 . S
Co196 O200 2.004 . S
Co196 O206 2.021 . S
Co196 O208 2.137 . S
Co196 O209 2.244 . S
O197 Co196 2.216 . S
O197 C204 1.247 . S
O198 Co196 2.091 . S
O198 C204 1.261 . S
C199 O208 1.247 . S
C199 O209 1.272 . S
O200 Co196 2.004 . S
O200 C205 1.259 . S
Co201 O202 2.061 . S
Co201 O207 2.052 . S
Co201 O209 2.135 . S
O202 Co201 2.061 . S
O202 C205 1.235 . S
C203 O206 1.238 . S
C203 O207 1.241 . S
C204 O197 1.247 . S
C204 O198 1.261 . S
C205 O200 1.259 . S
C205 O202 1.235 . S
O206 Co196 2.021 . S
O206 C203 1.238 . S
O207 Co201 2.052 . S
O207 C203 1.241 . S
O208 Co196 2.137 . S
O208 C199 1.247 . S
O209 Co196 2.244 . S
O209 C199 1.272 . S
O209 Co201 2.135 . S
Co210 O211 2.216 . S
Co210 O212 2.091 . S
Co210 O214 2.004 . S
Co210 O220 2.021 . S
Co210 O222 2.137 . S
Co210 O223 2.244 . S
O211 Co210 2.216 . S
O211 C218 1.247 . S
O212 Co210 2.091 . S
O212 C218 1.261 . S
C213 O222 1.247 . S
C213 O223 1.272 . S
O214 Co210 2.004 . S
O214 C219 1.259 . S
Co215 O216 2.061 . S
Co215 O221 2.052 . S
Co215 O223 2.135 . S
O216 Co215 2.061 . S
O216 C219 1.235 . S
C217 O220 1.238 . S
C217 O221 1.241 . S
C218 O211 1.247 . S
C218 O212 1.261 . S
C219 O214 1.259 . S
C219 O216 1.235 . S
O220 Co210 2.021 . S
O220 C217 1.238 . S
O221 Co215 2.052 . S
O221 C217 1.241 . S
O222 Co210 2.137 . S
O222 C213 1.247 . S
O223 Co210 2.244 . S
O223 C213 1.272 . S
O223 Co215 2.135 . S
Co224 O225 2.216 . S
Co224 O226 2.091 . S
Co224 O228 2.004 . S
Co224 O234 2.021 . S
Co224 O236 2.159 . S
Co224 O237 2.244 . S
O225 Co224 2.216 . S
O225 C232 1.247 . S
O226 Co224 2.091 . S
O226 C232 1.261 . S
C227 O236 1.218 1_565 S
C227 O237 1.272 1_565 S
O228 Co224 2.004 . S
O228 C233 1.259 . S
Co229 O230 2.061 . S
Co229 O235 2.052 . S
Co229 O237 2.135 . S
O230 Co229 2.061 . S
O230 C233 1.235 . S
C231 O234 1.238 . S
C231 O235 1.241 . S
C232 O225 1.247 . S
C232 O226 1.261 . S
C233 O228 1.259 . S
C233 O230 1.235 . S
O234 Co224 2.021 . S
O234 C231 1.238 . S
O235 Co229 2.052 . S
O235 C231 1.241 . S
O236 Co224 2.159 . S
O236 C227 1.218 1_545 S
O237 Co224 2.244 . S
O237 C227 1.272 1_545 S
O237 Co229 2.135 . S
Co238 O239 2.216 . S
Co238 O240 2.091 . S
Co238 O242 2.004 . S
Co238 O248 2.021 . S
Co238 O250 2.137 . S
Co238 O251 2.244 . S
O239 Co238 2.216 . S
O239 C246 1.247 . S
O240 Co238 2.091 . S
O240 C246 1.261 . S
C241 O250 1.247 1_455 S
C241 O251 1.272 1_455 S
O242 Co238 2.004 . S
O242 C247 1.259 . S
Co243 O244 2.061 . S
Co243 O249 2.052 . S
Co243 O251 2.135 . S
O244 Co243 2.061 . S
O244 C247 1.235 . S
C245 O248 1.238 . S
C245 O249 1.241 . S
C246 O239 1.247 . S
C246 O240 1.261 . S
C247 O242 1.259 . S
C247 O244 1.235 . S
O248 Co238 2.021 . S
O248 C245 1.238 . S
O249 Co243 2.052 . S
O249 C245 1.241 . S
O250 Co238 2.137 . S
O250 C241 1.247 1_655 S
O251 Co238 2.244 . S
O251 C241 1.272 1_655 S
O251 Co243 2.135 . S
C252 C253 1.560 . S
C252 H313 0.959 . S
C252 H314 0.959 . S
C252 H315 0.960 . S
C253 C252 1.560 . S
C253 O308 1.426 . S
C253 H312 0.980 . S
C254 C255 1.407 . S
C254 C259 1.418 . S
C254 O308 1.334 . S
C255 C254 1.407 . S
C255 C256 1.360 . S
C255 H316 0.929 . S
C256 C255 1.360 . S
C256 C257 1.401 . S
C256 C260 1.527 . S
C257 C256 1.401 . S
C257 C258 1.405 . S
C257 C290 1.587 . S
C258 C257 1.405 . S
C258 C259 1.332 . S
C258 C261 1.496 . S
C259 C254 1.418 . S
C259 C258 1.332 . S
C259 H317 0.929 . S
C260 C256 1.527 . S
C260 H318 0.959 . S
C260 H319 0.961 . S
C260 H320 0.961 . S
C261 C258 1.496 . S
C261 H321 0.960 . S
C261 H322 0.960 . S
C261 H323 0.961 . S
C262 C263 1.517 . S
C262 H325 0.961 . S
C262 H326 0.960 . S
C262 H327 0.959 . S
C263 C262 1.517 . S
C263 O311 1.468 . S
C263 H324 0.980 . S
C264 C265 1.349 . S
C264 C269 1.367 . S
C264 O311 1.408 . S
C265 C264 1.349 . S
C265 C266 1.407 . S
C265 H328 0.930 . S
C266 C265 1.407 . S
C266 C267 1.449 . S
C266 C270 1.535 . S
C267 C266 1.449 . S
C267 C268 1.384 . S
C267 C292 1.553 . S
C268 C267 1.384 . S
C268 C269 1.364 . S
C268 C271 1.450 . S
C269 C264 1.367 . S
C269 C268 1.364 . S
C269 H329 0.931 . S
C270 C266 1.535 . S
C270 H330 0.959 . S
C270 H331 0.961 . S
C270 H332 0.959 . S
C271 C268 1.450 . S
C271 H333 0.960 . S
C271 H334 0.960 . S
C271 H335 0.960 . S
C272 C273 1.309 . S
C272 C277 1.304 . S
C272 O310 1.435 . S
C273 C272 1.309 . S
C273 C274 1.476 . S
C273 H337 0.930 . S
C274 C273 1.476 . S
C274 C275 1.400 . S
C274 C278 1.567 . S
C275 C274 1.400 . S
C275 C276 1.373 . S
C275 C297 1.432 . S
C276 C275 1.373 . S
C276 C277 1.339 . S
C276 C279 1.530 . S
C277 C272 1.304 . S
C277 C276 1.339 . S
C277 H338 0.930 . S
C278 C274 1.567 . S
C278 H339 0.961 . S
C278 H340 0.960 . S
C278 H341 0.958 . S
C279 C276 1.530 . S
C279 H342 0.961 . S
C279 H343 0.960 . S
C279 H344 0.960 . S
C280 C281 1.530 . S
C280 H346 0.961 . S
C280 H347 0.961 . S
C280 H348 0.959 . S
C281 C280 1.530 . S
C281 O309 1.412 . S
C281 H345 0.980 . S
C282 C283 1.288 . S
C282 C287 1.377 . S
C282 O309 1.393 . S
C283 C282 1.288 . S
C283 C284 1.369 . S
C283 H349 0.932 . S
C284 C283 1.369 . S
C284 C285 1.398 . S
C284 C288 1.527 . S
C285 C284 1.398 . S
C285 C286 1.380 . S
C285 C299 1.497 . S
C286 C285 1.380 . S
C286 C287 1.383 . S
C286 C289 1.603 . S
C287 C282 1.377 . S
C287 C286 1.383 . S
C287 H350 0.929 . S
C288 C284 1.527 . S
C288 H351 0.961 . S
C288 H352 0.959 . S
C288 H353 0.959 . S
C289 C286 1.603 . S
C289 H354 0.960 . S
C289 H355 0.962 . S
C289 H356 0.961 . S
C290 C257 1.587 . S
C290 C291 1.360 . S
C290 C303 1.412 . S
C291 C290 1.360 . S
C291 C292 1.365 . S
C291 H357 0.929 . S
C292 C267 1.553 . S
C292 C291 1.365 . S
C292 C293 1.404 . S
C293 C292 1.404 . S
C293 C294 1.395 . S
C293 C304 1.451 . S
C294 C293 1.395 . S
C294 C295 1.322 . S
C294 H358 0.930 . S
C295 C294 1.322 . S
C295 C296 1.459 . S
C295 H359 0.929 . S
C296 C295 1.459 . S
C296 C297 1.445 . S
C296 C305 1.395 . S
C297 C275 1.432 . S
C297 C296 1.445 . S
C297 C298 1.370 . S
C298 C297 1.370 . S
C298 C299 1.438 . S
C298 H360 0.930 . S
C299 C285 1.497 . S
C299 C298 1.438 . S
C299 C300 1.360 . S
C300 C299 1.360 . S
C300 C301 1.401 . S
C300 C305 1.446 . S
C301 C300 1.401 . S
C301 C302 1.347 . S
C301 H361 0.929 . S
C302 C301 1.347 . S
C302 C303 1.455 . S
C302 H362 0.930 . S
C303 C290 1.412 . S
C303 C302 1.455 . S
C303 C304 1.331 . S
C304 C293 1.451 . S
C304 C303 1.331 . S
C304 C305 1.497 . S
C305 C296 1.395 . S
C305 C300 1.446 . S
C305 C304 1.497 . S
C306 C307 1.582 . S
C306 H363 0.962 . S
C306 H364 0.959 . S
C306 H365 0.958 . S
C307 C306 1.582 . S
C307 O310 1.458 . S
C307 H336 0.980 . S
O308 C253 1.426 . S
O308 C254 1.334 . S
O309 C281 1.412 . S
O309 C282 1.393 . S
O310 C272 1.435 . S
O310 C307 1.458 . S
O311 C263 1.468 . S
O311 C264 1.408 . S
H312 C253 0.980 . S
H313 C252 0.959 . S
H314 C252 0.959 . S
H315 C252 0.960 . S
H316 C255 0.929 . S
H317 C259 0.929 . S
H318 C260 0.959 . S
H319 C260 0.961 . S
H320 C260 0.961 . S
H321 C261 0.960 . S
H322 C261 0.960 . S
H323 C261 0.961 . S
H324 C263 0.980 . S
H325 C262 0.961 . S
H326 C262 0.960 . S
H327 C262 0.959 . S
H328 C265 0.930 . S
H329 C269 0.931 . S
H330 C270 0.959 . S
H331 C270 0.961 . S
H332 C270 0.959 . S
H333 C271 0.960 . S
H334 C271 0.960 . S
H335 C271 0.960 . S
H336 C307 0.980 . S
H337 C273 0.930 . S
H338 C277 0.930 . S
H339 C278 0.961 . S
H340 C278 0.960 . S
H341 C278 0.958 . S
H342 C279 0.961 . S
H343 C279 0.960 . S
H344 C279 0.960 . S
H345 C281 0.980 . S
H346 C280 0.961 . S
H347 C280 0.961 . S
H348 C280 0.959 . S
H349 C283 0.932 . S
H350 C287 0.929 . S
H351 C288 0.961 . S
H352 C288 0.959 . S
H353 C288 0.959 . S
H354 C289 0.960 . S
H355 C289 0.962 . S
H356 C289 0.961 . S
H357 C291 0.929 . S
H358 C294 0.930 . S
H359 C295 0.929 . S
H360 C298 0.930 . S
H361 C301 0.929 . S
H362 C302 0.930 . S
H363 C306 0.962 . S
H364 C306 0.959 . S
H365 C306 0.958 . S
C366 C367 1.560 . S
C366 H427 0.959 . S
C366 H428 0.959 . S
C366 H429 0.960 . S
C367 C366 1.560 . S
C367 O422 1.426 . S
C367 H426 0.980 . S
C368 C369 1.407 . S
C368 C373 1.418 . S
C368 O422 1.334 . S
C369 C368 1.407 . S
C369 C370 1.360 . S
C369 H430 0.929 . S
C370 C369 1.360 . S
C370 C371 1.401 . S
C370 C374 1.527 . S
C371 C370 1.401 . S
C371 C372 1.405 . S
C371 C404 1.587 . S
C372 C371 1.405 . S
C372 C373 1.332 . S
C372 C375 1.496 . S
C373 C368 1.418 . S
C373 C372 1.332 . S
C373 H431 0.929 . S
C374 C370 1.527 . S
C374 H432 0.959 . S
C374 H433 0.961 . S
C374 H434 0.961 . S
C375 C372 1.496 . S
C375 H435 0.960 . S
C375 H436 0.960 . S
C375 H437 0.961 . S
C376 C377 1.517 . S
C376 H439 0.961 . S
C376 H440 0.960 . S
C376 H441 0.959 . S
C377 C376 1.517 . S
C377 O425 1.468 . S
C377 H438 0.980 . S
C378 C379 1.349 . S
C378 C383 1.367 . S
C378 O425 1.408 . S
C379 C378 1.349 . S
C379 C380 1.407 . S
C379 H442 0.930 . S
C380 C379 1.407 . S
C380 C381 1.449 . S
C380 C384 1.535 . S
C381 C380 1.449 . S
C381 C382 1.384 . S
C381 C406 1.553 . S
C382 C381 1.384 . S
C382 C383 1.364 . S
C382 C385 1.450 . S
C383 C378 1.367 . S
C383 C382 1.364 . S
C383 H443 0.931 . S
C384 C380 1.535 . S
C384 H444 0.959 . S
C384 H445 0.961 . S
C384 H446 0.959 . S
C385 C382 1.450 . S
C385 H447 0.960 . S
C385 H448 0.960 . S
C385 H449 0.960 . S
C386 C387 1.309 . S
C386 C391 1.304 . S
C386 O424 1.435 . S
C387 C386 1.309 . S
C387 C388 1.476 . S
C387 H451 0.930 . S
C388 C387 1.476 . S
C388 C389 1.400 . S
C388 C392 1.567 . S
C389 C388 1.400 . S
C389 C390 1.373 . S
C389 C411 1.432 . S
C390 C389 1.373 . S
C390 C391 1.339 . S
C390 C393 1.530 . S
C391 C386 1.304 . S
C391 C390 1.339 . S
C391 H452 0.930 . S
C392 C388 1.567 . S
C392 H453 0.961 . S
C392 H454 0.960 . S
C392 H455 0.958 . S
C393 C390 1.530 . S
C393 H456 0.961 . S
C393 H457 0.960 . S
C393 H458 0.960 . S
C394 C395 1.530 . S
C394 H460 0.961 . S
C394 H461 0.961 . S
C394 H462 0.959 . S
C395 C394 1.530 . S
C395 O423 1.412 . S
C395 H459 0.980 . S
C396 C397 1.288 . S
C396 C401 1.377 . S
C396 O423 1.393 . S
C397 C396 1.288 . S
C397 C398 1.369 . S
C397 H463 0.932 . S
C398 C397 1.369 . S
C398 C399 1.398 . S
C398 C402 1.527 . S
C399 C398 1.398 . S
C399 C400 1.380 . S
C399 C413 1.497 . S
C400 C399 1.380 . S
C400 C401 1.383 . S
C400 C403 1.603 . S
C401 C396 1.377 . S
C401 C400 1.383 . S
C401 H464 0.929 . S
C402 C398 1.527 . S
C402 H465 0.961 . S
C402 H466 0.959 . S
C402 H467 0.959 . S
C403 C400 1.603 . S
C403 H468 0.960 . S
C403 H469 0.962 . S
C403 H470 0.961 . S
C404 C371 1.587 . S
C404 C405 1.360 . S
C404 C417 1.412 . S
C405 C404 1.360 . S
C405 C406 1.365 . S
C405 H471 0.929 . S
C406 C381 1.553 . S
C406 C405 1.365 . S
C406 C407 1.404 . S
C407 C406 1.404 . S
C407 C408 1.395 . S
C407 C418 1.451 . S
C408 C407 1.395 . S
C408 C409 1.322 . S
C408 H472 0.930 . S
C409 C408 1.322 . S
C409 C410 1.459 . S
C409 H473 0.929 . S
C410 C409 1.459 . S
C410 C411 1.445 . S
C410 C419 1.395 . S
C411 C389 1.432 . S
C411 C410 1.445 . S
C411 C412 1.370 . S
C412 C411 1.370 . S
C412 C413 1.438 . S
C412 H474 0.930 . S
C413 C399 1.497 . S
C413 C412 1.438 . S
C413 C414 1.360 . S
C414 C413 1.360 . S
C414 C415 1.401 . S
C414 C419 1.446 . S
C415 C414 1.401 . S
C415 C416 1.347 . S
C415 H475 0.929 . S
C416 C415 1.347 . S
C416 C417 1.455 . S
C416 H476 0.930 . S
C417 C404 1.412 . S
C417 C416 1.455 . S
C417 C418 1.331 . S
C418 C407 1.451 . S
C418 C417 1.331 . S
C418 C419 1.497 . S
C419 C410 1.395 . S
C419 C414 1.446 . S
C419 C418 1.497 . S
C420 C421 1.582 . S
C420 H477 0.962 . S
C420 H478 0.959 . S
C420 H479 0.958 . S
C421 C420 1.582 . S
C421 O424 1.458 . S
C421 H450 0.980 . S
O422 C367 1.426 . S
O422 C368 1.334 . S
O423 C395 1.412 . S
O423 C396 1.393 . S
O424 C386 1.435 . S
O424 C421 1.458 . S
O425 C377 1.468 . S
O425 C378 1.408 . S
H426 C367 0.980 . S
H427 C366 0.959 . S
H428 C366 0.959 . S
H429 C366 0.960 . S
H430 C369 0.929 . S
H431 C373 0.929 . S
H432 C374 0.959 . S
H433 C374 0.961 . S
H434 C374 0.961 . S
H435 C375 0.960 . S
H436 C375 0.960 . S
H437 C375 0.961 . S
H438 C377 0.980 . S
H439 C376 0.961 . S
H440 C376 0.960 . S
H441 C376 0.959 . S
H442 C379 0.930 . S
H443 C383 0.931 . S
H444 C384 0.959 . S
H445 C384 0.961 . S
H446 C384 0.959 . S
H447 C385 0.960 . S
H448 C385 0.960 . S
H449 C385 0.960 . S
H450 C421 0.980 . S
H451 C387 0.930 . S
H452 C391 0.930 . S
H453 C392 0.961 . S
H454 C392 0.960 . S
H455 C392 0.958 . S
H456 C393 0.961 . S
H457 C393 0.960 . S
H458 C393 0.960 . S
H459 C395 0.980 . S
H460 C394 0.961 . S
H461 C394 0.961 . S
H462 C394 0.959 . S
H463 C397 0.932 . S
H464 C401 0.929 . S
H465 C402 0.961 . S
H466 C402 0.959 . S
H467 C402 0.959 . S
H468 C403 0.960 . S
H469 C403 0.962 . S
H470 C403 0.961 . S
H471 C405 0.929 . S
H472 C408 0.930 . S
H473 C409 0.929 . S
H474 C412 0.930 . S
H475 C415 0.929 . S
H476 C416 0.930 . S
H477 C420 0.962 . S
H478 C420 0.959 . S
H479 C420 0.958 . S
C480 C481 1.560 . S
C480 H541 0.959 . S
C480 H542 0.959 . S
C480 H543 0.960 . S
C481 C480 1.560 . S
C481 O536 1.426 . S
C481 H540 0.980 . S
C482 C483 1.407 . S
C482 C487 1.418 . S
C482 O536 1.334 . S
C483 C482 1.407 . S
C483 C484 1.360 . S
C483 H544 0.929 . S
C484 C483 1.360 . S
C484 C485 1.401 . S
C484 C488 1.527 . S
C485 C484 1.401 . S
C485 C486 1.405 . S
C485 C518 1.587 . S
C486 C485 1.405 . S
C486 C487 1.332 . S
C486 C489 1.496 . S
C487 C482 1.418 . S
C487 C486 1.332 . S
C487 H545 0.929 . S
C488 C484 1.527 . S
C488 H546 0.959 . S
C488 H547 0.961 . S
C488 H548 0.961 . S
C489 C486 1.496 . S
C489 H549 0.960 . S
C489 H550 0.960 . S
C489 H551 0.961 . S
C490 C491 1.517 . S
C490 H553 0.961 . S
C490 H554 0.960 . S
C490 H555 0.959 . S
C491 C490 1.517 . S
C491 O539 1.468 . S
C491 H552 0.980 . S
C492 C493 1.349 . S
C492 C497 1.367 . S
C492 O539 1.408 . S
C493 C492 1.349 . S
C493 C494 1.407 . S
C493 H556 0.930 . S
C494 C493 1.407 . S
C494 C495 1.449 . S
C494 C498 1.535 . S
C495 C494 1.449 . S
C495 C496 1.384 . S
C495 C520 1.553 . S
C496 C495 1.384 . S
C496 C497 1.364 . S
C496 C499 1.450 . S
C497 C492 1.367 . S
C497 C496 1.364 . S
C497 H557 0.931 . S
C498 C494 1.535 . S
C498 H558 0.959 . S
C498 H559 0.961 . S
C498 H560 0.959 . S
C499 C496 1.450 . S
C499 H561 0.960 . S
C499 H562 0.960 . S
C499 H563 0.960 . S
C500 C501 1.309 . S
C500 C505 1.304 . S
C500 O538 1.435 . S
C501 C500 1.309 . S
C501 C502 1.476 . S
C501 H565 0.930 . S
C502 C501 1.476 . S
C502 C503 1.400 . S
C502 C506 1.567 . S
C503 C502 1.400 . S
C503 C504 1.373 . S
C503 C525 1.432 . S
C504 C503 1.373 . S
C504 C505 1.339 . S
C504 C507 1.530 . S
C505 C500 1.304 . S
C505 C504 1.339 . S
C505 H566 0.930 . S
C506 C502 1.567 . S
C506 H567 0.961 . S
C506 H568 0.960 . S
C506 H569 0.958 . S
C507 C504 1.530 . S
C507 H570 0.961 . S
C507 H571 0.960 . S
C507 H572 0.960 . S
C508 C509 1.530 . S
C508 H574 0.961 . S
C508 H575 0.961 . S
C508 H576 0.959 . S
C509 C508 1.530 . S
C509 O537 1.412 . S
C509 H573 0.980 . S
C510 C511 1.288 . S
C510 C515 1.377 . S
C510 O537 1.393 . S
C511 C510 1.288 . S
C511 C512 1.369 . S
C511 H577 0.932 . S
C512 C511 1.369 . S
C512 C513 1.398 . S
C512 C516 1.527 . S
C513 C512 1.398 . S
C513 C514 1.380 . S
C513 C527 1.497 . S
C514 C513 1.380 . S
C514 C515 1.383 . S
C514 C517 1.603 . S
C515 C510 1.377 . S
C515 C514 1.383 . S
C515 H578 0.929 . S
C516 C512 1.527 . S
C516 H579 0.961 . S
C516 H580 0.959 . S
C516 H581 0.959 . S
C517 C514 1.603 . S
C517 H582 0.960 . S
C517 H583 0.962 . S
C517 H584 0.961 . S
C518 C485 1.587 . S
C518 C519 1.360 . S
C518 C531 1.412 . S
C519 C518 1.360 . S
C519 C520 1.365 . S
C519 H585 0.929 . S
C520 C495 1.553 . S
C520 C519 1.365 . S
C520 C521 1.404 . S
C521 C520 1.404 . S
C521 C522 1.395 . S
C521 C532 1.451 . S
C522 C521 1.395 . S
C522 C523 1.322 . S
C522 H586 0.930 . S
C523 C522 1.322 . S
C523 C524 1.459 . S
C523 H587 0.929 . S
C524 C523 1.459 . S
C524 C525 1.445 . S
C524 C533 1.395 . S
C525 C503 1.432 . S
C525 C524 1.445 . S
C525 C526 1.370 . S
C526 C525 1.370 . S
C526 C527 1.438 . S
C526 H588 0.930 . S
C527 C513 1.497 . S
C527 C526 1.438 . S
C527 C528 1.360 . S
C528 C527 1.360 . S
C528 C529 1.401 . S
C528 C533 1.446 . S
C529 C528 1.401 . S
C529 C530 1.347 . S
C529 H589 0.929 . S
C530 C529 1.347 . S
C530 C531 1.455 . S
C530 H590 0.930 . S
C531 C518 1.412 . S
C531 C530 1.455 . S
C531 C532 1.331 . S
C532 C521 1.451 . S
C532 C531 1.331 . S
C532 C533 1.497 . S
C533 C524 1.395 . S
C533 C528 1.446 . S
C533 C532 1.497 . S
C534 C535 1.582 . S
C534 H591 0.962 . S
C534 H592 0.959 . S
C534 H593 0.958 . S
C535 C534 1.582 . S
C535 O538 1.458 . S
C535 H564 0.980 . S
O536 C481 1.426 . S
O536 C482 1.334 . S
O537 C509 1.412 . S
O537 C510 1.393 . S
O538 C500 1.435 . S
O538 C535 1.458 . S
O539 C491 1.468 . S
O539 C492 1.408 . S
H540 C481 0.980 . S
H541 C480 0.959 . S
H542 C480 0.959 . S
H543 C480 0.960 . S
H544 C483 0.929 . S
H545 C487 0.929 . S
H546 C488 0.959 . S
H547 C488 0.961 . S
H548 C488 0.961 . S
H549 C489 0.960 . S
H550 C489 0.960 . S
H551 C489 0.961 . S
H552 C491 0.980 . S
H553 C490 0.961 . S
H554 C490 0.960 . S
H555 C490 0.959 . S
H556 C493 0.930 . S
H557 C497 0.931 . S
H558 C498 0.959 . S
H559 C498 0.961 . S
H560 C498 0.959 . S
H561 C499 0.960 . S
H562 C499 0.960 . S
H563 C499 0.960 . S
H564 C535 0.980 . S
H565 C501 0.930 . S
H566 C505 0.930 . S
H567 C506 0.961 . S
H568 C506 0.960 . S
H569 C506 0.958 . S
H570 C507 0.961 . S
H571 C507 0.960 . S
H572 C507 0.960 . S
H573 C509 0.980 . S
H574 C508 0.961 . S
H575 C508 0.961 . S
H576 C508 0.959 . S
H577 C511 0.932 . S
H578 C515 0.929 . S
H579 C516 0.961 . S
H580 C516 0.959 . S
H581 C516 0.959 . S
H582 C517 0.960 . S
H583 C517 0.962 . S
H584 C517 0.961 . S
H585 C519 0.929 . S
H586 C522 0.930 . S
H587 C523 0.929 . S
H588 C526 0.930 . S
H589 C529 0.929 . S
H590 C530 0.930 . S
H591 C534 0.962 . S
H592 C534 0.959 . S
H593 C534 0.958 . S
C594 C595 1.560 . S
C594 H655 0.959 . S
C594 H656 0.959 . S
C594 H657 0.960 . S
C595 C594 1.560 . S
C595 O650 1.426 . S
C595 H654 0.980 . S
C596 C597 1.407 . S
C596 C601 1.418 . S
C596 O650 1.334 . S
C597 C596 1.407 . S
C597 C598 1.360 . S
C597 H658 0.929 . S
C598 C597 1.360 . S
C598 C599 1.401 . S
C598 C602 1.527 . S
C599 C598 1.401 . S
C599 C600 1.405 . S
C599 C632 1.587 . S
C600 C599 1.405 . S
C600 C601 1.332 . S
C600 C603 1.496 . S
C601 C596 1.418 . S
C601 C600 1.332 . S
C601 H659 0.929 . S
C602 C598 1.527 . S
C602 H660 0.959 . S
C602 H661 0.961 . S
C602 H662 0.961 . S
C603 C600 1.496 . S
C603 H663 0.960 . S
C603 H664 0.960 . S
C603 H665 0.961 . S
C604 C605 1.517 . S
C604 H667 0.961 . S
C604 H668 0.960 . S
C604 H669 0.959 . S
C605 C604 1.517 . S
C605 O653 1.468 . S
C605 H666 0.980 . S
C606 C607 1.349 . S
C606 C611 1.367 . S
C606 O653 1.408 . S
C607 C606 1.349 . S
C607 C608 1.407 . S
C607 H670 0.930 . S
C608 C607 1.407 . S
C608 C609 1.449 . S
C608 C612 1.535 . S
C609 C608 1.449 . S
C609 C610 1.384 . S
C609 C634 1.553 . S
C610 C609 1.384 . S
C610 C611 1.364 . S
C610 C613 1.450 . S
C611 C606 1.367 . S
C611 C610 1.364 . S
C611 H671 0.931 . S
C612 C608 1.535 . S
C612 H672 0.959 . S
C612 H673 0.961 . S
C612 H674 0.959 . S
C613 C610 1.450 . S
C613 H675 0.960 . S
C613 H676 0.960 . S
C613 H677 0.960 . S
C614 C615 1.309 . S
C614 C619 1.304 . S
C614 O652 1.435 . S
C615 C614 1.309 . S
C615 C616 1.476 . S
C615 H679 0.930 . S
C616 C615 1.476 . S
C616 C617 1.400 . S
C616 C620 1.567 . S
C617 C616 1.400 . S
C617 C618 1.373 . S
C617 C639 1.432 . S
C618 C617 1.373 . S
C618 C619 1.339 . S
C618 C621 1.530 . S
C619 C614 1.304 . S
C619 C618 1.339 . S
C619 H680 0.930 . S
C620 C616 1.567 . S
C620 H681 0.961 . S
C620 H682 0.960 . S
C620 H683 0.958 . S
C621 C618 1.530 . S
C621 H684 0.961 . S
C621 H685 0.960 . S
C621 H686 0.960 . S
C622 C623 1.530 . S
C622 H688 0.961 . S
C622 H689 0.961 . S
C622 H690 0.959 . S
C623 C622 1.530 . S
C623 O651 1.412 . S
C623 H687 0.980 . S
C624 C625 1.288 . S
C624 C629 1.377 . S
C624 O651 1.393 . S
C625 C624 1.288 . S
C625 C626 1.369 . S
C625 H691 0.932 . S
C626 C625 1.369 . S
C626 C627 1.398 . S
C626 C630 1.527 . S
C627 C626 1.398 . S
C627 C628 1.380 . S
C627 C641 1.497 . S
C628 C627 1.380 . S
C628 C629 1.383 . S
C628 C631 1.603 . S
C629 C624 1.377 . S
C629 C628 1.383 . S
C629 H692 0.929 . S
C630 C626 1.527 . S
C630 H693 0.961 . S
C630 H694 0.959 . S
C630 H695 0.959 . S
C631 C628 1.603 . S
C631 H696 0.960 . S
C631 H697 0.962 . S
C631 H698 0.961 . S
C632 C599 1.587 . S
C632 C633 1.360 . S
C632 C645 1.412 . S
C633 C632 1.360 . S
C633 C634 1.365 . S
C633 H699 0.929 . S
C634 C609 1.553 . S
C634 C633 1.365 . S
C634 C635 1.404 . S
C635 C634 1.404 . S
C635 C636 1.395 . S
C635 C646 1.451 . S
C636 C635 1.395 . S
C636 C637 1.322 . S
C636 H700 0.930 . S
C637 C636 1.322 . S
C637 C638 1.459 . S
C637 H701 0.929 . S
C638 C637 1.459 . S
C638 C639 1.445 . S
C638 C647 1.395 . S
C639 C617 1.432 . S
C639 C638 1.445 . S
C639 C640 1.370 . S
C640 C639 1.370 . S
C640 C641 1.438 . S
C640 H702 0.930 . S
C641 C627 1.497 . S
C641 C640 1.438 . S
C641 C642 1.360 . S
C642 C641 1.360 . S
C642 C643 1.401 . S
C642 C647 1.446 . S
C643 C642 1.401 . S
C643 C644 1.347 . S
C643 H703 0.929 . S
C644 C643 1.347 . S
C644 C645 1.455 . S
C644 H704 0.930 . S
C645 C632 1.412 . S
C645 C644 1.455 . S
C645 C646 1.331 . S
C646 C635 1.451 . S
C646 C645 1.331 . S
C646 C647 1.497 . S
C647 C638 1.395 . S
C647 C642 1.446 . S
C647 C646 1.497 . S
C648 C649 1.582 . S
C648 H705 0.962 . S
C648 H706 0.959 . S
C648 H707 0.958 . S
C649 C648 1.582 . S
C649 O652 1.458 . S
C649 H678 0.980 . S
O650 C595 1.426 . S
O650 C596 1.334 . S
O651 C623 1.412 . S
O651 C624 1.393 . S
O652 C614 1.435 . S
O652 C649 1.458 . S
O653 C605 1.468 . S
O653 C606 1.408 . S
H654 C595 0.980 . S
H655 C594 0.959 . S
H656 C594 0.959 . S
H657 C594 0.960 . S
H658 C597 0.929 . S
H659 C601 0.929 . S
H660 C602 0.959 . S
H661 C602 0.961 . S
H662 C602 0.961 . S
H663 C603 0.960 . S
H664 C603 0.960 . S
H665 C603 0.961 . S
H666 C605 0.980 . S
H667 C604 0.961 . S
H668 C604 0.960 . S
H669 C604 0.959 . S
H670 C607 0.930 . S
H671 C611 0.931 . S
H672 C612 0.959 . S
H673 C612 0.961 . S
H674 C612 0.959 . S
H675 C613 0.960 . S
H676 C613 0.960 . S
H677 C613 0.960 . S
H678 C649 0.980 . S
H679 C615 0.930 . S
H680 C619 0.930 . S
H681 C620 0.961 . S
H682 C620 0.960 . S
H683 C620 0.958 . S
H684 C621 0.961 . S
H685 C621 0.960 . S
H686 C621 0.960 . S
H687 C623 0.980 . S
H688 C622 0.961 . S
H689 C622 0.961 . S
H690 C622 0.959 . S
H691 C625 0.932 . S
H692 C629 0.929 . S
H693 C630 0.961 . S
H694 C630 0.959 . S
H695 C630 0.959 . S
H696 C631 0.960 . S
H697 C631 0.962 . S
H698 C631 0.961 . S
H699 C633 0.929 . S
H700 C636 0.930 . S
H701 C637 0.929 . S
H702 C640 0.930 . S
H703 C643 0.929 . S
H704 C644 0.930 . S
H705 C648 0.962 . S
H706 C648 0.959 . S
H707 C648 0.958 . S
C708 C709 1.560 . S
C708 H769 0.959 . S
C708 H770 0.959 . S
C708 H771 0.960 . S
C709 C708 1.560 . S
C709 O764 1.426 . S
C709 H768 0.980 . S
C710 C711 1.407 . S
C710 C715 1.418 . S
C710 O764 1.334 . S
C711 C710 1.407 . S
C711 C712 1.360 . S
C711 H772 0.929 . S
C712 C711 1.360 . S
C712 C713 1.401 . S
C712 C716 1.527 . S
C713 C712 1.401 . S
C713 C714 1.405 . S
C713 C746 1.587 . S
C714 C713 1.405 . S
C714 C715 1.332 . S
C714 C717 1.496 . S
C715 C710 1.418 . S
C715 C714 1.332 . S
C715 H773 0.929 . S
C716 C712 1.527 . S
C716 H774 0.959 . S
C716 H775 0.961 . S
C716 H776 0.961 . S
C717 C714 1.496 . S
C717 H777 0.960 . S
C717 H778 0.960 . S
C717 H779 0.961 . S
C718 C719 1.517 . S
C718 H781 0.961 . S
C718 H782 0.960 . S
C718 H783 0.959 . S
C719 C718 1.517 . S
C719 O767 1.468 . S
C719 H780 0.980 . S
C720 C721 1.349 . S
C720 C725 1.367 . S
C720 O767 1.408 . S
C721 C720 1.349 . S
C721 C722 1.407 . S
C721 H784 0.930 . S
C722 C721 1.407 . S
C722 C723 1.449 . S
C722 C726 1.535 . S
C723 C722 1.449 . S
C723 C724 1.384 . S
C723 C748 1.553 . S
C724 C723 1.384 . S
C724 C725 1.364 . S
C724 C727 1.450 . S
C725 C720 1.367 . S
C725 C724 1.364 . S
C725 H785 0.931 . S
C726 C722 1.535 . S
C726 H786 0.959 . S
C726 H787 0.961 . S
C726 H788 0.959 . S
C727 C724 1.450 . S
C727 H789 0.960 . S
C727 H790 0.960 . S
C727 H791 0.960 . S
C728 C729 1.309 . S
C728 C733 1.304 . S
C728 O766 1.435 . S
C729 C728 1.309 . S
C729 C730 1.476 . S
C729 H793 0.930 . S
C730 C729 1.476 . S
C730 C731 1.400 . S
C730 C734 1.567 . S
C731 C730 1.400 . S
C731 C732 1.373 . S
C731 C753 1.432 . S
C732 C731 1.373 . S
C732 C733 1.339 . S
C732 C735 1.530 . S
C733 C728 1.304 . S
C733 C732 1.339 . S
C733 H794 0.930 . S
C734 C730 1.567 . S
C734 H795 0.961 . S
C734 H796 0.960 . S
C734 H797 0.958 . S
C735 C732 1.530 . S
C735 H798 0.961 . S
C735 H799 0.960 . S
C735 H800 0.960 . S
C736 C737 1.530 . S
C736 H802 0.961 . S
C736 H803 0.961 . S
C736 H804 0.959 . S
C737 C736 1.530 . S
C737 O765 1.412 . S
C737 H801 0.980 . S
C738 C739 1.288 . S
C738 C743 1.377 . S
C738 O765 1.393 . S
C739 C738 1.288 . S
C739 C740 1.369 . S
C739 H805 0.932 . S
C740 C739 1.369 . S
C740 C741 1.398 . S
C740 C744 1.527 . S
C741 C740 1.398 . S
C741 C742 1.380 . S
C741 C755 1.497 . S
C742 C741 1.380 . S
C742 C743 1.383 . S
C742 C745 1.603 . S
C743 C738 1.377 . S
C743 C742 1.383 . S
C743 H806 0.929 . S
C744 C740 1.527 . S
C744 H807 0.961 . S
C744 H808 0.959 . S
C744 H809 0.959 . S
C745 C742 1.603 . S
C745 H810 0.960 . S
C745 H811 0.962 . S
C745 H812 0.961 . S
C746 C713 1.587 . S
C746 C747 1.360 . S
C746 C759 1.412 . S
C747 C746 1.360 . S
C747 C748 1.365 . S
C747 H813 0.929 . S
C748 C723 1.553 . S
C748 C747 1.365 . S
C748 C749 1.404 . S
C749 C748 1.404 . S
C749 C750 1.395 . S
C749 C760 1.451 . S
C750 C749 1.395 . S
C750 C751 1.322 . S
C750 H814 0.930 . S
C751 C750 1.322 . S
C751 C752 1.459 . S
C751 H815 0.929 . S
C752 C751 1.459 . S
C752 C753 1.445 . S
C752 C761 1.395 . S
C753 C731 1.432 . S
C753 C752 1.445 . S
C753 C754 1.370 . S
C754 C753 1.370 . S
C754 C755 1.438 . S
C754 H816 0.930 . S
C755 C741 1.497 . S
C755 C754 1.438 . S
C755 C756 1.360 . S
C756 C755 1.360 . S
C756 C757 1.401 . S
C756 C761 1.446 . S
C757 C756 1.401 . S
C757 C758 1.347 . S
C757 H817 0.929 . S
C758 C757 1.347 . S
C758 C759 1.455 . S
C758 H818 0.930 . S
C759 C746 1.412 . S
C759 C758 1.455 . S
C759 C760 1.331 . S
C760 C749 1.451 . S
C760 C759 1.331 . S
C760 C761 1.497 . S
C761 C752 1.395 . S
C761 C756 1.446 . S
C761 C760 1.497 . S
C762 C763 1.582 . S
C762 H819 0.962 . S
C762 H820 0.959 . S
C762 H821 0.958 . S
C763 C762 1.582 . S
C763 O766 1.458 . S
C763 H792 0.980 . S
O764 C709 1.426 . S
O764 C710 1.334 . S
O765 C737 1.412 . S
O765 C738 1.393 . S
O766 C728 1.435 . S
O766 C763 1.458 . S
O767 C719 1.468 . S
O767 C720 1.408 . S
H768 C709 0.980 . S
H769 C708 0.959 . S
H770 C708 0.959 . S
H771 C708 0.960 . S
H772 C711 0.929 . S
H773 C715 0.929 . S
H774 C716 0.959 . S
H775 C716 0.961 . S
H776 C716 0.961 . S
H777 C717 0.960 . S
H778 C717 0.960 . S
H779 C717 0.961 . S
H780 C719 0.980 . S
H781 C718 0.961 . S
H782 C718 0.960 . S
H783 C718 0.959 . S
H784 C721 0.930 . S
H785 C725 0.931 . S
H786 C726 0.959 . S
H787 C726 0.961 . S
H788 C726 0.959 . S
H789 C727 0.960 . S
H790 C727 0.960 . S
H791 C727 0.960 . S
H792 C763 0.980 . S
H793 C729 0.930 . S
H794 C733 0.930 . S
H795 C734 0.961 . S
H796 C734 0.960 . S
H797 C734 0.958 . S
H798 C735 0.961 . S
H799 C735 0.960 . S
H800 C735 0.960 . S
H801 C737 0.980 . S
H802 C736 0.961 . S
H803 C736 0.961 . S
H804 C736 0.959 . S
H805 C739 0.932 . S
H806 C743 0.929 . S
H807 C744 0.961 . S
H808 C744 0.959 . S
H809 C744 0.959 . S
H810 C745 0.960 . S
H811 C745 0.962 . S
H812 C745 0.961 . S
H813 C747 0.929 . S
H814 C750 0.930 . S
H815 C751 0.929 . S
H816 C754 0.930 . S
H817 C757 0.929 . S
H818 C758 0.930 . S
H819 C762 0.962 . S
H820 C762 0.959 . S
H821 C762 0.958 . S
C822 C823 1.560 . S
C822 H883 0.959 . S
C822 H884 0.959 . S
C822 H885 0.960 . S
C823 C822 1.560 . S
C823 O878 1.426 . S
C823 H882 0.980 . S
C824 C825 1.407 . S
C824 C829 1.418 . S
C824 O878 1.334 . S
C825 C824 1.407 . S
C825 C826 1.360 . S
C825 H886 0.929 . S
C826 C825 1.360 . S
C826 C827 1.401 . S
C826 C830 1.527 . S
C827 C826 1.401 . S
C827 C828 1.405 . S
C827 C860 1.587 . S
C828 C827 1.405 . S
C828 C829 1.332 . S
C828 C831 1.496 . S
C829 C824 1.418 . S
C829 C828 1.332 . S
C829 H887 0.929 . S
C830 C826 1.527 . S
C830 H888 0.959 . S
C830 H889 0.961 . S
C830 H890 0.961 . S
C831 C828 1.496 . S
C831 H891 0.960 . S
C831 H892 0.960 . S
C831 H893 0.961 . S
C832 C833 1.517 . S
C832 H895 0.961 . S
C832 H896 0.960 . S
C832 H897 0.959 . S
C833 C832 1.517 . S
C833 O881 1.468 . S
C833 H894 0.980 . S
C834 C835 1.349 . S
C834 C839 1.367 . S
C834 O881 1.408 . S
C835 C834 1.349 . S
C835 C836 1.407 . S
C835 H898 0.930 . S
C836 C835 1.407 . S
C836 C837 1.449 . S
C836 C840 1.535 . S
C837 C836 1.449 . S
C837 C838 1.384 . S
C837 C862 1.553 . S
C838 C837 1.384 . S
C838 C839 1.364 . S
C838 C841 1.450 . S
C839 C834 1.367 . S
C839 C838 1.364 . S
C839 H899 0.931 . S
C840 C836 1.535 . S
C840 H900 0.959 . S
C840 H901 0.961 . S
C840 H902 0.959 . S
C841 C838 1.450 . S
C841 H903 0.960 . S
C841 H904 0.960 . S
C841 H905 0.960 . S
C842 C843 1.309 . S
C842 C847 1.304 . S
C842 O880 1.435 . S
C843 C842 1.309 . S
C843 C844 1.476 . S
C843 H907 0.930 . S
C844 C843 1.476 . S
C844 C845 1.400 . S
C844 C848 1.567 . S
C845 C844 1.400 . S
C845 C846 1.373 . S
C845 C867 1.432 . S
C846 C845 1.373 . S
C846 C847 1.339 . S
C846 C849 1.530 . S
C847 C842 1.304 . S
C847 C846 1.339 . S
C847 H908 0.930 . S
C848 C844 1.567 . S
C848 H909 0.961 . S
C848 H910 0.960 . S
C848 H911 0.958 . S
C849 C846 1.530 . S
C849 H912 0.961 . S
C849 H913 0.960 . S
C849 H914 0.960 . S
C850 C851 1.530 . S
C850 H916 0.961 . S
C850 H917 0.961 . S
C850 H918 0.959 . S
C851 C850 1.530 . S
C851 O879 1.412 . S
C851 H915 0.980 . S
C852 C853 1.288 . S
C852 C857 1.377 . S
C852 O879 1.393 . S
C853 C852 1.288 . S
C853 C854 1.369 . S
C853 H919 0.932 . S
C854 C853 1.369 . S
C854 C855 1.398 . S
C854 C858 1.527 . S
C855 C854 1.398 . S
C855 C856 1.380 . S
C855 C869 1.497 . S
C856 C855 1.380 . S
C856 C857 1.383 . S
C856 C859 1.603 . S
C857 C852 1.377 . S
C857 C856 1.383 . S
C857 H920 0.929 . S
C858 C854 1.527 . S
C858 H921 0.961 . S
C858 H922 0.959 . S
C858 H923 0.959 . S
C859 C856 1.603 . S
C859 H924 0.960 . S
C859 H925 0.962 . S
C859 H926 0.961 . S
C860 C827 1.587 . S
C860 C861 1.360 . S
C860 C873 1.412 . S
C861 C860 1.360 . S
C861 C862 1.365 . S
C861 H927 0.929 . S
C862 C837 1.553 . S
C862 C861 1.365 . S
C862 C863 1.404 . S
C863 C862 1.404 . S
C863 C864 1.395 . S
C863 C874 1.451 . S
C864 C863 1.395 . S
C864 C865 1.322 . S
C864 H928 0.930 . S
C865 C864 1.322 . S
C865 C866 1.459 . S
C865 H929 0.929 . S
C866 C865 1.459 . S
C866 C867 1.445 . S
C866 C875 1.395 . S
C867 C845 1.432 . S
C867 C866 1.445 . S
C867 C868 1.370 . S
C868 C867 1.370 . S
C868 C869 1.438 . S
C868 H930 0.930 . S
C869 C855 1.497 . S
C869 C868 1.438 . S
C869 C870 1.360 . S
C870 C869 1.360 . S
C870 C871 1.401 . S
C870 C875 1.446 . S
C871 C870 1.401 . S
C871 C872 1.347 . S
C871 H931 0.929 . S
C872 C871 1.347 . S
C872 C873 1.455 . S
C872 H932 0.930 . S
C873 C860 1.412 . S
C873 C872 1.455 . S
C873 C874 1.331 . S
C874 C863 1.451 . S
C874 C873 1.331 . S
C874 C875 1.497 . S
C875 C866 1.395 . S
C875 C870 1.446 . S
C875 C874 1.497 . S
C876 C877 1.582 . S
C876 H933 0.962 . S
C876 H934 0.959 . S
C876 H935 0.958 . S
C877 C876 1.582 . S
C877 O880 1.458 . S
C877 H906 0.980 . S
O878 C823 1.426 . S
O878 C824 1.334 . S
O879 C851 1.412 . S
O879 C852 1.393 . S
O880 C842 1.435 . S
O880 C877 1.458 . S
O881 C833 1.468 . S
O881 C834 1.408 . S
H882 C823 0.980 . S
H883 C822 0.959 . S
H884 C822 0.959 . S
H885 C822 0.960 . S
H886 C825 0.929 . S
H887 C829 0.929 . S
H888 C830 0.959 . S
H889 C830 0.961 . S
H890 C830 0.961 . S
H891 C831 0.960 . S
H892 C831 0.960 . S
H893 C831 0.961 . S
H894 C833 0.980 . S
H895 C832 0.961 . S
H896 C832 0.960 . S
H897 C832 0.959 . S
H898 C835 0.930 . S
H899 C839 0.931 . S
H900 C840 0.959 . S
H901 C840 0.961 . S
H902 C840 0.959 . S
H903 C841 0.960 . S
H904 C841 0.960 . S
H905 C841 0.960 . S
H906 C877 0.980 . S
H907 C843 0.930 . S
H908 C847 0.930 . S
H909 C848 0.961 . S
H910 C848 0.960 . S
H911 C848 0.958 . S
H912 C849 0.961 . S
H913 C849 0.960 . S
H914 C849 0.960 . S
H915 C851 0.980 . S
H916 C850 0.961 . S
H917 C850 0.961 . S
H918 C850 0.959 . S
H919 C853 0.932 . S
H920 C857 0.929 . S
H921 C858 0.961 . S
H922 C858 0.959 . S
H923 C858 0.959 . S
H924 C859 0.960 . S
H925 C859 0.962 . S
H926 C859 0.961 . S
H927 C861 0.929 . S
H928 C864 0.930 . S
H929 C865 0.929 . S
H930 C868 0.930 . S
H931 C871 0.929 . S
H932 C872 0.930 . S
H933 C876 0.962 . S
H934 C876 0.959 . S
H935 C876 0.958 . S
C936 C937 1.560 . S
C936 H997 0.959 . S
C936 H998 0.959 . S
C936 H999 0.960 . S
C937 C936 1.560 . S
C937 O992 1.426 . S
C937 H996 0.980 . S
C938 C939 1.407 . S
C938 C943 1.418 . S
C938 O992 1.334 . S
C939 C938 1.407 . S
C939 C940 1.360 . S
C939 H1000 0.929 . S
C940 C939 1.360 . S
C940 C941 1.401 . S
C940 C944 1.527 . S
C941 C940 1.401 . S
C941 C942 1.405 . S
C941 C974 1.587 . S
C942 C941 1.405 . S
C942 C943 1.332 . S
C942 C945 1.496 . S
C943 C938 1.418 . S
C943 C942 1.332 . S
C943 H1001 0.929 . S
C944 C940 1.527 . S
C944 H1002 0.959 . S
C944 H1003 0.961 . S
C944 H1004 0.961 . S
C945 C942 1.496 . S
C945 H1005 0.960 . S
C945 H1006 0.960 . S
C945 H1007 0.961 . S
C946 C947 1.517 . S
C946 H1009 0.961 . S
C946 H1010 0.960 . S
C946 H1011 0.959 . S
C947 C946 1.517 . S
C947 O995 1.468 . S
C947 H1008 0.980 . S
C948 C949 1.349 . S
C948 C953 1.367 . S
C948 O995 1.408 . S
C949 C948 1.349 . S
C949 C950 1.407 . S
C949 H1012 0.930 . S
C950 C949 1.407 . S
C950 C951 1.449 . S
C950 C954 1.535 . S
C951 C950 1.449 . S
C951 C952 1.384 . S
C951 C976 1.553 . S
C952 C951 1.384 . S
C952 C953 1.364 . S
C952 C955 1.450 . S
C953 C948 1.367 . S
C953 C952 1.364 . S
C953 H1013 0.931 . S
C954 C950 1.535 . S
C954 H1014 0.959 . S
C954 H1015 0.961 . S
C954 H1016 0.959 . S
C955 C952 1.450 . S
C955 H1017 0.960 . S
C955 H1018 0.960 . S
C955 H1019 0.960 . S
C956 C957 1.309 . S
C956 C961 1.304 . S
C956 O994 1.435 . S
C957 C956 1.309 . S
C957 C958 1.476 . S
C957 H1021 0.930 . S
C958 C957 1.476 . S
C958 C959 1.400 . S
C958 C962 1.567 . S
C959 C958 1.400 . S
C959 C960 1.373 . S
C959 C981 1.432 . S
C960 C959 1.373 . S
C960 C961 1.339 . S
C960 C963 1.530 . S
C961 C956 1.304 . S
C961 C960 1.339 . S
C961 H1022 0.930 . S
C962 C958 1.567 . S
C962 H1023 0.961 . S
C962 H1024 0.960 . S
C962 H1025 0.958 . S
C963 C960 1.530 . S
C963 H1026 0.961 . S
C963 H1027 0.960 . S
C963 H1028 0.960 . S
C964 C965 1.530 . S
C964 H1030 0.961 . S
C964 H1031 0.961 . S
C964 H1032 0.959 . S
C965 C964 1.530 . S
C965 O993 1.412 . S
C965 H1029 0.980 . S
C966 C967 1.288 . S
C966 C971 1.377 . S
C966 O993 1.393 . S
C967 C966 1.288 . S
C967 C968 1.369 . S
C967 H1033 0.932 . S
C968 C967 1.369 . S
C968 C969 1.398 . S
C968 C972 1.527 . S
C969 C968 1.398 . S
C969 C970 1.380 . S
C969 C983 1.497 . S
C970 C969 1.380 . S
C970 C971 1.383 . S
C970 C973 1.603 . S
C971 C966 1.377 . S
C971 C970 1.383 . S
C971 H1034 0.929 . S
C972 C968 1.527 . S
C972 H1035 0.961 . S
C972 H1036 0.959 . S
C972 H1037 0.959 . S
C973 C970 1.603 . S
C973 H1038 0.960 . S
C973 H1039 0.962 . S
C973 H1040 0.961 . S
C974 C941 1.587 . S
C974 C975 1.360 . S
C974 C987 1.412 . S
C975 C974 1.360 . S
C975 C976 1.365 . S
C975 H1041 0.929 . S
C976 C951 1.553 . S
C976 C975 1.365 . S
C976 C977 1.404 . S
C977 C976 1.404 . S
C977 C978 1.395 . S
C977 C988 1.451 . S
C978 C977 1.395 . S
C978 C979 1.322 . S
C978 H1042 0.930 . S
C979 C978 1.322 . S
C979 C980 1.459 . S
C979 H1043 0.929 . S
C980 C979 1.459 . S
C980 C981 1.445 . S
C980 C989 1.395 . S
C981 C959 1.432 . S
C981 C980 1.445 . S
C981 C982 1.370 . S
C982 C981 1.370 . S
C982 C983 1.438 . S
C982 H1044 0.930 . S
C983 C969 1.497 . S
C983 C982 1.438 . S
C983 C984 1.360 . S
C984 C983 1.360 . S
C984 C985 1.401 . S
C984 C989 1.446 . S
C985 C984 1.401 . S
C985 C986 1.347 . S
C985 H1045 0.929 . S
C986 C985 1.347 . S
C986 C987 1.455 . S
C986 H1046 0.930 . S
C987 C974 1.412 . S
C987 C986 1.455 . S
C987 C988 1.331 . S
C988 C977 1.451 . S
C988 C987 1.331 . S
C988 C989 1.497 . S
C989 C980 1.395 . S
C989 C984 1.446 . S
C989 C988 1.497 . S
C990 C991 1.582 . S
C990 H1047 0.962 . S
C990 H1048 0.959 . S
C990 H1049 0.958 . S
C991 C990 1.582 . S
C991 O994 1.458 . S
C991 H1020 0.980 . S
O992 C937 1.426 . S
O992 C938 1.334 . S
O993 C965 1.412 . S
O993 C966 1.393 . S
O994 C956 1.435 . S
O994 C991 1.458 . S
O995 C947 1.468 . S
O995 C948 1.408 . S
H996 C937 0.980 . S
H997 C936 0.959 . S
H998 C936 0.959 . S
H999 C936 0.960 . S
H1000 C939 0.929 . S
H1001 C943 0.929 . S
H1002 C944 0.959 . S
H1003 C944 0.961 . S
H1004 C944 0.961 . S
H1005 C945 0.960 . S
H1006 C945 0.960 . S
H1007 C945 0.961 . S
H1008 C947 0.980 . S
H1009 C946 0.961 . S
H1010 C946 0.960 . S
H1011 C946 0.959 . S
H1012 C949 0.930 . S
H1013 C953 0.931 . S
H1014 C954 0.959 . S
H1015 C954 0.961 . S
H1016 C954 0.959 . S
H1017 C955 0.960 . S
H1018 C955 0.960 . S
H1019 C955 0.960 . S
H1020 C991 0.980 . S
H1021 C957 0.930 . S
H1022 C961 0.930 . S
H1023 C962 0.961 . S
H1024 C962 0.960 . S
H1025 C962 0.958 . S
H1026 C963 0.961 . S
H1027 C963 0.960 . S
H1028 C963 0.960 . S
H1029 C965 0.980 . S
H1030 C964 0.961 . S
H1031 C964 0.961 . S
H1032 C964 0.959 . S
H1033 C967 0.932 . S
H1034 C971 0.929 . S
H1035 C972 0.961 . S
H1036 C972 0.959 . S
H1037 C972 0.959 . S
H1038 C973 0.960 . S
H1039 C973 0.962 . S
H1040 C973 0.961 . S
H1041 C975 0.929 . S
H1042 C978 0.930 . S
H1043 C979 0.929 . S
H1044 C982 0.930 . S
H1045 C985 0.929 . S
H1046 C986 0.930 . S
H1047 C990 0.962 . S
H1048 C990 0.959 . S
H1049 C990 0.958 . S
C1050 C1051 1.560 . S
C1050 H1111 0.959 . S
C1050 H1112 0.959 . S
C1050 H1113 0.960 . S
C1051 C1050 1.560 . S
C1051 O1106 1.426 . S
C1051 H1110 0.980 . S
C1052 C1053 1.407 . S
C1052 C1057 1.418 . S
C1052 O1106 1.334 . S
C1053 C1052 1.407 . S
C1053 C1054 1.360 . S
C1053 H1114 0.929 . S
C1054 C1053 1.360 . S
C1054 C1055 1.401 . S
C1054 C1058 1.527 . S
C1055 C1054 1.401 . S
C1055 C1056 1.405 . S
C1055 C1088 1.587 . S
C1056 C1055 1.405 . S
C1056 C1057 1.332 . S
C1056 C1059 1.496 . S
C1057 C1052 1.418 . S
C1057 C1056 1.332 . S
C1057 H1115 0.929 . S
C1058 C1054 1.527 . S
C1058 H1116 0.959 . S
C1058 H1117 0.961 . S
C1058 H1118 0.961 . S
C1059 C1056 1.496 . S
C1059 H1119 0.960 . S
C1059 H1120 0.960 . S
C1059 H1121 0.961 . S
C1060 C1061 1.517 . S
C1060 H1123 0.961 . S
C1060 H1124 0.960 . S
C1060 H1125 0.959 . S
C1061 C1060 1.517 . S
C1061 O1109 1.468 . S
C1061 H1122 0.980 . S
C1062 C1063 1.349 . S
C1062 C1067 1.367 . S
C1062 O1109 1.408 . S
C1063 C1062 1.349 . S
C1063 C1064 1.407 . S
C1063 H1126 0.930 . S
C1064 C1063 1.407 . S
C1064 C1065 1.449 . S
C1064 C1068 1.535 . S
C1065 C1064 1.449 . S
C1065 C1066 1.384 . S
C1065 C1090 1.553 . S
C1066 C1065 1.384 . S
C1066 C1067 1.364 . S
C1066 C1069 1.450 . S
C1067 C1062 1.367 . S
C1067 C1066 1.364 . S
C1067 H1127 0.931 . S
C1068 C1064 1.535 . S
C1068 H1128 0.959 . S
C1068 H1129 0.961 . S
C1068 H1130 0.959 . S
C1069 C1066 1.450 . S
C1069 H1131 0.960 . S
C1069 H1132 0.960 . S
C1069 H1133 0.960 . S
C1070 C1071 1.309 . S
C1070 C1075 1.304 . S
C1070 O1108 1.435 . S
C1071 C1070 1.309 . S
C1071 C1072 1.476 . S
C1071 H1135 0.930 . S
C1072 C1071 1.476 . S
C1072 C1073 1.400 . S
C1072 C1076 1.567 . S
C1073 C1072 1.400 . S
C1073 C1074 1.373 . S
C1073 C1095 1.432 . S
C1074 C1073 1.373 . S
C1074 C1075 1.339 . S
C1074 C1077 1.530 . S
C1075 C1070 1.304 . S
C1075 C1074 1.339 . S
C1075 H1136 0.930 . S
C1076 C1072 1.567 . S
C1076 H1137 0.961 . S
C1076 H1138 0.960 . S
C1076 H1139 0.958 . S
C1077 C1074 1.530 . S
C1077 H1140 0.961 . S
C1077 H1141 0.960 . S
C1077 H1142 0.960 . S
C1078 C1079 1.530 . S
C1078 H1144 0.961 . S
C1078 H1145 0.961 . S
C1078 H1146 0.959 . S
C1079 C1078 1.530 . S
C1079 O1107 1.412 . S
C1079 H1143 0.980 . S
C1080 C1081 1.288 . S
C1080 C1085 1.377 . S
C1080 O1107 1.393 . S
C1081 C1080 1.288 . S
C1081 C1082 1.369 . S
C1081 H1147 0.932 . S
C1082 C1081 1.369 . S
C1082 C1083 1.398 . S
C1082 C1086 1.527 . S
C1083 C1082 1.398 . S
C1083 C1084 1.380 . S
C1083 C1097 1.497 . S
C1084 C1083 1.380 . S
C1084 C1085 1.383 . S
C1084 C1087 1.603 . S
C1085 C1080 1.377 . S
C1085 C1084 1.383 . S
C1085 H1148 0.929 . S
C1086 C1082 1.527 . S
C1086 H1149 0.961 . S
C1086 H1150 0.959 . S
C1086 H1151 0.959 . S
C1087 C1084 1.603 . S
C1087 H1152 0.960 . S
C1087 H1153 0.962 . S
C1087 H1154 0.961 . S
C1088 C1055 1.587 . S
C1088 C1089 1.360 . S
C1088 C1101 1.412 . S
C1089 C1088 1.360 . S
C1089 C1090 1.365 . S
C1089 H1155 0.929 . S
C1090 C1065 1.553 . S
C1090 C1089 1.365 . S
C1090 C1091 1.404 . S
C1091 C1090 1.404 . S
C1091 C1092 1.395 . S
C1091 C1102 1.451 . S
C1092 C1091 1.395 . S
C1092 C1093 1.322 . S
C1092 H1156 0.930 . S
C1093 C1092 1.322 . S
C1093 C1094 1.459 . S
C1093 H1157 0.929 . S
C1094 C1093 1.459 . S
C1094 C1095 1.445 . S
C1094 C1103 1.395 . S
C1095 C1073 1.432 . S
C1095 C1094 1.445 . S
C1095 C1096 1.370 . S
C1096 C1095 1.370 . S
C1096 C1097 1.438 . S
C1096 H1158 0.930 . S
C1097 C1083 1.497 . S
C1097 C1096 1.438 . S
C1097 C1098 1.360 . S
C1098 C1097 1.360 . S
C1098 C1099 1.401 . S
C1098 C1103 1.446 . S
C1099 C1098 1.401 . S
C1099 C1100 1.347 . S
C1099 H1159 0.929 . S
C1100 C1099 1.347 . S
C1100 C1101 1.455 . S
C1100 H1160 0.930 . S
C1101 C1088 1.412 . S
C1101 C1100 1.455 . S
C1101 C1102 1.331 . S
C1102 C1091 1.451 . S
C1102 C1101 1.331 . S
C1102 C1103 1.497 . S
C1103 C1094 1.395 . S
C1103 C1098 1.446 . S
C1103 C1102 1.497 . S
C1104 C1105 1.582 . S
C1104 H1161 0.962 . S
C1104 H1162 0.959 . S
C1104 H1163 0.958 . S
C1105 C1104 1.582 . S
C1105 O1108 1.458 . S
C1105 H1134 0.980 . S
O1106 C1051 1.426 . S
O1106 C1052 1.334 . S
O1107 C1079 1.412 . S
O1107 C1080 1.393 . S
O1108 C1070 1.435 . S
O1108 C1105 1.458 . S
O1109 C1061 1.468 . S
O1109 C1062 1.408 . S
H1110 C1051 0.980 . S
H1111 C1050 0.959 . S
H1112 C1050 0.959 . S
H1113 C1050 0.960 . S
H1114 C1053 0.929 . S
H1115 C1057 0.929 . S
H1116 C1058 0.959 . S
H1117 C1058 0.961 . S
H1118 C1058 0.961 . S
H1119 C1059 0.960 . S
H1120 C1059 0.960 . S
H1121 C1059 0.961 . S
H1122 C1061 0.980 . S
H1123 C1060 0.961 . S
H1124 C1060 0.960 . S
H1125 C1060 0.959 . S
H1126 C1063 0.930 . S
H1127 C1067 0.931 . S
H1128 C1068 0.959 . S
H1129 C1068 0.961 . S
H1130 C1068 0.959 . S
H1131 C1069 0.960 . S
H1132 C1069 0.960 . S
H1133 C1069 0.960 . S
H1134 C1105 0.980 . S
H1135 C1071 0.930 . S
H1136 C1075 0.930 . S
H1137 C1076 0.961 . S
H1138 C1076 0.960 . S
H1139 C1076 0.958 . S
H1140 C1077 0.961 . S
H1141 C1077 0.960 . S
H1142 C1077 0.960 . S
H1143 C1079 0.980 . S
H1144 C1078 0.961 . S
H1145 C1078 0.961 . S
H1146 C1078 0.959 . S
H1147 C1081 0.932 . S
H1148 C1085 0.929 . S
H1149 C1086 0.961 . S
H1150 C1086 0.959 . S
H1151 C1086 0.959 . S
H1152 C1087 0.960 . S
H1153 C1087 0.962 . S
H1154 C1087 0.961 . S
H1155 C1089 0.929 . S
H1156 C1092 0.930 . S
H1157 C1093 0.929 . S
H1158 C1096 0.930 . S
H1159 C1099 0.929 . S
H1160 C1100 0.930 . S
H1161 C1104 0.962 . S
H1162 C1104 0.959 . S
H1163 C1104 0.958 . S
C1164 C1165 1.560 . S
C1164 H1225 0.959 . S
C1164 H1226 0.959 . S
C1164 H1227 0.960 . S
C1165 C1164 1.560 . S
C1165 O1220 1.426 . S
C1165 H1224 0.980 . S
C1166 C1167 1.407 . S
C1166 C1171 1.418 . S
C1166 O1220 1.334 . S
C1167 C1166 1.407 . S
C1167 C1168 1.360 . S
C1167 H1228 0.929 . S
C1168 C1167 1.360 . S
C1168 C1169 1.401 . S
C1168 C1172 1.527 . S
C1169 C1168 1.401 . S
C1169 C1170 1.405 . S
C1169 C1202 1.587 . S
C1170 C1169 1.405 . S
C1170 C1171 1.332 . S
C1170 C1173 1.496 . S
C1171 C1166 1.418 . S
C1171 C1170 1.332 . S
C1171 H1229 0.929 . S
C1172 C1168 1.527 . S
C1172 H1230 0.959 . S
C1172 H1231 0.961 . S
C1172 H1232 0.961 . S
C1173 C1170 1.496 . S
C1173 H1233 0.960 . S
C1173 H1234 0.960 . S
C1173 H1235 0.961 . S
C1174 C1175 1.517 . S
C1174 H1237 0.961 . S
C1174 H1238 0.960 . S
C1174 H1239 0.959 . S
C1175 C1174 1.517 . S
C1175 O1223 1.468 . S
C1175 H1236 0.980 . S
C1176 C1177 1.349 . S
C1176 C1181 1.367 . S
C1176 O1223 1.408 . S
C1177 C1176 1.349 . S
C1177 C1178 1.407 . S
C1177 H1240 0.930 . S
C1178 C1177 1.407 . S
C1178 C1179 1.449 . S
C1178 C1182 1.535 . S
C1179 C1178 1.449 . S
C1179 C1180 1.384 . S
C1179 C1204 1.553 . S
C1180 C1179 1.384 . S
C1180 C1181 1.364 . S
C1180 C1183 1.450 . S
C1181 C1176 1.367 . S
C1181 C1180 1.364 . S
C1181 H1241 0.931 . S
C1182 C1178 1.535 . S
C1182 H1242 0.959 . S
C1182 H1243 0.961 . S
C1182 H1244 0.959 . S
C1183 C1180 1.450 . S
C1183 H1245 0.960 . S
C1183 H1246 0.960 . S
C1183 H1247 0.960 . S
C1184 C1185 1.309 . S
C1184 C1189 1.304 . S
C1184 O1222 1.435 . S
C1185 C1184 1.309 . S
C1185 C1186 1.476 . S
C1185 H1249 0.930 . S
C1186 C1185 1.476 . S
C1186 C1187 1.400 . S
C1186 C1190 1.567 . S
C1187 C1186 1.400 . S
C1187 C1188 1.373 . S
C1187 C1209 1.432 . S
C1188 C1187 1.373 . S
C1188 C1189 1.339 . S
C1188 C1191 1.530 . S
C1189 C1184 1.304 . S
C1189 C1188 1.339 . S
C1189 H1250 0.930 . S
C1190 C1186 1.567 . S
C1190 H1251 0.961 . S
C1190 H1252 0.960 . S
C1190 H1253 0.958 . S
C1191 C1188 1.530 . S
C1191 H1254 0.961 . S
C1191 H1255 0.960 . S
C1191 H1256 0.960 . S
C1192 C1193 1.530 . S
C1192 H1258 0.961 . S
C1192 H1259 0.961 . S
C1192 H1260 0.959 . S
C1193 C1192 1.530 . S
C1193 O1221 1.412 . S
C1193 H1257 0.980 . S
C1194 C1195 1.288 . S
C1194 C1199 1.377 . S
C1194 O1221 1.393 . S
C1195 C1194 1.288 . S
C1195 C1196 1.369 . S
C1195 H1261 0.932 . S
C1196 C1195 1.369 . S
C1196 C1197 1.398 . S
C1196 C1200 1.527 . S
C1197 C1196 1.398 . S
C1197 C1198 1.380 . S
C1197 C1211 1.497 . S
C1198 C1197 1.380 . S
C1198 C1199 1.383 . S
C1198 C1201 1.603 . S
C1199 C1194 1.377 . S
C1199 C1198 1.383 . S
C1199 H1262 0.929 . S
C1200 C1196 1.527 . S
C1200 H1263 0.961 . S
C1200 H1264 0.959 . S
C1200 H1265 0.959 . S
C1201 C1198 1.603 . S
C1201 H1266 0.960 . S
C1201 H1267 0.962 . S
C1201 H1268 0.961 . S
C1202 C1169 1.587 . S
C1202 C1203 1.360 . S
C1202 C1215 1.412 . S
C1203 C1202 1.360 . S
C1203 C1204 1.365 . S
C1203 H1269 0.929 . S
C1204 C1179 1.553 . S
C1204 C1203 1.365 . S
C1204 C1205 1.404 . S
C1205 C1204 1.404 . S
C1205 C1206 1.395 . S
C1205 C1216 1.451 . S
C1206 C1205 1.395 . S
C1206 C1207 1.322 . S
C1206 H1270 0.930 . S
C1207 C1206 1.322 . S
C1207 C1208 1.459 . S
C1207 H1271 0.929 . S
C1208 C1207 1.459 . S
C1208 C1209 1.445 . S
C1208 C1217 1.395 . S
C1209 C1187 1.432 . S
C1209 C1208 1.445 . S
C1209 C1210 1.370 . S
C1210 C1209 1.370 . S
C1210 C1211 1.438 . S
C1210 H1272 0.930 . S
C1211 C1197 1.497 . S
C1211 C1210 1.438 . S
C1211 C1212 1.360 . S
C1212 C1211 1.360 . S
C1212 C1213 1.401 . S
C1212 C1217 1.446 . S
C1213 C1212 1.401 . S
C1213 C1214 1.347 . S
C1213 H1273 0.929 . S
C1214 C1213 1.347 . S
C1214 C1215 1.455 . S
C1214 H1274 0.930 . S
C1215 C1202 1.412 . S
C1215 C1214 1.455 . S
C1215 C1216 1.331 . S
C1216 C1205 1.451 . S
C1216 C1215 1.331 . S
C1216 C1217 1.497 . S
C1217 C1208 1.395 . S
C1217 C1212 1.446 . S
C1217 C1216 1.497 . S
C1218 C1219 1.582 . S
C1218 H1275 0.962 . S
C1218 H1276 0.959 . S
C1218 H1277 0.958 . S
C1219 C1218 1.582 . S
C1219 O1222 1.458 . S
C1219 H1248 0.980 . S
O1220 C1165 1.426 . S
O1220 C1166 1.334 . S
O1221 C1193 1.412 . S
O1221 C1194 1.393 . S
O1222 C1184 1.435 . S
O1222 C1219 1.458 . S
O1223 C1175 1.468 . S
O1223 C1176 1.408 . S
H1224 C1165 0.980 . S
H1225 C1164 0.959 . S
H1226 C1164 0.959 . S
H1227 C1164 0.960 . S
H1228 C1167 0.929 . S
H1229 C1171 0.929 . S
H1230 C1172 0.959 . S
H1231 C1172 0.961 . S
H1232 C1172 0.961 . S
H1233 C1173 0.960 . S
H1234 C1173 0.960 . S
H1235 C1173 0.961 . S
H1236 C1175 0.980 . S
H1237 C1174 0.961 . S
H1238 C1174 0.960 . S
H1239 C1174 0.959 . S
H1240 C1177 0.930 . S
H1241 C1181 0.931 . S
H1242 C1182 0.959 . S
H1243 C1182 0.961 . S
H1244 C1182 0.959 . S
H1245 C1183 0.960 . S
H1246 C1183 0.960 . S
H1247 C1183 0.960 . S
H1248 C1219 0.980 . S
H1249 C1185 0.930 . S
H1250 C1189 0.930 . S
H1251 C1190 0.961 . S
H1252 C1190 0.960 . S
H1253 C1190 0.958 . S
H1254 C1191 0.961 . S
H1255 C1191 0.960 . S
H1256 C1191 0.960 . S
H1257 C1193 0.980 . S
H1258 C1192 0.961 . S
H1259 C1192 0.961 . S
H1260 C1192 0.959 . S
H1261 C1195 0.932 . S
H1262 C1199 0.929 . S
H1263 C1200 0.961 . S
H1264 C1200 0.959 . S
H1265 C1200 0.959 . S
H1266 C1201 0.960 . S
H1267 C1201 0.962 . S
H1268 C1201 0.961 . S
H1269 C1203 0.929 . S
H1270 C1206 0.930 . S
H1271 C1207 0.929 . S
H1272 C1210 0.930 . S
H1273 C1213 0.929 . S
H1274 C1214 0.930 . S
H1275 C1218 0.962 . S
H1276 C1218 0.959 . S
H1277 C1218 0.958 . S
C1278 C1279 1.560 . S
C1278 H1339 0.959 . S
C1278 H1340 0.959 . S
C1278 H1341 0.960 . S
C1279 C1278 1.560 . S
C1279 O1334 1.426 . S
C1279 H1338 0.980 . S
C1280 C1281 1.407 1_455 S
C1280 C1285 1.418 . S
C1280 O1334 1.334 . S
C1281 C1280 1.407 1_655 S
C1281 C1282 1.360 . S
C1281 H1342 0.929 . S
C1282 C1281 1.360 . S
C1282 C1283 1.401 1_655 S
C1282 C1286 1.527 . S
C1283 C1282 1.401 1_455 S
C1283 C1284 1.405 . S
C1283 C1316 1.587 1_455 S
C1284 C1283 1.405 . S
C1284 C1285 1.332 . S
C1284 C1287 1.496 . S
C1285 C1280 1.418 . S
C1285 C1284 1.332 . S
C1285 H1343 0.929 . S
C1286 C1282 1.527 . S
C1286 H1344 0.959 . S
C1286 H1345 0.961 . S
C1286 H1346 0.961 . S
C1287 C1284 1.496 . S
C1287 H1347 0.960 . S
C1287 H1348 0.960 . S
C1287 H1349 0.961 . S
C1288 C1289 1.517 . S
C1288 H1351 0.961 . S
C1288 H1352 0.960 . S
C1288 H1353 0.959 . S
C1289 C1288 1.517 . S
C1289 O1337 1.468 . S
C1289 H1350 0.980 1_655 S
C1290 C1291 1.349 . S
C1290 C1295 1.367 . S
C1290 O1337 1.408 . S
C1291 C1290 1.349 . S
C1291 C1292 1.374 1_655 S
C1291 H1354 0.930 1_655 S
C1292 C1291 1.374 1_455 S
C1292 C1293 1.422 1_455 S
C1292 C1296 1.590 . S
C1293 C1292 1.422 1_655 S
C1293 C1294 1.384 . S
C1293 C1318 1.553 . S
C1294 C1293 1.384 . S
C1294 C1295 1.364 . S
C1294 C1297 1.450 . S
C1295 C1290 1.367 . S
C1295 C1294 1.364 . S
C1295 H1355 0.931 . S
C1296 C1292 1.590 . S
C1296 H1356 0.959 . S
C1296 H1357 0.961 . S
C1296 H1358 0.959 . S
C1297 C1294 1.450 . S
C1297 H1359 0.960 . S
C1297 H1360 0.960 . S
C1297 H1361 0.960 . S
C1298 C1299 1.309 . S
C1298 C1303 1.304 . S
C1298 O1336 1.435 . S
C1299 C1298 1.309 . S
C1299 C1300 1.472 . S
C1299 H1363 0.930 1_655 S
C1300 C1299 1.472 . S
C1300 C1301 1.398 . S
C1300 C1304 1.572 1_655 S
C1301 C1300 1.398 . S
C1301 C1302 1.373 . S
C1301 C1323 1.432 . S
C1302 C1301 1.373 . S
C1302 C1303 1.339 . S
C1302 C1305 1.530 . S
C1303 C1298 1.304 . S
C1303 C1302 1.339 . S
C1303 H1364 0.930 . S
C1304 C1300 1.572 1_455 S
C1304 H1365 0.961 . S
C1304 H1366 0.960 . S
C1304 H1367 0.958 . S
C1305 C1302 1.530 . S
C1305 H1368 0.961 . S
C1305 H1369 0.960 . S
C1305 H1370 0.960 . S
C1306 C1307 1.548 . S
C1306 H1372 0.961 . S
C1306 H1373 0.961 . S
C1306 H1374 0.959 . S
C1307 C1306 1.548 . S
C1307 O1335 1.415 . S
C1307 H1371 0.976 1_455 S
C1308 C1309 1.288 . S
C1308 C1313 1.377 1_455 S
C1308 O1335 1.393 . S
C1309 C1308 1.288 . S
C1309 C1310 1.369 . S
C1309 H1375 0.932 . S
C1310 C1309 1.369 . S
C1310 C1311 1.398 1_455 S
C1310 C1314 1.527 . S
C1311 C1310 1.398 1_655 S
C1311 C1312 1.380 . S
C1311 C1325 1.497 . S
C1312 C1311 1.380 . S
C1312 C1313 1.383 . S
C1312 C1315 1.603 . S
C1313 C1308 1.377 1_655 S
C1313 C1312 1.383 . S
C1313 H1376 0.929 . S
C1314 C1310 1.527 . S
C1314 H1377 0.961 . S
C1314 H1378 0.959 . S
C1314 H1379 0.959 . S
C1315 C1312 1.603 . S
C1315 H1380 0.960 . S
C1315 H1381 0.962 . S
C1315 H1382 0.961 . S
C1316 C1283 1.587 1_655 S
C1316 C1317 1.360 . S
C1316 C1329 1.412 . S
C1317 C1316 1.360 . S
C1317 C1318 1.365 . S
C1317 H1383 0.929 . S
C1318 C1293 1.553 . S
C1318 C1317 1.365 . S
C1318 C1319 1.404 . S
C1319 C1318 1.404 . S
C1319 C1320 1.395 . S
C1319 C1330 1.451 . S
C1320 C1319 1.395 . S
C1320 C1321 1.322 . S
C1320 H1384 0.930 . S
C1321 C1320 1.322 . S
C1321 C1322 1.459 . S
C1321 H1385 0.929 . S
C1322 C1321 1.459 . S
C1322 C1323 1.445 . S
C1322 C1331 1.395 . S
C1323 C1301 1.432 . S
C1323 C1322 1.445 . S
C1323 C1324 1.370 . S
C1324 C1323 1.370 . S
C1324 C1325 1.438 . S
C1324 H1386 0.930 . S
C1325 C1311 1.497 . S
C1325 C1324 1.438 . S
C1325 C1326 1.360 . S
C1326 C1325 1.360 . S
C1326 C1327 1.401 . S
C1326 C1331 1.446 . S
C1327 C1326 1.401 . S
C1327 C1328 1.347 . S
C1327 H1387 0.929 . S
C1328 C1327 1.347 . S
C1328 C1329 1.455 . S
C1328 H1388 0.930 . S
C1329 C1316 1.412 . S
C1329 C1328 1.455 . S
C1329 C1330 1.331 . S
C1330 C1319 1.451 . S
C1330 C1329 1.331 . S
C1330 C1331 1.497 . S
C1331 C1322 1.395 . S
C1331 C1326 1.446 . S
C1331 C1330 1.497 . S
C1332 C1333 1.582 . S
C1332 H1389 0.962 . S
C1332 H1390 0.959 . S
C1332 H1391 0.958 . S
C1333 C1332 1.582 . S
C1333 O1336 1.458 . S
C1333 H1362 0.980 . S
O1334 C1279 1.426 . S
O1334 C1280 1.334 . S
O1335 C1307 1.415 . S
O1335 C1308 1.393 . S
O1336 C1298 1.435 . S
O1336 C1333 1.458 . S
O1337 C1289 1.468 . S
O1337 C1290 1.408 . S
H1338 C1279 0.980 . S
H1339 C1278 0.959 . S
H1340 C1278 0.959 . S
H1341 C1278 0.960 . S
H1342 C1281 0.929 . S
H1343 C1285 0.929 . S
H1344 C1286 0.959 . S
H1345 C1286 0.961 . S
H1346 C1286 0.961 . S
H1347 C1287 0.960 . S
H1348 C1287 0.960 . S
H1349 C1287 0.961 . S
H1350 C1289 0.980 1_455 S
H1351 C1288 0.961 . S
H1352 C1288 0.960 . S
H1353 C1288 0.959 . S
H1354 C1291 0.930 1_455 S
H1355 C1295 0.931 . S
H1356 C1296 0.959 . S
H1357 C1296 0.961 . S
H1358 C1296 0.959 . S
H1359 C1297 0.960 . S
H1360 C1297 0.960 . S
H1361 C1297 0.960 . S
H1362 C1333 0.980 . S
H1363 C1299 0.930 1_455 S
H1364 C1303 0.930 . S
H1365 C1304 0.961 . S
H1366 C1304 0.960 . S
H1367 C1304 0.958 . S
H1368 C1305 0.961 . S
H1369 C1305 0.960 . S
H1370 C1305 0.960 . S
H1371 C1307 0.976 1_655 S
H1372 C1306 0.961 . S
H1373 C1306 0.961 . S
H1374 C1306 0.959 . S
H1375 C1309 0.932 . S
H1376 C1313 0.929 . S
H1377 C1314 0.961 . S
H1378 C1314 0.959 . S
H1379 C1314 0.959 . S
H1380 C1315 0.960 . S
H1381 C1315 0.962 . S
H1382 C1315 0.961 . S
H1383 C1317 0.929 . S
H1384 C1320 0.930 . S
H1385 C1321 0.929 . S
H1386 C1324 0.930 . S
H1387 C1327 0.929 . S
H1388 C1328 0.930 . S
H1389 C1332 0.962 . S
H1390 C1332 0.959 . S
H1391 C1332 0.958 . S
C1392 C1393 1.560 . S
C1392 H1453 0.959 . S
C1392 H1454 0.959 . S
C1392 H1455 0.960 . S
C1393 C1392 1.560 . S
C1393 O1448 1.426 . S
C1393 H1452 0.980 . S
C1394 C1395 1.407 . S
C1394 C1399 1.418 . S
C1394 O1448 1.334 . S
C1395 C1394 1.407 . S
C1395 C1396 1.360 . S
C1395 H1456 0.929 . S
C1396 C1395 1.360 . S
C1396 C1397 1.401 . S
C1396 C1400 1.527 . S
C1397 C1396 1.401 . S
C1397 C1398 1.405 . S
C1397 C1430 1.587 . S
C1398 C1397 1.405 . S
C1398 C1399 1.332 . S
C1398 C1401 1.496 . S
C1399 C1394 1.418 . S
C1399 C1398 1.332 . S
C1399 H1457 0.929 . S
C1400 C1396 1.527 . S
C1400 H1458 0.959 . S
C1400 H1459 0.961 . S
C1400 H1460 0.961 . S
C1401 C1398 1.496 . S
C1401 H1461 0.960 . S
C1401 H1462 0.960 . S
C1401 H1463 0.961 . S
C1402 C1403 1.517 . S
C1402 H1465 0.961 . S
C1402 H1466 0.960 . S
C1402 H1467 0.959 . S
C1403 C1402 1.517 . S
C1403 O1451 1.468 . S
C1403 H1464 0.980 . S
C1404 C1405 1.349 . S
C1404 C1409 1.367 . S
C1404 O1451 1.408 . S
C1405 C1404 1.349 . S
C1405 C1406 1.407 . S
C1405 H1468 0.930 . S
C1406 C1405 1.407 . S
C1406 C1407 1.449 . S
C1406 C1410 1.535 . S
C1407 C1406 1.449 . S
C1407 C1408 1.384 . S
C1407 C1432 1.553 . S
C1408 C1407 1.384 . S
C1408 C1409 1.364 . S
C1408 C1411 1.450 . S
C1409 C1404 1.367 . S
C1409 C1408 1.364 . S
C1409 H1469 0.931 . S
C1410 C1406 1.535 . S
C1410 H1470 0.959 . S
C1410 H1471 0.961 . S
C1410 H1472 0.959 . S
C1411 C1408 1.450 . S
C1411 H1473 0.960 . S
C1411 H1474 0.960 . S
C1411 H1475 0.960 . S
C1412 C1413 1.309 . S
C1412 C1417 1.304 . S
C1412 O1450 1.435 . S
C1413 C1412 1.309 . S
C1413 C1414 1.476 . S
C1413 H1477 0.930 . S
C1414 C1413 1.476 . S
C1414 C1415 1.400 . S
C1414 C1418 1.567 . S
C1415 C1414 1.400 . S
C1415 C1416 1.373 . S
C1415 C1437 1.432 . S
C1416 C1415 1.373 . S
C1416 C1417 1.339 . S
C1416 C1419 1.530 . S
C1417 C1412 1.304 . S
C1417 C1416 1.339 . S
C1417 H1478 0.930 . S
C1418 C1414 1.567 . S
C1418 H1479 0.961 . S
C1418 H1480 0.960 . S
C1418 H1481 0.958 . S
C1419 C1416 1.530 . S
C1419 H1482 0.961 . S
C1419 H1483 0.960 . S
C1419 H1484 0.960 . S
C1420 C1421 1.530 . S
C1420 H1486 0.961 . S
C1420 H1487 0.961 . S
C1420 H1488 0.959 . S
C1421 C1420 1.530 . S
C1421 O1449 1.412 . S
C1421 H1485 0.980 . S
C1422 C1423 1.288 . S
C1422 C1427 1.377 . S
C1422 O1449 1.393 . S
C1423 C1422 1.288 . S
C1423 C1424 1.369 . S
C1423 H1489 0.932 . S
C1424 C1423 1.369 . S
C1424 C1425 1.398 . S
C1424 C1428 1.527 . S
C1425 C1424 1.398 . S
C1425 C1426 1.380 . S
C1425 C1439 1.497 . S
C1426 C1425 1.380 . S
C1426 C1427 1.383 . S
C1426 C1429 1.603 . S
C1427 C1422 1.377 . S
C1427 C1426 1.383 . S
C1427 H1490 0.929 . S
C1428 C1424 1.527 . S
C1428 H1491 0.961 . S
C1428 H1492 0.959 . S
C1428 H1493 0.959 . S
C1429 C1426 1.603 . S
C1429 H1494 0.960 . S
C1429 H1495 0.962 . S
C1429 H1496 0.961 . S
C1430 C1397 1.587 . S
C1430 C1431 1.360 . S
C1430 C1443 1.412 . S
C1431 C1430 1.360 . S
C1431 C1432 1.365 . S
C1431 H1497 0.929 . S
C1432 C1407 1.553 . S
C1432 C1431 1.365 . S
C1432 C1433 1.404 . S
C1433 C1432 1.404 . S
C1433 C1434 1.395 . S
C1433 C1444 1.451 . S
C1434 C1433 1.395 . S
C1434 C1435 1.322 . S
C1434 H1498 0.930 . S
C1435 C1434 1.322 . S
C1435 C1436 1.459 . S
C1435 H1499 0.929 . S
C1436 C1435 1.459 . S
C1436 C1437 1.445 . S
C1436 C1445 1.395 . S
C1437 C1415 1.432 . S
C1437 C1436 1.445 . S
C1437 C1438 1.370 . S
C1438 C1437 1.370 . S
C1438 C1439 1.438 . S
C1438 H1500 0.930 . S
C1439 C1425 1.497 . S
C1439 C1438 1.438 . S
C1439 C1440 1.360 . S
C1440 C1439 1.360 . S
C1440 C1441 1.401 . S
C1440 C1445 1.446 . S
C1441 C1440 1.401 . S
C1441 C1442 1.347 . S
C1441 H1501 0.929 . S
C1442 C1441 1.347 . S
C1442 C1443 1.455 . S
C1442 H1502 0.930 . S
C1443 C1430 1.412 . S
C1443 C1442 1.455 . S
C1443 C1444 1.331 . S
C1444 C1433 1.451 . S
C1444 C1443 1.331 . S
C1444 C1445 1.497 . S
C1445 C1436 1.395 . S
C1445 C1440 1.446 . S
C1445 C1444 1.497 . S
C1446 C1447 1.582 . S
C1446 H1503 0.962 . S
C1446 H1504 0.959 . S
C1446 H1505 0.958 . S
C1447 C1446 1.582 . S
C1447 O1450 1.458 . S
C1447 H1476 0.980 . S
O1448 C1393 1.426 . S
O1448 C1394 1.334 . S
O1449 C1421 1.412 . S
O1449 C1422 1.393 . S
O1450 C1412 1.435 . S
O1450 C1447 1.458 . S
O1451 C1403 1.468 . S
O1451 C1404 1.408 . S
H1452 C1393 0.980 . S
H1453 C1392 0.959 . S
H1454 C1392 0.959 . S
H1455 C1392 0.960 . S
H1456 C1395 0.929 . S
H1457 C1399 0.929 . S
H1458 C1400 0.959 . S
H1459 C1400 0.961 . S
H1460 C1400 0.961 . S
H1461 C1401 0.960 . S
H1462 C1401 0.960 . S
H1463 C1401 0.961 . S
H1464 C1403 0.980 . S
H1465 C1402 0.961 . S
H1466 C1402 0.960 . S
H1467 C1402 0.959 . S
H1468 C1405 0.930 . S
H1469 C1409 0.931 . S
H1470 C1410 0.959 . S
H1471 C1410 0.961 . S
H1472 C1410 0.959 . S
H1473 C1411 0.960 . S
H1474 C1411 0.960 . S
H1475 C1411 0.960 . S
H1476 C1447 0.980 . S
H1477 C1413 0.930 . S
H1478 C1417 0.930 . S
H1479 C1418 0.961 . S
H1480 C1418 0.960 . S
H1481 C1418 0.958 . S
H1482 C1419 0.961 . S
H1483 C1419 0.960 . S
H1484 C1419 0.960 . S
H1485 C1421 0.980 . S
H1486 C1420 0.961 . S
H1487 C1420 0.961 . S
H1488 C1420 0.959 . S
H1489 C1423 0.932 . S
H1490 C1427 0.929 . S
H1491 C1428 0.961 . S
H1492 C1428 0.959 . S
H1493 C1428 0.959 . S
H1494 C1429 0.960 . S
H1495 C1429 0.962 . S
H1496 C1429 0.961 . S
H1497 C1431 0.929 . S
H1498 C1434 0.930 . S
H1499 C1435 0.929 . S
H1500 C1438 0.930 . S
H1501 C1441 0.929 . S
H1502 C1442 0.930 . S
H1503 C1446 0.962 . S
H1504 C1446 0.959 . S
H1505 C1446 0.958 . S
C1506 C1507 1.560 . S
C1506 H1567 0.959 . S
C1506 H1568 0.959 . S
C1506 H1569 0.960 . S
C1507 C1506 1.560 . S
C1507 O1562 1.426 . S
C1507 H1566 0.980 . S
C1508 C1509 1.407 1_565 S
C1508 C1513 1.418 . S
C1508 O1562 1.334 . S
C1509 C1508 1.407 1_545 S
C1509 C1510 1.360 . S
C1509 H1570 0.929 . S
C1510 C1509 1.360 . S
C1510 C1511 1.401 1_545 S
C1510 C1514 1.527 . S
C1511 C1510 1.401 1_565 S
C1511 C1512 1.405 . S
C1511 C1544 1.587 1_565 S
C1512 C1511 1.405 . S
C1512 C1513 1.332 . S
C1512 C1515 1.496 . S
C1513 C1508 1.418 . S
C1513 C1512 1.332 . S
C1513 H1571 0.929 . S
C1514 C1510 1.527 . S
C1514 H1572 0.959 . S
C1514 H1573 0.961 . S
C1514 H1574 0.961 . S
C1515 C1512 1.496 . S
C1515 H1575 0.960 . S
C1515 H1576 0.960 . S
C1515 H1577 0.961 . S
C1516 C1517 1.517 . S
C1516 H1579 0.961 1_545 S
C1516 H1580 0.960 . S
C1516 H1581 0.959 . S
C1517 C1516 1.517 . S
C1517 O1565 1.468 . S
C1517 H1578 0.980 1_545 S
C1518 C1519 1.362 . S
C1518 C1523 1.367 . S
C1518 O1565 1.408 . S
C1519 C1518 1.362 . S
C1519 C1520 1.416 1_545 S
C1519 H1582 0.908 1_545 S
C1520 C1519 1.416 1_565 S
C1520 C1521 1.449 1_565 S
C1520 C1524 1.535 . S
C1521 C1520 1.449 1_545 S
C1521 C1522 1.384 . S
C1521 C1546 1.553 . S
C1522 C1521 1.384 . S
C1522 C1523 1.364 . S
C1522 C1525 1.450 . S
C1523 C1518 1.367 . S
C1523 C1522 1.364 . S
C1523 H1583 0.931 . S
C1524 C1520 1.535 . S
C1524 H1584 0.959 . S
C1524 H1585 0.961 . S
C1524 H1586 0.959 . S
C1525 C1522 1.450 . S
C1525 H1587 0.960 . S
C1525 H1588 0.960 . S
C1525 H1589 0.960 . S
C1526 C1527 1.309 . S
C1526 C1531 1.304 . S
C1526 O1564 1.435 . S
C1527 C1526 1.309 . S
C1527 C1528 1.492 1_545 S
C1527 H1591 0.930 1_545 S
C1528 C1527 1.492 1_565 S
C1528 C1529 1.347 1_565 S
C1528 C1532 1.603 . S
C1529 C1528 1.347 1_545 S
C1529 C1530 1.373 . S
C1529 C1551 1.432 . S
C1530 C1529 1.373 . S
C1530 C1531 1.339 . S
C1530 C1533 1.530 . S
C1531 C1526 1.304 . S
C1531 C1530 1.339 . S
C1531 H1592 0.930 . S
C1532 C1528 1.603 . S
C1532 H1593 0.961 . S
C1532 H1594 0.960 . S
C1532 H1595 0.958 . S
C1533 C1530 1.530 . S
C1533 H1596 0.961 . S
C1533 H1597 0.960 . S
C1533 H1598 0.960 . S
C1534 C1535 1.530 1_565 S
C1534 H1600 0.961 . S
C1534 H1601 0.961 . S
C1534 H1602 0.959 . S
C1535 C1534 1.530 1_545 S
C1535 O1563 1.412 1_545 S
C1535 H1599 0.980 . S
C1536 C1537 1.288 . S
C1536 C1541 1.377 1_565 S
C1536 O1563 1.393 . S
C1537 C1536 1.288 . S
C1537 C1538 1.369 . S
C1537 H1603 0.932 . S
C1538 C1537 1.369 . S
C1538 C1539 1.398 1_565 S
C1538 C1542 1.527 . S
C1539 C1538 1.398 1_545 S
C1539 C1540 1.380 . S
C1539 C1553 1.497 . S
C1540 C1539 1.380 . S
C1540 C1541 1.383 . S
C1540 C1543 1.603 . S
C1541 C1536 1.377 1_545 S
C1541 C1540 1.383 . S
C1541 H1604 0.929 . S
C1542 C1538 1.527 . S
C1542 H1605 0.961 . S
C1542 H1606 0.959 . S
C1542 H1607 0.959 . S
C1543 C1540 1.603 . S
C1543 H1608 0.960 . S
C1543 H1609 0.962 . S
C1543 H1610 0.961 . S
C1544 C1511 1.587 1_545 S
C1544 C1545 1.360 . S
C1544 C1557 1.412 . S
C1545 C1544 1.360 . S
C1545 C1546 1.365 . S
C1545 H1611 0.929 . S
C1546 C1521 1.553 . S
C1546 C1545 1.365 . S
C1546 C1547 1.404 . S
C1547 C1546 1.404 . S
C1547 C1548 1.395 . S
C1547 C1558 1.451 . S
C1548 C1547 1.395 . S
C1548 C1549 1.322 . S
C1548 H1612 0.930 . S
C1549 C1548 1.322 . S
C1549 C1550 1.459 . S
C1549 H1613 0.929 . S
C1550 C1549 1.459 . S
C1550 C1551 1.445 . S
C1550 C1559 1.395 . S
C1551 C1529 1.432 . S
C1551 C1550 1.445 . S
C1551 C1552 1.370 . S
C1552 C1551 1.370 . S
C1552 C1553 1.438 . S
C1552 H1614 0.930 . S
C1553 C1539 1.497 . S
C1553 C1552 1.438 . S
C1553 C1554 1.360 . S
C1554 C1553 1.360 . S
C1554 C1555 1.401 . S
C1554 C1559 1.446 . S
C1555 C1554 1.401 . S
C1555 C1556 1.347 . S
C1555 H1615 0.929 . S
C1556 C1555 1.347 . S
C1556 C1557 1.455 . S
C1556 H1616 0.930 . S
C1557 C1544 1.412 . S
C1557 C1556 1.455 . S
C1557 C1558 1.331 . S
C1558 C1547 1.451 . S
C1558 C1557 1.331 . S
C1558 C1559 1.497 . S
C1559 C1550 1.395 . S
C1559 C1554 1.446 . S
C1559 C1558 1.497 . S
C1560 C1561 1.582 . S
C1560 H1617 0.962 . S
C1560 H1618 0.959 . S
C1560 H1619 0.958 . S
C1561 C1560 1.582 . S
C1561 O1564 1.458 . S
C1561 H1590 0.980 . S
O1562 C1507 1.426 . S
O1562 C1508 1.334 . S
O1563 C1535 1.412 1_565 S
O1563 C1536 1.393 . S
O1564 C1526 1.435 . S
O1564 C1561 1.458 . S
O1565 C1517 1.468 . S
O1565 C1518 1.408 . S
H1566 C1507 0.980 . S
H1567 C1506 0.959 . S
H1568 C1506 0.959 . S
H1569 C1506 0.960 . S
H1570 C1509 0.929 . S
H1571 C1513 0.929 . S
H1572 C1514 0.959 . S
H1573 C1514 0.961 . S
H1574 C1514 0.961 . S
H1575 C1515 0.960 . S
H1576 C1515 0.960 . S
H1577 C1515 0.961 . S
H1578 C1517 0.980 1_565 S
H1579 C1516 0.961 1_565 S
H1580 C1516 0.960 . S
H1581 C1516 0.959 . S
H1582 C1519 0.908 1_565 S
H1583 C1523 0.931 . S
H1584 C1524 0.959 . S
H1585 C1524 0.961 . S
H1586 C1524 0.959 . S
H1587 C1525 0.960 . S
H1588 C1525 0.960 . S
H1589 C1525 0.960 . S
H1590 C1561 0.980 . S
H1591 C1527 0.930 1_565 S
H1592 C1531 0.930 . S
H1593 C1532 0.961 . S
H1594 C1532 0.960 . S
H1595 C1532 0.958 . S
H1596 C1533 0.961 . S
H1597 C1533 0.960 . S
H1598 C1533 0.960 . S
H1599 C1535 0.980 . S
H1600 C1534 0.961 . S
H1601 C1534 0.961 . S
H1602 C1534 0.959 . S
H1603 C1537 0.932 . S
H1604 C1541 0.929 . S
H1605 C1542 0.961 . S
H1606 C1542 0.959 . S
H1607 C1542 0.959 . S
H1608 C1543 0.960 . S
H1609 C1543 0.962 . S
H1610 C1543 0.961 . S
H1611 C1545 0.929 . S
H1612 C1548 0.930 . S
H1613 C1549 0.929 . S
H1614 C1552 0.930 . S
H1615 C1555 0.929 . S
H1616 C1556 0.930 . S
H1617 C1560 0.962 . S
H1618 C1560 0.959 . S
H1619 C1560 0.958 . S
C1620 C1621 1.560 . S
C1620 H1681 0.959 . S
C1620 H1682 0.959 . S
C1620 H1683 0.960 . S
C1621 C1620 1.560 . S
C1621 O1676 1.426 . S
C1621 H1680 0.980 1_565 S
C1622 C1623 1.407 1_565 S
C1622 C1627 1.418 . S
C1622 O1676 1.334 . S
C1623 C1622 1.407 1_545 S
C1623 C1624 1.360 . S
C1623 H1684 0.929 . S
C1624 C1623 1.360 . S
C1624 C1625 1.401 . S
C1624 C1628 1.527 . S
C1625 C1624 1.401 . S
C1625 C1626 1.405 1_545 S
C1625 C1658 1.587 . S
C1626 C1625 1.405 1_565 S
C1626 C1627 1.332 . S
C1626 C1629 1.496 . S
C1627 C1622 1.418 . S
C1627 C1626 1.332 . S
C1627 H1685 0.929 . S
C1628 C1624 1.527 . S
C1628 H1686 0.959 . S
C1628 H1687 0.961 . S
C1628 H1688 0.961 . S
C1629 C1626 1.496 . S
C1629 H1689 0.960 . S
C1629 H1690 0.960 . S
C1629 H1691 0.961 . S
C1630 C1631 1.517 . S
C1630 H1693 0.961 . S
C1630 H1694 0.960 . S
C1630 H1695 0.959 . S
C1631 C1630 1.517 . S
C1631 O1679 1.468 . S
C1631 H1692 0.980 . S
C1632 C1633 1.349 . S
C1632 C1637 1.367 . S
C1632 O1679 1.408 . S
C1633 C1632 1.349 . S
C1633 C1634 1.407 . S
C1633 H1696 0.933 . S
C1634 C1633 1.407 . S
C1634 C1635 1.449 . S
C1634 C1638 1.535 1_545 S
C1635 C1634 1.449 . S
C1635 C1636 1.384 . S
C1635 C1660 1.553 . S
C1636 C1635 1.384 . S
C1636 C1637 1.364 . S
C1636 C1639 1.450 . S
C1637 C1632 1.367 . S
C1637 C1636 1.364 . S
C1637 H1697 0.931 . S
C1638 C1634 1.535 1_565 S
C1638 H1698 0.959 . S
C1638 H1699 0.961 . S
C1638 H1700 0.959 . S
C1639 C1636 1.450 . S
C1639 H1701 0.960 . S
C1639 H1702 0.960 . S
C1639 H1703 0.960 . S
C1640 C1641 1.309 1_545 S
C1640 C1645 1.304 . S
C1640 O1678 1.435 . S
C1641 C1640 1.309 1_565 S
C1641 C1642 1.476 . S
C1641 H1705 0.930 . S
C1642 C1641 1.476 . S
C1642 C1643 1.400 1_565 S
C1642 C1646 1.567 . S
C1643 C1642 1.400 1_545 S
C1643 C1644 1.373 . S
C1643 C1665 1.432 . S
C1644 C1643 1.373 . S
C1644 C1645 1.339 . S
C1644 C1647 1.530 . S
C1645 C1640 1.304 . S
C1645 C1644 1.339 . S
C1645 H1706 0.930 . S
C1646 C1642 1.567 . S
C1646 H1707 0.961 . S
C1646 H1708 0.960 . S
C1646 H1709 0.958 . S
C1647 C1644 1.530 . S
C1647 H1710 0.961 . S
C1647 H1711 0.960 . S
C1647 H1712 0.960 . S
C1648 C1649 1.530 . S
C1648 H1714 0.961 . S
C1648 H1715 0.961 . S
C1648 H1716 0.959 . S
C1649 C1648 1.530 . S
C1649 O1677 1.412 . S
C1649 H1713 0.980 . S
C1650 C1651 1.288 . S
C1650 C1655 1.377 1_565 S
C1650 O1677 1.393 . S
C1651 C1650 1.288 . S
C1651 C1652 1.369 . S
C1651 H1717 0.932 . S
C1652 C1651 1.369 . S
C1652 C1653 1.398 . S
C1652 C1656 1.527 . S
C1653 C1652 1.398 . S
C1653 C1654 1.380 1_565 S
C1653 C1667 1.497 1_565 S
C1654 C1653 1.380 1_545 S
C1654 C1655 1.383 . S
C1654 C1657 1.603 . S
C1655 C1650 1.377 1_545 S
C1655 C1654 1.383 . S
C1655 H1718 0.929 . S
C1656 C1652 1.527 . S
C1656 H1719 0.961 . S
C1656 H1720 0.959 . S
C1656 H1721 0.959 . S
C1657 C1654 1.603 . S
C1657 H1722 0.960 . S
C1657 H1723 0.962 . S
C1657 H1724 0.961 . S
C1658 C1625 1.587 . S
C1658 C1659 1.360 . S
C1658 C1671 1.412 . S
C1659 C1658 1.360 . S
C1659 C1660 1.365 . S
C1659 H1725 0.929 . S
C1660 C1635 1.553 . S
C1660 C1659 1.365 . S
C1660 C1661 1.404 . S
C1661 C1660 1.404 . S
C1661 C1662 1.395 . S
C1661 C1672 1.451 . S
C1662 C1661 1.395 . S
C1662 C1663 1.322 . S
C1662 H1726 0.930 . S
C1663 C1662 1.322 . S
C1663 C1664 1.459 . S
C1663 H1727 0.929 . S
C1664 C1663 1.459 . S
C1664 C1665 1.445 . S
C1664 C1673 1.395 . S
C1665 C1643 1.432 . S
C1665 C1664 1.445 . S
C1665 C1666 1.370 . S
C1666 C1665 1.370 . S
C1666 C1667 1.438 . S
C1666 H1728 0.930 . S
C1667 C1653 1.497 1_545 S
C1667 C1666 1.438 . S
C1667 C1668 1.360 . S
C1668 C1667 1.360 . S
C1668 C1669 1.401 . S
C1668 C1673 1.446 . S
C1669 C1668 1.401 . S
C1669 C1670 1.347 . S
C1669 H1729 0.953 . S
C1670 C1669 1.347 . S
C1670 C1671 1.455 . S
C1670 H1730 0.930 . S
C1671 C1658 1.412 . S
C1671 C1670 1.455 . S
C1671 C1672 1.331 . S
C1672 C1661 1.451 . S
C1672 C1671 1.331 . S
C1672 C1673 1.497 . S
C1673 C1664 1.395 . S
C1673 C1668 1.446 . S
C1673 C1672 1.497 . S
C1674 C1675 1.582 . S
C1674 H1731 0.962 . S
C1674 H1732 0.959 . S
C1674 H1733 0.958 . S
C1675 C1674 1.582 . S
C1675 O1678 1.458 . S
C1675 H1704 0.980 1_545 S
O1676 C1621 1.426 . S
O1676 C1622 1.334 . S
O1677 C1649 1.412 . S
O1677 C1650 1.393 . S
O1678 C1640 1.435 . S
O1678 C1675 1.458 . S
O1679 C1631 1.468 . S
O1679 C1632 1.408 . S
H1680 C1621 0.980 1_545 S
H1681 C1620 0.959 . S
H1682 C1620 0.959 . S
H1683 C1620 0.960 . S
H1684 C1623 0.929 . S
H1685 C1627 0.929 . S
H1686 C1628 0.959 . S
H1687 C1628 0.961 . S
H1688 C1628 0.961 . S
H1689 C1629 0.960 . S
H1690 C1629 0.960 . S
H1691 C1629 0.961 . S
H1692 C1631 0.980 . S
H1693 C1630 0.961 . S
H1694 C1630 0.960 . S
H1695 C1630 0.959 . S
H1696 C1633 0.933 . S
H1697 C1637 0.931 . S
H1698 C1638 0.959 . S
H1699 C1638 0.961 . S
H1700 C1638 0.959 . S
H1701 C1639 0.960 . S
H1702 C1639 0.960 . S
H1703 C1639 0.960 . S
H1704 C1675 0.980 1_565 S
H1705 C1641 0.930 . S
H1706 C1645 0.930 . S
H1707 C1646 0.961 . S
H1708 C1646 0.960 . S
H1709 C1646 0.958 . S
H1710 C1647 0.961 . S
H1711 C1647 0.960 . S
H1712 C1647 0.960 . S
H1713 C1649 0.980 . S
H1714 C1648 0.961 . S
H1715 C1648 0.961 . S
H1716 C1648 0.959 . S
H1717 C1651 0.932 . S
H1718 C1655 0.929 . S
H1719 C1656 0.961 . S
H1720 C1656 0.959 . S
H1721 C1656 0.959 . S
H1722 C1657 0.960 . S
H1723 C1657 0.962 . S
H1724 C1657 0.961 . S
H1725 C1659 0.929 . S
H1726 C1662 0.930 . S
H1727 C1663 0.929 . S
H1728 C1666 0.930 . S
H1729 C1669 0.953 . S
H1730 C1670 0.930 . S
H1731 C1674 0.962 . S
H1732 C1674 0.959 . S
H1733 C1674 0.958 . S
C1734 C1735 1.560 . S
C1734 H1795 0.959 . S
C1734 H1796 0.959 . S
C1734 H1797 0.960 . S
C1735 C1734 1.560 . S
C1735 O1790 1.426 . S
C1735 H1794 0.980 1_455 S
C1736 C1737 1.407 1_455 S
C1736 C1741 1.418 . S
C1736 O1790 1.334 . S
C1737 C1736 1.407 1_655 S
C1737 C1738 1.360 . S
C1737 H1798 0.929 . S
C1738 C1737 1.360 . S
C1738 C1739 1.401 . S
C1738 C1742 1.527 . S
C1739 C1738 1.401 . S
C1739 C1740 1.405 1_655 S
C1739 C1772 1.587 . S
C1740 C1739 1.405 1_455 S
C1740 C1741 1.332 . S
C1740 C1743 1.496 . S
C1741 C1736 1.418 . S
C1741 C1740 1.332 . S
C1741 H1799 0.929 . S
C1742 C1738 1.527 . S
C1742 H1800 0.959 . S
C1742 H1801 0.961 . S
C1742 H1802 0.961 . S
C1743 C1740 1.496 . S
C1743 H1803 0.960 . S
C1743 H1804 0.960 . S
C1743 H1805 0.961 . S
C1744 C1745 1.517 . S
C1744 H1807 0.961 . S
C1744 H1808 0.960 . S
C1744 H1809 0.959 . S
C1745 C1744 1.517 . S
C1745 O1793 1.468 . S
C1745 H1806 0.980 . S
C1746 C1747 1.349 . S
C1746 C1751 1.367 . S
C1746 O1793 1.408 . S
C1747 C1746 1.349 . S
C1747 C1748 1.407 . S
C1747 H1810 0.896 1_655 S
C1748 C1747 1.407 . S
C1748 C1749 1.449 . S
C1748 C1752 1.535 1_655 S
C1749 C1748 1.449 . S
C1749 C1750 1.384 . S
C1749 C1774 1.553 . S
C1750 C1749 1.384 . S
C1750 C1751 1.364 . S
C1750 C1753 1.450 . S
C1751 C1746 1.367 . S
C1751 C1750 1.364 . S
C1751 H1811 0.931 . S
C1752 C1748 1.535 1_455 S
C1752 H1812 0.959 . S
C1752 H1813 0.961 . S
C1752 H1814 0.959 . S
C1753 C1750 1.450 . S
C1753 H1815 0.960 . S
C1753 H1816 0.960 . S
C1753 H1817 0.960 . S
C1754 C1755 1.309 1_655 S
C1754 C1759 1.304 . S
C1754 O1792 1.435 . S
C1755 C1754 1.309 1_455 S
C1755 C1756 1.476 . S
C1755 H1819 0.930 . S
C1756 C1755 1.476 . S
C1756 C1757 1.400 1_455 S
C1756 C1760 1.567 . S
C1757 C1756 1.400 1_655 S
C1757 C1758 1.373 . S
C1757 C1779 1.432 . S
C1758 C1757 1.373 . S
C1758 C1759 1.339 . S
C1758 C1761 1.530 . S
C1759 C1754 1.304 . S
C1759 C1758 1.339 . S
C1759 H1820 0.930 . S
C1760 C1756 1.567 . S
C1760 H1821 0.961 . S
C1760 H1822 0.960 . S
C1760 H1823 0.958 . S
C1761 C1758 1.530 . S
C1761 H1824 0.961 . S
C1761 H1825 0.960 . S
C1761 H1826 0.960 . S
C1762 C1763 1.530 . S
C1762 H1828 0.961 . S
C1762 H1829 0.961 . S
C1762 H1830 0.959 . S
C1763 C1762 1.530 . S
C1763 O1791 1.412 . S
C1763 H1827 0.966 1_455 S
C1764 C1765 1.288 . S
C1764 C1769 1.377 1_455 S
C1764 O1791 1.393 . S
C1765 C1764 1.288 . S
C1765 C1766 1.369 . S
C1765 H1831 0.932 . S
C1766 C1765 1.369 . S
C1766 C1767 1.398 . S
C1766 C1770 1.527 . S
C1767 C1766 1.398 . S
C1767 C1768 1.380 1_455 S
C1767 C1781 1.497 1_455 S
C1768 C1767 1.380 1_655 S
C1768 C1769 1.383 . S
C1768 C1771 1.603 . S
C1769 C1764 1.377 1_655 S
C1769 C1768 1.383 . S
C1769 H1832 0.929 . S
C1770 C1766 1.527 . S
C1770 H1833 0.961 . S
C1770 H1834 0.959 . S
C1770 H1835 0.959 . S
C1771 C1768 1.603 . S
C1771 H1836 0.960 . S
C1771 H1837 0.962 . S
C1771 H1838 0.961 . S
C1772 C1739 1.587 . S
C1772 C1773 1.360 . S
C1772 C1785 1.412 . S
C1773 C1772 1.360 . S
C1773 C1774 1.365 . S
C1773 H1839 0.929 . S
C1774 C1749 1.553 . S
C1774 C1773 1.365 . S
C1774 C1775 1.404 . S
C1775 C1774 1.404 . S
C1775 C1776 1.395 . S
C1775 C1786 1.451 . S
C1776 C1775 1.395 . S
C1776 C1777 1.322 . S
C1776 H1840 0.930 . S
C1777 C1776 1.322 . S
C1777 C1778 1.459 . S
C1777 H1841 0.929 . S
C1778 C1777 1.459 . S
C1778 C1779 1.445 . S
C1778 C1787 1.395 . S
C1779 C1757 1.432 . S
C1779 C1778 1.445 . S
C1779 C1780 1.370 . S
C1780 C1779 1.370 . S
C1780 C1781 1.438 . S
C1780 H1842 0.930 . S
C1781 C1767 1.497 1_655 S
C1781 C1780 1.438 . S
C1781 C1782 1.360 . S
C1782 C1781 1.360 . S
C1782 C1783 1.401 . S
C1782 C1787 1.446 . S
C1783 C1782 1.401 . S
C1783 C1784 1.347 . S
C1783 H1843 0.929 . S
C1784 C1783 1.347 . S
C1784 C1785 1.455 . S
C1784 H1844 0.930 . S
C1785 C1772 1.412 . S
C1785 C1784 1.455 . S
C1785 C1786 1.331 . S
C1786 C1775 1.451 . S
C1786 C1785 1.331 . S
C1786 C1787 1.497 . S
C1787 C1778 1.395 . S
C1787 C1782 1.446 . S
C1787 C1786 1.497 . S
C1788 C1789 1.582 1_655 S
C1788 H1845 0.917 1_655 S
C1788 H1846 0.959 . S
C1788 H1847 0.958 . S
C1789 C1788 1.582 1_455 S
C1789 O1792 1.458 1_455 S
C1789 H1818 0.980 . S
O1790 C1735 1.426 . S
O1790 C1736 1.334 . S
O1791 C1763 1.412 . S
O1791 C1764 1.393 . S
O1792 C1754 1.435 . S
O1792 C1789 1.458 1_655 S
O1793 C1745 1.468 . S
O1793 C1746 1.408 . S
H1794 C1735 0.980 1_655 S
H1795 C1734 0.959 . S
H1796 C1734 0.959 . S
H1797 C1734 0.960 . S
H1798 C1737 0.929 . S
H1799 C1741 0.929 . S
H1800 C1742 0.959 . S
H1801 C1742 0.961 . S
H1802 C1742 0.961 . S
H1803 C1743 0.960 . S
H1804 C1743 0.960 . S
H1805 C1743 0.961 . S
H1806 C1745 0.980 . S
H1807 C1744 0.961 . S
H1808 C1744 0.960 . S
H1809 C1744 0.959 . S
H1810 C1747 0.896 1_455 S
H1811 C1751 0.931 . S
H1812 C1752 0.959 . S
H1813 C1752 0.961 . S
H1814 C1752 0.959 . S
H1815 C1753 0.960 . S
H1816 C1753 0.960 . S
H1817 C1753 0.960 . S
H1818 C1789 0.980 . S
H1819 C1755 0.930 . S
H1820 C1759 0.930 . S
H1821 C1760 0.961 . S
H1822 C1760 0.960 . S
H1823 C1760 0.958 . S
H1824 C1761 0.961 . S
H1825 C1761 0.960 . S
H1826 C1761 0.960 . S
H1827 C1763 0.966 1_655 S
H1828 C1762 0.961 . S
H1829 C1762 0.961 . S
H1830 C1762 0.959 . S
H1831 C1765 0.932 . S
H1832 C1769 0.929 . S
H1833 C1770 0.961 . S
H1834 C1770 0.959 . S
H1835 C1770 0.959 . S
H1836 C1771 0.960 . S
H1837 C1771 0.962 . S
H1838 C1771 0.961 . S
H1839 C1773 0.929 . S
H1840 C1776 0.930 . S
H1841 C1777 0.929 . S
H1842 C1780 0.930 . S
H1843 C1783 0.929 . S
H1844 C1784 0.930 . S
H1845 C1788 0.917 1_455 S
H1846 C1788 0.959 . S
H1847 C1788 0.958 . S
C1848 C1849 1.560 . S
C1848 H1909 0.959 . S
C1848 H1910 0.959 . S
C1848 H1911 0.960 . S
C1849 C1848 1.560 . S
C1849 O1904 1.426 . S
C1849 H1908 0.980 . S
C1850 C1851 1.407 . S
C1850 C1855 1.418 . S
C1850 O1904 1.334 . S
C1851 C1850 1.407 . S
C1851 C1852 1.360 . S
C1851 H1912 0.929 . S
C1852 C1851 1.360 . S
C1852 C1853 1.401 . S
C1852 C1856 1.527 . S
C1853 C1852 1.401 . S
C1853 C1854 1.405 . S
C1853 C1886 1.587 . S
C1854 C1853 1.405 . S
C1854 C1855 1.332 . S
C1854 C1857 1.496 . S
C1855 C1850 1.418 . S
C1855 C1854 1.332 . S
C1855 H1913 0.929 . S
C1856 C1852 1.527 . S
C1856 H1914 0.959 . S
C1856 H1915 0.961 . S
C1856 H1916 0.961 . S
C1857 C1854 1.496 . S
C1857 H1917 0.960 . S
C1857 H1918 0.960 . S
C1857 H1919 0.961 . S
C1858 C1859 1.517 . S
C1858 H1921 0.961 . S
C1858 H1922 0.960 . S
C1858 H1923 0.959 . S
C1859 C1858 1.517 . S
C1859 O1907 1.468 . S
C1859 H1920 0.980 . S
C1860 C1861 1.349 . S
C1860 C1865 1.367 . S
C1860 O1907 1.408 . S
C1861 C1860 1.349 . S
C1861 C1862 1.407 . S
C1861 H1924 0.930 . S
C1862 C1861 1.407 . S
C1862 C1863 1.449 . S
C1862 C1866 1.535 . S
C1863 C1862 1.449 . S
C1863 C1864 1.384 . S
C1863 C1888 1.553 . S
C1864 C1863 1.384 . S
C1864 C1865 1.364 . S
C1864 C1867 1.450 . S
C1865 C1860 1.367 . S
C1865 C1864 1.364 . S
C1865 H1925 0.931 . S
C1866 C1862 1.535 . S
C1866 H1926 0.959 . S
C1866 H1927 0.961 . S
C1866 H1928 0.959 . S
C1867 C1864 1.450 . S
C1867 H1929 0.960 . S
C1867 H1930 0.960 . S
C1867 H1931 0.960 . S
C1868 C1869 1.309 . S
C1868 C1873 1.304 . S
C1868 O1906 1.435 . S
C1869 C1868 1.309 . S
C1869 C1870 1.476 . S
C1869 H1933 0.930 . S
C1870 C1869 1.476 . S
C1870 C1871 1.400 . S
C1870 C1874 1.567 . S
C1871 C1870 1.400 . S
C1871 C1872 1.373 . S
C1871 C1893 1.432 . S
C1872 C1871 1.373 . S
C1872 C1873 1.339 . S
C1872 C1875 1.530 . S
C1873 C1868 1.304 . S
C1873 C1872 1.339 . S
C1873 H1934 0.930 . S
C1874 C1870 1.567 . S
C1874 H1935 0.961 . S
C1874 H1936 0.960 . S
C1874 H1937 0.958 . S
C1875 C1872 1.530 . S
C1875 H1938 0.961 . S
C1875 H1939 0.960 . S
C1875 H1940 0.960 . S
C1876 C1877 1.530 . S
C1876 H1942 0.961 . S
C1876 H1943 0.961 . S
C1876 H1944 0.959 . S
C1877 C1876 1.530 . S
C1877 O1905 1.412 . S
C1877 H1941 0.980 . S
C1878 C1879 1.288 . S
C1878 C1883 1.377 . S
C1878 O1905 1.393 . S
C1879 C1878 1.288 . S
C1879 C1880 1.369 . S
C1879 H1945 0.932 . S
C1880 C1879 1.369 . S
C1880 C1881 1.398 . S
C1880 C1884 1.527 . S
C1881 C1880 1.398 . S
C1881 C1882 1.380 . S
C1881 C1895 1.497 . S
C1882 C1881 1.380 . S
C1882 C1883 1.383 . S
C1882 C1885 1.603 . S
C1883 C1878 1.377 . S
C1883 C1882 1.383 . S
C1883 H1946 0.929 . S
C1884 C1880 1.527 . S
C1884 H1947 0.961 . S
C1884 H1948 0.959 . S
C1884 H1949 0.959 . S
C1885 C1882 1.603 . S
C1885 H1950 0.960 . S
C1885 H1951 0.962 . S
C1885 H1952 0.961 . S
C1886 C1853 1.587 . S
C1886 C1887 1.360 . S
C1886 C1899 1.412 . S
C1887 C1886 1.360 . S
C1887 C1888 1.365 . S
C1887 H1953 0.929 . S
C1888 C1863 1.553 . S
C1888 C1887 1.365 . S
C1888 C1889 1.404 . S
C1889 C1888 1.404 . S
C1889 C1890 1.395 . S
C1889 C1900 1.451 . S
C1890 C1889 1.395 . S
C1890 C1891 1.322 . S
C1890 H1954 0.930 . S
C1891 C1890 1.322 . S
C1891 C1892 1.459 . S
C1891 H1955 0.929 . S
C1892 C1891 1.459 . S
C1892 C1893 1.445 . S
C1892 C1901 1.395 . S
C1893 C1871 1.432 . S
C1893 C1892 1.445 . S
C1893 C1894 1.370 . S
C1894 C1893 1.370 . S
C1894 C1895 1.438 . S
C1894 H1956 0.930 . S
C1895 C1881 1.497 . S
C1895 C1894 1.438 . S
C1895 C1896 1.360 . S
C1896 C1895 1.360 . S
C1896 C1897 1.401 . S
C1896 C1901 1.446 . S
C1897 C1896 1.401 . S
C1897 C1898 1.347 . S
C1897 H1957 0.929 . S
C1898 C1897 1.347 . S
C1898 C1899 1.455 . S
C1898 H1958 0.930 . S
C1899 C1886 1.412 . S
C1899 C1898 1.455 . S
C1899 C1900 1.331 . S
C1900 C1889 1.451 . S
C1900 C1899 1.331 . S
C1900 C1901 1.497 . S
C1901 C1892 1.395 . S
C1901 C1896 1.446 . S
C1901 C1900 1.497 . S
C1902 C1903 1.582 . S
C1902 H1959 0.962 . S
C1902 H1960 0.959 . S
C1902 H1961 0.958 . S
C1903 C1902 1.582 . S
C1903 O1906 1.458 . S
C1903 H1932 0.980 . S
O1904 C1849 1.426 . S
O1904 C1850 1.334 . S
O1905 C1877 1.412 . S
O1905 C1878 1.393 . S
O1906 C1868 1.435 . S
O1906 C1903 1.458 . S
O1907 C1859 1.468 . S
O1907 C1860 1.408 . S
H1908 C1849 0.980 . S
H1909 C1848 0.959 . S
H1910 C1848 0.959 . S
H1911 C1848 0.960 . S
H1912 C1851 0.929 . S
H1913 C1855 0.929 . S
H1914 C1856 0.959 . S
H1915 C1856 0.961 . S
H1916 C1856 0.961 . S
H1917 C1857 0.960 . S
H1918 C1857 0.960 . S
H1919 C1857 0.961 . S
H1920 C1859 0.980 . S
H1921 C1858 0.961 . S
H1922 C1858 0.960 . S
H1923 C1858 0.959 . S
H1924 C1861 0.930 . S
H1925 C1865 0.931 . S
H1926 C1866 0.959 . S
H1927 C1866 0.961 . S
H1928 C1866 0.959 . S
H1929 C1867 0.960 . S
H1930 C1867 0.960 . S
H1931 C1867 0.960 . S
H1932 C1903 0.980 . S
H1933 C1869 0.930 . S
H1934 C1873 0.930 . S
H1935 C1874 0.961 . S
H1936 C1874 0.960 . S
H1937 C1874 0.958 . S
H1938 C1875 0.961 . S
H1939 C1875 0.960 . S
H1940 C1875 0.960 . S
H1941 C1877 0.980 . S
H1942 C1876 0.961 . S
H1943 C1876 0.961 . S
H1944 C1876 0.959 . S
H1945 C1879 0.932 . S
H1946 C1883 0.929 . S
H1947 C1884 0.961 . S
H1948 C1884 0.959 . S
H1949 C1884 0.959 . S
H1950 C1885 0.960 . S
H1951 C1885 0.962 . S
H1952 C1885 0.961 . S
H1953 C1887 0.929 . S
H1954 C1890 0.930 . S
H1955 C1891 0.929 . S
H1956 C1894 0.930 . S
H1957 C1897 0.929 . S
H1958 C1898 0.930 . S
H1959 C1902 0.962 . S
H1960 C1902 0.959 . S
H1961 C1902 0.958 . S
C1962 C1963 1.560 . S
C1962 H2023 0.959 . S
C1962 H2024 0.959 . S
C1962 H2025 0.960 . S
C1963 C1962 1.560 . S
C1963 O2018 1.426 . S
C1963 H2022 0.980 . S
C1964 C1965 1.407 . S
C1964 C1969 1.418 . S
C1964 O2018 1.334 . S
C1965 C1964 1.407 . S
C1965 C1966 1.360 . S
C1965 H2026 0.929 . S
C1966 C1965 1.360 . S
C1966 C1967 1.401 . S
C1966 C1970 1.527 . S
C1967 C1966 1.401 . S
C1967 C1968 1.405 . S
C1967 C2000 1.587 . S
C1968 C1967 1.405 . S
C1968 C1969 1.332 . S
C1968 C1971 1.496 . S
C1969 C1964 1.418 . S
C1969 C1968 1.332 . S
C1969 H2027 0.929 . S
C1970 C1966 1.527 . S
C1970 H2028 0.959 . S
C1970 H2029 0.961 . S
C1970 H2030 0.961 . S
C1971 C1968 1.496 . S
C1971 H2031 0.960 . S
C1971 H2032 0.960 . S
C1971 H2033 0.961 . S
C1972 C1973 1.517 . S
C1972 H2035 0.961 . S
C1972 H2036 0.960 . S
C1972 H2037 0.959 . S
C1973 C1972 1.517 . S
C1973 O2021 1.468 . S
C1973 H2034 0.980 . S
C1974 C1975 1.349 . S
C1974 C1979 1.367 . S
C1974 O2021 1.408 . S
C1975 C1974 1.349 . S
C1975 C1976 1.407 . S
C1975 H2038 0.930 . S
C1976 C1975 1.407 . S
C1976 C1977 1.449 . S
C1976 C1980 1.535 . S
C1977 C1976 1.449 . S
C1977 C1978 1.384 . S
C1977 C2002 1.553 . S
C1978 C1977 1.384 . S
C1978 C1979 1.364 . S
C1978 C1981 1.450 . S
C1979 C1974 1.367 . S
C1979 C1978 1.364 . S
C1979 H2039 0.931 . S
C1980 C1976 1.535 . S
C1980 H2040 0.959 . S
C1980 H2041 0.961 . S
C1980 H2042 0.959 . S
C1981 C1978 1.450 . S
C1981 H2043 0.960 . S
C1981 H2044 0.960 . S
C1981 H2045 0.960 . S
C1982 C1983 1.309 . S
C1982 C1987 1.304 . S
C1982 O2020 1.435 . S
C1983 C1982 1.309 . S
C1983 C1984 1.476 . S
C1983 H2047 0.930 . S
C1984 C1983 1.476 . S
C1984 C1985 1.400 . S
C1984 C1988 1.567 . S
C1985 C1984 1.400 . S
C1985 C1986 1.373 . S
C1985 C2007 1.432 . S
C1986 C1985 1.373 . S
C1986 C1987 1.339 . S
C1986 C1989 1.530 . S
C1987 C1982 1.304 . S
C1987 C1986 1.339 . S
C1987 H2048 0.930 . S
C1988 C1984 1.567 . S
C1988 H2049 0.961 . S
C1988 H2050 0.960 . S
C1988 H2051 0.958 . S
C1989 C1986 1.530 . S
C1989 H2052 0.961 . S
C1989 H2053 0.960 . S
C1989 H2054 0.960 . S
C1990 C1991 1.530 . S
C1990 H2056 0.961 . S
C1990 H2057 0.961 . S
C1990 H2058 0.959 . S
C1991 C1990 1.530 . S
C1991 O2019 1.412 . S
C1991 H2055 0.980 . S
C1992 C1993 1.288 . S
C1992 C1997 1.377 . S
C1992 O2019 1.393 . S
C1993 C1992 1.288 . S
C1993 C1994 1.369 . S
C1993 H2059 0.932 . S
C1994 C1993 1.369 . S
C1994 C1995 1.398 . S
C1994 C1998 1.527 . S
C1995 C1994 1.398 . S
C1995 C1996 1.380 . S
C1995 C2009 1.497 . S
C1996 C1995 1.380 . S
C1996 C1997 1.383 . S
C1996 C1999 1.603 . S
C1997 C1992 1.377 . S
C1997 C1996 1.383 . S
C1997 H2060 0.929 . S
C1998 C1994 1.527 . S
C1998 H2061 0.961 . S
C1998 H2062 0.959 . S
C1998 H2063 0.959 . S
C1999 C1996 1.603 . S
C1999 H2064 0.960 . S
C1999 H2065 0.962 . S
C1999 H2066 0.961 . S
C2000 C1967 1.587 . S
C2000 C2001 1.360 . S
C2000 C2013 1.412 . S
C2001 C2000 1.360 . S
C2001 C2002 1.365 . S
C2001 H2067 0.929 . S
C2002 C1977 1.553 . S
C2002 C2001 1.365 . S
C2002 C2003 1.404 . S
C2003 C2002 1.404 . S
C2003 C2004 1.395 . S
C2003 C2014 1.451 . S
C2004 C2003 1.395 . S
C2004 C2005 1.322 . S
C2004 H2068 0.930 . S
C2005 C2004 1.322 . S
C2005 C2006 1.459 . S
C2005 H2069 0.929 . S
C2006 C2005 1.459 . S
C2006 C2007 1.445 . S
C2006 C2015 1.395 . S
C2007 C1985 1.432 . S
C2007 C2006 1.445 . S
C2007 C2008 1.370 . S
C2008 C2007 1.370 . S
C2008 C2009 1.438 . S
C2008 H2070 0.930 . S
C2009 C1995 1.497 . S
C2009 C2008 1.438 . S
C2009 C2010 1.360 . S
C2010 C2009 1.360 . S
C2010 C2011 1.401 . S
C2010 C2015 1.446 . S
C2011 C2010 1.401 . S
C2011 C2012 1.347 . S
C2011 H2071 0.929 . S
C2012 C2011 1.347 . S
C2012 C2013 1.455 . S
C2012 H2072 0.930 . S
C2013 C2000 1.412 . S
C2013 C2012 1.455 . S
C2013 C2014 1.331 . S
C2014 C2003 1.451 . S
C2014 C2013 1.331 . S
C2014 C2015 1.497 . S
C2015 C2006 1.395 . S
C2015 C2010 1.446 . S
C2015 C2014 1.497 . S
C2016 C2017 1.582 . S
C2016 H2073 0.962 . S
C2016 H2074 0.959 . S
C2016 H2075 0.958 . S
C2017 C2016 1.582 . S
C2017 O2020 1.458 . S
C2017 H2046 0.980 . S
O2018 C1963 1.426 . S
O2018 C1964 1.334 . S
O2019 C1991 1.412 . S
O2019 C1992 1.393 . S
O2020 C1982 1.435 . S
O2020 C2017 1.458 . S
O2021 C1973 1.468 . S
O2021 C1974 1.408 . S
H2022 C1963 0.980 . S
H2023 C1962 0.959 . S
H2024 C1962 0.959 . S
H2025 C1962 0.960 . S
H2026 C1965 0.929 . S
H2027 C1969 0.929 . S
H2028 C1970 0.959 . S
H2029 C1970 0.961 . S
H2030 C1970 0.961 . S
H2031 C1971 0.960 . S
H2032 C1971 0.960 . S
H2033 C1971 0.961 . S
H2034 C1973 0.980 . S
H2035 C1972 0.961 . S
H2036 C1972 0.960 . S
H2037 C1972 0.959 . S
H2038 C1975 0.930 . S
H2039 C1979 0.931 . S
H2040 C1980 0.959 . S
H2041 C1980 0.961 . S
H2042 C1980 0.959 . S
H2043 C1981 0.960 . S
H2044 C1981 0.960 . S
H2045 C1981 0.960 . S
H2046 C2017 0.980 . S
H2047 C1983 0.930 . S
H2048 C1987 0.930 . S
H2049 C1988 0.961 . S
H2050 C1988 0.960 . S
H2051 C1988 0.958 . S
H2052 C1989 0.961 . S
H2053 C1989 0.960 . S
H2054 C1989 0.960 . S
H2055 C1991 0.980 . S
H2056 C1990 0.961 . S
H2057 C1990 0.961 . S
H2058 C1990 0.959 . S
H2059 C1993 0.932 . S
H2060 C1997 0.929 . S
H2061 C1998 0.961 . S
H2062 C1998 0.959 . S
H2063 C1998 0.959 . S
H2064 C1999 0.960 . S
H2065 C1999 0.962 . S
H2066 C1999 0.961 . S
H2067 C2001 0.929 . S
H2068 C2004 0.930 . S
H2069 C2005 0.929 . S
H2070 C2008 0.930 . S
H2071 C2011 0.929 . S
H2072 C2012 0.930 . S
H2073 C2016 0.962 . S
H2074 C2016 0.959 . S
H2075 C2016 0.958 . S
C2076 C2077 1.560 . S
C2076 H2137 0.959 . S
C2076 H2138 0.959 . S
C2076 H2139 0.960 . S
C2077 C2076 1.560 . S
C2077 O2132 1.426 . S
C2077 H2136 0.980 . S
C2078 C2079 1.407 . S
C2078 C2083 1.418 . S
C2078 O2132 1.334 . S
C2079 C2078 1.407 . S
C2079 C2080 1.360 . S
C2079 H2140 0.929 . S
C2080 C2079 1.360 . S
C2080 C2081 1.401 . S
C2080 C2084 1.527 . S
C2081 C2080 1.401 . S
C2081 C2082 1.405 . S
C2081 C2114 1.587 . S
C2082 C2081 1.405 . S
C2082 C2083 1.332 . S
C2082 C2085 1.496 . S
C2083 C2078 1.418 . S
C2083 C2082 1.332 . S
C2083 H2141 0.929 . S
C2084 C2080 1.527 . S
C2084 H2142 0.959 . S
C2084 H2143 0.961 . S
C2084 H2144 0.961 . S
C2085 C2082 1.496 . S
C2085 H2145 0.960 . S
C2085 H2146 0.960 . S
C2085 H2147 0.961 . S
C2086 C2087 1.517 . S
C2086 H2149 0.961 . S
C2086 H2150 0.960 . S
C2086 H2151 0.959 . S
C2087 C2086 1.517 . S
C2087 O2135 1.468 . S
C2087 H2148 0.980 . S
C2088 C2089 1.349 . S
C2088 C2093 1.367 . S
C2088 O2135 1.408 . S
C2089 C2088 1.349 . S
C2089 C2090 1.407 . S
C2089 H2152 0.930 . S
C2090 C2089 1.407 . S
C2090 C2091 1.449 . S
C2090 C2094 1.535 . S
C2091 C2090 1.449 . S
C2091 C2092 1.384 . S
C2091 C2116 1.553 . S
C2092 C2091 1.384 . S
C2092 C2093 1.364 . S
C2092 C2095 1.450 . S
C2093 C2088 1.367 . S
C2093 C2092 1.364 . S
C2093 H2153 0.931 . S
C2094 C2090 1.535 . S
C2094 H2154 0.959 . S
C2094 H2155 0.961 . S
C2094 H2156 0.959 . S
C2095 C2092 1.450 . S
C2095 H2157 0.960 . S
C2095 H2158 0.960 . S
C2095 H2159 0.960 . S
C2096 C2097 1.309 . S
C2096 C2101 1.304 . S
C2096 O2134 1.435 . S
C2097 C2096 1.309 . S
C2097 C2098 1.476 . S
C2097 H2161 0.930 . S
C2098 C2097 1.476 . S
C2098 C2099 1.400 . S
C2098 C2102 1.567 . S
C2099 C2098 1.400 . S
C2099 C2100 1.373 . S
C2099 C2121 1.432 . S
C2100 C2099 1.373 . S
C2100 C2101 1.339 . S
C2100 C2103 1.530 . S
C2101 C2096 1.304 . S
C2101 C2100 1.339 . S
C2101 H2162 0.930 . S
C2102 C2098 1.567 . S
C2102 H2163 0.961 . S
C2102 H2164 0.960 . S
C2102 H2165 0.958 . S
C2103 C2100 1.530 . S
C2103 H2166 0.961 . S
C2103 H2167 0.960 . S
C2103 H2168 0.960 . S
C2104 C2105 1.530 . S
C2104 H2170 0.961 . S
C2104 H2171 0.961 . S
C2104 H2172 0.959 . S
C2105 C2104 1.530 . S
C2105 O2133 1.412 . S
C2105 H2169 0.980 . S
C2106 C2107 1.288 . S
C2106 C2111 1.377 . S
C2106 O2133 1.393 . S
C2107 C2106 1.288 . S
C2107 C2108 1.369 . S
C2107 H2173 0.932 . S
C2108 C2107 1.369 . S
C2108 C2109 1.398 . S
C2108 C2112 1.527 . S
C2109 C2108 1.398 . S
C2109 C2110 1.380 . S
C2109 C2123 1.497 . S
C2110 C2109 1.380 . S
C2110 C2111 1.383 . S
C2110 C2113 1.603 . S
C2111 C2106 1.377 . S
C2111 C2110 1.383 . S
C2111 H2174 0.929 . S
C2112 C2108 1.527 . S
C2112 H2175 0.961 . S
C2112 H2176 0.959 . S
C2112 H2177 0.959 . S
C2113 C2110 1.603 . S
C2113 H2178 0.960 . S
C2113 H2179 0.962 . S
C2113 H2180 0.961 . S
C2114 C2081 1.587 . S
C2114 C2115 1.360 . S
C2114 C2127 1.412 . S
C2115 C2114 1.360 . S
C2115 C2116 1.365 . S
C2115 H2181 0.929 . S
C2116 C2091 1.553 . S
C2116 C2115 1.365 . S
C2116 C2117 1.404 . S
C2117 C2116 1.404 . S
C2117 C2118 1.395 . S
C2117 C2128 1.451 . S
C2118 C2117 1.395 . S
C2118 C2119 1.322 . S
C2118 H2182 0.930 . S
C2119 C2118 1.322 . S
C2119 C2120 1.459 . S
C2119 H2183 0.929 . S
C2120 C2119 1.459 . S
C2120 C2121 1.445 . S
C2120 C2129 1.395 . S
C2121 C2099 1.432 . S
C2121 C2120 1.445 . S
C2121 C2122 1.370 . S
C2122 C2121 1.370 . S
C2122 C2123 1.438 . S
C2122 H2184 0.930 . S
C2123 C2109 1.497 . S
C2123 C2122 1.438 . S
C2123 C2124 1.360 . S
C2124 C2123 1.360 . S
C2124 C2125 1.401 . S
C2124 C2129 1.446 . S
C2125 C2124 1.401 . S
C2125 C2126 1.347 . S
C2125 H2185 0.929 . S
C2126 C2125 1.347 . S
C2126 C2127 1.455 . S
C2126 H2186 0.930 . S
C2127 C2114 1.412 . S
C2127 C2126 1.455 . S
C2127 C2128 1.331 . S
C2128 C2117 1.451 . S
C2128 C2127 1.331 . S
C2128 C2129 1.497 . S
C2129 C2120 1.395 . S
C2129 C2124 1.446 . S
C2129 C2128 1.497 . S
C2130 C2131 1.582 . S
C2130 H2187 0.962 . S
C2130 H2188 0.959 . S
C2130 H2189 0.958 . S
C2131 C2130 1.582 . S
C2131 O2134 1.458 . S
C2131 H2160 0.980 . S
O2132 C2077 1.426 . S
O2132 C2078 1.334 . S
O2133 C2105 1.412 . S
O2133 C2106 1.393 . S
O2134 C2096 1.435 . S
O2134 C2131 1.458 . S
O2135 C2087 1.468 . S
O2135 C2088 1.408 . S
H2136 C2077 0.980 . S
H2137 C2076 0.959 . S
H2138 C2076 0.959 . S
H2139 C2076 0.960 . S
H2140 C2079 0.929 . S
H2141 C2083 0.929 . S
H2142 C2084 0.959 . S
H2143 C2084 0.961 . S
H2144 C2084 0.961 . S
H2145 C2085 0.960 . S
H2146 C2085 0.960 . S
H2147 C2085 0.961 . S
H2148 C2087 0.980 . S
H2149 C2086 0.961 . S
H2150 C2086 0.960 . S
H2151 C2086 0.959 . S
H2152 C2089 0.930 . S
H2153 C2093 0.931 . S
H2154 C2094 0.959 . S
H2155 C2094 0.961 . S
H2156 C2094 0.959 . S
H2157 C2095 0.960 . S
H2158 C2095 0.960 . S
H2159 C2095 0.960 . S
H2160 C2131 0.980 . S
H2161 C2097 0.930 . S
H2162 C2101 0.930 . S
H2163 C2102 0.961 . S
H2164 C2102 0.960 . S
H2165 C2102 0.958 . S
H2166 C2103 0.961 . S
H2167 C2103 0.960 . S
H2168 C2103 0.960 . S
H2169 C2105 0.980 . S
H2170 C2104 0.961 . S
H2171 C2104 0.961 . S
H2172 C2104 0.959 . S
H2173 C2107 0.932 . S
H2174 C2111 0.929 . S
H2175 C2112 0.961 . S
H2176 C2112 0.959 . S
H2177 C2112 0.959 . S
H2178 C2113 0.960 . S
H2179 C2113 0.962 . S
H2180 C2113 0.961 . S
H2181 C2115 0.929 . S
H2182 C2118 0.930 . S
H2183 C2119 0.929 . S
H2184 C2122 0.930 . S
H2185 C2125 0.929 . S
H2186 C2126 0.930 . S
H2187 C2130 0.962 . S
H2188 C2130 0.959 . S
H2189 C2130 0.958 . S
C2190 C2191 1.560 . S
C2190 H2251 0.959 . S
C2190 H2252 0.959 . S
C2190 H2253 0.960 . S
C2191 C2190 1.560 . S
C2191 O2246 1.426 . S
C2191 H2250 0.980 . S
C2192 C2193 1.407 . S
C2192 C2197 1.418 . S
C2192 O2246 1.334 . S
C2193 C2192 1.407 . S
C2193 C2194 1.360 . S
C2193 H2254 0.929 . S
C2194 C2193 1.360 . S
C2194 C2195 1.401 . S
C2194 C2198 1.527 . S
C2195 C2194 1.401 . S
C2195 C2196 1.405 . S
C2195 C2228 1.587 . S
C2196 C2195 1.405 . S
C2196 C2197 1.332 . S
C2196 C2199 1.496 . S
C2197 C2192 1.418 . S
C2197 C2196 1.332 . S
C2197 H2255 0.929 . S
C2198 C2194 1.527 . S
C2198 H2256 0.959 . S
C2198 H2257 0.961 . S
C2198 H2258 0.961 . S
C2199 C2196 1.496 . S
C2199 H2259 0.960 . S
C2199 H2260 0.960 . S
C2199 H2261 0.961 . S
C2200 C2201 1.517 . S
C2200 H2263 0.961 . S
C2200 H2264 0.960 . S
C2200 H2265 0.959 . S
C2201 C2200 1.517 . S
C2201 O2249 1.468 . S
C2201 H2262 0.980 . S
C2202 C2203 1.349 . S
C2202 C2207 1.367 . S
C2202 O2249 1.408 . S
C2203 C2202 1.349 . S
C2203 C2204 1.407 . S
C2203 H2266 0.930 . S
C2204 C2203 1.407 . S
C2204 C2205 1.449 . S
C2204 C2208 1.535 . S
C2205 C2204 1.449 . S
C2205 C2206 1.384 . S
C2205 C2230 1.553 . S
C2206 C2205 1.384 . S
C2206 C2207 1.364 . S
C2206 C2209 1.450 . S
C2207 C2202 1.367 . S
C2207 C2206 1.364 . S
C2207 H2267 0.931 . S
C2208 C2204 1.535 . S
C2208 H2268 0.959 . S
C2208 H2269 0.961 . S
C2208 H2270 0.959 . S
C2209 C2206 1.450 . S
C2209 H2271 0.960 . S
C2209 H2272 0.960 . S
C2209 H2273 0.960 . S
C2210 C2211 1.309 . S
C2210 C2215 1.304 . S
C2210 O2248 1.435 . S
C2211 C2210 1.309 . S
C2211 C2212 1.476 . S
C2211 H2275 0.930 . S
C2212 C2211 1.476 . S
C2212 C2213 1.400 . S
C2212 C2216 1.567 . S
C2213 C2212 1.400 . S
C2213 C2214 1.373 . S
C2213 C2235 1.432 . S
C2214 C2213 1.373 . S
C2214 C2215 1.339 . S
C2214 C2217 1.530 . S
C2215 C2210 1.304 . S
C2215 C2214 1.339 . S
C2215 H2276 0.930 . S
C2216 C2212 1.567 . S
C2216 H2277 0.961 . S
C2216 H2278 0.960 . S
C2216 H2279 0.958 . S
C2217 C2214 1.530 . S
C2217 H2280 0.961 . S
C2217 H2281 0.960 . S
C2217 H2282 0.960 . S
C2218 C2219 1.530 . S
C2218 H2284 0.961 . S
C2218 H2285 0.961 . S
C2218 H2286 0.959 . S
C2219 C2218 1.530 . S
C2219 O2247 1.412 . S
C2219 H2283 0.980 . S
C2220 C2221 1.288 . S
C2220 C2225 1.377 . S
C2220 O2247 1.393 . S
C2221 C2220 1.288 . S
C2221 C2222 1.369 . S
C2221 H2287 0.932 . S
C2222 C2221 1.369 . S
C2222 C2223 1.398 . S
C2222 C2226 1.527 . S
C2223 C2222 1.398 . S
C2223 C2224 1.380 . S
C2223 C2237 1.497 . S
C2224 C2223 1.380 . S
C2224 C2225 1.383 . S
C2224 C2227 1.603 . S
C2225 C2220 1.377 . S
C2225 C2224 1.383 . S
C2225 H2288 0.929 . S
C2226 C2222 1.527 . S
C2226 H2289 0.961 . S
C2226 H2290 0.959 . S
C2226 H2291 0.959 . S
C2227 C2224 1.603 . S
C2227 H2292 0.960 . S
C2227 H2293 0.962 . S
C2227 H2294 0.961 . S
C2228 C2195 1.587 . S
C2228 C2229 1.360 . S
C2228 C2241 1.412 . S
C2229 C2228 1.360 . S
C2229 C2230 1.365 . S
C2229 H2295 0.929 . S
C2230 C2205 1.553 . S
C2230 C2229 1.365 . S
C2230 C2231 1.404 . S
C2231 C2230 1.404 . S
C2231 C2232 1.395 . S
C2231 C2242 1.451 . S
C2232 C2231 1.395 . S
C2232 C2233 1.322 . S
C2232 H2296 0.930 . S
C2233 C2232 1.322 . S
C2233 C2234 1.459 . S
C2233 H2297 0.929 . S
C2234 C2233 1.459 . S
C2234 C2235 1.445 . S
C2234 C2243 1.395 . S
C2235 C2213 1.432 . S
C2235 C2234 1.445 . S
C2235 C2236 1.370 . S
C2236 C2235 1.370 . S
C2236 C2237 1.438 . S
C2236 H2298 0.930 . S
C2237 C2223 1.497 . S
C2237 C2236 1.438 . S
C2237 C2238 1.360 . S
C2238 C2237 1.360 . S
C2238 C2239 1.401 . S
C2238 C2243 1.446 . S
C2239 C2238 1.401 . S
C2239 C2240 1.347 . S
C2239 H2299 0.929 . S
C2240 C2239 1.347 . S
C2240 C2241 1.455 . S
C2240 H2300 0.930 . S
C2241 C2228 1.412 . S
C2241 C2240 1.455 . S
C2241 C2242 1.331 . S
C2242 C2231 1.451 . S
C2242 C2241 1.331 . S
C2242 C2243 1.497 . S
C2243 C2234 1.395 . S
C2243 C2238 1.446 . S
C2243 C2242 1.497 . S
C2244 C2245 1.582 . S
C2244 H2301 0.962 . S
C2244 H2302 0.959 . S
C2244 H2303 0.958 . S
C2245 C2244 1.582 . S
C2245 O2248 1.458 . S
C2245 H2274 0.980 . S
O2246 C2191 1.426 . S
O2246 C2192 1.334 . S
O2247 C2219 1.412 . S
O2247 C2220 1.393 . S
O2248 C2210 1.435 . S
O2248 C2245 1.458 . S
O2249 C2201 1.468 . S
O2249 C2202 1.408 . S
H2250 C2191 0.980 . S
H2251 C2190 0.959 . S
H2252 C2190 0.959 . S
H2253 C2190 0.960 . S
H2254 C2193 0.929 . S
H2255 C2197 0.929 . S
H2256 C2198 0.959 . S
H2257 C2198 0.961 . S
H2258 C2198 0.961 . S
H2259 C2199 0.960 . S
H2260 C2199 0.960 . S
H2261 C2199 0.961 . S
H2262 C2201 0.980 . S
H2263 C2200 0.961 . S
H2264 C2200 0.960 . S
H2265 C2200 0.959 . S
H2266 C2203 0.930 . S
H2267 C2207 0.931 . S
H2268 C2208 0.959 . S
H2269 C2208 0.961 . S
H2270 C2208 0.959 . S
H2271 C2209 0.960 . S
H2272 C2209 0.960 . S
H2273 C2209 0.960 . S
H2274 C2245 0.980 . S
H2275 C2211 0.930 . S
H2276 C2215 0.930 . S
H2277 C2216 0.961 . S
H2278 C2216 0.960 . S
H2279 C2216 0.958 . S
H2280 C2217 0.961 . S
H2281 C2217 0.960 . S
H2282 C2217 0.960 . S
H2283 C2219 0.980 . S
H2284 C2218 0.961 . S
H2285 C2218 0.961 . S
H2286 C2218 0.959 . S
H2287 C2221 0.932 . S
H2288 C2225 0.929 . S
H2289 C2226 0.961 . S
H2290 C2226 0.959 . S
H2291 C2226 0.959 . S
H2292 C2227 0.960 . S
H2293 C2227 0.962 . S
H2294 C2227 0.961 . S
H2295 C2229 0.929 . S
H2296 C2232 0.930 . S
H2297 C2233 0.929 . S
H2298 C2236 0.930 . S
H2299 C2239 0.929 . S
H2300 C2240 0.930 . S
H2301 C2244 0.962 . S
H2302 C2244 0.959 . S
H2303 C2244 0.958 . S
H2304 C2312 0.950 . S
H2305 C2317 0.950 . S
H2306 C2314 0.950 . S
H2307 C2316 0.950 . S
H2308 C2318 0.950 . S
H2309 C2320 0.950 . S
H2310 C2322 0.950 . S
H2311 C2323 0.950 . S
C2312 H2304 0.950 . S
C2312 C2313 1.386 1_455 S
C2312 C2314 1.391 . S
C2313 C2312 1.386 1_655 S
C2313 C2317 1.393 . S
C2314 H2306 0.950 . S
C2314 C2312 1.391 . S
C2314 C2315 1.400 1_455 S
C2315 C2314 1.400 1_655 S
C2315 C2316 1.398 . S
C2315 C2321 1.491 . S
C2316 H2307 0.950 . S
C2316 C2315 1.398 . S
C2316 C2317 1.391 . S
C2317 H2305 0.950 . S
C2317 C2313 1.393 . S
C2317 C2316 1.391 . S
C2318 H2308 0.950 . S
C2318 C2319 1.386 . S
C2318 C2320 1.391 . S
C2319 C2318 1.386 . S
C2319 C2323 1.393 1_655 S
C2320 H2309 0.950 . S
C2320 C2318 1.391 . S
C2320 C2321 1.400 . S
C2321 C2315 1.491 . S
C2321 C2320 1.400 . S
C2321 C2322 1.398 1_655 S
C2322 H2310 0.950 . S
C2322 C2321 1.398 1_455 S
C2322 C2323 1.391 . S
C2323 H2311 0.950 . S
C2323 C2319 1.393 1_455 S
C2323 C2322 1.391 . S
H2324 C2332 0.950 . S
H2325 C2337 0.950 . S
H2326 C2334 0.950 . S
H2327 C2336 0.950 . S
H2328 C2338 0.950 . S
H2329 C2340 0.950 . S
H2330 C2342 0.950 . S
H2331 C2343 0.950 . S
C2332 H2324 0.950 . S
C2332 C2333 1.386 . S
C2332 C2334 1.391 . S
C2333 C2332 1.386 . S
C2333 C2337 1.393 . S
C2334 H2326 0.950 . S
C2334 C2332 1.391 . S
C2334 C2335 1.400 . S
C2335 C2334 1.400 . S
C2335 C2336 1.398 . S
C2335 C2341 1.491 . S
C2336 H2327 0.950 . S
C2336 C2335 1.398 . S
C2336 C2337 1.391 . S
C2337 H2325 0.950 . S
C2337 C2333 1.393 . S
C2337 C2336 1.391 . S
C2338 H2328 0.950 . S
C2338 C2339 1.386 . S
C2338 C2340 1.391 . S
C2339 C2338 1.386 . S
C2339 C2343 1.393 . S
C2340 H2329 0.950 . S
C2340 C2338 1.391 . S
C2340 C2341 1.400 . S
C2341 C2335 1.491 . S
C2341 C2340 1.400 . S
C2341 C2342 1.398 . S
C2342 H2330 0.950 . S
C2342 C2341 1.398 . S
C2342 C2343 1.391 . S
C2343 H2331 0.950 . S
C2343 C2339 1.393 . S
C2343 C2342 1.391 . S
H2344 C2352 0.950 . S
H2345 C2357 0.950 . S
H2346 C2354 0.950 . S
H2347 C2356 0.950 . S
H2348 C2358 0.950 . S
H2349 C2360 0.950 . S
H2350 C2362 0.950 . S
H2351 C2363 0.950 . S
C2352 H2344 0.950 . S
C2352 C2353 1.386 1_565 S
C2352 C2354 1.391 . S
C2353 C2352 1.386 1_545 S
C2353 C2357 1.393 . S
C2354 H2346 0.950 . S
C2354 C2352 1.391 . S
C2354 C2355 1.400 1_565 S
C2355 C2354 1.400 1_545 S
C2355 C2356 1.398 . S
C2355 C2361 1.491 . S
C2356 H2347 0.950 . S
C2356 C2355 1.398 . S
C2356 C2357 1.391 . S
C2357 H2345 0.950 . S
C2357 C2353 1.393 . S
C2357 C2356 1.391 . S
C2358 H2348 0.950 . S
C2358 C2359 1.386 . S
C2358 C2360 1.391 . S
C2359 C2358 1.386 . S
C2359 C2363 1.393 1_545 S
C2360 H2349 0.950 . S
C2360 C2358 1.391 . S
C2360 C2361 1.400 . S
C2361 C2355 1.491 . S
C2361 C2360 1.400 . S
C2361 C2362 1.398 1_545 S
C2362 H2350 0.950 . S
C2362 C2361 1.398 1_565 S
C2362 C2363 1.391 . S
C2363 H2351 0.950 . S
C2363 C2359 1.393 1_565 S
C2363 C2362 1.391 . S
H2364 C2372 0.950 . S
H2365 C2377 0.950 . S
H2366 C2374 0.950 . S
H2367 C2376 0.950 . S
H2368 C2378 0.950 . S
H2369 C2380 0.950 . S
H2370 C2382 0.950 . S
H2371 C2383 0.950 . S
C2372 H2364 0.950 . S
C2372 C2373 1.386 . S
C2372 C2374 1.391 . S
C2373 C2372 1.386 . S
C2373 C2377 1.393 1_565 S
C2374 H2366 0.950 . S
C2374 C2372 1.391 . S
C2374 C2375 1.400 . S
C2375 C2374 1.400 . S
C2375 C2376 1.398 1_565 S
C2375 C2381 1.491 . S
C2376 H2367 0.950 . S
C2376 C2375 1.398 1_545 S
C2376 C2377 1.391 . S
C2377 H2365 0.950 . S
C2377 C2373 1.393 1_545 S
C2377 C2376 1.391 . S
C2378 H2368 0.950 . S
C2378 C2379 1.386 1_545 S
C2378 C2380 1.391 . S
C2379 C2378 1.386 1_565 S
C2379 C2383 1.393 . S
C2380 H2369 0.950 . S
C2380 C2378 1.391 . S
C2380 C2381 1.400 1_545 S
C2381 C2375 1.491 . S
C2381 C2380 1.400 1_565 S
C2381 C2382 1.398 . S
C2382 H2370 0.950 . S
C2382 C2381 1.398 . S
C2382 C2383 1.391 . S
C2383 H2371 0.950 . S
C2383 C2379 1.393 . S
C2383 C2382 1.391 . S
H2384 C2392 0.950 . S
H2385 C2397 0.950 . S
H2386 C2394 0.950 . S
H2387 C2396 0.950 . S
H2388 C2398 0.950 . S
H2389 C2400 0.950 . S
H2390 C2402 0.950 . S
H2391 C2403 0.950 . S
C2392 H2384 0.950 . S
C2392 C2393 1.386 . S
C2392 C2394 1.391 . S
C2393 C2392 1.386 . S
C2393 C2397 1.393 . S
C2394 H2386 0.950 . S
C2394 C2392 1.391 . S
C2394 C2395 1.400 . S
C2395 C2394 1.400 . S
C2395 C2396 1.398 . S
C2395 C2401 1.491 . S
C2396 H2387 0.950 . S
C2396 C2395 1.398 . S
C2396 C2397 1.391 . S
C2397 H2385 0.950 . S
C2397 C2393 1.393 . S
C2397 C2396 1.391 . S
C2398 H2388 0.950 . S
C2398 C2399 1.386 . S
C2398 C2400 1.391 . S
C2399 C2398 1.386 . S
C2399 C2403 1.393 . S
C2400 H2389 0.950 . S
C2400 C2398 1.391 . S
C2400 C2401 1.400 . S
C2401 C2395 1.491 . S
C2401 C2400 1.400 . S
C2401 C2402 1.398 . S
C2402 H2390 0.950 . S
C2402 C2401 1.398 . S
C2402 C2403 1.391 . S
C2403 H2391 0.950 . S
C2403 C2399 1.393 . S
C2403 C2402 1.391 . S
H2404 C2412 0.950 . S
H2405 C2417 0.950 . S
H2406 C2414 0.950 . S
H2407 C2416 0.950 . S
H2408 C2418 0.950 . S
H2409 C2420 0.950 . S
H2410 C2422 0.950 . S
H2411 C2423 0.950 . S
C2412 H2404 0.950 . S
C2412 C2413 1.386 . S
C2412 C2414 1.391 . S
C2413 C2412 1.386 . S
C2413 C2417 1.393 . S
C2414 H2406 0.950 . S
C2414 C2412 1.391 . S
C2414 C2415 1.400 . S
C2415 C2414 1.400 . S
C2415 C2416 1.398 . S
C2415 C2421 1.491 . S
C2416 H2407 0.950 . S
C2416 C2415 1.398 . S
C2416 C2417 1.391 . S
C2417 H2405 0.950 . S
C2417 C2413 1.393 . S
C2417 C2416 1.391 . S
C2418 H2408 0.950 . S
C2418 C2419 1.386 . S
C2418 C2420 1.391 . S
C2419 C2418 1.386 . S
C2419 C2423 1.393 . S
C2420 H2409 0.950 . S
C2420 C2418 1.391 . S
C2420 C2421 1.400 . S
C2421 C2415 1.491 . S
C2421 C2420 1.400 . S
C2421 C2422 1.398 . S
C2422 H2410 0.950 . S
C2422 C2421 1.398 . S
C2422 C2423 1.391 . S
C2423 H2411 0.950 . S
C2423 C2419 1.393 . S
C2423 C2422 1.391 . S
H2424 C2432 0.950 . S
H2425 C2437 0.950 . S
H2426 C2434 0.950 . S
H2427 C2436 0.950 . S
H2428 C2438 0.950 . S
H2429 C2440 0.950 . S
H2430 C2442 0.950 . S
H2431 C2443 0.950 . S
C2432 H2424 0.950 . S
C2432 C2433 1.386 . S
C2432 C2434 1.391 . S
C2433 C2432 1.386 . S
C2433 C2437 1.393 1_455 S
C2434 H2426 0.950 . S
C2434 C2432 1.391 . S
C2434 C2435 1.400 . S
C2435 C2434 1.400 . S
C2435 C2436 1.398 1_455 S
C2435 C2441 1.491 . S
C2436 H2427 0.950 . S
C2436 C2435 1.398 1_655 S
C2436 C2437 1.391 . S
C2437 H2425 0.950 . S
C2437 C2433 1.393 1_655 S
C2437 C2436 1.391 . S
C2438 H2428 0.950 . S
C2438 C2439 1.341 1_655 S
C2438 C2440 1.391 . S
C2439 C2438 1.341 1_455 S
C2439 C2443 1.416 . S
C2440 H2429 0.950 . S
C2440 C2438 1.391 . S
C2440 C2441 1.400 1_655 S
C2441 C2435 1.491 . S
C2441 C2440 1.400 1_455 S
C2441 C2442 1.398 . S
C2442 H2430 0.950 . S
C2442 C2441 1.398 . S
C2442 C2443 1.391 . S
C2443 H2431 0.950 . S
C2443 C2439 1.416 . S
C2443 C2442 1.391 . S
H2444 C2452 0.950 . S
H2445 C2457 0.950 . S
H2446 C2454 0.950 . S
H2447 C2456 0.950 . S
H2448 C2458 0.950 . S
H2449 C2460 0.950 . S
H2450 C2462 0.950 . S
H2451 C2463 0.950 . S
C2452 H2444 0.950 . S
C2452 C2453 1.386 . S
C2452 C2454 1.391 . S
C2453 C2452 1.386 . S
C2453 C2457 1.393 . S
C2454 H2446 0.950 . S
C2454 C2452 1.391 . S
C2454 C2455 1.400 . S
C2455 C2454 1.400 . S
C2455 C2456 1.398 . S
C2455 C2461 1.491 . S
C2456 H2447 0.950 . S
C2456 C2455 1.398 . S
C2456 C2457 1.391 . S
C2457 H2445 0.950 . S
C2457 C2453 1.393 . S
C2457 C2456 1.391 . S
C2458 H2448 0.950 . S
C2458 C2459 1.386 . S
C2458 C2460 1.391 . S
C2459 C2458 1.386 . S
C2459 C2463 1.393 . S
C2460 H2449 0.950 . S
C2460 C2458 1.391 . S
C2460 C2461 1.400 . S
C2461 C2455 1.491 . S
C2461 C2460 1.400 . S
C2461 C2462 1.398 . S
C2462 H2450 0.950 . S
C2462 C2461 1.398 . S
C2462 C2463 1.391 . S
C2463 H2451 0.950 . S
C2463 C2459 1.393 . S
C2463 C2462 1.391 . S
H2464 C2472 0.950 . S
H2465 C2477 0.950 . S
H2466 C2474 0.950 . S
H2467 C2476 0.950 . S
H2468 C2478 0.950 . S
H2469 C2480 0.950 . S
H2470 C2482 0.950 . S
H2471 C2483 0.950 . S
C2472 H2464 0.950 . S
C2472 C2473 1.386 . S
C2472 C2474 1.391 . S
C2473 C2472 1.386 . S
C2473 C2477 1.393 1_565 S
C2474 H2466 0.950 . S
C2474 C2472 1.391 . S
C2474 C2475 1.400 . S
C2475 C2474 1.400 . S
C2475 C2476 1.398 1_565 S
C2475 C2481 1.491 . S
C2476 H2467 0.950 . S
C2476 C2475 1.398 1_545 S
C2476 C2477 1.391 . S
C2477 H2465 0.950 . S
C2477 C2473 1.393 1_545 S
C2477 C2476 1.391 . S
C2478 H2468 0.950 . S
C2478 C2479 1.386 1_545 S
C2478 C2480 1.391 . S
C2479 C2478 1.386 1_565 S
C2479 C2483 1.393 . S
C2480 H2469 0.950 . S
C2480 C2478 1.391 . S
C2480 C2481 1.400 1_545 S
C2481 C2475 1.491 . S
C2481 C2480 1.400 1_565 S
C2481 C2482 1.398 . S
C2482 H2470 0.950 . S
C2482 C2481 1.398 . S
C2482 C2483 1.391 . S
C2483 H2471 0.950 . S
C2483 C2479 1.393 . S
C2483 C2482 1.391 . S
H2484 C2492 0.993 . S
H2485 C2497 0.950 . S
H2486 C2494 0.950 1_565 S
H2487 C2496 0.950 . S
H2488 C2498 0.950 . S
H2489 C2500 0.950 . S
H2490 C2502 0.950 . S
H2491 C2503 0.950 . S
C2492 H2484 0.993 . S
C2492 C2493 1.386 . S
C2492 C2494 1.391 . S
C2493 C2492 1.386 . S
C2493 C2497 1.393 . S
C2494 H2486 0.950 1_545 S
C2494 C2492 1.391 . S
C2494 C2495 1.400 . S
C2495 C2494 1.400 . S
C2495 C2496 1.398 . S
C2495 C2501 1.491 . S
C2496 H2487 0.950 . S
C2496 C2495 1.398 . S
C2496 C2497 1.391 . S
C2497 H2485 0.950 . S
C2497 C2493 1.393 . S
C2497 C2496 1.391 . S
C2498 H2488 0.950 . S
C2498 C2499 1.413 . S
C2498 C2500 1.391 . S
C2499 C2498 1.413 . S
C2499 C2503 1.348 1_545 S
C2500 H2489 0.950 . S
C2500 C2498 1.391 . S
C2500 C2501 1.400 . S
C2501 C2495 1.491 . S
C2501 C2500 1.400 . S
C2501 C2502 1.398 1_545 S
C2502 H2490 0.950 . S
C2502 C2501 1.398 1_565 S
C2502 C2503 1.391 . S
C2503 H2491 0.950 . S
C2503 C2499 1.348 1_565 S
C2503 C2502 1.391 . S
H2504 C2512 0.950 . S
H2505 C2517 0.925 1_455 S
H2506 C2514 0.950 . S
H2507 C2516 0.924 1_455 S
H2508 C2518 0.950 . S
H2509 C2520 0.950 . S
H2510 C2522 0.950 . S
H2511 C2523 0.950 . S
C2512 H2504 0.950 . S
C2512 C2513 1.386 . S
C2512 C2514 1.391 . S
C2513 C2512 1.386 . S
C2513 C2517 1.451 . S
C2514 H2506 0.950 . S
C2514 C2512 1.391 . S
C2514 C2515 1.400 . S
C2515 C2514 1.400 . S
C2515 C2516 1.410 . S
C2515 C2521 1.491 . S
C2516 H2507 0.924 1_655 S
C2516 C2515 1.410 . S
C2516 C2517 1.375 . S
C2517 H2505 0.925 1_655 S
C2517 C2513 1.451 . S
C2517 C2516 1.375 . S
C2518 H2508 0.950 . S
C2518 C2519 1.386 1_455 S
C2518 C2520 1.391 . S
C2519 C2518 1.386 1_655 S
C2519 C2523 1.393 . S
C2520 H2509 0.950 . S
C2520 C2518 1.391 . S
C2520 C2521 1.400 1_455 S
C2521 C2515 1.491 . S
C2521 C2520 1.400 1_655 S
C2521 C2522 1.398 . S
C2522 H2510 0.950 . S
C2522 C2521 1.398 . S
C2522 C2523 1.391 . S
C2523 H2511 0.950 . S
C2523 C2519 1.393 . S
C2523 C2522 1.391 . S
H2524 C2532 0.950 . S
H2525 C2537 0.950 . S
H2526 C2534 0.950 . S
H2527 C2536 0.950 . S
H2528 C2538 0.950 . S
H2529 C2540 0.950 . S
H2530 C2542 0.950 . S
H2531 C2543 0.950 . S
C2532 H2524 0.950 . S
C2532 C2533 1.386 . S
C2532 C2534 1.391 . S
C2533 C2532 1.386 . S
C2533 C2537 1.393 . S
C2534 H2526 0.950 . S
C2534 C2532 1.391 . S
C2534 C2535 1.400 . S
C2535 C2534 1.400 . S
C2535 C2536 1.398 . S
C2535 C2541 1.491 . S
C2536 H2527 0.950 . S
C2536 C2535 1.398 . S
C2536 C2537 1.391 . S
C2537 H2525 0.950 . S
C2537 C2533 1.393 . S
C2537 C2536 1.391 . S
C2538 H2528 0.950 . S
C2538 C2539 1.386 . S
C2538 C2540 1.391 . S
C2539 C2538 1.386 . S
C2539 C2543 1.393 . S
C2540 H2529 0.950 . S
C2540 C2538 1.391 . S
C2540 C2541 1.400 . S
C2541 C2535 1.491 . S
C2541 C2540 1.400 . S
C2541 C2542 1.398 . S
C2542 H2530 0.950 . S
C2542 C2541 1.398 . S
C2542 C2543 1.391 . S
C2543 H2531 0.950 . S
C2543 C2539 1.393 . S
C2543 C2542 1.391 . S
H2544 C2552 0.950 . S
H2545 C2557 0.950 . S
H2546 C2554 0.950 . S
H2547 C2556 0.950 . S
H2548 C2558 0.950 . S
H2549 C2560 0.950 . S
H2550 C2562 0.950 . S
H2551 C2563 0.950 . S
C2552 H2544 0.950 . S
C2552 C2553 1.386 . S
C2552 C2554 1.391 . S
C2553 C2552 1.386 . S
C2553 C2557 1.393 . S
C2554 H2546 0.950 . S
C2554 C2552 1.391 . S
C2554 C2555 1.400 . S
C2555 C2554 1.400 . S
C2555 C2556 1.398 . S
C2555 C2561 1.491 . S
C2556 H2547 0.950 . S
C2556 C2555 1.398 . S
C2556 C2557 1.391 . S
C2557 H2545 0.950 . S
C2557 C2553 1.393 . S
C2557 C2556 1.391 . S
C2558 H2548 0.950 . S
C2558 C2559 1.386 . S
C2558 C2560 1.391 . S
C2559 C2558 1.386 . S
C2559 C2563 1.393 . S
C2560 H2549 0.950 . S
C2560 C2558 1.391 . S
C2560 C2561 1.400 . S
C2561 C2555 1.491 . S
C2561 C2560 1.400 . S
C2561 C2562 1.398 . S
C2562 H2550 0.950 . S
C2562 C2561 1.398 . S
C2562 C2563 1.391 . S
C2563 H2551 0.950 . S
C2563 C2559 1.393 . S
C2563 C2562 1.391 . S
H2564 C2572 0.950 . S
H2565 C2577 0.950 . S
H2566 C2574 0.950 . S
H2567 C2576 0.950 . S
H2568 C2578 0.950 . S
H2569 C2580 0.950 . S
H2570 C2582 0.950 . S
H2571 C2583 0.950 . S
C2572 H2564 0.950 . S
C2572 C2573 1.386 . S
C2572 C2574 1.391 . S
C2573 C2572 1.386 . S
C2573 C2577 1.393 . S
C2574 H2566 0.950 . S
C2574 C2572 1.391 . S
C2574 C2575 1.400 . S
C2575 C2574 1.400 . S
C2575 C2576 1.398 . S
C2575 C2581 1.491 . S
C2576 H2567 0.950 . S
C2576 C2575 1.398 . S
C2576 C2577 1.391 . S
C2577 H2565 0.950 . S
C2577 C2573 1.393 . S
C2577 C2576 1.391 . S
C2578 H2568 0.950 . S
C2578 C2579 1.386 . S
C2578 C2580 1.391 . S
C2579 C2578 1.386 . S
C2579 C2583 1.393 . S
C2580 H2569 0.950 . S
C2580 C2578 1.391 . S
C2580 C2581 1.400 . S
C2581 C2575 1.491 . S
C2581 C2580 1.400 . S
C2581 C2582 1.398 . S
C2582 H2570 0.950 . S
C2582 C2581 1.398 . S
C2582 C2583 1.391 . S
C2583 H2571 0.950 . S
C2583 C2579 1.393 . S
C2583 C2582 1.391 . S
H2584 C2592 0.950 . S
H2585 C2597 0.950 . S
H2586 C2594 0.950 . S
H2587 C2596 0.950 . S
H2588 C2598 0.950 . S
H2589 C2600 0.950 . S
H2590 C2602 0.950 . S
H2591 C2603 0.950 . S
C2592 H2584 0.950 . S
C2592 C2593 1.386 . S
C2592 C2594 1.391 . S
C2593 C2592 1.386 . S
C2593 C2597 1.393 . S
C2594 H2586 0.950 . S
C2594 C2592 1.391 . S
C2594 C2595 1.400 . S
C2595 C2594 1.400 . S
C2595 C2596 1.398 . S
C2595 C2601 1.491 . S
C2596 H2587 0.950 . S
C2596 C2595 1.398 . S
C2596 C2597 1.391 . S
C2597 H2585 0.950 . S
C2597 C2593 1.393 . S
C2597 C2596 1.391 . S
C2598 H2588 0.950 . S
C2598 C2599 1.386 . S
C2598 C2600 1.391 . S
C2599 C2598 1.386 . S
C2599 C2603 1.393 . S
C2600 H2589 0.950 . S
C2600 C2598 1.391 . S
C2600 C2601 1.400 . S
C2601 C2595 1.491 . S
C2601 C2600 1.400 . S
C2601 C2602 1.398 . S
C2602 H2590 0.950 . S
C2602 C2601 1.398 . S
C2602 C2603 1.391 . S
C2603 H2591 0.950 . S
C2603 C2599 1.393 . S
C2603 C2602 1.391 . S
H2604 C2612 0.950 . S
H2605 C2617 0.950 . S
H2606 C2614 0.950 . S
H2607 C2616 0.950 . S
H2608 C2618 0.950 . S
H2609 C2620 0.950 . S
H2610 C2622 0.950 . S
H2611 C2623 0.950 . S
C2612 H2604 0.950 . S
C2612 C2613 1.386 . S
C2612 C2614 1.391 . S
C2613 C2612 1.386 . S
C2613 C2617 1.393 . S
C2614 H2606 0.950 . S
C2614 C2612 1.391 . S
C2614 C2615 1.400 . S
C2615 C2614 1.400 . S
C2615 C2616 1.398 . S
C2615 C2621 1.491 . S
C2616 H2607 0.950 . S
C2616 C2615 1.398 . S
C2616 C2617 1.391 . S
C2617 H2605 0.950 . S
C2617 C2613 1.393 . S
C2617 C2616 1.391 . S
C2618 H2608 0.950 . S
C2618 C2619 1.386 . S
C2618 C2620 1.391 . S
C2619 C2618 1.386 . S
C2619 C2623 1.393 . S
C2620 H2609 0.950 . S
C2620 C2618 1.391 . S
C2620 C2621 1.400 . S
C2621 C2615 1.491 . S
C2621 C2620 1.400 . S
C2621 C2622 1.398 . S
C2622 H2610 0.950 . S
C2622 C2621 1.398 . S
C2622 C2623 1.391 . S
C2623 H2611 0.950 . S
C2623 C2619 1.393 . S
C2623 C2622 1.391 . S
H2624 C2632 0.950 . S
H2625 C2637 0.950 . S
H2626 C2634 0.950 . S
H2627 C2636 0.950 . S
H2628 C2638 0.950 . S
H2629 C2640 0.950 . S
H2630 C2642 0.950 . S
H2631 C2643 0.950 . S
C2632 H2624 0.950 . S
C2632 C2633 1.386 . S
C2632 C2634 1.391 . S
C2633 C2632 1.386 . S
C2633 C2637 1.393 . S
C2634 H2626 0.950 . S
C2634 C2632 1.391 . S
C2634 C2635 1.400 . S
C2635 C2634 1.400 . S
C2635 C2636 1.398 . S
C2635 C2641 1.491 . S
C2636 H2627 0.950 . S
C2636 C2635 1.398 . S
C2636 C2637 1.391 . S
C2637 H2625 0.950 . S
C2637 C2633 1.393 . S
C2637 C2636 1.391 . S
C2638 H2628 0.950 . S
C2638 C2639 1.386 . S
C2638 C2640 1.391 . S
C2639 C2638 1.386 . S
C2639 C2643 1.393 . S
C2640 H2629 0.950 . S
C2640 C2638 1.391 . S
C2640 C2641 1.400 . S
C2641 C2635 1.491 . S
C2641 C2640 1.400 . S
C2641 C2642 1.398 . S
C2642 H2630 0.950 . S
C2642 C2641 1.398 . S
C2642 C2643 1.391 . S
C2643 H2631 0.950 . S
C2643 C2639 1.393 . S
C2643 C2642 1.391 . S
H2644 C2652 0.950 . S
H2645 C2657 0.950 . S
H2646 C2654 0.950 . S
H2647 C2656 0.950 . S
H2648 C2658 0.950 . S
H2649 C2660 0.950 . S
H2650 C2662 0.950 . S
H2651 C2663 0.950 . S
C2652 H2644 0.950 . S
C2652 C2653 1.386 . S
C2652 C2654 1.391 . S
C2653 C2652 1.386 . S
C2653 C2657 1.393 . S
C2654 H2646 0.950 . S
C2654 C2652 1.391 . S
C2654 C2655 1.400 . S
C2655 C2654 1.400 . S
C2655 C2656 1.398 . S
C2655 C2661 1.491 . S
C2656 H2647 0.950 . S
C2656 C2655 1.398 . S
C2656 C2657 1.391 . S
C2657 H2645 0.950 . S
C2657 C2653 1.393 . S
C2657 C2656 1.391 . S
C2658 H2648 0.950 . S
C2658 C2659 1.386 . S
C2658 C2660 1.391 . S
C2659 C2658 1.386 . S
C2659 C2663 1.393 . S
C2660 H2649 0.950 . S
C2660 C2658 1.391 . S
C2660 C2661 1.400 . S
C2661 C2655 1.491 . S
C2661 C2660 1.400 . S
C2661 C2662 1.398 . S
C2662 H2650 0.950 . S
C2662 C2661 1.398 . S
C2662 C2663 1.391 . S
C2663 H2651 0.950 . S
C2663 C2659 1.393 . S
C2663 C2662 1.391 . S
H2664 C2672 0.950 . S
H2665 C2677 0.950 . S
H2666 C2674 0.950 . S
H2667 C2676 0.950 . S
H2668 C2678 0.950 . S
H2669 C2680 0.950 . S
H2670 C2682 0.950 . S
H2671 C2683 0.950 . S
C2672 H2664 0.950 . S
C2672 C2673 1.386 . S
C2672 C2674 1.391 . S
C2673 C2672 1.386 . S
C2673 C2677 1.393 . S
C2674 H2666 0.950 . S
C2674 C2672 1.391 . S
C2674 C2675 1.400 . S
C2675 C2674 1.400 . S
C2675 C2676 1.398 . S
C2675 C2681 1.491 . S
C2676 H2667 0.950 . S
C2676 C2675 1.398 . S
C2676 C2677 1.391 . S
C2677 H2665 0.950 . S
C2677 C2673 1.393 . S
C2677 C2676 1.391 . S
C2678 H2668 0.950 . S
C2678 C2679 1.386 . S
C2678 C2680 1.391 . S
C2679 C2678 1.386 . S
C2679 C2683 1.393 . S
C2680 H2669 0.950 . S
C2680 C2678 1.391 . S
C2680 C2681 1.400 . S
C2681 C2675 1.491 . S
C2681 C2680 1.400 . S
C2681 C2682 1.398 . S
C2682 H2670 0.950 . S
C2682 C2681 1.398 . S
C2682 C2683 1.391 . S
C2683 H2671 0.950 . S
C2683 C2679 1.393 . S
C2683 C2682 1.391 . S
H2684 C2692 0.950 . S
H2685 C2697 0.950 . S
H2686 C2694 0.950 . S
H2687 C2696 0.950 . S
H2688 C2698 0.950 . S
H2689 C2700 0.950 . S
H2690 C2702 0.950 . S
H2691 C2703 0.950 . S
C2692 H2684 0.950 . S
C2692 C2693 1.386 . S
C2692 C2694 1.391 . S
C2693 C2692 1.386 . S
C2693 C2697 1.393 . S
C2694 H2686 0.950 . S
C2694 C2692 1.391 . S
C2694 C2695 1.400 . S
C2695 C2694 1.400 . S
C2695 C2696 1.398 . S
C2695 C2701 1.491 . S
C2696 H2687 0.950 . S
C2696 C2695 1.398 . S
C2696 C2697 1.391 . S
C2697 H2685 0.950 . S
C2697 C2693 1.393 . S
C2697 C2696 1.391 . S
C2698 H2688 0.950 . S
C2698 C2699 1.386 . S
C2698 C2700 1.391 . S
C2699 C2698 1.386 . S
C2699 C2703 1.393 . S
C2700 H2689 0.950 . S
C2700 C2698 1.391 . S
C2700 C2701 1.400 . S
C2701 C2695 1.491 . S
C2701 C2700 1.400 . S
C2701 C2702 1.398 . S
C2702 H2690 0.950 . S
C2702 C2701 1.398 . S
C2702 C2703 1.391 . S
C2703 H2691 0.950 . S
C2703 C2699 1.393 . S
C2703 C2702 1.391 . S
H2704 C2712 0.950 . S
H2705 C2717 0.950 . S
H2706 C2714 0.950 . S
H2707 C2716 0.950 . S
H2708 C2718 0.950 . S
H2709 C2720 0.950 . S
H2710 C2722 0.950 . S
H2711 C2723 0.950 . S
C2712 H2704 0.950 . S
C2712 C2713 1.386 . S
C2712 C2714 1.391 . S
C2713 C2712 1.386 . S
C2713 C2717 1.393 . S
C2714 H2706 0.950 . S
C2714 C2712 1.391 . S
C2714 C2715 1.400 . S
C2715 C2714 1.400 . S
C2715 C2716 1.398 . S
C2715 C2721 1.491 . S
C2716 H2707 0.950 . S
C2716 C2715 1.398 . S
C2716 C2717 1.391 . S
C2717 H2705 0.950 . S
C2717 C2713 1.393 . S
C2717 C2716 1.391 . S
C2718 H2708 0.950 . S
C2718 C2719 1.386 . S
C2718 C2720 1.391 . S
C2719 C2718 1.386 . S
C2719 C2723 1.393 . S
C2720 H2709 0.950 . S
C2720 C2718 1.391 . S
C2720 C2721 1.400 . S
C2721 C2715 1.491 . S
C2721 C2720 1.400 . S
C2721 C2722 1.398 . S
C2722 H2710 0.950 . S
C2722 C2721 1.398 . S
C2722 C2723 1.391 . S
C2723 H2711 0.950 . S
C2723 C2719 1.393 . S
C2723 C2722 1.391 . S
H2724 C2732 0.950 . S
H2725 C2737 0.950 . S
H2726 C2734 0.950 . S
H2727 C2736 0.950 . S
H2728 C2738 0.950 . S
H2729 C2740 0.950 . S
H2730 C2742 0.950 . S
H2731 C2743 0.950 . S
C2732 H2724 0.950 . S
C2732 C2733 1.386 . S
C2732 C2734 1.391 . S
C2733 C2732 1.386 . S
C2733 C2737 1.393 . S
C2734 H2726 0.950 . S
C2734 C2732 1.391 . S
C2734 C2735 1.400 . S
C2735 C2734 1.400 . S
C2735 C2736 1.398 . S
C2735 C2741 1.491 . S
C2736 H2727 0.950 . S
C2736 C2735 1.398 . S
C2736 C2737 1.391 . S
C2737 H2725 0.950 . S
C2737 C2733 1.393 . S
C2737 C2736 1.391 . S
C2738 H2728 0.950 . S
C2738 C2739 1.386 . S
C2738 C2740 1.391 . S
C2739 C2738 1.386 . S
C2739 C2743 1.393 . S
C2740 H2729 0.950 . S
C2740 C2738 1.391 . S
C2740 C2741 1.400 . S
C2741 C2735 1.491 . S
C2741 C2740 1.400 . S
C2741 C2742 1.398 . S
C2742 H2730 0.950 . S
C2742 C2741 1.398 . S
C2742 C2743 1.391 . S
C2743 H2731 0.950 . S
C2743 C2739 1.393 . S
C2743 C2742 1.391 . S
H2744 C2752 0.950 . S
H2745 C2757 0.950 . S
H2746 C2754 0.950 . S
H2747 C2756 0.950 . S
H2748 C2758 0.950 . S
H2749 C2760 0.950 . S
H2750 C2762 0.950 . S
H2751 C2763 0.950 . S
C2752 H2744 0.950 . S
C2752 C2753 1.386 . S
C2752 C2754 1.391 . S
C2753 C2752 1.386 . S
C2753 C2757 1.393 . S
C2754 H2746 0.950 . S
C2754 C2752 1.391 . S
C2754 C2755 1.400 . S
C2755 C2754 1.400 . S
C2755 C2756 1.398 . S
C2755 C2761 1.491 . S
C2756 H2747 0.950 . S
C2756 C2755 1.398 . S
C2756 C2757 1.391 . S
C2757 H2745 0.950 . S
C2757 C2753 1.393 . S
C2757 C2756 1.391 . S
C2758 H2748 0.950 . S
C2758 C2759 1.386 . S
C2758 C2760 1.391 . S
C2759 C2758 1.386 . S
C2759 C2763 1.393 . S
C2760 H2749 0.950 . S
C2760 C2758 1.391 . S
C2760 C2761 1.400 . S
C2761 C2755 1.491 . S
C2761 C2760 1.400 . S
C2761 C2762 1.398 . S
C2762 H2750 0.950 . S
C2762 C2761 1.398 . S
C2762 C2763 1.391 . S
C2763 H2751 0.950 . S
C2763 C2759 1.393 . S
C2763 C2762 1.391 . S
H2764 C2772 0.950 . S
H2765 C2777 0.950 . S
H2766 C2774 0.950 . S
H2767 C2776 0.950 . S
H2768 C2778 0.950 . S
H2769 C2780 0.950 . S
H2770 C2782 0.950 . S
H2771 C2783 0.950 . S
C2772 H2764 0.950 . S
C2772 C2773 1.386 . S
C2772 C2774 1.391 . S
C2773 C2772 1.386 . S
C2773 C2777 1.393 . S
C2774 H2766 0.950 . S
C2774 C2772 1.391 . S
C2774 C2775 1.400 . S
C2775 C2774 1.400 . S
C2775 C2776 1.398 . S
C2775 C2781 1.491 . S
C2776 H2767 0.950 . S
C2776 C2775 1.398 . S
C2776 C2777 1.391 . S
C2777 H2765 0.950 . S
C2777 C2773 1.393 . S
C2777 C2776 1.391 . S
C2778 H2768 0.950 . S
C2778 C2779 1.386 . S
C2778 C2780 1.391 . S
C2779 C2778 1.386 . S
C2779 C2783 1.393 . S
C2780 H2769 0.950 . S
C2780 C2778 1.391 . S
C2780 C2781 1.400 . S
C2781 C2775 1.491 . S
C2781 C2780 1.400 . S
C2781 C2782 1.398 . S
C2782 H2770 0.950 . S
C2782 C2781 1.398 . S
C2782 C2783 1.391 . S
C2783 H2771 0.950 . S
C2783 C2779 1.393 . S
C2783 C2782 1.391 . S
H2784 C2792 0.950 . S
H2785 C2797 0.950 . S
H2786 C2794 0.950 . S
H2787 C2796 0.950 . S
H2788 C2798 0.950 . S
H2789 C2800 0.950 . S
H2790 C2802 0.950 . S
H2791 C2803 0.950 . S
C2792 H2784 0.950 . S
C2792 C2793 1.386 . S
C2792 C2794 1.391 . S
C2793 C2792 1.386 . S
C2793 C2797 1.393 . S
C2794 H2786 0.950 . S
C2794 C2792 1.391 . S
C2794 C2795 1.400 . S
C2795 C2794 1.400 . S
C2795 C2796 1.398 . S
C2795 C2801 1.491 . S
C2796 H2787 0.950 . S
C2796 C2795 1.398 . S
C2796 C2797 1.391 . S
C2797 H2785 0.950 . S
C2797 C2793 1.393 . S
C2797 C2796 1.391 . S
C2798 H2788 0.950 . S
C2798 C2799 1.386 . S
C2798 C2800 1.391 . S
C2799 C2798 1.386 . S
C2799 C2803 1.393 . S
C2800 H2789 0.950 . S
C2800 C2798 1.391 . S
C2800 C2801 1.400 . S
C2801 C2795 1.491 . S
C2801 C2800 1.400 . S
C2801 C2802 1.398 . S
C2802 H2790 0.950 . S
C2802 C2801 1.398 . S
C2802 C2803 1.391 . S
C2803 H2791 0.950 . S
C2803 C2799 1.393 . S
C2803 C2802 1.391 . S
H2804 C2812 0.950 . S
H2805 C2817 0.950 . S
H2806 C2814 0.950 . S
H2807 C2816 0.950 . S
H2808 C2818 0.950 . S
H2809 C2820 0.950 . S
H2810 C2822 0.950 . S
H2811 C2823 0.950 . S
C2812 H2804 0.950 . S
C2812 C2813 1.386 . S
C2812 C2814 1.391 . S
C2813 C2812 1.386 . S
C2813 C2817 1.393 . S
C2814 H2806 0.950 . S
C2814 C2812 1.391 . S
C2814 C2815 1.400 . S
C2815 C2814 1.400 . S
C2815 C2816 1.398 . S
C2815 C2821 1.491 . S
C2816 H2807 0.950 . S
C2816 C2815 1.398 . S
C2816 C2817 1.391 . S
C2817 H2805 0.950 . S
C2817 C2813 1.393 . S
C2817 C2816 1.391 . S
C2818 H2808 0.950 . S
C2818 C2819 1.386 . S
C2818 C2820 1.391 . S
C2819 C2818 1.386 . S
C2819 C2823 1.393 . S
C2820 H2809 0.950 . S
C2820 C2818 1.391 . S
C2820 C2821 1.400 . S
C2821 C2815 1.491 . S
C2821 C2820 1.400 . S
C2821 C2822 1.398 . S
C2822 H2810 0.950 . S
C2822 C2821 1.398 . S
C2822 C2823 1.391 . S
C2823 H2811 0.950 . S
C2823 C2819 1.393 . S
C2823 C2822 1.391 . S
H2824 C2832 0.950 . S
H2825 C2837 0.950 . S
H2826 C2834 0.950 . S
H2827 C2836 0.950 . S
H2828 C2838 0.950 . S
H2829 C2840 0.950 . S
H2830 C2842 0.950 . S
H2831 C2843 0.950 . S
C2832 H2824 0.950 . S
C2832 C2833 1.386 . S
C2832 C2834 1.391 . S
C2833 C2832 1.386 . S
C2833 C2837 1.393 . S
C2834 H2826 0.950 . S
C2834 C2832 1.391 . S
C2834 C2835 1.400 . S
C2835 C2834 1.400 . S
C2835 C2836 1.398 . S
C2835 C2841 1.491 . S
C2836 H2827 0.950 . S
C2836 C2835 1.398 . S
C2836 C2837 1.391 . S
C2837 H2825 0.950 . S
C2837 C2833 1.393 . S
C2837 C2836 1.391 . S
C2838 H2828 0.950 . S
C2838 C2839 1.386 . S
C2838 C2840 1.391 . S
C2839 C2838 1.386 . S
C2839 C2843 1.393 . S
C2840 H2829 0.950 . S
C2840 C2838 1.391 . S
C2840 C2841 1.400 . S
C2841 C2835 1.491 . S
C2841 C2840 1.400 . S
C2841 C2842 1.398 . S
C2842 H2830 0.950 . S
C2842 C2841 1.398 . S
C2842 C2843 1.391 . S
C2843 H2831 0.950 . S
C2843 C2839 1.393 . S
C2843 C2842 1.391 . S
H2844 C2852 0.950 . S
H2845 C2857 0.950 . S
H2846 C2854 0.950 . S
H2847 C2856 0.950 . S
H2848 C2858 0.950 . S
H2849 C2860 0.950 . S
H2850 C2862 0.950 . S
H2851 C2863 0.950 . S
C2852 H2844 0.950 . S
C2852 C2853 1.386 . S
C2852 C2854 1.391 . S
C2853 C2852 1.386 . S
C2853 C2857 1.393 . S
C2854 H2846 0.950 . S
C2854 C2852 1.391 . S
C2854 C2855 1.400 . S
C2855 C2854 1.400 . S
C2855 C2856 1.398 . S
C2855 C2861 1.491 . S
C2856 H2847 0.950 . S
C2856 C2855 1.398 . S
C2856 C2857 1.391 . S
C2857 H2845 0.950 . S
C2857 C2853 1.393 . S
C2857 C2856 1.391 . S
C2858 H2848 0.950 . S
C2858 C2859 1.386 . S
C2858 C2860 1.391 . S
C2859 C2858 1.386 . S
C2859 C2863 1.393 . S
C2860 H2849 0.950 . S
C2860 C2858 1.391 . S
C2860 C2861 1.400 . S
C2861 C2855 1.491 . S
C2861 C2860 1.400 . S
C2861 C2862 1.398 . S
C2862 H2850 0.950 . S
C2862 C2861 1.398 . S
C2862 C2863 1.391 . S
C2863 H2851 0.950 . S
C2863 C2859 1.393 . S
C2863 C2862 1.391 . S
H2864 C2872 0.950 . S
H2865 C2877 0.950 . S
H2866 C2874 0.950 . S
H2867 C2876 0.950 . S
H2868 C2878 0.950 . S
H2869 C2880 0.950 . S
H2870 C2882 0.950 . S
H2871 C2883 0.950 . S
C2872 H2864 0.950 . S
C2872 C2873 1.386 . S
C2872 C2874 1.391 . S
C2873 C2872 1.386 . S
C2873 C2877 1.393 . S
C2874 H2866 0.950 . S
C2874 C2872 1.391 . S
C2874 C2875 1.400 . S
C2875 C2874 1.400 . S
C2875 C2876 1.398 . S
C2875 C2881 1.491 . S
C2876 H2867 0.950 . S
C2876 C2875 1.398 . S
C2876 C2877 1.391 . S
C2877 H2865 0.950 . S
C2877 C2873 1.393 . S
C2877 C2876 1.391 . S
C2878 H2868 0.950 . S
C2878 C2879 1.386 . S
C2878 C2880 1.391 . S
C2879 C2878 1.386 . S
C2879 C2883 1.393 . S
C2880 H2869 0.950 . S
C2880 C2878 1.391 . S
C2880 C2881 1.400 . S
C2881 C2875 1.491 . S
C2881 C2880 1.400 . S
C2881 C2882 1.398 . S
C2882 H2870 0.950 . S
C2882 C2881 1.398 . S
C2882 C2883 1.391 . S
C2883 H2871 0.950 . S
C2883 C2879 1.393 . S
C2883 C2882 1.391 . S
H2884 C2892 0.950 . S
H2885 C2897 0.950 . S
H2886 C2894 0.950 . S
H2887 C2896 0.950 . S
H2888 C2898 0.950 . S
H2889 C2900 0.950 . S
H2890 C2902 0.950 . S
H2891 C2903 0.950 . S
C2892 H2884 0.950 . S
C2892 C2893 1.386 . S
C2892 C2894 1.391 . S
C2893 C2892 1.386 . S
C2893 C2897 1.393 . S
C2894 H2886 0.950 . S
C2894 C2892 1.391 . S
C2894 C2895 1.400 . S
C2895 C2894 1.400 . S
C2895 C2896 1.398 . S
C2895 C2901 1.491 . S
C2896 H2887 0.950 . S
C2896 C2895 1.398 . S
C2896 C2897 1.391 . S
C2897 H2885 0.950 . S
C2897 C2893 1.393 . S
C2897 C2896 1.391 . S
C2898 H2888 0.950 . S
C2898 C2899 1.386 . S
C2898 C2900 1.391 . S
C2899 C2898 1.386 . S
C2899 C2903 1.393 . S
C2900 H2889 0.950 . S
C2900 C2898 1.391 . S
C2900 C2901 1.400 . S
C2901 C2895 1.491 . S
C2901 C2900 1.400 . S
C2901 C2902 1.398 . S
C2902 H2890 0.950 . S
C2902 C2901 1.398 . S
C2902 C2903 1.391 . S
C2903 H2891 0.950 . S
C2903 C2899 1.393 . S
C2903 C2902 1.391 . S
H2904 C2912 0.950 . S
H2905 C2917 0.950 . S
H2906 C2914 0.950 . S
H2907 C2916 0.950 . S
H2908 C2918 0.950 . S
H2909 C2920 0.950 . S
H2910 C2922 0.950 . S
H2911 C2923 0.950 . S
C2912 H2904 0.950 . S
C2912 C2913 1.386 . S
C2912 C2914 1.391 . S
C2913 C2912 1.386 . S
C2913 C2917 1.393 . S
C2914 H2906 0.950 . S
C2914 C2912 1.391 . S
C2914 C2915 1.400 . S
C2915 C2914 1.400 . S
C2915 C2916 1.398 . S
C2915 C2921 1.491 . S
C2916 H2907 0.950 . S
C2916 C2915 1.398 . S
C2916 C2917 1.391 . S
C2917 H2905 0.950 . S
C2917 C2913 1.393 . S
C2917 C2916 1.391 . S
C2918 H2908 0.950 . S
C2918 C2919 1.386 . S
C2918 C2920 1.391 . S
C2919 C2918 1.386 . S
C2919 C2923 1.393 . S
C2920 H2909 0.950 . S
C2920 C2918 1.391 . S
C2920 C2921 1.400 . S
C2921 C2915 1.491 . S
C2921 C2920 1.400 . S
C2921 C2922 1.398 . S
C2922 H2910 0.950 . S
C2922 C2921 1.398 . S
C2922 C2923 1.391 . S
C2923 H2911 0.950 . S
C2923 C2919 1.393 . S
C2923 C2922 1.391 . S
H2924 C2932 0.950 . S
H2925 C2937 0.950 . S
H2926 C2934 0.950 . S
H2927 C2936 0.950 . S
H2928 C2938 0.950 . S
H2929 C2940 0.950 . S
H2930 C2942 0.950 . S
H2931 C2943 0.950 . S
C2932 H2924 0.950 . S
C2932 C2933 1.386 . S
C2932 C2934 1.391 . S
C2933 C2932 1.386 . S
C2933 C2937 1.393 . S
C2934 H2926 0.950 . S
C2934 C2932 1.391 . S
C2934 C2935 1.400 . S
C2935 C2934 1.400 . S
C2935 C2936 1.398 . S
C2935 C2941 1.491 . S
C2936 H2927 0.950 . S
C2936 C2935 1.398 . S
C2936 C2937 1.391 . S
C2937 H2925 0.950 . S
C2937 C2933 1.393 . S
C2937 C2936 1.391 . S
C2938 H2928 0.950 . S
C2938 C2939 1.386 . S
C2938 C2940 1.391 . S
C2939 C2938 1.386 . S
C2939 C2943 1.393 . S
C2940 H2929 0.950 . S
C2940 C2938 1.391 . S
C2940 C2941 1.400 . S
C2941 C2935 1.491 . S
C2941 C2940 1.400 . S
C2941 C2942 1.398 . S
C2942 H2930 0.950 . S
C2942 C2941 1.398 . S
C2942 C2943 1.391 . S
C2943 H2931 0.950 . S
C2943 C2939 1.393 . S
C2943 C2942 1.391 . S
H2944 C2952 0.950 . S
H2945 C2957 0.950 . S
H2946 C2954 0.950 . S
H2947 C2956 0.950 . S
H2948 C2958 0.950 . S
H2949 C2960 0.950 . S
H2950 C2962 0.950 . S
H2951 C2963 0.950 . S
C2952 H2944 0.950 . S
C2952 C2953 1.386 . S
C2952 C2954 1.391 . S
C2953 C2952 1.386 . S
C2953 C2957 1.393 . S
C2954 H2946 0.950 . S
C2954 C2952 1.391 . S
C2954 C2955 1.400 . S
C2955 C2954 1.400 . S
C2955 C2956 1.398 . S
C2955 C2961 1.491 . S
C2956 H2947 0.950 . S
C2956 C2955 1.398 . S
C2956 C2957 1.391 . S
C2957 H2945 0.950 . S
C2957 C2953 1.393 . S
C2957 C2956 1.391 . S
C2958 H2948 0.950 . S
C2958 C2959 1.386 . S
C2958 C2960 1.391 . S
C2959 C2958 1.386 . S
C2959 C2963 1.393 . S
C2960 H2949 0.950 . S
C2960 C2958 1.391 . S
C2960 C2961 1.400 . S
C2961 C2955 1.491 . S
C2961 C2960 1.400 . S
C2961 C2962 1.398 . S
C2962 H2950 0.950 . S
C2962 C2961 1.398 . S
C2962 C2963 1.391 . S
C2963 H2951 0.950 . S
C2963 C2959 1.393 . S
C2963 C2962 1.391 . S
H2964 C2972 0.950 . S
H2965 C2977 0.950 . S
H2966 C2974 0.950 . S
H2967 C2976 0.950 . S
H2968 C2978 0.950 . S
H2969 C2980 0.950 . S
H2970 C2982 0.950 . S
H2971 C2983 0.950 . S
C2972 H2964 0.950 . S
C2972 C2973 1.386 . S
C2972 C2974 1.391 . S
C2973 C2972 1.386 . S
C2973 C2977 1.393 . S
C2974 H2966 0.950 . S
C2974 C2972 1.391 . S
C2974 C2975 1.400 . S
C2975 C2974 1.400 . S
C2975 C2976 1.398 . S
C2975 C2981 1.491 . S
C2976 H2967 0.950 . S
C2976 C2975 1.398 . S
C2976 C2977 1.391 . S
C2977 H2965 0.950 . S
C2977 C2973 1.393 . S
C2977 C2976 1.391 . S
C2978 H2968 0.950 . S
C2978 C2979 1.386 . S
C2978 C2980 1.391 . S
C2979 C2978 1.386 . S
C2979 C2983 1.393 . S
C2980 H2969 0.950 . S
C2980 C2978 1.391 . S
C2980 C2981 1.400 . S
C2981 C2975 1.491 . S
C2981 C2980 1.400 . S
C2981 C2982 1.398 . S
C2982 H2970 0.950 . S
C2982 C2981 1.398 . S
C2982 C2983 1.391 . S
C2983 H2971 0.950 . S
C2983 C2979 1.393 . S
C2983 C2982 1.391 . S
H2984 C2992 0.950 . S
H2985 C2997 0.950 . S
H2986 C2994 0.950 . S
H2987 C2996 0.950 . S
H2988 C2998 0.950 . S
H2989 C3000 0.950 . S
H2990 C3002 0.950 . S
H2991 C3003 0.950 . S
C2992 H2984 0.950 . S
C2992 C2993 1.386 . S
C2992 C2994 1.391 . S
C2993 C2992 1.386 . S
C2993 C2997 1.393 . S
C2994 H2986 0.950 . S
C2994 C2992 1.391 . S
C2994 C2995 1.400 . S
C2995 C2994 1.400 . S
C2995 C2996 1.398 . S
C2995 C3001 1.491 . S
C2996 H2987 0.950 . S
C2996 C2995 1.398 . S
C2996 C2997 1.391 . S
C2997 H2985 0.950 . S
C2997 C2993 1.393 . S
C2997 C2996 1.391 . S
C2998 H2988 0.950 . S
C2998 C2999 1.386 . S
C2998 C3000 1.391 . S
C2999 C2998 1.386 . S
C2999 C3003 1.393 . S
C3000 H2989 0.950 . S
C3000 C2998 1.391 . S
C3000 C3001 1.400 . S
C3001 C2995 1.491 . S
C3001 C3000 1.400 . S
C3001 C3002 1.398 . S
C3002 H2990 0.950 . S
C3002 C3001 1.398 . S
C3002 C3003 1.391 . S
C3003 H2991 0.950 . S
C3003 C2999 1.393 . S
C3003 C3002 1.391 . S
H3004 C3012 0.950 . S
H3005 C3017 0.950 . S
H3006 C3014 0.950 . S
H3007 C3016 0.950 . S
H3008 C3018 0.950 . S
H3009 C3020 0.950 . S
H3010 C3022 0.950 . S
H3011 C3023 0.950 . S
C3012 H3004 0.950 . S
C3012 C3013 1.386 . S
C3012 C3014 1.391 . S
C3013 C3012 1.386 . S
C3013 C3017 1.393 . S
C3014 H3006 0.950 . S
C3014 C3012 1.391 . S
C3014 C3015 1.400 . S
C3015 C3014 1.400 . S
C3015 C3016 1.398 . S
C3015 C3021 1.491 . S
C3016 H3007 0.950 . S
C3016 C3015 1.398 . S
C3016 C3017 1.391 . S
C3017 H3005 0.950 . S
C3017 C3013 1.393 . S
C3017 C3016 1.391 . S
C3018 H3008 0.950 . S
C3018 C3019 1.386 . S
C3018 C3020 1.391 . S
C3019 C3018 1.386 . S
C3019 C3023 1.393 . S
C3020 H3009 0.950 . S
C3020 C3018 1.391 . S
C3020 C3021 1.400 . S
C3021 C3015 1.491 . S
C3021 C3020 1.400 . S
C3021 C3022 1.398 . S
C3022 H3010 0.950 . S
C3022 C3021 1.398 . S
C3022 C3023 1.391 . S
C3023 H3011 0.950 . S
C3023 C3019 1.393 . S
C3023 C3022 1.391 . S
H3024 C3032 0.950 . S
H3025 C3037 0.950 . S
H3026 C3034 0.950 . S
H3027 C3036 0.950 . S
H3028 C3038 0.950 . S
H3029 C3040 0.950 . S
H3030 C3042 0.950 . S
H3031 C3043 0.950 . S
C3032 H3024 0.950 . S
C3032 C3033 1.386 . S
C3032 C3034 1.391 . S
C3033 C3032 1.386 . S
C3033 C3037 1.393 . S
C3034 H3026 0.950 . S
C3034 C3032 1.391 . S
C3034 C3035 1.400 . S
C3035 C3034 1.400 . S
C3035 C3036 1.398 . S
C3035 C3041 1.491 . S
C3036 H3027 0.950 . S
C3036 C3035 1.398 . S
C3036 C3037 1.391 . S
C3037 H3025 0.950 . S
C3037 C3033 1.393 . S
C3037 C3036 1.391 . S
C3038 H3028 0.950 . S
C3038 C3039 1.386 . S
C3038 C3040 1.391 . S
C3039 C3038 1.386 . S
C3039 C3043 1.393 . S
C3040 H3029 0.950 . S
C3040 C3038 1.391 . S
C3040 C3041 1.400 . S
C3041 C3035 1.491 . S
C3041 C3040 1.400 . S
C3041 C3042 1.398 . S
C3042 H3030 0.950 . S
C3042 C3041 1.398 . S
C3042 C3043 1.391 . S
C3043 H3031 0.950 . S
C3043 C3039 1.393 . S
C3043 C3042 1.391 . S
H3044 C3052 0.950 . S
H3045 C3057 0.950 . S
H3046 C3054 0.950 . S
H3047 C3056 0.950 . S
H3048 C3058 0.950 . S
H3049 C3060 0.950 . S
H3050 C3062 0.950 . S
H3051 C3063 0.950 . S
C3052 H3044 0.950 . S
C3052 C3053 1.386 . S
C3052 C3054 1.391 . S
C3053 C3052 1.386 . S
C3053 C3057 1.393 . S
C3054 H3046 0.950 . S
C3054 C3052 1.391 . S
C3054 C3055 1.400 . S
C3055 C3054 1.400 . S
C3055 C3056 1.398 . S
C3055 C3061 1.491 . S
C3056 H3047 0.950 . S
C3056 C3055 1.398 . S
C3056 C3057 1.391 . S
C3057 H3045 0.950 . S
C3057 C3053 1.393 . S
C3057 C3056 1.391 . S
C3058 H3048 0.950 . S
C3058 C3059 1.386 . S
C3058 C3060 1.391 . S
C3059 C3058 1.386 . S
C3059 C3063 1.393 . S
C3060 H3049 0.950 . S
C3060 C3058 1.391 . S
C3060 C3061 1.400 . S
C3061 C3055 1.491 . S
C3061 C3060 1.400 . S
C3061 C3062 1.398 . S
C3062 H3050 0.950 . S
C3062 C3061 1.398 . S
C3062 C3063 1.391 . S
C3063 H3051 0.950 . S
C3063 C3059 1.393 . S
C3063 C3062 1.391 . S
H3064 C3072 0.950 . S
H3065 C3077 0.950 . S
H3066 C3074 0.950 . S
H3067 C3076 0.950 . S
H3068 C3078 0.950 . S
H3069 C3080 0.950 . S
H3070 C3082 0.950 . S
H3071 C3083 0.950 . S
C3072 H3064 0.950 . S
C3072 C3073 1.386 . S
C3072 C3074 1.391 . S
C3073 C3072 1.386 . S
C3073 C3077 1.393 . S
C3074 H3066 0.950 . S
C3074 C3072 1.391 . S
C3074 C3075 1.400 . S
C3075 C3074 1.400 . S
C3075 C3076 1.398 . S
C3075 C3081 1.491 . S
C3076 H3067 0.950 . S
C3076 C3075 1.398 . S
C3076 C3077 1.391 . S
C3077 H3065 0.950 . S
C3077 C3073 1.393 . S
C3077 C3076 1.391 . S
C3078 H3068 0.950 . S
C3078 C3079 1.386 . S
C3078 C3080 1.391 . S
C3079 C3078 1.386 . S
C3079 C3083 1.393 . S
C3080 H3069 0.950 . S
C3080 C3078 1.391 . S
C3080 C3081 1.400 . S
C3081 C3075 1.491 . S
C3081 C3080 1.400 . S
C3081 C3082 1.398 . S
C3082 H3070 0.950 . S
C3082 C3081 1.398 . S
C3082 C3083 1.391 . S
C3083 H3071 0.950 . S
C3083 C3079 1.393 . S
C3083 C3082 1.391 . S
H3084 C3092 0.950 . S
H3085 C3097 0.950 . S
H3086 C3094 0.950 . S
H3087 C3096 0.950 . S
H3088 C3098 0.950 . S
H3089 C3100 0.950 . S
H3090 C3102 0.950 . S
H3091 C3103 0.950 . S
C3092 H3084 0.950 . S
C3092 C3093 1.386 . S
C3092 C3094 1.391 . S
C3093 C3092 1.386 . S
C3093 C3097 1.393 . S
C3094 H3086 0.950 . S
C3094 C3092 1.391 . S
C3094 C3095 1.400 . S
C3095 C3094 1.400 . S
C3095 C3096 1.398 . S
C3095 C3101 1.491 . S
C3096 H3087 0.950 . S
C3096 C3095 1.398 . S
C3096 C3097 1.391 . S
C3097 H3085 0.950 . S
C3097 C3093 1.393 . S
C3097 C3096 1.391 . S
C3098 H3088 0.950 . S
C3098 C3099 1.386 . S
C3098 C3100 1.391 . S
C3099 C3098 1.386 . S
C3099 C3103 1.393 . S
C3100 H3089 0.950 . S
C3100 C3098 1.391 . S
C3100 C3101 1.400 . S
C3101 C3095 1.491 . S
C3101 C3100 1.400 . S
C3101 C3102 1.398 . S
C3102 H3090 0.950 . S
C3102 C3101 1.398 . S
C3102 C3103 1.391 . S
C3103 H3091 0.950 . S
C3103 C3099 1.393 . S
C3103 C3102 1.391 . S
H3104 C3112 0.950 . S
H3105 C3117 0.950 . S
H3106 C3114 0.950 . S
H3107 C3116 0.950 . S
H3108 C3118 0.950 . S
H3109 C3120 0.950 . S
H3110 C3122 0.950 . S
H3111 C3123 0.950 . S
C3112 H3104 0.950 . S
C3112 C3113 1.386 . S
C3112 C3114 1.391 . S
C3113 C3112 1.386 . S
C3113 C3117 1.393 . S
C3114 H3106 0.950 . S
C3114 C3112 1.391 . S
C3114 C3115 1.400 . S
C3115 C3114 1.400 . S
C3115 C3116 1.398 . S
C3115 C3121 1.491 . S
C3116 H3107 0.950 . S
C3116 C3115 1.398 . S
C3116 C3117 1.391 . S
C3117 H3105 0.950 . S
C3117 C3113 1.393 . S
C3117 C3116 1.391 . S
C3118 H3108 0.950 . S
C3118 C3119 1.386 . S
C3118 C3120 1.391 . S
C3119 C3118 1.386 . S
C3119 C3123 1.393 . S
C3120 H3109 0.950 . S
C3120 C3118 1.391 . S
C3120 C3121 1.400 . S
C3121 C3115 1.491 . S
C3121 C3120 1.400 . S
C3121 C3122 1.398 . S
C3122 H3110 0.950 . S
C3122 C3121 1.398 . S
C3122 C3123 1.391 . S
C3123 H3111 0.950 . S
C3123 C3119 1.393 . S
C3123 C3122 1.391 . S
H3124 C3132 0.950 . S
H3125 C3137 0.950 . S
H3126 C3134 0.950 . S
H3127 C3136 0.950 . S
H3128 C3138 0.950 . S
H3129 C3140 0.950 . S
H3130 C3142 0.950 . S
H3131 C3143 0.950 . S
C3132 H3124 0.950 . S
C3132 C3133 1.386 . S
C3132 C3134 1.391 . S
C3133 C3132 1.386 . S
C3133 C3137 1.393 . S
C3134 H3126 0.950 . S
C3134 C3132 1.391 . S
C3134 C3135 1.400 . S
C3135 C3134 1.400 . S
C3135 C3136 1.398 . S
C3135 C3141 1.491 . S
C3136 H3127 0.950 . S
C3136 C3135 1.398 . S
C3136 C3137 1.391 . S
C3137 H3125 0.950 . S
C3137 C3133 1.393 . S
C3137 C3136 1.391 . S
C3138 H3128 0.950 . S
C3138 C3139 1.386 . S
C3138 C3140 1.391 . S
C3139 C3138 1.386 . S
C3139 C3143 1.393 . S
C3140 H3129 0.950 . S
C3140 C3138 1.391 . S
C3140 C3141 1.400 . S
C3141 C3135 1.491 . S
C3141 C3140 1.400 . S
C3141 C3142 1.398 . S
C3142 H3130 0.950 . S
C3142 C3141 1.398 . S
C3142 C3143 1.391 . S
C3143 H3131 0.950 . S
C3143 C3139 1.393 . S
C3143 C3142 1.391 . S
H3144 C3152 0.950 . S
H3145 C3157 0.981 . S
H3146 C3154 0.950 . S
H3147 C3156 0.950 . S
H3148 C3158 0.950 . S
H3149 C3160 0.950 . S
H3150 C3162 0.950 . S
H3151 C3163 0.950 . S
C3152 H3144 0.950 . S
C3152 C3153 1.386 . S
C3152 C3154 1.391 . S
C3153 C3152 1.386 . S
C3153 C3157 1.393 . S
C3154 H3146 0.950 . S
C3154 C3152 1.391 . S
C3154 C3155 1.400 . S
C3155 C3154 1.400 . S
C3155 C3156 1.398 . S
C3155 C3161 1.491 . S
C3156 H3147 0.950 . S
C3156 C3155 1.398 . S
C3156 C3157 1.391 . S
C3157 H3145 0.981 . S
C3157 C3153 1.393 . S
C3157 C3156 1.391 . S
C3158 H3148 0.950 . S
C3158 C3159 1.386 . S
C3158 C3160 1.391 . S
C3159 C3158 1.386 . S
C3159 C3163 1.393 . S
C3160 H3149 0.950 . S
C3160 C3158 1.391 . S
C3160 C3161 1.400 . S
C3161 C3155 1.491 . S
C3161 C3160 1.400 . S
C3161 C3162 1.398 . S
C3162 H3150 0.950 . S
C3162 C3161 1.398 . S
C3162 C3163 1.391 . S
C3163 H3151 0.950 . S
C3163 C3159 1.393 . S
C3163 C3162 1.391 . S
H3164 C3172 0.950 . S
H3165 C3177 0.950 . S
H3166 C3174 0.950 . S
H3167 C3176 0.950 . S
H3168 C3178 0.950 . S
H3169 C3180 0.950 . S
H3170 C3182 0.950 . S
H3171 C3183 0.950 . S
C3172 H3164 0.950 . S
C3172 C3173 1.386 . S
C3172 C3174 1.391 . S
C3173 C3172 1.386 . S
C3173 C3177 1.393 . S
C3174 H3166 0.950 . S
C3174 C3172 1.391 . S
C3174 C3175 1.400 . S
C3175 C3174 1.400 . S
C3175 C3176 1.398 . S
C3175 C3181 1.491 . S
C3176 H3167 0.950 . S
C3176 C3175 1.398 . S
C3176 C3177 1.391 . S
C3177 H3165 0.950 . S
C3177 C3173 1.393 . S
C3177 C3176 1.391 . S
C3178 H3168 0.950 . S
C3178 C3179 1.386 . S
C3178 C3180 1.391 . S
C3179 C3178 1.386 . S
C3179 C3183 1.393 . S
C3180 H3169 0.950 . S
C3180 C3178 1.391 . S
C3180 C3181 1.400 . S
C3181 C3175 1.491 . S
C3181 C3180 1.400 . S
C3181 C3182 1.398 . S
C3182 H3170 0.950 . S
C3182 C3181 1.398 . S
C3182 C3183 1.391 . S
C3183 H3171 0.950 . S
C3183 C3179 1.393 . S
C3183 C3182 1.391 . S
H3184 C3192 0.950 . S
H3185 C3197 0.950 . S
H3186 C3194 0.950 . S
H3187 C3196 0.950 . S
H3188 C3198 0.950 . S
H3189 C3200 0.950 . S
H3190 C3202 0.950 . S
H3191 C3203 0.950 . S
C3192 H3184 0.950 . S
C3192 C3193 1.386 . S
C3192 C3194 1.391 . S
C3193 C3192 1.386 . S
C3193 C3197 1.393 . S
C3194 H3186 0.950 . S
C3194 C3192 1.391 . S
C3194 C3195 1.400 . S
C3195 C3194 1.400 . S
C3195 C3196 1.398 . S
C3195 C3201 1.491 . S
C3196 H3187 0.950 . S
C3196 C3195 1.398 . S
C3196 C3197 1.391 . S
C3197 H3185 0.950 . S
C3197 C3193 1.393 . S
C3197 C3196 1.391 . S
C3198 H3188 0.950 . S
C3198 C3199 1.386 . S
C3198 C3200 1.391 . S
C3199 C3198 1.386 . S
C3199 C3203 1.393 . S
C3200 H3189 0.950 . S
C3200 C3198 1.391 . S
C3200 C3201 1.400 . S
C3201 C3195 1.491 . S
C3201 C3200 1.400 . S
C3201 C3202 1.398 . S
C3202 H3190 0.950 . S
C3202 C3201 1.398 . S
C3202 C3203 1.391 . S
C3203 H3191 0.950 . S
C3203 C3199 1.393 . S
C3203 C3202 1.391 . S
H3204 C3212 0.950 . S
H3205 C3217 0.950 . S
H3206 C3214 0.950 . S
H3207 C3216 0.950 . S
H3208 C3218 0.950 . S
H3209 C3220 0.950 . S
H3210 C3222 0.950 . S
H3211 C3223 0.950 . S
C3212 H3204 0.950 . S
C3212 C3213 1.386 . S
C3212 C3214 1.391 . S
C3213 C3212 1.386 . S
C3213 C3217 1.393 . S
C3214 H3206 0.950 . S
C3214 C3212 1.391 . S
C3214 C3215 1.400 . S
C3215 C3214 1.400 . S
C3215 C3216 1.398 . S
C3215 C3221 1.491 . S
C3216 H3207 0.950 . S
C3216 C3215 1.398 . S
C3216 C3217 1.391 . S
C3217 H3205 0.950 . S
C3217 C3213 1.393 . S
C3217 C3216 1.391 . S
C3218 H3208 0.950 . S
C3218 C3219 1.386 . S
C3218 C3220 1.391 . S
C3219 C3218 1.386 . S
C3219 C3223 1.393 . S
C3220 H3209 0.950 . S
C3220 C3218 1.391 . S
C3220 C3221 1.400 . S
C3221 C3215 1.491 . S
C3221 C3220 1.400 . S
C3221 C3222 1.398 . S
C3222 H3210 0.950 . S
C3222 C3221 1.398 . S
C3222 C3223 1.391 . S
C3223 H3211 0.950 . S
C3223 C3219 1.393 . S
C3223 C3222 1.391 . S
H3224 C3232 0.950 . S
H3225 C3237 0.950 . S
H3226 C3234 0.950 . S
H3227 C3236 0.950 . S
H3228 C3238 0.950 . S
H3229 C3240 0.950 . S
H3230 C3242 0.950 . S
H3231 C3243 0.950 . S
C3232 H3224 0.950 . S
C3232 C3233 1.386 . S
C3232 C3234 1.391 . S
C3233 C3232 1.386 . S
C3233 C3237 1.393 . S
C3234 H3226 0.950 . S
C3234 C3232 1.391 . S
C3234 C3235 1.400 . S
C3235 C3234 1.400 . S
C3235 C3236 1.398 . S
C3235 C3241 1.491 . S
C3236 H3227 0.950 . S
C3236 C3235 1.398 . S
C3236 C3237 1.391 . S
C3237 H3225 0.950 . S
C3237 C3233 1.393 . S
C3237 C3236 1.391 . S
C3238 H3228 0.950 . S
C3238 C3239 1.386 . S
C3238 C3240 1.391 . S
C3239 C3238 1.386 . S
C3239 C3243 1.393 . S
C3240 H3229 0.950 . S
C3240 C3238 1.391 . S
C3240 C3241 1.400 . S
C3241 C3235 1.491 . S
C3241 C3240 1.400 . S
C3241 C3242 1.398 . S
C3242 H3230 0.950 . S
C3242 C3241 1.398 . S
C3242 C3243 1.391 . S
C3243 H3231 0.950 . S
C3243 C3239 1.393 . S
C3243 C3242 1.391 . S
H3244 C3252 0.950 . S
H3245 C3257 0.950 . S
H3246 C3254 0.950 . S
H3247 C3256 0.950 . S
H3248 C3258 0.950 . S
H3249 C3260 0.950 . S
H3250 C3262 0.950 . S
H3251 C3263 0.950 . S
C3252 H3244 0.950 . S
C3252 C3253 1.386 . S
C3252 C3254 1.391 . S
C3253 C3252 1.386 . S
C3253 C3257 1.393 . S
C3254 H3246 0.950 . S
C3254 C3252 1.391 . S
C3254 C3255 1.400 . S
C3255 C3254 1.400 . S
C3255 C3256 1.398 . S
C3255 C3261 1.491 . S
C3256 H3247 0.950 . S
C3256 C3255 1.398 . S
C3256 C3257 1.391 . S
C3257 H3245 0.950 . S
C3257 C3253 1.393 . S
C3257 C3256 1.391 . S
C3258 H3248 0.950 . S
C3258 C3259 1.386 . S
C3258 C3260 1.391 . S
C3259 C3258 1.386 . S
C3259 C3263 1.393 . S
C3260 H3249 0.950 . S
C3260 C3258 1.391 . S
C3260 C3261 1.400 . S
C3261 C3255 1.491 . S
C3261 C3260 1.400 . S
C3261 C3262 1.398 . S
C3262 H3250 0.950 . S
C3262 C3261 1.398 . S
C3262 C3263 1.391 . S
C3263 H3251 0.950 . S
C3263 C3259 1.393 . S
C3263 C3262 1.391 . S
H3264 C3272 0.950 . S
H3265 C3277 0.950 . S
H3266 C3274 0.950 . S
H3267 C3276 0.950 . S
H3268 C3278 0.950 . S
H3269 C3280 0.950 . S
H3270 C3282 0.950 . S
H3271 C3283 0.950 . S
C3272 H3264 0.950 . S
C3272 C3273 1.386 . S
C3272 C3274 1.391 . S
C3273 C3272 1.386 . S
C3273 C3277 1.393 . S
C3274 H3266 0.950 . S
C3274 C3272 1.391 . S
C3274 C3275 1.400 . S
C3275 C3274 1.400 . S
C3275 C3276 1.398 . S
C3275 C3281 1.491 . S
C3276 H3267 0.950 . S
C3276 C3275 1.398 . S
C3276 C3277 1.391 . S
C3277 H3265 0.950 . S
C3277 C3273 1.393 . S
C3277 C3276 1.391 . S
C3278 H3268 0.950 . S
C3278 C3279 1.386 . S
C3278 C3280 1.391 . S
C3279 C3278 1.386 . S
C3279 C3283 1.393 . S
C3280 H3269 0.950 . S
C3280 C3278 1.391 . S
C3280 C3281 1.400 . S
C3281 C3275 1.491 . S
C3281 C3280 1.400 . S
C3281 C3282 1.398 . S
C3282 H3270 0.950 . S
C3282 C3281 1.398 . S
C3282 C3283 1.391 . S
C3283 H3271 0.950 . S
C3283 C3279 1.393 . S
C3283 C3282 1.391 . S
H3284 C3292 0.950 . S
H3285 C3297 0.950 . S
H3286 C3294 0.950 . S
H3287 C3296 0.950 . S
H3288 C3298 0.950 . S
H3289 C3300 0.950 . S
H3290 C3302 0.950 . S
H3291 C3303 0.950 . S
C3292 H3284 0.950 . S
C3292 C3293 1.386 . S
C3292 C3294 1.391 . S
C3293 C3292 1.386 . S
C3293 C3297 1.393 . S
C3294 H3286 0.950 . S
C3294 C3292 1.391 . S
C3294 C3295 1.400 . S
C3295 C3294 1.400 . S
C3295 C3296 1.398 . S
C3295 C3301 1.491 . S
C3296 H3287 0.950 . S
C3296 C3295 1.398 . S
C3296 C3297 1.391 . S
C3297 H3285 0.950 . S
C3297 C3293 1.393 . S
C3297 C3296 1.391 . S
C3298 H3288 0.950 . S
C3298 C3299 1.386 . S
C3298 C3300 1.391 . S
C3299 C3298 1.386 . S
C3299 C3303 1.393 . S
C3300 H3289 0.950 . S
C3300 C3298 1.391 . S
C3300 C3301 1.400 . S
C3301 C3295 1.491 . S
C3301 C3300 1.400 . S
C3301 C3302 1.398 . S
C3302 H3290 0.950 . S
C3302 C3301 1.398 . S
C3302 C3303 1.391 . S
C3303 H3291 0.950 . S
C3303 C3299 1.393 . S
C3303 C3302 1.391 . S
H3304 C3312 0.950 . S
H3305 C3317 0.950 . S
H3306 C3314 0.950 . S
H3307 C3316 0.950 . S
H3308 C3318 0.950 . S
H3309 C3320 0.950 . S
H3310 C3322 0.950 . S
H3311 C3323 0.950 . S
C3312 H3304 0.950 . S
C3312 C3313 1.386 . S
C3312 C3314 1.391 . S
C3313 C3312 1.386 . S
C3313 C3317 1.393 . S
C3314 H3306 0.950 . S
C3314 C3312 1.391 . S
C3314 C3315 1.400 . S
C3315 C3314 1.400 . S
C3315 C3316 1.398 . S
C3315 C3321 1.491 . S
C3316 H3307 0.950 . S
C3316 C3315 1.398 . S
C3316 C3317 1.391 . S
C3317 H3305 0.950 . S
C3317 C3313 1.393 . S
C3317 C3316 1.391 . S
C3318 H3308 0.950 . S
C3318 C3319 1.386 . S
C3318 C3320 1.391 . S
C3319 C3318 1.386 . S
C3319 C3323 1.393 . S
C3320 H3309 0.950 . S
C3320 C3318 1.391 . S
C3320 C3321 1.400 . S
C3321 C3315 1.491 . S
C3321 C3320 1.400 . S
C3321 C3322 1.398 . S
C3322 H3310 0.950 . S
C3322 C3321 1.398 . S
C3322 C3323 1.391 . S
C3323 H3311 0.950 . S
C3323 C3319 1.393 . S
C3323 C3322 1.391 . S
H3324 C3332 0.950 . S
H3325 C3337 0.950 1_655 S
H3326 C3334 0.950 . S
H3327 C3336 0.898 1_655 S
H3328 C3338 0.950 . S
H3329 C3340 0.950 . S
H3330 C3342 0.950 . S
H3331 C3343 0.950 . S
C3332 H3324 0.950 . S
C3332 C3333 1.386 . S
C3332 C3334 1.391 . S
C3333 C3332 1.386 . S
C3333 C3337 1.393 . S
C3334 H3326 0.950 . S
C3334 C3332 1.391 . S
C3334 C3335 1.400 . S
C3335 C3334 1.400 . S
C3335 C3336 1.424 . S
C3335 C3341 1.491 . S
C3336 H3327 0.898 1_455 S
C3336 C3335 1.424 . S
C3336 C3337 1.417 . S
C3337 H3325 0.950 1_455 S
C3337 C3333 1.393 . S
C3337 C3336 1.417 . S
C3338 H3328 0.950 . S
C3338 C3339 1.386 1_655 S
C3338 C3340 1.391 . S
C3339 C3338 1.386 1_455 S
C3339 C3343 1.393 . S
C3340 H3329 0.950 . S
C3340 C3338 1.391 . S
C3340 C3341 1.400 1_655 S
C3341 C3335 1.491 . S
C3341 C3340 1.400 1_455 S
C3341 C3342 1.398 . S
C3342 H3330 0.950 . S
C3342 C3341 1.398 . S
C3342 C3343 1.391 . S
C3343 H3331 0.950 . S
C3343 C3339 1.393 . S
C3343 C3342 1.391 . S
H3344 C3352 0.950 . S
H3345 C3357 0.950 . S
H3346 C3354 0.950 . S
H3347 C3356 0.950 . S
H3348 C3358 0.950 . S
H3349 C3360 0.950 . S
H3350 C3362 0.950 . S
H3351 C3363 0.950 . S
C3352 H3344 0.950 . S
C3352 C3353 1.386 . S
C3352 C3354 1.391 . S
C3353 C3352 1.386 . S
C3353 C3357 1.393 . S
C3354 H3346 0.950 . S
C3354 C3352 1.391 . S
C3354 C3355 1.400 . S
C3355 C3354 1.400 . S
C3355 C3356 1.398 . S
C3355 C3361 1.491 . S
C3356 H3347 0.950 . S
C3356 C3355 1.398 . S
C3356 C3357 1.391 . S
C3357 H3345 0.950 . S
C3357 C3353 1.393 . S
C3357 C3356 1.391 . S
C3358 H3348 0.950 . S
C3358 C3359 1.386 . S
C3358 C3360 1.391 . S
C3359 C3358 1.386 . S
C3359 C3363 1.393 . S
C3360 H3349 0.950 . S
C3360 C3358 1.391 . S
C3360 C3361 1.400 . S
C3361 C3355 1.491 . S
C3361 C3360 1.400 . S
C3361 C3362 1.398 . S
C3362 H3350 0.950 . S
C3362 C3361 1.398 . S
C3362 C3363 1.391 . S
C3363 H3351 0.950 . S
C3363 C3359 1.393 . S
C3363 C3362 1.391 . S
H3364 C3372 0.950 . S
H3365 C3377 0.950 . S
H3366 C3374 0.950 . S
H3367 C3376 0.950 . S
H3368 C3378 0.950 . S
H3369 C3380 0.950 . S
H3370 C3382 0.950 . S
H3371 C3383 0.950 . S
C3372 H3364 0.950 . S
C3372 C3373 1.386 . S
C3372 C3374 1.391 . S
C3373 C3372 1.386 . S
C3373 C3377 1.393 1_565 S
C3374 H3366 0.950 . S
C3374 C3372 1.391 . S
C3374 C3375 1.400 . S
C3375 C3374 1.400 . S
C3375 C3376 1.398 1_565 S
C3375 C3381 1.491 . S
C3376 H3367 0.950 . S
C3376 C3375 1.398 1_545 S
C3376 C3377 1.391 . S
C3377 H3365 0.950 . S
C3377 C3373 1.393 1_545 S
C3377 C3376 1.391 . S
C3378 H3368 0.950 . S
C3378 C3379 1.386 1_545 S
C3378 C3380 1.391 . S
C3379 C3378 1.386 1_565 S
C3379 C3383 1.393 . S
C3380 H3369 0.950 . S
C3380 C3378 1.391 . S
C3380 C3381 1.400 1_545 S
C3381 C3375 1.491 . S
C3381 C3380 1.400 1_565 S
C3381 C3382 1.398 . S
C3382 H3370 0.950 . S
C3382 C3381 1.398 . S
C3382 C3383 1.391 . S
C3383 H3371 0.950 . S
C3383 C3379 1.393 . S
C3383 C3382 1.391 . S
H3384 C3392 0.950 . S
H3385 C3397 0.950 . S
H3386 C3394 0.950 . S
H3387 C3396 0.950 . S
H3388 C3398 0.950 . S
H3389 C3400 0.950 . S
H3390 C3402 0.950 . S
H3391 C3403 0.950 . S
C3392 H3384 0.950 . S
C3392 C3393 1.386 1_545 S
C3392 C3394 1.391 . S
C3393 C3392 1.386 1_565 S
C3393 C3397 1.393 . S
C3394 H3386 0.950 . S
C3394 C3392 1.391 . S
C3394 C3395 1.400 1_545 S
C3395 C3394 1.400 1_565 S
C3395 C3396 1.398 . S
C3395 C3401 1.491 . S
C3396 H3387 0.950 . S
C3396 C3395 1.398 . S
C3396 C3397 1.391 . S
C3397 H3385 0.950 . S
C3397 C3393 1.393 . S
C3397 C3396 1.391 . S
C3398 H3388 0.950 . S
C3398 C3399 1.386 . S
C3398 C3400 1.391 . S
C3399 C3398 1.386 . S
C3399 C3403 1.393 1_565 S
C3400 H3389 0.950 . S
C3400 C3398 1.391 . S
C3400 C3401 1.400 . S
C3401 C3395 1.491 . S
C3401 C3400 1.400 . S
C3401 C3402 1.398 1_565 S
C3402 H3390 0.950 . S
C3402 C3401 1.398 1_545 S
C3402 C3403 1.391 . S
C3403 H3391 0.950 . S
C3403 C3399 1.393 1_545 S
C3403 C3402 1.391 . S
H3404 C3412 0.950 . S
H3405 C3417 0.950 . S
H3406 C3414 0.950 . S
H3407 C3416 0.950 . S
H3408 C3418 0.950 . S
H3409 C3420 0.950 . S
H3410 C3422 0.950 . S
H3411 C3423 0.950 . S
C3412 H3404 0.950 . S
C3412 C3413 1.386 . S
C3412 C3414 1.391 . S
C3413 C3412 1.386 . S
C3413 C3417 1.393 1_455 S
C3414 H3406 0.950 . S
C3414 C3412 1.391 . S
C3414 C3415 1.400 . S
C3415 C3414 1.400 . S
C3415 C3416 1.398 1_455 S
C3415 C3421 1.491 . S
C3416 H3407 0.950 . S
C3416 C3415 1.398 1_655 S
C3416 C3417 1.391 . S
C3417 H3405 0.950 . S
C3417 C3413 1.393 1_655 S
C3417 C3416 1.391 . S
C3418 H3408 0.950 . S
C3418 C3419 1.336 1_655 S
C3418 C3420 1.391 . S
C3419 C3418 1.336 1_455 S
C3419 C3423 1.426 . S
C3420 H3409 0.950 . S
C3420 C3418 1.391 . S
C3420 C3421 1.400 1_655 S
C3421 C3415 1.491 . S
C3421 C3420 1.400 1_455 S
C3421 C3422 1.398 . S
C3422 H3410 0.950 . S
C3422 C3421 1.398 . S
C3422 C3423 1.391 . S
C3423 H3411 0.950 . S
C3423 C3419 1.426 . S
C3423 C3422 1.391 . S
H3424 C3432 0.950 . S
H3425 C3437 0.950 . S
H3426 C3434 0.950 . S
H3427 C3436 0.950 . S
H3428 C3438 0.950 . S
H3429 C3440 0.950 . S
H3430 C3442 0.950 . S
H3431 C3443 0.950 . S
C3432 H3424 0.950 . S
C3432 C3433 1.386 . S
C3432 C3434 1.391 . S
C3433 C3432 1.386 . S
C3433 C3437 1.393 . S
C3434 H3426 0.950 . S
C3434 C3432 1.391 . S
C3434 C3435 1.400 . S
C3435 C3434 1.400 . S
C3435 C3436 1.398 . S
C3435 C3441 1.491 . S
C3436 H3427 0.950 . S
C3436 C3435 1.398 . S
C3436 C3437 1.391 . S
C3437 H3425 0.950 . S
C3437 C3433 1.393 . S
C3437 C3436 1.391 . S
C3438 H3428 0.950 . S
C3438 C3439 1.386 . S
C3438 C3440 1.391 . S
C3439 C3438 1.386 . S
C3439 C3443 1.393 . S
C3440 H3429 0.950 . S
C3440 C3438 1.391 . S
C3440 C3441 1.400 . S
C3441 C3435 1.491 . S
C3441 C3440 1.400 . S
C3441 C3442 1.398 . S
C3442 H3430 0.950 . S
C3442 C3441 1.398 . S
C3442 C3443 1.391 . S
C3443 H3431 0.950 . S
C3443 C3439 1.393 . S
C3443 C3442 1.391 . S
H3444 C3452 0.950 . S
H3445 C3457 0.950 . S
H3446 C3454 0.950 . S
H3447 C3456 0.950 . S
H3448 C3458 0.950 . S
H3449 C3460 0.950 . S
H3450 C3462 0.950 . S
H3451 C3463 0.950 . S
C3452 H3444 0.950 . S
C3452 C3453 1.386 . S
C3452 C3454 1.391 . S
C3453 C3452 1.386 . S
C3453 C3457 1.393 . S
C3454 H3446 0.950 . S
C3454 C3452 1.391 . S
C3454 C3455 1.400 . S
C3455 C3454 1.400 . S
C3455 C3456 1.398 . S
C3455 C3461 1.491 . S
C3456 H3447 0.950 . S
C3456 C3455 1.398 . S
C3456 C3457 1.391 . S
C3457 H3445 0.950 . S
C3457 C3453 1.393 . S
C3457 C3456 1.391 . S
C3458 H3448 0.950 . S
C3458 C3459 1.386 . S
C3458 C3460 1.391 . S
C3459 C3458 1.386 . S
C3459 C3463 1.393 . S
C3460 H3449 0.950 . S
C3460 C3458 1.391 . S
C3460 C3461 1.400 . S
C3461 C3455 1.491 . S
C3461 C3460 1.400 . S
C3461 C3462 1.398 . S
C3462 H3450 0.950 . S
C3462 C3461 1.398 . S
C3462 C3463 1.391 . S
C3463 H3451 0.950 . S
C3463 C3459 1.393 . S
C3463 C3462 1.391 . S
H3464 C3472 0.950 . S
H3465 C3477 0.950 . S
H3466 C3474 0.950 . S
H3467 C3476 0.950 . S
H3468 C3478 0.950 . S
H3469 C3480 0.950 . S
H3470 C3482 0.950 . S
H3471 C3483 0.950 . S
C3472 H3464 0.950 . S
C3472 C3473 1.386 . S
C3472 C3474 1.391 . S
C3473 C3472 1.386 . S
C3473 C3477 1.393 . S
C3474 H3466 0.950 . S
C3474 C3472 1.391 . S
C3474 C3475 1.400 . S
C3475 C3474 1.400 . S
C3475 C3476 1.398 . S
C3475 C3481 1.491 . S
C3476 H3467 0.950 . S
C3476 C3475 1.398 . S
C3476 C3477 1.391 . S
C3477 H3465 0.950 . S
C3477 C3473 1.393 . S
C3477 C3476 1.391 . S
C3478 H3468 0.950 . S
C3478 C3479 1.386 . S
C3478 C3480 1.391 . S
C3479 C3478 1.386 . S
C3479 C3483 1.393 . S
C3480 H3469 0.950 . S
C3480 C3478 1.391 . S
C3480 C3481 1.400 . S
C3481 C3475 1.491 . S
C3481 C3480 1.400 . S
C3481 C3482 1.398 . S
C3482 H3470 0.950 . S
C3482 C3481 1.398 . S
C3482 C3483 1.391 . S
C3483 H3471 0.950 . S
C3483 C3479 1.393 . S
C3483 C3482 1.391 . S
H3484 C3492 0.950 . S
H3485 C3497 0.950 . S
H3486 C3494 0.950 . S
H3487 C3496 0.950 . S
H3488 C3498 0.950 . S
H3489 C3500 0.950 . S
H3490 C3502 0.950 . S
H3491 C3503 0.950 . S
C3492 H3484 0.950 . S
C3492 C3493 1.386 . S
C3492 C3494 1.391 . S
C3493 C3492 1.386 . S
C3493 C3497 1.393 . S
C3494 H3486 0.950 . S
C3494 C3492 1.391 . S
C3494 C3495 1.400 . S
C3495 C3494 1.400 . S
C3495 C3496 1.398 . S
C3495 C3501 1.491 . S
C3496 H3487 0.950 . S
C3496 C3495 1.398 . S
C3496 C3497 1.391 . S
C3497 H3485 0.950 . S
C3497 C3493 1.393 . S
C3497 C3496 1.391 . S
C3498 H3488 0.950 . S
C3498 C3499 1.386 . S
C3498 C3500 1.391 . S
C3499 C3498 1.386 . S
C3499 C3503 1.393 . S
C3500 H3489 0.950 . S
C3500 C3498 1.391 . S
C3500 C3501 1.400 . S
C3501 C3495 1.491 . S
C3501 C3500 1.400 . S
C3501 C3502 1.398 . S
C3502 H3490 0.950 . S
C3502 C3501 1.398 . S
C3502 C3503 1.391 . S
C3503 H3491 0.950 . S
C3503 C3499 1.393 . S
C3503 C3502 1.391 . S
H3504 C3512 0.950 . S
H3505 C3517 0.950 1_565 S
H3506 C3514 0.950 . S
H3507 C3516 0.908 1_565 S
H3508 C3518 0.950 . S
H3509 C3520 0.950 . S
H3510 C3522 0.950 . S
H3511 C3523 0.950 . S
C3512 H3504 0.950 . S
C3512 C3513 1.386 . S
C3512 C3514 1.391 . S
C3513 C3512 1.386 . S
C3513 C3517 1.393 . S
C3514 H3506 0.950 . S
C3514 C3512 1.391 . S
C3514 C3515 1.400 . S
C3515 C3514 1.400 . S
C3515 C3516 1.406 . S
C3515 C3521 1.491 . S
C3516 H3507 0.908 1_545 S
C3516 C3515 1.406 . S
C3516 C3517 1.431 . S
C3517 H3505 0.950 1_545 S
C3517 C3513 1.393 . S
C3517 C3516 1.431 . S
C3518 H3508 0.950 . S
C3518 C3519 1.386 1_565 S
C3518 C3520 1.391 . S
C3519 C3518 1.386 1_545 S
C3519 C3523 1.393 . S
C3520 H3509 0.950 . S
C3520 C3518 1.391 . S
C3520 C3521 1.400 1_565 S
C3521 C3515 1.491 . S
C3521 C3520 1.400 1_545 S
C3521 C3522 1.398 . S
C3522 H3510 0.950 . S
C3522 C3521 1.398 . S
C3522 C3523 1.391 . S
C3523 H3511 0.950 . S
C3523 C3519 1.393 . S
C3523 C3522 1.391 . S
H3524 C3532 0.950 . S
H3525 C3537 0.950 . S
H3526 C3534 0.950 . S
H3527 C3536 0.950 . S
H3528 C3538 0.950 . S
H3529 C3540 0.950 . S
H3530 C3542 0.950 . S
H3531 C3543 0.950 . S
C3532 H3524 0.950 . S
C3532 C3533 1.386 . S
C3532 C3534 1.391 . S
C3533 C3532 1.386 . S
C3533 C3537 1.393 1_655 S
C3534 H3526 0.950 . S
C3534 C3532 1.391 . S
C3534 C3535 1.400 . S
C3535 C3534 1.400 . S
C3535 C3536 1.398 1_655 S
C3535 C3541 1.491 . S
C3536 H3527 0.950 . S
C3536 C3535 1.398 1_455 S
C3536 C3537 1.391 . S
C3537 H3525 0.950 . S
C3537 C3533 1.393 1_455 S
C3537 C3536 1.391 . S
C3538 H3528 0.950 . S
C3538 C3539 1.386 1_455 S
C3538 C3540 1.391 . S
C3539 C3538 1.386 1_655 S
C3539 C3543 1.393 . S
C3540 H3529 0.950 . S
C3540 C3538 1.391 . S
C3540 C3541 1.400 1_455 S
C3541 C3535 1.491 . S
C3541 C3540 1.400 1_655 S
C3541 C3542 1.398 . S
C3542 H3530 0.950 . S
C3542 C3541 1.398 . S
C3542 C3543 1.391 . S
C3543 H3531 0.950 . S
C3543 C3539 1.393 . S
C3543 C3542 1.391 . S
H3544 C3552 0.950 . S
H3545 C3557 0.950 . S
H3546 C3554 0.950 . S
H3547 C3556 0.950 . S
H3548 C3558 0.950 . S
H3549 C3560 0.950 . S
H3550 C3562 0.950 . S
H3551 C3563 0.950 . S
C3552 H3544 0.950 . S
C3552 C3553 1.386 . S
C3552 C3554 1.391 . S
C3553 C3552 1.386 . S
C3553 C3557 1.393 . S
C3554 H3546 0.950 . S
C3554 C3552 1.391 . S
C3554 C3555 1.400 . S
C3555 C3554 1.400 . S
C3555 C3556 1.398 . S
C3555 C3561 1.491 . S
C3556 H3547 0.950 . S
C3556 C3555 1.398 . S
C3556 C3557 1.391 . S
C3557 H3545 0.950 . S
C3557 C3553 1.393 . S
C3557 C3556 1.391 . S
C3558 H3548 0.950 . S
C3558 C3559 1.386 . S
C3558 C3560 1.391 . S
C3559 C3558 1.386 . S
C3559 C3563 1.393 . S
C3560 H3549 0.950 . S
C3560 C3558 1.391 . S
C3560 C3561 1.400 . S
C3561 C3555 1.491 . S
C3561 C3560 1.400 . S
C3561 C3562 1.398 . S
C3562 H3550 0.950 . S
C3562 C3561 1.398 . S
C3562 C3563 1.391 . S
C3563 H3551 0.950 . S
C3563 C3559 1.393 . S
C3563 C3562 1.391 . S
H3564 C3572 0.950 . S
H3565 C3577 0.950 . S
H3566 C3574 0.950 . S
H3567 C3576 0.950 . S
H3568 C3578 0.950 . S
H3569 C3580 0.950 . S
H3570 C3582 0.950 . S
H3571 C3583 0.950 . S
C3572 H3564 0.950 . S
C3572 C3573 1.386 . S
C3572 C3574 1.391 . S
C3573 C3572 1.386 . S
C3573 C3577 1.393 . S
C3574 H3566 0.950 . S
C3574 C3572 1.391 . S
C3574 C3575 1.400 . S
C3575 C3574 1.400 . S
C3575 C3576 1.398 . S
C3575 C3581 1.491 . S
C3576 H3567 0.950 . S
C3576 C3575 1.398 . S
C3576 C3577 1.391 . S
C3577 H3565 0.950 . S
C3577 C3573 1.393 . S
C3577 C3576 1.391 . S
C3578 H3568 0.950 . S
C3578 C3579 1.386 . S
C3578 C3580 1.391 . S
C3579 C3578 1.386 . S
C3579 C3583 1.393 . S
C3580 H3569 0.950 . S
C3580 C3578 1.391 . S
C3580 C3581 1.400 . S
C3581 C3575 1.491 . S
C3581 C3580 1.400 . S
C3581 C3582 1.398 . S
C3582 H3570 0.950 . S
C3582 C3581 1.398 . S
C3582 C3583 1.391 . S
C3583 H3571 0.950 . S
C3583 C3579 1.393 . S
C3583 C3582 1.391 . S
H3584 C3592 0.950 . S
H3585 C3597 0.950 . S
H3586 C3594 0.950 . S
H3587 C3596 0.950 . S
H3588 C3598 0.950 . S
H3589 C3600 0.950 . S
H3590 C3602 0.950 . S
H3591 C3603 0.950 . S
C3592 H3584 0.950 . S
C3592 C3593 1.386 . S
C3592 C3594 1.391 . S
C3593 C3592 1.386 . S
C3593 C3597 1.393 . S
C3594 H3586 0.950 . S
C3594 C3592 1.391 . S
C3594 C3595 1.400 . S
C3595 C3594 1.400 . S
C3595 C3596 1.398 . S
C3595 C3601 1.491 . S
C3596 H3587 0.950 . S
C3596 C3595 1.398 . S
C3596 C3597 1.391 . S
C3597 H3585 0.950 . S
C3597 C3593 1.393 . S
C3597 C3596 1.391 . S
C3598 H3588 0.950 . S
C3598 C3599 1.386 . S
C3598 C3600 1.391 . S
C3599 C3598 1.386 . S
C3599 C3603 1.393 . S
C3600 H3589 0.950 . S
C3600 C3598 1.391 . S
C3600 C3601 1.400 . S
C3601 C3595 1.491 . S
C3601 C3600 1.400 . S
C3601 C3602 1.398 . S
C3602 H3590 0.950 . S
C3602 C3601 1.398 . S
C3602 C3603 1.391 . S
C3603 H3591 0.950 . S
C3603 C3599 1.393 . S
C3603 C3602 1.391 . S
H3604 C3612 0.950 . S
H3605 C3617 0.950 . S
H3606 C3614 0.950 . S
H3607 C3616 0.950 . S
H3608 C3618 0.950 . S
H3609 C3620 0.950 . S
H3610 C3622 0.950 . S
H3611 C3623 0.950 . S
C3612 H3604 0.950 . S
C3612 C3613 1.386 . S
C3612 C3614 1.391 . S
C3613 C3612 1.386 . S
C3613 C3617 1.393 . S
C3614 H3606 0.950 . S
C3614 C3612 1.391 . S
C3614 C3615 1.400 . S
C3615 C3614 1.400 . S
C3615 C3616 1.398 . S
C3615 C3621 1.491 . S
C3616 H3607 0.950 . S
C3616 C3615 1.398 . S
C3616 C3617 1.391 . S
C3617 H3605 0.950 . S
C3617 C3613 1.393 . S
C3617 C3616 1.391 . S
C3618 H3608 0.950 . S
C3618 C3619 1.386 . S
C3618 C3620 1.391 . S
C3619 C3618 1.386 . S
C3619 C3623 1.393 . S
C3620 H3609 0.950 . S
C3620 C3618 1.391 . S
C3620 C3621 1.400 . S
C3621 C3615 1.491 . S
C3621 C3620 1.400 . S
C3621 C3622 1.398 . S
C3622 H3610 0.950 . S
C3622 C3621 1.398 . S
C3622 C3623 1.391 . S
C3623 H3611 0.950 . S
C3623 C3619 1.393 . S
C3623 C3622 1.391 . S
H3624 C3632 0.950 . S
H3625 C3637 0.950 . S
H3626 C3634 0.950 . S
H3627 C3636 0.950 . S
H3628 C3638 0.950 . S
H3629 C3640 0.950 . S
H3630 C3642 0.950 . S
H3631 C3643 0.950 . S
C3632 H3624 0.950 . S
C3632 C3633 1.386 . S
C3632 C3634 1.391 . S
C3633 C3632 1.386 . S
C3633 C3637 1.393 . S
C3634 H3626 0.950 . S
C3634 C3632 1.391 . S
C3634 C3635 1.400 . S
C3635 C3634 1.400 . S
C3635 C3636 1.398 . S
C3635 C3641 1.491 . S
C3636 H3627 0.950 . S
C3636 C3635 1.398 . S
C3636 C3637 1.391 . S
C3637 H3625 0.950 . S
C3637 C3633 1.393 . S
C3637 C3636 1.391 . S
C3638 H3628 0.950 . S
C3638 C3639 1.386 . S
C3638 C3640 1.391 . S
C3639 C3638 1.386 . S
C3639 C3643 1.393 . S
C3640 H3629 0.950 . S
C3640 C3638 1.391 . S
C3640 C3641 1.400 . S
C3641 C3635 1.491 . S
C3641 C3640 1.400 . S
C3641 C3642 1.398 . S
C3642 H3630 0.950 . S
C3642 C3641 1.398 . S
C3642 C3643 1.391 . S
C3643 H3631 0.950 . S
C3643 C3639 1.393 . S
C3643 C3642 1.391 . S
H3644 C3652 0.950 . S
H3645 C3657 0.950 . S
H3646 C3654 0.950 . S
H3647 C3656 0.950 . S
H3648 C3658 0.950 . S
H3649 C3660 0.950 . S
H3650 C3662 0.950 . S
H3651 C3663 0.950 . S
C3652 H3644 0.950 . S
C3652 C3653 1.386 . S
C3652 C3654 1.391 . S
C3653 C3652 1.386 . S
C3653 C3657 1.393 . S
C3654 H3646 0.950 . S
C3654 C3652 1.391 . S
C3654 C3655 1.400 . S
C3655 C3654 1.400 . S
C3655 C3656 1.398 . S
C3655 C3661 1.491 . S
C3656 H3647 0.950 . S
C3656 C3655 1.398 . S
C3656 C3657 1.391 . S
C3657 H3645 0.950 . S
C3657 C3653 1.393 . S
C3657 C3656 1.391 . S
C3658 H3648 0.950 . S
C3658 C3659 1.386 . S
C3658 C3660 1.391 . S
C3659 C3658 1.386 . S
C3659 C3663 1.393 . S
C3660 H3649 0.950 . S
C3660 C3658 1.391 . S
C3660 C3661 1.400 . S
C3661 C3655 1.491 . S
C3661 C3660 1.400 . S
C3661 C3662 1.398 . S
C3662 H3650 0.950 . S
C3662 C3661 1.398 . S
C3662 C3663 1.391 . S
C3663 H3651 0.950 . S
C3663 C3659 1.393 . S
C3663 C3662 1.391 . S
H3664 C3672 0.950 . S
H3665 C3677 0.950 . S
H3666 C3674 0.950 . S
H3667 C3676 0.950 . S
H3668 C3678 0.950 . S
H3669 C3680 0.950 . S
H3670 C3682 0.950 . S
H3671 C3683 0.950 . S
C3672 H3664 0.950 . S
C3672 C3673 1.386 . S
C3672 C3674 1.391 . S
C3673 C3672 1.386 . S
C3673 C3677 1.393 . S
C3674 H3666 0.950 . S
C3674 C3672 1.391 . S
C3674 C3675 1.400 . S
C3675 C3674 1.400 . S
C3675 C3676 1.398 . S
C3675 C3681 1.491 . S
C3676 H3667 0.950 . S
C3676 C3675 1.398 . S
C3676 C3677 1.391 . S
C3677 H3665 0.950 . S
C3677 C3673 1.393 . S
C3677 C3676 1.391 . S
C3678 H3668 0.950 . S
C3678 C3679 1.386 . S
C3678 C3680 1.391 . S
C3679 C3678 1.386 . S
C3679 C3683 1.393 . S
C3680 H3669 0.950 . S
C3680 C3678 1.391 . S
C3680 C3681 1.400 . S
C3681 C3675 1.491 . S
C3681 C3680 1.400 . S
C3681 C3682 1.398 . S
C3682 H3670 0.950 . S
C3682 C3681 1.398 . S
C3682 C3683 1.391 . S
C3683 H3671 0.950 . S
C3683 C3679 1.393 . S
C3683 C3682 1.391 . S
H3684 C3692 0.950 . S
H3685 C3697 0.958 . S
H3686 C3694 0.950 . S
H3687 C3696 0.950 . S
H3688 C3698 0.950 . S
H3689 C3700 0.950 . S
H3690 C3702 0.950 . S
H3691 C3703 0.950 . S
C3692 H3684 0.950 . S
C3692 C3693 1.386 . S
C3692 C3694 1.391 . S
C3693 C3692 1.386 . S
C3693 C3697 1.368 1_655 S
C3694 H3686 0.950 . S
C3694 C3692 1.391 . S
C3694 C3695 1.400 . S
C3695 C3694 1.400 . S
C3695 C3696 1.398 1_655 S
C3695 C3701 1.491 . S
C3696 H3687 0.950 . S
C3696 C3695 1.398 1_455 S
C3696 C3697 1.408 . S
C3697 H3685 0.958 . S
C3697 C3693 1.368 1_455 S
C3697 C3696 1.408 . S
C3698 H3688 0.950 . S
C3698 C3699 1.386 1_455 S
C3698 C3700 1.391 . S
C3699 C3698 1.386 1_655 S
C3699 C3703 1.393 . S
C3700 H3689 0.950 . S
C3700 C3698 1.391 . S
C3700 C3701 1.400 1_455 S
C3701 C3695 1.491 . S
C3701 C3700 1.400 1_655 S
C3701 C3702 1.398 . S
C3702 H3690 0.950 . S
C3702 C3701 1.398 . S
C3702 C3703 1.391 . S
C3703 H3691 0.950 . S
C3703 C3699 1.393 . S
C3703 C3702 1.391 . S
H3704 C3712 0.950 . S
H3705 C3717 0.950 . S
H3706 C3714 0.950 . S
H3707 C3716 0.950 . S
H3708 C3718 0.950 . S
H3709 C3720 0.950 . S
H3710 C3722 0.950 . S
H3711 C3723 0.950 . S
C3712 H3704 0.950 . S
C3712 C3713 1.386 . S
C3712 C3714 1.391 . S
C3713 C3712 1.386 . S
C3713 C3717 1.393 . S
C3714 H3706 0.950 . S
C3714 C3712 1.391 . S
C3714 C3715 1.400 . S
C3715 C3714 1.400 . S
C3715 C3716 1.398 . S
C3715 C3721 1.491 . S
C3716 H3707 0.950 . S
C3716 C3715 1.398 . S
C3716 C3717 1.391 . S
C3717 H3705 0.950 . S
C3717 C3713 1.393 . S
C3717 C3716 1.391 . S
C3718 H3708 0.950 . S
C3718 C3719 1.386 . S
C3718 C3720 1.391 . S
C3719 C3718 1.386 . S
C3719 C3723 1.393 . S
C3720 H3709 0.950 . S
C3720 C3718 1.391 . S
C3720 C3721 1.400 . S
C3721 C3715 1.491 . S
C3721 C3720 1.400 . S
C3721 C3722 1.398 . S
C3722 H3710 0.950 . S
C3722 C3721 1.398 . S
C3722 C3723 1.391 . S
C3723 H3711 0.950 . S
C3723 C3719 1.393 . S
C3723 C3722 1.391 . S
H3724 C3732 0.950 . S
H3725 C3737 0.950 . S
H3726 C3734 0.950 1_565 S
H3727 C3736 0.950 . S
H3728 C3738 0.950 . S
H3729 C3740 0.950 . S
H3730 C3742 0.950 . S
H3731 C3743 0.950 . S
C3732 H3724 0.950 . S
C3732 C3733 1.386 . S
C3732 C3734 1.391 . S
C3733 C3732 1.386 . S
C3733 C3737 1.393 . S
C3734 H3726 0.950 1_545 S
C3734 C3732 1.391 . S
C3734 C3735 1.400 . S
C3735 C3734 1.400 . S
C3735 C3736 1.398 . S
C3735 C3741 1.491 . S
C3736 H3727 0.950 . S
C3736 C3735 1.398 . S
C3736 C3737 1.391 . S
C3737 H3725 0.950 . S
C3737 C3733 1.393 . S
C3737 C3736 1.391 . S
C3738 H3728 0.950 . S
C3738 C3739 1.416 . S
C3738 C3740 1.391 . S
C3739 C3738 1.416 . S
C3739 C3743 1.344 1_545 S
C3740 H3729 0.950 . S
C3740 C3738 1.391 . S
C3740 C3741 1.400 . S
C3741 C3735 1.491 . S
C3741 C3740 1.400 . S
C3741 C3742 1.398 1_545 S
C3742 H3730 0.950 . S
C3742 C3741 1.398 1_565 S
C3742 C3743 1.391 . S
C3743 H3731 0.950 . S
C3743 C3739 1.344 1_565 S
C3743 C3742 1.391 . S
C2313 C7 1.294 . S
C2319 C1307 1.041 1_655 S
C2333 C23 1.753 . S
C2339 C1447 1.122 . S
C2359 C1535 1.123 . S
C2353 C37 1.340 . S
C2373 C35 1.422 . S
C2379 C1675 1.044 1_565 S
C2393 C9 1.394 . S
C2399 C1789 1.026 . S
C2413 C21 1.729 . S
C2419 C1877 1.307 . S
C2433 C49 1.281 . S
C2439 C1763 1.086 . S
C2459 C1903 1.402 . S
C2453 C65 1.646 . S
C2479 C1649 1.139 . S
C2473 C79 1.363 . S
C2493 C77 1.393 . S
C2499 C1561 1.108 . S
C2519 C1333 1.092 . S
C2513 C51 1.399 . S
C2533 C63 1.631 . S
C2539 C1421 1.539 . S
C2553 C91 1.788 . S
C2559 C1991 1.344 . S
C2573 C107 1.842 . S
C2579 C2131 1.227 . S
C2599 C2219 1.344 . S
C2593 C121 1.811 . S
C2613 C119 1.833 . S
C2619 C307 1.215 . S
C2633 C93 1.891 . S
C2639 C421 1.216 . S
C2653 C105 1.805 . S
C2659 C509 1.386 . S
C2673 C133 1.538 . S
C2679 C395 1.413 . S
C2693 C149 1.723 . S
C2699 C535 1.475 . S
C2719 C281 1.560 . S
C2713 C163 1.721 . S
C2739 C2245 1.694 . S
C2733 C161 1.886 . S
C2759 C2017 1.524 . S
C2753 C135 1.744 . S
C2779 C2105 1.620 . S
C2773 C147 1.721 . S
C2793 C175 1.638 . S
C2799 C623 1.223 . S
C2813 C191 1.831 . S
C2819 C763 1.158 . S
C2833 C205 1.832 . S
C2839 C851 1.362 . S
C2853 C203 1.969 . S
C2859 C991 1.320 . S
C2879 C1105 1.222 . S
C2873 C177 1.873 . S
C2899 C1193 1.392 . S
C2893 C189 1.815 . S
C2919 C1079 1.596 . S
C2913 C217 1.711 . S
C2939 C1219 1.518 . S
C2933 C233 1.741 . S
C2953 C247 1.686 . S
C2959 C965 1.511 . S
C2979 C877 1.523 . S
C2973 C245 1.727 . S
C2993 C219 1.780 . S
C2999 C649 1.552 . S
C3019 C737 1.607 . S
C3013 C231 1.716 . S
C3039 C263 1.022 . S
C3033 C8 1.852 . S
C3053 C17 1.624 . S
C3059 C377 0.872 . S
C3079 C481 1.317 . S
C3073 C31 1.757 . S
C3099 C595 1.233 . S
C3093 C36 1.708 . S
C3119 C719 1.038 . S
C3113 C3 1.785 . S
C3139 C823 1.222 . S
C3133 C22 1.665 . S
C3153 C50 1.962 . S
C3159 C833 1.495 . S
C3173 C59 1.724 . S
C3179 C605 1.311 . S
C3193 C73 1.843 . S
C3199 C709 1.629 . S
C3213 C78 1.832 . S
C3219 C367 1.654 . S
C3239 C491 1.507 . S
C3233 C45 1.878 . S
C3253 C64 1.771 . S
C3259 C253 1.582 . S
C3279 C947 1.012 . S
C3273 C92 1.758 . S
C3293 C101 1.821 . S
C3299 C1061 1.036 . S
C3313 C115 1.857 . S
C3319 C1165 1.360 . S
C3339 C1279 1.017 . S
C3333 C120 1.282 . S
C3353 C87 1.708 . S
C3359 C1403 0.973 . S
C3373 C106 1.328 . S
C3379 C1507 1.057 . S
C3393 C134 1.450 . S
C3399 C1517 0.888 1_565 S
C3413 C143 1.354 . S
C3419 C1289 0.946 1_455 S
C3439 C1393 1.586 . S
C3433 C157 1.778 . S
C3453 C162 1.755 . S
C3459 C1051 1.550 . S
C3473 C129 1.920 . S
C3479 C1175 1.531 . S
C3499 C937 1.721 . S
C3493 C148 1.936 . S
C3519 C1631 0.913 . S
C3513 C176 1.451 . S
C3533 C185 1.336 . S
C3539 C1745 0.861 . S
C3553 C199 1.677 . S
C3559 C1849 1.243 . S
C3579 C1963 1.181 . S
C3573 C204 1.624 . S
C3599 C2087 1.077 . S
C3593 C171 1.832 . S
C3613 C190 1.833 . S
C3619 C2191 1.334 . S
C3633 C218 1.872 . S
C3639 C2201 1.422 . S
C3653 C227 1.916 . S
C3659 C1973 1.460 . S
C3679 C2077 1.672 . S
C3673 C241 1.880 . S
C3699 C1735 1.097 1_655 S
C3693 C246 1.272 . S
C3719 C1859 1.370 . S
C3713 C213 1.814 . S
C3733 C232 1.353 . S
C3739 C1621 1.104 1_545 S
