# Generated by pormake.
# Topology eea, (3,6)-cn, num edge types: 1
# Building blocks:
#     Node 0, Type 0, BuildingBlock: PAMTOO_clean_linker_0, # of connection points: 3
#     Node 1, Type 0, BuildingBlock: PAMTOO_clean_linker_0, # of connection points: 3
#     Node 2, Type 0, BuildingBlock: PAMTOO_clean_linker_0, # of connection points: 3
#     Node 3, Type 0, BuildingBlock: PAMTOO_clean_linker_0, # of connection points: 3
#     Node 4, Type 0, BuildingBlock: PAMTOO_clean_linker_0, # of connection points: 3
#     Node 5, Type 0, BuildingBlock: PAMTOO_clean_linker_0, # of connection points: 3
#     Node 6, Type 0, BuildingBlock: PAMTOO_clean_linker_0, # of connection points: 3
#     Node 7, Type 0, BuildingBlock: PAMTOO_clean_linker_0, # of connection points: 3
#     Node 8, Type 0, BuildingBlock: PAMTOO_clean_linker_0, # of connection points: 3
#     Node 9, Type 0, BuildingBlock: PAMTOO_clean_linker_0, # of connection points: 3
#     Node 10, Type 0, BuildingBlock: PAMTOO_clean_linker_0, # of connection points: 3
#     Node 11, Type 0, BuildingBlock: PAMTOO_clean_linker_0, # of connection points: 3
#     Node 12, Type 0, BuildingBlock: PAMTOO_clean_linker_0, # of connection points: 3
#     Node 13, Type 0, BuildingBlock: PAMTOO_clean_linker_0, # of connection points: 3
#     Node 14, Type 0, BuildingBlock: PAMTOO_clean_linker_0, # of connection points: 3
#     Node 15, Type 0, BuildingBlock: PAMTOO_clean_linker_0, # of connection points: 3
#     Node 16, Type 0, BuildingBlock: PAMTOO_clean_linker_0, # of connection points: 3
#     Node 17, Type 0, BuildingBlock: PAMTOO_clean_linker_0, # of connection points: 3
#     Node 18, Type 1, BuildingBlock: KUMBUR_clean_sbu_0, # of connection points: 6
#     Node 19, Type 1, BuildingBlock: KUMBUR_clean_sbu_0, # of connection points: 6
#     Node 20, Type 1, BuildingBlock: KUMBUR_clean_sbu_0, # of connection points: 6
#     Node 21, Type 1, BuildingBlock: KUMBUR_clean_sbu_0, # of connection points: 6
#     Node 22, Type 1, BuildingBlock: KUMBUR_clean_sbu_0, # of connection points: 6
#     Node 23, Type 1, BuildingBlock: KUMBUR_clean_sbu_0, # of connection points: 6
#     Node 24, Type 1, BuildingBlock: KUMBUR_clean_sbu_0, # of connection points: 6
#     Node 25, Type 1, BuildingBlock: KUMBUR_clean_sbu_0, # of connection points: 6
#     Node 26, Type 1, BuildingBlock: KUMBUR_clean_sbu_0, # of connection points: 6
#     Edge 27, Type (0, 1), BuildingBlock: OJICUG_clean_linker_0, # of connection points: 2
#     Edge 28, Type (0, 1), BuildingBlock: OJICUG_clean_linker_0, # of connection points: 2
#     Edge 29, Type (0, 1), BuildingBlock: OJICUG_clean_linker_0, # of connection points: 2
#     Edge 30, Type (0, 1), BuildingBlock: OJICUG_clean_linker_0, # of connection points: 2
#     Edge 31, Type (0, 1), BuildingBlock: OJICUG_clean_linker_0, # of connection points: 2
#     Edge 32, Type (0, 1), BuildingBlock: OJICUG_clean_linker_0, # of connection points: 2
#     Edge 33, Type (0, 1), BuildingBlock: OJICUG_clean_linker_0, # of connection points: 2
#     Edge 34, Type (0, 1), BuildingBlock: OJICUG_clean_linker_0, # of connection points: 2
#     Edge 35, Type (0, 1), BuildingBlock: OJICUG_clean_linker_0, # of connection points: 2
#     Edge 36, Type (0, 1), BuildingBlock: OJICUG_clean_linker_0, # of connection points: 2
#     Edge 37, Type (0, 1), BuildingBlock: OJICUG_clean_linker_0, # of connection points: 2
#     Edge 38, Type (0, 1), BuildingBlock: OJICUG_clean_linker_0, # of connection points: 2
#     Edge 39, Type (0, 1), BuildingBlock: OJICUG_clean_linker_0, # of connection points: 2
#     Edge 40, Type (0, 1), BuildingBlock: OJICUG_clean_linker_0, # of connection points: 2
#     Edge 41, Type (0, 1), BuildingBlock: OJICUG_clean_linker_0, # of connection points: 2
#     Edge 42, Type (0, 1), BuildingBlock: OJICUG_clean_linker_0, # of connection points: 2
#     Edge 43, Type (0, 1), BuildingBlock: OJICUG_clean_linker_0, # of connection points: 2
#     Edge 44, Type (0, 1), BuildingBlock: OJICUG_clean_linker_0, # of connection points: 2
#     Edge 45, Type (0, 1), BuildingBlock: OJICUG_clean_linker_0, # of connection points: 2
#     Edge 46, Type (0, 1), BuildingBlock: OJICUG_clean_linker_0, # of connection points: 2
#     Edge 47, Type (0, 1), BuildingBlock: OJICUG_clean_linker_0, # of connection points: 2
#     Edge 48, Type (0, 1), BuildingBlock: OJICUG_clean_linker_0, # of connection points: 2
#     Edge 49, Type (0, 1), BuildingBlock: OJICUG_clean_linker_0, # of connection points: 2
#     Edge 50, Type (0, 1), BuildingBlock: OJICUG_clean_linker_0, # of connection points: 2
#     Edge 51, Type (0, 1), BuildingBlock: OJICUG_clean_linker_0, # of connection points: 2
#     Edge 52, Type (0, 1), BuildingBlock: OJICUG_clean_linker_0, # of connection points: 2
#     Edge 53, Type (0, 1), BuildingBlock: OJICUG_clean_linker_0, # of connection points: 2
#     Edge 54, Type (0, 1), BuildingBlock: OJICUG_clean_linker_0, # of connection points: 2
#     Edge 55, Type (0, 1), BuildingBlock: OJICUG_clean_linker_0, # of connection points: 2
#     Edge 56, Type (0, 1), BuildingBlock: OJICUG_clean_linker_0, # of connection points: 2
#     Edge 57, Type (0, 1), BuildingBlock: OJICUG_clean_linker_0, # of connection points: 2
#     Edge 58, Type (0, 1), BuildingBlock: OJICUG_clean_linker_0, # of connection points: 2
#     Edge 59, Type (0, 1), BuildingBlock: OJICUG_clean_linker_0, # of connection points: 2
#     Edge 60, Type (0, 1), BuildingBlock: OJICUG_clean_linker_0, # of connection points: 2
#     Edge 61, Type (0, 1), BuildingBlock: OJICUG_clean_linker_0, # of connection points: 2
#     Edge 62, Type (0, 1), BuildingBlock: OJICUG_clean_linker_0, # of connection points: 2
#     Edge 63, Type (0, 1), BuildingBlock: OJICUG_clean_linker_0, # of connection points: 2
#     Edge 64, Type (0, 1), BuildingBlock: OJICUG_clean_linker_0, # of connection points: 2
#     Edge 65, Type (0, 1), BuildingBlock: OJICUG_clean_linker_0, # of connection points: 2
#     Edge 66, Type (0, 1), BuildingBlock: OJICUG_clean_linker_0, # of connection points: 2
#     Edge 67, Type (0, 1), BuildingBlock: OJICUG_clean_linker_0, # of connection points: 2
#     Edge 68, Type (0, 1), BuildingBlock: OJICUG_clean_linker_0, # of connection points: 2
#     Edge 69, Type (0, 1), BuildingBlock: OJICUG_clean_linker_0, # of connection points: 2
#     Edge 70, Type (0, 1), BuildingBlock: OJICUG_clean_linker_0, # of connection points: 2
#     Edge 71, Type (0, 1), BuildingBlock: OJICUG_clean_linker_0, # of connection points: 2
#     Edge 72, Type (0, 1), BuildingBlock: OJICUG_clean_linker_0, # of connection points: 2
#     Edge 73, Type (0, 1), BuildingBlock: OJICUG_clean_linker_0, # of connection points: 2
#     Edge 74, Type (0, 1), BuildingBlock: OJICUG_clean_linker_0, # of connection points: 2
#     Edge 75, Type (0, 1), BuildingBlock: OJICUG_clean_linker_0, # of connection points: 2
#     Edge 76, Type (0, 1), BuildingBlock: OJICUG_clean_linker_0, # of connection points: 2
#     Edge 77, Type (0, 1), BuildingBlock: OJICUG_clean_linker_0, # of connection points: 2
#     Edge 78, Type (0, 1), BuildingBlock: OJICUG_clean_linker_0, # of connection points: 2
#     Edge 79, Type (0, 1), BuildingBlock: OJICUG_clean_linker_0, # of connection points: 2
#     Edge 80, Type (0, 1), BuildingBlock: OJICUG_clean_linker_0, # of connection points: 2
# Relax obj value: 0.024
# Max RMSD: 0.186
# Mean RMSD: 0.131
data_MOF--net-eea--node1-KUMBUR_clean_sbu_0--node2-PAMTOO_clean_linker_0--edge1-OJICUG_clean_linker_0
_symmetry_space_group_name_H-M    P1
_symmetry_Int_Tables_number       1
_symmetry_cell_setting            triclinic
loop_
_symmetry_equiv_pos_as_xyz
'x, y, z'
_cell_length_a     38.207982
_cell_length_b     40.090509
_cell_length_c     51.378034
_cell_angle_alpha  89.649144
_cell_angle_beta   89.436029
_cell_angle_gamma 120.00595
loop_
_atom_site_label
_atom_site_type_symbol
_atom_site_fract_x
_atom_site_fract_y
_atom_site_fract_z
_atom_type_partial_charge
H0 H 0.27818 0.06074 0.43977 0.0
H1 H 0.27359 0.1657 0.43856 0.0
H2 H 0.21428 0.08214 0.37909 0.0
H3 H 0.25229 0.16227 0.35877 0.0
C4 C 0.25454 0.17685 0.37754 0.0
O5 O 0.23125 0.14973 0.39624 0.0
H6 H 0.28693 0.19235 0.38319 0.0
C7 C 0.26749 0.07856 0.43094 0.0
C8 C 0.2446 0.06648 0.40808 0.0
C9 C 0.27801 0.11415 0.44214 0.0
C10 C 0.26582 0.13814 0.43017 0.0
C11 C 0.24311 0.12654 0.40744 0.0
C12 C 0.23237 0.09082 0.39649 0.0
H13 H 0.97147 0.2104 0.43929 0.0
H14 H 0.87661 0.09184 0.43591 0.0
H15 H 0.9645 0.14026 0.37399 0.0
H16 H 0.87931 0.07935 0.35456 0.0
C17 C 0.867 0.06964 0.3746 0.0
O18 O 0.89865 0.0783 0.3912 0.0
H19 H 0.851 0.0854 0.38026 0.0
C20 C 0.9569 0.18301 0.42942 0.0
C21 C 0.9728 0.17938 0.40535 0.0
C22 C 0.92202 0.15178 0.44066 0.0
C23 C 0.90331 0.11644 0.42764 0.0
C24 C 0.91838 0.11238 0.40368 0.0
C25 C 0.95327 0.14365 0.39265 0.0
H26 H 0.82086 0.75996 0.43565 0.0
H27 H 0.94121 0.77653 0.43601 0.0
H28 H 0.90515 0.82491 0.37392 0.0
H29 H 0.97286 0.81161 0.35468 0.0
C30 C 0.97525 0.80004 0.37388 0.0
O31 O 0.96553 0.81806 0.39329 0.0
H32 H 0.95307 0.76854 0.37393 0.0
C33 C 0.85043 0.77129 0.42656 0.0
C34 C 0.85871 0.79216 0.40301 0.0
C35 C 0.87958 0.76517 0.43874 0.0
C36 C 0.91833 0.78119 0.42721 0.0
C37 C 0.92774 0.8028 0.40394 0.0
C38 C 0.89797 0.80858 0.39198 0.0
H39 H 0.07785 0.25748 0.60238 0.0
H40 H 0.17676 0.23499 0.60304 0.0
H41 H 0.08929 0.19265 0.66576 0.0
H42 H 0.17161 0.20491 0.68527 0.0
C43 C 0.18546 0.21612 0.66574 0.0
O44 O 0.15643 0.19684 0.64704 0.0
H45 H 0.19543 0.24744 0.66541 0.0
C46 C 0.09398 0.24505 0.61187 0.0
C47 C 0.0791 0.22498 0.63572 0.0
C48 C 0.1289 0.24866 0.59974 0.0
C49 C 0.14939 0.23195 0.61182 0.0
C50 C 0.13543 0.21202 0.63561 0.0
C51 C 0.09992 0.20802 0.64736 0.0
H52 H 0.77591 0.81787 0.59822 0.0
H53 H 0.78842 0.93048 0.60321 0.0
H54 H 0.83263 0.88992 0.66457 0.0
H55 H 0.79907 0.93966 0.68416 0.0
C56 C 0.79821 0.95134 0.66464 0.0
O57 O 0.82381 0.94676 0.64781 0.0
H58 H 0.76643 0.93511 0.65778 0.0
C59 C 0.78613 0.84454 0.60856 0.0
C60 C 0.80583 0.85016 0.63261 0.0
C61 C 0.77888 0.87296 0.59793 0.0
C62 C 0.79285 0.90779 0.61116 0.0
C63 C 0.81204 0.91359 0.63502 0.0
C64 C 0.81845 0.88499 0.64575 0.0
H65 H 0.2178 0.95686 0.60062 0.0
H66 H 0.10379 0.85124 0.6036 0.0
H67 H 0.13207 0.9355 0.66287 0.0
H68 H 0.07561 0.85475 0.685 0.0
C69 C 0.0723 0.84094 0.66579 0.0
O70 O 0.07787 0.8672 0.64631 0.0
H71 H 0.09587 0.83238 0.66438 0.0
C72 C 0.18861 0.93903 0.60996 0.0
C73 C 0.17867 0.95137 0.63309 0.0
C74 C 0.16186 0.90322 0.59904 0.0
C75 C 0.12484 0.87894 0.61176 0.0
C76 C 0.1143 0.89054 0.63477 0.0
C77 C 0.14102 0.9267 0.64533 0.0
H78 H 0.94102 0.39197 0.77442 0.0
H79 H 0.93552 0.49643 0.77265 0.0
H80 H 0.88674 0.41739 0.70958 0.0
H81 H 0.92312 0.49968 0.69234 0.0
C82 C 0.92311 0.51178 0.71176 0.0
O83 O 0.89789 0.48233 0.72857 0.0
H84 H 0.95472 0.52657 0.71895 0.0
C85 C 0.93219 0.41059 0.76464 0.0
C86 C 0.91298 0.40001 0.74038 0.0
C87 C 0.94099 0.44548 0.77626 0.0
C88 C 0.92922 0.4695 0.76389 0.0
C89 C 0.90931 0.45901 0.7401 0.0
C90 C 0.90131 0.4245 0.72831 0.0
H91 H 0.63814 0.54426 0.77102 0.0
H92 H 0.54325 0.42569 0.76772 0.0
H93 H 0.63154 0.47392 0.70598 0.0
H94 H 0.54623 0.41263 0.68636 0.0
C95 C 0.53392 0.40339 0.70645 0.0
O96 O 0.5655 0.41208 0.7231 0.0
H97 H 0.51816 0.41948 0.71185 0.0
C98 C 0.62359 0.51681 0.76121 0.0
C99 C 0.63958 0.51307 0.73725 0.0
C100 C 0.58871 0.48563 0.77244 0.0
C101 C 0.56999 0.45026 0.75946 0.0
C102 C 0.58517 0.44615 0.73556 0.0
C103 C 0.62014 0.47735 0.72457 0.0
H104 H 0.48716 0.0924 0.76962 0.0
H105 H 0.60741 0.10875 0.76909 0.0
H106 H 0.57074 0.15749 0.70757 0.0
H107 H 0.63861 0.14376 0.68785 0.0
C108 C 0.64095 0.13224 0.70709 0.0
O109 O 0.63129 0.15041 0.72644 0.0
H110 H 0.61871 0.10075 0.7072 0.0
C111 C 0.5166 0.10372 0.76033 0.0
C112 C 0.52463 0.12474 0.73686 0.0
C113 C 0.54587 0.09749 0.77222 0.0
C114 C 0.58446 0.11349 0.76048 0.0
C115 C 0.59361 0.13514 0.73726 0.0
C116 C 0.56374 0.14107 0.72559 0.0
H117 H 0.74927 0.59213 0.93456 0.0
H118 H 0.84721 0.56823 0.93805 0.0
H119 H 0.75712 0.52678 0.99899 0.0
H120 H 0.83877 0.53706 0.02022 0.0
C121 C 0.85306 0.54881 1.00087 0.0
O122 O 0.82449 0.5301 0.98183 0.0
H123 H 0.86309 0.58014 1.00093 0.0
C124 C 0.76449 0.57907 0.94438 0.0
C125 C 0.74851 0.55915 0.96821 0.0
C126 C 0.80009 0.58272 0.9332 0.0
C127 C 0.81992 0.56608 0.94627 0.0
C128 C 0.80461 0.546 0.96986 0.0
C129 C 0.76867 0.54216 0.98067 0.0
H130 H 0.43437 0.14751 0.93304 0.0
H131 H 0.45181 0.26219 0.93525 0.0
H132 H 0.50554 0.22629 0.99335 0.0
H133 H 0.47326 0.27568 0.01549 0.0
C134 C 0.46961 0.28653 0.99632 0.0
O135 O 0.49276 0.28128 0.97781 0.0
H136 H 0.43693 0.26989 0.9914 0.0
C137 C 0.44798 0.17567 0.94183 0.0
C138 C 0.47151 0.18314 0.96437 0.0
C139 C 0.4406 0.20391 0.93105 0.0
C140 C 0.45676 0.2398 0.94318 0.0
C141 C 0.47926 0.24725 0.96579 0.0
C142 C 0.48711 0.21937 0.97616 0.0
H143 H 0.88376 0.2898 0.93451 0.0
H144 H 0.76885 0.18511 0.93678 0.0
H145 H 0.79727 0.26945 0.99603 0.0
H146 H 0.7393 0.18987 0.01811 0.0
C147 C 0.73668 0.17569 0.99914 0.0
O148 O 0.74268 0.20149 0.97924 0.0
H149 H 0.76047 0.16734 0.99851 0.0
C150 C 0.85433 0.27225 0.94364 0.0
C151 C 0.84429 0.28476 0.96665 0.0
C152 C 0.82738 0.23664 0.93257 0.0
C153 C 0.79004 0.21268 0.94504 0.0
C154 C 0.77937 0.22449 0.96791 0.0
C155 C 0.80629 0.26049 0.97859 0.0
H156 H 0.60857 0.72596 0.1068 0.0
H157 H 0.60123 0.82948 0.10519 0.0
H158 H 0.55306 0.75032 0.04216 0.0
H159 H 0.58798 0.83258 0.02486 0.0
C160 C 0.58828 0.84452 0.04439 0.0
O161 O 0.56336 0.81492 0.0612 0.0
H162 H 0.62002 0.8593 0.05136 0.0
C163 C 0.5993 0.74428 0.09707 0.0
C164 C 0.57993 0.73347 0.07286 0.0
C165 C 0.60765 0.77905 0.1087 0.0
C166 C 0.59529 0.80266 0.09641 0.0
C167 C 0.57526 0.79194 0.07268 0.0
C168 C 0.56771 0.75759 0.06087 0.0
H169 H 0.304 0.87685 0.10473 0.0
H170 H 0.21007 0.75783 0.10172 0.0
H171 H 0.2979 0.80657 0.03978 0.0
H172 H 0.21329 0.74514 0.02022 0.0
C173 C 0.20083 0.73568 0.04026 0.0
O174 O 0.23232 0.74446 0.05702 0.0
H175 H 0.1848 0.75153 0.04565 0.0
C176 C 0.28966 0.84935 0.09499 0.0
C177 C 0.30566 0.8457 0.071 0.0
C178 C 0.25504 0.81797 0.10632 0.0
C179 C 0.2366 0.78255 0.09339 0.0
C180 C 0.25178 0.77855 0.06946 0.0
C181 C 0.2865 0.80992 0.05839 0.0
H182 H 0.15958 0.42971 0.10405 0.0
H183 H 0.27999 0.44684 0.10096 0.0
H184 H 0.23837 0.48992 0.03869 0.0
H185 H 0.30684 0.47482 0.01864 0.0
C186 C 0.30965 0.46493 0.03835 0.0
O187 O 0.30055 0.48475 0.05675 0.0
H188 H 0.28739 0.43348 0.03964 0.0
C189 C 0.18853 0.4411 0.09407 0.0
C190 C 0.19465 0.45988 0.0698 0.0
C191 C 0.21892 0.43621 0.10551 0.0
C192 C 0.25625 0.45043 0.09242 0.0
C193 C 0.26356 0.47006 0.06849 0.0
C194 C 0.23281 0.47506 0.05727 0.0
H195 H 0.41377 0.92478 0.26858 0.0
H196 H 0.5113 0.9003 0.27216 0.0
H197 H 0.42198 0.86047 0.33354 0.0
H198 H 0.50434 0.87078 0.35452 0.0
C199 C 0.5181 0.88233 0.33503 0.0
O200 O 0.48907 0.86319 0.31631 0.0
H201 H 0.5279 0.91361 0.33497 0.0
C202 C 0.42898 0.91178 0.27848 0.0
C203 C 0.41321 0.89234 0.30247 0.0
C204 C 0.46436 0.91502 0.26724 0.0
C205 C 0.48418 0.89847 0.28043 0.0
C206 C 0.46913 0.87894 0.30421 0.0
C207 C 0.43338 0.87548 0.31508 0.0
H208 H 0.10429 0.48269 0.26721 0.0
H209 H 0.12104 0.59711 0.26974 0.0
H210 H 0.17347 0.56062 0.32839 0.0
H211 H 0.14091 0.60997 0.3503 0.0
C212 C 0.13726 0.62059 0.33105 0.0
O213 O 0.16091 0.61569 0.31274 0.0
H214 H 0.10466 0.60358 0.32598 0.0
C215 C 0.11753 0.51073 0.27616 0.0
C216 C 0.14047 0.51797 0.29895 0.0
C217 C 0.11022 0.53898 0.26535 0.0
C218 C 0.12593 0.57469 0.27768 0.0
C219 C 0.14784 0.58188 0.30054 0.0
C220 C 0.15556 0.55395 0.31097 0.0
H221 H 0.55109 0.62394 0.26644 0.0
H222 H 0.43669 0.51871 0.2684 0.0
H223 H 0.46397 0.60271 0.32774 0.0
H224 H 0.4068 0.52265 0.34958 0.0
C225 C 0.4038 0.50855 0.33052 0.0
O226 O 0.40986 0.53459 0.31076 0.0
H227 H 0.42737 0.49994 0.32963 0.0
C228 C 0.52165 0.6062 0.2755 0.0
C229 C 0.51128 0.61852 0.29847 0.0
C230 C 0.49501 0.57053 0.26435 0.0
C231 C 0.45765 0.54631 0.27672 0.0
C232 C 0.44663 0.55787 0.29957 0.0
C233 C 0.47326 0.59394 0.31033 0.0
Tb234 Tb 0.50138 0.9881 0.98763 0.0
C235 C 0.57905 0.11653 0.06945 0.0
C236 C 0.65001 0.13633 0.06831 0.0
C237 C 0.62893 0.18195 0.08106 0.0
C238 C 0.60922 0.10828 0.06436 0.0
C239 C 0.58831 0.15305 0.07868 0.0
C240 C 0.65979 0.17359 0.07587 0.0
C241 C 0.51689 0.12799 0.08582 0.0
N242 N 0.54036 0.08752 0.0675 0.0
C243 C 0.50935 0.09224 0.07663 0.0
C244 C 0.55652 0.15879 0.08639 0.0
Tb245 Tb 0.53025 0.02979 0.05211 0.0
N246 N 0.59827 0.07174 0.05756 0.0
C247 C 0.62688 0.06074 0.05633 0.0
C248 C 0.6795 0.12566 0.06553 0.0
C249 C 0.66777 0.08752 0.05992 0.0
H250 H 0.47855 0.06876 0.07618 0.0
H251 H 0.69024 0.07871 0.05822 0.0
H252 H 0.69098 0.19569 0.07864 0.0
H253 H 0.49212 0.13178 0.0924 0.0
H254 H 0.61883 0.03161 0.05186 0.0
H255 H 0.34077 0.93665 0.98593 0.0
H256 H 0.71118 0.14632 0.06833 0.0
H257 H 0.55362 0.94817 0.96576 0.0
H258 H 0.41274 0.98553 0.98891 0.0
H259 H 0.54002 0.88372 0.95242 0.0
H260 H 0.63674 0.21037 0.08782 0.0
H261 H 0.32038 0.86844 0.97844 0.0
H262 H 0.34112 0.81912 0.96901 0.0
H263 H 0.56232 0.18639 0.09364 0.0
H264 H 0.3955 0.80464 0.95973 0.0
N265 N 0.4335 0.94548 0.98393 0.0
C266 C 0.40456 0.95599 0.98555 0.0
C267 C 0.35215 0.88981 0.97976 0.0
C268 C 0.38197 0.87962 0.97648 0.0
C269 C 0.36355 0.92829 0.9839 0.0
C270 C 0.42283 0.90853 0.97854 0.0
H271 H 0.46989 0.82877 0.95298 0.0
N272 N 0.49191 0.92966 0.97447 0.0
C273 C 0.51531 0.88795 0.95846 0.0
C274 C 0.45316 0.90029 0.97358 0.0
C275 C 0.5229 0.92444 0.96598 0.0
C276 C 0.47569 0.85697 0.95888 0.0
C277 C 0.44391 0.86306 0.96607 0.0
O278 O 0.53463 1.00543 0.95234 0.0
O279 O 0.54621 0.03293 1.01146 0.0
O280 O 0.5232 0.07165 0.02811 0.0
O281 O 0.48375 0.03199 0.99427 0.0
O282 O 0.567 0.01226 0.9827 0.0
O283 O 0.47843 1.00512 0.95626 0.0
O284 O 0.49687 0.0121 0.08746 0.0
O285 O 0.48491 0.98525 0.02824 0.0
O286 O 0.50696 0.94665 0.01213 0.0
O287 O 0.55013 0.98745 0.04386 0.0
O288 O 0.46521 0.008 0.056 0.0
O289 O 0.54912 0.00611 0.08181 0.0
C290 C 0.57814 0.0374 1.00078 0.0
C291 C 0.49669 0.99429 0.91423 0.0
C292 C 0.50014 1.00282 0.86676 0.0
C293 C 0.51013 0.01852 0.89198 0.0
C294 C 0.47726 0.96249 0.86436 0.0
C295 C 0.47323 0.95436 0.91114 0.0
C296 C 0.46384 0.93859 0.88637 0.0
C297 C 0.5001 0.06474 1.00735 0.0
C298 C 0.5079 0.01082 0.94048 0.0
C299 C 0.4033 0.8336 0.96516 0.0
C300 C 0.37234 0.84185 0.97042 0.0
C301 C 0.45321 0.98218 0.03837 0.0
C302 C 0.53469 0.01695 0.12477 0.0
C303 C 0.51743 0.99235 0.14664 0.0
C304 C 0.53076 0.00597 0.17201 0.0
C305 C 0.56107 0.04468 0.17501 0.0
C306 C 0.56505 0.05523 0.12843 0.0
C307 C 0.578 0.069 0.15339 0.0
C308 C 0.53309 0.95443 0.03101 0.0
C309 C 0.52123 1.00246 0.09825 0.0
H310 H 0.52769 0.04946 0.89436 0.0
H311 H 0.46978 0.94927 0.84539 0.0
H312 H 0.46222 0.9353 0.9278 0.0
H313 H 0.44604 0.90766 0.88422 0.0
H314 H 0.49426 0.96261 0.14385 0.0
H315 H 0.57149 0.05636 0.19416 0.0
H316 H 0.5789 0.07448 0.11205 0.0
H317 H 0.60132 0.09868 0.15598 0.0
Tb318 Tb 0.04876 0.50813 0.98879 0.0
C319 C 0.91068 0.45513 0.06939 0.0
C320 C 0.8904 0.5033 0.06752 0.0
C321 C 0.84157 0.43766 0.08061 0.0
C322 C 0.91982 0.49224 0.06387 0.0
C323 C 0.87184 0.42762 0.07864 0.0
C324 C 0.85086 0.47551 0.07505 0.0
C325 C 0.89746 0.38445 0.08688 0.0
N326 N 0.9411 0.44707 0.06797 0.0
C327 C 0.93554 0.41287 0.07772 0.0
C328 C 0.86524 0.39158 0.08688 0.0
Tb329 Tb 1.00262 0.49509 0.05274 0.0
N330 N 0.95858 0.51825 0.05717 0.0
C331 C 0.97043 0.55659 0.05559 0.0
C332 C 0.90202 0.54217 0.06452 0.0
C333 C 0.94235 0.56899 0.05891 0.0
H334 H 0.96017 0.40696 0.07773 0.0
H335 H 0.95187 0.59927 0.05701 0.0
H336 H 0.82768 0.48332 0.07757 0.0
H337 H 0.89301 0.35707 0.09391 0.0
H338 H 1.00131 0.57792 0.05116 0.0
H339 H 0.10141 0.40543 0.98778 0.0
H340 H 0.88037 0.55188 0.06713 0.0
H341 H 0.09214 0.59792 0.96622 0.0
H342 H 0.05058 0.42581 0.99098 0.0
H343 H 0.16038 0.64895 0.95238 0.0
H344 H 0.81138 0.41682 0.08737 0.0
H345 H 0.17332 0.45371 0.9796 0.0
H346 H 0.22581 0.52259 0.96951 0.0
H347 H 0.83586 0.36964 0.09416 0.0
H348 H 0.24193 0.58906 0.95971 0.0
N349 N 0.09317 0.48552 0.98534 0.0
C350 C 0.08173 0.44733 0.98728 0.0
C351 C 0.1511 0.4629 0.98098 0.0
C352 C 0.16226 0.5016 0.97741 0.0
C353 C 0.11053 0.43557 0.98551 0.0
C354 C 0.13215 0.51201 0.97956 0.0
H355 H 0.21752 0.63635 0.95278 0.0
N356 N 0.11067 0.55712 0.97503 0.0
C357 C 0.15545 0.62105 0.95857 0.0
C358 C 0.14127 0.54922 0.97416 0.0
C359 C 0.1168 0.59203 0.96635 0.0
C360 C 0.18766 0.61387 0.9589 0.0
C361 C 0.18066 0.57737 0.96634 0.0
O362 O 0.03367 0.52251 0.95281 0.0
O363 O 1.00059 0.50663 1.01196 0.0
O364 O 0.9591 0.44632 0.02945 0.0
O365 O 1.00182 0.44741 0.996 0.0
O366 O 0.02391 0.54673 0.98281 0.0
O367 O 0.03061 0.46779 0.95866 0.0
O368 O 1.01948 0.48117 0.08834 0.0
O369 O 0.05074 0.4963 0.0295 0.0
O370 O 0.09195 0.55486 0.01287 0.0
O371 O 0.04826 0.55643 0.04416 0.0
O372 O 0.02596 0.4553 0.05784 0.0
O373 O 0.02371 0.53621 0.0825 0.0
C374 C 0.99652 0.53255 1.00078 0.0
C375 C 0.04523 0.49437 0.91611 0.0
C376 C 0.03743 0.48939 0.86902 0.0
C377 C 1.02057 0.48442 0.89417 0.0
C378 C 0.07929 0.50432 0.86608 0.0
C379 C 0.08683 0.50868 0.91283 0.0
C380 C 0.10375 0.51369 0.88792 0.0
C381 C 0.96685 0.43062 1.0091 0.0
C382 C 0.02704 0.49057 0.94206 0.0
C383 C 0.21132 0.56775 0.9654 0.0
C384 C 0.20214 0.5299 0.97097 0.0
C385 C 0.0538 0.46948 0.04017 0.0
C386 C 1.00873 0.50976 0.1251 0.0
C387 C 0.03177 0.51482 0.1474 0.0
C388 C 1.01469 0.51113 0.17245 0.0
C389 C 0.97398 0.50165 0.17474 0.0
C390 C 0.96851 0.50107 0.12793 0.0
C391 C 0.95118 0.49679 0.15259 0.0
C392 C 0.08352 0.57268 0.03135 0.0
C393 C 0.02696 0.51328 0.09911 0.0
H394 H 0.98839 0.47342 0.89666 0.0
H395 H 0.09296 0.50818 0.84691 0.0
H396 H 0.10623 0.51604 0.9294 0.0
H397 H 0.13592 0.52486 0.88554 0.0
H398 H 0.06312 0.52231 0.14518 0.0
H399 H 0.95965 0.49783 0.19366 0.0
H400 H 0.95048 0.49772 0.11117 0.0
H401 H 0.91998 0.48976 0.15455 0.0
Tb402 Tb 0.55081 0.51222 0.05124 0.0
C403 C 0.4705 0.56555 0.97152 0.0
C404 C 0.39977 0.51681 0.97126 0.0
C405 C 0.42009 0.58337 0.96096 0.0
C406 C 0.44059 0.52787 0.9754 0.0
C407 C 0.46081 0.59371 0.96377 0.0
C408 C 0.38959 0.54493 0.96465 0.0
C409 C 0.53233 0.63912 0.9597 0.0
N410 N 0.50939 0.57409 0.97394 0.0
C411 C 0.54036 0.61 0.96711 0.0
C412 C 0.49237 0.63107 0.95831 0.0
Tb413 Tb 0.51972 0.52493 0.98721 0.0
N414 N 0.45181 0.50164 0.98161 0.0
C415 C 0.42354 0.46324 0.98238 0.0
C416 C 0.37062 0.47775 0.9732 0.0
C417 C 0.38266 0.45082 0.97846 0.0
H418 H 0.57137 0.61661 0.96823 0.0
H419 H 0.36043 0.42045 0.97965 0.0
H420 H 0.35836 0.53709 0.96173 0.0
H421 H 0.55696 0.66772 0.95501 0.0
H422 H 0.43198 0.44187 0.98654 0.0
H423 H 0.71221 0.61106 0.05121 0.0
H424 H 0.33894 0.46804 0.97021 0.0
H425 H 0.49698 0.42281 0.07445 0.0
H426 H 0.64069 0.59278 0.04814 0.0
H427 H 0.50915 0.37085 0.08906 0.0
H428 H 0.41195 0.60464 0.95524 0.0
H429 H 0.73105 0.56149 0.06047 0.0
H430 H 0.70878 0.49247 0.07185 0.0
H431 H 0.48621 0.65359 0.95236 0.0
H432 H 0.65339 0.42697 0.08242 0.0
N433 N 0.61849 0.5329 0.05483 0.0
C434 C 0.64812 0.57068 0.05228 0.0
C435 C 0.69945 0.55321 0.05912 0.0
C436 C 0.66899 0.515 0.06332 0.0
C437 C 0.68892 0.58127 0.05397 0.0
C438 C 0.62836 0.50578 0.06117 0.0
H439 H 0.57876 0.38146 0.08934 0.0
N440 N 0.55904 0.46241 0.06589 0.0
C441 C 0.53428 0.39834 0.08281 0.0
C442 C 0.59748 0.46917 0.06704 0.0
C443 C 0.52752 0.42795 0.07457 0.0
C444 C 0.5736 0.4044 0.08288 0.0
C445 C 0.6059 0.44037 0.0753 0.0
O446 O 0.51884 0.5005 0.08683 0.0
O447 O 0.50444 0.5127 0.02782 0.0
O448 O 0.5236 0.57057 0.01238 0.0
O449 O 0.57034 0.57293 0.04213 0.0
O450 O 0.48517 0.47373 0.05752 0.0
O451 O 0.57528 0.55323 0.08106 0.0
O452 O 0.55159 0.54125 0.95141 0.0
O453 O 0.56618 0.52381 1.01032 0.0
O454 O 0.54521 0.46526 0.02746 0.0
O455 O 0.50108 0.46376 0.99575 0.0
O456 O 0.58488 0.56477 0.98197 0.0
O457 O 0.50049 0.48433 0.95715 0.0
C458 C 0.47289 0.48691 0.03908 0.0
C459 C 0.55826 0.52733 0.12393 0.0
C460 C 0.55073 0.52947 0.17112 0.0
C461 C 0.54162 0.53584 0.14569 0.0
C462 C 0.57684 0.51459 0.17442 0.0
C463 C 0.58467 0.51303 0.12771 0.0
C464 C 0.59382 0.50665 0.15282 0.0
C465 C 0.55087 0.58845 0.0306 0.0
C466 C 0.54635 0.53193 0.09756 0.0
C467 C 0.64624 0.44879 0.07637 0.0
C468 C 0.67776 0.48607 0.07035 0.0
C469 C 0.59759 0.55051 0.99943 0.0
C470 C 0.51313 0.51064 0.91445 0.0
C471 C 0.53133 0.50494 0.89227 0.0
C472 C 0.51791 0.50691 0.86711 0.0
C473 C 0.48636 0.51517 0.86459 0.0
C474 C 0.48159 0.51856 0.91136 0.0
C475 C 0.4684 0.52091 0.88658 0.0
C476 C 0.51885 0.44761 1.00881 0.0
C477 C 0.52748 0.50847 0.94058 0.0
H478 H 0.52107 0.54677 0.14284 0.0
H479 H 0.58469 0.50974 0.19373 0.0
H480 H 0.59809 0.50666 0.11133 0.0
H481 H 0.61416 0.49551 0.15556 0.0
H482 H 0.55544 0.4984 0.89466 0.0
H483 H 0.47578 0.51759 0.84558 0.0
H484 H 0.46712 0.5229 0.92801 0.0
H485 H 0.44415 0.52724 0.8844 0.0
Tb486 Tb 0.16743 0.32219 0.32028 0.0
C487 C 0.24965 0.44881 0.40244 0.0
C488 C 0.32008 0.46662 0.4004 0.0
C489 C 0.30135 0.51359 0.41399 0.0
C490 C 0.27888 0.43944 0.39683 0.0
C491 C 0.26033 0.48559 0.41188 0.0
C492 C 0.33123 0.5041 0.40824 0.0
C493 C 0.1894 0.46256 0.4196 0.0
N494 N 0.21053 0.42067 0.40068 0.0
C495 C 0.18044 0.42647 0.41023 0.0
C496 C 0.22949 0.49249 0.41999 0.0
Tb497 Tb 0.19814 0.36243 0.38492 0.0
N498 N 0.26666 0.40276 0.38969 0.0
C499 C 0.29442 0.39076 0.3876 0.0
C500 C 0.34863 0.45492 0.39685 0.0
C501 C 0.33565 0.41665 0.39081 0.0
H502 H 0.14932 0.4036 0.40992 0.0
H503 H 0.3574 0.40706 0.38847 0.0
H504 H 0.36274 0.52554 0.41073 0.0
H505 H 0.16535 0.46725 0.42648 0.0
H506 H 0.28545 0.36154 0.38274 0.0
H507 H 1.00674 0.27088 0.32176 0.0
H508 H 0.38058 0.4749 0.39932 0.0
H509 H 0.2188 0.28358 0.29487 0.0
H510 H 0.07882 0.31954 0.3243 0.0
H511 H 0.20465 0.22015 0.27885 0.0
H512 H 0.31023 0.54219 0.42091 0.0
H513 H 0.98602 0.20313 0.31216 0.0
H514 H 1.00637 0.15447 0.29976 0.0
H515 H 0.23638 0.52034 0.4274 0.0
H516 H 0.06039 0.14064 0.28777 0.0
N517 N 0.09937 0.27974 0.31721 0.0
C518 C 0.07051 0.29019 0.32009 0.0
C519 C 1.01784 0.22439 0.31335 0.0
C520 C 0.04752 0.21439 0.30863 0.0
C521 C 0.02943 0.26261 0.31867 0.0
C522 C 0.08847 0.24315 0.31061 0.0
H523 H 0.13451 0.16523 0.27934 0.0
N524 N 0.1574 0.26453 0.305 0.0
C525 C 0.18018 0.22394 0.28608 0.0
C526 C 0.11862 0.23526 0.30414 0.0
C527 C 0.18808 0.25987 0.29513 0.0
C528 C 0.14056 0.19298 0.28645 0.0
C529 C 0.10906 0.19856 0.29517 0.0
O530 O 0.2003 0.34214 0.28498 0.0
O531 O 0.21315 0.36618 0.34412 0.0
O532 O 0.19151 0.40516 0.36169 0.0
O533 O 0.15001 0.36581 0.32848 0.0
O534 O 0.23287 0.34592 0.31454 0.0
O535 O 0.14317 0.33971 0.28997 0.0
O536 O 0.16504 0.3447 0.42034 0.0
O537 O 0.15196 0.31821 0.36123 0.0
O538 O 0.17415 0.27988 0.34308 0.0
O539 O 0.21629 0.31912 0.37588 0.0
O540 O 0.1334 0.3415 0.38942 0.0
O541 O 0.21732 0.33878 0.41448 0.0
C542 C 0.24474 0.37063 0.33293 0.0
C543 C 0.16209 0.3323 0.24721 0.0
C544 C 0.17047 0.34357 0.20008 0.0
C545 C 0.17863 0.35769 0.2257 0.0
C546 C 0.14537 0.3038 0.19636 0.0
C547 C 0.13662 0.29286 0.24295 0.0
C548 C 0.12841 0.27873 0.21766 0.0
C549 C 0.16761 0.39865 0.34143 0.0
C550 C 0.17284 0.34718 0.27387 0.0
C551 C 0.0684 0.16919 0.29433 0.0
C552 C 0.03765 0.17707 0.30114 0.0
C553 C 0.12069 0.31549 0.37188 0.0
C554 C 0.20288 0.34946 0.45754 0.0
C555 C 0.18407 0.3253 0.4794 0.0
C556 C 0.19573 0.33942 0.50484 0.0
C557 C 0.22664 0.3778 0.50799 0.0
C558 C 0.23388 0.38746 0.4613 0.0
C559 C 0.24563 0.40151 0.48636 0.0
C560 C 0.19975 0.28684 0.36221 0.0
C561 C 0.18949 0.33508 0.431 0.0
H562 H 0.19829 0.38824 0.22889 0.0
H563 H 0.13823 0.29216 0.17691 0.0
H564 H 0.12313 0.27296 0.25909 0.0
H565 H 0.10878 0.24821 0.21456 0.0
H566 H 0.16001 0.29591 0.47664 0.0
H567 H 0.2365 0.38936 0.52724 0.0
H568 H 0.24907 0.40631 0.44492 0.0
H569 H 0.26957 0.43092 0.48903 0.0
Tb570 Tb 0.71472 0.84313 0.32123 0.0
C571 C 0.57672 0.7886 0.40221 0.0
C572 C 0.55643 0.83678 0.40102 0.0
C573 C 0.50768 0.77096 0.41378 0.0
C574 C 0.58584 0.82579 0.39705 0.0
C575 C 0.53794 0.76096 0.41148 0.0
C576 C 0.51693 0.80888 0.40855 0.0
C577 C 0.56365 0.71772 0.41911 0.0
N578 N 0.60714 0.78058 0.40049 0.0
C579 C 0.60167 0.74627 0.40995 0.0
C580 C 0.53141 0.72482 0.4194 0.0
Tb581 Tb 0.66858 0.82879 0.38526 0.0
N582 N 0.62455 0.85188 0.39031 0.0
C583 C 0.63636 0.89022 0.38899 0.0
C584 C 0.568 0.87568 0.3983 0.0
C585 C 0.60829 0.90257 0.39263 0.0
H586 H 0.6263 0.74036 0.40973 0.0
H587 H 0.61778 0.93286 0.39094 0.0
H588 H 0.49376 0.81664 0.41131 0.0
H589 H 0.55926 0.69026 0.4259 0.0
H590 H 0.66719 0.91163 0.38452 0.0
H591 H 0.76787 0.74086 0.31866 0.0
H592 H 0.54636 0.88533 0.40115 0.0
H593 H 0.75796 0.93337 0.29955 0.0
H594 H 0.71682 0.76094 0.32221 0.0
H595 H 0.82624 0.98488 0.2862 0.0
H596 H 0.47753 0.75002 0.42055 0.0
H597 H 0.83983 0.78952 0.31111 0.0
H598 H 0.89225 0.85871 0.30187 0.0
H599 H 0.50207 0.70278 0.42668 0.0
H600 H 0.90821 0.92532 0.29283 0.0
N601 N 0.75934 0.82081 0.3174 0.0
C602 C 0.74799 0.78262 0.31878 0.0
C603 C 0.81751 0.79857 0.31265 0.0
C604 C 0.82858 0.83733 0.3096 0.0
C605 C 0.77691 0.77103 0.31682 0.0
C606 C 0.79835 0.84755 0.31192 0.0
H607 H 0.88358 0.97255 0.28643 0.0
N608 N 0.77665 0.89257 0.30791 0.0
C609 C 0.82138 0.9569 0.2921 0.0
C610 C 0.80737 0.88483 0.30694 0.0
C611 C 0.78271 0.92761 0.2996 0.0
C612 C 0.8537 0.94986 0.29234 0.0
C613 C 0.84679 0.91325 0.29939 0.0
O614 O 0.7002 0.85831 0.28534 0.0
O615 O 0.66643 0.84097 0.34463 0.0
O616 O 0.6251 0.78021 0.36174 0.0
O617 O 0.66772 0.78222 0.32787 0.0
O618 O 0.68952 0.88157 0.31579 0.0
O619 O 0.69663 0.80329 0.2908 0.0
O620 O 0.68597 0.81436 0.42045 0.0
O621 O 0.71672 0.83048 0.36177 0.0
O622 O 0.75787 0.88932 0.34571 0.0
O623 O 0.71405 0.89033 0.3771 0.0
O624 O 0.69164 0.7887 0.38959 0.0
O625 O 0.68993 0.86939 0.41533 0.0
C626 C 0.66214 0.86696 0.33374 0.0
C627 C 0.71188 0.83053 0.24846 0.0
C628 C 0.70428 0.82493 0.20138 0.0
C629 C 0.68725 0.81984 0.22649 0.0
C630 C 0.74628 0.84071 0.19852 0.0
C631 C 0.75364 0.84571 0.24527 0.0
C632 C 0.77073 0.85082 0.2204 0.0
C633 C 0.63285 0.76498 0.3411 0.0
C634 C 0.69345 0.82648 0.27435 0.0
C635 C 0.87757 0.90381 0.29832 0.0
C636 C 0.86849 0.86588 0.30346 0.0
C637 C 0.71956 0.80328 0.37199 0.0
C638 C 0.67591 0.84238 0.45774 0.0
C639 C 0.69978 0.84838 0.47976 0.0
C640 C 0.68318 0.84431 0.505 0.0
C641 C 0.64212 0.83346 0.50776 0.0
C642 C 0.63534 0.83235 0.46104 0.0
C643 C 0.6185 0.82767 0.48589 0.0
C644 C 0.7494 0.90682 0.36438 0.0
C645 C 0.69362 0.8463 0.43156 0.0
H646 H 0.65495 0.80817 0.22891 0.0
H647 H 0.76008 0.84468 0.17939 0.0
H648 H 0.77303 0.85368 0.26185 0.0
H649 H 0.80301 0.86266 0.21809 0.0
H650 H 0.73137 0.85688 0.47717 0.0
H651 H 0.62815 0.82929 0.52684 0.0
H652 H 0.61666 0.82821 0.44449 0.0
H653 H 0.58704 0.81959 0.48823 0.0
Tb654 Tb 0.21538 0.84567 0.38519 0.0
C655 C 0.13414 0.89653 0.30365 0.0
C656 C 0.06354 0.84759 0.30539 0.0
C657 C 0.08297 0.91298 0.29223 0.0
C658 C 0.10461 0.85924 0.3091 0.0
C659 C 0.12388 0.92366 0.2944 0.0
C660 C 0.0528 0.87494 0.29772 0.0
C661 C 0.19498 0.968 0.28694 0.0
N662 N 0.17316 0.90528 0.30541 0.0
C663 C 0.20353 0.93993 0.29609 0.0
C664 C 0.15501 0.96008 0.28652 0.0
Tb665 Tb 0.18479 0.85792 0.32084 0.0
N666 N 0.11645 0.83371 0.316 0.0
C667 C 0.08847 0.79525 0.31769 0.0
C668 C 0.03472 0.80861 0.30856 0.0
C669 C 0.04734 0.78227 0.31435 0.0
H670 H 0.23456 0.94646 0.29643 0.0
H671 H 0.02538 0.75191 0.31637 0.0
H672 H 1.02139 0.86667 0.29514 0.0
H673 H 0.21924 0.99573 0.28025 0.0
H674 H 0.09727 0.77428 0.32227 0.0
H675 H 0.37576 0.94862 0.38535 0.0
H676 H 1.00286 0.79846 0.30595 0.0
H677 H 0.16414 0.75609 0.40818 0.0
H678 H 0.30359 0.92808 0.38232 0.0
H679 H 0.17867 0.70544 0.42257 0.0
H680 H 0.07441 0.93351 0.28544 0.0
H681 H 0.39696 0.90063 0.39423 0.0
H682 H 0.37708 0.83204 0.40518 0.0
H683 H 0.14843 0.98177 0.27926 0.0
H684 H 0.32333 0.76571 0.41552 0.0
N685 N 0.28348 0.86851 0.38867 0.0
C686 C 0.3121 0.90666 0.38629 0.0
C687 C 0.3651 0.89136 0.3929 0.0
C688 C 0.33562 0.85273 0.39692 0.0
C689 C 0.35324 0.91853 0.38797 0.0
C690 C 0.29461 0.84221 0.3948 0.0
H691 H 0.24915 0.71834 0.42252 0.0
N692 N 0.22571 0.797 0.39942 0.0
C693 C 0.20313 0.73331 0.41628 0.0
C694 C 0.26462 0.80507 0.40047 0.0
C695 C 0.19502 0.76212 0.40818 0.0
C696 C 0.24294 0.74066 0.41616 0.0
C697 C 0.27438 0.77712 0.40859 0.0
O698 O 0.18324 0.83194 0.42082 0.0
O699 O 0.16916 0.84635 0.36163 0.0
O700 O 0.19066 0.90608 0.34424 0.0
O701 O 0.23238 0.90599 0.37732 0.0
O702 O 0.14995 0.8064 0.39087 0.0
O703 O 0.2388 0.88574 0.41555 0.0
O704 O 0.21725 0.87253 0.2852 0.0
O705 O 0.23121 0.85757 0.3444 0.0
O706 O 0.21103 0.79925 0.36139 0.0
O707 O 0.16659 0.79701 0.32976 0.0
O708 O 0.24986 0.89841 0.31601 0.0
O709 O 0.16524 0.81645 0.29133 0.0
C710 C 0.13767 0.82015 0.37276 0.0
C711 C 0.22228 0.85881 0.45814 0.0
C712 C 0.2157 0.8614 0.50537 0.0
C713 C 0.20599 0.86743 0.48003 0.0
C714 C 0.24202 0.84672 0.50846 0.0
C715 C 0.24896 0.84478 0.4617 0.0
C716 C 0.25866 0.83869 0.48673 0.0
C717 C 0.2146 0.9221 0.36442 0.0
C718 C 0.21006 0.86343 0.43187 0.0
C719 C 0.31514 0.78686 0.4096 0.0
C720 C 0.34574 0.82463 0.40371 0.0
C721 C 0.26263 0.88453 0.3337 0.0
C722 C 0.17839 0.84179 0.24839 0.0
C723 C 0.19717 0.83672 0.22626 0.0
C724 C 0.18365 0.83837 0.20106 0.0
C725 C 0.15156 0.84586 0.19846 0.0
C726 C 0.14618 0.84873 0.2452 0.0
C727 C 0.13303 0.85095 0.22039 0.0
C728 C 0.18476 0.78128 0.34279 0.0
C729 C 0.19258 0.83975 0.27463 0.0
H730 H 0.18532 0.87827 0.47734 0.0
H731 H 0.25032 0.84214 0.52769 0.0
H732 H 0.26224 0.83847 0.44524 0.0
H733 H 0.27921 0.82775 0.4893 0.0
H734 H 0.22171 0.83082 0.2287 0.0
H735 H 0.14091 0.84806 0.17943 0.0
H736 H 0.13106 0.8523 0.26182 0.0
H737 H 0.10829 0.85656 0.21815 0.0
Tb738 Tb 0.83523 0.65491 0.654 0.0
C739 C 0.91353 0.78465 0.73396 0.0
C740 C 0.98443 0.80414 0.73462 0.0
C741 C 0.9632 0.85064 0.74446 0.0
C742 C 0.94378 0.77597 0.73042 0.0
C743 C 0.92266 0.82186 0.7415 0.0
C744 C 0.99408 0.84177 0.74106 0.0
C745 C 0.85096 0.79836 0.74493 0.0
N746 N 0.87484 0.75586 0.73132 0.0
C747 C 0.84349 0.76181 0.7377 0.0
C748 C 0.89073 0.82866 0.74656 0.0
Tb749 Tb 0.86537 0.69726 0.71822 0.0
N750 N 0.93306 0.73925 0.72429 0.0
C751 C 0.96171 0.72827 0.72374 0.0
C752 C 1.01398 0.79338 0.73286 0.0
C753 C 1.00246 0.75514 0.72774 0.0
H754 H 0.8126 0.7387 0.7364 0.0
H755 H 0.02499 0.74634 0.72669 0.0
H756 H 0.02517 0.86393 0.74405 0.0
H757 H 0.82603 0.8031 0.74929 0.0
H758 H 0.95373 0.69905 0.71965 0.0
H759 H 0.67389 0.59994 0.6531 0.0
H760 H 0.04556 0.81414 0.73588 0.0
H761 H 0.889 0.61688 0.63143 0.0
H762 H 0.74543 0.64992 0.65587 0.0
H763 H 0.87694 0.55313 0.61776 0.0
H764 H 0.97092 0.87953 0.75003 0.0
H765 H 0.65506 0.53219 0.64527 0.0
H766 H 0.67737 0.48416 0.63528 0.0
H767 H 0.89645 0.85688 0.75234 0.0
H768 H 0.7328 0.47137 0.62543 0.0
N769 N 0.76759 0.61103 0.65045 0.0
C770 C 0.73798 0.62063 0.65235 0.0
C771 C 0.68666 0.55407 0.6465 0.0
C772 C 0.71712 0.54481 0.64291 0.0
C773 C 0.69718 0.59228 0.65083 0.0
C774 C 0.75773 0.57436 0.64488 0.0
H775 H 0.80744 0.49714 0.61834 0.0
N776 N 0.82704 0.59708 0.64033 0.0
C777 C 0.85182 0.55662 0.62396 0.0
C778 C 0.78863 0.5671 0.63954 0.0
C779 C 0.85853 0.59275 0.63167 0.0
C780 C 0.81256 0.52505 0.62439 0.0
C781 C 0.78025 0.53019 0.63184 0.0
O782 O 0.86781 0.67349 0.61853 0.0
O783 O 0.88068 0.69929 0.67769 0.0
O784 O 0.86107 0.73897 0.69259 0.0
O785 O 0.81571 0.6972 0.6621 0.0
O786 O 0.90095 0.67964 0.64817 0.0
O787 O 0.81148 0.67263 0.62345 0.0
O788 O 0.83285 0.68215 0.75384 0.0
O789 O 0.81962 0.65223 0.69481 0.0
O790 O 0.84191 0.61386 0.67832 0.0
O791 O 0.88515 0.65479 0.7101 0.0
O792 O 0.8003 0.67506 0.72279 0.0
O793 O 0.88378 0.67382 0.74834 0.0
C794 C 0.91248 0.7041 0.66668 0.0
C795 C 0.82885 0.66235 0.58099 0.0
C796 C 0.83242 0.67078 0.5335 0.0
C797 C 0.84269 0.68651 0.5587 0.0
C798 C 0.80886 0.63048 0.53116 0.0
C799 C 0.80471 0.62247 0.57795 0.0
C800 C 0.79503 0.60666 0.55321 0.0
C801 C 0.83455 0.73104 0.6738 0.0
C802 C 0.84062 0.67877 0.60723 0.0
C803 C 0.73993 0.50009 0.63103 0.0
C804 C 0.70838 0.50737 0.63662 0.0
C805 C 0.78808 0.64902 0.70531 0.0
C806 C 0.87023 0.68609 0.79119 0.0
C807 C 0.85337 0.66135 0.81303 0.0
C808 C 0.86671 0.6749 0.8384 0.0
C809 C 0.8968 0.71369 0.84143 0.0
C810 C 0.90021 0.7245 0.79486 0.0
C811 C 0.91333 0.73818 0.81982 0.0
C812 C 0.8682 0.6218 0.69717 0.0
C813 C 0.85642 0.67157 0.76474 0.0
H814 H 0.86082 0.71741 0.56105 0.0
H815 H 0.80118 0.61718 0.51223 0.0
H816 H 0.79343 0.60348 0.59465 0.0
H817 H 0.77672 0.57576 0.5511 0.0
H818 H 0.8304 0.63155 0.81021 0.0
H819 H 0.90727 0.72532 0.86058 0.0
H820 H 0.91352 0.74394 0.77849 0.0
H821 H 0.93639 0.76795 0.82245 0.0
Tb822 Tb 0.382 0.17637 0.65488 0.0
C823 C 0.24265 0.12328 0.7347 0.0
C824 C 0.22254 0.17155 0.73248 0.0
C825 C 0.17346 0.10596 0.74553 0.0
C826 C 0.25193 0.1604 0.72908 0.0
C827 C 0.20368 0.09584 0.74381 0.0
C828 C 0.1829 0.14383 0.73988 0.0
C829 C 0.22905 0.05256 0.75238 0.0
N830 N 0.27301 0.11514 0.73351 0.0
C831 C 0.26727 0.08093 0.74339 0.0
C832 C 0.19689 0.05977 0.75213 0.0
Tb833 Tb 0.33477 0.16303 0.71851 0.0
N834 N 0.29078 0.18633 0.7225 0.0
C835 C 0.3027 0.22467 0.7208 0.0
C836 C 0.23426 0.21043 0.72938 0.0
C837 C 0.27466 0.23717 0.72388 0.0
H838 H 0.29186 0.07497 0.74361 0.0
H839 H 0.28426 0.26745 0.7219 0.0
H840 H 0.15974 0.15171 0.7422 0.0
H841 H 0.22445 0.02517 0.75949 0.0
H842 H 0.33362 0.24596 0.71647 0.0
H843 H 0.43456 0.07361 0.65389 0.0
H844 H 0.21264 0.2202 0.73181 0.0
H845 H 0.42599 0.26651 0.63292 0.0
H846 H 0.38367 0.09397 0.65665 0.0
H847 H 0.49463 0.31779 0.61999 0.0
H848 H 0.14318 0.08518 0.75218 0.0
H849 H 0.50671 0.12203 0.6468 0.0
H850 H 0.55953 0.19111 0.63763 0.0
H851 H 0.1674 0.03788 0.75929 0.0
H852 H 0.57595 0.25777 0.62822 0.0
N853 N 0.42645 0.15377 0.6518 0.0
C854 C 0.41492 0.11555 0.6534 0.0
C855 C 0.48446 0.13121 0.64797 0.0
C856 C 0.49575 0.16999 0.64472 0.0
C857 C 0.44376 0.10379 0.65188 0.0
C858 C 0.4656 0.18037 0.64657 0.0
H859 H 0.55175 0.30518 0.62108 0.0
N860 N 0.44427 0.22559 0.64189 0.0
C861 C 0.48952 0.28979 0.62607 0.0
C862 C 0.47488 0.21769 0.64137 0.0
C863 C 0.45065 0.26064 0.63333 0.0
C864 C 0.52171 0.2826 0.6268 0.0
C865 C 0.5145 0.24597 0.63408 0.0
O866 O 0.36831 0.19146 0.61867 0.0
O867 O 0.33329 0.17454 0.67765 0.0
O868 O 0.29181 0.11404 0.69515 0.0
O869 O 0.33483 0.11559 0.66168 0.0
O870 O 0.35703 0.21485 0.64864 0.0
O871 O 0.36447 0.13639 0.62454 0.0
O872 O 0.35137 0.14906 0.75418 0.0
O873 O 0.38319 0.16423 0.69561 0.0
O874 O 0.42479 0.22264 0.67944 0.0
O875 O 0.3805 0.22439 0.7101 0.0
O876 O 0.3579 0.12313 0.72387 0.0
O877 O 0.35536 0.20399 0.74836 0.0
C878 C 0.32926 0.20043 0.66636 0.0
C879 C 0.38082 0.16361 0.58216 0.0
C880 C 0.37448 0.15865 0.53497 0.0
C881 C 0.35685 0.15359 0.5599 0.0
C882 C 0.41643 0.1738 0.53259 0.0
C883 C 0.42254 0.17813 0.57944 0.0
C884 C 0.44023 0.18327 0.55476 0.0
C885 C 0.29989 0.0985 0.67483 0.0
C886 C 0.36177 0.15959 0.60785 0.0
C887 C 0.54518 0.23636 0.63349 0.0
C888 C 0.53582 0.19841 0.63884 0.0
C889 C 0.38593 0.13725 0.70632 0.0
C890 C 0.33997 0.17725 0.79089 0.0
C891 C 0.36252 0.18146 0.8133 0.0
C892 C 0.34513 0.17745 0.83828 0.0
C893 C 0.30458 0.16851 0.84039 0.0
C894 C 0.2999 0.16911 0.79354 0.0
C895 C 0.28226 0.16451 0.81814 0.0
C896 C 0.41606 0.24054 0.69767 0.0
C897 C 0.35854 0.18105 0.76499 0.0
H898 H 0.32459 0.14242 0.56196 0.0
H899 H 0.43068 0.17772 0.51362 0.0
H900 H 0.44144 0.18554 0.59625 0.0
H901 H 0.47248 0.19459 0.55282 0.0
H902 H 0.39377 0.18855 0.81121 0.0
H903 H 0.29002 0.16449 0.85925 0.0
H904 H 0.28224 0.16642 0.7767 0.0
H905 H 0.25118 0.1579 0.81997 0.0
Tb906 Tb 0.88148 0.17764 0.71941 0.0
C907 C 0.80198 0.23143 0.63926 0.0
C908 C 0.7311 0.18311 0.63927 0.0
C909 C 0.75193 0.24967 0.62857 0.0
C910 C 0.77186 0.19389 0.64332 0.0
C911 C 0.79257 0.25973 0.63135 0.0
C912 C 0.72121 0.21137 0.63249 0.0
C913 C 0.86418 0.3047 0.62717 0.0
N914 N 0.84078 0.23972 0.64171 0.0
C915 C 0.87193 0.27547 0.63476 0.0
C916 C 0.82432 0.29694 0.62574 0.0
Tb917 Tb 0.85066 0.19041 0.65531 0.0
N918 N 0.7828 0.16752 0.64971 0.0
C919 C 0.75427 0.12921 0.65073 0.0
C920 C 0.70169 0.14416 0.64148 0.0
C921 C 0.71343 0.11706 0.64692 0.0
H922 H 0.90287 0.28188 0.6359 0.0
H923 H 0.69099 0.08677 0.64833 0.0
H924 H 0.69003 0.20374 0.62962 0.0
H925 H 0.88896 0.33318 0.62237 0.0
H926 H 0.76245 0.10771 0.65504 0.0
H927 H 0.04302 0.27577 0.71966 0.0
H928 H 0.67004 0.13467 0.63858 0.0
H929 H 0.82717 0.0884 0.7428 0.0
H930 H 0.97162 0.2579 0.71653 0.0
H931 H 0.83889 0.03618 0.7575 0.0
H932 H 0.74401 0.27105 0.62274 0.0
H933 H 0.06142 0.22586 0.7288 0.0
H934 H 0.03869 0.1567 0.74008 0.0
H935 H 0.81839 0.31955 0.61967 0.0
H936 H 0.983 0.09136 0.75067 0.0
N937 N 0.94906 0.19793 0.72303 0.0
C938 C 0.97887 0.23566 0.72061 0.0
C939 C 0.02987 0.21776 0.72741 0.0
C940 C 0.99923 0.1796 0.73152 0.0
C941 C 1.01959 0.24601 0.72234 0.0
C942 C 0.95869 0.17062 0.72933 0.0
H943 H 0.9083 0.04628 0.75769 0.0
N944 N 0.88928 0.12761 0.7341 0.0
C945 C 0.86413 0.06356 0.75118 0.0
C946 C 0.92763 0.1341 0.73521 0.0
C947 C 0.85763 0.09331 0.74288 0.0
C948 C 0.90334 0.06932 0.75119 0.0
C949 C 0.9358 0.10515 0.74352 0.0
O950 O 0.84962 0.16608 0.75502 0.0
O951 O 0.83531 0.17849 0.69595 0.0
O952 O 0.85503 0.23646 0.68027 0.0
O953 O 0.90134 0.23843 0.71025 0.0
O954 O 0.8158 0.13956 0.72569 0.0
O955 O 0.90615 0.21869 0.74917 0.0
O956 O 0.88287 0.20627 0.61962 0.0
O957 O 0.89692 0.18901 0.6785 0.0
O958 O 0.87546 0.13045 0.6957 0.0
O959 O 0.83141 0.12917 0.66403 0.0
O960 O 0.91585 0.23005 0.65016 0.0
O961 O 0.83115 0.14974 0.62527 0.0
C962 C 0.80367 0.15289 0.70726 0.0
C963 C 0.88929 0.19278 0.79203 0.0
C964 C 0.88204 0.19492 0.83923 0.0
C965 C 0.8728 0.20132 0.81385 0.0
C966 C 0.90809 0.17997 0.84244 0.0
C967 C 0.91567 0.17842 0.79571 0.0
C968 C 0.92492 0.17199 0.82078 0.0
C969 C 0.88225 0.25421 0.69854 0.0
C970 C 0.87727 0.19745 0.76572 0.0
C971 C 0.97604 0.1133 0.74458 0.0
C972 C 1.00774 0.15049 0.73855 0.0
C973 C 0.9284 0.21568 0.66765 0.0
C974 C 0.84468 0.17596 0.5825 0.0
C975 C 0.8633 0.17046 0.56044 0.0
C976 C 0.85031 0.17261 0.53517 0.0
C977 C 0.81881 0.18091 0.53244 0.0
C978 C 0.8132 0.1839 0.57918 0.0
C979 C 0.80046 0.18647 0.5543 0.0
C980 C 0.84891 0.11281 0.67715 0.0
C981 C 0.85853 0.17359 0.60877 0.0
H982 H 0.85229 0.21231 0.81108 0.0
H983 H 0.91603 0.1751 0.86172 0.0
H984 H 0.92901 0.17207 0.77928 0.0
H985 H 0.94523 0.1608 0.82344 0.0
H986 H 0.88738 0.16392 0.563 0.0
H987 H 0.80855 0.18347 0.51335 0.0
H988 H 0.79841 0.18809 0.59574 0.0
H989 H 0.77626 0.19282 0.55194 0.0
C990 C 0.37505 0.87662 0.04985 0.0
C991 C 0.34202 0.87962 0.05928 0.0
H992 H 0.43662 0.90677 0.03604 0.0
C993 C 0.34488 0.91596 0.059 0.0
H994 H 0.37386 0.84906 0.04994 0.0
C995 C 0.38046 0.94875 0.0507 0.0
C996 C 0.41406 0.9461 0.04233 0.0
H997 H 0.31981 0.91919 0.06578 0.0
H998 H 0.38217 0.97652 0.05157 0.0
C999 C 0.41094 0.90965 0.04174 0.0
C1000 C 0.16443 0.49756 0.04937 0.0
C1001 C 0.16022 0.46233 0.05809 0.0
H1002 H 0.13411 0.52793 0.03715 0.0
C1003 C 0.1214 0.42946 0.05823 0.0
H1004 H 0.19381 0.52347 0.04923 0.0
C1005 C 0.08751 0.43197 0.05123 0.0
C1006 C 0.0913 0.46729 0.04353 0.0
H1007 H 0.11704 0.4018 0.06458 0.0
H1008 H 0.05796 0.40628 0.05245 0.0
C1009 C 0.13022 0.5001 0.04242 0.0
C1010 C 0.5379 0.67397 0.04625 0.0
C1011 C 0.57334 0.69746 0.06018 0.0
H1012 H 0.50312 0.62116 0.02569 0.0
C1013 C 0.60234 0.68581 0.0625 0.0
H1014 H 0.51479 0.68185 0.04416 0.0
C1015 C 0.59529 0.65083 0.05239 0.0
C1016 C 0.5594 0.62684 0.03923 0.0
H1017 H 0.63058 0.70362 0.07231 0.0
H1018 H 0.61797 0.64249 0.05505 0.0
C1019 C 0.53112 0.6391 0.03574 0.0
C1020 C 0.89961 0.3541 0.96154 0.0
C1021 C 0.87392 0.32286 0.97796 0.0
H1022 H 0.94889 0.41202 0.95854 0.0
C1023 C 0.87817 0.32807 1.00509 0.0
H1024 H 0.89672 0.35187 0.94059 0.0
C1025 C 0.90785 0.36319 0.01538 0.0
C1026 C 0.93425 0.39369 0.99884 0.0
H1027 H 0.85943 0.3047 0.01843 0.0
H1028 H 0.91099 0.36585 0.0362 0.0
C1029 C 0.92957 0.38879 0.97183 0.0
C1030 C 0.70683 0.5899 0.97934 0.0
C1031 C 0.71119 0.55706 0.97973 0.0
H1032 H 0.66788 0.6133 0.98564 0.0
C1033 C 0.67861 0.52219 0.98939 0.0
H1034 H 0.73139 0.61738 0.97247 0.0
C1035 C 0.64192 0.51991 0.99704 0.0
C1036 C 0.63738 0.55264 0.99566 0.0
H1037 H 0.68079 0.49629 0.98987 0.0
H1038 H 0.61675 0.4923 1.00305 0.0
C1039 C 0.67048 0.58765 0.98705 0.0
C1040 C 0.48421 0.12761 0.95931 0.0
C1041 C 0.4794 0.15313 0.97563 0.0
H1042 H 0.49441 0.07996 0.95659 0.0
C1043 C 0.48213 0.14957 1.00274 0.0
H1044 H 0.48335 0.12987 0.93834 0.0
C1045 C 0.48946 0.12132 0.01316 0.0
C1046 C 0.49346 0.09553 0.99682 0.0
H1047 H 0.47787 0.16811 0.01605 0.0
H1048 H 0.49081 0.11908 0.03399 0.0
C1049 C 0.49078 0.09901 0.96978 0.0
C1050 C 0.69098 0.10392 0.99309 0.0
C1051 C 0.69519 0.14029 0.99757 0.0
H1052 H 0.65046 0.04294 0.99088 0.0
C1053 C 0.66026 0.14288 1.00196 0.0
H1054 H 0.71733 0.10107 0.98944 0.0
C1055 C 0.622 0.10957 1.00285 0.0
C1056 C 0.61811 0.07306 0.99975 0.0
H1057 H 0.6627 0.17062 1.0053 0.0
H1058 H 0.59563 0.11239 1.00631 0.0
C1059 C 0.65279 0.07069 0.99399 0.0
C1060 C 0.92801 0.575 0.99244 0.0
C1061 C 0.88936 0.5432 0.9975 0.0
H1062 H 0.9919 0.59633 0.98977 0.0
C1063 C 0.88585 0.50696 1.00191 0.0
H1064 H 0.93175 0.60325 0.98881 0.0
C1065 C 0.92043 0.50306 1.00261 0.0
C1066 C 0.95924 0.53545 0.99928 0.0
H1067 H 0.85646 0.48194 1.00578 0.0
H1068 H 0.91684 0.47493 1.00637 0.0
C1069 C 0.96247 0.57109 0.99313 0.0
C1070 C 0.51927 0.35349 1.01064 0.0
C1071 C 0.48312 0.32864 0.99814 0.0
H1072 H 0.55941 0.41073 0.02316 0.0
C1073 C 0.46018 0.34364 0.98726 0.0
H1074 H 0.53779 0.34264 0.01872 0.0
C1075 C 0.47226 0.38263 0.98998 0.0
C1076 C 0.50759 0.40724 1.00353 0.0
H1077 H 0.43251 0.32503 0.9771 0.0
H1078 H 0.45342 0.39319 0.98205 0.0
C1079 C 0.53145 0.3924 0.01324 0.0
C1080 C 0.13222 0.67764 0.0511 0.0
C1081 C 0.17143 0.69283 0.0405 0.0
H1082 H 0.07358 0.62772 0.05664 0.0
C1083 C 0.18245 0.66769 0.02906 0.0
H1084 H 0.12309 0.6964 0.06028 0.0
C1085 C 0.15429 0.62842 0.02714 0.0
C1086 C 0.11433 0.6134 0.03642 0.0
H1087 H 0.21261 0.67864 0.02102 0.0
H1088 H 0.16373 0.60995 0.01789 0.0
C1089 C 0.10391 0.6383 0.04907 0.0
C1090 C 0.35889 0.44069 0.04561 0.0
C1091 C 0.35239 0.47185 0.04123 0.0
H1092 H 0.40196 0.42128 0.04811 0.0
C1093 C 0.38628 0.5087 0.03711 0.0
H1094 H 0.33353 0.41194 0.04887 0.0
C1095 C 0.42558 0.51398 0.03649 0.0
C1096 C 0.43174 0.48238 0.03953 0.0
H1097 H 0.38225 0.53324 0.03365 0.0
H1098 H 0.451 0.54265 0.03329 0.0
C1099 C 0.39806 0.44598 0.045 0.0
C1100 C 0.53682 0.86189 0.02965 0.0
C1101 C 0.57325 0.87264 0.04226 0.0
H1102 H 0.49487 0.87887 0.01703 0.0
C1103 C 0.59503 0.90959 0.05294 0.0
H1104 H 0.5192 0.8333 0.02168 0.0
C1105 C 0.58143 0.93595 0.05005 0.0
C1106 C 0.54574 0.92573 0.03649 0.0
H1107 H 0.62293 0.9183 0.06313 0.0
H1108 H 0.59939 0.96452 0.05789 0.0
C1109 C 0.52308 0.88808 0.02692 0.0
C1110 C 1.01288 0.24995 0.39409 0.0
C1111 C 1.00929 0.2133 0.3936 0.0
H1112 H 0.0507 0.31055 0.38708 0.0
C1113 C 0.04166 0.20997 0.3832 0.0
H1114 H 0.98835 0.25353 0.40152 0.0
C1115 C 0.07757 0.24287 0.37485 0.0
C1116 C 0.08142 0.27959 0.37627 0.0
H1117 H 0.03996 0.1822 0.38263 0.0
H1118 H 0.10272 0.23969 0.36827 0.0
C1119 C 0.04848 0.2826 0.38563 0.0
C1120 C 0.78649 0.76236 0.38927 0.0
C1121 C 0.82518 0.79527 0.39048 0.0
H1122 H 0.72339 0.73946 0.38237 0.0
C1123 C 0.82974 0.83095 0.38253 0.0
H1124 H 0.78188 0.73434 0.39492 0.0
C1125 C 0.79586 0.83382 0.37518 0.0
C1126 C 0.75696 0.80094 0.37525 0.0
H1127 H 0.85902 0.85689 0.38339 0.0
H1128 H 0.79987 0.8619 0.37056 0.0
C1129 C 0.75293 0.76522 0.38201 0.0
C1130 C 0.23473 0.02455 0.36923 0.0
C1131 C 0.23415 0.02876 0.39641 0.0
H1132 H 0.22936 0.98757 0.33773 0.0
C1133 C 0.22502 0.99689 0.41254 0.0
H1134 H 0.24213 0.04858 0.3562 0.0
C1135 C 0.21832 0.96232 0.4019 0.0
C1136 C 0.21984 0.95844 0.37486 0.0
H1137 H 0.22322 0.99864 0.4335 0.0
H1138 H 0.21177 0.93847 0.41491 0.0
C1139 C 0.22741 0.98959 0.35857 0.0
C1140 C 0.56635 0.68806 0.29343 0.0
C1141 C 0.5406 0.65677 0.30982 0.0
H1142 H 0.61542 0.74609 0.29048 0.0
C1143 C 0.54451 0.66212 0.33695 0.0
H1144 H 0.56371 0.68577 0.27248 0.0
C1145 C 0.57391 0.69737 0.34727 0.0
C1146 C 0.60041 0.72791 0.33079 0.0
H1147 H 0.52573 0.63876 0.35028 0.0
H1148 H 0.57676 0.70011 0.3681 0.0
C1149 C 0.59604 0.72288 0.30376 0.0
C1150 C 0.37182 0.92347 0.31347 0.0
C1151 C 0.37602 0.89053 0.31397 0.0
H1152 H 0.33307 0.94714 0.31969 0.0
C1153 C 0.34335 0.85579 0.32369 0.0
H1154 H 0.39644 0.95085 0.30651 0.0
C1155 C 0.30675 0.8537 0.33129 0.0
C1156 C 0.30237 0.88652 0.32987 0.0
H1157 H 0.3454 0.82981 0.32422 0.0
H1158 H 0.28153 0.82614 0.3373 0.0
C1159 C 0.33555 0.92143 0.32117 0.0
C1160 C 0.15437 0.46332 0.29374 0.0
C1161 C 0.14832 0.48796 0.31017 0.0
H1162 H 0.16521 0.41611 0.29084 0.0
C1163 C 0.14967 0.48346 0.33732 0.0
H1164 H 0.1546 0.4664 0.27277 0.0
C1165 C 0.15663 0.45493 0.34766 0.0
C1166 C 0.16175 0.42995 0.33115 0.0
H1167 H 0.14449 0.5014 0.35066 0.0
H1168 H 0.15669 0.45171 0.36851 0.0
C1169 C 0.16065 0.43453 0.3041 0.0
C1170 C 0.32741 0.47602 0.33426 0.0
C1171 C 0.3621 0.47333 0.32906 0.0
H1172 H 0.26291 0.44573 0.33943 0.0
C1173 C 0.35749 0.43694 0.32396 0.0
H1174 H 0.33013 0.50376 0.33808 0.0
C1175 C 0.31922 0.4038 0.32507 0.0
C1176 C 0.28481 0.40624 0.33167 0.0
H1177 H 0.38362 0.43401 0.31967 0.0
H1178 H 0.31661 0.37606 0.32146 0.0
C1179 C 0.28906 0.4428 0.33535 0.0
C1180 C 0.55128 0.84079 0.33546 0.0
C1181 C 0.55452 0.87697 0.33132 0.0
H1182 H 0.58262 0.80901 0.33943 0.0
C1183 C 0.59306 0.90896 0.32627 0.0
H1184 H 0.522 0.81564 0.33935 0.0
C1185 C 0.62766 0.90526 0.32667 0.0
C1186 C 0.62471 0.86965 0.33253 0.0
H1187 H 0.5966 0.93718 0.32287 0.0
H1188 H 0.65699 0.93063 0.32332 0.0
C1189 C 0.58601 0.83711 0.33587 0.0
C1190 C 0.12667 0.677 0.32197 0.0
C1191 C 0.15022 0.66257 0.33271 0.0
H1192 H 0.1191 0.72606 0.31668 0.0
C1193 C 0.18655 0.6879 0.34485 0.0
H1194 H 0.09885 0.65801 0.31209 0.0
C1195 C 0.19836 0.72674 0.34721 0.0
C1196 C 0.17392 0.74101 0.33765 0.0
H1197 H 0.20552 0.67747 0.35279 0.0
H1198 H 0.2265 0.74548 0.35683 0.0
C1199 C 0.13838 0.71593 0.32448 0.0
C1200 C 0.84857 1.00173 0.36296 0.0
C1201 C 0.83758 0.02676 0.37462 0.0
H1202 H 0.82975 0.94417 0.35127 0.0
C1203 C 0.79825 0.01146 0.38508 0.0
H1204 H 0.87878 0.01274 0.35499 0.0
C1205 C 0.76986 0.97218 0.3827 0.0
C1206 C 0.78026 0.94743 0.36983 0.0
H1207 H 0.7891 0.03011 0.3944 0.0
H1208 H 0.73947 0.96155 0.39017 0.0
C1209 C 0.82032 0.96252 0.36069 0.0
C1210 C 0.05192 0.84323 0.37155 0.0
C1211 C 1.01793 0.80673 0.37657 0.0
H1212 H 0.11655 0.87638 0.36642 0.0
C1213 C 0.02417 0.77559 0.38165 0.0
H1214 H 0.04808 0.86776 0.36759 0.0
C1215 C 0.06312 0.78039 0.38059 0.0
C1216 C 0.09683 0.8163 0.37405 0.0
H1217 H 0.99872 0.74715 0.3857 0.0
H1218 H 0.06677 0.75564 0.38411 0.0
C1219 C 0.09103 0.84803 0.37049 0.0
C1220 C 0.25871 0.24043 0.38711 0.0
C1221 C 0.23973 0.20498 0.37429 0.0
H1222 H 0.26102 0.29415 0.39343 0.0
C1223 C 0.20586 0.19545 0.35902 0.0
H1224 H 0.28433 0.24796 0.3995 0.0
C1225 C 0.1922 0.22163 0.35572 0.0
C1226 C 0.2123 0.25798 0.3675 0.0
H1227 H 0.19017 0.16783 0.34949 0.0
H1228 H 0.16595 0.21334 0.34384 0.0
C1229 C 0.24522 0.26677 0.38368 0.0
C1230 C 0.70911 0.5436 0.71627 0.0
C1231 C 0.67621 0.54686 0.72566 0.0
H1232 H 0.77083 0.57345 0.70265 0.0
C1233 C 0.67949 0.58338 0.72554 0.0
H1234 H 0.7076 0.51589 0.71624 0.0
C1235 C 0.71533 0.61606 0.71748 0.0
C1236 C 0.74877 0.61313 0.70915 0.0
H1237 H 0.65454 0.58683 0.73228 0.0
H1238 H 0.71734 0.64396 0.71846 0.0
C1239 C 0.74527 0.57652 0.70836 0.0
C1240 C 0.49591 0.16399 0.71673 0.0
C1241 C 0.49105 0.1282 0.7247 0.0
H1242 H 0.46646 0.19537 0.70484 0.0
C1243 C 0.45213 0.09554 0.72376 0.0
H1244 H 0.52535 0.18975 0.7174 0.0
C1245 C 0.41871 0.09875 0.71665 0.0
C1246 C 0.4231 0.13456 0.70974 0.0
H1247 H 0.44726 0.06744 0.72944 0.0
H1248 H 0.38903 0.07316 0.71715 0.0
C1249 C 0.46217 0.1672 0.70953 0.0
C1250 C 0.93464 0.35177 0.73017 0.0
C1251 C 0.906 0.36384 0.72773 0.0
H1252 H 0.94959 0.30794 0.72294 0.0
C1253 C 0.87052 0.34058 0.71377 0.0
H1254 H 0.96291 0.36939 0.74 0.0
C1255 C 0.86332 0.30551 0.70337 0.0
C1256 C 0.89122 0.29282 0.70701 0.0
H1257 H 0.84768 0.3488 0.71158 0.0
H1258 H 0.83529 0.28775 0.69331 0.0
C1259 C 0.92718 0.31659 0.72017 0.0
C1260 C 0.23309 0.02105 0.62765 0.0
C1261 C 0.20802 0.98974 0.64422 0.0
H1262 H 0.28159 0.07936 0.62437 0.0
C1263 C 0.2126 0.99519 0.67131 0.0
H1264 H 0.22994 0.01864 0.60672 0.0
C1265 C 0.24193 0.03061 0.68143 0.0
C1266 C 0.26766 0.06123 0.66474 0.0
H1267 H 0.19439 0.97178 0.68477 0.0
H1268 H 0.24537 0.03344 0.70223 0.0
C1269 C 0.26272 0.05607 0.63776 0.0
C1270 C 0.03784 0.25558 0.64814 0.0
C1271 C 0.04213 0.2227 0.64797 0.0
H1272 H 0.99883 0.27882 0.6548 0.0
C1273 C 1.00953 0.18761 0.65734 0.0
H1274 H 0.06241 0.28319 0.64148 0.0
C1275 C 0.97279 0.18516 0.66509 0.0
C1276 C 0.96825 0.21791 0.66407 0.0
H1277 H 1.01169 0.16169 0.65737 0.0
H1278 H 0.94755 0.15742 0.67081 0.0
C1279 C 1.00144 0.25315 0.6559 0.0
C1280 C 0.84761 0.82925 0.65848 0.0
C1281 C 0.81259 0.81958 0.64414 0.0
H1282 H 0.88174 0.80897 0.6794 0.0
C1283 C 0.78416 0.78035 0.64079 0.0
H1284 H 0.87051 0.85904 0.66124 0.0
C1285 C 0.79111 0.75171 0.65073 0.0
C1286 C 0.82629 0.76147 0.66471 0.0
H1287 H 0.7563 0.77158 0.63056 0.0
H1288 H 0.76878 0.72185 0.64746 0.0
C1289 C 0.8542 0.80052 0.66884 0.0
C1290 C 0.99593 0.80902 0.66827 0.0
C1291 C 0.03058 0.80578 0.66443 0.0
H1292 H 0.9313 0.77951 0.67177 0.0
C1293 C 0.02582 0.76904 0.66065 0.0
H1294 H 0.99878 0.83701 0.67113 0.0
C1295 C 0.98733 0.73616 0.6614 0.0
C1296 C 0.95287 0.73925 0.66639 0.0
H1297 H 0.05194 0.76566 0.65751 0.0
H1298 H 0.98453 0.70816 0.65864 0.0
C1299 C 0.9574 0.77608 0.669 0.0
C1300 C 0.21841 0.17439 0.6669 0.0
C1301 C 0.22179 0.21054 0.66234 0.0
H1302 H 0.2496 0.14258 0.67171 0.0
C1303 C 0.26042 0.24241 0.65732 0.0
H1304 H 0.18906 0.14933 0.67079 0.0
C1305 C 0.29497 0.23865 0.6582 0.0
C1306 C 0.29187 0.20311 0.66453 0.0
H1307 H 0.26409 0.27061 0.65362 0.0
H1308 H 0.32437 0.26395 0.6549 0.0
C1309 C 0.2531 0.17065 0.6678 0.0
C1310 C 0.84785 0.018 0.67941 0.0
C1311 C 0.8118 0.99345 0.66671 0.0
H1312 H 0.88847 0.07513 0.6919 0.0
C1313 C 0.7892 0.00879 0.65579 0.0
H1314 H 0.86607 0.00687 0.68758 0.0
C1315 C 0.80169 0.04788 0.65849 0.0
C1316 C 0.83709 0.07225 0.67206 0.0
H1317 H 0.76156 0.99042 0.64553 0.0
H1318 H 0.78317 0.05872 0.65045 0.0
C1319 C 0.86048 0.05701 0.68195 0.0
C1320 C 0.46468 0.34579 0.71669 0.0
C1321 C 0.50428 0.3606 0.70683 0.0
H1322 H 0.40566 0.29619 0.72167 0.0
C1323 C 0.51544 0.3351 0.69616 0.0
H1324 H 0.4554 0.36483 0.72524 0.0
C1325 C 0.48715 0.29586 0.6943 0.0
C1326 C 0.44688 0.28123 0.70284 0.0
H1327 H 0.54585 0.34574 0.68867 0.0
H1328 H 0.49671 0.27711 0.68564 0.0
C1329 C 0.43624 0.30647 0.71472 0.0
C1330 C 0.71764 0.17553 0.70536 0.0
C1331 C 0.68361 0.13887 0.70982 0.0
H1332 H 0.78235 0.209 0.70109 0.0
C1333 C 0.68985 0.10762 0.71445 0.0
H1334 H 0.71381 0.20015 0.70175 0.0
C1335 C 0.72887 0.11256 0.71366 0.0
C1336 C 0.76268 0.14873 0.70781 0.0
H1337 H 0.66437 0.07903 0.71803 0.0
H1338 H 0.73256 0.08778 0.71695 0.0
C1339 C 0.75681 0.18047 0.70457 0.0
C1340 C 0.9296 0.57682 0.72004 0.0
C1341 C 0.90821 0.53997 0.70917 0.0
H1342 H 0.93375 0.63167 0.72489 0.0
C1343 C 0.87227 0.52937 0.69598 0.0
H1344 H 0.95712 0.58541 0.73067 0.0
C1345 C 0.85863 0.55559 0.6929 0.0
C1346 C 0.88088 0.59312 0.70274 0.0
H1347 H 0.85494 0.50086 0.68784 0.0
H1348 H 0.83077 0.54645 0.6826 0.0
C1349 C 0.9161 0.6032 0.71682 0.0
C1350 C 0.52312 0.96124 0.23886 0.0
C1351 C 0.48123 0.93663 0.24217 0.0
H1352 H 0.57146 1.00157 0.21419 0.0
C1353 C 0.45577 0.93356 0.22154 0.0
H1354 H 0.54369 0.96464 0.25432 0.0
C1355 C 0.47176 0.95512 0.19847 0.0
C1356 C 0.51359 0.98046 0.19552 0.0
H1357 H 0.4234 0.91452 0.22324 0.0
H1358 H 0.45125 0.95274 0.18325 0.0
C1359 C 0.53904 0.98278 0.2159 0.0
C1360 C 0.08985 0.51122 0.22053 0.0
C1361 C 0.08549 0.53117 0.24159 0.0
H1362 H 0.07077 0.48895 0.18226 0.0
C1363 C 0.05759 0.54418 0.23971 0.0
H1364 H 0.11133 0.50109 0.22126 0.0
C1365 C 0.0349 0.53778 0.21729 0.0
C1366 C 0.03923 0.51792 0.19619 0.0
H1367 H 0.05304 0.55919 0.25568 0.0
H1368 H 1.01423 0.54883 0.21642 0.0
C1369 C 0.06698 0.50468 0.19806 0.0
C1370 C 0.52284 0.58481 0.21864 0.0
C1371 C 0.50671 0.55888 0.23983 0.0
H1372 H 0.54895 0.59564 0.18021 0.0
C1373 C 0.50331 0.52245 0.23776 0.0
H1374 H 0.52553 0.61298 0.21963 0.0
C1375 C 0.51701 0.51266 0.21529 0.0
C1376 C 0.5338 0.53887 0.19427 0.0
H1377 H 0.49115 0.50197 0.25382 0.0
H1378 H 0.51471 0.48465 0.21439 0.0
C1379 C 0.53596 0.5748 0.19602 0.0
C1380 C 0.95296 0.4319 0.822 0.0
C1381 C 0.96413 0.45749 0.80068 0.0
H1382 H 0.96735 0.4222 0.86053 0.0
C1383 C 0.99873 0.49411 0.80233 0.0
H1384 H 0.92631 0.40356 0.82122 0.0
C1385 C 1.02236 0.50458 0.82463 0.0
C1386 C 1.01148 0.47884 0.84583 0.0
H1387 H 1.00813 0.51424 0.78607 0.0
H1388 H 0.04922 0.53279 0.82529 0.0
C1389 C 0.97626 0.44261 0.84448 0.0
C1390 C 0.52877 0.4739 0.7999 0.0
C1391 C 0.57087 0.49025 0.79715 0.0
H1392 H 0.47919 0.46572 0.82411 0.0
C1393 C 0.59551 0.51133 0.81799 0.0
H1394 H 0.50886 0.45784 0.78419 0.0
C1395 C 0.57842 0.5162 0.8409 0.0
C1396 C 0.53633 0.50029 0.84342 0.0
H1397 H 0.62802 0.52397 0.81662 0.0
H1398 H 0.59824 0.53312 0.8564 0.0
C1399 C 0.51175 0.4788 0.82272 0.0
C1400 C 0.49678 0.04021 0.79919 0.0
C1401 C 0.53512 0.07336 0.79649 0.0
H1402 H 0.45547 0.99306 0.82334 0.0
C1403 C 0.56217 0.08341 0.8173 0.0
H1404 H 0.47528 0.03117 0.78352 0.0
C1405 C 0.55091 0.06096 0.84026 0.0
C1406 C 0.51243 0.02784 0.84286 0.0
H1407 H 0.59183 0.1089 0.81599 0.0
H1408 H 0.57253 0.06926 0.8558 0.0
C1409 C 0.48555 0.01798 0.82201 0.0
C1410 C 0.14753 0.30719 0.57203 0.0
C1411 C 0.1445 0.27094 0.57487 0.0
H1412 H 0.16584 0.35699 0.54772 0.0
C1413 C 0.15684 0.25653 0.55394 0.0
H1414 H 0.13853 0.31923 0.58781 0.0
C1415 C 0.17216 0.27808 0.5308 0.0
C1416 C 0.17611 0.31476 0.5283 0.0
H1417 H 0.15457 0.22855 0.55547 0.0
H1418 H 0.182 0.26655 0.51515 0.0
C1419 C 0.16334 0.3289 0.54911 0.0
C1420 C 0.7264 0.87795 0.57208 0.0
C1421 C 0.75508 0.86585 0.57379 0.0
H1422 H 0.68217 0.88149 0.54905 0.0
C1423 C 0.7603 0.8468 0.55249 0.0
H1424 H 0.7211 0.89219 0.58822 0.0
C1425 C 0.73726 0.83998 0.53005 0.0
C1426 C 0.70849 0.85202 0.52846 0.0
H1427 H 0.78237 0.83739 0.55308 0.0
H1428 H 0.74157 0.82477 0.51411 0.0
C1429 C 0.70359 0.8713 0.54971 0.0
C1430 C 0.16975 0.855 0.5724 0.0
C1431 C 0.1731 0.8914 0.57443 0.0
H1432 H 0.18073 0.81701 0.54893 0.0
C1433 C 0.18868 0.91711 0.55309 0.0
H1434 H 0.15801 0.83469 0.58857 0.0
C1435 C 0.20133 0.9069 0.53036 0.0
C1436 C 0.19921 0.87099 0.52864 0.0
H1437 H 0.1913 0.94526 0.55406 0.0
H1438 H 0.21391 0.92757 0.51442 0.0
C1439 C 0.18297 0.845 0.54981 0.0
C1440 C 0.6651 0.82834 0.13462 0.0
C1441 C 0.63095 0.79141 0.13304 0.0
H1442 H 0.71523 0.86779 0.15752 0.0
C1443 C 0.62032 0.76594 0.1544 0.0
H1444 H 0.67409 0.84839 0.11833 0.0
C1445 C 0.64366 0.77713 0.17686 0.0
C1446 C 0.67838 0.81374 0.17816 0.0
H1447 H 0.59403 0.73736 0.15367 0.0
H1448 H 0.63514 0.75684 0.19296 0.0
C1449 C 0.68876 0.83931 0.1569 0.0
C1450 C 0.19497 0.80549 0.13392 0.0
C1451 C 0.23712 0.82242 0.13107 0.0
H1452 H 0.14523 0.7966 0.15821 0.0
C1453 C 0.26169 0.84385 0.15184 0.0
H1454 H 0.1751 0.78915 0.11827 0.0
C1455 C 0.24447 0.84849 0.17478 0.0
C1456 C 0.20231 0.832 0.17739 0.0
H1457 H 0.29425 0.85694 0.1504 0.0
H1458 H 0.26421 0.86569 0.19023 0.0
C1459 C 0.17783 0.81015 0.15675 0.0
C1460 C 0.19345 0.4244 0.15188 0.0
C1461 C 0.21067 0.4151 0.1308 0.0
H1462 H 0.1679 0.40945 0.19049 0.0
C1463 C 0.21735 0.38384 0.13347 0.0
H1464 H 0.18816 0.44848 0.15039 0.0
C1465 C 0.20534 0.36128 0.15628 0.0
C1466 C 0.18705 0.3699 0.17707 0.0
H1467 H 0.23036 0.3759 0.11753 0.0
H1468 H 0.20973 0.33663 0.1575 0.0
C1469 C 0.18209 0.40224 0.17486 0.0
C1470 C 0.79173 0.60174 0.8876 0.0
C1471 C 0.81709 0.60477 0.90827 0.0
H1472 H 0.78731 0.6212 0.8494 0.0
C1473 C 0.85896 0.6297 0.90515 0.0
H1474 H 0.75939 0.58246 0.88916 0.0
C1475 C 0.87494 0.65159 0.88231 0.0
C1476 C 0.84957 0.64924 0.86186 0.0
H1477 H 0.87944 0.63307 0.92065 0.0
H1478 H 0.90733 0.67062 0.88073 0.0
C1479 C 0.80778 0.62361 0.86466 0.0
C1480 C 0.41956 0.17601 0.88632 0.0
C1481 C 0.41549 0.19599 0.90747 0.0
H1482 H 0.40038 0.15417 0.84798 0.0
C1483 C 0.38774 0.20921 0.90576 0.0
H1484 H 0.4409 0.16571 0.88693 0.0
C1485 C 0.36507 0.20316 0.88337 0.0
C1486 C 0.36928 0.18345 0.86212 0.0
H1487 H 0.3834 0.22423 0.92181 0.0
H1488 H 0.34462 0.21447 0.8826 0.0
C1489 C 0.39672 0.16983 0.86388 0.0
C1490 C 0.8548 0.25064 0.88679 0.0
C1491 C 0.83873 0.22479 0.90803 0.0
H1492 H 0.88066 0.26127 0.8483 0.0
C1493 C 0.83513 0.18828 0.90598 0.0
H1494 H 0.85764 0.27888 0.88778 0.0
C1495 C 0.84861 0.17834 0.88348 0.0
C1496 C 0.86535 0.20447 0.86242 0.0
H1497 H 0.82302 0.16787 0.92208 0.0
H1498 H 0.84618 0.15026 0.88259 0.0
C1499 C 0.8677 0.24048 0.86415 0.0
C1500 C 0.33675 0.1627 0.46774 0.0
C1501 C 0.30201 0.12617 0.46623 0.0
H1502 H 0.38716 0.20151 0.49075 0.0
C1503 C 0.29076 0.10073 0.48765 0.0
H1504 H 0.34616 0.18272 0.45143 0.0
C1505 C 0.31394 0.11156 0.51015 0.0
C1506 C 0.34913 0.1478 0.51149 0.0
H1507 H 0.26395 0.07248 0.48699 0.0
H1508 H 0.30482 0.0913 0.52631 0.0
C1509 C 0.3603 0.17331 0.49011 0.0
C1510 C 0.92846 0.17733 0.48629 0.0
C1511 C 0.90402 0.15633 0.46536 0.0
H1512 H 0.93081 0.19889 0.52476 0.0
C1513 C 0.86189 0.13991 0.46799 0.0
H1514 H 0.96099 0.19004 0.48502 0.0
C1515 C 0.84466 0.14467 0.49076 0.0
C1516 C 0.86902 0.16608 0.51157 0.0
H1517 H 0.84212 0.12391 0.45222 0.0
H1518 H 0.81209 0.13155 0.49203 0.0
C1519 C 0.91115 0.18204 0.50918 0.0
C1520 C 0.89538 0.75102 0.48397 0.0
C1521 C 0.86852 0.74109 0.46306 0.0
H1522 H 0.90528 0.73684 0.52259 0.0
C1523 C 0.83002 0.70812 0.46571 0.0
H1524 H 0.92515 0.77637 0.48271 0.0
C1525 C 0.81844 0.68602 0.48859 0.0
C1526 C 0.84512 0.69573 0.50954 0.0
H1527 H 0.80865 0.69913 0.44997 0.0
H1528 H 0.78822 0.66129 0.48987 0.0
C1529 C 0.88378 0.72864 0.50697 0.0
loop_
_geom_bond_atom_site_label_1
_geom_bond_atom_site_label_2
_geom_bond_distance
_geom_bond_site_symmetry_2
_ccdc_geom_bond_type
H0 C7 0.929 . S
H1 C10 0.930 . S
H2 C12 0.929 . S
H3 C4 0.969 . S
C4 H3 0.969 . S
C4 O5 1.550 . S
C4 H6 0.973 . S
O5 C4 1.550 . S
O5 C11 1.412 . S
H6 C4 0.973 . S
C7 H0 0.929 . S
C7 C8 1.400 . S
C7 C9 1.364 . S
C8 C7 1.400 . S
C8 C12 1.377 . S
C9 C7 1.364 . S
C9 C10 1.374 . S
C10 H1 0.930 . S
C10 C9 1.374 . S
C10 C11 1.383 . S
C11 O5 1.412 . S
C11 C10 1.383 . S
C11 C12 1.394 . S
C12 H2 0.929 . S
C12 C8 1.377 . S
C12 C11 1.394 . S
H13 C20 0.929 . S
H14 C23 0.930 . S
H15 C25 0.929 . S
H16 C17 0.969 . S
C17 H16 0.969 . S
C17 O18 1.550 . S
C17 H19 0.973 . S
O18 C17 1.550 . S
O18 C24 1.412 . S
H19 C17 0.973 . S
C20 H13 0.929 . S
C20 C21 1.400 . S
C20 C22 1.364 . S
C21 C20 1.400 . S
C21 C25 1.377 . S
C22 C20 1.364 . S
C22 C23 1.374 . S
C23 H14 0.930 . S
C23 C22 1.374 . S
C23 C24 1.383 . S
C24 O18 1.412 . S
C24 C23 1.383 . S
C24 C25 1.394 . S
C25 H15 0.929 . S
C25 C21 1.377 . S
C25 C24 1.394 . S
H26 C33 0.929 . S
H27 C36 0.930 . S
H28 C38 0.929 . S
H29 C30 0.969 . S
C30 H29 0.969 . S
C30 O31 1.550 . S
C30 H32 0.973 . S
O31 C30 1.550 . S
O31 C37 1.412 . S
H32 C30 0.973 . S
C33 H26 0.929 . S
C33 C34 1.400 . S
C33 C35 1.364 . S
C34 C33 1.400 . S
C34 C38 1.377 . S
C35 C33 1.364 . S
C35 C36 1.374 . S
C36 H27 0.930 . S
C36 C35 1.374 . S
C36 C37 1.383 . S
C37 O31 1.412 . S
C37 C36 1.383 . S
C37 C38 1.394 . S
C38 H28 0.929 . S
C38 C34 1.377 . S
C38 C37 1.394 . S
H39 C46 0.929 . S
H40 C49 0.930 . S
H41 C51 0.929 . S
H42 C43 0.969 . S
C43 H42 0.969 . S
C43 O44 1.550 . S
C43 H45 0.973 . S
O44 C43 1.550 . S
O44 C50 1.412 . S
H45 C43 0.973 . S
C46 H39 0.929 . S
C46 C47 1.400 . S
C46 C48 1.364 . S
C47 C46 1.400 . S
C47 C51 1.377 . S
C48 C46 1.364 . S
C48 C49 1.374 . S
C49 H40 0.930 . S
C49 C48 1.374 . S
C49 C50 1.383 . S
C50 O44 1.412 . S
C50 C49 1.383 . S
C50 C51 1.394 . S
C51 H41 0.929 . S
C51 C47 1.377 . S
C51 C50 1.394 . S
H52 C59 0.929 . S
H53 C62 0.930 . S
H54 C64 0.929 . S
H55 C56 0.969 . S
C56 H55 0.969 . S
C56 O57 1.550 . S
C56 H58 0.973 . S
O57 C56 1.550 . S
O57 C63 1.412 . S
H58 C56 0.973 . S
C59 H52 0.929 . S
C59 C60 1.400 . S
C59 C61 1.364 . S
C60 C59 1.400 . S
C60 C64 1.377 . S
C61 C59 1.364 . S
C61 C62 1.374 . S
C62 H53 0.930 . S
C62 C61 1.374 . S
C62 C63 1.383 . S
C63 O57 1.412 . S
C63 C62 1.383 . S
C63 C64 1.394 . S
C64 H54 0.929 . S
C64 C60 1.377 . S
C64 C63 1.394 . S
H65 C72 0.929 . S
H66 C75 0.930 . S
H67 C77 0.929 . S
H68 C69 0.969 . S
C69 H68 0.969 . S
C69 O70 1.550 . S
C69 H71 0.973 . S
O70 C69 1.550 . S
O70 C76 1.412 . S
H71 C69 0.973 . S
C72 H65 0.929 . S
C72 C73 1.400 . S
C72 C74 1.364 . S
C73 C72 1.400 . S
C73 C77 1.377 . S
C74 C72 1.364 . S
C74 C75 1.374 . S
C75 H66 0.930 . S
C75 C74 1.374 . S
C75 C76 1.383 . S
C76 O70 1.412 . S
C76 C75 1.383 . S
C76 C77 1.394 . S
C77 H67 0.929 . S
C77 C73 1.377 . S
C77 C76 1.394 . S
H78 C85 0.929 . S
H79 C88 0.930 . S
H80 C90 0.929 . S
H81 C82 0.969 . S
C82 H81 0.969 . S
C82 O83 1.550 . S
C82 H84 0.973 . S
O83 C82 1.550 . S
O83 C89 1.412 . S
H84 C82 0.973 . S
C85 H78 0.929 . S
C85 C86 1.400 . S
C85 C87 1.364 . S
C86 C85 1.400 . S
C86 C90 1.377 . S
C87 C85 1.364 . S
C87 C88 1.374 . S
C88 H79 0.930 . S
C88 C87 1.374 . S
C88 C89 1.383 . S
C89 O83 1.412 . S
C89 C88 1.383 . S
C89 C90 1.394 . S
C90 H80 0.929 . S
C90 C86 1.377 . S
C90 C89 1.394 . S
H91 C98 0.929 . S
H92 C101 0.930 . S
H93 C103 0.929 . S
H94 C95 0.969 . S
C95 H94 0.969 . S
C95 O96 1.550 . S
C95 H97 0.973 . S
O96 C95 1.550 . S
O96 C102 1.412 . S
H97 C95 0.973 . S
C98 H91 0.929 . S
C98 C99 1.400 . S
C98 C100 1.364 . S
C99 C98 1.400 . S
C99 C103 1.377 . S
C100 C98 1.364 . S
C100 C101 1.374 . S
C101 H92 0.930 . S
C101 C100 1.374 . S
C101 C102 1.383 . S
C102 O96 1.412 . S
C102 C101 1.383 . S
C102 C103 1.394 . S
C103 H93 0.929 . S
C103 C99 1.377 . S
C103 C102 1.394 . S
H104 C111 0.929 . S
H105 C114 0.930 . S
H106 C116 0.929 . S
H107 C108 0.969 . S
C108 H107 0.969 . S
C108 O109 1.550 . S
C108 H110 0.973 . S
O109 C108 1.550 . S
O109 C115 1.412 . S
H110 C108 0.973 . S
C111 H104 0.929 . S
C111 C112 1.400 . S
C111 C113 1.364 . S
C112 C111 1.400 . S
C112 C116 1.377 . S
C113 C111 1.364 . S
C113 C114 1.374 . S
C114 H105 0.930 . S
C114 C113 1.374 . S
C114 C115 1.383 . S
C115 O109 1.412 . S
C115 C114 1.383 . S
C115 C116 1.394 . S
C116 H106 0.929 . S
C116 C112 1.377 . S
C116 C115 1.394 . S
H117 C124 0.929 . S
H118 C127 0.930 . S
H119 C129 0.929 . S
H120 C121 0.969 . S
C121 H120 0.969 . S
C121 O122 1.550 . S
C121 H123 0.973 . S
O122 C121 1.550 . S
O122 C128 1.412 . S
H123 C121 0.973 . S
C124 H117 0.929 . S
C124 C125 1.400 . S
C124 C126 1.364 . S
C125 C124 1.400 . S
C125 C129 1.377 . S
C126 C124 1.364 . S
C126 C127 1.374 . S
C127 H118 0.930 . S
C127 C126 1.374 . S
C127 C128 1.383 . S
C128 O122 1.412 . S
C128 C127 1.383 . S
C128 C129 1.394 . S
C129 H119 0.929 . S
C129 C125 1.377 . S
C129 C128 1.394 . S
H130 C137 0.929 . S
H131 C140 0.930 . S
H132 C142 0.929 . S
H133 C134 0.969 . S
C134 H133 0.969 . S
C134 O135 1.550 . S
C134 H136 0.973 . S
O135 C134 1.550 . S
O135 C141 1.412 . S
H136 C134 0.973 . S
C137 H130 0.929 . S
C137 C138 1.400 . S
C137 C139 1.364 . S
C138 C137 1.400 . S
C138 C142 1.377 . S
C139 C137 1.364 . S
C139 C140 1.374 . S
C140 H131 0.930 . S
C140 C139 1.374 . S
C140 C141 1.383 . S
C141 O135 1.412 . S
C141 C140 1.383 . S
C141 C142 1.394 . S
C142 H132 0.929 . S
C142 C138 1.377 . S
C142 C141 1.394 . S
H143 C150 0.929 . S
H144 C153 0.930 . S
H145 C155 0.929 . S
H146 C147 0.969 . S
C147 H146 0.969 . S
C147 O148 1.550 . S
C147 H149 0.973 . S
O148 C147 1.550 . S
O148 C154 1.412 . S
H149 C147 0.973 . S
C150 H143 0.929 . S
C150 C151 1.400 . S
C150 C152 1.364 . S
C151 C150 1.400 . S
C151 C155 1.377 . S
C152 C150 1.364 . S
C152 C153 1.374 . S
C153 H144 0.930 . S
C153 C152 1.374 . S
C153 C154 1.383 . S
C154 O148 1.412 . S
C154 C153 1.383 . S
C154 C155 1.394 . S
C155 H145 0.929 . S
C155 C151 1.377 . S
C155 C154 1.394 . S
H156 C163 0.929 . S
H157 C166 0.930 . S
H158 C168 0.929 . S
H159 C160 0.969 . S
C160 H159 0.969 . S
C160 O161 1.550 . S
C160 H162 0.973 . S
O161 C160 1.550 . S
O161 C167 1.412 . S
H162 C160 0.973 . S
C163 H156 0.929 . S
C163 C164 1.400 . S
C163 C165 1.364 . S
C164 C163 1.400 . S
C164 C168 1.377 . S
C165 C163 1.364 . S
C165 C166 1.374 . S
C166 H157 0.930 . S
C166 C165 1.374 . S
C166 C167 1.383 . S
C167 O161 1.412 . S
C167 C166 1.383 . S
C167 C168 1.394 . S
C168 H158 0.929 . S
C168 C164 1.377 . S
C168 C167 1.394 . S
H169 C176 0.929 . S
H170 C179 0.930 . S
H171 C181 0.929 . S
H172 C173 0.969 . S
C173 H172 0.969 . S
C173 O174 1.550 . S
C173 H175 0.973 . S
O174 C173 1.550 . S
O174 C180 1.412 . S
H175 C173 0.973 . S
C176 H169 0.929 . S
C176 C177 1.400 . S
C176 C178 1.364 . S
C177 C176 1.400 . S
C177 C181 1.377 . S
C178 C176 1.364 . S
C178 C179 1.374 . S
C179 H170 0.930 . S
C179 C178 1.374 . S
C179 C180 1.383 . S
C180 O174 1.412 . S
C180 C179 1.383 . S
C180 C181 1.394 . S
C181 H171 0.929 . S
C181 C177 1.377 . S
C181 C180 1.394 . S
H182 C189 0.929 . S
H183 C192 0.930 . S
H184 C194 0.929 . S
H185 C186 0.969 . S
C186 H185 0.969 . S
C186 O187 1.550 . S
C186 H188 0.973 . S
O187 C186 1.550 . S
O187 C193 1.412 . S
H188 C186 0.973 . S
C189 H182 0.929 . S
C189 C190 1.400 . S
C189 C191 1.364 . S
C190 C189 1.400 . S
C190 C194 1.377 . S
C191 C189 1.364 . S
C191 C192 1.374 . S
C192 H183 0.930 . S
C192 C191 1.374 . S
C192 C193 1.383 . S
C193 O187 1.412 . S
C193 C192 1.383 . S
C193 C194 1.394 . S
C194 H184 0.929 . S
C194 C190 1.377 . S
C194 C193 1.394 . S
H195 C202 0.929 . S
H196 C205 0.930 . S
H197 C207 0.929 . S
H198 C199 0.969 . S
C199 H198 0.969 . S
C199 O200 1.550 . S
C199 H201 0.973 . S
O200 C199 1.550 . S
O200 C206 1.412 . S
H201 C199 0.973 . S
C202 H195 0.929 . S
C202 C203 1.400 . S
C202 C204 1.364 . S
C203 C202 1.400 . S
C203 C207 1.377 . S
C204 C202 1.364 . S
C204 C205 1.374 . S
C205 H196 0.930 . S
C205 C204 1.374 . S
C205 C206 1.383 . S
C206 O200 1.412 . S
C206 C205 1.383 . S
C206 C207 1.394 . S
C207 H197 0.929 . S
C207 C203 1.377 . S
C207 C206 1.394 . S
H208 C215 0.929 . S
H209 C218 0.930 . S
H210 C220 0.929 . S
H211 C212 0.969 . S
C212 H211 0.969 . S
C212 O213 1.550 . S
C212 H214 0.973 . S
O213 C212 1.550 . S
O213 C219 1.412 . S
H214 C212 0.973 . S
C215 H208 0.929 . S
C215 C216 1.400 . S
C215 C217 1.364 . S
C216 C215 1.400 . S
C216 C220 1.377 . S
C217 C215 1.364 . S
C217 C218 1.374 . S
C218 H209 0.930 . S
C218 C217 1.374 . S
C218 C219 1.383 . S
C219 O213 1.412 . S
C219 C218 1.383 . S
C219 C220 1.394 . S
C220 H210 0.929 . S
C220 C216 1.377 . S
C220 C219 1.394 . S
H221 C228 0.929 . S
H222 C231 0.930 . S
H223 C233 0.929 . S
H224 C225 0.969 . S
C225 H224 0.969 . S
C225 O226 1.550 . S
C225 H227 0.973 . S
O226 C225 1.550 . S
O226 C232 1.412 . S
H227 C225 0.973 . S
C228 H221 0.929 . S
C228 C229 1.400 . S
C228 C230 1.364 . S
C229 C228 1.400 . S
C229 C233 1.377 . S
C230 C228 1.364 . S
C230 C231 1.374 . S
C231 H222 0.930 . S
C231 C230 1.374 . S
C231 C232 1.383 . S
C232 O226 1.412 . S
C232 C231 1.383 . S
C232 C233 1.394 . S
C233 H223 0.929 . S
C233 C229 1.377 . S
C233 C232 1.394 . S
Tb234 N265 2.660 . S
Tb234 N272 2.600 . S
Tb234 O278 2.546 . S
Tb234 O279 2.610 1_566 S
Tb234 O281 2.320 1_565 S
Tb234 O282 2.552 1_565 S
Tb234 O283 2.413 1_565 S
Tb234 O285 2.362 1_556 S
Tb234 O286 2.421 . S
Tb234 C298 2.833 . S
C235 C238 1.432 . S
C235 C239 1.414 . S
C235 N242 1.359 . S
C236 C238 1.417 . S
C236 C240 1.432 . S
C236 C248 1.410 . S
C237 C239 1.444 . S
C237 C240 1.317 . S
C237 H260 0.929 . S
C238 C235 1.432 . S
C238 C236 1.417 . S
C238 N246 1.360 . S
C239 C235 1.414 . S
C239 C237 1.444 . S
C239 C244 1.385 . S
C240 C236 1.432 . S
C240 C237 1.317 . S
C240 H252 0.930 . S
C241 C243 1.392 . S
C241 C244 1.370 . S
C241 H253 0.931 . S
N242 C235 1.359 . S
N242 C243 1.327 . S
N242 Tb245 2.600 . S
C243 C241 1.392 . S
C243 N242 1.327 . S
C243 H250 0.930 . S
C244 C239 1.385 . S
C244 C241 1.370 . S
C244 H263 0.930 . S
Tb245 N242 2.600 . S
Tb245 N246 2.660 . S
Tb245 O279 2.362 . S
Tb245 O280 2.421 . S
Tb245 O284 2.546 . S
Tb245 O285 2.610 1_545 S
Tb245 O287 2.320 1_545 S
Tb245 O288 2.552 1_545 S
Tb245 O289 2.413 1_545 S
Tb245 C309 2.833 . S
N246 C238 1.360 . S
N246 Tb245 2.660 . S
N246 C247 1.305 . S
C247 N246 1.305 . S
C247 C249 1.407 . S
C247 H254 0.930 . S
C248 C236 1.410 . S
C248 C249 1.345 . S
C248 H256 0.930 . S
C249 C247 1.407 . S
C249 C248 1.345 . S
C249 H251 0.930 . S
H250 C243 0.930 . S
H251 C249 0.930 . S
H252 C240 0.930 . S
H253 C241 0.931 . S
H254 C247 0.930 . S
H255 C269 0.930 . S
H256 C248 0.930 . S
H257 C275 0.930 . S
H258 C266 0.930 . S
H259 C273 0.931 . S
H260 C237 0.929 . S
H261 C267 0.930 . S
H262 C300 0.930 . S
H263 C244 0.930 . S
H264 C299 0.929 . S
N265 Tb234 2.660 . S
N265 C266 1.305 . S
N265 C270 1.360 . S
C266 H258 0.930 . S
C266 N265 1.305 . S
C266 C269 1.407 . S
C267 H261 0.930 . S
C267 C268 1.410 . S
C267 C269 1.345 . S
C268 C267 1.410 . S
C268 C270 1.417 . S
C268 C300 1.432 . S
C269 H255 0.930 . S
C269 C266 1.407 . S
C269 C267 1.345 . S
C270 N265 1.360 . S
C270 C268 1.417 . S
C270 C274 1.432 . S
H271 C276 0.930 . S
N272 Tb234 2.600 . S
N272 C274 1.359 . S
N272 C275 1.327 . S
C273 H259 0.931 . S
C273 C275 1.392 . S
C273 C276 1.370 . S
C274 C270 1.432 . S
C274 N272 1.359 . S
C274 C277 1.414 . S
C275 H257 0.930 . S
C275 N272 1.327 . S
C275 C273 1.392 . S
C276 H271 0.930 . S
C276 C273 1.370 . S
C276 C277 1.385 . S
C277 C274 1.414 . S
C277 C276 1.385 . S
C277 C299 1.444 . S
O278 Tb234 2.546 . S
O278 C298 1.251 . S
O279 Tb234 2.610 1_544 S
O279 Tb245 2.362 . S
O279 C290 1.283 1_554 S
O280 Tb245 2.421 . S
O280 C297 1.262 1_554 S
O281 Tb234 2.320 1_545 S
O281 C297 1.260 . S
O282 Tb234 2.552 1_545 S
O282 C290 1.243 . S
O283 Tb234 2.413 1_545 S
O283 C298 1.256 1_545 S
O284 Tb245 2.546 . S
O284 C309 1.251 . S
O285 Tb234 2.362 1_554 S
O285 Tb245 2.610 1_565 S
O285 C301 1.283 . S
O286 Tb234 2.421 . S
O286 C308 1.262 1_556 S
O287 Tb245 2.320 1_565 S
O287 C308 1.260 . S
O288 Tb245 2.552 1_565 S
O288 C301 1.243 . S
O289 Tb245 2.413 1_565 S
O289 C309 1.256 1_565 S
C290 O279 1.283 1_556 S
C290 O282 1.243 . S
C291 C293 1.382 . S
C291 C295 1.393 1_545 S
C291 C298 1.500 1_545 S
C292 C293 1.400 . S
C292 C294 1.384 . S
C293 C291 1.382 . S
C293 C292 1.400 . S
C293 H310 0.930 . S
C294 C292 1.384 . S
C294 C296 1.392 1_545 S
C294 H311 0.931 . S
C295 C291 1.393 1_565 S
C295 C296 1.401 . S
C295 H312 0.930 . S
C296 C294 1.392 1_565 S
C296 C295 1.401 . S
C296 H313 0.930 . S
C297 O280 1.262 1_556 S
C297 O281 1.260 . S
C298 Tb234 2.833 . S
C298 O278 1.251 . S
C298 O283 1.256 1_565 S
C298 C291 1.500 1_565 S
C299 H264 0.929 . S
C299 C277 1.444 . S
C299 C300 1.317 . S
C300 H262 0.930 . S
C300 C268 1.432 . S
C300 C299 1.317 . S
C301 O285 1.283 . S
C301 O288 1.243 . S
C302 C303 1.351 1_545 S
C302 C306 1.420 . S
C302 C309 1.505 . S
C303 C302 1.351 1_565 S
C303 C304 1.400 . S
C303 H314 0.930 . S
C304 C303 1.400 . S
C304 C305 1.384 . S
C305 C304 1.384 . S
C305 C307 1.392 1_565 S
C305 H315 0.931 . S
C306 C302 1.420 . S
C306 C307 1.401 . S
C306 H316 0.930 . S
C307 C305 1.392 1_545 S
C307 C306 1.401 . S
C307 H317 0.930 . S
C308 O286 1.262 1_554 S
C308 O287 1.260 . S
C309 Tb245 2.833 . S
C309 O284 1.251 . S
C309 O289 1.256 1_545 S
C309 C302 1.505 . S
H310 C293 0.930 . S
H311 C294 0.931 . S
H312 C295 0.930 . S
H313 C296 0.930 . S
H314 C303 0.930 . S
H315 C305 0.931 . S
H316 C306 0.930 . S
H317 C307 0.930 . S
Tb318 N349 2.660 . S
Tb318 N356 2.600 . S
Tb318 O362 2.546 . S
Tb318 O363 2.610 1_456 S
Tb318 O365 2.320 1_455 S
Tb318 O366 2.552 1_455 S
Tb318 O367 2.413 1_455 S
Tb318 O369 2.362 1_556 S
Tb318 O370 2.421 . S
Tb318 C382 2.833 . S
C319 C322 1.432 . S
C319 C323 1.414 . S
C319 N326 1.359 . S
C320 C322 1.417 . S
C320 C324 1.432 . S
C320 C332 1.410 . S
C321 C323 1.444 . S
C321 C324 1.317 . S
C321 H344 0.929 . S
C322 C319 1.432 . S
C322 C320 1.417 . S
C322 N330 1.360 . S
C323 C319 1.414 . S
C323 C321 1.444 . S
C323 C328 1.385 . S
C324 C320 1.432 . S
C324 C321 1.317 . S
C324 H336 0.930 . S
C325 C327 1.392 . S
C325 C328 1.370 . S
C325 H337 0.931 . S
N326 C319 1.359 . S
N326 C327 1.327 . S
N326 Tb329 2.600 . S
C327 C325 1.392 . S
C327 N326 1.327 . S
C327 H334 0.930 . S
C328 C323 1.385 . S
C328 C325 1.370 . S
C328 H347 0.930 . S
Tb329 N326 2.600 . S
Tb329 N330 2.660 . S
Tb329 O363 2.362 . S
Tb329 O364 2.421 . S
Tb329 O368 2.546 . S
Tb329 O369 2.610 1_655 S
Tb329 O371 2.320 1_655 S
Tb329 O372 2.552 1_655 S
Tb329 O373 2.413 1_655 S
Tb329 C393 2.833 . S
N330 C322 1.360 . S
N330 Tb329 2.660 . S
N330 C331 1.305 . S
C331 N330 1.305 . S
C331 C333 1.407 . S
C331 H338 0.930 . S
C332 C320 1.410 . S
C332 C333 1.345 . S
C332 H340 0.930 . S
C333 C331 1.407 . S
C333 C332 1.345 . S
C333 H335 0.930 . S
H334 C327 0.930 . S
H335 C333 0.930 . S
H336 C324 0.930 . S
H337 C325 0.931 . S
H338 C331 0.930 . S
H339 C353 0.930 . S
H340 C332 0.930 . S
H341 C359 0.930 . S
H342 C350 0.930 . S
H343 C357 0.931 . S
H344 C321 0.929 . S
H345 C351 0.930 . S
H346 C384 0.930 . S
H347 C328 0.930 . S
H348 C383 0.929 . S
N349 Tb318 2.660 . S
N349 C350 1.305 . S
N349 C354 1.360 . S
C350 H342 0.930 . S
C350 N349 1.305 . S
C350 C353 1.407 . S
C351 H345 0.930 . S
C351 C352 1.410 . S
C351 C353 1.345 . S
C352 C351 1.410 . S
C352 C354 1.417 . S
C352 C384 1.432 . S
C353 H339 0.930 . S
C353 C350 1.407 . S
C353 C351 1.345 . S
C354 N349 1.360 . S
C354 C352 1.417 . S
C354 C358 1.432 . S
H355 C360 0.930 . S
N356 Tb318 2.600 . S
N356 C358 1.359 . S
N356 C359 1.327 . S
C357 H343 0.931 . S
C357 C359 1.392 . S
C357 C360 1.370 . S
C358 C354 1.432 . S
C358 N356 1.359 . S
C358 C361 1.414 . S
C359 H341 0.930 . S
C359 N356 1.327 . S
C359 C357 1.392 . S
C360 H355 0.930 . S
C360 C357 1.370 . S
C360 C361 1.385 . S
C361 C358 1.414 . S
C361 C360 1.385 . S
C361 C383 1.444 . S
O362 Tb318 2.546 . S
O362 C382 1.251 . S
O363 Tb318 2.610 1_654 S
O363 Tb329 2.362 . S
O363 C374 1.283 1_554 S
O364 Tb329 2.421 . S
O364 C381 1.262 1_554 S
O365 Tb318 2.320 1_655 S
O365 C381 1.260 . S
O366 Tb318 2.552 1_655 S
O366 C374 1.243 . S
O367 Tb318 2.413 1_655 S
O367 C382 1.256 1_655 S
O368 Tb329 2.546 . S
O368 C393 1.251 . S
O369 Tb318 2.362 1_554 S
O369 Tb329 2.610 1_455 S
O369 C385 1.283 . S
O370 Tb318 2.421 . S
O370 C392 1.262 1_556 S
O371 Tb329 2.320 1_455 S
O371 C392 1.260 . S
O372 Tb329 2.552 1_455 S
O372 C385 1.243 . S
O373 Tb329 2.413 1_455 S
O373 C393 1.256 1_455 S
C374 O363 1.283 1_556 S
C374 O366 1.243 . S
C375 C377 1.382 1_455 S
C375 C379 1.393 . S
C375 C382 1.500 . S
C376 C377 1.400 . S
C376 C378 1.384 . S
C377 C375 1.382 1_655 S
C377 C376 1.400 . S
C377 H394 0.930 . S
C378 C376 1.384 . S
C378 C380 1.392 1_655 S
C378 H395 0.931 . S
C379 C375 1.393 . S
C379 C380 1.401 . S
C379 H396 0.930 . S
C380 C378 1.392 1_455 S
C380 C379 1.401 . S
C380 H397 0.930 . S
C381 O364 1.262 1_556 S
C381 O365 1.260 . S
C382 Tb318 2.833 . S
C382 O362 1.251 . S
C382 O367 1.256 1_455 S
C382 C375 1.500 . S
C383 H348 0.929 . S
C383 C361 1.444 . S
C383 C384 1.317 . S
C384 H346 0.930 . S
C384 C352 1.432 . S
C384 C383 1.317 . S
C385 O369 1.283 . S
C385 O372 1.243 . S
C386 C387 1.382 . S
C386 C390 1.393 1_455 S
C386 C393 1.500 1_455 S
C387 C386 1.382 . S
C387 C388 1.400 . S
C387 H398 0.930 . S
C388 C387 1.400 . S
C388 C389 1.384 . S
C389 C388 1.384 . S
C389 C391 1.392 1_455 S
C389 H399 0.931 . S
C390 C386 1.393 1_655 S
C390 C391 1.401 . S
C390 H400 0.930 . S
C391 C389 1.392 1_655 S
C391 C390 1.401 . S
C391 H401 0.930 . S
C392 O370 1.262 1_554 S
C392 O371 1.260 . S
C393 Tb329 2.833 . S
C393 O368 1.251 . S
C393 O373 1.256 1_655 S
C393 C386 1.500 1_655 S
H394 C377 0.930 . S
H395 C378 0.931 . S
H396 C379 0.930 . S
H397 C380 0.930 . S
H398 C387 0.930 . S
H399 C389 0.931 . S
H400 C390 0.930 . S
H401 C391 0.930 . S
Tb402 N433 2.660 . S
Tb402 N440 2.600 . S
Tb402 O446 2.546 . S
Tb402 O447 2.610 . S
Tb402 O449 2.320 . S
Tb402 O450 2.552 . S
Tb402 O451 2.413 . S
Tb402 O453 2.362 . S
Tb402 O454 2.421 . S
Tb402 C466 2.833 . S
C403 C406 1.432 . S
C403 C407 1.414 . S
C403 N410 1.359 . S
C404 C406 1.417 . S
C404 C408 1.432 . S
C404 C416 1.410 . S
C405 C407 1.444 . S
C405 C408 1.317 . S
C405 H428 0.929 . S
C406 C403 1.432 . S
C406 C404 1.417 . S
C406 N414 1.360 . S
C407 C403 1.414 . S
C407 C405 1.444 . S
C407 C412 1.385 . S
C408 C404 1.432 . S
C408 C405 1.317 . S
C408 H420 0.930 . S
C409 C411 1.392 . S
C409 C412 1.370 . S
C409 H421 0.931 . S
N410 C403 1.359 . S
N410 C411 1.327 . S
N410 Tb413 2.600 . S
C411 C409 1.392 . S
C411 N410 1.327 . S
C411 H418 0.930 . S
C412 C407 1.385 . S
C412 C409 1.370 . S
C412 H431 0.930 . S
Tb413 N410 2.600 . S
Tb413 N414 2.660 . S
Tb413 O447 2.362 1_556 S
Tb413 O448 2.421 . S
Tb413 O452 2.546 . S
Tb413 O453 2.610 1_556 S
Tb413 O455 2.320 . S
Tb413 O456 2.552 . S
Tb413 O457 2.413 . S
Tb413 C477 2.833 . S
N414 C406 1.360 . S
N414 Tb413 2.660 . S
N414 C415 1.305 . S
C415 N414 1.305 . S
C415 C417 1.407 . S
C415 H422 0.930 . S
C416 C404 1.410 . S
C416 C417 1.345 . S
C416 H424 0.930 . S
C417 C415 1.407 . S
C417 C416 1.345 . S
C417 H419 0.930 . S
H418 C411 0.930 . S
H419 C417 0.930 . S
H420 C408 0.930 . S
H421 C409 0.931 . S
H422 C415 0.930 . S
H423 C437 0.930 . S
H424 C416 0.930 . S
H425 C443 0.930 . S
H426 C434 0.930 . S
H427 C441 0.931 . S
H428 C405 0.929 . S
H429 C435 0.930 . S
H430 C468 0.930 . S
H431 C412 0.930 . S
H432 C467 0.929 . S
N433 Tb402 2.660 . S
N433 C434 1.305 . S
N433 C438 1.360 . S
C434 H426 0.930 . S
C434 N433 1.305 . S
C434 C437 1.407 . S
C435 H429 0.930 . S
C435 C436 1.410 . S
C435 C437 1.345 . S
C436 C435 1.410 . S
C436 C438 1.417 . S
C436 C468 1.432 . S
C437 H423 0.930 . S
C437 C434 1.407 . S
C437 C435 1.345 . S
C438 N433 1.360 . S
C438 C436 1.417 . S
C438 C442 1.432 . S
H439 C444 0.930 . S
N440 Tb402 2.600 . S
N440 C442 1.359 . S
N440 C443 1.327 . S
C441 H427 0.931 . S
C441 C443 1.392 . S
C441 C444 1.370 . S
C442 C438 1.432 . S
C442 N440 1.359 . S
C442 C445 1.414 . S
C443 H425 0.930 . S
C443 N440 1.327 . S
C443 C441 1.392 . S
C444 H439 0.930 . S
C444 C441 1.370 . S
C444 C445 1.385 . S
C445 C442 1.414 . S
C445 C444 1.385 . S
C445 C467 1.444 . S
O446 Tb402 2.546 . S
O446 C466 1.251 . S
O447 Tb402 2.610 . S
O447 Tb413 2.362 1_554 S
O447 C458 1.283 . S
O448 Tb413 2.421 . S
O448 C465 1.262 1_556 S
O449 Tb402 2.320 . S
O449 C465 1.260 . S
O450 Tb402 2.552 . S
O450 C458 1.243 . S
O451 Tb402 2.413 . S
O451 C466 1.256 . S
O452 Tb413 2.546 . S
O452 C477 1.251 . S
O453 Tb402 2.362 . S
O453 Tb413 2.610 1_554 S
O453 C469 1.283 1_554 S
O454 Tb402 2.421 . S
O454 C476 1.262 1_554 S
O455 Tb413 2.320 . S
O455 C476 1.260 . S
O456 Tb413 2.552 . S
O456 C469 1.243 . S
O457 Tb413 2.413 . S
O457 C477 1.256 . S
C458 O447 1.283 . S
C458 O450 1.243 . S
C459 C461 1.382 . S
C459 C463 1.393 . S
C459 C466 1.500 . S
C460 C461 1.400 . S
C460 C462 1.384 . S
C461 C459 1.382 . S
C461 C460 1.400 . S
C461 H478 0.930 . S
C462 C460 1.384 . S
C462 C464 1.392 . S
C462 H479 0.931 . S
C463 C459 1.393 . S
C463 C464 1.401 . S
C463 H480 0.930 . S
C464 C462 1.392 . S
C464 C463 1.401 . S
C464 H481 0.930 . S
C465 O448 1.262 1_554 S
C465 O449 1.260 . S
C466 Tb402 2.833 . S
C466 O446 1.251 . S
C466 O451 1.256 . S
C466 C459 1.500 . S
C467 H432 0.929 . S
C467 C445 1.444 . S
C467 C468 1.317 . S
C468 H430 0.930 . S
C468 C436 1.432 . S
C468 C467 1.317 . S
C469 O453 1.283 1_556 S
C469 O456 1.243 . S
C470 C471 1.382 . S
C470 C474 1.393 . S
C470 C477 1.500 . S
C471 C470 1.382 . S
C471 C472 1.400 . S
C471 H482 0.930 . S
C472 C471 1.400 . S
C472 C473 1.384 . S
C473 C472 1.384 . S
C473 C475 1.392 . S
C473 H483 0.931 . S
C474 C470 1.393 . S
C474 C475 1.401 . S
C474 H484 0.930 . S
C475 C473 1.392 . S
C475 C474 1.401 . S
C475 H485 0.930 . S
C476 O454 1.262 1_556 S
C476 O455 1.260 . S
C477 Tb413 2.833 . S
C477 O452 1.251 . S
C477 O457 1.256 . S
C477 C470 1.500 . S
H478 C461 0.930 . S
H479 C462 0.931 . S
H480 C463 0.930 . S
H481 C464 0.930 . S
H482 C471 0.930 . S
H483 C473 0.931 . S
H484 C474 0.930 . S
H485 C475 0.930 . S
Tb486 N517 2.660 . S
Tb486 N524 2.600 . S
Tb486 O530 2.546 . S
Tb486 O531 2.610 . S
Tb486 O533 2.320 . S
Tb486 O534 2.552 . S
Tb486 O535 2.413 . S
Tb486 O537 2.362 . S
Tb486 O538 2.421 . S
Tb486 C550 2.833 . S
C487 C490 1.432 . S
C487 C491 1.414 . S
C487 N494 1.359 . S
C488 C490 1.417 . S
C488 C492 1.432 . S
C488 C500 1.410 . S
C489 C491 1.444 . S
C489 C492 1.317 . S
C489 H512 0.929 . S
C490 C487 1.432 . S
C490 C488 1.417 . S
C490 N498 1.360 . S
C491 C487 1.414 . S
C491 C489 1.444 . S
C491 C496 1.385 . S
C492 C488 1.432 . S
C492 C489 1.317 . S
C492 H504 0.930 . S
C493 C495 1.392 . S
C493 C496 1.370 . S
C493 H505 0.931 . S
N494 C487 1.359 . S
N494 C495 1.327 . S
N494 Tb497 2.600 . S
C495 C493 1.392 . S
C495 N494 1.327 . S
C495 H502 0.930 . S
C496 C491 1.385 . S
C496 C493 1.370 . S
C496 H515 0.930 . S
Tb497 N494 2.600 . S
Tb497 N498 2.660 . S
Tb497 O531 2.362 . S
Tb497 O532 2.421 . S
Tb497 O536 2.546 . S
Tb497 O537 2.610 . S
Tb497 O539 2.320 . S
Tb497 O540 2.552 . S
Tb497 O541 2.413 . S
Tb497 C561 2.833 . S
N498 C490 1.360 . S
N498 Tb497 2.660 . S
N498 C499 1.305 . S
C499 N498 1.305 . S
C499 C501 1.407 . S
C499 H506 0.930 . S
C500 C488 1.410 . S
C500 C501 1.345 . S
C500 H508 0.930 . S
C501 C499 1.407 . S
C501 C500 1.345 . S
C501 H503 0.930 . S
H502 C495 0.930 . S
H503 C501 0.930 . S
H504 C492 0.930 . S
H505 C493 0.931 . S
H506 C499 0.930 . S
H507 C521 0.930 . S
H508 C500 0.930 . S
H509 C527 0.930 . S
H510 C518 0.930 . S
H511 C525 0.931 . S
H512 C489 0.929 . S
H513 C519 0.930 . S
H514 C552 0.930 . S
H515 C496 0.930 . S
H516 C551 0.929 . S
N517 Tb486 2.660 . S
N517 C518 1.305 . S
N517 C522 1.360 . S
C518 H510 0.930 . S
C518 N517 1.305 . S
C518 C521 1.407 1_455 S
C519 H513 0.930 . S
C519 C520 1.410 . S
C519 C521 1.345 . S
C520 C519 1.410 . S
C520 C522 1.417 1_655 S
C520 C552 1.432 . S
C521 H507 0.930 . S
C521 C518 1.407 1_655 S
C521 C519 1.345 . S
C522 N517 1.360 . S
C522 C520 1.417 1_455 S
C522 C526 1.432 . S
H523 C528 0.930 . S
N524 Tb486 2.600 . S
N524 C526 1.359 . S
N524 C527 1.327 . S
C525 H511 0.931 . S
C525 C527 1.392 . S
C525 C528 1.370 . S
C526 C522 1.432 . S
C526 N524 1.359 . S
C526 C529 1.414 . S
C527 H509 0.930 . S
C527 N524 1.327 . S
C527 C525 1.392 . S
C528 H523 0.930 . S
C528 C525 1.370 . S
C528 C529 1.385 . S
C529 C526 1.414 . S
C529 C528 1.385 . S
C529 C551 1.444 1_455 S
O530 Tb486 2.546 . S
O530 C550 1.251 . S
O531 Tb486 2.610 . S
O531 Tb497 2.362 . S
O531 C542 1.283 . S
O532 Tb497 2.421 . S
O532 C549 1.262 . S
O533 Tb486 2.320 . S
O533 C549 1.260 . S
O534 Tb486 2.552 . S
O534 C542 1.243 . S
O535 Tb486 2.413 . S
O535 C550 1.256 . S
O536 Tb497 2.546 . S
O536 C561 1.251 . S
O537 Tb486 2.362 . S
O537 Tb497 2.610 . S
O537 C553 1.283 . S
O538 Tb486 2.421 . S
O538 C560 1.262 . S
O539 Tb497 2.320 . S
O539 C560 1.260 . S
O540 Tb497 2.552 . S
O540 C553 1.243 . S
O541 Tb497 2.413 . S
O541 C561 1.256 . S
C542 O531 1.283 . S
C542 O534 1.243 . S
C543 C545 1.382 . S
C543 C547 1.393 . S
C543 C550 1.500 . S
C544 C545 1.400 . S
C544 C546 1.384 . S
C545 C543 1.382 . S
C545 C544 1.400 . S
C545 H562 0.930 . S
C546 C544 1.384 . S
C546 C548 1.392 . S
C546 H563 0.931 . S
C547 C543 1.393 . S
C547 C548 1.401 . S
C547 H564 0.930 . S
C548 C546 1.392 . S
C548 C547 1.401 . S
C548 H565 0.930 . S
C549 O532 1.262 . S
C549 O533 1.260 . S
C550 Tb486 2.833 . S
C550 O530 1.251 . S
C550 O535 1.256 . S
C550 C543 1.500 . S
C551 H516 0.929 . S
C551 C529 1.444 1_655 S
C551 C552 1.317 . S
C552 H514 0.930 . S
C552 C520 1.432 . S
C552 C551 1.317 . S
C553 O537 1.283 . S
C553 O540 1.243 . S
C554 C555 1.382 . S
C554 C558 1.393 . S
C554 C561 1.500 . S
C555 C554 1.382 . S
C555 C556 1.400 . S
C555 H566 0.930 . S
C556 C555 1.400 . S
C556 C557 1.384 . S
C557 C556 1.384 . S
C557 C559 1.392 . S
C557 H567 0.931 . S
C558 C554 1.393 . S
C558 C559 1.401 . S
C558 H568 0.930 . S
C559 C557 1.392 . S
C559 C558 1.401 . S
C559 H569 0.930 . S
C560 O538 1.262 . S
C560 O539 1.260 . S
C561 Tb497 2.833 . S
C561 O536 1.251 . S
C561 O541 1.256 . S
C561 C554 1.500 . S
H562 C545 0.930 . S
H563 C546 0.931 . S
H564 C547 0.930 . S
H565 C548 0.930 . S
H566 C555 0.930 . S
H567 C557 0.931 . S
H568 C558 0.930 . S
H569 C559 0.930 . S
Tb570 N601 2.660 . S
Tb570 N608 2.600 . S
Tb570 O614 2.546 . S
Tb570 O615 2.610 . S
Tb570 O617 2.320 . S
Tb570 O618 2.552 . S
Tb570 O619 2.413 . S
Tb570 O621 2.362 . S
Tb570 O622 2.421 . S
Tb570 C634 2.833 . S
C571 C574 1.432 . S
C571 C575 1.414 . S
C571 N578 1.359 . S
C572 C574 1.417 . S
C572 C576 1.432 . S
C572 C584 1.410 . S
C573 C575 1.444 . S
C573 C576 1.317 . S
C573 H596 0.929 . S
C574 C571 1.432 . S
C574 C572 1.417 . S
C574 N582 1.360 . S
C575 C571 1.414 . S
C575 C573 1.444 . S
C575 C580 1.385 . S
C576 C572 1.432 . S
C576 C573 1.317 . S
C576 H588 0.930 . S
C577 C579 1.392 . S
C577 C580 1.370 . S
C577 H589 0.931 . S
N578 C571 1.359 . S
N578 C579 1.327 . S
N578 Tb581 2.600 . S
C579 C577 1.392 . S
C579 N578 1.327 . S
C579 H586 0.930 . S
C580 C575 1.385 . S
C580 C577 1.370 . S
C580 H599 0.930 . S
Tb581 N578 2.600 . S
Tb581 N582 2.660 . S
Tb581 O615 2.362 . S
Tb581 O616 2.421 . S
Tb581 O620 2.546 . S
Tb581 O621 2.610 . S
Tb581 O623 2.320 . S
Tb581 O624 2.552 . S
Tb581 O625 2.413 . S
Tb581 C645 2.833 . S
N582 C574 1.360 . S
N582 Tb581 2.660 . S
N582 C583 1.305 . S
C583 N582 1.305 . S
C583 C585 1.407 . S
C583 H590 0.930 . S
C584 C572 1.410 . S
C584 C585 1.345 . S
C584 H592 0.930 . S
C585 C583 1.407 . S
C585 C584 1.345 . S
C585 H587 0.930 . S
H586 C579 0.930 . S
H587 C585 0.930 . S
H588 C576 0.930 . S
H589 C577 0.931 . S
H590 C583 0.930 . S
H591 C605 0.930 . S
H592 C584 0.930 . S
H593 C611 0.930 . S
H594 C602 0.930 . S
H595 C609 0.931 . S
H596 C573 0.929 . S
H597 C603 0.930 . S
H598 C636 0.930 . S
H599 C580 0.930 . S
H600 C635 0.929 . S
N601 Tb570 2.660 . S
N601 C602 1.305 . S
N601 C606 1.360 . S
C602 H594 0.930 . S
C602 N601 1.305 . S
C602 C605 1.407 . S
C603 H597 0.930 . S
C603 C604 1.410 . S
C603 C605 1.345 . S
C604 C603 1.410 . S
C604 C606 1.417 . S
C604 C636 1.432 . S
C605 H591 0.930 . S
C605 C602 1.407 . S
C605 C603 1.345 . S
C606 N601 1.360 . S
C606 C604 1.417 . S
C606 C610 1.432 . S
H607 C612 0.930 . S
N608 Tb570 2.600 . S
N608 C610 1.359 . S
N608 C611 1.327 . S
C609 H595 0.931 . S
C609 C611 1.392 . S
C609 C612 1.370 . S
C610 C606 1.432 . S
C610 N608 1.359 . S
C610 C613 1.414 . S
C611 H593 0.930 . S
C611 N608 1.327 . S
C611 C609 1.392 . S
C612 H607 0.930 . S
C612 C609 1.370 . S
C612 C613 1.385 . S
C613 C610 1.414 . S
C613 C612 1.385 . S
C613 C635 1.444 . S
O614 Tb570 2.546 . S
O614 C634 1.251 . S
O615 Tb570 2.610 . S
O615 Tb581 2.362 . S
O615 C626 1.283 . S
O616 Tb581 2.421 . S
O616 C633 1.262 . S
O617 Tb570 2.320 . S
O617 C633 1.260 . S
O618 Tb570 2.552 . S
O618 C626 1.243 . S
O619 Tb570 2.413 . S
O619 C634 1.256 . S
O620 Tb581 2.546 . S
O620 C645 1.251 . S
O621 Tb570 2.362 . S
O621 Tb581 2.610 . S
O621 C637 1.283 . S
O622 Tb570 2.421 . S
O622 C644 1.262 . S
O623 Tb581 2.320 . S
O623 C644 1.260 . S
O624 Tb581 2.552 . S
O624 C637 1.243 . S
O625 Tb581 2.413 . S
O625 C645 1.256 . S
C626 O615 1.283 . S
C626 O618 1.243 . S
C627 C629 1.382 . S
C627 C631 1.393 . S
C627 C634 1.500 . S
C628 C629 1.400 . S
C628 C630 1.384 . S
C629 C627 1.382 . S
C629 C628 1.400 . S
C629 H646 0.930 . S
C630 C628 1.384 . S
C630 C632 1.392 . S
C630 H647 0.931 . S
C631 C627 1.393 . S
C631 C632 1.401 . S
C631 H648 0.930 . S
C632 C630 1.392 . S
C632 C631 1.401 . S
C632 H649 0.930 . S
C633 O616 1.262 . S
C633 O617 1.260 . S
C634 Tb570 2.833 . S
C634 O614 1.251 . S
C634 O619 1.256 . S
C634 C627 1.500 . S
C635 H600 0.929 . S
C635 C613 1.444 . S
C635 C636 1.317 . S
C636 H598 0.930 . S
C636 C604 1.432 . S
C636 C635 1.317 . S
C637 O621 1.283 . S
C637 O624 1.243 . S
C638 C639 1.382 . S
C638 C642 1.393 . S
C638 C645 1.500 . S
C639 C638 1.382 . S
C639 C640 1.400 . S
C639 H650 0.930 . S
C640 C639 1.400 . S
C640 C641 1.384 . S
C641 C640 1.384 . S
C641 C643 1.392 . S
C641 H651 0.931 . S
C642 C638 1.393 . S
C642 C643 1.401 . S
C642 H652 0.930 . S
C643 C641 1.392 . S
C643 C642 1.401 . S
C643 H653 0.930 . S
C644 O622 1.262 . S
C644 O623 1.260 . S
C645 Tb581 2.833 . S
C645 O620 1.251 . S
C645 O625 1.256 . S
C645 C638 1.500 . S
H646 C629 0.930 . S
H647 C630 0.931 . S
H648 C631 0.930 . S
H649 C632 0.930 . S
H650 C639 0.930 . S
H651 C641 0.931 . S
H652 C642 0.930 . S
H653 C643 0.930 . S
Tb654 N685 2.660 . S
Tb654 N692 2.600 . S
Tb654 O698 2.546 . S
Tb654 O699 2.610 . S
Tb654 O701 2.320 . S
Tb654 O702 2.552 . S
Tb654 O703 2.413 . S
Tb654 O705 2.362 . S
Tb654 O706 2.421 . S
Tb654 C718 2.833 . S
C655 C658 1.432 . S
C655 C659 1.414 . S
C655 N662 1.359 . S
C656 C658 1.417 . S
C656 C660 1.432 . S
C656 C668 1.410 . S
C657 C659 1.444 . S
C657 C660 1.317 . S
C657 H680 0.929 . S
C658 C655 1.432 . S
C658 C656 1.417 . S
C658 N666 1.360 . S
C659 C655 1.414 . S
C659 C657 1.444 . S
C659 C664 1.385 . S
C660 C656 1.432 . S
C660 C657 1.317 . S
C660 H672 0.930 . S
C661 C663 1.392 . S
C661 C664 1.370 . S
C661 H673 0.931 . S
N662 C655 1.359 . S
N662 C663 1.327 . S
N662 Tb665 2.600 . S
C663 C661 1.392 . S
C663 N662 1.327 . S
C663 H670 0.930 . S
C664 C659 1.385 . S
C664 C661 1.370 . S
C664 H683 0.930 . S
Tb665 N662 2.600 . S
Tb665 N666 2.660 . S
Tb665 O699 2.362 . S
Tb665 O700 2.421 . S
Tb665 O704 2.546 . S
Tb665 O705 2.610 . S
Tb665 O707 2.320 . S
Tb665 O708 2.552 . S
Tb665 O709 2.413 . S
Tb665 C729 2.833 . S
N666 C658 1.360 . S
N666 Tb665 2.660 . S
N666 C667 1.305 . S
C667 N666 1.305 . S
C667 C669 1.407 . S
C667 H674 0.930 . S
C668 C656 1.410 . S
C668 C669 1.345 . S
C668 H676 0.930 . S
C669 C667 1.407 . S
C669 C668 1.345 . S
C669 H671 0.930 . S
H670 C663 0.930 . S
H671 C669 0.930 . S
H672 C660 0.930 . S
H673 C661 0.931 . S
H674 C667 0.930 . S
H675 C689 0.930 . S
H676 C668 0.930 . S
H677 C695 0.930 . S
H678 C686 0.930 . S
H679 C693 0.931 . S
H680 C657 0.929 . S
H681 C687 0.930 . S
H682 C720 0.930 . S
H683 C664 0.930 . S
H684 C719 0.929 . S
N685 Tb654 2.660 . S
N685 C686 1.305 . S
N685 C690 1.360 . S
C686 H678 0.930 . S
C686 N685 1.305 . S
C686 C689 1.407 . S
C687 H681 0.930 . S
C687 C688 1.410 . S
C687 C689 1.345 . S
C688 C687 1.410 . S
C688 C690 1.417 . S
C688 C720 1.432 . S
C689 H675 0.930 . S
C689 C686 1.407 . S
C689 C687 1.345 . S
C690 N685 1.360 . S
C690 C688 1.417 . S
C690 C694 1.432 . S
H691 C696 0.930 . S
N692 Tb654 2.600 . S
N692 C694 1.359 . S
N692 C695 1.327 . S
C693 H679 0.931 . S
C693 C695 1.392 . S
C693 C696 1.370 . S
C694 C690 1.432 . S
C694 N692 1.359 . S
C694 C697 1.414 . S
C695 H677 0.930 . S
C695 N692 1.327 . S
C695 C693 1.392 . S
C696 H691 0.930 . S
C696 C693 1.370 . S
C696 C697 1.385 . S
C697 C694 1.414 . S
C697 C696 1.385 . S
C697 C719 1.444 . S
O698 Tb654 2.546 . S
O698 C718 1.251 . S
O699 Tb654 2.610 . S
O699 Tb665 2.362 . S
O699 C710 1.283 . S
O700 Tb665 2.421 . S
O700 C717 1.262 . S
O701 Tb654 2.320 . S
O701 C717 1.260 . S
O702 Tb654 2.552 . S
O702 C710 1.243 . S
O703 Tb654 2.413 . S
O703 C718 1.256 . S
O704 Tb665 2.546 . S
O704 C729 1.251 . S
O705 Tb654 2.362 . S
O705 Tb665 2.610 . S
O705 C721 1.283 . S
O706 Tb654 2.421 . S
O706 C728 1.262 . S
O707 Tb665 2.320 . S
O707 C728 1.260 . S
O708 Tb665 2.552 . S
O708 C721 1.243 . S
O709 Tb665 2.413 . S
O709 C729 1.256 . S
C710 O699 1.283 . S
C710 O702 1.243 . S
C711 C713 1.382 . S
C711 C715 1.393 . S
C711 C718 1.500 . S
C712 C713 1.400 . S
C712 C714 1.384 . S
C713 C711 1.382 . S
C713 C712 1.400 . S
C713 H730 0.930 . S
C714 C712 1.384 . S
C714 C716 1.392 . S
C714 H731 0.931 . S
C715 C711 1.393 . S
C715 C716 1.401 . S
C715 H732 0.930 . S
C716 C714 1.392 . S
C716 C715 1.401 . S
C716 H733 0.930 . S
C717 O700 1.262 . S
C717 O701 1.260 . S
C718 Tb654 2.833 . S
C718 O698 1.251 . S
C718 O703 1.256 . S
C718 C711 1.500 . S
C719 H684 0.929 . S
C719 C697 1.444 . S
C719 C720 1.317 . S
C720 H682 0.930 . S
C720 C688 1.432 . S
C720 C719 1.317 . S
C721 O705 1.283 . S
C721 O708 1.243 . S
C722 C723 1.382 . S
C722 C726 1.393 . S
C722 C729 1.500 . S
C723 C722 1.382 . S
C723 C724 1.400 . S
C723 H734 0.930 . S
C724 C723 1.400 . S
C724 C725 1.384 . S
C725 C724 1.384 . S
C725 C727 1.392 . S
C725 H735 0.931 . S
C726 C722 1.393 . S
C726 C727 1.401 . S
C726 H736 0.930 . S
C727 C725 1.392 . S
C727 C726 1.401 . S
C727 H737 0.930 . S
C728 O706 1.262 . S
C728 O707 1.260 . S
C729 Tb665 2.833 . S
C729 O704 1.251 . S
C729 O709 1.256 . S
C729 C722 1.500 . S
H730 C713 0.930 . S
H731 C714 0.931 . S
H732 C715 0.930 . S
H733 C716 0.930 . S
H734 C723 0.930 . S
H735 C725 0.931 . S
H736 C726 0.930 . S
H737 C727 0.930 . S
Tb738 N769 2.660 . S
Tb738 N776 2.600 . S
Tb738 O782 2.546 . S
Tb738 O783 2.610 . S
Tb738 O785 2.320 . S
Tb738 O786 2.552 . S
Tb738 O787 2.413 . S
Tb738 O789 2.362 . S
Tb738 O790 2.421 . S
Tb738 C802 2.833 . S
C739 C742 1.432 . S
C739 C743 1.414 . S
C739 N746 1.359 . S
C740 C742 1.417 . S
C740 C744 1.432 . S
C740 C752 1.410 . S
C741 C743 1.444 . S
C741 C744 1.317 . S
C741 H764 0.929 . S
C742 C739 1.432 . S
C742 C740 1.417 . S
C742 N750 1.360 . S
C743 C739 1.414 . S
C743 C741 1.444 . S
C743 C748 1.385 . S
C744 C740 1.432 . S
C744 C741 1.317 . S
C744 H756 0.930 . S
C745 C747 1.392 . S
C745 C748 1.370 . S
C745 H757 0.931 . S
N746 C739 1.359 . S
N746 C747 1.327 . S
N746 Tb749 2.600 . S
C747 C745 1.392 . S
C747 N746 1.327 . S
C747 H754 0.930 . S
C748 C743 1.385 . S
C748 C745 1.370 . S
C748 H767 0.930 . S
Tb749 N746 2.600 . S
Tb749 N750 2.660 . S
Tb749 O783 2.362 . S
Tb749 O784 2.421 . S
Tb749 O788 2.546 . S
Tb749 O789 2.610 . S
Tb749 O791 2.320 . S
Tb749 O792 2.552 . S
Tb749 O793 2.413 . S
Tb749 C813 2.833 . S
N750 C742 1.360 . S
N750 Tb749 2.660 . S
N750 C751 1.305 . S
C751 N750 1.305 . S
C751 C753 1.407 . S
C751 H758 0.930 . S
C752 C740 1.410 . S
C752 C753 1.345 . S
C752 H760 0.930 . S
C753 C751 1.407 . S
C753 C752 1.345 . S
C753 H755 0.930 . S
H754 C747 0.930 . S
H755 C753 0.930 . S
H756 C744 0.930 . S
H757 C745 0.931 . S
H758 C751 0.930 . S
H759 C773 0.930 . S
H760 C752 0.930 . S
H761 C779 0.930 . S
H762 C770 0.930 . S
H763 C777 0.931 . S
H764 C741 0.929 . S
H765 C771 0.930 . S
H766 C804 0.930 . S
H767 C748 0.930 . S
H768 C803 0.929 . S
N769 Tb738 2.660 . S
N769 C770 1.305 . S
N769 C774 1.360 . S
C770 H762 0.930 . S
C770 N769 1.305 . S
C770 C773 1.407 . S
C771 H765 0.930 . S
C771 C772 1.410 . S
C771 C773 1.345 . S
C772 C771 1.410 . S
C772 C774 1.417 . S
C772 C804 1.432 . S
C773 H759 0.930 . S
C773 C770 1.407 . S
C773 C771 1.345 . S
C774 N769 1.360 . S
C774 C772 1.417 . S
C774 C778 1.432 . S
H775 C780 0.930 . S
N776 Tb738 2.600 . S
N776 C778 1.359 . S
N776 C779 1.327 . S
C777 H763 0.931 . S
C777 C779 1.392 . S
C777 C780 1.370 . S
C778 C774 1.432 . S
C778 N776 1.359 . S
C778 C781 1.414 . S
C779 H761 0.930 . S
C779 N776 1.327 . S
C779 C777 1.392 . S
C780 H775 0.930 . S
C780 C777 1.370 . S
C780 C781 1.385 . S
C781 C778 1.414 . S
C781 C780 1.385 . S
C781 C803 1.444 . S
O782 Tb738 2.546 . S
O782 C802 1.251 . S
O783 Tb738 2.610 . S
O783 Tb749 2.362 . S
O783 C794 1.283 . S
O784 Tb749 2.421 . S
O784 C801 1.262 . S
O785 Tb738 2.320 . S
O785 C801 1.260 . S
O786 Tb738 2.552 . S
O786 C794 1.243 . S
O787 Tb738 2.413 . S
O787 C802 1.256 . S
O788 Tb749 2.546 . S
O788 C813 1.251 . S
O789 Tb738 2.362 . S
O789 Tb749 2.610 . S
O789 C805 1.283 . S
O790 Tb738 2.421 . S
O790 C812 1.262 . S
O791 Tb749 2.320 . S
O791 C812 1.260 . S
O792 Tb749 2.552 . S
O792 C805 1.243 . S
O793 Tb749 2.413 . S
O793 C813 1.256 . S
C794 O783 1.283 . S
C794 O786 1.243 . S
C795 C797 1.382 . S
C795 C799 1.393 . S
C795 C802 1.500 . S
C796 C797 1.400 . S
C796 C798 1.384 . S
C797 C795 1.382 . S
C797 C796 1.400 . S
C797 H814 0.930 . S
C798 C796 1.384 . S
C798 C800 1.392 . S
C798 H815 0.931 . S
C799 C795 1.393 . S
C799 C800 1.401 . S
C799 H816 0.930 . S
C800 C798 1.392 . S
C800 C799 1.401 . S
C800 H817 0.930 . S
C801 O784 1.262 . S
C801 O785 1.260 . S
C802 Tb738 2.833 . S
C802 O782 1.251 . S
C802 O787 1.256 . S
C802 C795 1.500 . S
C803 H768 0.929 . S
C803 C781 1.444 . S
C803 C804 1.317 . S
C804 H766 0.930 . S
C804 C772 1.432 . S
C804 C803 1.317 . S
C805 O789 1.283 . S
C805 O792 1.243 . S
C806 C807 1.382 . S
C806 C810 1.393 . S
C806 C813 1.500 . S
C807 C806 1.382 . S
C807 C808 1.400 . S
C807 H818 0.930 . S
C808 C807 1.400 . S
C808 C809 1.384 . S
C809 C808 1.384 . S
C809 C811 1.392 . S
C809 H819 0.931 . S
C810 C806 1.393 . S
C810 C811 1.401 . S
C810 H820 0.930 . S
C811 C809 1.392 . S
C811 C810 1.401 . S
C811 H821 0.930 . S
C812 O790 1.262 . S
C812 O791 1.260 . S
C813 Tb749 2.833 . S
C813 O788 1.251 . S
C813 O793 1.256 . S
C813 C806 1.500 . S
H814 C797 0.930 . S
H815 C798 0.931 . S
H816 C799 0.930 . S
H817 C800 0.930 . S
H818 C807 0.930 . S
H819 C809 0.931 . S
H820 C810 0.930 . S
H821 C811 0.930 . S
Tb822 N853 2.660 . S
Tb822 N860 2.600 . S
Tb822 O866 2.546 . S
Tb822 O867 2.610 . S
Tb822 O869 2.320 . S
Tb822 O870 2.552 . S
Tb822 O871 2.413 . S
Tb822 O873 2.362 . S
Tb822 O874 2.421 . S
Tb822 C886 2.833 . S
C823 C826 1.432 . S
C823 C827 1.414 . S
C823 N830 1.359 . S
C824 C826 1.417 . S
C824 C828 1.432 . S
C824 C836 1.410 . S
C825 C827 1.444 . S
C825 C828 1.317 . S
C825 H848 0.929 . S
C826 C823 1.432 . S
C826 C824 1.417 . S
C826 N834 1.360 . S
C827 C823 1.414 . S
C827 C825 1.444 . S
C827 C832 1.385 . S
C828 C824 1.432 . S
C828 C825 1.317 . S
C828 H840 0.930 . S
C829 C831 1.392 . S
C829 C832 1.370 . S
C829 H841 0.931 . S
N830 C823 1.359 . S
N830 C831 1.327 . S
N830 Tb833 2.600 . S
C831 C829 1.392 . S
C831 N830 1.327 . S
C831 H838 0.930 . S
C832 C827 1.385 . S
C832 C829 1.370 . S
C832 H851 0.930 . S
Tb833 N830 2.600 . S
Tb833 N834 2.660 . S
Tb833 O867 2.362 . S
Tb833 O868 2.421 . S
Tb833 O872 2.546 . S
Tb833 O873 2.610 . S
Tb833 O875 2.320 . S
Tb833 O876 2.552 . S
Tb833 O877 2.413 . S
Tb833 C897 2.833 . S
N834 C826 1.360 . S
N834 Tb833 2.660 . S
N834 C835 1.305 . S
C835 N834 1.305 . S
C835 C837 1.407 . S
C835 H842 0.930 . S
C836 C824 1.410 . S
C836 C837 1.345 . S
C836 H844 0.930 . S
C837 C835 1.407 . S
C837 C836 1.345 . S
C837 H839 0.930 . S
H838 C831 0.930 . S
H839 C837 0.930 . S
H840 C828 0.930 . S
H841 C829 0.931 . S
H842 C835 0.930 . S
H843 C857 0.930 . S
H844 C836 0.930 . S
H845 C863 0.930 . S
H846 C854 0.930 . S
H847 C861 0.931 . S
H848 C825 0.929 . S
H849 C855 0.930 . S
H850 C888 0.930 . S
H851 C832 0.930 . S
H852 C887 0.929 . S
N853 Tb822 2.660 . S
N853 C854 1.305 . S
N853 C858 1.360 . S
C854 H846 0.930 . S
C854 N853 1.305 . S
C854 C857 1.407 . S
C855 H849 0.930 . S
C855 C856 1.410 . S
C855 C857 1.345 . S
C856 C855 1.410 . S
C856 C858 1.417 . S
C856 C888 1.432 . S
C857 H843 0.930 . S
C857 C854 1.407 . S
C857 C855 1.345 . S
C858 N853 1.360 . S
C858 C856 1.417 . S
C858 C862 1.432 . S
H859 C864 0.930 . S
N860 Tb822 2.600 . S
N860 C862 1.359 . S
N860 C863 1.327 . S
C861 H847 0.931 . S
C861 C863 1.392 . S
C861 C864 1.370 . S
C862 C858 1.432 . S
C862 N860 1.359 . S
C862 C865 1.414 . S
C863 H845 0.930 . S
C863 N860 1.327 . S
C863 C861 1.392 . S
C864 H859 0.930 . S
C864 C861 1.370 . S
C864 C865 1.385 . S
C865 C862 1.414 . S
C865 C864 1.385 . S
C865 C887 1.444 . S
O866 Tb822 2.546 . S
O866 C886 1.251 . S
O867 Tb822 2.610 . S
O867 Tb833 2.362 . S
O867 C878 1.283 . S
O868 Tb833 2.421 . S
O868 C885 1.262 . S
O869 Tb822 2.320 . S
O869 C885 1.260 . S
O870 Tb822 2.552 . S
O870 C878 1.243 . S
O871 Tb822 2.413 . S
O871 C886 1.256 . S
O872 Tb833 2.546 . S
O872 C897 1.251 . S
O873 Tb822 2.362 . S
O873 Tb833 2.610 . S
O873 C889 1.283 . S
O874 Tb822 2.421 . S
O874 C896 1.262 . S
O875 Tb833 2.320 . S
O875 C896 1.260 . S
O876 Tb833 2.552 . S
O876 C889 1.243 . S
O877 Tb833 2.413 . S
O877 C897 1.256 . S
C878 O867 1.283 . S
C878 O870 1.243 . S
C879 C881 1.382 . S
C879 C883 1.393 . S
C879 C886 1.500 . S
C880 C881 1.400 . S
C880 C882 1.384 . S
C881 C879 1.382 . S
C881 C880 1.400 . S
C881 H898 0.930 . S
C882 C880 1.384 . S
C882 C884 1.392 . S
C882 H899 0.931 . S
C883 C879 1.393 . S
C883 C884 1.401 . S
C883 H900 0.930 . S
C884 C882 1.392 . S
C884 C883 1.401 . S
C884 H901 0.930 . S
C885 O868 1.262 . S
C885 O869 1.260 . S
C886 Tb822 2.833 . S
C886 O866 1.251 . S
C886 O871 1.256 . S
C886 C879 1.500 . S
C887 H852 0.929 . S
C887 C865 1.444 . S
C887 C888 1.317 . S
C888 H850 0.930 . S
C888 C856 1.432 . S
C888 C887 1.317 . S
C889 O873 1.283 . S
C889 O876 1.243 . S
C890 C891 1.382 . S
C890 C894 1.393 . S
C890 C897 1.500 . S
C891 C890 1.382 . S
C891 C892 1.400 . S
C891 H902 0.930 . S
C892 C891 1.400 . S
C892 C893 1.384 . S
C893 C892 1.384 . S
C893 C895 1.392 . S
C893 H903 0.931 . S
C894 C890 1.393 . S
C894 C895 1.401 . S
C894 H904 0.930 . S
C895 C893 1.392 . S
C895 C894 1.401 . S
C895 H905 0.930 . S
C896 O874 1.262 . S
C896 O875 1.260 . S
C897 Tb833 2.833 . S
C897 O872 1.251 . S
C897 O877 1.256 . S
C897 C890 1.500 . S
H898 C881 0.930 . S
H899 C882 0.931 . S
H900 C883 0.930 . S
H901 C884 0.930 . S
H902 C891 0.930 . S
H903 C893 0.931 . S
H904 C894 0.930 . S
H905 C895 0.930 . S
Tb906 N937 2.660 . S
Tb906 N944 2.600 . S
Tb906 O950 2.546 . S
Tb906 O951 2.610 . S
Tb906 O953 2.320 . S
Tb906 O954 2.552 . S
Tb906 O955 2.413 . S
Tb906 O957 2.362 . S
Tb906 O958 2.421 . S
Tb906 C970 2.833 . S
C907 C910 1.432 . S
C907 C911 1.414 . S
C907 N914 1.359 . S
C908 C910 1.417 . S
C908 C912 1.432 . S
C908 C920 1.410 . S
C909 C911 1.444 . S
C909 C912 1.317 . S
C909 H932 0.929 . S
C910 C907 1.432 . S
C910 C908 1.417 . S
C910 N918 1.360 . S
C911 C907 1.414 . S
C911 C909 1.444 . S
C911 C916 1.385 . S
C912 C908 1.432 . S
C912 C909 1.317 . S
C912 H924 0.930 . S
C913 C915 1.392 . S
C913 C916 1.370 . S
C913 H925 0.931 . S
N914 C907 1.359 . S
N914 C915 1.327 . S
N914 Tb917 2.600 . S
C915 C913 1.392 . S
C915 N914 1.327 . S
C915 H922 0.930 . S
C916 C911 1.385 . S
C916 C913 1.370 . S
C916 H935 0.930 . S
Tb917 N914 2.600 . S
Tb917 N918 2.660 . S
Tb917 O951 2.362 . S
Tb917 O952 2.421 . S
Tb917 O956 2.546 . S
Tb917 O957 2.610 . S
Tb917 O959 2.320 . S
Tb917 O960 2.552 . S
Tb917 O961 2.413 . S
Tb917 C981 2.833 . S
N918 C910 1.360 . S
N918 Tb917 2.660 . S
N918 C919 1.305 . S
C919 N918 1.305 . S
C919 C921 1.407 . S
C919 H926 0.930 . S
C920 C908 1.410 . S
C920 C921 1.345 . S
C920 H928 0.930 . S
C921 C919 1.407 . S
C921 C920 1.345 . S
C921 H923 0.930 . S
H922 C915 0.930 . S
H923 C921 0.930 . S
H924 C912 0.930 . S
H925 C913 0.931 . S
H926 C919 0.930 . S
H927 C941 0.930 . S
H928 C920 0.930 . S
H929 C947 0.930 . S
H930 C938 0.930 . S
H931 C945 0.931 . S
H932 C909 0.929 . S
H933 C939 0.930 . S
H934 C972 0.930 . S
H935 C916 0.930 . S
H936 C971 0.929 . S
N937 Tb906 2.660 . S
N937 C938 1.305 . S
N937 C942 1.360 . S
C938 H930 0.930 . S
C938 N937 1.305 . S
C938 C941 1.407 1_655 S
C939 H933 0.930 . S
C939 C940 1.410 . S
C939 C941 1.345 . S
C940 C939 1.410 . S
C940 C942 1.417 1_455 S
C940 C972 1.432 . S
C941 H927 0.930 . S
C941 C938 1.407 1_455 S
C941 C939 1.345 . S
C942 N937 1.360 . S
C942 C940 1.417 1_655 S
C942 C946 1.432 . S
H943 C948 0.930 . S
N944 Tb906 2.600 . S
N944 C946 1.359 . S
N944 C947 1.327 . S
C945 H931 0.931 . S
C945 C947 1.392 . S
C945 C948 1.370 . S
C946 C942 1.432 . S
C946 N944 1.359 . S
C946 C949 1.414 . S
C947 H929 0.930 . S
C947 N944 1.327 . S
C947 C945 1.392 . S
C948 H943 0.930 . S
C948 C945 1.370 . S
C948 C949 1.385 . S
C949 C946 1.414 . S
C949 C948 1.385 . S
C949 C971 1.444 1_655 S
O950 Tb906 2.546 . S
O950 C970 1.251 . S
O951 Tb906 2.610 . S
O951 Tb917 2.362 . S
O951 C962 1.283 . S
O952 Tb917 2.421 . S
O952 C969 1.262 . S
O953 Tb906 2.320 . S
O953 C969 1.260 . S
O954 Tb906 2.552 . S
O954 C962 1.243 . S
O955 Tb906 2.413 . S
O955 C970 1.256 . S
O956 Tb917 2.546 . S
O956 C981 1.251 . S
O957 Tb906 2.362 . S
O957 Tb917 2.610 . S
O957 C973 1.283 . S
O958 Tb906 2.421 . S
O958 C980 1.262 . S
O959 Tb917 2.320 . S
O959 C980 1.260 . S
O960 Tb917 2.552 . S
O960 C973 1.243 . S
O961 Tb917 2.413 . S
O961 C981 1.256 . S
C962 O951 1.283 . S
C962 O954 1.243 . S
C963 C965 1.382 . S
C963 C967 1.393 . S
C963 C970 1.500 . S
C964 C965 1.400 . S
C964 C966 1.384 . S
C965 C963 1.382 . S
C965 C964 1.400 . S
C965 H982 0.930 . S
C966 C964 1.384 . S
C966 C968 1.392 . S
C966 H983 0.931 . S
C967 C963 1.393 . S
C967 C968 1.401 . S
C967 H984 0.930 . S
C968 C966 1.392 . S
C968 C967 1.401 . S
C968 H985 0.930 . S
C969 O952 1.262 . S
C969 O953 1.260 . S
C970 Tb906 2.833 . S
C970 O950 1.251 . S
C970 O955 1.256 . S
C970 C963 1.500 . S
C971 H936 0.929 . S
C971 C949 1.444 1_455 S
C971 C972 1.317 . S
C972 H934 0.930 . S
C972 C940 1.432 . S
C972 C971 1.317 . S
C973 O957 1.283 . S
C973 O960 1.243 . S
C974 C975 1.382 . S
C974 C978 1.393 . S
C974 C981 1.500 . S
C975 C974 1.382 . S
C975 C976 1.400 . S
C975 H986 0.930 . S
C976 C975 1.400 . S
C976 C977 1.384 . S
C977 C976 1.384 . S
C977 C979 1.392 . S
C977 H987 0.931 . S
C978 C974 1.393 . S
C978 C979 1.401 . S
C978 H988 0.930 . S
C979 C977 1.392 . S
C979 C978 1.401 . S
C979 H989 0.930 . S
C980 O958 1.262 . S
C980 O959 1.260 . S
C981 Tb917 2.833 . S
C981 O956 1.251 . S
C981 O961 1.256 . S
C981 C974 1.500 . S
H982 C965 0.930 . S
H983 C966 0.931 . S
H984 C967 0.930 . S
H985 C968 0.930 . S
H986 C975 0.930 . S
H987 C977 0.931 . S
H988 C978 0.930 . S
H989 C979 0.930 . S
C990 C991 1.387 . S
C990 H994 0.950 . S
C990 C999 1.390 . S
C991 C990 1.387 . S
C991 C993 1.387 . S
H992 C999 0.910 1_556 S
C993 C991 1.387 . S
C993 C995 1.390 . S
C993 H997 0.950 . S
H994 C990 0.950 . S
C995 C993 1.390 . S
C995 C996 1.387 . S
C995 H998 0.950 . S
C996 C995 1.387 . S
C996 C999 1.387 . S
H997 C993 0.950 . S
H998 C995 0.950 . S
C999 C990 1.390 . S
C999 H992 0.910 1_554 S
C999 C996 1.387 . S
C1000 C1001 1.387 . S
C1000 H1004 0.950 . S
C1000 C1009 1.390 . S
C1001 C1000 1.387 . S
C1001 C1003 1.387 . S
H1002 C1009 0.950 . S
C1003 C1001 1.387 . S
C1003 C1005 1.390 . S
C1003 H1007 0.950 . S
H1004 C1000 0.950 . S
C1005 C1003 1.390 . S
C1005 C1006 1.387 . S
C1005 H1008 0.950 . S
C1006 C1005 1.387 . S
C1006 C1009 1.387 . S
H1007 C1003 0.950 . S
H1008 C1005 0.950 . S
C1009 C1000 1.390 . S
C1009 H1002 0.950 . S
C1009 C1006 1.387 . S
C1010 C1011 1.387 . S
C1010 H1014 0.950 . S
C1010 C1019 1.390 . S
C1011 C1010 1.387 . S
C1011 C1013 1.387 . S
H1012 C1019 0.950 . S
C1013 C1011 1.387 . S
C1013 C1015 1.390 . S
C1013 H1017 0.950 . S
H1014 C1010 0.950 . S
C1015 C1013 1.390 . S
C1015 C1016 1.387 . S
C1015 H1018 0.950 . S
C1016 C1015 1.387 . S
C1016 C1019 1.387 . S
H1017 C1013 0.950 . S
H1018 C1015 0.950 . S
C1019 C1010 1.390 . S
C1019 H1012 0.950 . S
C1019 C1016 1.387 . S
C1020 C1021 1.387 . S
C1020 H1024 0.950 . S
C1020 C1029 1.390 . S
C1021 C1020 1.387 . S
C1021 C1023 1.387 . S
H1022 C1029 0.950 . S
C1023 C1021 1.387 . S
C1023 C1025 1.390 . S
C1023 H1027 0.950 1_556 S
H1024 C1020 0.950 . S
C1025 C1023 1.390 . S
C1025 C1026 1.387 . S
C1025 H1028 0.950 1_556 S
C1026 C1025 1.387 . S
C1026 C1029 1.387 . S
H1027 C1023 0.950 1_554 S
H1028 C1025 0.950 1_554 S
C1029 C1020 1.390 . S
C1029 H1022 0.950 . S
C1029 C1026 1.387 . S
C1030 C1031 1.387 . S
C1030 H1034 0.950 . S
C1030 C1039 1.390 . S
C1031 C1030 1.387 . S
C1031 C1033 1.387 . S
H1032 C1039 0.950 . S
C1033 C1031 1.387 . S
C1033 C1035 1.390 . S
C1033 H1037 0.950 . S
H1034 C1030 0.950 . S
C1035 C1033 1.390 . S
C1035 C1036 1.387 . S
C1035 H1038 0.950 . S
C1036 C1035 1.387 . S
C1036 C1039 1.387 . S
H1037 C1033 0.950 . S
H1038 C1035 0.950 . S
C1039 C1030 1.390 . S
C1039 H1032 0.950 . S
C1039 C1036 1.387 . S
C1040 C1041 1.387 . S
C1040 H1044 0.950 . S
C1040 C1049 1.390 . S
C1041 C1040 1.387 . S
C1041 C1043 1.387 . S
H1042 C1049 0.950 . S
C1043 C1041 1.387 . S
C1043 C1045 1.390 1_556 S
C1043 H1047 0.950 1_556 S
H1044 C1040 0.950 . S
C1045 C1043 1.390 1_554 S
C1045 C1046 1.387 1_554 S
C1045 H1048 0.950 . S
C1046 C1045 1.387 1_556 S
C1046 C1049 1.387 . S
H1047 C1043 0.950 1_554 S
H1048 C1045 0.950 . S
C1049 C1040 1.390 . S
C1049 H1042 0.950 . S
C1049 C1046 1.387 . S
C1050 C1051 1.387 . S
C1050 H1054 0.950 . S
C1050 C1059 1.390 . S
C1051 C1050 1.387 . S
C1051 C1053 1.412 . S
H1052 C1059 0.950 . S
C1053 C1051 1.412 . S
C1053 C1055 1.384 1_556 S
C1053 H1057 0.931 1_556 S
H1054 C1050 0.950 . S
C1055 C1053 1.384 1_554 S
C1055 C1056 1.387 1_554 S
C1055 H1058 0.950 . S
C1056 C1055 1.387 1_556 S
C1056 C1059 1.387 . S
H1057 C1053 0.931 1_554 S
H1058 C1055 0.950 . S
C1059 C1050 1.390 . S
C1059 H1052 0.950 . S
C1059 C1056 1.387 . S
C1060 C1061 1.387 . S
C1060 H1064 0.950 . S
C1060 C1069 1.390 . S
C1061 C1060 1.387 . S
C1061 C1063 1.387 . S
H1062 C1069 0.950 . S
C1063 C1061 1.387 . S
C1063 C1065 1.390 . S
C1063 H1067 0.950 . S
H1064 C1060 0.950 . S
C1065 C1063 1.390 . S
C1065 C1066 1.387 . S
C1065 H1068 0.950 . S
C1066 C1065 1.387 . S
C1066 C1069 1.387 . S
H1067 C1063 0.950 . S
H1068 C1065 0.950 . S
C1069 C1060 1.390 . S
C1069 H1062 0.950 . S
C1069 C1066 1.387 . S
C1070 C1071 1.396 . S
C1070 H1074 0.943 1_556 S
C1070 C1079 1.388 1_556 S
C1071 C1070 1.396 . S
C1071 C1073 1.387 . S
H1072 C1079 0.950 . S
C1073 C1071 1.387 . S
C1073 C1075 1.390 . S
C1073 H1077 0.950 . S
H1074 C1070 0.943 1_554 S
C1075 C1073 1.390 . S
C1075 C1076 1.387 . S
C1075 H1078 0.950 . S
C1076 C1075 1.387 . S
C1076 C1079 1.387 1_556 S
H1077 C1073 0.950 . S
H1078 C1075 0.950 . S
C1079 C1070 1.388 1_554 S
C1079 H1072 0.950 . S
C1079 C1076 1.387 1_554 S
C1080 C1081 1.387 . S
C1080 H1084 0.950 . S
C1080 C1089 1.390 . S
C1081 C1080 1.387 . S
C1081 C1083 1.387 . S
H1082 C1089 0.950 . S
C1083 C1081 1.387 . S
C1083 C1085 1.390 . S
C1083 H1087 0.950 . S
H1084 C1080 0.950 . S
C1085 C1083 1.390 . S
C1085 C1086 1.387 . S
C1085 H1088 0.950 . S
C1086 C1085 1.387 . S
C1086 C1089 1.387 . S
H1087 C1083 0.950 . S
H1088 C1085 0.950 . S
C1089 C1080 1.390 . S
C1089 H1082 0.950 . S
C1089 C1086 1.387 . S
C1090 C1091 1.387 . S
C1090 H1094 0.950 . S
C1090 C1099 1.390 . S
C1091 C1090 1.387 . S
C1091 C1093 1.387 . S
H1092 C1099 0.950 1_556 S
C1093 C1091 1.387 . S
C1093 C1095 1.390 . S
C1093 H1097 0.950 . S
H1094 C1090 0.950 . S
C1095 C1093 1.390 . S
C1095 C1096 1.387 . S
C1095 H1098 0.950 . S
C1096 C1095 1.387 . S
C1096 C1099 1.387 . S
H1097 C1093 0.950 . S
H1098 C1095 0.950 . S
C1099 C1090 1.390 . S
C1099 H1092 0.950 1_554 S
C1099 C1096 1.387 . S
C1100 C1101 1.387 . S
C1100 H1104 0.950 . S
C1100 C1109 1.390 . S
C1101 C1100 1.387 . S
C1101 C1103 1.387 . S
H1102 C1109 0.950 . S
C1103 C1101 1.387 . S
C1103 C1105 1.390 . S
C1103 H1107 0.950 . S
H1104 C1100 0.950 . S
C1105 C1103 1.390 . S
C1105 C1106 1.387 . S
C1105 H1108 0.950 . S
C1106 C1105 1.387 . S
C1106 C1109 1.387 . S
H1107 C1103 0.950 . S
H1108 C1105 0.950 . S
C1109 C1100 1.390 . S
C1109 H1102 0.950 . S
C1109 C1106 1.387 . S
C1110 C1111 1.387 . S
C1110 H1114 0.950 . S
C1110 C1119 1.390 1_655 S
C1111 C1110 1.387 . S
C1111 C1113 1.387 . S
H1112 C1119 0.950 . S
C1113 C1111 1.387 . S
C1113 C1115 1.390 1_655 S
C1113 H1117 0.950 . S
H1114 C1110 0.950 . S
C1115 C1113 1.390 1_455 S
C1115 C1116 1.387 . S
C1115 H1118 0.950 . S
C1116 C1115 1.387 . S
C1116 C1119 1.387 . S
H1117 C1113 0.950 . S
H1118 C1115 0.950 . S
C1119 C1110 1.390 1_455 S
C1119 H1112 0.950 . S
C1119 C1116 1.387 . S
C1120 C1121 1.387 . S
C1120 H1124 0.950 . S
C1120 C1129 1.390 . S
C1121 C1120 1.387 . S
C1121 C1123 1.387 . S
H1122 C1129 0.950 . S
C1123 C1121 1.387 . S
C1123 C1125 1.390 . S
C1123 H1127 0.950 . S
H1124 C1120 0.950 . S
C1125 C1123 1.390 . S
C1125 C1126 1.387 . S
C1125 H1128 0.950 . S
C1126 C1125 1.387 . S
C1126 C1129 1.387 . S
H1127 C1123 0.950 . S
H1128 C1125 0.950 . S
C1129 C1120 1.390 . S
C1129 H1122 0.950 . S
C1129 C1126 1.387 . S
C1130 C1131 1.387 . S
C1130 H1134 0.950 . S
C1130 C1139 1.390 . S
C1131 C1130 1.387 . S
C1131 C1133 1.387 . S
H1132 C1139 0.950 . S
C1133 C1131 1.387 . S
C1133 C1135 1.390 1_545 S
C1133 H1137 0.950 . S
H1134 C1130 0.950 . S
C1135 C1133 1.390 1_565 S
C1135 C1136 1.387 . S
C1135 H1138 0.950 . S
C1136 C1135 1.387 . S
C1136 C1139 1.387 1_565 S
H1137 C1133 0.950 . S
H1138 C1135 0.950 . S
C1139 C1130 1.390 . S
C1139 H1132 0.950 . S
C1139 C1136 1.387 1_545 S
C1140 C1141 1.387 . S
C1140 H1144 0.950 . S
C1140 C1149 1.390 . S
C1141 C1140 1.387 . S
C1141 C1143 1.387 . S
H1142 C1149 0.950 . S
C1143 C1141 1.387 . S
C1143 C1145 1.390 . S
C1143 H1147 0.950 . S
H1144 C1140 0.950 . S
C1145 C1143 1.390 . S
C1145 C1146 1.387 . S
C1145 H1148 0.950 . S
C1146 C1145 1.387 . S
C1146 C1149 1.387 . S
H1147 C1143 0.950 . S
H1148 C1145 0.950 . S
C1149 C1140 1.390 . S
C1149 H1142 0.950 . S
C1149 C1146 1.387 . S
C1150 C1151 1.387 . S
C1150 H1154 0.950 . S
C1150 C1159 1.390 . S
C1151 C1150 1.387 . S
C1151 C1153 1.387 . S
H1152 C1159 0.950 . S
C1153 C1151 1.387 . S
C1153 C1155 1.390 . S
C1153 H1157 0.950 . S
H1154 C1150 0.950 . S
C1155 C1153 1.390 . S
C1155 C1156 1.387 . S
C1155 H1158 0.950 . S
C1156 C1155 1.387 . S
C1156 C1159 1.387 . S
H1157 C1153 0.950 . S
H1158 C1155 0.950 . S
C1159 C1150 1.390 . S
C1159 H1152 0.950 . S
C1159 C1156 1.387 . S
C1160 C1161 1.387 . S
C1160 H1164 0.950 . S
C1160 C1169 1.390 . S
C1161 C1160 1.387 . S
C1161 C1163 1.387 . S
H1162 C1169 0.950 . S
C1163 C1161 1.387 . S
C1163 C1165 1.390 . S
C1163 H1167 0.950 . S
H1164 C1160 0.950 . S
C1165 C1163 1.390 . S
C1165 C1166 1.387 . S
C1165 H1168 0.950 . S
C1166 C1165 1.387 . S
C1166 C1169 1.387 . S
H1167 C1163 0.950 . S
H1168 C1165 0.950 . S
C1169 C1160 1.390 . S
C1169 H1162 0.950 . S
C1169 C1166 1.387 . S
C1170 C1171 1.387 . S
C1170 H1174 0.950 . S
C1170 C1179 1.390 . S
C1171 C1170 1.387 . S
C1171 C1173 1.387 . S
H1172 C1179 0.950 . S
C1173 C1171 1.387 . S
C1173 C1175 1.390 . S
C1173 H1177 0.950 . S
H1174 C1170 0.950 . S
C1175 C1173 1.390 . S
C1175 C1176 1.387 . S
C1175 H1178 0.950 . S
C1176 C1175 1.387 . S
C1176 C1179 1.387 . S
H1177 C1173 0.950 . S
H1178 C1175 0.950 . S
C1179 C1170 1.390 . S
C1179 H1172 0.950 . S
C1179 C1176 1.387 . S
C1180 C1181 1.387 . S
C1180 H1184 0.950 . S
C1180 C1189 1.390 . S
C1181 C1180 1.387 . S
C1181 C1183 1.387 . S
H1182 C1189 0.950 . S
C1183 C1181 1.387 . S
C1183 C1185 1.390 . S
C1183 H1187 0.950 . S
H1184 C1180 0.950 . S
C1185 C1183 1.390 . S
C1185 C1186 1.387 . S
C1185 H1188 0.950 . S
C1186 C1185 1.387 . S
C1186 C1189 1.387 . S
H1187 C1183 0.950 . S
H1188 C1185 0.950 . S
C1189 C1180 1.390 . S
C1189 H1182 0.950 . S
C1189 C1186 1.387 . S
C1190 C1191 1.387 . S
C1190 H1194 0.950 . S
C1190 C1199 1.390 . S
C1191 C1190 1.387 . S
C1191 C1193 1.387 . S
H1192 C1199 0.950 . S
C1193 C1191 1.387 . S
C1193 C1195 1.390 . S
C1193 H1197 0.950 . S
H1194 C1190 0.950 . S
C1195 C1193 1.390 . S
C1195 C1196 1.387 . S
C1195 H1198 0.950 . S
C1196 C1195 1.387 . S
C1196 C1199 1.387 . S
H1197 C1193 0.950 . S
H1198 C1195 0.950 . S
C1199 C1190 1.390 . S
C1199 H1192 0.950 . S
C1199 C1196 1.387 . S
C1200 C1201 1.387 . S
C1200 H1204 0.950 . S
C1200 C1209 1.390 . S
C1201 C1200 1.387 . S
C1201 C1203 1.387 . S
H1202 C1209 0.950 . S
C1203 C1201 1.387 . S
C1203 C1205 1.390 . S
C1203 H1207 0.950 . S
H1204 C1200 0.950 . S
C1205 C1203 1.390 . S
C1205 C1206 1.387 . S
C1205 H1208 0.950 . S
C1206 C1205 1.387 . S
C1206 C1209 1.387 . S
H1207 C1203 0.950 . S
H1208 C1205 0.950 . S
C1209 C1200 1.390 . S
C1209 H1202 0.950 . S
C1209 C1206 1.387 . S
C1210 C1211 1.387 . S
C1210 H1214 0.950 . S
C1210 C1219 1.390 . S
C1211 C1210 1.387 . S
C1211 C1213 1.387 . S
H1212 C1219 0.950 . S
C1213 C1211 1.387 . S
C1213 C1215 1.390 . S
C1213 H1217 0.950 . S
H1214 C1210 0.950 . S
C1215 C1213 1.390 . S
C1215 C1216 1.387 . S
C1215 H1218 0.950 . S
C1216 C1215 1.387 . S
C1216 C1219 1.387 . S
H1217 C1213 0.950 . S
H1218 C1215 0.950 . S
C1219 C1210 1.390 . S
C1219 H1212 0.950 . S
C1219 C1216 1.387 . S
C1220 C1221 1.387 . S
C1220 H1224 0.950 . S
C1220 C1229 1.390 . S
C1221 C1220 1.387 . S
C1221 C1223 1.387 . S
H1222 C1229 0.950 . S
C1223 C1221 1.387 . S
C1223 C1225 1.390 . S
C1223 H1227 0.950 . S
H1224 C1220 0.950 . S
C1225 C1223 1.390 . S
C1225 C1226 1.387 . S
C1225 H1228 0.950 . S
C1226 C1225 1.387 . S
C1226 C1229 1.387 . S
H1227 C1223 0.950 . S
H1228 C1225 0.950 . S
C1229 C1220 1.390 . S
C1229 H1222 0.950 . S
C1229 C1226 1.387 . S
C1230 C1231 1.387 . S
C1230 H1234 0.950 . S
C1230 C1239 1.390 . S
C1231 C1230 1.387 . S
C1231 C1233 1.387 . S
H1232 C1239 0.950 . S
C1233 C1231 1.387 . S
C1233 C1235 1.390 . S
C1233 H1237 0.950 . S
H1234 C1230 0.950 . S
C1235 C1233 1.390 . S
C1235 C1236 1.387 . S
C1235 H1238 0.950 . S
C1236 C1235 1.387 . S
C1236 C1239 1.387 . S
H1237 C1233 0.950 . S
H1238 C1235 0.950 . S
C1239 C1230 1.390 . S
C1239 H1232 0.950 . S
C1239 C1236 1.387 . S
C1240 C1241 1.387 . S
C1240 H1244 0.950 . S
C1240 C1249 1.390 . S
C1241 C1240 1.387 . S
C1241 C1243 1.387 . S
H1242 C1249 0.950 . S
C1243 C1241 1.387 . S
C1243 C1245 1.390 . S
C1243 H1247 0.950 . S
H1244 C1240 0.950 . S
C1245 C1243 1.390 . S
C1245 C1246 1.387 . S
C1245 H1248 0.950 . S
C1246 C1245 1.387 . S
C1246 C1249 1.387 . S
H1247 C1243 0.950 . S
H1248 C1245 0.950 . S
C1249 C1240 1.390 . S
C1249 H1242 0.950 . S
C1249 C1246 1.387 . S
C1250 C1251 1.387 . S
C1250 H1254 0.950 . S
C1250 C1259 1.390 . S
C1251 C1250 1.387 . S
C1251 C1253 1.387 . S
H1252 C1259 0.950 . S
C1253 C1251 1.387 . S
C1253 C1255 1.390 . S
C1253 H1257 0.950 . S
H1254 C1250 0.950 . S
C1255 C1253 1.390 . S
C1255 C1256 1.387 . S
C1255 H1258 0.950 . S
C1256 C1255 1.387 . S
C1256 C1259 1.387 . S
H1257 C1253 0.950 . S
H1258 C1255 0.950 . S
C1259 C1250 1.390 . S
C1259 H1252 0.950 . S
C1259 C1256 1.387 . S
C1260 C1261 1.387 . S
C1260 H1264 0.950 . S
C1260 C1269 1.390 1_565 S
C1261 C1260 1.387 . S
C1261 C1263 1.387 . S
H1262 C1269 0.950 . S
C1263 C1261 1.387 . S
C1263 C1265 1.390 1_565 S
C1263 H1267 0.950 . S
H1264 C1260 0.950 . S
C1265 C1263 1.390 1_545 S
C1265 C1266 1.387 . S
C1265 H1268 0.950 . S
C1266 C1265 1.387 . S
C1266 C1269 1.387 . S
H1267 C1263 0.950 . S
H1268 C1265 0.950 . S
C1269 C1260 1.390 1_545 S
C1269 H1262 0.950 . S
C1269 C1266 1.387 . S
C1270 C1271 1.387 . S
C1270 H1274 0.950 . S
C1270 C1279 1.390 1_455 S
C1271 C1270 1.387 . S
C1271 C1273 1.387 . S
H1272 C1279 0.950 . S
C1273 C1271 1.387 . S
C1273 C1275 1.390 1_455 S
C1273 H1277 0.950 . S
H1274 C1270 0.950 . S
C1275 C1273 1.390 1_655 S
C1275 C1276 1.387 . S
C1275 H1278 0.950 . S
C1276 C1275 1.387 . S
C1276 C1279 1.387 . S
H1277 C1273 0.950 . S
H1278 C1275 0.950 . S
C1279 C1270 1.390 1_655 S
C1279 H1272 0.950 . S
C1279 C1276 1.387 . S
C1280 C1281 1.387 . S
C1280 H1284 0.950 . S
C1280 C1289 1.390 . S
C1281 C1280 1.387 . S
C1281 C1283 1.387 . S
H1282 C1289 0.950 . S
C1283 C1281 1.387 . S
C1283 C1285 1.390 . S
C1283 H1287 0.950 . S
H1284 C1280 0.950 . S
C1285 C1283 1.390 . S
C1285 C1286 1.387 . S
C1285 H1288 0.950 . S
C1286 C1285 1.387 . S
C1286 C1289 1.387 . S
H1287 C1283 0.950 . S
H1288 C1285 0.950 . S
C1289 C1280 1.390 . S
C1289 H1282 0.950 . S
C1289 C1286 1.387 . S
C1290 C1291 1.387 . S
C1290 H1294 0.950 . S
C1290 C1299 1.390 . S
C1291 C1290 1.387 . S
C1291 C1293 1.387 . S
H1292 C1299 0.950 . S
C1293 C1291 1.387 . S
C1293 C1295 1.390 . S
C1293 H1297 0.950 . S
H1294 C1290 0.950 . S
C1295 C1293 1.390 . S
C1295 C1296 1.387 . S
C1295 H1298 0.950 . S
C1296 C1295 1.387 . S
C1296 C1299 1.387 . S
H1297 C1293 0.950 . S
H1298 C1295 0.950 . S
C1299 C1290 1.390 . S
C1299 H1292 0.950 . S
C1299 C1296 1.387 . S
C1300 C1301 1.387 . S
C1300 H1304 0.950 . S
C1300 C1309 1.390 . S
C1301 C1300 1.387 . S
C1301 C1303 1.387 . S
H1302 C1309 0.950 . S
C1303 C1301 1.387 . S
C1303 C1305 1.390 . S
C1303 H1307 0.950 . S
H1304 C1300 0.950 . S
C1305 C1303 1.390 . S
C1305 C1306 1.387 . S
C1305 H1308 0.950 . S
C1306 C1305 1.387 . S
C1306 C1309 1.387 . S
H1307 C1303 0.950 . S
H1308 C1305 0.950 . S
C1309 C1300 1.390 . S
C1309 H1302 0.950 . S
C1309 C1306 1.387 . S
C1310 C1311 1.387 . S
C1310 H1314 0.950 . S
C1310 C1319 1.390 . S
C1311 C1310 1.387 . S
C1311 C1313 1.387 . S
H1312 C1319 0.950 . S
C1313 C1311 1.387 . S
C1313 C1315 1.390 . S
C1313 H1317 0.950 . S
H1314 C1310 0.950 . S
C1315 C1313 1.390 . S
C1315 C1316 1.387 . S
C1315 H1318 0.950 . S
C1316 C1315 1.387 . S
C1316 C1319 1.387 . S
H1317 C1313 0.950 . S
H1318 C1315 0.950 . S
C1319 C1310 1.390 . S
C1319 H1312 0.950 . S
C1319 C1316 1.387 . S
C1320 C1321 1.387 . S
C1320 H1324 0.950 . S
C1320 C1329 1.390 . S
C1321 C1320 1.387 . S
C1321 C1323 1.387 . S
H1322 C1329 0.950 . S
C1323 C1321 1.387 . S
C1323 C1325 1.390 . S
C1323 H1327 0.950 . S
H1324 C1320 0.950 . S
C1325 C1323 1.390 . S
C1325 C1326 1.387 . S
C1325 H1328 0.950 . S
C1326 C1325 1.387 . S
C1326 C1329 1.387 . S
H1327 C1323 0.950 . S
H1328 C1325 0.950 . S
C1329 C1320 1.390 . S
C1329 H1322 0.950 . S
C1329 C1326 1.387 . S
C1330 C1331 1.387 . S
C1330 H1334 0.950 . S
C1330 C1339 1.390 . S
C1331 C1330 1.387 . S
C1331 C1333 1.387 . S
H1332 C1339 0.950 . S
C1333 C1331 1.387 . S
C1333 C1335 1.390 . S
C1333 H1337 0.950 . S
H1334 C1330 0.950 . S
C1335 C1333 1.390 . S
C1335 C1336 1.387 . S
C1335 H1338 0.950 . S
C1336 C1335 1.387 . S
C1336 C1339 1.387 . S
H1337 C1333 0.950 . S
H1338 C1335 0.950 . S
C1339 C1330 1.390 . S
C1339 H1332 0.950 . S
C1339 C1336 1.387 . S
C1340 C1341 1.387 . S
C1340 H1344 0.950 . S
C1340 C1349 1.390 . S
C1341 C1340 1.387 . S
C1341 C1343 1.387 . S
H1342 C1349 0.950 . S
C1343 C1341 1.387 . S
C1343 C1345 1.390 . S
C1343 H1347 0.950 . S
H1344 C1340 0.950 . S
C1345 C1343 1.390 . S
C1345 C1346 1.387 . S
C1345 H1348 0.950 . S
C1346 C1345 1.387 . S
C1346 C1349 1.387 . S
H1347 C1343 0.950 . S
H1348 C1345 0.950 . S
C1349 C1340 1.390 . S
C1349 H1342 0.950 . S
C1349 C1346 1.387 . S
C1350 C1351 1.387 . S
C1350 H1354 0.950 . S
C1350 C1359 1.390 . S
C1351 C1350 1.387 . S
C1351 C1353 1.387 . S
H1352 C1359 0.950 . S
C1353 C1351 1.387 . S
C1353 C1355 1.390 . S
C1353 H1357 0.950 . S
H1354 C1350 0.950 . S
C1355 C1353 1.390 . S
C1355 C1356 1.387 . S
C1355 H1358 0.950 . S
C1356 C1355 1.387 . S
C1356 C1359 1.387 . S
H1357 C1353 0.950 . S
H1358 C1355 0.950 . S
C1359 C1350 1.390 . S
C1359 H1352 0.950 . S
C1359 C1356 1.387 . S
C1360 C1361 1.387 . S
C1360 H1364 0.950 . S
C1360 C1369 1.390 . S
C1361 C1360 1.387 . S
C1361 C1363 1.387 . S
H1362 C1369 0.950 . S
C1363 C1361 1.387 . S
C1363 C1365 1.390 . S
C1363 H1367 0.950 . S
H1364 C1360 0.950 . S
C1365 C1363 1.390 . S
C1365 C1366 1.387 . S
C1365 H1368 0.950 . S
C1366 C1365 1.387 . S
C1366 C1369 1.387 . S
H1367 C1363 0.950 . S
H1368 C1365 0.950 . S
C1369 C1360 1.390 . S
C1369 H1362 0.950 . S
C1369 C1366 1.387 . S
C1370 C1371 1.387 . S
C1370 H1374 0.950 . S
C1370 C1379 1.390 . S
C1371 C1370 1.387 . S
C1371 C1373 1.387 . S
H1372 C1379 0.950 . S
C1373 C1371 1.387 . S
C1373 C1375 1.390 . S
C1373 H1377 0.950 . S
H1374 C1370 0.950 . S
C1375 C1373 1.390 . S
C1375 C1376 1.387 . S
C1375 H1378 0.950 . S
C1376 C1375 1.387 . S
C1376 C1379 1.387 . S
H1377 C1373 0.950 . S
H1378 C1375 0.950 . S
C1379 C1370 1.390 . S
C1379 H1372 0.950 . S
C1379 C1376 1.387 . S
C1380 C1381 1.387 . S
C1380 H1384 0.950 . S
C1380 C1389 1.390 . S
C1381 C1380 1.387 . S
C1381 C1383 1.387 . S
H1382 C1389 0.950 . S
C1383 C1381 1.387 . S
C1383 C1385 1.390 . S
C1383 H1387 0.950 . S
H1384 C1380 0.950 . S
C1385 C1383 1.390 . S
C1385 C1386 1.387 . S
C1385 H1388 0.950 . S
C1386 C1385 1.387 . S
C1386 C1389 1.387 . S
H1387 C1383 0.950 . S
H1388 C1385 0.950 . S
C1389 C1380 1.390 . S
C1389 H1382 0.950 . S
C1389 C1386 1.387 . S
C1390 C1391 1.387 . S
C1390 H1394 0.950 . S
C1390 C1399 1.390 . S
C1391 C1390 1.387 . S
C1391 C1393 1.387 . S
H1392 C1399 0.950 . S
C1393 C1391 1.387 . S
C1393 C1395 1.390 . S
C1393 H1397 0.950 . S
H1394 C1390 0.950 . S
C1395 C1393 1.390 . S
C1395 C1396 1.387 . S
C1395 H1398 0.950 . S
C1396 C1395 1.387 . S
C1396 C1399 1.387 . S
H1397 C1393 0.950 . S
H1398 C1395 0.950 . S
C1399 C1390 1.390 . S
C1399 H1392 0.950 . S
C1399 C1396 1.387 . S
C1400 C1401 1.387 . S
C1400 H1404 0.950 . S
C1400 C1409 1.390 . S
C1401 C1400 1.387 . S
C1401 C1403 1.387 . S
H1402 C1409 0.950 . S
C1403 C1401 1.387 . S
C1403 C1405 1.390 . S
C1403 H1407 0.950 . S
H1404 C1400 0.950 . S
C1405 C1403 1.390 . S
C1405 C1406 1.387 . S
C1405 H1408 0.950 . S
C1406 C1405 1.387 . S
C1406 C1409 1.387 . S
H1407 C1403 0.950 . S
H1408 C1405 0.950 . S
C1409 C1400 1.390 . S
C1409 H1402 0.950 . S
C1409 C1406 1.387 . S
C1410 C1411 1.387 . S
C1410 H1414 0.950 . S
C1410 C1419 1.390 . S
C1411 C1410 1.387 . S
C1411 C1413 1.387 . S
H1412 C1419 0.950 . S
C1413 C1411 1.387 . S
C1413 C1415 1.390 . S
C1413 H1417 0.950 . S
H1414 C1410 0.950 . S
C1415 C1413 1.390 . S
C1415 C1416 1.387 . S
C1415 H1418 0.950 . S
C1416 C1415 1.387 . S
C1416 C1419 1.387 . S
H1417 C1413 0.950 . S
H1418 C1415 0.950 . S
C1419 C1410 1.390 . S
C1419 H1412 0.950 . S
C1419 C1416 1.387 . S
C1420 C1421 1.387 . S
C1420 H1424 0.950 . S
C1420 C1429 1.390 . S
C1421 C1420 1.387 . S
C1421 C1423 1.387 . S
H1422 C1429 0.950 . S
C1423 C1421 1.387 . S
C1423 C1425 1.390 . S
C1423 H1427 0.950 . S
H1424 C1420 0.950 . S
C1425 C1423 1.390 . S
C1425 C1426 1.387 . S
C1425 H1428 0.950 . S
C1426 C1425 1.387 . S
C1426 C1429 1.387 . S
H1427 C1423 0.950 . S
H1428 C1425 0.950 . S
C1429 C1420 1.390 . S
C1429 H1422 0.950 . S
C1429 C1426 1.387 . S
C1430 C1431 1.387 . S
C1430 H1434 0.950 . S
C1430 C1439 1.390 . S
C1431 C1430 1.387 . S
C1431 C1433 1.387 . S
H1432 C1439 0.950 . S
C1433 C1431 1.387 . S
C1433 C1435 1.390 . S
C1433 H1437 0.950 . S
H1434 C1430 0.950 . S
C1435 C1433 1.390 . S
C1435 C1436 1.387 . S
C1435 H1438 0.950 . S
C1436 C1435 1.387 . S
C1436 C1439 1.387 . S
H1437 C1433 0.950 . S
H1438 C1435 0.950 . S
C1439 C1430 1.390 . S
C1439 H1432 0.950 . S
C1439 C1436 1.387 . S
C1440 C1441 1.387 . S
C1440 H1444 0.950 . S
C1440 C1449 1.390 . S
C1441 C1440 1.387 . S
C1441 C1443 1.387 . S
H1442 C1449 0.950 . S
C1443 C1441 1.387 . S
C1443 C1445 1.390 . S
C1443 H1447 0.950 . S
H1444 C1440 0.950 . S
C1445 C1443 1.390 . S
C1445 C1446 1.387 . S
C1445 H1448 0.950 . S
C1446 C1445 1.387 . S
C1446 C1449 1.387 . S
H1447 C1443 0.950 . S
H1448 C1445 0.950 . S
C1449 C1440 1.390 . S
C1449 H1442 0.950 . S
C1449 C1446 1.387 . S
C1450 C1451 1.387 . S
C1450 H1454 0.950 . S
C1450 C1459 1.390 . S
C1451 C1450 1.387 . S
C1451 C1453 1.387 . S
H1452 C1459 0.950 . S
C1453 C1451 1.387 . S
C1453 C1455 1.390 . S
C1453 H1457 0.950 . S
H1454 C1450 0.950 . S
C1455 C1453 1.390 . S
C1455 C1456 1.387 . S
C1455 H1458 0.950 . S
C1456 C1455 1.387 . S
C1456 C1459 1.387 . S
H1457 C1453 0.950 . S
H1458 C1455 0.950 . S
C1459 C1450 1.390 . S
C1459 H1452 0.950 . S
C1459 C1456 1.387 . S
C1460 C1461 1.387 . S
C1460 H1464 0.950 . S
C1460 C1469 1.390 . S
C1461 C1460 1.387 . S
C1461 C1463 1.387 . S
H1462 C1469 0.950 . S
C1463 C1461 1.387 . S
C1463 C1465 1.390 . S
C1463 H1467 0.950 . S
H1464 C1460 0.950 . S
C1465 C1463 1.390 . S
C1465 C1466 1.387 . S
C1465 H1468 0.950 . S
C1466 C1465 1.387 . S
C1466 C1469 1.387 . S
H1467 C1463 0.950 . S
H1468 C1465 0.950 . S
C1469 C1460 1.390 . S
C1469 H1462 0.950 . S
C1469 C1466 1.387 . S
C1470 C1471 1.387 . S
C1470 H1474 0.950 . S
C1470 C1479 1.390 . S
C1471 C1470 1.387 . S
C1471 C1473 1.387 . S
H1472 C1479 0.950 . S
C1473 C1471 1.387 . S
C1473 C1475 1.390 . S
C1473 H1477 0.950 . S
H1474 C1470 0.950 . S
C1475 C1473 1.390 . S
C1475 C1476 1.387 . S
C1475 H1478 0.950 . S
C1476 C1475 1.387 . S
C1476 C1479 1.387 . S
H1477 C1473 0.950 . S
H1478 C1475 0.950 . S
C1479 C1470 1.390 . S
C1479 H1472 0.950 . S
C1479 C1476 1.387 . S
C1480 C1481 1.387 . S
C1480 H1484 0.950 . S
C1480 C1489 1.390 . S
C1481 C1480 1.387 . S
C1481 C1483 1.387 . S
H1482 C1489 0.950 . S
C1483 C1481 1.387 . S
C1483 C1485 1.390 . S
C1483 H1487 0.950 . S
H1484 C1480 0.950 . S
C1485 C1483 1.390 . S
C1485 C1486 1.387 . S
C1485 H1488 0.950 . S
C1486 C1485 1.387 . S
C1486 C1489 1.387 . S
H1487 C1483 0.950 . S
H1488 C1485 0.950 . S
C1489 C1480 1.390 . S
C1489 H1482 0.950 . S
C1489 C1486 1.387 . S
C1490 C1491 1.387 . S
C1490 H1494 0.950 . S
C1490 C1499 1.390 . S
C1491 C1490 1.387 . S
C1491 C1493 1.387 . S
H1492 C1499 0.950 . S
C1493 C1491 1.387 . S
C1493 C1495 1.390 . S
C1493 H1497 0.950 . S
H1494 C1490 0.950 . S
C1495 C1493 1.390 . S
C1495 C1496 1.387 . S
C1495 H1498 0.950 . S
C1496 C1495 1.387 . S
C1496 C1499 1.387 . S
H1497 C1493 0.950 . S
H1498 C1495 0.950 . S
C1499 C1490 1.390 . S
C1499 H1492 0.950 . S
C1499 C1496 1.387 . S
C1500 C1501 1.387 . S
C1500 H1504 0.950 . S
C1500 C1509 1.390 . S
C1501 C1500 1.387 . S
C1501 C1503 1.387 . S
H1502 C1509 0.950 . S
C1503 C1501 1.387 . S
C1503 C1505 1.390 . S
C1503 H1507 0.950 . S
H1504 C1500 0.950 . S
C1505 C1503 1.390 . S
C1505 C1506 1.387 . S
C1505 H1508 0.950 . S
C1506 C1505 1.387 . S
C1506 C1509 1.387 . S
H1507 C1503 0.950 . S
H1508 C1505 0.950 . S
C1509 C1500 1.390 . S
C1509 H1502 0.950 . S
C1509 C1506 1.387 . S
C1510 C1511 1.387 . S
C1510 H1514 0.950 . S
C1510 C1519 1.390 . S
C1511 C1510 1.387 . S
C1511 C1513 1.387 . S
H1512 C1519 0.950 . S
C1513 C1511 1.387 . S
C1513 C1515 1.390 . S
C1513 H1517 0.950 . S
H1514 C1510 0.950 . S
C1515 C1513 1.390 . S
C1515 C1516 1.387 . S
C1515 H1518 0.950 . S
C1516 C1515 1.387 . S
C1516 C1519 1.387 . S
H1517 C1513 0.950 . S
H1518 C1515 0.950 . S
C1519 C1510 1.390 . S
C1519 H1512 0.950 . S
C1519 C1516 1.387 . S
C1520 C1521 1.387 . S
C1520 H1524 0.950 . S
C1520 C1529 1.390 . S
C1521 C1520 1.387 . S
C1521 C1523 1.387 . S
H1522 C1529 0.950 . S
C1523 C1521 1.387 . S
C1523 C1525 1.390 . S
C1523 H1527 0.950 . S
H1524 C1520 0.950 . S
C1525 C1523 1.390 . S
C1525 C1526 1.387 . S
C1525 H1528 0.950 . S
C1526 C1525 1.387 . S
C1526 C1529 1.387 . S
H1527 C1523 0.950 . S
H1528 C1525 0.950 . S
C1529 C1520 1.390 . S
C1529 H1522 0.950 . S
C1529 C1526 1.387 . S
C991 C177 1.476 . S
C996 C301 1.418 . S
C1001 C190 1.501 . S
C1006 C385 1.449 . S
C1011 C164 1.472 . S
C1016 C465 1.470 . S
C1021 C151 1.461 . S
C1026 C381 1.463 . S
C1036 C469 1.405 . S
C1031 C125 1.468 . S
C1041 C138 1.439 . S
C1046 C297 1.438 . S
C1056 C290 1.458 . S
C1051 C147 1.467 . S
C1066 C374 1.484 . S
C1061 C121 1.479 . S
C1071 C134 1.485 . S
C1076 C476 1.484 . S
C1081 C173 1.459 . S
C1086 C392 1.460 . S
C1091 C186 1.442 . S
C1096 C458 1.437 . S
C1106 C308 1.442 . S
C1101 C160 1.446 . S
C1116 C553 1.417 . S
C1111 C21 1.476 . S
C1121 C34 1.502 . S
C1126 C637 1.446 . S
C1131 C8 1.472 . S
C1136 C717 1.470 . S
C1141 C229 1.461 . S
C1146 C633 1.463 . S
C1151 C203 1.469 . S
C1156 C721 1.405 . S
C1161 C216 1.439 . S
C1166 C549 1.438 . S
C1171 C225 1.467 . S
C1176 C542 1.459 . S
C1181 C199 1.482 . S
C1186 C626 1.481 . S
C1196 C728 1.482 . S
C1191 C212 1.486 . S
C1201 C17 1.456 1_565 S
C1206 C644 1.461 . S
C1216 C710 1.434 . S
C1211 C30 1.445 1_455 S
C1221 C4 1.448 . S
C1226 C560 1.440 . S
C1236 C805 1.419 . S
C1231 C99 1.476 . S
C1241 C112 1.501 . S
C1246 C889 1.449 . S
C1256 C969 1.471 . S
C1251 C86 1.472 . S
C1266 C885 1.463 . S
C1261 C73 1.461 . S
C1276 C973 1.405 . S
C1271 C47 1.469 . S
C1281 C60 1.439 . S
C1286 C801 1.436 . S
C1291 C69 1.466 1_655 S
C1296 C794 1.460 . S
C1301 C43 1.482 . S
C1306 C878 1.480 . S
C1316 C980 1.483 . S
C1311 C56 1.483 1_545 S
C1321 C95 1.458 . S
C1326 C896 1.458 . S
C1331 C108 1.445 . S
C1336 C962 1.434 . S
C1341 C82 1.450 . S
C1346 C812 1.441 . S
C1351 C204 1.573 . S
C1356 C304 1.469 . S
C1366 C388 1.473 . S
C1361 C217 1.616 . S
C1371 C230 1.571 . S
C1376 C460 1.379 . S
C1381 C87 1.582 . S
C1386 C376 1.372 . S
C1391 C100 1.581 . S
C1396 C472 1.454 . S
C1406 C292 1.369 . S
C1401 C113 1.540 . S
C1411 C48 1.573 . S
C1416 C556 1.466 . S
C1421 C61 1.615 . S
C1426 C640 1.476 . S
C1431 C74 1.570 . S
C1436 C712 1.381 . S
C1441 C165 1.582 . S
C1446 C628 1.376 . S
C1456 C724 1.455 . S
C1451 C178 1.581 . S
C1461 C191 1.542 . S
C1466 C544 1.371 . S
C1471 C126 1.575 . S
C1476 C808 1.468 . S
C1481 C139 1.616 . S
C1486 C892 1.473 . S
C1496 C964 1.379 . S
C1491 C152 1.571 . S
C1501 C9 1.582 . S
C1506 C880 1.376 . S
C1511 C22 1.582 . S
C1516 C976 1.452 . S
C1521 C35 1.540 . S
C1526 C796 1.374 . S
