# Generated by pormake.
# Topology ftw, (4,12)-cn, num edge types: 1
# Building blocks:
#     Node 0, Type 0, BuildingBlock: NAWXER_clean_linker_0, # of connection points: 4
#     Node 1, Type 0, BuildingBlock: NAWXER_clean_linker_0, # of connection points: 4
#     Node 2, Type 0, BuildingBlock: NAWXER_clean_linker_0, # of connection points: 4
#     Node 3, Type 1, BuildingBlock: QEWDON_clean_sbu_0, # of connection points: 12
#     Edge 4, Type (0, 1), BuildingBlock: ZUJKAS_clean_linker_0, # of connection points: 2
#     Edge 5, Type (0, 1), BuildingBlock: ZUJKAS_clean_linker_0, # of connection points: 2
#     Edge 6, Type (0, 1), BuildingBlock: ZUJKAS_clean_linker_0, # of connection points: 2
#     Edge 7, Type (0, 1), BuildingBlock: ZUJKAS_clean_linker_0, # of connection points: 2
#     Edge 8, Type (0, 1), BuildingBlock: ZUJKAS_clean_linker_0, # of connection points: 2
#     Edge 9, Type (0, 1), BuildingBlock: ZUJKAS_clean_linker_0, # of connection points: 2
#     Edge 10, Type (0, 1), BuildingBlock: ZUJKAS_clean_linker_0, # of connection points: 2
#     Edge 11, Type (0, 1), BuildingBlock: ZUJKAS_clean_linker_0, # of connection points: 2
#     Edge 12, Type (0, 1), BuildingBlock: ZUJKAS_clean_linker_0, # of connection points: 2
#     Edge 13, Type (0, 1), BuildingBlock: ZUJKAS_clean_linker_0, # of connection points: 2
#     Edge 14, Type (0, 1), BuildingBlock: ZUJKAS_clean_linker_0, # of connection points: 2
#     Edge 15, Type (0, 1), BuildingBlock: ZUJKAS_clean_linker_0, # of connection points: 2
# Relax obj value: 0.054
# Max RMSD: 0.161
# Mean RMSD: 0.117
data_MOF--net-ftw--node1-QEWDON_clean_sbu_0--node2-NAWXER_clean_linker_0--edge1-ZUJKAS_clean_linker_0
_symmetry_space_group_name_H-M    P1
_symmetry_Int_Tables_number       1
_symmetry_cell_setting            triclinic
loop_
_symmetry_equiv_pos_as_xyz
'x, y, z'
_cell_length_a     32.969288
_cell_length_b     36.096476
_cell_length_c     35.516678
_cell_angle_alpha  89.820979
_cell_angle_beta   89.69312
_cell_angle_gamma 90.16966
loop_
_atom_site_label
_atom_site_type_symbol
_atom_site_fract_x
_atom_site_fract_y
_atom_site_fract_z
_atom_type_partial_charge
C0 C 0.01246 0.63947 0.5776 0.0
C1 C 0.9856 0.64344 0.60829 0.0
C2 C 0.00936 0.60901 0.55338 0.0
C3 C 0.97921 0.58194 0.55922 0.0
C4 C 0.95477 0.61683 0.61335 0.0
C5 C 0.95179 0.5864 0.58926 0.0
C6 C 0.97932 0.5466 0.53788 0.0
C7 C 0.95277 0.63278 0.4476 0.0
C8 C 0.98033 0.63372 0.41712 0.0
C9 C 0.95457 0.60449 0.47478 0.0
C10 C 0.98416 0.57659 0.4723 0.0
C11 C 0.01027 0.60603 0.41518 0.0
C12 C 0.01194 0.57777 0.4422 0.0
C13 C 0.98412 0.54412 0.49836 0.0
C14 C 0.96163 0.38098 0.46608 0.0
C15 C 0.98788 0.37899 0.43481 0.0
C16 C 0.96128 0.4125 0.48911 0.0
C17 C 0.98798 0.44224 0.4819 0.0
C18 C 0.01473 0.40854 0.42787 0.0
C19 C 0.0148 0.4397 0.45112 0.0
C20 C 0.98568 0.47768 0.5032 0.0
C21 C 0.01103 0.39232 0.59512 0.0
C22 C 0.98212 0.3912 0.6245 0.0
C23 C 0.01007 0.42048 0.56778 0.0
C24 C 0.97999 0.448 0.56901 0.0
C25 C 0.952 0.41873 0.62544 0.0
C26 C 0.9511 0.44679 0.59821 0.0
C27 C 0.98048 0.48024 0.54273 0.0
H28 H 0.03639 0.65955 0.57272 0.0
H29 H 0.03164 0.60586 0.53111 0.0
H30 H 0.93393 0.61862 0.63694 0.0
H31 H 0.92861 0.5657 0.59473 0.0
H32 H 0.92893 0.65322 0.44985 0.0
H33 H 0.93194 0.60379 0.49697 0.0
H34 H 0.03256 0.60609 0.39268 0.0
H35 H 0.03496 0.55658 0.43942 0.0
H36 H 0.94022 0.35882 0.47181 0.0
H37 H 0.93914 0.41405 0.51166 0.0
H38 H 0.03553 0.4077 0.40417 0.0
H39 H 0.03552 0.46222 0.44462 0.0
H40 H 0.03455 0.37152 0.59333 0.0
H41 H 0.03345 0.42121 0.54625 0.0
H42 H 0.92968 0.41928 0.6479 0.0
H43 H 0.92795 0.46795 0.60023 0.0
N44 N 0.97743 0.51459 0.55819 0.0
N45 N 0.98732 0.50977 0.48288 0.0
C46 C 0.54797 0.01837 0.6572 0.0
C47 C 0.57922 0.9923 0.66188 0.0
C48 C 0.52403 0.01806 0.62476 0.0
C49 C 0.5308 0.99154 0.59658 0.0
C50 C 0.58518 0.96534 0.6339 0.0
C51 C 0.56146 0.96518 0.60151 0.0
C52 C 0.50889 0.9929 0.56042 0.0
C53 C 0.41513 0.96289 0.64879 0.0
C54 C 0.38331 0.98859 0.65248 0.0
C55 C 0.44224 0.9649 0.61827 0.0
C56 C 0.43833 0.99275 0.59073 0.0
C57 C 0.37932 0.01624 0.62469 0.0
C58 C 0.40629 0.0181 0.59408 0.0
C59 C 0.46618 0.99466 0.55754 0.0
C60 C 0.43857 0.96527 0.39364 0.0
C61 C 0.40615 0.98947 0.38652 0.0
C62 C 0.46074 0.96808 0.42698 0.0
C63 C 0.45102 -0.00476 0.4538 0.0
C64 C 0.39658 0.01668 0.41339 0.0
C65 C 0.4186 0.01933 0.4468 0.0
C66 C 0.47248 -0.00315 0.49029 0.0
C67 C 0.56734 0.02932 0.4031 0.0
C68 C 0.60204 0.00665 0.40189 0.0
C69 C 0.53861 0.02549 0.43216 0.0
C70 C 0.54368 -0.00132 0.46059 0.0
C71 C 0.60696 0.9799 0.43042 0.0
C72 C 0.5783 0.97612 0.45942 0.0
C73 C 0.51525 -0.00407 0.49331 0.0
H74 H 0.54288 0.03979 0.67796 0.0
H75 H 0.50116 0.03924 0.62117 0.0
H76 H 0.60842 0.9444 0.63688 0.0
H77 H 0.56728 0.94455 0.58006 0.0
H78 H 0.41925 0.94129 0.66964 0.0
H79 H 0.46597 0.94434 0.61598 0.0
H80 H 0.35484 0.03612 0.6262 0.0
H81 H 0.40222 0.03955 0.57305 0.0
H82 H 0.44675 0.94409 0.37347 0.0
H83 H 0.48495 0.94852 0.43212 0.0
H84 H 0.37137 0.03536 0.40901 0.0
H85 H 0.41019 0.04014 0.46731 0.0
H86 H 0.56236 0.05011 0.38158 0.0
H87 H 0.51292 0.0441 0.4328 0.0
H88 H 0.63356 0.96237 0.43092 0.0
H89 H 0.58338 0.95558 0.4812 0.0
N90 N 0.53155 0.99362 0.5283 0.0
N91 N 0.44972 -0.00338 0.52249 0.0
C92 C 0.37944 0.38391 0.98242 0.0
C93 C 0.34291 0.39081 1.00182 0.0
C94 C 0.41463 0.40381 0.99105 0.0
C95 C 0.41421 0.43057 0.01971 0.0
C96 C 0.34246 0.4182 0.02991 0.0
C97 C 0.37766 0.43783 0.03869 0.0
C98 C 0.45057 0.45319 0.02836 0.0
C99 C 0.49223 0.33636 0.05619 0.0
C100 C 0.52618 0.32444 0.03539 0.0
C101 C 0.47913 0.37315 0.05383 0.0
C102 C 0.49967 0.3986 0.03048 0.0
C103 C 0.54585 0.34982 0.01128 0.0
C104 C 0.53285 0.38649 1.00902 0.0
C105 C 0.49015 0.43861 0.03144 0.0
C106 C 0.58734 0.56914 0.08692 0.0
C107 C 0.62249 0.56506 0.06471 0.0
C108 C 0.55282 0.54774 0.07982 0.0
C109 C 0.55258 0.52227 0.04999 0.0
C110 C 0.62252 0.53863 0.03569 0.0
C111 C 0.58797 0.51741 0.02851 0.0
C112 C 0.51631 0.49953 0.04172 0.0
C113 C 0.47851 0.61806 0.0217 0.0
C114 C 0.44505 0.62967 0.04338 0.0
C115 C 0.4893 0.58064 0.02037 0.0
C116 C 0.46731 0.55415 0.04126 0.0
C117 C 0.42311 0.60298 0.06413 0.0
C118 C 0.43409 0.56569 0.06301 0.0
C119 C 0.47674 0.51413 0.03885 0.0
H120 H 0.38098 0.3629 0.96077 0.0
H121 H 0.44197 0.39856 0.97493 0.0
H122 H 0.31474 0.42481 0.04489 0.0
H123 H 0.37631 0.45879 0.06043 0.0
H124 H 0.47638 0.31746 0.07495 0.0
H125 H 0.45399 0.38202 0.07133 0.0
H126 H 0.57256 0.34186 0.99541 0.0
H127 H 0.54945 0.40572 0.99117 0.0
H128 H 0.5862 0.58933 0.10939 0.0
H129 H 0.52631 0.55119 0.09759 0.0
H130 H 0.64932 0.53425 0.01854 0.0
H131 H 0.58874 0.49746 1.00578 0.0
H132 H 0.49616 0.63783 1.00545 0.0
H133 H 0.51434 0.57237 1.00246 0.0
H134 H 0.39658 0.61065 0.0804 0.0
H135 H 0.41631 0.54573 0.07894 0.0
N136 N 0.44552 0.49033 0.03245 0.0
N137 N 0.52138 0.46243 0.03771 0.0
Zn138 Zn 0.03593 0.03595 1.00405 0.0
Zn139 Zn 0.04192 0.06553 0.08788 0.0
O140 O 0.01644 0.02382 0.05861 0.0
H141 H 0.0086 -0.00016 0.06841 0.0
C142 C 0.96853 0.12786 0.93113 0.0
O143 O 0.98006 0.09337 0.92637 0.0
Zn144 Zn 0.94916 0.92356 0.08683 0.0
Zn145 Zn 0.92834 0.91277 0.99854 0.0
O146 O 0.94656 0.94991 0.03729 0.0
H147 H 0.95081 0.976 0.03254 0.0
Zn148 Zn 0.92849 0.09623 1.00024 0.0
O149 O 0.96429 0.07817 0.04336 0.0
Zn150 Zn 0.92773 0.06274 0.08629 0.0
H151 H 0.95028 0.08719 0.02137 0.0
Zn152 Zn 0.09622 0.92633 0.9807 0.0
O153 O 0.0574 0.92951 0.02551 0.0
H154 H 0.02823 0.9314 0.0241 0.0
Zn155 Zn 0.09177 0.93765 0.07145 0.0
C156 C 0.04513 0.89394 0.9186 0.0
O157 O 0.01504 0.91143 0.93511 0.0
O158 O 0.04434 0.09186 0.99418 0.0
O159 O 0.05433 0.10897 0.05336 0.0
O160 O 0.91144 0.863 0.02235 0.0
O161 O 0.9238 0.87202 0.0832 0.0
O162 O 0.86796 0.09703 0.01551 0.0
O163 O 0.86881 0.07567 0.07445 0.0
C164 C 0.10784 0.01421 0.10482 0.0
O165 O 0.15555 0.92047 0.99751 0.0
O166 O 0.15072 0.92444 0.05994 0.0
O167 O 0.8919 0.93238 0.95554 0.0
C168 C 0.05334 0.11653 0.01827 0.0
O169 O 0.08126 0.00623 0.97498 0.0
C170 C 0.91169 0.98871 0.12227 0.0
O171 O 0.94791 0.13609 0.96033 0.0
C172 C 0.9109 0.8517 0.05639 0.0
O173 O 0.08053 0.89628 0.93248 0.0
C174 C 0.97749 0.09759 0.14807 0.0
O175 O 0.09533 0.04732 0.10848 0.0
O176 O 0.08629 0.99149 0.08617 0.0
C177 C 0.84963 0.08843 0.04605 0.0
O178 O 0.91649 0.95375 0.12389 0.0
O179 O 0.9315 0.00762 0.0979 0.0
C180 C 0.03287 0.90068 0.11963 0.0
O181 O 0.94357 0.09084 0.13248 0.0
O182 O 0.01105 0.08796 0.13286 0.0
C183 C 0.17166 0.91926 0.03004 0.0
O184 O 0.0707 0.90472 0.11367 0.0
O185 O 0.00872 0.91907 0.09891 0.0
C186 C 0.85951 0.94938 0.96432 0.0
O187 O 0.85088 0.95449 1.00009 0.0
C188 C 0.07464 -0.00285 0.94093 0.0
O189 O 0.03819 0.00235 0.92714 0.0
H190 H 0.98377 0.3816 0.35828 0.0
H191 H 0.98152 0.32988 0.31414 0.0
H192 H 0.98741 0.25271 0.40698 0.0
H193 H 0.98821 0.30465 0.4514 0.0
H194 H 0.03452 0.27867 0.29901 0.0
H195 H 0.89471 0.20908 0.35047 0.0
H196 H 0.90972 0.25446 0.36637 0.0
H197 H 0.93267 0.21365 0.38614 0.0
C198 C 0.98446 0.35359 0.36929 0.0
C199 C 0.98613 0.34717 0.40831 0.0
C200 C 0.98313 0.324 0.34403 0.0
C201 C 0.98371 0.28721 0.35708 0.0
C202 C 0.98577 0.28071 0.39611 0.0
H203 H 0.04138 0.11026 0.19572 0.0
H204 H 0.04378 0.15289 0.24909 0.0
C205 C 0.98647 0.31041 0.4215 0.0
C206 C 0.98348 0.25608 0.32949 0.0
H207 H 0.93297 0.17719 0.30409 0.0
C208 C 0.01226 0.2565 0.30016 0.0
C209 C 0.95421 0.22725 0.33062 0.0
C210 C 0.92083 0.22618 0.35985 0.0
C211 C 0.01237 0.22941 0.27183 0.0
C212 C 0.98379 0.20003 0.27348 0.0
C213 C 0.9552 0.19938 0.30299 0.0
C214 C 0.98153 0.17105 0.24366 0.0
C215 C 0.04213 0.23356 0.23961 0.0
C216 C 0.94511 0.1652 0.22417 0.0
C217 C 0.94338 0.14018 0.1942 0.0
C218 C 0.97818 0.1206 0.18275 0.0
C219 C 0.01416 0.12524 0.20338 0.0
C220 C 0.01567 0.14989 0.23375 0.0
H221 H 0.0535 0.26247 0.23699 0.0
H222 H 0.06865 0.21541 0.24471 0.0
H223 H 0.02816 0.2255 0.21245 0.0
H224 H 0.91822 0.1809 0.23137 0.0
H225 H 0.91508 0.13725 0.17914 0.0
H226 H 0.64432 0.9524 0.36466 0.0
H227 H 0.69781 0.95987 0.31737 0.0
H228 H 0.68459 0.0785 0.32254 0.0
H229 H 0.63113 0.07133 0.37023 0.0
H230 H 0.69126 0.05272 0.24906 0.0
H231 H 0.81368 0.99451 0.33717 0.0
H232 H 0.77083 0.96398 0.33349 0.0
H233 H 0.76518 0.00806 0.35643 0.0
C234 C 0.65296 0.98015 0.35608 0.0
C235 C 0.6335 0.01125 0.37166 0.0
C236 C 0.68364 0.98437 0.32897 0.0
C237 C 0.69589 0.01978 0.31686 0.0
C238 C 0.67588 0.05089 0.33156 0.0
H239 H 0.92095 0.03546 0.18236 0.0
H240 H 0.86854 0.05154 0.22918 0.0
C241 C 0.64511 0.0467 0.35872 0.0
C242 C 0.72931 0.02407 0.28866 0.0
H243 H 0.82768 -0.00047 0.27115 0.0
C244 C 0.72122 0.04145 0.25405 0.0
C245 C 0.76877 0.01018 0.29535 0.0
C246 C 0.78035 0.99349 0.33277 0.0
C247 C 0.75081 0.04352 0.22535 0.0
C248 C 0.78938 0.02735 0.23116 0.0
C249 C 0.79809 0.0117 0.26646 0.0
C250 C 0.81981 0.0233 0.20021 0.0
C251 C 0.74048 0.0629 0.18899 0.0
C252 C 0.80985 0.00273 0.16805 0.0
C253 C 0.83961 0.99376 0.14145 0.0
C254 C 0.87993 0.00532 0.14624 0.0
C255 C 0.88983 0.02714 0.17754 0.0
C256 C 0.85998 0.03598 0.20441 0.0
H257 H 0.71596 0.08357 0.19314 0.0
H258 H 0.76745 0.07715 0.17685 0.0
H259 H 0.7296 0.04219 0.16832 0.0
H260 H 0.7795 0.99178 0.16451 0.0
H261 H 0.83148 0.97629 0.11789 0.0
H262 H -0.00718 0.62595 0.34097 0.0
H263 H -0.00752 0.67395 0.2924 0.0
H264 H 0.95909 0.75529 0.37548 0.0
H265 H 0.96114 0.7077 0.42469 0.0
H266 H 0.93376 0.7217 0.26596 0.0
H267 H 0.06082 0.80058 0.32989 0.0
H268 H 0.04711 0.75457 0.34532 0.0
H269 H 0.01771 0.7938 0.36024 0.0
C270 C 0.98585 0.6541 0.34915 0.0
C271 C 0.97769 0.66288 0.38708 0.0
C272 C 0.98518 0.6815 0.32115 0.0
C273 C 0.97636 0.71845 0.33023 0.0
C274 C 0.96673 0.72715 0.36778 0.0
H275 H 0.95648 0.89166 0.15183 0.0
H276 H 0.93733 0.84877 0.20298 0.0
C277 C 0.96753 0.69975 0.3959 0.0
C278 C 0.97898 0.74779 0.30055 0.0
H279 H 0.03226 0.8253 0.27484 0.0
C280 C 0.95506 0.74454 0.268 0.0
C281 C 0.00699 0.7775 0.30302 0.0
C282 C 0.03491 0.7818 0.33629 0.0
C283 C 0.95898 0.76968 0.23769 0.0
C284 C 0.98729 0.79912 0.24012 0.0
C285 C 0.01039 0.80287 0.27304 0.0
C286 C -0.00311 0.82405 0.20764 0.0
C287 C 0.93406 0.76367 0.20271 0.0
C288 C 0.03655 0.82458 0.19321 0.0
C289 C 0.04746 0.84893 0.1643 0.0
C290 C 0.01904 0.87362 0.1488 0.0
C291 C 0.97898 0.87276 0.16273 0.0
C292 C 0.96801 0.84821 0.19199 0.0
H293 H 0.91916 0.73602 0.20258 0.0
H294 H 0.91006 0.7851 0.20119 0.0
H295 H 0.95326 0.76635 0.17705 0.0
H296 H 0.05938 0.80623 0.20464 0.0
H297 H 0.07856 0.84856 0.15433 0.0
H298 H 0.37905 0.04466 0.34018 0.0
H299 H 0.33464 0.03868 0.28545 0.0
H300 H 0.33326 0.92001 0.29943 0.0
H301 H 0.37728 0.92575 0.35455 0.0
H302 H 0.34574 0.99271 0.21585 0.0
H303 H 0.21129 0.95473 0.30382 0.0
H304 H 0.2553 0.97728 0.32343 0.0
H305 H 0.25742 0.9292 0.31103 0.0
C306 C 0.36931 0.01729 0.3316 0.0
C307 C 0.38146 0.9857 0.35183 0.0
C308 C 0.3442 0.01391 0.30021 0.0
C309 C 0.33052 0.97894 0.28864 0.0
C310 C 0.34336 0.94725 0.3081 0.0
H311 H 0.12969 0.94556 0.13142 0.0
H312 H 0.18843 0.93049 0.17037 0.0
C313 C 0.36868 0.95058 0.33941 0.0
C314 C 0.30131 0.97608 0.25725 0.0
H315 H 0.20097 0.96187 0.23898 0.0
C316 C 0.31416 0.98558 0.22074 0.0
C317 C 0.26028 0.96641 0.26374 0.0
C318 C 0.24492 0.95648 0.30259 0.0
C319 C 0.2867 0.98661 0.19064 0.0
C320 C 0.24521 0.97886 0.19752 0.0
C321 C 0.23278 0.96778 0.23373 0.0
C322 C 0.21348 0.98596 0.16892 0.0
C323 C 0.30229 -0.0037 0.15183 0.0
C324 C 0.20832 0.02192 0.15468 0.0
C325 C 0.17499 0.03042 0.13222 0.0
C326 C 0.14596 0.00318 0.12359 0.0
C327 C 0.15188 0.96688 0.13677 0.0
C328 C 0.18532 0.95833 0.15932 0.0
H329 H 0.33476 0.98873 0.14857 0.0
H330 H 0.28453 0.98208 0.12964 0.0
H331 H 0.29976 0.02666 0.14743 0.0
H332 H 0.22901 0.04395 0.16243 0.0
H333 H 0.17121 0.05873 0.12269 0.0
H334 H 0.92686 0.68517 0.64309 0.0
H335 H 0.93583 0.73125 0.69282 0.0
H336 H 0.06534 0.71579 0.68747 0.0
H337 H 0.05668 0.66969 0.6379 0.0
H338 H 0.9696 0.72027 0.76256 0.0
H339 H 0.05629 0.82801 0.68471 0.0
H340 H 0.0296 0.79104 0.66121 0.0
H341 H 0.07852 0.78277 0.68174 0.0
C342 C 0.95729 0.69171 0.65234 0.0
C343 C -0.00894 0.67375 0.63633 0.0
C344 C 0.96237 0.71816 0.68071 0.0
C345 C 0.00129 0.72741 0.69359 0.0
C346 C 0.03508 0.70985 0.6774 0.0
H347 H 0.10122 0.85682 0.876 0.0
H348 H 0.08907 0.81738 0.82131 0.0
C349 C 0.03005 0.68345 0.64899 0.0
C350 C 0.00639 0.75373 0.72542 0.0
H351 H 0.05377 0.83396 0.75153 0.0
C352 C 0.98769 0.74531 0.76005 0.0
C353 C 0.03012 0.78636 0.7222 0.0
C354 C 0.04948 0.79784 0.68537 0.0
C355 C -0.00708 0.76804 0.79174 0.0
C356 C 0.01696 0.80047 0.78862 0.0
C357 C 0.03539 0.80908 0.75392 0.0
C358 C 0.02407 0.82535 0.82126 0.0
C359 C 0.97367 0.7565 0.82862 0.0
C360 C -0.00835 0.84353 0.83908 0.0
C361 C -0.00153 0.86609 0.87046 0.0
C362 C 0.03791 0.87103 0.88457 0.0
C363 C 0.07042 0.85344 0.8661 0.0
C364 C 0.06356 0.83093 0.83473 0.0
H365 H 0.96473 0.7268 0.82861 0.0
H366 H -0.00534 0.76138 0.85246 0.0
H367 H 0.94594 0.7732 0.83349 0.0
H368 H 0.96101 0.84025 0.82873 0.0
H369 H 0.97277 0.87941 0.88379 0.0
H370 H 0.34818 0.92646 0.68388 0.0
H371 H 0.29798 0.92326 0.73491 0.0
H372 H 0.30223 0.04213 0.74566 0.0
H373 H 0.35213 0.04557 0.69455 0.0
H374 H 0.29831 0.9445 0.80901 0.0
H375 H 0.18226 0.02412 0.73109 0.0
H376 H 0.22756 0.00673 0.70872 0.0
H377 H 0.22927 0.04879 0.73576 0.0
C378 C 0.33868 0.95193 0.69728 0.0
C379 C 0.35398 0.98633 0.68474 0.0
C380 C 0.30986 0.95005 0.72645 0.0
C381 C 0.2956 0.98249 0.74376 0.0
C382 C 0.31183 0.01675 0.73215 0.0
H383 H 0.15671 0.0035 0.95286 0.0
H384 H 0.21109 -0.00376 0.90631 0.0
C385 C 0.34044 0.01868 0.70287 0.0
C386 C 0.26334 0.98061 0.77345 0.0
H387 H 0.16894 0.0129 0.79588 0.0
C388 C 0.26993 0.95932 0.80609 0.0
C389 C 0.22593 -0.00062 0.76949 0.0
C390 C 0.21556 0.02073 0.73423 0.0
C391 C 0.24059 0.95696 0.83507 0.0
C392 C 0.20386 0.97698 0.8317 0.0
C393 C 0.19709 -0.0023 0.79876 0.0
C394 C 0.17179 0.97712 0.86167 0.0
C395 C 0.24898 0.93249 0.86863 0.0
C396 C 0.13139 0.9687 0.85247 0.0
C397 C 0.10016 0.97344 0.87886 0.0
C398 C 0.10851 0.98658 0.91527 0.0
C399 C 0.14918 0.99317 0.92515 0.0
C400 C 0.18043 0.98883 0.89853 0.0
H401 H 0.27152 0.91068 0.86174 0.0
H402 H 0.26169 0.9496 0.89167 0.0
H403 H 0.22082 0.91893 0.87913 0.0
H404 H 0.1238 0.95947 0.82437 0.0
H405 H 0.06926 0.96784 0.87032 0.0
H406 H 0.04939 0.36272 0.65969 0.0
H407 H 0.05166 0.31691 0.71066 0.0
H408 H 0.92113 0.30966 0.71012 0.0
H409 H 0.91863 0.35436 0.65842 0.0
H410 H 0.01895 0.32053 0.78219 0.0
H411 H 0.95357 0.20131 0.70541 0.0
H412 H 0.97141 0.24259 0.68169 0.0
H413 H 0.92214 0.24177 0.70372 0.0
C414 C 0.02117 0.35091 0.66992 0.0
C415 C 0.98382 0.36224 0.6547 0.0
C416 C 0.02252 0.32492 0.69933 0.0
C417 C 0.98661 0.30942 0.71402 0.0
C418 C 0.94932 0.32065 0.6989 0.0
H419 H 0.94407 0.2005 0.9291 0.0
H420 H 0.95182 0.24475 0.87722 0.0
C421 C 0.94793 0.34659 0.66954 0.0
C422 C 0.98797 0.2823 0.74578 0.0
H423 H 0.95789 0.19524 0.77214 0.0
C424 C 0.00583 0.29305 0.77991 0.0
C425 C 0.9714 0.24619 0.74275 0.0
C426 C 0.95391 0.23208 0.70631 0.0
C427 C 0.00653 0.26912 0.81131 0.0
C428 C 0.98833 0.23364 0.80875 0.0
C429 C 0.97149 0.22254 0.7743 0.0
C430 C 0.986 0.20763 0.84143 0.0
C431 C 0.02717 0.28192 0.8468 0.0
C432 C 0.00233 0.17184 0.83866 0.0
C433 C -0.00226 0.14637 0.86824 0.0
C434 C 0.9764 0.156 0.9012 0.0
C435 C 0.96079 0.19213 0.90423 0.0
C436 C 0.96539 0.21759 0.87461 0.0
H437 H 0.0493 0.30452 0.84096 0.0
H438 H 0.004 0.29276 0.86664 0.0
H439 H 0.04325 0.25872 0.86082 0.0
H440 H 0.01829 0.16344 0.81337 0.0
H441 H 0.01024 0.11886 0.86489 0.0
H442 H 0.6612 0.98138 0.66333 0.0
H443 H 0.7057 0.98065 0.71794 0.0
H444 H 0.60449 0.00792 0.79001 0.0
H445 H 0.55919 0.00702 0.73558 0.0
H446 H 0.72458 0.03488 0.76893 0.0
H447 H 0.64933 0.91555 0.84026 0.0
H448 H 0.63892 0.92796 0.79204 0.0
H449 H 0.61659 0.95388 0.82993 0.0
C450 C 0.64819 0.98672 0.69083 0.0
C451 C 0.60645 0.99366 0.69512 0.0
C452 C 0.67379 0.98668 0.72198 0.0
C453 C 0.65831 0.99364 0.75811 0.0
C454 C 0.61692 0.00174 0.76246 0.0
H455 H 0.78443 0.98012 0.97393 0.0
H456 H 0.73511 -0.00436 0.92511 0.0
C457 C 0.59116 0.0016 0.73126 0.0
C458 C 0.68573 0.99181 0.791 0.0
H459 H 0.70414 0.94337 0.87183 0.0
C460 C 0.72 0.01501 0.79154 0.0
C461 C 0.67968 0.96585 0.82047 0.0
C462 C 0.64437 0.93914 0.82066 0.0
C463 C 0.74867 0.01262 0.82052 0.0
C464 C 0.74304 0.98614 0.84946 0.0
C465 C 0.70823 0.96369 0.84956 0.0
C466 C 0.774 0.97965 0.87874 0.0
C467 C 0.78484 0.0383 0.81989 0.0
C468 C 0.81217 0.96558 0.86874 0.0
C469 C 0.84033 0.95649 0.8965 0.0
C470 C 0.83076 0.96126 0.93481 0.0
C471 C 0.79276 0.9761 0.94469 0.0
C472 C 0.76453 0.98499 0.91688 0.0
H473 H 0.77945 0.06299 0.80185 0.0
H474 H 0.79244 0.04772 0.84875 0.0
H475 H 0.81147 0.0233 0.80837 0.0
H476 H 0.81977 0.96068 0.83947 0.0
H477 H 0.86929 0.94511 0.88794 0.0
H478 H 0.3151 0.36769 0.93281 0.0
H479 H 0.25469 0.33013 0.91989 0.0
H480 H 0.22578 0.32807 0.0384 0.0
H481 H 0.28623 0.36458 0.0517 0.0
H482 H 0.23942 0.25915 0.94958 0.0
H483 H 0.11701 0.35577 0.98966 0.0
H484 H 0.16803 0.37112 0.97891 0.0
H485 H 0.15575 0.35295 0.02485 0.0
C486 C 0.29589 0.35921 0.95613 0.0
C487 C 0.30552 0.36927 0.99333 0.0
C488 C 0.26121 0.33808 0.94862 0.0
C489 C 0.23532 0.32707 0.97809 0.0
C490 C 0.2447 0.33723 0.01512 0.0
H491 H 0.07523 0.17522 0.06186 0.0
H492 H 0.11223 0.23031 0.04201 0.0
C493 C 0.27937 0.35809 0.02267 0.0
C494 C 0.20059 0.30195 0.9712 0.0
H495 H 0.10048 0.29035 0.99314 0.0
C496 C 0.20873 0.26614 0.95806 0.0
C497 C 0.16062 0.31135 0.98205 0.0
C498 C 0.1497 0.35004 0.99429 0.0
C499 C 0.1788 0.23842 0.95887 0.0
C500 C 0.13952 0.24711 0.97251 0.0
C501 C 0.1306 0.28372 0.98279 0.0
C502 C 0.11009 0.21756 0.98255 0.0
C503 C 0.19042 0.19941 0.94808 0.0
C504 C 0.09477 0.193 0.95551 0.0
C505 C 0.07375 0.16105 0.96685 0.0
C506 C 0.06765 0.15341 1.00538 0.0
C507 C 0.07988 0.17988 0.03201 0.0
C508 C 0.10093 0.21157 0.02068 0.0
H509 H 0.22354 0.19654 0.943 0.0
H510 H 0.18128 0.17956 0.97054 0.0
H511 H 0.17442 0.19154 0.92188 0.0
H512 H 0.10073 0.1976 0.92584 0.0
H513 H 0.06424 0.14148 0.94556 0.0
H514 H 0.41453 0.67089 0.10179 0.0
H515 H 0.38165 0.73135 0.09792 0.0
H516 H 0.41295 0.73868 0.98011 0.0
H517 H 0.44395 0.67743 0.98313 0.0
H518 H 0.40386 0.80345 0.07534 0.0
H519 H 0.28938 0.74112 0.97986 0.0
H520 H 0.32553 0.7135 1.00537 0.0
H521 H 0.34082 0.73796 0.96343 0.0
C522 C 0.41448 0.68534 0.07503 0.0
C523 C 0.43116 0.66887 0.0426 0.0
C524 C 0.39608 0.7201 0.07299 0.0
C525 C 0.39419 0.73913 0.03858 0.0
C526 C 0.41347 0.72411 1.00681 0.0
H527 H 0.22766 0.91249 0.97349 0.0
H528 H 0.29008 0.87644 0.97546 0.0
C529 C 0.43155 0.68919 1.00871 0.0
C530 C 0.36858 0.77263 0.03521 0.0
H531 H 0.28186 0.80397 0.99426 0.0
C532 C 0.37736 0.80379 0.05738 0.0
C533 C 0.33386 0.77283 0.01197 0.0
C534 C 0.3215 0.7395 0.98904 0.0
C535 C 0.35213 0.83515 0.05699 0.0
C536 C 0.31715 0.83503 0.03414 0.0
C537 C 0.30898 0.80418 0.01144 0.0
C538 C 0.28636 0.86485 0.03519 0.0
C539 C 0.36302 0.86801 0.08106 0.0
C540 C 0.26456 0.87179 0.06849 0.0
C541 C 0.22884 0.89256 0.06751 0.0
C542 C 0.21405 0.90617 0.03307 0.0
C543 C 0.23789 0.90195 1.00041 0.0
C544 C 0.27368 0.88143 1.00147 0.0
H545 H 0.39603 0.86877 0.08716 0.0
H546 H 0.35427 0.89442 0.06725 0.0
H547 H 0.34656 0.86592 0.10832 0.0
H548 H 0.27336 0.85881 0.09472 0.0
H549 H 0.2113 0.89542 0.09322 0.0
H550 H 0.55725 0.27777 0.98198 0.0
H551 H 0.59794 0.22249 0.99263 0.0
H552 H 0.57519 0.23033 0.11206 0.0
H553 H 0.53579 0.2867 0.10174 0.0
H554 H 0.65383 0.22831 0.0971 0.0
H555 H 0.58135 0.11516 0.01802 0.0
H556 H 0.5876 0.15521 0.98861 0.0
H557 H 0.55495 0.15749 0.02942 0.0
C558 C 0.56033 0.2674 0.01047 0.0
C559 C 0.54363 0.2869 0.04103 0.0
C560 C 0.58313 0.2354 0.01649 0.0
C561 C 0.58927 0.22191 0.05313 0.0
C562 C 0.57058 0.24005 0.08351 0.0
H563 H 0.80093 0.08328 0.10902 0.0
H564 H 0.73188 0.10744 0.11622 0.0
C565 C 0.54788 0.27219 0.07753 0.0
C566 C 0.62018 0.19283 0.05987 0.0
H567 H 0.65465 0.11004 0.02642 0.0
C568 C 0.6535 0.20195 0.08251 0.0
C569 C 0.61973 0.15844 0.04088 0.0
C570 C 0.58371 0.14587 0.01821 0.0
C571 C 0.68776 0.17909 0.08426 0.0
C572 C 0.68844 0.1459 0.06318 0.0
C573 C 0.6541 0.13557 0.04246 0.0
C574 C 0.7265 0.12472 0.05811 0.0
C575 C 0.72408 0.19201 0.10645 0.0
C576 C 0.74533 0.12467 0.02264 0.0
C577 C 0.78455 0.11088 0.01835 0.0
C578 C 0.80578 0.09685 0.04953 0.0
C579 C 0.78565 0.09433 0.08452 0.0
C580 C 0.74625 0.10818 0.08874 0.0
H581 H 0.72068 0.22095 0.11653 0.0
H582 H 0.72803 0.17382 0.13139 0.0
H583 H 0.7521 0.19032 0.08905 0.0
H584 H 0.73053 0.13717 0.99859 0.0
H585 H 0.79884 0.11282 0.99089 0.0
H586 H 0.67128 0.59751 0.0116 0.0
H587 H 0.72945 0.63808 0.02155 0.0
H588 H 0.71332 0.62848 0.14174 0.0
H589 H 0.65517 0.58716 0.13208 0.0
H590 H 0.72071 0.70147 0.11569 0.0
H591 H 0.84421 0.61459 0.05831 0.0
H592 H 0.80201 0.61812 0.02681 0.0
H593 H 0.79538 0.5958 0.07182 0.0
C594 C 0.68054 0.60332 0.0402 0.0
C595 C 0.65866 0.58888 0.07104 0.0
C596 C 0.71386 0.62652 0.04583 0.0
C597 C 0.72616 0.63568 0.08238 0.0
C598 C 0.70449 0.62143 0.11331 0.0
H599 H 0.89794 0.8193 0.12574 0.0
H600 H 0.85859 0.76297 0.13916 0.0
C601 C 0.67112 0.59807 0.10771 0.0
C602 C 0.75973 0.66243 0.08778 0.0
H603 H 0.85726 0.68038 0.06059 0.0
C604 C 0.7509 0.69666 0.10448 0.0
C605 C 0.79907 0.6559 0.07327 0.0
C606 C 0.8109 0.61895 0.05689 0.0
C607 C 0.77946 0.72558 0.10447 0.0
C608 C 0.81803 0.71975 0.08786 0.0
C609 C 0.82765 0.68476 0.07325 0.0
C610 C 0.84636 0.75088 0.08065 0.0
C611 C 0.76719 0.76286 0.11985 0.0
C612 C 0.85401 0.76168 0.04334 0.0
C613 C 0.8765 0.79356 0.03556 0.0
C614 C 0.89188 0.81538 0.06499 0.0
C615 C 0.88615 0.80336 0.10241 0.0
C616 C 0.86356 0.77128 0.11017 0.0
H617 H 0.73427 0.76417 0.12658 0.0
H618 H 0.78429 0.76848 0.14604 0.0
H619 H 0.77458 0.78517 0.0993 0.0
H620 H 0.84113 0.74623 0.02016 0.0
H621 H 0.88058 0.80172 1.00641 0.0
loop_
_geom_bond_atom_site_label_1
_geom_bond_atom_site_label_2
_geom_bond_distance
_geom_bond_site_symmetry_2
_ccdc_geom_bond_type
C0 C1 1.384 1_455 S
C0 C2 1.384 . S
C0 H28 0.931 . S
C1 C0 1.384 1_655 S
C1 C4 1.382 . S
C2 C0 1.384 . S
C2 C3 1.381 1_455 S
C2 H29 0.930 . S
C3 C2 1.381 1_655 S
C3 C5 1.381 . S
C3 C6 1.487 . S
C4 C1 1.382 . S
C4 C5 1.387 . S
C4 H30 0.930 . S
C5 C3 1.381 . S
C5 C4 1.387 . S
C5 H31 0.931 . S
C6 C3 1.487 . S
C6 C13 1.399 1_655 S
C6 N44 1.343 . S
C7 C8 1.384 1_655 S
C7 C9 1.384 . S
C7 H32 0.931 . S
C8 C7 1.384 1_455 S
C8 C11 1.382 . S
C9 C7 1.384 . S
C9 C10 1.381 1_655 S
C9 H33 0.930 . S
C10 C9 1.381 1_455 S
C10 C12 1.381 . S
C10 C13 1.487 . S
C11 C8 1.382 . S
C11 C12 1.387 . S
C11 H34 0.930 . S
C12 C10 1.381 . S
C12 C11 1.387 . S
C12 H35 0.931 . S
C13 C6 1.399 1_455 S
C13 C10 1.487 . S
C13 N45 1.343 . S
C14 C15 1.384 1_655 S
C14 C16 1.384 . S
C14 H36 0.931 . S
C15 C14 1.384 1_455 S
C15 C18 1.382 . S
C16 C14 1.384 . S
C16 C17 1.381 1_655 S
C16 H37 0.930 . S
C17 C16 1.381 1_455 S
C17 C19 1.381 . S
C17 C20 1.487 . S
C18 C15 1.382 . S
C18 C19 1.387 . S
C18 H38 0.930 . S
C19 C17 1.381 . S
C19 C18 1.387 . S
C19 H39 0.931 . S
C20 C17 1.487 . S
C20 C27 1.399 1_455 S
C20 N45 1.343 . S
C21 C22 1.384 1_455 S
C21 C23 1.384 . S
C21 H40 0.931 . S
C22 C21 1.384 1_655 S
C22 C25 1.382 . S
C23 C21 1.384 . S
C23 C24 1.381 1_455 S
C23 H41 0.930 . S
C24 C23 1.381 1_655 S
C24 C26 1.381 . S
C24 C27 1.487 . S
C25 C22 1.382 . S
C25 C26 1.387 . S
C25 H42 0.930 . S
C26 C24 1.381 . S
C26 C25 1.387 . S
C26 H43 0.931 . S
C27 C20 1.399 1_655 S
C27 C24 1.487 . S
C27 N44 1.343 . S
H28 C0 0.931 . S
H29 C2 0.930 . S
H30 C4 0.930 . S
H31 C5 0.931 . S
H32 C7 0.931 . S
H33 C9 0.930 . S
H34 C11 0.930 . S
H35 C12 0.931 . S
H36 C14 0.931 . S
H37 C16 0.930 . S
H38 C18 0.930 . S
H39 C19 0.931 . S
H40 C21 0.931 . S
H41 C23 0.930 . S
H42 C25 0.930 . S
H43 C26 0.931 . S
N44 C6 1.343 . S
N44 C27 1.343 . S
N45 C13 1.343 . S
N45 C20 1.343 . S
C46 C47 1.366 1_545 S
C46 C48 1.384 . S
C46 H74 0.931 . S
C47 C46 1.366 1_565 S
C47 C50 1.401 . S
C48 C46 1.384 . S
C48 C49 1.381 1_545 S
C48 H75 0.930 . S
C49 C48 1.381 1_565 S
C49 C51 1.381 . S
C49 C52 1.487 . S
C50 C47 1.401 . S
C50 C51 1.387 . S
C50 H76 0.930 . S
C51 C49 1.381 . S
C51 C50 1.387 . S
C51 H77 0.931 . S
C52 C49 1.487 . S
C52 C59 1.399 1_565 S
C52 N90 1.343 . S
C53 C54 1.384 1_565 S
C53 C55 1.384 . S
C53 H78 0.931 . S
C54 C53 1.384 1_545 S
C54 C57 1.382 . S
C55 C53 1.384 . S
C55 C56 1.381 1_565 S
C55 H79 0.930 . S
C56 C55 1.381 1_545 S
C56 C58 1.381 . S
C56 C59 1.487 . S
C57 C54 1.382 . S
C57 C58 1.387 . S
C57 H80 0.930 . S
C58 C56 1.381 . S
C58 C57 1.387 . S
C58 H81 0.931 . S
C59 C52 1.399 1_545 S
C59 C56 1.487 . S
C59 N91 1.343 . S
C60 C61 1.384 1_565 S
C60 C62 1.384 . S
C60 H82 0.931 . S
C61 C60 1.384 1_545 S
C61 C64 1.382 . S
C62 C60 1.384 . S
C62 C63 1.381 1_565 S
C62 H83 0.930 . S
C63 C62 1.381 1_545 S
C63 C65 1.381 . S
C63 C66 1.487 . S
C64 C61 1.382 . S
C64 C65 1.387 . S
C64 H84 0.930 . S
C65 C63 1.381 . S
C65 C64 1.387 . S
C65 H85 0.931 . S
C66 C63 1.487 . S
C66 C73 1.399 1_545 S
C66 N91 1.343 . S
C67 C68 1.366 1_545 S
C67 C69 1.384 . S
C67 H86 0.931 . S
C68 C67 1.366 1_565 S
C68 C71 1.401 . S
C69 C67 1.384 . S
C69 C70 1.381 1_545 S
C69 H87 0.930 . S
C70 C69 1.381 1_565 S
C70 C72 1.381 . S
C70 C73 1.487 . S
C71 C68 1.401 . S
C71 C72 1.387 . S
C71 H88 0.930 . S
C72 C70 1.381 . S
C72 C71 1.387 . S
C72 H89 0.931 . S
C73 C66 1.399 1_565 S
C73 C70 1.487 . S
C73 N90 1.343 . S
H74 C46 0.931 . S
H75 C48 0.930 . S
H76 C50 0.930 . S
H77 C51 0.931 . S
H78 C53 0.931 . S
H79 C55 0.930 . S
H80 C57 0.930 . S
H81 C58 0.931 . S
H82 C60 0.931 . S
H83 C62 0.930 . S
H84 C64 0.930 . S
H85 C65 0.931 . S
H86 C67 0.931 . S
H87 C69 0.930 . S
H88 C71 0.930 . S
H89 C72 0.931 . S
N90 C52 1.343 . S
N90 C73 1.343 . S
N91 C59 1.343 . S
N91 C66 1.343 . S
C92 C93 1.380 1_556 S
C92 C94 1.384 1_556 S
C92 H120 0.936 . S
C93 C92 1.380 1_554 S
C93 C96 1.382 . S
C94 C92 1.384 1_554 S
C94 C95 1.391 . S
C94 H121 0.920 1_554 S
C95 C94 1.391 . S
C95 C97 1.381 . S
C95 C98 1.487 . S
C96 C93 1.382 . S
C96 C97 1.387 . S
C96 H122 0.930 . S
C97 C95 1.381 . S
C97 C96 1.387 . S
C97 H123 0.931 . S
C98 C95 1.487 . S
C98 C105 1.399 . S
C98 N136 1.343 . S
C99 C100 1.384 . S
C99 C101 1.384 . S
C99 H124 0.931 . S
C100 C99 1.384 . S
C100 C103 1.382 1_554 S
C101 C99 1.384 . S
C101 C102 1.381 . S
C101 H125 0.930 . S
C102 C101 1.381 . S
C102 C104 1.381 1_554 S
C102 C105 1.487 . S
C103 C100 1.382 1_556 S
C103 C104 1.387 . S
C103 H126 0.930 . S
C104 C102 1.381 1_556 S
C104 C103 1.387 . S
C104 H127 0.931 . S
C105 C98 1.399 . S
C105 C102 1.487 . S
C105 N137 1.343 . S
C106 C107 1.384 . S
C106 C108 1.384 . S
C106 H128 0.931 . S
C107 C106 1.384 . S
C107 C110 1.382 1_554 S
C108 C106 1.384 . S
C108 C109 1.381 . S
C108 H129 0.930 . S
C109 C108 1.381 . S
C109 C111 1.381 1_554 S
C109 C112 1.487 . S
C110 C107 1.382 1_556 S
C110 C111 1.387 . S
C110 H130 0.930 . S
C111 C109 1.381 1_556 S
C111 C110 1.387 . S
C111 H131 0.931 . S
C112 C109 1.487 . S
C112 C119 1.399 . S
C112 N137 1.343 . S
C113 C114 1.380 1_556 S
C113 C115 1.384 1_556 S
C113 H132 0.936 . S
C114 C113 1.380 1_554 S
C114 C117 1.382 . S
C115 C113 1.384 1_554 S
C115 C116 1.391 . S
C115 H133 0.920 1_554 S
C116 C115 1.391 . S
C116 C118 1.381 . S
C116 C119 1.487 . S
C117 C114 1.382 . S
C117 C118 1.387 . S
C117 H134 0.930 . S
C118 C116 1.381 . S
C118 C117 1.387 . S
C118 H135 0.931 . S
C119 C112 1.399 . S
C119 C116 1.487 . S
C119 N136 1.343 . S
H120 C92 0.936 . S
H121 C94 0.920 1_556 S
H122 C96 0.930 . S
H123 C97 0.931 . S
H124 C99 0.931 . S
H125 C101 0.930 . S
H126 C103 0.930 . S
H127 C104 0.931 . S
H128 C106 0.931 . S
H129 C108 0.930 . S
H130 C110 0.930 . S
H131 C111 0.931 . S
H132 C113 0.936 . S
H133 C115 0.920 1_556 S
H134 C117 0.930 . S
H135 C118 0.931 . S
N136 C98 1.343 . S
N136 C119 1.343 . S
N137 C105 1.343 . S
N137 C112 1.343 . S
Zn138 O140 1.933 1_556 S
Zn138 O158 1.985 . S
Zn138 O169 1.955 . S
Zn139 O140 1.911 . S
Zn139 O159 1.970 . S
Zn139 O175 1.945 . S
Zn139 O182 1.981 . S
O140 Zn138 1.933 1_554 S
O140 Zn139 1.911 . S
O140 H141 0.841 . S
H141 O140 0.841 . S
C142 O143 1.246 . S
C142 O171 1.276 1_455 S
O143 C142 1.246 . S
Zn144 O146 1.911 . S
Zn144 O161 1.970 . S
Zn144 O178 1.945 . S
Zn144 O185 1.981 . S
Zn145 O146 1.933 1_556 S
Zn145 O160 1.985 . S
Zn145 O167 1.955 . S
O146 Zn144 1.911 . S
O146 Zn145 1.933 1_554 S
O146 H147 0.841 . S
H147 O146 0.841 . S
Zn148 O149 1.933 1_556 S
Zn148 O162 1.985 . S
Zn148 O171 1.955 . S
O149 Zn148 1.933 1_554 S
O149 Zn150 1.911 . S
O149 H151 0.841 . S
Zn150 O149 1.911 . S
Zn150 O163 1.970 . S
Zn150 O179 1.981 . S
Zn150 O181 1.945 . S
H151 O149 0.841 . S
Zn152 O153 1.933 1_556 S
Zn152 O165 1.985 . S
Zn152 O173 1.955 . S
O153 Zn152 1.933 1_554 S
O153 H154 0.841 . S
O153 Zn155 1.911 . S
H154 O153 0.841 . S
Zn155 O153 1.911 . S
Zn155 O166 1.970 . S
Zn155 O176 1.981 . S
Zn155 O184 1.945 . S
C156 O157 1.246 . S
C156 O173 1.276 1_655 S
O157 C156 1.246 . S
O158 Zn138 1.985 . S
O158 C168 1.245 1_556 S
O159 Zn139 1.970 . S
O159 C168 1.263 . S
O160 Zn145 1.985 . S
O160 C172 1.245 1_556 S
O161 Zn144 1.970 . S
O161 C172 1.263 . S
O162 Zn148 1.985 . S
O162 C177 1.245 1_556 S
O163 Zn150 1.970 . S
O163 C177 1.263 . S
C164 O175 1.262 . S
C164 O176 1.245 1_545 S
O165 Zn152 1.985 . S
O165 C183 1.245 1_556 S
O166 Zn155 1.970 . S
O166 C183 1.263 . S
O167 Zn145 1.955 . S
O167 C186 1.276 1_565 S
C168 O158 1.245 1_554 S
C168 O159 1.263 . S
O169 Zn138 1.955 . S
O169 C188 1.276 1_545 S
C170 O178 1.262 1_545 S
C170 O179 1.245 . S
O171 C142 1.276 1_655 S
O171 Zn148 1.955 . S
C172 O160 1.245 1_554 S
C172 O161 1.263 . S
O173 Zn152 1.955 . S
O173 C156 1.276 1_455 S
C174 O181 1.262 1_455 S
C174 O182 1.245 . S
O175 Zn139 1.945 . S
O175 C164 1.262 . S
O176 Zn155 1.981 . S
O176 C164 1.245 1_565 S
C177 O162 1.245 1_554 S
C177 O163 1.263 . S
O178 Zn144 1.945 . S
O178 C170 1.262 1_565 S
O179 Zn150 1.981 . S
O179 C170 1.245 . S
C180 O184 1.262 . S
C180 O185 1.245 1_455 S
O181 Zn150 1.945 . S
O181 C174 1.262 1_655 S
O182 Zn139 1.981 . S
O182 C174 1.245 . S
C183 O165 1.245 1_554 S
C183 O166 1.263 . S
O184 Zn155 1.945 . S
O184 C180 1.262 . S
O185 Zn144 1.981 . S
O185 C180 1.245 1_655 S
C186 O167 1.276 1_545 S
C186 O187 1.246 . S
O187 C186 1.246 . S
C188 O169 1.276 1_565 S
C188 O189 1.246 . S
O189 C188 1.246 . S
H190 C198 0.929 . S
H191 C200 0.930 . S
H192 C202 0.930 . S
H193 C205 0.929 . S
H194 C208 0.930 . S
H195 C210 0.960 . S
H196 C210 0.960 . S
H197 C210 0.960 . S
C198 H190 0.929 . S
C198 C199 1.375 1_655 S
C198 C200 1.384 . S
C199 C198 1.375 1_455 S
C199 C205 1.392 . S
C200 H191 0.930 . S
C200 C198 1.384 . S
C200 C201 1.372 1_655 S
C201 C200 1.372 1_455 S
C201 C202 1.400 . S
C201 C206 1.490 . S
C202 H192 0.930 . S
C202 C201 1.400 . S
C202 C205 1.386 . S
H203 C219 0.930 . S
H204 C220 0.931 . S
C205 H193 0.929 . S
C205 C199 1.392 . S
C205 C202 1.386 . S
C206 C201 1.490 . S
C206 C208 1.395 . S
C206 C209 1.403 1_455 S
H207 C213 0.930 . S
C208 H194 0.930 . S
C208 C206 1.395 . S
C208 C211 1.403 . S
C209 C206 1.403 1_655 S
C209 C210 1.524 . S
C209 C213 1.400 . S
C210 H195 0.960 . S
C210 H196 0.960 . S
C210 H197 0.960 . S
C210 C209 1.524 . S
C211 C208 1.403 . S
C211 C212 1.392 . S
C211 C215 1.495 . S
C212 C211 1.392 . S
C212 C213 1.385 1_455 S
C212 C214 1.478 . S
C213 H207 0.930 . S
C213 C209 1.400 . S
C213 C212 1.385 1_655 S
C214 C212 1.478 . S
C214 C216 1.381 1_455 S
C214 C220 1.383 . S
C215 C211 1.495 . S
C215 H221 0.959 . S
C215 H222 0.961 . S
C215 H223 0.960 . S
C216 C214 1.381 1_655 S
C216 C217 1.394 . S
C216 H224 0.930 . S
C217 C216 1.394 . S
C217 C218 1.383 1_655 S
C217 H225 0.929 . S
C218 C217 1.383 1_455 S
C218 C219 1.377 . S
C219 H203 0.930 . S
C219 C218 1.377 . S
C219 C220 1.379 . S
C220 H204 0.931 . S
C220 C214 1.383 . S
C220 C219 1.379 . S
H221 C215 0.959 . S
H222 C215 0.961 . S
H223 C215 0.960 . S
H224 C216 0.930 . S
H225 C217 0.929 . S
H226 C234 0.929 . S
H227 C236 0.930 . S
H228 C238 0.930 . S
H229 C241 0.929 . S
H230 C244 0.930 . S
H231 C246 0.960 . S
H232 C246 0.960 . S
H233 C246 0.960 . S
C234 H226 0.929 . S
C234 C235 1.376 . S
C234 C236 1.384 . S
C235 C234 1.376 . S
C235 C241 1.392 1_565 S
C236 H227 0.930 . S
C236 C234 1.384 . S
C236 C237 1.357 1_565 S
C237 C236 1.357 1_545 S
C237 C238 1.414 . S
C237 C242 1.491 . S
C238 H228 0.930 . S
C238 C237 1.414 . S
C238 C241 1.386 . S
H239 C255 0.930 . S
H240 C256 0.931 . S
C241 H229 0.929 . S
C241 C235 1.392 1_545 S
C241 C238 1.386 . S
C242 C237 1.491 . S
C242 C244 1.395 . S
C242 C245 1.403 1_545 S
H243 C249 0.930 . S
C244 H230 0.930 . S
C244 C242 1.395 . S
C244 C247 1.403 . S
C245 C242 1.403 1_565 S
C245 C246 1.524 . S
C245 C249 1.400 . S
C246 H231 0.960 . S
C246 H232 0.960 . S
C246 H233 0.960 . S
C246 C245 1.524 . S
C247 C244 1.403 . S
C247 C248 1.392 . S
C247 C251 1.495 . S
C248 C247 1.392 . S
C248 C249 1.385 1_545 S
C248 C250 1.478 . S
C249 H243 0.930 . S
C249 C245 1.400 . S
C249 C248 1.385 1_565 S
C250 C248 1.478 . S
C250 C252 1.381 1_545 S
C250 C256 1.383 . S
C251 C247 1.495 . S
C251 H257 0.959 . S
C251 H258 0.961 . S
C251 H259 0.960 . S
C252 C250 1.381 1_565 S
C252 C253 1.394 . S
C252 H260 0.930 . S
C253 C252 1.394 . S
C253 C254 1.383 1_565 S
C253 H261 0.929 . S
C254 C253 1.383 1_545 S
C254 C255 1.377 . S
C255 H239 0.930 . S
C255 C254 1.377 . S
C255 C256 1.379 . S
C256 H240 0.931 . S
C256 C250 1.383 . S
C256 C255 1.379 . S
H257 C251 0.959 . S
H258 C251 0.961 . S
H259 C251 0.960 . S
H260 C252 0.930 . S
H261 C253 0.929 . S
H262 C270 0.931 . S
H263 C272 0.930 1_455 S
H264 C274 0.930 . S
H265 C277 0.929 . S
H266 C280 0.930 . S
H267 C282 0.960 . S
H268 C282 0.960 . S
H269 C282 0.960 . S
C270 H262 0.931 . S
C270 C271 1.377 1_455 S
C270 C272 1.383 1_455 S
C271 C270 1.377 1_655 S
C271 C277 1.390 . S
C272 H263 0.930 1_655 S
C272 C270 1.383 1_655 S
C272 C273 1.372 . S
C273 C272 1.372 . S
C273 C274 1.400 . S
C273 C278 1.490 . S
C274 H264 0.930 . S
C274 C273 1.400 . S
C274 C277 1.386 . S
H275 C291 0.930 . S
H276 C292 0.931 . S
C277 H265 0.929 . S
C277 C271 1.390 . S
C277 C274 1.386 . S
C278 C273 1.490 . S
C278 C280 1.395 . S
C278 C281 1.403 1_655 S
H279 C285 0.930 . S
C280 H266 0.930 . S
C280 C278 1.395 . S
C280 C283 1.403 . S
C281 C278 1.403 1_455 S
C281 C282 1.524 . S
C281 C285 1.400 . S
C282 H267 0.960 . S
C282 H268 0.960 . S
C282 H269 0.960 . S
C282 C281 1.524 . S
C283 C280 1.403 . S
C283 C284 1.392 . S
C283 C287 1.495 . S
C284 C283 1.392 . S
C284 C285 1.385 1_655 S
C284 C286 1.478 . S
C285 H279 0.930 . S
C285 C281 1.400 . S
C285 C284 1.385 1_455 S
C286 C284 1.478 . S
C286 C288 1.381 . S
C286 C292 1.383 . S
C287 C283 1.495 . S
C287 H293 0.959 . S
C287 H294 0.961 . S
C287 H295 0.960 . S
C288 C286 1.381 . S
C288 C289 1.394 . S
C288 H296 0.930 . S
C289 C288 1.394 . S
C289 C290 1.383 . S
C289 H297 0.929 . S
C290 C289 1.383 . S
C290 C291 1.377 . S
C291 H275 0.930 . S
C291 C290 1.377 . S
C291 C292 1.379 . S
C292 H276 0.931 . S
C292 C286 1.383 . S
C292 C291 1.379 . S
H293 C287 0.959 . S
H294 C287 0.961 . S
H295 C287 0.960 . S
H296 C288 0.930 . S
H297 C289 0.929 . S
H298 C306 0.929 . S
H299 C308 0.930 . S
H300 C310 0.930 . S
H301 C313 0.929 . S
H302 C316 0.930 . S
H303 C318 0.960 . S
H304 C318 0.960 . S
H305 C318 0.960 1_565 S
C306 H298 0.929 . S
C306 C307 1.380 . S
C306 C308 1.384 . S
C307 C306 1.380 . S
C307 C313 1.387 1_545 S
C308 H299 0.930 . S
C308 C306 1.384 . S
C308 C309 1.364 1_545 S
C309 C308 1.364 1_565 S
C309 C310 1.408 . S
C309 C314 1.490 . S
C310 H300 0.930 . S
C310 C309 1.408 . S
C310 C313 1.386 . S
H311 C327 0.930 . S
H312 C328 0.931 . S
C313 H301 0.929 . S
C313 C307 1.387 1_565 S
C313 C310 1.386 . S
C314 C309 1.490 . S
C314 C316 1.395 . S
C314 C317 1.403 1_565 S
H315 C321 0.932 . S
C316 H302 0.930 . S
C316 C314 1.395 . S
C316 C319 1.403 . S
C317 C314 1.403 1_545 S
C317 C318 1.524 . S
C317 C321 1.401 . S
C318 H303 0.960 . S
C318 H304 0.960 . S
C318 H305 0.960 1_545 S
C318 C317 1.524 . S
C319 C316 1.403 . S
C319 C320 1.392 . S
C319 C323 1.495 . S
C320 C319 1.392 . S
C320 C321 1.383 1_565 S
C320 C322 1.478 . S
C321 H315 0.932 . S
C321 C317 1.401 . S
C321 C320 1.383 1_545 S
C322 C320 1.478 . S
C322 C324 1.381 1_565 S
C322 C328 1.383 . S
C323 C319 1.495 . S
C323 H329 0.959 . S
C323 H330 0.961 . S
C323 H331 0.960 1_565 S
C324 C322 1.381 1_545 S
C324 C325 1.394 . S
C324 H332 0.930 . S
C325 C324 1.394 . S
C325 C326 1.383 1_545 S
C325 H333 0.929 . S
C326 C325 1.383 1_565 S
C326 C327 1.377 . S
C327 H311 0.930 . S
C327 C326 1.377 . S
C327 C328 1.379 . S
C328 H312 0.931 . S
C328 C322 1.383 . S
C328 C327 1.379 . S
H329 C323 0.959 . S
H330 C323 0.961 . S
H331 C323 0.960 1_545 S
H332 C324 0.930 . S
H333 C325 0.929 . S
H334 C342 0.929 . S
H335 C344 0.930 . S
H336 C346 0.930 . S
H337 C349 0.929 . S
H338 C352 0.930 . S
H339 C354 0.960 . S
H340 C354 0.960 . S
H341 C354 0.960 1_455 S
C342 H334 0.929 . S
C342 C343 1.377 . S
C342 C344 1.384 . S
C343 C342 1.377 . S
C343 C349 1.390 1_655 S
C344 H335 0.930 . S
C344 C342 1.384 . S
C344 C345 1.372 . S
C345 C344 1.372 . S
C345 C346 1.400 1_655 S
C345 C350 1.490 . S
C346 H336 0.930 . S
C346 C345 1.400 1_455 S
C346 C349 1.386 . S
H347 C363 0.930 . S
H348 C364 0.931 . S
C349 H337 0.929 . S
C349 C343 1.390 1_455 S
C349 C346 1.386 . S
C350 C345 1.490 . S
C350 C352 1.395 . S
C350 C353 1.403 . S
H351 C357 0.930 . S
C352 H338 0.930 . S
C352 C350 1.395 . S
C352 C355 1.403 . S
C353 C350 1.403 . S
C353 C354 1.524 . S
C353 C357 1.400 . S
C354 H339 0.960 . S
C354 H340 0.960 . S
C354 H341 0.960 1_655 S
C354 C353 1.524 . S
C355 C352 1.403 . S
C355 C356 1.392 . S
C355 C359 1.495 . S
C356 C355 1.392 . S
C356 C357 1.385 . S
C356 C358 1.478 . S
C357 H351 0.930 . S
C357 C353 1.400 . S
C357 C356 1.385 . S
C358 C356 1.478 . S
C358 C360 1.381 . S
C358 C364 1.383 1_655 S
C359 C355 1.495 . S
C359 H365 0.959 . S
C359 H366 0.961 1_655 S
C359 H367 0.960 . S
C360 C358 1.381 . S
C360 C361 1.394 . S
C360 H368 0.930 . S
C361 C360 1.394 . S
C361 C362 1.383 . S
C361 H369 0.929 . S
C362 C361 1.383 . S
C362 C363 1.377 1_655 S
C363 H347 0.930 . S
C363 C362 1.377 1_455 S
C363 C364 1.379 . S
C364 H348 0.931 . S
C364 C358 1.383 1_455 S
C364 C363 1.379 . S
H365 C359 0.959 . S
H366 C359 0.961 1_455 S
H367 C359 0.960 . S
H368 C360 0.930 . S
H369 C361 0.929 . S
H370 C378 0.929 . S
H371 C380 0.930 . S
H372 C382 0.930 . S
H373 C385 0.929 . S
H374 C388 0.930 . S
H375 C390 0.960 . S
H376 C390 0.960 . S
H377 C390 0.960 . S
C378 H370 0.929 . S
C378 C379 1.405 . S
C378 C380 1.384 . S
C379 C378 1.405 . S
C379 C385 1.364 1_565 S
C380 H371 0.930 . S
C380 C378 1.384 . S
C380 C381 1.372 . S
C381 C380 1.372 . S
C381 C382 1.400 1_565 S
C381 C386 1.490 . S
C382 H372 0.930 . S
C382 C381 1.400 1_545 S
C382 C385 1.386 . S
H383 C399 0.930 . S
H384 C400 0.931 . S
C385 H373 0.929 . S
C385 C379 1.364 1_545 S
C385 C382 1.386 . S
C386 C381 1.490 . S
C386 C388 1.395 . S
C386 C389 1.403 1_565 S
H387 C393 0.930 . S
C388 H374 0.930 . S
C388 C386 1.395 . S
C388 C391 1.403 . S
C389 C386 1.403 1_545 S
C389 C390 1.524 . S
C389 C393 1.400 . S
C390 H375 0.960 . S
C390 H376 0.960 . S
C390 H377 0.960 . S
C390 C389 1.524 . S
C391 C388 1.403 . S
C391 C392 1.392 . S
C391 C395 1.495 . S
C392 C391 1.392 . S
C392 C393 1.385 1_565 S
C392 C394 1.478 . S
C393 H387 0.930 . S
C393 C389 1.400 . S
C393 C392 1.385 1_545 S
C394 C392 1.478 . S
C394 C396 1.381 . S
C394 C400 1.383 1_565 S
C395 C391 1.495 . S
C395 H401 0.959 . S
C395 H402 0.961 . S
C395 H403 0.960 . S
C396 C394 1.381 . S
C396 C397 1.394 . S
C396 H404 0.930 . S
C397 C396 1.394 . S
C397 C398 1.383 . S
C397 H405 0.929 . S
C398 C397 1.383 . S
C398 C399 1.377 1_565 S
C399 H383 0.930 . S
C399 C398 1.377 1_545 S
C399 C400 1.379 . S
C400 H384 0.931 . S
C400 C394 1.383 1_545 S
C400 C399 1.379 . S
H401 C395 0.959 . S
H402 C395 0.961 . S
H403 C395 0.960 . S
H404 C396 0.930 . S
H405 C397 0.929 . S
H406 C414 0.929 . S
H407 C416 0.930 . S
H408 C418 0.930 . S
H409 C421 0.929 . S
H410 C424 0.930 . S
H411 C426 0.960 . S
H412 C426 0.960 1_455 S
H413 C426 0.960 . S
C414 H406 0.929 . S
C414 C415 1.377 . S
C414 C416 1.384 . S
C415 C414 1.377 . S
C415 C421 1.390 1_455 S
C416 H407 0.930 . S
C416 C414 1.384 . S
C416 C417 1.372 . S
C417 C416 1.372 . S
C417 C418 1.400 1_455 S
C417 C422 1.490 . S
C418 H408 0.930 . S
C418 C417 1.400 1_655 S
C418 C421 1.386 . S
H419 C435 0.930 . S
H420 C436 0.931 . S
C421 H409 0.929 . S
C421 C415 1.390 1_655 S
C421 C418 1.386 . S
C422 C417 1.490 . S
C422 C424 1.395 . S
C422 C425 1.405 . S
H423 C429 0.930 1_655 S
C424 H410 0.930 . S
C424 C422 1.395 . S
C424 C427 1.403 . S
C425 C422 1.405 . S
C425 C426 1.521 1_455 S
C425 C429 1.400 . S
C426 H411 0.960 . S
C426 H412 0.960 1_655 S
C426 H413 0.960 . S
C426 C425 1.521 1_655 S
C427 C424 1.403 . S
C427 C428 1.392 . S
C427 C431 1.495 . S
C428 C427 1.392 . S
C428 C429 1.385 . S
C428 C430 1.478 . S
C429 H423 0.930 1_455 S
C429 C425 1.400 . S
C429 C428 1.385 . S
C430 C428 1.478 . S
C430 C432 1.381 . S
C430 C436 1.383 1_455 S
C431 C427 1.495 . S
C431 H437 0.959 . S
C431 H438 0.961 . S
C431 H439 0.960 . S
C432 C430 1.381 . S
C432 C433 1.394 . S
C432 H440 0.930 . S
C433 C432 1.394 . S
C433 C434 1.383 . S
C433 H441 0.929 . S
C434 C433 1.383 . S
C434 C435 1.377 1_455 S
C435 H419 0.930 . S
C435 C434 1.377 1_655 S
C435 C436 1.379 . S
C436 H420 0.931 . S
C436 C430 1.383 1_655 S
C436 C435 1.379 . S
H437 C431 0.959 . S
H438 C431 0.961 . S
H439 C431 0.960 . S
H440 C432 0.930 . S
H441 C433 0.929 . S
H442 C450 0.929 . S
H443 C452 0.930 . S
H444 C454 0.930 . S
H445 C457 0.929 . S
H446 C460 0.930 . S
H447 C462 0.960 . S
H448 C462 0.960 . S
H449 C462 0.960 . S
C450 H442 0.929 . S
C450 C451 1.375 1_565 S
C450 C452 1.384 . S
C451 C450 1.375 1_545 S
C451 C457 1.393 . S
C452 H443 0.930 . S
C452 C450 1.384 . S
C452 C453 1.372 1_565 S
C453 C452 1.372 1_545 S
C453 C454 1.400 . S
C453 C458 1.490 . S
C454 H444 0.930 . S
C454 C453 1.400 . S
C454 C457 1.386 . S
H455 C471 0.930 . S
H456 C472 0.931 . S
C457 H445 0.929 . S
C457 C451 1.393 . S
C457 C454 1.386 . S
C458 C453 1.490 . S
C458 C460 1.395 . S
C458 C461 1.403 1_545 S
H459 C465 0.930 . S
C460 H446 0.930 . S
C460 C458 1.395 . S
C460 C463 1.403 . S
C461 C458 1.403 1_565 S
C461 C462 1.524 . S
C461 C465 1.400 . S
C462 H447 0.960 . S
C462 H448 0.960 . S
C462 H449 0.960 . S
C462 C461 1.524 . S
C463 C460 1.403 . S
C463 C464 1.392 . S
C463 C467 1.495 . S
C464 C463 1.392 . S
C464 C465 1.385 1_545 S
C464 C466 1.478 . S
C465 H459 0.930 . S
C465 C461 1.400 . S
C465 C464 1.385 1_565 S
C466 C464 1.478 . S
C466 C468 1.381 1_545 S
C466 C472 1.383 . S
C467 C463 1.495 . S
C467 H473 0.959 . S
C467 H474 0.961 . S
C467 H475 0.960 . S
C468 C466 1.381 1_565 S
C468 C469 1.394 . S
C468 H476 0.930 . S
C469 C468 1.394 . S
C469 C470 1.383 1_565 S
C469 H477 0.929 . S
C470 C469 1.383 1_545 S
C470 C471 1.377 . S
C471 H455 0.930 . S
C471 C470 1.377 . S
C471 C472 1.379 . S
C472 H456 0.931 . S
C472 C466 1.383 . S
C472 C471 1.379 . S
H473 C467 0.959 . S
H474 C467 0.961 . S
H475 C467 0.960 . S
H476 C468 0.930 . S
H477 C469 0.929 . S
H478 C486 0.929 . S
H479 C488 0.930 . S
H480 C490 0.930 . S
H481 C493 0.929 . S
H482 C496 0.930 . S
H483 C498 0.960 . S
H484 C498 0.960 . S
H485 C498 0.960 . S
C486 H478 0.929 . S
C486 C487 1.377 1_556 S
C486 C488 1.384 . S
C487 C486 1.377 1_554 S
C487 C493 1.390 . S
C488 H479 0.930 . S
C488 C486 1.384 . S
C488 C489 1.372 1_556 S
C489 C488 1.372 1_554 S
C489 C490 1.400 . S
C489 C494 1.490 . S
C490 H480 0.930 . S
C490 C489 1.400 . S
C490 C493 1.386 . S
H491 C507 0.930 . S
H492 C508 0.931 . S
C493 H481 0.929 . S
C493 C487 1.390 . S
C493 C490 1.386 . S
C494 C489 1.490 . S
C494 C496 1.395 . S
C494 C497 1.403 . S
H495 C501 0.930 . S
C496 H482 0.930 . S
C496 C494 1.395 . S
C496 C499 1.403 . S
C497 C494 1.403 . S
C497 C498 1.524 . S
C497 C501 1.400 . S
C498 H483 0.960 . S
C498 H484 0.960 . S
C498 H485 0.960 . S
C498 C497 1.524 . S
C499 C496 1.403 . S
C499 C500 1.392 . S
C499 C503 1.495 . S
C500 C499 1.392 . S
C500 C501 1.385 . S
C500 C502 1.478 . S
C501 H495 0.930 . S
C501 C497 1.400 . S
C501 C500 1.385 . S
C502 C500 1.478 . S
C502 C504 1.381 1_554 S
C502 C508 1.383 . S
C503 C499 1.495 . S
C503 H509 0.959 . S
C503 H510 0.961 . S
C503 H511 0.960 1_554 S
C504 C502 1.381 1_556 S
C504 C505 1.394 . S
C504 H512 0.930 . S
C505 C504 1.394 . S
C505 C506 1.383 1_556 S
C505 H513 0.929 . S
C506 C505 1.383 1_554 S
C506 C507 1.377 . S
C507 H491 0.930 . S
C507 C506 1.377 . S
C507 C508 1.379 . S
C508 H492 0.931 . S
C508 C502 1.383 . S
C508 C507 1.379 . S
H509 C503 0.959 . S
H510 C503 0.961 . S
H511 C503 0.960 1_556 S
H512 C504 0.930 . S
H513 C505 0.929 . S
H514 C522 0.929 . S
H515 C524 0.930 . S
H516 C526 0.930 . S
H517 C529 0.929 . S
H518 C532 0.930 . S
H519 C534 0.960 . S
H520 C534 0.960 . S
H521 C534 0.960 . S
C522 H514 0.929 . S
C522 C523 1.377 . S
C522 C524 1.384 . S
C523 C522 1.377 . S
C523 C529 1.390 1_554 S
C524 H515 0.930 . S
C524 C522 1.384 . S
C524 C525 1.372 . S
C525 C524 1.372 . S
C525 C526 1.400 1_554 S
C525 C530 1.490 . S
C526 H516 0.930 . S
C526 C525 1.400 1_556 S
C526 C529 1.386 . S
H527 C543 0.930 . S
H528 C544 0.931 . S
C529 H517 0.929 . S
C529 C523 1.390 1_556 S
C529 C526 1.386 . S
C530 C525 1.490 . S
C530 C532 1.395 . S
C530 C533 1.403 . S
H531 C537 0.930 . S
C532 H518 0.930 . S
C532 C530 1.395 . S
C532 C535 1.403 . S
C533 C530 1.403 . S
C533 C534 1.524 . S
C533 C537 1.400 . S
C534 H519 0.960 . S
C534 H520 0.960 . S
C534 H521 0.960 . S
C534 C533 1.524 . S
C535 C532 1.403 . S
C535 C536 1.392 . S
C535 C539 1.495 . S
C536 C535 1.392 . S
C536 C537 1.385 . S
C536 C538 1.478 . S
C537 H531 0.930 . S
C537 C533 1.400 . S
C537 C536 1.385 . S
C538 C536 1.478 . S
C538 C540 1.381 . S
C538 C544 1.383 1_554 S
C539 C535 1.495 . S
C539 H545 0.959 . S
C539 H546 0.961 1_554 S
C539 H547 0.960 . S
C540 C538 1.381 . S
C540 C541 1.394 . S
C540 H548 0.930 . S
C541 C540 1.394 . S
C541 C542 1.383 . S
C541 H549 0.929 . S
C542 C541 1.383 . S
C542 C543 1.377 1_554 S
C543 H527 0.930 . S
C543 C542 1.377 1_556 S
C543 C544 1.379 . S
C544 H528 0.931 . S
C544 C538 1.383 1_556 S
C544 C543 1.379 . S
H545 C539 0.959 . S
H546 C539 0.961 1_556 S
H547 C539 0.960 . S
H548 C540 0.930 . S
H549 C541 0.929 . S
H550 C558 0.929 . S
H551 C560 0.930 . S
H552 C562 0.930 . S
H553 C565 0.929 . S
H554 C568 0.930 . S
H555 C570 0.960 . S
H556 C570 0.960 1_556 S
H557 C570 0.960 . S
C558 H550 0.929 . S
C558 C559 1.377 1_556 S
C558 C560 1.384 . S
C559 C558 1.377 1_554 S
C559 C565 1.390 . S
C560 H551 0.930 . S
C560 C558 1.384 . S
C560 C561 1.372 1_556 S
C561 C560 1.372 1_554 S
C561 C562 1.400 . S
C561 C566 1.490 . S
C562 H552 0.930 . S
C562 C561 1.400 . S
C562 C565 1.386 . S
H563 C579 0.930 . S
H564 C580 0.931 . S
C565 H553 0.929 . S
C565 C559 1.390 . S
C565 C562 1.386 . S
C566 C561 1.490 . S
C566 C568 1.395 . S
C566 C569 1.403 . S
H567 C573 0.930 . S
C568 H554 0.930 . S
C568 C566 1.395 . S
C568 C571 1.403 . S
C569 C566 1.403 . S
C569 C570 1.524 . S
C569 C573 1.400 . S
C570 H555 0.960 . S
C570 H556 0.960 1_554 S
C570 H557 0.960 . S
C570 C569 1.524 . S
C571 C568 1.403 . S
C571 C572 1.392 . S
C571 C575 1.495 . S
C572 C571 1.392 . S
C572 C573 1.385 . S
C572 C574 1.478 . S
C573 H567 0.930 . S
C573 C569 1.400 . S
C573 C572 1.385 . S
C574 C572 1.478 . S
C574 C576 1.381 1_554 S
C574 C580 1.383 . S
C575 C571 1.495 . S
C575 H581 0.959 . S
C575 H582 0.961 . S
C575 H583 0.960 . S
C576 C574 1.381 1_556 S
C576 C577 1.394 . S
C576 H584 0.930 . S
C577 C576 1.394 . S
C577 C578 1.383 1_556 S
C577 H585 0.929 . S
C578 C577 1.383 1_554 S
C578 C579 1.377 . S
C579 H563 0.930 . S
C579 C578 1.377 . S
C579 C580 1.379 . S
C580 H564 0.931 . S
C580 C574 1.383 . S
C580 C579 1.379 . S
H581 C575 0.959 . S
H582 C575 0.961 . S
H583 C575 0.960 . S
H584 C576 0.930 . S
H585 C577 0.929 . S
H586 C594 0.929 1_556 S
H587 C596 0.930 1_556 S
H588 C598 0.930 . S
H589 C601 0.929 . S
H590 C604 0.930 . S
H591 C606 0.960 . S
H592 C606 0.960 . S
H593 C606 0.960 1_554 S
C594 H586 0.929 1_554 S
C594 C595 1.377 . S
C594 C596 1.384 . S
C595 C594 1.377 . S
C595 C601 1.390 . S
C596 H587 0.930 1_554 S
C596 C594 1.384 . S
C596 C597 1.372 . S
C597 C596 1.372 . S
C597 C598 1.400 . S
C597 C602 1.490 . S
C598 H588 0.930 . S
C598 C597 1.400 . S
C598 C601 1.386 . S
H599 C615 0.930 . S
H600 C616 0.931 . S
C601 H589 0.929 . S
C601 C595 1.390 . S
C601 C598 1.386 . S
C602 C597 1.490 . S
C602 C604 1.395 . S
C602 C605 1.403 . S
H603 C609 0.930 . S
C604 H590 0.930 . S
C604 C602 1.395 . S
C604 C607 1.403 . S
C605 C602 1.403 . S
C605 C606 1.524 1_554 S
C605 C609 1.400 . S
C606 H591 0.960 . S
C606 H592 0.960 . S
C606 H593 0.960 1_556 S
C606 C605 1.524 1_556 S
C607 C604 1.403 . S
C607 C608 1.392 . S
C607 C611 1.495 . S
C608 C607 1.392 . S
C608 C609 1.385 . S
C608 C610 1.478 . S
C609 H603 0.930 . S
C609 C605 1.400 . S
C609 C608 1.385 . S
C610 C608 1.478 . S
C610 C612 1.381 . S
C610 C616 1.383 . S
C611 C607 1.495 . S
C611 H617 0.959 . S
C611 H618 0.961 . S
C611 H619 0.960 . S
C612 C610 1.381 . S
C612 C613 1.395 . S
C612 H620 0.930 1_554 S
C613 C612 1.395 . S
C613 C614 1.392 . S
C613 H621 0.920 1_554 S
C614 C613 1.392 . S
C614 C615 1.377 . S
C615 H599 0.930 . S
C615 C614 1.377 . S
C615 C616 1.379 . S
C616 H600 0.931 . S
C616 C610 1.383 . S
C616 C615 1.379 . S
H617 C611 0.959 . S
H618 C611 0.961 . S
H619 C611 0.960 . S
H620 C612 0.930 1_556 S
H621 C613 0.920 1_556 S
C218 C174 1.950 . S
C199 C15 2.032 . S
C254 C170 1.344 . S
C235 C68 1.435 . S
C290 C180 1.955 1_655 S
C271 C8 2.037 1_655 S
C326 C164 1.339 1_565 S
C307 C61 1.431 . S
C343 C1 2.173 . S
C362 C156 2.051 . S
C398 C188 1.466 . S
C379 C54 1.567 1_565 S
C415 C22 2.175 1_455 S
C434 C142 2.051 . S
C451 C47 1.570 1_545 S
C470 C186 1.507 . S
C487 C93 0.931 . S
C506 C168 0.881 . S
C523 C114 0.944 . S
C542 C183 0.961 . S
C578 C177 0.893 . S
C559 C100 0.943 . S
C614 C172 0.890 . S
C595 C107 0.935 . S
