# Generated by pormake.
# Topology eea, (3,6)-cn, num edge types: 1
# Building blocks:
#     Node 0, Type 0, BuildingBlock: CUQRIR_clean_linker_1, # of connection points: 3
#     Node 1, Type 0, BuildingBlock: CUQRIR_clean_linker_1, # of connection points: 3
#     Node 2, Type 0, BuildingBlock: CUQRIR_clean_linker_1, # of connection points: 3
#     Node 3, Type 0, BuildingBlock: CUQRIR_clean_linker_1, # of connection points: 3
#     Node 4, Type 0, BuildingBlock: CUQRIR_clean_linker_1, # of connection points: 3
#     Node 5, Type 0, BuildingBlock: CUQRIR_clean_linker_1, # of connection points: 3
#     Node 6, Type 0, BuildingBlock: CUQRIR_clean_linker_1, # of connection points: 3
#     Node 7, Type 0, BuildingBlock: CUQRIR_clean_linker_1, # of connection points: 3
#     Node 8, Type 0, BuildingBlock: CUQRIR_clean_linker_1, # of connection points: 3
#     Node 9, Type 0, BuildingBlock: CUQRIR_clean_linker_1, # of connection points: 3
#     Node 10, Type 0, BuildingBlock: CUQRIR_clean_linker_1, # of connection points: 3
#     Node 11, Type 0, BuildingBlock: CUQRIR_clean_linker_1, # of connection points: 3
#     Node 12, Type 0, BuildingBlock: CUQRIR_clean_linker_1, # of connection points: 3
#     Node 13, Type 0, BuildingBlock: CUQRIR_clean_linker_1, # of connection points: 3
#     Node 14, Type 0, BuildingBlock: CUQRIR_clean_linker_1, # of connection points: 3
#     Node 15, Type 0, BuildingBlock: CUQRIR_clean_linker_1, # of connection points: 3
#     Node 16, Type 0, BuildingBlock: CUQRIR_clean_linker_1, # of connection points: 3
#     Node 17, Type 0, BuildingBlock: CUQRIR_clean_linker_1, # of connection points: 3
#     Node 18, Type 1, BuildingBlock: LEVNOQ01_clean_sbu_1, # of connection points: 6
#     Node 19, Type 1, BuildingBlock: LEVNOQ01_clean_sbu_1, # of connection points: 6
#     Node 20, Type 1, BuildingBlock: LEVNOQ01_clean_sbu_1, # of connection points: 6
#     Node 21, Type 1, BuildingBlock: LEVNOQ01_clean_sbu_1, # of connection points: 6
#     Node 22, Type 1, BuildingBlock: LEVNOQ01_clean_sbu_1, # of connection points: 6
#     Node 23, Type 1, BuildingBlock: LEVNOQ01_clean_sbu_1, # of connection points: 6
#     Node 24, Type 1, BuildingBlock: LEVNOQ01_clean_sbu_1, # of connection points: 6
#     Node 25, Type 1, BuildingBlock: LEVNOQ01_clean_sbu_1, # of connection points: 6
#     Node 26, Type 1, BuildingBlock: LEVNOQ01_clean_sbu_1, # of connection points: 6
#     Edge 27, Type (0, 1), BuildingBlock: KIFKEQ_clean_linker_1, # of connection points: 2
#     Edge 28, Type (0, 1), BuildingBlock: KIFKEQ_clean_linker_1, # of connection points: 2
#     Edge 29, Type (0, 1), BuildingBlock: KIFKEQ_clean_linker_1, # of connection points: 2
#     Edge 30, Type (0, 1), BuildingBlock: KIFKEQ_clean_linker_1, # of connection points: 2
#     Edge 31, Type (0, 1), BuildingBlock: KIFKEQ_clean_linker_1, # of connection points: 2
#     Edge 32, Type (0, 1), BuildingBlock: KIFKEQ_clean_linker_1, # of connection points: 2
#     Edge 33, Type (0, 1), BuildingBlock: KIFKEQ_clean_linker_1, # of connection points: 2
#     Edge 34, Type (0, 1), BuildingBlock: KIFKEQ_clean_linker_1, # of connection points: 2
#     Edge 35, Type (0, 1), BuildingBlock: KIFKEQ_clean_linker_1, # of connection points: 2
#     Edge 36, Type (0, 1), BuildingBlock: KIFKEQ_clean_linker_1, # of connection points: 2
#     Edge 37, Type (0, 1), BuildingBlock: KIFKEQ_clean_linker_1, # of connection points: 2
#     Edge 38, Type (0, 1), BuildingBlock: KIFKEQ_clean_linker_1, # of connection points: 2
#     Edge 39, Type (0, 1), BuildingBlock: KIFKEQ_clean_linker_1, # of connection points: 2
#     Edge 40, Type (0, 1), BuildingBlock: KIFKEQ_clean_linker_1, # of connection points: 2
#     Edge 41, Type (0, 1), BuildingBlock: KIFKEQ_clean_linker_1, # of connection points: 2
#     Edge 42, Type (0, 1), BuildingBlock: KIFKEQ_clean_linker_1, # of connection points: 2
#     Edge 43, Type (0, 1), BuildingBlock: KIFKEQ_clean_linker_1, # of connection points: 2
#     Edge 44, Type (0, 1), BuildingBlock: KIFKEQ_clean_linker_1, # of connection points: 2
#     Edge 45, Type (0, 1), BuildingBlock: KIFKEQ_clean_linker_1, # of connection points: 2
#     Edge 46, Type (0, 1), BuildingBlock: KIFKEQ_clean_linker_1, # of connection points: 2
#     Edge 47, Type (0, 1), BuildingBlock: KIFKEQ_clean_linker_1, # of connection points: 2
#     Edge 48, Type (0, 1), BuildingBlock: KIFKEQ_clean_linker_1, # of connection points: 2
#     Edge 49, Type (0, 1), BuildingBlock: KIFKEQ_clean_linker_1, # of connection points: 2
#     Edge 50, Type (0, 1), BuildingBlock: KIFKEQ_clean_linker_1, # of connection points: 2
#     Edge 51, Type (0, 1), BuildingBlock: KIFKEQ_clean_linker_1, # of connection points: 2
#     Edge 52, Type (0, 1), BuildingBlock: KIFKEQ_clean_linker_1, # of connection points: 2
#     Edge 53, Type (0, 1), BuildingBlock: KIFKEQ_clean_linker_1, # of connection points: 2
#     Edge 54, Type (0, 1), BuildingBlock: KIFKEQ_clean_linker_1, # of connection points: 2
#     Edge 55, Type (0, 1), BuildingBlock: KIFKEQ_clean_linker_1, # of connection points: 2
#     Edge 56, Type (0, 1), BuildingBlock: KIFKEQ_clean_linker_1, # of connection points: 2
#     Edge 57, Type (0, 1), BuildingBlock: KIFKEQ_clean_linker_1, # of connection points: 2
#     Edge 58, Type (0, 1), BuildingBlock: KIFKEQ_clean_linker_1, # of connection points: 2
#     Edge 59, Type (0, 1), BuildingBlock: KIFKEQ_clean_linker_1, # of connection points: 2
#     Edge 60, Type (0, 1), BuildingBlock: KIFKEQ_clean_linker_1, # of connection points: 2
#     Edge 61, Type (0, 1), BuildingBlock: KIFKEQ_clean_linker_1, # of connection points: 2
#     Edge 62, Type (0, 1), BuildingBlock: KIFKEQ_clean_linker_1, # of connection points: 2
#     Edge 63, Type (0, 1), BuildingBlock: KIFKEQ_clean_linker_1, # of connection points: 2
#     Edge 64, Type (0, 1), BuildingBlock: KIFKEQ_clean_linker_1, # of connection points: 2
#     Edge 65, Type (0, 1), BuildingBlock: KIFKEQ_clean_linker_1, # of connection points: 2
#     Edge 66, Type (0, 1), BuildingBlock: KIFKEQ_clean_linker_1, # of connection points: 2
#     Edge 67, Type (0, 1), BuildingBlock: KIFKEQ_clean_linker_1, # of connection points: 2
#     Edge 68, Type (0, 1), BuildingBlock: KIFKEQ_clean_linker_1, # of connection points: 2
#     Edge 69, Type (0, 1), BuildingBlock: KIFKEQ_clean_linker_1, # of connection points: 2
#     Edge 70, Type (0, 1), BuildingBlock: KIFKEQ_clean_linker_1, # of connection points: 2
#     Edge 71, Type (0, 1), BuildingBlock: KIFKEQ_clean_linker_1, # of connection points: 2
#     Edge 72, Type (0, 1), BuildingBlock: KIFKEQ_clean_linker_1, # of connection points: 2
#     Edge 73, Type (0, 1), BuildingBlock: KIFKEQ_clean_linker_1, # of connection points: 2
#     Edge 74, Type (0, 1), BuildingBlock: KIFKEQ_clean_linker_1, # of connection points: 2
#     Edge 75, Type (0, 1), BuildingBlock: KIFKEQ_clean_linker_1, # of connection points: 2
#     Edge 76, Type (0, 1), BuildingBlock: KIFKEQ_clean_linker_1, # of connection points: 2
#     Edge 77, Type (0, 1), BuildingBlock: KIFKEQ_clean_linker_1, # of connection points: 2
#     Edge 78, Type (0, 1), BuildingBlock: KIFKEQ_clean_linker_1, # of connection points: 2
#     Edge 79, Type (0, 1), BuildingBlock: KIFKEQ_clean_linker_1, # of connection points: 2
#     Edge 80, Type (0, 1), BuildingBlock: KIFKEQ_clean_linker_1, # of connection points: 2
# Relax obj value: 0.108
# Max RMSD: 0.165
# Mean RMSD: 0.139
data_MOF--net-eea--node1-LEVNOQ01_clean_sbu_1--node2-CUQRIR_clean_linker_1--edge1-KIFKEQ_clean_linker_1
_symmetry_space_group_name_H-M    P1
_symmetry_Int_Tables_number       1
_symmetry_cell_setting            triclinic
loop_
_symmetry_equiv_pos_as_xyz
'x, y, z'
_cell_length_a     53.733655
_cell_length_b     54.401405
_cell_length_c     43.9749
_cell_angle_alpha  82.497052
_cell_angle_beta   90.320901
_cell_angle_gamma 119.3906
loop_
_atom_site_label
_atom_site_type_symbol
_atom_site_fract_x
_atom_site_fract_y
_atom_site_fract_z
_atom_type_partial_charge
C0 C 0.19702 0.0914 0.36788 0.0
N1 N 0.20626 0.11156 0.38661 0.0
N2 N 0.20355 0.07095 0.37852 0.0
C3 C 0.18107 0.09138 0.33969 0.0
C4 C 0.21706 0.07935 0.4044 0.0
N5 N 0.21853 0.10401 0.40943 0.0
C6 C 0.22822 0.06319 0.42514 0.0
H7 H 0.15854 0.08435 0.34691 0.0
H8 H 0.18132 0.07675 0.32448 0.0
H9 H 0.19051 0.11322 0.32668 0.0
H10 H 0.23338 0.04972 0.41258 0.0
H11 H 0.21152 0.04906 0.44372 0.0
H12 H 0.2476 0.0781 0.43589 0.0
C13 C 0.88959 0.11999 0.38606 0.0
N14 N 0.9012 0.13869 0.40647 0.0
N15 N 0.86199 0.10047 0.39509 0.0
C16 C 0.90438 0.12206 0.3561 0.0
C17 C 0.8571 0.1081 0.42154 0.0
N18 N 0.88074 0.13155 0.4282 0.0
C19 C 0.83027 0.09091 0.44257 0.0
H20 H 0.88861 0.11289 0.33868 0.0
H21 H 0.91601 0.10991 0.35981 0.0
H22 H 0.92008 0.14459 0.34717 0.0
H23 H 0.81981 0.06795 0.44024 0.0
H24 H 0.81507 0.09874 0.43644 0.0
H25 H 0.83495 0.09317 0.46697 0.0
C26 C 0.8856 0.79576 0.34993 0.0
N27 N 0.89456 0.78341 0.37279 0.0
N28 N 0.85716 0.78543 0.35385 0.0
C29 C 0.90422 0.81723 0.32309 0.0
C30 C 0.84902 0.76643 0.37996 0.0
N31 N 0.87169 0.76471 0.39115 0.0
C32 C 0.81961 0.75209 0.39623 0.0
H33 H 0.91573 0.83866 0.33035 0.0
H34 H 0.89117 0.81804 0.30374 0.0
H35 H 0.92031 0.81191 0.31509 0.0
H36 H 0.80552 0.73256 0.3861 0.0
H37 H 0.8101 0.76624 0.39317 0.0
H38 H 0.82006 0.74595 0.4212 0.0
C39 C 0.08179 0.19977 0.68047 0.0
N40 N 0.10495 0.21246 0.66022 0.0
N41 N 0.06031 0.20313 0.66853 0.0
C42 C 0.08107 0.18692 0.71321 0.0
C43 C 0.07129 0.21885 0.64056 0.0
N44 N 0.09861 0.22464 0.63546 0.0
C45 C 0.05487 0.22728 0.61777 0.0
H46 H 0.0733 0.16379 0.71409 0.0
H47 H 0.06628 0.1894 0.72841 0.0
H48 H 0.10267 0.19706 0.72219 0.0
H49 H 0.05853 0.24869 0.62088 0.0
H50 H 0.03156 0.21197 0.62146 0.0
H51 H 0.06224 0.22835 0.59387 0.0
C52 C 0.80421 0.90561 0.64043 0.0
N53 N 0.79359 0.8861 0.62084 0.0
N54 N 0.79556 0.92512 0.63384 0.0
C55 C 0.82263 0.90527 0.66615 0.0
C56 C 0.77915 0.9167 0.6098 0.0
N57 N 0.77785 0.89291 0.60197 0.0
C58 C 0.76512 0.93235 0.59348 0.0
H59 H 0.81235 0.8839 0.68035 0.0
H60 H 0.82635 0.92152 0.68108 0.0
H61 H 0.84348 0.90933 0.65624 0.0
H62 H 0.77956 0.95574 0.59154 0.0
H63 H 0.74537 0.92688 0.60723 0.0
H64 H 0.75911 0.92654 0.57026 0.0
C65 C 0.11772 0.90623 0.66147 0.0
N66 N 0.10532 0.88253 0.64756 0.0
N67 N 0.14424 0.9247 0.64828 0.0
C68 C 0.10503 0.9107 0.68921 0.0
C69 C 0.14776 0.91153 0.62607 0.0
N70 N 0.12423 0.88577 0.62578 0.0
C71 C 0.17308 0.925 0.60286 0.0
H72 H 0.09255 0.92138 0.68151 0.0
H73 H 0.12214 0.9246 0.70325 0.0
H74 H 0.09056 0.89005 0.70364 0.0
H75 H 0.18842 0.91774 0.61056 0.0
H76 H 0.18425 0.94861 0.60054 0.0
H77 H 0.16634 0.91851 0.57999 0.0
C78 C 0.85978 0.42436 0.70954 0.0
N79 N 0.87048 0.44322 0.72982 0.0
N80 N 0.87082 0.40662 0.71288 0.0
C81 C 0.83994 0.42423 0.68524 0.0
C82 C 0.88865 0.41532 0.73588 0.0
N83 N 0.88871 0.4378 0.74596 0.0
C84 C 0.90351 0.3999 0.75062 0.0
H85 H 0.8175 0.41107 0.69505 0.0
H86 H 0.84254 0.41491 0.66531 0.0
H87 H 0.84401 0.44618 0.67727 0.0
H88 H 0.925 0.40906 0.73868 0.0
H89 H 0.89134 0.37684 0.74872 0.0
H90 H 0.90624 0.40229 0.77528 0.0
C91 C 0.56945 0.43148 0.72542 0.0
N92 N 0.57763 0.45017 0.74595 0.0
N93 N 0.5428 0.4094 0.73356 0.0
C94 C 0.58782 0.43453 0.69789 0.0
C95 C 0.5348 0.41545 0.75936 0.0
N96 N 0.55593 0.44021 0.767 0.0
C97 C 0.50598 0.39749 0.77669 0.0
H98 H 0.60055 0.45726 0.68747 0.0
H99 H 0.57495 0.42177 0.68025 0.0
H100 H 0.60293 0.42695 0.70543 0.0
H101 H 0.50726 0.38207 0.79491 0.0
H102 H 0.48934 0.38535 0.76119 0.0
H103 H 0.49959 0.41092 0.78781 0.0
C104 C 0.54804 0.12824 0.67963 0.0
N105 N 0.558 0.11941 0.70459 0.0
N106 N 0.5199 0.119 0.68451 0.0
C107 C 0.56523 0.14444 0.64978 0.0
C108 C 0.51298 0.10435 0.71336 0.0
N109 N 0.53608 0.10404 0.72541 0.0
C110 C 0.48461 0.0933 0.7309 0.0
H111 H 0.5776 0.16747 0.6518 0.0
H112 H 0.5511 0.14166 0.63051 0.0
H113 H 0.58056 0.13721 0.6445 0.0
H114 H 0.47011 0.07101 0.72705 0.0
H115 H 0.4744 0.10623 0.7229 0.0
H116 H 0.48714 0.09357 0.75592 0.0
C117 C 0.7594 0.54957 0.01707 0.0
N118 N 0.78281 0.55825 0.99798 0.0
N119 N 0.7435 0.56113 0.00537 0.0
C120 C 0.75314 0.5317 0.04815 0.0
C121 C 0.7579 0.577 0.9785 0.0
N122 N 0.78199 0.57558 0.97423 0.0
C123 C 0.74751 0.59242 0.95551 0.0
H124 H 0.74202 0.50884 0.04524 0.0
H125 H 0.73912 0.53529 0.06325 0.0
H126 H 0.77326 0.53662 0.05942 0.0
H127 H 0.75542 0.61428 0.96099 0.0
H128 H 0.72378 0.58133 0.95651 0.0
H129 H 0.7557 0.59417 0.93176 0.0
C130 C 0.45441 0.22796 0.97457 0.0
N131 N 0.44369 0.20989 0.95344 0.0
N132 N 0.44273 0.24506 0.97314 0.0
C133 C 0.47528 0.22816 0.99761 0.0
C134 C 0.42444 0.23685 0.9506 0.0
N135 N 0.42464 0.21511 0.93887 0.0
C136 C 0.40878 0.25216 0.93788 0.0
H137 H 0.47147 0.20623 0.00508 0.0
H138 H 0.47353 0.2374 0.01802 0.0
H139 H 0.49735 0.2414 0.9868 0.0
H140 H 0.41849 0.27398 0.94406 0.0
H141 H 0.38623 0.23995 0.94748 0.0
H142 H 0.40882 0.25369 0.91247 0.0
C143 C 0.78391 0.24114 0.99706 0.0
N144 N 0.77133 0.21702 0.98387 0.0
N145 N 0.81041 0.25916 0.98369 0.0
C146 C 0.77119 0.24667 0.02395 0.0
C147 C 0.81385 0.2453 0.96225 0.0
N148 N 0.7902 0.21951 0.96248 0.0
C149 C 0.8397 0.25781 0.93994 0.0
H150 H 0.7588 0.25719 0.01527 0.0
H151 H 0.78824 0.26112 0.03766 0.0
H152 H 0.7566 0.22644 0.03897 0.0
H153 H 0.85403 0.24948 0.94833 0.0
H154 H 0.85187 0.28141 0.93785 0.0
H155 H 0.83328 0.2516 0.91689 0.0
C156 C 0.53791 0.7615 0.03661 0.0
N157 N 0.54829 0.78235 0.05459 0.0
N158 N 0.54293 0.74013 0.04818 0.0
C159 C 0.52113 0.76112 0.00903 0.0
C160 C 0.55679 0.74877 0.07379 0.0
N161 N 0.55971 0.77423 0.07787 0.0
C162 C 0.56559 0.73127 0.09595 0.0
H163 H 0.49984 0.75752 0.01684 0.0
H164 H 0.51822 0.74412 0.99557 0.0
H165 H 0.53222 0.78201 0.99395 0.0
H166 H 0.57673 0.72271 0.08338 0.0
H167 H 0.54617 0.71291 0.10849 0.0
H168 H 0.58018 0.74393 0.11272 0.0
C169 C 0.22989 0.78294 0.04886 0.0
N170 N 0.23915 0.80116 0.06994 0.0
N171 N 0.20498 0.75914 0.05941 0.0
C172 C 0.24631 0.78717 0.01923 0.0
C173 C 0.19926 0.76351 0.08745 0.0
N174 N 0.22007 0.78888 0.09396 0.0
C175 C 0.17321 0.7431 0.10841 0.0
H176 H 0.24189 0.80072 0.00144 0.0
H177 H 0.23983 0.76655 0.01105 0.0
H178 H 0.26967 0.79815 0.02211 0.0
H179 H 0.17844 0.72891 0.12427 0.0
H180 H 0.15507 0.72973 0.09509 0.0
H181 H 0.16664 0.75474 0.12245 0.0
C182 C 0.20947 0.44345 0.01179 0.0
N183 N 0.21617 0.43142 0.03707 0.0
N184 N 0.18321 0.44041 0.01612 0.0
C185 C 0.22877 0.45911 0.98309 0.0
C186 C 0.17408 0.42603 0.045 0.0
N187 N 0.19402 0.4203 0.05767 0.0
C188 C 0.14839 0.42252 0.06281 0.0
H189 H 0.24229 0.48193 0.98561 0.0
H190 H 0.21591 0.45784 0.96291 0.0
H191 H 0.24292 0.45019 0.97906 0.0
H192 H 0.1324 0.42341 0.04736 0.0
H193 H 0.15554 0.43997 0.077 0.0
H194 H 0.13797 0.40197 0.07849 0.0
C195 C 0.42479 0.88102 0.35138 0.0
N196 N 0.44568 0.89382 0.32847 0.0
N197 N 0.40141 0.88253 0.3426 0.0
C198 C 0.42652 0.86526 0.38138 0.0
C199 C 0.40873 0.89659 0.31346 0.0
N200 N 0.4357 0.90325 0.30473 0.0
C201 C 0.38923 0.90286 0.29331 0.0
H202 H 0.42691 0.84585 0.37689 0.0
H203 H 0.40814 0.85901 0.39785 0.0
H204 H 0.44661 0.87871 0.39202 0.0
H205 H 0.37399 0.90585 0.3071 0.0
H206 H 0.37663 0.88452 0.28083 0.0
H207 H 0.40173 0.92222 0.27619 0.0
C208 C 0.13919 0.56867 0.30708 0.0
N209 N 0.12621 0.55124 0.28587 0.0
N210 N 0.13961 0.59373 0.29936 0.0
C211 C 0.14993 0.56062 0.3362 0.0
C212 C 0.12587 0.59073 0.2731 0.0
N213 N 0.11775 0.56489 0.26484 0.0
C214 C 0.11823 0.61207 0.25703 0.0
H215 H 0.13152 0.54759 0.35337 0.0
H216 H 0.16568 0.57985 0.3458 0.0
H217 H 0.15983 0.54753 0.33195 0.0
H218 H 0.11588 0.61021 0.23222 0.0
H219 H 0.13469 0.63414 0.25961 0.0
H220 H 0.09755 0.60788 0.26757 0.0
C221 C 0.44975 0.57145 0.33543 0.0
N222 N 0.43746 0.54946 0.31895 0.0
N223 N 0.47576 0.59168 0.32217 0.0
C224 C 0.43724 0.57247 0.36544 0.0
C225 C 0.47898 0.58113 0.29719 0.0
N226 N 0.45584 0.55545 0.29536 0.0
C227 C 0.50394 0.59685 0.27348 0.0
H228 H 0.42332 0.5821 0.36082 0.0
H229 H 0.45443 0.58569 0.37984 0.0
H230 H 0.42405 0.55067 0.37826 0.0
H231 H 0.52238 0.59502 0.28248 0.0
H232 H 0.5104 0.61982 0.26898 0.0
H233 H 0.49913 0.58805 0.25149 0.0
O234 O 0.54962 0.02401 0.95685 0.0
Mg235 Mg 0.54673 0.00096 1.00056 0.0
O236 O 0.50548 0.01456 0.96517 0.0
Mg237 Mg 0.50569 0.00526 0.01876 0.0
O238 O 0.51153 0.96368 0.01884 0.0
O239 O 0.54898 0.96703 0.99197 0.0
O240 O 0.5068 0.99263 0.07242 0.0
O241 O 0.45694 0.97181 0.02213 0.0
Mg242 Mg 0.48607 0.02411 0.05903 0.0
O243 O 0.49637 0.04426 0.01484 0.0
O244 O 0.51702 0.0311 0.09148 0.0
O245 O 0.44721 0.98432 0.06439 0.0
O246 O 0.47919 0.05756 0.05232 0.0
C247 C 0.57694 0.04455 0.02762 0.0
C248 C 0.52766 0.0243 0.94692 0.0
C249 C 0.5252 0.95187 0.0084 0.0
C250 C 0.51465 0.00669 0.09498 0.0
C251 C 0.43948 0.96738 0.04455 0.0
C252 C 0.48813 0.06112 0.0241 0.0
O253 O 0.57804 0.0218 0.03083 0.0
O254 O 0.55392 0.04377 0.01877 0.0
O255 O 0.98799 0.55593 0.92788 0.0
Mg256 Mg 0.00299 0.57874 0.96525 0.0
O257 O 0.98817 0.51718 0.95074 0.0
Mg258 Mg 0.00408 0.52503 0.99997 0.0
O259 O 0.03439 0.57327 0.98537 0.0
O260 O 0.04186 0.61514 0.96062 0.0
O261 O 0.0232 0.53812 0.04916 0.0
O262 O 0.04208 0.52001 0.9856 0.0
Mg263 Mg 0.00019 0.49023 0.04134 0.0
O264 O 0.97157 0.47385 0.00964 0.0
O265 O 0.98708 0.50374 0.07754 0.0
O266 O 0.04425 0.50258 0.03269 0.0
O267 O 0.9783 0.44773 0.04952 0.0
C268 C 0.95762 0.54791 0.01485 0.0
C269 C 0.98341 0.53077 0.92761 0.0
C270 C 0.05129 0.60041 0.97706 0.0
C271 C 0.00984 0.52723 0.07559 0.0
C272 C 0.05531 0.51268 0.00547 0.0
C273 C 0.96443 0.44927 0.02603 0.0
O274 O 0.97245 0.57241 0.99935 0.0
O275 O 0.96464 0.52868 0.01492 0.0
O276 O 0.48986 0.47666 0.10458 0.0
Mg277 Mg 0.46014 0.44795 0.07746 0.0
O278 O 0.47158 0.49766 0.07456 0.0
Mg279 Mg 0.47667 0.48323 0.02699 0.0
O280 O 0.47527 0.43856 0.04126 0.0
O281 O 0.45861 0.41021 0.0869 0.0
O282 O 0.48325 0.4703 0.97901 0.0
O283 O 0.52497 0.50497 0.03076 0.0
Mg284 Mg 0.4981 0.52394 0.97468 0.0
O285 O 0.47813 0.52722 0.01171 0.0
O286 O 0.47427 0.4963 0.94371 0.0
O287 O 0.54 0.53146 0.98501 0.0
O288 O 0.49383 0.55888 0.96823 0.0
C289 C 0.41009 0.44905 0.04749 0.0
C290 C 0.48229 0.49525 0.09994 0.0
C291 C 0.46953 0.41511 0.05925 0.0
C292 C 0.47885 0.47582 0.95104 0.0
C293 C 0.54523 0.52202 0.01083 0.0
C294 C 0.48205 0.55094 0.99583 0.0
O295 O 0.41829 0.44313 0.07319 0.0
O296 O 0.42798 0.46165 0.02418 0.0
O297 O 0.21306 0.35874 0.29195 0.0
Mg298 Mg 0.21171 0.3341 0.33381 0.0
O299 O 0.16898 0.34835 0.30295 0.0
Mg300 Mg 0.17103 0.33693 0.356 0.0
O301 O 0.177 0.29632 0.35156 0.0
O302 O 0.21339 0.30083 0.32172 0.0
O303 O 0.17407 0.32106 0.40846 0.0
O304 O 0.12244 0.30302 0.35991 0.0
Mg305 Mg 0.15428 0.35206 0.39865 0.0
O306 O 0.16078 0.37551 0.35643 0.0
O307 O 0.18669 0.35897 0.4295 0.0
O308 O 0.11514 0.31258 0.40506 0.0
O309 O 0.14441 0.383 0.3992 0.0
C310 C 0.24298 0.37623 0.36228 0.0
C311 C 0.1906 0.35889 0.28368 0.0
C312 C 0.19011 0.28505 0.33885 0.0
C313 C 0.18348 0.33428 0.43144 0.0
C314 C 0.10598 0.29727 0.38377 0.0
C315 C 0.15138 0.38956 0.37011 0.0
O316 O 0.24409 0.35357 0.36344 0.0
O317 O 0.21954 0.37561 0.3555 0.0
O318 O 0.68456 0.86722 0.25969 0.0
Mg319 Mg 0.68114 0.89474 0.28675 0.0
O320 O 0.64643 0.8425 0.2908 0.0
Mg321 Mg 0.66462 0.85661 0.33829 0.0
O322 O 0.70341 0.90342 0.32475 0.0
O323 O 0.71592 0.93408 0.28067 0.0
O324 O 0.684 0.87073 0.38591 0.0
O325 O 0.69563 0.84092 0.33197 0.0
Mg326 Mg 0.65171 0.8203 0.38795 0.0
O327 O 0.62587 0.80896 0.35237 0.0
O328 O 0.64716 0.84504 0.41827 0.0
O329 O 0.69224 0.82229 0.38037 0.0
O330 O 0.61923 0.78027 0.39712 0.0
C331 C 0.62652 0.88489 0.31946 0.0
C332 C 0.65942 0.84664 0.26491 0.0
C333 C 0.72057 0.92813 0.30877 0.0
C334 C 0.67248 0.8652 0.41298 0.0
C335 C 0.70455 0.83006 0.35352 0.0
C336 C 0.61133 0.78453 0.37012 0.0
O337 O 0.64101 0.89316 0.29377 0.0
O338 O 0.6333 0.87302 0.34243 0.0
O339 O 0.09552 0.77701 0.43166 0.0
Mg340 Mg 0.09147 0.75747 0.39189 0.0
O341 O 0.13751 0.81534 0.41614 0.0
Mg342 Mg 0.14791 0.81286 0.36577 0.0
O343 O 0.1302 0.76451 0.37648 0.0
O344 O 0.09441 0.72119 0.39496 0.0
O345 O 0.15849 0.81072 0.31521 0.0
O346 O 0.18888 0.81015 0.38235 0.0
Mg347 Mg 0.19619 0.85439 0.35548 0.0
O348 O 0.16356 0.86308 0.35472 0.0
O349 O 0.20471 0.83738 0.31838 0.0
O350 O 0.21167 0.85079 0.39903 0.0
O351 O 0.20947 0.89529 0.33936 0.0
C352 C 0.08007 0.79302 0.34644 0.0
C353 C 0.11674 0.80047 0.43645 0.0
C354 C 0.1201 0.73721 0.38258 0.0
C355 C 0.18401 0.82127 0.30375 0.0
C356 C 0.20839 0.82634 0.39839 0.0
C357 C 0.18331 0.88912 0.34442 0.0
O358 O 0.07106 0.76679 0.35514 0.0
O359 O 0.1054 0.81164 0.35139 0.0
O360 O 0.86684 0.65979 0.61106 0.0
Mg361 Mg 0.88105 0.65403 0.65427 0.0
O362 O 0.83952 0.67475 0.6302 0.0
Mg363 Mg 0.83967 0.66762 0.68454 0.0
O364 O 0.84958 0.62993 0.68821 0.0
O365 O 0.87785 0.6158 0.66758 0.0
O366 O 0.84143 0.66046 0.73837 0.0
O367 O 0.79144 0.62895 0.68702 0.0
Mg368 Mg 0.79928 0.67563 0.71057 0.0
O369 O 0.83088 0.70745 0.68019 0.0
O370 O 0.80647 0.66559 0.75609 0.0
O371 O 0.76271 0.64618 0.69231 0.0
O372 O 0.79857 0.71189 0.7082 0.0
C373 C 0.91278 0.70787 0.67853 0.0
C374 C 0.85034 0.67017 0.60718 0.0
C375 C 0.85763 0.61102 0.68718 0.0
C376 C 0.82654 0.66017 0.76098 0.0
C377 C 0.76617 0.62565 0.68787 0.0
C378 C 0.81938 0.72244 0.68743 0.0
O379 O 0.9162 0.6887 0.66907 0.0
O380 O 0.88775 0.70452 0.68305 0.0
O381 O 0.32524 0.22972 0.58598 0.0
Mg382 Mg 0.34084 0.25351 0.62291 0.0
O383 O 0.31679 0.18843 0.61251 0.0
Mg384 Mg 0.33301 0.19447 0.66175 0.0
O385 O 0.36623 0.24093 0.6466 0.0
O386 O 0.38319 0.2851 0.62257 0.0
O387 O 0.35411 0.20656 0.71123 0.0
O388 O 0.36674 0.18348 0.64831 0.0
Mg389 Mg 0.32268 0.16251 0.70041 0.0
O390 O 0.29492 0.14349 0.66998 0.0
O391 O 0.31232 0.18048 0.73461 0.0
O392 O 0.36308 0.16415 0.69599 0.0
O393 O 0.29752 0.12108 0.7154 0.0
C394 C 0.2935 0.22581 0.6726 0.0
C395 C 0.31578 0.20307 0.58779 0.0
C396 C 0.38733 0.26666 0.64004 0.0
C397 C 0.33824 0.19839 0.73599 0.0
C398 C 0.37547 0.1719 0.66931 0.0
C399 C 0.28593 0.12025 0.68965 0.0
O400 O 0.30945 0.24915 0.65532 0.0
O401 O 0.29849 0.20504 0.67518 0.0
O402 O 0.76375 0.10468 0.77422 0.0
Mg403 Mg 0.75542 0.08552 0.7336 0.0
O404 O 0.80036 0.14701 0.75461 0.0
Mg405 Mg 0.81157 0.14692 0.70353 0.0
O406 O 0.79388 0.09959 0.71179 0.0
O407 O 0.76525 0.05373 0.72749 0.0
O408 O 0.82307 0.14668 0.6527 0.0
O409 O 0.85242 0.14426 0.71968 0.0
Mg410 Mg 0.85933 0.18858 0.69501 0.0
O411 O 0.82662 0.19723 0.69404 0.0
O412 O 0.86909 0.17349 0.6569 0.0
O413 O 0.87466 0.18387 0.73843 0.0
O414 O 0.87285 0.22965 0.6802 0.0
C415 C 0.74217 0.12399 0.6892 0.0
C416 C 0.78266 0.13002 0.77702 0.0
C417 C 0.78903 0.07381 0.71371 0.0
C418 C 0.84879 0.15784 0.64154 0.0
C419 C 0.87181 0.15981 0.73622 0.0
C420 C 0.84656 0.22336 0.68436 0.0
O421 O 0.73326 0.0984 0.70156 0.0
O422 O 0.76819 0.14351 0.68987 0.0
H423 H 0.25965 0.8469 0.0257 0.0
H424 H 0.28058 0.81255 0.10946 0.0
H425 H 0.30862 0.88758 0.01878 0.0
H426 H 0.32916 0.85331 0.10325 0.0
H427 H 0.4037 0.94508 0.09624 0.0
H428 H 0.35455 0.90612 0.10279 0.0
H429 H 0.35865 0.89484 0.00793 0.0
H430 H 0.40832 0.93419 0.00121 0.0
C431 C 0.27469 0.8484 0.04284 0.0
C432 C 0.26639 0.82692 0.06832 0.0
C433 C 0.30267 0.87145 0.03881 0.0
C434 C 0.32275 0.87353 0.06039 0.0
C435 C 0.31409 0.85244 0.08638 0.0
C436 C 0.28622 0.82928 0.09019 0.0
C437 C 0.39423 0.93434 0.07669 0.0
C438 C 0.40996 0.94277 0.04815 0.0
C439 C 0.36606 0.91191 0.08055 0.0
C440 C 0.35272 0.89747 0.0559 0.0
C441 C 0.36834 0.90581 0.02727 0.0
C442 C 0.3968 0.92813 0.02349 0.0
H443 H 0.20675 0.49684 0.0137 0.0
H444 H 0.13625 0.42311 0.98416 0.0
H445 H 0.18272 0.52463 0.99957 0.0
H446 H 0.11186 0.45057 0.97006 0.0
H447 H 0.07108 0.50426 0.95058 0.0
H448 H 0.11001 0.49429 0.94113 0.0
H449 H 0.13793 0.51233 0.03192 0.0
H450 H 0.09906 0.52171 0.04142 0.0
C451 C 0.18662 0.48707 0.00292 0.0
C452 C 0.17299 0.45801 1.00013 0.0
C453 C 0.17289 0.50283 0.99492 0.0
C454 C 0.14535 0.48963 0.98405 0.0
C455 C 0.13319 0.46134 0.97814 0.0
C456 C 0.14693 0.44557 0.98629 0.0
C457 C 0.08615 0.50692 0.96804 0.0
C458 C 0.08198 0.51329 0.99688 0.0
C459 C 0.10831 0.5012 0.96265 0.0
C460 C 0.12686 0.50249 0.9858 0.0
C461 C 0.12416 0.51149 0.01351 0.0
C462 C 0.10176 0.5166 0.0191 0.0
H463 H 0.56995 0.7127 0.0324 0.0
H464 H 0.48655 0.70373 0.04765 0.0
H465 H 0.54754 0.66219 0.0261 0.0
H466 H 0.46395 0.65348 0.03964 0.0
H467 H 0.46168 0.58507 0.97054 0.0
H468 H 0.47204 0.63042 0.98649 0.0
H469 H 0.50816 0.61126 0.06791 0.0
H470 H 0.49689 0.56537 0.05254 0.0
C471 C 0.54683 0.69982 0.03429 0.0
C472 C 0.52986 0.71172 0.04069 0.0
C473 C 0.53407 0.6711 0.03082 0.0
C474 C 0.50413 0.65411 0.03305 0.0
C475 C 0.48708 0.66625 0.03824 0.0
C476 C 0.49991 0.69486 0.0424 0.0
C477 C 0.47052 0.58996 0.99258 0.0
C478 C 0.4785 0.57189 0.01038 0.0
C479 C 0.47654 0.61587 0.00158 0.0
C480 C 0.49113 0.62419 0.02812 0.0
C481 C 0.49688 0.60509 0.04731 0.0
C482 C 0.4902 0.57881 0.03869 0.0
H483 H 0.8541 0.27125 0.01925 0.0
H484 H 0.81235 0.30857 0.96235 0.0
H485 H 0.89087 0.31867 0.02863 0.0
H486 H 0.84891 0.35644 0.97171 0.0
H487 H 0.93986 0.43725 0.97086 0.0
H488 H 0.90092 0.39109 0.96027 0.0
H489 H 0.89412 0.35601 0.05584 0.0
H490 H 0.93302 0.40128 0.0661 0.0
C491 C 0.85284 0.28982 0.00914 0.0
C492 C 0.83063 0.28676 0.99055 0.0
C493 C 0.87368 0.31686 0.01442 0.0
C494 C 0.87265 0.34128 0.00102 0.0
C495 C 0.85032 0.33805 0.98219 0.0
C496 C 0.82936 0.31087 0.97708 0.0
C497 C 0.92984 0.41964 0.98951 0.0
C498 C 0.93973 0.42267 0.01915 0.0
C499 C 0.90755 0.39331 0.98352 0.0
C500 C 0.89479 0.36984 0.00718 0.0
C501 C 0.904 0.37344 0.03698 0.0
C502 C 0.92627 0.39944 0.04285 0.0
H503 H 0.73002 0.60071 0.01644 0.0
H504 H 0.69602 0.51028 0.01981 0.0
H505 H 0.68157 0.59293 0.02572 0.0
H506 H 0.64756 0.50219 0.02936 0.0
H507 H 0.56364 0.49661 0.05619 0.0
H508 H 0.61292 0.50746 0.06379 0.0
H509 H 0.64296 0.57636 0.98786 0.0
H510 H 0.59397 0.56562 0.98018 0.0
C511 C 0.71211 0.57915 0.01993 0.0
C512 C 0.71633 0.55607 0.01708 0.0
C513 C 0.68455 0.57468 0.02521 0.0
C514 C 0.6609 0.54701 0.0279 0.0
C515 C 0.66546 0.52371 0.0276 0.0
C516 C 0.69304 0.52826 0.02214 0.0
C517 C 0.58083 0.51433 0.04142 0.0
C518 C 0.57498 0.5301 0.01736 0.0
C519 C 0.60895 0.52047 0.04579 0.0
C520 C 0.63164 0.54275 0.02647 0.0
C521 C 0.62587 0.5593 0.00335 0.0
C522 C 0.5978 0.55296 0.99875 0.0
H523 H 0.40746 0.15325 0.95878 0.0
H524 H 0.49589 0.21784 0.93946 0.0
H525 H 0.4215 0.11624 0.9662 0.0
H526 H 0.51016 0.18121 0.94729 0.0
H527 H 0.45982 0.05612 0.97153 0.0
H528 H 0.44956 0.09216 0.94368 0.0
H529 H 0.5039 0.15275 0.00199 0.0
H530 H 0.51323 0.11671 0.03012 0.0
C531 C 0.42976 0.15931 0.95493 0.0
C532 C 0.45071 0.18821 0.949 0.0
C533 C 0.43783 0.13824 0.95919 0.0
C534 C 0.46697 0.14596 0.95769 0.0
C535 C 0.4876 0.17472 0.94882 0.0
C536 C 0.4795 0.19562 0.94433 0.0
C537 C 0.47019 0.07746 0.9776 0.0
C538 C 0.48752 0.08391 0.00266 0.0
C539 C 0.46416 0.09792 0.96191 0.0
C540 C 0.47603 0.12524 0.97062 0.0
C541 C 0.49477 0.13201 0.99449 0.0
C542 C 0.50015 0.11145 0.01058 0.0
H543 H 0.75685 0.16155 0.99581 0.0
H544 H 0.72208 0.21835 0.98909 0.0
H545 H 0.70893 0.12077 0.0091 0.0
H546 H 0.67442 0.17812 0.00466 0.0
H547 H 0.58959 0.09654 0.99666 0.0
H548 H 0.63662 0.13888 0.98708 0.0
H549 H 0.67204 0.0968 0.04827 0.0
H550 H 0.62516 0.05397 0.05651 0.0
C551 C 0.73886 0.16521 0.99737 0.0
C552 C 0.74304 0.19297 0.9916 0.0
C553 C 0.71145 0.14197 0.00546 0.0
C554 C 0.68767 0.14606 0.00833 0.0
C555 C 0.69205 0.174 0.00246 0.0
C556 C 0.71938 0.19713 0.99392 0.0
C557 C 0.60732 0.09657 0.00854 0.0
C558 C 0.60376 0.07191 0.02718 0.0
C559 C 0.63438 0.12088 0.00305 0.0
C560 C 0.65838 0.12123 0.0165 0.0
C561 C 0.65429 0.09709 0.03678 0.0
C562 C 0.62734 0.07265 0.04185 0.0
H563 H 0.83803 0.59775 0.99758 0.0
H564 H 0.77989 0.50714 0.01287 0.0
H565 H 0.87778 0.58976 0.01056 0.0
H566 H 0.81941 0.49875 0.02794 0.0
H567 H 0.90728 0.50268 0.00488 0.0
H568 H 0.86141 0.50156 0.00578 0.0
H569 H 0.89787 0.57564 0.05268 0.0
H570 H 0.94415 0.57766 0.04982 0.0
C571 C 0.83393 0.57609 0.00366 0.0
C572 C 0.80619 0.55306 0.0041 0.0
C573 C 0.85649 0.57144 0.01183 0.0
C574 C 0.85169 0.54359 0.02104 0.0
C575 C 0.82382 0.52044 0.02111 0.0
C576 C 0.80126 0.52517 0.01259 0.0
C577 C 0.90506 0.51795 0.01651 0.0
C578 C 0.9291 0.54051 0.0269 0.0
C579 C 0.87881 0.5174 0.01694 0.0
C580 C 0.87631 0.53916 0.0283 0.0
C581 C 0.89945 0.55924 0.04269 0.0
C582 C 0.92581 0.56019 0.04154 0.0
H583 H 0.40912 0.25125 0.01253 0.0
H584 H 0.49365 0.29305 0.96735 0.0
H585 H 0.42082 0.29448 0.03484 0.0
H586 H 0.50545 0.33675 0.98908 0.0
H587 H 0.46297 0.36628 0.09245 0.0
H588 H 0.4602 0.32524 0.07294 0.0
H589 H 0.48083 0.37117 0.9807 0.0
H590 H 0.48323 0.41254 1.00003 0.0
C591 C 0.43032 0.26968 0.0079 0.0
C592 C 0.45066 0.26914 0.98869 0.0
C593 C 0.43702 0.29427 0.02048 0.0
C594 C 0.46402 0.31877 0.01355 0.0
C595 C 0.48452 0.31807 0.99461 0.0
C596 C 0.47793 0.29324 0.98247 0.0
C597 C 0.4673 0.36791 0.06802 0.0
C598 C 0.4729 0.39254 0.0477 0.0
C599 C 0.46571 0.34438 0.05696 0.0
C600 C 0.47004 0.34511 0.02542 0.0
C601 C 0.47752 0.37028 0.00519 0.0
C602 C 0.47885 0.39387 0.01624 0.0
H603 H 0.19276 0.70569 0.08142 0.0
H604 H 0.18089 0.75668 0.00559 0.0
H605 H 0.16136 0.66229 0.05953 0.0
H606 H 0.1489 0.71371 0.98386 0.0
H607 H 0.09921 0.63836 0.94196 0.0
H608 H 0.1431 0.67469 0.96029 0.0
H609 H 0.11112 0.63491 0.05399 0.0
H610 H 0.06787 0.59793 0.03518 0.0
C611 C 0.18348 0.70742 0.05988 0.0
C612 C 0.18887 0.73417 0.04508 0.0
C613 C 0.16553 0.68272 0.04738 0.0
C614 C 0.15256 0.68442 0.01992 0.0
C615 C 0.15893 0.71152 0.00467 0.0
C616 C 0.17703 0.73615 0.0171 0.0
C617 C 0.10225 0.63681 0.96638 0.0
C618 C 0.08036 0.61554 0.98727 0.0
C619 C 0.12716 0.65778 0.97693 0.0
C620 C 0.13028 0.65826 0.00864 0.0
C621 C 0.10953 0.63523 0.0294 0.0
C622 C 0.08476 0.61391 0.01872 0.0
H623 H 0.26778 0.47888 0.03144 0.0
H624 H 0.22539 0.38745 0.05474 0.0
H625 H 0.31438 0.4813 0.0339 0.0
H626 H 0.27217 0.38967 0.05789 0.0
H627 H 0.36475 0.41551 0.08935 0.0
H628 H 0.31686 0.41011 0.0887 0.0
H629 H 0.34039 0.46464 0.00106 0.0
H630 H 0.38824 0.47009 0.00157 0.0
C631 C 0.2686 0.45933 0.03704 0.0
C632 C 0.24329 0.43292 0.04212 0.0
C633 C 0.29514 0.46067 0.03847 0.0
C634 C 0.29681 0.43561 0.04547 0.0
C635 C 0.27142 0.40928 0.0523 0.0
C636 C 0.24479 0.40796 0.05057 0.0
C637 C 0.35961 0.42611 0.06978 0.0
C638 C 0.3803 0.44331 0.04553 0.0
C639 C 0.33219 0.42293 0.06942 0.0
C640 C 0.32508 0.43718 0.04499 0.0
C641 C 0.34549 0.45373 0.02037 0.0
C642 C 0.37279 0.45665 0.02055 0.0
H643 H 0.51291 0.78974 0.09063 0.0
H644 H 0.573 0.82838 0.01152 0.0
H645 H 0.50017 0.82767 0.08113 0.0
H646 H 0.56103 0.86653 0.00199 0.0
H647 H 0.51773 0.91416 0.97043 0.0
H648 H 0.52039 0.8707 0.98404 0.0
H649 H 0.51884 0.87944 0.08018 0.0
H650 H 0.51514 0.92264 0.0663 0.0
C651 C 0.52367 0.80676 0.07155 0.0
C652 C 0.54377 0.80642 0.05165 0.0
C653 C 0.51638 0.82832 0.06601 0.0
C654 C 0.52909 0.84977 0.0404 0.0
C655 C 0.55017 0.84988 0.02138 0.0
C656 C 0.55734 0.82837 0.02693 0.0
C657 C 0.51669 0.90605 0.99453 0.0
C658 C 0.51609 0.92153 0.01734 0.0
C659 C 0.51874 0.88147 0.00233 0.0
C660 C 0.52079 0.87215 0.03313 0.0
C661 C 0.51742 0.88613 0.05624 0.0
C662 C 0.51502 0.91069 0.04837 0.0
H663 H 0.94836 0.13398 0.39981 0.0
H664 H 0.92002 0.19408 0.41093 0.0
H665 H -0.0019 0.17263 0.39316 0.0
H666 H 0.96994 0.23296 0.40496 0.0
H667 H 0.06437 0.28681 0.42669 0.0
H668 H 0.01488 0.24862 0.43271 0.0
H669 H 0.02925 0.21592 0.35428 0.0
H670 H 0.07925 0.25443 0.3481 0.0
C671 C 0.95291 0.15557 0.40079 0.0
C672 C 0.9305 0.16123 0.40554 0.0
C673 C 0.98129 0.17765 0.39691 0.0
C674 C 0.98791 0.20586 0.39818 0.0
C675 C 0.9655 0.2114 0.40395 0.0
C676 C 0.93701 0.18925 0.40751 0.0
C677 C 0.05712 0.27152 0.41065 0.0
C678 C 0.07588 0.27366 0.38691 0.0
C679 C 0.02862 0.24973 0.41403 0.0
C680 C 0.01815 0.22931 0.39397 0.0
C681 C 0.03683 0.23128 0.37024 0.0
C682 C 0.06539 0.25336 0.36662 0.0
H683 H 0.80948 0.75961 0.32391 0.0
H684 H 0.86848 0.83884 0.35482 0.0
H685 H 0.77476 0.77635 0.31522 0.0
H686 H 0.83388 0.85561 0.34656 0.0
H687 H 0.74234 0.82932 0.39423 0.0
H688 H 0.7845 0.82501 0.38382 0.0
H689 H 0.76576 0.82041 0.28846 0.0
H690 H 0.72373 0.82538 0.29862 0.0
C691 C 0.81533 0.78107 0.32744 0.0
C692 C 0.8412 0.79803 0.34008 0.0
C693 C 0.79569 0.79065 0.32248 0.0
C694 C 0.8018 0.81706 0.33057 0.0
C695 C 0.8289 0.83517 0.34022 0.0
C696 C 0.84861 0.82571 0.3448 0.0
C697 C 0.74729 0.82752 0.37105 0.0
C698 C 0.7298 0.82742 0.34728 0.0
C699 C 0.77152 0.82545 0.36502 0.0
C700 C 0.77829 0.82279 0.33528 0.0
C701 C 0.76092 0.82276 0.31144 0.0
C702 C 0.73697 0.82545 0.31733 0.0
H703 H 0.24019 0.05867 0.35257 0.0
H704 H 0.15099 0.02618 0.37709 0.0
H705 H 0.22916 0.01309 0.33712 0.0
H706 H 0.13924 0.98033 0.36086 0.0
H707 H 0.2069 0.93552 0.30069 0.0
H708 H 0.20658 0.98001 0.3016 0.0
H709 H 0.14693 0.94115 0.38175 0.0
H710 H 0.14643 0.89621 0.37988 0.0
C711 C 0.21813 0.0417 0.35402 0.0
C712 C 0.19642 0.04536 0.36625 0.0
C713 C 0.21166 0.01573 0.34494 0.0
C714 C 0.18324 0.99299 0.34777 0.0
C715 C 0.16133 -0.0027 0.3587 0.0
C716 C 0.16792 0.02338 0.36783 0.0
C717 C 0.19306 0.93631 0.31791 0.0
C718 C 0.17703 0.91272 0.34053 0.0
C719 C 0.19301 0.9618 0.31856 0.0
C720 C 0.17737 0.96436 0.34224 0.0
C721 C 0.1592 0.9399 0.36316 0.0
C722 C 0.1589 0.91415 0.36217 0.0
H723 H 0.53268 0.61784 0.32847 0.0
H724 H 0.45898 0.62949 0.33147 0.0
H725 H 0.56366 0.66771 0.33575 0.0
H726 H 0.48971 0.67887 0.34055 0.0
H727 H 0.56126 0.74624 0.40177 0.0
H728 H 0.52615 0.69983 0.38827 0.0
H729 H 0.57366 0.72007 0.30126 0.0
H730 H 0.60838 0.76711 0.31432 0.0
C731 C 0.5232 0.63111 0.33076 0.0
C732 C 0.49356 0.62 0.3294 0.0
C733 C 0.54082 0.6595 0.33483 0.0
C734 C 0.52894 0.67699 0.33826 0.0
C735 C 0.49924 0.6657 0.33778 0.0
C736 C 0.48171 0.63749 0.33302 0.0
C737 C 0.56362 0.7411 0.37935 0.0
C738 C 0.58728 0.76014 0.35895 0.0
C739 C 0.54366 0.71463 0.37171 0.0
C740 C 0.5475 0.70653 0.34392 0.0
C741 C 0.57043 0.72601 0.32287 0.0
C742 C 0.59003 0.75289 0.33017 0.0
H743 H 0.36496 0.82644 0.35745 0.0
H744 H 0.37714 0.90959 0.36526 0.0
H745 H 0.31709 0.80408 0.38382 0.0
H746 H 0.32931 0.8879 0.39066 0.0
H747 H 0.22383 0.79218 0.37324 0.0
H748 H 0.27253 0.8009 0.36833 0.0
H749 H 0.29726 0.8592 0.43504 0.0
H750 H 0.24857 0.85125 0.43904 0.0
C751 C 0.35724 0.83976 0.36512 0.0
C752 C 0.37409 0.86954 0.35922 0.0
C753 C 0.33004 0.82711 0.38017 0.0
C754 C 0.3194 0.84416 0.38948 0.0
C755 C 0.33699 0.87405 0.38443 0.0
C756 C 0.36412 0.88658 0.3695 0.0
C757 C 0.23933 0.80591 0.38788 0.0
C758 C 0.23273 0.82181 0.40575 0.0
C759 C 0.26736 0.81093 0.38506 0.0
C760 C 0.28897 0.83159 0.40045 0.0
C761 C 0.28121 0.8439 0.4221 0.0
C762 C 0.25329 0.83916 0.42462 0.0
H763 H 0.15886 0.53612 0.25644 0.0
H764 H 0.0854 0.50387 0.31983 0.0
H765 H 0.16222 0.49297 0.27221 0.0
H766 H 0.08796 0.46031 0.33537 0.0
H767 H 0.1367 0.42461 0.3938 0.0
H768 H 0.12509 0.45889 0.36683 0.0
H769 H 0.14263 0.4398 0.27979 0.0
H770 H 0.15459 0.40494 0.30717 0.0
C771 C 0.14259 0.519 0.27262 0.0
C772 C 0.12183 0.52294 0.28692 0.0
C773 C 0.14453 0.4944 0.28177 0.0
C774 C 0.12573 0.47352 0.30551 0.0
C775 C 0.1031 0.47629 0.31743 0.0
C776 C 0.10131 0.50092 0.30834 0.0
C777 C 0.13812 0.42753 0.3689 0.0
C778 C 0.14656 0.41192 0.35267 0.0
C779 C 0.13108 0.44703 0.3534 0.0
C780 C 0.13228 0.45162 0.32116 0.0
C781 C 0.14132 0.43655 0.30469 0.0
C782 C 0.14831 0.41675 0.32033 0.0
H783 H 0.4226 0.49391 0.32377 0.0
H784 H 0.38838 0.55044 0.3272 0.0
H785 H 0.37471 0.45276 0.33621 0.0
H786 H 0.34079 0.50968 0.3418 0.0
H787 H 0.25471 0.42906 0.33457 0.0
H788 H 0.30171 0.47142 0.32375 0.0
H789 H 0.33959 0.42733 0.37728 0.0
H790 H 0.29271 0.38464 0.38686 0.0
C791 C 0.40471 0.49742 0.32704 0.0
C792 C 0.40904 0.5252 0.32455 0.0
C793 C 0.37734 0.47394 0.33475 0.0
C794 C 0.35377 0.47779 0.34044 0.0
C795 C 0.35824 0.50576 0.33741 0.0
C796 C 0.38553 0.52915 0.32935 0.0
C797 C 0.273 0.42865 0.34455 0.0
C798 C 0.27005 0.4035 0.36145 0.0
C799 C 0.30004 0.45295 0.3383 0.0
C800 C 0.32467 0.45276 0.34918 0.0
C801 C 0.32131 0.42807 0.36773 0.0
C802 C 0.29437 0.40369 0.37361 0.0
H803 H 0.46025 0.86714 0.29127 0.0
H804 H 0.48959 0.91892 0.36386 0.0
H805 H 0.50493 0.86538 0.28983 0.0
H806 H 0.53435 0.91708 0.36294 0.0
H807 H 0.59395 0.87676 0.37145 0.0
H808 H 0.54979 0.87927 0.37423 0.0
H809 H 0.55683 0.90148 0.27549 0.0
H810 H 0.60064 0.89896 0.27255 0.0
C811 C 0.47646 0.87814 0.30682 0.0
C812 C 0.47188 0.89304 0.32773 0.0
C813 C 0.50187 0.87719 0.30605 0.0
C814 C 0.52295 0.89108 0.32633 0.0
C815 C 0.51823 0.90593 0.34737 0.0
C816 C 0.49285 0.90701 0.34793 0.0
C817 C 0.58612 0.88232 0.3504 0.0
C818 C 0.60075 0.8877 0.32181 0.0
C819 C 0.56097 0.88384 0.35201 0.0
C820 C 0.54999 0.89043 0.32504 0.0
C821 C 0.56475 0.89606 0.29656 0.0
C822 C 0.58994 0.89481 0.29496 0.0
H823 H 0.10981 0.58965 0.34988 0.0
H824 H 0.18416 0.64701 0.28937 0.0
H825 H 0.11539 0.62904 0.37536 0.0
H826 H 0.19085 0.68695 0.31535 0.0
H827 H 0.15159 0.7461 0.32995 0.0
H828 H 0.1654 0.71275 0.31438 0.0
H829 H 0.14073 0.66502 0.40612 0.0
H830 H 0.12546 0.69745 0.42082 0.0
C831 C 0.12797 0.61072 0.34294 0.0
C832 C 0.14655 0.61568 0.31791 0.0
C833 C 0.13138 0.63332 0.35752 0.0
C834 C 0.15361 0.66131 0.34735 0.0
C835 C 0.17335 0.66577 0.32349 0.0
C836 C 0.16974 0.64306 0.3088 0.0
C837 C 0.15011 0.72901 0.34693 0.0
C838 C 0.13702 0.72381 0.37628 0.0
C839 C 0.15806 0.7099 0.33813 0.0
C840 C 0.15339 0.6857 0.35882 0.0
C841 C 0.14373 0.68288 0.38937 0.0
C842 C 0.13521 0.70154 0.39788 0.0
H843 H 0.87417 0.06139 0.3783 0.0
H844 H 0.80716 0.083 0.38248 0.0
H845 H 0.8412 0.01749 0.35793 0.0
H846 H 0.77376 0.03832 0.36376 0.0
H847 H 0.72322 0.93592 0.36903 0.0
H848 H 0.75899 0.97785 0.39056 0.0
H849 H 0.80644 0.01277 0.30232 0.0
H850 H 0.77044 0.97148 0.28045 0.0
C851 C 0.85248 0.05681 0.37459 0.0
C852 C 0.84311 0.07548 0.38177 0.0
C853 C 0.83365 0.03167 0.36335 0.0
C854 C 0.80508 0.02464 0.35982 0.0
C855 C 0.79569 0.0433 0.3668 0.0
C856 C 0.81468 0.06872 0.3774 0.0
C857 C 0.74156 0.95231 0.35442 0.0
C858 C 0.7441 0.95061 0.32309 0.0
C859 C 0.76182 0.97624 0.36666 0.0
C860 C 0.78516 -0.00171 0.3479 0.0
C861 C 0.78854 0.99589 0.31707 0.0
C862 C 0.768 0.97235 0.30466 0.0
H863 H 0.9088 0.74253 0.37498 0.0
H864 H 0.94368 0.83288 0.37308 0.0
H865 H 0.9568 0.74997 0.36456 0.0
H866 H -0.0083 0.84094 0.36085 0.0
H867 H 0.07566 0.83483 0.36902 0.0
H868 H 0.03076 0.8345 0.37774 0.0
H869 H 0.98953 0.76877 0.31992 0.0
H870 H 0.03415 0.76821 0.31256 0.0
C871 C 0.92696 0.76391 0.37293 0.0
C872 C 0.92283 0.78718 0.37436 0.0
C873 C 0.95431 0.76834 0.36626 0.0
C874 C 0.97793 0.79619 0.36068 0.0
C875 C 0.97397 0.81928 0.36463 0.0
C876 C 0.9466 0.81474 0.37164 0.0
C877 C 0.05728 0.82119 0.35714 0.0
C878 C 0.05814 0.8013 0.34039 0.0
C879 C 0.03145 0.82078 0.3624 0.0
C880 C 0.00634 0.80079 0.35052 0.0
C881 C 0.00827 0.78358 0.33045 0.0
C882 C 0.0339 0.78365 0.32566 0.0
H883 H 0.16592 0.11667 0.4164 0.0
H884 H 0.23712 0.16027 0.34874 0.0
H885 H 0.15507 0.15588 0.40548 0.0
H886 H 0.22716 0.19975 0.33803 0.0
H887 H 0.18917 0.25066 0.29948 0.0
H888 H 0.18977 0.20615 0.31305 0.0
H889 H 0.17424 0.20743 0.40899 0.0
H890 H 0.17276 0.25183 0.39506 0.0
C891 C 0.17945 0.13502 0.3996 0.0
C892 C 0.20224 0.13588 0.38328 0.0
C893 C 0.17329 0.15731 0.39328 0.0
C894 C 0.18989 0.1806 0.37046 0.0
C895 C 0.21346 0.18174 0.35514 0.0
C896 C 0.21946 0.15949 0.36142 0.0
C897 C 0.18485 0.24085 0.32335 0.0
C898 C 0.18107 0.25461 0.34627 0.0
C899 C 0.18559 0.21561 0.33118 0.0
C900 C 0.18302 0.20383 0.36217 0.0
C901 C 0.17645 0.21611 0.38492 0.0
C902 C 0.17539 0.24137 0.37698 0.0
H903 H 0.58916 0.50479 0.73652 0.0
H904 H 0.62805 0.45182 0.75068 0.0
H905 H 0.63613 0.54671 0.72206 0.0
H906 H 0.67478 0.49281 0.7338 0.0
H907 H 0.75929 0.57723 0.72222 0.0
H908 H 0.7139 0.53504 0.74083 0.0
H909 H 0.66948 0.56776 0.68065 0.0
H910 H 0.71485 0.61077 0.66395 0.0
C911 C 0.60797 0.50236 0.73736 0.0
C912 C 0.60521 0.47531 0.74509 0.0
C913 C 0.63487 0.52618 0.7282 0.0
C914 C 0.65948 0.52327 0.7259 0.0
C915 C 0.65665 0.49623 0.73537 0.0
C916 C 0.62988 0.47265 0.74512 0.0
C917 C 0.73985 0.57493 0.71239 0.0
C918 C 0.74053 0.59712 0.69153 0.0
C919 C 0.71368 0.55079 0.72321 0.0
C920 C 0.68765 0.54803 0.71287 0.0
C921 C 0.68879 0.56943 0.69014 0.0
C922 C 0.71486 0.59385 0.67995 0.0
H923 H 0.46969 0.08408 0.66316 0.0
H924 H 0.53097 0.17243 0.66555 0.0
H925 H 0.43379 0.09737 0.6464 0.0
H926 H 0.4953 0.18594 0.64885 0.0
H927 H 0.41756 0.197 0.62237 0.0
H928 H 0.45419 0.18386 0.61205 0.0
H929 H 0.4182 0.11676 0.68987 0.0
H930 H 0.3825 0.12997 0.70046 0.0
C931 C 0.47567 0.10641 0.65874 0.0
C932 C 0.50253 0.12728 0.66606 0.0
C933 C 0.45536 0.11404 0.64909 0.0
C934 C 0.46183 0.14258 0.64688 0.0
C935 C 0.48993 0.16383 0.65024 0.0
C936 C 0.51023 0.15615 0.65991 0.0
C937 C 0.41756 0.17937 0.63705 0.0
C938 C 0.39754 0.16467 0.6624 0.0
C939 C 0.43825 0.1718 0.63101 0.0
C940 C 0.43845 0.14896 0.64977 0.0
C941 C 0.41799 0.13398 0.6746 0.0
C942 C 0.39788 0.14187 0.68097 0.0
H943 H 0.90546 0.39405 0.68291 0.0
H944 H 0.81743 0.36266 0.71237 0.0
H945 H 0.89288 0.34787 0.66819 0.0
H946 H 0.80417 0.31641 0.69665 0.0
H947 H 0.81132 0.23269 0.71974 0.0
H948 H 0.81225 0.27815 0.71881 0.0
H949 H 0.86854 0.31229 0.636 0.0
H950 H 0.86853 0.26734 0.63794 0.0
C951 C 0.88325 0.37733 0.68533 0.0
C952 C 0.86241 0.38155 0.69887 0.0
C953 C 0.8759 0.35096 0.67671 0.0
C954 C 0.84745 0.32831 0.6814 0.0
C955 C 0.82628 0.33328 0.69309 0.0
C956 C 0.83374 0.35973 0.70178 0.0
C957 C 0.8231 0.24968 0.70088 0.0
C958 C 0.84023 0.24688 0.67924 0.0
C959 C 0.82363 0.27572 0.70024 0.0
C960 C 0.84102 0.29908 0.67767 0.0
C961 C 0.85558 0.295 0.65415 0.0
C962 C 0.85544 0.26924 0.65513 0.0
H963 H 0.13427 0.96876 0.64411 0.0
H964 H 0.19765 0.94369 0.66564 0.0
H965 H 0.16835 0.01776 0.65253 0.0
H966 H 0.23182 0.99242 0.6741 0.0
H967 H 0.26728 0.06914 0.72524 0.0
H968 H 0.23243 0.02238 0.71435 0.0
H969 H 0.21818 0.06007 0.62816 0.0
H970 H 0.25374 0.10776 0.63895 0.0
C971 C 0.1555 0.9739 0.65087 0.0
C972 C 0.16357 0.95285 0.6546 0.0
C973 C 0.17498 0.00179 0.6553 0.0
C974 C 0.20262 0.00875 0.66389 0.0
C975 C 0.21056 0.98751 0.66765 0.0
C976 C 0.19119 0.95979 0.66291 0.0
C977 C 0.25677 0.06773 0.70394 0.0
C978 C 0.26337 0.09226 0.68287 0.0
C979 C 0.23688 0.04082 0.6977 0.0
C980 C 0.22288 0.03768 0.67036 0.0
C981 C 0.22876 0.06209 0.64947 0.0
C982 C 0.24906 0.08926 0.6556 0.0
H983 H 0.03684 0.23477 0.68013 0.0
H984 H 0.02237 0.14884 0.69066 0.0
H985 H 0.99059 0.21779 0.70761 0.0
H986 H 0.97616 0.13151 0.71887 0.0
H987 H 0.91763 0.18977 0.76906 0.0
H988 H 0.96521 0.19628 0.75927 0.0
H989 H 0.92982 0.12749 0.70482 0.0
H990 H 0.88227 0.12051 0.71509 0.0
C991 C 0.02355 0.21222 0.68837 0.0
C992 C 0.03264 0.19296 0.68325 0.0
C993 C -0.00256 0.20252 0.70456 0.0
C994 C 0.98003 0.17335 0.71586 0.0
C995 C 0.98922 0.15408 0.71058 0.0
C996 C 0.01542 0.16387 0.69444 0.0
C997 C 0.91984 0.17523 0.75611 0.0
C998 C 0.89648 0.1554 0.74182 0.0
C999 C 0.94709 0.17913 0.7503 0.0
C1000 C 0.95124 0.16317 0.73028 0.0
C1001 C 0.92728 0.14035 0.72005 0.0
C1002 C 0.89997 0.13635 0.72597 0.0
H1003 H 0.83063 0.87952 0.58641 0.0
H1004 H 0.76464 0.83795 0.65998 0.0
H1005 H 0.84329 0.84144 0.59751 0.0
H1006 H 0.77716 0.80022 0.67145 0.0
H1007 H 0.83326 0.76874 0.71398 0.0
H1008 H 0.82819 0.80939 0.69194 0.0
H1009 H 0.81676 0.78082 0.60328 0.0
H1010 H 0.82182 0.73966 0.62562 0.0
C1011 C 0.81836 0.8617 0.60428 0.0
C1012 C 0.79665 0.86124 0.62233 0.0
C1013 C 0.82563 0.84014 0.61073 0.0
C1014 C 0.81147 0.81825 0.6356 0.0
C1015 C 0.78861 0.81707 0.65237 0.0
C1016 C 0.78124 0.83835 0.64572 0.0
C1017 C 0.83096 0.77182 0.68948 0.0
C1018 C 0.82799 0.7512 0.67145 0.0
C1019 C 0.82771 0.79486 0.67698 0.0
C1020 C 0.82143 0.79776 0.64615 0.0
C1021 C 0.8215 0.7789 0.62716 0.0
C1022 C 0.82472 0.7556 0.63982 0.0
H1023 H 0.05578 0.88304 0.65553 0.0
H1024 H 0.09122 0.82715 0.65551 0.0
H1025 H 0.00826 0.84204 0.66938 0.0
H1026 H 0.04353 0.78587 0.66631 0.0
H1027 H 0.96027 0.71482 0.70643 0.0
H1028 H 0.00647 0.75826 0.70295 0.0
H1029 H 0.97033 0.80477 0.65047 0.0
H1030 H 0.92368 0.76149 0.65617 0.0
C1031 C 0.05329 0.86187 0.65855 0.0
C1032 C 0.07711 0.85818 0.65479 0.0
C1033 C 0.026 0.8383 0.66602 0.0
C1034 C 0.02179 0.81042 0.66917 0.0
C1035 C 0.04579 0.80689 0.66491 0.0
C1036 C 0.07313 0.8305 0.65814 0.0
C1037 C 0.96217 0.73461 0.69494 0.0
C1038 C 0.93857 0.73498 0.68163 0.0
C1039 C 0.98874 0.75945 0.69248 0.0
C1040 C -0.00746 0.78507 0.67572 0.0
C1041 C 0.96837 0.78564 0.66377 0.0
C1042 C 0.94156 0.76085 0.667 0.0
H1043 H 0.11233 0.16794 0.68006 0.0
H1044 H 0.15759 0.25899 0.65247 0.0
H1045 H 0.15652 0.16937 0.69483 0.0
H1046 H 0.2027 0.26038 0.66303 0.0
H1047 H 0.28068 0.26321 0.69442 0.0
H1048 H 0.23316 0.25831 0.6983 0.0
H1049 H 0.19661 0.17281 0.67509 0.0
H1050 H 0.24337 0.17701 0.67431 0.0
C1051 C 0.13201 0.18823 0.67679 0.0
C1052 C 0.13174 0.21334 0.66525 0.0
C1053 C 0.15743 0.1891 0.6849 0.0
C1054 C 0.18346 0.215 0.68023 0.0
C1055 C 0.18314 0.2401 0.66784 0.0
C1056 C 0.15743 0.23931 0.6609 0.0
C1057 C 0.26217 0.24305 0.69143 0.0
C1058 C 0.2655 0.22059 0.68378 0.0
C1059 C 0.23501 0.24035 0.69307 0.0
C1060 C 0.21099 0.21556 0.68588 0.0
C1061 C 0.21431 0.19223 0.68097 0.0
C1062 C 0.24127 0.1946 0.68045 0.0
H1063 H 0.84859 0.9697 0.63523 0.0
H1064 H 0.7596 0.93725 0.66153 0.0
H1065 H 0.86076 0.01545 0.65279 0.0
H1066 H 0.7715 0.98266 0.67864 0.0
H1067 H 0.80395 0.07964 0.65346 0.0
H1068 H 0.81585 0.04686 0.63232 0.0
H1069 H 0.82816 0.01637 0.72351 0.0
H1070 H 0.81575 0.04862 0.74467 0.0
C1071 C 0.83185 0.97238 0.64521 0.0
C1072 C 0.80325 0.9503 0.6473 0.0
C1073 C 0.83872 -0.00162 0.65488 0.0
C1074 C 0.81694 0.0023 0.66662 0.0
C1075 C 0.78851 0.97994 0.66939 0.0
C1076 C 0.78172 0.95412 0.65981 0.0
C1077 C 0.81103 0.06726 0.66865 0.0
C1078 C 0.80888 0.06632 0.70058 0.0
C1079 C 0.81777 0.04854 0.6566 0.0
C1080 C 0.8228 0.02927 0.67646 0.0
C1081 C 0.82465 0.03134 0.70788 0.0
C1082 C 0.81759 0.04974 0.71993 0.0
H1083 H 0.52332 0.40961 0.67747 0.0
H1084 H 0.52451 0.35469 0.75663 0.0
H1085 H 0.49074 0.36809 0.65393 0.0
H1086 H 0.49179 0.31256 0.73325 0.0
H1087 H 0.39688 0.26097 0.70023 0.0
H1088 H 0.44099 0.292 0.72292 0.0
H1089 H 0.48395 0.32662 0.63211 0.0
H1090 H 0.43945 0.29599 0.60971 0.0
C1091 C 0.5171 0.38848 0.68931 0.0
C1092 C 0.52637 0.38503 0.7185 0.0
C1093 C 0.49862 0.36469 0.6759 0.0
C1094 C 0.48891 0.33696 0.69162 0.0
C1095 C 0.49892 0.33361 0.7206 0.0
C1096 C 0.51754 0.35753 0.73394 0.0
C1097 C 0.41619 0.27405 0.6854 0.0
C1098 C 0.415 0.27623 0.65341 0.0
C1099 C 0.44146 0.29202 0.69829 0.0
C1100 C 0.46575 0.31226 0.67919 0.0
C1101 C 0.46536 0.31171 0.64733 0.0
C1102 C 0.44005 0.29404 0.63452 0.0
H1103 H 0.60747 0.16919 0.69682 0.0
H1104 H 0.57173 0.07809 0.71534 0.0
H1105 H 0.65508 0.17524 0.6869 0.0
H1106 H 0.61934 0.08379 0.70709 0.0
H1107 H 0.69527 0.09451 0.65844 0.0
H1108 H 0.65107 0.09645 0.66222 0.0
H1109 H 0.69413 0.17053 0.70859 0.0
H1110 H 0.73863 0.16921 0.70348 0.0
C1111 C 0.61014 0.15057 0.69945 0.0
C1112 C 0.58625 0.12318 0.70638 0.0
C1113 C 0.63725 0.15396 0.69379 0.0
C1114 C 0.6408 0.12994 0.69528 0.0
C1115 C 0.6171 0.10267 0.70468 0.0
C1116 C 0.59001 0.09933 0.71006 0.0
C1117 C 0.69549 0.11189 0.66821 0.0
C1118 C 0.72013 0.13158 0.68083 0.0
C1119 C 0.67012 0.11271 0.67095 0.0
C1120 C 0.66889 0.13293 0.68684 0.0
C1121 C 0.69435 0.15453 0.69646 0.0
C1122 C 0.71991 0.15397 0.69327 0.0
H1123 H 0.81804 0.4373 0.73832 0.0
H1124 H 0.90807 0.49891 0.7293 0.0
H1125 H 0.80659 0.47563 0.73967 0.0
H1126 H 0.89697 0.5372 0.73131 0.0
H1127 H 0.87651 0.60266 0.74222 0.0
H1128 H 0.875 0.55793 0.76275 0.0
H1129 H 0.81308 0.51497 0.69794 0.0
H1130 H 0.81476 0.55969 0.67763 0.0
C1131 C 0.83531 0.45909 0.73683 0.0
C1132 C 0.86388 0.4654 0.7332 0.0
C1133 C 0.82881 0.48091 0.7379 0.0
C1134 C 0.85085 0.50938 0.73577 0.0
C1135 C 0.87949 0.51543 0.73361 0.0
C1136 C 0.88592 0.49364 0.73222 0.0
C1137 C 0.86127 0.58323 0.73378 0.0
C1138 C 0.84559 0.58438 0.70857 0.0
C1139 C 0.86074 0.55775 0.74515 0.0
C1140 C 0.84444 0.53315 0.73144 0.0
C1141 C 0.82581 0.53354 0.70903 0.0
C1142 C 0.82653 0.55909 0.69754 0.0
H1143 H 0.48802 0.94972 0.29393 0.0
H1144 H 0.41822 0.88761 0.24932 0.0
H1145 H 0.51402 0.97399 0.24386 0.0
H1146 H 0.44334 0.91224 0.19915 0.0
H1147 H 0.49872 0.95048 0.11277 0.0
H1148 H 0.48388 0.92426 0.16476 0.0
H1149 H 0.50944 0.00305 0.20041 0.0
H1150 H 0.52485 0.02926 0.14871 0.0
C1151 C 0.47834 0.94135 0.27328 0.0
C1152 C 0.45102 0.9172 0.27523 0.0
C1153 C 0.49309 0.95523 0.24466 0.0
C1154 C 0.48077 0.94516 0.2174 0.0
C1155 C 0.45368 0.92043 0.21961 0.0
C1156 C 0.43903 0.90657 0.24823 0.0
C1157 C 0.5019 0.96231 0.13179 0.0
C1158 C 0.51255 0.99194 0.1265 0.0
C1159 C 0.49311 0.94723 0.16158 0.0
C1160 C 0.49485 0.96145 0.18672 0.0
C1161 C 0.50779 0.99136 0.18166 0.0
C1162 C 0.51658 0.00643 0.15192 0.0
H1163 H 0.13286 0.55496 0.21168 0.0
H1164 H 0.0627 0.55084 0.26301 0.0
H1165 H 0.1055 0.54658 0.16563 0.0
H1166 H 0.03548 0.54358 0.21719 0.0
H1167 H 0.98607 0.50723 0.13417 0.0
H1168 H 0.011 0.51283 0.1811 0.0
H1169 H 0.09077 0.57315 0.12927 0.0
H1170 H 0.06589 0.56641 0.08188 0.0
C1171 C 0.11123 0.55146 0.21311 0.0
C1172 C 0.09958 0.55319 0.24057 0.0
C1173 C 0.09577 0.54729 0.18675 0.0
C1174 C 0.06848 0.54499 0.18751 0.0
C1175 C 0.05632 0.54513 0.21569 0.0
C1176 C 0.07173 0.54912 0.24196 0.0
C1177 C 0.00887 0.52208 0.13278 0.0
C1178 C 0.02401 0.5363 0.1042 0.0
C1179 C 0.0232 0.52528 0.15978 0.0
C1180 C 0.05301 0.54304 0.15897 0.0
C1181 C 0.0679 0.55868 0.13062 0.0
C1182 C 0.05356 0.55529 0.10349 0.0
H1183 H 0.46861 0.51455 0.28904 0.0
H1184 H 0.43416 0.56484 0.24317 0.0
H1185 H 0.47283 0.49903 0.24057 0.0
H1186 H 0.44004 0.5513 0.19401 0.0
H1187 H 0.44069 0.50843 0.11129 0.0
H1188 H 0.42883 0.5186 0.15987 0.0
H1189 H 0.50414 0.51987 0.19697 0.0
H1190 H 0.5148 0.50801 0.14907 0.0
C1191 C 0.46111 0.52148 0.26854 0.0
C1192 C 0.45058 0.54032 0.26959 0.0
C1193 C 0.46415 0.51327 0.24063 0.0
C1194 C 0.45754 0.52452 0.21304 0.0
C1195 C 0.44522 0.54201 0.21463 0.0
C1196 C 0.44164 0.54967 0.24273 0.0
C1197 C 0.45493 0.5114 0.12972 0.0
C1198 C 0.47864 0.50742 0.1265 0.0
C1199 C 0.44808 0.51711 0.15767 0.0
C1200 C 0.46513 0.51946 0.18277 0.0
C1201 C 0.48985 0.51716 0.17868 0.0
C1202 C 0.49632 0.51089 0.15102 0.0
H1203 H 0.86469 0.44504 0.79508 0.0
H1204 H 0.94494 0.46021 0.75507 0.0
H1205 H 0.88898 0.46775 0.83916 0.0
H1206 H 0.96918 0.48181 0.79998 0.0
H1207 H 0.98442 0.48518 0.9083 0.0
H1208 H 0.9624 0.46238 0.86318 0.0
H1209 H 0.93152 0.52193 0.84146 0.0
H1210 H 0.95376 0.54501 0.88567 0.0
C1211 C 0.88755 0.45339 0.79575 0.0
C1212 C 0.90308 0.45122 0.77175 0.0
C1213 C 0.90136 0.46611 0.82095 0.0
C1214 C 0.93082 0.4763 0.82283 0.0
C1215 C 0.94637 0.4738 0.79906 0.0
C1216 C 0.93261 0.46157 0.77352 0.0
C1217 C 0.97304 0.49342 0.89377 0.0
C1218 C 0.97085 0.51688 0.90046 0.0
C1219 C 0.96061 0.4805 0.868 0.0
C1220 C 0.9453 0.49048 0.84913 0.0
C1221 C 0.94314 0.51385 0.85583 0.0
C1222 C 0.95598 0.52707 0.88106 0.0
H1223 H 0.55915 0.4193 0.8243 0.0
H1224 H 0.54671 0.48401 0.77102 0.0
H1225 H 0.54 0.42609 0.87068 0.0
H1226 H 0.52914 0.49249 0.81747 0.0
H1227 H 0.46296 0.47401 0.89214 0.0
H1228 H 0.48628 0.46828 0.84849 0.0
H1229 H 0.54198 0.4525 0.90939 0.0
H1230 H 0.51761 0.45693 0.95316 0.0
C1231 C 0.55374 0.43612 0.823 0.0
C1232 C 0.55497 0.45159 0.79438 0.0
C1233 C 0.5425 0.43991 0.84948 0.0
C1234 C 0.53239 0.45947 0.84791 0.0
C1235 C 0.53594 0.47666 0.81953 0.0
C1236 C 0.54682 0.47251 0.79299 0.0
C1237 C 0.47971 0.46859 0.89625 0.0
C1238 C 0.4883 0.46577 0.92612 0.0
C1239 C 0.49353 0.46587 0.87113 0.0
C1240 C 0.51666 0.46069 0.87512 0.0
C1241 C 0.52428 0.45644 0.90527 0.0
C1242 C 0.51014 0.45877 0.93049 0.0
H1243 H 0.57272 0.13052 0.76765 0.0
H1244 H 0.50137 0.05012 0.75246 0.0
H1245 H 0.57054 0.11131 0.82183 0.0
H1246 H 0.49865 0.03086 0.80668 0.0
H1247 H 0.4831 0.02048 0.9126 0.0
H1248 H 0.48603 0.03959 0.85818 0.0
H1249 H 0.57764 0.07406 0.85359 0.0
H1250 H 0.57486 0.05524 0.90741 0.0
C1251 C 0.55694 0.10858 0.77589 0.0
C1252 C 0.5372 0.09175 0.75611 0.0
C1253 C 0.5555 0.09762 0.80685 0.0
C1254 C 0.53416 0.06967 0.81858 0.0
C1255 C 0.51496 0.05262 0.79846 0.0
C1256 C 0.51662 0.0635 0.76749 0.0
C1257 C 0.50382 0.03219 0.89994 0.0
C1258 C 0.52868 0.0362 0.91433 0.0
C1259 C 0.5055 0.04299 0.86879 0.0
C1260 C 0.5321 0.05829 0.85163 0.0
C1261 C 0.5569 0.06259 0.86621 0.0
C1262 C 0.55521 0.05161 0.89708 0.0
H1263 H 0.11395 0.27854 0.61199 0.0
H1264 H 0.12547 0.20773 0.59841 0.0
H1265 H 0.14209 0.30544 0.56396 0.0
H1266 H 0.15459 0.23483 0.55037 0.0
H1267 H 0.16029 0.27663 0.4476 0.0
H1268 H 0.1455 0.25031 0.49938 0.0
H1269 H 0.18841 0.32953 0.53686 0.0
H1270 H 0.20246 0.35594 0.48496 0.0
C1271 C 0.12289 0.26896 0.5987 0.0
C1272 C 0.11738 0.24109 0.60848 0.0
C1273 C 0.13933 0.28442 0.5714 0.0
C1274 C 0.15073 0.27236 0.55321 0.0
C1275 C 0.14597 0.24469 0.56365 0.0
C1276 C 0.12948 0.22923 0.59112 0.0
C1277 C 0.16728 0.28843 0.46687 0.0
C1278 C 0.18204 0.31844 0.46211 0.0
C1279 C 0.15881 0.27329 0.49666 0.0
C1280 C 0.16513 0.28782 0.52233 0.0
C1281 C 0.18247 0.3177 0.51758 0.0
C1282 C 0.19075 0.33285 0.48781 0.0
H1283 H 0.72394 0.85157 0.59769 0.0
H1284 H 0.80365 0.90949 0.54586 0.0
H1285 H 0.69894 0.84395 0.55017 0.0
H1286 H 0.77912 0.9039 0.49845 0.0
H1287 H 0.72833 0.87875 0.4145 0.0
H1288 H 0.75437 0.87944 0.4599 0.0
H1289 H 0.6837 0.86975 0.51669 0.0
H1290 H 0.65695 0.86712 0.47117 0.0
C1291 C 0.73615 0.86177 0.57583 0.0
C1292 C 0.7656 0.88071 0.57502 0.0
C1293 C 0.72187 0.85813 0.54868 0.0
C1294 C 0.73679 0.87398 0.52034 0.0
C1295 C 0.76676 0.89113 0.51956 0.0
C1296 C 0.781 0.89422 0.54664 0.0
C1297 C 0.71862 0.87742 0.43662 0.0
C1298 C 0.69065 0.87309 0.43927 0.0
C1299 C 0.73352 0.87763 0.46281 0.0
C1300 C 0.72109 0.87417 0.49226 0.0
C1301 C 0.6937 0.87151 0.49461 0.0
C1302 C 0.67854 0.87065 0.46846 0.0
H1303 H 0.15617 0.86255 0.61269 0.0
H1304 H 0.08183 0.86891 0.58712 0.0
H1305 H 0.15346 0.83926 0.5677 0.0
H1306 H 0.07861 0.84524 0.54229 0.0
H1307 H 0.07145 0.78206 0.47791 0.0
H1308 H 0.07116 0.79889 0.52658 0.0
H1309 H 0.16167 0.8587 0.51056 0.0
H1310 H 0.16208 0.84195 0.46172 0.0
C1311 C 0.13895 0.85838 0.59763 0.0
C1312 C 0.11927 0.86748 0.60299 0.0
C1313 C 0.13747 0.84529 0.57192 0.0
C1314 C 0.11606 0.84083 0.55137 0.0
C1315 C 0.09528 0.84835 0.55785 0.0
C1316 C 0.09697 0.86172 0.58345 0.0
C1317 C 0.09135 0.79872 0.48481 0.0
C1318 C 0.11683 0.81067 0.46599 0.0
C1319 C 0.0911 0.80839 0.51261 0.0
C1320 C 0.11639 0.82995 0.52235 0.0
C1321 C 0.14194 0.84177 0.50372 0.0
C1322 C 0.14213 0.83235 0.47569 0.0
H1323 H 0.53651 0.75417 0.13541 0.0
H1324 H 0.60706 0.82473 0.07954 0.0
H1325 H 0.56004 0.77101 0.18188 0.0
H1326 H 0.63053 0.84295 0.12603 0.0
H1327 H 0.68097 0.84507 0.20969 0.0
H1328 H 0.65489 0.82955 0.16416 0.0
H1329 H 0.57567 0.80507 0.21527 0.0
H1330 H 0.6016 0.81931 0.26103 0.0
C1331 C 0.55673 0.77391 0.13338 0.0
C1332 C 0.57026 0.78817 0.10433 0.0
C1333 C 0.57026 0.78362 0.15987 0.0
C1334 C 0.59746 0.80811 0.15775 0.0
C1335 C 0.60994 0.82359 0.12847 0.0
C1336 C 0.59643 0.81359 0.10192 0.0
C1337 C 0.65792 0.83593 0.21125 0.0
C1338 C 0.64332 0.83336 0.23889 0.0
C1339 C 0.64301 0.82744 0.18505 0.0
C1340 C 0.61321 0.81654 0.18584 0.0
C1341 C 0.59855 0.81319 0.21382 0.0
C1342 C 0.61342 0.82128 0.24012 0.0
H1343 H 0.23852 0.77465 0.14619 0.0
H1344 H 0.20134 0.82443 0.10586 0.0
H1345 H 0.23076 0.78383 0.1974 0.0
H1346 H 0.19284 0.83341 0.15723 0.0
H1347 H 0.14772 0.80385 0.2572 0.0
H1348 H 0.15963 0.79989 0.20494 0.0
H1349 H 0.24615 0.82486 0.22834 0.0
H1350 H 0.23445 0.82898 0.28023 0.0
C1351 C 0.22959 0.7884 0.14841 0.0
C1352 C 0.22128 0.7996 0.12237 0.0
C1353 C 0.22488 0.79345 0.17758 0.0
C1354 C 0.21108 0.80923 0.18127 0.0
C1355 C 0.20338 0.82105 0.15502 0.0
C1356 C 0.20858 0.81635 0.12574 0.0
C1357 C 0.16919 0.80828 0.2512 0.0
C1358 C 0.1901 0.81662 0.27285 0.0
C1359 C 0.1761 0.80634 0.22124 0.0
C1360 C 0.20388 0.81226 0.21258 0.0
C1361 C 0.22458 0.82013 0.2344 0.0
C1362 C 0.21783 0.82247 0.2641 0.0
H1363 H 0.15935 0.36878 0.0902 0.0
H1364 H 0.22892 0.45265 0.09741 0.0
H1365 H 0.15706 0.35519 0.14605 0.0
H1366 H 0.22683 0.43954 0.15316 0.0
H1367 H 0.2364 0.3933 0.2436 0.0
H1368 H 0.23695 0.40831 0.18915 0.0
H1369 H 0.14453 0.36576 0.19534 0.0
H1370 H 0.14394 0.35016 0.25046 0.0
C1371 C 0.17424 0.38414 0.10393 0.0
C1372 C 0.1945 0.41155 0.08986 0.0
C1373 C 0.17277 0.37657 0.13579 0.0
C1374 C 0.19165 0.39634 0.15409 0.0
C1375 C 0.21215 0.42373 0.13973 0.0
C1376 C 0.21352 0.43123 0.10791 0.0
C1377 C 0.21611 0.38724 0.23351 0.0
C1378 C 0.19008 0.37033 0.25135 0.0
C1379 C 0.21648 0.39604 0.20224 0.0
C1380 C 0.19081 0.38814 0.18784 0.0
C1381 C 0.16468 0.37187 0.20576 0.0
C1382 C 0.16431 0.36317 0.23732 0.0
H1383 H 0.81909 0.63121 0.95918 0.0
H1384 H 0.78715 0.54969 0.92859 0.0
H1385 H 0.84082 0.65536 0.90758 0.0
H1386 H 0.80797 0.57351 0.87642 0.0
H1387 H 0.84886 0.62576 0.78295 0.0
H1388 H 0.84824 0.60682 0.83708 0.0
H1389 H 0.81257 0.65706 0.86487 0.0
H1390 H 0.81337 0.67577 0.81165 0.0
C1391 C 0.81779 0.61859 0.9415 0.0
C1392 C 0.80164 0.5888 0.94749 0.0
C1393 C 0.82991 0.63228 0.91196 0.0
C1394 C 0.82559 0.61635 0.88773 0.0
C1395 C 0.81181 0.58641 0.89455 0.0
C1396 C 0.79991 0.57273 0.92431 0.0
C1397 C 0.84162 0.63322 0.8008 0.0
C1398 C 0.83105 0.65215 0.79312 0.0
C1399 C 0.84109 0.62227 0.8317 0.0
C1400 C 0.83048 0.63052 0.85531 0.0
C1401 C 0.8214 0.65061 0.84744 0.0
C1402 C 0.82161 0.66119 0.81682 0.0
H1403 H 0.45004 0.21603 0.88577 0.0
H1404 H 0.36856 0.19111 0.93083 0.0
H1405 H 0.4286 0.21023 0.83612 0.0
H1406 H 0.34736 0.18762 0.88165 0.0
H1407 H 0.31057 0.16842 0.79102 0.0
H1408 H 0.33092 0.16646 0.83956 0.0
H1409 H 0.41365 0.23432 0.79987 0.0
H1410 H 0.39343 0.23438 0.75007 0.0
C1411 C 0.42732 0.20856 0.88498 0.0
C1412 C 0.41084 0.20405 0.91184 0.0
C1413 C 0.41513 0.20594 0.85653 0.0
C1414 C 0.38632 0.1992 0.85446 0.0
C1415 C 0.36949 0.19264 0.88192 0.0
C1416 C 0.38155 0.19464 0.91026 0.0
C1417 C 0.33308 0.18322 0.79257 0.0
C1418 C 0.35032 0.20176 0.76653 0.0
C1419 C 0.34483 0.18211 0.82068 0.0
C1420 C 0.37408 0.20016 0.82401 0.0
C1421 C 0.39118 0.21954 0.7982 0.0
C1422 C 0.3795 0.22006 0.76968 0.0
H1423 H 0.74704 0.19965 0.92481 0.0
H1424 H 0.82294 0.1966 0.95113 0.0
H1425 H 0.74393 0.1741 0.88163 0.0
H1426 H 0.82061 0.17203 0.90736 0.0
H1427 H 0.82694 0.17493 0.79935 0.0
H1428 H 0.8267 0.19214 0.84804 0.0
H1429 H 0.73906 0.12553 0.86991 0.0
H1430 H 0.73928 0.10798 0.82163 0.0
C1431 C 0.76259 0.19285 0.92169 0.0
C1432 C 0.78534 0.20016 0.94089 0.0
C1433 C 0.76096 0.17844 0.89701 0.0
C1434 C 0.7823 0.17156 0.89104 0.0
C1435 C 0.80416 0.17751 0.91129 0.0
C1436 C 0.80547 0.19144 0.93622 0.0
C1437 C 0.80771 0.16388 0.81464 0.0
C1438 C 0.78315 0.14014 0.80669 0.0
C1439 C 0.80763 0.17359 0.84252 0.0
C1440 C 0.78286 0.16004 0.86261 0.0
C1441 C 0.75837 0.1363 0.85474 0.0
C1442 C 0.75859 0.12627 0.82717 0.0
H1443 H 0.20271 0.08487 0.46938 0.0
H1444 H 0.26297 0.15729 0.40582 0.0
H1445 H 0.22665 0.10914 0.51269 0.0
H1446 H 0.28756 0.18176 0.44888 0.0
H1447 H 0.30631 0.22702 0.53363 0.0
H1448 H 0.28205 0.20355 0.49052 0.0
H1449 H 0.2708 0.12351 0.53752 0.0
H1450 H 0.29441 0.14686 0.58125 0.0
C1451 C 0.22111 0.10611 0.46489 0.0
C1452 C 0.23113 0.1194 0.43459 0.0
C1453 C 0.23496 0.11992 0.48953 0.0
C1454 C 0.2592 0.14731 0.48428 0.0
C1455 C 0.26879 0.16081 0.45376 0.0
C1456 C 0.25479 0.14695 0.42913 0.0
C1457 C 0.29879 0.20442 0.53481 0.0
C1458 C 0.30231 0.18882 0.56097 0.0
C1459 C 0.28497 0.19099 0.50995 0.0
C1460 C 0.27441 0.16165 0.51054 0.0
C1461 C 0.27827 0.14608 0.53652 0.0
C1462 C 0.29201 0.1595 0.5615 0.0
H1463 H 0.85212 0.15685 0.44483 0.0
H1464 H 0.91398 0.13184 0.47426 0.0
H1465 H 0.8461 0.16526 0.49695 0.0
H1466 H 0.90804 0.1399 0.52672 0.0
H1467 H 0.90145 0.17588 0.61385 0.0
H1468 H 0.9131 0.17454 0.56086 0.0
H1469 H 0.82309 0.13162 0.54478 0.0
H1470 H 0.81135 0.13322 0.59781 0.0
C1471 C 0.86507 0.15409 0.46244 0.0
C1472 C 0.88356 0.14388 0.45585 0.0
C1473 C 0.86135 0.15842 0.49228 0.0
C1474 C 0.87612 0.15263 0.5161 0.0
C1475 C 0.89635 0.14455 0.50888 0.0
C1476 C 0.89998 0.14016 0.47893 0.0
C1477 C 0.88408 0.16602 0.59908 0.0
C1478 C 0.85542 0.15471 0.61007 0.0
C1479 C 0.89082 0.16524 0.56871 0.0
C1480 C 0.86908 0.15329 0.54852 0.0
C1481 C 0.84038 0.1415 0.55963 0.0
C1482 C 0.83361 0.14213 0.5901 0.0
H1483 H 0.84388 0.7081 0.40832 0.0
H1484 H 0.89752 0.78814 0.44044 0.0
H1485 H 0.83494 0.68305 0.46105 0.0
H1486 H 0.88893 0.76338 0.49342 0.0
H1487 H 0.84138 0.71477 0.58632 0.0
H1488 H 0.84718 0.73722 0.53279 0.0
H1489 H 0.85994 0.6715 0.50272 0.0
H1490 H 0.85397 0.64911 0.55581 0.0
C1491 C 0.85435 0.72009 0.42677 0.0
C1492 C 0.87165 0.7498 0.42063 0.0
C1493 C 0.8491 0.70592 0.45688 0.0
C1494 C 0.86091 0.72131 0.48145 0.0
C1495 C 0.87912 0.75102 0.47504 0.0
C1496 C 0.88452 0.76512 0.44482 0.0
C1497 C 0.84465 0.70476 0.56817 0.0
C1498 C 0.84727 0.68023 0.57523 0.0
C1499 C 0.84841 0.71782 0.5376 0.0
C1500 C 0.85449 0.70636 0.5136 0.0
C1501 C 0.85529 0.68085 0.52063 0.0
C1502 C 0.85183 0.66802 0.55107 0.0
loop_
_geom_bond_atom_site_label_1
_geom_bond_atom_site_label_2
_geom_bond_distance
_geom_bond_site_symmetry_2
_ccdc_geom_bond_type
C0 N1 1.317 . S
C0 N2 1.348 . S
C0 C3 1.485 . S
N1 C0 1.317 . S
N1 N5 1.370 . S
N2 C0 1.348 . S
N2 C4 1.346 . S
C3 C0 1.485 . S
C3 H7 0.960 . S
C3 H8 0.961 . S
C3 H9 0.960 . S
C4 N2 1.346 . S
C4 N5 1.307 . S
C4 C6 1.486 . S
N5 N1 1.370 . S
N5 C4 1.307 . S
C6 C4 1.486 . S
C6 H10 0.960 . S
C6 H11 0.960 . S
C6 H12 0.959 . S
H7 C3 0.960 . S
H8 C3 0.961 . S
H9 C3 0.960 . S
H10 C6 0.960 . S
H11 C6 0.960 . S
H12 C6 0.959 . S
C13 N14 1.317 . S
C13 N15 1.348 . S
C13 C16 1.485 . S
N14 C13 1.317 . S
N14 N18 1.370 . S
N15 C13 1.348 . S
N15 C17 1.346 . S
C16 C13 1.485 . S
C16 H20 0.960 . S
C16 H21 0.961 . S
C16 H22 0.960 . S
C17 N15 1.346 . S
C17 N18 1.307 . S
C17 C19 1.486 . S
N18 N14 1.370 . S
N18 C17 1.307 . S
C19 C17 1.486 . S
C19 H23 0.960 . S
C19 H24 0.960 . S
C19 H25 0.959 . S
H20 C16 0.960 . S
H21 C16 0.961 . S
H22 C16 0.960 . S
H23 C19 0.960 . S
H24 C19 0.960 . S
H25 C19 0.959 . S
C26 N27 1.317 . S
C26 N28 1.348 . S
C26 C29 1.485 . S
N27 C26 1.317 . S
N27 N31 1.370 . S
N28 C26 1.348 . S
N28 C30 1.346 . S
C29 C26 1.485 . S
C29 H33 0.960 . S
C29 H34 0.961 . S
C29 H35 0.960 . S
C30 N28 1.346 . S
C30 N31 1.307 . S
C30 C32 1.486 . S
N31 N27 1.370 . S
N31 C30 1.307 . S
C32 C30 1.486 . S
C32 H36 0.960 . S
C32 H37 0.960 . S
C32 H38 0.959 . S
H33 C29 0.960 . S
H34 C29 0.961 . S
H35 C29 0.960 . S
H36 C32 0.960 . S
H37 C32 0.960 . S
H38 C32 0.959 . S
C39 N40 1.317 . S
C39 N41 1.348 . S
C39 C42 1.485 . S
N40 C39 1.317 . S
N40 N44 1.370 . S
N41 C39 1.348 . S
N41 C43 1.346 . S
C42 C39 1.485 . S
C42 H46 0.960 . S
C42 H47 0.961 . S
C42 H48 0.960 . S
C43 N41 1.346 . S
C43 N44 1.307 . S
C43 C45 1.486 . S
N44 N40 1.370 . S
N44 C43 1.307 . S
C45 C43 1.486 . S
C45 H49 0.960 . S
C45 H50 0.960 . S
C45 H51 0.959 . S
H46 C42 0.960 . S
H47 C42 0.961 . S
H48 C42 0.960 . S
H49 C45 0.960 . S
H50 C45 0.960 . S
H51 C45 0.959 . S
C52 N53 1.317 . S
C52 N54 1.348 . S
C52 C55 1.485 . S
N53 C52 1.317 . S
N53 N57 1.370 . S
N54 C52 1.348 . S
N54 C56 1.346 . S
C55 C52 1.485 . S
C55 H59 0.960 . S
C55 H60 0.961 . S
C55 H61 0.960 . S
C56 N54 1.346 . S
C56 N57 1.307 . S
C56 C58 1.486 . S
N57 N53 1.370 . S
N57 C56 1.307 . S
C58 C56 1.486 . S
C58 H62 0.960 . S
C58 H63 0.960 . S
C58 H64 0.959 . S
H59 C55 0.960 . S
H60 C55 0.961 . S
H61 C55 0.960 . S
H62 C58 0.960 . S
H63 C58 0.960 . S
H64 C58 0.959 . S
C65 N66 1.317 . S
C65 N67 1.348 . S
C65 C68 1.485 . S
N66 C65 1.317 . S
N66 N70 1.370 . S
N67 C65 1.348 . S
N67 C69 1.346 . S
C68 C65 1.485 . S
C68 H72 0.960 . S
C68 H73 0.961 . S
C68 H74 0.960 . S
C69 N67 1.346 . S
C69 N70 1.307 . S
C69 C71 1.486 . S
N70 N66 1.370 . S
N70 C69 1.307 . S
C71 C69 1.486 . S
C71 H75 0.960 . S
C71 H76 0.960 . S
C71 H77 0.959 . S
H72 C68 0.960 . S
H73 C68 0.961 . S
H74 C68 0.960 . S
H75 C71 0.960 . S
H76 C71 0.960 . S
H77 C71 0.959 . S
C78 N79 1.317 . S
C78 N80 1.348 . S
C78 C81 1.485 . S
N79 C78 1.317 . S
N79 N83 1.370 . S
N80 C78 1.348 . S
N80 C82 1.346 . S
C81 C78 1.485 . S
C81 H85 0.960 . S
C81 H86 0.961 . S
C81 H87 0.960 . S
C82 N80 1.346 . S
C82 N83 1.307 . S
C82 C84 1.486 . S
N83 N79 1.370 . S
N83 C82 1.307 . S
C84 C82 1.486 . S
C84 H88 0.960 . S
C84 H89 0.960 . S
C84 H90 0.959 . S
H85 C81 0.960 . S
H86 C81 0.961 . S
H87 C81 0.960 . S
H88 C84 0.960 . S
H89 C84 0.960 . S
H90 C84 0.959 . S
C91 N92 1.317 . S
C91 N93 1.348 . S
C91 C94 1.485 . S
N92 C91 1.317 . S
N92 N96 1.370 . S
N93 C91 1.348 . S
N93 C95 1.346 . S
C94 C91 1.485 . S
C94 H98 0.960 . S
C94 H99 0.961 . S
C94 H100 0.960 . S
C95 N93 1.346 . S
C95 N96 1.307 . S
C95 C97 1.486 . S
N96 N92 1.370 . S
N96 C95 1.307 . S
C97 C95 1.486 . S
C97 H101 0.960 . S
C97 H102 0.960 . S
C97 H103 0.959 . S
H98 C94 0.960 . S
H99 C94 0.961 . S
H100 C94 0.960 . S
H101 C97 0.960 . S
H102 C97 0.960 . S
H103 C97 0.959 . S
C104 N105 1.317 . S
C104 N106 1.348 . S
C104 C107 1.485 . S
N105 C104 1.317 . S
N105 N109 1.370 . S
N106 C104 1.348 . S
N106 C108 1.346 . S
C107 C104 1.485 . S
C107 H111 0.960 . S
C107 H112 0.961 . S
C107 H113 0.960 . S
C108 N106 1.346 . S
C108 N109 1.307 . S
C108 C110 1.486 . S
N109 N105 1.370 . S
N109 C108 1.307 . S
C110 C108 1.486 . S
C110 H114 0.960 . S
C110 H115 0.960 . S
C110 H116 0.959 . S
H111 C107 0.960 . S
H112 C107 0.961 . S
H113 C107 0.960 . S
H114 C110 0.960 . S
H115 C110 0.960 . S
H116 C110 0.959 . S
C117 N118 1.317 1_554 S
C117 N119 1.356 . S
C117 C120 1.485 . S
N118 C117 1.317 1_556 S
N118 N122 1.370 . S
N119 C117 1.356 . S
N119 C121 1.327 1_554 S
C120 C117 1.485 . S
C120 H124 0.960 . S
C120 H125 0.961 . S
C120 H126 0.960 . S
C121 N119 1.327 1_556 S
C121 N122 1.307 . S
C121 C123 1.486 . S
N122 N118 1.370 . S
N122 C121 1.307 . S
C123 C121 1.486 . S
C123 H127 0.960 . S
C123 H128 0.960 . S
C123 H129 0.959 . S
H124 C120 0.960 . S
H125 C120 0.961 . S
H126 C120 0.960 . S
H127 C123 0.960 . S
H128 C123 0.960 . S
H129 C123 0.959 . S
C130 N131 1.317 1_554 S
C130 N132 1.348 . S
C130 C133 1.485 . S
N131 C130 1.317 1_556 S
N131 N135 1.370 . S
N132 C130 1.348 . S
N132 C134 1.346 1_554 S
C133 C130 1.485 . S
C133 H137 0.960 . S
C133 H138 0.961 . S
C133 H139 0.960 . S
C134 N132 1.346 1_556 S
C134 N135 1.307 . S
C134 C136 1.486 . S
N135 N131 1.370 . S
N135 C134 1.307 . S
C136 C134 1.486 . S
C136 H140 0.960 . S
C136 H141 0.960 . S
C136 H142 0.959 . S
H137 C133 0.960 . S
H138 C133 0.961 . S
H139 C133 0.960 . S
H140 C136 0.960 . S
H141 C136 0.960 . S
H142 C136 0.959 . S
C143 N144 1.317 1_554 S
C143 N145 1.348 . S
C143 C146 1.485 . S
N144 C143 1.317 1_556 S
N144 N148 1.370 . S
N145 C143 1.348 . S
N145 C147 1.346 1_554 S
C146 C143 1.485 . S
C146 H150 0.960 . S
C146 H151 0.961 . S
C146 H152 0.960 . S
C147 N145 1.346 1_556 S
C147 N148 1.307 . S
C147 C149 1.486 . S
N148 N144 1.370 . S
N148 C147 1.307 . S
C149 C147 1.486 . S
C149 H153 0.960 . S
C149 H154 0.960 . S
C149 H155 0.959 . S
H150 C146 0.960 . S
H151 C146 0.961 . S
H152 C146 0.960 . S
H153 C149 0.960 . S
H154 C149 0.960 . S
H155 C149 0.959 . S
C156 N157 1.317 . S
C156 N158 1.348 . S
C156 C159 1.485 1_554 S
N157 C156 1.317 . S
N157 N161 1.370 . S
N158 C156 1.348 . S
N158 C160 1.346 . S
C159 C156 1.485 1_556 S
C159 H163 0.960 . S
C159 H164 0.961 . S
C159 H165 0.960 . S
C160 N158 1.346 . S
C160 N161 1.307 . S
C160 C162 1.486 . S
N161 N157 1.370 . S
N161 C160 1.307 . S
C162 C160 1.486 . S
C162 H166 0.960 . S
C162 H167 0.960 . S
C162 H168 0.959 . S
H163 C159 0.960 . S
H164 C159 0.961 . S
H165 C159 0.960 . S
H166 C162 0.960 . S
H167 C162 0.960 . S
H168 C162 0.959 . S
C169 N170 1.317 . S
C169 N171 1.348 . S
C169 C172 1.485 1_554 S
N170 C169 1.317 . S
N170 N174 1.370 . S
N171 C169 1.348 . S
N171 C173 1.346 . S
C172 C169 1.485 1_556 S
C172 H176 0.960 . S
C172 H177 0.961 . S
C172 H178 0.960 . S
C173 N171 1.346 . S
C173 N174 1.307 . S
C173 C175 1.486 . S
N174 N170 1.370 . S
N174 C173 1.307 . S
C175 C173 1.486 . S
C175 H179 0.960 . S
C175 H180 0.960 . S
C175 H181 0.959 . S
H176 C172 0.960 . S
H177 C172 0.961 . S
H178 C172 0.960 . S
H179 C175 0.960 . S
H180 C175 0.960 . S
H181 C175 0.959 . S
C182 N183 1.317 . S
C182 N184 1.348 . S
C182 C185 1.485 1_554 S
N183 C182 1.317 . S
N183 N187 1.370 . S
N184 C182 1.348 . S
N184 C186 1.346 . S
C185 C182 1.485 1_556 S
C185 H189 0.960 . S
C185 H190 0.961 . S
C185 H191 0.960 . S
C186 N184 1.346 . S
C186 N187 1.307 . S
C186 C188 1.486 . S
N187 N183 1.370 . S
N187 C186 1.307 . S
C188 C186 1.486 . S
C188 H192 0.960 . S
C188 H193 0.960 . S
C188 H194 0.959 . S
H189 C185 0.960 . S
H190 C185 0.961 . S
H191 C185 0.960 . S
H192 C188 0.960 . S
H193 C188 0.960 . S
H194 C188 0.959 . S
C195 N196 1.317 . S
C195 N197 1.348 . S
C195 C198 1.485 . S
N196 C195 1.317 . S
N196 N200 1.370 . S
N197 C195 1.348 . S
N197 C199 1.346 . S
C198 C195 1.485 . S
C198 H202 0.960 . S
C198 H203 0.961 . S
C198 H204 0.960 . S
C199 N197 1.346 . S
C199 N200 1.307 . S
C199 C201 1.486 . S
N200 N196 1.370 . S
N200 C199 1.307 . S
C201 C199 1.486 . S
C201 H205 0.960 . S
C201 H206 0.960 . S
C201 H207 0.959 . S
H202 C198 0.960 . S
H203 C198 0.961 . S
H204 C198 0.960 . S
H205 C201 0.960 . S
H206 C201 0.960 . S
H207 C201 0.959 . S
C208 N209 1.317 . S
C208 N210 1.348 . S
C208 C211 1.485 . S
N209 C208 1.317 . S
N209 N213 1.370 . S
N210 C208 1.348 . S
N210 C212 1.346 . S
C211 C208 1.485 . S
C211 H215 0.960 . S
C211 H216 0.961 . S
C211 H217 0.960 . S
C212 N210 1.346 . S
C212 N213 1.307 . S
C212 C214 1.486 . S
N213 N209 1.370 . S
N213 C212 1.307 . S
C214 C212 1.486 . S
C214 H218 0.960 . S
C214 H219 0.960 . S
C214 H220 0.959 . S
H215 C211 0.960 . S
H216 C211 0.961 . S
H217 C211 0.960 . S
H218 C214 0.960 . S
H219 C214 0.960 . S
H220 C214 0.959 . S
C221 N222 1.317 . S
C221 N223 1.348 . S
C221 C224 1.485 . S
N222 C221 1.317 . S
N222 N226 1.370 . S
N223 C221 1.348 . S
N223 C225 1.346 . S
C224 C221 1.485 . S
C224 H228 0.960 . S
C224 H229 0.961 . S
C224 H230 0.960 . S
C225 N223 1.346 . S
C225 N226 1.307 . S
C225 C227 1.486 . S
N226 N222 1.370 . S
N226 C225 1.307 . S
C227 C225 1.486 . S
C227 H231 0.960 . S
C227 H232 0.960 . S
C227 H233 0.959 . S
H228 C224 0.960 . S
H229 C224 0.961 . S
H230 C224 0.960 . S
H231 C227 0.960 . S
H232 C227 0.960 . S
H233 C227 0.959 . S
O234 Mg235 1.990 . S
O234 C248 1.253 . S
Mg235 O234 1.990 . S
Mg235 O238 2.180 1_546 S
Mg235 O239 2.117 1_545 S
Mg235 O253 2.030 . S
O236 Mg237 2.072 1_556 S
O236 C248 1.260 . S
Mg237 O236 2.072 1_554 S
Mg237 O238 2.099 1_545 S
Mg237 O240 2.079 1_545 S
Mg237 O241 2.072 1_545 S
Mg237 O243 2.099 . S
Mg237 O254 2.079 . S
O238 Mg235 2.180 1_564 S
O238 Mg237 2.099 1_565 S
O238 C249 1.279 . S
O239 Mg235 2.117 1_565 S
O239 C249 1.250 1_556 S
O240 Mg237 2.079 1_565 S
O240 C250 1.264 . S
O241 Mg237 2.072 1_565 S
O241 C251 1.260 . S
Mg242 O243 2.180 . S
Mg242 O244 2.030 1_545 S
Mg242 O245 1.990 1_545 S
Mg242 O246 2.117 . S
O243 Mg237 2.099 . S
O243 Mg242 2.180 . S
O243 C252 1.279 . S
O244 Mg242 2.030 1_565 S
O244 C250 1.248 . S
O245 Mg242 1.990 1_565 S
O245 C251 1.253 . S
O246 Mg242 2.117 . S
O246 C252 1.250 . S
C247 O253 1.248 1_554 S
C247 O254 1.264 . S
C248 O234 1.253 . S
C248 O236 1.260 . S
C249 O238 1.279 . S
C249 O239 1.250 1_554 S
C250 O240 1.264 . S
C250 O244 1.248 . S
C251 O241 1.260 . S
C251 O245 1.253 . S
C252 O243 1.279 . S
C252 O246 1.250 . S
O253 Mg235 2.030 . S
O253 C247 1.248 1_556 S
O254 Mg237 2.079 . S
O254 C247 1.264 . S
O255 Mg256 1.990 . S
O255 C269 1.253 1_455 S
Mg256 O255 1.990 . S
Mg256 O259 2.180 . S
Mg256 O260 2.117 . S
Mg256 O274 2.030 1_455 S
O257 Mg258 2.072 1_656 S
O257 C269 1.260 . S
Mg258 O257 2.072 1_454 S
Mg258 O259 2.099 1_554 S
Mg258 O261 2.079 . S
Mg258 O262 2.072 . S
Mg258 O264 2.099 1_455 S
Mg258 O275 2.079 1_455 S
O259 Mg256 2.180 . S
O259 Mg258 2.099 1_556 S
O259 C270 1.279 . S
O260 Mg256 2.117 . S
O260 C270 1.250 . S
O261 Mg258 2.079 . S
O261 C271 1.264 . S
O262 Mg258 2.072 . S
O262 C272 1.260 . S
Mg263 O264 2.180 1_455 S
Mg263 O265 2.030 . S
Mg263 O266 1.990 . S
Mg263 O267 2.117 1_455 S
O264 Mg258 2.099 1_655 S
O264 Mg263 2.180 1_655 S
O264 C273 1.279 . S
O265 Mg263 2.030 . S
O265 C271 1.248 . S
O266 Mg263 1.990 . S
O266 C272 1.253 . S
O267 Mg263 2.117 1_655 S
O267 C273 1.250 . S
C268 O274 1.248 . S
C268 O275 1.264 1_556 S
C269 O255 1.253 1_655 S
C269 O257 1.260 . S
C270 O259 1.279 . S
C270 O260 1.250 . S
C271 O261 1.264 . S
C271 O265 1.248 . S
C272 O262 1.260 . S
C272 O266 1.253 . S
C273 O264 1.279 . S
C273 O267 1.250 . S
O274 Mg256 2.030 1_655 S
O274 C268 1.248 . S
O275 Mg258 2.079 1_655 S
O275 C268 1.264 1_554 S
O276 Mg277 1.990 . S
O276 C290 1.253 . S
Mg277 O276 1.990 . S
Mg277 O280 2.180 . S
Mg277 O281 2.117 . S
Mg277 O295 2.030 . S
O278 Mg279 2.072 . S
O278 C290 1.260 . S
Mg279 O278 2.072 . S
Mg279 O280 2.099 . S
Mg279 O282 2.079 1_554 S
Mg279 O283 2.072 . S
Mg279 O285 2.099 . S
Mg279 O296 2.079 . S
O280 Mg277 2.180 . S
O280 Mg279 2.099 . S
O280 C291 1.279 . S
O281 Mg277 2.117 . S
O281 C291 1.250 . S
O282 Mg279 2.079 1_556 S
O282 C292 1.264 . S
O283 Mg279 2.072 . S
O283 C293 1.260 . S
Mg284 O285 2.180 1_556 S
Mg284 O286 2.030 . S
Mg284 O287 1.990 1_556 S
Mg284 O288 2.117 1_556 S
O285 Mg279 2.099 . S
O285 Mg284 2.180 1_554 S
O285 C294 1.279 . S
O286 Mg284 2.030 . S
O286 C292 1.248 . S
O287 Mg284 1.990 1_554 S
O287 C293 1.253 . S
O288 Mg284 2.117 1_554 S
O288 C294 1.250 . S
C289 O295 1.248 . S
C289 O296 1.264 . S
C290 O276 1.253 . S
C290 O278 1.260 . S
C291 O280 1.279 . S
C291 O281 1.250 . S
C292 O282 1.264 . S
C292 O286 1.248 . S
C293 O283 1.260 . S
C293 O287 1.253 . S
C294 O285 1.279 . S
C294 O288 1.250 . S
O295 Mg277 2.030 . S
O295 C289 1.248 . S
O296 Mg279 2.079 . S
O296 C289 1.264 . S
O297 Mg298 1.990 . S
O297 C311 1.253 . S
Mg298 O297 1.990 . S
Mg298 O301 2.180 . S
Mg298 O302 2.117 . S
Mg298 O316 2.030 . S
O299 Mg300 2.072 . S
O299 C311 1.260 . S
Mg300 O299 2.072 . S
Mg300 O301 2.099 . S
Mg300 O303 2.079 . S
Mg300 O304 2.072 . S
Mg300 O306 2.099 . S
Mg300 O317 2.079 . S
O301 Mg298 2.180 . S
O301 Mg300 2.099 . S
O301 C312 1.279 . S
O302 Mg298 2.117 . S
O302 C312 1.250 . S
O303 Mg300 2.079 . S
O303 C313 1.264 . S
O304 Mg300 2.072 . S
O304 C314 1.260 . S
Mg305 O306 2.180 . S
Mg305 O307 2.030 . S
Mg305 O308 1.990 . S
Mg305 O309 2.117 . S
O306 Mg300 2.099 . S
O306 Mg305 2.180 . S
O306 C315 1.279 . S
O307 Mg305 2.030 . S
O307 C313 1.248 . S
O308 Mg305 1.990 . S
O308 C314 1.253 . S
O309 Mg305 2.117 . S
O309 C315 1.250 . S
C310 O316 1.248 . S
C310 O317 1.264 . S
C311 O297 1.253 . S
C311 O299 1.260 . S
C312 O301 1.279 . S
C312 O302 1.250 . S
C313 O303 1.264 . S
C313 O307 1.248 . S
C314 O304 1.260 . S
C314 O308 1.253 . S
C315 O306 1.279 . S
C315 O309 1.250 . S
O316 Mg298 2.030 . S
O316 C310 1.248 . S
O317 Mg300 2.079 . S
O317 C310 1.264 . S
O318 Mg319 1.990 . S
O318 C332 1.253 . S
Mg319 O318 1.990 . S
Mg319 O322 2.180 . S
Mg319 O323 2.117 . S
Mg319 O337 2.030 . S
O320 Mg321 2.072 . S
O320 C332 1.260 . S
Mg321 O320 2.072 . S
Mg321 O322 2.099 . S
Mg321 O324 2.079 . S
Mg321 O325 2.072 . S
Mg321 O327 2.099 . S
Mg321 O338 2.079 . S
O322 Mg319 2.180 . S
O322 Mg321 2.099 . S
O322 C333 1.279 . S
O323 Mg319 2.117 . S
O323 C333 1.250 . S
O324 Mg321 2.079 . S
O324 C334 1.264 . S
O325 Mg321 2.072 . S
O325 C335 1.260 . S
Mg326 O327 2.180 . S
Mg326 O328 2.030 . S
Mg326 O329 1.990 . S
Mg326 O330 2.117 . S
O327 Mg321 2.099 . S
O327 Mg326 2.180 . S
O327 C336 1.279 . S
O328 Mg326 2.030 . S
O328 C334 1.248 . S
O329 Mg326 1.990 . S
O329 C335 1.253 . S
O330 Mg326 2.117 . S
O330 C336 1.250 . S
C331 O337 1.248 . S
C331 O338 1.264 . S
C332 O318 1.253 . S
C332 O320 1.260 . S
C333 O322 1.279 . S
C333 O323 1.250 . S
C334 O324 1.264 . S
C334 O328 1.248 . S
C335 O325 1.260 . S
C335 O329 1.253 . S
C336 O327 1.279 . S
C336 O330 1.250 . S
O337 Mg319 2.030 . S
O337 C331 1.248 . S
O338 Mg321 2.079 . S
O338 C331 1.264 . S
O339 Mg340 1.990 . S
O339 C353 1.253 . S
Mg340 O339 1.990 . S
Mg340 O343 2.180 . S
Mg340 O344 2.117 . S
Mg340 O358 2.030 . S
O341 Mg342 2.072 . S
O341 C353 1.260 . S
Mg342 O341 2.072 . S
Mg342 O343 2.099 . S
Mg342 O345 2.079 . S
Mg342 O346 2.072 . S
Mg342 O348 2.099 . S
Mg342 O359 2.079 . S
O343 Mg340 2.180 . S
O343 Mg342 2.099 . S
O343 C354 1.279 . S
O344 Mg340 2.117 . S
O344 C354 1.250 . S
O345 Mg342 2.079 . S
O345 C355 1.264 . S
O346 Mg342 2.072 . S
O346 C356 1.260 . S
Mg347 O348 2.180 . S
Mg347 O349 2.030 . S
Mg347 O350 1.990 . S
Mg347 O351 2.117 . S
O348 Mg342 2.099 . S
O348 Mg347 2.180 . S
O348 C357 1.279 . S
O349 Mg347 2.030 . S
O349 C355 1.248 . S
O350 Mg347 1.990 . S
O350 C356 1.253 . S
O351 Mg347 2.117 . S
O351 C357 1.250 . S
C352 O358 1.248 . S
C352 O359 1.264 . S
C353 O339 1.253 . S
C353 O341 1.260 . S
C354 O343 1.279 . S
C354 O344 1.250 . S
C355 O345 1.264 . S
C355 O349 1.248 . S
C356 O346 1.260 . S
C356 O350 1.253 . S
C357 O348 1.279 . S
C357 O351 1.250 . S
O358 Mg340 2.030 . S
O358 C352 1.248 . S
O359 Mg342 2.079 . S
O359 C352 1.264 . S
O360 Mg361 1.990 . S
O360 C374 1.253 . S
Mg361 O360 1.990 . S
Mg361 O364 2.180 . S
Mg361 O365 2.117 . S
Mg361 O379 2.030 . S
O362 Mg363 2.072 . S
O362 C374 1.260 . S
Mg363 O362 2.072 . S
Mg363 O364 2.099 . S
Mg363 O366 2.079 . S
Mg363 O367 2.072 . S
Mg363 O369 2.099 . S
Mg363 O380 2.079 . S
O364 Mg361 2.180 . S
O364 Mg363 2.099 . S
O364 C375 1.279 . S
O365 Mg361 2.117 . S
O365 C375 1.250 . S
O366 Mg363 2.079 . S
O366 C376 1.264 . S
O367 Mg363 2.072 . S
O367 C377 1.260 . S
Mg368 O369 2.180 . S
Mg368 O370 2.030 . S
Mg368 O371 1.990 . S
Mg368 O372 2.117 . S
O369 Mg363 2.099 . S
O369 Mg368 2.180 . S
O369 C378 1.279 . S
O370 Mg368 2.030 . S
O370 C376 1.248 . S
O371 Mg368 1.990 . S
O371 C377 1.253 . S
O372 Mg368 2.117 . S
O372 C378 1.250 . S
C373 O379 1.248 . S
C373 O380 1.264 . S
C374 O360 1.253 . S
C374 O362 1.260 . S
C375 O364 1.279 . S
C375 O365 1.250 . S
C376 O366 1.264 . S
C376 O370 1.248 . S
C377 O367 1.260 . S
C377 O371 1.253 . S
C378 O369 1.279 . S
C378 O372 1.250 . S
O379 Mg361 2.030 . S
O379 C373 1.248 . S
O380 Mg363 2.079 . S
O380 C373 1.264 . S
O381 Mg382 1.990 . S
O381 C395 1.253 . S
Mg382 O381 1.990 . S
Mg382 O385 2.180 . S
Mg382 O386 2.117 . S
Mg382 O400 2.030 . S
O383 Mg384 2.072 . S
O383 C395 1.260 . S
Mg384 O383 2.072 . S
Mg384 O385 2.099 . S
Mg384 O387 2.079 . S
Mg384 O388 2.072 . S
Mg384 O390 2.099 . S
Mg384 O401 2.079 . S
O385 Mg382 2.180 . S
O385 Mg384 2.099 . S
O385 C396 1.279 . S
O386 Mg382 2.117 . S
O386 C396 1.250 . S
O387 Mg384 2.079 . S
O387 C397 1.264 . S
O388 Mg384 2.072 . S
O388 C398 1.260 . S
Mg389 O390 2.180 . S
Mg389 O391 2.030 . S
Mg389 O392 1.990 . S
Mg389 O393 2.117 . S
O390 Mg384 2.099 . S
O390 Mg389 2.180 . S
O390 C399 1.279 . S
O391 Mg389 2.030 . S
O391 C397 1.248 . S
O392 Mg389 1.990 . S
O392 C398 1.253 . S
O393 Mg389 2.117 . S
O393 C399 1.250 . S
C394 O400 1.248 . S
C394 O401 1.264 . S
C395 O381 1.253 . S
C395 O383 1.260 . S
C396 O385 1.279 . S
C396 O386 1.250 . S
C397 O387 1.264 . S
C397 O391 1.248 . S
C398 O388 1.260 . S
C398 O392 1.253 . S
C399 O390 1.279 . S
C399 O393 1.250 . S
O400 Mg382 2.030 . S
O400 C394 1.248 . S
O401 Mg384 2.079 . S
O401 C394 1.264 . S
O402 Mg403 1.990 . S
O402 C416 1.253 . S
Mg403 O402 1.990 . S
Mg403 O406 2.180 . S
Mg403 O407 2.117 . S
Mg403 O421 2.030 . S
O404 Mg405 2.072 . S
O404 C416 1.260 . S
Mg405 O404 2.072 . S
Mg405 O406 2.099 . S
Mg405 O408 2.079 . S
Mg405 O409 2.072 . S
Mg405 O411 2.099 . S
Mg405 O422 2.079 . S
O406 Mg403 2.180 . S
O406 Mg405 2.099 . S
O406 C417 1.279 . S
O407 Mg403 2.117 . S
O407 C417 1.250 . S
O408 Mg405 2.079 . S
O408 C418 1.264 . S
O409 Mg405 2.072 . S
O409 C419 1.260 . S
Mg410 O411 2.180 . S
Mg410 O412 2.030 . S
Mg410 O413 1.990 . S
Mg410 O414 2.117 . S
O411 Mg405 2.099 . S
O411 Mg410 2.180 . S
O411 C420 1.279 . S
O412 Mg410 2.030 . S
O412 C418 1.248 . S
O413 Mg410 1.990 . S
O413 C419 1.253 . S
O414 Mg410 2.117 . S
O414 C420 1.250 . S
C415 O421 1.248 . S
C415 O422 1.264 . S
C416 O402 1.253 . S
C416 O404 1.260 . S
C417 O406 1.279 . S
C417 O407 1.250 . S
C418 O408 1.264 . S
C418 O412 1.248 . S
C419 O409 1.260 . S
C419 O413 1.253 . S
C420 O411 1.279 . S
C420 O414 1.250 . S
O421 Mg403 2.030 . S
O421 C415 1.248 . S
O422 Mg405 2.079 . S
O422 C415 1.264 . S
H423 C431 0.950 1_556 S
H424 C436 0.950 . S
H425 C433 0.950 1_556 S
H426 C435 0.950 . S
H427 C437 0.950 . S
H428 C439 0.950 . S
H429 C441 0.950 1_556 S
H430 C442 0.950 . S
C431 H423 0.950 1_554 S
C431 C432 1.386 . S
C431 C433 1.391 . S
C432 C431 1.386 . S
C432 C436 1.393 . S
C433 H425 0.950 1_554 S
C433 C431 1.391 . S
C433 C434 1.400 . S
C434 C433 1.400 . S
C434 C435 1.398 . S
C434 C440 1.491 . S
C435 H426 0.950 . S
C435 C434 1.398 . S
C435 C436 1.391 . S
C436 H424 0.950 . S
C436 C432 1.393 . S
C436 C435 1.391 . S
C437 H427 0.950 . S
C437 C438 1.386 . S
C437 C439 1.391 . S
C438 C437 1.386 . S
C438 C442 1.393 1_554 S
C439 H428 0.950 . S
C439 C437 1.391 . S
C439 C440 1.400 . S
C440 C434 1.491 . S
C440 C439 1.400 . S
C440 C441 1.398 . S
C441 H429 0.950 1_554 S
C441 C440 1.398 . S
C441 C442 1.391 1_554 S
C442 H430 0.950 . S
C442 C438 1.393 1_556 S
C442 C441 1.391 1_556 S
H443 C451 0.950 . S
H444 C456 0.950 1_556 S
H445 C453 0.950 . S
H446 C455 0.950 . S
H447 C457 0.950 . S
H448 C459 0.950 . S
H449 C461 0.950 . S
H450 C462 0.950 . S
C451 H443 0.950 . S
C451 C452 1.386 . S
C451 C453 1.391 . S
C452 C451 1.386 . S
C452 C456 1.393 . S
C453 H445 0.950 . S
C453 C451 1.391 . S
C453 C454 1.400 . S
C454 C453 1.400 . S
C454 C455 1.398 1_554 S
C454 C460 1.491 . S
C455 H446 0.950 . S
C455 C454 1.398 1_556 S
C455 C456 1.391 1_556 S
C456 H444 0.950 1_554 S
C456 C452 1.393 . S
C456 C455 1.391 1_554 S
C457 H447 0.950 . S
C457 C458 1.386 1_556 S
C457 C459 1.391 . S
C458 C457 1.386 1_554 S
C458 C462 1.393 . S
C459 H448 0.950 . S
C459 C457 1.391 . S
C459 C460 1.400 1_556 S
C460 C454 1.491 . S
C460 C459 1.400 1_554 S
C460 C461 1.398 . S
C461 H449 0.950 . S
C461 C460 1.398 . S
C461 C462 1.391 . S
C462 H450 0.950 . S
C462 C458 1.393 . S
C462 C461 1.391 . S
H463 C471 0.950 . S
H464 C476 0.950 . S
H465 C473 0.950 . S
H466 C475 0.950 . S
H467 C477 0.950 . S
H468 C479 0.950 . S
H469 C481 0.950 . S
H470 C482 0.950 . S
C471 H463 0.950 . S
C471 C472 1.386 . S
C471 C473 1.391 . S
C472 C471 1.386 . S
C472 C476 1.393 . S
C473 H465 0.950 . S
C473 C471 1.391 . S
C473 C474 1.400 . S
C474 C473 1.400 . S
C474 C475 1.398 . S
C474 C480 1.491 . S
C475 H466 0.950 . S
C475 C474 1.398 . S
C475 C476 1.391 . S
C476 H464 0.950 . S
C476 C472 1.393 . S
C476 C475 1.391 . S
C477 H467 0.950 . S
C477 C478 1.386 . S
C477 C479 1.391 . S
C478 C477 1.386 . S
C478 C482 1.393 . S
C479 H468 0.950 . S
C479 C477 1.391 . S
C479 C480 1.400 . S
C480 C474 1.491 . S
C480 C479 1.400 . S
C480 C481 1.398 . S
C481 H469 0.950 . S
C481 C480 1.398 . S
C481 C482 1.391 . S
C482 H470 0.950 . S
C482 C478 1.393 . S
C482 C481 1.391 . S
H483 C491 0.950 . S
H484 C496 0.950 . S
H485 C493 0.950 . S
H486 C495 0.950 . S
H487 C497 0.950 . S
H488 C499 0.950 . S
H489 C501 0.950 . S
H490 C502 0.950 . S
C491 H483 0.950 . S
C491 C492 1.386 . S
C491 C493 1.391 . S
C492 C491 1.386 . S
C492 C496 1.393 1_554 S
C493 H485 0.950 . S
C493 C491 1.391 . S
C493 C494 1.400 . S
C494 C493 1.400 . S
C494 C495 1.398 1_554 S
C494 C500 1.491 . S
C495 H486 0.950 . S
C495 C494 1.398 1_556 S
C495 C496 1.391 . S
C496 H484 0.950 . S
C496 C492 1.393 1_556 S
C496 C495 1.391 . S
C497 H487 0.950 . S
C497 C498 1.386 1_556 S
C497 C499 1.391 . S
C498 C497 1.386 1_554 S
C498 C502 1.393 . S
C499 H488 0.950 . S
C499 C497 1.391 . S
C499 C500 1.400 1_556 S
C500 C494 1.491 . S
C500 C499 1.400 1_554 S
C500 C501 1.398 . S
C501 H489 0.950 . S
C501 C500 1.398 . S
C501 C502 1.391 . S
C502 H490 0.950 . S
C502 C498 1.393 . S
C502 C501 1.391 . S
H503 C511 0.954 . S
H504 C516 0.950 . S
H505 C513 0.950 1_556 S
H506 C515 0.950 . S
H507 C517 0.950 . S
H508 C519 0.950 . S
H509 C521 0.950 . S
H510 C522 0.950 . S
C511 H503 0.954 . S
C511 C512 1.383 1_556 S
C511 C513 1.390 1_556 S
C512 C511 1.383 1_554 S
C512 C516 1.393 . S
C513 H505 0.950 1_554 S
C513 C511 1.390 1_554 S
C513 C514 1.400 . S
C514 C513 1.400 . S
C514 C515 1.398 . S
C514 C520 1.491 . S
C515 H506 0.950 . S
C515 C514 1.398 . S
C515 C516 1.391 . S
C516 H504 0.950 . S
C516 C512 1.393 . S
C516 C515 1.391 . S
C517 H507 0.950 . S
C517 C518 1.386 . S
C517 C519 1.391 . S
C518 C517 1.386 . S
C518 C522 1.393 . S
C519 H508 0.950 . S
C519 C517 1.391 . S
C519 C520 1.400 . S
C520 C514 1.491 . S
C520 C519 1.400 . S
C520 C521 1.398 . S
C521 H509 0.950 . S
C521 C520 1.398 . S
C521 C522 1.391 . S
C522 H510 0.950 . S
C522 C518 1.393 . S
C522 C521 1.391 . S
H523 C531 0.950 . S
H524 C536 0.950 . S
H525 C533 0.950 . S
H526 C535 0.950 . S
H527 C537 0.950 . S
H528 C539 0.950 . S
H529 C541 0.950 . S
H530 C542 0.950 . S
C531 H523 0.950 . S
C531 C532 1.386 1_554 S
C531 C533 1.391 . S
C532 C531 1.386 1_556 S
C532 C536 1.393 . S
C533 H525 0.950 . S
C533 C531 1.391 . S
C533 C534 1.400 . S
C534 C533 1.400 . S
C534 C535 1.398 1_554 S
C534 C540 1.491 . S
C535 H526 0.950 . S
C535 C534 1.398 1_556 S
C535 C536 1.391 . S
C536 H524 0.950 . S
C536 C532 1.393 . S
C536 C535 1.391 . S
C537 H527 0.950 . S
C537 C538 1.386 1_556 S
C537 C539 1.391 . S
C538 C537 1.386 1_554 S
C538 C542 1.393 . S
C539 H528 0.950 . S
C539 C537 1.391 . S
C539 C540 1.400 1_556 S
C540 C534 1.491 . S
C540 C539 1.400 1_554 S
C540 C541 1.398 . S
C541 H529 0.950 . S
C541 C540 1.398 . S
C541 C542 1.391 . S
C542 H530 0.950 . S
C542 C538 1.393 . S
C542 C541 1.391 . S
H543 C551 0.950 . S
H544 C556 0.950 . S
H545 C553 0.950 . S
H546 C555 0.950 . S
H547 C557 0.950 . S
H548 C559 0.950 . S
H549 C561 0.950 . S
H550 C562 0.950 . S
C551 H543 0.950 . S
C551 C552 1.386 . S
C551 C553 1.391 . S
C552 C551 1.386 . S
C552 C556 1.393 1_554 S
C553 H545 0.950 . S
C553 C551 1.391 . S
C553 C554 1.400 . S
C554 C553 1.400 . S
C554 C555 1.398 1_554 S
C554 C560 1.491 . S
C555 H546 0.950 . S
C555 C554 1.398 1_556 S
C555 C556 1.391 . S
C556 H544 0.950 . S
C556 C552 1.393 1_556 S
C556 C555 1.391 . S
C557 H547 0.950 . S
C557 C558 1.386 1_556 S
C557 C559 1.391 . S
C558 C557 1.386 1_554 S
C558 C562 1.393 . S
C559 H548 0.950 . S
C559 C557 1.391 . S
C559 C560 1.400 1_556 S
C560 C554 1.491 . S
C560 C559 1.400 1_554 S
C560 C561 1.398 . S
C561 H549 0.950 . S
C561 C560 1.398 . S
C561 C562 1.391 . S
C562 H550 0.950 . S
C562 C558 1.393 . S
C562 C561 1.391 . S
H563 C571 0.950 . S
H564 C576 0.950 . S
H565 C573 0.950 . S
H566 C575 0.950 . S
H567 C577 0.950 . S
H568 C579 0.950 . S
H569 C581 0.950 . S
H570 C582 0.950 . S
C571 H563 0.950 . S
C571 C572 1.386 1_554 S
C571 C573 1.391 . S
C572 C571 1.386 1_556 S
C572 C576 1.393 . S
C573 H565 0.950 . S
C573 C571 1.391 . S
C573 C574 1.400 1_554 S
C574 C573 1.400 1_556 S
C574 C575 1.398 . S
C574 C580 1.491 . S
C575 H566 0.950 . S
C575 C574 1.398 . S
C575 C576 1.391 . S
C576 H564 0.950 . S
C576 C572 1.393 . S
C576 C575 1.391 . S
C577 H567 0.950 . S
C577 C578 1.420 . S
C577 C579 1.391 . S
C578 C577 1.420 . S
C578 C582 1.359 1_556 S
C579 H568 0.950 . S
C579 C577 1.391 . S
C579 C580 1.400 . S
C580 C574 1.491 . S
C580 C579 1.400 . S
C580 C581 1.398 1_556 S
C581 H569 0.950 . S
C581 C580 1.398 1_554 S
C581 C582 1.391 . S
C582 H570 0.950 . S
C582 C578 1.359 1_554 S
C582 C581 1.391 . S
H583 C591 0.950 . S
H584 C596 0.950 . S
H585 C593 0.950 . S
H586 C595 0.950 . S
H587 C597 0.950 . S
H588 C599 0.950 . S
H589 C601 0.950 . S
H590 C602 0.950 . S
C591 H583 0.950 . S
C591 C592 1.386 . S
C591 C593 1.391 . S
C592 C591 1.386 . S
C592 C596 1.393 . S
C593 H585 0.950 . S
C593 C591 1.391 . S
C593 C594 1.400 . S
C594 C593 1.400 . S
C594 C595 1.398 . S
C594 C600 1.491 . S
C595 H586 0.950 . S
C595 C594 1.398 . S
C595 C596 1.391 . S
C596 H584 0.950 . S
C596 C592 1.393 . S
C596 C595 1.391 . S
C597 H587 0.950 . S
C597 C598 1.386 . S
C597 C599 1.391 . S
C598 C597 1.386 . S
C598 C602 1.393 . S
C599 H588 0.950 . S
C599 C597 1.391 . S
C599 C600 1.400 . S
C600 C594 1.491 . S
C600 C599 1.400 . S
C600 C601 1.398 . S
C601 H589 0.950 . S
C601 C600 1.398 . S
C601 C602 1.391 . S
C602 H590 0.950 . S
C602 C598 1.393 . S
C602 C601 1.391 . S
H603 C611 0.950 . S
H604 C616 0.950 . S
H605 C613 0.950 . S
H606 C615 0.950 . S
H607 C617 0.950 . S
H608 C619 0.950 . S
H609 C621 0.950 . S
H610 C622 0.950 . S
C611 H603 0.950 . S
C611 C612 1.386 . S
C611 C613 1.391 . S
C612 C611 1.386 . S
C612 C616 1.393 1_554 S
C613 H605 0.950 . S
C613 C611 1.391 . S
C613 C614 1.400 . S
C614 C613 1.400 . S
C614 C615 1.398 1_554 S
C614 C620 1.491 . S
C615 H606 0.950 . S
C615 C614 1.398 1_556 S
C615 C616 1.391 . S
C616 H604 0.950 . S
C616 C612 1.393 1_556 S
C616 C615 1.391 . S
C617 H607 0.950 . S
C617 C618 1.395 . S
C617 C619 1.391 . S
C618 C617 1.395 . S
C618 C622 1.380 1_556 S
C619 H608 0.950 . S
C619 C617 1.391 . S
C619 C620 1.400 1_556 S
C620 C614 1.491 . S
C620 C619 1.400 1_554 S
C620 C621 1.398 . S
C621 H609 0.950 . S
C621 C620 1.398 . S
C621 C622 1.391 . S
C622 H610 0.950 . S
C622 C618 1.380 1_554 S
C622 C621 1.391 . S
H623 C631 0.950 . S
H624 C636 0.950 . S
H625 C633 0.950 . S
H626 C635 0.950 . S
H627 C637 0.950 . S
H628 C639 0.950 . S
H629 C641 0.950 1_556 S
H630 C642 0.950 1_556 S
C631 H623 0.950 . S
C631 C632 1.386 . S
C631 C633 1.391 . S
C632 C631 1.386 . S
C632 C636 1.393 . S
C633 H625 0.950 . S
C633 C631 1.391 . S
C633 C634 1.400 . S
C634 C633 1.400 . S
C634 C635 1.398 . S
C634 C640 1.491 . S
C635 H626 0.950 . S
C635 C634 1.398 . S
C635 C636 1.391 . S
C636 H624 0.950 . S
C636 C632 1.393 . S
C636 C635 1.391 . S
C637 H627 0.950 . S
C637 C638 1.386 . S
C637 C639 1.391 . S
C638 C637 1.386 . S
C638 C642 1.393 . S
C639 H628 0.950 . S
C639 C637 1.391 . S
C639 C640 1.400 . S
C640 C634 1.491 . S
C640 C639 1.400 . S
C640 C641 1.398 . S
C641 H629 0.950 1_554 S
C641 C640 1.398 . S
C641 C642 1.391 . S
C642 H630 0.950 1_554 S
C642 C638 1.393 . S
C642 C641 1.391 . S
H643 C651 0.950 . S
H644 C656 0.950 1_556 S
H645 C653 0.950 . S
H646 C655 0.950 1_556 S
H647 C657 0.950 . S
H648 C659 0.950 . S
H649 C661 0.950 . S
H650 C662 0.950 . S
C651 H643 0.950 . S
C651 C652 1.386 . S
C651 C653 1.391 . S
C652 C651 1.386 . S
C652 C656 1.393 . S
C653 H645 0.950 . S
C653 C651 1.391 . S
C653 C654 1.400 . S
C654 C653 1.400 . S
C654 C655 1.398 . S
C654 C660 1.491 . S
C655 H646 0.950 1_554 S
C655 C654 1.398 . S
C655 C656 1.391 . S
C656 H644 0.950 1_554 S
C656 C652 1.393 . S
C656 C655 1.391 . S
C657 H647 0.950 . S
C657 C658 1.386 1_556 S
C657 C659 1.391 . S
C658 C657 1.386 1_554 S
C658 C662 1.393 . S
C659 H648 0.950 . S
C659 C657 1.391 . S
C659 C660 1.400 1_556 S
C660 C654 1.491 . S
C660 C659 1.400 1_554 S
C660 C661 1.398 . S
C661 H649 0.950 . S
C661 C660 1.398 . S
C661 C662 1.391 . S
C662 H650 0.950 . S
C662 C658 1.393 . S
C662 C661 1.391 . S
H663 C671 0.950 . S
H664 C676 0.950 . S
H665 C673 0.950 . S
H666 C675 0.950 . S
H667 C677 0.950 . S
H668 C679 0.950 . S
H669 C681 0.950 . S
H670 C682 0.950 . S
C671 H663 0.950 . S
C671 C672 1.386 . S
C671 C673 1.391 . S
C672 C671 1.386 . S
C672 C676 1.393 . S
C673 H665 0.950 . S
C673 C671 1.391 . S
C673 C674 1.400 . S
C674 C673 1.400 . S
C674 C675 1.398 . S
C674 C680 1.491 1_655 S
C675 H666 0.950 . S
C675 C674 1.398 . S
C675 C676 1.391 . S
C676 H664 0.950 . S
C676 C672 1.393 . S
C676 C675 1.391 . S
C677 H667 0.950 . S
C677 C678 1.386 . S
C677 C679 1.391 . S
C678 C677 1.386 . S
C678 C682 1.393 . S
C679 H668 0.950 . S
C679 C677 1.391 . S
C679 C680 1.400 . S
C680 C674 1.491 1_455 S
C680 C679 1.400 . S
C680 C681 1.398 . S
C681 H669 0.950 . S
C681 C680 1.398 . S
C681 C682 1.391 . S
C682 H670 0.950 . S
C682 C678 1.393 . S
C682 C681 1.391 . S
H683 C691 0.950 . S
H684 C696 0.950 . S
H685 C693 0.950 . S
H686 C695 0.950 . S
H687 C697 0.950 . S
H688 C699 0.950 . S
H689 C701 0.950 . S
H690 C702 0.950 . S
C691 H683 0.950 . S
C691 C692 1.386 . S
C691 C693 1.391 . S
C692 C691 1.386 . S
C692 C696 1.393 . S
C693 H685 0.950 . S
C693 C691 1.391 . S
C693 C694 1.400 . S
C694 C693 1.400 . S
C694 C695 1.398 . S
C694 C700 1.491 . S
C695 H686 0.950 . S
C695 C694 1.398 . S
C695 C696 1.391 . S
C696 H684 0.950 . S
C696 C692 1.393 . S
C696 C695 1.391 . S
C697 H687 0.950 . S
C697 C698 1.386 . S
C697 C699 1.391 . S
C698 C697 1.386 . S
C698 C702 1.393 . S
C699 H688 0.950 . S
C699 C697 1.391 . S
C699 C700 1.400 . S
C700 C694 1.491 . S
C700 C699 1.400 . S
C700 C701 1.398 . S
C701 H689 0.950 . S
C701 C700 1.398 . S
C701 C702 1.391 . S
C702 H690 0.950 . S
C702 C698 1.393 . S
C702 C701 1.391 . S
H703 C711 0.950 . S
H704 C716 0.950 . S
H705 C713 0.950 . S
H706 C715 0.950 . S
H707 C717 0.950 . S
H708 C719 0.950 . S
H709 C721 0.950 . S
H710 C722 0.950 . S
C711 H703 0.950 . S
C711 C712 1.386 . S
C711 C713 1.391 . S
C712 C711 1.386 . S
C712 C716 1.393 . S
C713 H705 0.950 . S
C713 C711 1.391 . S
C713 C714 1.400 . S
C714 C713 1.400 . S
C714 C715 1.398 . S
C714 C720 1.491 1_545 S
C715 H706 0.950 . S
C715 C714 1.398 . S
C715 C716 1.391 . S
C716 H704 0.950 . S
C716 C712 1.393 . S
C716 C715 1.391 . S
C717 H707 0.950 . S
C717 C718 1.386 . S
C717 C719 1.391 . S
C718 C717 1.386 . S
C718 C722 1.393 . S
C719 H708 0.950 . S
C719 C717 1.391 . S
C719 C720 1.400 . S
C720 C714 1.491 1_565 S
C720 C719 1.400 . S
C720 C721 1.398 . S
C721 H709 0.950 . S
C721 C720 1.398 . S
C721 C722 1.391 . S
C722 H710 0.950 . S
C722 C718 1.393 . S
C722 C721 1.391 . S
H723 C731 0.950 . S
H724 C736 0.950 . S
H725 C733 0.950 . S
H726 C735 0.950 . S
H727 C737 0.950 . S
H728 C739 0.950 . S
H729 C741 0.950 . S
H730 C742 0.950 . S
C731 H723 0.950 . S
C731 C732 1.386 . S
C731 C733 1.391 . S
C732 C731 1.386 . S
C732 C736 1.393 . S
C733 H725 0.950 . S
C733 C731 1.391 . S
C733 C734 1.400 . S
C734 C733 1.400 . S
C734 C735 1.398 . S
C734 C740 1.491 . S
C735 H726 0.950 . S
C735 C734 1.398 . S
C735 C736 1.391 . S
C736 H724 0.950 . S
C736 C732 1.393 . S
C736 C735 1.391 . S
C737 H727 0.950 . S
C737 C738 1.386 . S
C737 C739 1.391 . S
C738 C737 1.386 . S
C738 C742 1.393 . S
C739 H728 0.950 . S
C739 C737 1.391 . S
C739 C740 1.400 . S
C740 C734 1.491 . S
C740 C739 1.400 . S
C740 C741 1.398 . S
C741 H729 0.950 . S
C741 C740 1.398 . S
C741 C742 1.391 . S
C742 H730 0.950 . S
C742 C738 1.393 . S
C742 C741 1.391 . S
H743 C751 0.950 . S
H744 C756 0.950 . S
H745 C753 0.950 . S
H746 C755 0.950 . S
H747 C757 0.950 . S
H748 C759 0.950 . S
H749 C761 0.950 . S
H750 C762 0.950 . S
C751 H743 0.950 . S
C751 C752 1.386 . S
C751 C753 1.391 . S
C752 C751 1.386 . S
C752 C756 1.393 . S
C753 H745 0.950 . S
C753 C751 1.391 . S
C753 C754 1.400 . S
C754 C753 1.400 . S
C754 C755 1.398 . S
C754 C760 1.491 . S
C755 H746 0.950 . S
C755 C754 1.398 . S
C755 C756 1.391 . S
C756 H744 0.950 . S
C756 C752 1.393 . S
C756 C755 1.391 . S
C757 H747 0.950 . S
C757 C758 1.386 . S
C757 C759 1.391 . S
C758 C757 1.386 . S
C758 C762 1.393 . S
C759 H748 0.950 . S
C759 C757 1.391 . S
C759 C760 1.400 . S
C760 C754 1.491 . S
C760 C759 1.400 . S
C760 C761 1.398 . S
C761 H749 0.950 . S
C761 C760 1.398 . S
C761 C762 1.391 . S
C762 H750 0.950 . S
C762 C758 1.393 . S
C762 C761 1.391 . S
H763 C771 0.950 . S
H764 C776 0.950 . S
H765 C773 0.950 . S
H766 C775 0.950 . S
H767 C777 0.950 . S
H768 C779 0.950 . S
H769 C781 0.950 . S
H770 C782 0.950 . S
C771 H763 0.950 . S
C771 C772 1.386 . S
C771 C773 1.391 . S
C772 C771 1.386 . S
C772 C776 1.393 . S
C773 H765 0.950 . S
C773 C771 1.391 . S
C773 C774 1.400 . S
C774 C773 1.400 . S
C774 C775 1.398 . S
C774 C780 1.491 . S
C775 H766 0.950 . S
C775 C774 1.398 . S
C775 C776 1.391 . S
C776 H764 0.950 . S
C776 C772 1.393 . S
C776 C775 1.391 . S
C777 H767 0.950 . S
C777 C778 1.386 . S
C777 C779 1.391 . S
C778 C777 1.386 . S
C778 C782 1.393 . S
C779 H768 0.950 . S
C779 C777 1.391 . S
C779 C780 1.400 . S
C780 C774 1.491 . S
C780 C779 1.400 . S
C780 C781 1.398 . S
C781 H769 0.950 . S
C781 C780 1.398 . S
C781 C782 1.391 . S
C782 H770 0.950 . S
C782 C778 1.393 . S
C782 C781 1.391 . S
H783 C791 0.950 . S
H784 C796 0.950 . S
H785 C793 0.950 . S
H786 C795 0.950 . S
H787 C797 0.950 . S
H788 C799 0.950 . S
H789 C801 0.950 . S
H790 C802 0.950 . S
C791 H783 0.950 . S
C791 C792 1.386 . S
C791 C793 1.391 . S
C792 C791 1.386 . S
C792 C796 1.393 . S
C793 H785 0.950 . S
C793 C791 1.391 . S
C793 C794 1.400 . S
C794 C793 1.400 . S
C794 C795 1.398 . S
C794 C800 1.491 . S
C795 H786 0.950 . S
C795 C794 1.398 . S
C795 C796 1.391 . S
C796 H784 0.950 . S
C796 C792 1.393 . S
C796 C795 1.391 . S
C797 H787 0.950 . S
C797 C798 1.386 . S
C797 C799 1.391 . S
C798 C797 1.386 . S
C798 C802 1.393 . S
C799 H788 0.950 . S
C799 C797 1.391 . S
C799 C800 1.400 . S
C800 C794 1.491 . S
C800 C799 1.400 . S
C800 C801 1.398 . S
C801 H789 0.950 . S
C801 C800 1.398 . S
C801 C802 1.391 . S
C802 H790 0.950 . S
C802 C798 1.393 . S
C802 C801 1.391 . S
H803 C811 0.950 . S
H804 C816 0.950 . S
H805 C813 0.950 . S
H806 C815 0.950 . S
H807 C817 0.950 . S
H808 C819 0.950 . S
H809 C821 0.950 . S
H810 C822 0.950 . S
C811 H803 0.950 . S
C811 C812 1.386 . S
C811 C813 1.391 . S
C812 C811 1.386 . S
C812 C816 1.393 . S
C813 H805 0.950 . S
C813 C811 1.391 . S
C813 C814 1.400 . S
C814 C813 1.400 . S
C814 C815 1.398 . S
C814 C820 1.491 . S
C815 H806 0.950 . S
C815 C814 1.398 . S
C815 C816 1.391 . S
C816 H804 0.950 . S
C816 C812 1.393 . S
C816 C815 1.391 . S
C817 H807 0.950 . S
C817 C818 1.386 . S
C817 C819 1.391 . S
C818 C817 1.386 . S
C818 C822 1.393 . S
C819 H808 0.950 . S
C819 C817 1.391 . S
C819 C820 1.400 . S
C820 C814 1.491 . S
C820 C819 1.400 . S
C820 C821 1.398 . S
C821 H809 0.950 . S
C821 C820 1.398 . S
C821 C822 1.391 . S
C822 H810 0.950 . S
C822 C818 1.393 . S
C822 C821 1.391 . S
H823 C831 0.950 . S
H824 C836 0.950 . S
H825 C833 0.950 . S
H826 C835 0.950 . S
H827 C837 0.950 . S
H828 C839 0.950 . S
H829 C841 0.950 . S
H830 C842 0.950 . S
C831 H823 0.950 . S
C831 C832 1.386 . S
C831 C833 1.391 . S
C832 C831 1.386 . S
C832 C836 1.393 . S
C833 H825 0.950 . S
C833 C831 1.391 . S
C833 C834 1.400 . S
C834 C833 1.400 . S
C834 C835 1.398 . S
C834 C840 1.491 . S
C835 H826 0.950 . S
C835 C834 1.398 . S
C835 C836 1.391 . S
C836 H824 0.950 . S
C836 C832 1.393 . S
C836 C835 1.391 . S
C837 H827 0.950 . S
C837 C838 1.386 . S
C837 C839 1.391 . S
C838 C837 1.386 . S
C838 C842 1.393 . S
C839 H828 0.950 . S
C839 C837 1.391 . S
C839 C840 1.400 . S
C840 C834 1.491 . S
C840 C839 1.400 . S
C840 C841 1.398 . S
C841 H829 0.950 . S
C841 C840 1.398 . S
C841 C842 1.391 . S
C842 H830 0.950 . S
C842 C838 1.393 . S
C842 C841 1.391 . S
H843 C851 0.950 . S
H844 C856 0.950 . S
H845 C853 0.950 . S
H846 C855 0.950 . S
H847 C857 0.950 . S
H848 C859 0.950 . S
H849 C861 0.950 . S
H850 C862 0.950 . S
C851 H843 0.950 . S
C851 C852 1.386 . S
C851 C853 1.391 . S
C852 C851 1.386 . S
C852 C856 1.393 . S
C853 H845 0.950 . S
C853 C851 1.391 . S
C853 C854 1.400 . S
C854 C853 1.400 . S
C854 C855 1.398 . S
C854 C860 1.491 1_545 S
C855 H846 0.950 . S
C855 C854 1.398 . S
C855 C856 1.391 . S
C856 H844 0.950 . S
C856 C852 1.393 . S
C856 C855 1.391 . S
C857 H847 0.950 . S
C857 C858 1.386 . S
C857 C859 1.391 . S
C858 C857 1.386 . S
C858 C862 1.393 . S
C859 H848 0.950 . S
C859 C857 1.391 . S
C859 C860 1.400 . S
C860 C854 1.491 1_565 S
C860 C859 1.400 . S
C860 C861 1.398 . S
C861 H849 0.950 . S
C861 C860 1.398 . S
C861 C862 1.391 . S
C862 H850 0.950 . S
C862 C858 1.393 . S
C862 C861 1.391 . S
H863 C871 0.950 . S
H864 C876 0.950 . S
H865 C873 0.950 . S
H866 C875 0.950 . S
H867 C877 0.950 . S
H868 C879 0.950 . S
H869 C881 0.950 . S
H870 C882 0.950 . S
C871 H863 0.950 . S
C871 C872 1.386 . S
C871 C873 1.391 . S
C872 C871 1.386 . S
C872 C876 1.393 . S
C873 H865 0.950 . S
C873 C871 1.391 . S
C873 C874 1.400 . S
C874 C873 1.400 . S
C874 C875 1.398 . S
C874 C880 1.491 1_655 S
C875 H866 0.950 . S
C875 C874 1.398 . S
C875 C876 1.391 . S
C876 H864 0.950 . S
C876 C872 1.393 . S
C876 C875 1.391 . S
C877 H867 0.950 . S
C877 C878 1.386 . S
C877 C879 1.391 . S
C878 C877 1.386 . S
C878 C882 1.393 . S
C879 H868 0.950 . S
C879 C877 1.391 . S
C879 C880 1.400 . S
C880 C874 1.491 1_455 S
C880 C879 1.400 . S
C880 C881 1.398 . S
C881 H869 0.950 . S
C881 C880 1.398 . S
C881 C882 1.391 . S
C882 H870 0.950 . S
C882 C878 1.393 . S
C882 C881 1.391 . S
H883 C891 0.950 . S
H884 C896 0.950 . S
H885 C893 0.950 . S
H886 C895 0.950 . S
H887 C897 0.950 . S
H888 C899 0.950 . S
H889 C901 0.950 . S
H890 C902 0.950 . S
C891 H883 0.950 . S
C891 C892 1.386 . S
C891 C893 1.391 . S
C892 C891 1.386 . S
C892 C896 1.393 . S
C893 H885 0.950 . S
C893 C891 1.391 . S
C893 C894 1.400 . S
C894 C893 1.400 . S
C894 C895 1.398 . S
C894 C900 1.491 . S
C895 H886 0.950 . S
C895 C894 1.398 . S
C895 C896 1.391 . S
C896 H884 0.950 . S
C896 C892 1.393 . S
C896 C895 1.391 . S
C897 H887 0.950 . S
C897 C898 1.386 . S
C897 C899 1.391 . S
C898 C897 1.386 . S
C898 C902 1.393 . S
C899 H888 0.950 . S
C899 C897 1.391 . S
C899 C900 1.400 . S
C900 C894 1.491 . S
C900 C899 1.400 . S
C900 C901 1.398 . S
C901 H889 0.950 . S
C901 C900 1.398 . S
C901 C902 1.391 . S
C902 H890 0.950 . S
C902 C898 1.393 . S
C902 C901 1.391 . S
H903 C911 0.950 . S
H904 C916 0.950 . S
H905 C913 0.950 . S
H906 C915 0.950 . S
H907 C917 0.950 . S
H908 C919 0.950 . S
H909 C921 0.950 . S
H910 C922 0.950 . S
C911 H903 0.950 . S
C911 C912 1.386 . S
C911 C913 1.391 . S
C912 C911 1.386 . S
C912 C916 1.393 . S
C913 H905 0.950 . S
C913 C911 1.391 . S
C913 C914 1.400 . S
C914 C913 1.400 . S
C914 C915 1.398 . S
C914 C920 1.491 . S
C915 H906 0.950 . S
C915 C914 1.398 . S
C915 C916 1.391 . S
C916 H904 0.950 . S
C916 C912 1.393 . S
C916 C915 1.391 . S
C917 H907 0.950 . S
C917 C918 1.386 . S
C917 C919 1.391 . S
C918 C917 1.386 . S
C918 C922 1.393 . S
C919 H908 0.950 . S
C919 C917 1.391 . S
C919 C920 1.400 . S
C920 C914 1.491 . S
C920 C919 1.400 . S
C920 C921 1.398 . S
C921 H909 0.950 . S
C921 C920 1.398 . S
C921 C922 1.391 . S
C922 H910 0.950 . S
C922 C918 1.393 . S
C922 C921 1.391 . S
H923 C931 0.950 . S
H924 C936 0.950 . S
H925 C933 0.950 . S
H926 C935 0.950 . S
H927 C937 0.950 . S
H928 C939 0.950 . S
H929 C941 0.950 . S
H930 C942 0.950 . S
C931 H923 0.950 . S
C931 C932 1.386 . S
C931 C933 1.391 . S
C932 C931 1.386 . S
C932 C936 1.393 . S
C933 H925 0.950 . S
C933 C931 1.391 . S
C933 C934 1.400 . S
C934 C933 1.400 . S
C934 C935 1.398 . S
C934 C940 1.491 . S
C935 H926 0.950 . S
C935 C934 1.398 . S
C935 C936 1.391 . S
C936 H924 0.950 . S
C936 C932 1.393 . S
C936 C935 1.391 . S
C937 H927 0.950 . S
C937 C938 1.386 . S
C937 C939 1.391 . S
C938 C937 1.386 . S
C938 C942 1.393 . S
C939 H928 0.950 . S
C939 C937 1.391 . S
C939 C940 1.400 . S
C940 C934 1.491 . S
C940 C939 1.400 . S
C940 C941 1.398 . S
C941 H929 0.950 . S
C941 C940 1.398 . S
C941 C942 1.391 . S
C942 H930 0.950 . S
C942 C938 1.393 . S
C942 C941 1.391 . S
H943 C951 0.950 . S
H944 C956 0.950 . S
H945 C953 0.950 . S
H946 C955 0.950 . S
H947 C957 0.950 . S
H948 C959 0.950 . S
H949 C961 0.950 . S
H950 C962 0.950 . S
C951 H943 0.950 . S
C951 C952 1.386 . S
C951 C953 1.391 . S
C952 C951 1.386 . S
C952 C956 1.393 . S
C953 H945 0.950 . S
C953 C951 1.391 . S
C953 C954 1.400 . S
C954 C953 1.400 . S
C954 C955 1.398 . S
C954 C960 1.491 . S
C955 H946 0.950 . S
C955 C954 1.398 . S
C955 C956 1.391 . S
C956 H944 0.950 . S
C956 C952 1.393 . S
C956 C955 1.391 . S
C957 H947 0.950 . S
C957 C958 1.386 . S
C957 C959 1.391 . S
C958 C957 1.386 . S
C958 C962 1.393 . S
C959 H948 0.950 . S
C959 C957 1.391 . S
C959 C960 1.400 . S
C960 C954 1.491 . S
C960 C959 1.400 . S
C960 C961 1.398 . S
C961 H949 0.950 . S
C961 C960 1.398 . S
C961 C962 1.391 . S
C962 H950 0.950 . S
C962 C958 1.393 . S
C962 C961 1.391 . S
H963 C971 0.950 . S
H964 C976 0.950 . S
H965 C973 0.950 1_545 S
H966 C975 0.950 . S
H967 C977 0.950 . S
H968 C979 0.950 . S
H969 C981 0.950 . S
H970 C982 0.950 . S
C971 H963 0.950 . S
C971 C972 1.386 . S
C971 C973 1.391 . S
C972 C971 1.386 . S
C972 C976 1.393 . S
C973 H965 0.950 1_565 S
C973 C971 1.391 . S
C973 C974 1.400 1_565 S
C974 C973 1.400 1_545 S
C974 C975 1.398 1_545 S
C974 C980 1.491 . S
C975 H966 0.950 . S
C975 C974 1.398 1_565 S
C975 C976 1.391 . S
C976 H964 0.950 . S
C976 C972 1.393 . S
C976 C975 1.391 . S
C977 H967 0.950 . S
C977 C978 1.386 . S
C977 C979 1.391 . S
C978 C977 1.386 . S
C978 C982 1.393 . S
C979 H968 0.950 . S
C979 C977 1.391 . S
C979 C980 1.400 . S
C980 C974 1.491 . S
C980 C979 1.400 . S
C980 C981 1.398 . S
C981 H969 0.950 . S
C981 C980 1.398 . S
C981 C982 1.391 . S
C982 H970 0.950 . S
C982 C978 1.393 . S
C982 C981 1.391 . S
H983 C991 0.950 . S
H984 C996 0.950 . S
H985 C993 0.950 . S
H986 C995 0.950 1_655 S
H987 C997 0.950 . S
H988 C999 0.950 . S
H989 C1001 0.950 . S
H990 C1002 0.950 . S
C991 H983 0.950 . S
C991 C992 1.386 . S
C991 C993 1.391 . S
C992 C991 1.386 . S
C992 C996 1.393 . S
C993 H985 0.950 . S
C993 C991 1.391 . S
C993 C994 1.400 1_455 S
C994 C993 1.400 1_655 S
C994 C995 1.398 1_655 S
C994 C1000 1.491 . S
C995 H986 0.950 1_455 S
C995 C994 1.398 1_455 S
C995 C996 1.391 . S
C996 H984 0.950 . S
C996 C992 1.393 . S
C996 C995 1.391 . S
C997 H987 0.950 . S
C997 C998 1.386 . S
C997 C999 1.391 . S
C998 C997 1.386 . S
C998 C1002 1.393 . S
C999 H988 0.950 . S
C999 C997 1.391 . S
C999 C1000 1.400 . S
C1000 C994 1.491 . S
C1000 C999 1.400 . S
C1000 C1001 1.398 . S
C1001 H989 0.950 . S
C1001 C1000 1.398 . S
C1001 C1002 1.391 . S
C1002 H990 0.950 . S
C1002 C998 1.393 . S
C1002 C1001 1.391 . S
H1003 C1011 0.950 . S
H1004 C1016 0.950 . S
H1005 C1013 0.950 . S
H1006 C1015 0.950 . S
H1007 C1017 0.950 . S
H1008 C1019 0.950 . S
H1009 C1021 0.950 . S
H1010 C1022 0.950 . S
C1011 H1003 0.950 . S
C1011 C1012 1.386 . S
C1011 C1013 1.391 . S
C1012 C1011 1.386 . S
C1012 C1016 1.393 . S
C1013 H1005 0.950 . S
C1013 C1011 1.391 . S
C1013 C1014 1.400 . S
C1014 C1013 1.400 . S
C1014 C1015 1.398 . S
C1014 C1020 1.491 . S
C1015 H1006 0.950 . S
C1015 C1014 1.398 . S
C1015 C1016 1.391 . S
C1016 H1004 0.950 . S
C1016 C1012 1.393 . S
C1016 C1015 1.391 . S
C1017 H1007 0.950 . S
C1017 C1018 1.386 . S
C1017 C1019 1.391 . S
C1018 C1017 1.386 . S
C1018 C1022 1.393 . S
C1019 H1008 0.950 . S
C1019 C1017 1.391 . S
C1019 C1020 1.400 . S
C1020 C1014 1.491 . S
C1020 C1019 1.400 . S
C1020 C1021 1.398 . S
C1021 H1009 0.950 . S
C1021 C1020 1.398 . S
C1021 C1022 1.391 . S
C1022 H1010 0.950 . S
C1022 C1018 1.393 . S
C1022 C1021 1.391 . S
H1023 C1031 0.950 . S
H1024 C1036 0.950 . S
H1025 C1033 0.950 . S
H1026 C1035 0.950 . S
H1027 C1037 0.950 . S
H1028 C1039 0.950 1_455 S
H1029 C1041 0.950 . S
H1030 C1042 0.950 . S
C1031 H1023 0.950 . S
C1031 C1032 1.386 . S
C1031 C1033 1.391 . S
C1032 C1031 1.386 . S
C1032 C1036 1.393 . S
C1033 H1025 0.950 . S
C1033 C1031 1.391 . S
C1033 C1034 1.400 . S
C1034 C1033 1.400 . S
C1034 C1035 1.398 . S
C1034 C1040 1.491 . S
C1035 H1026 0.950 . S
C1035 C1034 1.398 . S
C1035 C1036 1.391 . S
C1036 H1024 0.950 . S
C1036 C1032 1.393 . S
C1036 C1035 1.391 . S
C1037 H1027 0.950 . S
C1037 C1038 1.386 . S
C1037 C1039 1.391 . S
C1038 C1037 1.386 . S
C1038 C1042 1.393 . S
C1039 H1028 0.950 1_655 S
C1039 C1037 1.391 . S
C1039 C1040 1.400 1_655 S
C1040 C1034 1.491 . S
C1040 C1039 1.400 1_455 S
C1040 C1041 1.398 1_455 S
C1041 H1029 0.950 . S
C1041 C1040 1.398 1_655 S
C1041 C1042 1.391 . S
C1042 H1030 0.950 . S
C1042 C1038 1.393 . S
C1042 C1041 1.391 . S
H1043 C1051 0.950 . S
H1044 C1056 0.950 . S
H1045 C1053 0.950 . S
H1046 C1055 0.950 . S
H1047 C1057 0.950 . S
H1048 C1059 0.950 . S
H1049 C1061 0.950 . S
H1050 C1062 0.950 . S
C1051 H1043 0.950 . S
C1051 C1052 1.386 . S
C1051 C1053 1.391 . S
C1052 C1051 1.386 . S
C1052 C1056 1.393 . S
C1053 H1045 0.950 . S
C1053 C1051 1.391 . S
C1053 C1054 1.400 . S
C1054 C1053 1.400 . S
C1054 C1055 1.398 . S
C1054 C1060 1.491 . S
C1055 H1046 0.950 . S
C1055 C1054 1.398 . S
C1055 C1056 1.391 . S
C1056 H1044 0.950 . S
C1056 C1052 1.393 . S
C1056 C1055 1.391 . S
C1057 H1047 0.950 . S
C1057 C1058 1.386 . S
C1057 C1059 1.391 . S
C1058 C1057 1.386 . S
C1058 C1062 1.393 . S
C1059 H1048 0.950 . S
C1059 C1057 1.391 . S
C1059 C1060 1.400 . S
C1060 C1054 1.491 . S
C1060 C1059 1.400 . S
C1060 C1061 1.398 . S
C1061 H1049 0.950 . S
C1061 C1060 1.398 . S
C1061 C1062 1.391 . S
C1062 H1050 0.950 . S
C1062 C1058 1.393 . S
C1062 C1061 1.391 . S
H1063 C1071 0.950 . S
H1064 C1076 0.950 . S
H1065 C1073 0.950 . S
H1066 C1075 0.950 . S
H1067 C1077 0.950 . S
H1068 C1079 0.950 . S
H1069 C1081 0.950 . S
H1070 C1082 0.950 . S
C1071 H1063 0.950 . S
C1071 C1072 1.386 . S
C1071 C1073 1.391 . S
C1072 C1071 1.386 . S
C1072 C1076 1.393 . S
C1073 H1065 0.950 . S
C1073 C1071 1.391 . S
C1073 C1074 1.400 . S
C1074 C1073 1.400 . S
C1074 C1075 1.398 . S
C1074 C1080 1.491 1_565 S
C1075 H1066 0.950 . S
C1075 C1074 1.398 . S
C1075 C1076 1.391 . S
C1076 H1064 0.950 . S
C1076 C1072 1.393 . S
C1076 C1075 1.391 . S
C1077 H1067 0.950 . S
C1077 C1078 1.386 . S
C1077 C1079 1.391 . S
C1078 C1077 1.386 . S
C1078 C1082 1.393 . S
C1079 H1068 0.950 . S
C1079 C1077 1.391 . S
C1079 C1080 1.400 . S
C1080 C1074 1.491 1_545 S
C1080 C1079 1.400 . S
C1080 C1081 1.398 . S
C1081 H1069 0.950 . S
C1081 C1080 1.398 . S
C1081 C1082 1.391 . S
C1082 H1070 0.950 . S
C1082 C1078 1.393 . S
C1082 C1081 1.391 . S
H1083 C1091 0.950 . S
H1084 C1096 0.950 . S
H1085 C1093 0.950 . S
H1086 C1095 0.950 . S
H1087 C1097 0.950 . S
H1088 C1099 0.950 . S
H1089 C1101 0.950 . S
H1090 C1102 0.950 . S
C1091 H1083 0.950 . S
C1091 C1092 1.386 . S
C1091 C1093 1.391 . S
C1092 C1091 1.386 . S
C1092 C1096 1.393 . S
C1093 H1085 0.950 . S
C1093 C1091 1.391 . S
C1093 C1094 1.400 . S
C1094 C1093 1.400 . S
C1094 C1095 1.398 . S
C1094 C1100 1.491 . S
C1095 H1086 0.950 . S
C1095 C1094 1.398 . S
C1095 C1096 1.391 . S
C1096 H1084 0.950 . S
C1096 C1092 1.393 . S
C1096 C1095 1.391 . S
C1097 H1087 0.950 . S
C1097 C1098 1.386 . S
C1097 C1099 1.391 . S
C1098 C1097 1.386 . S
C1098 C1102 1.393 . S
C1099 H1088 0.950 . S
C1099 C1097 1.391 . S
C1099 C1100 1.400 . S
C1100 C1094 1.491 . S
C1100 C1099 1.400 . S
C1100 C1101 1.398 . S
C1101 H1089 0.950 . S
C1101 C1100 1.398 . S
C1101 C1102 1.391 . S
C1102 H1090 0.950 . S
C1102 C1098 1.393 . S
C1102 C1101 1.391 . S
H1103 C1111 0.950 . S
H1104 C1116 0.950 . S
H1105 C1113 0.950 . S
H1106 C1115 0.950 . S
H1107 C1117 0.950 . S
H1108 C1119 0.950 . S
H1109 C1121 0.950 . S
H1110 C1122 0.950 . S
C1111 H1103 0.950 . S
C1111 C1112 1.386 . S
C1111 C1113 1.391 . S
C1112 C1111 1.386 . S
C1112 C1116 1.393 . S
C1113 H1105 0.950 . S
C1113 C1111 1.391 . S
C1113 C1114 1.400 . S
C1114 C1113 1.400 . S
C1114 C1115 1.398 . S
C1114 C1120 1.491 . S
C1115 H1106 0.950 . S
C1115 C1114 1.398 . S
C1115 C1116 1.391 . S
C1116 H1104 0.950 . S
C1116 C1112 1.393 . S
C1116 C1115 1.391 . S
C1117 H1107 0.950 . S
C1117 C1118 1.386 . S
C1117 C1119 1.391 . S
C1118 C1117 1.386 . S
C1118 C1122 1.393 . S
C1119 H1108 0.950 . S
C1119 C1117 1.391 . S
C1119 C1120 1.400 . S
C1120 C1114 1.491 . S
C1120 C1119 1.400 . S
C1120 C1121 1.398 . S
C1121 H1109 0.950 . S
C1121 C1120 1.398 . S
C1121 C1122 1.391 . S
C1122 H1110 0.950 . S
C1122 C1118 1.393 . S
C1122 C1121 1.391 . S
H1123 C1131 0.950 . S
H1124 C1136 0.950 . S
H1125 C1133 0.950 . S
H1126 C1135 0.950 . S
H1127 C1137 0.950 . S
H1128 C1139 0.950 . S
H1129 C1141 0.950 . S
H1130 C1142 0.950 . S
C1131 H1123 0.950 . S
C1131 C1132 1.386 . S
C1131 C1133 1.391 . S
C1132 C1131 1.386 . S
C1132 C1136 1.393 . S
C1133 H1125 0.950 . S
C1133 C1131 1.391 . S
C1133 C1134 1.400 . S
C1134 C1133 1.400 . S
C1134 C1135 1.398 . S
C1134 C1140 1.491 . S
C1135 H1126 0.950 . S
C1135 C1134 1.398 . S
C1135 C1136 1.391 . S
C1136 H1124 0.950 . S
C1136 C1132 1.393 . S
C1136 C1135 1.391 . S
C1137 H1127 0.950 . S
C1137 C1138 1.386 . S
C1137 C1139 1.391 . S
C1138 C1137 1.386 . S
C1138 C1142 1.393 . S
C1139 H1128 0.950 . S
C1139 C1137 1.391 . S
C1139 C1140 1.400 . S
C1140 C1134 1.491 . S
C1140 C1139 1.400 . S
C1140 C1141 1.398 . S
C1141 H1129 0.950 . S
C1141 C1140 1.398 . S
C1141 C1142 1.391 . S
C1142 H1130 0.950 . S
C1142 C1138 1.393 . S
C1142 C1141 1.391 . S
H1143 C1151 0.950 . S
H1144 C1156 0.950 . S
H1145 C1153 0.950 . S
H1146 C1155 0.950 . S
H1147 C1157 0.950 . S
H1148 C1159 0.950 . S
H1149 C1161 0.950 . S
H1150 C1162 0.950 . S
C1151 H1143 0.950 . S
C1151 C1152 1.386 . S
C1151 C1153 1.391 . S
C1152 C1151 1.386 . S
C1152 C1156 1.393 . S
C1153 H1145 0.950 . S
C1153 C1151 1.391 . S
C1153 C1154 1.400 . S
C1154 C1153 1.400 . S
C1154 C1155 1.398 . S
C1154 C1160 1.491 . S
C1155 H1146 0.950 . S
C1155 C1154 1.398 . S
C1155 C1156 1.391 . S
C1156 H1144 0.950 . S
C1156 C1152 1.393 . S
C1156 C1155 1.391 . S
C1157 H1147 0.950 . S
C1157 C1158 1.386 . S
C1157 C1159 1.391 . S
C1158 C1157 1.386 . S
C1158 C1162 1.393 . S
C1159 H1148 0.950 . S
C1159 C1157 1.391 . S
C1159 C1160 1.400 . S
C1160 C1154 1.491 . S
C1160 C1159 1.400 . S
C1160 C1161 1.398 . S
C1161 H1149 0.950 . S
C1161 C1160 1.398 . S
C1161 C1162 1.391 . S
C1162 H1150 0.950 . S
C1162 C1158 1.393 . S
C1162 C1161 1.391 . S
H1163 C1171 0.950 . S
H1164 C1176 0.950 . S
H1165 C1173 0.950 . S
H1166 C1175 0.950 . S
H1167 C1177 0.950 1_655 S
H1168 C1179 0.950 . S
H1169 C1181 0.950 . S
H1170 C1182 0.950 . S
C1171 H1163 0.950 . S
C1171 C1172 1.386 . S
C1171 C1173 1.391 . S
C1172 C1171 1.386 . S
C1172 C1176 1.393 . S
C1173 H1165 0.950 . S
C1173 C1171 1.391 . S
C1173 C1174 1.400 . S
C1174 C1173 1.400 . S
C1174 C1175 1.398 . S
C1174 C1180 1.491 . S
C1175 H1166 0.950 . S
C1175 C1174 1.398 . S
C1175 C1176 1.391 . S
C1176 H1164 0.950 . S
C1176 C1172 1.393 . S
C1176 C1175 1.391 . S
C1177 H1167 0.950 1_455 S
C1177 C1178 1.386 . S
C1177 C1179 1.391 . S
C1178 C1177 1.386 . S
C1178 C1182 1.393 . S
C1179 H1168 0.950 . S
C1179 C1177 1.391 . S
C1179 C1180 1.400 . S
C1180 C1174 1.491 . S
C1180 C1179 1.400 . S
C1180 C1181 1.398 . S
C1181 H1169 0.950 . S
C1181 C1180 1.398 . S
C1181 C1182 1.391 . S
C1182 H1170 0.950 . S
C1182 C1178 1.393 . S
C1182 C1181 1.391 . S
H1183 C1191 0.950 . S
H1184 C1196 0.950 . S
H1185 C1193 0.950 . S
H1186 C1195 0.950 . S
H1187 C1197 0.950 . S
H1188 C1199 0.950 . S
H1189 C1201 0.950 . S
H1190 C1202 0.950 . S
C1191 H1183 0.950 . S
C1191 C1192 1.386 . S
C1191 C1193 1.391 . S
C1192 C1191 1.386 . S
C1192 C1196 1.393 . S
C1193 H1185 0.950 . S
C1193 C1191 1.391 . S
C1193 C1194 1.400 . S
C1194 C1193 1.400 . S
C1194 C1195 1.398 . S
C1194 C1200 1.491 . S
C1195 H1186 0.950 . S
C1195 C1194 1.398 . S
C1195 C1196 1.391 . S
C1196 H1184 0.950 . S
C1196 C1192 1.393 . S
C1196 C1195 1.391 . S
C1197 H1187 0.950 . S
C1197 C1198 1.386 . S
C1197 C1199 1.391 . S
C1198 C1197 1.386 . S
C1198 C1202 1.393 . S
C1199 H1188 0.950 . S
C1199 C1197 1.391 . S
C1199 C1200 1.400 . S
C1200 C1194 1.491 . S
C1200 C1199 1.400 . S
C1200 C1201 1.398 . S
C1201 H1189 0.950 . S
C1201 C1200 1.398 . S
C1201 C1202 1.391 . S
C1202 H1190 0.950 . S
C1202 C1198 1.393 . S
C1202 C1201 1.391 . S
H1203 C1211 0.950 . S
H1204 C1216 0.950 . S
H1205 C1213 0.950 . S
H1206 C1215 0.950 . S
H1207 C1217 0.950 . S
H1208 C1219 0.950 1_455 S
H1209 C1221 0.950 . S
H1210 C1222 0.950 . S
C1211 H1203 0.950 . S
C1211 C1212 1.386 . S
C1211 C1213 1.391 . S
C1212 C1211 1.386 . S
C1212 C1216 1.393 . S
C1213 H1205 0.950 . S
C1213 C1211 1.391 . S
C1213 C1214 1.400 . S
C1214 C1213 1.400 . S
C1214 C1215 1.398 . S
C1214 C1220 1.491 . S
C1215 H1206 0.950 . S
C1215 C1214 1.398 . S
C1215 C1216 1.391 . S
C1216 H1204 0.950 . S
C1216 C1212 1.393 . S
C1216 C1215 1.391 . S
C1217 H1207 0.950 . S
C1217 C1218 1.386 1_455 S
C1217 C1219 1.391 1_455 S
C1218 C1217 1.386 1_655 S
C1218 C1222 1.393 . S
C1219 H1208 0.950 1_655 S
C1219 C1217 1.391 1_655 S
C1219 C1220 1.400 . S
C1220 C1214 1.491 . S
C1220 C1219 1.400 . S
C1220 C1221 1.398 . S
C1221 H1209 0.950 . S
C1221 C1220 1.398 . S
C1221 C1222 1.391 . S
C1222 H1210 0.950 . S
C1222 C1218 1.393 . S
C1222 C1221 1.391 . S
H1223 C1231 0.950 . S
H1224 C1236 0.950 . S
H1225 C1233 0.950 . S
H1226 C1235 0.950 . S
H1227 C1237 0.950 . S
H1228 C1239 0.950 . S
H1229 C1241 0.950 . S
H1230 C1242 0.950 . S
C1231 H1223 0.950 . S
C1231 C1232 1.386 . S
C1231 C1233 1.391 . S
C1232 C1231 1.386 . S
C1232 C1236 1.393 . S
C1233 H1225 0.950 . S
C1233 C1231 1.391 . S
C1233 C1234 1.400 . S
C1234 C1233 1.400 . S
C1234 C1235 1.398 . S
C1234 C1240 1.491 . S
C1235 H1226 0.950 . S
C1235 C1234 1.398 . S
C1235 C1236 1.391 . S
C1236 H1224 0.950 . S
C1236 C1232 1.393 . S
C1236 C1235 1.391 . S
C1237 H1227 0.950 . S
C1237 C1238 1.386 . S
C1237 C1239 1.391 . S
C1238 C1237 1.386 . S
C1238 C1242 1.393 . S
C1239 H1228 0.950 . S
C1239 C1237 1.391 . S
C1239 C1240 1.400 . S
C1240 C1234 1.491 . S
C1240 C1239 1.400 . S
C1240 C1241 1.398 . S
C1241 H1229 0.950 . S
C1241 C1240 1.398 . S
C1241 C1242 1.391 . S
C1242 H1230 0.950 . S
C1242 C1238 1.393 . S
C1242 C1241 1.391 . S
H1243 C1251 0.950 . S
H1244 C1256 0.950 . S
H1245 C1253 0.950 . S
H1246 C1255 0.950 . S
H1247 C1257 0.950 . S
H1248 C1259 0.950 . S
H1249 C1261 0.950 . S
H1250 C1262 0.950 . S
C1251 H1243 0.950 . S
C1251 C1252 1.386 . S
C1251 C1253 1.391 . S
C1252 C1251 1.386 . S
C1252 C1256 1.393 . S
C1253 H1245 0.950 . S
C1253 C1251 1.391 . S
C1253 C1254 1.400 . S
C1254 C1253 1.400 . S
C1254 C1255 1.398 . S
C1254 C1260 1.491 . S
C1255 H1246 0.950 . S
C1255 C1254 1.398 . S
C1255 C1256 1.391 . S
C1256 H1244 0.950 . S
C1256 C1252 1.393 . S
C1256 C1255 1.391 . S
C1257 H1247 0.950 . S
C1257 C1258 1.386 . S
C1257 C1259 1.391 . S
C1258 C1257 1.386 . S
C1258 C1262 1.393 . S
C1259 H1248 0.950 . S
C1259 C1257 1.391 . S
C1259 C1260 1.400 . S
C1260 C1254 1.491 . S
C1260 C1259 1.400 . S
C1260 C1261 1.398 . S
C1261 H1249 0.950 . S
C1261 C1260 1.398 . S
C1261 C1262 1.391 . S
C1262 H1250 0.950 . S
C1262 C1258 1.393 . S
C1262 C1261 1.391 . S
H1263 C1271 0.950 . S
H1264 C1276 0.950 . S
H1265 C1273 0.950 . S
H1266 C1275 0.950 . S
H1267 C1277 0.950 . S
H1268 C1279 0.950 . S
H1269 C1281 0.950 . S
H1270 C1282 0.950 . S
C1271 H1263 0.950 . S
C1271 C1272 1.386 . S
C1271 C1273 1.391 . S
C1272 C1271 1.386 . S
C1272 C1276 1.393 . S
C1273 H1265 0.950 . S
C1273 C1271 1.391 . S
C1273 C1274 1.400 . S
C1274 C1273 1.400 . S
C1274 C1275 1.398 . S
C1274 C1280 1.491 . S
C1275 H1266 0.950 . S
C1275 C1274 1.398 . S
C1275 C1276 1.391 . S
C1276 H1264 0.950 . S
C1276 C1272 1.393 . S
C1276 C1275 1.391 . S
C1277 H1267 0.950 . S
C1277 C1278 1.386 . S
C1277 C1279 1.391 . S
C1278 C1277 1.386 . S
C1278 C1282 1.393 . S
C1279 H1268 0.950 . S
C1279 C1277 1.391 . S
C1279 C1280 1.400 . S
C1280 C1274 1.491 . S
C1280 C1279 1.400 . S
C1280 C1281 1.398 . S
C1281 H1269 0.950 . S
C1281 C1280 1.398 . S
C1281 C1282 1.391 . S
C1282 H1270 0.950 . S
C1282 C1278 1.393 . S
C1282 C1281 1.391 . S
H1283 C1291 0.950 . S
H1284 C1296 0.950 . S
H1285 C1293 0.950 . S
H1286 C1295 0.950 . S
H1287 C1297 0.950 . S
H1288 C1299 0.950 . S
H1289 C1301 0.950 . S
H1290 C1302 0.950 . S
C1291 H1283 0.950 . S
C1291 C1292 1.386 . S
C1291 C1293 1.391 . S
C1292 C1291 1.386 . S
C1292 C1296 1.393 . S
C1293 H1285 0.950 . S
C1293 C1291 1.391 . S
C1293 C1294 1.400 . S
C1294 C1293 1.400 . S
C1294 C1295 1.398 . S
C1294 C1300 1.491 . S
C1295 H1286 0.950 . S
C1295 C1294 1.398 . S
C1295 C1296 1.391 . S
C1296 H1284 0.950 . S
C1296 C1292 1.393 . S
C1296 C1295 1.391 . S
C1297 H1287 0.950 . S
C1297 C1298 1.386 . S
C1297 C1299 1.391 . S
C1298 C1297 1.386 . S
C1298 C1302 1.393 . S
C1299 H1288 0.950 . S
C1299 C1297 1.391 . S
C1299 C1300 1.400 . S
C1300 C1294 1.491 . S
C1300 C1299 1.400 . S
C1300 C1301 1.398 . S
C1301 H1289 0.950 . S
C1301 C1300 1.398 . S
C1301 C1302 1.391 . S
C1302 H1290 0.950 . S
C1302 C1298 1.393 . S
C1302 C1301 1.391 . S
H1303 C1311 0.950 . S
H1304 C1316 0.950 . S
H1305 C1313 0.950 . S
H1306 C1315 0.950 . S
H1307 C1317 0.950 . S
H1308 C1319 0.950 . S
H1309 C1321 0.950 . S
H1310 C1322 0.950 . S
C1311 H1303 0.950 . S
C1311 C1312 1.386 . S
C1311 C1313 1.391 . S
C1312 C1311 1.386 . S
C1312 C1316 1.393 . S
C1313 H1305 0.950 . S
C1313 C1311 1.391 . S
C1313 C1314 1.400 . S
C1314 C1313 1.400 . S
C1314 C1315 1.398 . S
C1314 C1320 1.491 . S
C1315 H1306 0.950 . S
C1315 C1314 1.398 . S
C1315 C1316 1.391 . S
C1316 H1304 0.950 . S
C1316 C1312 1.393 . S
C1316 C1315 1.391 . S
C1317 H1307 0.950 . S
C1317 C1318 1.386 . S
C1317 C1319 1.391 . S
C1318 C1317 1.386 . S
C1318 C1322 1.393 . S
C1319 H1308 0.950 . S
C1319 C1317 1.391 . S
C1319 C1320 1.400 . S
C1320 C1314 1.491 . S
C1320 C1319 1.400 . S
C1320 C1321 1.398 . S
C1321 H1309 0.950 . S
C1321 C1320 1.398 . S
C1321 C1322 1.391 . S
C1322 H1310 0.950 . S
C1322 C1318 1.393 . S
C1322 C1321 1.391 . S
H1323 C1331 0.950 . S
H1324 C1336 0.950 . S
H1325 C1333 0.950 . S
H1326 C1335 0.950 . S
H1327 C1337 0.950 . S
H1328 C1339 0.950 . S
H1329 C1341 0.950 . S
H1330 C1342 0.950 . S
C1331 H1323 0.950 . S
C1331 C1332 1.386 . S
C1331 C1333 1.391 . S
C1332 C1331 1.386 . S
C1332 C1336 1.393 . S
C1333 H1325 0.950 . S
C1333 C1331 1.391 . S
C1333 C1334 1.400 . S
C1334 C1333 1.400 . S
C1334 C1335 1.398 . S
C1334 C1340 1.491 . S
C1335 H1326 0.950 . S
C1335 C1334 1.398 . S
C1335 C1336 1.391 . S
C1336 H1324 0.950 . S
C1336 C1332 1.393 . S
C1336 C1335 1.391 . S
C1337 H1327 0.950 . S
C1337 C1338 1.386 . S
C1337 C1339 1.391 . S
C1338 C1337 1.386 . S
C1338 C1342 1.393 . S
C1339 H1328 0.950 . S
C1339 C1337 1.391 . S
C1339 C1340 1.400 . S
C1340 C1334 1.491 . S
C1340 C1339 1.400 . S
C1340 C1341 1.398 . S
C1341 H1329 0.950 . S
C1341 C1340 1.398 . S
C1341 C1342 1.391 . S
C1342 H1330 0.950 . S
C1342 C1338 1.393 . S
C1342 C1341 1.391 . S
H1343 C1351 0.950 . S
H1344 C1356 0.950 . S
H1345 C1353 0.950 . S
H1346 C1355 0.950 . S
H1347 C1357 0.950 . S
H1348 C1359 0.950 . S
H1349 C1361 0.950 . S
H1350 C1362 0.950 . S
C1351 H1343 0.950 . S
C1351 C1352 1.386 . S
C1351 C1353 1.391 . S
C1352 C1351 1.386 . S
C1352 C1356 1.393 . S
C1353 H1345 0.950 . S
C1353 C1351 1.391 . S
C1353 C1354 1.400 . S
C1354 C1353 1.400 . S
C1354 C1355 1.398 . S
C1354 C1360 1.491 . S
C1355 H1346 0.950 . S
C1355 C1354 1.398 . S
C1355 C1356 1.391 . S
C1356 H1344 0.950 . S
C1356 C1352 1.393 . S
C1356 C1355 1.391 . S
C1357 H1347 0.950 . S
C1357 C1358 1.386 . S
C1357 C1359 1.391 . S
C1358 C1357 1.386 . S
C1358 C1362 1.393 . S
C1359 H1348 0.950 . S
C1359 C1357 1.391 . S
C1359 C1360 1.400 . S
C1360 C1354 1.491 . S
C1360 C1359 1.400 . S
C1360 C1361 1.398 . S
C1361 H1349 0.950 . S
C1361 C1360 1.398 . S
C1361 C1362 1.391 . S
C1362 H1350 0.950 . S
C1362 C1358 1.393 . S
C1362 C1361 1.391 . S
H1363 C1371 0.950 . S
H1364 C1376 0.950 . S
H1365 C1373 0.950 . S
H1366 C1375 0.950 . S
H1367 C1377 0.950 . S
H1368 C1379 0.950 . S
H1369 C1381 0.950 . S
H1370 C1382 0.950 . S
C1371 H1363 0.950 . S
C1371 C1372 1.386 . S
C1371 C1373 1.391 . S
C1372 C1371 1.386 . S
C1372 C1376 1.393 . S
C1373 H1365 0.950 . S
C1373 C1371 1.391 . S
C1373 C1374 1.400 . S
C1374 C1373 1.400 . S
C1374 C1375 1.398 . S
C1374 C1380 1.491 . S
C1375 H1366 0.950 . S
C1375 C1374 1.398 . S
C1375 C1376 1.391 . S
C1376 H1364 0.950 . S
C1376 C1372 1.393 . S
C1376 C1375 1.391 . S
C1377 H1367 0.950 . S
C1377 C1378 1.386 . S
C1377 C1379 1.391 . S
C1378 C1377 1.386 . S
C1378 C1382 1.393 . S
C1379 H1368 0.950 . S
C1379 C1377 1.391 . S
C1379 C1380 1.400 . S
C1380 C1374 1.491 . S
C1380 C1379 1.400 . S
C1380 C1381 1.398 . S
C1381 H1369 0.950 . S
C1381 C1380 1.398 . S
C1381 C1382 1.391 . S
C1382 H1370 0.950 . S
C1382 C1378 1.393 . S
C1382 C1381 1.391 . S
H1383 C1391 0.950 . S
H1384 C1396 0.950 . S
H1385 C1393 0.950 . S
H1386 C1395 0.950 . S
H1387 C1397 0.950 . S
H1388 C1399 0.950 . S
H1389 C1401 0.950 . S
H1390 C1402 0.950 . S
C1391 H1383 0.950 . S
C1391 C1392 1.386 . S
C1391 C1393 1.391 . S
C1392 C1391 1.386 . S
C1392 C1396 1.393 . S
C1393 H1385 0.950 . S
C1393 C1391 1.391 . S
C1393 C1394 1.400 . S
C1394 C1393 1.400 . S
C1394 C1395 1.398 . S
C1394 C1400 1.491 . S
C1395 H1386 0.950 . S
C1395 C1394 1.398 . S
C1395 C1396 1.391 . S
C1396 H1384 0.950 . S
C1396 C1392 1.393 . S
C1396 C1395 1.391 . S
C1397 H1387 0.950 . S
C1397 C1398 1.386 . S
C1397 C1399 1.391 . S
C1398 C1397 1.386 . S
C1398 C1402 1.393 . S
C1399 H1388 0.950 . S
C1399 C1397 1.391 . S
C1399 C1400 1.400 . S
C1400 C1394 1.491 . S
C1400 C1399 1.400 . S
C1400 C1401 1.398 . S
C1401 H1389 0.950 . S
C1401 C1400 1.398 . S
C1401 C1402 1.391 . S
C1402 H1390 0.950 . S
C1402 C1398 1.393 . S
C1402 C1401 1.391 . S
H1403 C1411 0.950 . S
H1404 C1416 0.950 . S
H1405 C1413 0.950 . S
H1406 C1415 0.950 . S
H1407 C1417 0.950 . S
H1408 C1419 0.950 . S
H1409 C1421 0.950 . S
H1410 C1422 0.950 . S
C1411 H1403 0.950 . S
C1411 C1412 1.386 . S
C1411 C1413 1.391 . S
C1412 C1411 1.386 . S
C1412 C1416 1.393 . S
C1413 H1405 0.950 . S
C1413 C1411 1.391 . S
C1413 C1414 1.400 . S
C1414 C1413 1.400 . S
C1414 C1415 1.398 . S
C1414 C1420 1.491 . S
C1415 H1406 0.950 . S
C1415 C1414 1.398 . S
C1415 C1416 1.391 . S
C1416 H1404 0.950 . S
C1416 C1412 1.393 . S
C1416 C1415 1.391 . S
C1417 H1407 0.950 . S
C1417 C1418 1.386 . S
C1417 C1419 1.391 . S
C1418 C1417 1.386 . S
C1418 C1422 1.393 . S
C1419 H1408 0.950 . S
C1419 C1417 1.391 . S
C1419 C1420 1.400 . S
C1420 C1414 1.491 . S
C1420 C1419 1.400 . S
C1420 C1421 1.398 . S
C1421 H1409 0.950 . S
C1421 C1420 1.398 . S
C1421 C1422 1.391 . S
C1422 H1410 0.950 . S
C1422 C1418 1.393 . S
C1422 C1421 1.391 . S
H1423 C1431 0.950 . S
H1424 C1436 0.950 . S
H1425 C1433 0.950 . S
H1426 C1435 0.950 . S
H1427 C1437 0.950 . S
H1428 C1439 0.950 . S
H1429 C1441 0.950 . S
H1430 C1442 0.950 . S
C1431 H1423 0.950 . S
C1431 C1432 1.386 . S
C1431 C1433 1.391 . S
C1432 C1431 1.386 . S
C1432 C1436 1.393 . S
C1433 H1425 0.950 . S
C1433 C1431 1.391 . S
C1433 C1434 1.400 . S
C1434 C1433 1.400 . S
C1434 C1435 1.398 . S
C1434 C1440 1.491 . S
C1435 H1426 0.950 . S
C1435 C1434 1.398 . S
C1435 C1436 1.391 . S
C1436 H1424 0.950 . S
C1436 C1432 1.393 . S
C1436 C1435 1.391 . S
C1437 H1427 0.950 . S
C1437 C1438 1.386 . S
C1437 C1439 1.391 . S
C1438 C1437 1.386 . S
C1438 C1442 1.393 . S
C1439 H1428 0.950 . S
C1439 C1437 1.391 . S
C1439 C1440 1.400 . S
C1440 C1434 1.491 . S
C1440 C1439 1.400 . S
C1440 C1441 1.398 . S
C1441 H1429 0.950 . S
C1441 C1440 1.398 . S
C1441 C1442 1.391 . S
C1442 H1430 0.950 . S
C1442 C1438 1.393 . S
C1442 C1441 1.391 . S
H1443 C1451 0.950 . S
H1444 C1456 0.950 . S
H1445 C1453 0.950 . S
H1446 C1455 0.950 . S
H1447 C1457 0.950 . S
H1448 C1459 0.950 . S
H1449 C1461 0.950 . S
H1450 C1462 0.950 . S
C1451 H1443 0.950 . S
C1451 C1452 1.386 . S
C1451 C1453 1.391 . S
C1452 C1451 1.386 . S
C1452 C1456 1.393 . S
C1453 H1445 0.950 . S
C1453 C1451 1.391 . S
C1453 C1454 1.400 . S
C1454 C1453 1.400 . S
C1454 C1455 1.398 . S
C1454 C1460 1.491 . S
C1455 H1446 0.950 . S
C1455 C1454 1.398 . S
C1455 C1456 1.391 . S
C1456 H1444 0.950 . S
C1456 C1452 1.393 . S
C1456 C1455 1.391 . S
C1457 H1447 0.950 . S
C1457 C1458 1.386 . S
C1457 C1459 1.391 . S
C1458 C1457 1.386 . S
C1458 C1462 1.393 . S
C1459 H1448 0.950 . S
C1459 C1457 1.391 . S
C1459 C1460 1.400 . S
C1460 C1454 1.491 . S
C1460 C1459 1.400 . S
C1460 C1461 1.398 . S
C1461 H1449 0.950 . S
C1461 C1460 1.398 . S
C1461 C1462 1.391 . S
C1462 H1450 0.950 . S
C1462 C1458 1.393 . S
C1462 C1461 1.391 . S
H1463 C1471 0.950 . S
H1464 C1476 0.950 . S
H1465 C1473 0.950 . S
H1466 C1475 0.950 . S
H1467 C1477 0.950 . S
H1468 C1479 0.950 . S
H1469 C1481 0.950 . S
H1470 C1482 0.950 . S
C1471 H1463 0.950 . S
C1471 C1472 1.386 . S
C1471 C1473 1.391 . S
C1472 C1471 1.386 . S
C1472 C1476 1.393 . S
C1473 H1465 0.950 . S
C1473 C1471 1.391 . S
C1473 C1474 1.400 . S
C1474 C1473 1.400 . S
C1474 C1475 1.398 . S
C1474 C1480 1.491 . S
C1475 H1466 0.950 . S
C1475 C1474 1.398 . S
C1475 C1476 1.391 . S
C1476 H1464 0.950 . S
C1476 C1472 1.393 . S
C1476 C1475 1.391 . S
C1477 H1467 0.950 . S
C1477 C1478 1.386 . S
C1477 C1479 1.391 . S
C1478 C1477 1.386 . S
C1478 C1482 1.393 . S
C1479 H1468 0.950 . S
C1479 C1477 1.391 . S
C1479 C1480 1.400 . S
C1480 C1474 1.491 . S
C1480 C1479 1.400 . S
C1480 C1481 1.398 . S
C1481 H1469 0.950 . S
C1481 C1480 1.398 . S
C1481 C1482 1.391 . S
C1482 H1470 0.950 . S
C1482 C1478 1.393 . S
C1482 C1481 1.391 . S
H1483 C1491 0.950 . S
H1484 C1496 0.950 . S
H1485 C1493 0.950 . S
H1486 C1495 0.950 . S
H1487 C1497 0.950 . S
H1488 C1499 0.950 . S
H1489 C1501 0.950 . S
H1490 C1502 0.950 . S
C1491 H1483 0.950 . S
C1491 C1492 1.386 . S
C1491 C1493 1.391 . S
C1492 C1491 1.386 . S
C1492 C1496 1.393 . S
C1493 H1485 0.950 . S
C1493 C1491 1.391 . S
C1493 C1494 1.400 . S
C1494 C1493 1.400 . S
C1494 C1495 1.398 . S
C1494 C1500 1.491 . S
C1495 H1486 0.950 . S
C1495 C1494 1.398 . S
C1495 C1496 1.391 . S
C1496 H1484 0.950 . S
C1496 C1492 1.393 . S
C1496 C1495 1.391 . S
C1497 H1487 0.950 . S
C1497 C1498 1.386 . S
C1497 C1499 1.391 . S
C1498 C1497 1.386 . S
C1498 C1502 1.393 . S
C1499 H1488 0.950 . S
C1499 C1497 1.391 . S
C1499 C1500 1.400 . S
C1500 C1494 1.491 . S
C1500 C1499 1.400 . S
C1500 C1501 1.398 . S
C1501 H1489 0.950 . S
C1501 C1500 1.398 . S
C1501 C1502 1.391 . S
C1502 H1490 0.950 . S
C1502 C1498 1.393 . S
C1502 C1501 1.391 . S
C432 N170 1.817 . S
C438 C251 1.736 . S
C452 N184 1.052 . S
C458 C272 0.990 . S
C472 N158 1.480 . S
C478 C294 1.273 . S
C492 N145 1.483 . S
C498 C273 1.298 . S
C518 C293 1.010 . S
C512 N119 1.044 . S
C532 N131 1.769 . S
C538 C252 1.526 . S
C558 C247 1.395 . S
C552 N144 1.476 1_554 S
C578 C268 1.231 . S
C572 N118 1.277 . S
C592 N132 1.468 . S
C598 C291 1.315 . S
C612 N171 1.445 . S
C618 C270 1.318 . S
C632 N183 1.258 . S
C638 C289 1.212 . S
C658 C249 1.300 . S
C652 N157 1.500 . S
C678 C314 1.723 . S
C672 N14 1.814 . S
C692 N28 1.044 . S
C698 C335 1.035 . S
C712 N2 1.484 . S
C718 C357 1.268 . S
C732 N223 1.476 . S
C738 C336 1.259 . S
C752 N197 1.055 . S
C758 C356 1.028 . S
C772 N209 1.754 . S
C778 C315 1.491 . S
C792 N222 1.476 . S
C798 C310 1.396 . S
C812 N196 1.278 . S
C818 C331 1.249 . S
C838 C354 1.289 . S
C832 N210 1.458 . S
C852 N15 1.440 . S
C858 C333 1.295 . S
C878 C352 1.201 . S
C872 N27 1.258 . S
C892 N1 1.500 . S
C898 C312 1.294 . S
C918 C377 1.734 . S
C912 N92 1.817 . S
C932 N106 1.037 . S
C938 C398 1.011 . S
C958 C420 1.307 . S
C952 N80 1.487 . S
C978 C399 1.281 . S
C972 N67 1.489 . S
C998 C419 1.006 . S
C992 N41 1.039 . S
C1012 N53 1.754 . S
C1018 C378 1.487 . S
C1032 N66 1.478 . S
C1038 C373 1.420 . S
C1052 N40 1.278 . S
C1058 C394 1.247 . S
C1078 C417 1.305 . S
C1072 N54 1.457 . S
C1092 N93 1.442 . S
C1098 C396 1.280 . S
C1112 N105 1.260 . S
C1118 C415 1.228 . S
C1132 N79 1.496 . S
C1138 C375 1.270 . S
C1152 N200 1.229 . S
C1158 C250 1.186 . S
C1178 C271 1.724 . S
C1172 N213 1.738 . S
C1192 N226 1.491 . S
C1198 C290 1.490 . S
C1212 N83 1.528 . S
C1218 C269 1.525 . S
C1232 N96 1.770 . S
C1238 C292 1.749 . S
C1258 C248 1.296 . S
C1252 N109 1.308 . S
C1272 N44 1.231 . S
C1278 C313 1.177 . S
C1292 N57 1.725 . S
C1298 C334 1.707 . S
C1312 N70 1.492 . S
C1318 C353 1.490 . S
C1332 N161 1.528 . S
C1338 C332 1.524 . S
C1358 C355 1.748 . S
C1352 N174 1.771 . S
C1372 N187 1.320 . S
C1378 C311 1.312 . S
C1392 N122 1.227 . S
C1398 C376 1.189 . S
C1412 N135 1.732 . S
C1418 C397 1.718 . S
C1438 C416 1.477 . S
C1432 N148 1.478 . S
C1452 N5 1.535 . S
C1458 C395 1.530 . S
C1472 N18 1.754 . S
C1478 C418 1.733 . S
C1492 N31 1.310 . S
C1498 C374 1.299 . S
