# Generated by pormake.
# Topology pts, (4,4)-cn, num edge types: 1
# Building blocks:
#     Node 0, Type 0, BuildingBlock: NAWXER_clean_linker_0, # of connection points: 4
#     Node 1, Type 0, BuildingBlock: NAWXER_clean_linker_0, # of connection points: 4
#     Node 2, Type 1, BuildingBlock: UXUYUI_clean_sbu_0, # of connection points: 4
#     Node 3, Type 1, BuildingBlock: UXUYUI_clean_sbu_0, # of connection points: 4
#     Edge 4, Type (0, 1), BuildingBlock: TEMPAE_clean_linker_10, # of connection points: 2
#     Edge 5, Type (0, 1), BuildingBlock: TEMPAE_clean_linker_10, # of connection points: 2
#     Edge 6, Type (0, 1), BuildingBlock: TEMPAE_clean_linker_10, # of connection points: 2
#     Edge 7, Type (0, 1), BuildingBlock: TEMPAE_clean_linker_10, # of connection points: 2
#     Edge 8, Type (0, 1), BuildingBlock: TEMPAE_clean_linker_10, # of connection points: 2
#     Edge 9, Type (0, 1), BuildingBlock: TEMPAE_clean_linker_10, # of connection points: 2
#     Edge 10, Type (0, 1), BuildingBlock: TEMPAE_clean_linker_10, # of connection points: 2
#     Edge 11, Type (0, 1), BuildingBlock: TEMPAE_clean_linker_10, # of connection points: 2
# Relax obj value: 0.000
# Max RMSD: 0.009
# Mean RMSD: 0.008
data_MOF--net-pts--node1-UXUYUI_clean_sbu_0--node2-NAWXER_clean_linker_0--edge1-TEMPAE_clean_linker_10
_symmetry_space_group_name_H-M    P1
_symmetry_Int_Tables_number       1
_symmetry_cell_setting            triclinic
loop_
_symmetry_equiv_pos_as_xyz
'x, y, z'
_cell_length_a     35.672477
_cell_length_b     35.665906
_cell_length_c     51.348321
_cell_angle_alpha  90.019431
_cell_angle_beta   90.020771
_cell_angle_gamma 89.961952
loop_
_atom_site_label
_atom_site_type_symbol
_atom_site_fract_x
_atom_site_fract_y
_atom_site_fract_z
_atom_type_partial_charge
C0 C 0.63267 0.03246 0.96276 0.0
C1 C 0.63522 0.00917 0.94081 0.0
C2 C 0.6004 0.03216 0.97821 0.0
C3 C 0.57074 0.00744 0.97255 0.0
C4 C 0.60518 0.98546 0.93458 0.0
C5 C 0.57331 0.98449 0.95036 0.0
C6 C 0.53609 0.00655 0.98856 0.0
C7 C 0.63033 0.97954 0.04392 0.0
C8 C 0.63352 0.00411 0.0652 0.0
C9 C 0.5986 0.98053 0.02793 0.0
C10 C 0.56998 0.00686 0.03251 0.0
C11 C 0.60449 0.02976 0.07014 0.0
C12 C 0.57304 0.0311 0.05395 0.0
C13 C 0.53577 0.00804 0.01613 0.0
C14 C 0.37739 0.97594 0.04574 0.0
C15 C 0.36967 0.0054 0.06324 0.0
C16 C 0.40927 0.97696 0.02991 0.0
C17 C 0.43422 0.00725 0.03144 0.0
C18 C 0.39474 0.03585 0.06442 0.0
C19 C 0.4269 0.03649 0.04893 0.0
C20 C 0.46883 0.00792 0.01571 0.0
C21 C 0.37275 0.02906 0.96086 0.0
C22 C 0.37078 0.00453 0.9395 0.0
C23 C 0.40452 0.02962 0.97681 0.0
C24 C 0.43452 0.00491 0.97212 0.0
C25 C 0.40102 0.98034 0.93451 0.0
C26 C 0.43254 0.98053 0.95067 0.0
C27 C 0.46903 0.00572 0.98826 0.0
H28 H 0.65535 0.0514 0.96764 0.0
H29 H 0.59861 0.05145 0.99444 0.0
H30 H 0.60659 0.96734 0.91766 0.0
H31 H 0.55069 0.96559 0.94529 0.0
H32 H 0.65204 0.95908 0.03996 0.0
H33 H 0.59633 0.96053 0.01214 0.0
H34 H 0.60631 0.04909 0.08637 0.0
H35 H 0.55116 0.05132 0.0581 0.0
H36 H 0.35924 0.95168 0.04459 0.0
H37 H 0.41482 0.95378 0.01682 0.0
H38 H 0.38948 0.05942 0.0772 0.0
H39 H 0.4459 0.06009 0.05038 0.0
H40 H 0.35009 0.04848 0.96483 0.0
H41 H 0.40584 0.04995 0.99243 0.0
H42 H 0.40016 0.96108 0.91821 0.0
H43 H 0.45543 0.9615 0.94642 0.0
N44 N 0.50267 0.00508 0.97583 0.0
N45 N 0.50212 0.00909 0.02852 0.0
C46 C 0.0228 0.62642 0.54809 0.0
C47 C 0.99381 0.63152 0.56633 0.0
C48 C 0.0233 0.5949 0.5319 0.0
C49 C 0.99466 0.568 0.53347 0.0
C50 C 0.96534 0.60435 0.56796 0.0
C51 C 0.96592 0.5728 0.55181 0.0
C52 C 0.99546 0.53388 0.51706 0.0
C53 C 0.97752 0.63059 0.46232 0.0
C54 C 0.00447 0.63438 0.44248 0.0
C55 C 0.97646 0.59839 0.4778 0.0
C56 C 0.0029 0.56961 0.47424 0.0
C57 C 0.03052 0.60524 0.43871 0.0
C58 C 0.0297 0.57324 0.45439 0.0
C59 C 0.0014 0.5346 0.4898 0.0
C60 C 0.97316 0.37639 0.45704 0.0
C61 C 0.00404 0.36944 0.44077 0.0
C62 C 0.97255 0.40799 0.47313 0.0
C63 C 0.00266 0.43333 0.47301 0.0
C64 C 0.0343 0.39464 0.44085 0.0
C65 C 0.03339 0.42659 0.45662 0.0
C66 C 0.00133 0.46771 0.48904 0.0
C67 C 0.02388 0.37439 0.54589 0.0
C68 C 0.99322 0.36661 0.56217 0.0
C69 C 0.02413 0.40666 0.53048 0.0
C70 C 0.99389 0.43185 0.53129 0.0
C71 C 0.9628 0.39164 0.56275 0.0
C72 C 0.96335 0.42426 0.54765 0.0
C73 C 0.99502 0.46703 0.51613 0.0
H74 H 0.04555 0.6464 0.54667 0.0
H75 H 0.04637 0.59129 0.51842 0.0
H76 H 0.9424 0.60758 0.58158 0.0
H77 H 0.94369 0.55225 0.55349 0.0
H78 H 0.95717 0.65252 0.46593 0.0
H79 H 0.95459 0.59584 0.4923 0.0
H80 H 0.05116 0.60677 0.42329 0.0
H81 H 0.05001 0.55119 0.45094 0.0
H82 H 0.94955 0.35731 0.45734 0.0
H83 H 0.94829 0.41299 0.48533 0.0
H84 H 0.05827 0.38999 0.42831 0.0
H85 H 0.05674 0.44599 0.45613 0.0
H86 H 0.04762 0.35547 0.54509 0.0
H87 H 0.04828 0.41233 0.51831 0.0
H88 H 0.939 0.38637 0.57533 0.0
H89 H 0.93991 0.44353 0.54868 0.0
N90 N 0.99222 0.5001 0.52912 0.0
N91 N 0.00436 0.50141 0.47691 0.0
Li92 Li 0.00425 0.03619 0.26896 0.0
Li93 Li 0.00228 0.96735 0.27033 0.0
Li94 Li 0.03722 0.00232 0.23505 0.0
Li95 Li 0.96832 1.0001 0.23472 0.0
C96 C 0.06881 0.01522 0.29233 0.0
N97 N 0.11204 0.0459 0.33155 0.0
C98 C 0.06871 0.99922 0.31717 0.0
C99 C 0.09126 0.04648 0.28732 0.0
C100 C 0.09068 0.01522 0.33677 0.0
C101 C 0.1128 0.06169 0.30744 0.0
C102 C 0.92827 0.99236 0.28595 0.0
C103 C 0.87241 0.95453 0.28877 0.0
N104 N 0.86426 0.97053 0.31215 0.0
C105 C 0.91913 0.00874 0.30986 0.0
C106 C 0.90457 0.96529 0.27519 0.0
C107 C 0.88673 0.99719 0.32286 0.0
C108 C 1.00095 0.11417 0.27978 0.0
N109 N 0.00391 0.07955 0.29063 0.0
C110 C 0.00688 0.10616 0.33329 0.0
C111 C 0.00629 0.07503 0.31685 0.0
C112 C 0.00398 0.14245 0.32275 0.0
C113 C 1.00075 0.14613 0.29554 0.0
H114 H 0.99844 0.11696 0.25889 0.0
H115 H 0.0078 0.04716 0.32502 0.0
C116 C 0.02301 0.89414 0.28521 0.0
N117 N 0.00278 0.92465 0.29258 0.0
C118 C 0.02442 0.8624 0.30113 0.0
C119 C 0.98441 0.89422 0.33202 0.0
C120 C 0.98403 0.92539 0.31561 0.0
C121 C 0.00484 0.86209 0.3249 0.0
H122 H 0.0382 0.89456 0.26698 0.0
H123 H 0.96899 0.95027 0.32141 0.0
C124 C 0.01495 0.06613 0.21097 0.0
N125 N 0.04357 0.10831 0.1705 0.0
C126 C 0.99773 0.06533 0.18653 0.0
C127 C 0.0464 0.08876 0.21495 0.0
C128 C 0.0127 0.08678 0.16629 0.0
C129 C 0.06055 0.10975 0.1942 0.0
C130 C 0.99389 0.92576 0.21948 0.0
C131 C 0.01 0.91673 0.19547 0.0
C132 C 0.96755 0.90159 0.23057 0.0
C133 C 0.99894 0.88393 0.18272 0.0
C134 C 0.95726 0.86904 0.21723 0.0
N135 N 0.973 0.86099 0.19377 0.0
C136 C 0.11474 0.99758 0.22357 0.0
C137 C 0.0752 0.00407 0.18672 0.0
C138 C 0.14647 0.99703 0.20762 0.0
N139 N 0.08004 0.00134 0.21292 0.0
C140 C 0.10615 0.00443 0.17011 0.0
C141 C 0.14229 1.00086 0.18058 0.0
H142 H 0.11777 0.99495 0.24443 0.0
H143 H 0.04726 0.0059 0.17869 0.0
C144 C 0.89488 0.02074 0.22039 0.0
N145 N 0.9249 0.9997 0.2131 0.0
C146 C 0.86262 0.02159 0.20496 0.0
C147 C 0.89281 0.97919 0.1748 0.0
C148 C 0.9246 0.97951 0.19064 0.0
C149 C 0.86131 1.00043 0.18191 0.0
H150 H 0.89606 0.03688 0.23821 0.0
H151 H 0.94914 0.964 0.18478 0.0
O152 O 0.0472 1.00016 0.27298 0.0
O153 O 0.95989 0.00343 0.273 0.0
O154 O 1.0009 0.04505 0.23094 0.0
O155 O 0.00447 0.95778 0.23218 0.0
H156 H 0.05164 0.97489 0.32133 0.0
H157 H 0.09194 0.05893 0.26814 0.0
H158 H 0.0907 0.00329 0.35613 0.0
H159 H 0.13013 0.08603 0.3039 0.0
H160 H 0.85385 0.93357 0.28068 0.0
H161 H 0.93698 0.02998 0.31836 0.0
H162 H 0.91066 0.95301 0.25644 0.0
H163 H 0.87945 0.00945 0.34145 0.0
H164 H 0.00994 0.10172 0.35404 0.0
H165 H 0.99759 0.17334 0.28647 0.0
H166 H 0.04112 0.83861 0.29503 0.0
H167 H 0.9686 0.89525 0.35 0.0
H168 H 0.97324 0.04811 0.18317 0.0
H169 H 0.05981 0.08997 0.23381 0.0
H170 H 0.99981 0.08626 0.14722 0.0
H171 H 0.08503 0.1272 0.19695 0.0
H172 H 0.03067 0.93495 0.1867 0.0
H173 H 0.95549 0.9076 0.24941 0.0
H174 H 0.01102 0.87671 0.16406 0.0
H175 H 0.93687 0.85011 0.22559 0.0
H176 H 0.174 0.99421 0.21632 0.0
H177 H 0.1019 0.00692 0.14929 0.0
H178 H 0.83882 0.03825 0.21111 0.0
H179 H 0.89311 0.96307 0.15692 0.0
Li180 Li 0.9679 0.00279 0.77028 0.0
Li181 Li 0.03695 1.00109 0.76836 0.0
Li182 Li 1.00017 0.03468 0.73495 0.0
Li183 Li 0.00141 0.96582 0.73704 0.0
C184 C 0.99161 0.06814 0.79188 0.0
N185 N 0.96531 0.11279 0.83186 0.0
C186 C 0.01016 0.06868 0.81586 0.0
C187 C 0.95993 0.09058 0.78813 0.0
C188 C 0.99637 0.0914 0.83585 0.0
C189 C 0.94699 0.11286 0.80863 0.0
C190 C 0.99732 0.92188 0.77781 0.0
C191 C 0.02136 0.85891 0.77402 0.0
N192 N 0.98686 0.84523 0.78007 0.0
C193 C 0.96215 0.90724 0.78411 0.0
C194 C 0.02725 0.89759 0.77286 0.0
C195 C 0.95742 0.86838 0.78513 0.0
C196 C 0.89082 0.99841 0.78242 0.0
N197 N 0.92546 0.00391 0.79279 0.0
C198 C 0.89938 0.01057 0.83542 0.0
C199 C 0.93033 0.00914 0.81882 0.0
C200 C 0.86335 0.00522 0.82519 0.0
C201 C 0.85916 0.99869 0.79842 0.0
H202 H 0.8878 0.99353 0.76175 0.0
H203 H 0.95824 0.01211 0.8267 0.0
C204 C 0.10537 0.03131 0.78762 0.0
N205 N 0.08089 0.00224 0.78945 0.0
C206 C 0.13747 0.03217 0.8032 0.0
C207 C 0.11771 0.97398 0.82299 0.0
C208 C 0.08631 0.97399 0.80678 0.0
C209 C 0.14401 0.00324 0.82128 0.0
H210 H 0.09997 0.05382 0.77404 0.0
H211 H 0.06598 0.95165 0.80825 0.0
C212 C 0.93486 0.01205 0.71345 0.0
N213 N 0.8909 0.03994 0.67362 0.0
C214 C 0.93514 0.99477 0.68902 0.0
C215 C 0.91197 0.04325 0.71772 0.0
C216 C 0.91275 0.00935 0.66911 0.0
C217 C 0.89004 0.05702 0.6973 0.0
C218 C 0.08084 0.00526 0.72688 0.0
C219 C 0.09487 0.03988 0.71868 0.0
C220 C 0.10565 0.97611 0.73278 0.0
C221 C 0.13362 0.04486 0.71673 0.0
C222 C 0.1442 0.98224 0.73063 0.0
N223 N 0.15726 0.01619 0.72273 0.0
C224 C 0.00197 0.11192 0.72266 0.0
C225 C 0.99598 0.07169 0.6862 0.0
C226 C 0.00125 0.14342 0.70653 0.0
N227 N 0.99899 0.07699 0.71233 0.0
C228 C 0.99444 0.10239 0.66937 0.0
C229 C 0.9971 0.13899 0.67944 0.0
H230 H 0.0053 0.11534 0.74345 0.0
H231 H 0.99469 0.04357 0.67842 0.0
C232 C 0.96836 0.90001 0.71617 0.0
N233 N 0.99976 0.92158 0.71629 0.0
C234 C 0.96668 0.86775 0.70078 0.0
C235 C 0.02941 0.88096 0.68555 0.0
C236 C 0.02992 0.91282 0.70133 0.0
C237 C 0.99749 0.85787 0.68512 0.0
H238 H 0.94458 0.90795 0.72802 0.0
H239 H 0.05426 0.93081 0.70141 0.0
O240 O 0.00453 0.04589 0.77213 0.0
O241 O 0.00234 0.9598 0.77622 0.0
O242 O 0.95682 0.9984 0.73311 0.0
O243 O 0.04303 0.99995 0.72915 0.0
H244 H 0.03475 0.05151 0.81907 0.0
H245 H 0.94541 0.09063 0.76965 0.0
H246 H 0.01031 0.09196 0.85456 0.0
H247 H 0.92237 0.1302 0.80606 0.0
H248 H 0.04419 0.83977 0.77006 0.0
H249 H 0.93869 0.92565 0.78797 0.0
H250 H 0.05462 0.90852 0.76788 0.0
H251 H 0.93032 0.85662 0.78987 0.0
H252 H 0.90355 0.01515 0.85608 0.0
H253 H 0.83168 0.9943 0.78997 0.0
H254 H 0.15703 0.05513 0.80094 0.0
H255 H 0.12095 0.95154 0.83701 0.0
H256 H 0.95271 0.97059 0.68539 0.0
H257 H 0.91128 0.05677 0.73657 0.0
H258 H 0.91282 0.9964 0.65006 0.0
H259 H 0.87234 0.08128 0.70029 0.0
H260 H 0.07608 0.06274 0.71402 0.0
H261 H 0.09524 0.9492 0.73926 0.0
H262 H 0.14489 0.07154 0.71051 0.0
H263 H 0.16372 0.96002 0.73532 0.0
H264 H 0.00443 0.17089 0.71522 0.0
H265 H 0.99085 0.09738 0.64873 0.0
H266 H 0.94163 0.85064 0.70126 0.0
H267 H 0.05351 0.8749 0.67344 0.0
C268 C 0.33761 0.01856 0.1059 0.0
C269 C 0.33597 0.00423 0.08043 0.0
C270 C 0.30605 0.01824 0.12219 0.0
C271 C 0.27215 0.00237 0.11309 0.0
C272 C 0.27033 0.98732 0.08762 0.0
C273 C 0.30209 0.9888 0.07151 0.0
C274 C 0.30896 0.03505 0.14912 0.0
C275 C 0.2348 0.96966 0.07737 0.0
C276 C 0.2016 0.97186 0.16431 0.0
C277 C 0.17544 1.00113 0.16329 0.0
C278 C 0.23291 0.97157 0.14775 0.0
C279 C 0.23854 0.00173 0.13024 0.0
C280 C 0.21231 0.03153 0.12935 0.0
C281 C 0.18081 0.03065 0.14571 0.0
C282 C 0.25982 0.93892 0.14889 0.0
C283 C 0.21777 0.06457 0.11137 0.0
H284 H 0.36373 0.02981 0.11329 0.0
H285 H 0.30019 0.97819 0.05178 0.0
H286 H 0.28751 0.05733 0.15158 0.0
H287 H 0.30329 0.01328 0.16402 0.0
H288 H 0.33704 0.04732 0.15296 0.0
H289 H 0.2384 0.95793 0.05748 0.0
H290 H 0.22562 0.94682 0.09058 0.0
H291 H 0.21198 0.99078 0.07685 0.0
H292 H 0.19718 0.94889 0.17779 0.0
H293 H 0.16065 0.0534 0.14511 0.0
H294 H 0.28814 0.94889 0.15449 0.0
H295 H 0.26231 0.92583 0.12935 0.0
H296 H 0.2508 0.91716 0.16303 0.0
H297 H 0.24492 0.07843 0.11567 0.0
H298 H 0.19498 0.08565 0.11325 0.0
H299 H 0.21887 0.05489 0.09085 0.0
C300 C 0.02403 0.32587 0.59543 0.0
C301 C 0.99345 0.33294 0.57902 0.0
C302 C 0.02448 0.29445 0.61186 0.0
C303 C 0.9939 0.26915 0.61147 0.0
C304 C 0.96311 0.27597 0.59469 0.0
C305 C 0.96309 0.30805 0.57884 0.0
C306 C 0.05748 0.28854 0.62983 0.0
C307 C 0.93035 0.24926 0.59336 0.0
C308 C 0.01211 0.17079 0.63693 0.0
C309 C 0.99588 0.17227 0.66184 0.0
C310 C 0.01107 0.20187 0.62018 0.0
C311 C 0.99414 0.2356 0.62869 0.0
C312 C 0.97792 0.23747 0.6538 0.0
C313 C 0.97861 0.20571 0.66994 0.0
C314 C 0.02825 0.19865 0.59339 0.0
C315 C 0.96005 0.27312 0.66372 0.0
H316 H 0.04734 0.34536 0.59573 0.0
H317 H 0.93957 0.31343 0.56599 0.0
H318 H 0.0477 0.28742 0.65033 0.0
H319 H 0.07115 0.26131 0.62551 0.0
H320 H 0.07873 0.31115 0.62804 0.0
H321 H 0.90897 0.25823 0.57891 0.0
H322 H 0.94035 0.22079 0.58807 0.0
H323 H 0.91677 0.24711 0.61273 0.0
H324 H 0.02615 0.14546 0.63056 0.0
H325 H 0.96532 0.2071 0.68888 0.0
H326 H 0.05191 0.21862 0.59151 0.0
H327 H 0.00725 0.20621 0.57833 0.0
H328 H 0.03878 0.16993 0.58928 0.0
H329 H 0.98076 0.29632 0.66329 0.0
H330 H 0.9493 0.27018 0.68391 0.0
H331 H 0.93645 0.28135 0.65085 0.0
C332 C 0.66259 0.00189 0.10951 0.0
C333 C 0.6669 0.00286 0.08238 0.0
C334 C 0.69391 1.001 0.12604 0.0
C335 C 0.73037 0.00163 0.11517 0.0
C336 C 0.73487 0.0027 0.08777 0.0
C337 C 0.70303 0.00302 0.07169 0.0
C338 C 0.68798 0.99928 0.15514 0.0
C339 C 0.77329 0.00389 0.07547 0.0
C340 C 0.81038 0.03474 0.15829 0.0
C341 C 0.82746 1.00074 0.16515 0.0
C342 C 0.77887 0.03546 0.14191 0.0
C343 C 0.76382 1.00132 0.13248 0.0
C344 C 0.78073 0.96688 0.13959 0.0
C345 C 0.81252 0.96703 0.1557 0.0
C346 C 0.76191 0.07276 0.13449 0.0
C347 C 0.76517 0.92988 0.13025 0.0
H348 H 0.63464 0.00137 0.11778 0.0
H349 H 0.70637 0.00412 0.05072 0.0
H350 H 0.7021 0.97414 0.16325 0.0
H351 H 0.70076 0.02417 0.16456 0.0
H352 H 0.65781 0.99823 0.16044 0.0
H353 H 0.77195 0.00491 0.05387 0.0
H354 H 0.7888 0.02888 0.08251 0.0
H355 H 0.78968 0.97882 0.08132 0.0
H356 H 0.82214 0.06086 0.16536 0.0
H357 H 0.82549 0.94069 0.1612 0.0
H358 H 0.73222 0.07397 0.14085 0.0
H359 H 0.76215 0.07599 0.113 0.0
H360 H 0.77719 0.09677 0.14328 0.0
H361 H 0.73549 0.92704 0.13641 0.0
H362 H 0.78125 0.90557 0.13789 0.0
H363 H 0.76563 0.92882 0.10866 0.0
C364 C 0.00346 0.7003 0.57435 0.0
C365 C 0.99357 0.66477 0.58385 0.0
C366 C 0.00382 0.73179 0.59076 0.0
C367 C 0.99387 0.72773 0.6173 0.0
C368 C 0.98361 0.69203 0.62699 0.0
C369 C 0.9837 0.66099 0.61018 0.0
C370 C 0.01497 0.7694 0.57972 0.0
C371 C 0.97279 0.68659 0.65517 0.0
C372 C 0.02807 0.80121 0.66532 0.0
C373 C 0.99626 0.82404 0.66815 0.0
C374 C 0.02767 0.7698 0.64885 0.0
C375 C 0.99457 0.76078 0.635 0.0
C376 C 0.96224 0.78341 0.63795 0.0
C377 C 0.9635 0.81483 0.65442 0.0
C378 C 0.06273 0.74636 0.64619 0.0
C379 C 0.92638 0.77461 0.62357 0.0
H380 H 0.01062 0.70358 0.55397 0.0
H381 H 0.97655 0.63357 0.61779 0.0
H382 H 0.99184 0.78985 0.58239 0.0
H383 H 0.03968 0.78045 0.59036 0.0
H384 H 0.02193 0.76784 0.55866 0.0
H385 H 0.96479 0.65715 0.65951 0.0
H386 H 0.99652 0.69455 0.66799 0.0
H387 H 0.94888 0.70516 0.66017 0.0
H388 H 0.05332 0.80776 0.67615 0.0
H389 H 0.93896 0.83257 0.65618 0.0
H390 H 0.07184 0.74573 0.62554 0.0
H391 H 0.05688 0.71701 0.65206 0.0
H392 H 0.08619 0.75721 0.65826 0.0
H393 H 0.93138 0.77554 0.60225 0.0
H394 H 0.90348 0.79455 0.6284 0.0
H395 H 0.91693 0.74579 0.62836 0.0
C396 C 0.34209 0.00653 0.89507 0.0
C397 C 0.33756 0.00462 0.92216 0.0
C398 C 0.31092 0.00685 0.87839 0.0
C399 C 0.27439 0.00465 0.88906 0.0
C400 C 0.26967 0.00251 0.91641 0.0
C401 C 0.30134 0.00283 0.93265 0.0
C402 C 0.31707 0.00976 0.84936 0.0
C403 C 0.23121 0.99953 0.92848 0.0
C404 C 0.19145 0.03761 0.84859 0.0
C405 C 0.17774 0.00371 0.83844 0.0
C406 C 0.22307 0.03836 0.86488 0.0
C407 C 0.24111 0.00435 0.87158 0.0
C408 C 0.2274 0.97004 0.86155 0.0
C409 C 0.19615 0.97016 0.84494 0.0
C410 C 0.23712 0.07557 0.87496 0.0
C411 C 0.2457 0.93314 0.86843 0.0
H412 H 0.37008 0.00834 0.88696 0.0
H413 H 0.29784 1.00103 0.95359 0.0
H414 H 0.30512 0.98485 0.83945 0.0
H415 H 0.30228 0.03476 0.84161 0.0
H416 H 0.34725 0.01189 0.84423 0.0
H417 H 0.23238 0.99782 0.95007 0.0
H418 H 0.21398 0.02419 0.92297 0.0
H419 H 0.21667 0.97425 0.92096 0.0
H420 H 0.17717 0.06364 0.84411 0.0
H421 H 0.18632 0.94386 0.83688 0.0
H422 H 0.26692 0.0795 0.8694 0.0
H423 H 0.2358 0.07601 0.89654 0.0
H424 H 0.2206 0.09958 0.86733 0.0
H425 H 0.27528 0.93305 0.86177 0.0
H426 H 0.23105 0.90883 0.85952 0.0
H427 H 0.24601 0.92942 0.88988 0.0
C428 C 0.97412 0.3296 0.4066 0.0
C429 C 0.00434 0.33632 0.42339 0.0
C430 C 0.9741 0.29855 0.38981 0.0
C431 C 0.0047 0.27324 0.39025 0.0
C432 C 0.03518 0.27979 0.40735 0.0
C433 C 0.03481 0.31152 0.42354 0.0
C434 C 0.94144 0.29294 0.3715 0.0
C435 C 0.06796 0.25306 0.40875 0.0
C436 C 0.9872 0.17482 0.36472 0.0
C437 C 0.00412 0.17611 0.34003 0.0
C438 C 0.98765 0.20603 0.38137 0.0
C439 C 0.00465 0.23974 0.37296 0.0
C440 C 0.02137 0.24151 0.348 0.0
C441 C 0.02127 0.20961 0.33197 0.0
C442 C 0.96992 0.2029 0.40799 0.0
C443 C 0.03931 0.27716 0.3382 0.0
H444 H 0.95074 0.34904 0.40633 0.0
H445 H 0.05804 0.31663 0.43669 0.0
H446 H 0.95161 0.29175 0.3511 0.0
H447 H 0.92749 0.26581 0.37568 0.0
H448 H 0.9203 0.31571 0.37312 0.0
H449 H 0.08923 0.26198 0.42328 0.0
H450 H 0.05793 0.22459 0.41397 0.0
H451 H 0.08167 0.25091 0.38942 0.0
H452 H 0.97318 0.14947 0.37104 0.0
H453 H 0.03502 0.21088 0.31319 0.0
H454 H 0.94638 0.22309 0.40971 0.0
H455 H 0.99071 0.21024 0.42325 0.0
H456 H 0.95909 0.17428 0.41197 0.0
H457 H 0.01864 0.30041 0.33863 0.0
H458 H 0.05016 0.27424 0.31802 0.0
H459 H 0.06286 0.28526 0.35114 0.0
C460 C 0.6661 0.01865 0.89776 0.0
C461 C 0.66905 0.00973 0.92423 0.0
C462 C 0.69791 0.01892 0.88169 0.0
C463 C 0.73324 0.00905 0.89227 0.0
C464 C 0.73624 0.9998 0.91902 0.0
C465 C 0.7041 1.00073 0.93479 0.0
C466 C 0.69372 0.02983 0.85343 0.0
C467 C 0.77324 0.98828 0.93087 0.0
C468 C 0.80694 0.97473 0.84446 0.0
C469 C 0.83026 0.00614 0.84244 0.0
C470 C 0.77562 0.97506 0.86099 0.0
C471 C 0.76696 0.00797 0.87524 0.0
C472 C 0.79031 0.03992 0.873 0.0
C473 C 0.82204 0.03843 0.85686 0.0
C474 C 0.75193 0.94015 0.86332 0.0
C475 C 0.7815 0.0758 0.88737 0.0
H476 H 0.6389 0.02581 0.88974 0.0
H477 H 0.70615 0.99359 0.95527 0.0
H478 H 0.71283 0.05344 0.84879 0.0
H479 H 0.70178 0.00597 0.84075 0.0
H480 H 0.66458 0.03829 0.84854 0.0
H481 H 0.77071 0.98151 0.95191 0.0
H482 H 0.7844 0.96333 0.92053 0.0
H483 H 0.79408 0.01109 0.92854 0.0
H484 H 0.81362 0.94971 0.83338 0.0
H485 H 0.8401 0.06274 0.8551 0.0
H486 H 0.72294 0.94604 0.85667 0.0
H487 H 0.75022 0.93135 0.88402 0.0
H488 H 0.7633 0.91647 0.85169 0.0
H489 H 0.75314 0.08587 0.88187 0.0
H490 H 0.80212 0.09832 0.88314 0.0
H491 H 0.78122 0.07064 0.90866 0.0
C492 C 0.97127 0.68461 0.41705 0.0
C493 C 0.00496 0.66819 0.42545 0.0
C494 C 0.9713 0.71631 0.40086 0.0
C495 C 0.00582 0.73173 0.39255 0.0
C496 C 0.03992 0.71528 0.40083 0.0
C497 C 0.03908 0.68389 0.4173 0.0
C498 C 0.93435 0.73325 0.3926 0.0
C499 C 0.0773 0.7308 0.39223 0.0
C500 C 0.00479 0.79229 0.33167 0.0
C501 C 0.00575 0.8286 0.34222 0.0
C502 C 0.00524 0.76052 0.3478 0.0
C503 C 0.00623 0.76512 0.37518 0.0
C504 C 0.00723 0.80161 0.38598 0.0
C505 C 0.00723 0.83286 0.36939 0.0
C506 C 0.00443 0.72203 0.33556 0.0
C507 C 0.00807 0.80764 0.41509 0.0
H508 H 0.94476 0.67238 0.42282 0.0
H509 H 0.06526 0.67182 0.42398 0.0
H510 H 0.93313 0.76315 0.39852 0.0
H511 H 0.93177 0.73237 0.37108 0.0
H512 H 0.90997 0.71839 0.40122 0.0
H513 H 0.10126 0.71439 0.40006 0.0
H514 H 0.07899 0.7308 0.37065 0.0
H515 H 0.08017 0.7603 0.39876 0.0
H516 H 0.00309 0.78864 0.31075 0.0
H517 H 0.00867 0.86072 0.37776 0.0
H518 H 0.97884 0.70684 0.3418 0.0
H519 H 0.0289 0.70539 0.34225 0.0
H520 H 0.00483 0.72324 0.31394 0.0
H521 H 0.9831 0.7945 0.42417 0.0
H522 H 0.00852 0.83784 0.42039 0.0
H523 H 0.03317 0.79393 0.42358 0.0
loop_
_geom_bond_atom_site_label_1
_geom_bond_atom_site_label_2
_geom_bond_distance
_geom_bond_site_symmetry_2
_ccdc_geom_bond_type
C0 C1 1.366 1_545 S
C0 C2 1.384 . S
C0 H28 0.931 . S
C1 C0 1.366 1_565 S
C1 C4 1.401 . S
C2 C0 1.384 . S
C2 C3 1.381 1_545 S
C2 H29 0.930 . S
C3 C2 1.381 1_565 S
C3 C5 1.381 . S
C3 C6 1.487 . S
C4 C1 1.401 . S
C4 C5 1.387 . S
C4 H30 0.930 . S
C5 C3 1.381 . S
C5 C4 1.387 . S
C5 H31 0.931 . S
C6 C3 1.487 . S
C6 C13 1.399 1_566 S
C6 N44 1.343 . S
C7 C8 1.384 1_565 S
C7 C9 1.384 . S
C7 H32 0.931 . S
C8 C7 1.384 1_545 S
C8 C11 1.382 . S
C9 C7 1.384 . S
C9 C10 1.381 1_565 S
C9 H33 0.930 . S
C10 C9 1.381 1_545 S
C10 C12 1.381 . S
C10 C13 1.487 . S
C11 C8 1.382 . S
C11 C12 1.387 . S
C11 H34 0.930 . S
C12 C10 1.381 . S
C12 C11 1.387 . S
C12 H35 0.931 . S
C13 C6 1.399 1_544 S
C13 C10 1.487 . S
C13 N45 1.343 . S
C14 C15 1.384 1_565 S
C14 C16 1.384 . S
C14 H36 0.931 . S
C15 C14 1.384 1_545 S
C15 C18 1.382 . S
C16 C14 1.384 . S
C16 C17 1.381 1_565 S
C16 H37 0.930 . S
C17 C16 1.381 1_545 S
C17 C19 1.381 . S
C17 C20 1.487 . S
C18 C15 1.382 . S
C18 C19 1.387 . S
C18 H38 0.930 . S
C19 C17 1.381 . S
C19 C18 1.387 . S
C19 H39 0.931 . S
C20 C17 1.487 . S
C20 C27 1.399 1_544 S
C20 N45 1.343 . S
C21 C22 1.366 1_545 S
C21 C23 1.384 . S
C21 H40 0.931 . S
C22 C21 1.366 1_565 S
C22 C25 1.401 . S
C23 C21 1.384 . S
C23 C24 1.381 1_545 S
C23 H41 0.930 . S
C24 C23 1.381 1_565 S
C24 C26 1.381 . S
C24 C27 1.487 . S
C25 C22 1.401 . S
C25 C26 1.387 . S
C25 H42 0.930 . S
C26 C24 1.381 . S
C26 C25 1.387 . S
C26 H43 0.931 . S
C27 C20 1.399 1_566 S
C27 C24 1.487 . S
C27 N44 1.343 . S
H28 C0 0.931 . S
H29 C2 0.930 . S
H30 C4 0.930 . S
H31 C5 0.931 . S
H32 C7 0.931 . S
H33 C9 0.930 . S
H34 C11 0.930 . S
H35 C12 0.931 . S
H36 C14 0.931 . S
H37 C16 0.930 . S
H38 C18 0.930 . S
H39 C19 0.931 . S
H40 C21 0.931 . S
H41 C23 0.930 . S
H42 C25 0.930 . S
H43 C26 0.931 . S
N44 C6 1.343 . S
N44 C27 1.343 . S
N45 C13 1.343 . S
N45 C20 1.343 . S
C46 C47 1.366 1_455 S
C46 C48 1.384 . S
C46 H74 0.931 . S
C47 C46 1.366 1_655 S
C47 C50 1.401 . S
C48 C46 1.384 . S
C48 C49 1.381 1_455 S
C48 H75 0.930 . S
C49 C48 1.381 1_655 S
C49 C51 1.381 . S
C49 C52 1.487 . S
C50 C47 1.401 . S
C50 C51 1.387 . S
C50 H76 0.930 . S
C51 C49 1.381 . S
C51 C50 1.387 . S
C51 H77 0.931 . S
C52 C49 1.487 . S
C52 C59 1.399 1_655 S
C52 N90 1.343 . S
C53 C54 1.384 1_655 S
C53 C55 1.384 . S
C53 H78 0.931 . S
C54 C53 1.384 1_455 S
C54 C57 1.382 . S
C55 C53 1.384 . S
C55 C56 1.381 1_655 S
C55 H79 0.930 . S
C56 C55 1.381 1_455 S
C56 C58 1.381 . S
C56 C59 1.487 . S
C57 C54 1.382 . S
C57 C58 1.387 . S
C57 H80 0.930 . S
C58 C56 1.381 . S
C58 C57 1.387 . S
C58 H81 0.931 . S
C59 C52 1.399 1_455 S
C59 C56 1.487 . S
C59 N91 1.343 . S
C60 C61 1.384 1_655 S
C60 C62 1.384 . S
C60 H82 0.931 . S
C61 C60 1.384 1_455 S
C61 C64 1.382 . S
C62 C60 1.384 . S
C62 C63 1.381 1_655 S
C62 H83 0.930 . S
C63 C62 1.381 1_455 S
C63 C65 1.381 . S
C63 C66 1.487 . S
C64 C61 1.382 . S
C64 C65 1.387 . S
C64 H84 0.930 . S
C65 C63 1.381 . S
C65 C64 1.387 . S
C65 H85 0.931 . S
C66 C63 1.487 . S
C66 C73 1.399 1_455 S
C66 N91 1.343 . S
C67 C68 1.366 1_455 S
C67 C69 1.384 . S
C67 H86 0.931 . S
C68 C67 1.366 1_655 S
C68 C71 1.401 . S
C69 C67 1.384 . S
C69 C70 1.381 1_455 S
C69 H87 0.930 . S
C70 C69 1.381 1_655 S
C70 C72 1.381 . S
C70 C73 1.487 . S
C71 C68 1.401 . S
C71 C72 1.387 . S
C71 H88 0.930 . S
C72 C70 1.381 . S
C72 C71 1.387 . S
C72 H89 0.931 . S
C73 C66 1.399 1_655 S
C73 C70 1.487 . S
C73 N90 1.343 . S
H74 C46 0.931 . S
H75 C48 0.930 . S
H76 C50 0.930 . S
H77 C51 0.931 . S
H78 C53 0.931 . S
H79 C55 0.930 . S
H80 C57 0.930 . S
H81 C58 0.931 . S
H82 C60 0.931 . S
H83 C62 0.930 . S
H84 C64 0.930 . S
H85 C65 0.931 . S
H86 C67 0.931 . S
H87 C69 0.930 . S
H88 C71 0.930 . S
H89 C72 0.931 . S
N90 C52 1.343 . S
N90 C73 1.343 . S
N91 C59 1.343 . S
N91 C66 1.343 . S
Li92 N109 1.990 . S
Li92 O152 1.956 1_545 S
Li92 O153 1.970 1_455 S
Li92 O154 1.961 1_455 S
Li93 N117 1.990 . S
Li93 O152 1.970 1_655 S
Li93 O153 1.956 1_565 S
Li93 O155 1.961 1_655 S
Li94 N139 1.990 . S
Li94 O152 1.961 1_545 S
Li94 O154 1.956 1_455 S
Li94 O155 1.970 1_545 S
Li95 N145 1.990 . S
Li95 O153 1.961 1_565 S
Li95 O154 1.970 1_565 S
Li95 O155 1.956 1_655 S
C96 C98 1.348 1_545 S
C96 C99 1.356 . S
C96 O152 1.325 1_545 S
N97 C100 1.314 1_545 S
N97 C101 1.279 . S
C98 C96 1.348 1_565 S
C98 C100 1.353 . S
C98 H156 0.929 . S
C99 C96 1.356 . S
C99 C101 1.358 . S
C99 H157 0.930 . S
C100 N97 1.314 1_565 S
C100 C98 1.353 . S
C100 H158 0.930 . S
C101 N97 1.279 . S
C101 C99 1.358 . S
C101 H159 0.930 . S
C102 C105 1.348 . S
C102 C106 1.356 1_545 S
C102 O153 1.325 . S
C103 N104 1.279 . S
C103 C106 1.358 . S
C103 H160 0.930 . S
N104 C103 1.279 . S
N104 C107 1.314 1_565 S
C105 C102 1.348 . S
C105 C107 1.353 . S
C105 H161 0.929 . S
C106 C102 1.356 1_565 S
C106 C103 1.358 . S
C106 H162 0.930 . S
C107 N104 1.314 1_545 S
C107 C105 1.353 . S
C107 H163 0.930 . S
C108 N109 1.314 1_655 S
C108 C113 1.353 . S
C108 H114 0.930 . S
N109 Li92 1.990 . S
N109 C108 1.314 1_455 S
N109 C111 1.279 . S
C110 C111 1.358 . S
C110 C112 1.356 . S
C110 H164 0.930 . S
C111 N109 1.279 . S
C111 C110 1.358 . S
C111 H115 0.930 . S
C112 C110 1.356 . S
C112 C113 1.348 1_455 S
C113 C108 1.353 . S
C113 C112 1.348 1_655 S
C113 H165 0.929 . S
H114 C108 0.930 . S
H115 C111 0.930 . S
C116 N117 1.314 1_455 S
C116 C118 1.353 . S
C116 H122 0.930 . S
N117 Li93 1.990 . S
N117 C116 1.314 1_655 S
N117 C120 1.279 . S
C118 C116 1.353 . S
C118 C121 1.348 . S
C118 H166 0.929 . S
C119 C120 1.358 . S
C119 C121 1.356 1_655 S
C119 H167 0.930 . S
C120 N117 1.279 . S
C120 C119 1.358 . S
C120 H123 0.930 . S
C121 C118 1.348 . S
C121 C119 1.356 1_455 S
H122 C116 0.930 . S
H123 C120 0.930 . S
C124 C126 1.348 1_455 S
C124 C127 1.356 . S
C124 O154 1.325 1_455 S
N125 C128 1.314 1_455 S
N125 C129 1.279 . S
C126 C124 1.348 1_655 S
C126 C128 1.353 . S
C126 H168 0.929 . S
C127 C124 1.356 . S
C127 C129 1.358 . S
C127 H169 0.930 . S
C128 N125 1.314 1_655 S
C128 C126 1.353 . S
C128 H170 0.930 . S
C129 N125 1.279 . S
C129 C127 1.358 . S
C129 H171 0.930 . S
C130 C131 1.348 . S
C130 C132 1.356 1_455 S
C130 O155 1.325 . S
C131 C130 1.348 . S
C131 C133 1.353 . S
C131 H172 0.929 . S
C132 C130 1.356 1_655 S
C132 C134 1.358 . S
C132 H173 0.930 . S
C133 C131 1.353 . S
C133 N135 1.314 1_455 S
C133 H174 0.930 . S
C134 C132 1.358 . S
C134 N135 1.279 . S
C134 H175 0.930 . S
N135 C133 1.314 1_655 S
N135 C134 1.279 . S
C136 C138 1.353 . S
C136 N139 1.314 1_565 S
C136 H142 0.930 . S
C137 N139 1.279 . S
C137 C140 1.358 . S
C137 H143 0.930 . S
C138 C136 1.353 . S
C138 C141 1.348 1_565 S
C138 H176 0.929 . S
N139 Li94 1.990 . S
N139 C136 1.314 1_545 S
N139 C137 1.279 . S
C140 C137 1.358 . S
C140 C141 1.356 . S
C140 H177 0.930 . S
C141 C138 1.348 1_545 S
C141 C140 1.356 . S
H142 C136 0.930 . S
H143 C137 0.930 . S
C144 N145 1.314 1_545 S
C144 C146 1.353 . S
C144 H150 0.930 . S
N145 Li95 1.990 . S
N145 C144 1.314 1_565 S
N145 C148 1.279 . S
C146 C144 1.353 . S
C146 C149 1.348 . S
C146 H178 0.929 . S
C147 C148 1.358 . S
C147 C149 1.356 1_565 S
C147 H179 0.930 . S
C148 N145 1.279 . S
C148 C147 1.358 . S
C148 H151 0.930 . S
C149 C146 1.348 . S
C149 C147 1.356 1_545 S
H150 C144 0.930 . S
H151 C148 0.930 . S
O152 Li92 1.956 1_565 S
O152 Li93 1.970 1_455 S
O152 Li94 1.961 1_565 S
O152 C96 1.325 1_565 S
O153 Li92 1.970 1_655 S
O153 Li93 1.956 1_545 S
O153 Li95 1.961 1_545 S
O153 C102 1.325 . S
O154 Li92 1.961 1_655 S
O154 Li94 1.956 1_655 S
O154 Li95 1.970 1_545 S
O154 C124 1.325 1_655 S
O155 Li93 1.961 1_455 S
O155 Li94 1.970 1_565 S
O155 Li95 1.956 1_455 S
O155 C130 1.325 . S
H156 C98 0.929 . S
H157 C99 0.930 . S
H158 C100 0.930 . S
H159 C101 0.930 . S
H160 C103 0.930 . S
H161 C105 0.929 . S
H162 C106 0.930 . S
H163 C107 0.930 . S
H164 C110 0.930 . S
H165 C113 0.929 . S
H166 C118 0.929 . S
H167 C119 0.930 . S
H168 C126 0.929 . S
H169 C127 0.930 . S
H170 C128 0.930 . S
H171 C129 0.930 . S
H172 C131 0.929 . S
H173 C132 0.930 . S
H174 C133 0.930 . S
H175 C134 0.930 . S
H176 C138 0.929 . S
H177 C140 0.930 . S
H178 C146 0.929 . S
H179 C147 0.930 . S
Li180 N197 1.990 . S
Li180 O240 1.956 1_655 S
Li180 O241 1.970 1_545 S
Li180 O242 1.961 1_545 S
Li181 N205 1.990 . S
Li181 O240 1.970 1_565 S
Li181 O241 1.956 1_455 S
Li181 O243 1.961 1_565 S
Li182 N227 1.990 . S
Li182 O240 1.961 1_655 S
Li182 O242 1.956 1_545 S
Li182 O243 1.970 1_655 S
Li183 N233 1.990 . S
Li183 O241 1.961 1_455 S
Li183 O242 1.970 1_455 S
Li183 O243 1.956 1_565 S
C184 C186 1.348 . S
C184 C187 1.356 1_455 S
C184 O240 1.325 . S
N185 C188 1.314 1_655 S
N185 C189 1.279 . S
C186 C184 1.348 . S
C186 C188 1.353 . S
C186 H244 0.929 . S
C187 C184 1.356 1_655 S
C187 C189 1.358 . S
C187 H245 0.930 . S
C188 N185 1.314 1_455 S
C188 C186 1.353 . S
C188 H246 0.930 . S
C189 N185 1.279 . S
C189 C187 1.358 . S
C189 H247 0.930 . S
C190 C193 1.348 1_455 S
C190 C194 1.356 . S
C190 O241 1.325 1_455 S
C191 N192 1.279 . S
C191 C194 1.358 . S
C191 H248 0.930 . S
N192 C191 1.279 . S
N192 C195 1.314 1_455 S
C193 C190 1.348 1_655 S
C193 C195 1.353 . S
C193 H249 0.929 . S
C194 C190 1.356 . S
C194 C191 1.358 . S
C194 H250 0.930 . S
C195 N192 1.314 1_655 S
C195 C193 1.353 . S
C195 H251 0.930 . S
C196 N197 1.314 1_565 S
C196 C201 1.353 . S
C196 H202 0.930 . S
N197 Li180 1.990 . S
N197 C196 1.314 1_545 S
N197 C199 1.279 . S
C198 C199 1.358 . S
C198 C200 1.356 . S
C198 H252 0.930 . S
C199 N197 1.279 . S
C199 C198 1.358 . S
C199 H203 0.930 . S
C200 C198 1.356 . S
C200 C201 1.348 1_545 S
C201 C196 1.353 . S
C201 C200 1.348 1_565 S
C201 H253 0.929 . S
H202 C196 0.930 . S
H203 C199 0.930 . S
C204 N205 1.314 1_545 S
C204 C206 1.353 . S
C204 H210 0.930 . S
N205 Li181 1.990 . S
N205 C204 1.314 1_565 S
N205 C208 1.279 . S
C206 C204 1.353 . S
C206 C209 1.348 . S
C206 H254 0.929 . S
C207 C208 1.358 . S
C207 C209 1.356 1_565 S
C207 H255 0.930 . S
C208 N205 1.279 . S
C208 C207 1.358 . S
C208 H211 0.930 . S
C209 C206 1.348 . S
C209 C207 1.356 1_545 S
H210 C204 0.930 . S
H211 C208 0.930 . S
C212 C214 1.348 1_545 S
C212 C215 1.356 . S
C212 O242 1.325 1_545 S
N213 C216 1.314 1_545 S
N213 C217 1.279 . S
C214 C212 1.348 1_565 S
C214 C216 1.353 . S
C214 H256 0.929 . S
C215 C212 1.356 . S
C215 C217 1.358 . S
C215 H257 0.930 . S
C216 N213 1.314 1_565 S
C216 C214 1.353 . S
C216 H258 0.930 . S
C217 N213 1.279 . S
C217 C215 1.358 . S
C217 H259 0.930 . S
C218 C219 1.348 . S
C218 C220 1.356 1_545 S
C218 O243 1.325 . S
C219 C218 1.348 . S
C219 C221 1.353 . S
C219 H260 0.929 . S
C220 C218 1.356 1_565 S
C220 C222 1.358 . S
C220 H261 0.930 . S
C221 C219 1.353 . S
C221 N223 1.314 1_545 S
C221 H262 0.930 . S
C222 C220 1.358 . S
C222 N223 1.279 . S
C222 H263 0.930 . S
N223 C221 1.314 1_565 S
N223 C222 1.279 . S
C224 C226 1.353 . S
C224 N227 1.314 1_455 S
C224 H230 0.930 . S
C225 N227 1.279 . S
C225 C228 1.358 . S
C225 H231 0.930 . S
C226 C224 1.353 . S
C226 C229 1.348 . S
C226 H264 0.929 . S
N227 Li182 1.990 . S
N227 C224 1.314 1_655 S
N227 C225 1.279 . S
C228 C225 1.358 . S
C228 C229 1.356 1_655 S
C228 H265 0.930 . S
C229 C226 1.348 . S
C229 C228 1.356 1_455 S
H230 C224 0.930 . S
H231 C225 0.930 . S
C232 N233 1.314 1_655 S
C232 C234 1.353 . S
C232 H238 0.930 . S
N233 Li183 1.990 . S
N233 C232 1.314 1_455 S
N233 C236 1.279 . S
C234 C232 1.353 . S
C234 C237 1.348 1_655 S
C234 H266 0.929 . S
C235 C236 1.358 . S
C235 C237 1.356 . S
C235 H267 0.930 . S
C236 N233 1.279 . S
C236 C235 1.358 . S
C236 H239 0.930 . S
C237 C234 1.348 1_455 S
C237 C235 1.356 . S
H238 C232 0.930 . S
H239 C236 0.930 . S
O240 Li180 1.956 1_455 S
O240 Li181 1.970 1_545 S
O240 Li182 1.961 1_455 S
O240 C184 1.325 . S
O241 Li180 1.970 1_565 S
O241 Li181 1.956 1_655 S
O241 Li183 1.961 1_655 S
O241 C190 1.325 1_655 S
O242 Li180 1.961 1_565 S
O242 Li182 1.956 1_565 S
O242 Li183 1.970 1_655 S
O242 C212 1.325 1_565 S
O243 Li181 1.961 1_545 S
O243 Li182 1.970 1_455 S
O243 Li183 1.956 1_545 S
O243 C218 1.325 . S
H244 C186 0.929 . S
H245 C187 0.930 . S
H246 C188 0.930 . S
H247 C189 0.930 . S
H248 C191 0.930 . S
H249 C193 0.929 . S
H250 C194 0.930 . S
H251 C195 0.930 . S
H252 C198 0.930 . S
H253 C201 0.929 . S
H254 C206 0.929 . S
H255 C207 0.930 . S
H256 C214 0.929 . S
H257 C215 0.930 . S
H258 C216 0.930 . S
H259 C217 0.930 . S
H260 C219 0.929 . S
H261 C220 0.930 . S
H262 C221 0.930 . S
H263 C222 0.930 . S
H264 C226 0.929 . S
H265 C228 0.930 . S
H266 C234 0.929 . S
H267 C235 0.930 . S
C268 C269 1.391 . S
C268 C270 1.394 . S
C268 H284 0.931 . S
C269 C268 1.391 . S
C269 C273 1.376 1_545 S
C270 C268 1.394 . S
C270 C271 1.369 . S
C270 C274 1.531 . S
C271 C270 1.369 . S
C271 C272 1.410 1_545 S
C271 C279 1.503 . S
C272 C271 1.410 1_565 S
C272 C273 1.392 . S
C272 C275 1.511 . S
C273 C269 1.376 1_565 S
C273 C272 1.392 . S
C273 H285 0.929 . S
C274 C270 1.531 . S
C274 H286 0.960 . S
C274 H287 0.962 . S
C274 H288 0.960 . S
C275 C272 1.511 . S
C275 H289 0.961 . S
C275 H290 0.961 . S
C275 H291 0.961 . S
C276 C277 1.368 1_565 S
C276 C278 1.363 . S
C276 H292 0.931 . S
C277 C276 1.368 1_545 S
C277 C281 1.411 . S
C278 C276 1.363 . S
C278 C279 1.370 1_565 S
C278 C282 1.524 . S
C279 C271 1.503 . S
C279 C278 1.370 1_545 S
C279 C280 1.403 . S
C280 C279 1.403 . S
C280 C281 1.404 . S
C280 C283 1.539 . S
C281 C277 1.411 . S
C281 C280 1.404 . S
C281 H293 0.930 . S
C282 C278 1.524 . S
C282 H294 0.956 . S
C282 H295 0.961 . S
C282 H296 0.961 . S
C283 C280 1.539 . S
C283 H297 0.958 . S
C283 H298 0.961 . S
C283 H299 0.960 . S
H284 C268 0.931 . S
H285 C273 0.929 . S
H286 C274 0.960 . S
H287 C274 0.962 . S
H288 C274 0.960 . S
H289 C275 0.961 . S
H290 C275 0.961 . S
H291 C275 0.961 . S
H292 C276 0.931 . S
H293 C281 0.930 . S
H294 C282 0.956 . S
H295 C282 0.961 . S
H296 C282 0.961 . S
H297 C283 0.958 . S
H298 C283 0.961 . S
H299 C283 0.960 . S
C300 C301 1.391 1_455 S
C300 C302 1.394 . S
C300 H316 0.931 . S
C301 C300 1.391 1_655 S
C301 C305 1.376 . S
C302 C300 1.394 . S
C302 C303 1.369 1_455 S
C302 C306 1.531 . S
C303 C302 1.369 1_655 S
C303 C304 1.410 . S
C303 C311 1.503 . S
C304 C303 1.410 . S
C304 C305 1.392 . S
C304 C307 1.511 . S
C305 C301 1.376 . S
C305 C304 1.392 . S
C305 H317 0.929 . S
C306 C302 1.531 . S
C306 H318 0.960 . S
C306 H319 0.962 . S
C306 H320 0.960 . S
C307 C304 1.511 . S
C307 H321 0.961 . S
C307 H322 0.961 . S
C307 H323 0.961 . S
C308 C309 1.368 1_455 S
C308 C310 1.363 . S
C308 H324 0.931 . S
C309 C308 1.368 1_655 S
C309 C313 1.410 . S
C310 C308 1.363 . S
C310 C311 1.370 1_455 S
C310 C314 1.524 . S
C311 C303 1.503 . S
C311 C310 1.370 1_655 S
C311 C312 1.403 . S
C312 C311 1.403 . S
C312 C313 1.404 . S
C312 C315 1.539 . S
C313 C309 1.410 . S
C313 C312 1.404 . S
C313 H325 0.930 . S
C314 C310 1.524 . S
C314 H326 0.956 . S
C314 H327 0.961 . S
C314 H328 0.961 . S
C315 C312 1.539 . S
C315 H329 0.958 . S
C315 H330 0.961 . S
C315 H331 0.960 . S
H316 C300 0.931 . S
H317 C305 0.929 . S
H318 C306 0.960 . S
H319 C306 0.962 . S
H320 C306 0.960 . S
H321 C307 0.961 . S
H322 C307 0.961 . S
H323 C307 0.961 . S
H324 C308 0.931 . S
H325 C313 0.930 . S
H326 C314 0.956 . S
H327 C314 0.961 . S
H328 C314 0.961 . S
H329 C315 0.958 . S
H330 C315 0.961 . S
H331 C315 0.960 . S
C332 C333 1.391 . S
C332 C334 1.394 . S
C332 H348 0.931 . S
C333 C332 1.391 . S
C333 C337 1.376 . S
C334 C332 1.394 . S
C334 C335 1.369 . S
C334 C338 1.531 . S
C335 C334 1.369 . S
C335 C336 1.410 . S
C335 C343 1.503 . S
C336 C335 1.410 . S
C336 C337 1.392 . S
C336 C339 1.511 . S
C337 C333 1.376 . S
C337 C336 1.392 . S
C337 H349 0.927 1_565 S
C338 C334 1.531 . S
C338 H350 0.960 . S
C338 H351 0.962 1_565 S
C338 H352 0.960 . S
C339 C336 1.511 . S
C339 H353 0.961 1_565 S
C339 H354 0.961 1_565 S
C339 H355 0.961 . S
C340 C341 1.360 1_545 S
C340 C342 1.363 . S
C340 H356 0.931 . S
C341 C340 1.360 1_565 S
C341 C345 1.420 . S
C342 C340 1.363 . S
C342 C343 1.370 1_545 S
C342 C346 1.524 . S
C343 C335 1.503 . S
C343 C342 1.370 1_565 S
C343 C344 1.403 . S
C344 C343 1.403 . S
C344 C345 1.404 . S
C344 C347 1.539 . S
C345 C341 1.420 . S
C345 C344 1.404 . S
C345 H357 0.930 . S
C346 C342 1.524 . S
C346 H358 0.956 . S
C346 H359 0.961 . S
C346 H360 0.961 . S
C347 C344 1.539 . S
C347 H361 0.958 . S
C347 H362 0.961 . S
C347 H363 0.960 . S
H348 C332 0.931 . S
H349 C337 0.927 1_545 S
H350 C338 0.960 . S
H351 C338 0.962 1_545 S
H352 C338 0.960 . S
H353 C339 0.961 1_545 S
H354 C339 0.961 1_545 S
H355 C339 0.961 . S
H356 C340 0.931 . S
H357 C345 0.930 . S
H358 C346 0.956 . S
H359 C346 0.961 . S
H360 C346 0.961 . S
H361 C347 0.958 . S
H362 C347 0.961 . S
H363 C347 0.960 . S
C364 C365 1.391 1_455 S
C364 C366 1.394 . S
C364 H380 0.931 . S
C365 C364 1.391 1_655 S
C365 C369 1.376 . S
C366 C364 1.394 . S
C366 C367 1.369 1_455 S
C366 C370 1.531 . S
C367 C366 1.369 1_655 S
C367 C368 1.410 . S
C367 C375 1.503 . S
C368 C367 1.410 . S
C368 C369 1.392 . S
C368 C371 1.511 . S
C369 C365 1.376 . S
C369 C368 1.392 . S
C369 H381 0.929 . S
C370 C366 1.531 . S
C370 H382 0.960 . S
C370 H383 0.962 . S
C370 H384 0.960 . S
C371 C368 1.511 . S
C371 H385 0.961 . S
C371 H386 0.961 . S
C371 H387 0.961 . S
C372 C373 1.370 1_455 S
C372 C374 1.363 . S
C372 H388 0.931 . S
C373 C372 1.370 1_655 S
C373 C377 1.408 . S
C374 C372 1.363 . S
C374 C375 1.370 1_455 S
C374 C378 1.524 . S
C375 C367 1.503 . S
C375 C374 1.370 1_655 S
C375 C376 1.403 . S
C376 C375 1.403 . S
C376 C377 1.404 . S
C376 C379 1.539 . S
C377 C373 1.408 . S
C377 C376 1.404 . S
C377 H389 0.930 . S
C378 C374 1.524 . S
C378 H390 0.956 . S
C378 H391 0.961 . S
C378 H392 0.961 . S
C379 C376 1.539 . S
C379 H393 0.958 . S
C379 H394 0.961 . S
C379 H395 0.960 . S
H380 C364 0.931 . S
H381 C369 0.929 . S
H382 C370 0.960 . S
H383 C370 0.962 . S
H384 C370 0.960 . S
H385 C371 0.961 . S
H386 C371 0.961 . S
H387 C371 0.961 . S
H388 C372 0.931 . S
H389 C377 0.930 . S
H390 C378 0.956 . S
H391 C378 0.961 . S
H392 C378 0.961 . S
H393 C379 0.958 . S
H394 C379 0.961 . S
H395 C379 0.960 . S
C396 C397 1.391 1_545 S
C396 C398 1.394 . S
C396 H412 0.931 . S
C397 C396 1.391 1_565 S
C397 C401 1.376 . S
C398 C396 1.394 . S
C398 C399 1.369 1_545 S
C398 C402 1.531 . S
C399 C398 1.369 1_565 S
C399 C400 1.410 . S
C399 C407 1.503 . S
C400 C399 1.410 . S
C400 C401 1.392 . S
C400 C403 1.511 . S
C401 C397 1.376 . S
C401 C400 1.392 . S
C401 H413 0.929 . S
C402 C398 1.531 . S
C402 H414 0.960 . S
C402 H415 0.962 . S
C402 H416 0.960 . S
C403 C400 1.511 . S
C403 H417 0.961 . S
C403 H418 0.961 . S
C403 H419 0.961 . S
C404 C405 1.360 1_545 S
C404 C406 1.363 . S
C404 H420 0.931 . S
C405 C404 1.360 1_565 S
C405 C409 1.419 . S
C406 C404 1.363 . S
C406 C407 1.370 1_545 S
C406 C410 1.524 . S
C407 C399 1.503 . S
C407 C406 1.370 1_565 S
C407 C408 1.403 . S
C408 C407 1.403 . S
C408 C409 1.404 . S
C408 C411 1.539 . S
C409 C405 1.419 . S
C409 C408 1.404 . S
C409 H421 0.930 . S
C410 C406 1.524 . S
C410 H422 0.956 . S
C410 H423 0.961 . S
C410 H424 0.961 . S
C411 C408 1.539 . S
C411 H425 0.958 . S
C411 H426 0.961 . S
C411 H427 0.960 . S
H412 C396 0.931 . S
H413 C401 0.929 . S
H414 C402 0.960 . S
H415 C402 0.962 . S
H416 C402 0.960 . S
H417 C403 0.961 . S
H418 C403 0.961 . S
H419 C403 0.961 . S
H420 C404 0.931 . S
H421 C409 0.930 . S
H422 C410 0.956 . S
H423 C410 0.961 . S
H424 C410 0.961 . S
H425 C411 0.958 . S
H426 C411 0.961 . S
H427 C411 0.960 . S
C428 C429 1.391 1_655 S
C428 C430 1.394 . S
C428 H444 0.931 . S
C429 C428 1.391 1_455 S
C429 C433 1.376 . S
C430 C428 1.394 . S
C430 C431 1.369 1_655 S
C430 C434 1.531 . S
C431 C430 1.369 1_455 S
C431 C432 1.410 . S
C431 C439 1.503 . S
C432 C431 1.410 . S
C432 C433 1.392 . S
C432 C435 1.511 . S
C433 C429 1.376 . S
C433 C432 1.392 . S
C433 H445 0.929 . S
C434 C430 1.531 . S
C434 H446 0.960 . S
C434 H447 0.962 . S
C434 H448 0.960 . S
C435 C432 1.511 . S
C435 H449 0.961 . S
C435 H450 0.961 . S
C435 H451 0.961 . S
C436 C437 1.366 1_655 S
C436 C438 1.363 . S
C436 H452 0.931 . S
C437 C436 1.366 1_455 S
C437 C441 1.413 . S
C438 C436 1.363 . S
C438 C439 1.370 1_655 S
C438 C442 1.524 . S
C439 C431 1.503 . S
C439 C438 1.370 1_455 S
C439 C440 1.403 . S
C440 C439 1.403 . S
C440 C441 1.404 . S
C440 C443 1.539 . S
C441 C437 1.413 . S
C441 C440 1.404 . S
C441 H453 0.930 . S
C442 C438 1.524 . S
C442 H454 0.956 . S
C442 H455 0.961 . S
C442 H456 0.961 . S
C443 C440 1.539 . S
C443 H457 0.958 . S
C443 H458 0.961 . S
C443 H459 0.960 . S
H444 C428 0.931 . S
H445 C433 0.929 . S
H446 C434 0.960 . S
H447 C434 0.962 . S
H448 C434 0.960 . S
H449 C435 0.961 . S
H450 C435 0.961 . S
H451 C435 0.961 . S
H452 C436 0.931 . S
H453 C441 0.930 . S
H454 C442 0.956 . S
H455 C442 0.961 . S
H456 C442 0.961 . S
H457 C443 0.958 . S
H458 C443 0.961 . S
H459 C443 0.960 . S
C460 C461 1.391 . S
C460 C462 1.394 . S
C460 H476 0.931 . S
C461 C460 1.391 . S
C461 C465 1.376 1_545 S
C462 C460 1.394 . S
C462 C463 1.369 . S
C462 C466 1.531 . S
C463 C462 1.369 . S
C463 C464 1.410 1_545 S
C463 C471 1.503 . S
C464 C463 1.410 1_565 S
C464 C465 1.392 . S
C464 C467 1.511 . S
C465 C461 1.376 1_565 S
C465 C464 1.392 . S
C465 H477 0.929 . S
C466 C462 1.531 . S
C466 H478 0.960 . S
C466 H479 0.962 . S
C466 H480 0.960 . S
C467 C464 1.511 . S
C467 H481 0.961 . S
C467 H482 0.961 . S
C467 H483 0.961 . S
C468 C469 1.362 1_565 S
C468 C470 1.363 . S
C468 H484 0.931 . S
C469 C468 1.362 1_545 S
C469 C473 1.417 . S
C470 C468 1.363 . S
C470 C471 1.370 1_565 S
C470 C474 1.524 . S
C471 C463 1.503 . S
C471 C470 1.370 1_545 S
C471 C472 1.403 . S
C472 C471 1.403 . S
C472 C473 1.404 . S
C472 C475 1.539 . S
C473 C469 1.417 . S
C473 C472 1.404 . S
C473 H485 0.930 . S
C474 C470 1.524 . S
C474 H486 0.956 . S
C474 H487 0.961 . S
C474 H488 0.961 . S
C475 C472 1.539 . S
C475 H489 0.958 . S
C475 H490 0.961 . S
C475 H491 0.960 . S
H476 C460 0.931 . S
H477 C465 0.929 . S
H478 C466 0.960 . S
H479 C466 0.962 . S
H480 C466 0.960 . S
H481 C467 0.961 . S
H482 C467 0.961 . S
H483 C467 0.961 . S
H484 C468 0.931 . S
H485 C473 0.930 . S
H486 C474 0.956 . S
H487 C474 0.961 . S
H488 C474 0.961 . S
H489 C475 0.958 . S
H490 C475 0.961 . S
H491 C475 0.960 . S
C492 C493 1.378 1_655 S
C492 C494 1.394 . S
C492 H508 0.931 . S
C493 C492 1.378 1_455 S
C493 C497 1.389 . S
C494 C492 1.394 . S
C494 C495 1.349 1_655 S
C494 C498 1.531 . S
C495 C494 1.349 1_455 S
C495 C496 1.430 . S
C495 C503 1.503 . S
C496 C495 1.430 . S
C496 C497 1.392 . S
C496 C499 1.511 . S
C497 C493 1.389 . S
C497 C496 1.392 . S
C497 H509 0.929 . S
C498 C494 1.531 . S
C498 H510 0.960 . S
C498 H511 0.962 . S
C498 H512 0.960 . S
C499 C496 1.511 . S
C499 H513 0.961 . S
C499 H514 0.961 . S
C499 H515 0.961 . S
C500 C501 1.370 1_655 S
C500 C502 1.363 . S
C500 H516 0.931 . S
C501 C500 1.370 1_455 S
C501 C505 1.408 . S
C502 C500 1.363 . S
C502 C503 1.368 1_655 S
C502 C506 1.524 . S
C503 C495 1.503 . S
C503 C502 1.368 1_455 S
C503 C504 1.405 . S
C504 C503 1.405 . S
C504 C505 1.404 . S
C504 C507 1.539 . S
C505 C501 1.408 . S
C505 C504 1.404 . S
C505 H517 0.930 . S
C506 C502 1.524 . S
C506 H518 0.956 . S
C506 H519 0.961 1_655 S
C506 H520 0.961 . S
C507 C504 1.539 . S
C507 H521 0.958 1_455 S
C507 H522 0.961 . S
C507 H523 0.960 . S
H508 C492 0.931 . S
H509 C497 0.929 . S
H510 C498 0.960 . S
H511 C498 0.962 . S
H512 C498 0.960 . S
H513 C499 0.961 . S
H514 C499 0.961 . S
H515 C499 0.961 . S
H516 C500 0.931 . S
H517 C505 0.930 . S
H518 C506 0.956 . S
H519 C506 0.961 1_455 S
H520 C506 0.961 . S
H521 C507 0.958 1_655 S
H522 C507 0.961 . S
H523 C507 0.960 . S
C277 C141 1.490 . S
C269 C15 1.477 . S
C309 C229 1.490 1_655 S
C301 C68 1.487 . S
C341 C149 1.490 1_565 S
C333 C8 1.487 1_565 S
C373 C237 1.492 1_655 S
C365 C47 1.485 . S
C405 C209 1.490 1_565 S
C397 C22 1.489 . S
C437 C112 1.490 . S
C429 C61 1.486 . S
C469 C200 1.490 . S
C461 C1 1.489 1_545 S
C493 C54 1.482 . S
C501 C121 1.493 . S
