# Generated by pormake.
# Topology pto, (3,4)-cn, num edge types: 1
# Building blocks:
#     Node 0, Type 0, BuildingBlock: CUQRIR_clean_linker_1, # of connection points: 3
#     Node 1, Type 0, BuildingBlock: CUQRIR_clean_linker_1, # of connection points: 3
#     Node 2, Type 0, BuildingBlock: CUQRIR_clean_linker_1, # of connection points: 3
#     Node 3, Type 0, BuildingBlock: CUQRIR_clean_linker_1, # of connection points: 3
#     Node 4, Type 0, BuildingBlock: CUQRIR_clean_linker_1, # of connection points: 3
#     Node 5, Type 0, BuildingBlock: CUQRIR_clean_linker_1, # of connection points: 3
#     Node 6, Type 0, BuildingBlock: CUQRIR_clean_linker_1, # of connection points: 3
#     Node 7, Type 0, BuildingBlock: CUQRIR_clean_linker_1, # of connection points: 3
#     Node 8, Type 1, BuildingBlock: NAWXER_clean_sbu_0, # of connection points: 4
#     Node 9, Type 1, BuildingBlock: NAWXER_clean_sbu_0, # of connection points: 4
#     Node 10, Type 1, BuildingBlock: NAWXER_clean_sbu_0, # of connection points: 4
#     Node 11, Type 1, BuildingBlock: NAWXER_clean_sbu_0, # of connection points: 4
#     Node 12, Type 1, BuildingBlock: NAWXER_clean_sbu_0, # of connection points: 4
#     Node 13, Type 1, BuildingBlock: NAWXER_clean_sbu_0, # of connection points: 4
#     Edge 14, Type (0, 1), BuildingBlock: CIFDUS_clean_linker_0, # of connection points: 2
#     Edge 15, Type (0, 1), BuildingBlock: CIFDUS_clean_linker_0, # of connection points: 2
#     Edge 16, Type (0, 1), BuildingBlock: CIFDUS_clean_linker_0, # of connection points: 2
#     Edge 17, Type (0, 1), BuildingBlock: CIFDUS_clean_linker_0, # of connection points: 2
#     Edge 18, Type (0, 1), BuildingBlock: CIFDUS_clean_linker_0, # of connection points: 2
#     Edge 19, Type (0, 1), BuildingBlock: CIFDUS_clean_linker_0, # of connection points: 2
#     Edge 20, Type (0, 1), BuildingBlock: CIFDUS_clean_linker_0, # of connection points: 2
#     Edge 21, Type (0, 1), BuildingBlock: CIFDUS_clean_linker_0, # of connection points: 2
#     Edge 22, Type (0, 1), BuildingBlock: CIFDUS_clean_linker_0, # of connection points: 2
#     Edge 23, Type (0, 1), BuildingBlock: CIFDUS_clean_linker_0, # of connection points: 2
#     Edge 24, Type (0, 1), BuildingBlock: CIFDUS_clean_linker_0, # of connection points: 2
#     Edge 25, Type (0, 1), BuildingBlock: CIFDUS_clean_linker_0, # of connection points: 2
#     Edge 26, Type (0, 1), BuildingBlock: CIFDUS_clean_linker_0, # of connection points: 2
#     Edge 27, Type (0, 1), BuildingBlock: CIFDUS_clean_linker_0, # of connection points: 2
#     Edge 28, Type (0, 1), BuildingBlock: CIFDUS_clean_linker_0, # of connection points: 2
#     Edge 29, Type (0, 1), BuildingBlock: CIFDUS_clean_linker_0, # of connection points: 2
#     Edge 30, Type (0, 1), BuildingBlock: CIFDUS_clean_linker_0, # of connection points: 2
#     Edge 31, Type (0, 1), BuildingBlock: CIFDUS_clean_linker_0, # of connection points: 2
#     Edge 32, Type (0, 1), BuildingBlock: CIFDUS_clean_linker_0, # of connection points: 2
#     Edge 33, Type (0, 1), BuildingBlock: CIFDUS_clean_linker_0, # of connection points: 2
#     Edge 34, Type (0, 1), BuildingBlock: CIFDUS_clean_linker_0, # of connection points: 2
#     Edge 35, Type (0, 1), BuildingBlock: CIFDUS_clean_linker_0, # of connection points: 2
#     Edge 36, Type (0, 1), BuildingBlock: CIFDUS_clean_linker_0, # of connection points: 2
#     Edge 37, Type (0, 1), BuildingBlock: CIFDUS_clean_linker_0, # of connection points: 2
# Relax obj value: 0.021
# Max RMSD: 0.155
# Mean RMSD: 0.073
data_MOF--net-pto--node1-NAWXER_clean_sbu_0--node2-CUQRIR_clean_linker_1--edge1-CIFDUS_clean_linker_0
_symmetry_space_group_name_H-M    P1
_symmetry_Int_Tables_number       1
_symmetry_cell_setting            triclinic
loop_
_symmetry_equiv_pos_as_xyz
'x, y, z'
_cell_length_a     33.909901
_cell_length_b     31.338443
_cell_length_c     29.644128
_cell_angle_alpha  78.543785
_cell_angle_beta   95.374915
_cell_angle_gamma 95.267414
loop_
_atom_site_label
_atom_site_type_symbol
_atom_site_fract_x
_atom_site_fract_y
_atom_site_fract_z
_atom_type_partial_charge
C0 C 0.30633 0.31385 0.23529 0.0
N1 N 0.33594 0.29258 0.22423 0.0
N2 N 0.29927 0.34975 0.20265 0.0
C3 C 0.28416 0.29948 0.2781 0.0
C4 C 0.3258 0.3496 0.17117 0.0
N5 N 0.34835 0.31484 0.18436 0.0
C6 C 0.33007 0.38371 0.12793 0.0
H7 H 0.28194 0.26344 0.28888 0.0
H8 H 0.25383 0.31112 0.27255 0.0
H9 H 0.30058 0.31346 0.30662 0.0
H10 H 0.35434 0.40842 0.13462 0.0
H11 H 0.30271 0.40093 0.11699 0.0
H12 H 0.33776 0.36875 0.09928 0.0
C13 C 0.32452 0.76329 0.72968 0.0
N14 N 0.35999 0.7778 0.74847 0.0
N15 N 0.31301 0.72293 0.7524 0.0
C16 C 0.301 0.78887 0.68934 0.0
C17 C 0.34279 0.7132 0.78563 0.0
N18 N 0.37177 0.74634 0.7829 0.0
C19 C 0.34333 0.67151 0.82107 0.0
H20 H 0.28673 0.81468 0.70127 0.0
H21 H 0.27747 0.76796 0.67398 0.0
H22 H 0.32103 0.80515 0.66247 0.0
H23 H 0.36172 0.64874 0.80965 0.0
H24 H 0.31313 0.65525 0.8254 0.0
H25 H 0.35671 0.67804 0.85488 0.0
C26 C 0.89279 0.77723 0.30457 0.0
N27 N 0.87627 0.75856 0.26897 0.0
N28 N 0.87051 0.8088 0.31145 0.0
C29 C 0.92836 0.7615 0.33551 0.0
C30 C 0.83985 0.80856 0.27868 0.0
N31 N 0.84324 0.77815 0.25288 0.0
C32 C 0.80533 0.83657 0.27334 0.0
H33 H 0.94413 0.78799 0.35148 0.0
H34 H 0.94929 0.7484 0.31599 0.0
H35 H 0.91822 0.73485 0.36354 0.0
H36 H 0.81339 0.86617 0.28845 0.0
H37 H 0.78027 0.81735 0.29128 0.0
H38 H 0.79515 0.84649 0.23637 0.0
C39 C 0.78968 0.23533 0.72881 0.0
N40 N 0.82304 0.24821 0.70614 0.0
N41 N 0.77218 0.27041 0.7361 0.0
C42 C 0.77383 0.18858 0.74325 0.0
C43 C 0.79585 0.30499 0.71632 0.0
N44 N 0.82651 0.29159 0.69786 0.0
C45 C 0.78938 0.35214 0.71523 0.0
H46 H 0.75368 0.17906 0.71462 0.0
H47 H 0.75695 0.18441 0.77432 0.0
H48 H 0.79791 0.16609 0.751 0.0
H49 H 0.75796 0.3565 0.7195 0.0
H50 H 0.79749 0.37283 0.68209 0.0
H51 H 0.80865 0.36373 0.74341 0.0
C52 C 0.78933 0.65445 0.84348 0.0
N53 N 0.81605 0.67745 0.81483 0.0
N54 N 0.75871 0.67863 0.84557 0.0
C55 C 0.79136 0.60721 0.86625 0.0
C56 C 0.76778 0.71719 0.8174 0.0
N57 N 0.80219 0.71625 0.79796 0.0
C58 C 0.74519 0.75732 0.81258 0.0
H59 H 0.80694 0.58943 0.84522 0.0
H60 H 0.76116 0.59107 0.87137 0.0
H61 H 0.80807 0.60517 0.90052 0.0
H62 H 0.73088 0.75747 0.8447 0.0
H63 H 0.72168 0.75758 0.78389 0.0
H64 H 0.76514 0.78751 0.80474 0.0
C65 C 0.78957 0.24124 0.25592 0.0
N66 N 0.8231 0.25374 0.28007 0.0
N67 N 0.78433 0.269 0.21507 0.0
C68 C 0.76162 0.20213 0.27265 0.0
C69 C 0.81593 0.29878 0.21498 0.0
N70 N 0.84002 0.28905 0.25429 0.0
C71 C 0.82292 0.33769 0.17686 0.0
H72 H 0.74217 0.19141 0.2443 0.0
H73 H 0.74223 0.21076 0.29709 0.0
H74 H 0.77856 0.17433 0.29107 0.0
H75 H 0.83523 0.36656 0.19143 0.0
H76 H 0.79545 0.34588 0.15477 0.0
H77 H 0.8448 0.33016 0.15454 0.0
C78 C 0.26646 0.24576 0.80879 0.0
N79 N 0.28528 0.21614 0.79286 0.0
N80 N 0.23368 0.2571 0.78087 0.0
C81 C 0.28229 0.26722 0.84873 0.0
C82 C 0.23343 0.23341 0.74723 0.0
N83 N 0.2652 0.20896 0.75406 0.0
C84 C 0.20088 0.23262 0.70918 0.0
H85 H 0.31338 0.2601 0.86065 0.0
H86 H 0.26354 0.25512 0.87801 0.0
H87 H 0.2806 0.30311 0.83891 0.0
H88 H 0.20852 0.25771 0.67863 0.0
H89 H 0.17239 0.24011 0.7204 0.0
H90 H 0.19715 0.20023 0.69888 0.0
C91 C 0.31742 0.75738 0.33679 0.0
N92 N 0.32268 0.73367 0.30439 0.0
N93 N 0.34667 0.78976 0.33746 0.0
C94 C 0.28255 0.75026 0.36622 0.0
C95 C 0.36982 0.78528 0.3042 0.0
N96 N 0.35509 0.75157 0.28375 0.0
C97 C 0.40532 0.81558 0.28936 0.0
H98 H 0.2811 0.77687 0.38545 0.0
H99 H 0.28515 0.71956 0.39201 0.0
H100 H 0.25441 0.74697 0.34442 0.0
H101 H 0.41818 0.8333 0.31674 0.0
H102 H 0.39597 0.83999 0.2586 0.0
H103 H 0.42855 0.79713 0.27957 0.0
C104 C 0.02155 0.4656 0.25678 0.0
C105 C 0.12949 0.57612 0.27905 0.0
O106 O 0.03755 0.47319 0.29521 0.0
Zn107 Zn 0.07195 0.52385 0.26985 0.0
O108 O 0.03096 0.49092 0.21913 0.0
Zn109 Zn 0.06994 0.54778 0.19721 0.0
O110 O 0.10216 0.52433 0.15785 0.0
O111 O 0.11105 0.49577 0.23221 0.0
O112 O 0.11638 0.57892 0.23665 0.0
O113 O 0.11138 0.54977 0.31016 0.0
O114 O 0.03083 0.57306 0.24614 0.0
O115 O 0.03457 0.59409 0.1712 0.0
C116 C 0.12 0.49863 0.19058 0.0
C117 C 0.01932 0.59725 0.20787 0.0
C118 C 1.00778 0.45645 0.73593 0.0
C119 C 0.11106 0.57385 0.75412 0.0
O120 O 0.0188 0.45944 0.77778 0.0
Zn121 Zn 0.05795 0.49884 0.81596 0.0
O122 O 0.0213 0.48498 0.70303 0.0
Zn123 Zn 0.05707 0.51784 0.74231 0.0
O124 O 0.0961 0.46827 0.7741 0.0
O125 O 0.09192 0.45488 0.84962 0.0
O126 O 0.095 0.56514 0.71613 0.0
O127 O 0.09939 0.55176 0.79229 0.0
O128 O 0.02304 0.52443 0.84872 0.0
O129 O 0.0163 0.54965 0.77367 0.0
C130 C 0.10641 0.44684 0.81438 0.0
C131 C 1.00632 0.54922 0.81448 0.0
C132 C 0.38302 0.99888 0.58179 0.0
C133 C 0.38493 0.11152 0.43965 0.0
O134 O 0.34862 1.00712 0.56172 0.0
Zn135 Zn 0.32282 0.04783 0.50094 0.0
O136 O 0.41408 0.0186 0.56404 0.0
Zn137 Zn 0.38587 0.05524 0.51182 0.0
O138 O 0.35387 0.09333 0.54743 0.0
O139 O 0.28992 0.08201 0.52686 0.0
O140 O 0.41458 0.09973 0.46742 0.0
O141 O 0.35017 0.0944 0.44876 0.0
O142 O 0.29723 1.00606 0.46626 0.0
O143 O 0.36271 1.00633 0.4723 0.0
C144 C 0.31755 0.10045 0.54977 0.0
C145 C 0.32859 0.99093 0.45759 0.0
C146 C 0.63295 0.7357 0.12384 0.0
C147 C 0.52619 0.74894 0.9995 0.0
O148 O 0.61275 0.69917 0.12304 0.0
Zn149 Zn 0.56171 0.67561 0.0832 0.0
O150 O 0.62149 0.76999 0.09715 0.0
Zn151 Zn 0.57589 0.74341 0.06493 0.0
O152 O 0.53002 0.72562 0.11257 0.0
O153 O 0.52268 0.65374 0.12746 0.0
O154 O 0.54826 0.77956 0.01333 0.0
O155 O 0.52807 0.7095 0.02196 0.0
O156 O 0.5861 0.63336 0.05758 0.0
O157 O 0.60538 0.70243 0.03016 0.0
C158 C 0.51254 0.69007 0.13341 0.0
C159 C 0.60684 0.66157 0.03087 0.0
C160 C 0.83282 0.93126 0.61024 0.0
C161 C 0.83753 0.06393 0.49322 0.0
O162 O 0.80462 0.95239 0.58807 0.0
Zn163 Zn 0.83517 0.99829 0.55187 0.0
O164 O 0.86891 0.94626 0.60434 0.0
Zn165 Zn 0.89814 1.0023 0.56133 0.0
O166 O 0.9246 0.03765 0.60528 0.0
O167 O 0.85941 0.03944 0.59788 0.0
O168 O 0.87246 0.05323 0.50936 0.0
O169 O 0.80719 0.03999 0.5076 0.0
O170 O 0.86339 0.96444 0.50969 0.0
O171 O 0.92834 0.97442 0.52313 0.0
C172 C 0.89333 0.05235 0.61503 0.0
C173 C 0.89849 0.9576 0.50165 0.0
C174 C 0.60652 0.23327 0.03078 0.0
C175 C 0.49909 0.23118 0.90983 0.0
O176 O 0.5877 0.19945 0.01953 0.0
Zn177 Zn 0.55221 0.23071 0.97126 0.0
O178 O 0.59777 0.27123 0.00938 0.0
Zn179 Zn 0.5583 0.30022 0.9545 0.0
O180 O 0.52875 0.33394 0.98576 0.0
O181 O 0.51708 0.26302 0.00964 0.0
O182 O 0.5138 0.26984 0.91263 0.0
O183 O 0.51213 0.19848 0.93797 0.0
O184 O 0.59322 0.25794 0.91977 0.0
O185 O 0.59569 0.3298 0.9111 0.0
C186 C 0.51113 0.30234 0.01205 0.0
C187 C 0.60744 0.29587 0.90068 0.0
H188 H 0.23788 0.37278 0.14029 0.0
H189 H 0.29802 0.39728 0.26811 0.0
H190 H 0.24779 0.44643 0.27521 0.0
H191 H 0.18557 0.4799 0.24666 0.0
H192 H 0.12687 0.4603 0.1162 0.0
H193 H 0.1782 0.41257 0.10758 0.0
C194 C 0.24029 0.38978 0.16902 0.0
C195 C 0.27155 0.38175 0.20364 0.0
C196 C 0.21162 0.41863 0.17231 0.0
C197 C 0.27409 0.40307 0.24128 0.0
C198 C 0.24545 0.43109 0.24526 0.0
C199 C 0.18411 0.46532 0.2162 0.0
C200 C 0.15231 0.47309 0.18235 0.0
C201 C 0.21387 0.43867 0.2113 0.0
C202 C 0.1511 0.45471 0.14269 0.0
C203 C 0.18033 0.42732 0.13791 0.0
H204 H 0.25176 0.70619 0.80502 0.0
H205 H 0.29382 0.68224 0.68074 0.0
H206 H 0.23259 0.63658 0.66695 0.0
H207 H 0.16833 0.60044 0.69317 0.0
H208 H 0.12859 0.62247 0.82013 0.0
H209 H 0.18707 0.67213 0.82995 0.0
C210 C 0.24718 0.69089 0.77501 0.0
C211 C 0.27684 0.69699 0.74401 0.0
C212 C 0.21228 0.66451 0.76783 0.0
C213 C 0.27107 0.67753 0.70495 0.0
C214 C 0.23618 0.65159 0.69716 0.0
C215 C 0.17225 0.61672 0.7225 0.0
C216 C 0.14417 0.60785 0.75583 0.0
C217 C 0.20666 0.64449 0.72864 0.0
C218 C 0.14987 0.62867 0.79407 0.0
C219 C 0.18334 0.657 0.79981 0.0
H220 H 0.91637 0.75881 0.19494 0.0
H221 H 0.87008 0.67598 0.31482 0.0
H222 H 0.90908 0.61679 0.30502 0.0
H223 H 0.96232 0.59207 0.26772 0.0
H224 H 1.00864 0.67414 0.14679 0.0
H225 H 0.96386 0.73005 0.15119 0.0
C226 C 0.91394 0.72718 0.21774 0.0
C227 C 0.89019 0.72129 0.25526 0.0
C228 C 0.93716 0.69364 0.21223 0.0
C229 C 0.88775 0.68068 0.28539 0.0
C230 C 0.91042 0.64717 0.28007 0.0
C231 C 0.96236 0.62203 0.24205 0.0
C232 C 0.98925 0.62915 0.20737 0.0
C233 C 0.93624 0.65379 0.24455 0.0
C234 C 0.98841 0.66786 0.17394 0.0
C235 C 0.96282 0.6999 0.1765 0.0
H236 H 0.89313 0.28639 0.75166 0.0
H237 H 0.84017 0.35658 0.62456 0.0
H238 H 0.89529 0.41367 0.62151 0.0
H239 H 0.95349 0.44842 0.66218 0.0
H240 H 1.00302 0.37762 0.79203 0.0
H241 H 0.95497 0.31604 0.78686 0.0
C242 C 0.89463 0.31352 0.7226 0.0
C243 C 0.86299 0.31778 0.68858 0.0
C244 C 0.92543 0.34658 0.7222 0.0
C245 C 0.86447 0.35306 0.65113 0.0
C246 C 0.89572 0.38575 0.6497 0.0
C247 C 0.95405 0.4192 0.68882 0.0
C248 C 0.98126 0.41801 0.72786 0.0
C249 C 0.92558 0.38378 0.68615 0.0
C250 C 0.98181 0.37982 0.76209 0.0
C251 C 0.95445 0.3444 0.75915 0.0
H252 H 0.39658 0.28486 0.28978 0.0
H253 H 0.30421 0.212 0.22141 0.0
H254 H 0.31449 0.14662 0.28072 0.0
H255 H 0.34287 0.11393 0.35759 0.0
H256 H 0.43552 0.18576 0.42743 0.0
H257 H 0.43265 0.24774 0.36213 0.0
C258 C 0.37996 0.25408 0.28724 0.0
C259 C 0.35014 0.25267 0.25111 0.0
C260 C 0.38558 0.2169 0.32222 0.0
C261 C 0.32785 0.21318 0.24845 0.0
C262 C 0.3334 0.17613 0.28266 0.0
C263 C 0.36295 0.14288 0.35812 0.0
C264 C 0.38902 0.14557 0.39744 0.0
C265 C 0.3611 0.17811 0.32057 0.0
C266 C 0.41522 0.18297 0.39752 0.0
C267 C 0.41339 0.21847 0.36029 0.0
H268 H 0.39486 0.80501 0.83727 0.0
H269 H 0.42799 0.68928 0.79748 0.0
H270 H 0.47956 0.67979 0.8614 0.0
H271 H 0.5108 0.70055 0.933 0.0
H272 H 0.48124 0.81878 0.97103 0.0
H273 H 0.43287 0.83148 0.90369 0.0
C274 C 0.41422 0.77854 0.84204 0.0
C275 C 0.4075 0.74749 0.81329 0.0
C276 C 0.44386 0.77336 0.87905 0.0
C277 C 0.43252 0.71315 0.81969 0.0
C278 C 0.4618 0.70764 0.8563 0.0
C279 C 0.49385 0.72917 0.92635 0.0
C280 C 0.49895 0.75827 0.95726 0.0
C281 C 0.46689 0.73674 0.88707 0.0
C282 C 0.47755 0.79578 0.9478 0.0
C283 C 0.44992 0.80303 0.90932 0.0
H284 H 0.92901 0.86598 0.33683 0.0
H285 H 0.817 0.79835 0.3743 0.0
H286 H 0.81668 0.83752 0.43784 0.0
H287 H 0.84647 0.89322 0.48018 0.0
H288 H 0.95995 0.9598 0.4464 0.0
H289 H 0.96217 0.9183 0.38459 0.0
C290 C 0.90498 0.85956 0.3595 0.0
C291 C 0.87284 0.8297 0.35092 0.0
C292 C 0.90532 0.88197 0.39642 0.0
C293 C 0.84168 0.8216 0.38015 0.0
C294 C 0.84158 0.84389 0.41643 0.0
C295 C 0.87185 0.89855 0.45947 0.0
C296 C 0.90281 0.92989 0.4675 0.0
C297 C 0.87292 0.87455 0.42445 0.0
C298 C 0.93576 0.93586 0.44089 0.0
C299 C 0.9369 0.91229 0.40542 0.0
H300 H 0.76701 0.31548 0.80339 0.0
H301 H 0.70009 0.2271 0.72557 0.0
H302 H 0.64274 0.22639 0.7703 0.0
H303 H 0.61195 0.25085 0.83235 0.0
H304 H 0.67592 0.34772 0.90165 0.0
H305 H 0.73371 0.3468 0.85819 0.0
C306 C 0.73961 0.29679 0.7956 0.0
C307 C 0.73792 0.27104 0.76152 0.0
C308 C 0.70618 0.29854 0.8196 0.0
C309 C 0.7024 0.24638 0.75234 0.0
C310 C 0.66952 0.24634 0.77757 0.0
C311 C 0.63845 0.27209 0.83739 0.0
C312 C 0.63991 0.29926 0.87008 0.0
C313 C 0.67111 0.27223 0.81139 0.0
C314 C 0.67414 0.32686 0.87631 0.0
C315 C 0.70723 0.32607 0.85177 0.0
H316 H 0.33885 0.85645 0.75185 0.0
H317 H 0.42662 0.78987 0.70333 0.0
H318 H 0.44768 0.85736 0.65057 0.0
H319 H 0.4311 0.93108 0.60778 0.0
H320 H 0.33782 0.99361 0.65273 0.0
H321 H 0.32897 0.93279 0.71735 0.0
C322 C 0.36367 0.85752 0.73097 0.0
C323 C 0.38134 0.81874 0.73125 0.0
C324 C 0.37384 0.89563 0.69924 0.0
C325 C 0.41307 0.81972 0.70385 0.0
C326 C 0.42457 0.8581 0.67323 0.0
C327 C 0.40977 0.9318 0.63264 0.0
C328 C 0.38498 0.96657 0.62551 0.0
C329 C 0.40375 0.89569 0.66895 0.0
C330 C 0.35702 0.96701 0.65747 0.0
C331 C 0.35189 0.93222 0.69437 0.0
H332 H 0.78117 0.72036 0.27164 0.0
H333 H 0.83503 0.8113 0.16234 0.0
H334 H 0.77359 0.80724 0.11193 0.0
H335 H 0.70238 0.78268 0.10189 0.0
H336 H 0.64909 0.68936 0.21055 0.0
H337 H 0.71193 0.68963 0.25866 0.0
C338 C 0.77967 0.73785 0.23615 0.0
C339 C 0.81261 0.76535 0.2201 0.0
C340 C 0.74393 0.73593 0.20796 0.0
C341 C 0.81026 0.7891 0.17469 0.0
C342 C 0.77495 0.78732 0.14631 0.0
C343 C 0.70456 0.76259 0.1362 0.0
C344 C 0.6709 0.7368 0.15312 0.0
C345 C 0.74119 0.76186 0.16307 0.0
C346 C 0.67443 0.70993 0.19706 0.0
C347 C 0.71041 0.7099 0.22446 0.0
H348 H 0.86813 0.18143 0.74543 0.0
H349 H 0.82441 0.25573 0.61523 0.0
H350 H 0.84838 0.20379 0.5743 0.0
H351 H 0.87269 0.13208 0.57671 0.0
H352 H 0.91453 0.05502 0.7063 0.0
H353 H 0.90061 0.1128 0.74674 0.0
C354 C 0.8644 0.18621 0.7081 0.0
C355 C 0.84384 0.22163 0.68314 0.0
C356 C 0.87761 0.15555 0.685 0.0
C357 C 0.83992 0.22845 0.63482 0.0
C358 C 0.85338 0.19866 0.61158 0.0
C359 C 0.87978 0.12858 0.61369 0.0
C360 C 0.89479 0.08973 0.63864 0.0
C361 C 0.87098 0.16137 0.63642 0.0
C362 C 0.90349 0.08502 0.68648 0.0
C363 C 0.89514 0.11786 0.70953 0.0
H364 H 0.41152 0.36639 0.15273 0.0
H365 H 0.35303 0.23792 0.1578 0.0
H366 H 0.40013 0.22138 0.10704 0.0
H367 H 0.45482 0.24573 0.05631 0.0
H368 H 0.50835 0.37743 0.04478 0.0
H369 H 0.46557 0.3911 0.10148 0.0
C370 C 0.40913 0.33485 0.14256 0.0
C371 C 0.37893 0.30336 0.15906 0.0
C372 C 0.43497 0.32654 0.11142 0.0
C373 C 0.37651 0.26231 0.14639 0.0
C374 C 0.40308 0.25314 0.11678 0.0
C375 C 0.45721 0.27739 0.0663 0.0
C376 C 0.48473 0.31055 0.04616 0.0
C377 C 0.43196 0.28532 0.09835 0.0
C378 C 0.48725 0.35145 0.05938 0.0
C379 C 0.46292 0.35923 0.092 0.0
H380 H 0.8731 0.64723 0.87783 0.0
H381 H 0.84105 0.67406 0.73171 0.0
H382 H 0.89971 0.63925 0.71792 0.0
H383 H 0.95653 0.5953 0.74869 0.0
H384 H 0.98531 0.5647 0.89602 0.0
H385 H 0.93121 0.60624 0.90834 0.0
C386 C 0.87931 0.64558 0.84303 0.0
C387 C 0.85301 0.66276 0.80582 0.0
C388 C 0.91207 0.6243 0.83578 0.0
C389 C 0.86122 0.66122 0.76071 0.0
C390 C 0.89446 0.64097 0.75299 0.0
C391 C 0.95118 0.598 0.78347 0.0
C392 C 0.97484 0.5766 0.82141 0.0
C393 C 0.91957 0.62147 0.79041 0.0
C394 C 0.96744 0.58049 0.86623 0.0
C395 C 0.93654 0.60432 0.87333 0.0
H396 H 0.90307 0.31302 0.20488 0.0
H397 H 0.85627 0.32182 0.33229 0.0
H398 H 0.91154 0.37478 0.34767 0.0
H399 H 0.96915 0.42487 0.31977 0.0
H400 H 1.01046 0.42022 0.18761 0.0
H401 H 0.9612 0.36027 0.17852 0.0
C402 C 0.90516 0.32659 0.23599 0.0
C403 C 0.87559 0.31424 0.26709 0.0
C404 C 0.93574 0.35833 0.24326 0.0
C405 C 0.87892 0.33091 0.30799 0.0
C406 C 0.91023 0.36148 0.31645 0.0
C407 C 0.96754 0.41032 0.28931 0.0
C408 C 0.99319 0.42718 0.25424 0.0
C409 C 0.93821 0.37644 0.28362 0.0
C410 C 0.99072 0.40819 0.21481 0.0
C411 C 0.96266 0.3738 0.20963 0.0
H412 H 0.19542 0.27318 0.85062 0.0
H413 H 0.22318 0.32445 0.71042 0.0
H414 H 0.18733 0.38881 0.70919 0.0
H415 H 0.14831 0.43016 0.74768 0.0
H416 H 0.12175 0.3814 0.88909 0.0
H417 H 0.15829 0.31705 0.89094 0.0
C418 C 0.19359 0.29864 0.82003 0.0
C419 C 0.21115 0.29393 0.78036 0.0
C420 C 0.1738 0.33613 0.82008 0.0
C421 C 0.20879 0.32693 0.74078 0.0
C422 C 0.18879 0.36391 0.74031 0.0
C423 C 0.15064 0.40565 0.7791 0.0
C424 C 0.13219 0.4105 0.81814 0.0
C425 C 0.1712 0.3688 0.77972 0.0
C426 C 0.13583 0.37854 0.85861 0.0
C427 C 0.15645 0.3416 0.85957 0.0
H428 H 0.29197 0.66057 0.35673 0.0
H429 H 0.28731 0.73631 0.21866 0.0
H430 H 0.22718 0.69257 0.1977 0.0
H431 H 0.17207 0.63831 0.22138 0.0
H432 H 0.17325 0.56794 0.36233 0.0
H433 H 0.23749 0.60543 0.38022 0.0
C434 C 0.2778 0.66716 0.32202 0.0
C435 C 0.29378 0.70167 0.28933 0.0
C436 C 0.24192 0.64383 0.31129 0.0
C437 C 0.27584 0.70949 0.24415 0.0
C438 C 0.24107 0.68502 0.2325 0.0
C439 C 0.18628 0.63118 0.25608 0.0
C440 C 0.16752 0.60059 0.29058 0.0
C441 C 0.22313 0.65311 0.26624 0.0
C442 C 0.18663 0.59168 0.33524 0.0
C443 C 0.22357 0.61285 0.34542 0.0
H444 H 0.7639 0.75074 0.71906 0.0
H445 H 0.87588 0.75825 0.79904 0.0
H446 H 0.89729 0.82526 0.74544 0.0
H447 H 0.88053 0.88567 0.67989 0.0
H448 H 0.76462 0.87961 0.60633 0.0
H449 H 0.74784 0.80879 0.65382 0.0
C450 C 0.79315 0.76698 0.72428 0.0
C451 C 0.81826 0.75012 0.76272 0.0
C452 C 0.80404 0.80626 0.69506 0.0
C453 C 0.85627 0.77074 0.76933 0.0
C454 C 0.86818 0.80923 0.73906 0.0
C455 C 0.85169 0.86871 0.67428 0.0
C456 C 0.82373 0.88819 0.63989 0.0
C457 C 0.84178 0.82802 0.70252 0.0
C458 C 0.78649 0.86578 0.63295 0.0
C459 C 0.77691 0.82508 0.65988 0.0
H460 H 0.76248 0.2081 0.16394 0.0
H461 H 0.73068 0.3288 0.19372 0.0
H462 H 0.67149 0.32767 0.13957 0.0
H463 H 0.62931 0.29219 0.08426 0.0
H464 H 0.65763 0.16841 0.05799 0.0
H465 H 0.71721 0.1697 0.11172 0.0
C466 C 0.74237 0.23396 0.15829 0.0
C467 C 0.75073 0.26882 0.18187 0.0
C468 C 0.70777 0.23202 0.12861 0.0
C469 C 0.72477 0.3022 0.17506 0.0
C470 C 0.69096 0.30128 0.14458 0.0
C471 C 0.64841 0.26533 0.09051 0.0
C472 C 0.6394 0.23037 0.06714 0.0
C473 C 0.68219 0.26632 0.12129 0.0
C474 C 0.66397 0.19551 0.07589 0.0
C475 C 0.69813 0.19647 0.10622 0.0
H476 H 0.27075 0.23558 0.66286 0.0
H477 H 0.2887 0.12694 0.77508 0.0
H478 H 0.30915 0.08417 0.7216 0.0
H479 H 0.31912 0.07696 0.64201 0.0
H480 H 0.29428 0.18303 0.529 0.0
H481 H 0.2781 0.22754 0.58325 0.0
C482 C 0.27848 0.20229 0.67537 0.0
C483 C 0.27795 0.18418 0.72268 0.0
C484 C 0.28863 0.17756 0.64419 0.0
C485 C 0.28932 0.14157 0.73885 0.0
C486 C 0.30065 0.11708 0.70825 0.0
C487 C 0.31017 0.10987 0.62955 0.0
C488 C 0.30786 0.12711 0.58201 0.0
C489 C 0.30006 0.13463 0.6608 0.0
C490 C 0.2961 0.16946 0.56566 0.0
C491 C 0.28696 0.19477 0.59659 0.0
H492 H 0.39357 0.67968 0.28811 0.0
H493 H 0.35717 0.79643 0.19718 0.0
H494 H 0.40262 0.78718 0.14087 0.0
H495 H 0.45845 0.75057 0.12214 0.0
H496 H 0.49404 0.63218 0.21164 0.0
H497 H 0.44355 0.63709 0.26403 0.0
C498 C 0.39472 0.70198 0.25515 0.0
C499 C 0.37214 0.73854 0.24637 0.0
C500 C 0.42156 0.69674 0.22343 0.0
C501 C 0.37416 0.76791 0.2041 0.0
C502 C 0.40047 0.76289 0.17232 0.0
C503 C 0.45498 0.72576 0.15303 0.0
C504 C 0.4804 0.69154 0.16354 0.0
C505 C 0.42537 0.72833 0.1824 0.0
C506 C 0.47502 0.65904 0.20306 0.0
C507 C 0.44612 0.66181 0.23298 0.0
H508 H 0.78633 0.23407 0.35779 0.0
H509 H 0.8942 0.21945 0.29888 0.0
H510 H 0.91117 0.16095 0.36446 0.0
H511 H 0.88908 0.10613 0.43124 0.0
H512 H 0.77539 0.11463 0.48192 0.0
H513 H 0.76589 0.18225 0.4262 0.0
C514 C 0.81384 0.2184 0.36002 0.0
C515 C 0.83875 0.23016 0.3237 0.0
C516 C 0.82145 0.18273 0.39546 0.0
C517 C 0.87476 0.2107 0.32677 0.0
C518 C 0.88399 0.17684 0.36375 0.0
C519 C 0.8624 0.12304 0.43019 0.0
C520 C 0.83267 0.10521 0.46006 0.0
C521 C 0.85657 0.16119 0.39705 0.0
C522 C 0.79828 0.12734 0.45859 0.0
C523 C 0.79299 0.16616 0.42706 0.0
H524 H 0.35291 0.25741 0.76447 0.0
H525 H 0.30382 0.1486 0.86002 0.0
H526 H 0.36943 0.13831 0.90163 0.0
H527 H 0.43789 0.16848 0.91763 0.0
H528 H 0.48436 0.28304 0.82631 0.0
H529 H 0.42324 0.28298 0.77577 0.0
C530 C 0.35729 0.23062 0.79342 0.0
C531 C 0.32438 0.20331 0.80915 0.0
C532 C 0.39445 0.22664 0.81828 0.0
C533 C 0.32933 0.16932 0.84732 0.0
C534 C 0.36661 0.16387 0.87122 0.0
C535 C 0.43491 0.1927 0.88605 0.0
C536 C 0.46531 0.2259 0.87579 0.0
C537 C 0.39904 0.19348 0.85811 0.0
C538 C 0.46108 0.25743 0.83507 0.0
C539 C 0.42617 0.25744 0.80619 0.0
H540 H 0.29476 0.85039 0.33003 0.0
H541 H 0.40453 0.80675 0.40114 0.0
H542 H 0.40966 0.86682 0.44397 0.0
H543 H 0.38206 0.93102 0.46151 0.0
H544 H 0.26923 0.97114 0.39474 0.0
H545 H 0.26556 0.91284 0.35014 0.0
C546 C 0.31957 0.8542 0.35515 0.0
C547 C 0.34933 0.82473 0.36268 0.0
C548 C 0.32156 0.8879 0.38033 0.0
C549 C 0.38155 0.82951 0.39497 0.0
C550 C 0.38434 0.86363 0.41937 0.0
C551 C 0.35675 0.92705 0.43707 0.0
C552 C 0.32607 0.95543 0.43113 0.0
C553 C 0.35446 0.89297 0.41236 0.0
C554 C 0.29315 0.94959 0.39991 0.0
C555 C 0.29109 0.91638 0.37436 0.0
H556 H 0.75882 0.64369 0.936 0.0
H557 H 0.68227 0.6879 0.81464 0.0
H558 H 0.62567 0.68139 0.86168 0.0
H559 H 0.60059 0.67235 0.93857 0.0
H560 H 0.67609 0.62487 0.05977 0.0
H561 H 0.73048 0.62191 0.01171 0.0
C562 C 0.72948 0.65057 0.91988 0.0
C563 C 0.72465 0.66717 0.87225 0.0
C564 C 0.69709 0.64614 0.94712 0.0
C565 C 0.68662 0.67618 0.85151 0.0
C566 C 0.65434 0.67229 0.87831 0.0
C567 C 0.6286 0.65999 0.95409 0.0
C568 C 0.63466 0.64855 1.00221 0.0
C569 C 0.65955 0.65869 0.92631 0.0
C570 C 0.67094 0.63315 0.02254 0.0
C571 C 0.70205 0.63194 0.99515 0.0
loop_
_geom_bond_atom_site_label_1
_geom_bond_atom_site_label_2
_geom_bond_distance
_geom_bond_site_symmetry_2
_ccdc_geom_bond_type
C0 N1 1.317 . S
C0 N2 1.348 . S
C0 C3 1.485 . S
N1 C0 1.317 . S
N1 N5 1.370 . S
N2 C0 1.348 . S
N2 C4 1.346 . S
C3 C0 1.485 . S
C3 H7 0.960 . S
C3 H8 0.961 . S
C3 H9 0.960 . S
C4 N2 1.346 . S
C4 N5 1.307 . S
C4 C6 1.486 . S
N5 N1 1.370 . S
N5 C4 1.307 . S
C6 C4 1.486 . S
C6 H10 0.960 . S
C6 H11 0.960 . S
C6 H12 0.959 . S
H7 C3 0.960 . S
H8 C3 0.961 . S
H9 C3 0.960 . S
H10 C6 0.960 . S
H11 C6 0.960 . S
H12 C6 0.959 . S
C13 N14 1.317 . S
C13 N15 1.348 . S
C13 C16 1.485 . S
N14 C13 1.317 . S
N14 N18 1.370 . S
N15 C13 1.348 . S
N15 C17 1.346 . S
C16 C13 1.485 . S
C16 H20 0.960 . S
C16 H21 0.961 . S
C16 H22 0.960 . S
C17 N15 1.346 . S
C17 N18 1.307 . S
C17 C19 1.486 . S
N18 N14 1.370 . S
N18 C17 1.307 . S
C19 C17 1.486 . S
C19 H23 0.960 . S
C19 H24 0.960 . S
C19 H25 0.959 . S
H20 C16 0.960 . S
H21 C16 0.961 . S
H22 C16 0.960 . S
H23 C19 0.960 . S
H24 C19 0.960 . S
H25 C19 0.959 . S
C26 N27 1.317 . S
C26 N28 1.348 . S
C26 C29 1.485 . S
N27 C26 1.317 . S
N27 N31 1.370 . S
N28 C26 1.348 . S
N28 C30 1.346 . S
C29 C26 1.485 . S
C29 H33 0.960 . S
C29 H34 0.961 . S
C29 H35 0.960 . S
C30 N28 1.346 . S
C30 N31 1.307 . S
C30 C32 1.486 . S
N31 N27 1.370 . S
N31 C30 1.307 . S
C32 C30 1.486 . S
C32 H36 0.960 . S
C32 H37 0.960 . S
C32 H38 0.959 . S
H33 C29 0.960 . S
H34 C29 0.961 . S
H35 C29 0.960 . S
H36 C32 0.960 . S
H37 C32 0.960 . S
H38 C32 0.959 . S
C39 N40 1.317 . S
C39 N41 1.348 . S
C39 C42 1.485 . S
N40 C39 1.317 . S
N40 N44 1.370 . S
N41 C39 1.348 . S
N41 C43 1.346 . S
C42 C39 1.485 . S
C42 H46 0.960 . S
C42 H47 0.961 . S
C42 H48 0.960 . S
C43 N41 1.346 . S
C43 N44 1.307 . S
C43 C45 1.486 . S
N44 N40 1.370 . S
N44 C43 1.307 . S
C45 C43 1.486 . S
C45 H49 0.960 . S
C45 H50 0.960 . S
C45 H51 0.959 . S
H46 C42 0.960 . S
H47 C42 0.961 . S
H48 C42 0.960 . S
H49 C45 0.960 . S
H50 C45 0.960 . S
H51 C45 0.959 . S
C52 N53 1.317 . S
C52 N54 1.348 . S
C52 C55 1.485 . S
N53 C52 1.317 . S
N53 N57 1.370 . S
N54 C52 1.348 . S
N54 C56 1.346 . S
C55 C52 1.485 . S
C55 H59 0.960 . S
C55 H60 0.961 . S
C55 H61 0.960 . S
C56 N54 1.346 . S
C56 N57 1.307 . S
C56 C58 1.486 . S
N57 N53 1.370 . S
N57 C56 1.307 . S
C58 C56 1.486 . S
C58 H62 0.960 . S
C58 H63 0.960 . S
C58 H64 0.959 . S
H59 C55 0.960 . S
H60 C55 0.961 . S
H61 C55 0.960 . S
H62 C58 0.960 . S
H63 C58 0.960 . S
H64 C58 0.959 . S
C65 N66 1.317 . S
C65 N67 1.348 . S
C65 C68 1.485 . S
N66 C65 1.317 . S
N66 N70 1.370 . S
N67 C65 1.348 . S
N67 C69 1.346 . S
C68 C65 1.485 . S
C68 H72 0.960 . S
C68 H73 0.961 . S
C68 H74 0.960 . S
C69 N67 1.346 . S
C69 N70 1.307 . S
C69 C71 1.486 . S
N70 N66 1.370 . S
N70 C69 1.307 . S
C71 C69 1.486 . S
C71 H75 0.960 . S
C71 H76 0.960 . S
C71 H77 0.959 . S
H72 C68 0.960 . S
H73 C68 0.961 . S
H74 C68 0.960 . S
H75 C71 0.960 . S
H76 C71 0.960 . S
H77 C71 0.959 . S
C78 N79 1.317 . S
C78 N80 1.348 . S
C78 C81 1.485 . S
N79 C78 1.317 . S
N79 N83 1.370 . S
N80 C78 1.348 . S
N80 C82 1.346 . S
C81 C78 1.485 . S
C81 H85 0.960 . S
C81 H86 0.961 . S
C81 H87 0.960 . S
C82 N80 1.346 . S
C82 N83 1.307 . S
C82 C84 1.486 . S
N83 N79 1.370 . S
N83 C82 1.307 . S
C84 C82 1.486 . S
C84 H88 0.960 . S
C84 H89 0.960 . S
C84 H90 0.959 . S
H85 C81 0.960 . S
H86 C81 0.961 . S
H87 C81 0.960 . S
H88 C84 0.960 . S
H89 C84 0.960 . S
H90 C84 0.959 . S
C91 N92 1.317 . S
C91 N93 1.348 . S
C91 C94 1.485 . S
N92 C91 1.317 . S
N92 N96 1.370 . S
N93 C91 1.348 . S
N93 C95 1.346 . S
C94 C91 1.485 . S
C94 H98 0.960 . S
C94 H99 0.961 . S
C94 H100 0.960 . S
C95 N93 1.346 . S
C95 N96 1.307 . S
C95 C97 1.486 . S
N96 N92 1.370 . S
N96 C95 1.307 . S
C97 C95 1.486 . S
C97 H101 0.960 . S
C97 H102 0.960 . S
C97 H103 0.959 . S
H98 C94 0.960 . S
H99 C94 0.961 . S
H100 C94 0.960 . S
H101 C97 0.960 . S
H102 C97 0.960 . S
H103 C97 0.959 . S
C104 O106 1.247 . S
C104 O108 1.258 . S
C105 O112 1.247 . S
C105 O113 1.258 . S
O106 C104 1.247 . S
O106 Zn107 2.028 . S
Zn107 O106 2.028 . S
Zn107 O111 2.035 . S
Zn107 O113 2.035 . S
Zn107 O114 2.028 . S
O108 C104 1.258 . S
O108 Zn109 2.035 . S
Zn109 O108 2.035 . S
Zn109 O110 2.028 . S
Zn109 O112 2.028 . S
Zn109 O115 2.035 . S
O110 Zn109 2.028 . S
O110 C116 1.247 . S
O111 Zn107 2.035 . S
O111 C116 1.258 . S
O112 C105 1.247 . S
O112 Zn109 2.028 . S
O113 C105 1.258 . S
O113 Zn107 2.035 . S
O114 Zn107 2.028 . S
O114 C117 1.247 . S
O115 Zn109 2.035 . S
O115 C117 1.258 . S
C116 O110 1.247 . S
C116 O111 1.258 . S
C117 O114 1.247 . S
C117 O115 1.258 . S
C118 O120 1.247 . S
C118 O122 1.258 . S
C119 O126 1.247 . S
C119 O127 1.258 . S
O120 C118 1.247 . S
O120 Zn121 2.028 1_655 S
Zn121 O120 2.028 1_455 S
Zn121 O125 2.035 . S
Zn121 O127 2.035 . S
Zn121 O128 2.028 1_455 S
O122 C118 1.258 . S
O122 Zn123 2.035 1_655 S
Zn123 O122 2.035 1_455 S
Zn123 O124 2.028 . S
Zn123 O126 2.028 . S
Zn123 O129 2.035 1_455 S
O124 Zn123 2.028 . S
O124 C130 1.247 . S
O125 Zn121 2.035 . S
O125 C130 1.258 . S
O126 C119 1.247 . S
O126 Zn123 2.028 . S
O127 C119 1.258 . S
O127 Zn121 2.035 . S
O128 Zn121 2.028 1_655 S
O128 C131 1.247 . S
O129 Zn123 2.035 1_655 S
O129 C131 1.258 . S
C130 O124 1.247 . S
C130 O125 1.258 . S
C131 O128 1.247 . S
C131 O129 1.258 . S
C132 O134 1.247 . S
C132 O136 1.258 . S
C133 O140 1.247 . S
C133 O141 1.258 . S
O134 C132 1.247 . S
O134 Zn135 2.028 1_565 S
Zn135 O134 2.028 1_545 S
Zn135 O139 2.035 . S
Zn135 O141 2.035 . S
Zn135 O142 2.028 1_545 S
O136 C132 1.258 . S
O136 Zn137 2.035 1_565 S
Zn137 O136 2.035 1_545 S
Zn137 O138 2.028 . S
Zn137 O140 2.028 . S
Zn137 O143 2.035 1_545 S
O138 Zn137 2.028 . S
O138 C144 1.247 . S
O139 Zn135 2.035 . S
O139 C144 1.258 . S
O140 C133 1.247 . S
O140 Zn137 2.028 . S
O141 C133 1.258 . S
O141 Zn135 2.035 . S
O142 Zn135 2.028 1_565 S
O142 C145 1.247 . S
O143 Zn137 2.035 1_565 S
O143 C145 1.258 . S
C144 O138 1.247 . S
C144 O139 1.258 . S
C145 O142 1.247 . S
C145 O143 1.258 . S
C146 O148 1.247 . S
C146 O150 1.258 . S
C147 O154 1.247 . S
C147 O155 1.258 . S
O148 C146 1.247 . S
O148 Zn149 2.028 . S
Zn149 O148 2.028 . S
Zn149 O153 2.035 . S
Zn149 O155 2.035 . S
Zn149 O156 2.028 . S
O150 C146 1.258 . S
O150 Zn151 2.035 . S
Zn151 O150 2.035 . S
Zn151 O152 2.028 . S
Zn151 O154 2.028 . S
Zn151 O157 2.035 . S
O152 Zn151 2.028 . S
O152 C158 1.247 . S
O153 Zn149 2.035 . S
O153 C158 1.258 . S
O154 C147 1.247 . S
O154 Zn151 2.028 . S
O155 C147 1.258 . S
O155 Zn149 2.035 . S
O156 Zn149 2.028 . S
O156 C159 1.247 . S
O157 Zn151 2.035 . S
O157 C159 1.258 . S
C158 O152 1.247 . S
C158 O153 1.258 . S
C159 O156 1.247 . S
C159 O157 1.258 . S
C160 O162 1.247 . S
C160 O164 1.258 . S
C161 O168 1.247 . S
C161 O169 1.258 . S
O162 C160 1.247 . S
O162 Zn163 2.028 1_565 S
Zn163 O162 2.028 1_545 S
Zn163 O167 2.035 . S
Zn163 O169 2.035 . S
Zn163 O170 2.028 1_545 S
O164 C160 1.258 . S
O164 Zn165 2.035 1_565 S
Zn165 O164 2.035 1_545 S
Zn165 O166 2.028 . S
Zn165 O168 2.028 . S
Zn165 O171 2.035 1_545 S
O166 Zn165 2.028 . S
O166 C172 1.247 . S
O167 Zn163 2.035 . S
O167 C172 1.258 . S
O168 C161 1.247 . S
O168 Zn165 2.028 . S
O169 C161 1.258 . S
O169 Zn163 2.035 . S
O170 Zn163 2.028 1_565 S
O170 C173 1.247 . S
O171 Zn165 2.035 1_565 S
O171 C173 1.258 . S
C172 O166 1.247 . S
C172 O167 1.258 . S
C173 O170 1.247 . S
C173 O171 1.258 . S
C174 O176 1.247 . S
C174 O178 1.258 . S
C175 O182 1.247 . S
C175 O183 1.258 . S
O176 C174 1.247 . S
O176 Zn177 2.028 . S
Zn177 O176 2.028 . S
Zn177 O181 2.035 . S
Zn177 O183 2.035 1_554 S
Zn177 O184 2.028 1_554 S
O178 C174 1.258 . S
O178 Zn179 2.035 1_554 S
Zn179 O178 2.035 1_556 S
Zn179 O180 2.028 1_556 S
Zn179 O182 2.028 . S
Zn179 O185 2.035 . S
O180 Zn179 2.028 1_554 S
O180 C186 1.247 . S
O181 Zn177 2.035 . S
O181 C186 1.258 . S
O182 C175 1.247 . S
O182 Zn179 2.028 . S
O183 C175 1.258 . S
O183 Zn177 2.035 1_556 S
O184 Zn177 2.028 1_556 S
O184 C187 1.247 . S
O185 Zn179 2.035 . S
O185 C187 1.258 . S
C186 O180 1.247 . S
C186 O181 1.258 . S
C187 O184 1.247 . S
C187 O185 1.258 . S
H188 C194 0.930 . S
H189 C197 0.930 . S
H190 C198 0.930 . S
H191 C199 0.930 . S
H192 C202 0.930 . S
H193 C203 0.930 . S
C194 H188 0.930 . S
C194 C195 1.355 . S
C194 C196 1.415 . S
C195 C194 1.355 . S
C195 C197 1.419 . S
C196 C194 1.415 . S
C196 C201 1.425 . S
C196 C203 1.409 . S
C197 H189 0.930 . S
C197 C195 1.419 . S
C197 C198 1.362 . S
C198 H190 0.930 . S
C198 C197 1.362 . S
C198 C201 1.409 . S
C199 H191 0.930 . S
C199 C200 1.355 . S
C199 C201 1.415 . S
C200 C199 1.355 . S
C200 C202 1.419 . S
C201 C196 1.425 . S
C201 C198 1.409 . S
C201 C199 1.415 . S
C202 H192 0.930 . S
C202 C200 1.419 . S
C202 C203 1.362 . S
C203 H193 0.930 . S
C203 C196 1.409 . S
C203 C202 1.362 . S
H204 C210 0.930 . S
H205 C213 0.930 . S
H206 C214 0.930 . S
H207 C215 0.930 . S
H208 C218 0.930 . S
H209 C219 0.930 . S
C210 H204 0.930 . S
C210 C211 1.355 . S
C210 C212 1.415 . S
C211 C210 1.355 . S
C211 C213 1.419 . S
C212 C210 1.415 . S
C212 C217 1.425 . S
C212 C219 1.409 . S
C213 H205 0.930 . S
C213 C211 1.419 . S
C213 C214 1.362 . S
C214 H206 0.930 . S
C214 C213 1.362 . S
C214 C217 1.409 . S
C215 H207 0.930 . S
C215 C216 1.355 . S
C215 C217 1.415 . S
C216 C215 1.355 . S
C216 C218 1.419 . S
C217 C212 1.425 . S
C217 C214 1.409 . S
C217 C215 1.415 . S
C218 H208 0.930 . S
C218 C216 1.419 . S
C218 C219 1.362 . S
C219 H209 0.930 . S
C219 C212 1.409 . S
C219 C218 1.362 . S
H220 C226 0.930 . S
H221 C229 0.930 . S
H222 C230 0.930 . S
H223 C231 0.930 . S
H224 C234 0.930 1_455 S
H225 C235 0.930 . S
C226 H220 0.930 . S
C226 C227 1.355 . S
C226 C228 1.415 . S
C227 C226 1.355 . S
C227 C229 1.419 . S
C228 C226 1.415 . S
C228 C233 1.425 . S
C228 C235 1.409 . S
C229 H221 0.930 . S
C229 C227 1.419 . S
C229 C230 1.362 . S
C230 H222 0.930 . S
C230 C229 1.362 . S
C230 C233 1.409 . S
C231 H223 0.930 . S
C231 C232 1.355 . S
C231 C233 1.415 . S
C232 C231 1.355 . S
C232 C234 1.419 . S
C233 C228 1.425 . S
C233 C230 1.409 . S
C233 C231 1.415 . S
C234 H224 0.930 1_655 S
C234 C232 1.419 . S
C234 C235 1.362 . S
C235 H225 0.930 . S
C235 C228 1.409 . S
C235 C234 1.362 . S
H236 C242 0.930 . S
H237 C245 0.930 . S
H238 C246 0.930 . S
H239 C247 0.930 . S
H240 C250 0.930 . S
H241 C251 0.930 . S
C242 H236 0.930 . S
C242 C243 1.355 . S
C242 C244 1.415 . S
C243 C242 1.355 . S
C243 C245 1.419 . S
C244 C242 1.415 . S
C244 C249 1.425 . S
C244 C251 1.409 . S
C245 H237 0.930 . S
C245 C243 1.419 . S
C245 C246 1.362 . S
C246 H238 0.930 . S
C246 C245 1.362 . S
C246 C249 1.409 . S
C247 H239 0.930 . S
C247 C248 1.355 . S
C247 C249 1.415 . S
C248 C247 1.355 . S
C248 C250 1.419 . S
C249 C244 1.425 . S
C249 C246 1.409 . S
C249 C247 1.415 . S
C250 H240 0.930 . S
C250 C248 1.419 . S
C250 C251 1.362 . S
C251 H241 0.930 . S
C251 C244 1.409 . S
C251 C250 1.362 . S
H252 C258 0.930 . S
H253 C261 0.930 . S
H254 C262 0.930 . S
H255 C263 0.930 . S
H256 C266 0.930 . S
H257 C267 0.930 . S
C258 H252 0.930 . S
C258 C259 1.355 . S
C258 C260 1.415 . S
C259 C258 1.355 . S
C259 C261 1.419 . S
C260 C258 1.415 . S
C260 C265 1.425 . S
C260 C267 1.409 . S
C261 H253 0.930 . S
C261 C259 1.419 . S
C261 C262 1.362 . S
C262 H254 0.930 . S
C262 C261 1.362 . S
C262 C265 1.409 . S
C263 H255 0.930 . S
C263 C264 1.355 . S
C263 C265 1.415 . S
C264 C263 1.355 . S
C264 C266 1.419 . S
C265 C260 1.425 . S
C265 C262 1.409 . S
C265 C263 1.415 . S
C266 H256 0.930 . S
C266 C264 1.419 . S
C266 C267 1.362 . S
C267 H257 0.930 . S
C267 C260 1.409 . S
C267 C266 1.362 . S
H268 C274 0.930 . S
H269 C277 0.930 . S
H270 C278 0.930 . S
H271 C279 0.930 . S
H272 C282 0.930 . S
H273 C283 0.930 . S
C274 H268 0.930 . S
C274 C275 1.355 . S
C274 C276 1.415 . S
C275 C274 1.355 . S
C275 C277 1.419 . S
C276 C274 1.415 . S
C276 C281 1.425 . S
C276 C283 1.409 . S
C277 H269 0.930 . S
C277 C275 1.419 . S
C277 C278 1.362 . S
C278 H270 0.930 . S
C278 C277 1.362 . S
C278 C281 1.409 . S
C279 H271 0.930 . S
C279 C280 1.355 . S
C279 C281 1.415 . S
C280 C279 1.355 . S
C280 C282 1.419 . S
C281 C276 1.425 . S
C281 C278 1.409 . S
C281 C279 1.415 . S
C282 H272 0.930 . S
C282 C280 1.419 . S
C282 C283 1.362 . S
C283 H273 0.930 . S
C283 C276 1.409 . S
C283 C282 1.362 . S
H284 C290 0.930 . S
H285 C293 0.930 . S
H286 C294 0.930 . S
H287 C295 0.930 . S
H288 C298 0.930 . S
H289 C299 0.930 . S
C290 H284 0.930 . S
C290 C291 1.355 . S
C290 C292 1.415 . S
C291 C290 1.355 . S
C291 C293 1.419 . S
C292 C290 1.415 . S
C292 C297 1.425 . S
C292 C299 1.409 . S
C293 H285 0.930 . S
C293 C291 1.419 . S
C293 C294 1.362 . S
C294 H286 0.930 . S
C294 C293 1.362 . S
C294 C297 1.409 . S
C295 H287 0.930 . S
C295 C296 1.355 . S
C295 C297 1.415 . S
C296 C295 1.355 . S
C296 C298 1.419 . S
C297 C292 1.425 . S
C297 C294 1.409 . S
C297 C295 1.415 . S
C298 H288 0.930 . S
C298 C296 1.419 . S
C298 C299 1.362 . S
C299 H289 0.930 . S
C299 C292 1.409 . S
C299 C298 1.362 . S
H300 C306 0.930 . S
H301 C309 0.930 . S
H302 C310 0.930 . S
H303 C311 0.930 . S
H304 C314 0.930 . S
H305 C315 0.930 . S
C306 H300 0.930 . S
C306 C307 1.355 . S
C306 C308 1.415 . S
C307 C306 1.355 . S
C307 C309 1.419 . S
C308 C306 1.415 . S
C308 C313 1.425 . S
C308 C315 1.409 . S
C309 H301 0.930 . S
C309 C307 1.419 . S
C309 C310 1.362 . S
C310 H302 0.930 . S
C310 C309 1.362 . S
C310 C313 1.409 . S
C311 H303 0.930 . S
C311 C312 1.355 . S
C311 C313 1.415 . S
C312 C311 1.355 . S
C312 C314 1.419 . S
C313 C308 1.425 . S
C313 C310 1.409 . S
C313 C311 1.415 . S
C314 H304 0.930 . S
C314 C312 1.419 . S
C314 C315 1.362 . S
C315 H305 0.930 . S
C315 C308 1.409 . S
C315 C314 1.362 . S
H316 C322 0.930 . S
H317 C325 0.930 . S
H318 C326 0.930 . S
H319 C327 0.930 . S
H320 C330 0.930 . S
H321 C331 0.930 . S
C322 H316 0.930 . S
C322 C323 1.355 . S
C322 C324 1.415 . S
C323 C322 1.355 . S
C323 C325 1.419 . S
C324 C322 1.415 . S
C324 C329 1.425 . S
C324 C331 1.409 . S
C325 H317 0.930 . S
C325 C323 1.419 . S
C325 C326 1.362 . S
C326 H318 0.930 . S
C326 C325 1.362 . S
C326 C329 1.409 . S
C327 H319 0.930 . S
C327 C328 1.355 . S
C327 C329 1.415 . S
C328 C327 1.355 . S
C328 C330 1.419 . S
C329 C324 1.425 . S
C329 C326 1.409 . S
C329 C327 1.415 . S
C330 H320 0.930 . S
C330 C328 1.419 . S
C330 C331 1.362 . S
C331 H321 0.930 . S
C331 C324 1.409 . S
C331 C330 1.362 . S
H332 C338 0.930 . S
H333 C341 0.930 . S
H334 C342 0.930 . S
H335 C343 0.930 . S
H336 C346 0.930 . S
H337 C347 0.930 . S
C338 H332 0.930 . S
C338 C339 1.355 . S
C338 C340 1.415 . S
C339 C338 1.355 . S
C339 C341 1.419 . S
C340 C338 1.415 . S
C340 C345 1.425 . S
C340 C347 1.409 . S
C341 H333 0.930 . S
C341 C339 1.419 . S
C341 C342 1.362 . S
C342 H334 0.930 . S
C342 C341 1.362 . S
C342 C345 1.409 . S
C343 H335 0.930 . S
C343 C344 1.355 . S
C343 C345 1.415 . S
C344 C343 1.355 . S
C344 C346 1.419 . S
C345 C340 1.425 . S
C345 C342 1.409 . S
C345 C343 1.415 . S
C346 H336 0.930 . S
C346 C344 1.419 . S
C346 C347 1.362 . S
C347 H337 0.930 . S
C347 C340 1.409 . S
C347 C346 1.362 . S
H348 C354 0.930 . S
H349 C357 0.930 . S
H350 C358 0.930 . S
H351 C359 0.930 . S
H352 C362 0.930 . S
H353 C363 0.930 . S
C354 H348 0.930 . S
C354 C355 1.355 . S
C354 C356 1.415 . S
C355 C354 1.355 . S
C355 C357 1.419 . S
C356 C354 1.415 . S
C356 C361 1.425 . S
C356 C363 1.409 . S
C357 H349 0.930 . S
C357 C355 1.419 . S
C357 C358 1.362 . S
C358 H350 0.930 . S
C358 C357 1.362 . S
C358 C361 1.409 . S
C359 H351 0.930 . S
C359 C360 1.355 . S
C359 C361 1.415 . S
C360 C359 1.355 . S
C360 C362 1.419 . S
C361 C356 1.425 . S
C361 C358 1.409 . S
C361 C359 1.415 . S
C362 H352 0.930 . S
C362 C360 1.419 . S
C362 C363 1.362 . S
C363 H353 0.930 . S
C363 C356 1.409 . S
C363 C362 1.362 . S
H364 C370 0.930 . S
H365 C373 0.930 . S
H366 C374 0.930 . S
H367 C375 0.930 . S
H368 C378 0.930 . S
H369 C379 0.930 . S
C370 H364 0.930 . S
C370 C371 1.355 . S
C370 C372 1.415 . S
C371 C370 1.355 . S
C371 C373 1.419 . S
C372 C370 1.415 . S
C372 C377 1.425 . S
C372 C379 1.409 . S
C373 H365 0.930 . S
C373 C371 1.419 . S
C373 C374 1.362 . S
C374 H366 0.930 . S
C374 C373 1.362 . S
C374 C377 1.409 . S
C375 H367 0.930 . S
C375 C376 1.355 . S
C375 C377 1.415 . S
C376 C375 1.355 . S
C376 C378 1.419 . S
C377 C372 1.425 . S
C377 C374 1.409 . S
C377 C375 1.415 . S
C378 H368 0.930 . S
C378 C376 1.419 . S
C378 C379 1.362 . S
C379 H369 0.930 . S
C379 C372 1.409 . S
C379 C378 1.362 . S
H380 C386 0.930 . S
H381 C389 0.930 . S
H382 C390 0.930 . S
H383 C391 0.930 . S
H384 C394 0.930 . S
H385 C395 0.930 . S
C386 H380 0.930 . S
C386 C387 1.355 . S
C386 C388 1.415 . S
C387 C386 1.355 . S
C387 C389 1.419 . S
C388 C386 1.415 . S
C388 C393 1.425 . S
C388 C395 1.409 . S
C389 H381 0.930 . S
C389 C387 1.419 . S
C389 C390 1.362 . S
C390 H382 0.930 . S
C390 C389 1.362 . S
C390 C393 1.409 . S
C391 H383 0.930 . S
C391 C392 1.355 . S
C391 C393 1.415 . S
C392 C391 1.355 . S
C392 C394 1.419 . S
C393 C388 1.425 . S
C393 C390 1.409 . S
C393 C391 1.415 . S
C394 H384 0.930 . S
C394 C392 1.419 . S
C394 C395 1.362 . S
C395 H385 0.930 . S
C395 C388 1.409 . S
C395 C394 1.362 . S
H396 C402 0.930 . S
H397 C405 0.930 . S
H398 C406 0.930 . S
H399 C407 0.930 . S
H400 C410 0.930 1_455 S
H401 C411 0.930 . S
C402 H396 0.930 . S
C402 C403 1.355 . S
C402 C404 1.415 . S
C403 C402 1.355 . S
C403 C405 1.419 . S
C404 C402 1.415 . S
C404 C409 1.425 . S
C404 C411 1.409 . S
C405 H397 0.930 . S
C405 C403 1.419 . S
C405 C406 1.362 . S
C406 H398 0.930 . S
C406 C405 1.362 . S
C406 C409 1.409 . S
C407 H399 0.930 . S
C407 C408 1.355 . S
C407 C409 1.415 . S
C408 C407 1.355 . S
C408 C410 1.419 . S
C409 C404 1.425 . S
C409 C406 1.409 . S
C409 C407 1.415 . S
C410 H400 0.930 1_655 S
C410 C408 1.419 . S
C410 C411 1.362 . S
C411 H401 0.930 . S
C411 C404 1.409 . S
C411 C410 1.362 . S
H412 C418 0.930 . S
H413 C421 0.930 . S
H414 C422 0.930 . S
H415 C423 0.930 . S
H416 C426 0.930 . S
H417 C427 0.930 . S
C418 H412 0.930 . S
C418 C419 1.355 . S
C418 C420 1.415 . S
C419 C418 1.355 . S
C419 C421 1.419 . S
C420 C418 1.415 . S
C420 C425 1.425 . S
C420 C427 1.409 . S
C421 H413 0.930 . S
C421 C419 1.419 . S
C421 C422 1.362 . S
C422 H414 0.930 . S
C422 C421 1.362 . S
C422 C425 1.409 . S
C423 H415 0.930 . S
C423 C424 1.355 . S
C423 C425 1.415 . S
C424 C423 1.355 . S
C424 C426 1.419 . S
C425 C420 1.425 . S
C425 C422 1.409 . S
C425 C423 1.415 . S
C426 H416 0.930 . S
C426 C424 1.419 . S
C426 C427 1.362 . S
C427 H417 0.930 . S
C427 C420 1.409 . S
C427 C426 1.362 . S
H428 C434 0.930 . S
H429 C437 0.930 . S
H430 C438 0.930 . S
H431 C439 0.930 . S
H432 C442 0.930 . S
H433 C443 0.930 . S
C434 H428 0.930 . S
C434 C435 1.355 . S
C434 C436 1.415 . S
C435 C434 1.355 . S
C435 C437 1.419 . S
C436 C434 1.415 . S
C436 C441 1.425 . S
C436 C443 1.409 . S
C437 H429 0.930 . S
C437 C435 1.419 . S
C437 C438 1.362 . S
C438 H430 0.930 . S
C438 C437 1.362 . S
C438 C441 1.409 . S
C439 H431 0.930 . S
C439 C440 1.355 . S
C439 C441 1.415 . S
C440 C439 1.355 . S
C440 C442 1.419 . S
C441 C436 1.425 . S
C441 C438 1.409 . S
C441 C439 1.415 . S
C442 H432 0.930 . S
C442 C440 1.419 . S
C442 C443 1.362 . S
C443 H433 0.930 . S
C443 C436 1.409 . S
C443 C442 1.362 . S
H444 C450 0.930 . S
H445 C453 0.930 . S
H446 C454 0.930 . S
H447 C455 0.930 . S
H448 C458 0.930 . S
H449 C459 0.930 . S
C450 H444 0.930 . S
C450 C451 1.355 . S
C450 C452 1.415 . S
C451 C450 1.355 . S
C451 C453 1.419 . S
C452 C450 1.415 . S
C452 C457 1.425 . S
C452 C459 1.409 . S
C453 H445 0.930 . S
C453 C451 1.419 . S
C453 C454 1.362 . S
C454 H446 0.930 . S
C454 C453 1.362 . S
C454 C457 1.409 . S
C455 H447 0.930 . S
C455 C456 1.355 . S
C455 C457 1.415 . S
C456 C455 1.355 . S
C456 C458 1.419 . S
C457 C452 1.425 . S
C457 C454 1.409 . S
C457 C455 1.415 . S
C458 H448 0.930 . S
C458 C456 1.419 . S
C458 C459 1.362 . S
C459 H449 0.930 . S
C459 C452 1.409 . S
C459 C458 1.362 . S
H460 C466 0.930 . S
H461 C469 0.930 . S
H462 C470 0.930 . S
H463 C471 0.930 . S
H464 C474 0.930 . S
H465 C475 0.930 . S
C466 H460 0.930 . S
C466 C467 1.355 . S
C466 C468 1.415 . S
C467 C466 1.355 . S
C467 C469 1.419 . S
C468 C466 1.415 . S
C468 C473 1.425 . S
C468 C475 1.409 . S
C469 H461 0.930 . S
C469 C467 1.419 . S
C469 C470 1.362 . S
C470 H462 0.930 . S
C470 C469 1.362 . S
C470 C473 1.409 . S
C471 H463 0.930 . S
C471 C472 1.355 . S
C471 C473 1.415 . S
C472 C471 1.355 . S
C472 C474 1.419 . S
C473 C468 1.425 . S
C473 C470 1.409 . S
C473 C471 1.415 . S
C474 H464 0.930 . S
C474 C472 1.419 . S
C474 C475 1.362 . S
C475 H465 0.930 . S
C475 C468 1.409 . S
C475 C474 1.362 . S
H476 C482 0.930 . S
H477 C485 0.930 . S
H478 C486 0.930 . S
H479 C487 0.930 . S
H480 C490 0.930 . S
H481 C491 0.930 . S
C482 H476 0.930 . S
C482 C483 1.355 . S
C482 C484 1.415 . S
C483 C482 1.355 . S
C483 C485 1.419 . S
C484 C482 1.415 . S
C484 C489 1.425 . S
C484 C491 1.409 . S
C485 H477 0.930 . S
C485 C483 1.419 . S
C485 C486 1.362 . S
C486 H478 0.930 . S
C486 C485 1.362 . S
C486 C489 1.409 . S
C487 H479 0.930 . S
C487 C488 1.355 . S
C487 C489 1.415 . S
C488 C487 1.355 . S
C488 C490 1.419 . S
C489 C484 1.425 . S
C489 C486 1.409 . S
C489 C487 1.415 . S
C490 H480 0.930 . S
C490 C488 1.419 . S
C490 C491 1.362 . S
C491 H481 0.930 . S
C491 C484 1.409 . S
C491 C490 1.362 . S
H492 C498 0.930 . S
H493 C501 0.930 . S
H494 C502 0.930 . S
H495 C503 0.930 . S
H496 C506 0.930 . S
H497 C507 0.930 . S
C498 H492 0.930 . S
C498 C499 1.355 . S
C498 C500 1.415 . S
C499 C498 1.355 . S
C499 C501 1.419 . S
C500 C498 1.415 . S
C500 C505 1.425 . S
C500 C507 1.409 . S
C501 H493 0.930 . S
C501 C499 1.419 . S
C501 C502 1.362 . S
C502 H494 0.930 . S
C502 C501 1.362 . S
C502 C505 1.409 . S
C503 H495 0.930 . S
C503 C504 1.355 . S
C503 C505 1.415 . S
C504 C503 1.355 . S
C504 C506 1.419 . S
C505 C500 1.425 . S
C505 C502 1.409 . S
C505 C503 1.415 . S
C506 H496 0.930 . S
C506 C504 1.419 . S
C506 C507 1.362 . S
C507 H497 0.930 . S
C507 C500 1.409 . S
C507 C506 1.362 . S
H508 C514 0.930 . S
H509 C517 0.930 . S
H510 C518 0.930 . S
H511 C519 0.930 . S
H512 C522 0.930 . S
H513 C523 0.930 . S
C514 H508 0.930 . S
C514 C515 1.355 . S
C514 C516 1.415 . S
C515 C514 1.355 . S
C515 C517 1.419 . S
C516 C514 1.415 . S
C516 C521 1.425 . S
C516 C523 1.409 . S
C517 H509 0.930 . S
C517 C515 1.419 . S
C517 C518 1.362 . S
C518 H510 0.930 . S
C518 C517 1.362 . S
C518 C521 1.409 . S
C519 H511 0.930 . S
C519 C520 1.355 . S
C519 C521 1.415 . S
C520 C519 1.355 . S
C520 C522 1.419 . S
C521 C516 1.425 . S
C521 C518 1.409 . S
C521 C519 1.415 . S
C522 H512 0.930 . S
C522 C520 1.419 . S
C522 C523 1.362 . S
C523 H513 0.930 . S
C523 C516 1.409 . S
C523 C522 1.362 . S
H524 C530 0.930 . S
H525 C533 0.930 . S
H526 C534 0.930 . S
H527 C535 0.930 . S
H528 C538 0.930 . S
H529 C539 0.930 . S
C530 H524 0.930 . S
C530 C531 1.355 . S
C530 C532 1.415 . S
C531 C530 1.355 . S
C531 C533 1.419 . S
C532 C530 1.415 . S
C532 C537 1.425 . S
C532 C539 1.409 . S
C533 H525 0.930 . S
C533 C531 1.419 . S
C533 C534 1.362 . S
C534 H526 0.930 . S
C534 C533 1.362 . S
C534 C537 1.409 . S
C535 H527 0.930 . S
C535 C536 1.355 . S
C535 C537 1.415 . S
C536 C535 1.355 . S
C536 C538 1.419 . S
C537 C532 1.425 . S
C537 C534 1.409 . S
C537 C535 1.415 . S
C538 H528 0.930 . S
C538 C536 1.419 . S
C538 C539 1.362 . S
C539 H529 0.930 . S
C539 C532 1.409 . S
C539 C538 1.362 . S
H540 C546 0.930 . S
H541 C549 0.930 . S
H542 C550 0.930 . S
H543 C551 0.930 . S
H544 C554 0.930 . S
H545 C555 0.930 . S
C546 H540 0.930 . S
C546 C547 1.355 . S
C546 C548 1.415 . S
C547 C546 1.355 . S
C547 C549 1.419 . S
C548 C546 1.415 . S
C548 C553 1.425 . S
C548 C555 1.409 . S
C549 H541 0.930 . S
C549 C547 1.419 . S
C549 C550 1.362 . S
C550 H542 0.930 . S
C550 C549 1.362 . S
C550 C553 1.409 . S
C551 H543 0.930 . S
C551 C552 1.355 . S
C551 C553 1.415 . S
C552 C551 1.355 . S
C552 C554 1.419 . S
C553 C548 1.425 . S
C553 C550 1.409 . S
C553 C551 1.415 . S
C554 H544 0.930 . S
C554 C552 1.419 . S
C554 C555 1.362 . S
C555 H545 0.930 . S
C555 C548 1.409 . S
C555 C554 1.362 . S
H556 C562 0.930 . S
H557 C565 0.930 . S
H558 C566 0.930 . S
H559 C567 0.930 . S
H560 C570 0.930 1_554 S
H561 C571 0.930 . S
C562 H556 0.930 . S
C562 C563 1.355 . S
C562 C564 1.415 . S
C563 C562 1.355 . S
C563 C565 1.419 . S
C564 C562 1.415 . S
C564 C569 1.425 . S
C564 C571 1.409 . S
C565 H557 0.930 . S
C565 C563 1.419 . S
C565 C566 1.362 . S
C566 H558 0.930 . S
C566 C565 1.362 . S
C566 C569 1.409 . S
C567 H559 0.930 . S
C567 C568 1.355 . S
C567 C569 1.415 . S
C568 C567 1.355 . S
C568 C570 1.419 . S
C569 C564 1.425 . S
C569 C566 1.409 . S
C569 C567 1.415 . S
C570 H560 0.930 1_556 S
C570 C568 1.419 . S
C570 C571 1.362 . S
C571 H561 0.930 . S
C571 C564 1.409 . S
C571 C570 1.362 . S
C200 C116 1.427 . S
C195 N2 1.441 . S
C216 C119 1.449 . S
C211 N15 1.454 . S
C232 C117 1.654 1_655 S
C227 N27 1.672 . S
C248 C118 1.472 . S
C243 N44 1.487 . S
C264 C133 1.664 . S
C259 N1 1.683 . S
C280 C147 1.648 1_556 S
C275 N18 1.640 . S
C291 N28 1.684 . S
C296 C173 1.655 . S
C312 C187 1.506 . S
C307 N41 1.515 . S
C328 C132 1.586 . S
C323 N14 1.622 . S
C339 N31 1.768 . S
C344 C146 1.752 . S
C360 C172 1.727 . S
C355 N40 1.753 . S
C376 C186 1.557 . S
C371 N5 1.586 . S
C387 N53 1.655 . S
C392 C131 1.612 . S
C408 C104 1.626 1_655 S
C403 N70 1.626 . S
C419 N80 1.495 . S
C424 C130 1.485 . S
C435 N92 1.724 . S
C440 C105 1.740 . S
C456 C160 1.671 . S
C451 N57 1.729 . S
C472 C174 1.463 . S
C467 N67 1.462 . S
C488 C144 1.664 . S
C483 N83 1.700 . S
C499 N96 1.696 . S
C504 C158 1.680 . S
C520 C161 1.622 . S
C515 N66 1.656 . S
C536 C175 1.433 . S
C531 N79 1.452 . S
C552 C145 1.634 . S
C547 N93 1.660 . S
C563 N54 1.484 . S
C568 C159 1.470 1_556 S
