# Generated by pormake.
# Topology tsx, (6,3)-cn, num edge types: 1
# Building blocks:
#     Node 0, Type 0, BuildingBlock: LEVNOQ01_clean_sbu_1, # of connection points: 6
#     Node 1, Type 0, BuildingBlock: LEVNOQ01_clean_sbu_1, # of connection points: 6
#     Node 2, Type 1, BuildingBlock: QEWDON_clean_linker_0, # of connection points: 3
#     Node 3, Type 1, BuildingBlock: QEWDON_clean_linker_0, # of connection points: 3
#     Node 4, Type 1, BuildingBlock: QEWDON_clean_linker_0, # of connection points: 3
#     Node 5, Type 1, BuildingBlock: QEWDON_clean_linker_0, # of connection points: 3
#     Edge 6, Type (0, 1), BuildingBlock: UVAHIK_clean_linker_0, # of connection points: 2
#     Edge 7, Type (0, 1), BuildingBlock: UVAHIK_clean_linker_0, # of connection points: 2
#     Edge 8, Type (0, 1), BuildingBlock: UVAHIK_clean_linker_0, # of connection points: 2
#     Edge 9, Type (0, 1), BuildingBlock: UVAHIK_clean_linker_0, # of connection points: 2
#     Edge 10, Type (0, 1), BuildingBlock: UVAHIK_clean_linker_0, # of connection points: 2
#     Edge 11, Type (0, 1), BuildingBlock: UVAHIK_clean_linker_0, # of connection points: 2
#     Edge 12, Type (0, 1), BuildingBlock: UVAHIK_clean_linker_0, # of connection points: 2
#     Edge 13, Type (0, 1), BuildingBlock: UVAHIK_clean_linker_0, # of connection points: 2
#     Edge 14, Type (0, 1), BuildingBlock: UVAHIK_clean_linker_0, # of connection points: 2
#     Edge 15, Type (0, 1), BuildingBlock: UVAHIK_clean_linker_0, # of connection points: 2
#     Edge 16, Type (0, 1), BuildingBlock: UVAHIK_clean_linker_0, # of connection points: 2
#     Edge 17, Type (0, 1), BuildingBlock: UVAHIK_clean_linker_0, # of connection points: 2
# Relax obj value: 0.107
# Max RMSD: 0.209
# Mean RMSD: 0.150
data_MOF--net-tsx--node1-LEVNOQ01_clean_sbu_1--node2-QEWDON_clean_linker_0--edge1-UVAHIK_clean_linker_0
_symmetry_space_group_name_H-M    P1
_symmetry_Int_Tables_number       1
_symmetry_cell_setting            triclinic
loop_
_symmetry_equiv_pos_as_xyz
'x, y, z'
_cell_length_a     25.991001
_cell_length_b     31.063675
_cell_length_c     43.800264
_cell_angle_alpha  97.531718
_cell_angle_beta   105.52333
_cell_angle_gamma 91.930179
loop_
_atom_site_label
_atom_site_type_symbol
_atom_site_fract_x
_atom_site_fract_y
_atom_site_fract_z
_atom_type_partial_charge
O0 O 0.10935 0.0093 0.08938 0.0
Mg1 Mg 0.15846 0.00634 0.05786 0.0
O2 O 0.03069 -0.00341 0.05218 0.0
Mg3 Mg 0.04297 0.00254 0.00188 0.0
O4 O 0.12179 0.0411 0.02296 0.0
O5 O 0.20368 0.06109 0.05291 0.0
O6 O 0.0554 0.00778 0.95164 0.0
O7 O -0.00043 0.06621 0.0007 0.0
Mg8 Mg 0.92811 0.98509 0.94139 0.0
O9 O 0.96669 0.96424 0.98165 0.0
O10 O 0.98397 0.9746 0.91425 0.0
O11 O 0.92603 0.05237 0.95911 0.0
O12 O 0.88794 0.93316 0.95583 0.0
C13 C 0.12614 0.92134 0.01219 0.0
C14 C 0.05883 0.00185 0.08138 0.0
C15 C 0.16308 0.06828 0.03029 0.0
C16 C 0.03177 -0.00839 0.92268 0.0
C17 C 0.9571 0.07822 0.98228 0.0
C18 C 0.92934 0.93572 0.98007 0.0
O19 O 0.16325 0.94274 0.03457 0.0
O20 O 0.08283 0.93778 -0.00054 0.0
O21 O 0.61648 0.47299 0.57677 0.0
Mg22 Mg 0.65746 0.49256 0.54418 0.0
O23 O 0.53561 0.49275 0.55315 0.0
Mg24 Mg 0.54292 0.50288 0.50316 0.0
O25 O 0.62224 0.5437 0.52505 0.0
O26 O 0.7066 0.5491 0.55511 0.0
O27 O 0.5516 0.51193 0.45259 0.0
O28 O 0.50152 0.56767 0.50692 0.0
Mg29 Mg 0.4237 0.49271 0.44591 0.0
O30 O 0.46511 0.46676 0.48333 0.0
O31 O 0.47562 0.48523 0.41596 0.0
O32 O 0.4245 0.55874 0.46762 0.0
O33 O 0.3843 0.43891 0.45893 0.0
C34 C 0.6222 0.42218 0.49325 0.0
C35 C 0.56806 0.47842 0.57633 0.0
C36 C 0.66723 0.56665 0.53749 0.0
C37 C 0.52449 0.49957 0.42356 0.0
C38 C 0.45819 0.58193 0.49115 0.0
C39 C 0.42738 0.43856 0.48166 0.0
O40 O 0.66441 0.44626 0.50664 0.0
O41 O 0.57689 0.43427 0.49553 0.0
H42 H 0.03962 0.00277 0.40642 0.0
C43 C 0.06401 0.97874 0.418 0.0
C44 C 0.08389 0.94654 0.39949 0.0
C45 C 0.07909 0.9824 0.45151 0.0
H46 H 0.13326 0.89184 0.40077 0.0
C47 C 0.11738 0.91665 0.41482 0.0
C48 C 0.1323 0.91982 0.44835 0.0
C49 C 0.11329 0.95284 0.46653 0.0
C50 C 0.06312 0.0194 0.47084 0.0
H51 H 0.12545 0.95556 0.49244 0.0
C52 C 0.01679 0.03981 0.46348 0.0
C53 C 0.02442 0.08874 0.49648 0.0
C54 C 0.09428 0.04265 0.4985 0.0
H55 H 0.13516 0.03367 0.50928 0.0
C56 C 0.06104 0.08278 0.5084 0.0
H57 H 0.98427 0.02729 0.44229 0.0
C58 C -0.00035 0.12349 0.50706 0.0
H59 H 0.01051 0.16417 0.53452 0.0
H60 H 0.10416 0.084 0.52706 0.0
H61 H -0.00118 0.07163 0.59635 0.0
C62 C 0.97246 0.04365 0.58326 0.0
C63 C 0.95413 0.01385 0.60009 0.0
C64 C 0.95819 0.03693 0.54964 0.0
H65 H 0.90561 0.95421 0.5954 0.0
C66 C 0.92095 0.97724 0.58282 0.0
C67 C 0.90694 0.96995 0.54932 0.0
C68 C 0.92522 -3e-05 0.53273 0.0
C69 C 0.98071 0.06853 0.53199 0.0
H70 H 0.91527 -0.00667 0.50692 0.0
C71 C 0.04962 0.11501 0.55561 0.0
C72 C 0.08193 0.15549 0.52427 0.0
C73 C 0.93963 0.06266 0.48101 0.0
H74 H 0.90475 0.04034 0.47012 0.0
C75 C 0.97205 0.10466 0.45085 0.0
H76 H 0.01841 0.0912 0.55133 0.0
C77 C 0.043 0.14751 0.47392 0.0
H78 H 0.06039 0.16543 0.45911 0.0
H79 H 0.95343 0.1025 0.4254 0.0
H80 H 0.54975 0.50652 0.9086 0.0
C81 C 0.57298 0.48176 0.91996 0.0
C82 C 0.5958 0.4513 0.90186 0.0
C83 C 0.58187 0.48179 0.95296 0.0
H84 H 0.64517 0.39677 0.90363 0.0
C85 C 0.62582 0.41953 0.9171 0.0
C86 C 0.63391 0.41858 0.95006 0.0
C87 C 0.61212 0.45012 0.96789 0.0
C88 C 0.56376 0.51746 0.97213 0.0
H89 H 0.61886 0.45019 -0.00658 0.0
C90 C 0.51756 0.53752 0.96348 0.0
C91 C 0.52382 0.58782 -0.00488 0.0
C92 C 0.59385 0.54152 -0.00029 0.0
H93 H 0.63457 0.53291 0.01126 0.0
C94 C 0.56014 0.58222 0.00789 0.0
H95 H 0.4861 0.52438 0.9419 0.0
C96 C 0.49853 0.62313 0.00416 0.0
H97 H 0.50816 0.66493 0.03062 0.0
H98 H 0.60259 0.58409 0.02728 0.0
H99 H 0.4967 0.57352 0.09475 0.0
C100 C 0.46845 0.54658 0.08179 0.0
C101 C 0.44874 0.51781 0.09886 0.0
C102 C 0.45354 0.53977 0.04812 0.0
H103 H 0.39674 0.46014 0.09447 0.0
C104 C 0.41278 0.4826 0.08177 0.0
C105 C 0.39821 0.47524 0.0483 0.0
C106 C 0.41863 0.50371 0.0315 0.0
C107 C 0.47758 0.57 0.03007 0.0
H108 H 0.40865 0.49646 0.00573 0.0
C109 C 0.54607 0.61685 0.05373 0.0
C110 C 0.58072 0.65519 0.02215 0.0
C111 C 0.43898 0.56185 0.97865 0.0
H112 H 0.40423 0.53946 0.96762 0.0
C113 C 0.47382 0.60167 0.94818 0.0
H114 H 0.51465 0.59321 0.04944 0.0
C115 C 0.54436 0.64488 0.97147 0.0
H116 H 0.5628 0.66186 0.95664 0.0
H117 H 0.45649 0.59834 0.92253 0.0
C118 C 0.13082 0.13895 0.01425 0.0
C119 C 0.16612 0.1058 0.01358 0.0
C120 C 0.14403 0.18013 0.00743 0.0
C121 C 0.2604 0.24623 0.02925 0.0
H122 H 0.21255 0.3217 0.96487 0.0
C123 C 0.39054 0.39581 0.03063 0.0
C124 C 0.36577 0.43509 0.03158 0.0
C125 C 0.35966 0.35637 0.02094 0.0
C126 C 0.22592 0.30094 0.98306 0.0
H127 H 0.2391 0.08742 0.00221 0.0
H128 H 0.26149 0.15876 0.98968 0.0
H129 H 0.16401 0.25011 0.95963 0.0
H130 H 0.29021 0.46491 0.02159 0.0
H131 H 0.23549 0.3953 0.00455 0.0
H132 H 0.32208 0.29588 0.05277 0.0
C133 C 0.2241 0.15328 -0.00442 0.0
C134 C 0.1982 0.2603 0.98008 0.0
C135 C 0.21141 0.11263 0.00281 0.0
C136 C 0.30982 0.43473 0.02077 0.0
C137 C 0.27871 0.39507 0.01102 0.0
C138 C 0.28787 0.28636 0.03219 0.0
C139 C 0.19213 0.1879 -0.00049 0.0
C140 C 0.21605 0.23253 0.00298 0.0
C141 C 0.30344 0.35554 0.01231 0.0
C142 C 0.27173 0.31379 0.00885 0.0
H143 H 0.09596 0.13431 0.0229 0.0
H144 H 0.11929 0.20667 0.01102 0.0
H145 H 0.27438 0.22538 0.04734 0.0
H146 H 0.43372 0.3956 0.03897 0.0
H147 H 0.37973 0.32635 0.0217 0.0
C148 C 0.14 0.84349 0.01573 0.0
C149 C 0.13673 0.87846 -0.00173 0.0
C150 C 0.16456 0.80642 0.00688 0.0
C151 C 0.28113 0.79254 0.9827 0.0
H152 H 0.25382 0.66791 0.97695 0.0
C153 C 0.44378 0.67506 0.97451 0.0
C154 C 0.45547 0.6355 -0.00646 0.0
C155 C 0.39999 0.70026 0.97169 0.0
C156 C 0.26202 0.70271 0.97879 0.0
H157 H 0.15128 0.90157 0.95663 0.0
H158 H 0.19603 0.83723 0.94171 0.0
H159 H 0.17984 0.71559 0.97465 0.0
H160 H 0.40054 0.60799 0.02209 0.0
H161 H 0.33371 0.65316 0.01629 0.0
H162 H 0.36334 0.7807 0.98882 0.0
C163 C 0.17887 0.838 0.96174 0.0
C164 C 0.21969 0.72974 0.97715 0.0
C165 C 0.15346 0.87464 0.97025 0.0
C166 C 0.40655 0.63231 0.00785 0.0
C167 C 0.3642 0.65909 0.00429 0.0
C168 C 0.32338 0.76578 0.98483 0.0
C169 C 0.18713 0.80479 0.98104 0.0
C170 C 0.22913 0.77483 0.97908 0.0
C171 C 0.36014 0.69263 0.98621 0.0
C172 C 0.31443 0.72059 0.98299 0.0
H173 H 0.12706 0.84616 0.03742 0.0
H174 H 0.1707 0.78117 0.0221 0.0
H175 H 0.28952 0.82743 0.98517 0.0
H176 H 0.46939 0.68628 0.9611 0.0
H177 H 0.39708 0.72616 0.95708 0.0
C178 C 0.94927 0.86612 0.00067 0.0
C179 C 0.93163 0.90799 0.00477 0.0
C180 C 0.93435 0.83427 0.017 0.0
C181 C 0.84969 0.81148 0.07123 0.0
H182 H 0.78154 0.72387 -0.00122 0.0
C183 C 0.64232 0.71991 0.05144 0.0
C184 C 0.63392 0.67795 0.03402 0.0
C185 C 0.69209 0.74326 0.05771 0.0
C186 C 0.80103 0.7472 0.01969 0.0
H187 H 0.89117 0.95171 0.03156 0.0
H188 H 0.86391 0.89614 0.05964 0.0
H189 H 0.8528 0.77261 -0.00481 0.0
H190 H 0.67008 0.62618 0.01093 0.0
H191 H 0.75718 0.66557 0.02316 0.0
H192 H 0.79483 0.78682 0.09487 0.0
C193 C 0.88957 0.88746 0.04431 0.0
C194 C 0.8424 0.77522 0.01768 0.0
C195 C 0.90483 0.91931 0.02812 0.0
C196 C 0.67602 0.65855 0.02456 0.0
C197 C 0.72573 0.68126 0.03136 0.0
C198 C 0.80798 0.78313 0.07327 0.0
C199 C 0.90055 0.84388 0.03696 0.0
C200 C 0.86633 0.80852 0.04301 0.0
C201 C 0.73377 0.72453 0.04677 0.0
C202 C 0.7824 0.75134 0.04716 0.0
H203 H 0.97026 0.85702 0.98275 0.0
H204 H 0.94462 0.80118 0.0115 0.0
H205 H 0.86745 0.83675 0.09118 0.0
H206 H 0.60981 0.73539 0.05861 0.0
H207 H 0.69682 0.77669 0.06936 0.0
C208 C 0.95519 0.14775 0.01815 0.0
C209 C 0.94253 0.1234 0.98739 0.0
C210 C 0.93425 0.1883 0.02283 0.0
C211 C 0.86817 0.27504 0.98003 0.0
H212 H 0.77349 0.27634 0.03526 0.0
C213 C 0.66586 0.34363 0.95099 0.0
C214 C 0.66896 0.38682 0.96602 0.0
C215 C 0.70488 0.31582 0.96289 0.0
C216 C 0.8006 0.27676 0.02032 0.0
H217 H 0.90229 0.12357 0.93716 0.0
H218 H 0.86665 0.19396 0.94519 0.0
H219 H 0.84156 0.22281 0.03858 0.0
H220 H 0.71278 0.43367 0.00674 0.0
H221 H 0.78118 0.38449 0.0275 0.0
H222 H 0.82478 0.32687 0.96026 0.0
C223 C 0.89212 0.18195 0.96576 0.0
C224 C 0.83963 0.24652 0.02231 0.0
C225 C 0.91207 0.14141 0.96119 0.0
C226 C 0.70929 0.40052 -0.0053 0.0
C227 C 0.74838 0.37257 0.00661 0.0
C228 C 0.82937 0.30511 0.97809 0.0
C229 C 0.90166 0.20523 -0.00333 0.0
C230 C 0.87206 0.24421 0.00115 0.0
C231 C 0.74728 0.33068 0.99007 0.0
C232 C 0.79418 0.30501 -0.00265 0.0
H233 H 0.97886 0.13454 0.03868 0.0
H234 H 0.94221 0.20582 0.04686 0.0
H235 H 0.89289 0.27403 0.9636 0.0
H236 H 0.63466 0.33199 0.92922 0.0
H237 H 0.70368 0.28346 0.94986 0.0
C238 C 0.64301 0.62796 0.5055 0.0
C239 C 0.674 0.61232 0.53279 0.0
C240 C 0.65428 0.67019 0.49989 0.0
C241 C 0.71829 0.7769 0.53932 0.0
H242 H 0.77262 0.78451 0.46566 0.0
C243 C 0.89243 0.88942 0.53854 0.0
C244 C 0.87383 0.93012 0.53232 0.0
C245 C 0.85762 0.85206 0.52855 0.0
C246 C 0.75625 0.78299 0.48582 0.0
H247 H 0.73872 0.62896 0.57638 0.0
H248 H 0.75724 0.70259 0.56701 0.0
H249 H 0.72492 0.7166 0.46972 0.0
H250 H 0.80597 0.96386 0.50918 0.0
H251 H 0.74408 0.89796 0.49238 0.0
H252 H 0.7521 0.84228 0.55629 0.0
C253 C 0.72483 0.68229 0.54981 0.0
C254 C 0.729 0.74441 0.48814 0.0
C255 C 0.71443 0.64008 0.55505 0.0
C256 C 0.82099 0.93262 0.51398 0.0
C257 C 0.78581 0.89517 0.50438 0.0
C258 C 0.74472 0.81548 0.53678 0.0
C259 C 0.6956 0.69746 0.52195 0.0
C260 C 0.71175 0.74062 0.51554 0.0
C261 C 0.80369 0.85501 0.51254 0.0
C262 C 0.76538 0.81823 0.51059 0.0
H263 H 0.61163 0.60708 0.48798 0.0
H264 H 0.6313 0.68137 0.47824 0.0
H265 H 0.7055 0.77461 0.56069 0.0
H266 H 0.93307 0.88696 0.55274 0.0
H267 H 0.87182 0.82135 0.53537 0.0
C268 C 0.62102 0.34357 0.49744 0.0
C269 C 0.62868 0.37745 0.48045 0.0
C270 C 0.64891 0.30603 0.49515 0.0
C271 C 0.78101 0.29205 0.49111 0.0
H272 H 0.7547 0.16678 0.48098 0.0
C273 C 0.94363 0.17692 0.48023 0.0
C274 C 0.95628 0.136 0.49769 0.0
C275 C 0.90039 0.20233 0.47947 0.0
C276 C 0.7625 0.20179 0.48427 0.0
H277 H 0.66415 0.39684 0.44454 0.0
H278 H 0.7114 0.33085 0.43975 0.0
H279 H 0.67865 0.21318 0.47279 0.0
H280 H 0.90308 0.10576 0.52612 0.0
H281 H 0.83593 0.15079 0.52282 0.0
H282 H 0.86429 0.28143 0.50293 0.0
C283 C 0.68501 0.33341 0.45523 0.0
C284 C 0.7191 0.22811 0.4794 0.0
C285 C 0.65782 0.37095 0.4578 0.0
C286 C 0.90844 0.13136 0.51277 0.0
C287 C 0.86607 0.15808 0.51088 0.0
C288 C 0.82406 0.266 0.49614 0.0
C289 C 0.68407 0.3024 0.47571 0.0
C290 C 0.72823 0.27335 0.48196 0.0
C291 C 0.86147 0.1932 0.49434 0.0
C292 C 0.81535 0.22057 0.49202 0.0
H293 H 0.59893 0.34832 0.51525 0.0
H294 H 0.64758 0.2824 0.51111 0.0
H295 H 0.78899 0.32706 0.49423 0.0
H296 H 0.96823 0.18925 0.46665 0.0
H297 H 0.89684 0.2295 0.46597 0.0
C298 C 0.40612 0.41871 0.5298 0.0
C299 C 0.43065 0.40876 0.50518 0.0
C300 C 0.39187 0.3857 0.54538 0.0
C301 C 0.34223 0.27427 0.51655 0.0
H302 H 0.30108 0.28237 0.59583 0.0
C303 C 0.17622 0.15806 0.52429 0.0
C304 C 0.1357 0.1774 0.53553 0.0
C305 C 0.22627 0.18003 0.53062 0.0
C306 C 0.31242 0.27965 0.57363 0.0
H307 H 0.46632 0.35877 0.48012 0.0
H308 H 0.4424 0.30084 0.50775 0.0
H309 H 0.37313 0.33236 0.59152 0.0
H310 H 0.11491 0.23394 0.56286 0.0
H311 H 0.20245 0.27411 0.57273 0.0
H312 H 0.28012 0.22389 0.49778 0.0
C313 C 0.43312 0.3338 0.51473 0.0
C314 C 0.35381 0.30803 0.57122 0.0
C315 C 0.44705 0.36683 0.49902 0.0
C316 C 0.14615 0.21851 0.55426 0.0
C317 C 0.19624 0.24119 0.56003 0.0
C318 C 0.30117 0.2462 0.51893 0.0
C319 C 0.40156 0.3423 0.53617 0.0
C320 C 0.36806 0.30644 0.54227 0.0
C321 C 0.23623 0.22261 0.54731 0.0
C322 C 0.28479 0.24915 0.54717 0.0
H323 H 0.39344 0.45113 0.53485 0.0
H324 H 0.36793 0.39357 0.56186 0.0
H325 H 0.35079 0.27268 0.49357 0.0
H326 H 0.16876 0.12637 0.50965 0.0
H327 H 0.25641 0.1644 0.52105 0.0
C328 C 0.43376 0.6535 0.47535 0.0
C329 C 0.44603 0.62697 0.49946 0.0
C330 C 0.41223 0.69332 0.48073 0.0
C331 C 0.31986 0.73834 0.52081 0.0
H332 H 0.35081 0.84287 0.48733 0.0
C333 C 0.16079 0.84547 0.45769 0.0
C334 C 0.17112 0.89081 0.46452 0.0
C335 C 0.19918 0.81819 0.47164 0.0
C336 C 0.3421 0.81427 0.49733 0.0
H337 H 0.44784 0.62128 0.54844 0.0
H338 H 0.40806 0.69097 0.55769 0.0
H339 H 0.41667 0.78815 0.49552 0.0
H340 H 0.22856 0.94349 0.49152 0.0
H341 H 0.29662 0.89565 0.51517 0.0
H342 H 0.24371 0.76314 0.5205 0.0
C343 C 0.41616 0.68121 0.53486 0.0
C344 C 0.3797 0.783 0.50194 0.0
C345 C 0.43902 0.64164 0.52966 0.0
C346 C 0.21982 0.90853 0.48603 0.0
C347 C 0.25862 0.88129 0.49948 0.0
C348 C 0.28189 0.76935 0.51574 0.0
C349 C 0.4014 0.70682 0.51012 0.0
C350 C 0.36816 0.74412 0.51271 0.0
C351 C 0.24889 0.83588 0.49212 0.0
C352 C 0.29205 0.80691 0.50299 0.0
H353 H 0.43871 0.64254 0.45184 0.0
H354 H 0.40065 0.71212 0.46113 0.0
H355 H 0.3098 0.70846 0.52888 0.0
H356 H 0.12333 0.83121 0.44126 0.0
H357 H 0.19093 0.78326 0.46531 0.0
C358 C 0.03508 0.03069 0.1307 0.0
C359 C 0.03429 -0.00449 0.10701 0.0
C360 C 0.02875 0.02339 0.16031 0.0
C361 C 0.06203 0.94141 0.21308 0.0
H362 H -0.00793 0.01325 0.26687 0.0
C363 C 0.1157 0.94507 0.35023 0.0
C364 C 0.07335 0.94701 0.36456 0.0
C365 C 0.1067 0.94948 0.3179 0.0
C366 C 0.01145 -0.0074 0.25206 0.0
H367 H 0.02339 0.92547 0.09439 0.0
H368 H 0.01239 0.91242 0.14633 0.0
H369 H 0.97678 0.02275 0.21072 0.0
H370 H 0.98826 0.95398 0.35623 0.0
H371 H 0.97224 0.96087 0.29961 0.0
H372 H 0.09703 0.91144 0.25433 0.0
C373 C 0.01772 0.94565 0.14208 0.0
C374 C 0.00291 -0.00175 0.21999 0.0
C375 C 0.02326 0.95306 0.11229 0.0
C376 C 0.02167 0.95262 0.34581 0.0
C377 C 0.0126 0.95683 0.31347 0.0
C378 C 0.07073 0.93588 0.24515 0.0
C379 C 0.02271 0.98066 0.16682 0.0
C380 C 0.02811 0.97269 0.20016 0.0
C381 C 0.05507 0.95571 0.29921 0.0
C382 C 0.04557 0.96142 0.26503 0.0
H383 H 0.04436 0.06361 0.1271 0.0
H384 H 0.03291 0.051 0.17888 0.0
H385 H 0.08297 0.92187 0.19859 0.0
H386 H 0.15615 0.94162 0.36427 0.0
H387 H 0.14044 0.94913 0.30779 0.0
C388 C 0.07063 0.03989 0.89247 0.0
C389 C 0.05617 -0.00236 0.8969 0.0
C390 C 0.07258 0.04811 0.8621 0.0
C391 C -0.00564 0.00516 0.78312 0.0
H392 H 0.08939 0.07024 0.74814 0.0
C393 C 0.98343 0.98334 0.65149 0.0
C394 C 0.97119 0.01971 0.6356 0.0
C395 C -0.00202 -0.01199 0.68474 0.0
C396 C 0.06231 0.05273 0.75794 0.0
H397 H 0.04034 0.93014 0.87524 0.0
H398 H 0.04559 0.94415 0.82266 0.0
H399 H 0.11595 0.0627 0.80558 0.0
H400 H 0.96566 0.08978 0.64235 0.0
H401 H -0.0072 0.09786 0.70114 0.0
H402 H 0.94152 -0.00603 0.73575 0.0
C403 C 0.05388 0.97105 0.84214 0.0
C404 C 0.07755 0.04821 0.79053 0.0
C405 C 0.05124 0.96296 0.87218 0.0
C406 C 0.97534 0.06118 0.65389 0.0
C407 C -0.0093 0.0659 0.68739 0.0
C408 C 0.97932 0.0096 0.75087 0.0
C409 C 0.06052 0.01399 0.83632 0.0
C410 C 0.04435 0.02302 0.80298 0.0
C411 C 0.00148 0.02916 0.70288 0.0
C412 C 0.01378 0.03227 0.73787 0.0
H413 H 0.07431 0.06709 0.91132 0.0
H414 H 0.07809 0.08145 0.85813 0.0
H415 H 0.96734 -0.01327 0.79243 0.0
H416 H 0.98197 0.95112 0.63824 0.0
H417 H 0.00647 0.95933 0.69639 0.0
C418 C 0.5643 0.43189 0.6174 0.0
C419 C 0.55137 0.47039 0.60458 0.0
C420 C 0.56097 0.42799 0.64814 0.0
C421 C 0.51851 0.48214 0.71781 0.0
H422 H 0.63973 0.42617 0.76521 0.0
C423 C 0.5916 0.49461 0.85671 0.0
C424 C 0.59018 0.45391 0.86749 0.0
C425 C 0.58494 0.49709 0.82429 0.0
C426 C 0.60568 0.44175 0.75217 0.0
H427 H 0.52144 0.53385 0.61233 0.0
H428 H 0.5176 0.52802 0.6668 0.0
H429 H 0.62686 0.42826 0.70832 0.0
H430 H 0.58164 0.38397 0.85254 0.0
H431 H 0.5722 0.38856 0.79607 0.0
H432 H 0.49918 0.49706 0.76255 0.0
C433 C 0.52917 0.50034 0.65304 0.0
C434 C 0.59782 0.4426 0.71952 0.0
C435 C 0.53129 0.50377 0.62187 0.0
C436 C 0.58344 0.4158 0.84518 0.0
C437 C 0.57777 0.41834 0.81288 0.0
C438 C 0.52703 0.48195 0.7507 0.0
C439 C 0.54626 0.4631 0.66701 0.0
C440 C 0.5537 0.46224 0.70178 0.0
C441 C 0.57785 0.45896 0.8022 0.0
C442 C 0.57031 0.4613 0.76794 0.0
H443 H 0.57936 0.4056 0.60417 0.0
H444 H 0.57243 0.39818 0.65765 0.0
H445 H 0.48405 0.49737 0.70494 0.0
H446 H 0.59824 0.52462 0.87332 0.0
H447 H 0.58592 0.52873 0.81651 0.0
C448 C 0.54286 0.46876 0.37322 0.0
C449 C 0.54779 0.50446 0.39715 0.0
C450 C 0.54626 0.47514 0.34296 0.0
C451 C 0.57281 0.55042 0.29018 0.0
H452 H 0.44058 0.49221 0.23349 0.0
C453 C 0.47539 0.56394 0.15332 0.0
C454 C 0.46778 0.52271 0.13435 0.0
C455 C 0.49179 0.56764 0.1868 0.0
C456 C 0.4775 0.50874 0.24907 0.0
H457 H 0.56563 0.57411 0.40985 0.0
H458 H 0.57067 0.58556 0.35623 0.0
H459 H 0.46358 0.48629 0.29029 0.0
H460 H 0.47444 0.45344 0.13575 0.0
H461 H 0.50082 0.45993 0.19382 0.0
H462 H 0.58628 0.57252 0.24817 0.0
C463 C 0.5648 0.55268 0.36101 0.0
C464 C 0.49093 0.50509 0.28147 0.0
C465 C 0.56209 0.54614 0.39162 0.0
C466 C 0.47835 0.48556 0.14954 0.0
C467 C 0.49399 0.48923 0.18277 0.0
C468 C 0.55916 0.55417 0.25744 0.0
C469 C 0.55348 0.51745 0.33601 0.0
C470 C 0.5394 0.5247 0.30217 0.0
C471 C 0.50025 0.53014 0.20164 0.0
C472 C 0.51203 0.53232 0.23665 0.0
H473 H 0.53195 0.43635 0.37714 0.0
H474 H 0.53857 0.44736 0.3242 0.0
H475 H 0.61006 0.56624 0.30582 0.0
H476 H 0.46735 0.59317 0.14234 0.0
H477 H 0.49609 0.59947 0.20105 0.0
loop_
_geom_bond_atom_site_label_1
_geom_bond_atom_site_label_2
_geom_bond_distance
_geom_bond_site_symmetry_2
_ccdc_geom_bond_type
O0 Mg1 1.990 . S
O0 C14 1.253 . S
Mg1 O0 1.990 . S
Mg1 O4 2.180 . S
Mg1 O5 2.117 . S
Mg1 O19 2.030 1_545 S
O2 Mg3 2.072 1_565 S
O2 C14 1.260 1_565 S
Mg3 O2 2.072 1_545 S
Mg3 O4 2.099 . S
Mg3 O6 2.079 1_554 S
Mg3 O7 2.072 . S
Mg3 O9 2.099 1_444 S
Mg3 O20 2.079 1_545 S
O4 Mg1 2.180 . S
O4 Mg3 2.099 . S
O4 C15 1.279 . S
O5 Mg1 2.117 . S
O5 C15 1.250 . S
O6 Mg3 2.079 1_556 S
O6 C16 1.264 . S
O7 Mg3 2.072 . S
O7 C17 1.260 1_454 S
Mg8 O9 2.180 . S
Mg8 O10 2.030 1_565 S
Mg8 O11 1.990 1_565 S
Mg8 O12 2.117 . S
O9 Mg3 2.099 1_666 S
O9 Mg8 2.180 . S
O9 C18 1.286 . S
O10 Mg8 2.030 1_545 S
O10 C16 1.248 1_655 S
O11 Mg8 1.990 1_545 S
O11 C17 1.253 . S
O12 Mg8 2.117 . S
O12 C18 1.252 . S
C13 O19 1.248 . S
C13 O20 1.264 . S
C14 O0 1.253 . S
C14 O2 1.260 1_545 S
C15 O4 1.279 . S
C15 O5 1.250 . S
C16 O6 1.264 . S
C16 O10 1.248 1_455 S
C17 O7 1.260 1_656 S
C17 O11 1.253 . S
C18 O9 1.286 . S
C18 O12 1.252 . S
O19 Mg1 2.030 1_565 S
O19 C13 1.248 . S
O20 Mg3 2.079 1_565 S
O20 C13 1.264 . S
O21 Mg22 1.990 . S
O21 C35 1.253 . S
Mg22 O21 1.990 . S
Mg22 O25 2.180 . S
Mg22 O26 2.117 . S
Mg22 O40 2.030 . S
O23 Mg24 2.072 . S
O23 C35 1.260 . S
Mg24 O23 2.072 . S
Mg24 O25 2.099 . S
Mg24 O27 2.079 . S
Mg24 O28 2.072 . S
Mg24 O30 2.099 . S
Mg24 O41 2.079 . S
O25 Mg22 2.180 . S
O25 Mg24 2.099 . S
O25 C36 1.279 . S
O26 Mg22 2.117 . S
O26 C36 1.250 . S
O27 Mg24 2.079 . S
O27 C37 1.264 . S
O28 Mg24 2.072 . S
O28 C38 1.260 . S
Mg29 O30 2.180 . S
Mg29 O31 2.030 . S
Mg29 O32 1.990 . S
Mg29 O33 2.117 . S
O30 Mg24 2.099 . S
O30 Mg29 2.180 . S
O30 C39 1.279 . S
O31 Mg29 2.030 . S
O31 C37 1.248 . S
O32 Mg29 1.990 . S
O32 C38 1.253 . S
O33 Mg29 2.117 . S
O33 C39 1.250 . S
C34 O40 1.248 . S
C34 O41 1.264 . S
C35 O21 1.253 . S
C35 O23 1.260 . S
C36 O25 1.279 . S
C36 O26 1.250 . S
C37 O27 1.264 . S
C37 O31 1.248 . S
C38 O28 1.260 . S
C38 O32 1.253 . S
C39 O30 1.279 . S
C39 O33 1.250 . S
O40 Mg22 2.030 . S
O40 C34 1.248 . S
O41 Mg24 2.079 . S
O41 C34 1.264 . S
H42 C43 0.949 . S
C43 H42 0.949 . S
C43 C44 1.395 1_545 S
C43 C45 1.391 . S
C44 C43 1.395 1_565 S
C44 C47 1.390 . S
C45 C43 1.391 . S
C45 C49 1.387 1_545 S
C45 C50 1.491 . S
H46 C47 0.950 . S
C47 C44 1.390 . S
C47 H46 0.950 . S
C47 C48 1.378 . S
C48 C47 1.378 . S
C48 C49 1.409 . S
C49 C45 1.387 1_565 S
C49 C48 1.409 . S
C49 H51 0.951 . S
C50 C45 1.491 . S
C50 C52 1.382 . S
C50 C54 1.404 . S
H51 C49 0.951 . S
C52 C50 1.382 . S
C52 C53 1.390 . S
C52 H57 0.949 . S
C53 C52 1.390 . S
C53 C58 1.399 . S
C54 C50 1.404 . S
C54 H55 0.950 . S
C54 C56 1.375 . S
H55 C54 0.950 . S
C56 C54 1.375 . S
C56 C58 1.382 . S
C56 H60 0.950 . S
H57 C52 0.949 . S
C58 C53 1.399 . S
C58 C56 1.382 . S
C58 H59 0.952 . S
H59 C58 0.952 . S
H60 C56 0.950 . S
H61 C62 0.951 . S
C62 H61 0.951 . S
C62 C63 1.393 1_455 S
C62 C64 1.391 1_455 S
C63 C62 1.393 1_655 S
C63 C66 1.390 . S
C64 C62 1.391 1_655 S
C64 C68 1.387 . S
C64 C69 1.491 1_655 S
H65 C66 0.950 1_565 S
C66 C63 1.390 . S
C66 H65 0.950 1_545 S
C66 C67 1.378 1_545 S
C67 C66 1.378 1_565 S
C67 C68 1.409 1_565 S
C68 C64 1.387 . S
C68 C67 1.409 1_545 S
C68 H70 0.951 . S
C69 C64 1.491 1_455 S
C69 C71 1.382 . S
C69 C73 1.404 1_455 S
H70 C68 0.951 . S
C71 C69 1.382 . S
C71 C72 1.390 . S
C71 H76 0.949 . S
C72 C71 1.390 . S
C72 C77 1.399 . S
C73 C69 1.404 1_655 S
C73 H74 0.950 . S
C73 C75 1.375 . S
H74 C73 0.950 . S
C75 C73 1.375 . S
C75 C77 1.382 1_655 S
C75 H79 0.950 . S
H76 C71 0.949 . S
C77 C72 1.399 . S
C77 C75 1.382 1_455 S
C77 H78 0.952 . S
H78 C77 0.952 . S
H79 C75 0.950 . S
H80 C81 0.949 . S
C81 H80 0.949 . S
C81 C82 1.395 . S
C81 C83 1.391 . S
C82 C81 1.395 . S
C82 C85 1.390 . S
C83 C81 1.391 . S
C83 C87 1.387 . S
C83 C88 1.491 . S
H84 C85 0.950 . S
C85 C82 1.390 . S
C85 H84 0.950 . S
C85 C86 1.378 . S
C86 C85 1.378 . S
C86 C87 1.409 . S
C87 C83 1.387 . S
C87 C86 1.409 . S
C87 H89 0.951 1_556 S
C88 C83 1.491 . S
C88 C90 1.382 . S
C88 C92 1.404 1_556 S
H89 C87 0.951 1_554 S
C90 C88 1.382 . S
C90 C91 1.390 1_556 S
C90 H95 0.949 . S
C91 C90 1.390 1_554 S
C91 C96 1.399 . S
C92 C88 1.404 1_554 S
C92 H93 0.950 . S
C92 C94 1.375 . S
H93 C92 0.950 . S
C94 C92 1.375 . S
C94 C96 1.382 . S
C94 H98 0.950 . S
H95 C90 0.949 . S
C96 C91 1.399 . S
C96 C94 1.382 . S
C96 H97 0.952 . S
H97 C96 0.952 . S
H98 C94 0.950 . S
H99 C100 0.949 . S
C100 H99 0.949 . S
C100 C101 1.395 . S
C100 C102 1.391 . S
C101 C100 1.395 . S
C101 C104 1.390 . S
C102 C100 1.391 . S
C102 C106 1.387 . S
C102 C107 1.491 . S
H103 C104 0.950 . S
C104 C101 1.390 . S
C104 H103 0.950 . S
C104 C105 1.378 . S
C105 C104 1.378 . S
C105 C106 1.409 . S
C106 C102 1.387 . S
C106 C105 1.409 . S
C106 H108 0.951 . S
C107 C102 1.491 . S
C107 C109 1.382 . S
C107 C111 1.404 . S
H108 C106 0.951 . S
C109 C107 1.382 . S
C109 C110 1.390 . S
C109 H114 0.949 . S
C110 C109 1.390 . S
C110 C115 1.399 1_554 S
C111 C107 1.404 . S
C111 H112 0.950 1_554 S
C111 C113 1.375 1_554 S
H112 C111 0.950 1_556 S
C113 C111 1.375 1_556 S
C113 C115 1.382 . S
C113 H117 0.950 . S
H114 C109 0.949 . S
C115 C110 1.399 1_556 S
C115 C113 1.382 . S
C115 H116 0.952 . S
H116 C115 0.952 . S
H117 C113 0.950 . S
C118 C119 1.349 . S
C118 C120 1.327 . S
C118 H143 0.950 1_554 S
C119 C118 1.349 . S
C119 C135 1.349 . S
C120 C118 1.327 . S
C120 C139 1.429 . S
C120 H144 0.950 1_554 S
C121 C138 1.574 . S
C121 C140 1.368 . S
C121 H145 0.949 . S
H122 C126 0.949 . S
C123 C124 1.349 . S
C123 C125 1.327 . S
C123 H146 0.950 . S
C124 C123 1.349 . S
C124 C136 1.349 . S
C125 C123 1.327 . S
C125 C141 1.429 . S
C125 H147 0.950 . S
C126 H122 0.949 . S
C126 C134 1.574 . S
C126 C142 1.368 . S
H127 C135 0.950 . S
H128 C133 0.950 . S
H129 C134 0.949 1_556 S
H130 C136 0.950 . S
H131 C137 0.950 . S
H132 C138 0.949 . S
C133 H128 0.950 . S
C133 C135 1.327 . S
C133 C139 1.429 . S
C134 C126 1.574 . S
C134 H129 0.949 1_554 S
C134 C140 1.368 . S
C135 C119 1.349 . S
C135 H127 0.950 . S
C135 C133 1.327 . S
C136 C124 1.349 . S
C136 H130 0.950 . S
C136 C137 1.327 . S
C137 H131 0.950 . S
C137 C136 1.327 . S
C137 C141 1.429 . S
C138 C121 1.574 . S
C138 H132 0.949 . S
C138 C142 1.368 . S
C139 C120 1.429 . S
C139 C133 1.429 . S
C139 C140 1.523 . S
C140 C121 1.368 . S
C140 C134 1.368 . S
C140 C139 1.523 . S
C141 C125 1.429 . S
C141 C137 1.429 . S
C141 C142 1.523 . S
C142 C126 1.368 . S
C142 C138 1.368 . S
C142 C141 1.523 . S
H143 C118 0.950 1_556 S
H144 C120 0.950 1_556 S
H145 C121 0.949 . S
H146 C123 0.950 . S
H147 C125 0.950 . S
C148 C149 1.349 . S
C148 C150 1.327 . S
C148 H173 0.950 . S
C149 C148 1.349 . S
C149 C165 1.328 1_554 S
C150 C148 1.327 . S
C150 C169 1.429 . S
C150 H174 0.950 . S
C151 C168 1.574 . S
C151 C170 1.368 1_556 S
C151 H175 0.949 . S
H152 C156 0.949 . S
C153 C154 1.349 1_556 S
C153 C155 1.327 . S
C153 H176 0.950 . S
C154 C153 1.349 1_554 S
C154 C166 1.349 . S
C155 C153 1.327 . S
C155 C171 1.429 1_556 S
C155 H177 0.950 . S
C156 H152 0.949 . S
C156 C164 1.574 . S
C156 C172 1.368 . S
H157 C165 0.967 . S
H158 C163 0.950 . S
H159 C164 0.949 . S
H160 C166 0.950 . S
H161 C167 0.950 . S
H162 C168 0.949 . S
C163 H158 0.950 . S
C163 C165 1.331 . S
C163 C169 1.429 1_556 S
C164 C156 1.574 . S
C164 H159 0.949 . S
C164 C170 1.368 . S
C165 C149 1.328 1_556 S
C165 H157 0.967 . S
C165 C163 1.331 . S
C166 C154 1.349 . S
C166 H160 0.950 . S
C166 C167 1.327 . S
C167 H161 0.950 . S
C167 C166 1.327 . S
C167 C171 1.429 . S
C168 C151 1.574 . S
C168 H162 0.949 . S
C168 C172 1.368 1_556 S
C169 C150 1.429 . S
C169 C163 1.429 1_554 S
C169 C170 1.523 . S
C170 C151 1.368 1_554 S
C170 C164 1.368 . S
C170 C169 1.523 . S
C171 C155 1.429 1_554 S
C171 C167 1.429 . S
C171 C172 1.523 . S
C172 C156 1.368 . S
C172 C168 1.368 1_554 S
C172 C171 1.523 . S
H173 C148 0.950 . S
H174 C150 0.950 . S
H175 C151 0.949 . S
H176 C153 0.950 . S
H177 C155 0.950 . S
C178 C179 1.349 1_556 S
C178 C180 1.327 . S
C178 H203 0.950 . S
C179 C178 1.349 1_554 S
C179 C195 1.349 . S
C180 C178 1.327 . S
C180 C199 1.429 1_556 S
C180 H204 0.950 . S
C181 C198 1.574 . S
C181 C200 1.368 . S
C181 H205 0.949 . S
H182 C186 0.949 . S
C183 C184 1.349 . S
C183 C185 1.327 . S
C183 H206 0.950 . S
C184 C183 1.349 . S
C184 C196 1.349 . S
C185 C183 1.327 . S
C185 C201 1.429 . S
C185 H207 0.950 . S
C186 H182 0.949 . S
C186 C194 1.574 . S
C186 C202 1.368 1_556 S
H187 C195 0.950 . S
H188 C193 0.950 . S
H189 C194 0.949 . S
H190 C196 0.950 1_556 S
H191 C197 0.950 1_556 S
H192 C198 0.949 . S
C193 H188 0.950 . S
C193 C195 1.327 . S
C193 C199 1.429 . S
C194 C186 1.574 . S
C194 H189 0.949 . S
C194 C200 1.368 1_556 S
C195 C179 1.349 . S
C195 H187 0.950 . S
C195 C193 1.327 . S
C196 C184 1.349 . S
C196 H190 0.950 1_554 S
C196 C197 1.327 . S
C197 H191 0.950 1_554 S
C197 C196 1.327 . S
C197 C201 1.429 . S
C198 C181 1.574 . S
C198 H192 0.949 . S
C198 C202 1.368 . S
C199 C180 1.429 1_554 S
C199 C193 1.429 . S
C199 C200 1.523 . S
C200 C181 1.368 . S
C200 C194 1.368 1_554 S
C200 C199 1.523 . S
C201 C185 1.429 . S
C201 C197 1.429 . S
C201 C202 1.523 . S
C202 C186 1.368 1_554 S
C202 C198 1.368 . S
C202 C201 1.523 . S
H203 C178 0.950 . S
H204 C180 0.950 . S
H205 C181 0.949 . S
H206 C183 0.950 . S
H207 C185 0.950 . S
C208 C209 1.349 1_554 S
C208 C210 1.327 . S
C208 H233 0.950 . S
C209 C208 1.349 1_556 S
C209 C225 1.349 . S
C210 C208 1.327 . S
C210 C229 1.429 1_554 S
C210 H234 0.950 . S
C211 C228 1.574 . S
C211 C230 1.368 . S
C211 H235 0.949 . S
H212 C216 0.949 . S
C213 C214 1.349 . S
C213 C215 1.327 . S
C213 H236 0.950 . S
C214 C213 1.349 . S
C214 C226 1.349 1_556 S
C215 C213 1.327 . S
C215 C231 1.429 . S
C215 H237 0.950 . S
C216 H212 0.949 . S
C216 C224 1.574 . S
C216 C232 1.368 1_554 S
H217 C225 0.950 . S
H218 C223 0.950 . S
H219 C224 0.949 . S
H220 C226 0.950 . S
H221 C227 0.950 . S
H222 C228 0.949 . S
C223 H218 0.950 . S
C223 C225 1.327 . S
C223 C229 1.429 . S
C224 C216 1.574 . S
C224 H219 0.949 . S
C224 C230 1.368 1_554 S
C225 C209 1.349 . S
C225 H217 0.950 . S
C225 C223 1.327 . S
C226 C214 1.349 1_554 S
C226 H220 0.950 . S
C226 C227 1.327 . S
C227 H221 0.950 . S
C227 C226 1.327 . S
C227 C231 1.429 1_554 S
C228 C211 1.574 . S
C228 H222 0.949 . S
C228 C232 1.368 . S
C229 C210 1.429 1_556 S
C229 C223 1.429 . S
C229 C230 1.523 . S
C230 C211 1.368 . S
C230 C224 1.368 1_556 S
C230 C229 1.523 . S
C231 C215 1.429 . S
C231 C227 1.429 1_556 S
C231 C232 1.523 . S
C232 C216 1.368 1_556 S
C232 C228 1.368 . S
C232 C231 1.523 . S
H233 C208 0.950 . S
H234 C210 0.950 . S
H235 C211 0.949 . S
H236 C213 0.950 . S
H237 C215 0.950 . S
C238 C239 1.349 . S
C238 C240 1.327 . S
C238 H263 0.950 . S
C239 C238 1.349 . S
C239 C255 1.349 . S
C240 C238 1.327 . S
C240 C259 1.429 . S
C240 H264 0.950 . S
C241 C258 1.574 . S
C241 C260 1.368 . S
C241 H265 0.949 . S
H242 C246 0.949 . S
C243 C244 1.349 . S
C243 C245 1.327 . S
C243 H266 0.950 . S
C244 C243 1.349 . S
C244 C256 1.349 . S
C245 C243 1.327 . S
C245 C261 1.429 . S
C245 H267 0.950 . S
C246 H242 0.949 . S
C246 C254 1.574 . S
C246 C262 1.368 . S
H247 C255 0.950 . S
H248 C253 0.950 . S
H249 C254 0.949 . S
H250 C256 0.950 . S
H251 C257 0.950 . S
H252 C258 0.949 . S
C253 H248 0.950 . S
C253 C255 1.327 . S
C253 C259 1.429 . S
C254 C246 1.574 . S
C254 H249 0.949 . S
C254 C260 1.368 . S
C255 C239 1.349 . S
C255 H247 0.950 . S
C255 C253 1.327 . S
C256 C244 1.349 . S
C256 H250 0.950 . S
C256 C257 1.327 . S
C257 H251 0.950 . S
C257 C256 1.327 . S
C257 C261 1.429 . S
C258 C241 1.574 . S
C258 H252 0.949 . S
C258 C262 1.368 . S
C259 C240 1.429 . S
C259 C253 1.429 . S
C259 C260 1.523 . S
C260 C241 1.368 . S
C260 C254 1.368 . S
C260 C259 1.523 . S
C261 C245 1.429 . S
C261 C257 1.429 . S
C261 C262 1.523 . S
C262 C246 1.368 . S
C262 C258 1.368 . S
C262 C261 1.523 . S
H263 C238 0.950 . S
H264 C240 0.950 . S
H265 C241 0.949 . S
H266 C243 0.950 . S
H267 C245 0.950 . S
C268 C269 1.349 . S
C268 C270 1.327 . S
C268 H293 0.950 . S
C269 C268 1.349 . S
C269 C285 1.349 . S
C270 C268 1.327 . S
C270 C289 1.429 . S
C270 H294 0.950 . S
C271 C288 1.574 . S
C271 C290 1.368 . S
C271 H295 0.949 . S
H272 C276 0.949 . S
C273 C274 1.349 . S
C273 C275 1.327 . S
C273 H296 0.950 . S
C274 C273 1.349 . S
C274 C286 1.349 . S
C275 C273 1.327 . S
C275 C291 1.429 . S
C275 H297 0.950 . S
C276 H272 0.949 . S
C276 C284 1.574 . S
C276 C292 1.368 . S
H277 C285 0.950 . S
H278 C283 0.950 . S
H279 C284 0.949 . S
H280 C286 0.950 . S
H281 C287 0.950 . S
H282 C288 0.949 . S
C283 H278 0.950 . S
C283 C285 1.327 . S
C283 C289 1.429 . S
C284 C276 1.574 . S
C284 H279 0.949 . S
C284 C290 1.368 . S
C285 C269 1.349 . S
C285 H277 0.950 . S
C285 C283 1.327 . S
C286 C274 1.349 . S
C286 H280 0.950 . S
C286 C287 1.327 . S
C287 H281 0.950 . S
C287 C286 1.327 . S
C287 C291 1.429 . S
C288 C271 1.574 . S
C288 H282 0.949 . S
C288 C292 1.368 . S
C289 C270 1.429 . S
C289 C283 1.429 . S
C289 C290 1.523 . S
C290 C271 1.368 . S
C290 C284 1.368 . S
C290 C289 1.523 . S
C291 C275 1.429 . S
C291 C287 1.429 . S
C291 C292 1.523 . S
C292 C276 1.368 . S
C292 C288 1.368 . S
C292 C291 1.523 . S
H293 C268 0.950 . S
H294 C270 0.950 . S
H295 C271 0.949 . S
H296 C273 0.950 . S
H297 C275 0.950 . S
C298 C299 1.349 . S
C298 C300 1.327 . S
C298 H323 0.950 . S
C299 C298 1.349 . S
C299 C315 1.349 . S
C300 C298 1.327 . S
C300 C319 1.429 . S
C300 H324 0.950 . S
C301 C318 1.574 . S
C301 C320 1.368 . S
C301 H325 0.949 . S
H302 C306 0.949 . S
C303 C304 1.349 . S
C303 C305 1.327 . S
C303 H326 0.950 . S
C304 C303 1.349 . S
C304 C316 1.349 . S
C305 C303 1.327 . S
C305 C321 1.429 . S
C305 H327 0.950 . S
C306 H302 0.949 . S
C306 C314 1.574 . S
C306 C322 1.368 . S
H307 C315 0.950 . S
H308 C313 0.950 . S
H309 C314 0.949 . S
H310 C316 0.950 . S
H311 C317 0.950 . S
H312 C318 0.949 . S
C313 H308 0.950 . S
C313 C315 1.327 . S
C313 C319 1.429 . S
C314 C306 1.574 . S
C314 H309 0.949 . S
C314 C320 1.368 . S
C315 C299 1.349 . S
C315 H307 0.950 . S
C315 C313 1.327 . S
C316 C304 1.349 . S
C316 H310 0.950 . S
C316 C317 1.327 . S
C317 H311 0.950 . S
C317 C316 1.327 . S
C317 C321 1.429 . S
C318 C301 1.574 . S
C318 H312 0.949 . S
C318 C322 1.368 . S
C319 C300 1.429 . S
C319 C313 1.429 . S
C319 C320 1.523 . S
C320 C301 1.368 . S
C320 C314 1.368 . S
C320 C319 1.523 . S
C321 C305 1.429 . S
C321 C317 1.429 . S
C321 C322 1.523 . S
C322 C306 1.368 . S
C322 C318 1.368 . S
C322 C321 1.523 . S
H323 C298 0.950 . S
H324 C300 0.950 . S
H325 C301 0.949 . S
H326 C303 0.950 . S
H327 C305 0.950 . S
C328 C329 1.349 . S
C328 C330 1.327 . S
C328 H353 0.950 . S
C329 C328 1.349 . S
C329 C345 1.349 . S
C330 C328 1.327 . S
C330 C349 1.429 . S
C330 H354 0.950 . S
C331 C348 1.574 . S
C331 C350 1.368 . S
C331 H355 0.949 . S
H332 C336 0.949 . S
C333 C334 1.349 . S
C333 C335 1.327 . S
C333 H356 0.950 . S
C334 C333 1.349 . S
C334 C346 1.349 . S
C335 C333 1.327 . S
C335 C351 1.429 . S
C335 H357 0.950 . S
C336 H332 0.949 . S
C336 C344 1.574 . S
C336 C352 1.368 . S
H337 C345 0.950 . S
H338 C343 0.950 . S
H339 C344 0.949 . S
H340 C346 0.950 . S
H341 C347 0.950 . S
H342 C348 0.949 . S
C343 H338 0.950 . S
C343 C345 1.327 . S
C343 C349 1.429 . S
C344 C336 1.574 . S
C344 H339 0.949 . S
C344 C350 1.368 . S
C345 C329 1.349 . S
C345 H337 0.950 . S
C345 C343 1.327 . S
C346 C334 1.349 . S
C346 H340 0.950 . S
C346 C347 1.327 . S
C347 H341 0.950 . S
C347 C346 1.327 . S
C347 C351 1.429 . S
C348 C331 1.574 . S
C348 H342 0.949 . S
C348 C352 1.368 . S
C349 C330 1.429 . S
C349 C343 1.429 . S
C349 C350 1.523 . S
C350 C331 1.368 . S
C350 C344 1.368 . S
C350 C349 1.523 . S
C351 C335 1.429 . S
C351 C347 1.429 . S
C351 C352 1.523 . S
C352 C336 1.368 . S
C352 C348 1.368 . S
C352 C351 1.523 . S
H353 C328 0.950 . S
H354 C330 0.950 . S
H355 C331 0.949 . S
H356 C333 0.950 . S
H357 C335 0.950 . S
C358 C359 1.349 1_545 S
C358 C360 1.327 . S
C358 H383 0.950 . S
C359 C358 1.349 1_565 S
C359 C375 1.349 . S
C360 C358 1.327 . S
C360 C379 1.429 1_545 S
C360 H384 0.950 . S
C361 C378 1.574 . S
C361 C380 1.368 . S
C361 H385 0.949 . S
H362 C366 0.949 . S
C363 C364 1.349 . S
C363 C365 1.327 . S
C363 H386 0.950 . S
C364 C363 1.349 . S
C364 C376 1.349 1_565 S
C365 C363 1.327 . S
C365 C381 1.429 . S
C365 H387 0.950 . S
C366 H362 0.949 . S
C366 C374 1.574 . S
C366 C382 1.368 1_545 S
H367 C375 0.950 . S
H368 C373 0.950 . S
H369 C374 0.949 . S
H370 C376 0.950 . S
H371 C377 0.950 . S
H372 C378 0.949 . S
C373 H368 0.950 . S
C373 C375 1.327 . S
C373 C379 1.429 . S
C374 C366 1.574 . S
C374 H369 0.949 . S
C374 C380 1.368 1_545 S
C375 C359 1.349 . S
C375 H367 0.950 . S
C375 C373 1.327 . S
C376 C364 1.349 1_545 S
C376 H370 0.950 . S
C376 C377 1.327 . S
C377 H371 0.950 . S
C377 C376 1.327 . S
C377 C381 1.429 1_545 S
C378 C361 1.574 . S
C378 H372 0.949 . S
C378 C382 1.368 . S
C379 C360 1.429 1_565 S
C379 C373 1.429 . S
C379 C380 1.523 . S
C380 C361 1.368 . S
C380 C374 1.368 1_565 S
C380 C379 1.523 . S
C381 C365 1.429 . S
C381 C377 1.429 1_565 S
C381 C382 1.523 . S
C382 C366 1.368 1_565 S
C382 C378 1.368 . S
C382 C381 1.523 . S
H383 C358 0.950 . S
H384 C360 0.950 . S
H385 C361 0.949 . S
H386 C363 0.950 . S
H387 C365 0.950 . S
C388 C389 1.349 . S
C388 C390 1.327 . S
C388 H413 0.950 . S
C389 C388 1.349 . S
C389 C405 1.345 1_445 S
C390 C388 1.327 . S
C390 C409 1.429 . S
C390 H414 0.950 . S
C391 C408 1.574 1_565 S
C391 C410 1.368 1_665 S
C391 H415 0.949 . S
H392 C396 0.949 . S
C393 C394 1.349 . S
C393 C395 1.327 . S
C393 H416 0.950 1_545 S
C394 C393 1.349 . S
C394 C406 1.349 1_655 S
C395 C393 1.327 . S
C395 C411 1.429 1_655 S
C395 H417 0.950 1_545 S
C396 H392 0.949 . S
C396 C404 1.574 . S
C396 C412 1.368 . S
H397 C405 0.954 . S
H398 C403 0.950 . S
H399 C404 0.949 . S
H400 C406 0.950 . S
H401 C407 0.950 . S
H402 C408 0.949 1_565 S
C403 H398 0.950 . S
C403 C405 1.326 . S
C403 C409 1.429 1_665 S
C404 C396 1.574 . S
C404 H399 0.949 . S
C404 C410 1.368 . S
C405 C389 1.345 1_665 S
C405 H397 0.954 . S
C405 C403 1.326 . S
C406 C394 1.349 1_455 S
C406 H400 0.950 . S
C406 C407 1.327 . S
C407 H401 0.950 . S
C407 C406 1.327 . S
C407 C411 1.429 . S
C408 C391 1.574 1_545 S
C408 H402 0.949 1_545 S
C408 C412 1.368 1_655 S
C409 C390 1.429 . S
C409 C403 1.429 1_445 S
C409 C410 1.523 . S
C410 C391 1.368 1_445 S
C410 C404 1.368 . S
C410 C409 1.523 . S
C411 C395 1.429 1_455 S
C411 C407 1.429 . S
C411 C412 1.523 . S
C412 C396 1.368 . S
C412 C408 1.368 1_455 S
C412 C411 1.523 . S
H413 C388 0.950 . S
H414 C390 0.950 . S
H415 C391 0.949 . S
H416 C393 0.950 1_565 S
H417 C395 0.950 1_565 S
C418 C419 1.349 . S
C418 C420 1.327 . S
C418 H443 0.950 . S
C419 C418 1.349 . S
C419 C435 1.349 . S
C420 C418 1.327 . S
C420 C439 1.429 . S
C420 H444 0.950 . S
C421 C438 1.574 . S
C421 C440 1.368 . S
C421 H445 0.949 . S
H422 C426 0.949 . S
C423 C424 1.349 . S
C423 C425 1.327 . S
C423 H446 0.950 . S
C424 C423 1.349 . S
C424 C436 1.349 . S
C425 C423 1.327 . S
C425 C441 1.429 . S
C425 H447 0.950 . S
C426 H422 0.949 . S
C426 C434 1.574 . S
C426 C442 1.368 . S
H427 C435 0.950 . S
H428 C433 0.950 . S
H429 C434 0.949 . S
H430 C436 0.950 . S
H431 C437 0.950 . S
H432 C438 0.949 . S
C433 H428 0.950 . S
C433 C435 1.327 . S
C433 C439 1.429 . S
C434 C426 1.574 . S
C434 H429 0.949 . S
C434 C440 1.368 . S
C435 C419 1.349 . S
C435 H427 0.950 . S
C435 C433 1.327 . S
C436 C424 1.349 . S
C436 H430 0.950 . S
C436 C437 1.327 . S
C437 H431 0.950 . S
C437 C436 1.327 . S
C437 C441 1.429 . S
C438 C421 1.574 . S
C438 H432 0.949 . S
C438 C442 1.368 . S
C439 C420 1.429 . S
C439 C433 1.429 . S
C439 C440 1.523 . S
C440 C421 1.368 . S
C440 C434 1.368 . S
C440 C439 1.523 . S
C441 C425 1.429 . S
C441 C437 1.429 . S
C441 C442 1.523 . S
C442 C426 1.368 . S
C442 C438 1.368 . S
C442 C441 1.523 . S
H443 C418 0.950 . S
H444 C420 0.950 . S
H445 C421 0.949 . S
H446 C423 0.950 . S
H447 C425 0.950 . S
C448 C449 1.349 . S
C448 C450 1.327 . S
C448 H473 0.950 . S
C449 C448 1.349 . S
C449 C465 1.349 . S
C450 C448 1.327 . S
C450 C469 1.429 . S
C450 H474 0.950 . S
C451 C468 1.574 . S
C451 C470 1.368 . S
C451 H475 0.949 . S
H452 C456 0.949 . S
C453 C454 1.349 . S
C453 C455 1.327 . S
C453 H476 0.950 . S
C454 C453 1.349 . S
C454 C466 1.349 . S
C455 C453 1.327 . S
C455 C471 1.429 . S
C455 H477 0.950 . S
C456 H452 0.949 . S
C456 C464 1.574 . S
C456 C472 1.368 . S
H457 C465 0.950 . S
H458 C463 0.950 . S
H459 C464 0.949 . S
H460 C466 0.950 . S
H461 C467 0.950 . S
H462 C468 0.949 . S
C463 H458 0.950 . S
C463 C465 1.327 . S
C463 C469 1.429 . S
C464 C456 1.574 . S
C464 H459 0.949 . S
C464 C470 1.368 . S
C465 C449 1.349 . S
C465 H457 0.950 . S
C465 C463 1.327 . S
C466 C454 1.349 . S
C466 H460 0.950 . S
C466 C467 1.327 . S
C467 H461 0.950 . S
C467 C466 1.327 . S
C467 C471 1.429 . S
C468 C451 1.574 . S
C468 H462 0.949 . S
C468 C472 1.368 . S
C469 C450 1.429 . S
C469 C463 1.429 . S
C469 C470 1.523 . S
C470 C451 1.368 . S
C470 C464 1.368 . S
C470 C469 1.523 . S
C471 C455 1.429 . S
C471 C467 1.429 . S
C471 C472 1.523 . S
C472 C456 1.368 . S
C472 C468 1.368 . S
C472 C471 1.523 . S
H473 C448 0.950 . S
H474 C450 0.950 . S
H475 C451 0.949 . S
H476 C453 0.950 . S
H477 C455 0.950 . S
C124 C105 1.522 . S
C119 C15 1.388 . S
C149 C13 1.379 . S
C154 C91 1.367 . S
C179 C18 1.250 1_554 S
C184 C110 1.413 . S
C209 C17 1.507 . S
C214 C86 1.538 . S
C239 C36 1.388 . S
C244 C67 1.524 . S
C269 C34 1.379 . S
C274 C53 1.368 1_655 S
C304 C72 1.413 . S
C299 C39 1.256 . S
C334 C48 1.538 . S
C329 C38 1.507 . S
C359 C14 1.637 1_565 S
C364 C44 1.676 . S
C389 C16 1.403 . S
C394 C63 1.418 . S
C424 C82 1.676 . S
C419 C35 1.637 . S
C449 C37 1.403 . S
C454 C101 1.418 . S
