# Generated by pormake.
# Topology eea, (3,6)-cn, num edge types: 1
# Building blocks:
#     Node 0, Type 0, BuildingBlock: MIDCAF_clean_linker_0, # of connection points: 3
#     Node 1, Type 0, BuildingBlock: MIDCAF_clean_linker_0, # of connection points: 3
#     Node 2, Type 0, BuildingBlock: MIDCAF_clean_linker_0, # of connection points: 3
#     Node 3, Type 0, BuildingBlock: MIDCAF_clean_linker_0, # of connection points: 3
#     Node 4, Type 0, BuildingBlock: MIDCAF_clean_linker_0, # of connection points: 3
#     Node 5, Type 0, BuildingBlock: MIDCAF_clean_linker_0, # of connection points: 3
#     Node 6, Type 0, BuildingBlock: MIDCAF_clean_linker_0, # of connection points: 3
#     Node 7, Type 0, BuildingBlock: MIDCAF_clean_linker_0, # of connection points: 3
#     Node 8, Type 0, BuildingBlock: MIDCAF_clean_linker_0, # of connection points: 3
#     Node 9, Type 0, BuildingBlock: MIDCAF_clean_linker_0, # of connection points: 3
#     Node 10, Type 0, BuildingBlock: MIDCAF_clean_linker_0, # of connection points: 3
#     Node 11, Type 0, BuildingBlock: MIDCAF_clean_linker_0, # of connection points: 3
#     Node 12, Type 0, BuildingBlock: MIDCAF_clean_linker_0, # of connection points: 3
#     Node 13, Type 0, BuildingBlock: MIDCAF_clean_linker_0, # of connection points: 3
#     Node 14, Type 0, BuildingBlock: MIDCAF_clean_linker_0, # of connection points: 3
#     Node 15, Type 0, BuildingBlock: MIDCAF_clean_linker_0, # of connection points: 3
#     Node 16, Type 0, BuildingBlock: MIDCAF_clean_linker_0, # of connection points: 3
#     Node 17, Type 0, BuildingBlock: MIDCAF_clean_linker_0, # of connection points: 3
#     Node 18, Type 1, BuildingBlock: LEVNOQ01_clean_sbu_1, # of connection points: 6
#     Node 19, Type 1, BuildingBlock: LEVNOQ01_clean_sbu_1, # of connection points: 6
#     Node 20, Type 1, BuildingBlock: LEVNOQ01_clean_sbu_1, # of connection points: 6
#     Node 21, Type 1, BuildingBlock: LEVNOQ01_clean_sbu_1, # of connection points: 6
#     Node 22, Type 1, BuildingBlock: LEVNOQ01_clean_sbu_1, # of connection points: 6
#     Node 23, Type 1, BuildingBlock: LEVNOQ01_clean_sbu_1, # of connection points: 6
#     Node 24, Type 1, BuildingBlock: LEVNOQ01_clean_sbu_1, # of connection points: 6
#     Node 25, Type 1, BuildingBlock: LEVNOQ01_clean_sbu_1, # of connection points: 6
#     Node 26, Type 1, BuildingBlock: LEVNOQ01_clean_sbu_1, # of connection points: 6
#     Edge 27, Type (0, 1), BuildingBlock: OJICUG_clean_linker_0, # of connection points: 2
#     Edge 28, Type (0, 1), BuildingBlock: OJICUG_clean_linker_0, # of connection points: 2
#     Edge 29, Type (0, 1), BuildingBlock: OJICUG_clean_linker_0, # of connection points: 2
#     Edge 30, Type (0, 1), BuildingBlock: OJICUG_clean_linker_0, # of connection points: 2
#     Edge 31, Type (0, 1), BuildingBlock: OJICUG_clean_linker_0, # of connection points: 2
#     Edge 32, Type (0, 1), BuildingBlock: OJICUG_clean_linker_0, # of connection points: 2
#     Edge 33, Type (0, 1), BuildingBlock: OJICUG_clean_linker_0, # of connection points: 2
#     Edge 34, Type (0, 1), BuildingBlock: OJICUG_clean_linker_0, # of connection points: 2
#     Edge 35, Type (0, 1), BuildingBlock: OJICUG_clean_linker_0, # of connection points: 2
#     Edge 36, Type (0, 1), BuildingBlock: OJICUG_clean_linker_0, # of connection points: 2
#     Edge 37, Type (0, 1), BuildingBlock: OJICUG_clean_linker_0, # of connection points: 2
#     Edge 38, Type (0, 1), BuildingBlock: OJICUG_clean_linker_0, # of connection points: 2
#     Edge 39, Type (0, 1), BuildingBlock: OJICUG_clean_linker_0, # of connection points: 2
#     Edge 40, Type (0, 1), BuildingBlock: OJICUG_clean_linker_0, # of connection points: 2
#     Edge 41, Type (0, 1), BuildingBlock: OJICUG_clean_linker_0, # of connection points: 2
#     Edge 42, Type (0, 1), BuildingBlock: OJICUG_clean_linker_0, # of connection points: 2
#     Edge 43, Type (0, 1), BuildingBlock: OJICUG_clean_linker_0, # of connection points: 2
#     Edge 44, Type (0, 1), BuildingBlock: OJICUG_clean_linker_0, # of connection points: 2
#     Edge 45, Type (0, 1), BuildingBlock: OJICUG_clean_linker_0, # of connection points: 2
#     Edge 46, Type (0, 1), BuildingBlock: OJICUG_clean_linker_0, # of connection points: 2
#     Edge 47, Type (0, 1), BuildingBlock: OJICUG_clean_linker_0, # of connection points: 2
#     Edge 48, Type (0, 1), BuildingBlock: OJICUG_clean_linker_0, # of connection points: 2
#     Edge 49, Type (0, 1), BuildingBlock: OJICUG_clean_linker_0, # of connection points: 2
#     Edge 50, Type (0, 1), BuildingBlock: OJICUG_clean_linker_0, # of connection points: 2
#     Edge 51, Type (0, 1), BuildingBlock: OJICUG_clean_linker_0, # of connection points: 2
#     Edge 52, Type (0, 1), BuildingBlock: OJICUG_clean_linker_0, # of connection points: 2
#     Edge 53, Type (0, 1), BuildingBlock: OJICUG_clean_linker_0, # of connection points: 2
#     Edge 54, Type (0, 1), BuildingBlock: OJICUG_clean_linker_0, # of connection points: 2
#     Edge 55, Type (0, 1), BuildingBlock: OJICUG_clean_linker_0, # of connection points: 2
#     Edge 56, Type (0, 1), BuildingBlock: OJICUG_clean_linker_0, # of connection points: 2
#     Edge 57, Type (0, 1), BuildingBlock: OJICUG_clean_linker_0, # of connection points: 2
#     Edge 58, Type (0, 1), BuildingBlock: OJICUG_clean_linker_0, # of connection points: 2
#     Edge 59, Type (0, 1), BuildingBlock: OJICUG_clean_linker_0, # of connection points: 2
#     Edge 60, Type (0, 1), BuildingBlock: OJICUG_clean_linker_0, # of connection points: 2
#     Edge 61, Type (0, 1), BuildingBlock: OJICUG_clean_linker_0, # of connection points: 2
#     Edge 62, Type (0, 1), BuildingBlock: OJICUG_clean_linker_0, # of connection points: 2
#     Edge 63, Type (0, 1), BuildingBlock: OJICUG_clean_linker_0, # of connection points: 2
#     Edge 64, Type (0, 1), BuildingBlock: OJICUG_clean_linker_0, # of connection points: 2
#     Edge 65, Type (0, 1), BuildingBlock: OJICUG_clean_linker_0, # of connection points: 2
#     Edge 66, Type (0, 1), BuildingBlock: OJICUG_clean_linker_0, # of connection points: 2
#     Edge 67, Type (0, 1), BuildingBlock: OJICUG_clean_linker_0, # of connection points: 2
#     Edge 68, Type (0, 1), BuildingBlock: OJICUG_clean_linker_0, # of connection points: 2
#     Edge 69, Type (0, 1), BuildingBlock: OJICUG_clean_linker_0, # of connection points: 2
#     Edge 70, Type (0, 1), BuildingBlock: OJICUG_clean_linker_0, # of connection points: 2
#     Edge 71, Type (0, 1), BuildingBlock: OJICUG_clean_linker_0, # of connection points: 2
#     Edge 72, Type (0, 1), BuildingBlock: OJICUG_clean_linker_0, # of connection points: 2
#     Edge 73, Type (0, 1), BuildingBlock: OJICUG_clean_linker_0, # of connection points: 2
#     Edge 74, Type (0, 1), BuildingBlock: OJICUG_clean_linker_0, # of connection points: 2
#     Edge 75, Type (0, 1), BuildingBlock: OJICUG_clean_linker_0, # of connection points: 2
#     Edge 76, Type (0, 1), BuildingBlock: OJICUG_clean_linker_0, # of connection points: 2
#     Edge 77, Type (0, 1), BuildingBlock: OJICUG_clean_linker_0, # of connection points: 2
#     Edge 78, Type (0, 1), BuildingBlock: OJICUG_clean_linker_0, # of connection points: 2
#     Edge 79, Type (0, 1), BuildingBlock: OJICUG_clean_linker_0, # of connection points: 2
#     Edge 80, Type (0, 1), BuildingBlock: OJICUG_clean_linker_0, # of connection points: 2
# Relax obj value: 0.095
# Max RMSD: 0.182
# Mean RMSD: 0.092
data_MOF--net-eea--node1-LEVNOQ01_clean_sbu_1--node2-MIDCAF_clean_linker_0--edge1-OJICUG_clean_linker_0
_symmetry_space_group_name_H-M    P1
_symmetry_Int_Tables_number       1
_symmetry_cell_setting            triclinic
loop_
_symmetry_equiv_pos_as_xyz
'x, y, z'
_cell_length_a     51.602809
_cell_length_b     51.172827
_cell_length_c     52.869197
_cell_angle_alpha  89.859063
_cell_angle_beta   89.659235
_cell_angle_gamma 120.10366
loop_
_atom_site_label
_atom_site_type_symbol
_atom_site_fract_x
_atom_site_fract_y
_atom_site_fract_z
_atom_type_partial_charge
C0 C 0.21891 0.00881 0.39217 0.0
C1 C 0.1912 -0.00232 0.38003 0.0
C2 C 0.17854 0.01629 0.37789 0.0
C3 C 0.19389 0.04586 0.38656 0.0
H4 H 0.20023 0.1241 0.37166 0.0
H5 H 0.1838 0.15677 0.35407 0.0
H6 H 0.24723 0.23036 0.40029 0.0
H7 H 0.26374 0.19707 0.41873 0.0
H8 H 0.27873 0.16614 0.47174 0.0
H9 H 0.29557 0.16654 0.51481 0.0
H10 H 0.31954 0.09967 0.49477 0.0
H11 H 0.3024 0.09884 0.45155 0.0
H12 H 0.25573 0.04663 0.41003 0.0
H13 H 0.22943 -0.00487 0.39379 0.0
H14 H 0.15698 0.00817 0.36903 0.0
H15 H 0.18364 0.05972 0.38429 0.0
N16 N 0.23081 0.10889 0.39743 0.0
N17 N 0.2634 0.14557 0.42582 0.0
N18 N 0.25839 0.09729 0.42547 0.0
C19 C 0.2434 0.13734 0.40663 0.0
C20 C 0.27114 0.12558 0.43514 0.0
C21 C 0.23811 0.0888 0.40669 0.0
C22 C 0.23361 0.15798 0.39651 0.0
C23 C 0.21084 0.14717 0.3783 0.0
C24 C 0.20135 0.16594 0.36811 0.0
C25 C 0.21443 0.19616 0.37562 0.0
C26 C 0.23668 0.20705 0.39428 0.0
C27 C 0.24626 0.18808 0.40466 0.0
C28 C 0.28876 0.13206 0.45844 0.0
C29 C 0.28836 0.15215 0.47624 0.0
C30 C 0.29768 0.15217 0.50091 0.0
C31 C 0.30801 0.13254 0.50797 0.0
C32 C 0.31127 0.11468 0.48966 0.0
C33 C 0.30152 0.1143 0.46503 0.0
C34 C 0.22201 0.05733 0.39795 0.0
C35 C 0.23413 0.03837 0.40121 0.0
C36 C 0.96104 0.20559 0.39971 0.0
C37 C 0.98034 0.20177 0.38318 0.0
C38 C 0.97108 0.17286 0.37355 0.0
C39 C 0.94368 0.14819 0.38093 0.0
H40 H 0.88308 0.05842 0.36375 0.0
H41 H 0.85721 0.01054 0.34129 0.0
H42 H 0.79565 0.97097 0.40437 0.0
H43 H 0.82184 0.01799 0.42691 0.0
H44 H 0.81035 0.05715 0.46284 0.0
H45 H 0.78466 0.06114 0.50011 0.0
H46 H 0.83459 0.15837 0.49339 0.0
H47 H 0.86041 0.1546 0.45606 0.0
H48 H 0.91965 0.18455 0.42036 0.0
H49 H 0.96723 0.22768 0.40709 0.0
H50 H 0.98548 0.16902 0.361 0.0
H51 H 0.93769 0.12617 0.37353 0.0
N52 N 0.88877 0.0972 0.39842 0.0
N53 N 0.84786 0.07558 0.42633 0.0
N54 N 0.88043 0.12789 0.42637 0.0
C55 C 0.86421 0.07236 0.40775 0.0
C56 C 0.85566 0.10313 0.43572 0.0
C57 C 0.89714 0.12506 0.4077 0.0
C58 C 0.85379 0.04227 0.39671 0.0
C59 C 0.86462 0.03917 0.37312 0.0
C60 C 0.84983 0.01173 0.36025 0.0
C61 C 0.82391 0.98711 0.37072 0.0
C62 C 0.81551 0.98932 0.39562 0.0
C63 C 0.83029 0.01659 0.40846 0.0
C64 C 0.83787 0.10563 0.45666 0.0
C65 C 0.81564 0.07944 0.46903 0.0
C66 C 0.80083 0.08162 0.49038 0.0
C67 C 0.80766 0.10999 0.49962 0.0
C68 C 0.82863 0.13614 0.48648 0.0
C69 C 0.84367 0.134 0.46525 0.0
C70 C 0.92491 0.15177 0.39826 0.0
C71 C 0.93366 0.18086 0.40721 0.0
C72 C 0.75402 0.73151 0.37666 0.0
C73 C 0.76441 0.75917 0.36398 0.0
C74 C 0.79399 0.77467 0.35469 0.0
C75 C 0.81353 0.76389 0.3599 0.0
H76 H 0.88587 0.73467 0.33488 0.0
H77 H 0.93492 0.74845 0.31616 0.0
H78 H 0.97434 0.7697 0.39038 0.0
H79 H 0.92558 0.75512 0.40913 0.0
H80 H 0.86728 0.68417 0.44367 0.0
H81 H 0.85731 0.66243 0.48615 0.0
H82 H 0.78765 0.68478 0.49645 0.0
H83 H 0.79734 0.70641 0.45383 0.0
H84 H 0.76515 0.70026 0.39296 0.0
H85 H 0.73108 0.71867 0.38341 0.0
H86 H 0.80252 0.79602 0.34478 0.0
H87 H 0.83673 0.77719 0.35395 0.0
N88 N 0.852 0.73856 0.37375 0.0
N89 N 0.86624 0.71965 0.40827 0.0
N90 N 0.81925 0.71599 0.40822 0.0
C91 C 0.87253 0.73338 0.38521 0.0
C92 C 0.83954 0.7108 0.41984 0.0
C93 C 0.82521 0.72973 0.38524 0.0
C94 C 0.90203 0.74366 0.37343 0.0
C95 C 0.90514 0.74259 0.34708 0.0
C96 C 0.93303 0.75044 0.3364 0.0
C97 C 0.95819 0.76036 0.35191 0.0
C98 C 0.95523 0.76246 0.37808 0.0
C99 C 0.92735 0.75388 0.38878 0.0
C100 C 0.83309 0.69697 0.44535 0.0
C101 C 0.84977 0.68438 0.45491 0.0
C102 C 0.84395 0.67178 0.47916 0.0
C103 C 0.82162 0.67186 0.49444 0.0
C104 C 0.805 0.68452 0.485 0.0
C105 C 0.8105 0.69673 0.46058 0.0
C106 C 0.80369 0.7376 0.37459 0.0
C107 C 0.77348 0.7209 0.38201 0.0
C108 C 0.02559 0.24365 0.59328 0.0
C109 C 0.01176 0.2204 0.61138 0.0
C110 C 0.02964 0.21256 0.62586 0.0
C111 C 0.06065 0.22736 0.62196 0.0
H112 H 0.13817 0.22286 0.63673 0.0
H113 H 0.171 0.20356 0.64907 0.0
H114 H 0.248 0.28717 0.62436 0.0
H115 H 0.21529 0.30628 0.61166 0.0
H116 H 0.20528 0.32662 0.55342 0.0
H117 H 0.22307 0.34033 0.50966 0.0
H118 H 0.13158 0.29631 0.48404 0.0
H119 H 0.11368 0.28293 0.52742 0.0
H120 H 0.0662 0.27592 0.57505 0.0
H121 H 0.01261 0.25086 0.5823 0.0
H122 H 0.01964 0.19467 0.63989 0.0
H123 H 0.07378 0.22047 0.63309 0.0
N124 N 0.12525 0.26102 0.61388 0.0
N125 N 0.16547 0.28858 0.58591 0.0
N126 N 0.11776 0.2797 0.57571 0.0
C127 C 0.1548 0.27339 0.60807 0.0
C128 C 0.14713 0.29174 0.56959 0.0
C129 C 0.10671 0.26464 0.59794 0.0
C130 C 0.17422 0.26579 0.62276 0.0
C131 C 0.16218 0.23751 0.63479 0.0
C132 C 0.18094 0.22641 0.64177 0.0
C133 C 0.21187 0.24359 0.63692 0.0
C134 C 0.2241 0.27318 0.6276 0.0
C135 C 0.20542 0.28418 0.62052 0.0
C136 C 0.15805 0.30362 0.54387 0.0
C137 C 0.18898 0.32016 0.53845 0.0
C138 C 0.1992 0.3279 0.5135 0.0
C139 C 0.17865 0.31872 0.49363 0.0
C140 C 0.14783 0.30303 0.49909 0.0
C141 C 0.13761 0.29574 0.52396 0.0
C142 C 0.07429 0.25015 0.60342 0.0
C143 C 0.05642 0.25824 0.58928 0.0
C144 C 0.77836 0.78191 0.59235 0.0
C145 C 0.80834 0.79509 0.60018 0.0
C146 C 0.82673 0.82663 0.59889 0.0
C147 C 0.81484 0.84473 0.592 0.0
H148 H 0.8114 0.91826 0.62912 0.0
H149 H 0.83294 0.96817 0.64857 0.0
H150 H 0.78671 0.99328 0.59446 0.0
H151 H 0.76552 0.94409 0.57506 0.0
H152 H 0.69899 0.88372 0.55701 0.0
H153 H 0.67363 0.88505 0.51847 0.0
H154 H 0.70167 0.82834 0.48116 0.0
H155 H 0.72677 0.82662 0.51956 0.0
H156 H 0.74308 0.78949 0.58014 0.0
H157 H 0.7635 0.75769 0.59335 0.0
H158 H 0.85007 0.83743 0.60423 0.0
H159 H 0.82933 0.86904 0.59217 0.0
N160 N 0.78358 0.87828 0.59329 0.0
N161 N 0.74918 0.88828 0.57333 0.0
N162 N 0.74825 0.8428 0.56536 0.0
C163 C 0.77244 0.89691 0.58929 0.0
C164 C 0.73693 0.86138 0.56135 0.0
C165 C 0.77151 0.85116 0.58148 0.0
C166 C 0.78655 0.92716 0.60071 0.0
C167 C 0.80619 0.93463 0.62122 0.0
C168 C 0.81859 0.96315 0.63229 0.0
C169 C 0.81182 0.98467 0.62278 0.0
C170 C 0.79293 0.97742 0.60182 0.0
C171 C 0.78037 0.94899 0.59096 0.0
C172 C 0.71523 0.85543 0.5411 0.0
C173 C 0.69906 0.87088 0.54077 0.0
C174 C 0.68461 0.87173 0.51882 0.0
C175 C 0.68652 0.85745 0.49694 0.0
C176 C 0.70049 0.83995 0.49786 0.0
C177 C 0.71455 0.83872 0.51988 0.0
C178 C 0.78448 0.83166 0.58573 0.0
C179 C 0.76657 0.80009 0.585 0.0
C180 C 0.19994 0.96605 0.61584 0.0
C181 C 0.18538 0.97376 0.63439 0.0
C182 C 0.15676 0.95161 0.64293 0.0
C183 C 0.14329 0.92224 0.63352 0.0
H184 H 0.07396 0.83347 0.64724 0.0
H185 H 0.0261 0.79237 0.66294 0.0
H186 H 0.02963 0.7328 0.60696 0.0
H187 H 0.0774 0.77313 0.59191 0.0
H188 H 0.11911 0.7984 0.54589 0.0
H189 H 0.12889 0.79205 0.50218 0.0
H190 H 0.19225 0.88765 0.4958 0.0
H191 H 0.18209 0.8943 0.53975 0.0
H192 H 0.19838 0.93161 0.59215 0.0
H193 H 0.22225 0.98232 0.60924 0.0
H194 H 0.14477 0.9569 0.65699 0.0
H195 H 0.12127 0.90569 0.64052 0.0
N196 N 0.11995 0.86028 0.61656 0.0
N197 N 0.11695 0.82795 0.58395 0.0
N198 N 0.15377 0.879 0.58235 0.0
C199 C 0.10657 0.83218 0.60633 0.0
C200 C 0.14049 0.8512 0.57184 0.0
C201 C 0.14376 0.88373 0.60468 0.0
C202 C 0.07942 0.80677 0.61808 0.0
C203 C 0.06474 0.81145 0.63859 0.0
C204 C 0.03722 0.78795 0.6475 0.0
C205 C 0.02389 0.75931 0.63613 0.0
C206 C 0.03933 0.75438 0.61644 0.0
C207 C 0.06672 0.77774 0.60759 0.0
C208 C 0.14956 0.8469 0.54632 0.0
C209 C 0.13543 0.81809 0.53539 0.0
C210 C 0.14122 0.8144 0.51031 0.0
C211 C 0.16137 0.83939 0.49555 0.0
C212 C 0.17643 0.86806 0.50669 0.0
C213 C 0.17068 0.87178 0.53189 0.0
C214 C 0.15801 0.91454 0.61513 0.0
C215 C 0.18635 0.93682 0.60624 0.0
C216 C 0.89152 0.35018 0.71919 0.0
C217 C 0.87072 0.34057 0.69949 0.0
C218 C 0.85724 0.35767 0.6932 0.0
C219 C 0.86399 0.38366 0.70676 0.0
H220 H 0.81992 0.43052 0.74302 0.0
H221 H 0.79217 0.45575 0.73166 0.0
H222 H 0.87157 0.54232 0.74504 0.0
H223 H 0.89815 0.51674 0.75822 0.0
H224 H 0.92007 0.48618 0.81693 0.0
H225 H 0.94164 0.48623 0.85769 0.0
H226 H 0.97651 0.43177 0.82724 0.0
H227 H 0.95491 0.43148 0.78614 0.0
H228 H 0.91443 0.38282 0.74786 0.0
H229 H 0.9026 0.33765 0.72409 0.0
H230 H 0.84106 0.35065 0.67808 0.0
H231 H 0.85293 0.39615 0.7017 0.0
N232 N 0.87425 0.43348 0.73916 0.0
N233 N 0.89999 0.46609 0.7727 0.0
N234 N 0.91129 0.4289 0.76066 0.0
C235 C 0.87904 0.45687 0.75429 0.0
C236 C 0.91615 0.45203 0.77601 0.0
C237 C 0.89056 0.41956 0.74214 0.0
C238 C 0.86129 0.47182 0.75085 0.0
C239 C 0.83107 0.45493 0.74402 0.0
C240 C 0.81524 0.46944 0.73751 0.0
C241 C 0.82969 0.5012 0.73671 0.0
C242 C 0.85936 0.51788 0.74555 0.0
C243 C 0.87487 0.50327 0.75282 0.0
C244 C 0.93513 0.45821 0.79846 0.0
C245 C 0.93282 0.47471 0.81864 0.0
C246 C 0.94492 0.47455 0.84202 0.0
C247 C 0.95981 0.4582 0.84555 0.0
C248 C 0.96468 0.44411 0.8249 0.0
C249 C 0.95231 0.44401 0.80147 0.0
C250 C 0.88448 0.39307 0.72677 0.0
C251 C 0.89843 0.37622 0.73263 0.0
C252 C 0.62458 0.56049 0.72534 0.0
C253 C 0.63919 0.55098 0.70827 0.0
C254 C 0.62301 0.52172 0.6982 0.0
C255 C 0.5934 0.50214 0.7057 0.0
H256 H 0.50259 0.42372 0.68311 0.0
H257 H 0.47464 0.37258 0.66635 0.0
H258 H 0.44711 0.33745 0.74238 0.0
H259 H 0.47336 0.38847 0.75867 0.0
H260 H 0.4556 0.44742 0.78452 0.0
H261 H 0.44033 0.44357 0.82884 0.0
H262 H 0.53256 0.5021 0.84981 0.0
H263 H 0.54794 0.50617 0.80547 0.0
H264 H 0.58478 0.54862 0.74671 0.0
H265 H 0.63606 0.58311 0.73302 0.0
H266 H 0.63353 0.51342 0.68525 0.0
H267 H 0.58202 0.47949 0.69808 0.0
N268 N 0.53257 0.46203 0.72223 0.0
N269 N 0.49645 0.44659 0.75442 0.0
N270 N 0.53922 0.49463 0.75595 0.0
C271 C 0.5062 0.44068 0.73256 0.0
C272 C 0.51259 0.47344 0.76616 0.0
C273 C 0.54918 0.48919 0.73375 0.0
C274 C 0.48983 0.41002 0.72208 0.0
C275 C 0.49044 0.40497 0.69611 0.0
C276 C 0.47465 0.37562 0.68661 0.0
C277 C 0.45857 0.35073 0.70302 0.0
C278 C 0.45861 0.35598 0.72908 0.0
C279 C 0.47377 0.38528 0.73845 0.0
C280 C 0.503 0.47691 0.79163 0.0
C281 C 0.47254 0.45999 0.79855 0.0
C282 C 0.46377 0.45773 0.82385 0.0
C283 C 0.48536 0.47199 0.84265 0.0
C284 C 0.51559 0.49043 0.8356 0.0
C285 C 0.52433 0.49308 0.81024 0.0
C286 C 0.57931 0.51118 0.72369 0.0
C287 C 0.59506 0.54077 0.73308 0.0
C288 C 0.42638 0.05673 0.70665 0.0
C289 C 0.43598 0.08493 0.69521 0.0
C290 C 0.46582 0.10234 0.68687 0.0
C291 C 0.48647 0.09317 0.69246 0.0
H292 H 0.56639 0.08674 0.6746 0.0
H293 H 0.61646 0.10754 0.65653 0.0
H294 H 0.65144 0.10798 0.73058 0.0
H295 H 0.6013 0.08708 0.74889 0.0
H296 H 0.5355 0.01923 0.78621 0.0
H297 H 0.51992 4e-05 0.82962 0.0
H298 H 0.46221 0.03848 0.83176 0.0
H299 H 0.47709 0.05702 0.78857 0.0
H300 H 0.43944 0.02694 0.72297 0.0
H301 H 0.40327 0.0425 0.71258 0.0
H302 H 0.47372 0.12413 0.6779 0.0
H303 H 0.50986 0.10817 0.68778 0.0
N304 N 0.52771 0.07307 0.71009 0.0
N305 N 0.54277 0.06035 0.74787 0.0
N306 N 0.49356 0.05057 0.7434 0.0
C307 C 0.54927 0.07203 0.72393 0.0
C308 C 0.51476 0.04964 0.75762 0.0
C309 C 0.49974 0.06201 0.71966 0.0
C310 C 0.5798 0.085 0.7132 0.0
C311 C 0.58473 0.09144 0.68714 0.0
C312 C 0.61337 0.10343 0.67674 0.0
C313 C 0.63771 0.10954 0.69221 0.0
C314 C 0.63304 0.10388 0.71833 0.0
C315 C 0.6043 0.09155 0.72874 0.0
C316 C 0.50737 0.0394 0.78408 0.0
C317 C 0.5196 0.0236 0.79606 0.0
C318 C 0.51054 0.01249 0.82068 0.0
C319 C 0.48975 0.01771 0.83373 0.0
C320 C 0.47819 0.03416 0.82198 0.0
C321 C 0.48669 0.04465 0.7973 0.0
C322 C 0.47742 0.06669 0.70661 0.0
C323 C 0.44699 0.04773 0.71241 0.0
C324 C 0.69493 0.58675 0.93771 0.0
C325 C 0.68188 0.5635 0.95592 0.0
C326 C 0.70013 0.55444 0.96833 0.0
C327 C 0.73054 0.56776 0.96217 0.0
H328 H 0.80639 0.5586 0.97134 0.0
H329 H 0.83852 0.53807 0.98265 0.0
H330 H 0.91529 0.61812 0.95225 0.0
H331 H 0.88318 0.63829 0.94049 0.0
H332 H 0.86842 0.6525 0.88266 0.0
H333 H 0.88149 0.66018 0.83783 0.0
H334 H 0.78902 0.62853 0.8195 0.0
H335 H 0.7757 0.62049 0.86426 0.0
H336 H 0.73439 0.61736 0.91699 0.0
H337 H 0.68174 0.59486 0.92825 0.0
H338 H 0.69078 0.53646 0.98231 0.0
H339 H 0.74381 0.55975 0.97166 0.0
N340 N 0.79398 0.59807 0.94955 0.0
N341 N 0.83127 0.62173 0.91846 0.0
N342 N 0.78393 0.61598 0.91205 0.0
C343 C 0.82246 0.6081 0.94139 0.0
C344 C 0.81224 0.62567 0.9036 0.0
C345 C 0.77476 0.60252 0.93514 0.0
C346 C 0.84227 0.59977 0.95466 0.0
C347 C 0.83027 0.57219 0.96782 0.0
C348 C 0.84864 0.56039 0.97421 0.0
C349 C 0.87922 0.57616 0.96766 0.0
C350 C 0.89161 0.60509 0.95682 0.0
C351 C 0.87329 0.61674 0.95029 0.0
C352 C 0.82092 0.63555 0.87706 0.0
C353 C 0.85088 0.64751 0.86912 0.0
C354 C 0.85843 0.65193 0.84345 0.0
C355 C 0.83617 0.64432 0.82522 0.0
C356 C 0.80651 0.63388 0.83318 0.0
C357 C 0.79896 0.62965 0.85885 0.0
C358 C 0.74328 0.59024 0.9433 0.0
C359 C 0.72521 0.59983 0.93138 0.0
C360 C 0.44128 0.12737 0.9302 0.0
C361 C 0.4677 0.13618 0.94383 0.0
C362 C 0.48983 0.16681 0.94427 0.0
C363 C 0.48521 0.18842 0.93241 0.0
H364 H 0.51537 0.27874 0.93907 0.0
H365 H 0.53813 0.32757 0.96005 0.0
H366 H 0.48162 0.35116 0.91713 0.0
H367 H 0.4602 0.30355 0.8955 0.0
H368 H 0.41082 0.26014 0.86555 0.0
H369 H 0.37729 0.25293 0.83094 0.0
H370 H 0.34933 0.15815 0.82903 0.0
H371 H 0.38355 0.16515 0.86361 0.0
H372 H 0.41562 0.14188 0.90859 0.0
H373 H 0.42381 0.10386 0.92965 0.0
H374 H 0.51062 0.17417 0.95425 0.0
H375 H 0.50269 0.21187 0.93364 0.0
N376 N 0.47139 0.23307 0.91611 0.0
N377 N 0.44345 0.24814 0.89201 0.0
N378 N 0.4294 0.19694 0.89373 0.0
C379 C 0.46683 0.25535 0.90743 0.0
C380 C 0.42467 0.21927 0.88499 0.0
C381 C 0.45291 0.20382 0.90933 0.0
C382 C 0.48522 0.2868 0.91626 0.0
C383 C 0.50846 0.29474 0.93363 0.0
C384 C 0.52153 0.32276 0.94564 0.0
C385 C 0.51119 0.34305 0.94081 0.0
C386 C 0.49034 0.33633 0.92139 0.0
C387 C 0.4776 0.30859 0.90919 0.0
C388 C 0.40048 0.21329 0.86699 0.0
C389 C 0.39736 0.23757 0.8581 0.0
C390 C 0.37806 0.23357 0.83835 0.0
C391 C 0.36106 0.20515 0.82738 0.0
C392 C 0.36225 0.1803 0.83741 0.0
C393 C 0.38194 0.18435 0.85706 0.0
C394 C 0.45829 0.18002 0.91972 0.0
C395 C 0.43658 0.14915 0.91824 0.0
C396 C 0.87 0.30192 0.94444 0.0
C397 C 0.85204 0.31018 0.95853 0.0
C398 C 0.82153 0.28898 0.96209 0.0
C399 C 0.80947 0.25985 0.95257 0.0
H400 H 0.73989 0.17595 0.9635 0.0
H401 H 0.68796 0.14041 0.97377 0.0
H402 H 0.68913 0.07603 0.92171 0.0
H403 H 0.74103 0.11203 0.91073 0.0
H404 H 0.79426 0.13589 0.87039 0.0
H405 H 0.80757 0.13178 0.82715 0.0
H406 H 0.87663 0.22586 0.82732 0.0
H407 H 0.86316 0.23023 0.8707 0.0
H408 H 0.87229 0.26706 0.92412 0.0
H409 H 0.89372 0.3175 0.94177 0.0
H410 H 0.807 0.29476 0.97254 0.0
H411 H 0.7859 0.24399 0.95582 0.0
N412 N 0.78816 0.19823 0.93781 0.0
N413 N 0.78829 0.16525 0.90726 0.0
N414 N 0.82782 0.21533 0.90875 0.0
C415 C 0.77491 0.17034 0.92737 0.0
C416 C 0.81486 0.18767 0.89791 0.0
C417 C 0.81462 0.22074 0.92869 0.0
C418 C 0.74461 0.14706 0.93598 0.0
C419 C 0.72927 0.15414 0.95435 0.0
C420 C 0.69944 0.13366 0.96038 0.0
C421 C 0.68427 0.10553 0.94834 0.0
C422 C 0.70001 0.09782 0.9309 0.0
C423 C 0.72984 0.11839 0.92474 0.0
C424 C 0.82716 0.18352 0.87389 0.0
C425 C 0.81271 0.15558 0.8615 0.0
C426 C 0.82052 0.15318 0.83669 0.0
C427 C 0.84298 0.17864 0.82376 0.0
C428 C 0.85896 0.20601 0.83674 0.0
C429 C 0.85125 0.2084 0.86164 0.0
C430 C 0.82755 0.25146 0.93892 0.0
C431 C 0.85782 0.27289 0.93459 0.0
C432 C 0.57943 0.68612 0.05521 0.0
C433 C 0.55236 0.67434 0.04189 0.0
C434 C 0.54075 0.69331 0.03636 0.0
C435 C 0.55638 0.72362 0.04297 0.0
H436 H 0.57047 0.80306 0.0167 0.0
H437 H 0.54715 0.82984 -0.00028 0.0
H438 H 0.59028 0.89899 0.05641 0.0
H439 H 0.61289 0.87109 0.07447 0.0
H440 H 0.65301 0.86015 0.11657 0.0
H441 H 0.66036 0.86904 0.16181 0.0
H442 H 0.63448 0.77549 0.17394 0.0
H443 H 0.6282 0.76677 0.12876 0.0
H444 H 0.61581 0.72518 0.07236 0.0
H445 H 0.58914 0.67215 0.05949 0.0
H446 H 0.51963 0.68481 0.02665 0.0
H447 H 0.54675 0.73756 0.03827 0.0
N448 N 0.59343 0.78714 0.05081 0.0
N449 N 0.62039 0.82446 0.08073 0.0
N450 N 0.61584 0.77658 0.08455 0.0
C451 C 0.60399 0.81566 0.05922 0.0
C452 C 0.62663 0.80508 0.09338 0.0
C453 C 0.59927 0.76755 0.06323 0.0
C454 C 0.59349 0.83477 0.0471 0.0
C455 C 0.57527 0.82404 0.02561 0.0
C456 C 0.56192 0.83956 0.01572 0.0
C457 C 0.56677 0.86659 0.0267 0.0
C458 C 0.58571 0.87795 0.04776 0.0
C459 C 0.59897 0.86217 0.0579 0.0
C460 C 0.6391 0.81255 0.11913 0.0
C461 C 0.64964 0.84166 0.12879 0.0
C462 C 0.65362 0.84669 0.15473 0.0
C463 C 0.64688 0.82266 0.17146 0.0
C464 C 0.63957 0.79439 0.16156 0.0
C465 C 0.63589 0.78941 0.13558 0.0
C466 C 0.58369 0.73559 0.0558 0.0
C467 C 0.59488 0.71651 0.0623 0.0
C468 C 0.29036 0.88783 0.05416 0.0
C469 C 0.30507 0.87737 0.0382 0.0
C470 C 0.28831 0.84892 0.02689 0.0
C471 C 0.25781 0.83068 0.03248 0.0
H472 H 0.16838 0.74989 0.01048 0.0
H473 H 0.14168 0.69727 -0.00291 0.0
H474 H 0.1103 0.66928 0.07393 0.0
H475 H 0.13534 0.72174 0.08672 0.0
H476 H 0.11629 0.78136 0.10547 0.0
H477 H 0.1001 0.77931 0.14932 0.0
H478 H 0.19158 0.84058 0.17073 0.0
H479 H 0.20788 0.84286 0.12692 0.0
H480 H 0.24963 0.87812 0.07278 0.0
H481 H 0.30248 0.90999 0.06265 0.0
H482 H 0.29898 0.84021 0.01453 0.0
H483 H 0.24583 0.80843 0.02414 0.0
N484 N 0.19633 0.79171 0.04805 0.0
N485 N 0.15821 0.77908 0.07801 0.0
N486 N 0.20118 0.82692 0.0788 0.0
C487 C 0.1692 0.77136 0.05791 0.0
C488 C 0.17384 0.80677 0.08847 0.0
C489 C 0.21241 0.81969 0.05832 0.0
C490 C 0.15356 0.73981 0.04948 0.0
C491 C 0.15567 0.73238 0.02437 0.0
C492 C 0.14062 0.7022 0.01684 0.0
C493 C 0.12383 0.6789 0.03447 0.0
C494 C 0.12244 0.68654 0.05972 0.0
C495 C 0.13686 0.71665 0.06707 0.0
C496 C 0.16339 0.812 0.11289 0.0
C497 C 0.13283 0.79501 0.11944 0.0
C498 C 0.12354 0.79375 0.14447 0.0
C499 C 0.14474 0.80918 0.16331 0.0
C500 C 0.17495 0.82801 0.15648 0.0
C501 C 0.1842 0.82962 0.13139 0.0
C502 C 0.24348 0.84051 0.04957 0.0
C503 C 0.25996 0.86961 0.05983 0.0
C504 C 0.09284 0.38538 0.0361 0.0
C505 C 0.10181 0.41475 0.02763 0.0
C506 C 0.13222 0.43467 0.02203 0.0
C507 C 0.15365 0.42647 0.02766 0.0
H508 H 0.23305 0.40253 0.01111 0.0
H509 H 0.28365 0.4171 -0.00381 0.0
H510 H 0.31644 0.44011 0.07245 0.0
H511 H 0.26596 0.4249 0.08755 0.0
H512 H 0.19939 0.3529 0.12343 0.0
H513 H 0.18315 0.33509 0.16694 0.0
H514 H 0.12332 0.37101 0.16522 0.0
H515 H 0.13883 0.38815 0.1217 0.0
H516 H 0.10686 0.35547 0.05054 0.0
H517 H 0.06945 0.3693 0.03989 0.0
H518 H 0.13972 0.45742 0.01539 0.0
H519 H 0.17717 0.44313 0.02547 0.0
N520 N 0.19454 0.40356 0.04476 0.0
N521 N 0.20701 0.391 0.08397 0.0
N522 N 0.1589 0.38328 0.07746 0.0
C523 C 0.21488 0.40182 0.05989 0.0
C524 C 0.17894 0.38177 0.09281 0.0
C525 C 0.16638 0.39392 0.05351 0.0
C526 C 0.24557 0.41235 0.05052 0.0
C527 C 0.25114 0.41098 0.02462 0.0
C528 C 0.27998 0.41932 0.01607 0.0
C529 C 0.30378 0.42992 0.03319 0.0
C530 C 0.29844 0.43235 0.05889 0.0
C531 C 0.26954 0.42337 0.06752 0.0
C532 C 0.17028 0.37175 0.11921 0.0
C533 C 0.1828 0.35696 0.13237 0.0
C534 C 0.1734 0.34664 0.15709 0.0
C535 C 0.1519 0.35161 0.16913 0.0
C536 C 0.13984 0.36689 0.1562 0.0
C537 C 0.14869 0.37658 0.13134 0.0
C538 C 0.14476 0.39843 0.03909 0.0
C539 C 0.11417 0.37735 0.04194 0.0
C540 C 0.353 0.91951 0.26298 0.0
C541 C 0.33745 0.89791 0.28209 0.0
C542 C 0.35274 0.88631 0.29582 0.0
C543 C 0.38263 0.89569 0.29032 0.0
H544 H 0.46043 0.90556 0.32351 0.0
H545 H 0.48879 0.88998 0.35081 0.0
H546 H 0.55373 0.91172 0.291 0.0
H547 H 0.52617 0.92732 0.26382 0.0
H548 H 0.52637 0.9707 0.21769 0.0
H549 H 0.5451 0.98353 0.17414 0.0
H550 H 0.45452 0.94666 0.1476 0.0
H551 H 0.4357 0.93419 0.19097 0.0
H552 H 0.39402 0.94492 0.24218 0.0
H553 H 0.34218 0.92946 0.25239 0.0
H554 H 0.34144 0.86931 0.31038 0.0
H555 H 0.39351 0.88583 0.30099 0.0
N556 N 0.44565 0.91952 0.28056 0.0
N557 N 0.48453 0.93665 0.25071 0.0
N558 N 0.44001 0.93576 0.24045 0.0
C559 C 0.47357 0.92551 0.2741 0.0
C560 C 0.46799 0.94184 0.23379 0.0
C561 C 0.42882 0.92478 0.26391 0.0
C562 C 0.49102 0.91768 0.29144 0.0
C563 C 0.48084 0.90714 0.31624 0.0
C564 C 0.49687 0.89818 0.33184 0.0
C565 C 0.52307 0.89965 0.3227 0.0
C566 C 0.53342 0.91046 0.29822 0.0
C567 C 0.51764 0.91946 0.28275 0.0
C568 C 0.47953 0.95145 0.20775 0.0
C569 C 0.51045 0.96543 0.20256 0.0
C570 C 0.52122 0.97274 0.17771 0.0
C571 C 0.50119 0.96561 0.15761 0.0
C572 C 0.47035 0.95188 0.1628 0.0
C573 C 0.45963 0.94508 0.18763 0.0
C574 C 0.39783 0.91654 0.27071 0.0
C575 C 0.38279 0.92854 0.25721 0.0
C576 C 0.10489 0.46492 0.26156 0.0
C577 C 0.13319 0.47364 0.27167 0.0
C578 C 0.15654 0.50347 0.26834 0.0
C579 C 0.15138 0.52473 0.25654 0.0
H580 H 0.17883 0.61481 0.26928 0.0
H581 H 0.20225 0.66437 0.28908 0.0
H582 H 0.15177 0.69014 0.24019 0.0
H583 H 0.12986 0.64182 0.21982 0.0
H584 H 0.07388 0.59735 0.19686 0.0
H585 H 0.03891 0.58949 0.16325 0.0
H586 H 0.00727 0.49385 0.16507 0.0
H587 H 0.04284 0.50147 0.19852 0.0
H588 H 0.07732 0.47941 0.24298 0.0
H589 H 0.0865 0.44201 0.26401 0.0
H590 H 0.17867 0.51061 0.27566 0.0
H591 H 0.16981 0.54774 0.25496 0.0
N592 N 0.13662 0.5699 0.24398 0.0
N593 N 0.10717 0.5851 0.22228 0.0
N594 N 0.09215 0.53369 0.22446 0.0
C595 C 0.13188 0.59229 0.23594 0.0
C596 C 0.08723 0.55612 0.21641 0.0
C597 C 0.117 0.54057 0.23824 0.0
C598 C 0.15159 0.62396 0.24368 0.0
C599 C 0.17355 0.63147 0.26224 0.0
C600 C 0.18696 0.6599 0.27359 0.0
C601 C 0.17824 0.68101 0.26684 0.0
C602 C 0.15916 0.67468 0.24606 0.0
C603 C 0.14608 0.64652 0.23457 0.0
C604 C 0.06181 0.55006 0.1999 0.0
C605 C 0.05921 0.57447 0.19051 0.0
C606 C 0.03909 0.57011 0.17136 0.0
C607 C 0.02076 0.54123 0.16161 0.0
C608 C 0.02122 0.51637 0.1725 0.0
C609 C 0.04171 0.52076 0.19148 0.0
C610 C 0.12269 0.51669 0.24774 0.0
C611 C 0.09965 0.48634 0.24964 0.0
C612 C 0.5388 0.64343 0.28659 0.0
C613 C 0.52102 0.65106 0.30158 0.0
C614 C 0.49143 0.62878 0.30738 0.0
C615 C 0.48 0.59936 0.29873 0.0
H616 H 0.40857 0.51699 0.30574 0.0
H617 H 0.35585 0.48218 0.31356 0.0
H618 H 0.35973 0.41652 0.26483 0.0
H619 H 0.4125 0.45182 0.25624 0.0
H620 H 0.47169 0.47369 0.22163 0.0
H621 H 0.48616 0.46679 0.17954 0.0
H622 H 0.54624 0.56301 0.17238 0.0
H623 H 0.53166 0.57012 0.21463 0.0
H624 H 0.54164 0.60884 0.26639 0.0
H625 H 0.5619 0.65995 0.28225 0.0
H626 H 0.47711 0.63405 0.31872 0.0
H627 H 0.45708 0.58275 0.30355 0.0
N628 N 0.4585 0.53837 0.28268 0.0
N629 N 0.45987 0.50495 0.25329 0.0
N630 N 0.49934 0.55504 0.25493 0.0
C631 C 0.44563 0.51036 0.27251 0.0
C632 C 0.48683 0.52719 0.24448 0.0
C633 C 0.48537 0.56074 0.27411 0.0
C634 C 0.41476 0.4874 0.28005 0.0
C635 C 0.39838 0.49504 0.29684 0.0
C636 C 0.36807 0.47499 0.30145 0.0
C637 C 0.35346 0.44673 0.28956 0.0
C638 C 0.37018 0.43844 0.2738 0.0
C639 C 0.4005 0.45859 0.26905 0.0
C640 C 0.50008 0.52246 0.22133 0.0
C641 C 0.48845 0.49335 0.21136 0.0
C642 C 0.49695 0.48938 0.18727 0.0
C643 C 0.51721 0.51445 0.17262 0.0
C644 C 0.53039 0.54338 0.18321 0.0
C645 C 0.52207 0.54735 0.20745 0.0
C646 C 0.49784 0.59167 0.28389 0.0
C647 C 0.52729 0.61405 0.27775 0.0
O648 O 0.46303 0.95004 0.94083 0.0
Mg649 Mg 0.50304 0.96423 0.96089 0.0
O650 O 0.48484 -0.00328 0.9527 0.0
Mg651 Mg 0.49606 0.98929 -0.00494 0.0
O652 O 0.50447 0.94664 -0.00517 0.0
O653 O 0.51273 0.93138 0.95731 0.0
O654 O 0.50665 0.98283 0.03736 0.0
O655 O 0.44579 0.95704 0.00288 0.0
Mg656 Mg 0.48642 0.01729 0.03206 0.0
O657 O 0.48932 0.03196 -0.00413 0.0
O658 O 0.52576 0.02823 0.05212 0.0
O659 O 0.44529 0.9766 0.0399 0.0
O660 O 0.48049 0.05326 0.02951 0.0
C661 C 0.55822 0.02342 0.9664 0.0
C662 C 0.46921 0.97674 0.93643 0.0
C663 C 0.51194 0.92987 0.98164 0.0
C664 C 0.52135 0.00184 0.05456 0.0
C665 C 0.43218 0.95628 0.02332 0.0
C666 C 0.48406 0.05229 0.00543 0.0
O667 O 0.54338 0.00423 0.94952 0.0
O668 O 0.5461 0.02163 0.98783 0.0
O669 O 0.02304 0.49414 0.9495 0.0
Mg670 Mg 0.01321 0.52506 0.96716 0.0
O671 O 0.97747 0.4713 0.96363 0.0
Mg672 Mg 0.9843 0.49033 0.0051 0.0
O673 O 0.02846 0.5388 0.00256 0.0
O674 O 0.05081 0.56532 0.96704 0.0
O675 O 0.98924 0.50869 0.04697 0.0
O676 O 0.0149 0.47107 0.01215 0.0
Mg677 Mg 0.95725 0.4499 0.04345 0.0
O678 O 0.94084 0.44203 0.00779 0.0
O679 O 0.94712 0.47712 0.06547 0.0
O680 O -0.00352 0.44631 0.04793 0.0
O681 O 0.92021 0.40953 0.04045 0.0
C682 C 0.95475 0.52347 0.9764 0.0
C683 C -0.0036 0.47329 0.94711 0.0
C684 C 0.04975 0.56274 0.99134 0.0
C685 C 0.97087 0.50224 0.06538 0.0
C686 C 0.01613 0.45563 0.03044 0.0
C687 C 0.92007 0.41621 0.01693 0.0
O688 O 0.97445 0.52907 0.95939 0.0
O689 O 0.95473 0.51031 -0.00316 0.0
O690 O 0.48274 0.44955 0.07062 0.0
Mg691 Mg 0.4603 0.42333 0.03928 0.0
O692 O 0.50545 0.49353 0.0501 0.0
Mg693 Mg 0.4943 0.48301 0.00715 0.0
O694 O 0.49012 0.4361 0.01016 0.0
O695 O 0.4701 0.39098 0.02905 0.0
O696 O 0.48335 0.46682 0.9641 0.0
O697 O 0.5443 0.50182 -0.00082 0.0
Mg698 Mg 0.50005 0.51692 0.97352 0.0
O699 O 0.50141 0.53348 0.00829 0.0
O700 O 0.45864 0.48942 0.95535 0.0
O701 O 0.54072 0.51846 0.96174 0.0
O702 O 0.5073 0.55887 0.97186 0.0
C703 C 0.41913 0.44226 0.0193 0.0
C704 C 0.49994 0.47795 0.07041 0.0
C705 C 0.48765 0.40966 0.01198 0.0
C706 C 0.46624 0.47051 0.94911 0.0
C707 C 0.5559 0.51336 0.97778 0.0
C708 C 0.50638 0.55785 -0.00378 0.0
O709 O 0.41945 0.41936 0.02798 0.0
O710 O 0.44338 0.46628 0.01332 0.0
O711 O 0.13284 0.28934 0.27698 0.0
Mg712 Mg 0.17261 0.3055 0.2976 0.0
O713 O 0.15062 0.33568 0.28879 0.0
Mg714 Mg 0.1635 0.332 0.33148 0.0
O715 O 0.1719 0.28967 0.33305 0.0
O716 O 0.18262 0.27264 0.29761 0.0
O717 O 0.17629 0.32941 0.37377 0.0
O718 O 0.11382 0.29956 0.34096 0.0
Mg719 Mg 0.15303 0.36219 0.36774 0.0
O720 O 0.15596 0.37392 0.33068 0.0
O721 O 0.1932 0.37519 0.38705 0.0
O722 O 0.11265 0.32114 0.37676 0.0
O723 O 0.1466 0.39749 0.36229 0.0
C724 C 0.22643 0.36551 0.3025 0.0
C725 C 0.13626 0.31504 0.27262 0.0
C726 C 0.17954 0.27183 0.32184 0.0
C727 C 0.19098 0.34976 0.39005 0.0
C728 C 0.10014 0.29954 0.36114 0.0
C729 C 0.15047 0.39478 0.33852 0.0
O730 O 0.21282 0.34529 0.28603 0.0
O731 O 0.21317 0.36455 0.32311 0.0
O732 O 0.6447 0.86952 0.28213 0.0
Mg733 Mg 0.66417 0.89223 0.31617 0.0
O734 O 0.64526 0.8288 0.29497 0.0
Mg735 Mg 0.65031 0.83837 0.33776 0.0
O736 O 0.69529 0.88403 0.33195 0.0
O737 O 0.70634 0.92629 0.31036 0.0
O738 O 0.6613 0.85435 0.38018 0.0
O739 O 0.68119 0.81864 0.3396 0.0
Mg740 Mg 0.6256 0.80295 0.37382 0.0
O741 O 0.60677 0.78907 0.33955 0.0
O742 O 0.61632 0.83195 0.3956 0.0
O743 O 0.66581 0.8006 0.37804 0.0
O744 O 0.58976 0.76156 0.37541 0.0
C745 C 0.61562 0.87863 0.34458 0.0
C746 C 0.64202 0.84402 0.27747 0.0
C747 C 0.7148 0.91086 0.32378 0.0
C748 C 0.64347 0.85158 0.39803 0.0
C749 C 0.68378 0.80623 0.35955 0.0
C750 C 0.5878 0.76429 0.35135 0.0
O751 O 0.64017 0.90289 0.34208 0.0
O752 O 0.61439 0.85387 0.33886 0.0
O753 O 0.13052 0.78003 0.38927 0.0
Mg754 Mg 0.11475 0.75773 0.35492 0.0
O755 O 0.15661 0.82557 0.37184 0.0
Mg756 Mg 0.14858 0.81784 0.3283 0.0
O757 O 0.1488 0.77252 0.32906 0.0
O758 O 0.12676 0.72669 0.34735 0.0
O759 O 0.14089 0.80534 0.28472 0.0
O760 O 0.19922 0.84051 0.3219 0.0
Mg761 Mg 0.15456 0.85568 0.29496 0.0
O762 O 0.15145 0.86576 0.3313 0.0
O763 O 0.11495 0.82652 0.2753 0.0
O764 O 0.1973 0.86047 0.28542 0.0
O765 O 0.15762 0.896 0.29803 0.0
C766 C 0.07275 0.77308 0.33466 0.0
C767 C 0.14803 0.80822 0.39124 0.0
C768 C 0.14633 0.7461 0.33174 0.0
C769 C 0.12378 0.80851 0.26932 0.0
C770 C 0.21189 0.85454 0.30149 0.0
C771 C 0.15474 0.89088 0.32207 0.0
O772 O 0.07344 0.74957 0.34075 0.0
O773 O 0.09699 0.79827 0.33221 0.0
O774 O 0.8295 0.6112 0.5965 0.0
Mg775 Mg 0.8496 0.60603 0.62877 0.0
O776 O 0.82053 0.6446 0.61509 0.0
Mg777 Mg 0.82848 0.64505 0.65899 0.0
O778 O 0.82422 0.59806 0.66065 0.0
O779 O 0.8331 0.56361 0.64322 0.0
O780 O 0.83549 0.64159 0.703 0.0
O781 O 0.77761 0.6218 0.66609 0.0
Mg782 Mg 0.8268 0.68195 0.69103 0.0
O783 O 0.83174 0.69294 0.65389 0.0
O784 O 0.86446 0.68884 0.7118 0.0
O785 O 0.78203 0.64743 0.70088 0.0
O786 O 0.82957 0.72189 0.68493 0.0
C787 C 0.90078 0.66496 0.64615 0.0
C788 C 0.82092 0.63039 0.59535 0.0
C789 C 0.82188 0.57161 0.66146 0.0
C790 C 0.85351 0.66164 0.71822 0.0
C791 C 0.7659 0.62617 0.68578 0.0
C792 C 0.83187 0.71728 0.66127 0.0
O793 O 0.89434 0.6398 0.63638 0.0
O794 O 0.88026 0.67016 0.65371 0.0
O795 O 0.35923 0.16571 0.61665 0.0
Mg796 Mg 0.34825 0.19622 0.63374 0.0
O797 O 0.31274 0.14353 0.62807 0.0
Mg798 Mg 0.32075 0.16171 0.6701 0.0
O799 O 0.36417 0.2113 0.66856 0.0
O800 O 0.38488 0.23737 0.63253 0.0
O801 O 0.3285 0.18012 0.71233 0.0
O802 O 0.35213 0.14338 0.67489 0.0
Mg803 Mg 0.29667 0.12664 0.70601 0.0
O804 O 0.27722 0.11188 0.67181 0.0
O805 O 0.28391 0.15234 0.728 0.0
O806 O 0.33654 0.12476 0.71294 0.0
O807 O 0.26249 0.08442 0.70777 0.0
C808 C 0.28929 0.1932 0.64363 0.0
C809 C 0.33267 0.14553 0.61264 0.0
C810 C 0.38449 0.23546 0.65685 0.0
C811 C 0.3096 0.17503 0.72999 0.0
C812 C 0.35483 0.13102 0.6947 0.0
C813 C 0.25936 0.08686 0.68388 0.0
O814 O 0.30856 0.19876 0.62623 0.0
O815 O 0.29019 0.18065 0.6641 0.0
O816 O 0.80108 0.1321 0.71759 0.0
Mg817 Mg 0.78719 0.10853 0.68348 0.0
O818 O 0.84006 0.17024 0.69887 0.0
Mg819 Mg 0.82528 0.15719 0.6571 0.0
O820 O 0.81895 0.10809 0.66126 0.0
O821 O 0.78849 0.07047 0.68785 0.0
O822 O 0.80901 0.1386 0.61561 0.0
O823 O 0.87364 0.16959 0.64789 0.0
Mg824 Mg 0.83834 0.19369 0.61887 0.0
O825 O 0.83697 0.2084 0.65432 0.0
O826 O 0.7979 0.17063 0.59922 0.0
O827 O 0.87535 0.18766 0.60975 0.0
O828 O 0.85151 0.23767 0.6193 0.0
C829 C 0.75062 0.1256 0.66348 0.0
C830 C 0.82567 0.15667 0.71887 0.0
C831 C 0.80916 0.08115 0.67067 0.0
C832 C 0.79636 0.14536 0.59819 0.0
C833 C 0.88703 0.17946 0.62677 0.0
C834 C 0.84602 0.23442 0.64328 0.0
O835 O 0.74821 0.09997 0.66505 0.0
O836 O 0.77647 0.14902 0.66515 0.0
C837 C 0.35112 0.89834 0.01039 0.0
C838 C 0.33798 0.8957 0.03436 0.0
H839 H 0.39145 0.91948 0.98807 0.0
C840 C 0.35654 0.91103 0.05488 0.0
H841 H 0.3374 0.88681 -0.0058 0.0
C842 C 0.38728 0.92972 0.05137 0.0
C843 C 0.4003 0.93341 0.02726 0.0
H844 H 0.34726 0.9088 0.07372 0.0
H845 H 0.40078 0.94174 0.06753 0.0
C846 C 0.38205 0.91701 0.00689 0.0
C847 C 0.06066 0.41859 0.0489 0.0
C848 C 0.08013 0.42559 0.02804 0.0
H849 H 0.02549 0.42287 0.06618 0.0
C850 C 0.07943 0.44382 0.00851 0.0
H851 H 0.06127 0.40526 0.06459 0.0
C852 C 0.05907 0.45423 0.00956 0.0
C853 C 0.03918 0.44666 0.03022 0.0
H854 H 0.09428 0.44963 0.99229 0.0
H855 H 0.05863 0.46779 -0.00602 0.0
C856 C 0.04039 0.42897 0.04997 0.0
C857 C 0.53593 0.61903 0.04576 0.0
C858 C 0.53744 0.64322 0.03181 0.0
H859 H 0.52425 0.57242 0.04555 0.0
C860 C 0.52576 0.63795 0.00725 0.0
H861 H 0.54444 0.62237 0.06487 0.0
C862 C 0.51391 0.60957 -0.00353 0.0
C863 C 0.51372 0.58574 0.00984 0.0
H864 H 0.52692 0.65608 -0.00422 0.0
H865 H 0.50601 0.60668 0.97718 0.0
C866 C 0.52406 0.59041 0.03486 0.0
C867 C 0.85739 0.34099 -0.00334 0.0
C868 C 0.86579 0.33964 0.97159 0.0
H869 H 0.86763 0.36685 0.03047 0.0
C870 C 0.8894 0.36576 0.96033 0.0
H871 H 0.83955 0.32128 0.00605 0.0
C872 C 0.90582 0.39192 0.97457 0.0
C873 C 0.89876 0.39232 0.00017 0.0
H874 H 0.89606 0.36556 0.9409 0.0
H875 H 0.9253 0.41093 0.96611 0.0
C876 C 0.87364 0.3671 0.01076 0.0
C877 C 0.62885 0.54303 0.94193 0.0
C878 C 0.64925 0.54856 0.96153 0.0
H879 H 0.58342 0.52734 0.93169 0.0
C880 C 0.63824 0.54018 0.9864 0.0
H881 H 0.63642 0.54844 0.92247 0.0
C882 C 0.60764 0.52749 0.99162 0.0
C883 C 0.58754 0.5232 0.97211 0.0
H884 H 0.65333 0.54431 0.00197 0.0
H885 H 0.59992 0.52211 0.01105 0.0
C886 C 0.5984 0.53066 0.94718 0.0
C887 C 0.48158 0.12135 0.98421 0.0
C888 C 0.47175 0.11421 0.95914 0.0
H889 H 0.49337 0.1075 0.0183 0.0
C890 C 0.46624 0.08647 0.94912 0.0
H891 H 0.48557 0.14235 0.99256 0.0
C892 C 0.47093 0.06647 0.96394 0.0
C893 C 0.48084 0.0738 0.98899 0.0
H894 H 0.45858 0.08041 0.92985 0.0
H895 H 0.46606 0.04499 0.95609 0.0
C896 C 0.48596 0.10135 -0.00102 0.0
C897 C 0.63273 0.06913 0.93296 0.0
C898 C 0.65182 0.08492 0.95309 0.0
H899 H 0.58818 0.03766 0.92133 0.0
C900 C 0.63955 0.08139 0.97754 0.0
H901 H 0.64131 0.07187 0.91381 0.0
C902 C 0.60892 0.06213 0.98179 0.0
C903 C 0.59002 0.04588 0.96171 0.0
H904 H 0.65369 0.09306 0.99348 0.0
H905 H 0.60022 0.05941 0.00091 0.0
C906 C 0.6022 0.04976 0.93723 0.0
C907 C 0.91674 0.56398 0.94976 0.0
C908 C 0.89764 0.56156 0.96983 0.0
H909 H 0.94941 0.55351 0.93593 0.0
C910 C 0.89597 0.54478 0.99142 0.0
H911 H 0.91791 0.57612 0.93258 0.0
C912 C 0.91384 0.5315 0.99324 0.0
C913 C 0.93361 0.53471 0.97345 0.0
H914 H 0.88139 0.54251 0.00713 0.0
H915 H 0.91264 0.51932 0.01041 0.0
C916 C 0.93454 0.55073 0.95156 0.0
C917 C 0.51444 0.36 0.98528 0.0
C918 C 0.51617 0.36687 0.95935 0.0
H919 H 0.50441 0.36877 0.02235 0.0
C920 C 0.51564 0.39307 0.95185 0.0
H921 H 0.51469 0.34011 0.99195 0.0
C922 C 0.50929 0.40944 0.96955 0.0
C923 C 0.50344 0.3997 -0.00519 0.0
H924 H 0.51765 0.39942 0.93208 0.0
H925 H 0.5063 0.42783 0.9631 0.0
C926 C 0.50812 0.37625 0.00279 0.0
C927 C 0.07833 0.62704 0.0368 0.0
C928 C 0.10676 0.64693 0.02628 0.0
H929 H 0.03813 0.58405 0.0342 0.0
C930 C 0.11781 0.63654 0.00674 0.0
H931 H 0.06887 0.63427 0.05168 0.0
C932 C 0.09987 0.60799 -0.00352 0.0
C933 C 0.07087 0.58902 0.006 0.0
H934 H 0.13992 0.65084 -0.00128 0.0
H935 H 0.10818 0.6012 0.9804 0.0
C936 C 0.06065 0.59818 0.02688 0.0
C937 C 0.33614 0.41171 0.01458 0.0
C938 C 0.3335 0.43543 0.02504 0.0
H939 H 0.36577 0.39535 0.00471 0.0
C940 C 0.35949 0.46287 0.03054 0.0
H941 H 0.31636 0.3903 0.01037 0.0
C942 C 0.38777 0.46601 0.02675 0.0
C943 C 0.39026 0.44143 0.01814 0.0
H944 H 0.35785 0.48141 0.03866 0.0
H945 H 0.40751 0.48689 0.03216 0.0
C946 C 0.36431 0.41455 0.01146 0.0
C947 C 0.5493 0.88335 0.98943 0.0
C948 C 0.55213 0.88263 0.01577 0.0
H949 H 0.53364 0.89768 0.95829 0.0
C950 C 0.54027 0.89658 0.0312 0.0
H951 H 0.55869 0.87348 0.97691 0.0
C952 C 0.52607 0.91112 0.02037 0.0
C953 C 0.52336 0.91172 -0.00603 0.0
H954 H 0.54181 0.89612 0.0516 0.0
H955 H 0.5177 0.92224 0.0326 0.0
C956 C 0.53488 0.89738 0.97873 0.0
C957 C 0.0278 0.24809 0.39596 0.0
C958 C 0.01066 0.2274 0.37709 0.0
H959 H 0.0694 0.28688 0.40576 0.0
C960 C 0.02324 0.23072 0.35277 0.0
H961 H 0.01909 0.24588 0.41501 0.0
C962 C 0.05239 0.25401 0.34756 0.0
C963 C 0.06945 0.27461 0.3665 0.0
H964 H 0.01051 0.2154 0.33771 0.0
H965 H 0.06145 0.25601 0.32866 0.0
C966 C 0.05678 0.27148 0.3907 0.0
C967 C 0.72874 0.77221 0.38426 0.0
C968 C 0.74507 0.77281 0.3627 0.0
H969 H 0.69694 0.78256 0.40024 0.0
C970 C 0.74271 0.7864 0.3404 0.0
H971 H 0.73074 0.76261 0.40192 0.0
C972 C 0.72339 0.79814 0.33947 0.0
C973 C 0.70626 0.79651 0.36085 0.0
H974 H 0.75515 0.78724 0.32355 0.0
H975 H 0.72135 0.8078 0.32185 0.0
C976 C 0.70954 0.78388 0.38335 0.0
C977 C 0.17731 0.94309 0.378 0.0
C978 C 0.17715 0.96814 0.36717 0.0
H979 H 0.16969 0.89833 0.37221 0.0
C980 C 0.16574 0.96572 0.34271 0.0
H981 H 0.18562 0.94422 0.39697 0.0
C982 C 0.15643 0.93959 0.32876 0.0
C983 C 0.15845 0.91531 0.3389 0.0
H984 H 0.16559 0.98467 0.33368 0.0
H985 H 0.14904 0.93902 0.30952 0.0
C986 C 0.1679 0.91676 0.36397 0.0
C987 C 0.52852 0.68434 0.33841 0.0
C988 C 0.53417 0.68144 0.31287 0.0
H989 H 0.54062 0.71319 0.37045 0.0
C990 C 0.55443 0.70735 0.29907 0.0
H991 H 0.51321 0.66483 0.34962 0.0
C992 C 0.5704 0.73522 0.31112 0.0
C993 C 0.56636 0.73748 0.33715 0.0
H994 H 0.55878 0.70583 0.27922 0.0
H995 H 0.58714 0.75446 0.30043 0.0
C996 C 0.54439 0.71209 0.3504 0.0
C997 C 0.29347 0.87945 0.31197 0.0
C998 C 0.30521 0.88683 0.28721 0.0
H999 H 0.25468 0.86309 0.33587 0.0
C1000 C 0.28574 0.88295 0.26723 0.0
H1001 H 0.30784 0.8826 0.32789 0.0
C1002 C 0.25543 0.87232 0.27192 0.0
C1003 C 0.24377 0.86487 0.29662 0.0
H1004 H 0.29377 0.88772 0.24787 0.0
H1005 H 0.24105 0.86967 0.25611 0.0
C1006 C 0.26301 0.86834 0.3166 0.0
C1007 C 0.13015 0.42375 0.28033 0.0
C1008 C 0.13796 0.45303 0.28808 0.0
H1009 H 0.12843 0.38218 0.29042 0.0
C1010 C 0.15047 0.46302 0.31208 0.0
H1011 H 0.12037 0.41557 0.26192 0.0
C1012 C 0.15499 0.44414 0.32816 0.0
C1013 C 0.14743 0.41498 0.32048 0.0
H1014 H 0.15631 0.48535 0.31862 0.0
H1015 H 0.16433 0.45237 0.3467 0.0
C1016 C 0.1351 0.4049 0.29641 0.0
C1017 C 0.30296 0.41034 0.27213 0.0
C1018 C 0.3207 0.42652 0.29282 0.0
H1019 H 0.25919 0.37867 0.25888 0.0
C1020 C 0.3068 0.4237 0.31642 0.0
H1021 H 0.31284 0.41254 0.25355 0.0
C1022 C 0.27594 0.40474 0.31935 0.0
C1023 C 0.25838 0.38802 0.29879 0.0
H1024 H 0.31985 0.43564 0.3328 0.0
H1025 H 0.26601 0.40253 0.33791 0.0
C1026 C 0.27216 0.3912 0.27511 0.0
C1027 C 0.56629 0.91251 0.34992 0.0
C1028 C 0.54056 0.89022 0.33795 0.0
H1029 H 0.61064 0.92595 0.36204 0.0
C1030 C 0.53702 0.86155 0.33392 0.0
H1031 H 0.56941 0.93485 0.35289 0.0
C1032 C 0.56061 0.85639 0.339 0.0
C1033 C 0.58802 0.88011 0.34774 0.0
H1034 H 0.51736 0.84425 0.32439 0.0
H1035 H 0.5584 0.83498 0.33355 0.0
C1036 C 0.58992 0.90746 0.35487 0.0
C1037 C 0.1777 0.69814 0.31068 0.0
C1038 C 0.18212 0.70508 0.28471 0.0
H1039 H 0.16316 0.7063 0.34606 0.0
C1040 C 0.18237 0.73129 0.276 0.0
H1041 H 0.17738 0.67833 0.31831 0.0
C1042 C 0.1736 0.74719 0.29211 0.0
C1043 C 0.16476 0.73707 0.31703 0.0
H1044 H 0.18656 0.73779 0.25624 0.0
H1045 H 0.17099 0.76538 0.28444 0.0
C1046 C 0.16908 0.71398 0.32664 0.0
C1047 C 0.79509 0.97063 0.33079 0.0
C1048 C 0.80173 0.96273 0.35436 0.0
H1049 H 0.76213 0.95996 0.30242 0.0
C1050 C 0.78223 0.93378 0.36439 0.0
H1051 H 0.80949 0.99264 0.32237 0.0
C1052 C 0.7546 0.91511 0.35302 0.0
C1053 C 0.74635 0.92519 0.33145 0.0
H1054 H 0.78709 0.92676 0.38223 0.0
H1055 H 0.73878 0.89418 0.36239 0.0
C1056 C 0.76763 0.95201 0.31946 0.0
C1057 C 0.01315 0.79374 0.34553 0.0
C1058 C 0.98708 0.76584 0.34166 0.0
H1059 H 0.06111 0.81816 0.34555 0.0
C1060 C 0.98937 0.74161 0.33191 0.0
H1061 H 0.01175 0.81262 0.35317 0.0
C1062 C 0.01748 0.74449 0.32813 0.0
C1063 C 0.04364 0.77182 0.3336 0.0
H1064 H 0.96946 0.71985 0.32901 0.0
H1065 H 0.01875 0.72495 0.32209 0.0
C1066 C 0.04128 0.79685 0.34118 0.0
C1067 C 0.20314 0.21474 0.33614 0.0
C1068 C 0.20574 0.21618 0.36256 0.0
H1069 H 0.19227 0.23043 0.30287 0.0
C1070 C 0.19915 0.2359 0.37592 0.0
H1071 H 0.20856 0.20015 0.32528 0.0
C1072 C 0.18975 0.25361 0.36293 0.0
C1073 C 0.18703 0.25188 0.33644 0.0
H1074 H 0.20089 0.23732 0.39633 0.0
H1075 H 0.18502 0.26884 0.37353 0.0
C1076 C 0.19381 0.2322 0.32329 0.0
C1077 C 0.68293 0.57076 0.67778 0.0
C1078 C 0.67157 0.57082 0.70205 0.0
H1079 H 0.72164 0.58799 0.6536 0.0
C1080 C 0.69164 0.58922 0.72078 0.0
H1081 H 0.66813 0.5572 0.66278 0.0
C1082 C 0.72216 0.60714 0.7154 0.0
C1083 C 0.73351 0.60688 0.69124 0.0
H1084 H 0.68393 0.58939 0.73984 0.0
H1085 H 0.73693 0.62092 0.73035 0.0
C1086 C 0.7136 0.58847 0.67247 0.0
C1087 C 0.39901 0.09513 0.71673 0.0
C1088 C 0.41586 0.09757 0.69496 0.0
H1089 H 0.36681 0.10419 0.73387 0.0
C1090 C 0.41403 0.11289 0.67364 0.0
H1091 H 0.40069 0.08417 0.7337 0.0
C1092 C 0.39486 0.12471 0.67384 0.0
C1093 C 0.3773 0.12141 0.6954 0.0
H1094 H 0.42693 0.11518 0.6567 0.0
H1095 H 0.3933 0.13579 0.65691 0.0
C1096 C 0.37989 0.10689 0.71695 0.0
C1097 C 0.86268 0.31317 0.65884 0.0
C1098 C 0.86342 0.31294 0.68532 0.0
H1099 H 0.85654 0.28852 0.62485 0.0
C1100 C 0.85758 0.28639 0.69811 0.0
H1101 H 0.8674 0.33345 0.64854 0.0
C1102 C 0.85127 0.26049 0.68454 0.0
C1103 C 0.85099 0.26091 0.658 0.0
H1104 H 0.8578 0.28563 0.71858 0.0
H1105 H 0.8471 0.24038 0.69481 0.0
C1106 C 0.85661 0.28746 0.64531 0.0
C1107 C 0.2201 0.0301 0.63192 0.0
C1108 C 0.2011 0.00404 0.64621 0.0
H1109 H 0.25343 0.07715 0.6326 0.0
C1110 C 0.19903 0.00664 0.67246 0.0
H1111 H 0.22181 0.02892 0.61158 0.0
C1112 C 0.21666 0.03416 0.68434 0.0
C1113 C 0.23704 0.05977 0.67033 0.0
H1114 H 0.18496 0.98706 0.68413 0.0
H1115 H 0.21525 0.03495 0.70475 0.0
C1116 C 0.23797 0.05778 0.6439 0.0
C1117 C 0.96646 0.19871 0.63985 0.0
C1118 C 0.97889 0.2052 0.61533 0.0
H1119 H 0.92728 0.18501 0.66272 0.0
C1120 C 0.95986 0.19915 0.59455 0.0
H1121 H 0.98051 0.20318 0.65625 0.0
C1122 C 0.92955 0.18919 0.59827 0.0
C1123 C 0.91754 0.18464 0.62283 0.0
H1124 H 0.96858 0.20306 0.57538 0.0
H1125 H 0.91574 0.18603 0.58192 0.0
C1126 C 0.93597 0.18836 0.64356 0.0
C1127 C 0.83589 0.78734 0.63525 0.0
C1128 C 0.81916 0.77657 0.61295 0.0
H1129 H 0.85351 0.77699 0.66775 0.0
C1130 C 0.8103 0.7471 0.60489 0.0
H1131 H 0.84271 0.80972 0.64228 0.0
C1132 C 0.81644 0.72821 0.61975 0.0
C1133 C 0.83143 0.73854 0.64281 0.0
H1134 H 0.79757 0.73825 0.5877 0.0
H1135 H 0.8076 0.70497 0.61414 0.0
C1136 C 0.84194 0.76852 0.65 0.0
C1137 C 0.98527 0.70472 0.64274 0.0
C1138 C -0.00699 0.73526 0.64302 0.0
H1139 H 0.95009 0.65858 0.64348 0.0
C1140 C 0.97031 0.74239 0.64725 0.0
H1141 H 0.00226 0.69842 0.64014 0.0
C1142 C 0.94038 0.71948 0.64957 0.0
C1143 C 0.93255 0.68903 0.64741 0.0
H1144 H 0.9754 0.76565 0.64739 0.0
H1145 H 0.92328 0.7257 0.65173 0.0
C1146 C 0.95537 0.68187 0.64472 0.0
C1147 C 0.25051 0.23353 0.6186 0.0
C1148 C 0.23086 0.22969 0.63863 0.0
H1149 H 0.28403 0.22461 0.60427 0.0
C1150 C 0.22903 0.21197 0.65959 0.0
H1151 H 0.25177 0.24644 0.6019 0.0
C1152 C 0.24737 0.19921 0.66087 0.0
C1153 C 0.26769 0.20384 0.64113 0.0
H1154 H 0.21391 0.20855 0.67519 0.0
H1155 H 0.24606 0.18627 0.67756 0.0
C1156 C 0.26873 0.22073 0.61982 0.0
C1157 C 0.82909 0.0399 0.62309 0.0
C1158 C 0.82056 0.01295 0.63648 0.0
H1159 H 0.83263 0.08342 0.62377 0.0
C1160 C 0.81479 0.01167 0.66254 0.0
H1161 H 0.83404 0.04151 0.60301 0.0
C1162 C 0.81398 0.03552 0.67433 0.0
C1163 C 0.81903 0.061 0.66026 0.0
H1164 H 0.80811 0.9912 0.67332 0.0
H1165 H 0.80714 0.03299 0.69402 0.0
C1166 C 0.82843 0.0639 0.63496 0.0
C1167 C 0.41351 0.29842 0.70407 0.0
C1168 C 0.44113 0.31955 0.69296 0.0
H1169 H 0.37415 0.25474 0.70153 0.0
C1170 C 0.4513 0.311 0.67153 0.0
H1171 H 0.40467 0.30424 0.72036 0.0
C1172 C 0.43346 0.28282 0.66054 0.0
C1173 C 0.40542 0.26237 0.67109 0.0
H1174 H 0.47278 0.32628 0.66286 0.0
H1175 H 0.44124 0.27733 0.64337 0.0
C1176 C 0.39596 0.26997 0.69336 0.0
C1177 C 0.69359 0.14205 0.69146 0.0
C1178 C 0.66726 0.11863 0.68089 0.0
H1179 H 0.74145 0.16346 0.69329 0.0
C1180 C 0.66931 0.10136 0.66123 0.0
H1181 H 0.69246 0.15576 0.70653 0.0
C1182 C 0.69711 0.10553 0.6539 0.0
C1183 C 0.72325 0.12739 0.66579 0.0
H1184 H 0.64932 0.08311 0.65286 0.0
H1185 H 0.69803 0.09042 0.64007 0.0
C1186 C 0.72152 0.14664 0.68372 0.0
C1187 C 0.82517 0.54706 0.72684 0.0
C1188 C 0.81664 0.51672 0.72204 0.0
H1189 H 0.83332 0.58896 0.71068 0.0
C1190 C 0.80096 0.50339 0.69964 0.0
H1191 H 0.83636 0.55786 0.74423 0.0
C1192 C 0.79835 0.52107 0.68091 0.0
C1193 C 0.81147 0.55232 0.68412 0.0
H1194 H 0.79383 0.48018 0.69502 0.0
H1195 H 0.78931 0.5109 0.66274 0.0
C1196 C 0.82281 0.56485 0.70785 0.0
C1197 C 0.49892 0.95192 0.11207 0.0
C1198 C 0.51212 0.97348 0.13126 0.0
H1199 H 0.49257 0.94384 0.07236 0.0
C1200 C 0.53327 0.00338 0.12474 0.0
H1201 H 0.48288 0.92861 0.11672 0.0
C1202 C 0.53872 0.01223 0.09933 0.0
C1203 C 0.5233 0.99122 0.08011 0.0
H1204 H 0.54383 0.02037 0.13925 0.0
H1205 H 0.55334 0.03591 0.09483 0.0
C1206 C 0.5047 0.96064 0.08668 0.0
C1207 C 0.02198 0.55267 0.11589 0.0
C1208 C 0.0052 0.53751 0.13756 0.0
H1209 H 0.02401 0.55344 0.07547 0.0
C1210 C 0.97503 0.51539 0.13518 0.0
H1211 H 0.04538 0.56987 0.11739 0.0
C1212 C 0.96262 0.50641 0.11125 0.0
C1213 C 0.98054 0.51882 0.08941 0.0
H1214 H 0.9617 0.5037 0.15173 0.0
H1215 H 0.93979 0.48783 0.10998 0.0
C1216 C 0.00976 0.54328 0.0919 0.0
C1217 C 0.51799 0.52822 0.12702 0.0
C1218 C 0.52131 0.51027 0.14552 0.0
H1219 H 0.50886 0.53209 0.08803 0.0
C1220 C 0.5235 0.48523 0.13791 0.0
H1221 H 0.51614 0.54764 0.1324 0.0
C1222 C 0.519 0.47626 0.11276 0.0
C1223 C 0.51257 0.49236 0.09473 0.0
H1224 H 0.52666 0.47138 0.1517 0.0
H1225 H 0.51871 0.4556 0.10769 0.0
C1226 C 0.51376 0.51935 0.10166 0.0
C1227 C 0.94696 0.44492 0.8907 0.0
C1228 C 0.96842 0.45471 0.87122 0.0
H1229 H 0.93898 0.44249 0.93035 0.0
C1230 C -0.00172 0.46403 0.87693 0.0
H1231 H 0.92365 0.43703 0.88653 0.0
C1232 C 0.00713 0.46685 0.90216 0.0
C1233 C 0.98615 0.46039 0.92179 0.0
H1234 H 0.01506 0.47135 0.86206 0.0
H1235 H 0.03073 0.47647 0.90623 0.0
C1236 C 0.95572 0.44764 0.9158 0.0
C1237 C 0.45351 0.47058 0.87914 0.0
C1238 C 0.47675 0.46661 0.86966 0.0
H1239 H 0.43134 0.4742 0.91217 0.0
C1240 C 0.49261 0.45844 0.88631 0.0
H1241 H 0.44079 0.47661 0.86659 0.0
C1242 C 0.48688 0.45646 0.91225 0.0
C1243 C 0.46547 0.46311 0.92205 0.0
H1244 H 0.5102 0.45459 0.87932 0.0
H1245 H 0.50082 0.45199 0.92467 0.0
C1246 C 0.44799 0.46898 0.90517 0.0
C1247 C 0.46854 0.97571 0.86533 0.0
C1248 C 0.4804 0.00642 0.85976 0.0
H1249 H 0.45414 0.94182 0.8941 0.0
C1250 C 0.48417 0.02652 0.87928 0.0
H1251 H 0.46504 0.95979 0.85042 0.0
C1252 C 0.47825 0.0164 0.90432 0.0
C1253 C 0.46795 0.98592 0.91017 0.0
H1254 H 0.49319 0.05033 0.8753 0.0
H1255 H 0.48341 0.03279 0.91914 0.0
C1256 C 0.462 0.96545 0.8903 0.0
C1257 C 0.20735 0.35611 0.45953 0.0
C1258 C 0.18876 0.326 0.4671 0.0
H1259 H 0.22325 0.38741 0.42854 0.0
C1260 C 0.17655 0.30327 0.44874 0.0
H1261 H 0.21713 0.37395 0.47343 0.0
C1262 C 0.1803 0.31084 0.42311 0.0
C1263 C 0.19587 0.34131 0.41553 0.0
H1264 H 0.16252 0.27982 0.45426 0.0
H1265 H 0.16868 0.29299 0.40946 0.0
C1266 C 0.21083 0.36375 0.43387 0.0
C1267 C 0.69638 0.87399 0.45214 0.0
C1268 C 0.67619 0.86245 0.47255 0.0
H1269 H 0.70191 0.88101 0.41226 0.0
C1270 C 0.64602 0.8536 0.46892 0.0
H1271 H 0.71991 0.88158 0.45479 0.0
C1272 C 0.63558 0.85316 0.44452 0.0
C1273 C 0.65529 0.86169 0.42364 0.0
H1274 H 0.63025 0.84502 0.48459 0.0
H1275 H 0.61176 0.84391 0.44184 0.0
C1276 C 0.68608 0.87392 0.42787 0.0
C1277 C 0.16523 0.80959 0.46005 0.0
C1278 C 0.16467 0.83535 0.46825 0.0
H1279 H 0.16054 0.78105 0.42899 0.0
C1280 C 0.1635 0.85497 0.45014 0.0
H1281 H 0.16685 0.79447 0.47349 0.0
C1282 C 0.16034 0.84747 0.42445 0.0
C1283 C 0.15802 0.82018 0.41675 0.0
H1284 H 0.16297 0.87497 0.45595 0.0
H1285 H 0.15754 0.86182 0.41097 0.0
C1286 C 0.16171 0.80198 0.4346 0.0
C1287 C 0.65399 0.8128 0.21683 0.0
C1288 C 0.64422 0.82629 0.19893 0.0
H1289 H 0.66036 0.80735 0.25611 0.0
C1290 C 0.63071 0.84267 0.20739 0.0
H1291 H 0.66437 0.79993 0.21085 0.0
C1292 C 0.62847 0.84691 0.23309 0.0
C1293 C 0.63939 0.83459 0.25094 0.0
H1294 H 0.62196 0.85242 0.19412 0.0
H1295 H 0.61882 0.8605 0.23897 0.0
C1296 C 0.65149 0.81684 0.24269 0.0
C1297 C 0.11223 0.80789 0.19913 0.0
C1298 C 0.13587 0.80425 0.19022 0.0
H1299 H 0.0893 0.81142 0.23164 0.0
C1300 C 0.15182 0.79669 0.20731 0.0
H1301 H 0.09944 0.8134 0.1862 0.0
C1302 C 0.14571 0.79496 0.23315 0.0
C1303 C 0.12386 0.80127 0.24237 0.0
H1304 H 0.16969 0.79307 0.20072 0.0
H1305 H 0.15959 0.7908 0.24595 0.0
C1306 C 0.10634 0.80655 0.22506 0.0
C1307 C 0.13103 0.31087 0.20175 0.0
C1308 C 0.14262 0.34133 0.19537 0.0
H1309 H 0.11838 0.27827 0.2314 0.0
C1310 C 0.14723 0.36224 0.21441 0.0
H1311 H 0.12696 0.29436 0.18723 0.0
C1312 C 0.14273 0.35322 0.23978 0.0
C1313 C 0.1331 0.32305 0.24639 0.0
H1314 H 0.15608 0.38587 0.20978 0.0
H1315 H 0.14869 0.37025 0.25418 0.0
C1316 C 0.12593 0.30172 0.22703 0.0
C1317 C 0.86845 0.67298 0.78808 0.0
C1318 C 0.8436 0.64686 0.79792 0.0
H1319 H 0.89154 0.69789 0.75481 0.0
C1320 C 0.82499 0.62363 0.78135 0.0
H1321 H 0.88323 0.69118 0.80045 0.0
C1322 C 0.82984 0.62732 0.75528 0.0
C1323 C 0.85333 0.65443 0.74529 0.0
H1324 H 0.80603 0.60297 0.78851 0.0
H1325 H 0.81393 0.60977 0.74299 0.0
C1326 C 0.87324 0.67676 0.76197 0.0
C1327 C 0.3619 0.2194 0.78234 0.0
C1328 C 0.34548 0.20219 0.80344 0.0
H1329 H 0.36314 0.22441 0.7421 0.0
C1330 C 0.31541 0.17991 0.80065 0.0
H1331 H 0.38521 0.23673 0.78416 0.0
C1332 C 0.30256 0.17335 0.77671 0.0
C1333 C 0.31993 0.18839 0.75516 0.0
H1334 H 0.30237 0.16662 0.81678 0.0
H1335 H 0.27979 0.1548 0.77496 0.0
C1336 C 0.34927 0.21242 0.75831 0.0
C1337 C 0.84749 0.19934 0.77989 0.0
C1338 C 0.8468 0.1771 0.79614 0.0
H1339 H 0.84161 0.21041 0.74187 0.0
C1340 C 0.84493 0.15107 0.78564 0.0
H1341 H 0.84873 0.21958 0.78748 0.0
C1342 C 0.84051 0.14581 0.75982 0.0
C1343 C 0.83843 0.1667 0.74399 0.0
H1344 H 0.8449 0.13384 0.79762 0.0
H1345 H 0.83688 0.12451 0.7524 0.0
C1346 C 0.84338 0.19418 0.75385 0.0
C1347 C 0.28976 0.12176 0.55234 0.0
C1348 C 0.31303 0.12931 0.53483 0.0
H1349 H 0.27748 0.11966 0.59121 0.0
C1350 C 0.34133 0.13599 0.54334 0.0
H1351 H 0.26758 0.11594 0.54598 0.0
C1352 C 0.3471 0.13823 0.56925 0.0
C1353 C 0.32454 0.13362 0.58681 0.0
H1354 H 0.35942 0.1415 0.53002 0.0
H1355 H 0.36974 0.14573 0.57543 0.0
C1356 C 0.29538 0.12359 0.57818 0.0
C1357 C 0.79867 0.09748 0.54564 0.0
C1358 C 0.7961 0.11277 0.52453 0.0
H1359 H 0.80009 0.09546 0.58597 0.0
C1360 C 0.78678 0.13396 0.52813 0.0
H1361 H 0.80579 0.08098 0.54339 0.0
C1362 C 0.78327 0.14211 0.55253 0.0
C1363 C 0.78954 0.12953 0.5737 0.0
H1364 H 0.7841 0.14563 0.51212 0.0
H1365 H 0.77822 0.16014 0.55468 0.0
C1366 C 0.79542 0.1058 0.57006 0.0
C1367 C 0.81375 0.63097 0.52455 0.0
C1368 C 0.81637 0.65925 0.52036 0.0
H1369 H 0.81213 0.59923 0.55162 0.0
C1370 C 0.81626 0.67624 0.54116 0.0
H1371 H 0.81328 0.61724 0.5088 0.0
C1372 C 0.81575 0.66602 0.56584 0.0
C1373 C 0.81512 0.63858 0.57002 0.0
H1374 H 0.81831 0.69818 0.53836 0.0
H1375 H 0.81766 0.68039 0.5815 0.0
C1376 C 0.81298 0.62067 0.5491 0.0
loop_
_geom_bond_atom_site_label_1
_geom_bond_atom_site_label_2
_geom_bond_distance
_geom_bond_site_symmetry_2
_ccdc_geom_bond_type
C0 C1 1.384 . S
C0 H13 0.947 . S
C0 C35 1.382 . S
C1 C0 1.384 . S
C1 C2 1.378 . S
C2 C1 1.378 . S
C2 C3 1.378 . S
C2 H14 0.952 . S
C3 C2 1.378 . S
C3 H15 0.950 . S
C3 C34 1.383 . S
H4 C23 0.947 . S
H5 C24 0.946 . S
H6 C26 0.953 . S
H7 C27 0.945 . S
H8 C29 0.952 . S
H9 C30 0.949 . S
H10 C32 0.950 . S
H11 C33 0.948 . S
H12 C35 0.951 . S
H13 C0 0.947 . S
H14 C2 0.952 . S
H15 C3 0.950 . S
N16 C19 1.382 . S
N16 C21 1.363 . S
N17 C19 1.371 . S
N17 C20 1.372 . S
N18 C20 1.361 . S
N18 C21 1.377 . S
C19 N16 1.382 . S
C19 N17 1.371 . S
C19 C22 1.480 . S
C20 N17 1.372 . S
C20 N18 1.361 . S
C20 C28 1.457 . S
C21 N16 1.363 . S
C21 N18 1.377 . S
C21 C34 1.479 . S
C22 C19 1.480 . S
C22 C23 1.383 . S
C22 C27 1.385 . S
C23 H4 0.947 . S
C23 C22 1.383 . S
C23 C24 1.388 . S
C24 H5 0.946 . S
C24 C23 1.388 . S
C24 C25 1.384 . S
C25 C24 1.384 . S
C25 C26 1.377 . S
C26 H6 0.953 . S
C26 C25 1.377 . S
C26 C27 1.369 . S
C27 H7 0.945 . S
C27 C22 1.385 . S
C27 C26 1.369 . S
C28 C20 1.457 . S
C28 C29 1.372 . S
C28 C33 1.364 . S
C29 H8 0.952 . S
C29 C28 1.372 . S
C29 C30 1.389 . S
C30 H9 0.949 . S
C30 C29 1.389 . S
C30 C31 1.387 . S
C31 C30 1.387 . S
C31 C32 1.372 . S
C32 H10 0.950 . S
C32 C31 1.372 . S
C32 C33 1.379 . S
C33 H11 0.948 . S
C33 C28 1.364 . S
C33 C32 1.379 . S
C34 C3 1.383 . S
C34 C21 1.479 . S
C34 C35 1.398 . S
C35 C0 1.382 . S
C35 H12 0.951 . S
C35 C34 1.398 . S
C36 C37 1.384 . S
C36 H49 0.947 . S
C36 C71 1.382 . S
C37 C36 1.384 . S
C37 C38 1.378 . S
C38 C37 1.378 . S
C38 C39 1.378 . S
C38 H50 0.952 . S
C39 C38 1.378 . S
C39 H51 0.950 . S
C39 C70 1.383 . S
H40 C59 0.947 . S
H41 C60 0.946 . S
H42 C62 0.953 . S
H43 C63 0.945 . S
H44 C65 0.952 . S
H45 C66 0.949 . S
H46 C68 0.950 . S
H47 C69 0.948 . S
H48 C71 0.951 . S
H49 C36 0.947 . S
H50 C38 0.952 . S
H51 C39 0.950 . S
N52 C55 1.382 . S
N52 C57 1.363 . S
N53 C55 1.371 . S
N53 C56 1.372 . S
N54 C56 1.361 . S
N54 C57 1.377 . S
C55 N52 1.382 . S
C55 N53 1.371 . S
C55 C58 1.480 . S
C56 N53 1.372 . S
C56 N54 1.361 . S
C56 C64 1.457 . S
C57 N52 1.363 . S
C57 N54 1.377 . S
C57 C70 1.479 . S
C58 C55 1.480 . S
C58 C59 1.383 . S
C58 C63 1.385 . S
C59 H40 0.947 . S
C59 C58 1.383 . S
C59 C60 1.388 . S
C60 H41 0.946 . S
C60 C59 1.388 . S
C60 C61 1.384 . S
C61 C60 1.384 . S
C61 C62 1.377 . S
C62 H42 0.953 . S
C62 C61 1.377 . S
C62 C63 1.369 . S
C63 H43 0.945 . S
C63 C58 1.385 . S
C63 C62 1.369 . S
C64 C56 1.457 . S
C64 C65 1.372 . S
C64 C69 1.364 . S
C65 H44 0.952 . S
C65 C64 1.372 . S
C65 C66 1.389 . S
C66 H45 0.949 . S
C66 C65 1.389 . S
C66 C67 1.387 . S
C67 C66 1.387 . S
C67 C68 1.372 . S
C68 H46 0.950 . S
C68 C67 1.372 . S
C68 C69 1.379 . S
C69 H47 0.948 . S
C69 C64 1.364 . S
C69 C68 1.379 . S
C70 C39 1.383 . S
C70 C57 1.479 . S
C70 C71 1.398 . S
C71 C36 1.382 . S
C71 H48 0.951 . S
C71 C70 1.398 . S
C72 C73 1.384 . S
C72 H85 0.947 . S
C72 C107 1.382 . S
C73 C72 1.384 . S
C73 C74 1.378 . S
C74 C73 1.378 . S
C74 C75 1.378 . S
C74 H86 0.952 . S
C75 C74 1.378 . S
C75 H87 0.950 . S
C75 C106 1.383 . S
H76 C95 0.947 . S
H77 C96 0.946 . S
H78 C98 0.953 . S
H79 C99 0.945 . S
H80 C101 0.952 . S
H81 C102 0.949 . S
H82 C104 0.950 . S
H83 C105 0.948 . S
H84 C107 0.951 . S
H85 C72 0.947 . S
H86 C74 0.952 . S
H87 C75 0.950 . S
N88 C91 1.382 . S
N88 C93 1.363 . S
N89 C91 1.371 . S
N89 C92 1.372 . S
N90 C92 1.361 . S
N90 C93 1.377 . S
C91 N88 1.382 . S
C91 N89 1.371 . S
C91 C94 1.480 . S
C92 N89 1.372 . S
C92 N90 1.361 . S
C92 C100 1.457 . S
C93 N88 1.363 . S
C93 N90 1.377 . S
C93 C106 1.479 . S
C94 C91 1.480 . S
C94 C95 1.383 . S
C94 C99 1.385 . S
C95 H76 0.947 . S
C95 C94 1.383 . S
C95 C96 1.388 . S
C96 H77 0.946 . S
C96 C95 1.388 . S
C96 C97 1.384 . S
C97 C96 1.384 . S
C97 C98 1.377 . S
C98 H78 0.953 . S
C98 C97 1.377 . S
C98 C99 1.369 . S
C99 H79 0.945 . S
C99 C94 1.385 . S
C99 C98 1.369 . S
C100 C92 1.457 . S
C100 C101 1.372 . S
C100 C105 1.364 . S
C101 H80 0.952 . S
C101 C100 1.372 . S
C101 C102 1.389 . S
C102 H81 0.949 . S
C102 C101 1.389 . S
C102 C103 1.387 . S
C103 C102 1.387 . S
C103 C104 1.372 . S
C104 H82 0.950 . S
C104 C103 1.372 . S
C104 C105 1.379 . S
C105 H83 0.948 . S
C105 C100 1.364 . S
C105 C104 1.379 . S
C106 C75 1.383 . S
C106 C93 1.479 . S
C106 C107 1.398 . S
C107 C72 1.382 . S
C107 H84 0.951 . S
C107 C106 1.398 . S
C108 C109 1.384 . S
C108 H121 0.947 . S
C108 C143 1.382 . S
C109 C108 1.384 . S
C109 C110 1.378 . S
C110 C109 1.378 . S
C110 C111 1.378 . S
C110 H122 0.952 . S
C111 C110 1.378 . S
C111 H123 0.950 . S
C111 C142 1.383 . S
H112 C131 0.947 . S
H113 C132 0.946 . S
H114 C134 0.953 . S
H115 C135 0.945 . S
H116 C137 0.952 . S
H117 C138 0.949 . S
H118 C140 0.950 . S
H119 C141 0.948 . S
H120 C143 0.951 . S
H121 C108 0.947 . S
H122 C110 0.952 . S
H123 C111 0.950 . S
N124 C127 1.382 . S
N124 C129 1.363 . S
N125 C127 1.371 . S
N125 C128 1.372 . S
N126 C128 1.361 . S
N126 C129 1.377 . S
C127 N124 1.382 . S
C127 N125 1.371 . S
C127 C130 1.480 . S
C128 N125 1.372 . S
C128 N126 1.361 . S
C128 C136 1.457 . S
C129 N124 1.363 . S
C129 N126 1.377 . S
C129 C142 1.479 . S
C130 C127 1.480 . S
C130 C131 1.383 . S
C130 C135 1.385 . S
C131 H112 0.947 . S
C131 C130 1.383 . S
C131 C132 1.388 . S
C132 H113 0.946 . S
C132 C131 1.388 . S
C132 C133 1.384 . S
C133 C132 1.384 . S
C133 C134 1.377 . S
C134 H114 0.953 . S
C134 C133 1.377 . S
C134 C135 1.369 . S
C135 H115 0.945 . S
C135 C130 1.385 . S
C135 C134 1.369 . S
C136 C128 1.457 . S
C136 C137 1.372 . S
C136 C141 1.364 . S
C137 H116 0.952 . S
C137 C136 1.372 . S
C137 C138 1.389 . S
C138 H117 0.949 . S
C138 C137 1.389 . S
C138 C139 1.387 . S
C139 C138 1.387 . S
C139 C140 1.372 . S
C140 H118 0.950 . S
C140 C139 1.372 . S
C140 C141 1.379 . S
C141 H119 0.948 . S
C141 C136 1.364 . S
C141 C140 1.379 . S
C142 C111 1.383 . S
C142 C129 1.479 . S
C142 C143 1.398 . S
C143 C108 1.382 . S
C143 H120 0.951 . S
C143 C142 1.398 . S
C144 C145 1.384 . S
C144 H157 0.947 . S
C144 C179 1.382 . S
C145 C144 1.384 . S
C145 C146 1.378 . S
C146 C145 1.378 . S
C146 C147 1.378 . S
C146 H158 0.952 . S
C147 C146 1.378 . S
C147 H159 0.950 . S
C147 C178 1.383 . S
H148 C167 0.947 . S
H149 C168 0.946 . S
H150 C170 0.953 . S
H151 C171 0.945 . S
H152 C173 0.952 . S
H153 C174 0.949 . S
H154 C176 0.950 . S
H155 C177 0.948 . S
H156 C179 0.951 . S
H157 C144 0.947 . S
H158 C146 0.952 . S
H159 C147 0.950 . S
N160 C163 1.382 . S
N160 C165 1.363 . S
N161 C163 1.371 . S
N161 C164 1.372 . S
N162 C164 1.361 . S
N162 C165 1.377 . S
C163 N160 1.382 . S
C163 N161 1.371 . S
C163 C166 1.480 . S
C164 N161 1.372 . S
C164 N162 1.361 . S
C164 C172 1.457 . S
C165 N160 1.363 . S
C165 N162 1.377 . S
C165 C178 1.479 . S
C166 C163 1.480 . S
C166 C167 1.383 . S
C166 C171 1.385 . S
C167 H148 0.947 . S
C167 C166 1.383 . S
C167 C168 1.388 . S
C168 H149 0.946 . S
C168 C167 1.388 . S
C168 C169 1.384 . S
C169 C168 1.384 . S
C169 C170 1.377 . S
C170 H150 0.953 . S
C170 C169 1.377 . S
C170 C171 1.369 . S
C171 H151 0.945 . S
C171 C166 1.385 . S
C171 C170 1.369 . S
C172 C164 1.457 . S
C172 C173 1.372 . S
C172 C177 1.364 . S
C173 H152 0.952 . S
C173 C172 1.372 . S
C173 C174 1.389 . S
C174 H153 0.949 . S
C174 C173 1.389 . S
C174 C175 1.387 . S
C175 C174 1.387 . S
C175 C176 1.372 . S
C176 H154 0.950 . S
C176 C175 1.372 . S
C176 C177 1.379 . S
C177 H155 0.948 . S
C177 C172 1.364 . S
C177 C176 1.379 . S
C178 C147 1.383 . S
C178 C165 1.479 . S
C178 C179 1.398 . S
C179 C144 1.382 . S
C179 H156 0.951 . S
C179 C178 1.398 . S
C180 C181 1.384 . S
C180 H193 0.947 . S
C180 C215 1.382 . S
C181 C180 1.384 . S
C181 C182 1.378 . S
C182 C181 1.378 . S
C182 C183 1.378 . S
C182 H194 0.952 . S
C183 C182 1.378 . S
C183 H195 0.950 . S
C183 C214 1.383 . S
H184 C203 0.947 . S
H185 C204 0.946 . S
H186 C206 0.953 . S
H187 C207 0.945 . S
H188 C209 0.952 . S
H189 C210 0.949 . S
H190 C212 0.950 . S
H191 C213 0.948 . S
H192 C215 0.951 . S
H193 C180 0.947 . S
H194 C182 0.952 . S
H195 C183 0.950 . S
N196 C199 1.382 . S
N196 C201 1.363 . S
N197 C199 1.371 . S
N197 C200 1.372 . S
N198 C200 1.361 . S
N198 C201 1.377 . S
C199 N196 1.382 . S
C199 N197 1.371 . S
C199 C202 1.480 . S
C200 N197 1.372 . S
C200 N198 1.361 . S
C200 C208 1.457 . S
C201 N196 1.363 . S
C201 N198 1.377 . S
C201 C214 1.479 . S
C202 C199 1.480 . S
C202 C203 1.383 . S
C202 C207 1.385 . S
C203 H184 0.947 . S
C203 C202 1.383 . S
C203 C204 1.388 . S
C204 H185 0.946 . S
C204 C203 1.388 . S
C204 C205 1.384 . S
C205 C204 1.384 . S
C205 C206 1.377 . S
C206 H186 0.953 . S
C206 C205 1.377 . S
C206 C207 1.369 . S
C207 H187 0.945 . S
C207 C202 1.385 . S
C207 C206 1.369 . S
C208 C200 1.457 . S
C208 C209 1.372 . S
C208 C213 1.364 . S
C209 H188 0.952 . S
C209 C208 1.372 . S
C209 C210 1.389 . S
C210 H189 0.949 . S
C210 C209 1.389 . S
C210 C211 1.387 . S
C211 C210 1.387 . S
C211 C212 1.372 . S
C212 H190 0.950 . S
C212 C211 1.372 . S
C212 C213 1.379 . S
C213 H191 0.948 . S
C213 C208 1.364 . S
C213 C212 1.379 . S
C214 C183 1.383 . S
C214 C201 1.479 . S
C214 C215 1.398 . S
C215 C180 1.382 . S
C215 H192 0.951 . S
C215 C214 1.398 . S
C216 C217 1.384 . S
C216 H229 0.947 . S
C216 C251 1.382 . S
C217 C216 1.384 . S
C217 C218 1.378 . S
C218 C217 1.378 . S
C218 C219 1.378 . S
C218 H230 0.952 . S
C219 C218 1.378 . S
C219 H231 0.950 . S
C219 C250 1.383 . S
H220 C239 0.947 . S
H221 C240 0.946 . S
H222 C242 0.953 . S
H223 C243 0.945 . S
H224 C245 0.952 . S
H225 C246 0.949 . S
H226 C248 0.950 . S
H227 C249 0.948 . S
H228 C251 0.951 . S
H229 C216 0.947 . S
H230 C218 0.952 . S
H231 C219 0.950 . S
N232 C235 1.382 . S
N232 C237 1.363 . S
N233 C235 1.371 . S
N233 C236 1.372 . S
N234 C236 1.361 . S
N234 C237 1.377 . S
C235 N232 1.382 . S
C235 N233 1.371 . S
C235 C238 1.480 . S
C236 N233 1.372 . S
C236 N234 1.361 . S
C236 C244 1.457 . S
C237 N232 1.363 . S
C237 N234 1.377 . S
C237 C250 1.479 . S
C238 C235 1.480 . S
C238 C239 1.383 . S
C238 C243 1.385 . S
C239 H220 0.947 . S
C239 C238 1.383 . S
C239 C240 1.388 . S
C240 H221 0.946 . S
C240 C239 1.388 . S
C240 C241 1.384 . S
C241 C240 1.384 . S
C241 C242 1.377 . S
C242 H222 0.953 . S
C242 C241 1.377 . S
C242 C243 1.369 . S
C243 H223 0.945 . S
C243 C238 1.385 . S
C243 C242 1.369 . S
C244 C236 1.457 . S
C244 C245 1.372 . S
C244 C249 1.364 . S
C245 H224 0.952 . S
C245 C244 1.372 . S
C245 C246 1.389 . S
C246 H225 0.949 . S
C246 C245 1.389 . S
C246 C247 1.387 . S
C247 C246 1.387 . S
C247 C248 1.372 . S
C248 H226 0.950 . S
C248 C247 1.372 . S
C248 C249 1.379 . S
C249 H227 0.948 . S
C249 C244 1.364 . S
C249 C248 1.379 . S
C250 C219 1.383 . S
C250 C237 1.479 . S
C250 C251 1.398 . S
C251 C216 1.382 . S
C251 H228 0.951 . S
C251 C250 1.398 . S
C252 C253 1.384 . S
C252 H265 0.947 . S
C252 C287 1.382 . S
C253 C252 1.384 . S
C253 C254 1.378 . S
C254 C253 1.378 . S
C254 C255 1.378 . S
C254 H266 0.952 . S
C255 C254 1.378 . S
C255 H267 0.950 . S
C255 C286 1.383 . S
H256 C275 0.947 . S
H257 C276 0.946 . S
H258 C278 0.953 . S
H259 C279 0.945 . S
H260 C281 0.952 . S
H261 C282 0.949 . S
H262 C284 0.950 . S
H263 C285 0.948 . S
H264 C287 0.951 . S
H265 C252 0.947 . S
H266 C254 0.952 . S
H267 C255 0.950 . S
N268 C271 1.382 . S
N268 C273 1.363 . S
N269 C271 1.371 . S
N269 C272 1.372 . S
N270 C272 1.361 . S
N270 C273 1.377 . S
C271 N268 1.382 . S
C271 N269 1.371 . S
C271 C274 1.480 . S
C272 N269 1.372 . S
C272 N270 1.361 . S
C272 C280 1.457 . S
C273 N268 1.363 . S
C273 N270 1.377 . S
C273 C286 1.479 . S
C274 C271 1.480 . S
C274 C275 1.383 . S
C274 C279 1.385 . S
C275 H256 0.947 . S
C275 C274 1.383 . S
C275 C276 1.388 . S
C276 H257 0.946 . S
C276 C275 1.388 . S
C276 C277 1.384 . S
C277 C276 1.384 . S
C277 C278 1.377 . S
C278 H258 0.953 . S
C278 C277 1.377 . S
C278 C279 1.369 . S
C279 H259 0.945 . S
C279 C274 1.385 . S
C279 C278 1.369 . S
C280 C272 1.457 . S
C280 C281 1.372 . S
C280 C285 1.364 . S
C281 H260 0.952 . S
C281 C280 1.372 . S
C281 C282 1.389 . S
C282 H261 0.949 . S
C282 C281 1.389 . S
C282 C283 1.387 . S
C283 C282 1.387 . S
C283 C284 1.372 . S
C284 H262 0.950 . S
C284 C283 1.372 . S
C284 C285 1.379 . S
C285 H263 0.948 . S
C285 C280 1.364 . S
C285 C284 1.379 . S
C286 C255 1.383 . S
C286 C273 1.479 . S
C286 C287 1.398 . S
C287 C252 1.382 . S
C287 H264 0.951 . S
C287 C286 1.398 . S
C288 C289 1.384 . S
C288 H301 0.947 . S
C288 C323 1.382 . S
C289 C288 1.384 . S
C289 C290 1.378 . S
C290 C289 1.378 . S
C290 C291 1.378 . S
C290 H302 0.952 . S
C291 C290 1.378 . S
C291 H303 0.950 . S
C291 C322 1.383 . S
H292 C311 0.947 . S
H293 C312 0.946 . S
H294 C314 0.953 . S
H295 C315 0.945 . S
H296 C317 0.952 . S
H297 C318 0.949 . S
H298 C320 0.950 . S
H299 C321 0.948 . S
H300 C323 0.951 . S
H301 C288 0.947 . S
H302 C290 0.952 . S
H303 C291 0.950 . S
N304 C307 1.382 . S
N304 C309 1.363 . S
N305 C307 1.371 . S
N305 C308 1.372 . S
N306 C308 1.361 . S
N306 C309 1.377 . S
C307 N304 1.382 . S
C307 N305 1.371 . S
C307 C310 1.480 . S
C308 N305 1.372 . S
C308 N306 1.361 . S
C308 C316 1.457 . S
C309 N304 1.363 . S
C309 N306 1.377 . S
C309 C322 1.479 . S
C310 C307 1.480 . S
C310 C311 1.383 . S
C310 C315 1.385 . S
C311 H292 0.947 . S
C311 C310 1.383 . S
C311 C312 1.388 . S
C312 H293 0.946 . S
C312 C311 1.388 . S
C312 C313 1.384 . S
C313 C312 1.384 . S
C313 C314 1.377 . S
C314 H294 0.953 . S
C314 C313 1.377 . S
C314 C315 1.369 . S
C315 H295 0.945 . S
C315 C310 1.385 . S
C315 C314 1.369 . S
C316 C308 1.457 . S
C316 C317 1.372 . S
C316 C321 1.364 . S
C317 H296 0.952 . S
C317 C316 1.372 . S
C317 C318 1.389 . S
C318 H297 0.949 . S
C318 C317 1.389 . S
C318 C319 1.387 . S
C319 C318 1.387 . S
C319 C320 1.372 . S
C320 H298 0.950 . S
C320 C319 1.372 . S
C320 C321 1.379 . S
C321 H299 0.948 . S
C321 C316 1.364 . S
C321 C320 1.379 . S
C322 C291 1.383 . S
C322 C309 1.479 . S
C322 C323 1.398 . S
C323 C288 1.382 . S
C323 H300 0.951 . S
C323 C322 1.398 . S
C324 C325 1.384 . S
C324 H337 0.947 . S
C324 C359 1.382 . S
C325 C324 1.384 . S
C325 C326 1.378 . S
C326 C325 1.378 . S
C326 C327 1.378 . S
C326 H338 0.952 1_556 S
C327 C326 1.378 . S
C327 H339 0.950 . S
C327 C358 1.383 . S
H328 C347 0.947 . S
H329 C348 0.946 1_554 S
H330 C350 0.953 . S
H331 C351 0.945 . S
H332 C353 0.952 . S
H333 C354 0.949 . S
H334 C356 0.950 . S
H335 C357 0.948 . S
H336 C359 0.951 . S
H337 C324 0.947 . S
H338 C326 0.952 1_554 S
H339 C327 0.950 . S
N340 C343 1.382 . S
N340 C345 1.363 . S
N341 C343 1.371 . S
N341 C344 1.372 . S
N342 C344 1.361 . S
N342 C345 1.377 . S
C343 N340 1.382 . S
C343 N341 1.371 . S
C343 C346 1.480 . S
C344 N341 1.372 . S
C344 N342 1.361 . S
C344 C352 1.457 . S
C345 N340 1.363 . S
C345 N342 1.377 . S
C345 C358 1.479 . S
C346 C343 1.480 . S
C346 C347 1.383 . S
C346 C351 1.385 . S
C347 H328 0.947 . S
C347 C346 1.383 . S
C347 C348 1.388 . S
C348 H329 0.946 1_556 S
C348 C347 1.388 . S
C348 C349 1.384 . S
C349 C348 1.384 . S
C349 C350 1.377 . S
C350 H330 0.953 . S
C350 C349 1.377 . S
C350 C351 1.369 . S
C351 H331 0.945 . S
C351 C346 1.385 . S
C351 C350 1.369 . S
C352 C344 1.457 . S
C352 C353 1.372 . S
C352 C357 1.364 . S
C353 H332 0.952 . S
C353 C352 1.372 . S
C353 C354 1.389 . S
C354 H333 0.949 . S
C354 C353 1.389 . S
C354 C355 1.387 . S
C355 C354 1.387 . S
C355 C356 1.372 . S
C356 H334 0.950 . S
C356 C355 1.372 . S
C356 C357 1.379 . S
C357 H335 0.948 . S
C357 C352 1.364 . S
C357 C356 1.379 . S
C358 C327 1.383 . S
C358 C345 1.479 . S
C358 C359 1.398 . S
C359 C324 1.382 . S
C359 H336 0.951 . S
C359 C358 1.398 . S
C360 C361 1.384 . S
C360 H373 0.947 . S
C360 C395 1.382 . S
C361 C360 1.384 . S
C361 C362 1.374 1_556 S
C362 C361 1.374 1_554 S
C362 C363 1.374 1_554 S
C362 H374 0.960 . S
C363 C362 1.374 1_556 S
C363 H375 0.964 . S
C363 C394 1.383 . S
H364 C383 0.947 . S
H365 C384 0.946 1_554 S
H366 C386 0.953 . S
H367 C387 0.945 . S
H368 C389 0.952 . S
H369 C390 0.949 . S
H370 C392 0.950 . S
H371 C393 0.948 . S
H372 C395 0.951 . S
H373 C360 0.947 . S
H374 C362 0.960 . S
H375 C363 0.964 . S
N376 C379 1.382 . S
N376 C381 1.363 . S
N377 C379 1.371 . S
N377 C380 1.372 . S
N378 C380 1.361 . S
N378 C381 1.377 . S
C379 N376 1.382 . S
C379 N377 1.371 . S
C379 C382 1.480 . S
C380 N377 1.372 . S
C380 N378 1.361 . S
C380 C388 1.457 . S
C381 N376 1.363 . S
C381 N378 1.377 . S
C381 C394 1.479 . S
C382 C379 1.480 . S
C382 C383 1.383 . S
C382 C387 1.385 . S
C383 H364 0.947 . S
C383 C382 1.383 . S
C383 C384 1.388 . S
C384 H365 0.946 1_556 S
C384 C383 1.388 . S
C384 C385 1.384 . S
C385 C384 1.384 . S
C385 C386 1.377 . S
C386 H366 0.953 . S
C386 C385 1.377 . S
C386 C387 1.369 . S
C387 H367 0.945 . S
C387 C382 1.385 . S
C387 C386 1.369 . S
C388 C380 1.457 . S
C388 C389 1.372 . S
C388 C393 1.364 . S
C389 H368 0.952 . S
C389 C388 1.372 . S
C389 C390 1.389 . S
C390 H369 0.949 . S
C390 C389 1.389 . S
C390 C391 1.387 . S
C391 C390 1.387 . S
C391 C392 1.372 . S
C392 H370 0.950 . S
C392 C391 1.372 . S
C392 C393 1.379 . S
C393 H371 0.948 . S
C393 C388 1.364 . S
C393 C392 1.379 . S
C394 C363 1.383 . S
C394 C381 1.479 . S
C394 C395 1.398 . S
C395 C360 1.382 . S
C395 H372 0.951 . S
C395 C394 1.398 . S
C396 C397 1.384 . S
C396 H409 0.947 . S
C396 C431 1.382 . S
C397 C396 1.384 . S
C397 C398 1.378 . S
C398 C397 1.378 . S
C398 C399 1.378 . S
C398 H410 0.952 1_556 S
C399 C398 1.378 . S
C399 H411 0.950 . S
C399 C430 1.383 . S
H400 C419 0.947 . S
H401 C420 0.946 1_554 S
H402 C422 0.953 . S
H403 C423 0.945 . S
H404 C425 0.952 . S
H405 C426 0.949 . S
H406 C428 0.950 . S
H407 C429 0.948 . S
H408 C431 0.951 . S
H409 C396 0.947 . S
H410 C398 0.952 1_554 S
H411 C399 0.950 . S
N412 C415 1.382 . S
N412 C417 1.363 . S
N413 C415 1.371 . S
N413 C416 1.372 . S
N414 C416 1.361 . S
N414 C417 1.377 . S
C415 N412 1.382 . S
C415 N413 1.371 . S
C415 C418 1.480 . S
C416 N413 1.372 . S
C416 N414 1.361 . S
C416 C424 1.457 . S
C417 N412 1.363 . S
C417 N414 1.377 . S
C417 C430 1.479 . S
C418 C415 1.480 . S
C418 C419 1.383 . S
C418 C423 1.385 . S
C419 H400 0.947 . S
C419 C418 1.383 . S
C419 C420 1.388 . S
C420 H401 0.946 1_556 S
C420 C419 1.388 . S
C420 C421 1.384 . S
C421 C420 1.384 . S
C421 C422 1.377 . S
C422 H402 0.953 . S
C422 C421 1.377 . S
C422 C423 1.369 . S
C423 H403 0.945 . S
C423 C418 1.385 . S
C423 C422 1.369 . S
C424 C416 1.457 . S
C424 C425 1.372 . S
C424 C429 1.364 . S
C425 H404 0.952 . S
C425 C424 1.372 . S
C425 C426 1.389 . S
C426 H405 0.949 . S
C426 C425 1.389 . S
C426 C427 1.387 . S
C427 C426 1.387 . S
C427 C428 1.372 . S
C428 H406 0.950 . S
C428 C427 1.372 . S
C428 C429 1.379 . S
C429 H407 0.948 . S
C429 C424 1.364 . S
C429 C428 1.379 . S
C430 C399 1.383 . S
C430 C417 1.479 . S
C430 C431 1.398 . S
C431 C396 1.382 . S
C431 H408 0.951 . S
C431 C430 1.398 . S
C432 C433 1.384 . S
C432 H445 0.947 . S
C432 C467 1.382 . S
C433 C432 1.384 . S
C433 C434 1.378 . S
C434 C433 1.378 . S
C434 C435 1.378 . S
C434 H446 0.952 1_554 S
C435 C434 1.378 . S
C435 H447 0.950 . S
C435 C466 1.383 . S
H436 C455 0.947 . S
H437 C456 0.946 1_556 S
H438 C458 0.953 . S
H439 C459 0.945 . S
H440 C461 0.952 . S
H441 C462 0.949 . S
H442 C464 0.950 . S
H443 C465 0.948 . S
H444 C467 0.951 . S
H445 C432 0.947 . S
H446 C434 0.952 1_556 S
H447 C435 0.950 . S
N448 C451 1.382 . S
N448 C453 1.363 . S
N449 C451 1.371 . S
N449 C452 1.372 . S
N450 C452 1.361 . S
N450 C453 1.377 . S
C451 N448 1.382 . S
C451 N449 1.371 . S
C451 C454 1.480 . S
C452 N449 1.372 . S
C452 N450 1.361 . S
C452 C460 1.457 . S
C453 N448 1.363 . S
C453 N450 1.377 . S
C453 C466 1.479 . S
C454 C451 1.480 . S
C454 C455 1.383 . S
C454 C459 1.385 . S
C455 H436 0.947 . S
C455 C454 1.383 . S
C455 C456 1.388 . S
C456 H437 0.946 1_554 S
C456 C455 1.388 . S
C456 C457 1.384 . S
C457 C456 1.384 . S
C457 C458 1.377 . S
C458 H438 0.953 . S
C458 C457 1.377 . S
C458 C459 1.369 . S
C459 H439 0.945 . S
C459 C454 1.385 . S
C459 C458 1.369 . S
C460 C452 1.457 . S
C460 C461 1.372 . S
C460 C465 1.364 . S
C461 H440 0.952 . S
C461 C460 1.372 . S
C461 C462 1.389 . S
C462 H441 0.949 . S
C462 C461 1.389 . S
C462 C463 1.387 . S
C463 C462 1.387 . S
C463 C464 1.372 . S
C464 H442 0.950 . S
C464 C463 1.372 . S
C464 C465 1.379 . S
C465 H443 0.948 . S
C465 C460 1.364 . S
C465 C464 1.379 . S
C466 C435 1.383 . S
C466 C453 1.479 . S
C466 C467 1.398 . S
C467 C432 1.382 . S
C467 H444 0.951 . S
C467 C466 1.398 . S
C468 C469 1.384 . S
C468 H481 0.947 . S
C468 C503 1.382 . S
C469 C468 1.384 . S
C469 C470 1.378 . S
C470 C469 1.378 . S
C470 C471 1.378 . S
C470 H482 0.952 1_554 S
C471 C470 1.378 . S
C471 H483 0.950 . S
C471 C502 1.383 . S
H472 C491 0.947 . S
H473 C492 0.946 1_556 S
H474 C494 0.953 . S
H475 C495 0.945 . S
H476 C497 0.952 . S
H477 C498 0.949 . S
H478 C500 0.950 . S
H479 C501 0.948 . S
H480 C503 0.951 . S
H481 C468 0.947 . S
H482 C470 0.952 1_556 S
H483 C471 0.950 . S
N484 C487 1.382 . S
N484 C489 1.363 . S
N485 C487 1.371 . S
N485 C488 1.372 . S
N486 C488 1.361 . S
N486 C489 1.377 . S
C487 N484 1.382 . S
C487 N485 1.371 . S
C487 C490 1.480 . S
C488 N485 1.372 . S
C488 N486 1.361 . S
C488 C496 1.457 . S
C489 N484 1.363 . S
C489 N486 1.377 . S
C489 C502 1.479 . S
C490 C487 1.480 . S
C490 C491 1.383 . S
C490 C495 1.385 . S
C491 H472 0.947 . S
C491 C490 1.383 . S
C491 C492 1.388 . S
C492 H473 0.946 1_554 S
C492 C491 1.388 . S
C492 C493 1.384 . S
C493 C492 1.384 . S
C493 C494 1.377 . S
C494 H474 0.953 . S
C494 C493 1.377 . S
C494 C495 1.369 . S
C495 H475 0.945 . S
C495 C490 1.385 . S
C495 C494 1.369 . S
C496 C488 1.457 . S
C496 C497 1.372 . S
C496 C501 1.364 . S
C497 H476 0.952 . S
C497 C496 1.372 . S
C497 C498 1.389 . S
C498 H477 0.949 . S
C498 C497 1.389 . S
C498 C499 1.387 . S
C499 C498 1.387 . S
C499 C500 1.372 . S
C500 H478 0.950 . S
C500 C499 1.372 . S
C500 C501 1.379 . S
C501 H479 0.948 . S
C501 C496 1.364 . S
C501 C500 1.379 . S
C502 C471 1.383 . S
C502 C489 1.479 . S
C502 C503 1.398 . S
C503 C468 1.382 . S
C503 H480 0.951 . S
C503 C502 1.398 . S
C504 C505 1.384 . S
C504 H517 0.947 . S
C504 C539 1.382 . S
C505 C504 1.384 . S
C505 C506 1.378 . S
C506 C505 1.378 . S
C506 C507 1.378 . S
C506 H518 0.952 1_554 S
C507 C506 1.378 . S
C507 H519 0.950 . S
C507 C538 1.383 . S
H508 C527 0.947 . S
H509 C528 0.946 . S
H510 C530 0.953 . S
H511 C531 0.945 . S
H512 C533 0.952 . S
H513 C534 0.949 . S
H514 C536 0.950 . S
H515 C537 0.948 . S
H516 C539 0.951 . S
H517 C504 0.947 . S
H518 C506 0.952 1_556 S
H519 C507 0.950 . S
N520 C523 1.382 . S
N520 C525 1.363 . S
N521 C523 1.371 . S
N521 C524 1.372 . S
N522 C524 1.361 . S
N522 C525 1.377 . S
C523 N520 1.382 . S
C523 N521 1.371 . S
C523 C526 1.480 . S
C524 N521 1.372 . S
C524 N522 1.361 . S
C524 C532 1.457 . S
C525 N520 1.363 . S
C525 N522 1.377 . S
C525 C538 1.479 . S
C526 C523 1.480 . S
C526 C527 1.383 . S
C526 C531 1.385 . S
C527 H508 0.947 . S
C527 C526 1.383 . S
C527 C528 1.388 . S
C528 H509 0.946 . S
C528 C527 1.388 . S
C528 C529 1.384 . S
C529 C528 1.384 . S
C529 C530 1.377 . S
C530 H510 0.953 . S
C530 C529 1.377 . S
C530 C531 1.369 . S
C531 H511 0.945 . S
C531 C526 1.385 . S
C531 C530 1.369 . S
C532 C524 1.457 . S
C532 C533 1.372 . S
C532 C537 1.364 . S
C533 H512 0.952 . S
C533 C532 1.372 . S
C533 C534 1.389 . S
C534 H513 0.949 . S
C534 C533 1.389 . S
C534 C535 1.387 . S
C535 C534 1.387 . S
C535 C536 1.372 . S
C536 H514 0.950 . S
C536 C535 1.372 . S
C536 C537 1.379 . S
C537 H515 0.948 . S
C537 C532 1.364 . S
C537 C536 1.379 . S
C538 C507 1.383 . S
C538 C525 1.479 . S
C538 C539 1.398 . S
C539 C504 1.382 . S
C539 H516 0.951 . S
C539 C538 1.398 . S
C540 C541 1.384 . S
C540 H553 0.947 . S
C540 C575 1.382 . S
C541 C540 1.384 . S
C541 C542 1.378 . S
C542 C541 1.378 . S
C542 C543 1.378 . S
C542 H554 0.952 . S
C543 C542 1.378 . S
C543 H555 0.950 . S
C543 C574 1.383 . S
H544 C563 0.947 . S
H545 C564 0.946 . S
H546 C566 0.953 . S
H547 C567 0.945 . S
H548 C569 0.952 . S
H549 C570 0.949 . S
H550 C572 0.950 . S
H551 C573 0.948 . S
H552 C575 0.951 . S
H553 C540 0.947 . S
H554 C542 0.952 . S
H555 C543 0.950 . S
N556 C559 1.382 . S
N556 C561 1.363 . S
N557 C559 1.371 . S
N557 C560 1.372 . S
N558 C560 1.361 . S
N558 C561 1.377 . S
C559 N556 1.382 . S
C559 N557 1.371 . S
C559 C562 1.480 . S
C560 N557 1.372 . S
C560 N558 1.361 . S
C560 C568 1.457 . S
C561 N556 1.363 . S
C561 N558 1.377 . S
C561 C574 1.479 . S
C562 C559 1.480 . S
C562 C563 1.383 . S
C562 C567 1.385 . S
C563 H544 0.947 . S
C563 C562 1.383 . S
C563 C564 1.388 . S
C564 H545 0.946 . S
C564 C563 1.388 . S
C564 C565 1.384 . S
C565 C564 1.384 . S
C565 C566 1.377 . S
C566 H546 0.953 . S
C566 C565 1.377 . S
C566 C567 1.369 . S
C567 H547 0.945 . S
C567 C562 1.385 . S
C567 C566 1.369 . S
C568 C560 1.457 . S
C568 C569 1.372 . S
C568 C573 1.364 . S
C569 H548 0.952 . S
C569 C568 1.372 . S
C569 C570 1.389 . S
C570 H549 0.949 . S
C570 C569 1.389 . S
C570 C571 1.387 . S
C571 C570 1.387 . S
C571 C572 1.372 . S
C572 H550 0.950 . S
C572 C571 1.372 . S
C572 C573 1.379 . S
C573 H551 0.948 . S
C573 C568 1.364 . S
C573 C572 1.379 . S
C574 C543 1.383 . S
C574 C561 1.479 . S
C574 C575 1.398 . S
C575 C540 1.382 . S
C575 H552 0.951 . S
C575 C574 1.398 . S
C576 C577 1.384 . S
C576 H589 0.947 . S
C576 C611 1.382 . S
C577 C576 1.384 . S
C577 C578 1.378 . S
C578 C577 1.378 . S
C578 C579 1.378 . S
C578 H590 0.952 . S
C579 C578 1.378 . S
C579 H591 0.950 . S
C579 C610 1.383 . S
H580 C599 0.947 . S
H581 C600 0.946 . S
H582 C602 0.953 . S
H583 C603 0.945 . S
H584 C605 0.952 . S
H585 C606 0.949 . S
H586 C608 0.950 . S
H587 C609 0.948 . S
H588 C611 0.951 . S
H589 C576 0.947 . S
H590 C578 0.952 . S
H591 C579 0.950 . S
N592 C595 1.382 . S
N592 C597 1.363 . S
N593 C595 1.371 . S
N593 C596 1.372 . S
N594 C596 1.361 . S
N594 C597 1.377 . S
C595 N592 1.382 . S
C595 N593 1.371 . S
C595 C598 1.480 . S
C596 N593 1.372 . S
C596 N594 1.361 . S
C596 C604 1.457 . S
C597 N592 1.363 . S
C597 N594 1.377 . S
C597 C610 1.479 . S
C598 C595 1.480 . S
C598 C599 1.383 . S
C598 C603 1.385 . S
C599 H580 0.947 . S
C599 C598 1.383 . S
C599 C600 1.388 . S
C600 H581 0.946 . S
C600 C599 1.388 . S
C600 C601 1.384 . S
C601 C600 1.384 . S
C601 C602 1.377 . S
C602 H582 0.953 . S
C602 C601 1.377 . S
C602 C603 1.369 . S
C603 H583 0.945 . S
C603 C598 1.385 . S
C603 C602 1.369 . S
C604 C596 1.457 . S
C604 C605 1.372 . S
C604 C609 1.364 . S
C605 H584 0.952 . S
C605 C604 1.372 . S
C605 C606 1.389 . S
C606 H585 0.949 . S
C606 C605 1.389 . S
C606 C607 1.387 . S
C607 C606 1.387 . S
C607 C608 1.372 . S
C608 H586 0.950 . S
C608 C607 1.372 . S
C608 C609 1.379 . S
C609 H587 0.948 . S
C609 C604 1.364 . S
C609 C608 1.379 . S
C610 C579 1.383 . S
C610 C597 1.479 . S
C610 C611 1.398 . S
C611 C576 1.382 . S
C611 H588 0.951 . S
C611 C610 1.398 . S
C612 C613 1.384 . S
C612 H625 0.947 . S
C612 C647 1.382 . S
C613 C612 1.384 . S
C613 C614 1.378 . S
C614 C613 1.378 . S
C614 C615 1.378 . S
C614 H626 0.952 . S
C615 C614 1.378 . S
C615 H627 0.950 . S
C615 C646 1.383 . S
H616 C635 0.947 . S
H617 C636 0.946 . S
H618 C638 0.953 . S
H619 C639 0.945 . S
H620 C641 0.952 . S
H621 C642 0.949 . S
H622 C644 0.950 . S
H623 C645 0.948 . S
H624 C647 0.951 . S
H625 C612 0.947 . S
H626 C614 0.952 . S
H627 C615 0.950 . S
N628 C631 1.382 . S
N628 C633 1.363 . S
N629 C631 1.371 . S
N629 C632 1.372 . S
N630 C632 1.361 . S
N630 C633 1.377 . S
C631 N628 1.382 . S
C631 N629 1.371 . S
C631 C634 1.480 . S
C632 N629 1.372 . S
C632 N630 1.361 . S
C632 C640 1.457 . S
C633 N628 1.363 . S
C633 N630 1.377 . S
C633 C646 1.479 . S
C634 C631 1.480 . S
C634 C635 1.383 . S
C634 C639 1.385 . S
C635 H616 0.947 . S
C635 C634 1.383 . S
C635 C636 1.388 . S
C636 H617 0.946 . S
C636 C635 1.388 . S
C636 C637 1.384 . S
C637 C636 1.384 . S
C637 C638 1.377 . S
C638 H618 0.953 . S
C638 C637 1.377 . S
C638 C639 1.369 . S
C639 H619 0.945 . S
C639 C634 1.385 . S
C639 C638 1.369 . S
C640 C632 1.457 . S
C640 C641 1.372 . S
C640 C645 1.364 . S
C641 H620 0.952 . S
C641 C640 1.372 . S
C641 C642 1.389 . S
C642 H621 0.949 . S
C642 C641 1.389 . S
C642 C643 1.387 . S
C643 C642 1.387 . S
C643 C644 1.372 . S
C644 H622 0.950 . S
C644 C643 1.372 . S
C644 C645 1.379 . S
C645 H623 0.948 . S
C645 C640 1.364 . S
C645 C644 1.379 . S
C646 C615 1.383 . S
C646 C633 1.479 . S
C646 C647 1.398 . S
C647 C612 1.382 . S
C647 H624 0.951 . S
C647 C646 1.398 . S
O648 Mg649 1.990 . S
O648 C662 1.249 1_565 S
Mg649 O648 1.990 . S
Mg649 O652 2.180 1_556 S
Mg649 O653 2.117 . S
Mg649 O667 2.030 1_565 S
O650 Mg651 2.072 1_556 S
O650 C662 1.262 . S
Mg651 O650 2.072 1_554 S
Mg651 O652 2.099 1_545 S
Mg651 O654 2.079 . S
Mg651 O655 2.072 1_545 S
Mg651 O657 2.099 . S
Mg651 O668 2.079 . S
O652 Mg649 2.180 1_554 S
O652 Mg651 2.099 1_565 S
O652 C663 1.279 . S
O653 Mg649 2.117 . S
O653 C663 1.253 1_556 S
O654 Mg651 2.079 . S
O654 C664 1.264 . S
O655 Mg651 2.072 1_565 S
O655 C665 1.260 . S
Mg656 O657 2.180 . S
Mg656 O658 2.035 . S
Mg656 O659 1.990 1_545 S
Mg656 O660 2.117 . S
O657 Mg651 2.099 . S
O657 Mg656 2.180 . S
O657 C666 1.288 . S
O658 Mg656 2.035 . S
O658 C664 1.244 . S
O659 Mg656 1.990 1_565 S
O659 C665 1.253 . S
O660 Mg656 2.117 . S
O660 C666 1.256 . S
C661 O667 1.248 . S
C661 O668 1.264 1_556 S
C662 O648 1.249 1_545 S
C662 O650 1.262 . S
C663 O652 1.279 . S
C663 O653 1.253 1_554 S
C664 O654 1.264 . S
C664 O658 1.244 . S
C665 O655 1.260 . S
C665 O659 1.253 . S
C666 O657 1.288 . S
C666 O660 1.256 . S
O667 Mg649 2.030 1_545 S
O667 C661 1.248 . S
O668 Mg651 2.079 . S
O668 C661 1.264 1_554 S
O669 Mg670 1.990 . S
O669 C683 1.253 . S
Mg670 O669 1.990 . S
Mg670 O673 2.180 1_556 S
Mg670 O674 2.117 . S
Mg670 O688 2.030 1_455 S
O671 Mg672 2.072 1_556 S
O671 C683 1.260 1_655 S
Mg672 O671 2.072 1_554 S
Mg672 O673 2.097 1_655 S
Mg672 O675 2.080 . S
Mg672 O676 2.051 1_655 S
Mg672 O678 2.101 . S
Mg672 O689 2.099 . S
O673 Mg670 2.180 1_554 S
O673 Mg672 2.097 1_455 S
O673 C684 1.283 . S
O674 Mg670 2.117 . S
O674 C684 1.227 1_556 S
O675 Mg672 2.080 . S
O675 C685 1.264 1_655 S
O676 Mg672 2.051 1_455 S
O676 C686 1.260 . S
Mg677 O678 2.180 . S
Mg677 O679 2.030 1_655 S
Mg677 O680 1.990 1_655 S
Mg677 O681 2.117 . S
O678 Mg672 2.101 . S
O678 Mg677 2.180 . S
O678 C687 1.280 1_554 S
O679 Mg677 2.030 1_455 S
O679 C685 1.248 . S
O680 Mg677 1.990 1_455 S
O680 C686 1.253 . S
O681 Mg677 2.117 . S
O681 C687 1.251 1_554 S
C682 O688 1.248 . S
C682 O689 1.264 1_556 S
C683 O669 1.253 . S
C683 O671 1.260 1_455 S
C684 O673 1.283 . S
C684 O674 1.227 1_554 S
C685 O675 1.264 1_455 S
C685 O679 1.248 . S
C686 O676 1.260 . S
C686 O680 1.253 . S
C687 O678 1.280 1_556 S
C687 O681 1.251 1_556 S
O688 Mg670 2.030 1_655 S
O688 C682 1.248 . S
O689 Mg672 2.099 . S
O689 C682 1.264 1_554 S
O690 Mg691 1.990 . S
O690 C704 1.253 . S
Mg691 O690 1.990 . S
Mg691 O694 2.180 . S
Mg691 O695 2.117 . S
Mg691 O709 2.030 . S
O692 Mg693 2.052 1_554 S
O692 C704 1.260 . S
Mg693 O692 2.052 1_556 S
Mg693 O694 2.097 1_556 S
Mg693 O696 2.099 . S
Mg693 O697 2.074 . S
Mg693 O699 2.102 . S
Mg693 O710 2.077 1_556 S
O694 Mg691 2.180 . S
O694 Mg693 2.097 1_554 S
O694 C705 1.279 . S
O695 Mg691 2.117 . S
O695 C705 1.250 . S
O696 Mg693 2.099 . S
O696 C706 1.264 . S
O697 Mg693 2.074 . S
O697 C707 1.260 . S
Mg698 O699 2.180 . S
Mg698 O700 2.030 . S
Mg698 O701 1.990 . S
Mg698 O702 2.138 . S
O699 Mg693 2.102 . S
O699 Mg698 2.180 . S
O699 C708 1.279 1_556 S
O700 Mg698 2.030 . S
O700 C706 1.248 . S
O701 Mg698 1.990 . S
O701 C707 1.253 . S
O702 Mg698 2.138 . S
O702 C708 1.242 1_556 S
C703 O709 1.248 . S
C703 O710 1.290 . S
C704 O690 1.253 . S
C704 O692 1.260 . S
C705 O694 1.279 . S
C705 O695 1.250 . S
C706 O696 1.264 . S
C706 O700 1.248 . S
C707 O697 1.260 . S
C707 O701 1.253 . S
C708 O699 1.279 1_554 S
C708 O702 1.242 1_554 S
O709 Mg691 2.030 . S
O709 C703 1.248 . S
O710 Mg693 2.077 1_554 S
O710 C703 1.290 . S
O711 Mg712 1.990 . S
O711 C725 1.253 . S
Mg712 O711 1.990 . S
Mg712 O715 2.180 . S
Mg712 O716 2.117 . S
Mg712 O730 2.030 . S
O713 Mg714 2.072 . S
O713 C725 1.260 . S
Mg714 O713 2.072 . S
Mg714 O715 2.099 . S
Mg714 O717 2.079 . S
Mg714 O718 2.072 . S
Mg714 O720 2.099 . S
Mg714 O731 2.079 . S
O715 Mg712 2.180 . S
O715 Mg714 2.099 . S
O715 C726 1.279 . S
O716 Mg712 2.117 . S
O716 C726 1.250 . S
O717 Mg714 2.079 . S
O717 C727 1.264 . S
O718 Mg714 2.072 . S
O718 C728 1.260 . S
Mg719 O720 2.180 . S
Mg719 O721 2.030 . S
Mg719 O722 1.990 . S
Mg719 O723 2.117 . S
O720 Mg714 2.099 . S
O720 Mg719 2.180 . S
O720 C729 1.279 . S
O721 Mg719 2.030 . S
O721 C727 1.248 . S
O722 Mg719 1.990 . S
O722 C728 1.253 . S
O723 Mg719 2.117 . S
O723 C729 1.250 . S
C724 O730 1.248 . S
C724 O731 1.264 . S
C725 O711 1.253 . S
C725 O713 1.260 . S
C726 O715 1.279 . S
C726 O716 1.250 . S
C727 O717 1.264 . S
C727 O721 1.248 . S
C728 O718 1.260 . S
C728 O722 1.253 . S
C729 O720 1.279 . S
C729 O723 1.250 . S
O730 Mg712 2.030 . S
O730 C724 1.248 . S
O731 Mg714 2.079 . S
O731 C724 1.264 . S
O732 Mg733 1.990 . S
O732 C746 1.253 . S
Mg733 O732 1.990 . S
Mg733 O736 2.180 . S
Mg733 O737 2.117 . S
Mg733 O751 2.030 . S
O734 Mg735 2.072 . S
O734 C746 1.260 . S
Mg735 O734 2.072 . S
Mg735 O736 2.099 . S
Mg735 O738 2.079 . S
Mg735 O739 2.072 . S
Mg735 O741 2.099 . S
Mg735 O752 2.079 . S
O736 Mg733 2.180 . S
O736 Mg735 2.099 . S
O736 C747 1.279 . S
O737 Mg733 2.117 . S
O737 C747 1.250 . S
O738 Mg735 2.079 . S
O738 C748 1.264 . S
O739 Mg735 2.072 . S
O739 C749 1.260 . S
Mg740 O741 2.180 . S
Mg740 O742 2.030 . S
Mg740 O743 1.990 . S
Mg740 O744 2.117 . S
O741 Mg735 2.099 . S
O741 Mg740 2.180 . S
O741 C750 1.279 . S
O742 Mg740 2.030 . S
O742 C748 1.248 . S
O743 Mg740 1.990 . S
O743 C749 1.253 . S
O744 Mg740 2.117 . S
O744 C750 1.250 . S
C745 O751 1.248 . S
C745 O752 1.264 . S
C746 O732 1.253 . S
C746 O734 1.260 . S
C747 O736 1.279 . S
C747 O737 1.250 . S
C748 O738 1.264 . S
C748 O742 1.248 . S
C749 O739 1.260 . S
C749 O743 1.253 . S
C750 O741 1.279 . S
C750 O744 1.250 . S
O751 Mg733 2.030 . S
O751 C745 1.248 . S
O752 Mg735 2.079 . S
O752 C745 1.264 . S
O753 Mg754 1.990 . S
O753 C767 1.253 . S
Mg754 O753 1.990 . S
Mg754 O757 2.180 . S
Mg754 O758 2.117 . S
Mg754 O772 2.030 . S
O755 Mg756 2.072 . S
O755 C767 1.260 . S
Mg756 O755 2.072 . S
Mg756 O757 2.099 . S
Mg756 O759 2.079 . S
Mg756 O760 2.072 . S
Mg756 O762 2.099 . S
Mg756 O773 2.079 . S
O757 Mg754 2.180 . S
O757 Mg756 2.099 . S
O757 C768 1.279 . S
O758 Mg754 2.117 . S
O758 C768 1.250 . S
O759 Mg756 2.079 . S
O759 C769 1.264 . S
O760 Mg756 2.072 . S
O760 C770 1.260 . S
Mg761 O762 2.180 . S
Mg761 O763 2.030 . S
Mg761 O764 1.990 . S
Mg761 O765 2.117 . S
O762 Mg756 2.099 . S
O762 Mg761 2.180 . S
O762 C771 1.279 . S
O763 Mg761 2.030 . S
O763 C769 1.248 . S
O764 Mg761 1.990 . S
O764 C770 1.253 . S
O765 Mg761 2.117 . S
O765 C771 1.250 . S
C766 O772 1.248 . S
C766 O773 1.264 . S
C767 O753 1.253 . S
C767 O755 1.260 . S
C768 O757 1.279 . S
C768 O758 1.250 . S
C769 O759 1.264 . S
C769 O763 1.248 . S
C770 O760 1.260 . S
C770 O764 1.253 . S
C771 O762 1.279 . S
C771 O765 1.250 . S
O772 Mg754 2.030 . S
O772 C766 1.248 . S
O773 Mg756 2.079 . S
O773 C766 1.264 . S
O774 Mg775 1.990 . S
O774 C788 1.253 . S
Mg775 O774 1.990 . S
Mg775 O778 2.180 . S
Mg775 O779 2.117 . S
Mg775 O793 2.030 . S
O776 Mg777 2.072 . S
O776 C788 1.260 . S
Mg777 O776 2.072 . S
Mg777 O778 2.099 . S
Mg777 O780 2.079 . S
Mg777 O781 2.072 . S
Mg777 O783 2.099 . S
Mg777 O794 2.079 . S
O778 Mg775 2.180 . S
O778 Mg777 2.099 . S
O778 C789 1.279 . S
O779 Mg775 2.117 . S
O779 C789 1.250 . S
O780 Mg777 2.079 . S
O780 C790 1.264 . S
O781 Mg777 2.072 . S
O781 C791 1.260 . S
Mg782 O783 2.180 . S
Mg782 O784 2.030 . S
Mg782 O785 1.990 . S
Mg782 O786 2.117 . S
O783 Mg777 2.099 . S
O783 Mg782 2.180 . S
O783 C792 1.279 . S
O784 Mg782 2.030 . S
O784 C790 1.248 . S
O785 Mg782 1.990 . S
O785 C791 1.253 . S
O786 Mg782 2.117 . S
O786 C792 1.250 . S
C787 O793 1.248 . S
C787 O794 1.264 . S
C788 O774 1.253 . S
C788 O776 1.260 . S
C789 O778 1.279 . S
C789 O779 1.250 . S
C790 O780 1.264 . S
C790 O784 1.248 . S
C791 O781 1.260 . S
C791 O785 1.253 . S
C792 O783 1.279 . S
C792 O786 1.250 . S
O793 Mg775 2.030 . S
O793 C787 1.248 . S
O794 Mg777 2.079 . S
O794 C787 1.264 . S
O795 Mg796 1.990 . S
O795 C809 1.253 . S
Mg796 O795 1.990 . S
Mg796 O799 2.180 . S
Mg796 O800 2.117 . S
Mg796 O814 2.030 . S
O797 Mg798 2.072 . S
O797 C809 1.260 . S
Mg798 O797 2.072 . S
Mg798 O799 2.099 . S
Mg798 O801 2.079 . S
Mg798 O802 2.072 . S
Mg798 O804 2.099 . S
Mg798 O815 2.079 . S
O799 Mg796 2.180 . S
O799 Mg798 2.099 . S
O799 C810 1.279 . S
O800 Mg796 2.117 . S
O800 C810 1.250 . S
O801 Mg798 2.079 . S
O801 C811 1.264 . S
O802 Mg798 2.072 . S
O802 C812 1.260 . S
Mg803 O804 2.180 . S
Mg803 O805 2.030 . S
Mg803 O806 1.990 . S
Mg803 O807 2.117 . S
O804 Mg798 2.099 . S
O804 Mg803 2.180 . S
O804 C813 1.279 . S
O805 Mg803 2.030 . S
O805 C811 1.248 . S
O806 Mg803 1.990 . S
O806 C812 1.253 . S
O807 Mg803 2.117 . S
O807 C813 1.250 . S
C808 O814 1.248 . S
C808 O815 1.264 . S
C809 O795 1.253 . S
C809 O797 1.260 . S
C810 O799 1.279 . S
C810 O800 1.250 . S
C811 O801 1.264 . S
C811 O805 1.248 . S
C812 O802 1.260 . S
C812 O806 1.253 . S
C813 O804 1.279 . S
C813 O807 1.250 . S
O814 Mg796 2.030 . S
O814 C808 1.248 . S
O815 Mg798 2.079 . S
O815 C808 1.264 . S
O816 Mg817 1.990 . S
O816 C830 1.253 . S
Mg817 O816 1.990 . S
Mg817 O820 2.180 . S
Mg817 O821 2.117 . S
Mg817 O835 2.030 . S
O818 Mg819 2.072 . S
O818 C830 1.260 . S
Mg819 O818 2.072 . S
Mg819 O820 2.099 . S
Mg819 O822 2.079 . S
Mg819 O823 2.072 . S
Mg819 O825 2.099 . S
Mg819 O836 2.079 . S
O820 Mg817 2.180 . S
O820 Mg819 2.099 . S
O820 C831 1.279 . S
O821 Mg817 2.117 . S
O821 C831 1.250 . S
O822 Mg819 2.079 . S
O822 C832 1.264 . S
O823 Mg819 2.072 . S
O823 C833 1.260 . S
Mg824 O825 2.180 . S
Mg824 O826 2.030 . S
Mg824 O827 1.990 . S
Mg824 O828 2.117 . S
O825 Mg819 2.099 . S
O825 Mg824 2.180 . S
O825 C834 1.279 . S
O826 Mg824 2.030 . S
O826 C832 1.248 . S
O827 Mg824 1.990 . S
O827 C833 1.253 . S
O828 Mg824 2.117 . S
O828 C834 1.250 . S
C829 O835 1.248 . S
C829 O836 1.264 . S
C830 O816 1.253 . S
C830 O818 1.260 . S
C831 O820 1.279 . S
C831 O821 1.250 . S
C832 O822 1.264 . S
C832 O826 1.248 . S
C833 O823 1.260 . S
C833 O827 1.253 . S
C834 O825 1.279 . S
C834 O828 1.250 . S
O835 Mg817 2.030 . S
O835 C829 1.248 . S
O836 Mg819 2.079 . S
O836 C829 1.264 . S
C837 C838 1.387 1_556 S
C837 H841 0.950 . S
C837 C846 1.390 . S
C838 C837 1.387 1_554 S
C838 C840 1.387 . S
H839 C846 0.950 . S
C840 C838 1.387 . S
C840 C842 1.390 . S
C840 H844 0.950 . S
H841 C837 0.950 . S
C842 C840 1.390 . S
C842 C843 1.387 . S
C842 H845 0.950 . S
C843 C842 1.387 . S
C843 C846 1.387 1_554 S
H844 C840 0.950 . S
H845 C842 0.950 . S
C846 C837 1.390 . S
C846 H839 0.950 . S
C846 C843 1.387 1_556 S
C847 C848 1.387 . S
C847 H851 0.950 . S
C847 C856 1.390 . S
C848 C847 1.387 . S
C848 C850 1.387 1_554 S
H849 C856 0.950 . S
C850 C848 1.387 1_556 S
C850 C852 1.390 . S
C850 H854 0.950 . S
H851 C847 0.950 . S
C852 C850 1.390 . S
C852 C853 1.387 1_556 S
C852 H855 0.950 . S
C853 C852 1.387 1_554 S
C853 C856 1.387 . S
H854 C850 0.950 . S
H855 C852 0.950 . S
C856 C847 1.390 . S
C856 H849 0.950 . S
C856 C853 1.387 . S
C857 C858 1.387 . S
C857 H861 0.950 . S
C857 C866 1.390 . S
C858 C857 1.387 . S
C858 C860 1.387 1_554 S
H859 C866 0.950 . S
C860 C858 1.387 1_556 S
C860 C862 1.390 . S
C860 H864 0.950 . S
H861 C857 0.950 . S
C862 C860 1.390 . S
C862 C863 1.387 1_556 S
C862 H865 0.950 . S
C863 C862 1.387 1_554 S
C863 C866 1.387 . S
H864 C860 0.950 . S
H865 C862 0.950 . S
C866 C857 1.390 . S
C866 H859 0.950 . S
C866 C863 1.387 . S
C867 C868 1.387 1_554 S
C867 H871 0.950 . S
C867 C876 1.390 . S
C868 C867 1.387 1_556 S
C868 C870 1.387 . S
H869 C876 0.950 . S
C870 C868 1.387 . S
C870 C872 1.390 . S
C870 H874 0.950 . S
H871 C867 0.950 . S
C872 C870 1.390 . S
C872 C873 1.387 . S
C872 H875 0.950 . S
C873 C872 1.387 . S
C873 C876 1.387 1_556 S
H874 C870 0.950 . S
H875 C872 0.950 . S
C876 C867 1.390 . S
C876 H869 0.950 . S
C876 C873 1.387 1_554 S
C877 C878 1.387 . S
C877 H881 0.950 . S
C877 C886 1.390 . S
C878 C877 1.387 . S
C878 C880 1.387 1_556 S
H879 C886 0.950 . S
C880 C878 1.387 1_554 S
C880 C882 1.390 . S
C880 H884 0.950 . S
H881 C877 0.950 . S
C882 C880 1.390 . S
C882 C883 1.387 1_554 S
C882 H885 0.950 . S
C883 C882 1.387 1_556 S
C883 C886 1.387 . S
H884 C880 0.950 . S
H885 C882 0.950 . S
C886 C877 1.390 . S
C886 H879 0.950 . S
C886 C883 1.387 . S
C887 C888 1.387 1_554 S
C887 H891 0.950 . S
C887 C896 1.390 . S
C888 C887 1.387 1_556 S
C888 C890 1.387 . S
H889 C896 0.950 . S
C890 C888 1.387 . S
C890 C892 1.390 . S
C890 H894 0.950 . S
H891 C887 0.950 . S
C892 C890 1.390 . S
C892 C893 1.387 . S
C892 H895 0.950 . S
C893 C892 1.387 . S
C893 C896 1.387 1_556 S
H894 C890 0.950 . S
H895 C892 0.950 . S
C896 C887 1.390 . S
C896 H889 0.950 . S
C896 C893 1.387 1_554 S
C897 C898 1.387 . S
C897 H901 0.950 . S
C897 C906 1.390 . S
C898 C897 1.387 . S
C898 C900 1.387 1_556 S
H899 C906 0.950 . S
C900 C898 1.387 1_554 S
C900 C902 1.390 . S
C900 H904 0.950 . S
H901 C897 0.950 . S
C902 C900 1.390 . S
C902 C903 1.387 1_554 S
C902 H905 0.950 . S
C903 C902 1.387 1_556 S
C903 C906 1.387 . S
H904 C900 0.950 . S
H905 C902 0.950 . S
C906 C897 1.390 . S
C906 H899 0.950 . S
C906 C903 1.387 . S
C907 C908 1.387 . S
C907 H911 0.950 . S
C907 C916 1.390 . S
C908 C907 1.387 . S
C908 C910 1.387 1_556 S
H909 C916 0.950 . S
C910 C908 1.387 1_554 S
C910 C912 1.390 . S
C910 H914 0.950 . S
H911 C907 0.950 . S
C912 C910 1.390 . S
C912 C913 1.387 1_554 S
C912 H915 0.950 . S
C913 C912 1.387 1_556 S
C913 C916 1.387 . S
H914 C910 0.950 . S
H915 C912 0.950 . S
C916 C907 1.390 . S
C916 H909 0.950 . S
C916 C913 1.387 . S
C917 C918 1.387 1_554 S
C917 H921 0.950 . S
C917 C926 1.390 . S
C918 C917 1.387 1_556 S
C918 C920 1.387 . S
H919 C926 0.950 . S
C920 C918 1.387 . S
C920 C922 1.390 . S
C920 H924 0.950 . S
H921 C917 0.950 . S
C922 C920 1.390 . S
C922 C923 1.387 . S
C922 H925 0.950 . S
C923 C922 1.387 . S
C923 C926 1.387 1_556 S
H924 C920 0.950 . S
H925 C922 0.950 . S
C926 C917 1.390 . S
C926 H919 0.950 . S
C926 C923 1.387 1_554 S
C927 C928 1.387 . S
C927 H931 0.950 . S
C927 C936 1.390 . S
C928 C927 1.387 . S
C928 C930 1.387 . S
H929 C936 0.950 . S
C930 C928 1.387 . S
C930 C932 1.390 . S
C930 H934 0.950 . S
H931 C927 0.950 . S
C932 C930 1.390 . S
C932 C933 1.387 . S
C932 H935 0.950 . S
C933 C932 1.387 . S
C933 C936 1.387 . S
H934 C930 0.950 . S
H935 C932 0.950 . S
C936 C927 1.390 . S
C936 H929 0.950 . S
C936 C933 1.387 . S
C937 C938 1.387 1_556 S
C937 H941 0.950 . S
C937 C946 1.390 . S
C938 C937 1.387 1_554 S
C938 C940 1.387 . S
H939 C946 0.950 . S
C940 C938 1.387 . S
C940 C942 1.390 . S
C940 H944 0.950 . S
H941 C937 0.950 . S
C942 C940 1.390 . S
C942 C943 1.387 . S
C942 H945 0.950 . S
C943 C942 1.387 . S
C943 C946 1.387 1_554 S
H944 C940 0.950 . S
H945 C942 0.950 . S
C946 C937 1.390 . S
C946 H939 0.950 . S
C946 C943 1.387 1_556 S
C947 C948 1.387 1_556 S
C947 H951 0.950 . S
C947 C956 1.390 . S
C948 C947 1.387 1_554 S
C948 C950 1.387 . S
H949 C956 0.950 . S
C950 C948 1.387 . S
C950 C952 1.390 . S
C950 H954 0.950 . S
H951 C947 0.950 . S
C952 C950 1.390 . S
C952 C953 1.387 . S
C952 H955 0.950 . S
C953 C952 1.387 . S
C953 C956 1.387 1_554 S
H954 C950 0.950 . S
H955 C952 0.950 . S
C956 C947 1.390 . S
C956 H949 0.950 . S
C956 C953 1.387 1_556 S
C957 C958 1.387 . S
C957 H961 0.950 . S
C957 C966 1.390 . S
C958 C957 1.387 . S
C958 C960 1.387 . S
H959 C966 0.950 . S
C960 C958 1.387 . S
C960 C962 1.390 . S
C960 H964 0.950 . S
H961 C957 0.950 . S
C962 C960 1.390 . S
C962 C963 1.387 . S
C962 H965 0.950 . S
C963 C962 1.387 . S
C963 C966 1.387 . S
H964 C960 0.950 . S
H965 C962 0.950 . S
C966 C957 1.390 . S
C966 H959 0.950 . S
C966 C963 1.387 . S
C967 C968 1.387 . S
C967 H971 0.950 . S
C967 C976 1.390 . S
C968 C967 1.387 . S
C968 C970 1.387 . S
H969 C976 0.950 . S
C970 C968 1.387 . S
C970 C972 1.390 . S
C970 H974 0.950 . S
H971 C967 0.950 . S
C972 C970 1.390 . S
C972 C973 1.387 . S
C972 H975 0.950 . S
C973 C972 1.387 . S
C973 C976 1.387 . S
H974 C970 0.950 . S
H975 C972 0.950 . S
C976 C967 1.390 . S
C976 H969 0.950 . S
C976 C973 1.387 . S
C977 C978 1.387 . S
C977 H981 0.950 . S
C977 C986 1.390 . S
C978 C977 1.387 . S
C978 C980 1.387 . S
H979 C986 0.950 . S
C980 C978 1.387 . S
C980 C982 1.390 . S
C980 H984 0.950 . S
H981 C977 0.950 . S
C982 C980 1.390 . S
C982 C983 1.387 . S
C982 H985 0.950 . S
C983 C982 1.387 . S
C983 C986 1.387 . S
H984 C980 0.950 . S
H985 C982 0.950 . S
C986 C977 1.390 . S
C986 H979 0.950 . S
C986 C983 1.387 . S
C987 C988 1.387 . S
C987 H991 0.950 . S
C987 C996 1.390 . S
C988 C987 1.387 . S
C988 C990 1.387 . S
H989 C996 0.950 . S
C990 C988 1.387 . S
C990 C992 1.390 . S
C990 H994 0.950 . S
H991 C987 0.950 . S
C992 C990 1.390 . S
C992 C993 1.387 . S
C992 H995 0.950 . S
C993 C992 1.387 . S
C993 C996 1.387 . S
H994 C990 0.950 . S
H995 C992 0.950 . S
C996 C987 1.390 . S
C996 H989 0.950 . S
C996 C993 1.387 . S
C997 C998 1.387 . S
C997 H1001 0.950 . S
C997 C1006 1.390 . S
C998 C997 1.387 . S
C998 C1000 1.387 . S
H999 C1006 0.950 . S
C1000 C998 1.387 . S
C1000 C1002 1.390 . S
C1000 H1004 0.950 . S
H1001 C997 0.950 . S
C1002 C1000 1.390 . S
C1002 C1003 1.387 . S
C1002 H1005 0.950 . S
C1003 C1002 1.387 . S
C1003 C1006 1.387 . S
H1004 C1000 0.950 . S
H1005 C1002 0.950 . S
C1006 C997 1.390 . S
C1006 H999 0.950 . S
C1006 C1003 1.387 . S
C1007 C1008 1.387 . S
C1007 H1011 0.950 . S
C1007 C1016 1.390 . S
C1008 C1007 1.387 . S
C1008 C1010 1.387 . S
H1009 C1016 0.950 . S
C1010 C1008 1.387 . S
C1010 C1012 1.390 . S
C1010 H1014 0.950 . S
H1011 C1007 0.950 . S
C1012 C1010 1.390 . S
C1012 C1013 1.387 . S
C1012 H1015 0.950 . S
C1013 C1012 1.387 . S
C1013 C1016 1.387 . S
H1014 C1010 0.950 . S
H1015 C1012 0.950 . S
C1016 C1007 1.390 . S
C1016 H1009 0.950 . S
C1016 C1013 1.387 . S
C1017 C1018 1.387 . S
C1017 H1021 0.950 . S
C1017 C1026 1.390 . S
C1018 C1017 1.387 . S
C1018 C1020 1.387 . S
H1019 C1026 0.950 . S
C1020 C1018 1.387 . S
C1020 C1022 1.390 . S
C1020 H1024 0.950 . S
H1021 C1017 0.950 . S
C1022 C1020 1.390 . S
C1022 C1023 1.387 . S
C1022 H1025 0.950 . S
C1023 C1022 1.387 . S
C1023 C1026 1.387 . S
H1024 C1020 0.950 . S
H1025 C1022 0.950 . S
C1026 C1017 1.390 . S
C1026 H1019 0.950 . S
C1026 C1023 1.387 . S
C1027 C1028 1.387 . S
C1027 H1031 0.950 . S
C1027 C1036 1.390 . S
C1028 C1027 1.387 . S
C1028 C1030 1.387 . S
H1029 C1036 0.950 . S
C1030 C1028 1.387 . S
C1030 C1032 1.390 . S
C1030 H1034 0.950 . S
H1031 C1027 0.950 . S
C1032 C1030 1.390 . S
C1032 C1033 1.387 . S
C1032 H1035 0.950 . S
C1033 C1032 1.387 . S
C1033 C1036 1.387 . S
H1034 C1030 0.950 . S
H1035 C1032 0.950 . S
C1036 C1027 1.390 . S
C1036 H1029 0.950 . S
C1036 C1033 1.387 . S
C1037 C1038 1.387 . S
C1037 H1041 0.950 . S
C1037 C1046 1.390 . S
C1038 C1037 1.387 . S
C1038 C1040 1.387 . S
H1039 C1046 0.950 . S
C1040 C1038 1.387 . S
C1040 C1042 1.390 . S
C1040 H1044 0.950 . S
H1041 C1037 0.950 . S
C1042 C1040 1.390 . S
C1042 C1043 1.387 . S
C1042 H1045 0.950 . S
C1043 C1042 1.387 . S
C1043 C1046 1.387 . S
H1044 C1040 0.950 . S
H1045 C1042 0.950 . S
C1046 C1037 1.390 . S
C1046 H1039 0.950 . S
C1046 C1043 1.387 . S
C1047 C1048 1.387 . S
C1047 H1051 0.950 . S
C1047 C1056 1.390 . S
C1048 C1047 1.387 . S
C1048 C1050 1.387 . S
H1049 C1056 0.950 . S
C1050 C1048 1.387 . S
C1050 C1052 1.390 . S
C1050 H1054 0.950 . S
H1051 C1047 0.950 . S
C1052 C1050 1.390 . S
C1052 C1053 1.387 . S
C1052 H1055 0.950 . S
C1053 C1052 1.387 . S
C1053 C1056 1.387 . S
H1054 C1050 0.950 . S
H1055 C1052 0.950 . S
C1056 C1047 1.390 . S
C1056 H1049 0.950 . S
C1056 C1053 1.387 . S
C1057 C1058 1.387 . S
C1057 H1061 0.950 . S
C1057 C1066 1.390 . S
C1058 C1057 1.387 . S
C1058 C1060 1.387 . S
H1059 C1066 0.950 . S
C1060 C1058 1.387 . S
C1060 C1062 1.390 . S
C1060 H1064 0.950 . S
H1061 C1057 0.950 . S
C1062 C1060 1.390 . S
C1062 C1063 1.387 . S
C1062 H1065 0.950 . S
C1063 C1062 1.387 . S
C1063 C1066 1.387 . S
H1064 C1060 0.950 . S
H1065 C1062 0.950 . S
C1066 C1057 1.390 . S
C1066 H1059 0.950 . S
C1066 C1063 1.387 . S
C1067 C1068 1.387 . S
C1067 H1071 0.950 . S
C1067 C1076 1.390 . S
C1068 C1067 1.387 . S
C1068 C1070 1.387 . S
H1069 C1076 0.950 . S
C1070 C1068 1.387 . S
C1070 C1072 1.390 . S
C1070 H1074 0.950 . S
H1071 C1067 0.950 . S
C1072 C1070 1.390 . S
C1072 C1073 1.387 . S
C1072 H1075 0.950 . S
C1073 C1072 1.387 . S
C1073 C1076 1.387 . S
H1074 C1070 0.950 . S
H1075 C1072 0.950 . S
C1076 C1067 1.390 . S
C1076 H1069 0.950 . S
C1076 C1073 1.387 . S
C1077 C1078 1.387 . S
C1077 H1081 0.950 . S
C1077 C1086 1.390 . S
C1078 C1077 1.387 . S
C1078 C1080 1.387 . S
H1079 C1086 0.950 . S
C1080 C1078 1.387 . S
C1080 C1082 1.390 . S
C1080 H1084 0.950 . S
H1081 C1077 0.950 . S
C1082 C1080 1.390 . S
C1082 C1083 1.387 . S
C1082 H1085 0.950 . S
C1083 C1082 1.387 . S
C1083 C1086 1.387 . S
H1084 C1080 0.950 . S
H1085 C1082 0.950 . S
C1086 C1077 1.390 . S
C1086 H1079 0.950 . S
C1086 C1083 1.387 . S
C1087 C1088 1.387 . S
C1087 H1091 0.950 . S
C1087 C1096 1.390 . S
C1088 C1087 1.387 . S
C1088 C1090 1.387 . S
H1089 C1096 0.950 . S
C1090 C1088 1.387 . S
C1090 C1092 1.390 . S
C1090 H1094 0.950 . S
H1091 C1087 0.950 . S
C1092 C1090 1.390 . S
C1092 C1093 1.387 . S
C1092 H1095 0.950 . S
C1093 C1092 1.387 . S
C1093 C1096 1.387 . S
H1094 C1090 0.950 . S
H1095 C1092 0.950 . S
C1096 C1087 1.390 . S
C1096 H1089 0.950 . S
C1096 C1093 1.387 . S
C1097 C1098 1.387 . S
C1097 H1101 0.950 . S
C1097 C1106 1.390 . S
C1098 C1097 1.387 . S
C1098 C1100 1.387 . S
H1099 C1106 0.950 . S
C1100 C1098 1.387 . S
C1100 C1102 1.390 . S
C1100 H1104 0.950 . S
H1101 C1097 0.950 . S
C1102 C1100 1.390 . S
C1102 C1103 1.387 . S
C1102 H1105 0.950 . S
C1103 C1102 1.387 . S
C1103 C1106 1.387 . S
H1104 C1100 0.950 . S
H1105 C1102 0.950 . S
C1106 C1097 1.390 . S
C1106 H1099 0.950 . S
C1106 C1103 1.387 . S
C1107 C1108 1.387 . S
C1107 H1111 0.950 . S
C1107 C1116 1.390 . S
C1108 C1107 1.387 . S
C1108 C1110 1.387 . S
H1109 C1116 0.950 . S
C1110 C1108 1.387 . S
C1110 C1112 1.390 . S
C1110 H1114 0.950 . S
H1111 C1107 0.950 . S
C1112 C1110 1.390 . S
C1112 C1113 1.387 . S
C1112 H1115 0.950 . S
C1113 C1112 1.387 . S
C1113 C1116 1.387 . S
H1114 C1110 0.950 . S
H1115 C1112 0.950 . S
C1116 C1107 1.390 . S
C1116 H1109 0.950 . S
C1116 C1113 1.387 . S
C1117 C1118 1.387 . S
C1117 H1121 0.950 . S
C1117 C1126 1.390 . S
C1118 C1117 1.387 . S
C1118 C1120 1.387 . S
H1119 C1126 0.950 . S
C1120 C1118 1.387 . S
C1120 C1122 1.390 . S
C1120 H1124 0.950 . S
H1121 C1117 0.950 . S
C1122 C1120 1.390 . S
C1122 C1123 1.387 . S
C1122 H1125 0.950 . S
C1123 C1122 1.387 . S
C1123 C1126 1.387 . S
H1124 C1120 0.950 . S
H1125 C1122 0.950 . S
C1126 C1117 1.390 . S
C1126 H1119 0.950 . S
C1126 C1123 1.387 . S
C1127 C1128 1.387 . S
C1127 H1131 0.950 . S
C1127 C1136 1.390 . S
C1128 C1127 1.387 . S
C1128 C1130 1.387 . S
H1129 C1136 0.950 . S
C1130 C1128 1.387 . S
C1130 C1132 1.390 . S
C1130 H1134 0.950 . S
H1131 C1127 0.950 . S
C1132 C1130 1.390 . S
C1132 C1133 1.387 . S
C1132 H1135 0.950 . S
C1133 C1132 1.387 . S
C1133 C1136 1.387 . S
H1134 C1130 0.950 . S
H1135 C1132 0.950 . S
C1136 C1127 1.390 . S
C1136 H1129 0.950 . S
C1136 C1133 1.387 . S
C1137 C1138 1.397 . S
C1137 H1141 0.950 . S
C1137 C1146 1.390 . S
C1138 C1137 1.397 . S
C1138 C1140 1.399 . S
H1139 C1146 0.950 . S
C1140 C1138 1.399 . S
C1140 C1142 1.390 . S
C1140 H1144 0.950 . S
H1141 C1137 0.950 . S
C1142 C1140 1.390 . S
C1142 C1143 1.387 . S
C1142 H1145 0.950 . S
C1143 C1142 1.387 . S
C1143 C1146 1.387 . S
H1144 C1140 0.950 . S
H1145 C1142 0.950 . S
C1146 C1137 1.390 . S
C1146 H1139 0.950 . S
C1146 C1143 1.387 . S
C1147 C1148 1.387 . S
C1147 H1151 0.950 . S
C1147 C1156 1.390 . S
C1148 C1147 1.387 . S
C1148 C1150 1.387 . S
H1149 C1156 0.950 . S
C1150 C1148 1.387 . S
C1150 C1152 1.390 . S
C1150 H1154 0.950 . S
H1151 C1147 0.950 . S
C1152 C1150 1.390 . S
C1152 C1153 1.387 . S
C1152 H1155 0.950 . S
C1153 C1152 1.387 . S
C1153 C1156 1.387 . S
H1154 C1150 0.950 . S
H1155 C1152 0.950 . S
C1156 C1147 1.390 . S
C1156 H1149 0.950 . S
C1156 C1153 1.387 . S
C1157 C1158 1.387 . S
C1157 H1161 0.950 . S
C1157 C1166 1.390 . S
C1158 C1157 1.387 . S
C1158 C1160 1.387 . S
H1159 C1166 0.950 . S
C1160 C1158 1.387 . S
C1160 C1162 1.390 . S
C1160 H1164 0.950 . S
H1161 C1157 0.950 . S
C1162 C1160 1.390 . S
C1162 C1163 1.387 . S
C1162 H1165 0.950 . S
C1163 C1162 1.387 . S
C1163 C1166 1.387 . S
H1164 C1160 0.950 . S
H1165 C1162 0.950 . S
C1166 C1157 1.390 . S
C1166 H1159 0.950 . S
C1166 C1163 1.387 . S
C1167 C1168 1.387 . S
C1167 H1171 0.950 . S
C1167 C1176 1.390 . S
C1168 C1167 1.387 . S
C1168 C1170 1.387 . S
H1169 C1176 0.950 . S
C1170 C1168 1.387 . S
C1170 C1172 1.390 . S
C1170 H1174 0.950 . S
H1171 C1167 0.950 . S
C1172 C1170 1.390 . S
C1172 C1173 1.387 . S
C1172 H1175 0.950 . S
C1173 C1172 1.387 . S
C1173 C1176 1.387 . S
H1174 C1170 0.950 . S
H1175 C1172 0.950 . S
C1176 C1167 1.390 . S
C1176 H1169 0.950 . S
C1176 C1173 1.387 . S
C1177 C1178 1.387 . S
C1177 H1181 0.950 . S
C1177 C1186 1.390 . S
C1178 C1177 1.387 . S
C1178 C1180 1.387 . S
H1179 C1186 0.950 . S
C1180 C1178 1.387 . S
C1180 C1182 1.390 . S
C1180 H1184 0.950 . S
H1181 C1177 0.950 . S
C1182 C1180 1.390 . S
C1182 C1183 1.387 . S
C1182 H1185 0.950 . S
C1183 C1182 1.387 . S
C1183 C1186 1.387 . S
H1184 C1180 0.950 . S
H1185 C1182 0.950 . S
C1186 C1177 1.390 . S
C1186 H1179 0.950 . S
C1186 C1183 1.387 . S
C1187 C1188 1.387 . S
C1187 H1191 0.950 . S
C1187 C1196 1.390 . S
C1188 C1187 1.387 . S
C1188 C1190 1.387 . S
H1189 C1196 0.950 . S
C1190 C1188 1.387 . S
C1190 C1192 1.390 . S
C1190 H1194 0.950 . S
H1191 C1187 0.950 . S
C1192 C1190 1.390 . S
C1192 C1193 1.387 . S
C1192 H1195 0.950 . S
C1193 C1192 1.387 . S
C1193 C1196 1.387 . S
H1194 C1190 0.950 . S
H1195 C1192 0.950 . S
C1196 C1187 1.390 . S
C1196 H1189 0.950 . S
C1196 C1193 1.387 . S
C1197 C1198 1.387 . S
C1197 H1201 0.950 . S
C1197 C1206 1.390 . S
C1198 C1197 1.387 . S
C1198 C1200 1.387 1_565 S
H1199 C1206 0.950 . S
C1200 C1198 1.387 1_545 S
C1200 C1202 1.390 . S
C1200 H1204 0.950 . S
H1201 C1197 0.950 . S
C1202 C1200 1.390 . S
C1202 C1203 1.387 1_545 S
C1202 H1205 0.950 . S
C1203 C1202 1.387 1_565 S
C1203 C1206 1.387 . S
H1204 C1200 0.950 . S
H1205 C1202 0.950 . S
C1206 C1197 1.390 . S
C1206 H1199 0.950 . S
C1206 C1203 1.387 . S
C1207 C1208 1.387 . S
C1207 H1211 0.950 . S
C1207 C1216 1.390 . S
C1208 C1207 1.387 . S
C1208 C1210 1.387 1_455 S
H1209 C1216 0.950 . S
C1210 C1208 1.387 1_655 S
C1210 C1212 1.390 . S
C1210 H1214 0.950 . S
H1211 C1207 0.950 . S
C1212 C1210 1.390 . S
C1212 C1213 1.387 1_655 S
C1212 H1215 0.950 . S
C1213 C1212 1.387 1_455 S
C1213 C1216 1.387 . S
H1214 C1210 0.950 . S
H1215 C1212 0.950 . S
C1216 C1207 1.390 . S
C1216 H1209 0.950 . S
C1216 C1213 1.387 . S
C1217 C1218 1.387 . S
C1217 H1221 0.950 . S
C1217 C1226 1.390 . S
C1218 C1217 1.387 . S
C1218 C1220 1.387 . S
H1219 C1226 0.950 . S
C1220 C1218 1.387 . S
C1220 C1222 1.390 . S
C1220 H1224 0.950 . S
H1221 C1217 0.950 . S
C1222 C1220 1.390 . S
C1222 C1223 1.387 . S
C1222 H1225 0.950 . S
C1223 C1222 1.387 . S
C1223 C1226 1.387 . S
H1224 C1220 0.950 . S
H1225 C1222 0.950 . S
C1226 C1217 1.390 . S
C1226 H1219 0.950 . S
C1226 C1223 1.387 . S
C1227 C1228 1.387 . S
C1227 H1231 0.950 . S
C1227 C1236 1.390 . S
C1228 C1227 1.387 . S
C1228 C1230 1.387 . S
H1229 C1236 0.950 . S
C1230 C1228 1.387 . S
C1230 C1232 1.390 1_655 S
C1230 H1234 0.950 1_655 S
H1231 C1227 0.950 . S
C1232 C1230 1.390 1_455 S
C1232 C1233 1.387 1_455 S
C1232 H1235 0.950 . S
C1233 C1232 1.387 1_655 S
C1233 C1236 1.387 . S
H1234 C1230 0.950 1_455 S
H1235 C1232 0.950 . S
C1236 C1227 1.390 . S
C1236 H1229 0.950 . S
C1236 C1233 1.387 . S
C1237 C1238 1.387 . S
C1237 H1241 0.950 . S
C1237 C1246 1.390 . S
C1238 C1237 1.387 . S
C1238 C1240 1.387 . S
H1239 C1246 0.950 . S
C1240 C1238 1.387 . S
C1240 C1242 1.390 . S
C1240 H1244 0.950 . S
H1241 C1237 0.950 . S
C1242 C1240 1.390 . S
C1242 C1243 1.387 . S
C1242 H1245 0.950 . S
C1243 C1242 1.387 . S
C1243 C1246 1.387 . S
H1244 C1240 0.950 . S
H1245 C1242 0.950 . S
C1246 C1237 1.390 . S
C1246 H1239 0.950 . S
C1246 C1243 1.387 . S
C1247 C1248 1.403 . S
C1247 H1251 0.937 1_545 S
C1247 C1256 1.388 1_545 S
C1248 C1247 1.403 . S
C1248 C1250 1.387 . S
H1249 C1256 0.950 . S
C1250 C1248 1.387 . S
C1250 C1252 1.390 . S
C1250 H1254 0.950 . S
H1251 C1247 0.937 1_565 S
C1252 C1250 1.390 . S
C1252 C1253 1.387 . S
C1252 H1255 0.950 . S
C1253 C1252 1.387 . S
C1253 C1256 1.387 1_545 S
H1254 C1250 0.950 . S
H1255 C1252 0.950 . S
C1256 C1247 1.388 1_565 S
C1256 H1249 0.950 . S
C1256 C1253 1.387 1_565 S
C1257 C1258 1.387 . S
C1257 H1261 0.950 . S
C1257 C1266 1.390 . S
C1258 C1257 1.387 . S
C1258 C1260 1.387 . S
H1259 C1266 0.950 . S
C1260 C1258 1.387 . S
C1260 C1262 1.390 . S
C1260 H1264 0.950 . S
H1261 C1257 0.950 . S
C1262 C1260 1.390 . S
C1262 C1263 1.387 . S
C1262 H1265 0.950 . S
C1263 C1262 1.387 . S
C1263 C1266 1.387 . S
H1264 C1260 0.950 . S
H1265 C1262 0.950 . S
C1266 C1257 1.390 . S
C1266 H1259 0.950 . S
C1266 C1263 1.387 . S
C1267 C1268 1.387 . S
C1267 H1271 0.950 . S
C1267 C1276 1.390 . S
C1268 C1267 1.387 . S
C1268 C1270 1.387 . S
H1269 C1276 0.950 . S
C1270 C1268 1.387 . S
C1270 C1272 1.390 . S
C1270 H1274 0.950 . S
H1271 C1267 0.950 . S
C1272 C1270 1.390 . S
C1272 C1273 1.387 . S
C1272 H1275 0.950 . S
C1273 C1272 1.387 . S
C1273 C1276 1.387 . S
H1274 C1270 0.950 . S
H1275 C1272 0.950 . S
C1276 C1267 1.390 . S
C1276 H1269 0.950 . S
C1276 C1273 1.387 . S
C1277 C1278 1.387 . S
C1277 H1281 0.950 . S
C1277 C1286 1.390 . S
C1278 C1277 1.387 . S
C1278 C1280 1.387 . S
H1279 C1286 0.950 . S
C1280 C1278 1.387 . S
C1280 C1282 1.390 . S
C1280 H1284 0.950 . S
H1281 C1277 0.950 . S
C1282 C1280 1.390 . S
C1282 C1283 1.387 . S
C1282 H1285 0.950 . S
C1283 C1282 1.387 . S
C1283 C1286 1.387 . S
H1284 C1280 0.950 . S
H1285 C1282 0.950 . S
C1286 C1277 1.390 . S
C1286 H1279 0.950 . S
C1286 C1283 1.387 . S
C1287 C1288 1.387 . S
C1287 H1291 0.950 . S
C1287 C1296 1.390 . S
C1288 C1287 1.387 . S
C1288 C1290 1.387 . S
H1289 C1296 0.950 . S
C1290 C1288 1.387 . S
C1290 C1292 1.390 . S
C1290 H1294 0.950 . S
H1291 C1287 0.950 . S
C1292 C1290 1.390 . S
C1292 C1293 1.387 . S
C1292 H1295 0.950 . S
C1293 C1292 1.387 . S
C1293 C1296 1.387 . S
H1294 C1290 0.950 . S
H1295 C1292 0.950 . S
C1296 C1287 1.390 . S
C1296 H1289 0.950 . S
C1296 C1293 1.387 . S
C1297 C1298 1.387 . S
C1297 H1301 0.950 . S
C1297 C1306 1.390 . S
C1298 C1297 1.387 . S
C1298 C1300 1.387 . S
H1299 C1306 0.950 . S
C1300 C1298 1.387 . S
C1300 C1302 1.390 . S
C1300 H1304 0.950 . S
H1301 C1297 0.950 . S
C1302 C1300 1.390 . S
C1302 C1303 1.387 . S
C1302 H1305 0.950 . S
C1303 C1302 1.387 . S
C1303 C1306 1.387 . S
H1304 C1300 0.950 . S
H1305 C1302 0.950 . S
C1306 C1297 1.390 . S
C1306 H1299 0.950 . S
C1306 C1303 1.387 . S
C1307 C1308 1.387 . S
C1307 H1311 0.950 . S
C1307 C1316 1.390 . S
C1308 C1307 1.387 . S
C1308 C1310 1.387 . S
H1309 C1316 0.950 . S
C1310 C1308 1.387 . S
C1310 C1312 1.390 . S
C1310 H1314 0.950 . S
H1311 C1307 0.950 . S
C1312 C1310 1.390 . S
C1312 C1313 1.387 . S
C1312 H1315 0.950 . S
C1313 C1312 1.387 . S
C1313 C1316 1.387 . S
H1314 C1310 0.950 . S
H1315 C1312 0.950 . S
C1316 C1307 1.390 . S
C1316 H1309 0.950 . S
C1316 C1313 1.387 . S
C1317 C1318 1.387 . S
C1317 H1321 0.950 . S
C1317 C1326 1.390 . S
C1318 C1317 1.387 . S
C1318 C1320 1.387 . S
H1319 C1326 0.950 . S
C1320 C1318 1.387 . S
C1320 C1322 1.390 . S
C1320 H1324 0.950 . S
H1321 C1317 0.950 . S
C1322 C1320 1.390 . S
C1322 C1323 1.387 . S
C1322 H1325 0.950 . S
C1323 C1322 1.387 . S
C1323 C1326 1.387 . S
H1324 C1320 0.950 . S
H1325 C1322 0.950 . S
C1326 C1317 1.390 . S
C1326 H1319 0.950 . S
C1326 C1323 1.387 . S
C1327 C1328 1.387 . S
C1327 H1331 0.950 . S
C1327 C1336 1.390 . S
C1328 C1327 1.387 . S
C1328 C1330 1.387 . S
H1329 C1336 0.950 . S
C1330 C1328 1.387 . S
C1330 C1332 1.390 . S
C1330 H1334 0.950 . S
H1331 C1327 0.950 . S
C1332 C1330 1.390 . S
C1332 C1333 1.387 . S
C1332 H1335 0.950 . S
C1333 C1332 1.387 . S
C1333 C1336 1.387 . S
H1334 C1330 0.950 . S
H1335 C1332 0.950 . S
C1336 C1327 1.390 . S
C1336 H1329 0.950 . S
C1336 C1333 1.387 . S
C1337 C1338 1.387 . S
C1337 H1341 0.950 . S
C1337 C1346 1.390 . S
C1338 C1337 1.387 . S
C1338 C1340 1.387 . S
H1339 C1346 0.950 . S
C1340 C1338 1.387 . S
C1340 C1342 1.390 . S
C1340 H1344 0.950 . S
H1341 C1337 0.950 . S
C1342 C1340 1.390 . S
C1342 C1343 1.387 . S
C1342 H1345 0.950 . S
C1343 C1342 1.387 . S
C1343 C1346 1.387 . S
H1344 C1340 0.950 . S
H1345 C1342 0.950 . S
C1346 C1337 1.390 . S
C1346 H1339 0.950 . S
C1346 C1343 1.387 . S
C1347 C1348 1.387 . S
C1347 H1351 0.950 . S
C1347 C1356 1.390 . S
C1348 C1347 1.387 . S
C1348 C1350 1.387 . S
H1349 C1356 0.950 . S
C1350 C1348 1.387 . S
C1350 C1352 1.390 . S
C1350 H1354 0.950 . S
H1351 C1347 0.950 . S
C1352 C1350 1.390 . S
C1352 C1353 1.387 . S
C1352 H1355 0.950 . S
C1353 C1352 1.387 . S
C1353 C1356 1.387 . S
H1354 C1350 0.950 . S
H1355 C1352 0.950 . S
C1356 C1347 1.390 . S
C1356 H1349 0.950 . S
C1356 C1353 1.387 . S
C1357 C1358 1.387 . S
C1357 H1361 0.950 . S
C1357 C1366 1.390 . S
C1358 C1357 1.387 . S
C1358 C1360 1.387 . S
H1359 C1366 0.950 . S
C1360 C1358 1.387 . S
C1360 C1362 1.390 . S
C1360 H1364 0.950 . S
H1361 C1357 0.950 . S
C1362 C1360 1.390 . S
C1362 C1363 1.387 . S
C1362 H1365 0.950 . S
C1363 C1362 1.387 . S
C1363 C1366 1.387 . S
H1364 C1360 0.950 . S
H1365 C1362 0.950 . S
C1366 C1357 1.390 . S
C1366 H1359 0.950 . S
C1366 C1363 1.387 . S
C1367 C1368 1.387 . S
C1367 H1371 0.950 . S
C1367 C1376 1.390 . S
C1368 C1367 1.387 . S
C1368 C1370 1.387 . S
H1369 C1376 0.950 . S
C1370 C1368 1.387 . S
C1370 C1372 1.390 . S
C1370 H1374 0.950 . S
H1371 C1367 0.950 . S
C1372 C1370 1.390 . S
C1372 C1373 1.387 . S
C1372 H1375 0.950 . S
C1373 C1372 1.387 . S
C1373 C1376 1.387 . S
H1374 C1370 0.950 . S
H1375 C1372 0.950 . S
C1376 C1367 1.390 . S
C1376 H1369 0.950 . S
C1376 C1373 1.387 . S
C838 C469 1.535 . S
C843 C665 1.421 . S
C848 C505 1.541 . S
C853 C686 1.422 . S
C858 C433 1.485 . S
C863 C708 1.189 . S
C868 C397 1.502 . S
C873 C687 1.185 . S
C883 C707 1.432 . S
C878 C325 1.559 . S
C888 C361 1.501 . S
C893 C666 1.177 1_556 S
C903 C661 1.401 . S
C898 C421 1.509 . S
C913 C682 1.400 . S
C908 C349 1.482 . S
C918 C385 1.554 . S
C923 C705 1.229 1_556 S
C928 C493 1.499 . S
C933 C684 1.212 . S
C938 C529 1.458 . S
C943 C703 1.369 . S
C953 C663 1.225 . S
C948 C457 1.533 . S
C963 C728 1.426 . S
C958 C37 1.536 1_455 S
C968 C73 1.541 . S
C973 C749 1.422 . S
C978 C1 1.485 1_565 S
C983 C771 1.189 . S
C988 C613 1.502 . S
C993 C750 1.186 . S
C998 C541 1.557 . S
C1003 C770 1.427 . S
C1008 C577 1.502 . S
C1013 C729 1.190 . S
C1018 C637 1.509 . S
C1023 C724 1.401 . S
C1028 C565 1.483 . S
C1033 C745 1.404 . S
C1043 C768 1.229 . S
C1038 C601 1.554 . S
C1048 C61 1.500 1_565 S
C1053 C747 1.202 . S
C1063 C766 1.365 . S
C1058 C97 1.457 1_455 S
C1068 C25 1.533 . S
C1073 C726 1.226 . S
C1083 C791 1.421 . S
C1078 C253 1.535 . S
C1088 C289 1.540 . S
C1093 C812 1.421 . S
C1103 C834 1.184 . S
C1098 C217 1.484 . S
C1113 C813 1.191 . S
C1108 C181 1.503 1_545 S
C1123 C833 1.427 . S
C1118 C109 1.557 1_655 S
C1128 C145 1.501 . S
C1133 C792 1.185 . S
C1138 C205 1.491 1_655 S
C1143 C787 1.406 . S
C1148 C133 1.482 . S
C1153 C808 1.400 . S
C1163 C831 1.227 . S
C1158 C169 1.554 1_545 S
C1168 C277 1.499 . S
C1173 C810 1.197 . S
C1178 C313 1.457 . S
C1183 C829 1.365 . S
C1188 C241 1.531 . S
C1193 C789 1.220 . S
C1198 C571 1.450 . S
C1203 C664 1.402 1_565 S
C1213 C685 1.443 . S
C1208 C607 1.488 . S
C1218 C643 1.536 . S
C1223 C704 1.493 . S
C1228 C247 1.574 . S
C1233 C683 1.531 1_655 S
C1238 C283 1.495 . S
C1243 C706 1.446 . S
C1253 C662 1.498 . S
C1248 C319 1.535 . S
C1258 C139 1.451 . S
C1263 C727 1.405 . S
C1268 C175 1.487 . S
C1273 C748 1.444 . S
C1278 C211 1.537 . S
C1283 C767 1.494 . S
C1288 C463 1.574 . S
C1293 C746 1.530 . S
C1303 C769 1.444 . S
C1298 C499 1.495 . S
C1308 C535 1.535 . S
C1313 C725 1.496 . S
C1318 C355 1.451 . S
C1323 C790 1.404 . S
C1328 C391 1.488 . S
C1333 C811 1.443 . S
C1343 C830 1.493 . S
C1338 C427 1.536 . S
C1348 C31 1.574 . S
C1353 C809 1.531 . S
C1358 C67 1.495 . S
C1363 C832 1.443 . S
C1368 C103 1.535 . S
C1373 C788 1.497 . S
