# Generated by pormake.
# Topology pyr, (3,6)-cn, num edge types: 1
# Building blocks:
#     Node 0, Type 0, BuildingBlock: BETDAH_clean_linker_0, # of connection points: 3
#     Node 1, Type 0, BuildingBlock: BETDAH_clean_linker_0, # of connection points: 3
#     Node 2, Type 0, BuildingBlock: BETDAH_clean_linker_0, # of connection points: 3
#     Node 3, Type 0, BuildingBlock: BETDAH_clean_linker_0, # of connection points: 3
#     Node 4, Type 0, BuildingBlock: BETDAH_clean_linker_0, # of connection points: 3
#     Node 5, Type 0, BuildingBlock: BETDAH_clean_linker_0, # of connection points: 3
#     Node 6, Type 0, BuildingBlock: BETDAH_clean_linker_0, # of connection points: 3
#     Node 7, Type 0, BuildingBlock: BETDAH_clean_linker_0, # of connection points: 3
#     Node 8, Type 1, BuildingBlock: BETDAH_clean_sbu_0, # of connection points: 6
#     Node 9, Type 1, BuildingBlock: BETDAH_clean_sbu_0, # of connection points: 6
#     Node 10, Type 1, BuildingBlock: BETDAH_clean_sbu_0, # of connection points: 6
#     Node 11, Type 1, BuildingBlock: BETDAH_clean_sbu_0, # of connection points: 6
#     Edge 12, Type (0, 1), BuildingBlock: ZUJKAS_clean_linker_0, # of connection points: 2
#     Edge 13, Type (0, 1), BuildingBlock: ZUJKAS_clean_linker_0, # of connection points: 2
#     Edge 14, Type (0, 1), BuildingBlock: ZUJKAS_clean_linker_0, # of connection points: 2
#     Edge 15, Type (0, 1), BuildingBlock: ZUJKAS_clean_linker_0, # of connection points: 2
#     Edge 16, Type (0, 1), BuildingBlock: ZUJKAS_clean_linker_0, # of connection points: 2
#     Edge 17, Type (0, 1), BuildingBlock: ZUJKAS_clean_linker_0, # of connection points: 2
#     Edge 18, Type (0, 1), BuildingBlock: ZUJKAS_clean_linker_0, # of connection points: 2
#     Edge 19, Type (0, 1), BuildingBlock: ZUJKAS_clean_linker_0, # of connection points: 2
#     Edge 20, Type (0, 1), BuildingBlock: ZUJKAS_clean_linker_0, # of connection points: 2
#     Edge 21, Type (0, 1), BuildingBlock: ZUJKAS_clean_linker_0, # of connection points: 2
#     Edge 22, Type (0, 1), BuildingBlock: ZUJKAS_clean_linker_0, # of connection points: 2
#     Edge 23, Type (0, 1), BuildingBlock: ZUJKAS_clean_linker_0, # of connection points: 2
#     Edge 24, Type (0, 1), BuildingBlock: ZUJKAS_clean_linker_0, # of connection points: 2
#     Edge 25, Type (0, 1), BuildingBlock: ZUJKAS_clean_linker_0, # of connection points: 2
#     Edge 26, Type (0, 1), BuildingBlock: ZUJKAS_clean_linker_0, # of connection points: 2
#     Edge 27, Type (0, 1), BuildingBlock: ZUJKAS_clean_linker_0, # of connection points: 2
#     Edge 28, Type (0, 1), BuildingBlock: ZUJKAS_clean_linker_0, # of connection points: 2
#     Edge 29, Type (0, 1), BuildingBlock: ZUJKAS_clean_linker_0, # of connection points: 2
#     Edge 30, Type (0, 1), BuildingBlock: ZUJKAS_clean_linker_0, # of connection points: 2
#     Edge 31, Type (0, 1), BuildingBlock: ZUJKAS_clean_linker_0, # of connection points: 2
#     Edge 32, Type (0, 1), BuildingBlock: ZUJKAS_clean_linker_0, # of connection points: 2
#     Edge 33, Type (0, 1), BuildingBlock: ZUJKAS_clean_linker_0, # of connection points: 2
#     Edge 34, Type (0, 1), BuildingBlock: ZUJKAS_clean_linker_0, # of connection points: 2
#     Edge 35, Type (0, 1), BuildingBlock: ZUJKAS_clean_linker_0, # of connection points: 2
# Relax obj value: 0.112
# Max RMSD: 0.191
# Mean RMSD: 0.140
data_MOF--net-pyr--node1-BETDAH_clean_sbu_0--node2-BETDAH_clean_linker_0--edge1-ZUJKAS_clean_linker_0
_symmetry_space_group_name_H-M    P1
_symmetry_Int_Tables_number       1
_symmetry_cell_setting            triclinic
loop_
_symmetry_equiv_pos_as_xyz
'x, y, z'
_cell_length_a     48.06469
_cell_length_b     52.272256
_cell_length_c     48.951857
_cell_angle_alpha  92.111286
_cell_angle_beta   89.495224
_cell_angle_gamma 104.40006
loop_
_atom_site_label
_atom_site_type_symbol
_atom_site_fract_x
_atom_site_fract_y
_atom_site_fract_z
_atom_type_partial_charge
H0 H 0.33183 0.24169 0.24819 0.0
H1 H 0.37865 0.30397 0.1981 0.0
H2 H 0.30542 0.31429 0.24395 0.0
C3 C 0.33491 0.26137 0.24049 0.0
C4 C 0.31612 0.27698 0.24868 0.0
C5 C 0.35733 0.27076 0.222 0.0
C6 C 0.36133 0.29635 0.21223 0.0
C7 C 0.34267 0.31204 0.2199 0.0
C8 C 0.32007 0.3023 0.23814 0.0
N9 N 0.34679 0.3373 0.20853 0.0
C10 C 0.32475 0.34997 0.20637 0.0
H11 H 0.34591 0.88316 0.66518 0.0
H12 H 0.35109 0.96591 0.65658 0.0
H13 H 0.34811 0.91536 0.58522 0.0
C14 C 0.34647 0.89973 0.65234 0.0
C15 C 0.34665 0.89606 0.62375 0.0
C16 C 0.34812 0.92482 0.66452 0.0
C17 C 0.34938 0.94628 0.64771 0.0
C18 C 0.34932 0.94273 0.61926 0.0
C19 C 0.34801 0.91776 0.6073 0.0
N20 N 0.35057 0.96438 0.60257 0.0
C21 C 0.32525 0.97012 0.59483 0.0
H22 H 0.70345 0.36207 0.9246 0.0
H23 H 0.6953 0.41836 0.86449 0.0
H24 H 0.63004 0.34588 0.87135 0.0
C25 C 0.6913 0.36798 0.90852 0.0
C26 C 0.66523 0.35055 0.89983 0.0
C27 C 0.70248 0.39266 0.89635 0.0
C28 C 0.68725 0.39962 0.87408 0.0
C29 C 0.66105 0.3825 0.86493 0.0
C30 C 0.65046 0.35842 0.87811 0.0
N31 N 0.64364 0.38818 0.84332 0.0
C32 C 0.64813 0.40896 0.82501 0.0
H33 H 0.83611 0.73341 0.41923 0.0
H34 H 0.88985 0.73509 0.34775 0.0
H35 H 0.81471 0.67137 0.35722 0.0
C36 C 0.84128 0.7242 0.40032 0.0
C37 C 0.82257 0.70046 0.39059 0.0
C38 C 0.86565 0.73706 0.38521 0.0
C39 C 0.87157 0.72537 0.35987 0.0
C40 C 0.85311 0.70149 0.34987 0.0
C41 C 0.82881 0.68955 0.36525 0.0
N42 N 0.85588 0.69006 0.32331 0.0
C43 C 0.88079 0.68931 0.30859 0.0
H44 H 0.77929 0.80339 0.83973 0.0
H45 H 0.71658 0.78211 0.90348 0.0
H46 H 0.7103 0.84214 0.84778 0.0
C47 C 0.75991 0.80568 0.84996 0.0
C48 C 0.74574 0.82419 0.84066 0.0
C49 C 0.74984 0.79058 0.87276 0.0
C50 C 0.72461 0.79349 0.88574 0.0
C51 C 0.71055 0.81227 0.87717 0.0
C52 C 0.72127 0.82778 0.85469 0.0
N53 N 0.68582 0.81513 0.89175 0.0
C54 C 0.67703 0.83852 0.89368 0.0
H55 H 0.78281 0.19893 0.41834 0.0
H56 H 0.82459 0.25436 0.48134 0.0
H57 H 0.75333 0.26881 0.43775 0.0
C58 C 0.78457 0.21714 0.43025 0.0
C59 C 0.76575 0.23317 0.42512 0.0
C60 C 0.80557 0.22437 0.45075 0.0
C61 C 0.80822 0.24824 0.4657 0.0
C62 C 0.78921 0.26396 0.46148 0.0
C63 C 0.76796 0.25648 0.44114 0.0
N64 N 0.79155 0.28687 0.47849 0.0
C65 C 0.76754 0.29473 0.48768 0.0
H66 H 0.3503 0.75743 0.1803 0.0
H67 H 0.34946 0.70297 0.24485 0.0
H68 H 0.41334 0.77702 0.24448 0.0
C69 C 0.35982 0.7522 0.1986 0.0
C70 C 0.38368 0.77046 0.21052 0.0
C71 C 0.34706 0.7278 0.21063 0.0
C72 C 0.35902 0.72142 0.23522 0.0
C73 C 0.38319 0.73925 0.24739 0.0
C74 C 0.3949 0.76352 0.23494 0.0
N75 N 0.39574 0.73512 0.2729 0.0
C76 C 0.39469 0.71198 0.2871 0.0
H77 H 0.20279 0.3654 0.66761 0.0
H78 H 0.19622 0.42148 0.733 0.0
H79 H 0.13278 0.3474 0.72458 0.0
C80 C 0.19166 0.37093 0.68534 0.0
C81 C 0.16634 0.35325 0.69417 0.0
C82 C 0.20274 0.39571 0.69893 0.0
C83 C 0.18814 0.40259 0.72235 0.0
C84 C 0.16267 0.38511 0.73149 0.0
C85 C 0.15215 0.36077 0.71723 0.0
N86 N 0.14639 0.39061 0.75462 0.0
C87 C 0.15137 0.4127 0.77267 0.0
Ho88 Ho 0.02474 0.05815 0.50425 0.0
Ho89 Ho 0.01751 0.03548 0.56105 0.0
C90 C 0.04913 0.09644 0.55774 0.0
C91 C 0.02546 0.08589 0.46146 0.0
C92 C 0.04679 0.10781 0.44969 0.0
C93 C 0.04098 0.11817 0.42501 0.0
C94 C 0.06228 0.13725 0.41231 0.0
C95 C 0.08976 0.14612 0.42409 0.0
C96 C 0.09512 0.13625 0.44934 0.0
C97 C 0.07379 0.11726 0.46205 0.0
C98 C 0.06768 0.03733 0.52021 0.0
C99 C 0.99482 0.99683 0.50736 0.0
C100 C 0.01518 1.00895 0.60492 0.0
C101 C 0.99183 0.99062 0.61894 0.0
C102 C 0.99606 0.98333 0.6455 0.0
C103 C 0.97299 0.96861 0.66036 0.0
C104 C 0.94527 0.96104 0.64888 0.0
C105 C 0.94135 0.96778 0.62187 0.0
C106 C 0.96446 0.98249 0.60703 0.0
C107 C 0.97408 0.0554 0.54403 0.0
O108 O 0.03865 0.09479 0.53256 0.0
O109 O 0.04824 0.07478 0.57128 0.0
O110 O 0.03276 0.06342 0.46115 0.0
O111 O 0.01419 0.09109 0.48479 0.0
O112 O 0.05961 0.03728 0.49507 0.0
O113 O 0.05481 0.05071 0.53512 0.0
O114 O 1.00492 0.99874 0.53274 0.0
O115 O 0.99545 0.01831 0.49355 0.0
O116 O 0.01261 0.03322 0.60477 0.0
O117 O 0.02302 1.00081 0.58115 0.0
O118 O 0.98206 0.05631 0.56925 0.0
O119 O 0.98778 0.04227 0.52996 0.0
H120 H 0.02026 0.11097 0.41518 0.0
H121 H 0.05758 0.14426 0.39275 0.0
H122 H 0.11595 0.14293 0.45906 0.0
H123 H 0.07857 0.10943 0.48117 0.0
H124 H 0.017 0.98974 0.65508 0.0
H125 H 0.97668 0.96406 0.68122 0.0
H126 H 0.92037 0.96199 0.61233 0.0
H127 H 0.96082 0.98816 0.58654 0.0
Ho128 Ho 0.55657 0.06915 0.07576 0.0
Ho129 Ho 0.50022 0.05089 0.04155 0.0
C130 C 0.50314 0.09035 0.09416 0.0
C131 C 0.60645 0.08906 0.09722 0.0
C132 C 0.61571 0.10271 0.1236 0.0
C133 C 0.59873 0.11746 0.13726 0.0
C134 C 0.6074 0.13007 0.16252 0.0
C135 C 0.63303 0.12791 0.1747 0.0
C136 C 0.64989 0.11297 0.16103 0.0
C137 C 0.6413 0.10052 0.13564 0.0
C138 C 0.51616 0.02741 0.09569 0.0
C139 C 0.55604 0.03407 0.01884 0.0
C140 C 0.45078 0.02394 0.0237 0.0
C141 C 0.43807 0.01665 0.9966 0.0
C142 C 0.41125 0.99855 0.99397 0.0
C143 C 0.39965 0.99052 0.96806 0.0
C144 C 0.41475 1.00057 0.94446 0.0
C145 C 0.44154 0.01895 0.9473 0.0
C146 C 0.45314 0.02688 0.97318 0.0
C147 C 0.53278 0.09744 0.02164 0.0
O148 O 0.53142 0.09644 0.09284 0.0
O149 O 0.48709 0.07006 0.07994 0.0
O150 O 0.59323 0.06402 0.09836 0.0
O151 O 0.59401 0.10176 0.08052 0.0
O152 O 0.53257 0.04603 0.11071 0.0
O153 O 0.52265 0.03176 0.07088 0.0
O154 O 0.52835 0.03218 0.01532 0.0
O155 O 0.57102 0.04766 0.03962 0.0
O156 O 0.45623 0.04907 0.03084 0.0
O157 O 0.47184 1.01334 0.02953 0.0
O158 O 0.50859 0.08401 1.01117 0.0
O159 O 0.53817 0.08449 0.04136 0.0
H160 H 0.5787 0.11915 0.12845 0.0
H161 H 0.59381 0.14116 0.17272 0.0
H162 H 0.66988 0.11116 0.16984 0.0
H163 H 0.65459 0.08913 0.12543 0.0
H164 H 0.39945 0.99044 1.01194 0.0
H165 H 0.37888 0.9765 0.96649 0.0
H166 H 0.45389 0.02671 0.9295 0.0
H167 H 0.47404 0.0407 0.97492 0.0
Ho168 Ho 0.51552 0.53326 0.53728 0.0
Ho169 Ho 0.51595 0.57822 0.57352 0.0
C170 C 0.54139 0.53404 0.59966 0.0
C171 C 0.52721 0.49456 0.50899 0.0
C172 C 0.53708 0.47115 0.51579 0.0
C173 C 0.5586 0.47284 0.53545 0.0
C174 C 0.56811 0.45057 0.5414 0.0
C175 C 0.55631 0.42619 0.52777 0.0
C176 C 0.53419 0.4244 0.50864 0.0
C177 C 0.52466 0.44674 0.50271 0.0
C178 C 0.46528 0.52889 0.56473 0.0
C179 C 0.49153 0.57804 0.51089 0.0
C180 C 0.50211 0.61573 0.60209 0.0
C181 C 0.48657 0.63576 0.59629 0.0
C182 C 0.46402 0.63052 0.5772 0.0
C183 C 0.44941 0.64979 0.57194 0.0
C184 C 0.45716 0.6746 0.58567 0.0
C185 C 0.4799 0.6798 0.60461 0.0
C186 C 0.49449 0.66053 0.60984 0.0
C187 C 0.56626 0.58269 0.54614 0.0
O188 O 0.53999 0.5239 0.57426 0.0
O189 O 0.53086 0.55465 0.60541 0.0
O190 O 0.50132 0.49467 0.51713 0.0
O191 O 0.54555 0.51745 0.51312 0.0
O192 O 0.46718 0.52267 0.53904 0.0
O193 O 0.49022 0.53711 0.57466 0.0
O194 O 0.49116 0.58708 0.53656 0.0
O195 O 0.50329 0.55819 0.50511 0.0
O196 O 0.52697 0.61848 0.59005 0.0
O197 O 0.48684 0.59126 0.60135 0.0
O198 O 0.5643 0.58912 0.57181 0.0
O199 O 0.54131 0.57439 0.53617 0.0
H200 H 0.56851 0.49148 0.54585 0.0
H201 H 0.58552 0.45272 0.5559 0.0
H202 H 0.52455 0.40582 0.49798 0.0
H203 H 0.50781 0.44503 0.48769 0.0
H204 H 0.45759 0.6115 0.56645 0.0
H205 H 0.43214 0.64531 0.5571 0.0
H206 H 0.48606 0.6986 0.61583 0.0
H207 H 0.51184 0.66489 0.62462 0.0
Ho208 Ho 0.03259 0.53351 0.05405 0.0
Ho209 Ho 0.03017 0.58722 0.02928 0.0
C210 C 0.08322 0.58708 0.06892 0.0
C211 C 0.04731 0.48995 0.06046 0.0
C212 C 0.06523 0.48011 0.07971 0.0
C213 C 0.08985 0.49708 0.09148 0.0
C214 C 0.10819 0.48703 0.10763 0.0
C215 C 0.10214 0.45983 0.11251 0.0
C216 C 0.07677 0.44312 0.10159 0.0
C217 C 0.05856 0.45318 0.08525 0.0
C218 C 0.01059 0.56301 0.09211 0.0
C219 C 0.97587 0.5351 0.01943 0.0
C220 C 0.018 0.62946 1.0124 0.0
C221 C 0.99324 0.63767 1.00154 0.0
C222 C 0.96563 0.62932 1.01282 0.0
C223 C 0.94285 0.63841 1.00258 0.0
C224 C 0.94731 0.65588 0.98083 0.0
C225 C 0.97486 0.66347 0.96916 0.0
C226 C 0.99757 0.65453 0.97948 0.0
C227 C 0.06015 0.55748 1.00031 0.0
O228 O 0.0758 0.56084 0.06638 0.0
O229 O 0.06716 0.60171 0.05865 0.0
O230 O 0.02321 0.49414 0.07005 0.0
O231 O 0.06113 0.50861 0.04461 0.0
O232 O 0.01424 0.53966 0.09618 0.0
O233 O 0.01883 0.56868 0.06805 0.0
O234 O 0.98565 0.56125 0.01883 0.0
O235 O 0.99107 0.52003 0.03035 0.0
O236 O 0.02843 0.61347 0.99655 0.0
O237 O 0.0171 0.62333 0.03814 0.0
O238 O 0.06808 0.58304 1.00337 0.0
O239 O 0.03656 0.5492 1.01262 0.0
H240 H 0.09536 0.518 0.08757 0.0
H241 H 0.12765 0.50046 0.11541 0.0
H242 H 0.07113 0.42218 0.10537 0.0
H243 H 0.03955 0.43982 0.07648 0.0
H244 H 0.96173 0.61611 0.02974 0.0
H245 H 0.92197 0.6323 1.01215 0.0
H246 H 0.97894 0.67643 0.95203 0.0
H247 H 0.01866 0.66097 0.97033 0.0
H248 H 0.28052 0.22717 0.24874 0.0
H249 H 0.24141 0.20987 0.28038 0.0
H250 H 0.25708 0.28598 0.32261 0.0
H251 H 0.29711 0.30322 0.29164 0.0
H252 H 0.25008 0.24537 0.3578 0.0
H253 H 0.16202 0.22384 0.28179 0.0
H254 H 0.19047 0.20864 0.27228 0.0
H255 H 0.19736 0.24412 0.27446 0.0
C256 C 0.27583 0.24021 0.26487 0.0
C257 C 0.29196 0.26659 0.26766 0.0
C258 C 0.25319 0.23038 0.28271 0.0
C259 C 0.24598 0.24678 0.30352 0.0
C260 C 0.26212 0.27307 0.30652 0.0
H261 H 0.08733 0.19027 0.39655 0.0
H262 H 0.12541 0.21807 0.36937 0.0
C263 C 0.28486 0.28292 0.28871 0.0
C264 C 0.22224 0.23609 0.32267 0.0
H265 H 0.15148 0.2031 0.32484 0.0
C266 C 0.22843 0.2364 0.35067 0.0
C267 C 0.19388 0.22487 0.31341 0.0
C268 C 0.18543 0.22557 0.28388 0.0
C269 C 0.2073 0.22469 0.36949 0.0
C270 C 0.17943 0.21188 0.35993 0.0
C271 C 0.17293 0.21265 0.33212 0.0
C272 C 0.15709 0.19643 0.37809 0.0
C273 C 0.21508 0.22613 0.3994 0.0
C274 C 0.16224 0.17504 0.39196 0.0
C275 C 0.14061 0.15921 0.4075 0.0
C276 C 0.11323 0.16425 0.40922 0.0
C277 C 0.10815 0.18581 0.39548 0.0
C278 C 0.12989 0.20175 0.38004 0.0
H279 H 0.23325 0.24344 0.40432 0.0
H280 H 0.19651 0.22742 0.41256 0.0
H281 H 0.22188 0.20807 0.40444 0.0
H282 H 0.18277 0.17007 0.39011 0.0
H283 H 0.14503 0.14244 0.41736 0.0
H284 H 0.38 0.90412 0.6995 0.0
H285 H 0.38615 0.91293 0.74866 0.0
H286 H 0.32895 0.96467 0.74675 0.0
H287 H 0.3218 0.95518 0.69761 0.0
H288 H 0.40927 0.96185 0.77191 0.0
H289 H 0.30016 0.92031 0.8132 0.0
H290 H 0.31084 0.91191 0.77924 0.0
H291 H 0.30101 0.94256 0.78593 0.0
C292 C 0.36813 0.91684 0.70962 0.0
C293 C 0.35034 0.92891 0.69466 0.0
C294 C 0.37182 0.92197 0.73769 0.0
C295 C 0.35776 0.9392 0.75137 0.0
C296 C 0.33957 0.95092 0.73666 0.0
H297 H 0.41402 0.03035 0.89992 0.0
H298 H 0.3987 1.01467 0.85343 0.0
C299 C 0.3358 0.94575 0.70854 0.0
C300 C 0.36425 0.94672 0.78046 0.0
H301 H 0.33395 0.9484 0.84364 0.0
C302 C 0.39283 0.95876 0.78762 0.0
C303 C 0.34279 0.9424 0.80091 0.0
C304 C 0.31202 0.92836 0.79455 0.0
C305 C 0.40048 0.96714 0.81462 0.0
C306 C 0.37885 0.96383 0.83487 0.0
C307 C 0.35037 0.9512 0.82792 0.0
C308 C 0.38567 0.97341 0.86338 0.0
C309 C 0.43169 0.97926 0.82129 0.0
C310 C 0.38243 0.95544 0.88444 0.0
C311 C 0.39116 0.96433 0.91101 0.0
C312 C 0.40319 0.99135 0.91688 0.0
C313 C 0.40532 1.00938 0.89589 0.0
C314 C 0.39655 1.00047 0.86938 0.0
H315 H 0.44616 0.97435 0.80519 0.0
H316 H 0.43545 1.00108 0.82287 0.0
H317 H 0.43758 0.97244 0.84115 0.0
H318 H 0.37401 0.93446 0.88013 0.0
H319 H 0.38944 0.94996 0.92672 0.0
H320 H 0.65512 0.39986 0.77072 0.0
H321 H 0.63986 0.42234 0.73245 0.0
H322 H 0.61268 0.476 0.78957 0.0
H323 H 0.62824 0.45363 0.82778 0.0
H324 H 0.58653 0.42665 0.71969 0.0
H325 H 0.65551 0.52789 0.73544 0.0
H326 H 0.6621 0.49999 0.75259 0.0
H327 H 0.635 0.51578 0.76515 0.0
C328 C 0.64665 0.41695 0.77508 0.0
C329 C 0.64364 0.42535 0.80236 0.0
C330 C 0.63762 0.4297 0.75311 0.0
C331 C 0.62531 0.45132 0.75768 0.0
C332 C 0.62268 0.45993 0.78506 0.0
H333 H 0.54536 0.54801 0.65469 0.0
H334 H 0.56534 0.52778 0.69165 0.0
C335 C 0.63166 0.4471 0.80704 0.0
C336 C 0.61386 0.46374 0.73404 0.0
H337 H 0.61734 0.52261 0.70351 0.0
C338 C 0.5935 0.44763 0.71612 0.0
C339 C 0.62255 0.49119 0.72905 0.0
C340 C 0.64519 0.50972 0.74639 0.0
C341 C 0.58126 0.45805 0.69416 0.0
C342 C 0.58996 0.48552 0.68913 0.0
C343 C 0.61041 0.50162 0.70701 0.0
C344 C 0.57783 0.49799 0.6659 0.0
C345 C 0.5583 0.43948 0.67717 0.0
C346 C 0.57826 0.48859 0.63853 0.0
C347 C 0.56657 0.50013 0.61717 0.0
C348 C 0.55434 0.52174 0.62232 0.0
C349 C 0.55444 0.53143 0.64964 0.0
C350 C 0.56599 0.51982 0.67097 0.0
H351 H 0.54798 0.42146 0.68837 0.0
H352 H 0.54138 0.44923 0.67106 0.0
H353 H 0.56819 0.4331 0.65839 0.0
H354 H 0.58787 0.47235 0.63352 0.0
H355 H 0.56721 0.49207 0.59657 0.0
H356 H 0.8977 0.71188 0.26003 0.0
H357 H 0.92221 0.69364 0.22249 0.0
H358 H 0.93075 0.63056 0.27352 0.0
H359 H 0.90613 0.64869 0.31088 0.0
H360 H 0.97644 0.6804 0.21633 0.0
H361 H 0.88575 0.59117 0.20721 0.0
H362 H 0.88322 0.62047 0.22674 0.0
H363 H 0.90097 0.59748 0.24089 0.0
C364 C 0.9055 0.69451 0.26342 0.0
C365 C 0.90037 0.6819 0.28851 0.0
C366 C 0.91937 0.68398 0.24188 0.0
C367 C 0.928 0.66039 0.24484 0.0
C368 C 0.92397 0.6485 0.27042 0.0
H369 H 0.99579 0.55025 0.14431 0.0
H370 H 0.97677 0.57532 0.17967 0.0
C371 C 0.91019 0.65906 0.29193 0.0
C372 C 0.93984 0.64747 0.22099 0.0
H373 H 0.92738 0.59043 0.18125 0.0
C374 C 0.96563 0.66079 0.20855 0.0
C375 C 0.92575 0.62191 0.21054 0.0
C376 C 0.89726 0.60697 0.22181 0.0
C377 C 0.97816 0.64891 0.18683 0.0
C378 C 0.9643 0.62313 0.17672 0.0
C379 C 0.93822 0.6101 0.18886 0.0
C380 C 0.97694 0.6086 0.15463 0.0
C381 C 1.0067 0.66374 0.17559 0.0
C382 C 0.98346 0.61864 0.12833 0.0
C383 C 0.99455 0.60418 0.10785 0.0
C384 C 0.99918 0.57928 0.11315 0.0
C385 C 0.99255 0.56934 0.1394 0.0
C386 C 0.98159 0.58371 0.15975 0.0
H387 H 0.01783 0.68008 0.18979 0.0
H388 H 0.02099 0.65029 0.17155 0.0
H389 H 1.00313 0.67247 0.156 0.0
H390 H 0.97956 0.63748 0.12345 0.0
H391 H 0.9992 0.61236 0.08788 0.0
H392 H 0.38234 0.23882 0.25146 0.0
H393 H 0.41031 0.20846 0.23382 0.0
H394 H 0.40031 0.23227 0.15178 0.0
H395 H 0.37267 0.26273 0.16925 0.0
H396 H 0.39388 0.16635 0.19856 0.0
H397 H 0.48575 0.23905 0.15482 0.0
H398 H 0.46032 0.24865 0.17787 0.0
H399 H 0.452 0.24234 0.14207 0.0
C400 C 0.38628 0.23766 0.22968 0.0
C401 C 0.37552 0.2533 0.21175 0.0
C402 C 0.40229 0.22037 0.21965 0.0
C403 C 0.40783 0.21844 0.19154 0.0
C404 C 0.39701 0.23397 0.17362 0.0
H405 H 0.44619 0.09028 0.09566 0.0
H406 H 0.42382 0.12046 0.12187 0.0
C407 C 0.38119 0.25136 0.18363 0.0
C408 C 0.42368 0.19928 0.18068 0.0
H409 H 0.47978 0.19391 0.13955 0.0
C410 C 0.41286 0.17239 0.1859 0.0
C411 C 0.44871 0.20721 0.16455 0.0
C412 C 0.46256 0.23592 0.15973 0.0
C413 C 0.42578 0.15311 0.17458 0.0
C414 C 0.44974 0.16091 0.15708 0.0
C415 C 0.46118 0.18789 0.1527 0.0
C416 C 0.46294 0.14148 0.14252 0.0
C417 C 0.41369 0.12463 0.18162 0.0
C418 C 0.49248 0.1435 0.14503 0.0
C419 C 0.50542 0.1265 0.12977 0.0
C420 C 0.48905 0.10712 0.11169 0.0
C421 C 0.45937 0.10482 0.10957 0.0
C422 C 0.4465 0.12197 0.12469 0.0
H423 H 0.40199 0.12304 0.20141 0.0
H424 H 0.39821 0.11469 0.16554 0.0
H425 H 0.43089 0.11394 0.18283 0.0
H426 H 0.50561 0.15847 0.15858 0.0
H427 H 0.52832 0.12881 0.13195 0.0
H428 H 0.29326 0.94972 0.55086 0.0
H429 H 0.24659 0.9574 0.53855 0.0
H430 H 0.2498 1.00821 0.61059 0.0
H431 H 0.2964 1.00036 0.62297 0.0
H432 H 0.19515 0.96924 0.60007 0.0
H433 H 0.23768 0.02922 0.5103 0.0
H434 H 0.2458 0.99751 0.51151 0.0
H435 H 0.26075 0.02285 0.53679 0.0
C436 C 0.28391 0.96258 0.56391 0.0
C437 C 0.29815 0.97479 0.58756 0.0
C438 C 0.2574 0.96693 0.55693 0.0
C439 C 0.24504 0.98358 0.57355 0.0
C440 C 0.25913 0.99537 0.59752 0.0
H441 H 0.0938 0.04447 0.57005 0.0
H442 H 0.13549 0.02893 0.58368 0.0
C443 C 0.28565 0.99102 0.60448 0.0
C444 C 0.21768 0.98919 0.56565 0.0
H445 H 0.18788 0.02034 0.51815 0.0
C446 C 0.19344 0.98037 0.58216 0.0
C447 C 0.21569 1.00362 0.54223 0.0
C448 C 0.24137 1.01407 0.52422 0.0
C449 C 0.167 0.9855 0.57569 0.0
C450 C 0.16513 1.00034 0.55249 0.0
C451 C 0.18938 1.00892 0.5359 0.0
C452 C 0.13854 1.0079 0.54524 0.0
C453 C 0.14129 0.97462 0.59349 0.0
C454 C 0.12673 1.00158 0.519 0.0
C455 C 0.10333 1.01085 0.51104 0.0
C456 C 0.09136 0.02654 0.52922 0.0
C457 C 0.10268 0.03234 0.5557 0.0
C458 C 0.12629 0.02328 0.56358 0.0
H459 H 0.14395 0.95734 0.60481 0.0
H460 H 0.13884 0.99013 0.60877 0.0
H461 H 0.12127 0.96857 0.5812 0.0
H462 H 0.13595 0.98982 0.50452 0.0
H463 H 0.09483 1.006 0.49055 0.0
H464 H 0.71892 0.40302 0.95013 0.0
H465 H 0.76451 0.42898 0.9688 0.0
H466 H 0.79454 0.45006 0.88753 0.0
H467 H 0.74887 0.42331 0.86848 0.0
H468 H 0.83587 0.43552 0.9173 0.0
H469 H 0.79395 0.5079 0.97972 0.0
H470 H 0.77658 0.47445 0.98747 0.0
H471 H 0.77249 0.48631 0.95404 0.0
C472 C 0.73512 0.41313 0.93606 0.0
C473 C 0.72993 0.41077 0.90762 0.0
C474 C 0.76126 0.42833 0.94691 0.0
C475 C 0.7832 0.44199 0.92979 0.0
C476 C 0.77808 0.43993 0.90136 0.0
H477 H 0.93764 0.55826 0.99386 0.0
H478 H 0.89206 0.53655 0.97133 0.0
C479 C 0.75177 0.42473 0.89044 0.0
C480 C 0.81163 0.45745 0.94163 0.0
H481 H 0.84192 0.50565 0.98963 0.0
C482 C 0.83712 0.45097 0.93298 0.0
C483 C 0.81375 0.47799 0.96192 0.0
C484 C 0.78778 0.48729 0.97115 0.0
C485 C 0.86416 0.4637 0.94448 0.0
C486 C 0.8661 0.48336 0.9657 0.0
C487 C 0.84073 0.49042 0.97372 0.0
C488 C 0.89408 0.49671 0.9798 0.0
C489 C 0.89052 0.45615 0.93341 0.0
C490 C 0.91059 0.48188 0.99276 0.0
C491 C 0.93676 0.49428 1.00571 0.0
C492 C 0.94731 0.52202 1.00636 0.0
C493 C 0.93049 0.5369 0.99384 0.0
C494 C 0.90426 0.52445 0.98088 0.0
H495 H 0.88688 0.44724 0.91238 0.0
H496 H 0.90928 0.47354 0.93308 0.0
H497 H 0.89583 0.44125 0.94666 0.0
H498 H 0.90314 0.46056 0.99302 0.0
H499 H 0.94879 0.48199 0.01518 0.0
H500 H 0.81603 0.69599 0.44646 0.0
H501 H 0.77286 0.67499 0.47203 0.0
H502 H 0.72576 0.65449 0.39659 0.0
H503 H 0.7686 0.67567 0.37089 0.0
H504 H 0.71929 0.68607 0.4744 0.0
H505 H 0.7081 0.58367 0.43351 0.0
H506 H 0.74047 0.60952 0.42927 0.0
H507 H 0.70989 0.60751 0.40765 0.0
C508 C 0.79649 0.68715 0.43523 0.0
C509 C 0.79611 0.68748 0.40644 0.0
C510 C 0.77178 0.67499 0.44994 0.0
C511 C 0.74602 0.66264 0.43633 0.0
C512 C 0.74545 0.66319 0.40765 0.0
H513 H 0.57252 0.58192 0.49018 0.0
H514 H 0.61586 0.60116 0.46365 0.0
C515 C 0.77011 0.67537 0.39292 0.0
C516 C 0.71963 0.64988 0.45214 0.0
H517 H 0.6695 0.59132 0.46049 0.0
C518 C 0.70853 0.66531 0.47143 0.0
C519 C 0.70531 0.6228 0.44828 0.0
C520 C 0.71664 0.6048 0.42875 0.0
C521 C 0.68344 0.65463 0.48652 0.0
C522 C 0.6692 0.6275 0.48281 0.0
C523 C 0.68025 0.61208 0.46344 0.0
C524 C 0.64302 0.6148 0.49896 0.0
C525 C 0.67203 0.67279 0.50581 0.0
C526 C 0.6438 0.61529 0.52769 0.0
C527 C 0.61905 0.60435 0.54286 0.0
C528 C 0.59287 0.5924 0.52973 0.0
C529 C 0.59229 0.59104 0.50096 0.0
C530 C 0.61709 0.60207 0.48576 0.0
H531 H 0.68008 0.69382 0.50047 0.0
H532 H 0.64819 0.66772 0.50569 0.0
H533 H 0.67933 0.67077 0.52689 0.0
H534 H 0.66359 0.62426 0.53848 0.0
H535 H 0.62037 0.60554 0.56497 0.0
H536 H 0.32018 0.39822 0.22448 0.0
H537 H 0.28018 0.41843 0.21554 0.0
H538 H 0.23681 0.34806 0.1694 0.0
H539 H 0.27643 0.32783 0.17879 0.0
H540 H 0.26162 0.42943 0.16596 0.0
H541 H 0.17288 0.36053 0.21839 0.0
H542 H 0.21015 0.36139 0.22419 0.0
H543 H 0.19149 0.34355 0.19486 0.0
C544 C 0.30184 0.38709 0.21275 0.0
C545 C 0.30099 0.36158 0.20235 0.0
C546 C 0.2791 0.39857 0.20765 0.0
C547 C 0.25527 0.38456 0.19223 0.0
C548 C 0.25457 0.35896 0.18195 0.0
H549 H 0.11718 0.41332 0.10146 0.0
H550 H 0.15351 0.39638 0.12427 0.0
C551 C 0.27724 0.34751 0.18711 0.0
C552 C 0.23204 0.39724 0.18515 0.0
H553 H 0.15909 0.38764 0.18484 0.0
C554 C 0.23924 0.42057 0.17051 0.0
C555 C 0.20285 0.38566 0.19116 0.0
C556 C 0.19389 0.36155 0.20826 0.0
C557 C 0.21793 0.43192 0.16057 0.0
C558 C 0.18875 0.41967 0.16557 0.0
C559 C 0.18154 0.39687 0.18097 0.0
C560 C 0.16542 0.42934 0.1534 0.0
C561 C 0.22661 0.45627 0.14377 0.0
C562 C 0.15978 0.45324 0.16266 0.0
C563 C 0.13872 0.46287 0.14989 0.0
C564 C 0.12303 0.44878 0.12757 0.0
C565 C 0.12844 0.42451 0.11883 0.0
C566 C 0.14933 0.41485 0.13171 0.0
H567 H 0.24994 0.46148 0.13897 0.0
H568 H 0.21432 0.45325 0.12432 0.0
H569 H 0.22148 0.47323 0.15523 0.0
H570 H 0.17185 0.46454 0.17958 0.0
H571 H 0.13482 0.4814 0.15744 0.0
H572 H 0.66986 0.33768 0.95401 0.0
H573 H 0.65145 0.29527 0.97538 0.0
H574 H 0.61316 0.26137 0.8989 0.0
H575 H 0.63305 0.30303 0.87693 0.0
H576 H 0.60037 0.26603 0.98562 0.0
H577 H 0.65101 0.20508 0.91646 0.0
H578 H 0.66026 0.24064 0.91563 0.0
H579 H 0.62892 0.22133 0.89779 0.0
C580 C 0.65808 0.32115 0.94141 0.0
C581 C 0.65342 0.32428 0.91338 0.0
C582 C 0.64721 0.29675 0.95388 0.0
C583 C 0.63124 0.27448 0.93887 0.0
C584 C 0.62605 0.27768 0.91106 0.0
H585 H 0.52665 0.11791 0.97256 0.0
H586 H 0.55201 0.16032 0.95438 0.0
C587 C 0.63713 0.30196 0.89851 0.0
C588 C 0.61946 0.2483 0.95236 0.0
H589 H 0.61316 0.18146 0.94489 0.0
C590 C 0.60355 0.24765 0.97679 0.0
C591 C 0.62349 0.22393 0.94129 0.0
C592 C 0.64211 0.22277 0.91653 0.0
C593 C 0.59091 0.22365 0.98964 0.0
C594 C 0.59417 0.19932 0.97802 0.0
C595 C 0.61043 0.19995 0.95391 0.0
C596 C 0.57949 0.17295 0.98957 0.0
C597 C 0.57328 0.2244 0.01515 0.0
C598 C 0.58656 0.16526 0.01545 0.0
C599 C 0.57215 0.14055 0.02588 0.0
C600 C 0.55016 0.12304 1.01077 0.0
C601 C 0.54343 0.13076 0.98485 0.0
C602 C 0.55798 0.15514 0.97435 0.0
H603 H 0.56891 0.24409 0.01917 0.0
H604 H 0.55249 0.20927 0.01351 0.0
H605 H 0.58505 0.21975 0.03295 0.0
H606 H 0.60324 0.17836 0.02762 0.0
H607 H 0.57779 0.13544 0.04596 0.0
H608 H 0.88478 0.7514 0.43757 0.0
H609 H 0.90836 0.79548 0.45621 0.0
H610 H 0.91056 0.82677 0.37579 0.0
H611 H 0.88653 0.78264 0.357 0.0
H612 H 0.96126 0.8313 0.44397 0.0
H613 H 0.86914 0.87373 0.42178 0.0
H614 H 0.86609 0.83858 0.42066 0.0
H615 H 0.88286 0.85839 0.39298 0.0
C616 C 0.89036 0.76762 0.42376 0.0
C617 C 0.88348 0.76337 0.39575 0.0
C618 C 0.90394 0.79287 0.43449 0.0
C619 C 0.91083 0.81471 0.41759 0.0
C620 C 0.90503 0.81042 0.38942 0.0
H621 H 0.97695 0.98466 0.45417 0.0
H622 H 0.95783 0.94098 0.4324 0.0
C623 C 0.89158 0.78506 0.37861 0.0
C624 C 0.92356 0.84187 0.42971 0.0
H625 H 0.91046 0.90291 0.44085 0.0
C626 C 0.95015 0.84696 0.44326 0.0
C627 C 0.90918 0.86245 0.42885 0.0
C628 C 0.88013 0.8581 0.4155 0.0
C629 C 0.96284 0.87194 0.45559 0.0
C630 C 0.94825 0.89244 0.45514 0.0
C631 C 0.92175 0.88737 0.44137 0.0
C632 C 0.96002 0.9192 0.46873 0.0
C633 C 0.99215 0.87625 0.46841 0.0
C634 C 0.96732 0.92191 0.49667 0.0
C635 C 0.97848 0.94698 0.5092 0.0
C636 C 0.98229 0.97012 0.49425 0.0
C637 C 0.97439 0.96739 0.46643 0.0
C638 C 0.9634 0.94232 0.45389 0.0
H639 H 1.00396 0.86203 0.45979 0.0
H640 H 1.00534 0.89663 0.46538 0.0
H641 H 0.98966 0.87316 0.49069 0.0
H642 H 0.9642 0.90461 0.50894 0.0
H643 H 0.98403 0.94818 0.53069 0.0
H644 H 0.31555 0.84695 0.63777 0.0
H645 H 0.32526 0.8045 0.62388 0.0
H646 H 0.39069 0.8441 0.56837 0.0
H647 H 0.38145 0.88657 0.58231 0.0
H648 H 0.35484 0.78986 0.55026 0.0
H649 H 0.40589 0.79826 0.65316 0.0
H650 H 0.36913 0.80035 0.65197 0.0
H651 H 0.39686 0.82597 0.63773 0.0
C652 C 0.33164 0.84653 0.62224 0.0
C653 C 0.34808 0.8701 0.61145 0.0
C654 C 0.33698 0.8223 0.61421 0.0
C655 C 0.35884 0.82136 0.59534 0.0
C656 C 0.37364 0.84452 0.58288 0.0
H657 H 0.4789 0.7275 0.57972 0.0
H658 H 0.45208 0.76153 0.57852 0.0
C659 C 0.36832 0.86875 0.59088 0.0
C660 C 0.36954 0.79736 0.5919 0.0
H661 H 0.40958 0.76237 0.62452 0.0
C662 C 0.36651 0.78356 0.56652 0.0
C663 C 0.38506 0.78959 0.61315 0.0
C664 C 0.3897 0.80433 0.64052 0.0
C665 C 0.37897 0.76216 0.56181 0.0
C666 C 0.3948 0.75475 0.58297 0.0
C667 C 0.39735 0.76825 0.60842 0.0
C668 C 0.41031 0.7339 0.57906 0.0
C669 C 0.37603 0.74809 0.53416 0.0
C670 C 0.39553 0.70719 0.57934 0.0
C671 C 0.41079 0.68771 0.5803 0.0
C672 C 0.441 0.69478 0.58116 0.0
C673 C 0.45565 0.72152 0.57954 0.0
C674 C 0.4404 0.74093 0.57862 0.0
H675 H 0.3648 0.75753 0.51923 0.0
H676 H 0.39759 0.74782 0.52599 0.0
H677 H 0.36375 0.72725 0.53623 0.0
H678 H 0.37227 0.70153 0.58009 0.0
H679 H 0.39893 0.66728 0.58176 0.0
H680 H 0.75516 0.87771 0.8361 0.0
H681 H 0.7816 0.90461 0.79972 0.0
H682 H 0.79073 0.83385 0.75625 0.0
H683 H 0.76384 0.80698 0.79206 0.0
H684 H 0.83731 0.90565 0.78777 0.0
H685 H 0.77127 0.87617 0.69457 0.0
H686 H 0.75686 0.86947 0.72851 0.0
H687 H 0.77648 0.84808 0.71192 0.0
C688 C 0.76208 0.86791 0.81837 0.0
C689 C 0.75763 0.84028 0.81697 0.0
C690 C 0.77726 0.88327 0.79768 0.0
C691 C 0.78791 0.87122 0.77514 0.0
C692 C 0.78226 0.84357 0.77313 0.0
H693 H 0.94279 0.9212 0.6843 0.0
H694 H 0.90306 0.90119 0.71438 0.0
C695 C 0.76717 0.82825 0.79377 0.0
C696 C 0.80798 0.88735 0.75558 0.0
H697 H 0.82189 0.89541 0.68746 0.0
C698 C 0.83371 0.90375 0.76586 0.0
C699 C 0.80319 0.88504 0.72701 0.0
C700 C 0.7753 0.86894 0.71486 0.0
C701 C 0.85537 0.91686 0.74831 0.0
C702 C 0.85137 0.91312 0.71973 0.0
C703 C 0.82507 0.89786 0.70941 0.0
C704 C 0.87469 0.92428 0.70038 0.0
C705 C 0.88253 0.93435 0.76052 0.0
C706 C 0.87149 0.94323 0.68193 0.0
C707 C 0.89419 0.95474 0.66472 0.0
C708 C 0.92041 0.94736 0.66559 0.0
C709 C 0.9231 0.92768 0.68348 0.0
C710 C 0.90042 0.91622 0.70066 0.0
H711 H 0.87916 0.94078 0.78192 0.0
H712 H 0.89937 0.92319 0.76069 0.0
H713 H 0.89057 0.95216 0.74827 0.0
H714 H 0.85173 0.94962 0.68136 0.0
H715 H 0.8915 0.97003 0.65138 0.0
H716 H 0.75138 0.26525 0.38755 0.0
H717 H 0.72085 0.25181 0.34716 0.0
H718 H 0.70301 0.17056 0.37054 0.0
H719 H 0.73226 0.18395 0.41147 0.0
H720 H 0.73229 0.22063 0.30663 0.0
H721 H 0.62457 0.17456 0.34711 0.0
H722 H 0.65256 0.19514 0.36826 0.0
H723 H 0.65133 0.16071 0.36178 0.0
C724 C 0.74023 0.24463 0.38452 0.0
C725 C 0.74444 0.22564 0.4026 0.0
C726 C 0.72293 0.23697 0.36135 0.0
C727 C 0.7094 0.21021 0.35594 0.0
C728 C 0.71268 0.19138 0.37454 0.0
H729 H 0.65356 0.10732 0.21846 0.0
H730 H 0.66983 0.1296 0.26249 0.0
C731 C 0.72982 0.19903 0.39773 0.0
C732 C 0.69478 0.20149 0.32943 0.0
H733 H 0.63434 0.16102 0.30081 0.0
C734 C 0.71064 0.20807 0.30534 0.0
C735 C 0.66652 0.18508 0.32773 0.0
C736 C 0.64768 0.17871 0.35262 0.0
C737 C 0.69956 0.19758 0.27978 0.0
C738 C 0.67198 0.18012 0.27832 0.0
C739 C 0.65562 0.17429 0.30216 0.0
C740 C 0.66064 0.16655 0.2523 0.0
C741 C 0.71781 0.20426 0.25455 0.0
C742 C 0.64996 0.18003 0.23224 0.0
C743 C 0.64068 0.16739 0.20709 0.0
C744 C 0.64214 0.14114 0.20162 0.0
C745 C 0.65254 0.12764 0.22198 0.0
C746 C 0.66161 0.14024 0.24716 0.0
H747 H 0.73959 0.21682 0.25941 0.0
H748 H 0.72001 0.18584 0.24368 0.0
H749 H 0.70714 0.21493 0.24039 0.0
H750 H 0.64914 0.20039 0.23594 0.0
H751 H 0.63294 0.17832 0.19172 0.0
H752 H 0.44548 0.69963 0.29402 0.0
H753 H 0.45977 0.67553 0.3314 0.0
H754 H 0.37414 0.66123 0.36456 0.0
H755 H 0.35986 0.68536 0.32697 0.0
H756 H 0.46094 0.68739 0.3865 0.0
H757 H 0.38882 0.58781 0.36738 0.0
H758 H 0.39496 0.61299 0.3422 0.0
H759 H 0.37065 0.61395 0.37011 0.0
C760 C 0.42948 0.69077 0.3089 0.0
C761 C 0.40133 0.69392 0.30708 0.0
C762 C 0.43776 0.67714 0.33051 0.0
C763 C 0.41811 0.66609 0.351 0.0
C764 C 0.38975 0.66893 0.34893 0.0
H765 H 0.4697 0.62243 0.51327 0.0
H766 H 0.45152 0.64359 0.47573 0.0
C767 C 0.3815 0.68273 0.32733 0.0
C768 C 0.42781 0.65283 0.37495 0.0
H769 H 0.41542 0.59459 0.40874 0.0
C770 C 0.45088 0.66709 0.39131 0.0
C771 C 0.41513 0.6262 0.38142 0.0
C772 C 0.39119 0.60919 0.36426 0.0
C773 C 0.46128 0.65576 0.41372 0.0
C774 C 0.44826 0.62928 0.42052 0.0
C775 C 0.42539 0.61491 0.40398 0.0
C776 C 0.45867 0.61595 0.44401 0.0
C777 C 0.48674 0.67215 0.42951 0.0
C778 C 0.46822 0.59278 0.43935 0.0
C779 C 0.47862 0.58055 0.46091 0.0
C780 C 0.47958 0.59088 0.48805 0.0
C781 C 0.46948 0.6138 0.49281 0.0
C782 C 0.4592 0.62611 0.47117 0.0
H783 H 0.49873 0.68923 0.41778 0.0
H784 H 0.47909 0.68 0.44875 0.0
H785 H 0.50174 0.66005 0.4349 0.0
H786 H 0.46807 0.58429 0.41881 0.0
H787 H 0.48605 0.56296 0.4562 0.0
H788 H 0.16246 0.40819 0.82607 0.0
H789 H 0.14908 0.43346 0.86515 0.0
H790 H 0.11898 0.48295 0.80971 0.0
H791 H 0.13185 0.45722 0.77065 0.0
H792 H 0.1635 0.48424 0.88397 0.0
H793 H 0.04826 0.45766 0.85582 0.0
H794 H 0.07397 0.44236 0.83922 0.0
H795 H 0.0711 0.47447 0.82947 0.0
C796 C 0.15352 0.42482 0.82226 0.0
C797 C 0.14852 0.43094 0.79531 0.0
C798 C 0.1457 0.4392 0.84464 0.0
C799 C 0.13235 0.45991 0.84065 0.0
C800 C 0.12853 0.46674 0.81358 0.0
H801 H 0.10642 0.57539 0.96711 0.0
H802 H 0.12417 0.55169 0.92949 0.0
C803 C 0.13631 0.45228 0.79118 0.0
C804 C 0.12192 0.47375 0.86474 0.0
H805 H 0.06207 0.48917 0.89247 0.0
C806 C 0.1413 0.48528 0.88576 0.0
C807 C 0.09279 0.4748 0.86768 0.0
C808 C 0.07024 0.46145 0.84701 0.0
C809 C 0.13262 0.49809 0.90907 0.0
C810 C 0.10374 0.5 0.91149 0.0
C811 C 0.08425 0.48805 0.89072 0.0
C812 C 0.09331 0.51433 0.93522 0.0
C813 C 0.15446 0.50894 0.9312 0.0
C814 C 0.06954 0.50165 0.95101 0.0
C815 C 0.05916 0.51533 0.97256 0.0
C816 C 0.07215 0.54213 0.97879 0.0
C817 C 0.096 0.55473 0.9631 0.0
C818 C 0.10632 0.54109 0.94158 0.0
H819 H 0.17238 0.49899 0.93049 0.0
H820 H 0.16375 0.53031 0.9282 0.0
H821 H 0.14449 0.50662 0.9518 0.0
H822 H 0.05892 0.4811 0.94661 0.0
H823 H 0.04067 0.50502 0.98408 0.0
H824 H 0.7014 0.87894 0.92797 0.0
H825 H 0.6814 0.91616 0.94251 0.0
H826 H 0.6105 0.88794 0.88669 0.0
H827 H 0.63036 0.85046 0.87247 0.0
H828 H 0.66548 0.95695 0.91422 0.0
H829 H 0.57181 0.88843 0.96187 0.0
H830 H 0.60334 0.87809 0.95078 0.0
H831 H 0.57719 0.8818 0.92621 0.0
C832 C 0.68179 0.88102 0.91857 0.0
C833 C 0.66726 0.86208 0.89924 0.0
C834 C 0.67041 0.90221 0.92683 0.0
C835 C 0.64427 0.90458 0.91596 0.0
C836 C 0.63046 0.88623 0.89562 0.0
H837 H 0.53332 1.00429 0.97339 0.0
H838 H 0.5554 0.97537 0.94498 0.0
C839 C 0.64184 0.865 0.8874 0.0
C840 C 0.63068 0.92522 0.92727 0.0
H841 H 0.57312 0.93369 0.96459 0.0
C842 C 0.6452 0.95192 0.9251 0.0
C843 C 0.60427 0.91856 0.94152 0.0
C844 C 0.58828 0.89019 0.9455 0.0
C845 C 0.63399 0.97218 0.93686 0.0
C846 C 0.60785 0.96547 0.95154 0.0
C847 C 0.5931 0.93879 0.95323 0.0
C848 C 0.59595 0.98552 0.96657 0.0
C849 C 0.65016 1.00054 0.93337 0.0
C850 C 0.61154 1.00108 0.98799 0.0
C851 C 0.599 0.0177 1.0043 0.0
C852 C 0.5705 0.01889 0.99967 0.0
C853 C 0.55527 1.00387 0.97763 0.0
C854 C 0.56786 0.9873 0.96132 0.0
H855 H 0.66448 1.00261 0.91522 0.0
H856 H 0.63518 1.01346 0.93121 0.0
H857 H 0.66375 1.00762 0.95166 0.0
H858 H 0.63302 0.99961 0.99281 0.0
H859 H 0.61135 0.02887 0.02113 0.0
H860 H 0.83221 0.19595 0.41553 0.0
H861 H 0.86143 0.16563 0.42756 0.0
H862 H 0.84941 0.18233 0.51315 0.0
H863 H 0.81974 0.21204 0.50147 0.0
H864 H 0.90949 0.18631 0.493 0.0
H865 H 0.82977 0.09181 0.46531 0.0
H866 H 0.83654 0.11782 0.44113 0.0
H867 H 0.81913 0.12212 0.47289 0.0
C868 C 0.83561 0.19297 0.4369 0.0
C869 C 0.82379 0.20645 0.45757 0.0
C870 C 0.85231 0.17574 0.44369 0.0
C871 C 0.85734 0.17179 0.47119 0.0
C872 C 0.84573 0.18526 0.49181 0.0
H873 H 0.94929 0.0901 0.57152 0.0
H874 H 0.92111 0.11811 0.55204 0.0
C875 C 0.82898 0.20234 0.48509 0.0
C876 C 0.87504 0.15391 0.47881 0.0
H877 H 0.8737 0.08876 0.48409 0.0
C878 C 0.90184 0.16498 0.49091 0.0
C879 C 0.86486 0.12619 0.47583 0.0
C880 C 0.83595 0.11359 0.46321 0.0
C881 C 0.91871 0.14892 0.50056 0.0
C882 C 0.90805 0.12116 0.49858 0.0
C883 C 0.88162 0.11009 0.48571 0.0
C884 C 0.92377 0.10334 0.51044 0.0
C885 C 0.94778 0.1618 0.51274 0.0
C886 C 0.93353 0.08514 0.49358 0.0
C887 C 0.94933 0.06898 0.50469 0.0
C888 C 0.95551 0.07084 0.53278 0.0
C889 C 0.94492 0.08844 0.54977 0.0
C890 C 0.92905 0.10454 0.53866 0.0
H891 H 0.956 0.18234 0.50586 0.0
H892 H 0.94595 0.16267 0.53534 0.0
H893 H 0.9637 0.1503 0.50717 0.0
H894 H 0.92942 0.08383 0.47178 0.0
H895 H 0.95716 0.05541 0.49122 0.0
H896 H 0.33872 0.71211 0.15657 0.0
H897 H 0.29476 0.68697 0.13389 0.0
H898 H 0.2509 0.67859 0.21147 0.0
H899 H 0.29541 0.70304 0.23442 0.0
H900 H 0.23266 0.63461 0.18248 0.0
H901 H 0.22889 0.71518 0.11391 0.0
H902 H 0.26145 0.70473 0.1093 0.0
H903 H 0.25431 0.71963 0.14157 0.0
C904 C 0.31977 0.70482 0.16888 0.0
C905 C 0.32073 0.70989 0.19739 0.0
C906 C 0.2944 0.69059 0.15579 0.0
C907 C 0.26882 0.68143 0.17061 0.0
C908 C 0.27003 0.68553 0.19928 0.0
H909 H 0.1001 0.63857 0.08895 0.0
H910 H 0.14369 0.66027 0.11436 0.0
C911 C 0.29561 0.69949 0.21249 0.0
C912 C 0.24103 0.66778 0.15621 0.0
H913 H 0.19709 0.67332 0.10301 0.0
C914 C 0.22489 0.64321 0.16518 0.0
C915 C 0.23009 0.67894 0.13387 0.0
C916 C 0.24441 0.70619 0.12429 0.0
C917 C 0.19889 0.62945 0.15233 0.0
C918 C 0.18878 0.63997 0.12908 0.0
C919 C 0.20466 0.66478 0.12046 0.0
C920 C 0.16161 0.62611 0.11376 0.0
C921 C 0.18216 0.60411 0.1645 0.0
C922 C 0.15664 0.59953 0.10435 0.0
C923 C 0.13132 0.58688 0.09005 0.0
C924 C 0.11036 0.60055 0.08409 0.0
C925 C 0.1156 0.62728 0.093 0.0
C926 C 0.14071 0.63979 0.10763 0.0
H927 H 0.18727 0.60343 0.18651 0.0
H928 H 0.15866 0.60165 0.16242 0.0
H929 H 0.18806 0.58713 0.15378 0.0
H930 H 0.17253 0.5885 0.10774 0.0
H931 H 0.12838 0.56641 0.08334 0.0
H932 H 0.21654 0.40714 0.64553 0.0
H933 H 0.26154 0.43337 0.62703 0.0
H934 H 0.29465 0.45287 0.70873 0.0
H935 H 0.24967 0.42594 0.72747 0.0
H936 H 0.28959 0.48609 0.63365 0.0
H937 H 0.35771 0.42365 0.67252 0.0
H938 H 0.319 0.41314 0.67244 0.0
H939 H 0.33736 0.43667 0.69804 0.0
C940 C 0.2334 0.41686 0.65966 0.0
C941 C 0.22947 0.41401 0.68807 0.0
C942 C 0.25916 0.43204 0.649 0.0
C943 C 0.28191 0.44478 0.66635 0.0
C944 C 0.27777 0.44281 0.6948 0.0
H945 H 0.4585 0.53005 0.6207 0.0
H946 H 0.41448 0.51208 0.6469 0.0
C947 C 0.25185 0.42763 0.70553 0.0
C948 C 0.30977 0.45984 0.65433 0.0
H949 H 0.38112 0.46086 0.64798 0.0
C950 C 0.3096 0.48061 0.63692 0.0
C951 C 0.33608 0.45289 0.65855 0.0
C952 C 0.3377 0.43025 0.67621 0.0
C953 C 0.33471 0.49438 0.62357 0.0
C954 C 0.36083 0.48693 0.62715 0.0
C955 C 0.36121 0.46664 0.64513 0.0
C956 C 0.38752 0.49896 0.61136 0.0
C957 C 0.33298 0.51696 0.60588 0.0
C958 C 0.38731 0.49757 0.58262 0.0
C959 C 0.41238 0.50784 0.56766 0.0
C960 C 0.43848 0.51964 0.581 0.0
C961 C 0.43874 0.5212 0.60978 0.0
C962 C 0.41358 0.51085 0.62478 0.0
H963 H 0.31483 0.52555 0.61207 0.0
H964 H 0.35318 0.53288 0.60685 0.0
H965 H 0.32934 0.50956 0.58434 0.0
H966 H 0.36781 0.48801 0.57165 0.0
H967 H 0.4114 0.50613 0.54555 0.0
H968 H 0.80774 0.80211 0.88029 0.0
H969 H 0.83608 0.77449 0.89982 0.0
H970 H 0.75909 0.71273 0.91132 0.0
H971 H 0.73041 0.74021 0.89123 0.0
H972 H 0.8266 0.75271 0.95453 0.0
H973 H 0.81755 0.67615 0.87051 0.0
H974 H 0.81137 0.70826 0.86488 0.0
H975 H 0.78514 0.68412 0.8827 0.0
C976 C 0.79683 0.78249 0.88654 0.0
C977 C 0.76685 0.77324 0.88401 0.0
C978 C 0.81304 0.76682 0.89786 0.0
C979 C 0.79968 0.74155 0.90677 0.0
C980 C 0.76979 0.7321 0.90425 0.0
H981 H 0.89033 0.63052 0.97323 0.0
H982 H 0.85179 0.64956 0.9574 0.0
C983 C 0.75345 0.74787 0.89299 0.0
C984 C 0.81728 0.72576 0.9196 0.0
H985 H 0.84667 0.67323 0.90809 0.0
C986 C 0.8308 0.73518 0.94454 0.0
C987 C 0.82243 0.7028 0.90658 0.0
C988 C 0.80854 0.69215 0.87961 0.0
C989 C 0.84999 0.72263 0.95652 0.0
C990 C 0.85632 0.70043 0.94284 0.0
C991 C 0.84187 0.69032 0.91845 0.0
C992 C 0.87935 0.68871 0.95256 0.0
C993 C 0.86348 0.73341 0.98363 0.0
C994 C 0.90761 0.70431 0.95468 0.0
C995 C 0.92951 0.69363 0.96392 0.0
C996 C 0.92374 0.66696 0.9709 0.0
C997 C 0.89543 0.65122 0.96838 0.0
C998 C 0.87344 0.662 0.95918 0.0
H999 H 0.84991 0.74439 0.99527 0.0
H1000 H 0.86702 0.71736 0.99636 0.0
H1001 H 0.88456 0.74739 0.97997 0.0
H1002 H 0.91276 0.72483 0.94914 0.0
H1003 H 0.95095 0.70643 0.96589 0.0
H1004 H 0.4065 0.81924 0.23627 0.0
H1005 H 0.42753 0.86168 0.21582 0.0
H1006 H 0.41141 0.82487 0.13541 0.0
H1007 H 0.39052 0.78225 0.15568 0.0
H1008 H 0.47388 0.87808 0.18304 0.0
H1009 H 0.3775 0.88736 0.12693 0.0
H1010 H 0.37586 0.86294 0.15241 0.0
H1011 H 0.38808 0.85746 0.11835 0.0
C1012 C 0.40751 0.81995 0.21421 0.0
C1013 C 0.39654 0.79688 0.19782 0.0
C1014 C 0.4195 0.84448 0.20246 0.0
C1015 C 0.42079 0.84697 0.1739 0.0
C1016 C 0.41011 0.82397 0.15745 0.0
H1017 H 0.49097 0.9809 0.06705 0.0
H1018 H 0.46812 0.93757 0.08553 0.0
C1019 C 0.3981 0.79941 0.16918 0.0
C1020 C 0.43398 0.87338 0.16154 0.0
H1021 H 0.42102 0.91907 0.11785 0.0
C1022 C 0.46217 0.88702 0.16889 0.0
C1023 C 0.41907 0.88535 0.14285 0.0
C1024 C 0.38837 0.87269 0.13482 0.0
C1025 C 0.47582 0.9117 0.15798 0.0
C1026 C 0.46084 0.9238 0.13948 0.0
C1027 C 0.43271 0.91009 0.13196 0.0
C1028 C 0.47387 0.95066 0.12804 0.0
C1029 C 0.50658 0.92425 0.16594 0.0
C1030 C 0.48422 0.973 0.14547 0.0
C1031 C 0.49727 0.99782 0.13491 0.0
C1032 C 0.50023 1.00125 0.10652 0.0
C1033 C 0.48909 0.97912 0.089 0.0
C1034 C 0.47602 0.95423 0.0996 0.0
H1035 H 0.51756 0.90938 0.17317 0.0
H1036 H 0.51894 0.93449 0.14853 0.0
H1037 H 0.50696 0.939 0.18291 0.0
H1038 H 0.48226 0.97128 0.16742 0.0
H1039 H 0.50536 1.01435 0.14909 0.0
H1040 H 0.19601 0.31819 0.67278 0.0
H1041 H 0.17684 0.27546 0.64908 0.0
H1042 H 0.09097 0.28578 0.65804 0.0
H1043 H 0.10998 0.32843 0.68196 0.0
H1044 H 0.09166 0.23667 0.66982 0.0
H1045 H 0.14902 0.25972 0.57179 0.0
H1046 H 0.17295 0.26436 0.60046 0.0
H1047 H 0.14806 0.28483 0.59782 0.0
C1048 C 0.17306 0.31158 0.66945 0.0
C1049 C 0.15465 0.32704 0.67931 0.0
C1050 C 0.16207 0.28704 0.65575 0.0
C1051 C 0.13238 0.27733 0.65116 0.0
C1052 C 0.11395 0.29265 0.66115 0.0
H1053 H 0.05253 0.14574 0.53773 0.0
H1054 H 0.07223 0.18902 0.5603 0.0
C1055 C 0.12489 0.31711 0.67498 0.0
C1056 C 0.1204 0.251 0.6367 0.0
H1057 H 0.12516 0.21458 0.5779 0.0
C1058 C 0.09899 0.23194 0.64968 0.0
C1059 C 0.12944 0.24467 0.61016 0.0
C1060 C 0.1509 0.26455 0.5941 0.0
C1061 C 0.08685 0.20688 0.63725 0.0
C1062 C 0.09671 0.20016 0.61119 0.0
C1063 C 0.11774 0.21938 0.59798 0.0
C1064 C 0.0852 0.17353 0.59719 0.0
C1065 C 0.06302 0.18808 0.652 0.0
C1066 C 0.08627 0.1501 0.60995 0.0
C1067 C 0.07486 0.12524 0.59711 0.0
C1068 C 0.06231 0.12302 0.57094 0.0
C1069 C 0.06191 0.14652 0.55787 0.0
C1070 C 0.07324 0.17139 0.5708 0.0
H1071 H 0.05226 0.19871 0.6672 0.0
H1072 H 0.04658 0.17663 0.63745 0.0
H1073 H 0.07215 0.17398 0.66318 0.0
H1074 H 0.09601 0.151 0.62993 0.0
H1075 H 0.07584 0.10772 0.60781 0.0
H1076 H 0.75767 0.30712 0.53998 0.0
H1077 H 0.71502 0.32006 0.55794 0.0
H1078 H 0.6788 0.31093 0.4767 0.0
H1079 H 0.7212 0.29772 0.45893 0.0
H1080 H 0.69825 0.36327 0.54233 0.0
H1081 H 0.61037 0.27406 0.52233 0.0
H1082 H 0.64774 0.27322 0.52242 0.0
H1083 H 0.63201 0.28295 0.49247 0.0
C1084 C 0.74035 0.30766 0.52616 0.0
C1085 C 0.74236 0.30165 0.49821 0.0
C1086 C 0.71606 0.31487 0.53639 0.0
C1087 C 0.69353 0.3159 0.51874 0.0
C1088 C 0.69557 0.30952 0.49079 0.0
H1089 H 0.56893 0.3928 0.4883 0.0
H1090 H 0.59814 0.36127 0.49307 0.0
C1091 C 0.71984 0.30232 0.48059 0.0
C1092 C 0.66947 0.32663 0.52867 0.0
H1093 H 0.59663 0.31584 0.52509 0.0
C1094 C 0.67597 0.35271 0.53931 0.0
C1095 C 0.64048 0.31268 0.52483 0.0
C1096 C 0.63223 0.28407 0.51516 0.0
C1097 C 0.65435 0.36603 0.54395 0.0
C1098 C 0.62549 0.35267 0.53818 0.0
C1099 C 0.6188 0.32599 0.52941 0.0
C1100 C 0.60299 0.36731 0.53691 0.0
C1101 C 0.6628 0.39488 0.55293 0.0
C1102 C 0.59503 0.38021 0.56021 0.0
C1103 C 0.57827 0.39833 0.55754 0.0
C1104 C 0.56918 0.40361 0.53156 0.0
C1105 C 0.57538 0.38905 0.50861 0.0
C1106 C 0.59213 0.37104 0.51129 0.0
H1107 H 0.68646 0.40309 0.55294 0.0
H1108 H 0.65299 0.40674 0.5393 0.0
H1109 H 0.65482 0.39723 0.57398 0.0
H1110 H 0.6029 0.37723 0.58021 0.0
H1111 H 0.57337 0.40894 0.57564 0.0
loop_
_geom_bond_atom_site_label_1
_geom_bond_atom_site_label_2
_geom_bond_distance
_geom_bond_site_symmetry_2
_ccdc_geom_bond_type
H0 C3 0.929 . S
H1 C6 0.929 . S
H2 C8 0.930 . S
C3 H0 0.929 . S
C3 C4 1.398 . S
C3 C5 1.396 . S
C4 C3 1.398 . S
C4 C8 1.407 . S
C5 C3 1.396 . S
C5 C6 1.394 . S
C6 H1 0.929 . S
C6 C5 1.394 . S
C6 C7 1.382 . S
C7 C6 1.382 . S
C7 C8 1.392 . S
C7 N9 1.420 . S
C8 H2 0.930 . S
C8 C4 1.407 . S
C8 C7 1.392 . S
N9 C7 1.420 . S
N9 C10 1.244 . S
C10 N9 1.244 . S
H11 C14 0.929 . S
H12 C17 0.929 . S
H13 C19 0.930 . S
C14 H11 0.929 . S
C14 C15 1.398 . S
C14 C16 1.396 . S
C15 C14 1.398 . S
C15 C19 1.407 . S
C16 C14 1.396 . S
C16 C17 1.394 . S
C17 H12 0.929 . S
C17 C16 1.394 . S
C17 C18 1.382 . S
C18 C17 1.382 . S
C18 C19 1.392 . S
C18 N20 1.420 . S
C19 H13 0.930 . S
C19 C15 1.407 . S
C19 C18 1.392 . S
N20 C18 1.420 . S
N20 C21 1.244 . S
C21 N20 1.244 . S
H22 C25 0.929 . S
H23 C28 0.929 . S
H24 C30 0.930 . S
C25 H22 0.929 . S
C25 C26 1.398 . S
C25 C27 1.396 . S
C26 C25 1.398 . S
C26 C30 1.407 . S
C27 C25 1.396 . S
C27 C28 1.394 . S
C28 H23 0.929 . S
C28 C27 1.394 . S
C28 C29 1.382 . S
C29 C28 1.382 . S
C29 C30 1.392 . S
C29 N31 1.420 . S
C30 H24 0.930 . S
C30 C26 1.407 . S
C30 C29 1.392 . S
N31 C29 1.420 . S
N31 C32 1.244 . S
C32 N31 1.244 . S
H33 C36 0.929 . S
H34 C39 0.929 . S
H35 C41 0.930 . S
C36 H33 0.929 . S
C36 C37 1.398 . S
C36 C38 1.396 . S
C37 C36 1.398 . S
C37 C41 1.407 . S
C38 C36 1.396 . S
C38 C39 1.394 . S
C39 H34 0.929 . S
C39 C38 1.394 . S
C39 C40 1.382 . S
C40 C39 1.382 . S
C40 C41 1.392 . S
C40 N42 1.420 . S
C41 H35 0.930 . S
C41 C37 1.407 . S
C41 C40 1.392 . S
N42 C40 1.420 . S
N42 C43 1.244 . S
C43 N42 1.244 . S
H44 C47 0.929 . S
H45 C50 0.929 . S
H46 C52 0.930 . S
C47 H44 0.929 . S
C47 C48 1.398 . S
C47 C49 1.396 . S
C48 C47 1.398 . S
C48 C52 1.407 . S
C49 C47 1.396 . S
C49 C50 1.394 . S
C50 H45 0.929 . S
C50 C49 1.394 . S
C50 C51 1.382 . S
C51 C50 1.382 . S
C51 C52 1.392 . S
C51 N53 1.420 . S
C52 H46 0.930 . S
C52 C48 1.407 . S
C52 C51 1.392 . S
N53 C51 1.420 . S
N53 C54 1.244 . S
C54 N53 1.244 . S
H55 C58 0.929 . S
H56 C61 0.929 . S
H57 C63 0.930 . S
C58 H55 0.929 . S
C58 C59 1.398 . S
C58 C60 1.396 . S
C59 C58 1.398 . S
C59 C63 1.407 . S
C60 C58 1.396 . S
C60 C61 1.394 . S
C61 H56 0.929 . S
C61 C60 1.394 . S
C61 C62 1.382 . S
C62 C61 1.382 . S
C62 C63 1.392 . S
C62 N64 1.420 . S
C63 H57 0.930 . S
C63 C59 1.407 . S
C63 C62 1.392 . S
N64 C62 1.420 . S
N64 C65 1.244 . S
C65 N64 1.244 . S
H66 C69 0.929 . S
H67 C72 0.929 . S
H68 C74 0.930 . S
C69 H66 0.929 . S
C69 C70 1.398 . S
C69 C71 1.396 . S
C70 C69 1.398 . S
C70 C74 1.407 . S
C71 C69 1.396 . S
C71 C72 1.394 . S
C72 H67 0.929 . S
C72 C71 1.394 . S
C72 C73 1.382 . S
C73 C72 1.382 . S
C73 C74 1.392 . S
C73 N75 1.420 . S
C74 H68 0.930 . S
C74 C70 1.407 . S
C74 C73 1.392 . S
N75 C73 1.420 . S
N75 C76 1.244 . S
C76 N75 1.244 . S
H77 C80 0.929 . S
H78 C83 0.929 . S
H79 C85 0.930 . S
C80 H77 0.929 . S
C80 C81 1.398 . S
C80 C82 1.396 . S
C81 C80 1.398 . S
C81 C85 1.407 . S
C82 C80 1.396 . S
C82 C83 1.394 . S
C83 H78 0.929 . S
C83 C82 1.394 . S
C83 C84 1.382 . S
C84 C83 1.382 . S
C84 C85 1.392 . S
C84 N86 1.420 . S
C85 H79 0.930 . S
C85 C81 1.407 . S
C85 C84 1.392 . S
N86 C84 1.420 . S
N86 C87 1.244 . S
C87 N86 1.244 . S
Ho88 C91 2.811 . S
Ho88 O108 2.322 . S
Ho88 O110 2.378 . S
Ho88 O111 2.524 . S
Ho88 O112 2.381 . S
Ho88 O113 2.669 . S
Ho88 O115 2.346 1_545 S
Ho88 O119 2.305 1_455 S
Ho89 C100 2.811 1_545 S
Ho89 O109 2.346 1_655 S
Ho89 O113 2.305 1_655 S
Ho89 O114 2.322 1_545 S
Ho89 O116 2.372 1_545 S
Ho89 O117 2.524 1_545 S
Ho89 O118 2.381 . S
Ho89 O119 2.669 . S
C90 O108 1.259 . S
C90 O109 1.268 . S
C91 Ho88 2.811 . S
C91 C92 1.488 . S
C91 O110 1.215 . S
C91 O111 1.289 . S
C92 C91 1.488 . S
C92 C93 1.348 . S
C92 C97 1.413 . S
C93 C92 1.348 . S
C93 C94 1.442 . S
C93 H120 0.930 . S
C94 C93 1.442 . S
C94 C95 1.381 . S
C94 H121 0.931 . S
C95 C94 1.381 . S
C95 C96 1.321 . S
C96 C95 1.321 . S
C96 C97 1.403 . S
C96 H122 0.934 . S
C97 C92 1.413 . S
C97 C96 1.403 . S
C97 H123 0.930 . S
C98 O112 1.275 . S
C98 O113 1.256 . S
C99 O114 1.259 . S
C99 O115 1.268 1_655 S
C100 Ho89 2.811 1_565 S
C100 C101 1.488 . S
C100 O116 1.232 . S
C100 O117 1.289 . S
C101 C100 1.488 . S
C101 C102 1.348 . S
C101 C106 1.413 . S
C102 C101 1.348 . S
C102 C103 1.442 . S
C102 H124 0.930 . S
C103 C102 1.442 . S
C103 C104 1.381 . S
C103 H125 0.931 . S
C104 C103 1.381 . S
C104 C105 1.321 . S
C105 C104 1.321 . S
C105 C106 1.403 . S
C105 H126 0.934 . S
C106 C101 1.413 . S
C106 C105 1.403 . S
C106 H127 0.930 . S
C107 O118 1.275 . S
C107 O119 1.256 . S
O108 Ho88 2.322 . S
O108 C90 1.259 . S
O109 Ho89 2.346 1_455 S
O109 C90 1.268 . S
O110 Ho88 2.378 . S
O110 C91 1.215 . S
O111 Ho88 2.524 . S
O111 C91 1.289 . S
O112 Ho88 2.381 . S
O112 C98 1.275 . S
O113 Ho88 2.669 . S
O113 Ho89 2.305 1_455 S
O113 C98 1.256 . S
O114 Ho89 2.322 1_565 S
O114 C99 1.259 . S
O115 Ho88 2.346 1_565 S
O115 C99 1.268 1_455 S
O116 Ho89 2.372 1_565 S
O116 C100 1.232 . S
O117 Ho89 2.524 1_565 S
O117 C100 1.289 . S
O118 Ho89 2.381 . S
O118 C107 1.275 . S
O119 Ho88 2.305 1_655 S
O119 Ho89 2.669 . S
O119 C107 1.256 . S
H120 C93 0.930 . S
H121 C94 0.931 . S
H122 C96 0.934 . S
H123 C97 0.930 . S
H124 C102 0.930 . S
H125 C103 0.931 . S
H126 C105 0.934 . S
H127 C106 0.930 . S
Ho128 C131 2.811 . S
Ho128 O148 2.322 . S
Ho128 O150 2.378 . S
Ho128 O151 2.524 . S
Ho128 O152 2.381 1_545 S
Ho128 O153 2.669 . S
Ho128 O155 2.346 . S
Ho128 O159 2.305 . S
Ho129 C140 2.811 1_544 S
Ho129 O149 2.346 . S
Ho129 O153 2.305 . S
Ho129 O154 2.322 . S
Ho129 O156 2.378 1_554 S
Ho129 O157 2.524 1_544 S
Ho129 O158 2.398 . S
Ho129 O159 2.669 . S
C130 O148 1.259 . S
C130 O149 1.268 . S
C131 Ho128 2.811 . S
C131 C132 1.488 . S
C131 O150 1.215 . S
C131 O151 1.289 . S
C132 C131 1.488 . S
C132 C133 1.348 . S
C132 C137 1.413 . S
C133 C132 1.348 . S
C133 C134 1.442 . S
C133 H160 0.930 . S
C134 C133 1.442 . S
C134 C135 1.381 . S
C134 H161 0.931 . S
C135 C134 1.381 . S
C135 C136 1.321 . S
C136 C135 1.321 . S
C136 C137 1.403 . S
C136 H162 0.934 . S
C137 C132 1.413 . S
C137 C136 1.403 . S
C137 H163 0.930 . S
C138 O152 1.275 . S
C138 O153 1.256 1_565 S
C139 O154 1.260 . S
C139 O155 1.268 . S
C140 Ho129 2.811 1_566 S
C140 C141 1.488 . S
C140 O156 1.215 1_565 S
C140 O157 1.289 . S
C141 C140 1.488 . S
C141 C142 1.348 . S
C141 C146 1.413 . S
C142 C141 1.348 . S
C142 C143 1.442 . S
C142 H164 0.930 . S
C143 C142 1.442 . S
C143 C144 1.381 . S
C143 H165 0.931 . S
C144 C143 1.381 . S
C144 C145 1.321 . S
C145 C144 1.321 . S
C145 C146 1.403 . S
C145 H166 0.934 . S
C146 C141 1.413 . S
C146 C145 1.403 . S
C146 H167 0.930 1_565 S
C147 O158 1.303 . S
C147 O159 1.256 . S
O148 Ho128 2.322 . S
O148 C130 1.259 . S
O149 Ho129 2.346 . S
O149 C130 1.268 . S
O150 Ho128 2.378 . S
O150 C131 1.215 . S
O151 Ho128 2.524 . S
O151 C131 1.289 . S
O152 Ho128 2.381 1_565 S
O152 C138 1.275 . S
O153 Ho128 2.669 . S
O153 Ho129 2.305 . S
O153 C138 1.256 1_545 S
O154 Ho129 2.322 . S
O154 C139 1.260 . S
O155 Ho128 2.346 . S
O155 C139 1.268 . S
O156 Ho129 2.378 1_556 S
O156 C140 1.215 1_545 S
O157 Ho129 2.524 1_566 S
O157 C140 1.289 . S
O158 Ho129 2.398 . S
O158 C147 1.303 . S
O159 Ho128 2.305 . S
O159 Ho129 2.669 . S
O159 C147 1.256 . S
H160 C133 0.930 . S
H161 C134 0.931 . S
H162 C136 0.934 . S
H163 C137 0.930 . S
H164 C142 0.930 . S
H165 C143 0.931 . S
H166 C145 0.934 . S
H167 C146 0.930 1_545 S
Ho168 C171 2.811 . S
Ho168 O188 2.322 . S
Ho168 O190 2.378 . S
Ho168 O191 2.524 . S
Ho168 O192 2.381 . S
Ho168 O193 2.669 . S
Ho168 O195 2.346 . S
Ho168 O199 2.305 . S
Ho169 C180 2.811 . S
Ho169 O189 2.346 . S
Ho169 O193 2.305 . S
Ho169 O194 2.322 . S
Ho169 O196 2.378 . S
Ho169 O197 2.524 . S
Ho169 O198 2.381 . S
Ho169 O199 2.669 . S
C170 O188 1.259 . S
C170 O189 1.268 . S
C171 Ho168 2.811 . S
C171 C172 1.488 . S
C171 O190 1.215 . S
C171 O191 1.289 . S
C172 C171 1.488 . S
C172 C173 1.348 . S
C172 C177 1.413 . S
C173 C172 1.348 . S
C173 C174 1.442 . S
C173 H200 0.930 . S
C174 C173 1.442 . S
C174 C175 1.381 . S
C174 H201 0.931 . S
C175 C174 1.381 . S
C175 C176 1.321 . S
C176 C175 1.321 . S
C176 C177 1.403 . S
C176 H202 0.934 . S
C177 C172 1.413 . S
C177 C176 1.403 . S
C177 H203 0.930 . S
C178 O192 1.275 . S
C178 O193 1.256 . S
C179 O194 1.259 . S
C179 O195 1.268 . S
C180 Ho169 2.811 . S
C180 C181 1.488 . S
C180 O196 1.215 . S
C180 O197 1.289 . S
C181 C180 1.488 . S
C181 C182 1.348 . S
C181 C186 1.413 . S
C182 C181 1.348 . S
C182 C183 1.442 . S
C182 H204 0.930 . S
C183 C182 1.442 . S
C183 C184 1.381 . S
C183 H205 0.931 . S
C184 C183 1.381 . S
C184 C185 1.321 . S
C185 C184 1.321 . S
C185 C186 1.403 . S
C185 H206 0.934 . S
C186 C181 1.413 . S
C186 C185 1.403 . S
C186 H207 0.930 . S
C187 O198 1.275 . S
C187 O199 1.256 . S
O188 Ho168 2.322 . S
O188 C170 1.259 . S
O189 Ho169 2.346 . S
O189 C170 1.268 . S
O190 Ho168 2.378 . S
O190 C171 1.215 . S
O191 Ho168 2.524 . S
O191 C171 1.289 . S
O192 Ho168 2.381 . S
O192 C178 1.275 . S
O193 Ho168 2.669 . S
O193 Ho169 2.305 . S
O193 C178 1.256 . S
O194 Ho169 2.322 . S
O194 C179 1.259 . S
O195 Ho168 2.346 . S
O195 C179 1.268 . S
O196 Ho169 2.378 . S
O196 C180 1.215 . S
O197 Ho169 2.524 . S
O197 C180 1.289 . S
O198 Ho169 2.381 . S
O198 C187 1.275 . S
O199 Ho168 2.305 . S
O199 Ho169 2.669 . S
O199 C187 1.256 . S
H200 C173 0.930 . S
H201 C174 0.931 . S
H202 C176 0.934 . S
H203 C177 0.930 . S
H204 C182 0.930 . S
H205 C183 0.931 . S
H206 C185 0.934 . S
H207 C186 0.930 . S
Ho208 C211 2.811 . S
Ho208 O228 2.322 . S
Ho208 O230 2.378 . S
Ho208 O231 2.524 . S
Ho208 O232 2.381 . S
Ho208 O233 2.669 . S
Ho208 O235 2.346 1_455 S
Ho208 O239 2.305 1_554 S
Ho209 C220 2.811 1_455 S
Ho209 O229 2.346 1_556 S
Ho209 O233 2.305 1_556 S
Ho209 O234 2.322 1_455 S
Ho209 O236 2.378 . S
Ho209 O237 2.524 1_455 S
Ho209 O238 2.381 . S
Ho209 O239 2.669 . S
C210 O228 1.259 . S
C210 O229 1.268 . S
C211 Ho208 2.811 . S
C211 C212 1.488 . S
C211 O230 1.215 . S
C211 O231 1.289 . S
C212 C211 1.488 . S
C212 C213 1.348 . S
C212 C217 1.413 . S
C213 C212 1.348 . S
C213 C214 1.442 . S
C213 H240 0.930 . S
C214 C213 1.442 . S
C214 C215 1.381 . S
C214 H241 0.931 . S
C215 C214 1.381 . S
C215 C216 1.321 . S
C216 C215 1.321 . S
C216 C217 1.403 . S
C216 H242 0.934 . S
C217 C212 1.413 . S
C217 C216 1.403 . S
C217 H243 0.930 . S
C218 O232 1.275 . S
C218 O233 1.256 . S
C219 O234 1.259 . S
C219 O235 1.268 1_556 S
C220 Ho209 2.811 1_655 S
C220 C221 1.488 . S
C220 O236 1.215 1_655 S
C220 O237 1.289 . S
C221 C220 1.488 . S
C221 C222 1.348 . S
C221 C226 1.413 . S
C222 C221 1.348 . S
C222 C223 1.442 . S
C222 H244 0.930 . S
C223 C222 1.442 . S
C223 C224 1.381 . S
C223 H245 0.931 . S
C224 C223 1.381 . S
C224 C225 1.321 . S
C225 C224 1.321 . S
C225 C226 1.403 . S
C225 H246 0.934 . S
C226 C221 1.413 . S
C226 C225 1.403 . S
C226 H247 0.930 . S
C227 O238 1.275 . S
C227 O239 1.256 . S
O228 Ho208 2.322 . S
O228 C210 1.259 . S
O229 Ho209 2.346 1_554 S
O229 C210 1.268 . S
O230 Ho208 2.378 . S
O230 C211 1.215 . S
O231 Ho208 2.524 . S
O231 C211 1.289 . S
O232 Ho208 2.381 . S
O232 C218 1.275 . S
O233 Ho208 2.669 . S
O233 Ho209 2.305 1_554 S
O233 C218 1.256 . S
O234 Ho209 2.322 1_655 S
O234 C219 1.259 . S
O235 Ho208 2.346 1_655 S
O235 C219 1.268 1_554 S
O236 Ho209 2.378 . S
O236 C220 1.215 1_455 S
O237 Ho209 2.524 1_655 S
O237 C220 1.289 . S
O238 Ho209 2.381 . S
O238 C227 1.275 . S
O239 Ho208 2.305 1_556 S
O239 Ho209 2.669 . S
O239 C227 1.256 . S
H240 C213 0.930 . S
H241 C214 0.931 . S
H242 C216 0.934 . S
H243 C217 0.930 . S
H244 C222 0.930 . S
H245 C223 0.931 . S
H246 C225 0.934 . S
H247 C226 0.930 . S
H248 C256 0.929 . S
H249 C258 0.930 . S
H250 C260 0.930 . S
H251 C263 0.929 . S
H252 C266 0.930 . S
H253 C268 0.960 . S
H254 C268 0.960 . S
H255 C268 0.960 . S
C256 H248 0.929 . S
C256 C257 1.377 . S
C256 C258 1.384 . S
C257 C256 1.377 . S
C257 C263 1.390 . S
C258 H249 0.930 . S
C258 C256 1.384 . S
C258 C259 1.372 . S
C259 C258 1.372 . S
C259 C260 1.400 . S
C259 C264 1.490 . S
C260 H250 0.930 . S
C260 C259 1.400 . S
C260 C263 1.386 . S
H261 C277 0.930 . S
H262 C278 0.931 . S
C263 H251 0.929 . S
C263 C257 1.390 . S
C263 C260 1.386 . S
C264 C259 1.490 . S
C264 C266 1.395 . S
C264 C267 1.403 . S
H265 C271 0.930 . S
C266 H252 0.930 . S
C266 C264 1.395 . S
C266 C269 1.403 . S
C267 C264 1.403 . S
C267 C268 1.524 . S
C267 C271 1.400 . S
C268 H253 0.960 . S
C268 H254 0.960 . S
C268 H255 0.960 . S
C268 C267 1.524 . S
C269 C266 1.403 . S
C269 C270 1.392 . S
C269 C273 1.495 . S
C270 C269 1.392 . S
C270 C271 1.385 . S
C270 C272 1.478 . S
C271 H265 0.930 . S
C271 C267 1.400 . S
C271 C270 1.385 . S
C272 C270 1.478 . S
C272 C274 1.381 . S
C272 C278 1.383 . S
C273 C269 1.495 . S
C273 H279 0.959 . S
C273 H280 0.961 . S
C273 H281 0.960 . S
C274 C272 1.381 . S
C274 C275 1.394 . S
C274 H282 0.930 . S
C275 C274 1.394 . S
C275 C276 1.383 . S
C275 H283 0.929 . S
C276 C275 1.383 . S
C276 C277 1.377 . S
C277 H261 0.930 . S
C277 C276 1.377 . S
C277 C278 1.379 . S
C278 H262 0.931 . S
C278 C272 1.383 . S
C278 C277 1.379 . S
H279 C273 0.959 . S
H280 C273 0.961 . S
H281 C273 0.960 . S
H282 C274 0.930 . S
H283 C275 0.929 . S
H284 C292 0.929 . S
H285 C294 0.930 . S
H286 C296 0.930 . S
H287 C299 0.929 . S
H288 C302 0.930 . S
H289 C304 0.960 . S
H290 C304 0.960 . S
H291 C304 0.960 . S
C292 H284 0.929 . S
C292 C293 1.377 . S
C292 C294 1.384 . S
C293 C292 1.377 . S
C293 C299 1.390 . S
C294 H285 0.930 . S
C294 C292 1.384 . S
C294 C295 1.372 . S
C295 C294 1.372 . S
C295 C296 1.400 . S
C295 C300 1.490 . S
C296 H286 0.930 . S
C296 C295 1.400 . S
C296 C299 1.386 . S
H297 C313 0.930 . S
H298 C314 0.931 . S
C299 H287 0.929 . S
C299 C293 1.390 . S
C299 C296 1.386 . S
C300 C295 1.490 . S
C300 C302 1.395 . S
C300 C303 1.403 . S
H301 C307 0.930 . S
C302 H288 0.930 . S
C302 C300 1.395 . S
C302 C305 1.403 . S
C303 C300 1.403 . S
C303 C304 1.524 . S
C303 C307 1.400 . S
C304 H289 0.960 . S
C304 H290 0.960 . S
C304 H291 0.960 . S
C304 C303 1.524 . S
C305 C302 1.403 . S
C305 C306 1.392 . S
C305 C309 1.495 . S
C306 C305 1.392 . S
C306 C307 1.385 . S
C306 C308 1.478 . S
C307 H301 0.930 . S
C307 C303 1.400 . S
C307 C306 1.385 . S
C308 C306 1.478 . S
C308 C310 1.381 . S
C308 C314 1.383 . S
C309 C305 1.495 . S
C309 H315 0.959 . S
C309 H316 0.961 . S
C309 H317 0.960 . S
C310 C308 1.381 . S
C310 C311 1.394 . S
C310 H318 0.930 . S
C311 C310 1.394 . S
C311 C312 1.383 . S
C311 H319 0.929 . S
C312 C311 1.383 . S
C312 C313 1.377 . S
C313 H297 0.930 . S
C313 C312 1.377 . S
C313 C314 1.379 . S
C314 H298 0.931 . S
C314 C308 1.383 . S
C314 C313 1.379 . S
H315 C309 0.959 . S
H316 C309 0.961 . S
H317 C309 0.960 . S
H318 C310 0.930 . S
H319 C311 0.929 . S
H320 C328 0.929 . S
H321 C330 0.930 . S
H322 C332 0.930 . S
H323 C335 0.929 . S
H324 C338 0.930 . S
H325 C340 0.960 . S
H326 C340 0.960 . S
H327 C340 0.960 . S
C328 H320 0.929 . S
C328 C329 1.377 . S
C328 C330 1.384 . S
C329 C328 1.377 . S
C329 C335 1.390 . S
C330 H321 0.930 . S
C330 C328 1.384 . S
C330 C331 1.372 . S
C331 C330 1.372 . S
C331 C332 1.400 . S
C331 C336 1.490 . S
C332 H322 0.930 . S
C332 C331 1.400 . S
C332 C335 1.386 . S
H333 C349 0.930 . S
H334 C350 0.931 . S
C335 H323 0.929 . S
C335 C329 1.390 . S
C335 C332 1.386 . S
C336 C331 1.490 . S
C336 C338 1.395 . S
C336 C339 1.403 . S
H337 C343 0.930 . S
C338 H324 0.930 . S
C338 C336 1.395 . S
C338 C341 1.403 . S
C339 C336 1.403 . S
C339 C340 1.524 . S
C339 C343 1.400 . S
C340 H325 0.960 . S
C340 H326 0.960 . S
C340 H327 0.960 . S
C340 C339 1.524 . S
C341 C338 1.403 . S
C341 C342 1.392 . S
C341 C345 1.495 . S
C342 C341 1.392 . S
C342 C343 1.385 . S
C342 C344 1.478 . S
C343 H337 0.930 . S
C343 C339 1.400 . S
C343 C342 1.385 . S
C344 C342 1.478 . S
C344 C346 1.381 . S
C344 C350 1.383 . S
C345 C341 1.495 . S
C345 H351 0.959 . S
C345 H352 0.961 . S
C345 H353 0.960 . S
C346 C344 1.381 . S
C346 C347 1.394 . S
C346 H354 0.930 . S
C347 C346 1.394 . S
C347 C348 1.383 . S
C347 H355 0.929 . S
C348 C347 1.383 . S
C348 C349 1.377 . S
C349 H333 0.930 . S
C349 C348 1.377 . S
C349 C350 1.379 . S
C350 H334 0.931 . S
C350 C344 1.383 . S
C350 C349 1.379 . S
H351 C345 0.959 . S
H352 C345 0.961 . S
H353 C345 0.960 . S
H354 C346 0.930 . S
H355 C347 0.929 . S
H356 C364 0.929 . S
H357 C366 0.930 . S
H358 C368 0.930 . S
H359 C371 0.929 . S
H360 C374 0.930 . S
H361 C376 0.960 . S
H362 C376 0.960 . S
H363 C376 0.960 . S
C364 H356 0.929 . S
C364 C365 1.377 . S
C364 C366 1.384 . S
C365 C364 1.377 . S
C365 C371 1.390 . S
C366 H357 0.930 . S
C366 C364 1.384 . S
C366 C367 1.372 . S
C367 C366 1.372 . S
C367 C368 1.400 . S
C367 C372 1.490 . S
C368 H358 0.930 . S
C368 C367 1.400 . S
C368 C371 1.386 . S
H369 C385 0.930 . S
H370 C386 0.931 . S
C371 H359 0.929 . S
C371 C365 1.390 . S
C371 C368 1.386 . S
C372 C367 1.490 . S
C372 C374 1.395 . S
C372 C375 1.403 . S
H373 C379 0.930 . S
C374 H360 0.930 . S
C374 C372 1.395 . S
C374 C377 1.403 . S
C375 C372 1.403 . S
C375 C376 1.524 . S
C375 C379 1.400 . S
C376 H361 0.960 . S
C376 H362 0.960 . S
C376 H363 0.960 . S
C376 C375 1.524 . S
C377 C374 1.403 . S
C377 C378 1.392 . S
C377 C381 1.495 1_655 S
C378 C377 1.392 . S
C378 C379 1.385 . S
C378 C380 1.478 . S
C379 H373 0.930 . S
C379 C375 1.400 . S
C379 C378 1.385 . S
C380 C378 1.478 . S
C380 C382 1.381 . S
C380 C386 1.383 . S
C381 C377 1.495 1_455 S
C381 H387 0.959 . S
C381 H388 0.961 . S
C381 H389 0.960 . S
C382 C380 1.381 . S
C382 C383 1.394 . S
C382 H390 0.930 . S
C383 C382 1.394 . S
C383 C384 1.383 . S
C383 H391 0.920 1_655 S
C384 C383 1.383 . S
C384 C385 1.377 . S
C385 H369 0.930 . S
C385 C384 1.377 . S
C385 C386 1.379 . S
C386 H370 0.931 . S
C386 C380 1.383 . S
C386 C385 1.379 . S
H387 C381 0.959 . S
H388 C381 0.961 . S
H389 C381 0.960 . S
H390 C382 0.930 . S
H391 C383 0.920 1_455 S
H392 C400 0.929 . S
H393 C402 0.930 . S
H394 C404 0.930 . S
H395 C407 0.929 . S
H396 C410 0.930 . S
H397 C412 0.960 . S
H398 C412 0.960 . S
H399 C412 0.960 . S
C400 H392 0.929 . S
C400 C401 1.377 . S
C400 C402 1.384 . S
C401 C400 1.377 . S
C401 C407 1.390 . S
C402 H393 0.930 . S
C402 C400 1.384 . S
C402 C403 1.372 . S
C403 C402 1.372 . S
C403 C404 1.400 . S
C403 C408 1.490 . S
C404 H394 0.930 . S
C404 C403 1.400 . S
C404 C407 1.386 . S
H405 C421 0.930 . S
H406 C422 0.931 . S
C407 H395 0.929 . S
C407 C401 1.390 . S
C407 C404 1.386 . S
C408 C403 1.490 . S
C408 C410 1.395 . S
C408 C411 1.403 . S
H409 C415 0.930 . S
C410 H396 0.930 . S
C410 C408 1.395 . S
C410 C413 1.403 . S
C411 C408 1.403 . S
C411 C412 1.524 . S
C411 C415 1.400 . S
C412 H397 0.960 . S
C412 H398 0.960 . S
C412 H399 0.960 . S
C412 C411 1.524 . S
C413 C410 1.403 . S
C413 C414 1.392 . S
C413 C417 1.495 . S
C414 C413 1.392 . S
C414 C415 1.385 . S
C414 C416 1.478 . S
C415 H409 0.930 . S
C415 C411 1.400 . S
C415 C414 1.385 . S
C416 C414 1.478 . S
C416 C418 1.381 . S
C416 C422 1.383 . S
C417 C413 1.495 . S
C417 H423 0.959 . S
C417 H424 0.961 . S
C417 H425 0.960 . S
C418 C416 1.381 . S
C418 C419 1.394 . S
C418 H426 0.930 . S
C419 C418 1.394 . S
C419 C420 1.383 . S
C419 H427 0.929 . S
C420 C419 1.383 . S
C420 C421 1.377 . S
C421 H405 0.930 . S
C421 C420 1.377 . S
C421 C422 1.379 . S
C422 H406 0.931 . S
C422 C416 1.383 . S
C422 C421 1.379 . S
H423 C417 0.959 . S
H424 C417 0.961 . S
H425 C417 0.960 . S
H426 C418 0.930 . S
H427 C419 0.929 . S
H428 C436 0.929 . S
H429 C438 0.930 . S
H430 C440 0.930 . S
H431 C443 0.929 . S
H432 C446 0.930 . S
H433 C448 0.960 . S
H434 C448 0.960 . S
H435 C448 0.960 . S
C436 H428 0.929 . S
C436 C437 1.377 . S
C436 C438 1.384 . S
C437 C436 1.377 . S
C437 C443 1.390 . S
C438 H429 0.930 . S
C438 C436 1.384 . S
C438 C439 1.372 . S
C439 C438 1.372 . S
C439 C440 1.400 . S
C439 C444 1.490 . S
C440 H430 0.930 . S
C440 C439 1.400 . S
C440 C443 1.386 . S
H441 C457 0.930 . S
H442 C458 0.931 . S
C443 H431 0.929 . S
C443 C437 1.390 . S
C443 C440 1.386 . S
C444 C439 1.490 . S
C444 C446 1.395 . S
C444 C447 1.403 . S
H445 C451 0.930 . S
C446 H432 0.930 . S
C446 C444 1.395 . S
C446 C449 1.403 . S
C447 C444 1.403 . S
C447 C448 1.524 . S
C447 C451 1.400 . S
C448 H433 0.960 . S
C448 H434 0.960 . S
C448 H435 0.960 . S
C448 C447 1.524 . S
C449 C446 1.403 . S
C449 C450 1.392 . S
C449 C453 1.495 . S
C450 C449 1.392 . S
C450 C451 1.385 . S
C450 C452 1.478 . S
C451 H445 0.930 . S
C451 C447 1.400 . S
C451 C450 1.385 . S
C452 C450 1.478 . S
C452 C454 1.381 . S
C452 C458 1.383 1_565 S
C453 C449 1.495 . S
C453 H459 0.959 . S
C453 H460 0.961 . S
C453 H461 0.960 . S
C454 C452 1.381 . S
C454 C455 1.394 . S
C454 H462 0.930 . S
C455 C454 1.394 . S
C455 C456 1.383 1_565 S
C455 H463 0.929 . S
C456 C455 1.383 1_545 S
C456 C457 1.377 . S
C457 H441 0.930 . S
C457 C456 1.377 . S
C457 C458 1.379 . S
C458 H442 0.931 . S
C458 C452 1.383 1_545 S
C458 C457 1.379 . S
H459 C453 0.959 . S
H460 C453 0.961 . S
H461 C453 0.960 . S
H462 C454 0.930 . S
H463 C455 0.929 . S
H464 C472 0.929 . S
H465 C474 0.930 . S
H466 C476 0.930 . S
H467 C479 0.929 . S
H468 C482 0.930 . S
H469 C484 0.960 . S
H470 C484 0.960 . S
H471 C484 0.960 . S
C472 H464 0.929 . S
C472 C473 1.377 . S
C472 C474 1.384 . S
C473 C472 1.377 . S
C473 C479 1.390 . S
C474 H465 0.930 . S
C474 C472 1.384 . S
C474 C475 1.372 . S
C475 C474 1.372 . S
C475 C476 1.400 . S
C475 C480 1.490 . S
C476 H466 0.930 . S
C476 C475 1.400 . S
C476 C479 1.386 . S
H477 C493 0.930 . S
H478 C494 0.931 . S
C479 H467 0.929 . S
C479 C473 1.390 . S
C479 C476 1.386 . S
C480 C475 1.490 . S
C480 C482 1.395 . S
C480 C483 1.403 . S
H481 C487 0.930 . S
C482 H468 0.930 . S
C482 C480 1.395 . S
C482 C485 1.403 . S
C483 C480 1.403 . S
C483 C484 1.524 . S
C483 C487 1.400 . S
C484 H469 0.960 . S
C484 H470 0.960 . S
C484 H471 0.960 . S
C484 C483 1.524 . S
C485 C482 1.403 . S
C485 C486 1.392 . S
C485 C489 1.495 . S
C486 C485 1.392 . S
C486 C487 1.385 . S
C486 C488 1.478 . S
C487 H481 0.930 . S
C487 C483 1.400 . S
C487 C486 1.385 . S
C488 C486 1.478 . S
C488 C490 1.381 . S
C488 C494 1.383 . S
C489 C485 1.495 . S
C489 H495 0.959 . S
C489 H496 0.961 . S
C489 H497 0.960 . S
C490 C488 1.381 . S
C490 C491 1.394 . S
C490 H498 0.930 . S
C491 C490 1.394 . S
C491 C492 1.383 . S
C491 H499 0.929 1_556 S
C492 C491 1.383 . S
C492 C493 1.377 . S
C493 H477 0.930 . S
C493 C492 1.377 . S
C493 C494 1.379 . S
C494 H478 0.931 . S
C494 C488 1.383 . S
C494 C493 1.379 . S
H495 C489 0.959 . S
H496 C489 0.961 . S
H497 C489 0.960 . S
H498 C490 0.930 . S
H499 C491 0.929 1_554 S
H500 C508 0.929 . S
H501 C510 0.930 . S
H502 C512 0.930 . S
H503 C515 0.929 . S
H504 C518 0.930 . S
H505 C520 0.960 . S
H506 C520 0.960 . S
H507 C520 0.960 . S
C508 H500 0.929 . S
C508 C509 1.377 . S
C508 C510 1.384 . S
C509 C508 1.377 . S
C509 C515 1.390 . S
C510 H501 0.930 . S
C510 C508 1.384 . S
C510 C511 1.372 . S
C511 C510 1.372 . S
C511 C512 1.400 . S
C511 C516 1.490 . S
C512 H502 0.930 . S
C512 C511 1.400 . S
C512 C515 1.386 . S
H513 C529 0.930 . S
H514 C530 0.931 . S
C515 H503 0.929 . S
C515 C509 1.390 . S
C515 C512 1.386 . S
C516 C511 1.490 . S
C516 C518 1.395 . S
C516 C519 1.403 . S
H517 C523 0.930 . S
C518 H504 0.930 . S
C518 C516 1.395 . S
C518 C521 1.403 . S
C519 C516 1.403 . S
C519 C520 1.524 . S
C519 C523 1.400 . S
C520 H505 0.960 . S
C520 H506 0.960 . S
C520 H507 0.960 . S
C520 C519 1.524 . S
C521 C518 1.403 . S
C521 C522 1.392 . S
C521 C525 1.495 . S
C522 C521 1.392 . S
C522 C523 1.385 . S
C522 C524 1.478 . S
C523 H517 0.930 . S
C523 C519 1.400 . S
C523 C522 1.385 . S
C524 C522 1.478 . S
C524 C526 1.381 . S
C524 C530 1.383 . S
C525 C521 1.495 . S
C525 H531 0.959 . S
C525 H532 0.961 . S
C525 H533 0.960 . S
C526 C524 1.381 . S
C526 C527 1.394 . S
C526 H534 0.930 . S
C527 C526 1.394 . S
C527 C528 1.383 . S
C527 H535 0.929 . S
C528 C527 1.383 . S
C528 C529 1.377 . S
C529 H513 0.930 . S
C529 C528 1.377 . S
C529 C530 1.379 . S
C530 H514 0.931 . S
C530 C524 1.383 . S
C530 C529 1.379 . S
H531 C525 0.959 . S
H532 C525 0.961 . S
H533 C525 0.960 . S
H534 C526 0.930 . S
H535 C527 0.929 . S
H536 C544 0.929 . S
H537 C546 0.930 . S
H538 C548 0.930 . S
H539 C551 0.929 . S
H540 C554 0.930 . S
H541 C556 0.960 . S
H542 C556 0.960 . S
H543 C556 0.960 . S
C544 H536 0.929 . S
C544 C545 1.377 . S
C544 C546 1.384 . S
C545 C544 1.377 . S
C545 C551 1.390 . S
C546 H537 0.930 . S
C546 C544 1.384 . S
C546 C547 1.372 . S
C547 C546 1.372 . S
C547 C548 1.400 . S
C547 C552 1.490 . S
C548 H538 0.930 . S
C548 C547 1.400 . S
C548 C551 1.386 . S
H549 C565 0.930 . S
H550 C566 0.931 . S
C551 H539 0.929 . S
C551 C545 1.390 . S
C551 C548 1.386 . S
C552 C547 1.490 . S
C552 C554 1.395 . S
C552 C555 1.403 . S
H553 C559 0.930 . S
C554 H540 0.930 . S
C554 C552 1.395 . S
C554 C557 1.403 . S
C555 C552 1.403 . S
C555 C556 1.524 . S
C555 C559 1.400 . S
C556 H541 0.960 . S
C556 H542 0.960 . S
C556 H543 0.960 . S
C556 C555 1.524 . S
C557 C554 1.403 . S
C557 C558 1.392 . S
C557 C561 1.495 . S
C558 C557 1.392 . S
C558 C559 1.385 . S
C558 C560 1.478 . S
C559 H553 0.930 . S
C559 C555 1.400 . S
C559 C558 1.385 . S
C560 C558 1.478 . S
C560 C562 1.381 . S
C560 C566 1.383 . S
C561 C557 1.495 . S
C561 H567 0.959 . S
C561 H568 0.961 . S
C561 H569 0.960 . S
C562 C560 1.381 . S
C562 C563 1.394 . S
C562 H570 0.930 . S
C563 C562 1.394 . S
C563 C564 1.383 . S
C563 H571 0.929 . S
C564 C563 1.383 . S
C564 C565 1.377 . S
C565 H549 0.930 . S
C565 C564 1.377 . S
C565 C566 1.379 . S
C566 H550 0.931 . S
C566 C560 1.383 . S
C566 C565 1.379 . S
H567 C561 0.959 . S
H568 C561 0.961 . S
H569 C561 0.960 . S
H570 C562 0.930 . S
H571 C563 0.929 . S
H572 C580 0.929 . S
H573 C582 0.930 . S
H574 C584 0.930 . S
H575 C587 0.929 . S
H576 C590 0.930 . S
H577 C592 0.960 . S
H578 C592 0.960 . S
H579 C592 0.960 . S
C580 H572 0.929 . S
C580 C581 1.377 . S
C580 C582 1.384 . S
C581 C580 1.377 . S
C581 C587 1.390 . S
C582 H573 0.930 . S
C582 C580 1.384 . S
C582 C583 1.372 . S
C583 C582 1.372 . S
C583 C584 1.400 . S
C583 C588 1.490 . S
C584 H574 0.930 . S
C584 C583 1.400 . S
C584 C587 1.386 . S
H585 C601 0.930 . S
H586 C602 0.931 . S
C587 H575 0.929 . S
C587 C581 1.390 . S
C587 C584 1.386 . S
C588 C583 1.490 . S
C588 C590 1.395 . S
C588 C591 1.403 . S
H589 C595 0.930 . S
C590 H576 0.930 . S
C590 C588 1.395 . S
C590 C593 1.403 . S
C591 C588 1.403 . S
C591 C592 1.524 . S
C591 C595 1.400 . S
C592 H577 0.960 . S
C592 H578 0.960 . S
C592 H579 0.960 . S
C592 C591 1.524 . S
C593 C590 1.403 . S
C593 C594 1.392 . S
C593 C597 1.495 . S
C594 C593 1.392 . S
C594 C595 1.385 . S
C594 C596 1.478 . S
C595 H589 0.930 . S
C595 C591 1.400 . S
C595 C594 1.385 . S
C596 C594 1.478 . S
C596 C598 1.381 1_556 S
C596 C602 1.383 . S
C597 C593 1.495 . S
C597 H603 0.959 . S
C597 H604 0.961 . S
C597 H605 0.960 1_556 S
C598 C596 1.381 1_554 S
C598 C599 1.394 . S
C598 H606 0.930 . S
C599 C598 1.394 . S
C599 C600 1.383 . S
C599 H607 0.929 . S
C600 C599 1.383 . S
C600 C601 1.377 1_554 S
C601 H585 0.930 . S
C601 C600 1.377 1_556 S
C601 C602 1.379 . S
C602 H586 0.931 . S
C602 C596 1.383 . S
C602 C601 1.379 . S
H603 C597 0.959 . S
H604 C597 0.961 . S
H605 C597 0.960 1_554 S
H606 C598 0.930 . S
H607 C599 0.929 . S
H608 C616 0.929 . S
H609 C618 0.930 . S
H610 C620 0.930 . S
H611 C623 0.929 . S
H612 C626 0.930 . S
H613 C628 0.960 . S
H614 C628 0.960 . S
H615 C628 0.960 . S
C616 H608 0.929 . S
C616 C617 1.377 . S
C616 C618 1.384 . S
C617 C616 1.377 . S
C617 C623 1.390 . S
C618 H609 0.930 . S
C618 C616 1.384 . S
C618 C619 1.372 . S
C619 C618 1.372 . S
C619 C620 1.400 . S
C619 C624 1.490 . S
C620 H610 0.930 . S
C620 C619 1.400 . S
C620 C623 1.386 . S
H621 C637 0.930 . S
H622 C638 0.931 . S
C623 H611 0.929 . S
C623 C617 1.390 . S
C623 C620 1.386 . S
C624 C619 1.490 . S
C624 C626 1.395 . S
C624 C627 1.403 . S
H625 C631 0.930 . S
C626 H612 0.930 . S
C626 C624 1.395 . S
C626 C629 1.403 . S
C627 C624 1.403 . S
C627 C628 1.524 . S
C627 C631 1.400 . S
C628 H613 0.960 . S
C628 H614 0.960 . S
C628 H615 0.960 . S
C628 C627 1.524 . S
C629 C626 1.403 . S
C629 C630 1.392 . S
C629 C633 1.495 . S
C630 C629 1.392 . S
C630 C631 1.385 . S
C630 C632 1.478 . S
C631 H625 0.930 . S
C631 C627 1.400 . S
C631 C630 1.385 . S
C632 C630 1.478 . S
C632 C634 1.381 . S
C632 C638 1.383 . S
C633 C629 1.495 . S
C633 H639 0.959 . S
C633 H640 0.961 . S
C633 H641 0.960 . S
C634 C632 1.381 . S
C634 C635 1.394 . S
C634 H642 0.930 . S
C635 C634 1.394 . S
C635 C636 1.383 . S
C635 H643 0.929 . S
C636 C635 1.383 . S
C636 C637 1.377 . S
C637 H621 0.930 . S
C637 C636 1.377 . S
C637 C638 1.379 . S
C638 H622 0.931 . S
C638 C632 1.383 . S
C638 C637 1.379 . S
H639 C633 0.959 . S
H640 C633 0.961 . S
H641 C633 0.960 . S
H642 C634 0.930 . S
H643 C635 0.929 . S
H644 C652 0.929 . S
H645 C654 0.930 . S
H646 C656 0.930 . S
H647 C659 0.929 . S
H648 C662 0.930 . S
H649 C664 0.960 . S
H650 C664 0.960 . S
H651 C664 0.960 . S
C652 H644 0.929 . S
C652 C653 1.377 . S
C652 C654 1.384 . S
C653 C652 1.377 . S
C653 C659 1.390 . S
C654 H645 0.930 . S
C654 C652 1.384 . S
C654 C655 1.372 . S
C655 C654 1.372 . S
C655 C656 1.400 . S
C655 C660 1.490 . S
C656 H646 0.930 . S
C656 C655 1.400 . S
C656 C659 1.386 . S
H657 C673 0.930 . S
H658 C674 0.931 . S
C659 H647 0.929 . S
C659 C653 1.390 . S
C659 C656 1.386 . S
C660 C655 1.490 . S
C660 C662 1.395 . S
C660 C663 1.403 . S
H661 C667 0.930 . S
C662 H648 0.930 . S
C662 C660 1.395 . S
C662 C665 1.403 . S
C663 C660 1.403 . S
C663 C664 1.524 . S
C663 C667 1.400 . S
C664 H649 0.960 . S
C664 H650 0.960 . S
C664 H651 0.960 . S
C664 C663 1.524 . S
C665 C662 1.403 . S
C665 C666 1.392 . S
C665 C669 1.495 . S
C666 C665 1.392 . S
C666 C667 1.385 . S
C666 C668 1.478 . S
C667 H661 0.930 . S
C667 C663 1.400 . S
C667 C666 1.385 . S
C668 C666 1.478 . S
C668 C670 1.381 . S
C668 C674 1.383 . S
C669 C665 1.495 . S
C669 H675 0.959 . S
C669 H676 0.961 . S
C669 H677 0.960 . S
C670 C668 1.381 . S
C670 C671 1.394 . S
C670 H678 0.930 . S
C671 C670 1.394 . S
C671 C672 1.383 . S
C671 H679 0.929 . S
C672 C671 1.383 . S
C672 C673 1.377 . S
C673 H657 0.930 . S
C673 C672 1.377 . S
C673 C674 1.379 . S
C674 H658 0.931 . S
C674 C668 1.383 . S
C674 C673 1.379 . S
H675 C669 0.959 . S
H676 C669 0.961 . S
H677 C669 0.960 . S
H678 C670 0.930 . S
H679 C671 0.929 . S
H680 C688 0.929 . S
H681 C690 0.930 . S
H682 C692 0.930 . S
H683 C695 0.929 . S
H684 C698 0.930 . S
H685 C700 0.960 . S
H686 C700 0.960 . S
H687 C700 0.960 . S
C688 H680 0.929 . S
C688 C689 1.377 . S
C688 C690 1.384 . S
C689 C688 1.377 . S
C689 C695 1.390 . S
C690 H681 0.930 . S
C690 C688 1.384 . S
C690 C691 1.372 . S
C691 C690 1.372 . S
C691 C692 1.400 . S
C691 C696 1.490 . S
C692 H682 0.930 . S
C692 C691 1.400 . S
C692 C695 1.386 . S
H693 C709 0.930 . S
H694 C710 0.931 . S
C695 H683 0.929 . S
C695 C689 1.390 . S
C695 C692 1.386 . S
C696 C691 1.490 . S
C696 C698 1.395 . S
C696 C699 1.403 . S
H697 C703 0.930 . S
C698 H684 0.930 . S
C698 C696 1.395 . S
C698 C701 1.403 . S
C699 C696 1.403 . S
C699 C700 1.524 . S
C699 C703 1.400 . S
C700 H685 0.960 . S
C700 H686 0.960 . S
C700 H687 0.960 . S
C700 C699 1.524 . S
C701 C698 1.403 . S
C701 C702 1.392 . S
C701 C705 1.495 . S
C702 C701 1.392 . S
C702 C703 1.385 . S
C702 C704 1.478 . S
C703 H697 0.930 . S
C703 C699 1.400 . S
C703 C702 1.385 . S
C704 C702 1.478 . S
C704 C706 1.381 . S
C704 C710 1.383 . S
C705 C701 1.495 . S
C705 H711 0.959 . S
C705 H712 0.961 . S
C705 H713 0.960 . S
C706 C704 1.381 . S
C706 C707 1.394 . S
C706 H714 0.930 . S
C707 C706 1.394 . S
C707 C708 1.383 . S
C707 H715 0.929 . S
C708 C707 1.383 . S
C708 C709 1.377 . S
C709 H693 0.930 . S
C709 C708 1.377 . S
C709 C710 1.379 . S
C710 H694 0.931 . S
C710 C704 1.383 . S
C710 C709 1.379 . S
H711 C705 0.959 . S
H712 C705 0.961 . S
H713 C705 0.960 . S
H714 C706 0.930 . S
H715 C707 0.929 . S
H716 C724 0.929 . S
H717 C726 0.930 . S
H718 C728 0.930 . S
H719 C731 0.929 . S
H720 C734 0.930 . S
H721 C736 0.960 . S
H722 C736 0.960 . S
H723 C736 0.960 . S
C724 H716 0.929 . S
C724 C725 1.377 . S
C724 C726 1.384 . S
C725 C724 1.377 . S
C725 C731 1.390 . S
C726 H717 0.930 . S
C726 C724 1.384 . S
C726 C727 1.372 . S
C727 C726 1.372 . S
C727 C728 1.400 . S
C727 C732 1.490 . S
C728 H718 0.930 . S
C728 C727 1.400 . S
C728 C731 1.386 . S
H729 C745 0.930 . S
H730 C746 0.931 . S
C731 H719 0.929 . S
C731 C725 1.390 . S
C731 C728 1.386 . S
C732 C727 1.490 . S
C732 C734 1.395 . S
C732 C735 1.403 . S
H733 C739 0.930 . S
C734 H720 0.930 . S
C734 C732 1.395 . S
C734 C737 1.403 . S
C735 C732 1.403 . S
C735 C736 1.524 . S
C735 C739 1.400 . S
C736 H721 0.960 . S
C736 H722 0.960 . S
C736 H723 0.960 . S
C736 C735 1.524 . S
C737 C734 1.403 . S
C737 C738 1.392 . S
C737 C741 1.495 . S
C738 C737 1.392 . S
C738 C739 1.385 . S
C738 C740 1.478 . S
C739 H733 0.930 . S
C739 C735 1.400 . S
C739 C738 1.385 . S
C740 C738 1.478 . S
C740 C742 1.381 . S
C740 C746 1.383 . S
C741 C737 1.495 . S
C741 H747 0.959 . S
C741 H748 0.961 . S
C741 H749 0.960 . S
C742 C740 1.381 . S
C742 C743 1.394 . S
C742 H750 0.930 . S
C743 C742 1.394 . S
C743 C744 1.383 . S
C743 H751 0.929 . S
C744 C743 1.383 . S
C744 C745 1.377 . S
C745 H729 0.930 . S
C745 C744 1.377 . S
C745 C746 1.379 . S
C746 H730 0.931 . S
C746 C740 1.383 . S
C746 C745 1.379 . S
H747 C741 0.959 . S
H748 C741 0.961 . S
H749 C741 0.960 . S
H750 C742 0.930 . S
H751 C743 0.929 . S
H752 C760 0.929 . S
H753 C762 0.930 . S
H754 C764 0.930 . S
H755 C767 0.929 . S
H756 C770 0.930 . S
H757 C772 0.960 . S
H758 C772 0.960 . S
H759 C772 0.960 . S
C760 H752 0.929 . S
C760 C761 1.377 . S
C760 C762 1.384 . S
C761 C760 1.377 . S
C761 C767 1.390 . S
C762 H753 0.930 . S
C762 C760 1.384 . S
C762 C763 1.372 . S
C763 C762 1.372 . S
C763 C764 1.400 . S
C763 C768 1.490 . S
C764 H754 0.930 . S
C764 C763 1.400 . S
C764 C767 1.386 . S
H765 C781 0.930 . S
H766 C782 0.931 . S
C767 H755 0.929 . S
C767 C761 1.390 . S
C767 C764 1.386 . S
C768 C763 1.490 . S
C768 C770 1.395 . S
C768 C771 1.403 . S
H769 C775 0.930 . S
C770 H756 0.930 . S
C770 C768 1.395 . S
C770 C773 1.403 . S
C771 C768 1.403 . S
C771 C772 1.524 . S
C771 C775 1.400 . S
C772 H757 0.960 . S
C772 H758 0.960 . S
C772 H759 0.960 . S
C772 C771 1.524 . S
C773 C770 1.403 . S
C773 C774 1.392 . S
C773 C777 1.495 . S
C774 C773 1.392 . S
C774 C775 1.385 . S
C774 C776 1.478 . S
C775 H769 0.930 . S
C775 C771 1.400 . S
C775 C774 1.385 . S
C776 C774 1.478 . S
C776 C778 1.381 . S
C776 C782 1.383 . S
C777 C773 1.495 . S
C777 H783 0.959 . S
C777 H784 0.961 . S
C777 H785 0.960 . S
C778 C776 1.381 . S
C778 C779 1.394 . S
C778 H786 0.930 . S
C779 C778 1.394 . S
C779 C780 1.383 . S
C779 H787 0.929 . S
C780 C779 1.383 . S
C780 C781 1.377 . S
C781 H765 0.930 . S
C781 C780 1.377 . S
C781 C782 1.379 . S
C782 H766 0.931 . S
C782 C776 1.383 . S
C782 C781 1.379 . S
H783 C777 0.959 . S
H784 C777 0.961 . S
H785 C777 0.960 . S
H786 C778 0.930 . S
H787 C779 0.929 . S
H788 C796 0.929 . S
H789 C798 0.930 . S
H790 C800 0.930 . S
H791 C803 0.929 . S
H792 C806 0.930 . S
H793 C808 0.960 . S
H794 C808 0.960 . S
H795 C808 0.960 . S
C796 H788 0.929 . S
C796 C797 1.377 . S
C796 C798 1.384 . S
C797 C796 1.377 . S
C797 C803 1.390 . S
C798 H789 0.930 . S
C798 C796 1.384 . S
C798 C799 1.372 . S
C799 C798 1.372 . S
C799 C800 1.400 . S
C799 C804 1.490 . S
C800 H790 0.930 . S
C800 C799 1.400 . S
C800 C803 1.386 . S
H801 C817 0.930 . S
H802 C818 0.931 . S
C803 H791 0.929 . S
C803 C797 1.390 . S
C803 C800 1.386 . S
C804 C799 1.490 . S
C804 C806 1.395 . S
C804 C807 1.403 . S
H805 C811 0.930 . S
C806 H792 0.930 . S
C806 C804 1.395 . S
C806 C809 1.403 . S
C807 C804 1.403 . S
C807 C808 1.524 . S
C807 C811 1.400 . S
C808 H793 0.960 . S
C808 H794 0.960 . S
C808 H795 0.960 . S
C808 C807 1.524 . S
C809 C806 1.403 . S
C809 C810 1.392 . S
C809 C813 1.495 . S
C810 C809 1.392 . S
C810 C811 1.385 . S
C810 C812 1.478 . S
C811 H805 0.930 . S
C811 C807 1.400 . S
C811 C810 1.385 . S
C812 C810 1.478 . S
C812 C814 1.381 . S
C812 C818 1.383 . S
C813 C809 1.495 . S
C813 H819 0.959 . S
C813 H820 0.961 . S
C813 H821 0.960 . S
C814 C812 1.381 . S
C814 C815 1.394 . S
C814 H822 0.930 . S
C815 C814 1.394 . S
C815 C816 1.383 . S
C815 H823 0.929 . S
C816 C815 1.383 . S
C816 C817 1.377 . S
C817 H801 0.930 . S
C817 C816 1.377 . S
C817 C818 1.379 . S
C818 H802 0.931 . S
C818 C812 1.383 . S
C818 C817 1.379 . S
H819 C813 0.959 . S
H820 C813 0.961 . S
H821 C813 0.960 . S
H822 C814 0.930 . S
H823 C815 0.929 . S
H824 C832 0.929 . S
H825 C834 0.930 . S
H826 C836 0.930 . S
H827 C839 0.929 . S
H828 C842 0.930 . S
H829 C844 0.960 . S
H830 C844 0.960 . S
H831 C844 0.960 . S
C832 H824 0.929 . S
C832 C833 1.377 . S
C832 C834 1.384 . S
C833 C832 1.377 . S
C833 C839 1.390 . S
C834 H825 0.930 . S
C834 C832 1.384 . S
C834 C835 1.372 . S
C835 C834 1.372 . S
C835 C836 1.400 . S
C835 C840 1.490 . S
C836 H826 0.930 . S
C836 C835 1.400 . S
C836 C839 1.386 . S
H837 C853 0.930 . S
H838 C854 0.931 . S
C839 H827 0.929 . S
C839 C833 1.390 . S
C839 C836 1.386 . S
C840 C835 1.490 . S
C840 C842 1.395 . S
C840 C843 1.403 . S
H841 C847 0.930 . S
C842 H828 0.930 . S
C842 C840 1.395 . S
C842 C845 1.403 . S
C843 C840 1.403 . S
C843 C844 1.524 . S
C843 C847 1.400 . S
C844 H829 0.960 . S
C844 H830 0.960 . S
C844 H831 0.960 . S
C844 C843 1.524 . S
C845 C842 1.403 . S
C845 C846 1.392 . S
C845 C849 1.495 . S
C846 C845 1.392 . S
C846 C847 1.385 . S
C846 C848 1.478 . S
C847 H841 0.930 . S
C847 C843 1.400 . S
C847 C846 1.385 . S
C848 C846 1.478 . S
C848 C850 1.381 . S
C848 C854 1.383 . S
C849 C845 1.495 . S
C849 H855 0.959 . S
C849 H856 0.961 . S
C849 H857 0.960 . S
C850 C848 1.381 . S
C850 C851 1.394 . S
C850 H858 0.930 . S
C851 C850 1.394 . S
C851 C852 1.383 . S
C851 H859 0.929 1_556 S
C852 C851 1.383 . S
C852 C853 1.377 . S
C853 H837 0.930 . S
C853 C852 1.377 . S
C853 C854 1.379 . S
C854 H838 0.931 . S
C854 C848 1.383 . S
C854 C853 1.379 . S
H855 C849 0.959 . S
H856 C849 0.961 . S
H857 C849 0.960 . S
H858 C850 0.930 . S
H859 C851 0.929 1_554 S
H860 C868 0.929 . S
H861 C870 0.930 . S
H862 C872 0.930 . S
H863 C875 0.929 . S
H864 C878 0.930 . S
H865 C880 0.960 . S
H866 C880 0.960 . S
H867 C880 0.960 . S
C868 H860 0.929 . S
C868 C869 1.377 . S
C868 C870 1.384 . S
C869 C868 1.377 . S
C869 C875 1.390 . S
C870 H861 0.930 . S
C870 C868 1.384 . S
C870 C871 1.372 . S
C871 C870 1.372 . S
C871 C872 1.400 . S
C871 C876 1.490 . S
C872 H862 0.930 . S
C872 C871 1.400 . S
C872 C875 1.386 . S
H873 C889 0.930 . S
H874 C890 0.931 . S
C875 H863 0.929 . S
C875 C869 1.390 . S
C875 C872 1.386 . S
C876 C871 1.490 . S
C876 C878 1.395 . S
C876 C879 1.403 . S
H877 C883 0.930 . S
C878 H864 0.930 . S
C878 C876 1.395 . S
C878 C881 1.403 . S
C879 C876 1.403 . S
C879 C880 1.524 . S
C879 C883 1.400 . S
C880 H865 0.960 . S
C880 H866 0.960 . S
C880 H867 0.960 . S
C880 C879 1.524 . S
C881 C878 1.403 . S
C881 C882 1.392 . S
C881 C885 1.495 . S
C882 C881 1.392 . S
C882 C883 1.385 . S
C882 C884 1.478 . S
C883 H877 0.930 . S
C883 C879 1.400 . S
C883 C882 1.385 . S
C884 C882 1.478 . S
C884 C886 1.381 . S
C884 C890 1.383 . S
C885 C881 1.495 . S
C885 H891 0.959 . S
C885 H892 0.961 . S
C885 H893 0.960 . S
C886 C884 1.381 . S
C886 C887 1.394 . S
C886 H894 0.930 . S
C887 C886 1.394 . S
C887 C888 1.383 . S
C887 H895 0.929 . S
C888 C887 1.383 . S
C888 C889 1.377 . S
C889 H873 0.930 . S
C889 C888 1.377 . S
C889 C890 1.379 . S
C890 H874 0.931 . S
C890 C884 1.383 . S
C890 C889 1.379 . S
H891 C885 0.959 . S
H892 C885 0.961 . S
H893 C885 0.960 . S
H894 C886 0.930 . S
H895 C887 0.929 . S
H896 C904 0.929 . S
H897 C906 0.930 . S
H898 C908 0.930 . S
H899 C911 0.929 . S
H900 C914 0.930 . S
H901 C916 0.960 . S
H902 C916 0.960 . S
H903 C916 0.960 . S
C904 H896 0.929 . S
C904 C905 1.377 . S
C904 C906 1.384 . S
C905 C904 1.377 . S
C905 C911 1.390 . S
C906 H897 0.930 . S
C906 C904 1.384 . S
C906 C907 1.372 . S
C907 C906 1.372 . S
C907 C908 1.400 . S
C907 C912 1.490 . S
C908 H898 0.930 . S
C908 C907 1.400 . S
C908 C911 1.386 . S
H909 C925 0.930 . S
H910 C926 0.931 . S
C911 H899 0.929 . S
C911 C905 1.390 . S
C911 C908 1.386 . S
C912 C907 1.490 . S
C912 C914 1.395 . S
C912 C915 1.403 . S
H913 C919 0.930 . S
C914 H900 0.930 . S
C914 C912 1.395 . S
C914 C917 1.403 . S
C915 C912 1.403 . S
C915 C916 1.524 . S
C915 C919 1.400 . S
C916 H901 0.960 . S
C916 H902 0.960 . S
C916 H903 0.960 . S
C916 C915 1.524 . S
C917 C914 1.403 . S
C917 C918 1.392 . S
C917 C921 1.495 . S
C918 C917 1.392 . S
C918 C919 1.385 . S
C918 C920 1.478 . S
C919 H913 0.930 . S
C919 C915 1.400 . S
C919 C918 1.385 . S
C920 C918 1.478 . S
C920 C922 1.381 . S
C920 C926 1.383 . S
C921 C917 1.495 . S
C921 H927 0.959 . S
C921 H928 0.961 . S
C921 H929 0.960 . S
C922 C920 1.381 . S
C922 C923 1.394 . S
C922 H930 0.930 . S
C923 C922 1.394 . S
C923 C924 1.383 . S
C923 H931 0.929 . S
C924 C923 1.383 . S
C924 C925 1.377 . S
C925 H909 0.930 . S
C925 C924 1.377 . S
C925 C926 1.379 . S
C926 H910 0.931 . S
C926 C920 1.383 . S
C926 C925 1.379 . S
H927 C921 0.959 . S
H928 C921 0.961 . S
H929 C921 0.960 . S
H930 C922 0.930 . S
H931 C923 0.929 . S
H932 C940 0.929 . S
H933 C942 0.930 . S
H934 C944 0.930 . S
H935 C947 0.929 . S
H936 C950 0.930 . S
H937 C952 0.960 . S
H938 C952 0.960 . S
H939 C952 0.960 . S
C940 H932 0.929 . S
C940 C941 1.377 . S
C940 C942 1.384 . S
C941 C940 1.377 . S
C941 C947 1.390 . S
C942 H933 0.930 . S
C942 C940 1.384 . S
C942 C943 1.372 . S
C943 C942 1.372 . S
C943 C944 1.400 . S
C943 C948 1.490 . S
C944 H934 0.930 . S
C944 C943 1.400 . S
C944 C947 1.386 . S
H945 C961 0.930 . S
H946 C962 0.931 . S
C947 H935 0.929 . S
C947 C941 1.390 . S
C947 C944 1.386 . S
C948 C943 1.490 . S
C948 C950 1.395 . S
C948 C951 1.403 . S
H949 C955 0.930 . S
C950 H936 0.930 . S
C950 C948 1.395 . S
C950 C953 1.403 . S
C951 C948 1.403 . S
C951 C952 1.524 . S
C951 C955 1.400 . S
C952 H937 0.960 . S
C952 H938 0.960 . S
C952 H939 0.960 . S
C952 C951 1.524 . S
C953 C950 1.403 . S
C953 C954 1.392 . S
C953 C957 1.495 . S
C954 C953 1.392 . S
C954 C955 1.385 . S
C954 C956 1.478 . S
C955 H949 0.930 . S
C955 C951 1.400 . S
C955 C954 1.385 . S
C956 C954 1.478 . S
C956 C958 1.381 . S
C956 C962 1.383 . S
C957 C953 1.495 . S
C957 H963 0.959 . S
C957 H964 0.961 . S
C957 H965 0.960 . S
C958 C956 1.381 . S
C958 C959 1.394 . S
C958 H966 0.930 . S
C959 C958 1.394 . S
C959 C960 1.383 . S
C959 H967 0.929 . S
C960 C959 1.383 . S
C960 C961 1.377 . S
C961 H945 0.930 . S
C961 C960 1.377 . S
C961 C962 1.379 . S
C962 H946 0.931 . S
C962 C956 1.383 . S
C962 C961 1.379 . S
H963 C957 0.959 . S
H964 C957 0.961 . S
H965 C957 0.960 . S
H966 C958 0.930 . S
H967 C959 0.929 . S
H968 C976 0.929 . S
H969 C978 0.930 . S
H970 C980 0.930 . S
H971 C983 0.929 . S
H972 C986 0.930 . S
H973 C988 0.960 . S
H974 C988 0.960 . S
H975 C988 0.960 . S
C976 H968 0.929 . S
C976 C977 1.377 . S
C976 C978 1.384 . S
C977 C976 1.377 . S
C977 C983 1.390 . S
C978 H969 0.930 . S
C978 C976 1.384 . S
C978 C979 1.372 . S
C979 C978 1.372 . S
C979 C980 1.400 . S
C979 C984 1.490 . S
C980 H970 0.930 . S
C980 C979 1.400 . S
C980 C983 1.386 . S
H981 C997 0.930 . S
H982 C998 0.931 . S
C983 H971 0.929 . S
C983 C977 1.390 . S
C983 C980 1.386 . S
C984 C979 1.490 . S
C984 C986 1.395 . S
C984 C987 1.403 . S
H985 C991 0.930 . S
C986 H972 0.930 . S
C986 C984 1.395 . S
C986 C989 1.403 . S
C987 C984 1.403 . S
C987 C988 1.524 . S
C987 C991 1.400 . S
C988 H973 0.960 . S
C988 H974 0.960 . S
C988 H975 0.960 . S
C988 C987 1.524 . S
C989 C986 1.403 . S
C989 C990 1.392 . S
C989 C993 1.495 . S
C990 C989 1.392 . S
C990 C991 1.385 . S
C990 C992 1.478 . S
C991 H985 0.930 . S
C991 C987 1.400 . S
C991 C990 1.385 . S
C992 C990 1.478 . S
C992 C994 1.381 . S
C992 C998 1.383 . S
C993 C989 1.495 . S
C993 H999 0.959 . S
C993 H1000 0.961 . S
C993 H1001 0.960 . S
C994 C992 1.381 . S
C994 C995 1.394 . S
C994 H1002 0.930 . S
C995 C994 1.394 . S
C995 C996 1.383 . S
C995 H1003 0.929 . S
C996 C995 1.383 . S
C996 C997 1.377 . S
C997 H981 0.930 . S
C997 C996 1.377 . S
C997 C998 1.379 . S
C998 H982 0.931 . S
C998 C992 1.383 . S
C998 C997 1.379 . S
H999 C993 0.959 . S
H1000 C993 0.961 . S
H1001 C993 0.960 . S
H1002 C994 0.930 . S
H1003 C995 0.929 . S
H1004 C1012 0.929 . S
H1005 C1014 0.930 . S
H1006 C1016 0.930 . S
H1007 C1019 0.929 . S
H1008 C1022 0.930 . S
H1009 C1024 0.960 . S
H1010 C1024 0.960 . S
H1011 C1024 0.960 . S
C1012 H1004 0.929 . S
C1012 C1013 1.377 . S
C1012 C1014 1.384 . S
C1013 C1012 1.377 . S
C1013 C1019 1.390 . S
C1014 H1005 0.930 . S
C1014 C1012 1.384 . S
C1014 C1015 1.372 . S
C1015 C1014 1.372 . S
C1015 C1016 1.400 . S
C1015 C1020 1.490 . S
C1016 H1006 0.930 . S
C1016 C1015 1.400 . S
C1016 C1019 1.386 . S
H1017 C1033 0.930 . S
H1018 C1034 0.931 . S
C1019 H1007 0.929 . S
C1019 C1013 1.390 . S
C1019 C1016 1.386 . S
C1020 C1015 1.490 . S
C1020 C1022 1.395 . S
C1020 C1023 1.403 . S
H1021 C1027 0.930 . S
C1022 H1008 0.930 . S
C1022 C1020 1.395 . S
C1022 C1025 1.403 . S
C1023 C1020 1.403 . S
C1023 C1024 1.524 . S
C1023 C1027 1.400 . S
C1024 H1009 0.960 . S
C1024 H1010 0.960 . S
C1024 H1011 0.960 . S
C1024 C1023 1.524 . S
C1025 C1022 1.403 . S
C1025 C1026 1.392 . S
C1025 C1029 1.495 . S
C1026 C1025 1.392 . S
C1026 C1027 1.385 . S
C1026 C1028 1.478 . S
C1027 H1021 0.930 . S
C1027 C1023 1.400 . S
C1027 C1026 1.385 . S
C1028 C1026 1.478 . S
C1028 C1030 1.381 . S
C1028 C1034 1.383 . S
C1029 C1025 1.495 . S
C1029 H1035 0.959 . S
C1029 H1036 0.961 . S
C1029 H1037 0.960 . S
C1030 C1028 1.381 . S
C1030 C1031 1.394 . S
C1030 H1038 0.930 . S
C1031 C1030 1.394 . S
C1031 C1032 1.383 . S
C1031 H1039 0.929 . S
C1032 C1031 1.383 . S
C1032 C1033 1.377 . S
C1033 H1017 0.930 . S
C1033 C1032 1.377 . S
C1033 C1034 1.379 . S
C1034 H1018 0.931 . S
C1034 C1028 1.383 . S
C1034 C1033 1.379 . S
H1035 C1029 0.959 . S
H1036 C1029 0.961 . S
H1037 C1029 0.960 . S
H1038 C1030 0.930 . S
H1039 C1031 0.929 . S
H1040 C1048 0.929 . S
H1041 C1050 0.930 . S
H1042 C1052 0.930 . S
H1043 C1055 0.929 . S
H1044 C1058 0.930 . S
H1045 C1060 0.960 . S
H1046 C1060 0.960 . S
H1047 C1060 0.960 . S
C1048 H1040 0.929 . S
C1048 C1049 1.377 . S
C1048 C1050 1.384 . S
C1049 C1048 1.377 . S
C1049 C1055 1.390 . S
C1050 H1041 0.930 . S
C1050 C1048 1.384 . S
C1050 C1051 1.372 . S
C1051 C1050 1.372 . S
C1051 C1052 1.400 . S
C1051 C1056 1.490 . S
C1052 H1042 0.930 . S
C1052 C1051 1.400 . S
C1052 C1055 1.386 . S
H1053 C1069 0.930 . S
H1054 C1070 0.931 . S
C1055 H1043 0.929 . S
C1055 C1049 1.390 . S
C1055 C1052 1.386 . S
C1056 C1051 1.490 . S
C1056 C1058 1.395 . S
C1056 C1059 1.403 . S
H1057 C1063 0.930 . S
C1058 H1044 0.930 . S
C1058 C1056 1.395 . S
C1058 C1061 1.403 . S
C1059 C1056 1.403 . S
C1059 C1060 1.524 . S
C1059 C1063 1.400 . S
C1060 H1045 0.960 . S
C1060 H1046 0.960 . S
C1060 H1047 0.960 . S
C1060 C1059 1.524 . S
C1061 C1058 1.403 . S
C1061 C1062 1.392 . S
C1061 C1065 1.495 . S
C1062 C1061 1.392 . S
C1062 C1063 1.385 . S
C1062 C1064 1.478 . S
C1063 H1057 0.930 . S
C1063 C1059 1.400 . S
C1063 C1062 1.385 . S
C1064 C1062 1.478 . S
C1064 C1066 1.381 . S
C1064 C1070 1.383 . S
C1065 C1061 1.495 . S
C1065 H1071 0.959 . S
C1065 H1072 0.961 . S
C1065 H1073 0.960 . S
C1066 C1064 1.381 . S
C1066 C1067 1.394 . S
C1066 H1074 0.930 . S
C1067 C1066 1.394 . S
C1067 C1068 1.383 . S
C1067 H1075 0.929 . S
C1068 C1067 1.383 . S
C1068 C1069 1.377 . S
C1069 H1053 0.930 . S
C1069 C1068 1.377 . S
C1069 C1070 1.379 . S
C1070 H1054 0.931 . S
C1070 C1064 1.383 . S
C1070 C1069 1.379 . S
H1071 C1065 0.959 . S
H1072 C1065 0.961 . S
H1073 C1065 0.960 . S
H1074 C1066 0.930 . S
H1075 C1067 0.929 . S
H1076 C1084 0.929 . S
H1077 C1086 0.930 . S
H1078 C1088 0.930 . S
H1079 C1091 0.929 . S
H1080 C1094 0.930 . S
H1081 C1096 0.960 . S
H1082 C1096 0.960 . S
H1083 C1096 0.960 . S
C1084 H1076 0.929 . S
C1084 C1085 1.377 . S
C1084 C1086 1.384 . S
C1085 C1084 1.377 . S
C1085 C1091 1.390 . S
C1086 H1077 0.930 . S
C1086 C1084 1.384 . S
C1086 C1087 1.372 . S
C1087 C1086 1.372 . S
C1087 C1088 1.400 . S
C1087 C1092 1.490 . S
C1088 H1078 0.930 . S
C1088 C1087 1.400 . S
C1088 C1091 1.386 . S
H1089 C1105 0.930 . S
H1090 C1106 0.931 . S
C1091 H1079 0.929 . S
C1091 C1085 1.390 . S
C1091 C1088 1.386 . S
C1092 C1087 1.490 . S
C1092 C1094 1.395 . S
C1092 C1095 1.403 . S
H1093 C1099 0.930 . S
C1094 H1080 0.930 . S
C1094 C1092 1.395 . S
C1094 C1097 1.403 . S
C1095 C1092 1.403 . S
C1095 C1096 1.524 . S
C1095 C1099 1.400 . S
C1096 H1081 0.960 . S
C1096 H1082 0.960 . S
C1096 H1083 0.960 . S
C1096 C1095 1.524 . S
C1097 C1094 1.403 . S
C1097 C1098 1.392 . S
C1097 C1101 1.495 . S
C1098 C1097 1.392 . S
C1098 C1099 1.385 . S
C1098 C1100 1.478 . S
C1099 H1093 0.930 . S
C1099 C1095 1.400 . S
C1099 C1098 1.385 . S
C1100 C1098 1.478 . S
C1100 C1102 1.381 . S
C1100 C1106 1.383 . S
C1101 C1097 1.495 . S
C1101 H1107 0.959 . S
C1101 H1108 0.961 . S
C1101 H1109 0.960 . S
C1102 C1100 1.381 . S
C1102 C1103 1.394 . S
C1102 H1110 0.930 . S
C1103 C1102 1.394 . S
C1103 C1104 1.383 . S
C1103 H1111 0.929 . S
C1104 C1103 1.383 . S
C1104 C1105 1.377 . S
C1105 H1089 0.930 . S
C1105 C1104 1.377 . S
C1105 C1106 1.379 . S
C1106 H1090 0.931 . S
C1106 C1100 1.383 . S
C1106 C1105 1.379 . S
H1107 C1101 0.959 . S
H1108 C1101 0.961 . S
H1109 C1101 0.960 . S
H1110 C1102 0.930 . S
H1111 C1103 0.929 . S
C257 C4 1.115 . S
C276 C95 1.133 . S
C293 C16 1.277 . S
C312 C144 1.277 . S
C348 C170 1.931 . S
C329 C32 1.956 . S
C365 C43 2.168 . S
C384 C218 2.115 1_655 S
C420 C130 2.825 . S
C401 C5 2.749 . S
C456 C98 0.575 . S
C437 C21 0.503 . S
C492 C219 1.788 . S
C473 C27 1.838 . S
C528 C187 1.411 . S
C509 C37 1.433 . S
C545 C10 1.532 . S
C564 C215 1.545 . S
C600 C147 2.511 . S
C581 C26 2.596 . S
C617 C38 2.038 . S
C636 C99 2.034 . S
C653 C15 0.905 . S
C672 C184 0.901 . S
C708 C104 1.352 . S
C689 C48 1.338 . S
C725 C59 1.017 . S
C744 C135 1.006 . S
C761 C76 2.417 . S
C780 C179 2.378 . S
C797 C87 1.976 . S
C816 C227 1.963 . S
C833 C54 1.988 . S
C852 C139 2.039 1_566 S
C888 C107 1.556 . S
C869 C60 1.594 . S
C924 C210 1.681 . S
C905 C71 1.695 . S
C960 C178 1.397 . S
C941 C82 1.427 . S
C977 C49 1.816 . S
C996 C224 1.884 . S
C1032 C138 1.895 . S
C1013 C70 1.983 . S
C1068 C90 2.537 . S
C1049 C81 2.561 . S
C1085 C65 0.766 . S
C1104 C175 0.748 . S
