# Generated by pormake.
# Topology sit, (3,6)-cn, num edge types: 1
# Building blocks:
#     Node 0, Type 0, BuildingBlock: BETDIP_clean_linker_0, # of connection points: 3
#     Node 1, Type 0, BuildingBlock: BETDIP_clean_linker_0, # of connection points: 3
#     Node 2, Type 0, BuildingBlock: BETDIP_clean_linker_0, # of connection points: 3
#     Node 3, Type 0, BuildingBlock: BETDIP_clean_linker_0, # of connection points: 3
#     Node 4, Type 1, BuildingBlock: MIDCAF_clean_sbu_0, # of connection points: 6
#     Node 5, Type 1, BuildingBlock: MIDCAF_clean_sbu_0, # of connection points: 6
#     Edge 6, Type (0, 1), BuildingBlock: FUNLAD_clean_linker_1, # of connection points: 2
#     Edge 7, Type (0, 1), BuildingBlock: FUNLAD_clean_linker_1, # of connection points: 2
#     Edge 8, Type (0, 1), BuildingBlock: FUNLAD_clean_linker_1, # of connection points: 2
#     Edge 9, Type (0, 1), BuildingBlock: FUNLAD_clean_linker_1, # of connection points: 2
#     Edge 10, Type (0, 1), BuildingBlock: FUNLAD_clean_linker_1, # of connection points: 2
#     Edge 11, Type (0, 1), BuildingBlock: FUNLAD_clean_linker_1, # of connection points: 2
#     Edge 12, Type (0, 1), BuildingBlock: FUNLAD_clean_linker_1, # of connection points: 2
#     Edge 13, Type (0, 1), BuildingBlock: FUNLAD_clean_linker_1, # of connection points: 2
#     Edge 14, Type (0, 1), BuildingBlock: FUNLAD_clean_linker_1, # of connection points: 2
#     Edge 15, Type (0, 1), BuildingBlock: FUNLAD_clean_linker_1, # of connection points: 2
#     Edge 16, Type (0, 1), BuildingBlock: FUNLAD_clean_linker_1, # of connection points: 2
#     Edge 17, Type (0, 1), BuildingBlock: FUNLAD_clean_linker_1, # of connection points: 2
# Relax obj value: 0.072
# Max RMSD: 0.181
# Mean RMSD: 0.111
data_MOF--net-sit--node1-MIDCAF_clean_sbu_0--node2-BETDIP_clean_linker_0--edge1-FUNLAD_clean_linker_1
_symmetry_space_group_name_H-M    P1
_symmetry_Int_Tables_number       1
_symmetry_cell_setting            triclinic
loop_
_symmetry_equiv_pos_as_xyz
'x, y, z'
_cell_length_a     21.885102
_cell_length_b     34.636537
_cell_length_c     38.906187
_cell_angle_alpha  89.920587
_cell_angle_beta   87.317497
_cell_angle_gamma 84.173374
loop_
_atom_site_label
_atom_site_type_symbol
_atom_site_fract_x
_atom_site_fract_y
_atom_site_fract_z
_atom_type_partial_charge
H0 H 0.97587 0.36088 0.05422 0.0
H1 H 0.17188 0.33517 0.03795 0.0
H2 H 0.08443 0.4469 0.01052 0.0
H3 H 0.15025 0.27265 0.04429 0.0
C4 C 0.10963 0.27352 0.06151 0.0
C5 C 0.02027 0.36989 0.04603 0.0
C6 C 0.02409 0.40697 0.03199 0.0
C7 C 0.07311 0.34375 0.04858 0.0
C8 C 0.13052 0.35493 0.03657 0.0
C9 C 0.13453 0.39239 0.02303 0.0
C10 C 0.08158 0.41852 0.02202 0.0
N11 N 0.06611 0.30689 0.06357 0.0
H12 H 0.95418 0.74886 0.0041 0.0
H13 H 0.14878 0.72922 0.01884 0.0
H14 H 0.05336 0.63767 0.98025 0.0
H15 H 0.14392 0.79379 0.01427 0.0
C16 C 0.10072 0.80386 0.02773 0.0
C17 C -0.00338 0.72973 0.00306 0.0
C18 C -0.00274 0.69173 0.99034 0.0
C19 C 0.05099 0.74392 0.01297 0.0
C20 C 0.10625 0.71914 0.01113 0.0
C21 C 0.10707 0.68071 -0.00025 0.0
C22 C 0.05241 0.66711 0.98969 0.0
N23 N 0.04844 0.78287 0.02511 0.0
H24 H 0.461 0.83245 0.53233 0.0
H25 H 0.65659 0.80016 0.52766 0.0
H26 H 0.57731 0.88927 0.46135 0.0
H27 H 0.62146 0.73928 0.53832 0.0
C28 C 0.58485 0.74648 0.5578 0.0
C29 C 0.50662 0.83689 0.52204 0.0
C30 C 0.51421 0.86472 0.49635 0.0
C31 C 0.55745 0.81245 0.53252 0.0
C32 C 0.61681 0.81797 0.51892 0.0
C33 C 0.62503 0.84685 0.4942 0.0
C34 C 0.57297 0.86897 0.48229 0.0
N35 N 0.54729 0.78239 0.55641 0.0
H36 H 0.42278 0.2154 0.53888 0.0
H37 H 0.6202 0.19857 0.53862 0.0
H38 H 0.52105 0.1168 0.48684 0.0
H39 H 0.59508 0.27109 0.53453 0.0
C40 C 0.56291 0.27281 0.55677 0.0
C41 C 0.46561 0.19834 0.53134 0.0
C42 C 0.4651 0.16542 0.51045 0.0
C43 C 0.5212 0.21083 0.54106 0.0
C44 C 0.57704 0.18919 0.53099 0.0
C45 C 0.57717 0.15553 0.51091 0.0
C46 C 0.52101 0.14349 0.50127 0.0
N47 N 0.51956 0.24514 0.56112 0.0
Zn48 Zn 0.02319 0.09774 0.31719 0.0
Zn49 Zn 0.09522 0.9446 0.31252 0.0
Zn50 Zn 0.05522 0.02053 0.31409 0.0
C51 C 0.08605 0.96911 0.24434 0.0
C52 C 0.97636 0.95529 0.34543 0.0
O53 O 0.12172 0.04774 0.34391 0.0
O54 O 0.08591 0.10955 0.35062 0.0
C55 C 0.05795 0.07723 0.24817 0.0
O56 O 0.068 1.00169 0.25939 0.0
O57 O 0.10271 0.93952 0.26191 0.0
O58 O 0.01967 0.92936 0.33762 0.0
O59 O 0.98083 0.99104 0.3377 0.0
O60 O 0.04189 0.1061 0.26754 0.0
O61 O 0.06306 0.04268 0.26074 0.0
O62 O 0.96159 0.03118 0.33897 0.0
O63 O 0.93668 0.09445 0.33364 0.0
C64 C 0.92281 0.06154 0.34331 0.0
O65 O 0.13527 1.00708 0.34662 0.0
O66 O 0.16879 0.94504 0.33983 0.0
C67 C 0.12604 0.0817 0.35637 0.0
C68 C 0.17278 0.97743 0.35393 0.0
Zn69 Zn 0.54761 0.57848 0.82923 0.0
Zn70 Zn 0.62166 0.42804 0.82405 0.0
Zn71 Zn 0.58295 0.5029 0.8265 0.0
C72 C 0.60293 0.45129 0.75643 0.0
C73 C 0.50907 0.43582 0.86188 0.0
O74 O 0.65501 0.53195 0.85092 0.0
O75 O 0.62101 0.59438 0.85145 0.0
C76 C 0.55983 0.55878 0.75984 0.0
O77 O 0.58875 0.48443 0.77137 0.0
O78 O 0.61938 0.42172 0.77402 0.0
O79 O 0.5526 0.41062 0.85298 0.0
O80 O 0.51183 0.47188 0.85413 0.0
O81 O 0.54171 0.58715 0.77936 0.0
O82 O 0.5767 0.52527 0.77279 0.0
O83 O 0.49728 0.51252 0.85943 0.0
O84 O 0.47304 0.57614 0.85898 0.0
C85 C 0.46245 0.54295 0.86971 0.0
O86 O 0.66989 0.49142 0.85334 0.0
O87 O 0.7016 0.42916 0.84531 0.0
C88 C 0.66187 0.56744 0.85835 0.0
C89 C 0.70894 0.46167 0.85813 0.0
H90 H 0.05791 0.24352 0.09904 0.0
C91 C 0.0985 0.24137 0.08165 0.0
H92 H 0.18007 0.20475 0.06462 0.0
H93 H 0.18601 0.1229 0.21142 0.0
H94 H 0.2837 0.15078 0.20769 0.0
H95 H 0.31164 0.19023 0.15759 0.0
H96 H 0.2423 0.20207 0.11098 0.0
C97 C 0.13842 0.20709 0.08114 0.0
C98 C 0.12857 0.17615 0.1069 0.0
C99 C 0.17064 0.16861 0.13329 0.0
C100 C 0.15443 0.1461 0.16229 0.0
C101 C 0.19609 0.14008 0.18899 0.0
C102 C 0.25227 0.15579 0.1871 0.0
C103 C 0.26801 0.17797 0.15887 0.0
C104 C 0.22777 0.18454 0.13227 0.0
H105 H 0.09347 0.05984 0.19523 0.0
C106 C 0.07476 0.08409 0.21149 0.0
H107 H 0.05343 0.14484 0.21558 0.0
H108 H 0.04576 0.17623 0.0565 0.0
H109 H 0.95072 0.14519 0.05906 0.0
H110 H 0.92172 0.10745 0.11008 0.0
H111 H 0.98792 0.10018 0.15877 0.0
C112 C 0.07119 0.12055 0.19913 0.0
C113 C 0.09649 0.13118 0.16474 0.0
C114 C 0.05785 0.13481 0.13655 0.0
C115 C 0.07409 0.15713 0.10743 0.0
C116 C 0.03468 0.16034 0.07955 0.0
C117 C 0.98032 0.14251 0.08064 0.0
C118 C 0.96401 0.12122 0.10937 0.0
C119 C 0.00213 0.11738 0.13714 0.0
H120 H 0.14366 0.84716 0.05378 0.0
C121 C 0.10007 0.83578 0.04974 0.0
H122 H 0.00309 0.84135 0.06388 0.0
H123 H 0.03902 0.88279 0.21861 0.0
H124 H -0.0114 0.82375 0.22305 0.0
H125 H 0.96762 0.78765 0.17103 0.0
H126 H -0.00377 0.81052 0.1144 0.0
C127 C 0.04724 0.8517 0.06841 0.0
C128 C 0.05281 0.87632 0.09928 0.0
C129 C 0.0356 0.86234 0.13225 0.0
C130 C 0.04911 0.88257 0.16226 0.0
C131 C 0.03118 0.86811 0.19493 0.0
C132 C 0.00192 0.83432 0.19788 0.0
C133 C -0.01 0.81406 0.1686 0.0
C134 C 0.00664 0.82767 0.13615 0.0
H135 H 0.04799 0.98462 0.19374 0.0
C136 C 0.07996 0.9643 0.20693 0.0
H137 H 0.13647 0.91139 0.20476 0.0
H138 H 0.0788 0.91563 0.04028 0.0
H139 H 0.1275 0.97563 0.03598 0.0
H140 H 0.15641 1.00861 0.08811 0.0
H141 H 0.13609 0.98212 0.14489 0.0
C142 C 0.10538 0.93172 0.19097 0.0
C143 C 0.08077 0.91628 0.15936 0.0
C144 C 0.09394 0.93185 0.12651 0.0
C145 C 0.07906 0.91212 0.09638 0.0
C146 C 0.09108 0.92879 0.06386 0.0
C147 C 0.1186 0.96329 0.06108 0.0
C148 C 0.13477 0.98191 0.09045 0.0
C149 C 0.12283 0.96645 0.12287 0.0
H150 H 0.53566 0.72724 0.60251 0.0
C151 C 0.57232 0.71949 0.58318 0.0
H152 H 0.64362 0.67523 0.56573 0.0
H153 H 0.66865 0.60337 0.71533 0.0
H154 H 0.76867 0.62615 0.70406 0.0
H155 H 0.79099 0.66241 0.65111 0.0
H156 H 0.71326 0.67628 0.60921 0.0
C157 C 0.6059 0.68289 0.58444 0.0
C158 C 0.59539 0.65585 0.61346 0.0
C159 C 0.64207 0.64692 0.63714 0.0
C160 C 0.62927 0.62585 0.66764 0.0
C161 C 0.67586 0.61892 0.69163 0.0
C162 C 0.73356 0.63187 0.68549 0.0
C163 C 0.74613 0.65228 0.65568 0.0
C164 C 0.70105 0.65997 0.63179 0.0
H165 H 0.592 0.54335 0.70607 0.0
C166 C 0.56757 0.56579 0.7224 0.0
H167 H 0.52631 0.62366 0.72558 0.0
H168 H 0.50054 0.66042 0.56974 0.0
H169 H 0.40155 0.63543 0.58009 0.0
H170 H 0.37876 0.60013 0.63355 0.0
H171 H 0.45519 0.58926 0.6769 0.0
C172 C 0.55131 0.60123 0.70942 0.0
C173 C 0.56999 0.61348 0.67417 0.0
C174 C 0.52513 0.61963 0.64916 0.0
C175 C 0.53795 0.64054 0.61862 0.0
C176 C 0.49255 0.64567 0.59382 0.0
C177 C 0.43574 0.63125 0.59934 0.0
C178 C 0.42292 0.61134 0.62943 0.0
C179 C 0.46696 0.60547 0.65415 0.0
H180 H 0.5311 0.30306 0.60314 0.0
C181 C 0.56194 0.30312 0.58041 0.0
H182 H 0.63098 0.33324 0.55334 0.0
H183 H 0.49589 0.43956 0.68793 0.0
H184 H 0.4023 0.44276 0.65658 0.0
H185 H 0.401 0.41062 0.60008 0.0
H186 H 0.49326 0.37433 0.57497 0.0
C187 C 0.60008 0.33306 0.57601 0.0
C188 C 0.60459 0.36164 0.6042 0.0
C189 C 0.55134 0.38456 0.61758 0.0
C190 C 0.55276 0.4044 0.6495 0.0
C191 C 0.49783 0.42469 0.66346 0.0
C192 C 0.44375 0.42676 0.6457 0.0
C193 C 0.44298 0.40859 0.61392 0.0
C194 C 0.49601 0.38765 0.59992 0.0
H195 H 0.59087 0.47218 0.70265 0.0
C196 C 0.59973 0.44677 0.71871 0.0
H197 H 0.61711 0.38576 0.72082 0.0
H198 H 0.71819 0.327 0.58218 0.0
H199 H 0.81394 0.32984 0.61044 0.0
H200 H 0.81703 0.36678 0.66441 0.0
H201 H 0.72383 0.40096 0.69053 0.0
C202 C 0.60721 0.41098 0.70459 0.0
C203 C 0.60816 0.40247 0.66714 0.0
C204 C 0.66311 0.38411 0.6513 0.0
C205 C 0.66141 0.36342 0.61989 0.0
C206 C 0.71668 0.34361 0.60575 0.0
C207 C 0.77209 0.34497 0.62174 0.0
C208 C 0.77383 0.36571 0.65214 0.0
C209 C 0.72009 0.38502 0.66693 0.0
H210 H 0.19988 0.43489 0.00883 0.0
C211 C 0.19187 0.40449 0.0068 0.0
H212 H 0.21524 0.35255 0.97892 0.0
H213 H 0.31555 0.43541 0.8473 0.0
H214 H 0.21792 0.41798 0.82849 0.0
H215 H 0.14292 0.39239 0.8696 0.0
H216 H 0.1656 0.38336 0.92965 0.0
C217 C 0.22653 0.38179 0.98401 0.0
C218 C 0.27112 0.39884 0.95989 0.0
C219 C 0.25685 0.40427 0.9249 0.0
C220 C 0.29944 0.4199 0.90135 0.0
C221 C 0.28462 0.42413 0.86641 0.0
C222 C 0.22869 0.41423 0.85523 0.0
C223 C 0.18649 0.39979 0.87837 0.0
C224 C 0.2002 0.39469 0.91278 0.0
H225 H 0.46763 0.39628 0.89815 0.0
C226 C 0.45849 0.42316 0.88394 0.0
H227 H 0.3912 0.46807 0.87144 0.0
H228 H 0.31222 0.3927 0.02528 0.0
H229 H 0.40462 0.41662 0.04548 0.0
H230 H 0.47412 0.44905 0.00574 0.0
H231 H 0.45241 0.4569 0.94553 0.0
C232 C 0.40298 0.44322 0.88771 0.0
C233 C 0.35578 0.43058 0.91297 0.0
C234 C 0.36785 0.4279 0.94853 0.0
C235 C 0.32627 0.411 0.97182 0.0
C236 C 0.34117 0.40655 0.00673 0.0
C237 C 0.39418 0.42002 0.01865 0.0
C238 C 0.43341 0.43813 0.99626 0.0
C239 C 0.42063 0.44214 0.96163 0.0
H240 H 0.89626 0.69249 0.98642 0.0
C241 C 0.94051 0.67869 0.97667 0.0
H242 H 0.98548 0.64071 0.93857 0.0
H243 H 0.71762 0.57035 0.94559 0.0
H244 H 0.75262 0.54018 -0.00154 0.0
H245 H 0.85064 0.55432 0.02199 0.0
H246 H 0.91251 0.60068 0.99392 0.0
C247 C 0.94218 0.65263 0.95091 0.0
C248 C 0.88517 0.64217 0.93576 0.0
C249 C 0.85098 0.61394 0.95175 0.0
C250 C 0.79616 0.60423 0.93717 0.0
C251 C 0.76084 0.57771 0.95481 0.0
C252 C 0.78031 0.56025 0.98523 0.0
C253 C 0.83534 0.56839 -0.0014 0.0
C254 C 0.87036 0.59504 0.98225 0.0
H255 H 0.75672 0.5551 0.87544 0.0
C256 C 0.7175 0.57686 0.87515 0.0
H257 H 0.68203 0.63396 0.88931 0.0
H258 H 0.94085 0.69711 0.89863 0.0
H259 H 0.90686 0.7268 0.84535 0.0
H260 H 0.81351 0.7085 0.819 0.0
H261 H 0.75348 0.66052 0.84579 0.0
C262 C 0.72045 0.61153 0.89008 0.0
C263 C 0.77726 0.62162 0.90585 0.0
C264 C 0.81186 0.64959 0.88973 0.0
C265 C 0.86589 0.65991 0.90474 0.0
C266 C 0.89956 0.68806 0.88821 0.0
C267 C 0.88056 0.70534 0.85764 0.0
C268 C 0.82798 0.69506 0.84281 0.0
C269 C 0.79389 0.66752 0.85852 0.0
H270 H 0.9704 0.46344 0.02314 0.0
C271 C 0.96889 0.43215 0.02256 0.0
H272 H 0.92459 0.3863 0.0025 0.0
H273 H 0.67649 0.47383 0.96144 0.0
H274 H 0.64207 0.44609 0.01527 0.0
H275 H 0.71683 0.41722 0.05596 0.0
H276 H 0.82673 0.41558 0.04274 0.0
C277 C 0.92533 0.4175 0.00491 0.0
C278 C 0.88171 0.44238 0.98424 0.0
C279 C 0.81792 0.44433 0.99284 0.0
C280 C 0.77494 0.46148 0.96961 0.0
C281 C 0.71132 0.46143 0.97816 0.0
C282 C 0.69087 0.44565 0.00906 0.0
C283 C 0.73296 0.42937 0.03196 0.0
C284 C 0.79582 0.42854 0.02404 0.0
H285 H 0.79819 0.44136 0.87841 0.0
C286 C 0.75922 0.46341 0.88153 0.0
H287 H 0.71136 0.50498 0.91503 0.0
H288 H 0.00149 0.4433 0.95866 0.0
H289 H 0.03511 0.47591 0.90737 0.0
H290 H 0.96029 0.51304 0.87128 0.0
H291 H 0.85058 0.51512 0.88535 0.0
C292 C 0.75281 0.4854 0.91012 0.0
C293 C 0.79622 0.47716 0.93811 0.0
C294 C 0.85991 0.47934 0.9315 0.0
C295 C 0.90297 0.46053 0.95379 0.0
C296 C 0.96642 0.45902 0.94404 0.0
C297 C 0.98653 0.4776 0.91446 0.0
C298 C 0.9444 0.49819 0.89398 0.0
C299 C 0.8817 0.49901 0.90221 0.0
H300 H 0.20517 0.67163 0.98391 0.0
C301 C 0.16661 0.65681 0.99388 0.0
H302 H 0.13512 0.60311 0.00752 0.0
H303 H 0.29688 0.52128 0.88422 0.0
H304 H 0.19653 0.4985 0.87773 0.0
H305 H 0.10966 0.51933 0.91839 0.0
H306 H 0.12215 0.56259 0.96571 0.0
C307 C 0.17313 0.61788 0.99696 0.0
C308 C 0.22786 0.59473 0.98051 0.0
C309 C 0.21968 0.56817 0.95375 0.0
C310 C 0.26967 0.55627 0.93019 0.0
C311 C 0.26025 0.53114 0.90274 0.0
C312 C 0.20304 0.5178 0.89879 0.0
C313 C 0.15409 0.52951 0.92169 0.0
C314 C 0.16188 0.55456 0.94876 0.0
H315 H 0.41338 0.51425 0.9122 0.0
C316 C 0.41332 0.54014 0.89659 0.0
H317 H 0.37256 0.59726 0.88939 0.0
H318 H 0.26316 0.63275 0.03647 0.0
H319 H 0.36604 0.65066 0.04581 0.0
H320 H 0.45188 0.63225 0.00364 0.0
H321 H 0.43566 0.59535 0.95219 0.0
C322 C 0.37182 0.57051 0.90396 0.0
C323 C 0.327 0.571 0.93369 0.0
C324 C 0.33744 0.59232 0.96344 0.0
C325 C 0.28789 0.60366 0.98728 0.0
C326 C 0.2993 0.62452 0.01712 0.0
C327 C 0.35802 0.63468 0.02284 0.0
C328 C 0.40636 0.62428 -0.0009 0.0
C329 C 0.39646 0.60334 0.96966 0.0
H330 H 0.72339 0.82792 0.48091 0.0
C331 C 0.68754 0.85193 0.4793 0.0
H332 H 0.66749 0.91017 0.46337 0.0
H333 H 0.92884 0.95985 0.43347 0.0
H334 H 0.8943 0.99943 0.48332 0.0
H335 H 0.79885 0.98829 0.51646 0.0
H336 H 0.73773 0.93731 0.50006 0.0
C337 C 0.70053 0.88459 0.46286 0.0
C338 C 0.7605 0.88858 0.44443 0.0
C339 C 0.79624 0.91809 0.45477 0.0
C340 C 0.85065 0.92496 0.43537 0.0
C341 C 0.88607 0.95416 0.44662 0.0
C342 C 0.86706 0.9769 0.4754 0.0
C343 C 0.81336 0.97061 0.49406 0.0
C344 C 0.77854 0.94135 0.48422 0.0
H345 H 0.88144 0.96575 0.36689 0.0
C346 C 0.92183 0.94488 0.36536 0.0
H347 H 0.96271 0.89047 0.382 0.0
H348 H 0.69918 0.83237 0.4148 0.0
H349 H 0.73301 0.79405 0.36436 0.0
H350 H 0.82983 0.80433 0.33225 0.0
H351 H 0.89288 0.85356 0.35032 0.0
C352 C 0.92259 0.91175 0.3834 0.0
C353 C 0.86851 0.9028 0.40529 0.0
C354 C 0.83375 0.8727 0.39538 0.0
C355 C 0.77895 0.866 0.41456 0.0
C356 C 0.74265 0.8377 0.40238 0.0
C357 C 0.76123 0.81566 0.37313 0.0
C358 C 0.81564 0.8215 0.355 0.0
C359 C 0.85146 0.84981 0.36573 0.0
H360 H 0.36345 0.16679 0.51112 0.0
C361 C 0.40593 0.15562 0.49732 0.0
H362 H 0.44373 0.12844 0.45119 0.0
H363 H 0.1772 0.06117 0.44287 0.0
H364 H 0.21658 0.01445 0.48496 0.0
H365 H 0.31391 0.02185 0.5126 0.0
H366 H 0.37271 0.07593 0.49808 0.0
C367 C 0.40269 0.13725 0.46713 0.0
C368 C 0.34285 0.13349 0.45182 0.0
C369 C 0.30944 0.10164 0.46043 0.0
C370 C 0.25399 0.097 0.44398 0.0
C371 C 0.22062 0.06545 0.45371 0.0
C372 C 0.24236 0.03864 0.47813 0.0
C373 C 0.29711 0.04284 0.49374 0.0
C374 C 0.33041 0.07397 0.48515 0.0
H375 H 0.21889 0.06669 0.37508 0.0
C376 C 0.17853 0.0877 0.37731 0.0
H377 H 0.13829 0.13947 0.40117 0.0
H378 H 0.39504 0.19861 0.43072 0.0
H379 H 0.35646 0.2451 0.38823 0.0
H380 H 0.26098 0.2367 0.35904 0.0
H381 H 0.20348 0.18185 0.3722 0.0
C382 C 0.17784 0.11779 0.39904 0.0
C383 C 0.23289 0.12392 0.41851 0.0
C384 C 0.2655 0.1564 0.41069 0.0
C385 C 0.32069 0.16111 0.42731 0.0
C386 C 0.35291 0.19355 0.41875 0.0
C387 C 0.33128 0.22047 0.39442 0.0
C388 C 0.27751 0.21576 0.37802 0.0
C389 C 0.24488 0.18413 0.38588 0.0
H390 H 0.46703 0.89305 0.45316 0.0
C391 C 0.46188 0.88721 0.48059 0.0
H392 H 0.40379 0.89732 0.52536 0.0
H393 H 0.32431 1.00706 0.38679 0.0
H394 H 0.41187 0.04182 0.39886 0.0
H395 H 0.47598 0.0233 0.44797 0.0
H396 H 0.45263 0.96963 0.48533 0.0
C397 C 0.41052 0.90221 0.49793 0.0
C398 C 0.36066 0.92314 0.4783 0.0
C399 C 0.373 0.95562 0.45778 0.0
C400 C 0.33526 0.96681 0.42999 0.0
C401 C 0.35085 0.99773 0.40858 0.0
C402 C 0.40111 0.01785 0.41518 0.0
C403 C 0.43726 1.0074 0.44282 0.0
C404 C 0.42366 0.97656 0.46391 0.0
H405 H 0.20914 1.00518 0.39884 0.0
C406 C 0.21493 0.97986 0.38219 0.0
H407 H 0.25782 0.92311 0.37466 0.0
H408 H 0.31577 0.86685 0.51877 0.0
H409 H 0.22129 0.8372 0.51119 0.0
H410 H 0.15386 0.85783 0.46401 0.0
H411 H 0.18079 0.90802 0.42397 0.0
C412 C 0.25416 0.94929 0.39032 0.0
C413 C 0.28436 0.94608 0.4237 0.0
C414 C 0.26679 0.91778 0.44756 0.0
C415 C 0.3051 0.90626 0.47498 0.0
C416 C 0.28805 0.87672 0.49756 0.0
C417 C 0.23391 0.85957 0.49354 0.0
C418 C 0.19597 0.87116 0.46696 0.0
C419 C 0.21206 0.89984 0.4441 0.0
H420 H 0.67432 0.13173 0.51637 0.0
C421 C 0.63622 0.13361 0.4993 0.0
H422 H 0.60698 0.12137 0.44994 0.0
H423 H 0.90935 0.09934 0.4207 0.0
H424 H 0.91184 0.16428 0.44354 0.0
H425 H 0.8179 0.20044 0.46925 0.0
H426 H 0.72191 0.17167 0.47322 0.0
C427 C 0.64468 0.11874 0.46729 0.0
C428 C 0.70328 0.09714 0.45395 0.0
C429 C 0.75844 0.11551 0.45063 0.0
C430 C 0.81169 0.09571 0.43387 0.0
C431 C 0.86706 0.11371 0.43215 0.0
C432 C 0.86919 0.15091 0.44523 0.0
C433 C 0.81639 0.17118 0.45983 0.0
C434 C 0.7615 0.15399 0.46233 0.0
H435 H 0.82553 0.08047 0.3542 0.0
C436 C 0.8633 0.06002 0.3621 0.0
H437 H 0.8985 0.02649 0.40342 0.0
H438 H 0.60851 0.05123 0.46037 0.0
H439 H 0.60623 0.98708 0.4356 0.0
H440 H 0.69572 0.95594 0.40148 0.0
H441 H 0.78857 0.98839 0.39287 0.0
C442 C 0.85921 0.04388 0.3934 0.0
C443 C 0.80833 0.05925 0.4179 0.0
C444 C 0.75418 0.04039 0.42216 0.0
C445 C 0.70202 0.05896 0.44088 0.0
C446 C 0.64897 0.03889 0.44563 0.0
C447 C 0.6471 1.00203 0.43165 0.0
C448 C 0.69749 0.98447 0.41248 0.0
C449 C 0.75049 1.00335 0.40769 0.0
loop_
_geom_bond_atom_site_label_1
_geom_bond_atom_site_label_2
_geom_bond_distance
_geom_bond_site_symmetry_2
_ccdc_geom_bond_type
H0 C5 0.930 . S
H1 C8 0.930 . S
H2 C10 0.930 . S
H3 C4 1.016 . S
C4 H3 1.016 . S
C4 N11 1.286 . S
C5 H0 0.930 . S
C5 C6 1.397 1_554 S
C5 C7 1.361 . S
C6 C5 1.397 1_556 S
C6 C10 1.390 . S
C7 C5 1.361 . S
C7 C8 1.393 . S
C7 N11 1.413 . S
C8 H1 0.930 . S
C8 C7 1.393 . S
C8 C9 1.399 1_554 S
C9 C8 1.399 1_556 S
C9 C10 1.381 . S
C10 H2 0.930 . S
C10 C6 1.390 . S
C10 C9 1.381 . S
N11 C4 1.286 . S
N11 C7 1.413 . S
H12 C17 0.930 . S
H13 C20 0.930 . S
H14 C22 0.930 . S
H15 C16 1.016 . S
C16 H15 1.016 . S
C16 N23 1.286 1_455 S
C17 H12 0.930 . S
C17 C18 1.397 1_554 S
C17 C19 1.361 . S
C18 C17 1.397 1_556 S
C18 C22 1.390 1_655 S
C19 C17 1.361 . S
C19 C20 1.393 1_655 S
C19 N23 1.413 . S
C20 H13 0.930 . S
C20 C19 1.393 1_455 S
C20 C21 1.399 1_554 S
C21 C20 1.399 1_556 S
C21 C22 1.381 . S
C22 H14 0.930 . S
C22 C18 1.390 1_455 S
C22 C21 1.381 . S
N23 C16 1.286 1_655 S
N23 C19 1.413 . S
H24 C29 0.930 . S
H25 C32 0.930 . S
H26 C34 0.930 . S
H27 C28 1.016 . S
C28 H27 1.016 . S
C28 N35 1.286 . S
C29 H24 0.930 . S
C29 C30 1.397 . S
C29 C31 1.361 . S
C30 C29 1.397 . S
C30 C34 1.390 . S
C31 C29 1.361 . S
C31 C32 1.393 . S
C31 N35 1.413 . S
C32 H25 0.930 . S
C32 C31 1.393 . S
C32 C33 1.399 . S
C33 C32 1.399 . S
C33 C34 1.381 . S
C34 H26 0.930 . S
C34 C30 1.390 . S
C34 C33 1.381 . S
N35 C28 1.286 . S
N35 C31 1.413 . S
H36 C41 0.930 . S
H37 C44 0.930 . S
H38 C46 0.930 . S
H39 C40 1.016 . S
C40 H39 1.016 . S
C40 N47 1.286 . S
C41 H36 0.930 . S
C41 C42 1.397 . S
C41 C43 1.361 . S
C42 C41 1.397 . S
C42 C46 1.390 . S
C43 C41 1.361 . S
C43 C44 1.393 . S
C43 N47 1.413 . S
C44 H37 0.930 . S
C44 C43 1.393 . S
C44 C45 1.399 . S
C45 C44 1.399 . S
C45 C46 1.381 . S
C46 H38 0.930 . S
C46 C42 1.390 . S
C46 C45 1.381 . S
N47 C40 1.286 . S
N47 C43 1.413 . S
Zn48 O54 1.920 . S
Zn48 O60 1.898 . S
Zn48 O63 1.905 1_455 S
Zn49 O57 1.905 . S
Zn49 O58 1.898 . S
Zn49 O66 1.920 . S
Zn50 O53 2.080 . S
Zn50 O56 2.114 1_545 S
Zn50 O59 2.120 1_545 S
Zn50 O61 2.120 . S
Zn50 O62 2.114 1_455 S
Zn50 O65 2.080 1_545 S
C51 O56 1.166 . S
C51 O57 1.182 . S
C52 O58 1.167 . S
C52 O59 1.299 . S
O53 Zn50 2.080 . S
O53 C67 1.305 . S
O54 Zn48 1.920 . S
O54 C67 1.234 . S
C55 O60 1.167 . S
C55 O61 1.299 . S
O56 Zn50 2.114 1_565 S
O56 C51 1.166 . S
O57 Zn49 1.905 . S
O57 C51 1.182 . S
O58 Zn49 1.898 . S
O58 C52 1.167 . S
O59 Zn50 2.120 1_565 S
O59 C52 1.299 . S
O60 Zn48 1.898 . S
O60 C55 1.167 . S
O61 Zn50 2.120 . S
O61 C55 1.299 . S
O62 Zn50 2.114 1_655 S
O62 C64 1.166 . S
O63 Zn48 1.905 1_655 S
O63 C64 1.182 . S
C64 O62 1.166 . S
C64 O63 1.182 . S
O65 Zn50 2.080 1_565 S
O65 C68 1.305 . S
O66 Zn49 1.920 . S
O66 C68 1.234 . S
C67 O53 1.305 . S
C67 O54 1.234 . S
C68 O65 1.305 . S
C68 O66 1.234 . S
Zn69 O75 1.920 . S
Zn69 O81 1.898 . S
Zn69 O84 1.905 . S
Zn70 O78 1.905 . S
Zn70 O79 1.898 . S
Zn70 O87 1.920 . S
Zn71 O74 2.080 . S
Zn71 O77 2.114 . S
Zn71 O80 2.120 . S
Zn71 O82 2.120 . S
Zn71 O83 2.114 . S
Zn71 O86 2.080 . S
C72 O77 1.166 . S
C72 O78 1.182 . S
C73 O79 1.167 . S
C73 O80 1.299 . S
O74 Zn71 2.080 . S
O74 C88 1.305 . S
O75 Zn69 1.920 . S
O75 C88 1.234 . S
C76 O81 1.167 . S
C76 O82 1.299 . S
O77 Zn71 2.114 . S
O77 C72 1.166 . S
O78 Zn70 1.905 . S
O78 C72 1.182 . S
O79 Zn70 1.898 . S
O79 C73 1.167 . S
O80 Zn71 2.120 . S
O80 C73 1.299 . S
O81 Zn69 1.898 . S
O81 C76 1.167 . S
O82 Zn71 2.120 . S
O82 C76 1.299 . S
O83 Zn71 2.114 . S
O83 C85 1.166 . S
O84 Zn69 1.905 . S
O84 C85 1.182 . S
C85 O83 1.166 . S
C85 O84 1.182 . S
O86 Zn71 2.080 . S
O86 C89 1.305 . S
O87 Zn70 1.920 . S
O87 C89 1.234 . S
C88 O74 1.305 . S
C88 O75 1.234 . S
C89 O86 1.305 . S
C89 O87 1.234 . S
H90 C91 0.951 . S
C91 H90 0.951 . S
C91 C97 1.265 . S
H92 C97 0.950 . S
H93 C101 0.949 . S
H94 C102 0.950 . S
H95 C103 0.951 . S
H96 C104 0.951 . S
C97 C91 1.265 . S
C97 H92 0.950 . S
C97 C98 1.478 . S
C98 C97 1.478 . S
C98 C99 1.397 . S
C98 C115 1.394 . S
C99 C98 1.397 . S
C99 C100 1.438 . S
C99 C104 1.429 . S
C100 C99 1.438 . S
C100 C101 1.428 . S
C100 C113 1.394 . S
C101 H93 0.949 . S
C101 C100 1.428 . S
C101 C102 1.345 . S
C102 H94 0.950 . S
C102 C101 1.345 . S
C102 C103 1.424 . S
C103 H95 0.951 . S
C103 C102 1.424 . S
C103 C104 1.347 . S
C104 H96 0.951 . S
C104 C99 1.429 . S
C104 C103 1.347 . S
H105 C106 0.951 . S
C106 H105 0.951 . S
C106 C112 1.265 . S
H107 C112 0.950 . S
H108 C116 0.949 . S
H109 C117 0.950 . S
H110 C118 0.951 . S
H111 C119 0.947 1_655 S
C112 C106 1.265 . S
C112 H107 0.950 . S
C112 C113 1.478 . S
C113 C100 1.394 . S
C113 C112 1.478 . S
C113 C114 1.397 . S
C114 C113 1.397 . S
C114 C115 1.438 . S
C114 C119 1.429 . S
C115 C98 1.394 . S
C115 C114 1.438 . S
C115 C116 1.428 . S
C116 H108 0.949 . S
C116 C115 1.428 . S
C116 C117 1.345 1_455 S
C117 H109 0.950 . S
C117 C116 1.345 1_655 S
C117 C118 1.424 . S
C118 H110 0.951 . S
C118 C117 1.424 . S
C118 C119 1.347 1_655 S
C119 H111 0.947 1_455 S
C119 C114 1.429 . S
C119 C118 1.347 1_455 S
H120 C121 0.951 . S
C121 H120 0.951 . S
C121 C127 1.265 1_455 S
H122 C127 0.950 . S
H123 C131 0.949 . S
H124 C132 0.950 . S
H125 C133 0.951 . S
H126 C134 0.951 . S
C127 C121 1.265 1_655 S
C127 H122 0.950 . S
C127 C128 1.478 1_655 S
C128 C127 1.478 1_455 S
C128 C129 1.397 . S
C128 C145 1.394 . S
C129 C128 1.397 . S
C129 C130 1.438 . S
C129 C134 1.429 . S
C130 C129 1.438 . S
C130 C131 1.428 . S
C130 C143 1.394 . S
C131 H123 0.949 . S
C131 C130 1.428 . S
C131 C132 1.345 . S
C132 H124 0.950 . S
C132 C131 1.345 . S
C132 C133 1.424 . S
C133 H125 0.951 . S
C133 C132 1.424 . S
C133 C134 1.347 . S
C134 H126 0.951 . S
C134 C129 1.429 . S
C134 C133 1.347 . S
H135 C136 0.951 . S
C136 H135 0.951 . S
C136 C142 1.265 . S
H137 C142 0.950 . S
H138 C146 0.949 . S
H139 C147 0.950 . S
H140 C148 0.951 . S
H141 C149 0.951 . S
C142 C136 1.265 . S
C142 H137 0.950 . S
C142 C143 1.478 . S
C143 C130 1.394 . S
C143 C142 1.478 . S
C143 C144 1.397 . S
C144 C143 1.397 . S
C144 C145 1.438 . S
C144 C149 1.429 . S
C145 C128 1.394 . S
C145 C144 1.438 . S
C145 C146 1.428 1_455 S
C146 H138 0.949 . S
C146 C145 1.428 1_655 S
C146 C147 1.345 . S
C147 H139 0.950 . S
C147 C146 1.345 . S
C147 C148 1.424 . S
C148 H140 0.951 . S
C148 C147 1.424 . S
C148 C149 1.347 1_655 S
C149 H141 0.951 . S
C149 C144 1.429 . S
C149 C148 1.347 1_455 S
H150 C151 0.951 . S
C151 H150 0.951 . S
C151 C157 1.265 . S
H152 C157 0.950 . S
H153 C161 0.949 . S
H154 C162 0.950 . S
H155 C163 0.951 . S
H156 C164 0.951 . S
C157 C151 1.265 . S
C157 H152 0.950 . S
C157 C158 1.478 . S
C158 C157 1.478 . S
C158 C159 1.397 . S
C158 C175 1.394 . S
C159 C158 1.397 . S
C159 C160 1.438 . S
C159 C164 1.429 . S
C160 C159 1.438 . S
C160 C161 1.428 . S
C160 C173 1.394 . S
C161 H153 0.949 . S
C161 C160 1.428 . S
C161 C162 1.345 . S
C162 H154 0.950 . S
C162 C161 1.345 . S
C162 C163 1.424 . S
C163 H155 0.951 . S
C163 C162 1.424 . S
C163 C164 1.347 . S
C164 H156 0.951 . S
C164 C159 1.429 . S
C164 C163 1.347 . S
H165 C166 0.951 . S
C166 H165 0.951 . S
C166 C172 1.265 . S
H167 C172 0.950 . S
H168 C176 0.949 . S
H169 C177 0.950 . S
H170 C178 0.951 . S
H171 C179 0.951 . S
C172 C166 1.265 . S
C172 H167 0.950 . S
C172 C173 1.478 . S
C173 C160 1.394 . S
C173 C172 1.478 . S
C173 C174 1.397 . S
C174 C173 1.397 . S
C174 C175 1.438 . S
C174 C179 1.429 . S
C175 C158 1.394 . S
C175 C174 1.438 . S
C175 C176 1.428 . S
C176 H168 0.949 . S
C176 C175 1.428 . S
C176 C177 1.345 . S
C177 H169 0.950 . S
C177 C176 1.345 . S
C177 C178 1.424 . S
C178 H170 0.951 . S
C178 C177 1.424 . S
C178 C179 1.347 . S
C179 H171 0.951 . S
C179 C174 1.429 . S
C179 C178 1.347 . S
H180 C181 0.951 . S
C181 H180 0.951 . S
C181 C187 1.265 . S
H182 C187 0.950 . S
H183 C191 0.949 . S
H184 C192 0.950 . S
H185 C193 0.951 . S
H186 C194 0.951 . S
C187 C181 1.265 . S
C187 H182 0.950 . S
C187 C188 1.478 . S
C188 C187 1.478 . S
C188 C189 1.397 . S
C188 C205 1.394 . S
C189 C188 1.397 . S
C189 C190 1.438 . S
C189 C194 1.429 . S
C190 C189 1.438 . S
C190 C191 1.428 . S
C190 C203 1.394 . S
C191 H183 0.949 . S
C191 C190 1.428 . S
C191 C192 1.345 . S
C192 H184 0.950 . S
C192 C191 1.345 . S
C192 C193 1.424 . S
C193 H185 0.951 . S
C193 C192 1.424 . S
C193 C194 1.347 . S
C194 H186 0.951 . S
C194 C189 1.429 . S
C194 C193 1.347 . S
H195 C196 0.951 . S
C196 H195 0.951 . S
C196 C202 1.265 . S
H197 C202 0.950 . S
H198 C206 0.949 . S
H199 C207 0.950 . S
H200 C208 0.951 . S
H201 C209 0.951 . S
C202 C196 1.265 . S
C202 H197 0.950 . S
C202 C203 1.478 . S
C203 C190 1.394 . S
C203 C202 1.478 . S
C203 C204 1.397 . S
C204 C203 1.397 . S
C204 C205 1.438 . S
C204 C209 1.429 . S
C205 C188 1.394 . S
C205 C204 1.438 . S
C205 C206 1.428 . S
C206 H198 0.949 . S
C206 C205 1.428 . S
C206 C207 1.345 . S
C207 H199 0.950 . S
C207 C206 1.345 . S
C207 C208 1.424 . S
C208 H200 0.951 . S
C208 C207 1.424 . S
C208 C209 1.347 . S
C209 H201 0.951 . S
C209 C204 1.429 . S
C209 C208 1.347 . S
H210 C211 0.951 . S
C211 H210 0.951 . S
C211 C217 1.265 . S
H212 C217 0.950 . S
H213 C221 0.949 . S
H214 C222 0.950 . S
H215 C223 0.951 . S
H216 C224 0.951 . S
C217 C211 1.265 . S
C217 H212 0.950 . S
C217 C218 1.478 . S
C218 C217 1.478 . S
C218 C219 1.397 . S
C218 C235 1.394 . S
C219 C218 1.397 . S
C219 C220 1.438 . S
C219 C224 1.429 . S
C220 C219 1.438 . S
C220 C221 1.428 . S
C220 C233 1.394 . S
C221 H213 0.949 . S
C221 C220 1.428 . S
C221 C222 1.345 . S
C222 H214 0.950 . S
C222 C221 1.345 . S
C222 C223 1.424 . S
C223 H215 0.951 . S
C223 C222 1.424 . S
C223 C224 1.347 . S
C224 H216 0.951 . S
C224 C219 1.429 . S
C224 C223 1.347 . S
H225 C226 0.951 . S
C226 H225 0.951 . S
C226 C232 1.265 . S
H227 C232 0.950 . S
H228 C236 0.949 . S
H229 C237 0.950 . S
H230 C238 0.951 . S
H231 C239 0.951 . S
C232 C226 1.265 . S
C232 H227 0.950 . S
C232 C233 1.478 . S
C233 C220 1.394 . S
C233 C232 1.478 . S
C233 C234 1.397 . S
C234 C233 1.397 . S
C234 C235 1.438 . S
C234 C239 1.429 . S
C235 C218 1.394 . S
C235 C234 1.438 . S
C235 C236 1.428 1_556 S
C236 H228 0.949 . S
C236 C235 1.428 1_554 S
C236 C237 1.345 . S
C237 H229 0.950 . S
C237 C236 1.345 . S
C237 C238 1.424 . S
C238 H230 0.951 . S
C238 C237 1.424 . S
C238 C239 1.347 1_554 S
C239 H231 0.951 . S
C239 C234 1.429 . S
C239 C238 1.347 1_556 S
H240 C241 0.951 . S
C241 H240 0.951 . S
C241 C247 1.265 . S
H242 C247 0.950 . S
H243 C251 0.949 . S
H244 C252 0.950 . S
H245 C253 0.951 . S
H246 C254 0.951 . S
C247 C241 1.265 . S
C247 H242 0.950 . S
C247 C248 1.478 . S
C248 C247 1.478 . S
C248 C249 1.397 . S
C248 C265 1.394 . S
C249 C248 1.397 . S
C249 C250 1.438 . S
C249 C254 1.429 . S
C250 C249 1.438 . S
C250 C251 1.428 . S
C250 C263 1.394 . S
C251 H243 0.949 . S
C251 C250 1.428 . S
C251 C252 1.345 . S
C252 H244 0.950 . S
C252 C251 1.345 . S
C252 C253 1.424 . S
C253 H245 0.951 . S
C253 C252 1.424 . S
C253 C254 1.347 . S
C254 H246 0.951 . S
C254 C249 1.429 . S
C254 C253 1.347 . S
H255 C256 0.951 . S
C256 H255 0.951 . S
C256 C262 1.265 . S
H257 C262 0.950 . S
H258 C266 0.949 . S
H259 C267 0.950 . S
H260 C268 0.951 . S
H261 C269 0.951 . S
C262 C256 1.265 . S
C262 H257 0.950 . S
C262 C263 1.478 . S
C263 C250 1.394 . S
C263 C262 1.478 . S
C263 C264 1.397 . S
C264 C263 1.397 . S
C264 C265 1.438 . S
C264 C269 1.429 . S
C265 C248 1.394 . S
C265 C264 1.438 . S
C265 C266 1.428 . S
C266 H258 0.949 . S
C266 C265 1.428 . S
C266 C267 1.345 . S
C267 H259 0.950 . S
C267 C266 1.345 . S
C267 C268 1.424 . S
C268 H260 0.951 . S
C268 C267 1.424 . S
C268 C269 1.347 . S
C269 H261 0.951 . S
C269 C264 1.429 . S
C269 C268 1.347 . S
H270 C271 0.951 . S
C271 H270 0.951 . S
C271 C277 1.265 1_455 S
H272 C277 0.950 . S
H273 C281 0.949 . S
H274 C282 0.950 . S
H275 C283 0.960 . S
H276 C284 0.951 . S
C277 C271 1.265 1_655 S
C277 H272 0.950 . S
C277 C278 1.478 . S
C278 C277 1.478 . S
C278 C279 1.397 . S
C278 C295 1.394 . S
C279 C278 1.397 . S
C279 C280 1.438 . S
C279 C284 1.429 . S
C280 C279 1.438 . S
C280 C281 1.428 . S
C280 C293 1.394 . S
C281 H273 0.949 . S
C281 C280 1.428 . S
C281 C282 1.345 . S
C282 H274 0.950 . S
C282 C281 1.345 . S
C282 C283 1.419 1_556 S
C283 H275 0.960 . S
C283 C282 1.419 1_554 S
C283 C284 1.342 1_554 S
C284 H276 0.951 . S
C284 C279 1.429 . S
C284 C283 1.342 1_556 S
H285 C286 0.951 . S
C286 H285 0.951 . S
C286 C292 1.265 . S
H287 C292 0.950 . S
H288 C296 0.949 1_455 S
H289 C297 0.950 . S
H290 C298 0.951 . S
H291 C299 0.951 . S
C292 C286 1.265 . S
C292 H287 0.950 . S
C292 C293 1.478 . S
C293 C280 1.394 . S
C293 C292 1.478 . S
C293 C294 1.397 . S
C294 C293 1.397 . S
C294 C295 1.438 . S
C294 C299 1.429 . S
C295 C278 1.394 . S
C295 C294 1.438 . S
C295 C296 1.428 . S
C296 H288 0.949 1_655 S
C296 C295 1.428 . S
C296 C297 1.345 1_655 S
C297 H289 0.950 . S
C297 C296 1.345 1_455 S
C297 C298 1.424 1_455 S
C298 H290 0.951 . S
C298 C297 1.424 1_655 S
C298 C299 1.347 . S
C299 H291 0.951 . S
C299 C294 1.429 . S
C299 C298 1.347 . S
H300 C301 0.951 . S
C301 H300 0.951 . S
C301 C307 1.265 . S
H302 C307 0.950 . S
H303 C311 0.949 . S
H304 C312 0.950 . S
H305 C313 0.951 . S
H306 C314 0.951 1_554 S
C307 C301 1.265 . S
C307 H302 0.950 . S
C307 C308 1.478 . S
C308 C307 1.478 . S
C308 C309 1.397 . S
C308 C325 1.394 . S
C309 C308 1.397 . S
C309 C310 1.438 . S
C309 C314 1.429 . S
C310 C309 1.438 . S
C310 C311 1.428 . S
C310 C323 1.394 . S
C311 H303 0.949 . S
C311 C310 1.428 . S
C311 C312 1.345 . S
C312 H304 0.950 . S
C312 C311 1.345 . S
C312 C313 1.424 1_556 S
C313 H305 0.951 . S
C313 C312 1.424 1_554 S
C313 C314 1.347 1_554 S
C314 H306 0.951 1_556 S
C314 C309 1.429 . S
C314 C313 1.347 1_556 S
H315 C316 0.951 . S
C316 H315 0.951 . S
C316 C322 1.265 . S
H317 C322 0.950 . S
H318 C326 0.949 . S
H319 C327 0.950 . S
H320 C328 0.951 . S
H321 C329 0.951 . S
C322 C316 1.265 . S
C322 H317 0.950 . S
C322 C323 1.478 . S
C323 C310 1.394 . S
C323 C322 1.478 . S
C323 C324 1.397 . S
C324 C323 1.397 . S
C324 C325 1.438 . S
C324 C329 1.429 . S
C325 C308 1.394 . S
C325 C324 1.438 . S
C325 C326 1.428 . S
C326 H318 0.949 . S
C326 C325 1.428 . S
C326 C327 1.345 . S
C327 H319 0.950 . S
C327 C326 1.345 . S
C327 C328 1.424 . S
C328 H320 0.951 . S
C328 C327 1.424 . S
C328 C329 1.347 . S
C329 H321 0.951 . S
C329 C324 1.429 . S
C329 C328 1.347 . S
H330 C331 0.951 . S
C331 H330 0.951 . S
C331 C337 1.265 . S
H332 C337 0.950 . S
H333 C341 0.949 . S
H334 C342 0.950 . S
H335 C343 0.951 . S
H336 C344 0.951 . S
C337 C331 1.265 . S
C337 H332 0.950 . S
C337 C338 1.478 . S
C338 C337 1.478 . S
C338 C339 1.397 . S
C338 C355 1.394 . S
C339 C338 1.397 . S
C339 C340 1.438 . S
C339 C344 1.429 . S
C340 C339 1.438 . S
C340 C341 1.428 . S
C340 C353 1.394 . S
C341 H333 0.949 . S
C341 C340 1.428 . S
C341 C342 1.345 . S
C342 H334 0.950 . S
C342 C341 1.345 . S
C342 C343 1.424 . S
C343 H335 0.951 . S
C343 C342 1.424 . S
C343 C344 1.347 . S
C344 H336 0.951 . S
C344 C339 1.429 . S
C344 C343 1.347 . S
H345 C346 0.951 . S
C346 H345 0.951 . S
C346 C352 1.265 . S
H347 C352 0.950 1_455 S
H348 C356 0.949 . S
H349 C357 0.950 . S
H350 C358 0.951 . S
H351 C359 0.951 . S
C352 C346 1.265 . S
C352 H347 0.950 1_655 S
C352 C353 1.478 . S
C353 C340 1.394 . S
C353 C352 1.478 . S
C353 C354 1.397 . S
C354 C353 1.397 . S
C354 C355 1.438 . S
C354 C359 1.429 . S
C355 C338 1.394 . S
C355 C354 1.438 . S
C355 C356 1.428 . S
C356 H348 0.949 . S
C356 C355 1.428 . S
C356 C357 1.345 . S
C357 H349 0.950 . S
C357 C356 1.345 . S
C357 C358 1.424 . S
C358 H350 0.951 . S
C358 C357 1.424 . S
C358 C359 1.347 . S
C359 H351 0.951 . S
C359 C354 1.429 . S
C359 C358 1.347 . S
H360 C361 0.951 . S
C361 H360 0.951 . S
C361 C367 1.265 . S
H362 C367 0.950 . S
H363 C371 0.949 . S
H364 C372 0.950 . S
H365 C373 0.951 . S
H366 C374 0.951 . S
C367 C361 1.265 . S
C367 H362 0.950 . S
C367 C368 1.478 . S
C368 C367 1.478 . S
C368 C369 1.397 . S
C368 C385 1.394 . S
C369 C368 1.397 . S
C369 C370 1.438 . S
C369 C374 1.429 . S
C370 C369 1.438 . S
C370 C371 1.428 . S
C370 C383 1.394 . S
C371 H363 0.949 . S
C371 C370 1.428 . S
C371 C372 1.345 . S
C372 H364 0.950 . S
C372 C371 1.345 . S
C372 C373 1.424 . S
C373 H365 0.951 . S
C373 C372 1.424 . S
C373 C374 1.347 . S
C374 H366 0.951 . S
C374 C369 1.429 . S
C374 C373 1.347 . S
H375 C376 0.951 . S
C376 H375 0.951 . S
C376 C382 1.265 . S
H377 C382 0.950 . S
H378 C386 0.949 . S
H379 C387 0.950 . S
H380 C388 0.951 . S
H381 C389 0.951 . S
C382 C376 1.265 . S
C382 H377 0.950 . S
C382 C383 1.478 . S
C383 C370 1.394 . S
C383 C382 1.478 . S
C383 C384 1.397 . S
C384 C383 1.397 . S
C384 C385 1.438 . S
C384 C389 1.429 . S
C385 C368 1.394 . S
C385 C384 1.438 . S
C385 C386 1.428 . S
C386 H378 0.949 . S
C386 C385 1.428 . S
C386 C387 1.345 . S
C387 H379 0.950 . S
C387 C386 1.345 . S
C387 C388 1.424 . S
C388 H380 0.951 . S
C388 C387 1.424 . S
C388 C389 1.347 . S
C389 H381 0.951 . S
C389 C384 1.429 . S
C389 C388 1.347 . S
H390 C391 0.951 . S
C391 H390 0.951 . S
C391 C397 1.265 . S
H392 C397 0.950 . S
H393 C401 0.949 . S
H394 C402 0.950 . S
H395 C403 0.951 . S
H396 C404 0.951 . S
C397 C391 1.265 . S
C397 H392 0.950 . S
C397 C398 1.478 . S
C398 C397 1.478 . S
C398 C399 1.397 . S
C398 C415 1.394 . S
C399 C398 1.397 . S
C399 C400 1.438 . S
C399 C404 1.429 . S
C400 C399 1.438 . S
C400 C401 1.428 . S
C400 C413 1.394 . S
C401 H393 0.949 . S
C401 C400 1.428 . S
C401 C402 1.345 . S
C402 H394 0.950 . S
C402 C401 1.345 . S
C402 C403 1.424 . S
C403 H395 0.951 . S
C403 C402 1.424 . S
C403 C404 1.347 . S
C404 H396 0.951 . S
C404 C399 1.429 . S
C404 C403 1.347 . S
H405 C406 0.951 . S
C406 H405 0.951 . S
C406 C412 1.265 . S
H407 C412 0.950 . S
H408 C416 0.949 . S
H409 C417 0.950 . S
H410 C418 0.951 . S
H411 C419 0.951 . S
C412 C406 1.265 . S
C412 H407 0.950 . S
C412 C413 1.478 . S
C413 C400 1.394 . S
C413 C412 1.478 . S
C413 C414 1.397 . S
C414 C413 1.397 . S
C414 C415 1.438 . S
C414 C419 1.429 . S
C415 C398 1.394 . S
C415 C414 1.438 . S
C415 C416 1.428 . S
C416 H408 0.949 . S
C416 C415 1.428 . S
C416 C417 1.345 . S
C417 H409 0.950 . S
C417 C416 1.345 . S
C417 C418 1.424 . S
C418 H410 0.951 . S
C418 C417 1.424 . S
C418 C419 1.347 . S
C419 H411 0.951 . S
C419 C414 1.429 . S
C419 C418 1.347 . S
H420 C421 0.951 . S
C421 H420 0.951 . S
C421 C427 1.265 . S
H422 C427 0.950 . S
H423 C431 0.949 . S
H424 C432 0.950 . S
H425 C433 0.951 . S
H426 C434 0.951 . S
C427 C421 1.265 . S
C427 H422 0.950 . S
C427 C428 1.478 . S
C428 C427 1.478 . S
C428 C429 1.397 . S
C428 C445 1.394 . S
C429 C428 1.397 . S
C429 C430 1.438 . S
C429 C434 1.429 . S
C430 C429 1.438 . S
C430 C431 1.428 . S
C430 C443 1.394 . S
C431 H423 0.949 . S
C431 C430 1.428 . S
C431 C432 1.345 . S
C432 H424 0.950 . S
C432 C431 1.345 . S
C432 C433 1.424 . S
C433 H425 0.951 . S
C433 C432 1.424 . S
C433 C434 1.347 . S
C434 H426 0.951 . S
C434 C429 1.429 . S
C434 C433 1.347 . S
H435 C436 0.951 . S
C436 H435 0.951 . S
C436 C442 1.265 . S
H437 C442 0.950 . S
H438 C446 0.949 . S
H439 C447 0.950 . S
H440 C448 0.951 . S
H441 C449 0.951 . S
C442 C436 1.265 . S
C442 H437 0.950 . S
C442 C443 1.478 . S
C443 C430 1.394 . S
C443 C442 1.478 . S
C443 C444 1.397 . S
C444 C443 1.397 . S
C444 C445 1.438 . S
C444 C449 1.429 . S
C445 C428 1.394 . S
C445 C444 1.438 . S
C445 C446 1.428 . S
C446 H438 0.949 . S
C446 C445 1.428 . S
C446 C447 1.345 . S
C447 H439 0.950 . S
C447 C446 1.345 . S
C447 C448 1.424 . S
C448 H440 0.951 . S
C448 C447 1.424 . S
C448 C449 1.347 . S
C449 H441 0.951 . S
C449 C444 1.429 . S
C449 C448 1.347 . S
C106 C55 1.466 . S
C91 C4 1.514 . S
C136 C51 1.364 . S
C121 C16 1.478 . S
C166 C76 1.442 . S
C151 C28 1.521 . S
C181 C40 1.517 . S
C196 C72 1.370 . S
C211 C9 1.187 . S
C226 C73 1.015 . S
C256 C88 1.136 . S
C241 C18 1.269 . S
C271 C6 1.711 . S
C286 C89 1.523 . S
C316 C85 1.571 . S
C301 C21 1.727 . S
C346 C52 1.188 1_655 S
C331 C33 1.281 . S
C361 C42 1.277 . S
C376 C67 1.183 . S
C406 C68 1.545 . S
C391 C30 1.720 . S
C436 C64 1.625 . S
C421 C45 1.760 . S
