# Generated by pormake.
# Topology anh, (6,3)-cn, num edge types: 1
# Building blocks:
#     Node 0, Type 0, BuildingBlock: VOLQOD_clean_sbu_1, # of connection points: 6
#     Node 1, Type 0, BuildingBlock: VOLQOD_clean_sbu_1, # of connection points: 6
#     Node 2, Type 0, BuildingBlock: VOLQOD_clean_sbu_1, # of connection points: 6
#     Node 3, Type 1, BuildingBlock: MIDCAF_clean_linker_0, # of connection points: 3
#     Node 4, Type 1, BuildingBlock: MIDCAF_clean_linker_0, # of connection points: 3
#     Node 5, Type 1, BuildingBlock: MIDCAF_clean_linker_0, # of connection points: 3
#     Node 6, Type 1, BuildingBlock: MIDCAF_clean_linker_0, # of connection points: 3
#     Node 7, Type 1, BuildingBlock: MIDCAF_clean_linker_0, # of connection points: 3
#     Node 8, Type 1, BuildingBlock: MIDCAF_clean_linker_0, # of connection points: 3
#     Edge 9, Type (0, 1), BuildingBlock: ZUJKAS_clean_linker_0, # of connection points: 2
#     Edge 10, Type (0, 1), BuildingBlock: ZUJKAS_clean_linker_0, # of connection points: 2
#     Edge 11, Type (0, 1), BuildingBlock: ZUJKAS_clean_linker_0, # of connection points: 2
#     Edge 12, Type (0, 1), BuildingBlock: ZUJKAS_clean_linker_0, # of connection points: 2
#     Edge 13, Type (0, 1), BuildingBlock: ZUJKAS_clean_linker_0, # of connection points: 2
#     Edge 14, Type (0, 1), BuildingBlock: ZUJKAS_clean_linker_0, # of connection points: 2
#     Edge 15, Type (0, 1), BuildingBlock: ZUJKAS_clean_linker_0, # of connection points: 2
#     Edge 16, Type (0, 1), BuildingBlock: ZUJKAS_clean_linker_0, # of connection points: 2
#     Edge 17, Type (0, 1), BuildingBlock: ZUJKAS_clean_linker_0, # of connection points: 2
#     Edge 18, Type (0, 1), BuildingBlock: ZUJKAS_clean_linker_0, # of connection points: 2
#     Edge 19, Type (0, 1), BuildingBlock: ZUJKAS_clean_linker_0, # of connection points: 2
#     Edge 20, Type (0, 1), BuildingBlock: ZUJKAS_clean_linker_0, # of connection points: 2
#     Edge 21, Type (0, 1), BuildingBlock: ZUJKAS_clean_linker_0, # of connection points: 2
#     Edge 22, Type (0, 1), BuildingBlock: ZUJKAS_clean_linker_0, # of connection points: 2
#     Edge 23, Type (0, 1), BuildingBlock: ZUJKAS_clean_linker_0, # of connection points: 2
#     Edge 24, Type (0, 1), BuildingBlock: ZUJKAS_clean_linker_0, # of connection points: 2
#     Edge 25, Type (0, 1), BuildingBlock: ZUJKAS_clean_linker_0, # of connection points: 2
#     Edge 26, Type (0, 1), BuildingBlock: ZUJKAS_clean_linker_0, # of connection points: 2
# Relax obj value: 0.167
# Max RMSD: 0.230
# Mean RMSD: 0.115
data_MOF--net-anh--node1-VOLQOD_clean_sbu_1--node2-MIDCAF_clean_linker_0--edge1-ZUJKAS_clean_linker_0
_symmetry_space_group_name_H-M    P1
_symmetry_Int_Tables_number       1
_symmetry_cell_setting            triclinic
loop_
_symmetry_equiv_pos_as_xyz
'x, y, z'
_cell_length_a     42.662585
_cell_length_b     42.596204
_cell_length_c     91.838932
_cell_angle_alpha  89.990144
_cell_angle_beta   89.880871
_cell_angle_gamma 120.12091
loop_
_atom_site_label
_atom_site_type_symbol
_atom_site_fract_x
_atom_site_fract_y
_atom_site_fract_z
_atom_type_partial_charge
O0 O -0.00301 0.54519 0.19127 0.0
Zn1 Zn -0.00421 0.56098 0.17065 0.0
O2 O -0.00184 0.52768 0.15648 0.0
Zn3 Zn 0.95467 0.50556 0.14442 0.0
Zn4 Zn 0.00215 0.48996 0.16682 0.0
Zn5 Zn 0.04029 0.55374 0.1439 0.0
O6 O 0.96643 0.51383 0.12298 0.0
O7 O 0.02602 0.55052 0.12297 0.0
O8 O 0.95004 0.56359 0.1682 0.0
O9 O 0.92413 0.52751 0.14917 0.0
O10 O 0.92412 0.45172 0.14827 0.0
O11 O 0.95861 0.44139 0.16332 0.0
O12 O 0.0455 0.48708 0.16052 0.0
O13 O 0.03894 0.61138 0.16828 0.0
O14 O 0.07347 0.53303 0.14508 0.0
O15 O 0.06866 0.60608 0.14941 0.0
C16 C 0.00186 0.52033 0.19659 0.0
C17 C -0.00387 0.53319 0.11619 0.0
C18 C 0.92974 0.43013 0.15594 0.0
C19 C 0.92472 0.54921 0.15883 0.0
C20 C 0.07168 0.50621 0.15193 0.0
C21 C 0.0653 0.62514 0.15929 0.0
O22 O 0.00531 0.49814 0.18841 0.0
O23 O 0.45379 0.00392 0.46917 0.0
Zn24 Zn 0.44204 0.00307 0.4905 0.0
O25 O 0.47667 -0.00249 0.50268 0.0
Zn26 Zn 0.5022 0.03912 0.51559 0.0
Zn27 Zn 0.51177 0.99407 0.4902 0.0
Zn28 Zn 0.45124 0.95365 0.51445 0.0
O29 O 0.49571 0.02428 0.53671 0.0
O30 O 0.45678 0.96509 0.53581 0.0
O31 O 0.4423 0.0495 0.49516 0.0
O32 O 0.48308 0.073 0.51286 0.0
O33 O 0.55563 0.06781 0.51103 0.0
O34 O 0.56136 0.03718 0.4927 0.0
O35 O 0.51516 0.94999 0.49477 0.0
O36 O 0.39149 0.96062 0.49324 0.0
O37 O 0.47163 0.92068 0.51111 0.0
O38 O 0.39827 0.92625 0.5097 0.0
C39 C 0.47636 -0.00199 0.46236 0.0
C40 C 0.47605 0.99396 0.54306 0.0
C41 C 0.57501 0.06394 0.50143 0.0
C42 C 0.46011 0.07438 0.50444 0.0
C43 C 0.49727 0.92304 0.5032 0.0
C44 C 0.37836 0.9322 0.50115 0.0
O45 O 0.49908 0.99242 0.46914 0.0
O46 O 0.47691 0.47356 0.8012 0.0
Zn47 Zn 0.46531 0.45989 0.82241 0.0
O48 O 0.50507 0.49299 0.83513 0.0
Zn49 Zn 0.48725 0.51305 0.84993 0.0
Zn50 Zn 0.54151 0.53242 0.8234 0.0
Zn51 Zn 0.52667 0.46734 0.84466 0.0
O52 O 0.49449 0.49976 0.87015 0.0
O53 O 0.52125 0.46726 0.86646 0.0
O54 O 0.41888 0.45895 0.82746 0.0
O55 O 0.4341 0.49332 0.84729 0.0
O56 O 0.51107 0.56753 0.84836 0.0
O57 O 0.54611 0.57993 0.82885 0.0
O58 O 0.59013 0.53757 0.82621 0.0
O59 O 0.45641 0.40919 0.82451 0.0
O60 O 0.58018 0.49113 0.8403 0.0
O61 O 0.50154 0.41504 0.83845 0.0
C62 C 0.50393 0.49986 0.79487 0.0
C63 C 0.50808 0.48122 0.87502 0.0
C64 C 0.53332 0.59014 0.83915 0.0
C65 C 0.41064 0.47301 0.83795 0.0
C66 C 0.6016 0.51929 0.83297 0.0
C67 C 0.47334 0.39556 0.83086 0.0
O68 O 0.53029 0.52418 0.80214 0.0
C69 C 0.39392 0.90035 0.22809 0.0
C70 C 0.39399 0.90332 0.21286 0.0
C71 C 0.42585 0.92901 0.20577 0.0
C72 C 0.45698 0.95147 0.21378 0.0
H73 H 0.56534 0.02591 0.20958 0.0
H74 H 0.61732 0.07404 0.19676 0.0
H75 H 0.66025 0.12976 0.23749 0.0
H76 H 0.60819 0.0819 0.25038 0.0
H77 H 0.56323 0.04952 0.27942 0.0
H78 H 0.55647 0.05132 0.30569 0.0
H79 H 0.45728 0.94767 0.30397 0.0
H80 H 0.4634 0.94627 0.27772 0.0
H81 H 0.42378 0.92002 0.24784 0.0
H82 H 0.36963 0.88104 0.23386 0.0
H83 H 0.42678 0.93157 0.19402 0.0
H84 H 0.48102 0.97113 0.20798 0.0
N85 N 0.52017 -0.00167 0.23084 0.0
N86 N 0.54734 0.02213 0.2534 0.0
N87 N 0.48763 0.97355 0.25239 0.0
C88 C 0.54941 0.0225 0.23863 0.0
C89 C 0.51655 -0.00244 0.26036 0.0
C90 C 0.48918 0.97377 0.23763 0.0
C91 C 0.58238 0.05018 0.23101 0.0
C92 C 0.58593 0.04828 0.21585 0.0
C93 C 0.61581 0.07571 0.20849 0.0
C94 C 0.64263 0.1057 0.21612 0.0
C95 C 0.63968 0.10713 0.23132 0.0
C96 C 0.60993 0.0796 0.2387 0.0
C97 C 0.51376 -0.00215 0.27643 0.0
C98 C 0.54005 0.02702 0.28464 0.0
C99 C 0.53625 0.02801 0.29972 0.0
C100 C 0.5062 -0.00025 0.30693 0.0
C101 C 0.48035 0.97025 0.29874 0.0
C102 C 0.48402 0.96935 0.28367 0.0
C103 C 0.45681 0.94881 0.22906 0.0
C104 C 0.42497 0.92284 0.2361 0.0
C105 C 0.5051 0.40249 0.55857 0.0
C106 C 0.4953 0.40271 0.54397 0.0
C107 C 0.50052 0.43529 0.53792 0.0
C108 C 0.51537 0.46694 0.54625 0.0
H109 H 0.55534 0.57429 0.54267 0.0
H110 H 0.56482 0.62966 0.53135 0.0
H111 H 0.60819 0.6876 0.5717 0.0
H112 H 0.59742 0.63154 0.58328 0.0
H113 H 0.57353 0.58368 0.61246 0.0
H114 H 0.5673 0.57843 0.63883 0.0
H115 H 0.52825 0.46344 0.63581 0.0
H116 H 0.53377 0.46836 0.60944 0.0
H117 H 0.52702 0.43287 0.57813 0.0
H118 H 0.50224 0.37808 0.5635 0.0
H119 H 0.49292 0.43633 0.52676 0.0
H120 H 0.51891 0.49154 0.54125 0.0
N121 N 0.55187 0.53262 0.56323 0.0
N122 N 0.56623 0.56138 0.58596 0.0
N123 N 0.54194 0.4984 0.58445 0.0
C124 C 0.565 0.56343 0.57123 0.0
C125 C 0.55479 0.52893 0.59266 0.0
C126 C 0.54043 0.50007 0.56972 0.0
C127 C 0.5751 0.59828 0.56397 0.0
C128 C 0.56729 0.59884 0.54914 0.0
C129 C 0.57305 0.6308 0.54258 0.0
C130 C 0.58709 0.66312 0.55062 0.0
C131 C 0.59671 0.66301 0.56526 0.0
C132 C 0.59065 0.6309 0.57188 0.0
C133 C 0.5539 0.5264 0.60877 0.0
C134 C 0.56384 0.55728 0.61739 0.0
C135 C 0.56043 0.55433 0.63253 0.0
C136 C 0.54704 0.52047 0.6394 0.0
C137 C 0.53805 0.4898 0.63083 0.0
C138 C 0.54145 0.49271 0.61569 0.0
C139 C 0.52508 0.46663 0.56086 0.0
C140 C 0.51963 0.43402 0.56694 0.0
C141 C 0.95997 0.61758 0.87923 0.0
C142 C 0.95757 0.61154 0.86413 0.0
C143 C 0.97866 0.59849 0.85767 0.0
C144 C -0.0001 0.58942 0.86626 0.0
H145 H 0.04036 0.52036 0.86505 0.0
H146 H 0.07019 0.4911 0.85331 0.0
H147 H 0.12792 0.50045 0.89321 0.0
H148 H 0.09708 0.52835 0.90507 0.0
H149 H 0.06601 0.54494 0.93418 0.0
H150 H 0.05945 0.54345 0.96054 0.0
H151 H 0.98814 0.58754 0.95668 0.0
H152 H -0.00574 0.58876 0.93026 0.0
H153 H 0.98115 0.61204 0.89951 0.0
H154 H 0.94374 0.62726 0.88456 0.0
H155 H 0.97765 0.59399 0.84603 0.0
H156 H 0.01477 0.57817 0.86096 0.0
N157 N 0.03451 0.56121 0.88455 0.0
N158 N 0.04898 0.5487 0.90761 0.0
N159 N 0.01782 0.58077 0.90547 0.0
C160 C 0.04974 0.54618 0.89289 0.0
C161 C 0.03298 0.56589 0.91399 0.0
C162 C 0.01871 0.57875 0.89073 0.0
C163 C 0.06661 0.52697 0.88597 0.0
C164 C 0.05924 0.51593 0.87134 0.0
C165 C 0.07638 0.49918 0.8646 0.0
C166 C 0.10155 0.49348 0.87227 0.0
C167 C 0.10819 0.50375 0.88701 0.0
C168 C 0.09074 0.52009 0.8938 0.0
C169 C 0.03057 0.56685 0.93006 0.0
C170 C 0.04903 0.55447 0.93891 0.0
C171 C 0.04546 0.5538 0.95404 0.0
C172 C 0.02324 0.56532 0.96066 0.0
C173 C 0.00515 0.57814 0.95186 0.0
C174 C 0.00887 0.57903 0.93672 0.0
C175 C 0.0004 0.59314 0.88149 0.0
C176 C 0.98118 0.60849 0.88783 0.0
C177 C 0.08591 0.61418 0.429 0.0
C178 C 0.08603 0.61482 0.4443 0.0
C179 C 0.06325 0.58266 0.45193 0.0
C180 C 0.04123 0.55043 0.44444 0.0
H181 H 0.96178 0.44606 0.45067 0.0
H182 H 0.91682 0.39302 0.4639 0.0
H183 H 0.8843 0.33173 0.42384 0.0
H184 H 0.92875 0.38504 0.41047 0.0
H185 H 0.95313 0.42939 0.38039 0.0
H186 H 0.95465 0.43017 0.35383 0.0
H187 H 0.04978 0.53698 0.35456 0.0
H188 H 0.04862 0.53629 0.38105 0.0
H189 H 0.06473 0.58251 0.40971 0.0
H190 H 0.1028 0.63863 0.4228 0.0
H191 H 0.06307 0.58218 0.46373 0.0
H192 H 0.02432 0.52607 0.45069 0.0
N193 N -0.00427 0.48457 0.4285 0.0
N194 N 0.97623 0.45259 0.40651 0.0
N195 N 0.02032 0.51437 0.40641 0.0
C196 C 0.97443 0.45308 0.42128 0.0
C197 C -0.00079 0.48315 0.399 0.0
C198 C 0.01872 0.51534 0.42115 0.0
C199 C 0.94872 0.42001 0.42945 0.0
C200 C 0.94525 0.42127 0.44465 0.0
C201 C 0.91962 0.39074 0.45228 0.0
C202 C 0.8969 0.3582 0.44491 0.0
C203 C 0.90105 0.35659 0.42979 0.0
C204 C 0.92666 0.38715 0.42214 0.0
C205 C 0.00069 0.48283 0.38288 0.0
C206 C 0.97452 0.45297 0.37491 0.0
C207 C 0.97523 0.45346 0.35969 0.0
C208 C 0.0023 0.48364 0.35214 0.0
C209 C 0.0288 0.51319 0.36009 0.0
C210 C 0.02795 0.51285 0.37529 0.0
C211 C 0.04154 0.54964 0.42912 0.0
C212 C 0.06396 0.58197 0.4215 0.0
C213 C 0.43541 0.05802 0.77523 0.0
C214 C 0.43975 0.06302 0.79036 0.0
C215 C 0.45475 0.04539 0.79817 0.0
C216 C 0.46634 0.0242 0.79093 0.0
H217 H 0.52807 0.97643 0.79685 0.0
H218 H 0.54852 0.94246 0.8114 0.0
H219 H 0.54174 0.87892 0.7736 0.0
H220 H 0.52236 0.91361 0.75893 0.0
H221 H 0.51998 0.95088 0.7274 0.0
H222 H 0.5171 0.94851 0.70085 0.0
H223 H 0.45258 0.00066 0.70139 0.0
H224 H 0.45494 0.00272 0.7278 0.0
H225 H 0.44401 0.03433 0.75626 0.0
H226 H 0.42438 0.07164 0.76888 0.0
H227 H 0.45808 0.04847 0.80987 0.0
H228 H 0.47839 0.01155 0.79727 0.0
N229 N 0.49357 0.98406 0.77537 0.0
N230 N 0.50531 0.96325 0.75353 0.0
N231 N 0.47596 -0.0027 0.75317 0.0
C232 C 0.50738 0.9657 0.7683 0.0
C233 C 0.48969 0.97913 0.74588 0.0
C234 C 0.47774 -0.00014 0.7679 0.0
C235 C 0.52314 0.94743 0.77675 0.0
C236 C 0.53129 0.95546 0.79159 0.0
C237 C 0.54294 0.93592 0.79996 0.0
C238 C 0.54645 0.90774 0.79372 0.0
C239 C 0.53977 0.90075 0.77874 0.0
C240 C 0.5284 0.9205 0.77033 0.0
C241 C 0.48771 0.97699 0.72978 0.0
C242 C 0.50505 0.96172 0.72187 0.0
C243 C 0.50359 0.96052 0.70666 0.0
C244 C 0.48455 0.97433 0.69905 0.0
C245 C 0.46705 0.98936 0.70695 0.0
C246 C 0.46864 0.99073 0.72212 0.0
C247 C 0.46322 0.02025 0.77571 0.0
C248 C 0.44701 0.03687 0.76797 0.0
C249 C 0.58263 0.4462 0.11179 0.0
C250 C 0.58215 0.45783 0.12607 0.0
C251 C 0.55016 0.45517 0.1315 0.0
C252 C 0.5193 0.44146 0.12278 0.0
H253 H 0.41376 0.41147 0.12453 0.0
H254 H 0.36256 0.41488 0.13433 0.0
H255 H 0.31377 0.3929 0.09166 0.0
H256 H 0.36474 0.38904 0.08178 0.0
H257 H 0.4092 0.3892 0.05489 0.0
H258 H 0.41646 0.39377 0.02859 0.0
H259 H 0.52942 0.42608 0.03321 0.0
H260 H 0.52223 0.42104 0.05959 0.0
H261 H 0.55333 0.42457 0.09199 0.0
H262 H 0.60709 0.44829 0.10728 0.0
H263 H 0.549 0.46367 0.14251 0.0
H264 H 0.49519 0.44014 0.12729 0.0
N265 N 0.4561 0.41245 0.10462 0.0
N266 N 0.42997 0.40014 0.08144 0.0
N267 N 0.49045 0.41484 0.08427 0.0
C268 C 0.42698 0.40328 0.09601 0.0
C269 C 0.46154 0.40572 0.07547 0.0
C270 C 0.48785 0.41813 0.09889 0.0
C271 C 0.39369 0.4005 0.1023 0.0
C272 C 0.39195 0.40687 0.11723 0.0
C273 C 0.36268 0.40896 0.12287 0.0
C274 C 0.33444 0.40458 0.11373 0.0
C275 C 0.3351 0.3962 0.09898 0.0
C276 C 0.36445 0.3942 0.09331 0.0
C277 C 0.46522 0.4051 0.05942 0.0
C278 C 0.43558 0.39699 0.05036 0.0
C279 C 0.43974 0.39979 0.03525 0.0
C280 C 0.47361 0.41071 0.02884 0.0
C281 C 0.50293 0.41742 0.03783 0.0
C282 C 0.4988 0.41466 0.05297 0.0
C283 C 0.51992 0.43048 0.10838 0.0
C284 C 0.55188 0.43279 0.10301 0.0
H285 H 0.07176 0.44556 0.1616 0.0
H286 H 0.11631 0.42717 0.1563 0.0
H287 H 0.17968 0.52539 0.13153 0.0
H288 H 0.13484 0.54373 0.13649 0.0
H289 H 0.1688 0.46497 0.11699 0.0
H290 H 0.21689 0.46527 0.17309 0.0
H291 H 0.16865 0.43793 0.17112 0.0
H292 H 0.19046 0.48624 0.16853 0.0
C293 C 0.09534 0.46347 0.15514 0.0
C294 C 0.09977 0.49615 0.14947 0.0
C295 C 0.12087 0.45298 0.15219 0.0
C296 C 0.15151 0.47517 0.1437 0.0
C297 C 0.15624 0.50796 0.13815 0.0
H298 H 0.34369 0.46064 0.13089 0.0
H299 H 0.29791 0.4757 0.13846 0.0
C300 C 0.13061 0.5184 0.14101 0.0
C301 C 0.17773 0.46336 0.13998 0.0
H302 H 0.23564 0.43879 0.15472 0.0
C303 C 0.18352 0.45933 0.12522 0.0
C304 C 0.19702 0.45632 0.15077 0.0
C305 C 0.19327 0.46198 0.16676 0.0
C306 C 0.20805 0.44831 0.12093 0.0
C307 C 0.22659 0.44029 0.13173 0.0
C308 C 0.22096 0.4445 0.14649 0.0
C309 C 0.25345 0.42941 0.12789 0.0
C310 C 0.21458 0.44629 0.10489 0.0
C311 C 0.24339 0.3979 0.11974 0.0
C312 C 0.26953 0.38924 0.11537 0.0
C313 C 0.30602 0.41174 0.11927 0.0
C314 C 0.31571 0.44255 0.12788 0.0
C315 C 0.28964 0.45128 0.13215 0.0
H316 H 0.20522 0.46181 0.09823 0.0
H317 H 0.24378 0.45696 0.10262 0.0
H318 H 0.19935 0.41754 0.10133 0.0
H319 H 0.21541 0.38025 0.11662 0.0
H320 H 0.26128 0.3651 0.10889 0.0
H321 H 0.62286 0.06685 0.48093 0.0
H322 H 0.68351 0.11701 0.47595 0.0
H323 H 0.67554 0.17551 0.51277 0.0
H324 H 0.61419 0.12559 0.51769 0.0
H325 H 0.69427 0.21546 0.4885 0.0
H326 H 0.78205 0.15526 0.49394 0.0
H327 H 0.74441 0.12848 0.48219 0.0
H328 H 0.73642 0.13347 0.5011 0.0
C329 C 0.63414 0.09005 0.48816 0.0
C330 C 0.61351 0.09228 0.49966 0.0
C331 C 0.66906 0.11861 0.48537 0.0
C332 C 0.68429 0.14979 0.49411 0.0
C333 C 0.66436 0.15156 0.50595 0.0
H334 H 0.90024 0.332 0.47183 0.0
H335 H 0.85032 0.28286 0.48553 0.0
C336 C 0.62929 0.12302 0.50873 0.0
C337 C 0.71891 0.18203 0.48973 0.0
H338 H 0.80509 0.2087 0.47855 0.0
C339 C 0.71871 0.21418 0.4866 0.0
C340 C 0.75093 0.18053 0.4874 0.0
C341 C 0.7536 0.14766 0.49149 0.0
C342 C 0.74897 0.24413 0.48041 0.0
C343 C 0.77992 0.24155 0.477 0.0
C344 C 0.78102 0.2103 0.48094 0.0
C345 C 0.81049 0.2703 0.46864 0.0
C346 C 0.74727 0.27805 0.47734 0.0
C347 C 0.80469 0.27879 0.45451 0.0
C348 C 0.83294 0.30684 0.44672 0.0
C349 C 0.86767 0.32679 0.45287 0.0
C350 C 0.87367 0.31746 0.46688 0.0
C351 C 0.84529 0.28933 0.47469 0.0
H352 H 0.72695 0.27971 0.48439 0.0
H353 H 0.77406 0.30281 0.47902 0.0
H354 H 0.73914 0.27766 0.46584 0.0
H355 H 0.77812 0.26393 0.44957 0.0
H356 H 0.8273 0.31352 0.43603 0.0
H357 H 0.58225 0.64599 0.82219 0.0
H358 H 0.59195 0.70727 0.82083 0.0
H359 H 0.51614 0.68331 0.85604 0.0
H360 H 0.50572 0.6214 0.85737 0.0
H361 H 0.49913 0.7077 0.83161 0.0
H362 H 0.64352 0.79955 0.84471 0.0
H363 H 0.63769 0.7662 0.83142 0.0
H364 H 0.61985 0.75198 0.84953 0.0
C365 C 0.56809 0.65384 0.82985 0.0
C366 C 0.5429 0.62864 0.83979 0.0
C367 C 0.57403 0.68911 0.82916 0.0
C368 C 0.55517 0.7 0.83847 0.0
C369 C 0.53121 0.67547 0.84886 0.0
H370 H 0.52032 0.88224 0.82103 0.0
H371 H 0.52602 0.83642 0.83483 0.0
C372 C 0.52524 0.6401 0.84957 0.0
C373 C 0.55648 0.73487 0.83577 0.0
H374 H 0.61481 0.8251 0.8299 0.0
C375 C 0.52426 0.73355 0.83158 0.0
C376 C 0.58937 0.76843 0.83564 0.0
C377 C 0.62449 0.77171 0.84071 0.0
C378 C 0.52433 0.76447 0.82637 0.0
C379 C 0.55747 0.79776 0.82565 0.0
C380 C 0.58949 0.79949 0.83046 0.0
C381 C 0.55954 0.83008 0.81875 0.0
C382 C 0.48926 0.76073 0.82087 0.0
C383 C 0.57817 0.84303 0.80553 0.0
C384 C 0.57547 0.86966 0.7977 0.0
C385 C 0.55401 0.8837 0.80296 0.0
C386 C 0.53725 0.87222 0.81668 0.0
C387 C 0.54018 0.84577 0.82454 0.0
H388 H 0.4678 0.73188 0.81954 0.0
H389 H 0.4793 0.77346 0.82877 0.0
H390 H 0.49347 0.77474 0.81024 0.0
H391 H 0.59343 0.83133 0.80095 0.0
H392 H 0.5893 0.87845 0.78732 0.0
H393 H 0.88167 0.54522 0.13645 0.0
H394 H 0.82553 0.5468 0.13776 0.0
H395 H 0.84128 0.56895 0.18382 0.0
H396 H 0.89817 0.56757 0.18256 0.0
H397 H 0.77502 0.50757 0.17653 0.0
H398 H 0.79662 0.6243 0.14308 0.0
H399 H 0.81433 0.59912 0.13408 0.0
H400 H 0.83365 0.62123 0.15114 0.0
C401 C 0.87366 0.55123 0.14681 0.0
C402 C 0.89411 0.55603 0.15942 0.0
C403 C 0.84175 0.55252 0.14752 0.0
C404 C 0.82954 0.55851 0.16085 0.0
C405 C 0.85057 0.56476 0.1734 0.0
H406 H 0.61132 0.51983 0.14237 0.0
H407 H 0.66906 0.54827 0.15558 0.0
C408 C 0.88297 0.56397 0.17266 0.0
C409 C 0.79236 0.55254 0.16168 0.0
H410 H 0.73545 0.57092 0.1423 0.0
C411 C 0.76637 0.52216 0.16944 0.0
C412 C 0.78112 0.57192 0.15266 0.0
C413 C 0.80802 0.60621 0.1449 0.0
C414 C 0.72925 0.50821 0.16707 0.0
C415 C 0.71817 0.52492 0.15659 0.0
C416 C 0.74403 0.55772 0.15015 0.0
C417 C 0.68124 0.50599 0.15041 0.0
C418 C 0.70234 0.47447 0.17514 0.0
C419 C 0.66911 0.47288 0.14315 0.0
C420 C 0.63643 0.45676 0.13558 0.0
C421 C 0.6153 0.47351 0.13509 0.0
C422 C 0.62696 0.50618 0.1427 0.0
C423 C 0.65987 0.52247 0.15021 0.0
H424 H 0.71303 0.47283 0.18597 0.0
H425 H 0.6761 0.47363 0.17668 0.0
H426 H 0.69738 0.45021 0.16881 0.0
H427 H 0.68561 0.46014 0.14288 0.0
H428 H 0.62797 0.43148 0.12989 0.0
H429 H 0.33305 0.92423 0.4787 0.0
H430 H 0.2744 0.87113 0.4734 0.0
H431 H 0.27807 0.82251 0.51411 0.0
H432 H 0.3374 0.87512 0.51928 0.0
H433 H 0.26884 0.77925 0.49229 0.0
H434 H 0.17077 0.82681 0.48596 0.0
H435 H 0.21035 0.85351 0.47506 0.0
H436 H 0.21423 0.85409 0.4946 0.0
C437 C 0.32097 0.90268 0.48671 0.0
C438 C 0.34005 0.90367 0.49933 0.0
C439 C 0.28721 0.87241 0.48372 0.0
C440 C 0.27163 0.84293 0.49342 0.0
C441 C 0.28956 0.84497 0.50649 0.0
H442 H 0.07185 0.6426 0.46877 0.0
H443 H 0.11446 0.69694 0.48243 0.0
C444 C 0.3235 0.87502 0.50941 0.0
C445 C 0.23992 0.8081 0.48887 0.0
H446 H 0.15637 0.77114 0.47314 0.0
C447 C 0.24397 0.77737 0.48839 0.0
C448 C 0.20729 0.80543 0.4839 0.0
C449 C 0.20026 0.83668 0.48506 0.0
C450 C 0.21719 0.74469 0.48235 0.0
C451 C 0.18592 0.74293 0.47633 0.0
C452 C 0.18074 0.77285 0.47756 0.0
C453 C 0.15961 0.71097 0.46792 0.0
C454 C 0.223 0.71253 0.48219 0.0
C455 C 0.17085 0.70144 0.45513 0.0
C456 C 0.14681 0.67047 0.4474 0.0
C457 C 0.11093 0.64856 0.45225 0.0
C458 C 0.09947 0.65869 0.46489 0.0
C459 C 0.12363 0.68978 0.47263 0.0
H460 H 0.2422 0.71474 0.49083 0.0
H461 H 0.19704 0.68671 0.48373 0.0
H462 H 0.23469 0.71142 0.47153 0.0
H463 H 0.19842 0.71781 0.45122 0.0
H464 H 0.15659 0.66326 0.4378 0.0
H465 H 0.41293 0.34507 0.81637 0.0
H466 H 0.3934 0.28113 0.81242 0.0
H467 H 0.48471 0.2936 0.83722 0.0
H468 H 0.50418 0.35733 0.84144 0.0
H469 H 0.43351 0.25768 0.79795 0.0
H470 H 0.40253 0.19909 0.85343 0.0
H471 H 0.4064 0.24231 0.84917 0.0
H472 H 0.44638 0.23916 0.8523 0.0
C473 C 0.42863 0.33413 0.82116 0.0
C474 C 0.46024 0.35638 0.82918 0.0
C475 C 0.41732 0.29756 0.81893 0.0
C476 C 0.43726 0.28253 0.82473 0.0
C477 C 0.4684 0.30444 0.83297 0.0
H478 H 0.48077 0.11385 0.8106 0.0
H479 H 0.47218 0.16257 0.82003 0.0
C480 C 0.4797 0.34098 0.83524 0.0
C481 C 0.42802 0.24519 0.82085 0.0
H482 H 0.41479 0.16561 0.83528 0.0
C483 C 0.42862 0.23722 0.80607 0.0
C484 C 0.42168 0.21867 0.8315 0.0
C485 C 0.41883 0.22509 0.84748 0.0
C486 C 0.42528 0.2042 0.80169 0.0
C487 C 0.4206 0.1783 0.81239 0.0
C488 C 0.41837 0.18559 0.82713 0.0
C489 C 0.42196 0.14539 0.80851 0.0
C490 C 0.42896 0.19819 0.78571 0.0
C491 C 0.39581 0.11892 0.79935 0.0
C492 C 0.40064 0.09099 0.79393 0.0
C493 C 0.43158 0.08906 0.79769 0.0
C494 C 0.4565 0.11439 0.8076 0.0
C495 C 0.45169 0.1423 0.81297 0.0
H496 H 0.4387 0.2234 0.77921 0.0
H497 H 0.44806 0.18793 0.78412 0.0
H498 H 0.40216 0.17753 0.78139 0.0
H499 H 0.37239 0.12062 0.79598 0.0
H500 H 0.38071 0.07148 0.78649 0.0
H501 H 0.55626 0.92389 0.49101 0.0
H502 H 0.57735 0.88087 0.49526 0.0
H503 H 0.48462 0.81677 0.52274 0.0
H504 H 0.46319 0.8595 0.51859 0.0
H505 H 0.59304 0.86503 0.5239 0.0
H506 H 0.48947 0.74185 0.49515 0.0
H507 H 0.4972 0.78676 0.49118 0.0
H508 H 0.4711 0.76243 0.50689 0.0
C509 C 0.54001 0.90035 0.49779 0.0
C510 C 0.50808 0.89519 0.50452 0.0
C511 C 0.55216 0.87587 0.5002 0.0
C512 C 0.53235 0.84562 0.5092 0.0
C513 C 0.49995 0.83973 0.51557 0.0
H514 H 0.57036 0.71045 0.56373 0.0
H515 H 0.56428 0.7587 0.55224 0.0
C516 C 0.48787 0.86429 0.51325 0.0
C517 C 0.54693 0.82177 0.51297 0.0
H518 H 0.52624 0.73338 0.5126 0.0
C519 C 0.57882 0.83635 0.52124 0.0
C520 C 0.52839 0.78452 0.50936 0.0
C521 C 0.4948 0.76793 0.50004 0.0
C522 C 0.59161 0.81412 0.52667 0.0
C523 C 0.57193 0.77655 0.52374 0.0
C524 C 0.54114 0.76228 0.51484 0.0
C525 C 0.58081 0.75104 0.53089 0.0
C526 C 0.62548 0.83064 0.53582 0.0
C527 C 0.5927 0.73129 0.52267 0.0
C528 C 0.59679 0.704 0.52925 0.0
C529 C 0.58838 0.69563 0.54409 0.0
C530 C 0.5777 0.71651 0.55236 0.0
C531 C 0.57401 0.744 0.5458 0.0
H532 H 0.64178 0.86055 0.53438 0.0
H533 H 0.61781 0.82486 0.54748 0.0
H534 H 0.64255 0.81859 0.53303 0.0
H535 H 0.59798 0.73644 0.51112 0.0
H536 H 0.6056 0.68882 0.52263 0.0
H537 H 0.63738 0.48988 0.84704 0.0
H538 H 0.70289 0.51516 0.84865 0.0
H539 H 0.72034 0.6039 0.82071 0.0
H540 H 0.65493 0.57874 0.81885 0.0
H541 H 0.76544 0.57428 0.81432 0.0
H542 H 0.76724 0.6073 0.87281 0.0
H543 H 0.73553 0.5607 0.86865 0.0
H544 H 0.72898 0.596 0.86116 0.0
C545 C 0.65509 0.5146 0.84113 0.0
C546 C 0.64092 0.53249 0.83295 0.0
C547 C 0.69248 0.52907 0.84212 0.0
C548 C 0.71627 0.5617 0.83502 0.0
C549 C 0.7023 0.57882 0.82634 0.0
H550 H 0.93957 0.66494 0.86504 0.0
H551 H 0.88483 0.66151 0.85494 0.0
C552 C 0.66492 0.56438 0.82533 0.0
C553 C 0.75572 0.57844 0.83707 0.0
H554 H 0.8202 0.60868 0.86349 0.0
C555 C 0.77763 0.58228 0.82502 0.0
C556 C 0.77156 0.58979 0.85097 0.0
C557 C 0.7497 0.58863 0.86412 0.0
C558 C 0.8148 0.59511 0.82669 0.0
C559 C 0.83006 0.60371 0.8408 0.0
C560 C 0.80848 0.60193 0.85268 0.0
C561 C 0.86688 0.61037 0.84392 0.0
C562 C 0.8372 0.59879 0.81339 0.0
C563 C 0.87542 0.58335 0.84069 0.0
C564 C 0.90655 0.58526 0.84641 0.0
C565 C 0.9295 0.61405 0.85561 0.0
C566 C 0.92216 0.6423 0.85807 0.0
C567 C 0.89105 0.64045 0.85227 0.0
H568 H 0.82587 0.60458 0.80353 0.0
H569 H 0.8658 0.6207 0.81474 0.0
H570 H 0.83672 0.57282 0.81152 0.0
H571 H 0.85672 0.5594 0.83462 0.0
H572 H 0.9111 0.56277 0.84451 0.0
H573 H 0.08077 0.66768 0.18348 0.0
H574 H 0.13612 0.72508 0.18809 0.0
H575 H 0.17172 0.72591 0.144 0.0
H576 H 0.11687 0.66787 0.13944 0.0
H577 H 0.22006 0.73051 0.16284 0.0
H578 H 0.1802 0.83077 0.17841 0.0
H579 H 0.15524 0.78981 0.18876 0.0
H580 H 0.14951 0.78884 0.16929 0.0
C581 C 0.09988 0.68056 0.17464 0.0
C582 C 0.09471 0.66305 0.16115 0.0
C583 C 0.13143 0.71358 0.17725 0.0
C584 C 0.15795 0.72996 0.16635 0.0
C585 C 0.15158 0.71376 0.15256 0.0
H586 H 0.36509 0.92257 0.19034 0.0
H587 H 0.30943 0.88319 0.17678 0.0
C588 C 0.12027 0.68056 0.14998 0.0
C589 C 0.19436 0.76036 0.17006 0.0
H590 H 0.23795 0.84136 0.18796 0.0
C591 C 0.22405 0.75511 0.16804 0.0
C592 C 0.19972 0.79265 0.1767 0.0
C593 C 0.16947 0.80101 0.17827 0.0
C594 C 0.25846 0.78017 0.17328 0.0
C595 C 0.26309 0.81086 0.18101 0.0
C596 C 0.23408 0.81743 0.18222 0.0
C597 C 0.29699 0.83471 0.18888 0.0
C598 C 0.28936 0.77309 0.17082 0.0
C599 C 0.30805 0.8204 0.2002 0.0
C600 C 0.33973 0.84264 0.20789 0.0
C601 C 0.3608 0.87968 0.20444 0.0
C602 C 0.3496 0.89401 0.1931 0.0
C603 C 0.31778 0.87168 0.18542 0.0
H604 H 0.28445 0.75549 0.16117 0.0
H605 H 0.31539 0.79883 0.16927 0.0
H606 H 0.292 0.75889 0.18047 0.0
H607 H 0.292 0.79201 0.20317 0.0
H608 H 0.34781 0.83079 0.21649 0.0
H609 H 0.42224 0.09367 0.48577 0.0
H610 H 0.42001 0.15018 0.4861 0.0
H611 H 0.4854 0.18387 0.52494 0.0
H612 H 0.48808 0.12819 0.52469 0.0
H613 H 0.39635 0.18143 0.50846 0.0
H614 H 0.54196 0.26752 0.49562 0.0
H615 H 0.51743 0.21909 0.49256 0.0
H616 H 0.53461 0.23696 0.51039 0.0
C617 C 0.43594 0.11304 0.49442 0.0
C618 C 0.4557 0.10663 0.50511 0.0
C619 C 0.43466 0.14526 0.49457 0.0
C620 C 0.45323 0.17139 0.50535 0.0
C621 C 0.47162 0.16433 0.51633 0.0
H622 H 0.4482 0.33278 0.55233 0.0
H623 H 0.43247 0.27759 0.53893 0.0
C624 C 0.47298 0.13239 0.51619 0.0
C625 C 0.45405 0.20643 0.50538 0.0
H626 H 0.51411 0.29681 0.50848 0.0
C627 C 0.42192 0.20683 0.50812 0.0
C628 C 0.48726 0.2395 0.50448 0.0
C629 C 0.52221 0.24083 0.50043 0.0
C630 C 0.42269 0.23942 0.51136 0.0
C631 C 0.45652 0.27198 0.5122 0.0
C632 C 0.48815 0.27185 0.50807 0.0
C633 C 0.46073 0.30524 0.51918 0.0
C634 C 0.38739 0.23838 0.51429 0.0
C635 C 0.48214 0.33932 0.51263 0.0
C636 C 0.49222 0.37108 0.52047 0.0
C637 C 0.48098 0.3693 0.53501 0.0
C638 C 0.45787 0.33513 0.54125 0.0
C639 C 0.44818 0.30345 0.53347 0.0
H640 H 0.36527 0.21719 0.50756 0.0
H641 H 0.37974 0.23125 0.52589 0.0
H642 H 0.38943 0.26494 0.512 0.0
H643 H 0.49243 0.34136 0.50167 0.0
H644 H 0.51031 0.39692 0.51537 0.0
H645 H 0.38146 0.48989 0.86091 0.0
H646 H 0.32168 0.4837 0.86259 0.0
H647 H 0.29552 0.43626 0.8197 0.0
H648 H 0.35553 0.4419 0.81794 0.0
H649 H 0.29793 0.51788 0.84268 0.0
H650 H 0.20521 0.36818 0.84506 0.0
H651 H 0.2529 0.38913 0.84924 0.0
H652 H 0.23849 0.38588 0.8307 0.0
C653 C 0.36298 0.47781 0.85186 0.0
C654 C 0.37336 0.46662 0.83924 0.0
C655 C 0.32879 0.47422 0.85286 0.0
C656 C 0.30426 0.45941 0.8413 0.0
C657 C 0.31398 0.4473 0.82881 0.0
H658 H 0.12888 0.50864 0.8445 0.0
H659 H 0.17248 0.49434 0.8337 0.0
C660 C 0.3483 0.45072 0.82781 0.0
C661 C 0.26979 0.45954 0.84212 0.0
H662 H 0.1786 0.40498 0.84684 0.0
C663 C 0.27173 0.49325 0.8434 0.0
C664 C 0.23587 0.42726 0.84308 0.0
C665 C 0.23271 0.39045 0.84204 0.0
C666 C 0.24083 0.49567 0.84631 0.0
C667 C 0.20686 0.46338 0.84756 0.0
C668 C 0.20466 0.42961 0.84573 0.0
C669 C 0.17438 0.46448 0.8524 0.0
C670 C 0.24528 0.53273 0.84889 0.0
C671 C 0.15916 0.45016 0.86606 0.0
C672 C 0.13359 0.45757 0.87216 0.0
C673 C 0.12309 0.47971 0.86474 0.0
C674 C 0.13626 0.49148 0.85054 0.0
C675 C 0.16147 0.48364 0.84438 0.0
H676 H 0.27411 0.5539 0.85047 0.0
H677 H 0.23494 0.54061 0.83931 0.0
H678 H 0.22964 0.53248 0.85861 0.0
H679 H 0.16858 0.43503 0.87236 0.0
H680 H 0.12322 0.44723 0.88294 0.0
H681 H 0.85712 0.40059 0.15105 0.0
H682 H 0.80899 0.34016 0.15845 0.0
H683 H 0.88923 0.31272 0.17171 0.0
H684 H 0.93746 0.3733 0.16474 0.0
H685 H 0.78879 0.26783 0.15253 0.0
H686 H 0.83599 0.30652 0.20954 0.0
H687 H 0.85237 0.33887 0.19479 0.0
H688 H 0.86982 0.30859 0.19729 0.0
C689 C 0.8645 0.38143 0.15526 0.0
C690 C 0.90101 0.39185 0.15758 0.0
C691 C 0.83699 0.34694 0.15948 0.0
C692 C 0.84566 0.32241 0.16594 0.0
C693 C 0.88206 0.33165 0.16707 0.0
H694 H 0.68507 0.10256 0.19442 0.0
H695 H 0.73464 0.1537 0.18137 0.0
C696 C 0.90954 0.36621 0.16305 0.0
C697 C 0.81689 0.28882 0.17279 0.0
H698 H 0.7876 0.24716 0.20576 0.0
C699 C 0.7885 0.26312 0.16415 0.0
C700 C 0.81644 0.2832 0.188 0.0
C701 C 0.84507 0.31086 0.19799 0.0
C702 C 0.75948 0.23186 0.17036 0.0
C703 C 0.75938 0.22606 0.18553 0.0
C704 C 0.78795 0.25163 0.19411 0.0
C705 C 0.72897 0.19481 0.19298 0.0
C706 C 0.72867 0.206 0.16072 0.0
C707 C 0.71 0.20109 0.20402 0.0
C708 C 0.68213 0.17211 0.21156 0.0
C709 C 0.67267 0.13626 0.2082 0.0
C710 C 0.69163 0.12995 0.19712 0.0
C711 C 0.71977 0.15906 0.18963 0.0
H712 H 0.72875 0.21862 0.15012 0.0
H713 H 0.73136 0.18186 0.15848 0.0
H714 H 0.70215 0.19662 0.16615 0.0
H715 H 0.71674 0.22851 0.20677 0.0
H716 H 0.66764 0.17773 0.21991 0.0
H717 H 0.93768 0.50595 0.09779 0.0
H718 H 0.93869 0.50978 0.07113 0.0
H719 H 0.05548 0.56954 0.07166 0.0
H720 H 0.05494 0.56595 0.09817 0.0
H721 H 0.97547 0.57693 0.05322 0.0
H722 H 0.02613 0.48127 0.04367 0.0
H723 H 0.00485 0.4824 0.06053 0.0
H724 H 0.05108 0.51623 0.05685 0.0
C725 C 0.96358 0.51985 0.09223 0.0
C726 C -0.00377 0.53551 0.10011 0.0
C727 C 0.96407 0.52205 0.07703 0.0
C728 C -0.00285 0.53957 0.0695 0.0
C729 C 0.02971 0.55549 0.07731 0.0
H730 H 0.07539 0.58526 0.98149 0.0
H731 H 0.06697 0.57912 0.00791 0.0
C732 C 0.02929 0.5535 0.09247 0.0
C733 C -0.00201 0.54166 0.05346 0.0
H734 H 0.02611 0.51569 0.02336 0.0
C735 C 0.98619 0.56332 0.04662 0.0
C736 C 0.01208 0.52387 0.045 0.0
C737 C 0.02402 0.49936 0.05183 0.0
C738 C 0.98932 0.56871 0.03149 0.0
C739 C 0.00397 0.55135 0.02304 0.0
C740 C 0.01505 0.52909 0.02989 0.0
C741 C 0.00884 0.55641 0.00709 0.0
C742 C 0.97814 0.59392 0.02476 0.0
C743 C 0.97892 0.5456 0.99791 0.0
C744 C 0.98367 0.54914 0.98282 0.0
C745 C 0.01839 0.56317 0.97667 0.0
C746 C 0.04829 0.57406 0.98592 0.0
C747 C 0.04354 0.57069 0.00099 0.0
H748 H 0.97615 0.61191 0.03302 0.0
H749 H -0.00235 0.61106 0.01619 0.0
H750 H 0.95112 0.57759 0.01964 0.0
H751 H 0.95181 0.53375 0.00238 0.0
H752 H 0.96006 0.53999 0.97595 0.0
H753 H 0.44018 0.01936 0.44385 0.0
H754 H 0.44166 0.01982 0.41717 0.0
H755 H 0.51415 0.97692 0.41781 0.0
H756 H 0.51308 0.97644 0.4444 0.0
H757 H 0.5093 0.05724 0.3989 0.0
H758 H 0.42614 0.90809 0.39049 0.0
H759 H 0.42433 0.92997 0.40707 0.0
H760 H 0.46182 0.92294 0.40373 0.0
C761 C 0.45632 0.00987 0.43832 0.0
C762 C 0.47649 -0.00218 0.44626 0.0
C763 C 0.45715 0.01023 0.4231 0.0
C764 C 0.47776 -0.00188 0.41562 0.0
C765 C 0.49781 0.98601 0.42346 0.0
H766 H 0.55836 0.0228 0.32807 0.0
H767 H 0.55021 0.02429 0.35439 0.0
C768 C 0.49724 0.9859 0.43864 0.0
C769 C 0.47914 -0.00116 0.39957 0.0
H770 H 0.45658 0.94395 0.36978 0.0
C771 C 0.49758 0.03255 0.39249 0.0
C772 C 0.46356 0.96651 0.39133 0.0
C773 C 0.44257 0.92974 0.39848 0.0
C774 C 0.50176 0.03472 0.37731 0.0
C775 C 0.48725 0.00234 0.36911 0.0
C776 C 0.46787 0.96867 0.37616 0.0
C777 C 0.49234 0.00279 0.3532 0.0
C778 C 0.52166 0.07152 0.37012 0.0
C779 C 0.4624 0.9899 0.34391 0.0
C780 C 0.46697 0.98926 0.32888 0.0
C781 C 0.50154 0.00112 0.3229 0.0
C782 C 0.53148 0.01401 0.3323 0.0
C783 C 0.52689 0.01482 0.34733 0.0
H784 H 0.52428 0.09338 0.3775 0.0
H785 H 0.5493 0.07753 0.36704 0.0
H786 H 0.50754 0.07192 0.36004 0.0
H787 H 0.43552 0.98047 0.3483 0.0
H788 H 0.44342 0.9797 0.32195 0.0
H789 H 0.4549 0.45149 0.77531 0.0
H790 H 0.46038 0.45311 0.74872 0.0
H791 H 0.56213 0.55362 0.75145 0.0
H792 H 0.55719 0.55224 0.77792 0.0
H793 H 0.46875 0.50824 0.72855 0.0
H794 H 0.5864 0.48614 0.72774 0.0
H795 H 0.55813 0.47726 0.74363 0.0
H796 H 0.59231 0.52294 0.73917 0.0
C797 C 0.47839 0.47401 0.77026 0.0
C798 C 0.50574 0.50158 0.77877 0.0
C799 C 0.48146 0.47486 0.75508 0.0
C800 C 0.51197 0.50313 0.74819 0.0
C801 C 0.53874 0.53118 0.7566 0.0
H802 H 0.59206 0.56585 0.66057 0.0
H803 H 0.58186 0.56075 0.68692 0.0
C804 C 0.53573 0.5304 0.77174 0.0
C805 C 0.51602 0.5035 0.73219 0.0
H806 H 0.57129 0.50319 0.70535 0.0
C807 C 0.49096 0.50685 0.72344 0.0
C808 C 0.54506 0.50165 0.72562 0.0
C809 C 0.57186 0.49647 0.7345 0.0
C810 C 0.49482 0.50953 0.70823 0.0
C811 C 0.52417 0.5082 0.70168 0.0
C812 C 0.54892 0.50435 0.71044 0.0
C813 C 0.52997 0.51117 0.68575 0.0
C814 C 0.4681 0.51481 0.69935 0.0
C815 C 0.50436 0.48472 0.67642 0.0
C816 C 0.51001 0.48765 0.66138 0.0
C817 C 0.54151 0.51699 0.65541 0.0
C818 C 0.56732 0.5432 0.66482 0.0
C819 C 0.56164 0.54023 0.67986 0.0
H820 H 0.45258 0.52386 0.70618 0.0
H821 H 0.48213 0.53508 0.69057 0.0
H822 H 0.44849 0.48868 0.69418 0.0
H823 H 0.48003 0.46176 0.68078 0.0
H824 H 0.48945 0.46719 0.65442 0.0
H825 H 0.43574 0.93464 0.56031 0.0
H826 H 0.43672 0.93106 0.58683 0.0
H827 H 0.5179 0.04455 0.5888 0.0
H828 H 0.51679 0.04865 0.56227 0.0
H829 H 0.4948 0.9451 0.60464 0.0
H830 H 0.4408 0.03641 0.61757 0.0
H831 H 0.43794 0.01799 0.5996 0.0
H832 H 0.47968 0.05613 0.60577 0.0
C833 C 0.45368 0.95895 0.56636 0.0
C834 C 0.47609 0.99199 0.55915 0.0
C835 C 0.45422 0.9568 0.58151 0.0
C836 C 0.47706 0.98762 0.58976 0.0
C837 C 0.49958 0.02061 0.58263 0.0
H838 H 0.54029 0.99177 0.67999 0.0
H839 H 0.53853 0.99369 0.65337 0.0
C840 C 0.49901 0.02284 0.56747 0.0
C841 C 0.47787 0.98491 0.60579 0.0
H842 H 0.46314 0.01767 0.6374 0.0
C843 C 0.48781 0.96088 0.61182 0.0
C844 C 0.46833 0.00525 0.61509 0.0
C845 C 0.45575 0.03016 0.60922 0.0
C846 C 0.48885 0.95692 0.62695 0.0
C847 C 0.48027 0.97801 0.63625 0.0
C848 C 0.46996 0.00175 0.63022 0.0
C849 C 0.48124 0.97551 0.65229 0.0
C850 C 0.49845 0.92973 0.63283 0.0
C851 C 0.44973 0.96509 0.66048 0.0
C852 C 0.45068 0.96409 0.67565 0.0
C853 C 0.48323 0.97364 0.68292 0.0
C854 C 0.51471 0.98374 0.67468 0.0
C855 C 0.51375 0.98484 0.65949 0.0
H856 H 0.49506 0.90942 0.62447 0.0
H857 H 0.52723 0.94419 0.6363 0.0
H858 H 0.48144 0.9152 0.64243 0.0
H859 H 0.42438 0.95779 0.65511 0.0
H860 H 0.42592 0.95583 0.6817 0.0
H861 H 0.53633 0.44492 0.88961 0.0
H862 H 0.53206 0.43147 0.91569 0.0
H863 H 0.47416 0.48908 0.92242 0.0
H864 H 0.47805 0.50257 0.89641 0.0
H865 H 0.5561 0.48125 0.94016 0.0
H866 H 0.40737 0.38644 0.93993 0.0
H867 H 0.4344 0.39969 0.92351 0.0
H868 H 0.42167 0.42992 0.93176 0.0
C869 C 0.52275 0.45483 0.89663 0.0
C870 C 0.50731 0.47463 0.89089 0.0
C871 C 0.52039 0.44713 0.91152 0.0
C872 C 0.50234 0.45883 0.92089 0.0
C873 C 0.48768 0.47931 0.91529 0.0
H874 H 0.44749 0.44418 0.01142 0.0
H875 H 0.45587 0.45473 0.98521 0.0
C876 C 0.4901 0.48713 0.90043 0.0
C877 C 0.4986 0.44954 0.93655 0.0
H878 H 0.4357 0.40391 0.96304 0.0
C879 C 0.52986 0.46412 0.94518 0.0
C880 C 0.46429 0.42711 0.94299 0.0
C881 C 0.42999 0.40957 0.93407 0.0
C882 C 0.5276 0.45789 0.96027 0.0
C883 C 0.49319 0.43593 0.96675 0.0
C884 C 0.46202 0.42079 0.95803 0.0
C885 C 0.48864 0.42944 0.98265 0.0
C886 C 0.56186 0.47586 0.96919 0.0
C887 C 0.50402 0.41138 0.98987 0.0
C888 C 0.49919 0.40521 0.00489 0.0
C889 C 0.4786 0.41669 0.01288 0.0
C890 C 0.46304 0.43452 0.00555 0.0
C891 C 0.46797 0.44076 0.99059 0.0
H892 H 0.58469 0.49831 0.96315 0.0
H893 H 0.55757 0.48681 0.97951 0.0
H894 H 0.56981 0.45548 0.972 0.0
H895 H 0.51943 0.40175 0.98388 0.0
H896 H 0.51114 0.39104 0.01021 0.0
H897 H 0.98668 0.55617 0.21774 0.0
H898 H 0.98782 0.54916 0.24411 0.0
H899 H 0.02165 0.47012 0.23804 0.0
H900 H 0.01982 0.47629 0.21168 0.0
H901 H 0.96731 0.44778 0.25782 0.0
H902 H 0.07577 0.58816 0.27033 0.0
H903 H 0.03869 0.58629 0.2604 0.0
H904 H 0.06633 0.57038 0.25204 0.0
C905 C -0.00544 0.53744 0.222 0.0
C906 C 0.00327 0.51688 0.21258 0.0
C907 C -0.00461 0.53362 0.23709 0.0
C908 C 0.0054 0.50956 0.24303 0.0
C909 C 0.014 0.48895 0.23367 0.0
H910 H 0.06025 0.50566 0.33385 0.0
H911 H 0.06086 0.51009 0.30726 0.0
C912 C 0.01295 0.49255 0.2186 0.0
C913 C 0.0059 0.50503 0.25901 0.0
H914 H 0.04287 0.55113 0.29054 0.0
C915 C 0.98396 0.47033 0.26498 0.0
C916 C 0.02805 0.53438 0.26829 0.0
C917 C 0.05382 0.57183 0.26245 0.0
C918 C 0.98306 0.46429 0.28003 0.0
C919 C 0.00408 0.49394 0.28937 0.0
C920 C 0.02651 0.52851 0.28337 0.0
C921 C 0.00326 0.48979 0.3054 0.0
C922 C 0.96008 0.42612 0.28575 0.0
C923 C 0.9707 0.47701 0.31315 0.0
C924 C 0.97026 0.47431 0.32832 0.0
C925 C 0.00249 0.48482 0.33601 0.0
C926 C 0.03506 0.49762 0.32821 0.0
C927 C 0.03543 0.50008 0.31305 0.0
H928 H 0.95442 0.40561 0.27715 0.0
H929 H 0.97345 0.42087 0.29504 0.0
H930 H 0.93372 0.42235 0.28958 0.0
H931 H 0.94573 0.4698 0.3075 0.0
H932 H 0.94488 0.46494 0.33405 0.0
loop_
_geom_bond_atom_site_label_1
_geom_bond_atom_site_label_2
_geom_bond_distance
_geom_bond_site_symmetry_2
_ccdc_geom_bond_type
O0 Zn1 1.954 1_655 S
O0 C16 1.225 1_655 S
Zn1 O0 1.954 1_455 S
Zn1 O2 1.951 . S
Zn1 O8 1.914 1_455 S
Zn1 O13 1.927 . S
O2 Zn1 1.951 . S
O2 Zn3 1.923 1_455 S
O2 Zn4 1.950 . S
O2 Zn5 1.945 . S
Zn3 O2 1.923 1_655 S
Zn3 O6 1.933 . S
Zn3 O9 1.941 . S
Zn3 O10 1.965 . S
Zn4 O2 1.950 . S
Zn4 O11 1.938 1_455 S
Zn4 O12 1.906 . S
Zn4 O22 1.953 . S
Zn5 O2 1.945 . S
Zn5 O7 1.932 . S
Zn5 O14 1.977 . S
Zn5 O15 1.910 . S
O6 Zn3 1.933 . S
O6 C17 1.226 1_655 S
O7 Zn5 1.932 . S
O7 C17 1.307 . S
O8 Zn1 1.914 1_655 S
O8 C19 1.253 . S
O9 Zn3 1.941 . S
O9 C19 1.283 . S
O10 Zn3 1.965 . S
O10 C18 1.303 . S
O11 Zn4 1.938 1_655 S
O11 C18 1.247 . S
O12 Zn4 1.906 . S
O12 C20 1.304 . S
O13 Zn1 1.927 . S
O13 C21 1.311 . S
O14 Zn5 1.977 . S
O14 C20 1.272 . S
O15 Zn5 1.910 . S
O15 C21 1.231 . S
C16 O0 1.225 1_455 S
C16 O22 1.298 . S
C17 O6 1.226 1_455 S
C17 O7 1.307 . S
C18 O10 1.303 . S
C18 O11 1.247 . S
C19 O8 1.253 . S
C19 O9 1.283 . S
C20 O12 1.304 . S
C20 O14 1.272 . S
C21 O13 1.311 . S
C21 O15 1.231 . S
O22 Zn4 1.953 . S
O22 C16 1.298 . S
O23 Zn24 1.953 . S
O23 C39 1.225 . S
Zn24 O23 1.953 . S
Zn24 O25 1.949 . S
Zn24 O31 1.919 . S
Zn24 O36 1.924 1_545 S
O25 Zn24 1.949 . S
O25 Zn26 1.923 . S
O25 Zn27 1.950 1_545 S
O25 Zn28 1.945 1_545 S
Zn26 O25 1.923 . S
Zn26 O29 1.933 . S
Zn26 O32 1.941 . S
Zn26 O33 1.965 . S
Zn27 O25 1.950 1_565 S
Zn27 O34 1.938 1_565 S
Zn27 O35 1.906 . S
Zn27 O45 1.953 . S
Zn28 O25 1.945 1_565 S
Zn28 O30 1.932 . S
Zn28 O37 1.977 . S
Zn28 O38 1.910 . S
O29 Zn26 1.933 . S
O29 C40 1.226 . S
O30 Zn28 1.932 . S
O30 C40 1.307 1_565 S
O31 Zn24 1.919 . S
O31 C42 1.253 . S
O32 Zn26 1.941 . S
O32 C42 1.283 . S
O33 Zn26 1.965 . S
O33 C41 1.303 . S
O34 Zn27 1.938 1_545 S
O34 C41 1.247 . S
O35 Zn27 1.906 . S
O35 C43 1.304 . S
O36 Zn24 1.924 1_565 S
O36 C44 1.311 . S
O37 Zn28 1.977 . S
O37 C43 1.272 . S
O38 Zn28 1.910 . S
O38 C44 1.231 . S
C39 O23 1.225 . S
C39 O45 1.298 1_545 S
C40 O29 1.226 . S
C40 O30 1.307 1_545 S
C41 O33 1.303 . S
C41 O34 1.247 . S
C42 O31 1.253 . S
C42 O32 1.283 . S
C43 O35 1.304 . S
C43 O37 1.272 . S
C44 O36 1.311 . S
C44 O38 1.231 . S
O45 Zn27 1.953 . S
O45 C39 1.298 1_565 S
O46 Zn47 1.953 . S
O46 C62 1.225 . S
Zn47 O46 1.953 . S
Zn47 O48 1.949 . S
Zn47 O54 1.919 . S
Zn47 O59 1.924 . S
O48 Zn47 1.949 . S
O48 Zn49 1.923 . S
O48 Zn50 1.950 . S
O48 Zn51 1.945 . S
Zn49 O48 1.923 . S
Zn49 O52 1.933 . S
Zn49 O55 1.941 . S
Zn49 O56 1.965 . S
Zn50 O48 1.950 . S
Zn50 O57 1.938 . S
Zn50 O58 1.906 . S
Zn50 O68 1.953 . S
Zn51 O48 1.945 . S
Zn51 O53 1.932 . S
Zn51 O60 1.977 . S
Zn51 O61 1.910 . S
O52 Zn49 1.933 . S
O52 C63 1.226 . S
O53 Zn51 1.932 . S
O53 C63 1.307 . S
O54 Zn47 1.919 . S
O54 C65 1.253 . S
O55 Zn49 1.941 . S
O55 C65 1.283 . S
O56 Zn49 1.965 . S
O56 C64 1.303 . S
O57 Zn50 1.938 . S
O57 C64 1.247 . S
O58 Zn50 1.906 . S
O58 C66 1.304 . S
O59 Zn47 1.924 . S
O59 C67 1.311 . S
O60 Zn51 1.977 . S
O60 C66 1.272 . S
O61 Zn51 1.910 . S
O61 C67 1.231 . S
C62 O46 1.225 . S
C62 O68 1.298 . S
C63 O52 1.226 . S
C63 O53 1.307 . S
C64 O56 1.303 . S
C64 O57 1.247 . S
C65 O54 1.253 . S
C65 O55 1.283 . S
C66 O58 1.304 . S
C66 O60 1.272 . S
C67 O59 1.311 . S
C67 O61 1.231 . S
O68 Zn50 1.953 . S
O68 C62 1.298 . S
C69 C70 1.384 . S
C69 H82 0.947 . S
C69 C104 1.382 . S
C70 C69 1.384 . S
C70 C71 1.378 . S
C71 C70 1.378 . S
C71 C72 1.378 . S
C71 H83 0.952 . S
C72 C71 1.378 . S
C72 H84 0.950 . S
C72 C103 1.383 . S
H73 C92 0.947 . S
H74 C93 0.946 . S
H75 C95 0.953 . S
H76 C96 0.945 . S
H77 C98 0.952 . S
H78 C99 0.949 . S
H79 C101 0.950 . S
H80 C102 0.948 . S
H81 C104 0.951 . S
H82 C69 0.947 . S
H83 C71 0.952 . S
H84 C72 0.950 . S
N85 C88 1.382 . S
N85 C90 1.363 1_545 S
N86 C88 1.371 . S
N86 C89 1.372 . S
N87 C89 1.361 1_565 S
N87 C90 1.377 . S
C88 N85 1.382 . S
C88 N86 1.371 . S
C88 C91 1.480 . S
C89 N86 1.372 . S
C89 N87 1.361 1_545 S
C89 C97 1.457 . S
C90 N85 1.363 1_565 S
C90 N87 1.377 . S
C90 C103 1.479 . S
C91 C88 1.480 . S
C91 C92 1.383 . S
C91 C96 1.385 . S
C92 H73 0.947 . S
C92 C91 1.383 . S
C92 C93 1.388 . S
C93 H74 0.946 . S
C93 C92 1.388 . S
C93 C94 1.384 . S
C94 C93 1.384 . S
C94 C95 1.377 . S
C95 H75 0.953 . S
C95 C94 1.377 . S
C95 C96 1.369 . S
C96 H76 0.945 . S
C96 C91 1.385 . S
C96 C95 1.369 . S
C97 C89 1.457 . S
C97 C98 1.372 . S
C97 C102 1.364 1_545 S
C98 H77 0.952 . S
C98 C97 1.372 . S
C98 C99 1.389 . S
C99 H78 0.949 . S
C99 C98 1.389 . S
C99 C100 1.387 . S
C100 C99 1.387 . S
C100 C101 1.372 1_545 S
C101 H79 0.950 . S
C101 C100 1.372 1_565 S
C101 C102 1.379 . S
C102 H80 0.948 . S
C102 C97 1.364 1_565 S
C102 C101 1.379 . S
C103 C72 1.383 . S
C103 C90 1.479 . S
C103 C104 1.398 . S
C104 C69 1.382 . S
C104 H81 0.951 . S
C104 C103 1.398 . S
C105 C106 1.384 . S
C105 H118 0.947 . S
C105 C140 1.382 . S
C106 C105 1.384 . S
C106 C107 1.378 . S
C107 C106 1.378 . S
C107 C108 1.378 . S
C107 H119 0.952 . S
C108 C107 1.378 . S
C108 H120 0.950 . S
C108 C139 1.383 . S
H109 C128 0.947 . S
H110 C129 0.946 . S
H111 C131 0.953 . S
H112 C132 0.945 . S
H113 C134 0.952 . S
H114 C135 0.949 . S
H115 C137 0.950 . S
H116 C138 0.948 . S
H117 C140 0.951 . S
H118 C105 0.947 . S
H119 C107 0.952 . S
H120 C108 0.950 . S
N121 C124 1.382 . S
N121 C126 1.363 . S
N122 C124 1.371 . S
N122 C125 1.372 . S
N123 C125 1.361 . S
N123 C126 1.377 . S
C124 N121 1.382 . S
C124 N122 1.371 . S
C124 C127 1.480 . S
C125 N122 1.372 . S
C125 N123 1.361 . S
C125 C133 1.457 . S
C126 N121 1.363 . S
C126 N123 1.377 . S
C126 C139 1.479 . S
C127 C124 1.480 . S
C127 C128 1.383 . S
C127 C132 1.385 . S
C128 H109 0.947 . S
C128 C127 1.383 . S
C128 C129 1.388 . S
C129 H110 0.946 . S
C129 C128 1.388 . S
C129 C130 1.384 . S
C130 C129 1.384 . S
C130 C131 1.377 . S
C131 H111 0.953 . S
C131 C130 1.377 . S
C131 C132 1.369 . S
C132 H112 0.945 . S
C132 C127 1.385 . S
C132 C131 1.369 . S
C133 C125 1.457 . S
C133 C134 1.372 . S
C133 C138 1.364 . S
C134 H113 0.952 . S
C134 C133 1.372 . S
C134 C135 1.389 . S
C135 H114 0.949 . S
C135 C134 1.389 . S
C135 C136 1.387 . S
C136 C135 1.387 . S
C136 C137 1.372 . S
C137 H115 0.950 . S
C137 C136 1.372 . S
C137 C138 1.379 . S
C138 H116 0.948 . S
C138 C133 1.364 . S
C138 C137 1.379 . S
C139 C108 1.383 . S
C139 C126 1.479 . S
C139 C140 1.398 . S
C140 C105 1.382 . S
C140 H117 0.951 . S
C140 C139 1.398 . S
C141 C142 1.384 . S
C141 H154 0.947 . S
C141 C176 1.382 . S
C142 C141 1.384 . S
C142 C143 1.378 . S
C143 C142 1.378 . S
C143 C144 1.378 . S
C143 H155 0.952 . S
C144 C143 1.378 . S
C144 H156 0.950 . S
C144 C175 1.383 . S
H145 C164 0.947 . S
H146 C165 0.946 . S
H147 C167 0.953 . S
H148 C168 0.945 . S
H149 C170 0.952 . S
H150 C171 0.949 . S
H151 C173 0.950 . S
H152 C174 0.948 . S
H153 C176 0.951 . S
H154 C141 0.947 . S
H155 C143 0.952 . S
H156 C144 0.950 . S
N157 C160 1.382 . S
N157 C162 1.363 1_455 S
N158 C160 1.371 . S
N158 C161 1.372 . S
N159 C161 1.361 1_655 S
N159 C162 1.377 . S
C160 N157 1.382 . S
C160 N158 1.371 . S
C160 C163 1.480 . S
C161 N158 1.372 . S
C161 N159 1.361 1_455 S
C161 C169 1.457 . S
C162 N157 1.363 1_655 S
C162 N159 1.377 . S
C162 C175 1.479 . S
C163 C160 1.480 . S
C163 C164 1.383 . S
C163 C168 1.385 . S
C164 H145 0.947 . S
C164 C163 1.383 . S
C164 C165 1.388 . S
C165 H146 0.946 . S
C165 C164 1.388 . S
C165 C166 1.384 . S
C166 C165 1.384 . S
C166 C167 1.377 . S
C167 H147 0.953 . S
C167 C166 1.377 . S
C167 C168 1.369 . S
C168 H148 0.945 . S
C168 C163 1.385 . S
C168 C167 1.369 . S
C169 C161 1.457 . S
C169 C170 1.372 . S
C169 C174 1.364 1_455 S
C170 H149 0.952 . S
C170 C169 1.372 . S
C170 C171 1.389 . S
C171 H150 0.949 . S
C171 C170 1.389 . S
C171 C172 1.387 . S
C172 C171 1.387 . S
C172 C173 1.372 1_455 S
C173 H151 0.950 . S
C173 C172 1.372 1_655 S
C173 C174 1.379 . S
C174 H152 0.948 . S
C174 C169 1.364 1_655 S
C174 C173 1.379 . S
C175 C144 1.383 . S
C175 C162 1.479 . S
C175 C176 1.398 . S
C176 C141 1.382 . S
C176 H153 0.951 . S
C176 C175 1.398 . S
C177 C178 1.384 . S
C177 H190 0.947 . S
C177 C212 1.382 . S
C178 C177 1.384 . S
C178 C179 1.378 . S
C179 C178 1.378 . S
C179 C180 1.378 . S
C179 H191 0.952 . S
C180 C179 1.378 . S
C180 H192 0.950 . S
C180 C211 1.383 . S
H181 C200 0.947 . S
H182 C201 0.946 . S
H183 C203 0.953 . S
H184 C204 0.945 . S
H185 C206 0.952 . S
H186 C207 0.949 . S
H187 C209 0.950 . S
H188 C210 0.948 . S
H189 C212 0.951 . S
H190 C177 0.947 . S
H191 C179 0.952 . S
H192 C180 0.950 . S
N193 C196 1.382 1_455 S
N193 C198 1.363 . S
N194 C196 1.371 . S
N194 C197 1.372 1_655 S
N195 C197 1.361 . S
N195 C198 1.377 . S
C196 N193 1.382 1_655 S
C196 N194 1.371 . S
C196 C199 1.480 . S
C197 N194 1.372 1_455 S
C197 N195 1.361 . S
C197 C205 1.457 . S
C198 N193 1.363 . S
C198 N195 1.377 . S
C198 C211 1.479 . S
C199 C196 1.480 . S
C199 C200 1.383 . S
C199 C204 1.385 . S
C200 H181 0.947 . S
C200 C199 1.383 . S
C200 C201 1.388 . S
C201 H182 0.946 . S
C201 C200 1.388 . S
C201 C202 1.384 . S
C202 C201 1.384 . S
C202 C203 1.377 . S
C203 H183 0.953 . S
C203 C202 1.377 . S
C203 C204 1.369 . S
C204 H184 0.945 . S
C204 C199 1.385 . S
C204 C203 1.369 . S
C205 C197 1.457 . S
C205 C206 1.372 1_455 S
C205 C210 1.364 . S
C206 H185 0.952 . S
C206 C205 1.372 1_655 S
C206 C207 1.389 . S
C207 H186 0.949 . S
C207 C206 1.389 . S
C207 C208 1.387 1_655 S
C208 C207 1.387 1_455 S
C208 C209 1.372 . S
C209 H187 0.950 . S
C209 C208 1.372 . S
C209 C210 1.379 . S
C210 H188 0.948 . S
C210 C205 1.364 . S
C210 C209 1.379 . S
C211 C180 1.383 . S
C211 C198 1.479 . S
C211 C212 1.398 . S
C212 C177 1.382 . S
C212 H189 0.951 . S
C212 C211 1.398 . S
C213 C214 1.384 . S
C213 H226 0.947 . S
C213 C248 1.382 . S
C214 C213 1.384 . S
C214 C215 1.378 . S
C215 C214 1.378 . S
C215 C216 1.378 . S
C215 H227 0.952 . S
C216 C215 1.378 . S
C216 H228 0.950 . S
C216 C247 1.383 . S
H217 C236 0.947 . S
H218 C237 0.946 . S
H219 C239 0.953 . S
H220 C240 0.945 . S
H221 C242 0.952 . S
H222 C243 0.949 . S
H223 C245 0.950 . S
H224 C246 0.948 . S
H225 C248 0.951 . S
H226 C213 0.947 . S
H227 C215 0.952 . S
H228 C216 0.950 . S
N229 C232 1.382 1_545 S
N229 C234 1.363 . S
N230 C232 1.371 . S
N230 C233 1.372 1_565 S
N231 C233 1.361 . S
N231 C234 1.377 . S
C232 N229 1.382 1_565 S
C232 N230 1.371 . S
C232 C235 1.480 . S
C233 N230 1.372 1_545 S
C233 N231 1.361 . S
C233 C241 1.457 . S
C234 N229 1.363 . S
C234 N231 1.377 . S
C234 C247 1.479 . S
C235 C232 1.480 . S
C235 C236 1.383 . S
C235 C240 1.385 . S
C236 H217 0.947 . S
C236 C235 1.383 . S
C236 C237 1.388 . S
C237 H218 0.946 . S
C237 C236 1.388 . S
C237 C238 1.384 . S
C238 C237 1.384 . S
C238 C239 1.377 . S
C239 H219 0.953 . S
C239 C238 1.377 . S
C239 C240 1.369 . S
C240 H220 0.945 . S
C240 C235 1.385 . S
C240 C239 1.369 . S
C241 C233 1.457 . S
C241 C242 1.372 1_545 S
C241 C246 1.364 . S
C242 H221 0.952 . S
C242 C241 1.372 1_565 S
C242 C243 1.389 . S
C243 H222 0.949 . S
C243 C242 1.389 . S
C243 C244 1.387 1_565 S
C244 C243 1.387 1_545 S
C244 C245 1.372 . S
C245 H223 0.950 . S
C245 C244 1.372 . S
C245 C246 1.379 . S
C246 H224 0.948 . S
C246 C241 1.364 . S
C246 C245 1.379 . S
C247 C216 1.383 . S
C247 C234 1.479 . S
C247 C248 1.398 . S
C248 C213 1.382 . S
C248 H225 0.951 . S
C248 C247 1.398 . S
C249 C250 1.384 . S
C249 H262 0.947 . S
C249 C284 1.382 . S
C250 C249 1.384 . S
C250 C251 1.378 . S
C251 C250 1.378 . S
C251 C252 1.378 . S
C251 H263 0.952 . S
C252 C251 1.378 . S
C252 H264 0.950 . S
C252 C283 1.383 . S
H253 C272 0.947 . S
H254 C273 0.946 . S
H255 C275 0.953 . S
H256 C276 0.945 . S
H257 C278 0.952 . S
H258 C279 0.949 . S
H259 C281 0.950 . S
H260 C282 0.948 . S
H261 C284 0.951 . S
H262 C249 0.947 . S
H263 C251 0.952 . S
H264 C252 0.950 . S
N265 C268 1.382 . S
N265 C270 1.363 . S
N266 C268 1.371 . S
N266 C269 1.372 . S
N267 C269 1.361 . S
N267 C270 1.377 . S
C268 N265 1.382 . S
C268 N266 1.371 . S
C268 C271 1.480 . S
C269 N266 1.372 . S
C269 N267 1.361 . S
C269 C277 1.457 . S
C270 N265 1.363 . S
C270 N267 1.377 . S
C270 C283 1.479 . S
C271 C268 1.480 . S
C271 C272 1.383 . S
C271 C276 1.385 . S
C272 H253 0.947 . S
C272 C271 1.383 . S
C272 C273 1.388 . S
C273 H254 0.946 . S
C273 C272 1.388 . S
C273 C274 1.384 . S
C274 C273 1.384 . S
C274 C275 1.377 . S
C275 H255 0.953 . S
C275 C274 1.377 . S
C275 C276 1.369 . S
C276 H256 0.945 . S
C276 C271 1.385 . S
C276 C275 1.369 . S
C277 C269 1.457 . S
C277 C278 1.372 . S
C277 C282 1.364 . S
C278 H257 0.952 . S
C278 C277 1.372 . S
C278 C279 1.389 . S
C279 H258 0.949 . S
C279 C278 1.389 . S
C279 C280 1.387 . S
C280 C279 1.387 . S
C280 C281 1.372 . S
C281 H259 0.950 . S
C281 C280 1.372 . S
C281 C282 1.379 . S
C282 H260 0.948 . S
C282 C277 1.364 . S
C282 C281 1.379 . S
C283 C252 1.383 . S
C283 C270 1.479 . S
C283 C284 1.398 . S
C284 C249 1.382 . S
C284 H261 0.951 . S
C284 C283 1.398 . S
H285 C293 0.929 . S
H286 C295 0.930 . S
H287 C297 0.930 . S
H288 C300 0.929 . S
H289 C303 0.930 . S
H290 C305 0.960 . S
H291 C305 0.960 . S
H292 C305 0.960 . S
C293 H285 0.929 . S
C293 C294 1.377 . S
C293 C295 1.384 . S
C294 C293 1.377 . S
C294 C300 1.390 . S
C295 H286 0.930 . S
C295 C293 1.384 . S
C295 C296 1.372 . S
C296 C295 1.372 . S
C296 C297 1.400 . S
C296 C301 1.490 . S
C297 H287 0.930 . S
C297 C296 1.400 . S
C297 C300 1.386 . S
H298 C314 0.930 . S
H299 C315 0.931 . S
C300 H288 0.929 . S
C300 C294 1.390 . S
C300 C297 1.386 . S
C301 C296 1.490 . S
C301 C303 1.395 . S
C301 C304 1.403 . S
H302 C308 0.930 . S
C303 H289 0.930 . S
C303 C301 1.395 . S
C303 C306 1.403 . S
C304 C301 1.403 . S
C304 C305 1.524 . S
C304 C308 1.400 . S
C305 H290 0.960 . S
C305 H291 0.960 . S
C305 H292 0.960 . S
C305 C304 1.524 . S
C306 C303 1.403 . S
C306 C307 1.392 . S
C306 C310 1.495 . S
C307 C306 1.392 . S
C307 C308 1.385 . S
C307 C309 1.478 . S
C308 H302 0.930 . S
C308 C304 1.400 . S
C308 C307 1.385 . S
C309 C307 1.478 . S
C309 C311 1.381 . S
C309 C315 1.383 . S
C310 C306 1.495 . S
C310 H316 0.959 . S
C310 H317 0.961 . S
C310 H318 0.960 . S
C311 C309 1.381 . S
C311 C312 1.394 . S
C311 H319 0.930 . S
C312 C311 1.394 . S
C312 C313 1.383 . S
C312 H320 0.929 . S
C313 C312 1.383 . S
C313 C314 1.377 . S
C314 H298 0.930 . S
C314 C313 1.377 . S
C314 C315 1.379 . S
C315 H299 0.931 . S
C315 C309 1.383 . S
C315 C314 1.379 . S
H316 C310 0.959 . S
H317 C310 0.961 . S
H318 C310 0.960 . S
H319 C311 0.930 . S
H320 C312 0.929 . S
H321 C329 0.929 . S
H322 C331 0.930 . S
H323 C333 0.930 . S
H324 C336 0.929 . S
H325 C339 0.930 . S
H326 C341 0.960 . S
H327 C341 0.960 . S
H328 C341 0.960 . S
C329 H321 0.929 . S
C329 C330 1.377 . S
C329 C331 1.384 . S
C330 C329 1.377 . S
C330 C336 1.390 . S
C331 H322 0.930 . S
C331 C329 1.384 . S
C331 C332 1.372 . S
C332 C331 1.372 . S
C332 C333 1.400 . S
C332 C337 1.490 . S
C333 H323 0.930 . S
C333 C332 1.400 . S
C333 C336 1.386 . S
H334 C350 0.930 . S
H335 C351 0.931 . S
C336 H324 0.929 . S
C336 C330 1.390 . S
C336 C333 1.386 . S
C337 C332 1.490 . S
C337 C339 1.395 . S
C337 C340 1.403 . S
H338 C344 0.930 . S
C339 H325 0.930 . S
C339 C337 1.395 . S
C339 C342 1.403 . S
C340 C337 1.403 . S
C340 C341 1.524 . S
C340 C344 1.400 . S
C341 H326 0.960 . S
C341 H327 0.960 . S
C341 H328 0.960 . S
C341 C340 1.524 . S
C342 C339 1.403 . S
C342 C343 1.392 . S
C342 C346 1.495 . S
C343 C342 1.392 . S
C343 C344 1.385 . S
C343 C345 1.478 . S
C344 H338 0.930 . S
C344 C340 1.400 . S
C344 C343 1.385 . S
C345 C343 1.478 . S
C345 C347 1.381 . S
C345 C351 1.383 . S
C346 C342 1.495 . S
C346 H352 0.959 . S
C346 H353 0.961 . S
C346 H354 0.960 . S
C347 C345 1.381 . S
C347 C348 1.394 . S
C347 H355 0.930 . S
C348 C347 1.394 . S
C348 C349 1.383 . S
C348 H356 0.929 . S
C349 C348 1.383 . S
C349 C350 1.377 . S
C350 H334 0.930 . S
C350 C349 1.377 . S
C350 C351 1.379 . S
C351 H335 0.931 . S
C351 C345 1.383 . S
C351 C350 1.379 . S
H352 C346 0.959 . S
H353 C346 0.961 . S
H354 C346 0.960 . S
H355 C347 0.930 . S
H356 C348 0.929 . S
H357 C365 0.929 . S
H358 C367 0.930 . S
H359 C369 0.930 . S
H360 C372 0.929 . S
H361 C375 0.930 . S
H362 C377 0.960 . S
H363 C377 0.960 . S
H364 C377 0.960 . S
C365 H357 0.929 . S
C365 C366 1.377 . S
C365 C367 1.384 . S
C366 C365 1.377 . S
C366 C372 1.390 . S
C367 H358 0.930 . S
C367 C365 1.384 . S
C367 C368 1.372 . S
C368 C367 1.372 . S
C368 C369 1.400 . S
C368 C373 1.490 . S
C369 H359 0.930 . S
C369 C368 1.400 . S
C369 C372 1.386 . S
H370 C386 0.930 . S
H371 C387 0.931 . S
C372 H360 0.929 . S
C372 C366 1.390 . S
C372 C369 1.386 . S
C373 C368 1.490 . S
C373 C375 1.395 . S
C373 C376 1.403 . S
H374 C380 0.930 . S
C375 H361 0.930 . S
C375 C373 1.395 . S
C375 C378 1.403 . S
C376 C373 1.403 . S
C376 C377 1.524 . S
C376 C380 1.400 . S
C377 H362 0.960 . S
C377 H363 0.960 . S
C377 H364 0.960 . S
C377 C376 1.524 . S
C378 C375 1.403 . S
C378 C379 1.392 . S
C378 C382 1.495 . S
C379 C378 1.392 . S
C379 C380 1.385 . S
C379 C381 1.478 . S
C380 H374 0.930 . S
C380 C376 1.400 . S
C380 C379 1.385 . S
C381 C379 1.478 . S
C381 C383 1.381 . S
C381 C387 1.383 . S
C382 C378 1.495 . S
C382 H388 0.959 . S
C382 H389 0.961 . S
C382 H390 0.960 . S
C383 C381 1.381 . S
C383 C384 1.394 . S
C383 H391 0.930 . S
C384 C383 1.394 . S
C384 C385 1.383 . S
C384 H392 0.929 . S
C385 C384 1.383 . S
C385 C386 1.377 . S
C386 H370 0.930 . S
C386 C385 1.377 . S
C386 C387 1.379 . S
C387 H371 0.931 . S
C387 C381 1.383 . S
C387 C386 1.379 . S
H388 C382 0.959 . S
H389 C382 0.961 . S
H390 C382 0.960 . S
H391 C383 0.930 . S
H392 C384 0.929 . S
H393 C401 0.929 . S
H394 C403 0.930 . S
H395 C405 0.930 . S
H396 C408 0.929 . S
H397 C411 0.930 . S
H398 C413 0.960 . S
H399 C413 0.960 . S
H400 C413 0.960 . S
C401 H393 0.929 . S
C401 C402 1.377 . S
C401 C403 1.384 . S
C402 C401 1.377 . S
C402 C408 1.390 . S
C403 H394 0.930 . S
C403 C401 1.384 . S
C403 C404 1.372 . S
C404 C403 1.372 . S
C404 C405 1.400 . S
C404 C409 1.490 . S
C405 H395 0.930 . S
C405 C404 1.400 . S
C405 C408 1.386 . S
H406 C422 0.930 . S
H407 C423 0.931 . S
C408 H396 0.929 . S
C408 C402 1.390 . S
C408 C405 1.386 . S
C409 C404 1.490 . S
C409 C411 1.395 . S
C409 C412 1.403 . S
H410 C416 0.930 . S
C411 H397 0.930 . S
C411 C409 1.395 . S
C411 C414 1.403 . S
C412 C409 1.403 . S
C412 C413 1.524 . S
C412 C416 1.400 . S
C413 H398 0.960 . S
C413 H399 0.960 . S
C413 H400 0.960 . S
C413 C412 1.524 . S
C414 C411 1.403 . S
C414 C415 1.392 . S
C414 C418 1.495 . S
C415 C414 1.392 . S
C415 C416 1.385 . S
C415 C417 1.478 . S
C416 H410 0.930 . S
C416 C412 1.400 . S
C416 C415 1.385 . S
C417 C415 1.478 . S
C417 C419 1.381 . S
C417 C423 1.383 . S
C418 C414 1.495 . S
C418 H424 0.959 . S
C418 H425 0.961 . S
C418 H426 0.960 . S
C419 C417 1.381 . S
C419 C420 1.394 . S
C419 H427 0.930 . S
C420 C419 1.394 . S
C420 C421 1.383 . S
C420 H428 0.929 . S
C421 C420 1.383 . S
C421 C422 1.377 . S
C422 H406 0.930 . S
C422 C421 1.377 . S
C422 C423 1.379 . S
C423 H407 0.931 . S
C423 C417 1.383 . S
C423 C422 1.379 . S
H424 C418 0.959 . S
H425 C418 0.961 . S
H426 C418 0.960 . S
H427 C419 0.930 . S
H428 C420 0.929 . S
H429 C437 0.929 . S
H430 C439 0.930 . S
H431 C441 0.930 . S
H432 C444 0.929 . S
H433 C447 0.930 . S
H434 C449 0.960 . S
H435 C449 0.960 . S
H436 C449 0.960 . S
C437 H429 0.929 . S
C437 C438 1.377 . S
C437 C439 1.384 . S
C438 C437 1.377 . S
C438 C444 1.390 . S
C439 H430 0.930 . S
C439 C437 1.384 . S
C439 C440 1.372 . S
C440 C439 1.372 . S
C440 C441 1.400 . S
C440 C445 1.490 . S
C441 H431 0.930 . S
C441 C440 1.400 . S
C441 C444 1.386 . S
H442 C458 0.930 . S
H443 C459 0.931 . S
C444 H432 0.929 . S
C444 C438 1.390 . S
C444 C441 1.386 . S
C445 C440 1.490 . S
C445 C447 1.395 . S
C445 C448 1.403 . S
H446 C452 0.930 . S
C447 H433 0.930 . S
C447 C445 1.395 . S
C447 C450 1.403 . S
C448 C445 1.403 . S
C448 C449 1.524 . S
C448 C452 1.400 . S
C449 H434 0.960 . S
C449 H435 0.960 . S
C449 H436 0.960 . S
C449 C448 1.524 . S
C450 C447 1.403 . S
C450 C451 1.392 . S
C450 C454 1.495 . S
C451 C450 1.392 . S
C451 C452 1.385 . S
C451 C453 1.478 . S
C452 H446 0.930 . S
C452 C448 1.400 . S
C452 C451 1.385 . S
C453 C451 1.478 . S
C453 C455 1.381 . S
C453 C459 1.383 . S
C454 C450 1.495 . S
C454 H460 0.959 . S
C454 H461 0.961 . S
C454 H462 0.960 . S
C455 C453 1.381 . S
C455 C456 1.394 . S
C455 H463 0.930 . S
C456 C455 1.394 . S
C456 C457 1.383 . S
C456 H464 0.929 . S
C457 C456 1.383 . S
C457 C458 1.377 . S
C458 H442 0.930 . S
C458 C457 1.377 . S
C458 C459 1.379 . S
C459 H443 0.931 . S
C459 C453 1.383 . S
C459 C458 1.379 . S
H460 C454 0.959 . S
H461 C454 0.961 . S
H462 C454 0.960 . S
H463 C455 0.930 . S
H464 C456 0.929 . S
H465 C473 0.929 . S
H466 C475 0.930 . S
H467 C477 0.930 . S
H468 C480 0.929 . S
H469 C483 0.930 . S
H470 C485 0.960 . S
H471 C485 0.960 . S
H472 C485 0.960 . S
C473 H465 0.929 . S
C473 C474 1.377 . S
C473 C475 1.384 . S
C474 C473 1.377 . S
C474 C480 1.390 . S
C475 H466 0.930 . S
C475 C473 1.384 . S
C475 C476 1.372 . S
C476 C475 1.372 . S
C476 C477 1.400 . S
C476 C481 1.490 . S
C477 H467 0.930 . S
C477 C476 1.400 . S
C477 C480 1.386 . S
H478 C494 0.930 . S
H479 C495 0.931 . S
C480 H468 0.929 . S
C480 C474 1.390 . S
C480 C477 1.386 . S
C481 C476 1.490 . S
C481 C483 1.395 . S
C481 C484 1.403 . S
H482 C488 0.930 . S
C483 H469 0.930 . S
C483 C481 1.395 . S
C483 C486 1.403 . S
C484 C481 1.403 . S
C484 C485 1.524 . S
C484 C488 1.400 . S
C485 H470 0.960 . S
C485 H471 0.960 . S
C485 H472 0.960 . S
C485 C484 1.524 . S
C486 C483 1.403 . S
C486 C487 1.392 . S
C486 C490 1.495 . S
C487 C486 1.392 . S
C487 C488 1.385 . S
C487 C489 1.478 . S
C488 H482 0.930 . S
C488 C484 1.400 . S
C488 C487 1.385 . S
C489 C487 1.478 . S
C489 C491 1.381 . S
C489 C495 1.383 . S
C490 C486 1.495 . S
C490 H496 0.959 . S
C490 H497 0.961 . S
C490 H498 0.960 . S
C491 C489 1.381 . S
C491 C492 1.394 . S
C491 H499 0.930 . S
C492 C491 1.394 . S
C492 C493 1.383 . S
C492 H500 0.929 . S
C493 C492 1.383 . S
C493 C494 1.377 . S
C494 H478 0.930 . S
C494 C493 1.377 . S
C494 C495 1.379 . S
C495 H479 0.931 . S
C495 C489 1.383 . S
C495 C494 1.379 . S
H496 C490 0.959 . S
H497 C490 0.961 . S
H498 C490 0.960 . S
H499 C491 0.930 . S
H500 C492 0.929 . S
H501 C509 0.929 . S
H502 C511 0.930 . S
H503 C513 0.930 . S
H504 C516 0.929 . S
H505 C519 0.930 . S
H506 C521 0.960 . S
H507 C521 0.960 . S
H508 C521 0.960 . S
C509 H501 0.929 . S
C509 C510 1.377 . S
C509 C511 1.384 . S
C510 C509 1.377 . S
C510 C516 1.390 . S
C511 H502 0.930 . S
C511 C509 1.384 . S
C511 C512 1.372 . S
C512 C511 1.372 . S
C512 C513 1.400 . S
C512 C517 1.490 . S
C513 H503 0.930 . S
C513 C512 1.400 . S
C513 C516 1.386 . S
H514 C530 0.930 . S
H515 C531 0.931 . S
C516 H504 0.929 . S
C516 C510 1.390 . S
C516 C513 1.386 . S
C517 C512 1.490 . S
C517 C519 1.395 . S
C517 C520 1.403 . S
H518 C524 0.930 . S
C519 H505 0.930 . S
C519 C517 1.395 . S
C519 C522 1.403 . S
C520 C517 1.403 . S
C520 C521 1.524 . S
C520 C524 1.400 . S
C521 H506 0.960 . S
C521 H507 0.960 . S
C521 H508 0.960 . S
C521 C520 1.524 . S
C522 C519 1.403 . S
C522 C523 1.392 . S
C522 C526 1.495 . S
C523 C522 1.392 . S
C523 C524 1.385 . S
C523 C525 1.478 . S
C524 H518 0.930 . S
C524 C520 1.400 . S
C524 C523 1.385 . S
C525 C523 1.478 . S
C525 C527 1.381 . S
C525 C531 1.383 . S
C526 C522 1.495 . S
C526 H532 0.959 . S
C526 H533 0.961 . S
C526 H534 0.960 . S
C527 C525 1.381 . S
C527 C528 1.394 . S
C527 H535 0.930 . S
C528 C527 1.394 . S
C528 C529 1.383 . S
C528 H536 0.929 . S
C529 C528 1.383 . S
C529 C530 1.377 . S
C530 H514 0.930 . S
C530 C529 1.377 . S
C530 C531 1.379 . S
C531 H515 0.931 . S
C531 C525 1.383 . S
C531 C530 1.379 . S
H532 C526 0.959 . S
H533 C526 0.961 . S
H534 C526 0.960 . S
H535 C527 0.930 . S
H536 C528 0.929 . S
H537 C545 0.929 . S
H538 C547 0.930 . S
H539 C549 0.930 . S
H540 C552 0.929 . S
H541 C555 0.930 . S
H542 C557 0.960 . S
H543 C557 0.960 . S
H544 C557 0.960 . S
C545 H537 0.929 . S
C545 C546 1.377 . S
C545 C547 1.384 . S
C546 C545 1.377 . S
C546 C552 1.390 . S
C547 H538 0.930 . S
C547 C545 1.384 . S
C547 C548 1.372 . S
C548 C547 1.372 . S
C548 C549 1.400 . S
C548 C553 1.490 . S
C549 H539 0.930 . S
C549 C548 1.400 . S
C549 C552 1.386 . S
H550 C566 0.930 . S
H551 C567 0.931 . S
C552 H540 0.929 . S
C552 C546 1.390 . S
C552 C549 1.386 . S
C553 C548 1.490 . S
C553 C555 1.395 . S
C553 C556 1.403 . S
H554 C560 0.930 . S
C555 H541 0.930 . S
C555 C553 1.395 . S
C555 C558 1.403 . S
C556 C553 1.403 . S
C556 C557 1.524 . S
C556 C560 1.400 . S
C557 H542 0.960 . S
C557 H543 0.960 . S
C557 H544 0.960 . S
C557 C556 1.524 . S
C558 C555 1.403 . S
C558 C559 1.392 . S
C558 C562 1.495 . S
C559 C558 1.392 . S
C559 C560 1.385 . S
C559 C561 1.478 . S
C560 H554 0.930 . S
C560 C556 1.400 . S
C560 C559 1.385 . S
C561 C559 1.478 . S
C561 C563 1.381 . S
C561 C567 1.383 . S
C562 C558 1.495 . S
C562 H568 0.959 . S
C562 H569 0.961 . S
C562 H570 0.960 . S
C563 C561 1.381 . S
C563 C564 1.394 . S
C563 H571 0.930 . S
C564 C563 1.394 . S
C564 C565 1.383 . S
C564 H572 0.929 . S
C565 C564 1.383 . S
C565 C566 1.377 . S
C566 H550 0.930 . S
C566 C565 1.377 . S
C566 C567 1.379 . S
C567 H551 0.931 . S
C567 C561 1.383 . S
C567 C566 1.379 . S
H568 C562 0.959 . S
H569 C562 0.961 . S
H570 C562 0.960 . S
H571 C563 0.930 . S
H572 C564 0.929 . S
H573 C581 0.929 . S
H574 C583 0.930 . S
H575 C585 0.930 . S
H576 C588 0.929 . S
H577 C591 0.930 . S
H578 C593 0.960 . S
H579 C593 0.960 . S
H580 C593 0.960 . S
C581 H573 0.929 . S
C581 C582 1.377 . S
C581 C583 1.384 . S
C582 C581 1.377 . S
C582 C588 1.390 . S
C583 H574 0.930 . S
C583 C581 1.384 . S
C583 C584 1.372 . S
C584 C583 1.372 . S
C584 C585 1.400 . S
C584 C589 1.490 . S
C585 H575 0.930 . S
C585 C584 1.400 . S
C585 C588 1.386 . S
H586 C602 0.930 . S
H587 C603 0.931 . S
C588 H576 0.929 . S
C588 C582 1.390 . S
C588 C585 1.386 . S
C589 C584 1.490 . S
C589 C591 1.395 . S
C589 C592 1.403 . S
H590 C596 0.930 . S
C591 H577 0.930 . S
C591 C589 1.395 . S
C591 C594 1.403 . S
C592 C589 1.403 . S
C592 C593 1.524 . S
C592 C596 1.400 . S
C593 H578 0.960 . S
C593 H579 0.960 . S
C593 H580 0.960 . S
C593 C592 1.524 . S
C594 C591 1.403 . S
C594 C595 1.392 . S
C594 C598 1.495 . S
C595 C594 1.392 . S
C595 C596 1.385 . S
C595 C597 1.478 . S
C596 H590 0.930 . S
C596 C592 1.400 . S
C596 C595 1.385 . S
C597 C595 1.478 . S
C597 C599 1.381 . S
C597 C603 1.383 . S
C598 C594 1.495 . S
C598 H604 0.959 . S
C598 H605 0.961 . S
C598 H606 0.960 . S
C599 C597 1.381 . S
C599 C600 1.394 . S
C599 H607 0.930 . S
C600 C599 1.394 . S
C600 C601 1.383 . S
C600 H608 0.929 . S
C601 C600 1.383 . S
C601 C602 1.377 . S
C602 H586 0.930 . S
C602 C601 1.377 . S
C602 C603 1.379 . S
C603 H587 0.931 . S
C603 C597 1.383 . S
C603 C602 1.379 . S
H604 C598 0.959 . S
H605 C598 0.961 . S
H606 C598 0.960 . S
H607 C599 0.930 . S
H608 C600 0.929 . S
H609 C617 0.929 . S
H610 C619 0.930 . S
H611 C621 0.930 . S
H612 C624 0.929 . S
H613 C627 0.930 . S
H614 C629 0.960 . S
H615 C629 0.960 . S
H616 C629 0.960 . S
C617 H609 0.929 . S
C617 C618 1.377 . S
C617 C619 1.384 . S
C618 C617 1.377 . S
C618 C624 1.390 . S
C619 H610 0.930 . S
C619 C617 1.384 . S
C619 C620 1.372 . S
C620 C619 1.372 . S
C620 C621 1.400 . S
C620 C625 1.490 . S
C621 H611 0.930 . S
C621 C620 1.400 . S
C621 C624 1.386 . S
H622 C638 0.930 . S
H623 C639 0.931 . S
C624 H612 0.929 . S
C624 C618 1.390 . S
C624 C621 1.386 . S
C625 C620 1.490 . S
C625 C627 1.395 . S
C625 C628 1.403 . S
H626 C632 0.930 . S
C627 H613 0.930 . S
C627 C625 1.395 . S
C627 C630 1.403 . S
C628 C625 1.403 . S
C628 C629 1.524 . S
C628 C632 1.400 . S
C629 H614 0.960 . S
C629 H615 0.960 . S
C629 H616 0.960 . S
C629 C628 1.524 . S
C630 C627 1.403 . S
C630 C631 1.392 . S
C630 C634 1.495 . S
C631 C630 1.392 . S
C631 C632 1.385 . S
C631 C633 1.478 . S
C632 H626 0.930 . S
C632 C628 1.400 . S
C632 C631 1.385 . S
C633 C631 1.478 . S
C633 C635 1.381 . S
C633 C639 1.383 . S
C634 C630 1.495 . S
C634 H640 0.959 . S
C634 H641 0.961 . S
C634 H642 0.960 . S
C635 C633 1.381 . S
C635 C636 1.394 . S
C635 H643 0.930 . S
C636 C635 1.394 . S
C636 C637 1.383 . S
C636 H644 0.929 . S
C637 C636 1.383 . S
C637 C638 1.377 . S
C638 H622 0.930 . S
C638 C637 1.377 . S
C638 C639 1.379 . S
C639 H623 0.931 . S
C639 C633 1.383 . S
C639 C638 1.379 . S
H640 C634 0.959 . S
H641 C634 0.961 . S
H642 C634 0.960 . S
H643 C635 0.930 . S
H644 C636 0.929 . S
H645 C653 0.929 . S
H646 C655 0.930 . S
H647 C657 0.930 . S
H648 C660 0.929 . S
H649 C663 0.930 . S
H650 C665 0.960 . S
H651 C665 0.960 . S
H652 C665 0.960 . S
C653 H645 0.929 . S
C653 C654 1.377 . S
C653 C655 1.384 . S
C654 C653 1.377 . S
C654 C660 1.390 . S
C655 H646 0.930 . S
C655 C653 1.384 . S
C655 C656 1.372 . S
C656 C655 1.372 . S
C656 C657 1.400 . S
C656 C661 1.490 . S
C657 H647 0.930 . S
C657 C656 1.400 . S
C657 C660 1.386 . S
H658 C674 0.930 . S
H659 C675 0.931 . S
C660 H648 0.929 . S
C660 C654 1.390 . S
C660 C657 1.386 . S
C661 C656 1.490 . S
C661 C663 1.395 . S
C661 C664 1.403 . S
H662 C668 0.930 . S
C663 H649 0.930 . S
C663 C661 1.395 . S
C663 C666 1.403 . S
C664 C661 1.403 . S
C664 C665 1.524 . S
C664 C668 1.400 . S
C665 H650 0.960 . S
C665 H651 0.960 . S
C665 H652 0.960 . S
C665 C664 1.524 . S
C666 C663 1.403 . S
C666 C667 1.392 . S
C666 C670 1.495 . S
C667 C666 1.392 . S
C667 C668 1.385 . S
C667 C669 1.478 . S
C668 H662 0.930 . S
C668 C664 1.400 . S
C668 C667 1.385 . S
C669 C667 1.478 . S
C669 C671 1.381 . S
C669 C675 1.383 . S
C670 C666 1.495 . S
C670 H676 0.959 . S
C670 H677 0.961 . S
C670 H678 0.960 . S
C671 C669 1.381 . S
C671 C672 1.394 . S
C671 H679 0.930 . S
C672 C671 1.394 . S
C672 C673 1.383 . S
C672 H680 0.929 . S
C673 C672 1.383 . S
C673 C674 1.377 . S
C674 H658 0.930 . S
C674 C673 1.377 . S
C674 C675 1.379 . S
C675 H659 0.931 . S
C675 C669 1.383 . S
C675 C674 1.379 . S
H676 C670 0.959 . S
H677 C670 0.961 . S
H678 C670 0.960 . S
H679 C671 0.930 . S
H680 C672 0.929 . S
H681 C689 0.929 . S
H682 C691 0.930 . S
H683 C693 0.930 . S
H684 C696 0.929 . S
H685 C699 0.930 . S
H686 C701 0.960 . S
H687 C701 0.960 . S
H688 C701 0.960 . S
C689 H681 0.929 . S
C689 C690 1.377 . S
C689 C691 1.384 . S
C690 C689 1.377 . S
C690 C696 1.390 . S
C691 H682 0.930 . S
C691 C689 1.384 . S
C691 C692 1.372 . S
C692 C691 1.372 . S
C692 C693 1.400 . S
C692 C697 1.490 . S
C693 H683 0.930 . S
C693 C692 1.400 . S
C693 C696 1.386 . S
H694 C710 0.930 . S
H695 C711 0.931 . S
C696 H684 0.929 . S
C696 C690 1.390 . S
C696 C693 1.386 . S
C697 C692 1.490 . S
C697 C699 1.395 . S
C697 C700 1.403 . S
H698 C704 0.930 . S
C699 H685 0.930 . S
C699 C697 1.395 . S
C699 C702 1.403 . S
C700 C697 1.403 . S
C700 C701 1.524 . S
C700 C704 1.400 . S
C701 H686 0.960 . S
C701 H687 0.960 . S
C701 H688 0.960 . S
C701 C700 1.524 . S
C702 C699 1.403 . S
C702 C703 1.392 . S
C702 C706 1.495 . S
C703 C702 1.392 . S
C703 C704 1.385 . S
C703 C705 1.478 . S
C704 H698 0.930 . S
C704 C700 1.400 . S
C704 C703 1.385 . S
C705 C703 1.478 . S
C705 C707 1.381 . S
C705 C711 1.383 . S
C706 C702 1.495 . S
C706 H712 0.959 . S
C706 H713 0.961 . S
C706 H714 0.960 . S
C707 C705 1.381 . S
C707 C708 1.394 . S
C707 H715 0.930 . S
C708 C707 1.394 . S
C708 C709 1.383 . S
C708 H716 0.929 . S
C709 C708 1.383 . S
C709 C710 1.377 . S
C710 H694 0.930 . S
C710 C709 1.377 . S
C710 C711 1.379 . S
C711 H695 0.931 . S
C711 C705 1.383 . S
C711 C710 1.379 . S
H712 C706 0.959 . S
H713 C706 0.961 . S
H714 C706 0.960 . S
H715 C707 0.930 . S
H716 C708 0.929 . S
H717 C725 0.929 . S
H718 C727 0.930 . S
H719 C729 0.930 . S
H720 C732 0.929 . S
H721 C735 0.930 . S
H722 C737 0.960 . S
H723 C737 0.960 . S
H724 C737 0.960 . S
C725 H717 0.929 . S
C725 C726 1.377 1_655 S
C725 C727 1.384 . S
C726 C725 1.377 1_455 S
C726 C732 1.390 . S
C727 H718 0.930 . S
C727 C725 1.384 . S
C727 C728 1.372 1_655 S
C728 C727 1.372 1_455 S
C728 C729 1.400 . S
C728 C733 1.490 . S
C729 H719 0.930 . S
C729 C728 1.400 . S
C729 C732 1.386 . S
H730 C746 0.930 . S
H731 C747 0.931 . S
C732 H720 0.929 . S
C732 C726 1.390 . S
C732 C729 1.386 . S
C733 C728 1.490 . S
C733 C735 1.395 1_455 S
C733 C736 1.403 . S
H734 C740 0.930 . S
C735 H721 0.930 . S
C735 C733 1.395 1_655 S
C735 C738 1.403 . S
C736 C733 1.403 . S
C736 C737 1.524 . S
C736 C740 1.400 . S
C737 H722 0.960 . S
C737 H723 0.960 . S
C737 H724 0.960 . S
C737 C736 1.524 . S
C738 C735 1.403 . S
C738 C739 1.392 1_655 S
C738 C742 1.495 . S
C739 C738 1.392 1_455 S
C739 C740 1.385 . S
C739 C741 1.478 . S
C740 H734 0.930 . S
C740 C736 1.400 . S
C740 C739 1.385 . S
C741 C739 1.478 . S
C741 C743 1.381 1_455 S
C741 C747 1.383 . S
C742 C738 1.495 . S
C742 H748 0.959 . S
C742 H749 0.961 . S
C742 H750 0.960 . S
C743 C741 1.381 1_655 S
C743 C744 1.394 1_554 S
C743 H751 0.930 . S
C744 C743 1.394 1_556 S
C744 C745 1.383 1_655 S
C744 H752 0.929 . S
C745 C744 1.383 1_455 S
C745 C746 1.377 . S
C746 H730 0.930 . S
C746 C745 1.377 . S
C746 C747 1.379 1_556 S
C747 H731 0.931 . S
C747 C741 1.383 . S
C747 C746 1.379 1_554 S
H748 C742 0.959 . S
H749 C742 0.961 . S
H750 C742 0.960 . S
H751 C743 0.930 . S
H752 C744 0.929 . S
H753 C761 0.929 . S
H754 C763 0.930 . S
H755 C765 0.943 . S
H756 C768 0.951 . S
H757 C771 0.930 . S
H758 C773 0.960 . S
H759 C773 0.960 . S
H760 C773 0.960 . S
C761 H753 0.929 . S
C761 C762 1.377 . S
C761 C763 1.384 . S
C762 C761 1.377 . S
C762 C768 1.369 1_545 S
C763 H754 0.930 . S
C763 C761 1.384 . S
C763 C764 1.372 . S
C764 C763 1.372 . S
C764 C765 1.386 1_545 S
C764 C769 1.490 . S
C765 H755 0.943 . S
C765 C764 1.386 1_565 S
C765 C768 1.385 . S
H766 C782 0.930 . S
H767 C783 0.931 . S
C768 H756 0.951 . S
C768 C762 1.369 1_565 S
C768 C765 1.385 . S
C769 C764 1.490 . S
C769 C771 1.395 . S
C769 C772 1.403 1_545 S
H770 C776 0.930 . S
C771 H757 0.930 . S
C771 C769 1.395 . S
C771 C774 1.403 . S
C772 C769 1.403 1_565 S
C772 C773 1.524 . S
C772 C776 1.400 . S
C773 H758 0.960 . S
C773 H759 0.960 . S
C773 H760 0.960 . S
C773 C772 1.524 . S
C774 C771 1.403 . S
C774 C775 1.392 . S
C774 C778 1.495 . S
C775 C774 1.392 . S
C775 C776 1.385 1_545 S
C775 C777 1.478 . S
C776 H770 0.930 . S
C776 C772 1.400 . S
C776 C775 1.385 1_565 S
C777 C775 1.478 . S
C777 C779 1.381 . S
C777 C783 1.383 . S
C778 C774 1.495 . S
C778 H784 0.959 . S
C778 H785 0.961 . S
C778 H786 0.960 . S
C779 C777 1.381 . S
C779 C780 1.394 . S
C779 H787 0.930 . S
C780 C779 1.394 . S
C780 C781 1.383 . S
C780 H788 0.929 . S
C781 C780 1.383 . S
C781 C782 1.377 . S
C782 H766 0.930 . S
C782 C781 1.377 . S
C782 C783 1.379 . S
C783 H767 0.931 . S
C783 C777 1.383 . S
C783 C782 1.379 . S
H784 C778 0.959 . S
H785 C778 0.961 . S
H786 C778 0.960 . S
H787 C779 0.930 . S
H788 C780 0.929 . S
H789 C797 0.929 . S
H790 C799 0.930 . S
H791 C801 0.930 . S
H792 C804 0.929 . S
H793 C807 0.930 . S
H794 C809 0.960 . S
H795 C809 0.960 . S
H796 C809 0.960 . S
C797 H789 0.929 . S
C797 C798 1.377 . S
C797 C799 1.384 . S
C798 C797 1.377 . S
C798 C804 1.390 . S
C799 H790 0.930 . S
C799 C797 1.384 . S
C799 C800 1.372 . S
C800 C799 1.372 . S
C800 C801 1.400 . S
C800 C805 1.490 . S
C801 H791 0.930 . S
C801 C800 1.400 . S
C801 C804 1.386 . S
H802 C818 0.930 . S
H803 C819 0.931 . S
C804 H792 0.929 . S
C804 C798 1.390 . S
C804 C801 1.386 . S
C805 C800 1.490 . S
C805 C807 1.395 . S
C805 C808 1.403 . S
H806 C812 0.930 . S
C807 H793 0.930 . S
C807 C805 1.395 . S
C807 C810 1.403 . S
C808 C805 1.403 . S
C808 C809 1.524 . S
C808 C812 1.400 . S
C809 H794 0.960 . S
C809 H795 0.960 . S
C809 H796 0.960 . S
C809 C808 1.524 . S
C810 C807 1.403 . S
C810 C811 1.392 . S
C810 C814 1.495 . S
C811 C810 1.392 . S
C811 C812 1.385 . S
C811 C813 1.478 . S
C812 H806 0.930 . S
C812 C808 1.400 . S
C812 C811 1.385 . S
C813 C811 1.478 . S
C813 C815 1.381 . S
C813 C819 1.383 . S
C814 C810 1.495 . S
C814 H820 0.959 . S
C814 H821 0.961 . S
C814 H822 0.960 . S
C815 C813 1.381 . S
C815 C816 1.394 . S
C815 H823 0.930 . S
C816 C815 1.394 . S
C816 C817 1.383 . S
C816 H824 0.929 . S
C817 C816 1.383 . S
C817 C818 1.377 . S
C818 H802 0.930 . S
C818 C817 1.377 . S
C818 C819 1.379 . S
C819 H803 0.931 . S
C819 C813 1.383 . S
C819 C818 1.379 . S
H820 C814 0.959 . S
H821 C814 0.961 . S
H822 C814 0.960 . S
H823 C815 0.930 . S
H824 C816 0.929 . S
H825 C833 0.929 . S
H826 C835 0.930 . S
H827 C837 0.930 . S
H828 C840 0.929 . S
H829 C843 0.930 . S
H830 C845 0.960 . S
H831 C845 0.960 . S
H832 C845 0.960 . S
C833 H825 0.929 . S
C833 C834 1.377 1_565 S
C833 C835 1.384 . S
C834 C833 1.377 1_545 S
C834 C840 1.390 . S
C835 H826 0.930 . S
C835 C833 1.384 . S
C835 C836 1.372 1_565 S
C836 C835 1.372 1_545 S
C836 C837 1.400 . S
C836 C841 1.490 . S
C837 H827 0.930 . S
C837 C836 1.400 . S
C837 C840 1.386 . S
H838 C854 0.930 . S
H839 C855 0.931 . S
C840 H828 0.929 . S
C840 C834 1.390 . S
C840 C837 1.386 . S
C841 C836 1.490 . S
C841 C843 1.395 1_545 S
C841 C844 1.403 . S
H842 C848 0.930 . S
C843 H829 0.930 . S
C843 C841 1.395 1_565 S
C843 C846 1.403 . S
C844 C841 1.403 . S
C844 C845 1.524 . S
C844 C848 1.400 . S
C845 H830 0.960 . S
C845 H831 0.960 . S
C845 H832 0.960 . S
C845 C844 1.524 . S
C846 C843 1.403 . S
C846 C847 1.392 . S
C846 C850 1.495 . S
C847 C846 1.392 . S
C847 C848 1.385 1_565 S
C847 C849 1.478 . S
C848 H842 0.930 . S
C848 C844 1.400 . S
C848 C847 1.385 1_545 S
C849 C847 1.478 . S
C849 C851 1.381 . S
C849 C855 1.383 1_565 S
C850 C846 1.495 . S
C850 H856 0.959 . S
C850 H857 0.961 . S
C850 H858 0.960 . S
C851 C849 1.381 . S
C851 C852 1.394 . S
C851 H859 0.930 . S
C852 C851 1.394 . S
C852 C853 1.383 . S
C852 H860 0.929 . S
C853 C852 1.383 . S
C853 C854 1.377 1_565 S
C854 H838 0.930 . S
C854 C853 1.377 1_545 S
C854 C855 1.379 . S
C855 H839 0.931 . S
C855 C849 1.383 1_545 S
C855 C854 1.379 . S
H856 C850 0.959 . S
H857 C850 0.961 . S
H858 C850 0.960 . S
H859 C851 0.930 . S
H860 C852 0.929 . S
H861 C869 0.929 . S
H862 C871 0.930 . S
H863 C873 0.930 . S
H864 C876 0.929 . S
H865 C879 0.930 . S
H866 C881 0.960 . S
H867 C881 0.960 . S
H868 C881 0.960 . S
C869 H861 0.929 . S
C869 C870 1.377 . S
C869 C871 1.384 . S
C870 C869 1.377 . S
C870 C876 1.390 . S
C871 H862 0.930 . S
C871 C869 1.384 . S
C871 C872 1.372 . S
C872 C871 1.372 . S
C872 C873 1.400 . S
C872 C877 1.490 . S
C873 H863 0.930 . S
C873 C872 1.400 . S
C873 C876 1.386 . S
H874 C890 0.930 . S
H875 C891 0.931 . S
C876 H864 0.929 . S
C876 C870 1.390 . S
C876 C873 1.386 . S
C877 C872 1.490 . S
C877 C879 1.395 . S
C877 C880 1.403 . S
H878 C884 0.930 . S
C879 H865 0.930 . S
C879 C877 1.395 . S
C879 C882 1.403 . S
C880 C877 1.403 . S
C880 C881 1.524 . S
C880 C884 1.400 . S
C881 H866 0.960 . S
C881 H867 0.960 . S
C881 H868 0.960 . S
C881 C880 1.524 . S
C882 C879 1.403 . S
C882 C883 1.392 . S
C882 C886 1.495 . S
C883 C882 1.392 . S
C883 C884 1.385 . S
C883 C885 1.478 . S
C884 H878 0.930 . S
C884 C880 1.400 . S
C884 C883 1.385 . S
C885 C883 1.478 . S
C885 C887 1.381 . S
C885 C891 1.383 . S
C886 C882 1.495 . S
C886 H892 0.959 . S
C886 H893 0.961 . S
C886 H894 0.960 . S
C887 C885 1.381 . S
C887 C888 1.394 1_556 S
C887 H895 0.930 . S
C888 C887 1.394 1_554 S
C888 C889 1.383 . S
C888 H896 0.929 . S
C889 C888 1.383 . S
C889 C890 1.377 . S
C890 H874 0.930 . S
C890 C889 1.377 . S
C890 C891 1.379 1_554 S
C891 H875 0.931 . S
C891 C885 1.383 . S
C891 C890 1.379 1_556 S
H892 C886 0.959 . S
H893 C886 0.961 . S
H894 C886 0.960 . S
H895 C887 0.930 . S
H896 C888 0.929 . S
H897 C905 0.929 . S
H898 C907 0.930 . S
H899 C909 0.930 . S
H900 C912 0.929 . S
H901 C915 0.930 . S
H902 C917 0.960 . S
H903 C917 0.960 . S
H904 C917 0.960 . S
C905 H897 0.929 . S
C905 C906 1.377 1_655 S
C905 C907 1.384 . S
C906 C905 1.377 1_455 S
C906 C912 1.390 . S
C907 H898 0.930 . S
C907 C905 1.384 . S
C907 C908 1.372 1_655 S
C908 C907 1.372 1_455 S
C908 C909 1.400 . S
C908 C913 1.490 . S
C909 H899 0.930 . S
C909 C908 1.400 . S
C909 C912 1.386 . S
H910 C926 0.930 . S
H911 C927 0.931 . S
C912 H900 0.929 . S
C912 C906 1.390 . S
C912 C909 1.386 . S
C913 C908 1.490 . S
C913 C915 1.395 1_455 S
C913 C916 1.403 . S
H914 C920 0.930 . S
C915 H901 0.930 . S
C915 C913 1.395 1_655 S
C915 C918 1.403 . S
C916 C913 1.403 . S
C916 C917 1.524 . S
C916 C920 1.400 . S
C917 H902 0.960 . S
C917 H903 0.960 . S
C917 H904 0.960 . S
C917 C916 1.524 . S
C918 C915 1.403 . S
C918 C919 1.392 1_655 S
C918 C922 1.495 . S
C919 C918 1.392 1_455 S
C919 C920 1.385 . S
C919 C921 1.477 . S
C920 H914 0.930 . S
C920 C916 1.400 . S
C920 C919 1.385 . S
C921 C919 1.477 . S
C921 C923 1.372 1_455 S
C921 C927 1.392 . S
C922 C918 1.495 . S
C922 H928 0.959 . S
C922 H929 0.961 . S
C922 H930 0.960 . S
C923 C921 1.372 1_655 S
C923 C924 1.394 . S
C923 H931 0.930 . S
C924 C923 1.394 . S
C924 C925 1.383 1_655 S
C924 H932 0.929 . S
C925 C924 1.383 1_455 S
C925 C926 1.377 . S
C926 H910 0.930 . S
C926 C925 1.377 . S
C926 C927 1.379 . S
C927 H911 0.931 . S
C927 C921 1.392 . S
C927 C926 1.379 . S
H928 C922 0.959 . S
H929 C922 0.961 . S
H930 C922 0.960 . S
H931 C923 0.930 . S
H932 C924 0.929 . S
C294 C20 1.072 . S
C313 C274 1.060 . S
C330 C41 1.123 . S
C349 C202 1.123 . S
C366 C64 1.144 . S
C385 C238 1.119 . S
C402 C19 1.109 . S
C421 C250 1.154 . S
C457 C178 1.117 . S
C438 C44 1.116 . S
C493 C214 1.093 . S
C474 C67 1.105 . S
C510 C43 1.055 . S
C529 C130 1.060 . S
C546 C66 1.058 . S
C565 C142 1.094 . S
C582 C21 1.115 . S
C601 C70 1.108 . S
C637 C106 1.137 . S
C618 C42 1.097 . S
C673 C166 1.118 . S
C654 C65 1.120 . S
C690 C18 1.124 . S
C709 C94 1.124 . S
C745 C172 1.444 . S
C726 C17 1.451 . S
C762 C39 1.447 . S
C781 C100 1.447 . S
C798 C62 1.467 . S
C817 C136 1.467 . S
C853 C244 1.430 1_565 S
C834 C40 1.431 . S
C889 C280 1.446 . S
C870 C63 1.452 . S
C906 C16 1.447 . S
C925 C208 1.438 . S
