# Generated by pormake.
# Topology zzz, (3,6)-cn, num edge types: 1
# Building blocks:
#     Node 0, Type 0, BuildingBlock: BETDAH_clean_linker_0, # of connection points: 3
#     Node 1, Type 0, BuildingBlock: BETDAH_clean_linker_0, # of connection points: 3
#     Node 2, Type 0, BuildingBlock: BETDAH_clean_linker_0, # of connection points: 3
#     Node 3, Type 0, BuildingBlock: BETDAH_clean_linker_0, # of connection points: 3
#     Node 4, Type 0, BuildingBlock: BETDAH_clean_linker_0, # of connection points: 3
#     Node 5, Type 0, BuildingBlock: BETDAH_clean_linker_0, # of connection points: 3
#     Node 6, Type 0, BuildingBlock: BETDAH_clean_linker_0, # of connection points: 3
#     Node 7, Type 0, BuildingBlock: BETDAH_clean_linker_0, # of connection points: 3
#     Node 8, Type 1, BuildingBlock: PAMTUU_clean_sbu_0, # of connection points: 6
#     Node 9, Type 1, BuildingBlock: PAMTUU_clean_sbu_0, # of connection points: 6
#     Node 10, Type 1, BuildingBlock: PAMTUU_clean_sbu_0, # of connection points: 6
#     Node 11, Type 1, BuildingBlock: PAMTUU_clean_sbu_0, # of connection points: 6
#     Edge 12, Type (0, 1), BuildingBlock: EZIPEK_clean_linker_0, # of connection points: 2
#     Edge 13, Type (0, 1), BuildingBlock: EZIPEK_clean_linker_0, # of connection points: 2
#     Edge 14, Type (0, 1), BuildingBlock: EZIPEK_clean_linker_0, # of connection points: 2
#     Edge 15, Type (0, 1), BuildingBlock: EZIPEK_clean_linker_0, # of connection points: 2
#     Edge 16, Type (0, 1), BuildingBlock: EZIPEK_clean_linker_0, # of connection points: 2
#     Edge 17, Type (0, 1), BuildingBlock: EZIPEK_clean_linker_0, # of connection points: 2
#     Edge 18, Type (0, 1), BuildingBlock: EZIPEK_clean_linker_0, # of connection points: 2
#     Edge 19, Type (0, 1), BuildingBlock: EZIPEK_clean_linker_0, # of connection points: 2
#     Edge 20, Type (0, 1), BuildingBlock: EZIPEK_clean_linker_0, # of connection points: 2
#     Edge 21, Type (0, 1), BuildingBlock: EZIPEK_clean_linker_0, # of connection points: 2
#     Edge 22, Type (0, 1), BuildingBlock: EZIPEK_clean_linker_0, # of connection points: 2
#     Edge 23, Type (0, 1), BuildingBlock: EZIPEK_clean_linker_0, # of connection points: 2
#     Edge 24, Type (0, 1), BuildingBlock: EZIPEK_clean_linker_0, # of connection points: 2
#     Edge 25, Type (0, 1), BuildingBlock: EZIPEK_clean_linker_0, # of connection points: 2
#     Edge 26, Type (0, 1), BuildingBlock: EZIPEK_clean_linker_0, # of connection points: 2
#     Edge 27, Type (0, 1), BuildingBlock: EZIPEK_clean_linker_0, # of connection points: 2
#     Edge 28, Type (0, 1), BuildingBlock: EZIPEK_clean_linker_0, # of connection points: 2
#     Edge 29, Type (0, 1), BuildingBlock: EZIPEK_clean_linker_0, # of connection points: 2
#     Edge 30, Type (0, 1), BuildingBlock: EZIPEK_clean_linker_0, # of connection points: 2
#     Edge 31, Type (0, 1), BuildingBlock: EZIPEK_clean_linker_0, # of connection points: 2
#     Edge 32, Type (0, 1), BuildingBlock: EZIPEK_clean_linker_0, # of connection points: 2
#     Edge 33, Type (0, 1), BuildingBlock: EZIPEK_clean_linker_0, # of connection points: 2
#     Edge 34, Type (0, 1), BuildingBlock: EZIPEK_clean_linker_0, # of connection points: 2
#     Edge 35, Type (0, 1), BuildingBlock: EZIPEK_clean_linker_0, # of connection points: 2
# Relax obj value: 0.281
# Max RMSD: 0.253
# Mean RMSD: 0.116
data_MOF--net-zzz--node1-PAMTUU_clean_sbu_0--node2-BETDAH_clean_linker_0--edge1-EZIPEK_clean_linker_0
_symmetry_space_group_name_H-M    P1
_symmetry_Int_Tables_number       1
_symmetry_cell_setting            triclinic
loop_
_symmetry_equiv_pos_as_xyz
'x, y, z'
_cell_length_a     36.380565
_cell_length_b     40.34667
_cell_length_c     12.102544
_cell_angle_alpha  103.52102
_cell_angle_beta   90.087656
_cell_angle_gamma 89.74733
loop_
_atom_site_label
_atom_site_type_symbol
_atom_site_fract_x
_atom_site_fract_y
_atom_site_fract_z
_atom_type_partial_charge
H0 H 0.85602 0.46145 0.45474 0.0
H1 H 0.75136 0.47722 0.31111 0.0
H2 H 0.78872 0.54675 0.61838 0.0
C3 C 0.83098 0.47636 0.45833 0.0
C4 C 0.82581 0.50477 0.54893 0.0
C5 C 0.80438 0.46654 0.37294 0.0
C6 C 0.77181 0.48536 0.3769 0.0
C7 C 0.76633 0.51514 0.46242 0.0
C8 C 0.79319 0.52442 0.55007 0.0
N9 N 0.73447 0.5361 0.46119 0.0
C10 C 0.70747 0.53084 0.37522 0.0
H11 H 1.03601 0.85136 0.45126 0.0
H12 H 1.01823 0.7477 0.27356 0.0
H13 H 0.96808 0.7872 0.60232 0.0
C14 C 1.02313 0.82685 0.44692 0.0
C15 C 1.00149 0.82237 0.53719 0.0
C16 C 1.0292 0.80009 0.35241 0.0
C17 C 1.01317 0.7683 0.34726 0.0
C18 C 0.99057 0.76358 0.43722 0.0
C19 C 0.98477 0.79081 0.53202 0.0
N20 N 0.97391 0.73173 0.43545 0.0
C21 C 0.98299 0.70208 0.35579 0.0
H22 H 0.73354 0.9554 0.46124 0.0
H23 H 0.84176 0.97105 0.33856 0.0
H24 H 0.79645 0.04204 0.62889 0.0
C25 C 0.75908 0.96939 0.46844 0.0
C26 C 0.76146 0.99891 0.55587 0.0
C27 C 0.78705 0.95965 0.38607 0.0
C28 C 0.81977 0.97862 0.39912 0.0
C29 C 0.82342 0.00873 0.48383 0.0
C30 C 0.79416 0.0187 0.5635 0.0
N31 N 0.85531 0.0299 0.48611 0.0
C32 C 0.88251 0.02574 0.40027 0.0
H33 H 0.5598 0.69665 0.25171 0.0
H34 H 0.53952 0.7709 0.05403 0.0
H35 H 0.61662 0.79188 0.33428 0.0
C36 C 0.56429 0.72187 0.23674 0.0
C37 C 0.58953 0.74319 0.3039 0.0
C38 C 0.5465 0.73108 0.14642 0.0
C39 C 0.55272 0.76383 0.12547 0.0
C40 C 0.57796 0.78634 0.19459 0.0
C41 C 0.59653 0.7754 0.28279 0.0
N42 N 0.58775 0.81899 0.17607 0.0
C43 C 0.57094 0.83853 0.10801 0.0
H44 H 0.21552 0.4495 0.20349 0.0
H45 H 0.31895 0.46765 0.38143 0.0
H46 H 0.27213 0.54333 0.22365 0.0
C47 C 0.23952 0.46502 0.23083 0.0
C48 C 0.24053 0.49688 0.20387 0.0
C49 C 0.26677 0.45442 0.29879 0.0
C50 C 0.29739 0.47562 0.33185 0.0
C51 C 0.29937 0.50797 0.3078 0.0
C52 C 0.27097 0.51837 0.24221 0.0
N53 N 0.32855 0.53093 0.35322 0.0
C54 C 0.3553 0.52568 0.43189 0.0
H55 H 1.0267 0.18462 0.27733 0.0
H56 H 1.01454 0.29122 0.42821 0.0
H57 H 0.09507 0.25643 0.16342 0.0
C58 C 1.03472 0.21082 0.28227 0.0
C59 C 0.06195 0.21754 0.20951 0.0
C60 C 1.01788 0.23712 0.36189 0.0
C61 C 1.02813 0.2709 0.3675 0.0
C62 C 0.05669 0.27799 0.29735 0.0
C63 C 0.07327 0.25117 0.21771 0.0
N64 N 0.06992 0.3116 0.30768 0.0
C65 C 0.06112 0.33792 0.40015 0.0
H66 H 0.36771 0.96547 0.23947 0.0
H67 H 0.25912 0.97701 0.38037 0.0
H68 H 0.29698 0.04499 0.1766 0.0
C69 C 0.34156 0.97886 0.24971 0.0
C70 C 0.33621 0.00603 0.19726 0.0
C71 C 0.31397 0.96867 0.31555 0.0
C72 C 0.28002 0.98545 0.32964 0.0
C73 C 0.27361 0.01366 0.28309 0.0
C74 C 0.30177 0.02365 0.21491 0.0
N75 N 0.23948 0.03217 0.30473 0.0
C76 C 0.21185 0.02725 0.38158 0.0
H77 H 0.53644 0.35508 0.56741 0.0
H78 H 0.54041 0.27786 0.76016 0.0
H79 H 0.48169 0.2602 0.44181 0.0
C80 C 0.53128 0.32904 0.57353 0.0
C81 C 0.50809 0.30911 0.49399 0.0
C82 C 0.54112 0.31923 0.67291 0.0
C83 C 0.53351 0.28552 0.68267 0.0
C84 C 0.51381 0.26306 0.59488 0.0
C85 C 0.49996 0.27578 0.50323 0.0
N86 N 0.50328 0.22921 0.59984 0.0
C87 C 0.51678 0.20816 0.66841 0.0
Tb88 Tb 1.01397 0.0312 0.80534 0.0
Tb89 Tb 0.07802 0.00585 0.95439 0.0
C90 C 0.99608 0.01946 0.04914 0.0
C91 C 0.96267 0.08341 0.64437 0.0
C92 C 0.95994 0.14492 0.57368 0.0
C93 C 0.92841 0.13294 0.61816 0.0
C94 C 0.92974 0.10216 0.65272 0.0
C95 C 0.99406 0.09545 0.59931 0.0
C96 C 0.99261 0.12585 0.56377 0.0
C97 C 0.96499 0.05315 0.69207 0.0
O98 O 1.03369 0.07623 0.92641 0.0
O99 O 0.09157 0.05846 0.96177 0.0
O100 O 0.1003 1.00018 0.78155 0.0
O101 O 0.06576 0.04042 0.72328 0.0
O102 O 0.10574 0.00658 0.10797 0.0
O103 O 0.12353 0.97367 0.95029 0.0
O104 O 0.04027 0.9636 0.9049 0.0
O105 O 1.01911 0.9763 0.742 0.0
O106 O 0.98456 0.01584 0.94367 0.0
O107 O 1.03159 0.02182 0.07327 0.0
C108 C 0.06724 0.08269 0.96539 0.0
O109 O 0.98939 0.03015 0.64732 0.0
O110 O 0.96554 0.05954 0.80251 0.0
C111 C 0.09533 0.02094 0.71339 0.0
C112 C 0.12319 0.94965 0.10757 0.0
C113 C 0.10617 0.88677 0.15619 0.0
C114 C 0.08833 0.91662 0.21437 0.0
C115 C 0.09675 0.94786 0.19045 0.0
C116 C 0.14277 0.92 0.05495 0.0
C117 C 0.1341 0.88865 0.07844 0.0
C118 C 0.12575 0.98014 0.06052 0.0
C119 C 1.02518 0.95429 0.80443 0.0
H120 H 0.90309 0.14755 0.62716 0.0
H121 H 0.90537 0.09341 0.68853 0.0
H122 H 1.01994 0.08178 0.59376 0.0
H123 H 1.01726 0.13489 0.53029 0.0
H124 H 0.0667 0.91547 0.27485 0.0
H125 H 0.0811 0.97015 0.23241 0.0
H126 H 0.16313 0.92073 0.99034 0.0
H127 H 0.14801 0.86574 0.03281 0.0
Tb128 Tb 0.52933 0.99781 0.74037 0.0
Tb129 Tb 0.5621 0.03589 0.98145 0.0
C130 C 0.5513 0.9569 0.91475 0.0
C131 C 0.47688 0.93997 0.51489 0.0
C132 C 0.40968 0.90561 0.46651 0.0
C133 C 0.42559 0.92247 0.38857 0.0
C134 C 0.45883 0.93949 0.41276 0.0
C135 C 0.46325 0.92045 0.58781 0.0
C136 C 0.43001 0.90299 0.56296 0.0
C137 C 0.50677 0.9643 0.55025 0.0
O138 O 0.47903 0.00859 0.84532 0.0
O139 O 0.50339 0.03183 0.02244 0.0
O140 O 0.54069 0.07917 0.9194 0.0
O141 O 0.53338 0.05148 0.73125 0.0
O142 O 0.56801 0.03329 0.15244 0.0
O143 O 0.59895 0.06947 0.08613 0.0
O144 O 0.60618 0.03982 0.8622 0.0
O145 O 0.58994 0.99481 0.71987 0.0
O146 O 0.52483 0.96113 0.84653 0.0
O147 O 0.5755 0.98121 0.94619 0.0
C148 C 0.47496 0.0203 0.95646 0.0
O149 O 0.49631 0.99541 0.59648 0.0
O150 O 0.5336 0.95436 0.60632 0.0
C151 C 0.53526 0.07989 0.81179 0.0
C152 C 0.63147 0.03219 0.17339 0.0
C153 C 0.68928 0.98634 0.18056 0.0
C154 C 0.67487 0.0068 0.28206 0.0
C155 C 0.64576 0.02953 0.27859 0.0
C156 C 0.64652 0.01179 0.07326 0.0
C157 C 0.67454 0.98872 0.0766 0.0
C158 C 0.59775 0.05156 0.16284 0.0
C159 C 0.61472 0.01717 0.76942 0.0
H160 H 0.41084 0.92525 0.31346 0.0
H161 H 0.46899 0.9544 0.35565 0.0
H162 H 0.47713 0.92029 0.66694 0.0
H163 H 0.41932 0.88929 0.62265 0.0
H164 H 0.68587 1.0048 0.36351 0.0
H165 H 0.63409 0.04433 0.3571 0.0
H166 H 0.63591 0.01268 0.99144 0.0
H167 H 0.68496 0.97286 0.9979 0.0
Tb168 Tb 0.49968 0.52289 0.01262 0.0
Tb169 Tb 0.55732 0.53373 0.81741 0.0
C170 C 0.47295 0.52188 0.76092 0.0
C171 C 0.46025 0.47753 0.2114 0.0
C172 C 0.46576 0.41633 0.28721 0.0
C173 C 0.43194 0.42653 0.24913 0.0
C174 C 0.42919 0.45696 0.21217 0.0
C175 C 0.49398 0.46736 0.25042 0.0
C176 C 0.49663 0.43719 0.28835 0.0
C177 C 0.45816 0.50726 0.15871 0.0
O178 O 0.51561 0.4722 0.9221 0.0
O179 O 0.56512 0.47923 0.81074 0.0
O180 O 0.58538 0.54694 0.98301 0.0
O181 O 0.5545 0.51144 0.06942 0.0
O182 O 0.57274 0.53425 0.65023 0.0
O183 O 0.60732 0.55697 0.7909 0.0
O184 O 0.52198 0.57804 0.86044 0.0
O185 O 0.50804 0.57833 0.04313 0.0
O186 O 0.46548 0.53118 0.87068 0.0
O187 O 0.50689 0.51457 0.72516 0.0
C188 C 0.54279 0.45964 0.8536 0.0
O189 O 0.48426 0.52996 0.184 0.0
O190 O 0.45094 0.49985 0.0502 0.0
C191 C 0.58407 0.52913 0.06088 0.0
C192 C 0.60397 0.58581 0.64063 0.0
C193 C 0.61151 0.64587 0.55845 0.0
C194 C 0.58256 0.62306 0.52086 0.0
C195 C 0.57878 0.59341 0.5615 0.0
C196 C 0.63301 0.60872 0.67783 0.0
C197 C 0.63669 0.63848 0.63745 0.0
C198 C 0.60077 0.55407 0.68349 0.0
C199 C 0.51143 0.59467 0.96113 0.0
H200 H 0.40777 0.41086 0.24763 0.0
H201 H 0.40297 0.46402 0.1816 0.0
H202 H 0.51858 0.4823 0.24944 0.0
H203 H 0.52296 0.42988 0.31744 0.0
H204 H 0.56295 0.62813 0.45933 0.0
H205 H 0.55614 0.57644 0.53058 0.0
H206 H 0.65304 0.60354 0.73802 0.0
H207 H 0.65936 0.65558 0.66701 0.0
Tb208 Tb 0.04491 0.52576 0.81556 0.0
Tb209 Tb 1.01295 0.49517 0.02003 0.0
C210 C 1.01807 0.57494 0.04559 0.0
C211 C 0.10942 0.5128 0.59859 0.0
C212 C 0.16524 0.46522 0.51544 0.0
C213 C 0.16484 0.49722 0.48762 0.0
C214 C 0.13699 0.52102 0.52919 0.0
C215 C 0.10998 0.48047 0.62409 0.0
C216 C 0.13753 0.4569 0.58316 0.0
C217 C 0.08193 0.53793 0.65584 0.0
O218 O 0.08934 0.5012 0.88979 0.0
O219 O 0.06871 0.51335 0.06983 0.0
O220 O 1.02785 0.45067 0.88698 0.0
O221 O 1.0275 0.47501 0.73538 0.0
O222 O 0.97566 0.49398 0.1508 0.0
O223 O 1.0215 0.45903 0.11751 0.0
O224 O 0.96539 0.4962 0.90768 0.0
O225 O 0.98534 0.53276 0.80002 0.0
O226 O 0.03828 0.57105 0.95326 0.0
O227 O 1.00285 0.54933 0.07786 0.0
C228 C 0.09643 0.50748 0.99875 0.0
O229 O 0.04795 0.52764 0.64331 0.0
O230 O 0.08929 0.55153 0.76213 0.0
C231 C 1.02857 0.44814 0.77726 0.0
C232 C 0.96516 0.43866 0.16869 0.0
C233 C 0.90131 0.39909 0.15539 0.0
C234 C 0.92288 0.39752 0.05798 0.0
C235 C 0.95436 0.41762 0.0643 0.0
C236 C 0.94689 0.43657 0.26803 0.0
C237 C 0.91533 0.41682 0.26175 0.0
C238 C 0.99068 0.46678 0.17211 0.0
C239 C 0.95883 0.51456 0.83217 0.0
H240 H 0.18657 0.50392 0.43597 0.0
H241 H 0.13752 0.5459 0.50986 0.0
H242 H 0.08987 0.47359 0.67913 0.0
H243 H 0.13771 0.43255 0.60648 0.0
H244 H 0.91403 0.38305 0.97562 0.0
H245 H 0.96857 0.41868 0.98659 0.0
H246 H 0.95506 0.45253 0.34928 0.0
H247 H 0.89995 0.41857 0.33938 0.0
C248 C 0.17151 0.05524 0.5464 0.0
C249 C 0.18175 0.02548 0.46334 0.0
C250 C 0.13254 0.99366 0.53557 0.0
C251 C 0.12446 0.02273 0.62493 0.0
N252 N 0.14047 0.07981 0.72452 0.0
N253 N 0.17332 0.96569 0.38129 0.0
C254 C 0.14495 0.0532 0.63214 0.0
C255 C 0.16258 0.99448 0.45879 0.0
N256 N 0.18665 0.08587 0.54207 0.0
N257 N 0.11051 0.9656 0.52162 0.0
H258 H 0.19372 0.96582 0.32089 0.0
H259 H 0.16357 0.94139 0.37986 0.0
H260 H 0.08825 0.9643 0.57466 0.0
H261 H 0.11239 0.94453 0.4534 0.0
H262 H 0.17731 0.10917 0.5906 0.0
H263 H 0.20674 0.08834 0.48312 0.0
H264 H 0.15735 0.10117 0.74246 0.0
H265 H 0.12183 0.07933 0.78921 0.0
C266 C 0.55265 0.1552 0.66888 0.0
C267 C 0.52465 0.17853 0.71757 0.0
C268 C 0.50517 0.13882 0.83445 0.0
C269 C 0.53142 0.114 0.77881 0.0
N270 N 0.57622 0.09748 0.62718 0.0
N271 N 0.47299 0.19265 0.8431 0.0
C272 C 0.55404 0.12192 0.69168 0.0
C273 C 0.50084 0.17048 0.80039 0.0
N274 N 0.57866 0.1652 0.60204 0.0
N275 N 0.48338 0.13167 0.91764 0.0
H276 H 0.47022 0.21646 0.82399 0.0
H277 H 0.45175 0.18723 0.89346 0.0
H278 H 0.48163 0.10744 0.93319 0.0
H279 H 0.46743 0.1497 0.97279 0.0
H280 H 0.6024 0.15124 0.57427 0.0
H281 H 0.57833 0.18921 0.58352 0.0
H282 H 0.58918 0.10024 0.55322 0.0
H283 H 0.58001 0.07332 0.64157 0.0
C284 C 0.41995 0.53809 0.50094 0.0
C285 C 0.3851 0.52373 0.5136 0.0
C286 C 0.40883 0.50497 0.68058 0.0
C287 C 0.44274 0.52204 0.67453 0.0
N288 N 0.47715 0.56088 0.5896 0.0
N289 N 0.34415 0.49946 0.62901 0.0
C290 C 0.44745 0.54007 0.58704 0.0
C291 C 0.37893 0.50885 0.60727 0.0
N292 N 0.42688 0.55003 0.40627 0.0
N293 N 0.40551 0.48381 0.75312 0.0
H294 H 0.3217 0.50217 0.57809 0.0
H295 H 0.33703 0.492 0.70291 0.0
H296 H 0.42667 0.47977 0.80665 0.0
H297 H 0.3831 0.46777 0.75238 0.0
H298 H 0.45278 0.55772 0.38604 0.0
H299 H 0.40732 0.54983 0.34298 0.0
H300 H 0.48004 0.5777 0.53681 0.0
H301 H 0.49736 0.56411 0.65193 0.0
C302 C 0.07494 0.37062 0.59521 0.0
C303 C 0.05079 0.3633 0.50098 0.0
C304 C 1.00804 0.40731 0.59847 0.0
C305 C 1.03206 0.41467 0.69426 0.0
N306 N 0.08293 0.39628 0.79512 0.0
N307 N 0.99114 0.36861 0.42027 0.0
C308 C 0.06369 0.39399 0.69663 0.0
C309 C 1.01622 0.37965 0.50516 0.0
N310 N 0.10921 0.35615 0.58655 0.0
N311 N 0.97792 0.42742 0.59531 0.0
H312 H 0.99668 0.34898 0.34913 0.0
H313 H 0.96396 0.37697 0.42404 0.0
H314 H 0.96974 0.44663 0.66419 0.0
H315 H 0.96198 0.42626 0.52303 0.0
H316 H 0.12983 0.36383 0.64678 0.0
H317 H 0.1181 0.33828 0.51454 0.0
H318 H 0.10404 0.37953 0.80362 0.0
H319 H 0.07567 0.41242 0.87216 0.0
C320 C 0.90981 0.04608 0.23639 0.0
C321 C 0.91156 0.02407 0.31246 0.0
C322 C 0.96824 0.99805 0.21472 0.0
C323 C 0.9678 0.02159 0.14319 0.0
N324 N 0.94204 0.07286 0.10452 0.0
N325 N 0.94582 0.98282 0.38605 0.0
C326 C 0.93953 0.04687 0.15909 0.0
C327 C 0.94186 1.0012 0.30516 0.0
N328 N 0.87934 0.06604 0.23658 0.0
N329 N 0.99279 0.97158 0.19308 0.0
H330 H 0.92672 0.98382 0.45103 0.0
H331 H 0.96927 0.96867 0.39407 0.0
H332 H 1.01205 0.96809 0.12765 0.0
H333 H 0.99219 0.95148 0.23357 0.0
H334 H 0.87426 0.07974 0.1751 0.0
H335 H 0.8576 0.06684 0.2933 0.0
H336 H 0.92475 0.09407 0.1213 0.0
H337 H 0.96375 0.07504 0.05055 0.0
C338 C 0.55056 0.89895 0.12585 0.0
C339 C 0.56086 0.86688 0.05522 0.0
C340 C 0.56407 0.89338 0.89069 0.0
C341 C 0.55317 0.92533 0.96109 0.0
N342 N 0.52856 0.95677 0.13962 0.0
N343 N 0.5713 0.83196 0.86791 0.0
C344 C 0.54429 0.92755 0.07701 0.0
C345 C 0.56563 0.86363 0.93664 0.0
N346 N 0.54769 0.90232 0.24067 0.0
N347 N 0.5744 0.8918 0.78103 0.0
H348 H 0.57277 0.81003 0.89951 0.0
H349 H 0.57165 0.82694 0.77958 0.0
H350 H 0.57327 0.91284 0.7448 0.0
H351 H 0.58631 0.87041 0.72804 0.0
H352 H 0.54502 0.92567 0.29899 0.0
H353 H 0.55002 0.88176 0.27888 0.0
H354 H 0.51816 0.95927 0.22115 0.0
H355 H 0.52295 0.97784 0.10632 0.0
C356 C 0.68353 0.52894 0.17758 0.0
C357 C 0.67699 0.52809 0.29253 0.0
C358 C 0.61052 0.53069 0.25837 0.0
C359 C 0.61632 0.52911 0.14068 0.0
N360 N 0.65972 0.51728 0.98486 0.0
N361 N 0.63342 0.52086 0.4344 0.0
C362 C 0.6533 0.52578 0.09925 0.0
C363 C 0.64035 0.52632 0.32949 0.0
N364 N 0.71861 0.53293 0.14294 0.0
N365 N 0.57703 0.53804 0.3083 0.0
H366 H 0.65415 0.51782 0.49097 0.0
H367 H 0.60676 0.51691 0.45993 0.0
H368 H 0.55394 0.545 0.26779 0.0
H369 H 0.55394 0.545 0.26779 0.0
H370 H 0.72483 0.53762 0.064 0.0
H371 H 0.74129 0.53396 0.19654 0.0
H372 H 0.68574 0.51134 0.94983 0.0
H373 H 0.63878 0.51225 0.92456 0.0
C374 C 0.9831 0.66571 0.15984 0.0
C375 C 0.99433 0.67133 0.27476 0.0
C376 C 1.02369 0.61519 0.23764 0.0
C377 C 1.01304 0.60944 0.12126 0.0
N378 N 0.98871 0.63175 0.96692 0.0
N379 N 1.03172 0.65566 0.41885 0.0
C380 C 0.99483 0.63558 0.08068 0.0
C381 C 1.0166 0.64735 0.31234 0.0
N382 N 0.96025 0.68873 0.12724 0.0
N383 N 0.04008 0.58974 0.27765 0.0
H384 H 1.02661 0.67882 0.4766 0.0
H385 H 0.05168 0.641 0.44704 0.0
H386 H 0.0486 0.56671 0.22554 0.0
H387 H 0.04367 0.59066 0.36366 0.0
H388 H 0.94732 0.68437 0.04842 0.0
H389 H 0.95218 0.71158 0.18214 0.0
H390 H 0.97931 0.65128 0.93108 0.0
H391 H 0.99551 0.60979 0.90611 0.0
C392 C 0.96004 0.20775 0.38698 0.0
C393 C 0.99033 0.22734 0.43884 0.0
C394 C 0.98215 0.20443 0.60675 0.0
C395 C 0.96049 0.17806 0.54082 0.0
N396 N 0.92553 0.15555 0.37068 0.0
N397 N 1.02877 0.24673 0.60423 0.0
C398 C 0.94743 0.18052 0.43277 0.0
C399 C 1.00016 0.22735 0.55232 0.0
N400 N 0.94515 0.21423 0.29061 0.0
N401 N 0.98627 0.20661 0.72025 0.0
H402 H 0.04229 0.26436 0.56844 0.0
H403 H 0.04017 0.24423 0.68089 0.0
H404 H 0.97338 0.18958 0.76061 0.0
H405 H 0.99902 0.2271 0.7751 0.0
H406 H 0.92156 0.20233 0.25181 0.0
H407 H 0.95481 0.23404 0.25636 0.0
H408 H 0.9187 0.15387 0.28597 0.0
H409 H 0.91548 0.13553 0.40276 0.0
C410 C 0.33048 0.90776 0.30414 0.0
C411 C 0.32208 0.94066 0.37224 0.0
C412 C 0.34845 0.92362 0.53506 0.0
C413 C 0.36939 0.89912 0.45881 0.0
N414 N 0.36969 0.85733 0.2837 0.0
N415 N 0.31945 0.97868 0.56011 0.0
C416 C 0.35521 0.88665 0.34851 0.0
C417 C 0.32876 0.94793 0.49115 0.0
N418 N 0.31651 0.89808 0.19681 0.0
N419 N 0.34917 0.92455 0.64812 0.0
H420 H 0.30536 0.9976 0.53166 0.0
H421 H 0.3277 0.98604 0.64481 0.0
H422 H 0.36288 0.90588 0.67926 0.0
H423 H 0.33267 0.94106 0.70693 0.0
H424 H 0.32095 0.87424 0.14293 0.0
H425 H 0.29838 0.91368 0.16478 0.0
H426 H 0.36335 0.84751 0.19852 0.0
H427 H 0.3887 0.84308 0.31839 0.0
C428 C 0.58102 0.36749 0.77277 0.0
C429 C 0.54799 0.34878 0.77078 0.0
C430 C 0.51325 0.40167 0.81726 0.0
C431 C 0.54602 0.42134 0.82365 0.0
N432 N 0.61236 0.42143 0.84179 0.0
N433 N 0.48637 0.34908 0.84106 0.0
C434 C 0.58049 0.40386 0.81238 0.0
C435 C 0.51582 0.36653 0.81482 0.0
N436 N 0.61237 0.3505 0.7313 0.0
N437 N 0.47981 0.41537 0.80121 0.0
H438 H 0.48777 0.32298 0.83691 0.0
H439 H 0.46255 0.3613 0.87809 0.0
H440 H 0.47697 0.43929 0.78328 0.0
H441 H 0.45572 0.40106 0.78864 0.0
H442 H 0.63653 0.36278 0.71796 0.0
H443 H 0.61313 0.3239 0.70608 0.0
H444 H 0.63774 0.40942 0.84261 0.0
H445 H 0.61293 0.44759 0.87678 0.0
C446 C 0.26234 0.43504 0.47412 0.0
C447 C 0.2592 0.42557 0.35514 0.0
C448 C 0.19416 0.41664 0.37367 0.0
C449 C 0.19611 0.44147 0.47837 0.0
N450 N 0.23204 0.46644 0.64514 0.0
N451 N 0.22979 0.38186 0.21686 0.0
C452 C 0.23027 0.44757 0.53609 0.0
C453 C 0.22782 0.40598 0.31606 0.0
N454 N 0.29533 0.43265 0.52449 0.0
N455 N 0.16094 0.40596 0.32661 0.0
H456 H 0.25474 0.37682 0.17331 0.0
H457 H 0.20787 0.36623 0.183 0.0
H458 H 0.13629 0.41359 0.36916 0.0
H459 H 0.15799 0.39004 0.24598 0.0
H460 H 0.31837 0.42305 0.47576 0.0
H461 H 0.29857 0.43755 0.61241 0.0
H462 H 0.25686 0.47395 0.68639 0.0
H463 H 0.2084 0.47503 0.69222 0.0
C464 C 0.03761 0.81942 0.17334 0.0
C465 C 0.05348 0.80693 0.26248 0.0
C466 C 0.11036 0.83774 0.25027 0.0
C467 C 0.09278 0.8536 0.17159 0.0
N468 N 0.04588 0.85211 0.03013 0.0
N469 N 0.10754 0.79373 0.35733 0.0
C470 C 0.05853 0.84152 0.12263 0.0
C471 C 0.09114 0.8122 0.28961 0.0
N472 N 1.00175 0.81222 0.14407 0.0
N473 N 0.14408 0.84882 0.293 0.0
H474 H 0.09319 0.77515 0.38689 0.0
H475 H 0.13553 0.79457 0.37556 0.0
H476 H 0.15903 0.86707 0.26383 0.0
H477 H 0.15664 0.84101 0.36001 0.0
H478 H 0.98692 0.82376 0.08959 0.0
H479 H 0.98646 0.79507 0.17761 0.0
H480 H 1.02236 0.84252 0.98497 0.0
H481 H 0.06089 0.86858 0.99271 0.0
C482 C 0.78497 0.95016 0.1812 0.0
C483 C 0.77862 0.93557 0.2739 0.0
C484 C 0.71377 0.93326 0.22965 0.0
C485 C 0.71963 0.96215 0.18313 0.0
N486 N 0.76231 0.99379 0.09197 0.0
N487 N 0.74321 0.89037 0.31462 0.0
C488 C 0.75567 0.96875 0.14792 0.0
C489 C 0.74515 0.91792 0.26825 0.0
N490 N 0.81872 0.94776 0.13192 0.0
N491 N 0.67895 0.92229 0.24223 0.0
H492 H 0.7667 0.88158 0.34887 0.0
H493 H 0.71956 0.87591 0.31422 0.0
H494 H 0.65606 0.93301 0.21144 0.0
H495 H 0.67289 0.9028 0.28231 0.0
H496 H 0.82429 0.95706 0.06025 0.0
H497 H 0.83975 0.9338 0.1591 0.0
H498 H 0.78885 1.00084 0.07484 0.0
H499 H 0.74158 0.00864 0.06841 0.0
C500 C 0.49594 0.68807 0.1162 0.0
C501 C 0.526 0.7028 0.07006 0.0
C502 C 0.53009 0.6509 0.91881 0.0
C503 C 0.50824 0.63303 0.983 0.0
N504 N 0.4605 0.639 0.12618 0.0
N505 N 0.57568 0.69455 0.93394 0.0
C506 C 0.48813 0.65277 0.07617 0.0
C507 C 0.54376 0.68351 0.9718 0.0
N508 N 0.4762 0.70737 0.20392 0.0
N509 N 0.53633 0.63808 0.80584 0.0
H510 H 0.58656 0.71872 0.96637 0.0
H511 H 0.59275 0.67804 0.87685 0.0
H512 H 0.52098 0.61821 0.7573 0.0
H513 H 0.55152 0.65115 0.75706 0.0
H514 H 0.45468 0.6974 0.24291 0.0
H515 H 0.48101 0.73342 0.23426 0.0
H516 H 0.45126 0.61403 0.09701 0.0
H517 H 0.45126 0.61403 0.09701 0.0
C518 C 0.81918 0.40451 0.30652 0.0
C519 C 0.81213 0.43638 0.2791 0.0
C520 C 0.84099 0.41426 0.0958 0.0
C521 C 0.8611 0.39168 0.14566 0.0
N522 N 0.85814 0.35355 0.26854 0.0
N523 N 0.81279 0.46991 0.13627 0.0
C524 C 0.84478 0.38176 0.2384 0.0
C525 C 0.82076 0.44046 0.16856 0.0
N526 N 0.80323 0.39752 0.40038 0.0
N527 N 0.84289 0.41156 0.9818 0.0
H528 H 0.79847 0.49017 0.18726 0.0
H529 H 0.82238 0.47479 0.06051 0.0
H530 H 0.85666 0.39127 0.92847 0.0
H531 H 0.82724 0.42676 0.9407 0.0
H532 H 0.80669 0.37463 0.42481 0.0
H533 H 0.78452 0.41436 0.44993 0.0
H534 H 0.85013 0.34571 0.34086 0.0
H535 H 0.87796 0.3382 0.21841 0.0
C536 C 0.09744 0.16394 0.17468 0.0
C537 C 0.07811 0.18788 0.12815 0.0
C538 C 0.06691 0.14385 0.95538 0.0
C539 C 0.07724 0.1187 0.01459 0.0
N540 N 0.10072 0.10522 0.187 0.0
N541 N 0.04562 0.20173 0.97158 0.0
C542 C 0.09314 0.12871 0.12487 0.0
C543 C 0.06401 0.17837 0.01634 0.0
N544 N 0.11805 0.17511 0.27038 0.0
N545 N 0.05979 0.13468 0.84141 0.0
H546 H 0.04415 0.2275 0.01239 0.0
H547 H 1.03044 0.19518 0.89681 0.0
H548 H 0.06232 0.10963 0.79405 0.0
H549 H 0.05502 0.15223 0.79204 0.0
H550 H 0.13514 0.15919 0.3042 0.0
H551 H 0.1207 0.20105 0.30835 0.0
H552 H 0.10853 0.11189 0.27214 0.0
H553 H 0.09602 0.07923 0.15817 0.0
C554 C 0.37822 0.98887 0.0255 0.0
C555 C 0.36758 0.01397 0.12367 0.0
C556 C 0.42361 0.04645 0.09868 0.0
C557 C 0.43702 0.01884 0.0109 0.0
N558 N 0.42827 0.96005 0.90971 0.0
N559 N 0.38328 0.06515 0.26206 0.0
C560 C 0.41441 0.98918 0.97854 0.0
C561 C 0.39106 0.04247 0.16201 0.0
N562 N 0.35357 0.96428 0.97709 0.0
N563 N 0.4412 0.07711 0.11983 0.0
H564 H 0.35963 0.0636 0.3091 0.0
H565 H 0.40153 0.08397 0.30234 0.0
H566 H 0.46436 0.0815 0.07514 0.0
H567 H 0.43071 0.09911 0.17365 0.0
H568 H 0.35818 0.94695 0.89993 0.0
H569 H 0.32696 0.96348 0.00849 0.0
H570 H 0.41454 0.93681 0.89287 0.0
H571 H 0.45516 0.95771 0.88007 0.0
C572 C 0.50231 0.32957 0.313 0.0
C573 C 0.48749 0.32756 0.41936 0.0
C574 C 0.45386 0.3813 0.4317 0.0
C575 C 0.46939 0.38388 0.32641 0.0
N576 N 0.50019 0.35636 0.15273 0.0
N577 N 0.44132 0.34552 0.56301 0.0
C578 C 0.49089 0.35652 0.26222 0.0
C579 C 0.46021 0.35131 0.47193 0.0
N580 N 0.52866 0.30669 0.2637 0.0
N581 N 0.43531 0.40841 0.4973 0.0
H582 H 0.44584 0.32387 0.5945 0.0
H583 H 0.419 0.36023 0.59994 0.0
H584 H 0.43046 0.43106 0.47217 0.0
H585 H 0.42718 0.4096 0.58059 0.0
H586 H 0.54398 0.30896 0.19328 0.0
H587 H 0.53613 0.28598 0.29703 0.0
H588 H 0.51313 0.3359 0.09801 0.0
H589 H 0.49199 0.3756 0.11331 0.0
C590 C 0.18142 0.531 0.1923 0.0
C591 C 0.2078 0.50626 0.13908 0.0
C592 C 0.16217 0.48293 0.9897 0.0
C593 C 0.13583 0.5081 0.04169 0.0
N594 N 0.12681 0.56333 0.16816 0.0
N595 N 0.22654 0.46615 0.96868 0.0
C596 C 0.14739 0.53431 0.1359 0.0
C597 C 0.19915 0.48487 0.0313 0.0
N598 N 0.188 0.55063 0.29855 0.0
N599 N 0.15173 0.45583 0.90521 0.0
H600 H 0.25377 0.46739 0.99666 0.0
H601 H 0.22304 0.45246 0.885 0.0
H602 H 0.12504 0.45226 0.87438 0.0
H603 H 0.16877 0.43501 0.87304 0.0
H604 H 0.16806 0.56624 0.34641 0.0
H605 H 0.21248 0.54951 0.34229 0.0
H606 H 0.13523 0.58448 0.23002 0.0
H607 H 0.10371 0.56793 0.12282 0.0
C608 C 0.97299 0.87723 0.64113 0.0
C609 C 0.99942 0.85123 0.63813 0.0
C610 C 0.04084 0.89154 0.75857 0.0
C611 C 1.01486 0.91811 0.75953 0.0
N612 N 0.95191 0.93398 0.73372 0.0
N613 N 0.05174 0.83057 0.72296 0.0
C614 C 0.97942 0.9102 0.71123 0.0
C615 C 1.03077 0.85741 0.7087 0.0
N616 N 0.94278 0.87078 0.57249 0.0
N617 N 0.0761 0.89888 0.79504 0.0
H618 H 0.04481 0.80537 0.68526 0.0
H619 H 0.07342 0.83307 0.78062 0.0
H620 H 0.08587 0.92356 0.82411 0.0
H621 H 0.09689 0.88061 0.78576 0.0
H622 H 0.92483 0.88973 0.55972 0.0
H623 H 0.93672 0.8464 0.52428 0.0
H624 H 0.92478 0.92875 0.70819 0.0
H625 H 0.95544 0.95797 0.78798 0.0
C626 C 0.7049 0.03666 0.62604 0.0
C627 C 0.72752 0.00818 0.63123 0.0
C628 C 0.67639 0.98571 0.72824 0.0
C629 C 0.65432 0.01488 0.72673 0.0
N630 N 0.65412 0.07323 0.70823 0.0
N631 N 0.73764 0.96054 0.71554 0.0
C632 C 0.67067 0.04199 0.68671 0.0
C633 C 0.71401 0.98429 0.69138 0.0
N634 N 0.71483 0.0578 0.55815 0.0
N635 N 0.66156 0.95916 0.76508 0.0
H636 H 0.76531 0.95941 0.69213 0.0
H637 H 0.73095 0.94447 0.76841 0.0
H638 H 0.63539 0.95999 0.80053 0.0
H639 H 0.67453 0.93558 0.75521 0.0
H640 H 0.69728 0.07636 0.54024 0.0
H641 H 0.73918 0.05489 0.51167 0.0
H642 H 0.66634 0.09459 0.68956 0.0
H643 H 0.6303 0.07879 0.75656 0.0
C644 C 0.63382 0.70161 0.35176 0.0
C645 C 0.60877 0.72884 0.39107 0.0
C646 C 0.59644 0.70719 0.55998 0.0
C647 C 0.61584 0.67671 0.51069 0.0
N648 N 0.65546 0.6453 0.36324 0.0
N649 N 0.57123 0.76068 0.54443 0.0
C650 C 0.63601 0.67436 0.40863 0.0
C651 C 0.59237 0.73293 0.4992 0.0
N652 N 0.65449 0.70174 0.25778 0.0
N653 N 0.58054 0.7113 0.66406 0.0
H654 H 0.56716 0.78091 0.50543 0.0
H655 H 0.56716 0.78091 0.50543 0.0
H656 H 0.58384 0.6934 0.7124 0.0
H657 H 0.56547 0.73301 0.70255 0.0
H658 H 0.67502 0.68402 0.22653 0.0
H659 H 0.65283 0.72168 0.21633 0.0
H660 H 0.66773 0.64017 0.28344 0.0
H661 H 0.65829 0.6254 0.40435 0.0
C662 C 0.86207 0.48604 0.70256 0.0
C663 C 0.85483 0.51153 0.64189 0.0
C664 C 0.90816 0.54316 0.7391 0.0
C665 C 0.92058 0.51415 0.77787 0.0
N666 N 0.90749 0.45514 0.78395 0.0
N667 N 0.87411 0.56374 0.5958 0.0
C668 C 0.89682 0.48493 0.75773 0.0
C669 C 0.87865 0.54003 0.65875 0.0
N670 N 0.83544 0.46268 0.70771 0.0
N671 N 0.92303 0.5744 0.784 0.0
H672 H 0.85289 0.56256 0.53702 0.0
H673 H 0.89314 0.583 0.596 0.0
H674 H 0.94126 0.57846 0.85224 0.0
H675 H 0.91328 0.59677 0.76513 0.0
H676 H 0.83728 0.44554 0.75989 0.0
H677 H 0.80973 0.46302 0.66951 0.0
H678 H 0.89299 0.43246 0.75715 0.0
H679 H 0.9322 0.4512 0.82163 0.0
loop_
_geom_bond_atom_site_label_1
_geom_bond_atom_site_label_2
_geom_bond_distance
_geom_bond_site_symmetry_2
_ccdc_geom_bond_type
H0 C3 0.929 . S
H1 C6 0.929 . S
H2 C8 0.930 . S
C3 H0 0.929 . S
C3 C4 1.398 . S
C3 C5 1.396 . S
C4 C3 1.398 . S
C4 C8 1.407 . S
C5 C3 1.396 . S
C5 C6 1.394 . S
C6 H1 0.929 . S
C6 C5 1.394 . S
C6 C7 1.382 . S
C7 C6 1.382 . S
C7 C8 1.392 . S
C7 N9 1.420 . S
C8 H2 0.930 . S
C8 C4 1.407 . S
C8 C7 1.392 . S
N9 C7 1.420 . S
N9 C10 1.244 . S
C10 N9 1.244 . S
H11 C14 0.929 . S
H12 C17 0.929 . S
H13 C19 0.930 . S
C14 H11 0.929 . S
C14 C15 1.395 1_655 S
C14 C16 1.394 1_655 S
C15 C14 1.395 1_455 S
C15 C19 1.414 . S
C16 C14 1.394 1_455 S
C16 C17 1.397 . S
C17 H12 0.929 . S
C17 C16 1.397 . S
C17 C18 1.382 . S
C18 C17 1.382 . S
C18 C19 1.392 . S
C18 N20 1.420 . S
C19 H13 0.930 . S
C19 C15 1.414 . S
C19 C18 1.392 . S
N20 C18 1.420 . S
N20 C21 1.232 1_455 S
C21 N20 1.232 1_655 S
H22 C25 0.929 . S
H23 C28 0.929 . S
H24 C30 0.930 . S
C25 H22 0.929 . S
C25 C26 1.403 1_565 S
C25 C27 1.390 1_565 S
C26 C25 1.403 1_545 S
C26 C30 1.415 . S
C27 C25 1.390 1_545 S
C27 C28 1.398 . S
C28 H23 0.929 . S
C28 C27 1.398 . S
C28 C29 1.382 . S
C29 C28 1.382 . S
C29 C30 1.392 . S
C29 N31 1.420 . S
C30 H24 0.930 . S
C30 C26 1.415 . S
C30 C29 1.392 . S
N31 C29 1.420 . S
N31 C32 1.238 1_545 S
C32 N31 1.238 1_565 S
H33 C36 0.929 . S
H34 C39 0.929 . S
H35 C41 0.930 . S
C36 H33 0.929 . S
C36 C37 1.398 . S
C36 C38 1.396 1_554 S
C37 C36 1.398 . S
C37 C41 1.407 . S
C38 C36 1.396 1_556 S
C38 C39 1.394 . S
C39 H34 0.929 . S
C39 C38 1.394 . S
C39 C40 1.382 1_556 S
C40 C39 1.382 1_554 S
C40 C41 1.392 . S
C40 N42 1.420 . S
C41 H35 0.930 . S
C41 C37 1.407 . S
C41 C40 1.392 . S
N42 C40 1.420 . S
N42 C43 1.244 1_554 S
C43 N42 1.244 1_556 S
H44 C47 0.929 . S
H45 C50 0.929 . S
H46 C52 0.924 1_556 S
C47 H44 0.929 . S
C47 C48 1.398 . S
C47 C49 1.396 . S
C48 C47 1.398 . S
C48 C52 1.407 . S
C49 C47 1.396 . S
C49 C50 1.394 . S
C50 H45 0.929 . S
C50 C49 1.394 . S
C50 C51 1.382 . S
C51 C50 1.382 . S
C51 C52 1.392 . S
C51 N53 1.420 . S
C52 H46 0.924 1_554 S
C52 C48 1.407 . S
C52 C51 1.392 . S
N53 C51 1.420 . S
N53 C54 1.244 . S
C54 N53 1.244 . S
H55 C58 0.929 . S
H56 C61 0.929 . S
H57 C63 0.930 . S
C58 H55 0.929 . S
C58 C59 1.398 1_655 S
C58 C60 1.394 1_655 S
C59 C58 1.398 1_455 S
C59 C63 1.407 . S
C60 C58 1.394 1_455 S
C60 C61 1.399 . S
C61 H56 0.929 . S
C61 C60 1.399 . S
C61 C62 1.382 . S
C62 C61 1.382 . S
C62 C63 1.392 . S
C62 N64 1.420 . S
C63 H57 0.930 . S
C63 C59 1.407 . S
C63 C62 1.392 . S
N64 C62 1.420 . S
N64 C65 1.235 1_455 S
C65 N64 1.235 1_655 S
H66 C69 0.929 . S
H67 C72 0.929 . S
H68 C74 0.930 . S
C69 H66 0.929 . S
C69 C70 1.398 1_565 S
C69 C71 1.400 1_565 S
C70 C69 1.398 1_545 S
C70 C74 1.407 . S
C71 C69 1.400 1_545 S
C71 C72 1.398 . S
C72 H67 0.929 . S
C72 C71 1.398 . S
C72 C73 1.382 . S
C73 C72 1.382 . S
C73 C74 1.392 . S
C73 N75 1.420 . S
C74 H68 0.930 . S
C74 C70 1.407 . S
C74 C73 1.392 . S
N75 C73 1.420 . S
N75 C76 1.231 1_545 S
C76 N75 1.231 1_565 S
H77 C80 0.929 . S
H78 C83 0.929 . S
H79 C85 0.930 . S
C80 H77 0.929 . S
C80 C81 1.398 . S
C80 C82 1.396 . S
C81 C80 1.398 . S
C81 C85 1.407 . S
C82 C80 1.396 . S
C82 C83 1.394 . S
C83 H78 0.929 . S
C83 C82 1.394 . S
C83 C84 1.382 . S
C84 C83 1.382 . S
C84 C85 1.392 . S
C84 N86 1.420 . S
C85 H79 0.930 . S
C85 C81 1.407 . S
C85 C84 1.392 . S
N86 C84 1.420 . S
N86 C87 1.244 . S
C87 N86 1.244 . S
Tb88 C97 2.764 . S
Tb88 O98 2.325 . S
Tb88 O101 2.303 1_655 S
Tb88 O105 2.322 1_545 S
Tb88 O106 2.349 . S
Tb88 O109 2.415 . S
Tb88 O110 2.399 . S
Tb89 O99 2.322 1_566 S
Tb89 O100 2.349 . S
Tb89 O102 2.415 1_556 S
Tb89 O103 2.399 1_556 S
Tb89 O104 2.325 . S
Tb89 O107 2.303 1_455 S
Tb89 C118 2.764 1_556 S
C90 O106 1.261 . S
C90 O107 1.257 1_545 S
C91 C94 1.358 . S
C91 C95 1.332 . S
C91 C97 1.504 . S
C92 C93 1.373 . S
C92 C96 1.308 . S
C93 C92 1.373 . S
C93 C94 1.429 . S
C93 H120 0.932 . S
C94 C91 1.358 . S
C94 C93 1.429 . S
C94 H121 0.930 . S
C95 C91 1.332 . S
C95 C96 1.394 . S
C95 H122 0.932 1_655 S
C96 C92 1.308 . S
C96 C95 1.394 . S
C96 H123 0.929 . S
C97 Tb88 2.764 . S
C97 C91 1.504 . S
C97 O109 1.239 . S
C97 O110 1.263 . S
O98 Tb88 2.325 . S
O98 C108 1.236 1_655 S
O99 Tb89 2.322 1_544 S
O99 C108 1.257 1_554 S
O100 Tb89 2.349 . S
O100 C111 1.261 . S
O101 Tb88 2.303 1_455 S
O101 C111 1.257 1_545 S
O102 Tb89 2.415 1_554 S
O102 C118 1.239 . S
O103 Tb89 2.399 1_554 S
O103 C118 1.263 . S
O104 Tb89 2.325 . S
O104 C119 1.236 1_455 S
O105 Tb88 2.322 1_565 S
O105 C119 1.257 . S
O106 Tb88 2.349 . S
O106 C90 1.261 . S
O107 Tb89 2.303 1_655 S
O107 C90 1.257 1_565 S
C108 O98 1.236 1_455 S
C108 O99 1.257 1_556 S
O109 Tb88 2.415 . S
O109 C97 1.239 . S
O110 Tb88 2.399 . S
O110 C97 1.263 . S
C111 O100 1.261 . S
C111 O101 1.257 1_565 S
C112 C115 1.358 . S
C112 C116 1.332 . S
C112 C118 1.504 . S
C113 C114 1.373 . S
C113 C117 1.308 . S
C114 C113 1.373 . S
C114 C115 1.429 . S
C114 H124 0.932 . S
C115 C112 1.358 . S
C115 C114 1.429 . S
C115 H125 0.930 . S
C116 C112 1.332 . S
C116 C117 1.394 . S
C116 H126 0.932 1_455 S
C117 C113 1.308 . S
C117 C116 1.394 . S
C117 H127 0.929 . S
C118 Tb89 2.764 1_554 S
C118 O102 1.239 . S
C118 O103 1.263 . S
C118 C112 1.504 . S
C119 O104 1.236 1_655 S
C119 O105 1.257 . S
H120 C93 0.932 . S
H121 C94 0.930 . S
H122 C95 0.932 1_455 S
H123 C96 0.929 . S
H124 C114 0.932 . S
H125 C115 0.930 . S
H126 C116 0.932 1_655 S
H127 C117 0.929 . S
Tb128 C137 2.764 . S
Tb128 O138 2.325 . S
Tb128 O141 2.303 1_565 S
Tb128 O145 2.322 . S
Tb128 O146 2.349 . S
Tb128 O149 2.415 1_565 S
Tb128 O150 2.399 . S
Tb129 O139 2.322 . S
Tb129 O140 2.349 1_554 S
Tb129 O142 2.415 1_545 S
Tb129 O143 2.399 . S
Tb129 O144 2.325 1_554 S
Tb129 O147 2.303 1_544 S
Tb129 C158 2.764 . S
C130 O146 1.261 . S
C130 O147 1.257 . S
C131 C134 1.358 . S
C131 C135 1.332 1_565 S
C131 C137 1.504 . S
C132 C133 1.373 . S
C132 C136 1.308 1_565 S
C133 C132 1.373 . S
C133 C134 1.429 . S
C133 H160 0.932 . S
C134 C131 1.358 . S
C134 C133 1.429 . S
C134 H161 0.930 . S
C135 C131 1.332 1_545 S
C135 C136 1.394 . S
C135 H162 0.932 . S
C136 C132 1.308 1_545 S
C136 C135 1.394 . S
C136 H163 0.929 . S
C137 Tb128 2.764 . S
C137 C131 1.504 . S
C137 O149 1.239 1_565 S
C137 O150 1.263 . S
O138 Tb128 2.325 . S
O138 C148 1.236 1_565 S
O139 Tb129 2.322 . S
O139 C148 1.257 1_554 S
O140 Tb129 2.349 1_556 S
O140 C151 1.261 . S
O141 Tb128 2.303 1_545 S
O141 C151 1.257 . S
O142 Tb129 2.415 1_565 S
O142 C158 1.239 1_565 S
O143 Tb129 2.399 . S
O143 C158 1.263 . S
O144 Tb129 2.325 1_556 S
O144 C159 1.236 1_545 S
O145 Tb128 2.322 . S
O145 C159 1.257 . S
O146 Tb128 2.349 . S
O146 C130 1.261 . S
O147 Tb129 2.303 1_566 S
O147 C130 1.257 . S
C148 O138 1.236 1_545 S
C148 O139 1.257 1_556 S
O149 Tb128 2.415 1_545 S
O149 C137 1.239 1_545 S
O150 Tb128 2.399 . S
O150 C137 1.263 . S
C151 O140 1.261 . S
C151 O141 1.257 . S
C152 C155 1.358 . S
C152 C156 1.332 1_545 S
C152 C158 1.504 . S
C153 C154 1.373 . S
C153 C157 1.308 1_545 S
C154 C153 1.373 . S
C154 C155 1.429 . S
C154 H164 0.932 . S
C155 C152 1.358 . S
C155 C154 1.429 . S
C155 H165 0.930 . S
C156 C152 1.332 1_565 S
C156 C157 1.394 . S
C156 H166 0.932 . S
C157 C153 1.308 1_565 S
C157 C156 1.394 . S
C157 H167 0.929 . S
C158 Tb129 2.764 . S
C158 O142 1.239 1_545 S
C158 O143 1.263 . S
C158 C152 1.504 . S
C159 O144 1.236 1_565 S
C159 O145 1.257 . S
H160 C133 0.932 . S
H161 C134 0.930 . S
H162 C135 0.932 . S
H163 C136 0.929 . S
H164 C154 0.932 . S
H165 C155 0.930 . S
H166 C156 0.932 . S
H167 C157 0.929 . S
Tb168 C177 2.764 . S
Tb168 O178 2.325 1_554 S
Tb168 O181 2.303 1_554 S
Tb168 O185 2.322 1_554 S
Tb168 O186 2.349 1_554 S
Tb168 O189 2.415 . S
Tb168 O190 2.399 . S
Tb169 O179 2.322 . S
Tb169 O180 2.349 . S
Tb169 O182 2.415 . S
Tb169 O183 2.399 . S
Tb169 O184 2.325 . S
Tb169 O187 2.303 . S
Tb169 C198 2.764 . S
C170 O186 1.261 . S
C170 O187 1.257 . S
C171 C174 1.358 . S
C171 C175 1.332 . S
C171 C177 1.504 . S
C172 C173 1.373 . S
C172 C176 1.308 . S
C173 C172 1.373 . S
C173 C174 1.429 . S
C173 H200 0.932 . S
C174 C171 1.358 . S
C174 C173 1.429 . S
C174 H201 0.930 . S
C175 C171 1.332 . S
C175 C176 1.394 . S
C175 H202 0.932 . S
C176 C172 1.308 . S
C176 C175 1.394 . S
C176 H203 0.929 . S
C177 Tb168 2.764 . S
C177 C171 1.504 . S
C177 O189 1.239 . S
C177 O190 1.263 . S
O178 Tb168 2.325 1_556 S
O178 C188 1.236 . S
O179 Tb169 2.322 . S
O179 C188 1.257 . S
O180 Tb169 2.349 . S
O180 C191 1.261 . S
O181 Tb168 2.303 1_556 S
O181 C191 1.257 . S
O182 Tb169 2.415 . S
O182 C198 1.239 . S
O183 Tb169 2.399 . S
O183 C198 1.263 . S
O184 Tb169 2.325 . S
O184 C199 1.236 . S
O185 Tb168 2.322 1_556 S
O185 C199 1.257 . S
O186 Tb168 2.349 1_556 S
O186 C170 1.261 . S
O187 Tb169 2.303 . S
O187 C170 1.257 . S
C188 O178 1.236 . S
C188 O179 1.257 . S
O189 Tb168 2.415 . S
O189 C177 1.239 . S
O190 Tb168 2.399 . S
O190 C177 1.263 . S
C191 O180 1.261 . S
C191 O181 1.257 . S
C192 C195 1.358 . S
C192 C196 1.332 . S
C192 C198 1.504 . S
C193 C194 1.373 . S
C193 C197 1.308 . S
C194 C193 1.373 . S
C194 C195 1.429 . S
C194 H204 0.932 . S
C195 C192 1.358 . S
C195 C194 1.429 . S
C195 H205 0.930 . S
C196 C192 1.332 . S
C196 C197 1.394 . S
C196 H206 0.932 . S
C197 C193 1.308 . S
C197 C196 1.394 . S
C197 H207 0.929 . S
C198 Tb169 2.764 . S
C198 O182 1.239 . S
C198 O183 1.263 . S
C198 C192 1.504 . S
C199 O184 1.236 . S
C199 O185 1.257 . S
H200 C173 0.932 . S
H201 C174 0.930 . S
H202 C175 0.932 . S
H203 C176 0.929 . S
H204 C194 0.932 . S
H205 C195 0.930 . S
H206 C196 0.932 . S
H207 C197 0.929 . S
Tb208 C217 2.764 . S
Tb208 O218 2.325 . S
Tb208 O221 2.303 . S
Tb208 O225 2.322 1_455 S
Tb208 O226 2.349 . S
Tb208 O229 2.415 . S
Tb208 O230 2.399 . S
Tb209 O219 2.322 1_655 S
Tb209 O220 2.349 . S
Tb209 O222 2.415 1_556 S
Tb209 O223 2.399 1_556 S
Tb209 O224 2.325 . S
Tb209 O227 2.303 . S
Tb209 C238 2.764 1_556 S
C210 O226 1.261 . S
C210 O227 1.257 1_455 S
C211 C214 1.358 . S
C211 C215 1.332 . S
C211 C217 1.504 . S
C212 C213 1.373 . S
C212 C216 1.308 . S
C213 C212 1.373 . S
C213 C214 1.429 . S
C213 H240 0.932 . S
C214 C211 1.358 . S
C214 C213 1.429 . S
C214 H241 0.930 . S
C215 C211 1.332 . S
C215 C216 1.394 . S
C215 H242 0.932 . S
C216 C212 1.308 . S
C216 C215 1.394 . S
C216 H243 0.929 . S
C217 Tb208 2.764 . S
C217 C211 1.504 . S
C217 O229 1.239 . S
C217 O230 1.263 . S
O218 Tb208 2.325 . S
O218 C228 1.236 . S
O219 Tb209 2.322 1_455 S
O219 C228 1.257 . S
O220 Tb209 2.349 . S
O220 C231 1.261 . S
O221 Tb208 2.303 . S
O221 C231 1.257 1_455 S
O222 Tb209 2.415 1_554 S
O222 C238 1.239 . S
O223 Tb209 2.399 1_554 S
O223 C238 1.263 . S
O224 Tb209 2.325 . S
O224 C239 1.236 . S
O225 Tb208 2.322 1_655 S
O225 C239 1.257 . S
O226 Tb208 2.349 . S
O226 C210 1.261 . S
O227 Tb209 2.303 . S
O227 C210 1.257 1_655 S
C228 O218 1.236 . S
C228 O219 1.257 . S
O229 Tb208 2.415 . S
O229 C217 1.239 . S
O230 Tb208 2.399 . S
O230 C217 1.263 . S
C231 O220 1.261 . S
C231 O221 1.257 1_655 S
C232 C235 1.358 . S
C232 C236 1.332 . S
C232 C238 1.504 . S
C233 C234 1.373 . S
C233 C237 1.308 . S
C234 C233 1.373 . S
C234 C235 1.429 . S
C234 H244 0.932 . S
C235 C232 1.358 . S
C235 C234 1.429 . S
C235 H245 0.930 . S
C236 C232 1.332 . S
C236 C237 1.394 . S
C236 H246 0.932 . S
C237 C233 1.308 . S
C237 C236 1.394 . S
C237 H247 0.929 . S
C238 Tb209 2.764 1_554 S
C238 O222 1.239 . S
C238 O223 1.263 . S
C238 C232 1.504 . S
C239 O224 1.236 . S
C239 O225 1.257 . S
H240 C213 0.932 . S
H241 C214 0.930 . S
H242 C215 0.932 . S
H243 C216 0.929 . S
H244 C234 0.932 . S
H245 C235 0.930 . S
H246 C236 0.932 . S
H247 C237 0.929 . S
C248 C249 1.382 . S
C248 C254 1.379 . S
C248 N256 1.356 . S
C249 C248 1.382 . S
C249 C255 1.338 1_545 S
C250 C251 1.363 1_565 S
C250 C255 1.379 . S
C250 N257 1.356 . S
C251 C250 1.363 1_545 S
C251 C254 1.363 . S
N252 C254 1.356 . S
N252 H264 0.984 . S
N252 H265 0.985 . S
N253 C255 1.356 . S
N253 H258 0.984 . S
N253 H259 0.985 . S
C254 C248 1.379 . S
C254 C251 1.363 . S
C254 N252 1.356 . S
C255 C249 1.338 1_565 S
C255 C250 1.379 . S
C255 N253 1.356 . S
N256 C248 1.356 . S
N256 H262 0.984 . S
N256 H263 0.984 . S
N257 C250 1.356 . S
N257 H260 0.984 . S
N257 H261 0.985 . S
H258 N253 0.984 . S
H259 N253 0.985 . S
H260 N257 0.984 . S
H261 N257 0.985 . S
H262 N256 0.984 . S
H263 N256 0.984 . S
H264 N252 0.984 . S
H265 N252 0.985 . S
C266 C267 1.363 . S
C266 C272 1.379 . S
C266 N274 1.356 . S
C267 C266 1.363 . S
C267 C273 1.363 . S
C268 C269 1.363 . S
C268 C273 1.379 . S
C268 N275 1.356 . S
C269 C268 1.363 . S
C269 C272 1.363 . S
N270 C272 1.356 . S
N270 H282 0.984 . S
N270 H283 0.985 . S
N271 C273 1.356 . S
N271 H276 0.984 . S
N271 H277 0.985 . S
C272 C266 1.379 . S
C272 C269 1.363 . S
C272 N270 1.356 . S
C273 C267 1.363 . S
C273 C268 1.379 . S
C273 N271 1.356 . S
N274 C266 1.356 . S
N274 H280 0.984 . S
N274 H281 0.984 . S
N275 C268 1.356 . S
N275 H278 0.984 . S
N275 H279 0.985 1_556 S
H276 N271 0.984 . S
H277 N271 0.985 . S
H278 N275 0.984 . S
H279 N275 0.985 1_554 S
H280 N274 0.984 . S
H281 N274 0.984 . S
H282 N270 0.984 . S
H283 N270 0.985 . S
C284 C285 1.363 . S
C284 C290 1.379 . S
C284 N292 1.356 . S
C285 C284 1.363 . S
C285 C291 1.363 . S
C286 C287 1.363 . S
C286 C291 1.379 . S
C286 N293 1.356 . S
C287 C286 1.363 . S
C287 C290 1.363 . S
N288 C290 1.356 . S
N288 H300 0.984 . S
N288 H301 0.985 . S
N289 C291 1.356 . S
N289 H294 0.984 . S
N289 H295 0.985 . S
C290 C284 1.379 . S
C290 C287 1.363 . S
C290 N288 1.356 . S
C291 C285 1.363 . S
C291 C286 1.379 . S
C291 N289 1.356 . S
N292 C284 1.356 . S
N292 H298 0.984 . S
N292 H299 0.984 . S
N293 C286 1.356 . S
N293 H296 0.984 . S
N293 H297 0.985 . S
H294 N289 0.984 . S
H295 N289 0.985 . S
H296 N293 0.984 . S
H297 N293 0.985 . S
H298 N292 0.984 . S
H299 N292 0.984 . S
H300 N288 0.984 . S
H301 N288 0.985 . S
C302 C303 1.367 . S
C302 C308 1.379 . S
C302 N310 1.356 . S
C303 C302 1.367 . S
C303 C309 1.359 1_455 S
C304 C305 1.344 1_655 S
C304 C309 1.379 . S
C304 N311 1.356 . S
C305 C304 1.344 1_455 S
C305 C308 1.382 . S
N306 C308 1.356 . S
N306 H318 0.984 . S
N306 H319 0.985 . S
N307 C309 1.356 . S
N307 H312 0.984 . S
N307 H313 0.985 . S
C308 C302 1.379 . S
C308 C305 1.382 . S
C308 N306 1.356 . S
C309 C303 1.359 1_655 S
C309 C304 1.379 . S
C309 N307 1.356 . S
N310 C302 1.356 . S
N310 H316 0.984 . S
N310 H317 0.984 . S
N311 C304 1.356 . S
N311 H314 0.984 . S
N311 H315 0.985 . S
H312 N307 0.984 . S
H313 N307 0.985 . S
H314 N311 0.984 . S
H315 N311 0.985 . S
H316 N310 0.984 . S
H317 N310 0.984 . S
H318 N306 0.984 . S
H319 N306 0.985 . S
C320 C321 1.351 1_545 S
C320 C326 1.379 . S
C320 N328 1.356 . S
C321 C320 1.351 1_565 S
C321 C327 1.371 . S
C322 C323 1.363 . S
C322 C327 1.379 . S
C322 N329 1.356 . S
C323 C322 1.363 . S
C323 C326 1.363 1_565 S
N324 C326 1.356 . S
N324 H336 0.984 . S
N324 H337 0.985 . S
N325 C327 1.356 . S
N325 H330 0.984 . S
N325 H331 0.985 . S
C326 C320 1.379 . S
C326 C323 1.363 1_545 S
C326 N324 1.356 . S
C327 C321 1.371 . S
C327 C322 1.379 . S
C327 N325 1.356 . S
N328 C320 1.356 . S
N328 H334 0.984 . S
N328 H335 0.984 . S
N329 C322 1.356 . S
N329 H332 0.984 . S
N329 H333 0.985 . S
H330 N325 0.984 . S
H331 N325 0.985 . S
H332 N329 0.984 . S
H333 N329 0.985 . S
H334 N328 0.984 . S
H335 N328 0.984 . S
H336 N324 0.984 . S
H337 N324 0.985 . S
C338 C339 1.363 1_554 S
C338 C344 1.379 1_554 S
C338 N346 1.356 . S
C339 C338 1.363 1_556 S
C339 C345 1.363 . S
C340 C341 1.363 . S
C340 C345 1.379 . S
C340 N347 1.356 . S
C341 C340 1.363 . S
C341 C344 1.363 . S
N342 C344 1.356 1_554 S
N342 H354 0.984 . S
N342 H355 0.985 . S
N343 C345 1.356 . S
N343 H348 0.984 . S
N343 H349 0.985 . S
C344 C338 1.379 1_556 S
C344 C341 1.363 . S
C344 N342 1.356 1_556 S
C345 C339 1.363 . S
C345 C340 1.379 . S
C345 N343 1.356 . S
N346 C338 1.356 . S
N346 H352 0.984 . S
N346 H353 0.984 . S
N347 C340 1.356 . S
N347 H350 0.984 . S
N347 H351 0.985 . S
H348 N343 0.984 . S
H349 N343 0.985 . S
H350 N347 0.984 . S
H351 N347 0.985 . S
H352 N346 0.984 . S
H353 N346 0.984 . S
H354 N342 0.984 . S
H355 N342 0.985 . S
C356 C357 1.363 . S
C356 C362 1.379 . S
C356 N364 1.356 . S
C357 C356 1.363 . S
C357 C363 1.363 . S
C358 C359 1.363 . S
C358 C363 1.379 . S
C358 N365 1.356 . S
C359 C358 1.363 . S
C359 C362 1.363 . S
N360 C362 1.356 . S
N360 H372 0.984 . S
N360 H373 0.985 . S
N361 C363 1.356 . S
N361 H366 0.984 . S
N361 H367 0.985 . S
C362 C356 1.379 . S
C362 C359 1.363 . S
C362 N360 1.356 . S
C363 C357 1.363 . S
C363 C358 1.379 . S
C363 N361 1.356 . S
N364 C356 1.356 . S
N364 H370 0.984 . S
N364 H371 0.984 . S
N365 C358 1.356 . S
N365 H368 0.984 . S
N365 H369 0.985 . S
H366 N361 0.984 . S
H367 N361 0.985 . S
H368 N365 0.984 . S
H369 N365 0.985 . S
H370 N364 0.984 . S
H371 N364 0.984 . S
H372 N360 0.984 . S
H373 N360 0.985 . S
C374 C375 1.367 . S
C374 C380 1.379 . S
C374 N382 1.356 . S
C375 C374 1.367 . S
C375 C381 1.359 1_655 S
C376 C377 1.346 1_455 S
C376 C381 1.379 . S
C376 N383 1.356 . S
C377 C376 1.346 1_655 S
C377 C380 1.380 . S
N378 C380 1.356 . S
N378 H390 0.984 . S
N378 H391 0.985 1_554 S
N379 C381 1.356 . S
N379 H384 0.984 . S
N379 H385 0.985 . S
C380 C374 1.379 . S
C380 C377 1.380 . S
C380 N378 1.356 . S
C381 C375 1.359 1_455 S
C381 C376 1.379 . S
C381 N379 1.356 . S
N382 C374 1.356 . S
N382 H388 0.984 . S
N382 H389 0.984 . S
N383 C376 1.356 . S
N383 H386 0.984 . S
N383 H387 0.985 . S
H384 N379 0.984 . S
H385 N379 0.985 . S
H386 N383 0.984 . S
H387 N383 0.985 . S
H388 N382 0.984 . S
H389 N382 0.984 . S
H390 N378 0.984 . S
H391 N378 0.985 1_556 S
C392 C393 1.363 . S
C392 C398 1.379 . S
C392 N400 1.356 . S
C393 C392 1.363 . S
C393 C399 1.363 . S
C394 C395 1.363 . S
C394 C399 1.379 . S
C394 N401 1.356 . S
C395 C394 1.363 . S
C395 C398 1.363 . S
N396 C398 1.356 . S
N396 H408 0.984 . S
N396 H409 0.985 . S
N397 C399 1.356 1_455 S
N397 H402 0.984 . S
N397 H403 0.985 . S
C398 C392 1.379 . S
C398 C395 1.363 . S
C398 N396 1.356 . S
C399 C393 1.363 . S
C399 C394 1.379 . S
C399 N397 1.356 1_655 S
N400 C392 1.356 . S
N400 H406 0.984 . S
N400 H407 0.984 . S
N401 C394 1.356 . S
N401 H404 0.984 . S
N401 H405 0.985 . S
H402 N397 0.984 . S
H403 N397 0.985 . S
H404 N401 0.984 . S
H405 N401 0.985 . S
H406 N400 0.984 . S
H407 N400 0.984 . S
H408 N396 0.984 . S
H409 N396 0.985 . S
C410 C411 1.363 1_565 S
C410 C416 1.379 . S
C410 N418 1.356 . S
C411 C410 1.363 1_545 S
C411 C417 1.363 . S
C412 C413 1.363 1_545 S
C412 C417 1.379 . S
C412 N419 1.356 . S
C413 C412 1.363 1_565 S
C413 C416 1.363 . S
N414 C416 1.356 . S
N414 H426 0.984 . S
N414 H427 0.985 . S
N415 C417 1.356 . S
N415 H420 0.984 . S
N415 H421 0.985 . S
C416 C410 1.379 . S
C416 C413 1.363 . S
C416 N414 1.356 . S
C417 C411 1.363 . S
C417 C412 1.379 . S
C417 N415 1.356 . S
N418 C410 1.356 . S
N418 H424 0.984 . S
N418 H425 0.984 . S
N419 C412 1.356 . S
N419 H422 0.984 1_545 S
N419 H423 0.985 . S
H420 N415 0.984 . S
H421 N415 0.985 . S
H422 N419 0.984 1_565 S
H423 N419 0.985 . S
H424 N418 0.984 . S
H425 N418 0.984 . S
H426 N414 0.984 . S
H427 N414 0.985 . S
C428 C429 1.363 . S
C428 C434 1.379 . S
C428 N436 1.356 . S
C429 C428 1.363 . S
C429 C435 1.363 . S
C430 C431 1.363 . S
C430 C435 1.379 . S
C430 N437 1.356 . S
C431 C430 1.363 . S
C431 C434 1.363 . S
N432 C434 1.356 . S
N432 H444 0.984 . S
N432 H445 0.985 . S
N433 C435 1.356 . S
N433 H438 0.984 . S
N433 H439 0.985 . S
C434 C428 1.379 . S
C434 C431 1.363 . S
C434 N432 1.356 . S
C435 C429 1.363 . S
C435 C430 1.379 . S
C435 N433 1.356 . S
N436 C428 1.356 . S
N436 H442 0.984 . S
N436 H443 0.984 . S
N437 C430 1.356 . S
N437 H440 0.984 . S
N437 H441 0.985 . S
H438 N433 0.984 . S
H439 N433 0.985 . S
H440 N437 0.984 . S
H441 N437 0.985 . S
H442 N436 0.984 . S
H443 N436 0.984 . S
H444 N432 0.984 . S
H445 N432 0.985 . S
C446 C447 1.363 . S
C446 C452 1.379 . S
C446 N454 1.356 . S
C447 C446 1.363 . S
C447 C453 1.363 . S
C448 C449 1.363 . S
C448 C453 1.379 . S
C448 N455 1.356 . S
C449 C448 1.363 . S
C449 C452 1.363 . S
N450 C452 1.356 . S
N450 H462 0.984 . S
N450 H463 0.985 . S
N451 C453 1.356 . S
N451 H456 0.984 . S
N451 H457 0.985 . S
C452 C446 1.379 . S
C452 C449 1.363 . S
C452 N450 1.356 . S
C453 C447 1.363 . S
C453 C448 1.379 . S
C453 N451 1.356 . S
N454 C446 1.356 . S
N454 H460 0.984 . S
N454 H461 0.984 . S
N455 C448 1.356 . S
N455 H458 0.984 . S
N455 H459 0.985 . S
H456 N451 0.984 . S
H457 N451 0.985 . S
H458 N455 0.984 . S
H459 N455 0.985 . S
H460 N454 0.984 . S
H461 N454 0.984 . S
H462 N450 0.984 . S
H463 N450 0.985 . S
C464 C465 1.363 . S
C464 C470 1.379 . S
C464 N472 1.356 1_455 S
C465 C464 1.363 . S
C465 C471 1.363 . S
C466 C467 1.363 . S
C466 C471 1.379 . S
C466 N473 1.356 . S
C467 C466 1.363 . S
C467 C470 1.363 . S
N468 C470 1.356 . S
N468 H480 0.984 . S
N468 H481 0.985 . S
N469 C471 1.356 . S
N469 H474 0.984 . S
N469 H475 0.985 . S
C470 C464 1.379 . S
C470 C467 1.363 . S
C470 N468 1.356 . S
C471 C465 1.363 . S
C471 C466 1.379 . S
C471 N469 1.356 . S
N472 C464 1.356 1_655 S
N472 H478 0.984 . S
N472 H479 0.984 . S
N473 C466 1.356 . S
N473 H476 0.984 . S
N473 H477 0.985 . S
H474 N469 0.984 . S
H475 N469 0.985 . S
H476 N473 0.984 . S
H477 N473 0.985 . S
H478 N472 0.984 . S
H479 N472 0.984 . S
H480 N468 0.984 . S
H481 N468 0.985 . S
C482 C483 1.363 1_545 S
C482 C488 1.379 . S
C482 N490 1.356 . S
C483 C482 1.363 1_565 S
C483 C489 1.362 . S
C484 C485 1.363 . S
C484 C489 1.366 1_545 S
C484 N491 1.356 . S
C485 C484 1.363 . S
C485 C488 1.363 . S
N486 C488 1.356 . S
N486 H498 0.984 . S
N486 H499 0.985 . S
N487 C489 1.373 . S
N487 H492 0.984 . S
N487 H493 0.985 . S
C488 C482 1.379 . S
C488 C485 1.363 . S
C488 N486 1.356 . S
C489 C483 1.362 . S
C489 C484 1.366 1_565 S
C489 N487 1.373 . S
N490 C482 1.356 . S
N490 H496 0.984 . S
N490 H497 0.984 1_545 S
N491 C484 1.356 . S
N491 H494 0.984 . S
N491 H495 0.985 . S
H492 N487 0.984 . S
H493 N487 0.985 . S
H494 N491 0.984 . S
H495 N491 0.985 . S
H496 N490 0.984 . S
H497 N490 0.984 1_565 S
H498 N486 0.984 . S
H499 N486 0.985 . S
C500 C501 1.363 . S
C500 C506 1.379 1_556 S
C500 N508 1.356 1_556 S
C501 C500 1.363 . S
C501 C507 1.363 . S
C502 C503 1.363 . S
C502 C507 1.379 . S
C502 N509 1.356 . S
C503 C502 1.363 . S
C503 C506 1.363 1_556 S
N504 C506 1.356 . S
N504 H516 0.984 . S
N504 H517 0.985 . S
N505 C507 1.356 . S
N505 H510 0.984 . S
N505 H511 0.985 . S
C506 C500 1.379 1_554 S
C506 C503 1.363 1_554 S
C506 N504 1.356 . S
C507 C501 1.363 . S
C507 C502 1.379 . S
C507 N505 1.356 . S
N508 C500 1.356 1_554 S
N508 H514 0.984 . S
N508 H515 0.984 . S
N509 C502 1.356 . S
N509 H512 0.984 . S
N509 H513 0.985 . S
H510 N505 0.984 . S
H511 N505 0.985 . S
H512 N509 0.984 . S
H513 N509 0.985 . S
H514 N508 0.984 . S
H515 N508 0.984 . S
H516 N504 0.984 . S
H517 N504 0.985 . S
C518 C519 1.363 . S
C518 C524 1.379 . S
C518 N526 1.356 . S
C519 C518 1.363 . S
C519 C525 1.363 . S
C520 C521 1.363 . S
C520 C525 1.379 . S
C520 N527 1.356 . S
C521 C520 1.363 . S
C521 C524 1.363 . S
N522 C524 1.356 . S
N522 H534 0.984 . S
N522 H535 0.985 . S
N523 C525 1.356 . S
N523 H528 0.984 . S
N523 H529 0.985 . S
C524 C518 1.379 . S
C524 C521 1.363 . S
C524 N522 1.356 . S
C525 C519 1.363 . S
C525 C520 1.379 . S
C525 N523 1.356 . S
N526 C518 1.356 . S
N526 H532 0.984 . S
N526 H533 0.984 . S
N527 C520 1.356 . S
N527 H530 0.984 . S
N527 H531 0.985 . S
H528 N523 0.984 . S
H529 N523 0.985 . S
H530 N527 0.984 . S
H531 N527 0.985 . S
H532 N526 0.984 . S
H533 N526 0.984 . S
H534 N522 0.984 . S
H535 N522 0.985 . S
C536 C537 1.363 . S
C536 C542 1.379 . S
C536 N544 1.356 . S
C537 C536 1.363 . S
C537 C543 1.363 1_454 S
C538 C539 1.363 1_656 S
C538 C543 1.379 . S
C538 N545 1.356 . S
C539 C538 1.363 1_454 S
C539 C542 1.363 . S
N540 C542 1.356 . S
N540 H552 0.984 . S
N540 H553 0.985 . S
N541 C543 1.356 . S
N541 H546 0.984 . S
N541 H547 0.985 . S
C542 C536 1.379 . S
C542 C539 1.363 . S
C542 N540 1.356 . S
C543 C537 1.363 1_656 S
C543 C538 1.379 . S
C543 N541 1.356 . S
N544 C536 1.356 . S
N544 H550 0.984 . S
N544 H551 0.984 . S
N545 C538 1.356 . S
N545 H548 0.994 . S
N545 H549 0.985 . S
H546 N541 0.984 . S
H547 N541 0.985 . S
H548 N545 0.994 . S
H549 N545 0.985 . S
H550 N544 0.984 . S
H551 N544 0.984 . S
H552 N540 0.984 . S
H553 N540 0.985 . S
C554 C555 1.363 1_566 S
C554 C560 1.379 . S
C554 N562 1.356 . S
C555 C554 1.363 1_544 S
C555 C561 1.363 . S
C556 C557 1.363 1_554 S
C556 C561 1.379 . S
C556 N563 1.356 . S
C557 C556 1.363 1_556 S
C557 C560 1.363 1_545 S
N558 C560 1.356 . S
N558 H570 0.984 . S
N558 H571 0.985 . S
N559 C561 1.356 . S
N559 H564 0.984 . S
N559 H565 0.985 . S
C560 C554 1.379 . S
C560 C557 1.363 1_565 S
C560 N558 1.356 . S
C561 C555 1.363 . S
C561 C556 1.379 . S
C561 N559 1.356 . S
N562 C554 1.356 . S
N562 H568 0.984 . S
N562 H569 0.984 . S
N563 C556 1.356 . S
N563 H566 0.984 . S
N563 H567 0.985 . S
H564 N559 0.984 . S
H565 N559 0.985 . S
H566 N563 0.984 . S
H567 N563 0.985 . S
H568 N562 0.984 . S
H569 N562 0.984 . S
H570 N558 0.984 . S
H571 N558 0.985 . S
C572 C573 1.363 . S
C572 C578 1.379 . S
C572 N580 1.356 . S
C573 C572 1.363 . S
C573 C579 1.363 . S
C574 C575 1.363 . S
C574 C579 1.379 . S
C574 N581 1.356 . S
C575 C574 1.363 . S
C575 C578 1.363 . S
N576 C578 1.356 . S
N576 H588 0.984 . S
N576 H589 0.985 . S
N577 C579 1.356 . S
N577 H582 0.984 . S
N577 H583 0.985 . S
C578 C572 1.379 . S
C578 C575 1.363 . S
C578 N576 1.356 . S
C579 C573 1.363 . S
C579 C574 1.379 . S
C579 N577 1.356 . S
N580 C572 1.356 . S
N580 H586 0.984 . S
N580 H587 0.984 . S
N581 C574 1.356 . S
N581 H584 0.984 . S
N581 H585 0.985 . S
H582 N577 0.984 . S
H583 N577 0.985 . S
H584 N581 0.984 . S
H585 N581 0.985 . S
H586 N580 0.984 . S
H587 N580 0.984 . S
H588 N576 0.984 . S
H589 N576 0.985 . S
C590 C591 1.363 1_554 S
C590 C596 1.379 . S
C590 N598 1.356 . S
C591 C590 1.363 1_556 S
C591 C597 1.363 . S
C592 C593 1.363 . S
C592 C597 1.379 . S
C592 N599 1.356 . S
C593 C592 1.363 . S
C593 C596 1.363 1_556 S
N594 C596 1.356 . S
N594 H606 0.984 . S
N594 H607 0.985 . S
N595 C597 1.356 . S
N595 H600 0.984 . S
N595 H601 0.985 . S
C596 C590 1.379 . S
C596 C593 1.363 1_554 S
C596 N594 1.356 . S
C597 C591 1.363 . S
C597 C592 1.379 . S
C597 N595 1.356 . S
N598 C590 1.356 . S
N598 H604 0.984 . S
N598 H605 0.984 . S
N599 C592 1.356 . S
N599 H602 0.984 . S
N599 H603 0.985 . S
H600 N595 0.984 . S
H601 N595 0.985 . S
H602 N599 0.984 . S
H603 N599 0.985 . S
H604 N598 0.984 . S
H605 N598 0.984 . S
H606 N594 0.984 . S
H607 N594 0.985 . S
C608 C609 1.363 . S
C608 C614 1.379 . S
C608 N616 1.356 . S
C609 C608 1.363 . S
C609 C615 1.363 1_655 S
C610 C611 1.363 1_455 S
C610 C615 1.379 . S
C610 N617 1.356 . S
C611 C610 1.363 1_655 S
C611 C614 1.363 . S
N612 C614 1.356 . S
N612 H624 0.984 . S
N612 H625 0.985 . S
N613 C615 1.356 . S
N613 H618 0.984 . S
N613 H619 0.985 . S
C614 C608 1.379 . S
C614 C611 1.363 . S
C614 N612 1.356 . S
C615 C609 1.363 1_455 S
C615 C610 1.379 . S
C615 N613 1.356 . S
N616 C608 1.356 . S
N616 H622 0.984 . S
N616 H623 0.984 . S
N617 C610 1.356 . S
N617 H620 0.984 . S
N617 H621 0.985 . S
H618 N613 0.984 . S
H619 N613 0.985 . S
H620 N617 0.984 . S
H621 N617 0.985 . S
H622 N616 0.984 . S
H623 N616 0.984 . S
H624 N612 0.984 . S
H625 N612 0.985 . S
C626 C627 1.363 1_545 S
C626 C632 1.379 . S
C626 N634 1.356 . S
C627 C626 1.363 1_565 S
C627 C633 1.363 . S
C628 C629 1.363 . S
C628 C633 1.379 . S
C628 N635 1.356 . S
C629 C628 1.363 . S
C629 C632 1.363 1_565 S
N630 C632 1.356 . S
N630 H642 0.984 . S
N630 H643 0.985 . S
N631 C633 1.356 . S
N631 H636 0.984 . S
N631 H637 0.985 . S
C632 C626 1.379 . S
C632 C629 1.363 1_545 S
C632 N630 1.356 . S
C633 C627 1.363 . S
C633 C628 1.379 . S
C633 N631 1.356 . S
N634 C626 1.356 . S
N634 H640 0.984 . S
N634 H641 0.984 . S
N635 C628 1.356 . S
N635 H638 0.984 . S
N635 H639 0.985 . S
H636 N631 0.984 . S
H637 N631 0.985 . S
H638 N635 0.984 . S
H639 N635 0.985 . S
H640 N634 0.984 . S
H641 N634 0.984 . S
H642 N630 0.984 . S
H643 N630 0.985 . S
C644 C645 1.363 . S
C644 C650 1.379 . S
C644 N652 1.356 . S
C645 C644 1.363 . S
C645 C651 1.363 . S
C646 C647 1.363 . S
C646 C651 1.379 . S
C646 N653 1.356 . S
C647 C646 1.363 . S
C647 C650 1.363 . S
N648 C650 1.356 . S
N648 H660 0.984 . S
N648 H661 0.985 . S
N649 C651 1.356 . S
N649 H654 0.984 . S
N649 H655 0.985 . S
C650 C644 1.379 . S
C650 C647 1.363 . S
C650 N648 1.356 . S
C651 C645 1.363 . S
C651 C646 1.379 . S
C651 N649 1.356 . S
N652 C644 1.356 . S
N652 H658 0.984 . S
N652 H659 0.984 . S
N653 C646 1.356 . S
N653 H656 0.984 . S
N653 H657 0.985 . S
H654 N649 0.984 . S
H655 N649 0.985 . S
H656 N653 0.984 . S
H657 N653 0.985 . S
H658 N652 0.984 . S
H659 N652 0.984 . S
H660 N648 0.984 . S
H661 N648 0.985 . S
C662 C663 1.363 . S
C662 C668 1.379 . S
C662 N670 1.356 . S
C663 C662 1.363 . S
C663 C669 1.363 . S
C664 C665 1.363 . S
C664 C669 1.379 . S
C664 N671 1.356 . S
C665 C664 1.363 . S
C665 C668 1.363 . S
N666 C668 1.356 . S
N666 H678 0.984 . S
N666 H679 0.985 . S
N667 C669 1.356 . S
N667 H672 0.984 . S
N667 H673 0.985 . S
C668 C662 1.379 . S
C668 C665 1.363 . S
C668 N666 1.356 . S
C669 C663 1.363 . S
C669 C664 1.379 . S
C669 N667 1.356 . S
N670 C662 1.356 . S
N670 H676 0.984 . S
N670 H677 0.984 . S
N671 C664 1.356 . S
N671 H674 0.984 . S
N671 H675 0.985 . S
H672 N667 0.984 . S
H673 N667 0.985 . S
H674 N671 0.984 . S
H675 N671 0.985 . S
H676 N670 0.984 . S
H677 N670 0.984 . S
H678 N666 0.984 . S
H679 N666 0.985 . S
C249 C76 2.024 1_545 S
C251 C111 2.271 1_545 S
C269 C151 1.811 . S
C267 C87 1.801 . S
C287 C170 2.283 . S
C285 C54 2.029 . S
C305 C231 1.568 1_455 S
C303 C65 1.404 1_455 S
C323 C90 2.272 1_564 S
C321 C32 2.016 . S
C339 C43 1.813 . S
C341 C130 1.816 . S
C357 C10 2.039 . S
C359 C191 2.283 1_554 S
C375 C21 1.404 . S
C377 C210 1.569 1_654 S
C395 C92 1.149 . S
C393 C60 1.208 1_655 S
C413 C132 0.592 . S
C411 C71 0.579 . S
C431 C188 1.363 . S
C429 C82 1.183 . S
C447 C49 0.710 . S
C449 C212 0.710 . S
C465 C16 1.210 . S
C467 C113 1.154 . S
C485 C153 0.592 . S
C483 C27 0.591 1_565 S
C503 C199 1.363 . S
C501 C38 1.170 . S
C519 C5 0.713 . S
C521 C233 0.715 . S
C537 C59 1.631 . S
C539 C108 1.856 1_554 S
C555 C70 2.313 . S
C557 C148 2.589 . S
C575 C172 1.640 . S
C573 C81 1.663 . S
C593 C228 2.580 . S
C591 C48 2.311 1_556 S
C609 C15 1.635 1_655 S
C611 C119 1.863 . S
C629 C159 2.589 . S
C627 C26 2.310 1_565 S
C647 C193 1.640 . S
C645 C37 1.680 . S
C663 C4 2.308 . S
C665 C239 2.583 . S
