# Generated by pormake.
# Topology eea, (3,6)-cn, num edge types: 1
# Building blocks:
#     Node 0, Type 0, BuildingBlock: BELTOD_clean_linker_0, # of connection points: 3
#     Node 1, Type 0, BuildingBlock: BELTOD_clean_linker_0, # of connection points: 3
#     Node 2, Type 0, BuildingBlock: BELTOD_clean_linker_0, # of connection points: 3
#     Node 3, Type 0, BuildingBlock: BELTOD_clean_linker_0, # of connection points: 3
#     Node 4, Type 0, BuildingBlock: BELTOD_clean_linker_0, # of connection points: 3
#     Node 5, Type 0, BuildingBlock: BELTOD_clean_linker_0, # of connection points: 3
#     Node 6, Type 0, BuildingBlock: BELTOD_clean_linker_0, # of connection points: 3
#     Node 7, Type 0, BuildingBlock: BELTOD_clean_linker_0, # of connection points: 3
#     Node 8, Type 0, BuildingBlock: BELTOD_clean_linker_0, # of connection points: 3
#     Node 9, Type 0, BuildingBlock: BELTOD_clean_linker_0, # of connection points: 3
#     Node 10, Type 0, BuildingBlock: BELTOD_clean_linker_0, # of connection points: 3
#     Node 11, Type 0, BuildingBlock: BELTOD_clean_linker_0, # of connection points: 3
#     Node 12, Type 0, BuildingBlock: BELTOD_clean_linker_0, # of connection points: 3
#     Node 13, Type 0, BuildingBlock: BELTOD_clean_linker_0, # of connection points: 3
#     Node 14, Type 0, BuildingBlock: BELTOD_clean_linker_0, # of connection points: 3
#     Node 15, Type 0, BuildingBlock: BELTOD_clean_linker_0, # of connection points: 3
#     Node 16, Type 0, BuildingBlock: BELTOD_clean_linker_0, # of connection points: 3
#     Node 17, Type 0, BuildingBlock: BELTOD_clean_linker_0, # of connection points: 3
#     Node 18, Type 1, BuildingBlock: HISSIN_clean_sbu_0, # of connection points: 6
#     Node 19, Type 1, BuildingBlock: HISSIN_clean_sbu_0, # of connection points: 6
#     Node 20, Type 1, BuildingBlock: HISSIN_clean_sbu_0, # of connection points: 6
#     Node 21, Type 1, BuildingBlock: HISSIN_clean_sbu_0, # of connection points: 6
#     Node 22, Type 1, BuildingBlock: HISSIN_clean_sbu_0, # of connection points: 6
#     Node 23, Type 1, BuildingBlock: HISSIN_clean_sbu_0, # of connection points: 6
#     Node 24, Type 1, BuildingBlock: HISSIN_clean_sbu_0, # of connection points: 6
#     Node 25, Type 1, BuildingBlock: HISSIN_clean_sbu_0, # of connection points: 6
#     Node 26, Type 1, BuildingBlock: HISSIN_clean_sbu_0, # of connection points: 6
#     Edge 27, Type (0, 1), BuildingBlock: KIFKEQ_clean_linker_1, # of connection points: 2
#     Edge 28, Type (0, 1), BuildingBlock: KIFKEQ_clean_linker_1, # of connection points: 2
#     Edge 29, Type (0, 1), BuildingBlock: KIFKEQ_clean_linker_1, # of connection points: 2
#     Edge 30, Type (0, 1), BuildingBlock: KIFKEQ_clean_linker_1, # of connection points: 2
#     Edge 31, Type (0, 1), BuildingBlock: KIFKEQ_clean_linker_1, # of connection points: 2
#     Edge 32, Type (0, 1), BuildingBlock: KIFKEQ_clean_linker_1, # of connection points: 2
#     Edge 33, Type (0, 1), BuildingBlock: KIFKEQ_clean_linker_1, # of connection points: 2
#     Edge 34, Type (0, 1), BuildingBlock: KIFKEQ_clean_linker_1, # of connection points: 2
#     Edge 35, Type (0, 1), BuildingBlock: KIFKEQ_clean_linker_1, # of connection points: 2
#     Edge 36, Type (0, 1), BuildingBlock: KIFKEQ_clean_linker_1, # of connection points: 2
#     Edge 37, Type (0, 1), BuildingBlock: KIFKEQ_clean_linker_1, # of connection points: 2
#     Edge 38, Type (0, 1), BuildingBlock: KIFKEQ_clean_linker_1, # of connection points: 2
#     Edge 39, Type (0, 1), BuildingBlock: KIFKEQ_clean_linker_1, # of connection points: 2
#     Edge 40, Type (0, 1), BuildingBlock: KIFKEQ_clean_linker_1, # of connection points: 2
#     Edge 41, Type (0, 1), BuildingBlock: KIFKEQ_clean_linker_1, # of connection points: 2
#     Edge 42, Type (0, 1), BuildingBlock: KIFKEQ_clean_linker_1, # of connection points: 2
#     Edge 43, Type (0, 1), BuildingBlock: KIFKEQ_clean_linker_1, # of connection points: 2
#     Edge 44, Type (0, 1), BuildingBlock: KIFKEQ_clean_linker_1, # of connection points: 2
#     Edge 45, Type (0, 1), BuildingBlock: KIFKEQ_clean_linker_1, # of connection points: 2
#     Edge 46, Type (0, 1), BuildingBlock: KIFKEQ_clean_linker_1, # of connection points: 2
#     Edge 47, Type (0, 1), BuildingBlock: KIFKEQ_clean_linker_1, # of connection points: 2
#     Edge 48, Type (0, 1), BuildingBlock: KIFKEQ_clean_linker_1, # of connection points: 2
#     Edge 49, Type (0, 1), BuildingBlock: KIFKEQ_clean_linker_1, # of connection points: 2
#     Edge 50, Type (0, 1), BuildingBlock: KIFKEQ_clean_linker_1, # of connection points: 2
#     Edge 51, Type (0, 1), BuildingBlock: KIFKEQ_clean_linker_1, # of connection points: 2
#     Edge 52, Type (0, 1), BuildingBlock: KIFKEQ_clean_linker_1, # of connection points: 2
#     Edge 53, Type (0, 1), BuildingBlock: KIFKEQ_clean_linker_1, # of connection points: 2
#     Edge 54, Type (0, 1), BuildingBlock: KIFKEQ_clean_linker_1, # of connection points: 2
#     Edge 55, Type (0, 1), BuildingBlock: KIFKEQ_clean_linker_1, # of connection points: 2
#     Edge 56, Type (0, 1), BuildingBlock: KIFKEQ_clean_linker_1, # of connection points: 2
#     Edge 57, Type (0, 1), BuildingBlock: KIFKEQ_clean_linker_1, # of connection points: 2
#     Edge 58, Type (0, 1), BuildingBlock: KIFKEQ_clean_linker_1, # of connection points: 2
#     Edge 59, Type (0, 1), BuildingBlock: KIFKEQ_clean_linker_1, # of connection points: 2
#     Edge 60, Type (0, 1), BuildingBlock: KIFKEQ_clean_linker_1, # of connection points: 2
#     Edge 61, Type (0, 1), BuildingBlock: KIFKEQ_clean_linker_1, # of connection points: 2
#     Edge 62, Type (0, 1), BuildingBlock: KIFKEQ_clean_linker_1, # of connection points: 2
#     Edge 63, Type (0, 1), BuildingBlock: KIFKEQ_clean_linker_1, # of connection points: 2
#     Edge 64, Type (0, 1), BuildingBlock: KIFKEQ_clean_linker_1, # of connection points: 2
#     Edge 65, Type (0, 1), BuildingBlock: KIFKEQ_clean_linker_1, # of connection points: 2
#     Edge 66, Type (0, 1), BuildingBlock: KIFKEQ_clean_linker_1, # of connection points: 2
#     Edge 67, Type (0, 1), BuildingBlock: KIFKEQ_clean_linker_1, # of connection points: 2
#     Edge 68, Type (0, 1), BuildingBlock: KIFKEQ_clean_linker_1, # of connection points: 2
#     Edge 69, Type (0, 1), BuildingBlock: KIFKEQ_clean_linker_1, # of connection points: 2
#     Edge 70, Type (0, 1), BuildingBlock: KIFKEQ_clean_linker_1, # of connection points: 2
#     Edge 71, Type (0, 1), BuildingBlock: KIFKEQ_clean_linker_1, # of connection points: 2
#     Edge 72, Type (0, 1), BuildingBlock: KIFKEQ_clean_linker_1, # of connection points: 2
#     Edge 73, Type (0, 1), BuildingBlock: KIFKEQ_clean_linker_1, # of connection points: 2
#     Edge 74, Type (0, 1), BuildingBlock: KIFKEQ_clean_linker_1, # of connection points: 2
#     Edge 75, Type (0, 1), BuildingBlock: KIFKEQ_clean_linker_1, # of connection points: 2
#     Edge 76, Type (0, 1), BuildingBlock: KIFKEQ_clean_linker_1, # of connection points: 2
#     Edge 77, Type (0, 1), BuildingBlock: KIFKEQ_clean_linker_1, # of connection points: 2
#     Edge 78, Type (0, 1), BuildingBlock: KIFKEQ_clean_linker_1, # of connection points: 2
#     Edge 79, Type (0, 1), BuildingBlock: KIFKEQ_clean_linker_1, # of connection points: 2
#     Edge 80, Type (0, 1), BuildingBlock: KIFKEQ_clean_linker_1, # of connection points: 2
# Relax obj value: 0.032
# Max RMSD: 0.129
# Mean RMSD: 0.080
data_MOF--net-eea--node1-HISSIN_clean_sbu_0--node2-BELTOD_clean_linker_0--edge1-KIFKEQ_clean_linker_1
_symmetry_space_group_name_H-M    P1
_symmetry_Int_Tables_number       1
_symmetry_cell_setting            triclinic
loop_
_symmetry_equiv_pos_as_xyz
'x, y, z'
_cell_length_a     59.654572
_cell_length_b     59.449339
_cell_length_c     84.179108
_cell_angle_alpha  93.22099
_cell_angle_beta   93.39736
_cell_angle_gamma 119.59382
loop_
_atom_site_label
_atom_site_type_symbol
_atom_site_fract_x
_atom_site_fract_y
_atom_site_fract_z
_atom_type_partial_charge
P0 P 0.33089 0.17289 0.4061 0.0
H1 H 0.33457 0.14206 0.37908 0.0
H2 H 0.31025 0.09548 0.37015 0.0
H3 H 0.26436 0.08228 0.41009 0.0
H4 H 0.28875 0.12863 0.41894 0.0
H5 H 0.33862 0.22504 0.41186 0.0
H6 H 0.31352 0.24518 0.40291 0.0
H7 H 0.2587 0.17339 0.37473 0.0
H8 H 0.28345 0.1533 0.384 0.0
H9 H 0.36911 0.17203 0.42882 0.0
H10 H 0.30164 0.18067 0.43059 0.0
O11 O 0.35975 0.18702 0.39895 0.0
H12 H 0.37302 0.17276 0.45794 0.0
H13 H 0.30584 0.18224 0.45969 0.0
C14 C 0.31391 0.13864 0.39989 0.0
C15 C 0.31945 0.12906 0.38598 0.0
C16 C 0.3054 0.10252 0.38082 0.0
C17 C 0.28554 0.08523 0.3895 0.0
C18 C 0.27987 0.09505 0.40333 0.0
C19 C 0.29383 0.12155 0.40841 0.0
C20 C 0.31279 0.18765 0.39877 0.0
C21 C 0.3212 0.2137 0.40374 0.0
C22 C 0.30691 0.2252 0.39854 0.0
C23 C 0.28403 0.21084 0.38815 0.0
C24 C 0.27596 0.18484 0.38295 0.0
C25 C 0.29023 0.17336 0.3882 0.0
C26 C 0.3355 0.17693 0.4276 0.0
C27 C 0.35551 0.1747 0.43552 0.0
C28 C 0.35772 0.17515 0.45217 0.0
C29 C 0.33978 0.17764 0.46116 0.0
C30 C 0.31984 0.18007 0.45313 0.0
C31 C 0.31763 0.17954 0.43648 0.0
P32 P 0.90686 0.10595 0.44476 0.0
H33 H 0.90301 0.07333 0.41664 0.0
H34 H 0.86612 0.03897 0.39937 0.0
H35 H 0.81418 0.05534 0.42484 0.0
H36 H 0.85109 0.08955 0.44208 0.0
H37 H 0.96255 0.12618 0.44555 0.0
H38 H 0.99581 0.15757 0.43063 0.0
H39 H 0.93903 0.17242 0.40652 0.0
H40 H 0.90541 0.13974 0.42108 0.0
H41 H 0.8798 0.08305 0.47205 0.0
H42 H 0.91093 0.15717 0.45271 0.0
O43 O 0.91893 0.08865 0.45279 0.0
H44 H 0.865 0.09921 0.494 0.0
H45 H 0.89585 0.17346 0.47461 0.0
C46 C 0.8798 0.0838 0.43073 0.0
C47 C 0.8837 0.06977 0.41833 0.0
C48 C 0.86261 0.05022 0.40843 0.0
C49 C 0.83721 0.04431 0.41082 0.0
C50 C 0.83349 0.05919 0.42286 0.0
C51 C 0.85463 0.07883 0.43271 0.0
C52 C 0.93151 0.13058 0.43437 0.0
C53 C 0.9572 0.13615 0.43706 0.0
C54 C 0.97632 0.15435 0.42857 0.0
C55 C 0.97024 0.16772 0.41737 0.0
C56 C 0.9444 0.16227 0.41486 0.0
C57 C 0.92519 0.14378 0.42327 0.0
C58 C 0.89674 0.11898 0.46087 0.0
C59 C 0.88349 0.10286 0.47256 0.0
C60 C 0.87481 0.11205 0.48502 0.0
C61 C 0.87917 0.13761 0.48603 0.0
C62 C 0.89241 0.15375 0.47424 0.0
C63 C 0.901 0.14444 0.46168 0.0
P64 P 0.86538 0.72247 0.42347 0.0
H65 H 0.8101 0.69639 0.41331 0.0
H66 H 0.78135 0.71187 0.40339 0.0
H67 H 0.8457 0.79069 0.40911 0.0
H68 H 0.87427 0.77499 0.41937 0.0
H69 H 0.88304 0.7291 0.3919 0.0
H70 H 0.92573 0.75282 0.38223 0.0
H71 H 0.9602 0.78272 0.43078 0.0
H72 H 0.91726 0.75897 0.44038 0.0
H73 H 0.83611 0.73004 0.44823 0.0
H74 H 0.89417 0.70725 0.44528 0.0
O75 O 0.85342 0.69246 0.41454 0.0
H76 H 0.83203 0.71984 0.47587 0.0
H77 H 0.89101 0.69798 0.47323 0.0
C78 C 0.8444 0.73448 0.41671 0.0
C79 C 0.81803 0.717 0.4124 0.0
C80 C 0.80163 0.72588 0.40669 0.0
C81 C 0.81128 0.75249 0.40524 0.0
C82 C 0.83762 0.77009 0.41011 0.0
C83 C 0.85402 0.76114 0.41586 0.0
C84 C 0.89704 0.74185 0.41686 0.0
C85 C 0.89977 0.74088 0.40046 0.0
C86 C 0.92418 0.75459 0.39494 0.0
C87 C 0.9464 0.76955 0.40574 0.0
C88 C 0.94349 0.77106 0.42218 0.0
C89 C 0.91895 0.75747 0.42769 0.0
C90 C 0.86569 0.7197 0.4447 0.0
C91 C 0.84848 0.72344 0.45362 0.0
C92 C 0.84622 0.71767 0.46953 0.0
C93 C 0.86112 0.70797 0.47685 0.0
C94 C 0.87892 0.705 0.46796 0.0
C95 C 0.881 0.71061 0.45201 0.0
P96 P 0.12442 0.27675 0.60254 0.0
H97 H 0.10321 0.25075 0.6308 0.0
H98 H 0.0599 0.23118 0.63986 0.0
H99 H 0.03035 0.24355 0.59508 0.0
H100 H 0.07369 0.26313 0.58612 0.0
H101 H 0.17911 0.30004 0.6136 0.0
H102 H 0.20624 0.28192 0.62203 0.0
H103 H 0.14008 0.20441 0.61284 0.0
H104 H 0.1131 0.22282 0.60411 0.0
H105 H 0.11793 0.31306 0.58365 0.0
H106 H 0.13454 0.25079 0.57526 0.0
O107 O 0.13702 0.30597 0.61274 0.0
H108 H 0.12357 0.32234 0.55577 0.0
H109 H 0.14021 0.25996 0.54736 0.0
C110 C 0.09166 0.25801 0.60768 0.0
C111 C 0.08728 0.24865 0.62277 0.0
C112 C 0.06249 0.23747 0.62794 0.0
C113 C 0.04167 0.23586 0.61821 0.0
C114 C 0.04603 0.24471 0.60292 0.0
C115 C 0.07081 0.25575 0.59773 0.0
C116 C 0.14398 0.2628 0.60867 0.0
C117 C 0.1704 0.27916 0.61349 0.0
C118 C 0.18588 0.26876 0.61833 0.0
C119 C 0.17526 0.24172 0.61831 0.0
C120 C 0.14887 0.22531 0.61297 0.0
C121 C 0.13337 0.23579 0.60813 0.0
C122 C 0.1262 0.28153 0.58159 0.0
C123 C 0.12263 0.30128 0.57577 0.0
C124 C 0.12572 0.30647 0.55981 0.0
C125 C 0.13255 0.29201 0.54938 0.0
C126 C 0.13535 0.27169 0.55516 0.0
C127 C 0.13202 0.26638 0.57111 0.0
P128 P 0.78506 0.89291 0.59145 0.0
H129 H 0.82271 0.93747 0.61301 0.0
H130 H 0.81999 0.97172 0.62864 0.0
H131 H 0.73792 0.93396 0.61369 0.0
H132 H 0.74093 0.89987 0.59787 0.0
H133 H 0.78402 0.84524 0.58078 0.0
H134 H 0.78137 0.80922 0.59472 0.0
H135 H 0.77288 0.84414 0.63873 0.0
H136 H 0.77591 0.88032 0.62472 0.0
H137 H 0.78756 0.91755 0.56233 0.0
H138 H 0.73333 0.84762 0.58195 0.0
O139 O 0.81505 0.90671 0.58588 0.0
H140 H 0.75837 0.90465 0.53779 0.0
H141 H 0.70387 0.83458 0.55741 0.0
C142 C 0.78218 0.91661 0.60398 0.0
C143 C 0.80413 0.93653 0.61315 0.0
C144 C 0.80247 0.95595 0.6222 0.0
C145 C 0.77875 0.95564 0.62231 0.0
C146 C 0.75653 0.93493 0.61363 0.0
C147 C 0.75822 0.91546 0.6046 0.0
C148 C 0.78009 0.86535 0.60169 0.0
C149 C 0.78125 0.84494 0.59338 0.0
C150 C 0.77957 0.8243 0.60135 0.0
C151 C 0.77687 0.82382 0.61784 0.0
C152 C 0.77517 0.8441 0.62606 0.0
C153 C 0.77678 0.86473 0.61804 0.0
C154 C 0.76289 0.8832 0.57372 0.0
C155 C 0.76934 0.8994 0.56133 0.0
C156 C 0.75252 0.89212 0.54738 0.0
C157 C 0.72886 0.86853 0.54565 0.0
C158 C 0.72214 0.85267 0.55832 0.0
C159 C 0.73896 0.86007 0.57232 0.0
P160 P 0.13021 0.83141 0.60759 0.0
H161 H 0.12701 0.86517 0.63296 0.0
H162 H 0.15105 0.91203 0.63996 0.0
H163 H 0.19592 0.921 0.59987 0.0
H164 H 0.17097 0.87424 0.59254 0.0
H165 H 0.10171 0.78607 0.62511 0.0
H166 H 0.05918 0.76677 0.63523 0.0
H167 H 0.04553 0.82443 0.6147 0.0
H168 H 0.08834 0.84388 0.60471 0.0
H169 H 0.16493 0.82207 0.58899 0.0
H170 H 0.09384 0.82358 0.57973 0.0
O171 O 0.14754 0.82084 0.61771 0.0
H172 H 0.16618 0.81458 0.56039 0.0
H173 H 0.0944 0.81515 0.5511 0.0
C174 C 0.14662 0.86621 0.61195 0.0
C175 C 0.14161 0.87725 0.62546 0.0
C176 C 0.15566 0.90409 0.62958 0.0
C177 C 0.17547 0.92039 0.62049 0.0
C178 C 0.18048 0.90917 0.60697 0.0
C179 C 0.16623 0.88233 0.60278 0.0
C180 C 0.09824 0.81651 0.61425 0.0
C181 C 0.08962 0.79461 0.62278 0.0
C182 C 0.06535 0.78366 0.62863 0.0
C183 C 0.04913 0.79423 0.62586 0.0
C184 C 0.05758 0.81582 0.61696 0.0
C185 C 0.082 0.82693 0.61125 0.0
C186 C 0.12907 0.82295 0.58655 0.0
C187 C 0.14925 0.82021 0.58082 0.0
C188 C 0.14989 0.81582 0.56442 0.0
C189 C 0.13031 0.8141 0.55338 0.0
C190 C 0.10994 0.81661 0.55922 0.0
C191 C 0.10944 0.82118 0.57565 0.0
P192 P 0.99801 0.50922 0.74322 0.0
H193 H 0.001 0.4793 0.71552 0.0
H194 H 0.97596 0.4332 0.70567 0.0
H195 H 0.93121 0.41824 0.74628 0.0
H196 H 0.95607 0.46438 0.7559 0.0
H197 H 0.00734 0.54746 0.72022 0.0
H198 H 0.98127 0.56566 0.70975 0.0
H199 H 0.92058 0.51853 0.73869 0.0
H200 H 0.94663 0.50015 0.7489 0.0
H201 H 0.01307 0.48435 0.76718 0.0
H202 H 0.99508 0.54624 0.76654 0.0
O203 O 0.02697 0.52323 0.73618 0.0
H204 H 0.01916 0.49044 0.7964 0.0
H205 H 0.00131 0.55255 0.79573 0.0
C206 C 0.98076 0.47509 0.73661 0.0
C207 C 0.98598 0.46603 0.72238 0.0
C208 C 0.97166 0.43969 0.71677 0.0
C209 C 0.95167 0.42205 0.72523 0.0
C210 C 0.94633 0.43135 0.73942 0.0
C211 C 0.96069 0.45767 0.74501 0.0
C212 C 0.97894 0.52261 0.7354 0.0
C213 C 0.98842 0.54103 0.72429 0.0
C214 C 0.97353 0.55147 0.71835 0.0
C215 C 0.94887 0.54357 0.72342 0.0
C216 C 0.93933 0.52478 0.73439 0.0
C217 C 0.95425 0.51437 0.74031 0.0
C218 C 0.00292 0.51432 0.76471 0.0
C219 C 0.01037 0.49921 0.77333 0.0
C220 C 0.01404 0.50285 0.79002 0.0
C221 C 0.01054 0.52187 0.79838 0.0
C222 C 0.00369 0.53743 0.78965 0.0
C223 C 0.00012 0.53382 0.77294 0.0
P224 P 0.57374 0.44278 0.77634 0.0
H225 H 0.56871 0.39812 0.75693 0.0
H226 H 0.532 0.36119 0.74108 0.0
H227 H 0.48326 0.39363 0.75204 0.0
H228 H 0.52008 0.43043 0.76799 0.0
H229 H 0.62249 0.49038 0.78526 0.0
H230 H 0.65369 0.52315 0.76972 0.0
H231 H 0.60168 0.48476 0.72671 0.0
H232 H 0.57075 0.45185 0.74232 0.0
H233 H 0.5496 0.41828 0.80404 0.0
H234 H 0.57022 0.49015 0.78368 0.0
O235 O 0.59161 0.43111 0.78447 0.0
H236 H 0.53211 0.43122 0.82598 0.0
H237 H 0.55258 0.50328 0.80566 0.0
C238 C 0.54692 0.41662 0.76391 0.0
C239 C 0.55012 0.39727 0.7559 0.0
C240 C 0.52917 0.37629 0.74675 0.0
C241 C 0.50466 0.37439 0.74541 0.0
C242 C 0.50178 0.39432 0.75307 0.0
C243 C 0.52281 0.41538 0.76217 0.0
C244 C 0.59439 0.46869 0.76497 0.0
C245 C 0.61767 0.48926 0.77252 0.0
C246 C 0.63543 0.50804 0.76361 0.0
C247 C 0.63023 0.50653 0.74694 0.0
C248 C 0.60642 0.48629 0.73949 0.0
C249 C 0.58864 0.46752 0.74844 0.0
C250 C 0.5616 0.45344 0.79243 0.0
C251 C 0.55043 0.43692 0.80435 0.0
C252 C 0.54022 0.44424 0.8168 0.0
C253 C 0.54091 0.46826 0.81754 0.0
C254 C 0.55201 0.48478 0.80549 0.0
C255 C 0.56211 0.47731 0.79293 0.0
P256 P 0.52852 0.05361 0.75448 0.0
H257 H 0.5004 0.04576 0.72332 0.0
H258 H 0.47472 0.06392 0.7123 0.0
H259 H 0.49379 0.11373 0.75624 0.0
H260 H 0.51911 0.09498 0.7673 0.0
H261 H 0.5635 0.03476 0.74625 0.0
H262 H 0.6069 0.05591 0.73739 0.0
H263 H 0.60998 0.1301 0.74313 0.0
H264 H 0.56646 0.10871 0.75218 0.0
H265 H 0.48442 0.03659 0.77299 0.0
H266 H 0.56621 0.06441 0.78231 0.0
O267 O 0.5142 0.0231 0.74595 0.0
H268 H 0.47867 0.02838 0.80093 0.0
H269 H 0.56075 0.05675 0.81045 0.0
C270 C 0.51114 0.06861 0.74624 0.0
C271 C 0.49906 0.06059 0.73059 0.0
C272 C 0.48453 0.07117 0.72425 0.0
C273 C 0.48201 0.0902 0.73341 0.0
C274 C 0.49492 0.09878 0.74896 0.0
C275 C 0.50947 0.08816 0.75529 0.0
C276 C 0.56154 0.07008 0.74953 0.0
C277 C 0.57351 0.05558 0.74565 0.0
C278 C 0.59831 0.0677 0.74053 0.0
C279 C 0.61175 0.09464 0.7393 0.0
C280 C 0.60016 0.10932 0.74395 0.0
C281 C 0.57523 0.09711 0.74904 0.0
C282 C 0.52577 0.05148 0.77562 0.0
C283 C 0.50126 0.04148 0.78116 0.0
C284 C 0.49802 0.03685 0.79718 0.0
C285 C 0.51925 0.04195 0.808 0.0
C286 C 0.54393 0.05237 0.80243 0.0
C287 C 0.54714 0.057 0.78635 0.0
P288 P 0.79322 0.60851 0.93687 0.0
H289 H 0.76897 0.57229 0.96088 0.0
H290 H 0.7255 0.55201 0.96963 0.0
H291 H 0.70153 0.58491 0.93227 0.0
H292 H 0.7449 0.6046 0.92339 0.0
H293 H 0.84629 0.63071 0.95118 0.0
H294 H 0.87311 0.61187 0.95862 0.0
H295 H 0.81014 0.53551 0.94084 0.0
H296 H 0.78353 0.55481 0.93302 0.0
H297 H 0.82835 0.65467 0.92224 0.0
H298 H 0.76641 0.57718 0.90633 0.0
O299 O 0.80517 0.63666 0.94824 0.0
H300 H 0.83406 0.66465 0.8946 0.0
H301 H 0.77155 0.58721 0.87842 0.0
C302 C 0.76001 0.58927 0.94113 0.0
C303 C 0.75415 0.57445 0.95424 0.0
C304 C 0.72933 0.56315 0.95938 0.0
C305 C 0.70995 0.56684 0.95168 0.0
C306 C 0.71578 0.58125 0.93832 0.0
C307 C 0.74062 0.59252 0.93319 0.0
C308 C 0.81267 0.59404 0.94201 0.0
C309 C 0.83818 0.6099 0.94894 0.0
C310 C 0.8535 0.59907 0.95322 0.0
C311 C 0.84366 0.5721 0.95058 0.0
C312 C 0.81834 0.55635 0.94303 0.0
C313 C 0.80302 0.56728 0.93869 0.0
C314 C 0.79648 0.61544 0.91632 0.0
C315 C 0.81569 0.63989 0.91277 0.0
C316 C 0.81889 0.6456 0.89692 0.0
C317 C 0.80301 0.62688 0.88425 0.0
C318 C 0.78413 0.60208 0.88787 0.0
C319 C 0.78101 0.59637 0.9038 0.0
P320 P 0.45781 0.23247 0.92456 0.0
H321 H 0.4733 0.25589 0.95755 0.0
H322 H 0.4678 0.28937 0.97223 0.0
H323 H 0.41945 0.28847 0.93166 0.0
H324 H 0.42489 0.25521 0.91711 0.0
H325 H 0.48125 0.20029 0.92044 0.0
H326 H 0.47797 0.16354 0.93379 0.0
H327 H 0.42332 0.16751 0.96368 0.0
H328 H 0.42681 0.2045 0.95024 0.0
H329 H 0.46542 0.25291 0.89354 0.0
H330 H 0.40677 0.18705 0.91433 0.0
O331 O 0.48878 0.2506 0.9212 0.0
H332 H 0.43839 0.23859 0.86807 0.0
H333 H 0.37938 0.17263 0.88881 0.0
C334 C 0.44943 0.25295 0.93629 0.0
C335 C 0.46098 0.26245 0.95199 0.0
C336 C 0.45778 0.28149 0.96037 0.0
C337 C 0.4433 0.29154 0.95302 0.0
C338 C 0.43086 0.28116 0.93754 0.0
C339 C 0.43393 0.26205 0.92924 0.0
C340 C 0.45479 0.20544 0.93464 0.0
C341 C 0.46864 0.19331 0.92991 0.0
C342 C 0.46655 0.17216 0.93745 0.0
C343 C 0.45041 0.16268 0.94981 0.0
C344 C 0.43615 0.17463 0.95434 0.0
C345 C 0.43816 0.19576 0.94669 0.0
C346 C 0.43831 0.22071 0.90567 0.0
C347 C 0.4468 0.23521 0.89256 0.0
C348 C 0.43121 0.22716 0.87807 0.0
C349 C 0.40674 0.2045 0.87645 0.0
C350 C 0.39826 0.19 0.88965 0.0
C351 C 0.41388 0.19819 0.90421 0.0
P352 P 0.791 0.15486 0.94116 0.0
H353 H 0.82892 0.18364 0.96878 0.0
H354 H 0.85538 0.23004 0.97756 0.0
H355 H 0.8219 0.24764 0.93653 0.0
H356 H 0.79555 0.2012 0.92779 0.0
H357 H 0.74002 0.1117 0.92799 0.0
H358 H 0.69692 0.09358 0.93738 0.0
H359 H 0.72867 0.15161 0.978 0.0
H360 H 0.77156 0.17006 0.96839 0.0
H361 H 0.82588 0.14629 0.92235 0.0
H362 H 0.75869 0.15475 0.91325 0.0
O363 O 0.80371 0.13886 0.95022 0.0
H364 H 0.82908 0.14244 0.89372 0.0
H365 H 0.76097 0.14975 0.88447 0.0
C366 C 0.81069 0.18903 0.94746 0.0
C367 C 0.8274 0.19749 0.96162 0.0
C368 C 0.84236 0.22399 0.96669 0.0
C369 C 0.84081 0.24249 0.95769 0.0
C370 C 0.82381 0.23388 0.94358 0.0
C371 C 0.80873 0.20734 0.93858 0.0
C372 C 0.75887 0.14282 0.94717 0.0
C373 C 0.73762 0.12098 0.93867 0.0
C374 C 0.71302 0.11056 0.94407 0.0
C375 C 0.70949 0.12134 0.95834 0.0
C376 C 0.73088 0.14299 0.96694 0.0
C377 C 0.75535 0.15364 0.96139 0.0
C378 C 0.79161 0.15003 0.91991 0.0
C379 C 0.81145 0.14674 0.91415 0.0
C380 C 0.81318 0.14443 0.89773 0.0
C381 C 0.79509 0.14545 0.88671 0.0
C382 C 0.77531 0.14898 0.89258 0.0
C383 C 0.77376 0.15151 0.90904 0.0
P384 P 0.66268 0.84566 0.07424 0.0
H385 H 0.66375 0.81739 0.04503 0.0
H386 H 0.64036 0.77115 0.03522 0.0
H387 H 0.60341 0.75306 0.07902 0.0
H388 H 0.62651 0.79915 0.08861 0.0
H389 H 0.67454 0.89824 0.06877 0.0
H390 H 0.64749 0.91643 0.05992 0.0
H391 H 0.57981 0.83978 0.05608 0.0
H392 H 0.60687 0.82179 0.06472 0.0
H393 H 0.69956 0.8423 0.09671 0.0
H394 H 0.63575 0.85687 0.09898 0.0
O395 O 0.69139 0.86115 0.06697 0.0
H396 H 0.70422 0.84394 0.12587 0.0
H397 H 0.64068 0.85923 0.12809 0.0
C398 C 0.64727 0.81159 0.06766 0.0
C399 C 0.65086 0.80339 0.05258 0.0
C400 C 0.6375 0.77701 0.047 0.0
C401 C 0.62007 0.75849 0.05637 0.0
C402 C 0.61653 0.76687 0.07148 0.0
C403 C 0.62997 0.7932 0.07705 0.0
C404 C 0.64283 0.85863 0.06704 0.0
C405 C 0.65391 0.88537 0.06586 0.0
C406 C 0.63841 0.89574 0.06093 0.0
C407 C 0.61152 0.87949 0.05721 0.0
C408 C 0.60051 0.85272 0.05857 0.0
C409 C 0.61601 0.84241 0.06353 0.0
C410 C 0.66765 0.84992 0.09571 0.0
C411 C 0.6869 0.84636 0.10352 0.0
C412 C 0.68955 0.84736 0.12018 0.0
C413 C 0.67285 0.85178 0.12932 0.0
C414 C 0.65369 0.85553 0.1214 0.0
C415 C 0.65103 0.85447 0.10474 0.0
P416 P 0.23452 0.76591 0.10779 0.0
H417 H 0.22883 0.72176 0.08749 0.0
H418 H 0.1924 0.68688 0.07027 0.0
H419 H 0.14618 0.72271 0.08005 0.0
H420 H 0.1827 0.75736 0.09749 0.0
H421 H 0.29006 0.80056 0.11448 0.0
H422 H 0.32244 0.83372 0.09976 0.0
H423 H 0.26207 0.82212 0.06367 0.0
H424 H 0.22979 0.78848 0.07838 0.0
H425 H 0.19987 0.73878 0.13133 0.0
H426 H 0.242 0.81757 0.11887 0.0
O427 O 0.24953 0.75163 0.11636 0.0
H428 H 0.18394 0.75294 0.1536 0.0
H429 H 0.22576 0.83193 0.14104 0.0
C430 C 0.20821 0.74171 0.09406 0.0
C431 C 0.21087 0.72213 0.08588 0.0
C432 C 0.19008 0.70232 0.07592 0.0
C433 C 0.16628 0.70188 0.07388 0.0
C434 C 0.16409 0.72223 0.0816 0.0
C435 C 0.18495 0.74206 0.09155 0.0
C436 C 0.25765 0.79175 0.09736 0.0
C437 C 0.2838 0.80519 0.10341 0.0
C438 C 0.30227 0.8243 0.09502 0.0
C439 C 0.29489 0.8305 0.08046 0.0
C440 C 0.26846 0.81749 0.07469 0.0
C441 C 0.24997 0.79834 0.08313 0.0
C442 C 0.22214 0.77709 0.12351 0.0
C443 C 0.2055 0.75913 0.13333 0.0
C444 C 0.19626 0.76725 0.14599 0.0
C445 C 0.2035 0.79359 0.1491 0.0
C446 C 0.22001 0.81155 0.13908 0.0
C447 C 0.22923 0.80335 0.12635 0.0
P448 P 0.20027 0.38806 0.08962 0.0
H449 H 0.14799 0.36121 0.07302 0.0
H450 H 0.11904 0.37623 0.06297 0.0
H451 H 0.17597 0.45502 0.08123 0.0
H452 H 0.20525 0.43975 0.09087 0.0
H453 H 0.21854 0.39687 0.05829 0.0
H454 H 0.26144 0.42145 0.04902 0.0
H455 H 0.295 0.44891 0.09792 0.0
H456 H 0.25184 0.42441 0.10713 0.0
H457 H 0.1685 0.39313 0.11357 0.0
H458 H 0.2296 0.37437 0.11217 0.0
O459 O 0.18952 0.35828 0.08067 0.0
H460 H 0.16368 0.38272 0.14114 0.0
H461 H 0.22566 0.3649 0.14007 0.0
C462 C 0.17892 0.39944 0.08247 0.0
C463 C 0.15433 0.38174 0.0748 0.0
C464 C 0.13765 0.39035 0.06919 0.0
C465 C 0.14511 0.41687 0.07127 0.0
C466 C 0.16972 0.43453 0.07919 0.0
C467 C 0.18645 0.42585 0.08477 0.0
C468 C 0.23203 0.40841 0.08339 0.0
C469 C 0.23511 0.40835 0.06702 0.0
C470 C 0.25964 0.42253 0.06173 0.0
C471 C 0.28167 0.43703 0.07274 0.0
C472 C 0.27844 0.43763 0.08917 0.0
C473 C 0.25376 0.42361 0.09444 0.0
C474 C 0.19977 0.38501 0.11084 0.0
C475 C 0.1814 0.38744 0.1193 0.0
C476 C 0.17869 0.38151 0.13517 0.0
C477 C 0.19425 0.37291 0.14292 0.0
C478 C 0.21307 0.3711 0.13447 0.0
C479 C 0.21561 0.37686 0.11856 0.0
P480 P 0.45775 0.94068 0.27122 0.0
H481 H 0.43603 0.90749 0.2969 0.0
H482 H 0.39276 0.88586 0.30594 0.0
H483 H 0.36463 0.91147 0.26632 0.0
H484 H 0.40778 0.93235 0.25712 0.0
H485 H 0.51106 0.96302 0.28539 0.0
H486 H 0.53807 0.94426 0.29242 0.0
H487 H 0.47555 0.86815 0.27365 0.0
H488 H 0.44823 0.88711 0.26728 0.0
H489 H 0.46165 0.98446 0.25505 0.0
H490 H 0.45584 0.91053 0.24169 0.0
O491 O 0.47008 0.96899 0.28247 0.0
H492 H 0.46559 0.99446 0.22729 0.0
H493 H 0.46043 0.92065 0.21391 0.0
C494 C 0.42502 0.92098 0.2761 0.0
C495 C 0.42039 0.90783 0.28991 0.0
C496 C 0.39567 0.89574 0.29519 0.0
C497 C 0.37516 0.89696 0.2869 0.0
C498 C 0.37981 0.90974 0.27286 0.0
C499 C 0.40454 0.92174 0.26757 0.0
C500 C 0.47751 0.92639 0.27607 0.0
C501 C 0.50309 0.94227 0.28288 0.0
C502 C 0.51865 0.93151 0.28673 0.0
C503 C 0.50907 0.90463 0.28361 0.0
C504 C 0.48348 0.88884 0.27647 0.0
C505 C 0.46785 0.89965 0.27274 0.0
C506 C 0.45906 0.94701 0.25051 0.0
C507 C 0.46135 0.97041 0.24615 0.0
C508 C 0.46371 0.97615 0.23026 0.0
C509 C 0.46371 0.95853 0.21838 0.0
C510 C 0.46042 0.93464 0.22273 0.0
C511 C 0.45801 0.9289 0.23865 0.0
P512 P 0.11465 0.55591 0.25866 0.0
H513 H 0.15173 0.60084 0.28019 0.0
H514 H 0.14808 0.63427 0.29606 0.0
H515 H 0.06593 0.59505 0.28108 0.0
H516 H 0.06989 0.56179 0.26498 0.0
H517 H 0.11223 0.50756 0.24793 0.0
H518 H 0.10891 0.47132 0.26191 0.0
H519 H 0.10136 0.50703 0.30591 0.0
H520 H 0.10509 0.54341 0.29188 0.0
H521 H 0.11965 0.58052 0.22927 0.0
H522 H 0.06249 0.5118 0.24855 0.0
O523 O 0.14504 0.56969 0.25378 0.0
H524 H 0.09166 0.56831 0.20427 0.0
H525 H 0.03416 0.49949 0.22356 0.0
C526 C 0.11123 0.57933 0.2711 0.0
C527 C 0.13293 0.59943 0.28034 0.0
C528 C 0.13075 0.61836 0.28956 0.0
C529 C 0.10672 0.61737 0.28977 0.0
C530 C 0.08476 0.59653 0.28097 0.0
C531 C 0.08699 0.57755 0.27176 0.0
C532 C 0.10879 0.52805 0.26883 0.0
C533 C 0.10946 0.50736 0.26053 0.0
C534 C 0.10741 0.4866 0.26853 0.0
C535 C 0.10484 0.4863 0.28502 0.0
C536 C 0.10354 0.50683 0.29323 0.0
C537 C 0.10554 0.52759 0.28519 0.0
C538 C 0.09341 0.54671 0.24054 0.0
C539 C 0.10105 0.56277 0.22809 0.0
C540 C 0.08491 0.55589 0.21388 0.0
C541 C 0.06073 0.53287 0.21193 0.0
C542 C 0.05284 0.51713 0.22463 0.0
C543 C 0.06901 0.52412 0.2389 0.0
P544 P 0.4606 0.49972 0.27147 0.0
H545 H 0.51518 0.53339 0.28304 0.0
H546 H 0.54127 0.58003 0.29112 0.0
H547 H 0.4733 0.58766 0.28254 0.0
H548 H 0.44729 0.54095 0.27462 0.0
H549 H 0.44101 0.47528 0.30042 0.0
H550 H 0.39853 0.45644 0.3105 0.0
H551 H 0.36882 0.47659 0.26885 0.0
H552 H 0.41133 0.49476 0.25866 0.0
H553 H 0.4883 0.53525 0.24762 0.0
H554 H 0.42905 0.45503 0.24801 0.0
O555 O 0.4756 0.48441 0.27855 0.0
H556 H 0.48761 0.52889 0.21881 0.0
H557 H 0.42792 0.4486 0.21888 0.0
C558 C 0.4792 0.53363 0.27863 0.0
C559 C 0.50583 0.54504 0.28311 0.0
C560 C 0.52078 0.57175 0.28754 0.0
C561 C 0.50933 0.58752 0.28748 0.0
C562 C 0.4826 0.57597 0.28293 0.0
C563 C 0.4677 0.54926 0.27843 0.0
C564 C 0.4291 0.48582 0.27864 0.0
C565 C 0.42529 0.47546 0.29341 0.0
C566 C 0.40104 0.46497 0.29925 0.0
C567 C 0.38019 0.46494 0.29048 0.0
C568 C 0.38431 0.47589 0.27579 0.0
C569 C 0.40859 0.48631 0.26994 0.0
C570 C 0.4584 0.49569 0.24997 0.0
C571 C 0.47476 0.51634 0.24151 0.0
C572 C 0.47429 0.5127 0.22495 0.0
C573 C 0.45757 0.48828 0.21651 0.0
C574 C 0.44111 0.46761 0.22504 0.0
C575 C 0.4416 0.4713 0.24165 0.0
Eu576 Eu 0.47777 0.97596 0.99364 0.0
Eu577 Eu 0.49829 0.00923 0.02949 0.0
C578 C 0.4736 0.02703 1.00194 0.0
C579 C 0.46836 0.96263 0.94865 0.0
C580 C 0.48471 0.9892 0.94736 0.0
C581 C 0.46297 0.95456 0.91969 0.0
C582 C 0.49032 0.99839 0.93234 0.0
C583 C 0.45743 0.94538 0.93474 0.0
C584 C 0.47963 0.98117 0.9183 0.0
C585 C 0.46348 0.95286 0.96448 0.0
O586 O 0.45527 0.98208 0.02879 0.0
O587 O 0.45017 0.94973 0.01027 0.0
C588 C 0.4422 0.95788 0.02237 0.0
O589 O 0.50421 0.96402 1.00599 0.0
O590 O 0.49311 0.03115 0.04919 0.0
O591 O 0.52565 0.02443 0.05097 0.0
O592 O 0.49846 0.97188 0.03192 0.0
C593 C 0.50615 0.96095 0.02123 0.0
O594 O 0.51363 0.01334 0.99023 0.0
O595 O 0.53361 0.0242 0.01589 0.0
O596 O 0.49267 0.03516 0.01331 0.0
O597 O 0.4838 0.95605 0.97321 0.0
O598 O 0.44905 0.9589 0.97273 0.0
O599 O 0.46134 0.00285 0.99548 0.0
C600 C 0.50655 0.02471 0.07456 0.0
C601 C 0.48808 -0.001 0.07663 0.0
C602 C 0.51478 0.0348 0.10337 0.0
C603 C 0.48299 0.99123 0.09201 0.0
C604 C 0.51982 0.04254 0.08798 0.0
C605 C 0.49636 0.00902 0.10557 0.0
C606 C 0.51235 0.03292 0.05846 0.0
C607 C 0.53445 0.02612 1.00042 0.0
H608 H 0.49341 0.00281 0.95799 0.0
H609 H 0.45409 0.9408 0.90914 0.0
H610 H 0.50348 0.01892 0.93177 0.0
H611 H 0.44475 0.92481 0.93552 0.0
H612 H 0.47773 0.98494 0.06635 0.0
H613 H 0.52516 0.04907 0.11353 0.0
H614 H 0.4689 0.97119 0.09328 0.0
H615 H 0.53411 0.06247 0.08658 0.0
Eu616 Eu 0.00209 0.4883 0.99069 0.0
Eu617 Eu 0.97135 0.47754 0.02326 0.0
C618 C 0.95439 0.43305 0.99546 0.0
C619 C 0.02589 0.50555 0.94907 0.0
C620 C 0.00637 0.51058 0.9434 0.0
C621 C 0.04471 0.51577 0.92389 0.0
C622 C 0.00577 0.51772 0.92789 0.0
C623 C 0.04526 0.50863 0.93936 0.0
C624 C 0.02469 0.51993 0.91786 0.0
C625 C 0.02529 0.49509 0.96451 0.0
O626 O 0.99916 0.46257 0.02742 0.0
O627 O 0.02785 0.48295 0.00891 0.0
C628 C 0.02141 0.46982 0.02152 0.0
O629 O 0.01564 0.52744 1.00421 0.0
O630 O 0.95001 0.45168 0.041 0.0
O631 O 0.95615 0.49085 0.04224 0.0
O632 O 0.00989 0.51384 0.02927 0.0
C633 C 0.02099 0.5323 0.01981 0.0
O634 O 0.96693 0.49178 0.98356 0.0
O635 O 0.95688 0.49905 0.00858 0.0
O636 O 0.94559 0.44506 1.00444 0.0
O637 O 0.03488 0.51166 0.97724 0.0
O638 O 0.00382 0.4742 0.96667 0.0
O639 O 0.97858 0.4451 0.99221 0.0
C640 C 0.95747 0.47388 0.06643 0.0
C641 C 0.98391 0.4841 0.07109 0.0
C642 C 0.9493 0.47401 0.09431 0.0
C643 C 0.99305 0.4895 0.08727 0.0
C644 C 0.94017 0.46867 0.07808 0.0
C645 C 0.9759 0.48478 0.09906 0.0
C646 C 0.94822 0.46973 0.04944 0.0
C647 C 0.9544 0.4991 0.99297 0.0
H648 H 0.99126 0.50831 0.9508 0.0
H649 H 0.05936 0.51693 0.91644 0.0
H650 H 0.99027 0.52108 0.92365 0.0
H651 H 0.06038 0.50467 0.94356 0.0
H652 H 0.9975 0.48819 0.0622 0.0
H653 H 0.93567 0.47036 0.10312 0.0
H654 H 0.01358 0.49741 0.09056 0.0
H655 H 0.9197 0.46086 0.07463 0.0
Eu656 Eu 0.5096 0.51011 0.02927 0.0
Eu657 Eu 0.4865 0.52011 0.99533 0.0
C658 C 0.52201 0.56624 0.02125 0.0
C659 C 0.51559 0.4956 0.0722 0.0
C660 C 0.48902 0.48567 0.07329 0.0
C661 C 0.52191 0.49353 0.10068 0.0
C662 C 0.47898 0.47994 0.08806 0.0
C663 C 0.5319 0.49921 0.08591 0.0
C664 C 0.49539 0.48416 0.10198 0.0
C665 C 0.52676 0.50418 0.05713 0.0
O666 O 0.52752 0.53001 0.9918 0.0
O667 O 0.53648 0.50972 0.01171 0.0
C668 C 0.54192 0.52132 0.99848 0.0
O669 O 0.47973 0.47064 0.01748 0.0
O670 O 0.49081 0.54579 0.97678 0.0
O671 O 0.45722 0.50721 0.97494 0.0
O672 O 0.48334 0.48098 0.9916 0.0
C673 C 0.4764 0.46378 1.00206 0.0
O674 O 0.47428 0.51227 0.03516 0.0
O675 O 0.45256 0.50337 0.0101 0.0
O676 O 0.49941 0.55525 0.01279 0.0
O677 O 0.51811 0.48659 0.04491 0.0
O678 O 0.52865 0.52596 0.05334 0.0
O679 O 0.53264 0.55236 0.02519 0.0
C680 C 0.47632 0.52251 0.95141 0.0
C681 C 0.4907 0.5099 0.94934 0.0
C682 C 0.47286 0.52489 0.92274 0.0
C683 C 0.49598 0.50465 0.93409 0.0
C684 C 0.4675 0.53008 0.93807 0.0
C685 C 0.48701 0.51194 0.92059 0.0
C686 C 0.47089 0.52775 0.96757 0.0
C687 C 0.45303 0.50519 0.02577 0.0
H688 H 0.47617 0.4829 0.06279 0.0
H689 H 0.53518 0.49742 0.11116 0.0
H690 H 0.45844 0.4725 0.08861 0.0
H691 H 0.5525 0.50711 0.08527 0.0
H692 H 0.49786 0.50411 0.95955 0.0
H693 H 0.46558 0.53061 0.91256 0.0
H694 H 0.50731 0.49507 0.93288 0.0
H695 H 0.45643 0.5399 0.93949 0.0
Eu696 Eu 0.15129 0.30898 0.32823 0.0
Eu697 Eu 0.17247 0.34649 0.36278 0.0
C698 C 0.14361 0.35808 0.334 0.0
C699 C 0.14363 0.29259 0.28367 0.0
C700 C 0.16714 0.31506 0.28187 0.0
C701 C 0.13193 0.28777 0.25502 0.0
C702 C 0.17309 0.32373 0.26676 0.0
C703 C 0.12608 0.27902 0.27015 0.0
C704 C 0.15551 0.31028 0.25312 0.0
C705 C 0.13695 0.28398 0.29966 0.0
O706 O 0.13958 0.30812 0.36781 0.0
O707 O 0.11705 0.29299 0.3429 0.0
C708 C 0.11814 0.293 0.35855 0.0
O709 O 0.16288 0.28737 0.34491 0.0
O710 O 0.16546 0.3672 0.3823 0.0
O711 O 0.20146 0.36669 0.38333 0.0
O712 O 0.19246 0.32286 0.36174 0.0
C713 C 0.18294 0.29865 0.35576 0.0
O714 O 0.19379 0.33732 0.32763 0.0
O715 O 0.19977 0.37101 0.34545 0.0
O716 O 0.14518 0.35641 0.34944 0.0
O717 O 0.15566 0.28531 0.30927 0.0
O718 O 0.1235 0.29258 0.30689 0.0
O719 O 0.1511 0.34584 0.32415 0.0
C720 C 0.18227 0.36382 0.40736 0.0
C721 C 0.16655 0.33741 0.40939 0.0
C722 C 0.18842 0.37397 0.43619 0.0
C723 C 0.16151 0.32935 0.42469 0.0
C724 C 0.19331 0.38204 0.42083 0.0
C725 C 0.17225 0.34755 0.43827 0.0
C726 C 0.18637 0.37228 0.39118 0.0
C727 C 0.20724 0.36179 0.33358 0.0
H728 H 0.1809 0.326 0.29217 0.0
H729 H 0.11772 0.27714 0.24487 0.0
H730 H 0.19157 0.34089 0.26578 0.0
H731 H 0.10771 0.26181 0.27133 0.0
H732 H 0.15799 0.32303 0.39913 0.0
H733 H 0.19682 0.38847 0.44641 0.0
H734 H 0.14928 0.30884 0.42589 0.0
H735 H 0.20544 0.40252 0.41947 0.0
Eu736 Eu 0.67589 0.83118 0.32424 0.0
Eu737 Eu 0.64478 0.82083 0.35662 0.0
C738 C 0.6255 0.77666 0.32695 0.0
C739 C 0.69709 0.84168 0.28177 0.0
C740 C 0.67201 0.8315 0.27412 0.0
C741 C 0.71495 0.85506 0.25661 0.0
C742 C 0.66843 0.83301 0.25772 0.0
C743 C 0.71848 0.85344 0.27295 0.0
C744 C 0.6899 0.84489 0.24881 0.0
C745 C 0.70143 0.84071 0.29897 0.0
O746 O 0.68182 0.82111 0.36411 0.0
O747 O 0.68894 0.80892 0.33946 0.0
C748 C 0.69305 0.81159 0.35514 0.0
O749 O 0.70284 0.86256 0.34339 0.0
O750 O 0.62549 0.7956 0.37501 0.0
O751 O 0.62728 0.83283 0.37493 0.0
O752 O 0.67239 0.86395 0.35796 0.0
C753 C 0.69604 0.87483 0.35373 0.0
O754 O 0.64936 0.84787 0.32088 0.0
O755 O 0.61879 0.8239 0.3375 0.0
O756 O 0.62958 0.78198 0.34254 0.0
O757 O 0.70079 0.85859 0.30831 0.0
O758 O 0.68946 0.81785 0.30427 0.0
O759 O 0.63777 0.79454 0.31731 0.0
C760 C 0.62985 0.81783 0.39985 0.0
C761 C 0.65582 0.82656 0.40513 0.0
C762 C 0.62 0.81758 0.42741 0.0
C763 C 0.66379 0.83051 0.42145 0.0
C764 C 0.61201 0.8135 0.41104 0.0
C765 C 0.64594 0.82589 0.43277 0.0
C766 C 0.62126 0.81255 0.38271 0.0
C767 C 0.62627 0.8391 0.32588 0.0
H768 H 0.65528 0.82251 0.28083 0.0
H769 H 0.73183 0.864 0.25004 0.0
H770 H 0.64892 0.82523 0.25206 0.0
H771 H 0.73797 0.8614 0.27872 0.0
H772 H 0.66986 0.8301 0.3966 0.0
H773 H 0.60581 0.81372 0.43586 0.0
H774 H 0.68398 0.83731 0.42522 0.0
H775 H 0.59187 0.80671 0.40712 0.0
Eu776 Eu 0.17202 0.83616 0.3624 0.0
Eu777 Eu 0.15061 0.84703 0.32811 0.0
C778 C 0.18558 0.89296 0.35455 0.0
C779 C 0.17744 0.82212 0.40585 0.0
C780 C 0.16144 0.83118 0.41163 0.0
C781 C 0.17659 0.80306 0.43073 0.0
C782 C 0.15357 0.82673 0.42701 0.0
C783 C 0.18462 0.80771 0.41539 0.0
C784 C 0.16135 0.81292 0.43686 0.0
C785 C 0.18763 0.82846 0.39022 0.0
O786 O 0.19191 0.85728 0.32553 0.0
O787 O 0.19923 0.83551 0.34514 0.0
C788 C 0.20565 0.84793 0.33224 0.0
O789 O 0.14106 0.79753 0.35011 0.0
O790 O 0.15571 0.87227 0.30914 0.0
O791 O 0.12161 0.83405 0.30758 0.0
O792 O 0.14825 0.80824 0.3246 0.0
C793 C 0.1395 0.79072 0.33482 0.0
O794 O 0.13802 0.84081 0.36802 0.0
O795 O 0.1165 0.83115 0.34284 0.0
O796 O 0.16379 0.88262 0.34523 0.0
O797 O 0.17623 0.8103 0.37835 0.0
O798 O 0.19298 0.85123 0.38605 0.0
O799 O 0.19545 0.87868 0.35912 0.0
C800 C 0.14081 0.84852 0.28386 0.0
C801 C 0.15083 0.83179 0.28141 0.0
C802 C 0.14213 0.85515 0.25564 0.0
C803 C 0.15625 0.82658 0.26617 0.0
C804 C 0.13655 0.86024 0.27092 0.0
C805 C 0.15194 0.83816 0.2531 0.0
C806 C 0.13564 0.85425 0.30002 0.0
C807 C 0.11693 0.83385 0.3585 0.0
H808 H 0.15553 0.84224 0.40442 0.0
H809 H 0.18251 0.7919 0.43782 0.0
H810 H 0.1421 0.83487 0.43134 0.0
H811 H 0.1968 0.8004 0.41108 0.0
H812 H 0.1546 0.82284 0.29132 0.0
H813 H 0.13848 0.86424 0.24578 0.0
H814 H 0.16419 0.81377 0.26467 0.0
H815 H 0.12898 0.87333 0.27263 0.0
Eu816 Eu 0.81839 0.64332 0.66154 0.0
Eu817 Eu 0.83866 0.67968 0.69644 0.0
C818 C 0.81247 0.6934 0.66712 0.0
C819 C 0.81037 0.62633 0.61686 0.0
C820 C 0.83619 0.64301 0.61399 0.0
C821 C 0.79657 0.62723 0.58924 0.0
C822 C 0.84215 0.65165 0.59888 0.0
C823 C 0.79064 0.61844 0.60434 0.0
C824 C 0.82239 0.64401 0.58636 0.0
C825 C 0.80367 0.61827 0.633 0.0
O826 O 0.80601 0.64063 0.7007 0.0
O827 O 0.78373 0.62875 0.67583 0.0
C828 C 0.78443 0.62695 0.69131 0.0
O829 O 0.82978 0.62123 0.67798 0.0
O830 O 0.82942 0.69811 0.71613 0.0
O831 O 0.86698 0.7008 0.71713 0.0
O832 O 0.85824 0.65569 0.69594 0.0
C833 C 0.84908 0.63184 0.68938 0.0
O834 O 0.8608 0.67182 0.66079 0.0
O835 O 0.86783 0.70439 0.68004 0.0
O836 O 0.813 0.69109 0.68252 0.0
O837 O 0.82195 0.61891 0.64268 0.0
O838 O 0.79068 0.62751 0.64014 0.0
O839 O 0.81982 0.68089 0.65739 0.0
C840 C 0.84744 0.69647 0.74122 0.0
C841 C 0.8404 0.67082 0.74391 0.0
C842 C 0.84454 0.70555 0.76927 0.0
C843 C 0.83543 0.66257 0.7592 0.0
C844 C 0.84961 0.7138 0.75399 0.0
C845 C 0.8372 0.67978 0.77203 0.0
C846 C 0.85081 0.70473 0.72498 0.0
C847 C 0.87492 0.6957 0.6677 0.0
H848 H 0.85179 0.64968 0.62348 0.0
H849 H 0.78095 0.62082 0.57979 0.0
H850 H 0.86218 0.66481 0.59711 0.0
H851 H 0.7706 0.60569 0.6063 0.0
H852 H 0.83831 0.65707 0.73412 0.0
H853 H 0.84637 0.71936 0.77893 0.0
H854 H 0.82955 0.64254 0.76089 0.0
H855 H 0.85488 0.73362 0.7521 0.0
Eu856 Eu 0.33991 0.16696 0.65726 0.0
Eu857 Eu 0.30858 0.15145 0.6895 0.0
C858 C 0.28941 0.11067 0.65853 0.0
C859 C 0.3613 0.17695 0.6146 0.0
C860 C 0.33624 0.16351 0.60662 0.0
C861 C 0.37929 0.18643 0.58915 0.0
C862 C 0.33273 0.16164 0.58991 0.0
C863 C 0.38275 0.18826 0.6058 0.0
C864 C 0.35424 0.17319 0.58099 0.0
C865 C 0.3656 0.18023 0.63209 0.0
O866 O 0.33515 0.1346 0.69063 0.0
O867 O 0.36612 0.16246 0.67563 0.0
C868 C 0.35867 0.14528 0.68614 0.0
O869 O 0.35433 0.20402 0.67336 0.0
O870 O 0.28787 0.12355 0.70644 0.0
O871 O 0.29274 0.16217 0.70932 0.0
O872 O 0.34696 0.18707 0.69745 0.0
C873 C 0.35894 0.20677 0.68899 0.0
O874 O 0.30229 0.16599 0.65059 0.0
O875 O 0.29464 0.17459 0.67595 0.0
O876 O 0.2821 0.12071 0.67001 0.0
O877 O 0.35719 0.1941 0.6394 0.0
O878 O 0.36097 0.15965 0.63921 0.0
O879 O 0.3126 0.12357 0.65362 0.0
C880 C 0.29584 0.14373 0.73253 0.0
C881 C 0.32225 0.15261 0.73641 0.0
C882 C 0.28983 0.14418 0.76078 0.0
C883 C 0.33246 0.15754 0.75236 0.0
C884 C 0.27961 0.13928 0.74476 0.0
C885 C 0.31645 0.15373 0.76473 0.0
C886 C 0.28574 0.14053 0.71578 0.0
C887 C 0.29054 0.17374 0.66036 0.0
H888 H 0.31947 0.15468 0.6133 0.0
H889 H 0.39624 0.19591 0.58269 0.0
H890 H 0.31321 0.1511 0.58398 0.0
H891 H 0.40222 0.19884 0.61183 0.0
H892 H 0.33504 0.15614 0.72707 0.0
H893 H 0.27708 0.14126 0.77005 0.0
H894 H 0.35296 0.1645 0.75503 0.0
H895 H 0.25919 0.13253 0.74192 0.0
Eu896 Eu 0.83999 0.17335 0.69629 0.0
Eu897 Eu 0.81796 0.18451 0.66242 0.0
C898 C 0.85199 0.22994 0.68929 0.0
C899 C 0.84558 0.15921 0.73961 0.0
C900 C 0.83028 0.16899 0.74561 0.0
C901 C 0.8436 0.139 0.76416 0.0
C902 C 0.82223 0.16433 0.76093 0.0
C903 C 0.85186 0.14389 0.74889 0.0
C904 C 0.82907 0.14956 0.77051 0.0
C905 C 0.85588 0.16563 0.72401 0.0
O906 O 0.8595 0.19592 0.65968 0.0
O907 O 0.86783 0.17427 0.67895 0.0
C908 C 0.87375 0.18692 0.66611 0.0
O909 O 0.81046 0.13458 0.68347 0.0
O910 O 0.82161 0.21099 0.64454 0.0
O911 O 0.78999 0.17122 0.64127 0.0
O912 O 0.81706 0.14644 0.65813 0.0
C913 C 0.80914 0.12849 0.6681 0.0
O914 O 0.80484 0.17599 0.70199 0.0
O915 O 0.78357 0.16639 0.67675 0.0
O916 O 0.83 0.21922 0.68015 0.0
O917 O 0.84452 0.14751 0.71212 0.0
O918 O 0.86122 0.18842 0.71987 0.0
O919 O 0.86253 0.21605 0.69342 0.0
C920 C 0.8104 0.18968 0.61864 0.0
C921 C 0.82771 0.18039 0.6168 0.0
C922 C 0.80806 0.19348 0.59009 0.0
C923 C 0.83522 0.17773 0.60174 0.0
C924 C 0.8006 0.19622 0.60523 0.0
C925 C 0.82553 0.18427 0.5882 0.0
C926 C 0.80305 0.19273 0.63462 0.0
C927 C 0.78364 0.16835 0.6924 0.0
H928 H 0.82503 0.18074 0.7386 0.0
H929 H 0.84878 0.12709 0.77103 0.0
H930 H 0.81133 0.17303 0.76542 0.0
H931 H 0.86347 0.136 0.7444 0.0
H932 H 0.83538 0.17515 0.62704 0.0
H933 H 0.80041 0.19885 0.57991 0.0
H934 H 0.84833 0.17017 0.60069 0.0
H935 H 0.78728 0.20349 0.60647 0.0
H936 H 0.29747 0.82828 0.04802 0.0
H937 H 0.33767 0.87677 0.09197 0.0
H938 H 0.33128 0.85943 0.03306 0.0
H939 H 0.37196 0.9072 0.07715 0.0
H940 H 0.418 0.96909 0.04548 0.0
H941 H 0.38101 0.93893 0.05855 0.0
H942 H 0.37623 0.87457 0.02902 0.0
H943 H 0.41298 0.90491 0.01558 0.0
C944 C 0.31341 0.84566 0.05448 0.0
C945 C 0.31486 0.84999 0.07121 0.0
C946 C 0.33297 0.86335 0.04592 0.0
C947 C 0.3544 0.8858 0.05389 0.0
C948 C 0.35561 0.89029 0.07058 0.0
C949 C 0.33608 0.87266 0.07912 0.0
C950 C 0.40899 0.94853 0.04165 0.0
C951 C 0.41857 0.93943 0.0295 0.0
C952 C 0.38783 0.9312 0.04924 0.0
C953 C 0.37575 0.90428 0.04496 0.0
C954 C 0.38489 0.89519 0.03252 0.0
C955 C 0.40605 0.91259 0.02485 0.0
H956 H 0.09235 0.39307 0.07156 0.0
H957 H 0.15749 0.4612 0.05671 0.0
H958 H 0.06298 0.40632 0.0598 0.0
H959 H 0.12819 0.47517 0.04566 0.0
H960 H 0.06628 0.47553 0.01091 0.0
H961 H 0.0962 0.4636 0.0235 0.0
H962 H 0.0489 0.43749 0.0628 0.0
H963 H 0.01857 0.44877 0.04999 0.0
C964 C 0.10045 0.41094 0.06583 0.0
C965 C 0.12733 0.42594 0.06499 0.0
C966 C 0.08359 0.41873 0.05926 0.0
C967 C 0.09315 0.44182 0.05173 0.0
C968 C 0.12008 0.4571 0.05117 0.0
C969 C 0.13695 0.44925 0.0577 0.0
C970 C 0.06225 0.46727 0.02224 0.0
C971 C 0.03991 0.46299 0.02937 0.0
C972 C 0.07954 0.46059 0.02954 0.0
C973 C 0.07503 0.44957 0.04419 0.0
C974 C 0.05281 0.44555 0.0514 0.0
C975 C 0.03545 0.45212 0.04407 0.0
H976 H 0.56878 0.72417 0.05798 0.0
H977 H 0.63825 0.72973 0.04124 0.0
H978 H 0.54496 0.6778 0.04909 0.0
H979 H 0.61425 0.68345 0.03196 0.0
H980 H 0.57069 0.59555 0.0366 0.0
H981 H 0.59411 0.64214 0.04442 0.0
H982 H 0.52905 0.64785 0.02421 0.0
H983 H 0.50536 0.60105 0.0165 0.0
C984 C 0.57894 0.71547 0.05239 0.0
C985 C 0.60541 0.73054 0.05039 0.0
C986 C 0.56524 0.68899 0.04714 0.0
C987 C 0.57775 0.67699 0.03986 0.0
C988 C 0.60415 0.69212 0.03769 0.0
C989 C 0.61783 0.71864 0.04286 0.0
C990 C 0.56133 0.60669 0.03381 0.0
C991 C 0.53613 0.59457 0.02594 0.0
C992 C 0.57485 0.63344 0.0382 0.0
C993 C 0.56345 0.64866 0.03489 0.0
C994 C 0.53824 0.63656 0.02704 0.0
C995 C 0.52473 0.60979 0.02257 0.0
H996 H 0.84952 0.26652 0.98787 0.0
H997 H 0.86847 0.28204 0.93949 0.0
H998 H 0.87673 0.31275 0.99671 0.0
H999 H 0.89528 0.32837 0.94827 0.0
H1000 H 0.96453 0.40322 0.97444 0.0
H1001 H 0.93664 0.35732 0.96513 0.0
H1002 H 0.87743 0.35437 0.99351 0.0
H1003 H 0.90535 0.40022 1.00295 0.0
C1004 C 0.85953 0.27982 0.97914 0.0
C1005 C 0.85691 0.27066 0.96299 0.0
C1006 C 0.87489 0.30631 0.98416 0.0
C1007 C 0.88813 0.32418 0.97318 0.0
C1008 C 0.88548 0.31503 0.95703 0.0
C1009 C 0.86995 0.28856 0.95198 0.0
C1010 C 0.94555 0.39282 0.97868 0.0
C1011 C 0.9372 0.40538 0.98947 0.0
C1012 C 0.92952 0.36655 0.97327 0.0
C1013 C 0.90486 0.35224 0.97861 0.0
C1014 C 0.89645 0.36483 0.98932 0.0
C1015 C 0.9124 0.39114 0.99465 0.0
H1016 H 0.66162 0.54494 0.93515 0.0
H1017 H 0.7005 0.56759 0.98307 0.0
H1018 H 0.62031 0.53188 0.94599 0.0
H1019 H 0.65936 0.55456 0.99386 0.0
H1020 H 0.57843 0.50902 0.00935 0.0
H1021 H 0.61791 0.51747 0.9976 0.0
H1022 H 0.59863 0.55205 0.95917 0.0
H1023 H 0.55891 0.54314 0.97068 0.0
C1024 C 0.66138 0.54714 0.94799 0.0
C1025 C 0.68443 0.5573 0.95822 0.0
C1026 C 0.63769 0.53967 0.95421 0.0
C1027 C 0.63647 0.54219 0.97081 0.0
C1028 C 0.65946 0.55193 0.98104 0.0
C1029 C 0.68311 0.55939 0.97483 0.0
C1030 C 0.5825 0.51829 0.99834 0.0
C1031 C 0.5655 0.52553 0.99104 0.0
C1032 C 0.60524 0.52327 0.99165 0.0
C1033 C 0.61156 0.53556 0.97747 0.0
C1034 C 0.59428 0.5423 0.96999 0.0
C1035 C 0.57155 0.53736 0.97669 0.0
H1036 H 0.44634 0.11784 0.93635 0.0
H1037 H 0.45183 0.15825 0.98196 0.0
H1038 H 0.44905 0.08407 0.94998 0.0
H1039 H 0.45373 0.12395 0.99565 0.0
H1040 H 0.49538 0.0789 0.01149 0.0
H1041 H 0.48614 0.11022 0.99961 0.0
H1042 H 0.42629 0.04868 0.96652 0.0
H1043 H 0.4358 0.01738 0.97817 0.0
C1044 C 0.44787 0.11935 0.9493 0.0
C1045 C 0.44912 0.1408 0.9581 0.0
C1046 C 0.44914 0.09986 0.95711 0.0
C1047 C 0.4517 0.1014 0.9739 0.0
C1048 C 0.45204 0.1224 0.9827 0.0
C1049 C 0.45069 0.14188 0.97487 0.0
C1050 C 0.48009 0.07198 1.00178 0.0
C1051 C 0.4665 0.04567 0.9957 0.0
C1052 C 0.47467 0.08993 0.99504 0.0
C1053 C 0.45556 0.08194 0.98208 0.0
C1054 C 0.44137 0.05548 0.97636 0.0
C1055 C 0.44677 0.03754 0.98309 0.0
H1056 H 0.66288 0.10836 0.94241 0.0
H1057 H 0.69829 0.10721 0.98832 0.0
H1058 H 0.62045 0.08786 0.95261 0.0
H1059 H 0.65592 0.08562 0.9984 0.0
H1060 H 0.57943 0.06465 0.01682 0.0
H1061 H 0.62137 0.08982 1.00664 0.0
H1062 H 0.58855 0.04809 0.95981 0.0
H1063 H 0.5465 0.02401 0.96983 0.0
C1064 C 0.66148 0.10354 0.95467 0.0
C1065 C 0.68379 0.10937 0.96459 0.0
C1066 C 0.63718 0.09167 0.96052 0.0
C1067 C 0.63459 0.08493 0.97636 0.0
C1068 C 0.65708 0.09094 0.98626 0.0
C1069 C 0.6814 0.10319 0.98048 0.0
C1070 C 0.58118 0.06105 1.00433 0.0
C1071 C 0.55966 0.04233 0.99415 0.0
C1072 C 0.60529 0.07535 0.99848 0.0
C1073 C 0.60855 0.07096 0.98238 0.0
C1074 C 0.58683 0.05242 0.97219 0.0
C1075 C 0.56266 0.03845 0.97797 0.0
H1076 H 0.84874 0.53287 0.93534 0.0
H1077 H 0.87463 0.58525 0.97862 0.0
H1078 H 0.87471 0.514 0.94504 0.0
H1079 H 0.90118 0.56724 0.98795 0.0
H1080 H 0.92241 0.51127 0.00852 0.0
H1081 H 0.89517 0.52755 0.99773 0.0
H1082 H 0.92006 0.52441 0.95091 0.0
H1083 H 0.94718 0.50749 0.9617 0.0
C1084 C 0.85995 0.54036 0.9469 0.0
C1085 C 0.8596 0.5606 0.95619 0.0
C1086 C 0.87504 0.52974 0.95238 0.0
C1087 C 0.88997 0.53904 0.9673 0.0
C1088 C 0.88966 0.55935 0.9765 0.0
C1089 C 0.87466 0.56992 0.97105 0.0
C1090 C 0.92213 0.51397 0.99591 0.0
C1091 C 0.93719 0.50822 0.98602 0.0
C1092 C 0.90655 0.52345 0.98973 0.0
C1093 C 0.90562 0.52758 0.97349 0.0
C1094 C 0.92021 0.5213 0.96346 0.0
C1095 C 0.93585 0.51172 0.96966 0.0
H1096 H 0.43451 0.30012 0.98382 0.0
H1097 H 0.45353 0.33546 0.93953 0.0
H1098 H 0.43768 0.33982 0.99651 0.0
H1099 H 0.45774 0.37516 0.95214 0.0
H1100 H 0.44918 0.43929 0.97348 0.0
H1101 H 0.43616 0.39544 0.96239 0.0
H1102 H 0.469 0.38307 1.00598 0.0
H1103 H 0.4806 0.42654 0.01737 0.0
C1104 C 0.43929 0.31638 0.97682 0.0
C1105 C 0.44356 0.3147 0.96068 0.0
C1106 C 0.44124 0.33914 0.98408 0.0
C1107 C 0.44786 0.36075 0.97536 0.0
C1108 C 0.45191 0.35879 0.95917 0.0
C1109 C 0.44961 0.33603 0.95191 0.0
C1110 C 0.45325 0.42701 0.98076 0.0
C1111 C 0.46612 0.43633 0.9962 0.0
C1112 C 0.44596 0.40193 0.97438 0.0
C1113 C 0.45199 0.3858 0.98314 0.0
C1114 C 0.46383 0.39478 0.99891 0.0
C1115 C 0.47062 0.41975 1.00543 0.0
H1116 H 0.11615 0.67656 0.08125 0.0
H1117 H 0.16491 0.67625 0.04538 0.0
H1118 H 0.07957 0.63747 0.06722 0.0
H1119 H 0.1285 0.63656 0.03165 0.0
H1120 H 0.05197 0.57484 1.00436 0.0
H1121 H 0.08568 0.6177 0.01644 0.0
H1122 H 0.06832 0.59208 0.06346 0.0
H1123 H 0.03453 0.54961 0.05149 0.0
C1124 C 0.119 0.66836 0.07025 0.0
C1125 C 0.14351 0.67947 0.06448 0.0
C1126 C 0.09809 0.64577 0.06231 0.0
C1127 C 0.10117 0.63375 0.0484 0.0
C1128 C 0.12542 0.64541 0.04228 0.0
C1129 C 0.14636 0.668 0.05024 0.0
C1130 C 0.05521 0.57844 0.01727 0.0
C1131 C 0.04058 0.55875 0.02695 0.0
C1132 C 0.07461 0.60295 0.02419 0.0
C1133 C 0.07968 0.60831 0.04091 0.0
C1134 C 0.06468 0.58875 0.05054 0.0
C1135 C 0.04541 0.56429 0.04366 0.0
H1136 H 0.29698 0.46643 0.04745 0.0
H1137 H 0.32558 0.43775 0.08496 0.0
H1138 H 0.33893 0.48541 0.03672 0.0
H1139 H 0.3674 0.45623 0.07409 0.0
H1140 H 0.44634 0.5084 0.05762 0.0
H1141 H 0.40598 0.49488 0.06963 0.0
H1142 H 0.3639 0.47141 0.02258 0.0
H1143 H 0.40427 0.48564 0.01057 0.0
C1144 C 0.31226 0.46419 0.0534 0.0
C1145 C 0.3079 0.45049 0.06702 0.0
C1146 C 0.3363 0.47498 0.04722 0.0
C1147 C 0.35659 0.4722 0.05443 0.0
C1148 C 0.35241 0.4591 0.06832 0.0
C1149 C 0.3284 0.44845 0.07457 0.0
C1150 C 0.42851 0.50057 0.04982 0.0
C1151 C 0.42863 0.49814 0.0331 0.0
C1152 C 0.40529 0.49263 0.05673 0.0
C1153 C 0.38157 0.48196 0.04712 0.0
C1154 C 0.38178 0.4799 0.03039 0.0
C1155 C 0.40499 0.48794 0.02348 0.0
H1156 H 0.57205 0.85959 0.03312 0.0
H1157 H 0.61348 0.92396 0.06969 0.0
H1158 H 0.54448 0.87728 0.0248 0.0
H1159 H 0.58645 0.94207 0.06105 0.0
H1160 H 0.51727 0.95383 0.05193 0.0
H1161 H 0.54144 0.93285 0.06077 0.0
H1162 H 0.54872 0.91476 0.01159 0.0
H1163 H 0.52425 0.93535 1.00269 0.0
C1164 C 0.57521 0.87748 0.03941 0.0
C1165 C 0.59494 0.8904 0.05206 0.0
C1166 C 0.55958 0.88772 0.03455 0.0
C1167 C 0.56328 0.91105 0.04228 0.0
C1168 C 0.58293 0.92389 0.05498 0.0
C1169 C 0.59862 0.9137 0.0598 0.0
C1170 C 0.52379 0.94515 0.04298 0.0
C1171 C 0.51889 0.94636 0.02659 0.0
C1172 C 0.5378 0.9333 0.04807 0.0
C1173 C 0.54713 0.92231 0.03688 0.0
C1174 C 0.5416 0.92285 0.0205 0.0
C1175 C 0.52766 0.93476 0.01541 0.0
H1176 H 0.96661 0.17751 0.38599 0.0
H1177 H 0.02081 0.20203 0.42834 0.0
H1178 H 0.00084 0.20877 0.37137 0.0
H1179 H 0.05522 0.23162 0.41351 0.0
H1180 H 0.10799 0.29986 0.38885 0.0
H1181 H 0.07118 0.27097 0.40243 0.0
H1182 H 0.03916 0.21713 0.35966 0.0
H1183 H 0.07575 0.24697 0.34579 0.0
C1184 C 0.98577 0.18957 0.39221 0.0
C1185 C 0.99087 0.18712 0.40838 0.0
C1186 C 0.00553 0.20725 0.38374 0.0
C1187 C 0.0309 0.22281 0.3912 0.0
C1188 C 0.03589 0.22036 0.40737 0.0
C1189 C 0.01615 0.20298 0.41585 0.0
C1190 C 0.09306 0.28188 0.38231 0.0
C1191 C 0.09489 0.27554 0.36629 0.0
C1192 C 0.07196 0.26519 0.39014 0.0
C1193 C 0.05228 0.24141 0.38228 0.0
C1194 C 0.05379 0.23534 0.36609 0.0
C1195 C 0.07482 0.25235 0.35813 0.0
H1196 H 0.80877 0.79603 0.41502 0.0
H1197 H 0.77476 0.72964 0.37954 0.0
H1198 H 0.78074 0.81104 0.40307 0.0
H1199 H 0.74624 0.74407 0.36801 0.0
H1200 H 0.72011 0.79186 0.34039 0.0
H1201 H 0.74898 0.7785 0.35273 0.0
H1202 H 0.73501 0.79958 0.39954 0.0
H1203 H 0.70635 0.81346 0.38718 0.0
C1204 C 0.79533 0.78464 0.40469 0.0
C1205 C 0.79401 0.76162 0.39825 0.0
C1206 C 0.77908 0.7931 0.39794 0.0
C1207 C 0.76126 0.77878 0.38457 0.0
C1208 C 0.75994 0.75574 0.37819 0.0
C1209 C 0.7761 0.74729 0.38493 0.0
C1210 C 0.72316 0.7937 0.35332 0.0
C1211 C 0.7108 0.80367 0.36278 0.0
C1212 C 0.73964 0.78589 0.3604 0.0
C1213 C 0.74421 0.78782 0.37713 0.0
C1214 C 0.73209 0.79806 0.38662 0.0
C1215 C 0.71554 0.80587 0.37952 0.0
H1216 H 0.26562 0.0618 0.35915 0.0
H1217 H 0.27195 0.04503 0.40796 0.0
H1218 H 0.24117 0.01522 0.35057 0.0
H1219 H 0.247 -0.00141 0.39946 0.0
H1220 H 0.22912 0.9198 0.37543 0.0
H1221 H 0.2531 0.96626 0.38359 0.0
H1222 H 0.19828 0.97658 0.3535 0.0
H1223 H 0.17431 0.92996 0.34512 0.0
C1224 C 0.26183 0.04816 0.36802 0.0
C1225 C 0.27071 0.05703 0.38422 0.0
C1226 C 0.24761 0.02153 0.36314 0.0
C1227 C 0.24217 0.00329 0.37435 0.0
C1228 C 0.25109 0.01219 0.39053 0.0
C1229 C 0.26517 0.03877 0.39542 0.0
C1230 C 0.22212 0.93192 0.37053 0.0
C1231 C 0.19978 0.92116 0.35962 0.0
C1232 C 0.23581 0.95854 0.37528 0.0
C1233 C 0.22754 0.97503 0.36921 0.0
C1234 C 0.20524 0.96434 0.35826 0.0
C1235 C 0.19144 0.93764 0.35355 0.0
H1236 H 0.49724 0.61789 0.3066 0.0
H1237 H 0.55737 0.62128 0.27893 0.0
H1238 H 0.52396 0.66428 0.31501 0.0
H1239 H 0.58439 0.66756 0.2877 0.0
H1240 H 0.61636 0.75556 0.29578 0.0
H1241 H 0.58705 0.71029 0.28529 0.0
H1242 H 0.56416 0.69138 0.33265 0.0
H1243 H 0.59303 0.73637 0.34309 0.0
C1244 C 0.51608 0.62859 0.30223 0.0
C1245 C 0.52525 0.61591 0.29217 0.0
C1246 C 0.53147 0.6551 0.30715 0.0
C1247 C 0.55631 0.66954 0.30207 0.0
C1248 C 0.56525 0.657 0.29171 0.0
C1249 C 0.54991 0.63045 0.28685 0.0
C1250 C 0.60494 0.74176 0.30392 0.0
C1251 C 0.6071 0.74958 0.32028 0.0
C1252 C 0.58827 0.71583 0.29792 0.0
C1253 C 0.5733 0.69729 0.30815 0.0
C1254 C 0.57518 0.70525 0.32443 0.0
C1255 C 0.5919 0.73105 0.33042 0.0
H1256 H 0.32667 0.871 0.2704 0.0
H1257 H 0.36558 0.89952 0.31817 0.0
H1258 H 0.28502 0.8567 0.28103 0.0
H1259 H 0.32402 0.88507 0.32875 0.0
H1260 H 0.24301 0.83756 0.3443 0.0
H1261 H 0.28309 0.84655 0.33304 0.0
H1262 H 0.26249 0.87738 0.29301 0.0
H1263 H 0.22236 0.86808 0.30406 0.0
C1264 C 0.32637 0.8742 0.28316 0.0
C1265 C 0.34953 0.88647 0.29341 0.0
C1266 C 0.30248 0.86599 0.28925 0.0
C1267 C 0.30118 0.8698 0.30574 0.0
C1268 C 0.32427 0.88148 0.31603 0.0
C1269 C 0.34814 0.88975 0.30994 0.0
C1270 C 0.24693 0.84608 0.33304 0.0
C1271 C 0.2295 0.85223 0.32515 0.0
C1272 C 0.26998 0.85136 0.32663 0.0
C1273 C 0.27604 0.86275 0.31215 0.0
C1274 C 0.25831 0.86833 0.30409 0.0
C1275 C 0.23536 0.86318 0.31052 0.0
H1276 H 0.13148 0.49193 0.31385 0.0
H1277 H 0.08013 0.43407 0.27579 0.0
H1278 H 0.13721 0.45906 0.32654 0.0
H1279 H 0.08589 0.40112 0.28851 0.0
H1280 H 0.13586 0.36437 0.3027 0.0
H1281 H 0.12263 0.3936 0.29199 0.0
H1282 H 0.11633 0.4188 0.33983 0.0
H1283 H 0.13002 0.38975 0.35067 0.0
C1284 C 0.12092 0.47206 0.30839 0.0
C1285 C 0.10551 0.46563 0.29375 0.0
C1286 C 0.12422 0.45322 0.31566 0.0
C1287 C 0.11219 0.42756 0.30844 0.0
C1288 C 0.09578 0.42085 0.2942 0.0
C1289 C 0.09248 0.43969 0.28693 0.0
C1290 C 0.13153 0.37601 0.31097 0.0
C1291 C 0.13418 0.37486 0.32755 0.0
C1292 C 0.12371 0.39261 0.3048 0.0
C1293 C 0.11839 0.40847 0.31506 0.0
C1294 C 0.12052 0.40696 0.33164 0.0
C1295 C 0.12828 0.39026 0.33783 0.0
H1296 H 0.33298 0.43496 0.27317 0.0
H1297 H 0.36834 0.46731 0.32131 0.0
H1298 H 0.29055 0.41276 0.2831 0.0
H1299 H 0.32599 0.44404 0.33134 0.0
H1300 H 0.24258 0.41315 0.34303 0.0
H1301 H 0.28361 0.44046 0.33211 0.0
H1302 H 0.26853 0.3761 0.2982 0.0
H1303 H 0.22762 0.34918 0.30875 0.0
C1304 C 0.33171 0.43756 0.28586 0.0
C1305 C 0.35413 0.45279 0.29645 0.0
C1306 C 0.30739 0.42456 0.29158 0.0
C1307 C 0.30488 0.42639 0.30804 0.0
C1308 C 0.32718 0.44233 0.31858 0.0
C1309 C 0.35152 0.45539 0.31285 0.0
C1310 C 0.24797 0.40492 0.33318 0.0
C1311 C 0.2318 0.37894 0.32682 0.0
C1312 C 0.27154 0.42053 0.32697 0.0
C1313 C 0.27935 0.41049 0.31426 0.0
C1314 C 0.26296 0.38463 0.3078 0.0
C1315 C 0.23952 0.36909 0.31398 0.0
H1316 H 0.56129 0.92536 0.28172 0.0
H1317 H 0.49441 0.85799 0.29581 0.0
H1318 H 0.58886 0.90854 0.29123 0.0
H1319 H 0.52175 0.84033 0.30434 0.0
H1320 H 0.58166 0.83322 0.33678 0.0
H1321 H 0.55314 0.84779 0.32553 0.0
H1322 H 0.60109 0.87656 0.2867 0.0
H1323 H 0.63022 0.86277 0.29834 0.0
C1324 C 0.5524 0.90687 0.28676 0.0
C1325 C 0.5256 0.89321 0.28814 0.0
C1326 C 0.56821 0.89701 0.29201 0.0
C1327 C 0.55762 0.87308 0.29865 0.0
C1328 C 0.53069 0.85902 0.29955 0.0
C1329 C 0.51491 0.869 0.29443 0.0
C1330 C 0.58609 0.84255 0.32579 0.0
C1331 C 0.60831 0.84693 0.3185 0.0
C1332 C 0.56959 0.85077 0.31926 0.0
C1333 C 0.57472 0.86337 0.30517 0.0
C1334 C 0.59672 0.86731 0.29771 0.0
C1335 C 0.61338 0.85929 0.30434 0.0
H1336 H 0.13011 0.64296 0.31927 0.0
H1337 H 0.08017 0.64108 0.27926 0.0
H1338 H 0.1334 0.68302 0.33102 0.0
H1339 H 0.08264 0.68057 0.29132 0.0
H1340 H 0.13105 0.7698 0.30394 0.0
H1341 H 0.11809 0.72538 0.29439 0.0
H1342 H 0.11134 0.70444 0.34291 0.0
H1343 H 0.12483 0.74926 0.3526 0.0
C1344 C 0.11949 0.65088 0.31312 0.0
C1345 C 0.10518 0.63907 0.29823 0.0
C1346 C 0.12113 0.67367 0.31994 0.0
C1347 C 0.10849 0.6851 0.31201 0.0
C1348 C 0.0929 0.67241 0.2976 0.0
C1349 C 0.09127 0.64963 0.29078 0.0
C1350 C 0.12658 0.75572 0.3126 0.0
C1351 C 0.12921 0.76313 0.32905 0.0
C1352 C 0.11891 0.73016 0.30709 0.0
C1353 C 0.11369 0.71138 0.3179 0.0
C1354 C 0.11547 0.71856 0.33432 0.0
C1355 C 0.1231 0.74419 0.33985 0.0
H1356 H 0.83064 0.02944 0.37871 0.0
H1357 H 0.79317 0.00747 0.42208 0.0
H1358 H 0.79538 0.98984 0.36407 0.0
H1359 H 0.75815 0.96783 0.40756 0.0
H1360 H 0.68901 0.90726 0.37469 0.0
H1361 H 0.72173 0.94987 0.38745 0.0
H1362 H 0.78032 0.94395 0.36271 0.0
H1363 H 0.7476 0.90176 0.34965 0.0
C1364 C 0.81483 0.01618 0.3851 0.0
C1365 C 0.81472 0.02155 0.40155 0.0
C1366 C 0.79467 0.99347 0.37673 0.0
C1367 C 0.774 0.97555 0.38466 0.0
C1368 C 0.77355 0.98134 0.40102 0.0
C1369 C 0.79365 0.00409 0.40936 0.0
C1370 C 0.70885 0.91511 0.3719 0.0
C1371 C 0.71568 0.90104 0.36118 0.0
C1372 C 0.72763 0.93951 0.37928 0.0
C1373 C 0.75367 0.95035 0.37613 0.0
C1374 C 0.76039 0.9364 0.36523 0.0
C1375 C 0.74163 0.91207 0.35782 0.0
H1376 H 0.99047 0.77094 0.41826 0.0
H1377 H 0.9612 0.79729 0.37971 0.0
H1378 H 0.03209 0.78875 0.40721 0.0
H1379 H 0.00297 0.81555 0.36876 0.0
H1380 H 0.06813 0.81373 0.34322 0.0
H1381 H 0.02788 0.80058 0.3552 0.0
H1382 H 0.07039 0.8273 0.40211 0.0
H1383 H 0.1106 0.83976 0.39016 0.0
C1384 C 0.99309 0.78098 0.40759 0.0
C1385 C 0.97248 0.78257 0.39982 0.0
C1386 C 0.01699 0.79124 0.40124 0.0
C1387 C 0.02092 0.80349 0.38701 0.0
C1388 C 0.00051 0.8058 0.37955 0.0
C1389 C 0.97658 0.7954 0.38584 0.0
C1390 C 0.06896 0.81699 0.35608 0.0
C1391 C 0.09265 0.82772 0.3657 0.0
C1392 C 0.04584 0.80957 0.36297 0.0
C1393 C 0.04579 0.8128 0.37966 0.0
C1394 C 0.06959 0.82413 0.38925 0.0
C1395 C 0.09271 0.83144 0.38237 0.0
H1396 H 0.2312 0.18896 0.38499 0.0
H1397 H 0.30178 0.25995 0.37934 0.0
H1398 H 0.20586 0.20923 0.37698 0.0
H1399 H 0.27646 0.28022 0.37151 0.0
H1400 H 0.22564 0.31666 0.37718 0.0
H1401 H 0.24925 0.29468 0.38467 0.0
H1402 H 0.1947 0.22675 0.35337 0.0
H1403 H 0.17069 0.2487 0.34588 0.0
C1404 C 0.2413 0.20879 0.38188 0.0
C1405 C 0.26853 0.22289 0.38287 0.0
C1406 C 0.22677 0.22038 0.37732 0.0
C1407 C 0.23919 0.24634 0.37372 0.0
C1408 C 0.26637 0.26031 0.37449 0.0
C1409 C 0.28088 0.24872 0.379 0.0
C1410 C 0.21853 0.297 0.3719 0.0
C1411 C 0.1963 0.28449 0.36085 0.0
C1412 C 0.23221 0.28448 0.37614 0.0
C1413 C 0.22398 0.25911 0.36949 0.0
C1414 C 0.20142 0.24629 0.35873 0.0
C1415 C 0.18774 0.25889 0.35441 0.0
H1416 H 0.66194 0.55902 0.75405 0.0
H1417 H 0.64409 0.49605 0.7182 0.0
H1418 H 0.69782 0.58857 0.73975 0.0
H1419 H 0.67993 0.52566 0.70387 0.0
H1420 H 0.736 0.59274 0.67622 0.0
H1421 H 0.69685 0.56448 0.6887 0.0
H1422 H 0.74007 0.59332 0.73531 0.0
H1423 H 0.77883 0.62159 0.72301 0.0
C1424 C 0.66561 0.5515 0.74309 0.0
C1425 C 0.65027 0.52512 0.73735 0.0
C1426 C 0.68617 0.56842 0.7349 0.0
C1427 C 0.69188 0.55939 0.72076 0.0
C1428 C 0.6759 0.53327 0.71465 0.0
C1429 C 0.65533 0.51631 0.72286 0.0
C1430 C 0.7371 0.59305 0.68913 0.0
C1431 C 0.76057 0.60942 0.69859 0.0
C1432 C 0.71471 0.57681 0.69627 0.0
C1433 C 0.71532 0.5768 0.713 0.0
C1434 C 0.73881 0.59319 0.72241 0.0
C1435 C 0.76113 0.60925 0.71531 0.0
H1436 H 0.4486 0.10055 0.74903 0.0
H1437 H 0.47753 0.10269 0.70297 0.0
H1438 H 0.4199 0.11531 0.73804 0.0
H1439 H 0.44806 0.11635 0.69181 0.0
H1440 H 0.40928 0.16392 0.68041 0.0
H1441 H 0.43997 0.15233 0.69231 0.0
H1442 H 0.381 0.09863 0.71989 0.0
H1443 H 0.35048 0.11063 0.70829 0.0
C1444 C 0.44899 0.10434 0.73659 0.0
C1445 C 0.46537 0.10037 0.72688 0.0
C1446 C 0.43227 0.11248 0.73023 0.0
C1447 C 0.43152 0.11687 0.71401 0.0
C1448 C 0.44826 0.11337 0.70438 0.0
C1449 C 0.46497 0.10524 0.71074 0.0
C1450 C 0.40284 0.14966 0.68902 0.0
C1451 C 0.37735 0.13816 0.69334 0.0
C1452 C 0.42043 0.14292 0.6958 0.0
C1453 C 0.41299 0.12452 0.70706 0.0
C1454 C 0.38753 0.11314 0.71143 0.0
C1455 C 0.36994 0.11988 0.70467 0.0
H1456 H 0.89928 0.38948 0.72424 0.0
H1457 H 0.96985 0.39133 0.71294 0.0
H1458 H 0.87469 0.34303 0.71545 0.0
H1459 H 0.94518 0.34517 0.70368 0.0
H1460 H 0.8983 0.258 0.70751 0.0
H1461 H 0.92174 0.30437 0.7158 0.0
H1462 H 0.86092 0.31239 0.69105 0.0
H1463 H 0.83709 0.26568 0.68287 0.0
C1464 C 0.90952 0.37997 0.71986 0.0
C1465 C 0.93653 0.39404 0.71935 0.0
C1466 C 0.8954 0.35345 0.71467 0.0
C1467 C 0.90801 0.34043 0.70892 0.0
C1468 C 0.93495 0.35459 0.70822 0.0
C1469 C 0.94905 0.38109 0.71337 0.0
C1470 C 0.88984 0.26957 0.70382 0.0
C1471 C 0.86582 0.25812 0.69449 0.0
C1472 C 0.90339 0.29621 0.7085 0.0
C1473 C 0.89327 0.31207 0.70399 0.0
C1474 C 0.86912 0.30062 0.69481 0.0
C1475 C 0.85553 0.2739 0.69007 0.0
H1476 H 0.19458 0.96056 0.60132 0.0
H1477 H 0.19294 0.94466 0.65087 0.0
H1478 H 0.22156 0.00704 0.60963 0.0
H1479 H 0.21923 0.991 0.65907 0.0
H1480 H 0.24297 0.07614 0.66854 0.0
H1481 H 0.2148 0.03069 0.65862 0.0
H1482 H 0.26673 0.03807 0.62309 0.0
H1483 H 0.29509 0.08379 0.63297 0.0
C1484 C 0.2 0.96691 0.61396 0.0
C1485 C 0.19144 0.9488 0.62542 0.0
C1486 C 0.2154 0.99353 0.6187 0.0
C1487 C 0.22236 0.00263 0.63499 0.0
C1488 C 0.21379 0.98458 0.64643 0.0
C1489 C 0.19863 0.95801 0.64171 0.0
C1490 C 0.24836 0.06823 0.65852 0.0
C1491 C 0.27141 0.08362 0.65161 0.0
C1492 C 0.23225 0.04211 0.65291 0.0
C1493 C 0.23868 0.0308 0.64017 0.0
C1494 C 0.26125 0.04633 0.63288 0.0
C1495 C 0.27753 0.07247 0.63859 0.0
H1496 H 0.0107 0.25746 0.61561 0.0
H1497 H 0.01488 0.19385 0.63512 0.0
H1498 H 0.96989 0.2442 0.62685 0.0
H1499 H 0.97358 0.18014 0.64618 0.0
H1500 H 0.91466 0.18227 0.67868 0.0
H1501 H 0.95454 0.1927 0.66667 0.0
H1502 H 0.92558 0.21182 0.62427 0.0
H1503 H 0.88633 0.2023 0.63644 0.0
C1504 C 0.00264 0.24033 0.62207 0.0
C1505 C 0.016 0.22665 0.6244 0.0
C1506 C 0.97917 0.23268 0.62852 0.0
C1507 C 0.96828 0.21101 0.63741 0.0
C1508 C 0.98153 0.19714 0.63961 0.0
C1509 C 0.00515 0.20492 0.63322 0.0
C1510 C 0.9168 0.18861 0.66677 0.0
C1511 C 0.8974 0.1917 0.65861 0.0
C1512 C 0.93962 0.19446 0.65983 0.0
C1513 C 0.94346 0.20334 0.64452 0.0
C1514 C 0.92364 0.20564 0.63621 0.0
C1515 C 0.901 0.20003 0.64318 0.0
H1516 H 0.80311 0.82915 0.64679 0.0
H1517 H 0.75256 0.77171 0.60833 0.0
H1518 H 0.80855 0.79608 0.65948 0.0
H1519 H 0.75803 0.7386 0.62103 0.0
H1520 H 0.79941 0.7257 0.68357 0.0
H1521 H 0.78698 0.75559 0.67258 0.0
H1522 H 0.79449 0.73074 0.62494 0.0
H1523 H 0.80647 0.70071 0.63581 0.0
C1524 C 0.7927 0.80934 0.64123 0.0
C1525 C 0.77757 0.80308 0.62649 0.0
C1526 C 0.79583 0.79039 0.6485 0.0
C1527 C 0.78391 0.76479 0.64118 0.0
C1528 C 0.76784 0.75828 0.62681 0.0
C1529 C 0.7647 0.77722 0.61954 0.0
C1530 C 0.79823 0.7265 0.67075 0.0
C1531 C 0.80404 0.7109 0.66058 0.0
C1532 C 0.7912 0.74368 0.66447 0.0
C1533 C 0.78972 0.74549 0.6479 0.0
C1534 C 0.79508 0.72953 0.63774 0.0
C1535 C 0.80217 0.71246 0.644 0.0
H1536 H 0.00256 0.78231 0.61021 0.0
H1537 H 0.03787 0.78 0.65592 0.0
H1538 H 0.96 0.76117 0.62039 0.0
H1539 H 0.99533 0.75867 0.66604 0.0
H1540 H 0.9166 0.74019 0.68269 0.0
H1541 H 0.95872 0.76661 0.67264 0.0
H1542 H 0.9315 0.71632 0.62846 0.0
H1543 H 0.88963 0.69003 0.63841 0.0
C1544 C 0.00124 0.77752 0.62247 0.0
C1545 C 0.02349 0.78264 0.63224 0.0
C1546 C 0.9769 0.76529 0.62826 0.0
C1547 C 0.97436 0.75824 0.644 0.0
C1548 C 0.99671 0.76407 0.65391 0.0
C1549 C 0.021 0.77603 0.64807 0.0
C1550 C 0.91955 0.73496 0.67078 0.0
C1551 C 0.89983 0.71293 0.66139 0.0
C1552 C 0.94368 0.74998 0.66507 0.0
C1553 C 0.94838 0.74349 0.64978 0.0
C1554 C 0.92839 0.72194 0.64023 0.0
C1555 C 0.90445 0.70677 0.646 0.0
H1556 H 0.17658 0.19889 0.60552 0.0
H1557 H 0.211 0.26006 0.64443 0.0
H1558 H 0.20356 0.18129 0.61545 0.0
H1559 H 0.23843 0.24306 0.65401 0.0
H1560 H 0.2627 0.19041 0.67703 0.0
H1561 H 0.2342 0.20558 0.6666 0.0
H1562 H 0.24933 0.19206 0.61847 0.0
H1563 H 0.27769 0.17639 0.6289 0.0
C1564 C 0.18986 0.20855 0.61619 0.0
C1565 C 0.19165 0.23089 0.62417 0.0
C1566 C 0.2055 0.19863 0.62178 0.0
C1567 C 0.22312 0.21074 0.63554 0.0
C1568 C 0.22485 0.23306 0.64349 0.0
C1569 C 0.20932 0.24299 0.63789 0.0
C1570 C 0.25997 0.19058 0.66421 0.0
C1571 C 0.27263 0.18229 0.65382 0.0
C1572 C 0.24369 0.19943 0.65823 0.0
C1573 C 0.23963 0.20023 0.64171 0.0
C1574 C 0.25189 0.1915 0.63126 0.0
C1575 C 0.26826 0.18265 0.63725 0.0
H1576 H 0.80236 0.98149 0.65172 0.0
H1577 H 0.75329 0.98019 0.61139 0.0
H1578 H 0.80588 0.02172 0.66339 0.0
H1579 H 0.75603 0.01988 0.62335 0.0
H1580 H 0.80275 0.10886 0.63705 0.0
H1581 H 0.79119 0.06496 0.62704 0.0
H1582 H 0.78298 0.04229 0.67517 0.0
H1583 H 0.79502 0.0865 0.68529 0.0
C1584 C 0.79203 0.98961 0.64547 0.0
C1585 C 0.77779 0.97782 0.63056 0.0
C1586 C 0.79381 0.0125 0.65223 0.0
C1587 C 0.7814 0.02409 0.64422 0.0
C1588 C 0.7661 0.01159 0.6297 0.0
C1589 C 0.7643 0.98869 0.62294 0.0
C1590 C 0.79827 0.0945 0.64551 0.0
C1591 C 0.8 0.10125 0.66199 0.0
C1592 C 0.79144 0.06925 0.63975 0.0
C1593 C 0.78618 0.05014 0.65032 0.0
C1594 C 0.78718 0.05667 0.66676 0.0
C1595 C 0.79397 0.08196 0.67254 0.0
H1596 H 0.5028 0.34969 0.71653 0.0
H1597 H 0.45558 0.34663 0.75423 0.0
H1598 H 0.46656 0.30988 0.70283 0.0
H1599 H 0.41907 0.30722 0.74029 0.0
H1600 H 0.37345 0.22018 0.7211 0.0
H1601 H 0.4077 0.26165 0.73432 0.0
H1602 H 0.4234 0.29287 0.68858 0.0
H1603 H 0.38943 0.25131 0.67529 0.0
C1604 C 0.48463 0.34058 0.72184 0.0
C1605 C 0.48209 0.35124 0.73649 0.0
C1606 C 0.46379 0.31792 0.71392 0.0
C1607 C 0.43996 0.30537 0.7205 0.0
C1608 C 0.43726 0.31629 0.735 0.0
C1609 C 0.45809 0.33902 0.7429 0.0
C1610 C 0.3841 0.23591 0.71385 0.0
C1611 C 0.37876 0.23236 0.69712 0.0
C1612 C 0.40363 0.25974 0.72145 0.0
C1613 C 0.4183 0.28053 0.71249 0.0
C1614 C 0.41266 0.27712 0.69579 0.0
C1615 C 0.39309 0.25332 0.68819 0.0
H1616 H 0.65569 0.14089 0.74995 0.0
H1617 H 0.62537 0.07638 0.71332 0.0
H1618 H 0.69741 0.1608 0.73863 0.0
H1619 H 0.667 0.09586 0.70229 0.0
H1620 H 0.7354 0.14928 0.67658 0.0
H1621 H 0.69427 0.13329 0.688 0.0
H1622 H 0.73419 0.15287 0.73554 0.0
H1623 H 0.77551 0.16919 0.72415 0.0
C1624 C 0.65791 0.13101 0.73948 0.0
C1625 C 0.63724 0.107 0.73258 0.0
C1626 C 0.68185 0.1423 0.73308 0.0
C1627 C 0.68552 0.12995 0.71953 0.0
C1628 C 0.66477 0.10605 0.71261 0.0
C1629 C 0.64097 0.09472 0.71905 0.0
C1630 C 0.73552 0.15041 0.68948 0.0
C1631 C 0.75883 0.16044 0.69942 0.0
C1632 C 0.71187 0.14108 0.69602 0.0
C1633 C 0.71091 0.1416 0.71268 0.0
C1634 C 0.73427 0.15236 0.72266 0.0
C1635 C 0.75796 0.16161 0.71611 0.0
H1636 H 0.96635 0.59471 0.7197 0.0
H1637 H 0.89669 0.51948 0.71431 0.0
H1638 H 0.94121 0.61475 0.71113 0.0
H1639 H 0.87132 0.53974 0.70625 0.0
H1640 H 0.84088 0.58459 0.67648 0.0
H1641 H 0.86448 0.56239 0.68431 0.0
H1642 H 0.90928 0.62372 0.72219 0.0
H1643 H 0.88618 0.64601 0.71431 0.0
C1644 C 0.94569 0.58242 0.71659 0.0
C1645 C 0.93352 0.55551 0.7177 0.0
C1646 C 0.93122 0.59395 0.71186 0.0
C1647 C 0.90424 0.57885 0.70815 0.0
C1648 C 0.89209 0.55186 0.70897 0.0
C1649 C 0.90658 0.54031 0.71373 0.0
C1650 C 0.85565 0.59322 0.68654 0.0
C1651 C 0.86178 0.61718 0.69467 0.0
C1652 C 0.86911 0.58048 0.69105 0.0
C1653 C 0.88894 0.59147 0.70375 0.0
C1654 C 0.8945 0.61503 0.71213 0.0
C1655 C 0.88111 0.62773 0.70765 0.0
H1656 H 0.43948 0.92724 0.19039 0.0
H1657 H 0.4977 0.00554 0.20853 0.0
H1658 H 0.44742 0.93868 0.16306 0.0
H1659 H 0.50486 0.0172 0.1813 0.0
H1660 H 0.53171 0.02176 0.13152 0.0
H1661 H 0.52352 0.00903 0.15851 0.0
H1662 H 0.44134 0.96481 0.14378 0.0
H1663 H 0.44957 0.97753 0.11672 0.0
C1664 C 0.45395 0.94688 0.18855 0.0
C1665 C 0.46793 0.96547 0.20167 0.0
C1666 C 0.45831 0.95351 0.17289 0.0
C1667 C 0.47681 0.97886 0.16997 0.0
C1668 C 0.4907 0.99742 0.1831 0.0
C1669 C 0.48634 0.99081 0.19873 0.0
C1670 C 0.51187 0.00948 0.13406 0.0
C1671 C 0.49129 0.00078 0.12197 0.0
C1672 C 0.50717 0.00218 0.14954 0.0
C1673 C 0.48176 0.986 0.15335 0.0
C1674 C 0.46118 0.97704 0.14122 0.0
C1675 C 0.46589 0.98434 0.12571 0.0
H1676 H 0.03426 0.48454 0.19552 0.0
H1677 H 0.05041 0.56352 0.19332 0.0
H1678 H 0.01119 0.47265 0.16879 0.0
H1679 H 0.02731 0.55163 0.16661 0.0
H1680 H 0.01875 0.52901 0.11255 0.0
H1681 H 0.03648 0.53999 0.14047 0.0
H1682 H 0.97306 0.46771 0.15242 0.0
H1683 H 0.95567 0.45632 0.12426 0.0
C1684 C 0.03245 0.49923 0.18945 0.0
C1685 C 0.04437 0.52502 0.19645 0.0
C1686 C 0.01923 0.49242 0.17414 0.0
C1687 C 0.01767 0.51127 0.16553 0.0
C1688 C 0.02864 0.5368 0.17282 0.0
C1689 C 0.04185 0.5436 0.18811 0.0
C1690 C 0.00865 0.51539 0.12112 0.0
C1691 C 0.98594 0.49171 0.1162 0.0
C1692 C 0.01862 0.52184 0.13715 0.0
C1693 C 0.00612 0.50475 0.14866 0.0
C1694 C 0.98321 0.48118 0.1438 0.0
C1695 C 0.97315 0.47477 0.12772 0.0
H1696 H 0.46102 0.52101 0.19403 0.0
H1697 H 0.45589 0.44681 0.19936 0.0
H1698 H 0.46695 0.51696 0.16588 0.0
H1699 H 0.46068 0.44219 0.17097 0.0
H1700 H 0.508 0.46352 0.12698 0.0
H1701 H 0.49541 0.46205 0.15406 0.0
H1702 H 0.44666 0.49379 0.14008 0.0
H1703 H 0.46022 0.49645 0.1132 0.0
C1704 C 0.4609 0.5037 0.18914 0.0
C1705 C 0.45824 0.48436 0.19898 0.0
C1706 C 0.46397 0.50121 0.17294 0.0
C1707 C 0.46438 0.47928 0.16616 0.0
C1708 C 0.46078 0.45948 0.17586 0.0
C1709 C 0.45773 0.46199 0.1921 0.0
C1710 C 0.49459 0.47018 0.12968 0.0
C1711 C 0.48534 0.48034 0.11795 0.0
C1712 C 0.4871 0.46903 0.14517 0.0
C1713 C 0.47012 0.47794 0.14928 0.0
C1714 C 0.46005 0.48711 0.13737 0.0
C1715 C 0.46759 0.48833 0.1219 0.0
H1716 H 0.04846 0.52219 0.81844 0.0
H1717 H 0.97955 0.52883 0.81842 0.0
H1718 H 0.05205 0.52483 0.84756 0.0
H1719 H 0.98356 0.53224 0.84761 0.0
H1720 H 0.98106 0.49906 0.89679 0.0
H1721 H 0.97831 0.50269 0.86816 0.0
H1722 H 0.06105 0.55459 0.87156 0.0
H1723 H 0.06382 0.55109 0.90028 0.0
C1724 C 0.03416 0.52435 0.82467 0.0
C1725 C 0.01364 0.52515 0.81613 0.0
C1726 C 0.03638 0.52618 0.84136 0.0
C1727 C 0.01809 0.52876 0.8499 0.0
C1728 C 0.99784 0.53006 0.84137 0.0
C1729 C 0.99568 0.52834 0.82466 0.0
C1730 C 0.9986 0.51173 0.89152 0.0
C1731 C 0.02269 0.52466 0.90082 0.0
C1732 C 0.99702 0.51377 0.87508 0.0
C1733 C 0.01949 0.52877 0.86757 0.0
C1734 C 0.04345 0.54252 0.87696 0.0
C1735 C 0.04503 0.54052 0.8934 0.0
H1736 H 0.56245 0.51559 0.83518 0.0
H1737 H 0.4957 0.43834 0.83049 0.0
H1738 H 0.54731 0.52669 0.85913 0.0
H1739 H 0.48051 0.44943 0.85432 0.0
H1740 H 0.4835 0.46669 0.90848 0.0
H1741 H 0.49486 0.45721 0.88267 0.0
H1742 H 0.51344 0.5335 0.86994 0.0
H1743 H 0.50276 0.54331 0.89612 0.0
C1744 C 0.54431 0.50115 0.8391 0.0
C1745 C 0.53043 0.47599 0.83106 0.0
C1746 C 0.53562 0.50751 0.85281 0.0
C1747 C 0.51285 0.48885 0.85874 0.0
C1748 C 0.49841 0.46407 0.85027 0.0
C1749 C 0.5071 0.45772 0.83661 0.0
C1750 C 0.49007 0.48148 0.9002 0.0
C1751 C 0.49241 0.50582 0.90439 0.0
C1752 C 0.4963 0.47594 0.88532 0.0
C1753 C 0.50502 0.49458 0.87421 0.0
C1754 C 0.50697 0.5188 0.87828 0.0
C1755 C 0.50063 0.52433 0.8932 0.0
H1756 H 0.54169 0.02 0.8261 0.0
H1757 H 0.48759 0.04831 0.82791 0.0
H1758 H 0.5334 0.00676 0.85299 0.0
H1759 H 0.4784 0.03398 0.8545 0.0
H1760 H 0.48494 0.02636 0.90791 0.0
H1761 H 0.49637 0.04262 0.88195 0.0
H1762 H 0.49937 0.97379 0.86624 0.0
H1763 H 0.48914 0.95812 0.89243 0.0
C1764 C 0.52818 0.02361 0.83227 0.0
C1765 C 0.51529 0.03521 0.82479 0.0
C1766 C 0.52314 0.01567 0.84763 0.0
C1767 C 0.50507 0.01909 0.8559 0.0
C1768 C 0.49259 0.0312 0.84856 0.0
C1769 C 0.49765 0.03916 0.83322 0.0
C1770 C 0.48832 0.01482 0.89899 0.0
C1771 C 0.4861 0.9909 0.9023 0.0
C1772 C 0.4946 0.02402 0.88402 0.0
C1773 C 0.49881 0.00955 0.87196 0.0
C1774 C 0.4966 0.98564 0.87528 0.0
C1775 C 0.49035 0.97646 0.89025 0.0
H1776 H 0.17252 0.29598 0.53316 0.0
H1777 H 0.10419 0.30362 0.52804 0.0
H1778 H 0.18186 0.30876 0.50619 0.0
H1779 H 0.1138 0.31687 0.50118 0.0
H1780 H 0.12524 0.31304 0.44773 0.0
H1781 H 0.11534 0.29861 0.47431 0.0
H1782 H 0.19571 0.34859 0.49218 0.0
H1783 H 0.20571 0.36265 0.4655 0.0
C1784 C 0.15939 0.30019 0.52623 0.0
C1785 C 0.1376 0.29877 0.53273 0.0
C1786 C 0.1649 0.30778 0.51085 0.0
C1787 C 0.14863 0.31392 0.50158 0.0
C1788 C 0.12661 0.3121 0.50798 0.0
C1789 C 0.12122 0.30471 0.52341 0.0
C1790 C 0.14083 0.32079 0.45731 0.0
C1791 C 0.16628 0.33896 0.45451 0.0
C1792 C 0.13511 0.31271 0.47256 0.0
C1793 C 0.15473 0.32245 0.48534 0.0
C1794 C 0.18021 0.34054 0.48254 0.0
C1795 C 0.18589 0.34879 0.4673 0.0
H1796 H 0.71583 0.89787 0.52751 0.0
H1797 H 0.70403 0.82029 0.52917 0.0
H1798 H 0.69253 0.88542 0.50083 0.0
H1799 H 0.68006 0.80762 0.50267 0.0
H1800 H 0.67704 0.81032 0.44769 0.0
H1801 H 0.69348 0.81879 0.47584 0.0
H1802 H 0.65003 0.85773 0.48525 0.0
H1803 H 0.63407 0.84982 0.45691 0.0
C1804 C 0.70799 0.87807 0.52224 0.0
C1805 C 0.71198 0.86013 0.53036 0.0
C1806 C 0.69442 0.87087 0.50704 0.0
C1807 C 0.68463 0.84559 0.49962 0.0
C1808 C 0.68767 0.82733 0.50802 0.0
C1809 C 0.70116 0.83452 0.52325 0.0
C1810 C 0.67101 0.82071 0.45577 0.0
C1811 C 0.65447 0.82962 0.45008 0.0
C1812 C 0.68016 0.82527 0.47193 0.0
C1813 C 0.67303 0.83892 0.48276 0.0
C1814 C 0.65601 0.84733 0.47715 0.0
C1815 C 0.64673 0.84264 0.46097 0.0
H1816 H 0.14638 0.78388 0.53742 0.0
H1817 H 0.11791 0.83701 0.52964 0.0
H1818 H 0.15213 0.78128 0.50905 0.0
H1819 H 0.12312 0.83385 0.50125 0.0
H1820 H 0.11596 0.80419 0.44862 0.0
H1821 H 0.10639 0.80228 0.47648 0.0
H1822 H 0.18177 0.81258 0.49102 0.0
H1823 H 0.19168 0.81519 0.46334 0.0
C1824 C 0.14131 0.79499 0.52969 0.0
C1825 C 0.13183 0.8108 0.53588 0.0
C1826 C 0.14454 0.79341 0.51343 0.0
C1827 C 0.13816 0.80743 0.50295 0.0
C1828 C 0.12792 0.82259 0.509 0.0
C1829 C 0.12488 0.82434 0.52529 0.0
C1830 C 0.13056 0.80618 0.45775 0.0
C1831 C 0.15464 0.80991 0.45368 0.0
C1832 C 0.12502 0.805 0.4737 0.0
C1833 C 0.14332 0.80726 0.48592 0.0
C1834 C 0.16712 0.81038 0.48184 0.0
C1835 C 0.17276 0.8118 0.46593 0.0
H1836 H 0.63348 0.83009 0.14855 0.0
H1837 H 0.71697 0.87322 0.15007 0.0
H1838 H 0.6369 0.82952 0.17749 0.0
H1839 H 0.72041 0.87163 0.17892 0.0
H1840 H 0.71735 0.88658 0.23209 0.0
H1841 H 0.71274 0.88897 0.20336 0.0
H1842 H 0.64995 0.80937 0.19747 0.0
H1843 H 0.65445 0.8071 0.22624 0.0
C1844 C 0.65257 0.83957 0.15506 0.0
C1845 C 0.67496 0.85175 0.14699 0.0
C1846 C 0.65453 0.83895 0.17164 0.0
C1847 C 0.67892 0.85048 0.18052 0.0
C1848 C 0.70131 0.86282 0.17247 0.0
C1849 C 0.69935 0.86346 0.1559 0.0
C1850 C 0.70262 0.86957 0.22464 0.0
C1851 C 0.68633 0.84661 0.23141 0.0
C1852 C 0.69999 0.87093 0.20818 0.0
C1853 C 0.68106 0.84933 0.1981 0.0
C1854 C 0.66451 0.82648 0.20491 0.0
C1855 C 0.66708 0.82516 0.2214 0.0
H1856 H 0.23121 0.83716 0.17028 0.0
H1857 H 0.15525 0.7693 0.15963 0.0
H1858 H 0.21737 0.84895 0.19455 0.0
H1859 H 0.14152 0.781 0.18394 0.0
H1860 H 0.1404 0.791 0.23853 0.0
H1861 H 0.15189 0.78167 0.21267 0.0
H1862 H 0.18777 0.86299 0.20501 0.0
H1863 H 0.17675 0.87243 0.23116 0.0
C1864 C 0.21143 0.82499 0.17296 0.0
C1865 C 0.19442 0.80214 0.16308 0.0
C1866 C 0.20351 0.83175 0.18689 0.0
C1867 C 0.17842 0.81578 0.19125 0.0
C1868 C 0.16114 0.79345 0.18107 0.0
C1869 C 0.16902 0.78674 0.16715 0.0
C1870 C 0.15079 0.8069 0.23135 0.0
C1871 C 0.15778 0.83247 0.23693 0.0
C1872 C 0.15713 0.80152 0.21644 0.0
C1873 C 0.17071 0.82158 0.20676 0.0
C1874 C 0.17746 0.84714 0.21224 0.0
C1875 C 0.17095 0.85251 0.22714 0.0
H1876 H 0.18196 0.39475 0.16821 0.0
H1877 H 0.19654 0.33214 0.15511 0.0
H1878 H 0.1724 0.37958 0.19456 0.0
H1879 H 0.18853 0.31795 0.18173 0.0
H1880 H 0.14463 0.28146 0.22415 0.0
H1881 H 0.15404 0.29698 0.19789 0.0
H1882 H 0.19123 0.37633 0.21938 0.0
H1883 H 0.18043 0.36078 0.24552 0.0
C1884 C 0.18325 0.37782 0.17094 0.0
C1885 C 0.18998 0.36468 0.15943 0.0
C1886 C 0.17808 0.36929 0.18617 0.0
C1887 C 0.17962 0.34746 0.19034 0.0
C1888 C 0.18675 0.33459 0.17892 0.0
C1889 C 0.19177 0.34301 0.16367 0.0
C1890 C 0.15451 0.30222 0.22328 0.0
C1891 C 0.1617 0.31981 0.23703 0.0
C1892 C 0.16027 0.31116 0.2082 0.0
C1893 C 0.17352 0.33796 0.20645 0.0
C1894 C 0.18076 0.35556 0.2202 0.0
C1895 C 0.17487 0.34661 0.23526 0.0
H1896 H 0.80116 0.59634 0.85788 0.0
H1897 H 0.81235 0.67233 0.87246 0.0
H1898 H 0.80777 0.60785 0.83047 0.0
H1899 H 0.82015 0.68423 0.84536 0.0
H1900 H 0.80859 0.68989 0.79242 0.0
H1901 H 0.79875 0.67585 0.81901 0.0
H1902 H 0.84194 0.63541 0.81481 0.0
H1903 H 0.85148 0.64923 0.78808 0.0
C1904 C 0.80492 0.61545 0.85524 0.0
C1905 C 0.80631 0.63343 0.86741 0.0
C1906 C 0.80903 0.62217 0.83956 0.0
C1907 C 0.81458 0.64701 0.83568 0.0
C1908 C 0.81564 0.66483 0.84783 0.0
C1909 C 0.8115 0.65811 0.86346 0.0
C1910 C 0.81611 0.67813 0.79721 0.0
C1911 C 0.83096 0.67083 0.78817 0.0
C1912 C 0.81047 0.67006 0.81247 0.0
C1913 C 0.81965 0.65459 0.81913 0.0
C1914 C 0.83425 0.64701 0.80999 0.0
C1915 C 0.83979 0.65499 0.79468 0.0
H1916 H 0.379 0.15547 0.86093 0.0
H1917 H 0.39738 0.23481 0.85709 0.0
H1918 H 0.35505 0.14269 0.83437 0.0
H1919 H 0.37341 0.22207 0.83065 0.0
H1920 H 0.36116 0.19703 0.77707 0.0
H1921 H 0.38076 0.20844 0.80458 0.0
H1922 H 0.3167 0.13829 0.81836 0.0
H1923 H 0.29737 0.12641 0.79056 0.0
C1924 C 0.37757 0.17008 0.85451 0.0
C1925 C 0.39033 0.19619 0.86098 0.0
C1926 C 0.36384 0.16276 0.83932 0.0
C1927 C 0.3626 0.18143 0.83035 0.0
C1928 C 0.37449 0.20734 0.83713 0.0
C1929 C 0.38821 0.21464 0.85226 0.0
C1930 C 0.35133 0.18392 0.78593 0.0
C1931 C 0.32782 0.16073 0.78163 0.0
C1932 C 0.3624 0.19063 0.80174 0.0
C1933 C 0.35022 0.17432 0.81366 0.0
C1934 C 0.32661 0.15116 0.80941 0.0
C1935 C 0.31546 0.14447 0.79355 0.0
H1936 H 0.80926 0.11442 0.8698 0.0
H1937 H 0.78632 0.17226 0.86392 0.0
H1938 H 0.81596 0.11356 0.84153 0.0
H1939 H 0.79234 0.17073 0.83556 0.0
H1940 H 0.78423 0.14256 0.78227 0.0
H1941 H 0.77427 0.13996 0.81006 0.0
H1942 H 0.84776 0.14579 0.82443 0.0
H1943 H 0.85818 0.14923 0.79684 0.0
C1944 C 0.80565 0.12697 0.86251 0.0
C1945 C 0.79742 0.14356 0.86922 0.0
C1946 C 0.8094 0.12637 0.8463 0.0
C1947 C 0.80474 0.14212 0.83637 0.0
C1948 C 0.79581 0.15816 0.84291 0.0
C1949 C 0.7923 0.15896 0.85916 0.0
C1950 C 0.79836 0.14346 0.79135 0.0
C1951 C 0.82206 0.14617 0.78725 0.0
C1952 C 0.79259 0.14188 0.80725 0.0
C1953 C 0.81023 0.14266 0.81939 0.0
C1954 C 0.83363 0.14478 0.81529 0.0
C1955 C 0.83954 0.14665 0.79944 0.0
H1956 H 0.38328 0.20065 0.4825 0.0
H1957 H 0.29995 0.15284 0.47972 0.0
H1958 H 0.38598 0.19853 0.51134 0.0
H1959 H 0.30268 0.15096 0.50859 0.0
H1960 H 0.31825 0.17897 0.56266 0.0
H1961 H 0.31427 0.17967 0.53369 0.0
H1962 H 0.37865 0.16605 0.53037 0.0
H1963 H 0.38252 0.16513 0.55928 0.0
C1964 C 0.36556 0.18957 0.48802 0.0
C1965 C 0.34141 0.17692 0.47879 0.0
C1966 C 0.3671 0.18835 0.50455 0.0
C1967 C 0.34454 0.17451 0.51223 0.0
C1968 C 0.32038 0.16204 0.50304 0.0
C1969 C 0.31883 0.16318 0.4865 0.0
C1970 C 0.33131 0.17574 0.55572 0.0
C1971 C 0.35078 0.17211 0.56329 0.0
C1972 C 0.32906 0.1762 0.53913 0.0
C1973 C 0.34627 0.17311 0.52977 0.0
C1974 C 0.36541 0.16898 0.5373 0.0
C1975 C 0.36761 0.16844 0.55386 0.0
H1976 H 0.83285 0.11218 0.49873 0.0
H1977 H 0.90534 0.1848 0.50397 0.0
H1978 H 0.81985 0.12605 0.52254 0.0
H1979 H 0.89194 0.19911 0.52755 0.0
H1980 H 0.87389 0.19643 0.5805 0.0
H1981 H 0.88614 0.18738 0.55485 0.0
H1982 H 0.80745 0.15638 0.53381 0.0
H1983 H 0.79499 0.16458 0.55968 0.0
C1984 C 0.84592 0.13122 0.5049 0.0
C1985 C 0.87024 0.14727 0.49956 0.0
C1986 C 0.83834 0.1393 0.51845 0.0
C1987 C 0.85489 0.16366 0.527 0.0
C1988 C 0.87886 0.1801 0.52134 0.0
C1989 C 0.88643 0.17202 0.50774 0.0
C1990 C 0.85919 0.18767 0.5704 0.0
C1991 C 0.8334 0.18098 0.57218 0.0
C1992 C 0.86629 0.18278 0.55564 0.0
C1993 C 0.84776 0.17107 0.54227 0.0
C1994 C 0.82213 0.16515 0.54392 0.0
C1995 C 0.81504 0.17009 0.5587 0.0
H1996 H 0.85154 0.7312 0.50272 0.0
H1997 H 0.86124 0.66579 0.4884 0.0
H1998 H 0.84262 0.71616 0.52923 0.0
H1999 H 0.85289 0.6512 0.51498 0.0
H2000 H 0.8616 0.64782 0.56931 0.0
H2001 H 0.87221 0.66439 0.54326 0.0
H2002 H 0.80789 0.67873 0.54127 0.0
H2003 H 0.79754 0.66257 0.56744 0.0
C2004 C 0.85175 0.71361 0.50518 0.0
C2005 C 0.85712 0.69974 0.49335 0.0
C2006 C 0.84666 0.70503 0.5204 0.0
C2007 C 0.84701 0.68247 0.5242 0.0
C2008 C 0.85281 0.66884 0.51249 0.0
C2009 C 0.8577 0.6773 0.49725 0.0
C2010 C 0.84983 0.65466 0.56335 0.0
C2011 C 0.8287 0.65384 0.57042 0.0
C2012 C 0.85579 0.66396 0.54838 0.0
C2013 C 0.8409 0.67288 0.54021 0.0
C2014 C 0.81988 0.67222 0.54733 0.0
C2015 C 0.81378 0.66271 0.56223 0.0
loop_
_geom_bond_atom_site_label_1
_geom_bond_atom_site_label_2
_geom_bond_distance
_geom_bond_site_symmetry_2
_ccdc_geom_bond_type
P0 O11 1.490 . S
P0 C14 1.812 . S
P0 C20 1.803 . S
P0 C26 1.819 . S
H1 C15 0.941 . S
H2 C16 0.939 . S
H3 C18 0.940 . S
H4 C19 0.940 . S
H5 C21 0.939 . S
H6 C22 0.942 . S
H7 C24 0.940 . S
H8 C25 0.939 . S
H9 C27 0.941 . S
H10 C31 0.939 . S
O11 P0 1.490 . S
H12 C28 0.939 . S
H13 C30 0.940 . S
C14 P0 1.812 . S
C14 C15 1.389 . S
C14 C19 1.391 . S
C15 H1 0.941 . S
C15 C14 1.389 . S
C15 C16 1.397 . S
C16 H2 0.939 . S
C16 C15 1.397 . S
C16 C17 1.378 . S
C17 C16 1.378 . S
C17 C18 1.378 . S
C18 H3 0.940 . S
C18 C17 1.378 . S
C18 C19 1.396 . S
C19 H4 0.940 . S
C19 C14 1.391 . S
C19 C18 1.396 . S
C20 P0 1.803 . S
C20 C21 1.378 . S
C20 C25 1.400 . S
C21 H5 0.939 . S
C21 C20 1.378 . S
C21 C22 1.361 . S
C22 H6 0.942 . S
C22 C21 1.361 . S
C22 C23 1.369 . S
C23 C22 1.369 . S
C23 C24 1.404 . S
C24 H7 0.940 . S
C24 C23 1.404 . S
C24 C25 1.389 . S
C25 H8 0.939 . S
C25 C20 1.400 . S
C25 C24 1.389 . S
C26 P0 1.819 . S
C26 C27 1.391 . S
C26 C31 1.391 . S
C27 H9 0.941 . S
C27 C26 1.391 . S
C27 C28 1.396 . S
C28 H12 0.939 . S
C28 C27 1.396 . S
C28 C29 1.397 . S
C29 C28 1.397 . S
C29 C30 1.385 . S
C30 H13 0.940 . S
C30 C29 1.385 . S
C30 C31 1.388 . S
C31 H10 0.939 . S
C31 C26 1.391 . S
C31 C30 1.388 . S
P32 O43 1.490 . S
P32 C46 1.812 . S
P32 C52 1.803 . S
P32 C58 1.819 . S
H33 C47 0.941 . S
H34 C48 0.939 . S
H35 C50 0.940 . S
H36 C51 0.940 . S
H37 C53 0.939 . S
H38 C54 0.942 . S
H39 C56 0.940 . S
H40 C57 0.939 . S
H41 C59 0.941 . S
H42 C63 0.939 . S
O43 P32 1.490 . S
H44 C60 0.939 . S
H45 C62 0.940 . S
C46 P32 1.812 . S
C46 C47 1.389 . S
C46 C51 1.391 . S
C47 H33 0.941 . S
C47 C46 1.389 . S
C47 C48 1.397 . S
C48 H34 0.939 . S
C48 C47 1.397 . S
C48 C49 1.378 . S
C49 C48 1.378 . S
C49 C50 1.378 . S
C50 H35 0.940 . S
C50 C49 1.378 . S
C50 C51 1.396 . S
C51 H36 0.940 . S
C51 C46 1.391 . S
C51 C50 1.396 . S
C52 P32 1.803 . S
C52 C53 1.378 . S
C52 C57 1.400 . S
C53 H37 0.939 . S
C53 C52 1.378 . S
C53 C54 1.361 . S
C54 H38 0.942 . S
C54 C53 1.361 . S
C54 C55 1.369 . S
C55 C54 1.369 . S
C55 C56 1.404 . S
C56 H39 0.940 . S
C56 C55 1.404 . S
C56 C57 1.389 . S
C57 H40 0.939 . S
C57 C52 1.400 . S
C57 C56 1.389 . S
C58 P32 1.819 . S
C58 C59 1.391 . S
C58 C63 1.391 . S
C59 H41 0.941 . S
C59 C58 1.391 . S
C59 C60 1.396 . S
C60 H44 0.939 . S
C60 C59 1.396 . S
C60 C61 1.397 . S
C61 C60 1.397 . S
C61 C62 1.385 . S
C62 H45 0.940 . S
C62 C61 1.385 . S
C62 C63 1.388 . S
C63 H42 0.939 . S
C63 C58 1.391 . S
C63 C62 1.388 . S
P64 O75 1.490 . S
P64 C78 1.812 . S
P64 C84 1.803 . S
P64 C90 1.819 . S
H65 C79 0.941 . S
H66 C80 0.939 . S
H67 C82 0.940 . S
H68 C83 0.940 . S
H69 C85 0.939 . S
H70 C86 0.942 . S
H71 C88 0.940 . S
H72 C89 0.939 . S
H73 C91 0.941 . S
H74 C95 0.939 . S
O75 P64 1.490 . S
H76 C92 0.939 . S
H77 C94 0.940 . S
C78 P64 1.812 . S
C78 C79 1.389 . S
C78 C83 1.391 . S
C79 H65 0.941 . S
C79 C78 1.389 . S
C79 C80 1.397 . S
C80 H66 0.939 . S
C80 C79 1.397 . S
C80 C81 1.378 . S
C81 C80 1.378 . S
C81 C82 1.378 . S
C82 H67 0.940 . S
C82 C81 1.378 . S
C82 C83 1.396 . S
C83 H68 0.940 . S
C83 C78 1.391 . S
C83 C82 1.396 . S
C84 P64 1.803 . S
C84 C85 1.378 . S
C84 C89 1.400 . S
C85 H69 0.939 . S
C85 C84 1.378 . S
C85 C86 1.361 . S
C86 H70 0.942 . S
C86 C85 1.361 . S
C86 C87 1.369 . S
C87 C86 1.369 . S
C87 C88 1.404 . S
C88 H71 0.940 . S
C88 C87 1.404 . S
C88 C89 1.389 . S
C89 H72 0.939 . S
C89 C84 1.400 . S
C89 C88 1.389 . S
C90 P64 1.819 . S
C90 C91 1.391 . S
C90 C95 1.391 . S
C91 H73 0.941 . S
C91 C90 1.391 . S
C91 C92 1.396 . S
C92 H76 0.939 . S
C92 C91 1.396 . S
C92 C93 1.397 . S
C93 C92 1.397 . S
C93 C94 1.385 . S
C94 H77 0.940 . S
C94 C93 1.385 . S
C94 C95 1.388 . S
C95 H74 0.939 . S
C95 C90 1.391 . S
C95 C94 1.388 . S
P96 O107 1.490 . S
P96 C110 1.812 . S
P96 C116 1.803 . S
P96 C122 1.819 . S
H97 C111 0.941 . S
H98 C112 0.939 . S
H99 C114 0.940 . S
H100 C115 0.940 . S
H101 C117 0.939 . S
H102 C118 0.942 . S
H103 C120 0.940 . S
H104 C121 0.939 . S
H105 C123 0.941 . S
H106 C127 0.939 . S
O107 P96 1.490 . S
H108 C124 0.939 . S
H109 C126 0.940 . S
C110 P96 1.812 . S
C110 C111 1.389 . S
C110 C115 1.391 . S
C111 H97 0.941 . S
C111 C110 1.389 . S
C111 C112 1.397 . S
C112 H98 0.939 . S
C112 C111 1.397 . S
C112 C113 1.378 . S
C113 C112 1.378 . S
C113 C114 1.378 . S
C114 H99 0.940 . S
C114 C113 1.378 . S
C114 C115 1.396 . S
C115 H100 0.940 . S
C115 C110 1.391 . S
C115 C114 1.396 . S
C116 P96 1.803 . S
C116 C117 1.378 . S
C116 C121 1.400 . S
C117 H101 0.939 . S
C117 C116 1.378 . S
C117 C118 1.361 . S
C118 H102 0.942 . S
C118 C117 1.361 . S
C118 C119 1.369 . S
C119 C118 1.369 . S
C119 C120 1.404 . S
C120 H103 0.940 . S
C120 C119 1.404 . S
C120 C121 1.389 . S
C121 H104 0.939 . S
C121 C116 1.400 . S
C121 C120 1.389 . S
C122 P96 1.819 . S
C122 C123 1.391 . S
C122 C127 1.391 . S
C123 H105 0.941 . S
C123 C122 1.391 . S
C123 C124 1.396 . S
C124 H108 0.939 . S
C124 C123 1.396 . S
C124 C125 1.397 . S
C125 C124 1.397 . S
C125 C126 1.385 . S
C126 H109 0.940 . S
C126 C125 1.385 . S
C126 C127 1.388 . S
C127 H106 0.939 . S
C127 C122 1.391 . S
C127 C126 1.388 . S
P128 O139 1.490 . S
P128 C142 1.812 . S
P128 C148 1.803 . S
P128 C154 1.819 . S
H129 C143 0.941 . S
H130 C144 0.939 . S
H131 C146 0.940 . S
H132 C147 0.940 . S
H133 C149 0.939 . S
H134 C150 0.942 . S
H135 C152 0.940 . S
H136 C153 0.939 . S
H137 C155 0.941 . S
H138 C159 0.939 . S
O139 P128 1.490 . S
H140 C156 0.939 . S
H141 C158 0.940 . S
C142 P128 1.812 . S
C142 C143 1.389 . S
C142 C147 1.391 . S
C143 H129 0.941 . S
C143 C142 1.389 . S
C143 C144 1.397 . S
C144 H130 0.939 . S
C144 C143 1.397 . S
C144 C145 1.378 . S
C145 C144 1.378 . S
C145 C146 1.378 . S
C146 H131 0.940 . S
C146 C145 1.378 . S
C146 C147 1.396 . S
C147 H132 0.940 . S
C147 C142 1.391 . S
C147 C146 1.396 . S
C148 P128 1.803 . S
C148 C149 1.378 . S
C148 C153 1.400 . S
C149 H133 0.939 . S
C149 C148 1.378 . S
C149 C150 1.361 . S
C150 H134 0.942 . S
C150 C149 1.361 . S
C150 C151 1.369 . S
C151 C150 1.369 . S
C151 C152 1.404 . S
C152 H135 0.940 . S
C152 C151 1.404 . S
C152 C153 1.389 . S
C153 H136 0.939 . S
C153 C148 1.400 . S
C153 C152 1.389 . S
C154 P128 1.819 . S
C154 C155 1.391 . S
C154 C159 1.391 . S
C155 H137 0.941 . S
C155 C154 1.391 . S
C155 C156 1.396 . S
C156 H140 0.939 . S
C156 C155 1.396 . S
C156 C157 1.397 . S
C157 C156 1.397 . S
C157 C158 1.385 . S
C158 H141 0.940 . S
C158 C157 1.385 . S
C158 C159 1.388 . S
C159 H138 0.939 . S
C159 C154 1.391 . S
C159 C158 1.388 . S
P160 O171 1.490 . S
P160 C174 1.812 . S
P160 C180 1.803 . S
P160 C186 1.819 . S
H161 C175 0.941 . S
H162 C176 0.939 . S
H163 C178 0.940 . S
H164 C179 0.940 . S
H165 C181 0.939 . S
H166 C182 0.942 . S
H167 C184 0.940 . S
H168 C185 0.939 . S
H169 C187 0.941 . S
H170 C191 0.939 . S
O171 P160 1.490 . S
H172 C188 0.939 . S
H173 C190 0.940 . S
C174 P160 1.812 . S
C174 C175 1.389 . S
C174 C179 1.391 . S
C175 H161 0.941 . S
C175 C174 1.389 . S
C175 C176 1.397 . S
C176 H162 0.939 . S
C176 C175 1.397 . S
C176 C177 1.378 . S
C177 C176 1.378 . S
C177 C178 1.378 . S
C178 H163 0.940 . S
C178 C177 1.378 . S
C178 C179 1.396 . S
C179 H164 0.940 . S
C179 C174 1.391 . S
C179 C178 1.396 . S
C180 P160 1.803 . S
C180 C181 1.378 . S
C180 C185 1.400 . S
C181 H165 0.939 . S
C181 C180 1.378 . S
C181 C182 1.361 . S
C182 H166 0.942 . S
C182 C181 1.361 . S
C182 C183 1.369 . S
C183 C182 1.369 . S
C183 C184 1.404 . S
C184 H167 0.940 . S
C184 C183 1.404 . S
C184 C185 1.389 . S
C185 H168 0.939 . S
C185 C180 1.400 . S
C185 C184 1.389 . S
C186 P160 1.819 . S
C186 C187 1.391 . S
C186 C191 1.391 . S
C187 H169 0.941 . S
C187 C186 1.391 . S
C187 C188 1.396 . S
C188 H172 0.939 . S
C188 C187 1.396 . S
C188 C189 1.397 . S
C189 C188 1.397 . S
C189 C190 1.385 . S
C190 H173 0.940 . S
C190 C189 1.385 . S
C190 C191 1.388 . S
C191 H170 0.939 . S
C191 C186 1.391 . S
C191 C190 1.388 . S
P192 O203 1.490 1_655 S
P192 C206 1.812 . S
P192 C212 1.803 . S
P192 C218 1.819 . S
H193 C207 0.941 . S
H194 C208 0.939 . S
H195 C210 0.940 . S
H196 C211 0.940 . S
H197 C213 0.939 1_455 S
H198 C214 0.942 . S
H199 C216 0.940 . S
H200 C217 0.939 . S
H201 C219 0.941 . S
H202 C223 0.939 . S
O203 P192 1.490 1_455 S
H204 C220 0.939 . S
H205 C222 0.940 . S
C206 P192 1.812 . S
C206 C207 1.389 . S
C206 C211 1.391 . S
C207 H193 0.941 . S
C207 C206 1.389 . S
C207 C208 1.397 . S
C208 H194 0.939 . S
C208 C207 1.397 . S
C208 C209 1.378 . S
C209 C208 1.378 . S
C209 C210 1.378 . S
C210 H195 0.940 . S
C210 C209 1.378 . S
C210 C211 1.396 . S
C211 H196 0.940 . S
C211 C206 1.391 . S
C211 C210 1.396 . S
C212 P192 1.803 . S
C212 C213 1.378 . S
C212 C217 1.400 . S
C213 H197 0.939 1_655 S
C213 C212 1.378 . S
C213 C214 1.361 . S
C214 H198 0.942 . S
C214 C213 1.361 . S
C214 C215 1.369 . S
C215 C214 1.369 . S
C215 C216 1.404 . S
C216 H199 0.940 . S
C216 C215 1.404 . S
C216 C217 1.389 . S
C217 H200 0.939 . S
C217 C212 1.400 . S
C217 C216 1.389 . S
C218 P192 1.819 . S
C218 C219 1.391 1_655 S
C218 C223 1.391 . S
C219 H201 0.941 . S
C219 C218 1.391 1_455 S
C219 C220 1.396 . S
C220 H204 0.939 . S
C220 C219 1.396 . S
C220 C221 1.397 1_455 S
C221 C220 1.397 1_655 S
C221 C222 1.385 . S
C222 H205 0.940 . S
C222 C221 1.385 . S
C222 C223 1.388 . S
C223 H202 0.939 . S
C223 C218 1.391 . S
C223 C222 1.388 . S
P224 O235 1.490 . S
P224 C238 1.812 . S
P224 C244 1.803 . S
P224 C250 1.819 . S
H225 C239 0.941 . S
H226 C240 0.939 . S
H227 C242 0.940 . S
H228 C243 0.940 . S
H229 C245 0.939 . S
H230 C246 0.942 . S
H231 C248 0.940 . S
H232 C249 0.939 . S
H233 C251 0.941 . S
H234 C255 0.939 . S
O235 P224 1.490 . S
H236 C252 0.939 . S
H237 C254 0.940 . S
C238 P224 1.812 . S
C238 C239 1.389 . S
C238 C243 1.391 . S
C239 H225 0.941 . S
C239 C238 1.389 . S
C239 C240 1.397 . S
C240 H226 0.939 . S
C240 C239 1.397 . S
C240 C241 1.378 . S
C241 C240 1.378 . S
C241 C242 1.378 . S
C242 H227 0.940 . S
C242 C241 1.378 . S
C242 C243 1.396 . S
C243 H228 0.940 . S
C243 C238 1.391 . S
C243 C242 1.396 . S
C244 P224 1.803 . S
C244 C245 1.378 . S
C244 C249 1.400 . S
C245 H229 0.939 . S
C245 C244 1.378 . S
C245 C246 1.361 . S
C246 H230 0.942 . S
C246 C245 1.361 . S
C246 C247 1.369 . S
C247 C246 1.369 . S
C247 C248 1.404 . S
C248 H231 0.940 . S
C248 C247 1.404 . S
C248 C249 1.389 . S
C249 H232 0.939 . S
C249 C244 1.400 . S
C249 C248 1.389 . S
C250 P224 1.819 . S
C250 C251 1.391 . S
C250 C255 1.391 . S
C251 H233 0.941 . S
C251 C250 1.391 . S
C251 C252 1.396 . S
C252 H236 0.939 . S
C252 C251 1.396 . S
C252 C253 1.397 . S
C253 C252 1.397 . S
C253 C254 1.385 . S
C254 H237 0.940 . S
C254 C253 1.385 . S
C254 C255 1.388 . S
C255 H234 0.939 . S
C255 C250 1.391 . S
C255 C254 1.388 . S
P256 O267 1.490 . S
P256 C270 1.812 . S
P256 C276 1.803 . S
P256 C282 1.819 . S
H257 C271 0.941 . S
H258 C272 0.939 . S
H259 C274 0.940 . S
H260 C275 0.940 . S
H261 C277 0.939 . S
H262 C278 0.942 . S
H263 C280 0.940 . S
H264 C281 0.939 . S
H265 C283 0.941 . S
H266 C287 0.939 . S
O267 P256 1.490 . S
H268 C284 0.939 . S
H269 C286 0.940 . S
C270 P256 1.812 . S
C270 C271 1.389 . S
C270 C275 1.391 . S
C271 H257 0.941 . S
C271 C270 1.389 . S
C271 C272 1.397 . S
C272 H258 0.939 . S
C272 C271 1.397 . S
C272 C273 1.378 . S
C273 C272 1.378 . S
C273 C274 1.378 . S
C274 H259 0.940 . S
C274 C273 1.378 . S
C274 C275 1.396 . S
C275 H260 0.940 . S
C275 C270 1.391 . S
C275 C274 1.396 . S
C276 P256 1.803 . S
C276 C277 1.378 . S
C276 C281 1.400 . S
C277 H261 0.939 . S
C277 C276 1.378 . S
C277 C278 1.361 . S
C278 H262 0.942 . S
C278 C277 1.361 . S
C278 C279 1.369 . S
C279 C278 1.369 . S
C279 C280 1.404 . S
C280 H263 0.940 . S
C280 C279 1.404 . S
C280 C281 1.389 . S
C281 H264 0.939 . S
C281 C276 1.400 . S
C281 C280 1.389 . S
C282 P256 1.819 . S
C282 C283 1.391 . S
C282 C287 1.391 . S
C283 H265 0.941 . S
C283 C282 1.391 . S
C283 C284 1.396 . S
C284 H268 0.939 . S
C284 C283 1.396 . S
C284 C285 1.397 . S
C285 C284 1.397 . S
C285 C286 1.385 . S
C286 H269 0.940 . S
C286 C285 1.385 . S
C286 C287 1.388 . S
C287 H266 0.939 . S
C287 C282 1.391 . S
C287 C286 1.388 . S
P288 O299 1.490 . S
P288 C302 1.812 . S
P288 C308 1.803 . S
P288 C314 1.819 . S
H289 C303 0.941 . S
H290 C304 0.939 . S
H291 C306 0.940 . S
H292 C307 0.940 . S
H293 C309 0.939 . S
H294 C310 0.942 . S
H295 C312 0.940 . S
H296 C313 0.939 . S
H297 C315 0.941 . S
H298 C319 0.939 . S
O299 P288 1.490 . S
H300 C316 0.939 . S
H301 C318 0.940 . S
C302 P288 1.812 . S
C302 C303 1.389 . S
C302 C307 1.391 . S
C303 H289 0.941 . S
C303 C302 1.389 . S
C303 C304 1.397 . S
C304 H290 0.939 . S
C304 C303 1.397 . S
C304 C305 1.378 . S
C305 C304 1.378 . S
C305 C306 1.378 . S
C306 H291 0.940 . S
C306 C305 1.378 . S
C306 C307 1.396 . S
C307 H292 0.940 . S
C307 C302 1.391 . S
C307 C306 1.396 . S
C308 P288 1.803 . S
C308 C309 1.378 . S
C308 C313 1.400 . S
C309 H293 0.939 . S
C309 C308 1.378 . S
C309 C310 1.361 . S
C310 H294 0.942 . S
C310 C309 1.361 . S
C310 C311 1.369 . S
C311 C310 1.369 . S
C311 C312 1.404 . S
C312 H295 0.940 . S
C312 C311 1.404 . S
C312 C313 1.389 . S
C313 H296 0.939 . S
C313 C308 1.400 . S
C313 C312 1.389 . S
C314 P288 1.819 . S
C314 C315 1.391 . S
C314 C319 1.391 . S
C315 H297 0.941 . S
C315 C314 1.391 . S
C315 C316 1.396 . S
C316 H300 0.939 . S
C316 C315 1.396 . S
C316 C317 1.397 . S
C317 C316 1.397 . S
C317 C318 1.385 . S
C318 H301 0.940 . S
C318 C317 1.385 . S
C318 C319 1.388 . S
C319 H298 0.939 . S
C319 C314 1.391 . S
C319 C318 1.388 . S
P320 O331 1.490 . S
P320 C334 1.812 . S
P320 C340 1.803 . S
P320 C346 1.819 . S
H321 C335 0.941 . S
H322 C336 0.939 . S
H323 C338 0.940 . S
H324 C339 0.940 . S
H325 C341 0.939 . S
H326 C342 0.942 . S
H327 C344 0.940 . S
H328 C345 0.939 . S
H329 C347 0.941 . S
H330 C351 0.939 . S
O331 P320 1.490 . S
H332 C348 0.939 . S
H333 C350 0.940 . S
C334 P320 1.812 . S
C334 C335 1.389 . S
C334 C339 1.391 . S
C335 H321 0.941 . S
C335 C334 1.389 . S
C335 C336 1.397 . S
C336 H322 0.939 . S
C336 C335 1.397 . S
C336 C337 1.378 . S
C337 C336 1.378 . S
C337 C338 1.378 . S
C338 H323 0.940 . S
C338 C337 1.378 . S
C338 C339 1.396 . S
C339 H324 0.940 . S
C339 C334 1.391 . S
C339 C338 1.396 . S
C340 P320 1.803 . S
C340 C341 1.378 . S
C340 C345 1.400 . S
C341 H325 0.939 . S
C341 C340 1.378 . S
C341 C342 1.361 . S
C342 H326 0.942 . S
C342 C341 1.361 . S
C342 C343 1.369 . S
C343 C342 1.369 . S
C343 C344 1.404 . S
C344 H327 0.940 . S
C344 C343 1.404 . S
C344 C345 1.389 . S
C345 H328 0.939 . S
C345 C340 1.400 . S
C345 C344 1.389 . S
C346 P320 1.819 . S
C346 C347 1.391 . S
C346 C351 1.391 . S
C347 H329 0.941 . S
C347 C346 1.391 . S
C347 C348 1.396 . S
C348 H332 0.939 . S
C348 C347 1.396 . S
C348 C349 1.397 . S
C349 C348 1.397 . S
C349 C350 1.385 . S
C350 H333 0.940 . S
C350 C349 1.385 . S
C350 C351 1.388 . S
C351 H330 0.939 . S
C351 C346 1.391 . S
C351 C350 1.388 . S
P352 O363 1.490 . S
P352 C366 1.812 . S
P352 C372 1.803 . S
P352 C378 1.819 . S
H353 C367 0.941 . S
H354 C368 0.939 . S
H355 C370 0.940 . S
H356 C371 0.940 . S
H357 C373 0.939 . S
H358 C374 0.942 . S
H359 C376 0.940 . S
H360 C377 0.939 . S
H361 C379 0.941 . S
H362 C383 0.939 . S
O363 P352 1.490 . S
H364 C380 0.939 . S
H365 C382 0.940 . S
C366 P352 1.812 . S
C366 C367 1.389 . S
C366 C371 1.391 . S
C367 H353 0.941 . S
C367 C366 1.389 . S
C367 C368 1.397 . S
C368 H354 0.939 . S
C368 C367 1.397 . S
C368 C369 1.378 . S
C369 C368 1.378 . S
C369 C370 1.378 . S
C370 H355 0.940 . S
C370 C369 1.378 . S
C370 C371 1.396 . S
C371 H356 0.940 . S
C371 C366 1.391 . S
C371 C370 1.396 . S
C372 P352 1.803 . S
C372 C373 1.378 . S
C372 C377 1.400 . S
C373 H357 0.939 . S
C373 C372 1.378 . S
C373 C374 1.361 . S
C374 H358 0.942 . S
C374 C373 1.361 . S
C374 C375 1.369 . S
C375 C374 1.369 . S
C375 C376 1.404 . S
C376 H359 0.940 . S
C376 C375 1.404 . S
C376 C377 1.389 . S
C377 H360 0.939 . S
C377 C372 1.400 . S
C377 C376 1.389 . S
C378 P352 1.819 . S
C378 C379 1.391 . S
C378 C383 1.391 . S
C379 H361 0.941 . S
C379 C378 1.391 . S
C379 C380 1.396 . S
C380 H364 0.939 . S
C380 C379 1.396 . S
C380 C381 1.397 . S
C381 C380 1.397 . S
C381 C382 1.385 . S
C382 H365 0.940 . S
C382 C381 1.385 . S
C382 C383 1.388 . S
C383 H362 0.939 . S
C383 C378 1.391 . S
C383 C382 1.388 . S
P384 O395 1.490 . S
P384 C398 1.812 . S
P384 C404 1.803 . S
P384 C410 1.819 . S
H385 C399 0.941 . S
H386 C400 0.939 . S
H387 C402 0.940 . S
H388 C403 0.940 . S
H389 C405 0.939 . S
H390 C406 0.942 . S
H391 C408 0.940 . S
H392 C409 0.939 . S
H393 C411 0.941 . S
H394 C415 0.939 . S
O395 P384 1.490 . S
H396 C412 0.939 . S
H397 C414 0.940 . S
C398 P384 1.812 . S
C398 C399 1.389 . S
C398 C403 1.391 . S
C399 H385 0.941 . S
C399 C398 1.389 . S
C399 C400 1.397 . S
C400 H386 0.939 . S
C400 C399 1.397 . S
C400 C401 1.378 . S
C401 C400 1.378 . S
C401 C402 1.378 . S
C402 H387 0.940 . S
C402 C401 1.378 . S
C402 C403 1.396 . S
C403 H388 0.940 . S
C403 C398 1.391 . S
C403 C402 1.396 . S
C404 P384 1.803 . S
C404 C405 1.378 . S
C404 C409 1.400 . S
C405 H389 0.939 . S
C405 C404 1.378 . S
C405 C406 1.361 . S
C406 H390 0.942 . S
C406 C405 1.361 . S
C406 C407 1.369 . S
C407 C406 1.369 . S
C407 C408 1.404 . S
C408 H391 0.940 . S
C408 C407 1.404 . S
C408 C409 1.389 . S
C409 H392 0.939 . S
C409 C404 1.400 . S
C409 C408 1.389 . S
C410 P384 1.819 . S
C410 C411 1.391 . S
C410 C415 1.391 . S
C411 H393 0.941 . S
C411 C410 1.391 . S
C411 C412 1.396 . S
C412 H396 0.939 . S
C412 C411 1.396 . S
C412 C413 1.397 . S
C413 C412 1.397 . S
C413 C414 1.385 . S
C414 H397 0.940 . S
C414 C413 1.385 . S
C414 C415 1.388 . S
C415 H394 0.939 . S
C415 C410 1.391 . S
C415 C414 1.388 . S
P416 O427 1.490 . S
P416 C430 1.812 . S
P416 C436 1.803 . S
P416 C442 1.819 . S
H417 C431 0.941 . S
H418 C432 0.939 . S
H419 C434 0.940 . S
H420 C435 0.940 . S
H421 C437 0.939 . S
H422 C438 0.942 . S
H423 C440 0.940 . S
H424 C441 0.939 . S
H425 C443 0.941 . S
H426 C447 0.939 . S
O427 P416 1.490 . S
H428 C444 0.939 . S
H429 C446 0.940 . S
C430 P416 1.812 . S
C430 C431 1.389 . S
C430 C435 1.391 . S
C431 H417 0.941 . S
C431 C430 1.389 . S
C431 C432 1.397 . S
C432 H418 0.939 . S
C432 C431 1.397 . S
C432 C433 1.378 . S
C433 C432 1.378 . S
C433 C434 1.378 . S
C434 H419 0.940 . S
C434 C433 1.378 . S
C434 C435 1.396 . S
C435 H420 0.940 . S
C435 C430 1.391 . S
C435 C434 1.396 . S
C436 P416 1.803 . S
C436 C437 1.378 . S
C436 C441 1.400 . S
C437 H421 0.939 . S
C437 C436 1.378 . S
C437 C438 1.361 . S
C438 H422 0.942 . S
C438 C437 1.361 . S
C438 C439 1.369 . S
C439 C438 1.369 . S
C439 C440 1.404 . S
C440 H423 0.940 . S
C440 C439 1.404 . S
C440 C441 1.389 . S
C441 H424 0.939 . S
C441 C436 1.400 . S
C441 C440 1.389 . S
C442 P416 1.819 . S
C442 C443 1.391 . S
C442 C447 1.391 . S
C443 H425 0.941 . S
C443 C442 1.391 . S
C443 C444 1.396 . S
C444 H428 0.939 . S
C444 C443 1.396 . S
C444 C445 1.397 . S
C445 C444 1.397 . S
C445 C446 1.385 . S
C446 H429 0.940 . S
C446 C445 1.385 . S
C446 C447 1.388 . S
C447 H426 0.939 . S
C447 C442 1.391 . S
C447 C446 1.388 . S
P448 O459 1.490 . S
P448 C462 1.812 . S
P448 C468 1.803 . S
P448 C474 1.819 . S
H449 C463 0.941 . S
H450 C464 0.939 . S
H451 C466 0.940 . S
H452 C467 0.940 . S
H453 C469 0.939 . S
H454 C470 0.942 . S
H455 C472 0.940 . S
H456 C473 0.939 . S
H457 C475 0.941 . S
H458 C479 0.939 . S
O459 P448 1.490 . S
H460 C476 0.939 . S
H461 C478 0.940 . S
C462 P448 1.812 . S
C462 C463 1.389 . S
C462 C467 1.391 . S
C463 H449 0.941 . S
C463 C462 1.389 . S
C463 C464 1.397 . S
C464 H450 0.939 . S
C464 C463 1.397 . S
C464 C465 1.378 . S
C465 C464 1.378 . S
C465 C466 1.378 . S
C466 H451 0.940 . S
C466 C465 1.378 . S
C466 C467 1.396 . S
C467 H452 0.940 . S
C467 C462 1.391 . S
C467 C466 1.396 . S
C468 P448 1.803 . S
C468 C469 1.378 . S
C468 C473 1.400 . S
C469 H453 0.939 . S
C469 C468 1.378 . S
C469 C470 1.361 . S
C470 H454 0.942 . S
C470 C469 1.361 . S
C470 C471 1.369 . S
C471 C470 1.369 . S
C471 C472 1.404 . S
C472 H455 0.940 . S
C472 C471 1.404 . S
C472 C473 1.389 . S
C473 H456 0.939 . S
C473 C468 1.400 . S
C473 C472 1.389 . S
C474 P448 1.819 . S
C474 C475 1.391 . S
C474 C479 1.391 . S
C475 H457 0.941 . S
C475 C474 1.391 . S
C475 C476 1.396 . S
C476 H460 0.939 . S
C476 C475 1.396 . S
C476 C477 1.397 . S
C477 C476 1.397 . S
C477 C478 1.385 . S
C478 H461 0.940 . S
C478 C477 1.385 . S
C478 C479 1.388 . S
C479 H458 0.939 . S
C479 C474 1.391 . S
C479 C478 1.388 . S
P480 O491 1.490 . S
P480 C494 1.812 . S
P480 C500 1.803 . S
P480 C506 1.819 . S
H481 C495 0.941 . S
H482 C496 0.939 . S
H483 C498 0.940 . S
H484 C499 0.940 . S
H485 C501 0.939 . S
H486 C502 0.942 . S
H487 C504 0.940 . S
H488 C505 0.939 . S
H489 C507 0.941 . S
H490 C511 0.939 . S
O491 P480 1.490 . S
H492 C508 0.939 . S
H493 C510 0.940 . S
C494 P480 1.812 . S
C494 C495 1.389 . S
C494 C499 1.391 . S
C495 H481 0.941 . S
C495 C494 1.389 . S
C495 C496 1.397 . S
C496 H482 0.939 . S
C496 C495 1.397 . S
C496 C497 1.378 . S
C497 C496 1.378 . S
C497 C498 1.378 . S
C498 H483 0.940 . S
C498 C497 1.378 . S
C498 C499 1.396 . S
C499 H484 0.940 . S
C499 C494 1.391 . S
C499 C498 1.396 . S
C500 P480 1.803 . S
C500 C501 1.378 . S
C500 C505 1.400 . S
C501 H485 0.939 . S
C501 C500 1.378 . S
C501 C502 1.361 . S
C502 H486 0.942 . S
C502 C501 1.361 . S
C502 C503 1.369 . S
C503 C502 1.369 . S
C503 C504 1.404 . S
C504 H487 0.940 . S
C504 C503 1.404 . S
C504 C505 1.389 . S
C505 H488 0.939 . S
C505 C500 1.400 . S
C505 C504 1.389 . S
C506 P480 1.819 . S
C506 C507 1.391 . S
C506 C511 1.391 . S
C507 H489 0.941 . S
C507 C506 1.391 . S
C507 C508 1.396 . S
C508 H492 0.939 . S
C508 C507 1.396 . S
C508 C509 1.397 . S
C509 C508 1.397 . S
C509 C510 1.385 . S
C510 H493 0.940 . S
C510 C509 1.385 . S
C510 C511 1.388 . S
C511 H490 0.939 . S
C511 C506 1.391 . S
C511 C510 1.388 . S
P512 O523 1.490 . S
P512 C526 1.812 . S
P512 C532 1.803 . S
P512 C538 1.819 . S
H513 C527 0.941 . S
H514 C528 0.939 . S
H515 C530 0.940 . S
H516 C531 0.940 . S
H517 C533 0.939 . S
H518 C534 0.942 . S
H519 C536 0.940 . S
H520 C537 0.939 . S
H521 C539 0.941 . S
H522 C543 0.939 . S
O523 P512 1.490 . S
H524 C540 0.939 . S
H525 C542 0.940 . S
C526 P512 1.812 . S
C526 C527 1.389 . S
C526 C531 1.391 . S
C527 H513 0.941 . S
C527 C526 1.389 . S
C527 C528 1.397 . S
C528 H514 0.939 . S
C528 C527 1.397 . S
C528 C529 1.378 . S
C529 C528 1.378 . S
C529 C530 1.378 . S
C530 H515 0.940 . S
C530 C529 1.378 . S
C530 C531 1.396 . S
C531 H516 0.940 . S
C531 C526 1.391 . S
C531 C530 1.396 . S
C532 P512 1.803 . S
C532 C533 1.378 . S
C532 C537 1.400 . S
C533 H517 0.939 . S
C533 C532 1.378 . S
C533 C534 1.361 . S
C534 H518 0.942 . S
C534 C533 1.361 . S
C534 C535 1.369 . S
C535 C534 1.369 . S
C535 C536 1.404 . S
C536 H519 0.940 . S
C536 C535 1.404 . S
C536 C537 1.389 . S
C537 H520 0.939 . S
C537 C532 1.400 . S
C537 C536 1.389 . S
C538 P512 1.819 . S
C538 C539 1.391 . S
C538 C543 1.391 . S
C539 H521 0.941 . S
C539 C538 1.391 . S
C539 C540 1.396 . S
C540 H524 0.939 . S
C540 C539 1.396 . S
C540 C541 1.397 . S
C541 C540 1.397 . S
C541 C542 1.385 . S
C542 H525 0.940 . S
C542 C541 1.385 . S
C542 C543 1.388 . S
C543 H522 0.939 . S
C543 C538 1.391 . S
C543 C542 1.388 . S
P544 O555 1.490 . S
P544 C558 1.812 . S
P544 C564 1.803 . S
P544 C570 1.819 . S
H545 C559 0.941 . S
H546 C560 0.939 . S
H547 C562 0.940 . S
H548 C563 0.940 . S
H549 C565 0.939 . S
H550 C566 0.942 . S
H551 C568 0.940 . S
H552 C569 0.939 . S
H553 C571 0.941 . S
H554 C575 0.939 . S
O555 P544 1.490 . S
H556 C572 0.939 . S
H557 C574 0.940 . S
C558 P544 1.812 . S
C558 C559 1.389 . S
C558 C563 1.391 . S
C559 H545 0.941 . S
C559 C558 1.389 . S
C559 C560 1.397 . S
C560 H546 0.939 . S
C560 C559 1.397 . S
C560 C561 1.378 . S
C561 C560 1.378 . S
C561 C562 1.378 . S
C562 H547 0.940 . S
C562 C561 1.378 . S
C562 C563 1.396 . S
C563 H548 0.940 . S
C563 C558 1.391 . S
C563 C562 1.396 . S
C564 P544 1.803 . S
C564 C565 1.378 . S
C564 C569 1.400 . S
C565 H549 0.939 . S
C565 C564 1.378 . S
C565 C566 1.361 . S
C566 H550 0.942 . S
C566 C565 1.361 . S
C566 C567 1.369 . S
C567 C566 1.369 . S
C567 C568 1.404 . S
C568 H551 0.940 . S
C568 C567 1.404 . S
C568 C569 1.389 . S
C569 H552 0.939 . S
C569 C564 1.400 . S
C569 C568 1.389 . S
C570 P544 1.819 . S
C570 C571 1.391 . S
C570 C575 1.391 . S
C571 H553 0.941 . S
C571 C570 1.391 . S
C571 C572 1.396 . S
C572 H556 0.939 . S
C572 C571 1.396 . S
C572 C573 1.397 . S
C573 C572 1.397 . S
C573 C574 1.385 . S
C574 H557 0.940 . S
C574 C573 1.385 . S
C574 C575 1.388 . S
C575 H554 0.939 . S
C575 C570 1.391 . S
C575 C574 1.388 . S
Eu576 C585 2.828 . S
Eu576 O587 2.346 1_556 S
Eu576 O589 2.418 . S
Eu576 O594 2.373 1_565 S
Eu576 O597 2.488 . S
Eu576 O598 2.471 1_565 S
Eu576 O599 2.349 1_565 S
Eu577 O586 2.373 1_545 S
Eu577 O590 2.488 . S
Eu577 O591 2.471 1_545 S
Eu577 O592 2.349 1_545 S
Eu577 O595 2.392 . S
Eu577 O596 2.418 . S
Eu577 C606 2.828 . S
C578 O596 1.244 . S
C578 O599 1.265 1_554 S
C579 C580 1.379 1_565 S
C579 C583 1.373 . S
C579 C585 1.505 . S
C580 C579 1.379 1_545 S
C580 C582 1.369 . S
C580 H608 0.930 . S
C581 C583 1.383 . S
C581 C584 1.382 1_565 S
C581 H609 0.930 . S
C582 C580 1.369 . S
C582 C584 1.392 . S
C582 H610 0.930 . S
C583 C579 1.373 . S
C583 C581 1.383 . S
C583 H611 0.931 . S
C584 C581 1.382 1_545 S
C584 C582 1.392 . S
C585 Eu576 2.828 . S
C585 C579 1.505 . S
C585 O597 1.249 . S
C585 O598 1.244 1_565 S
O586 Eu577 2.373 1_565 S
O586 C588 1.258 . S
O587 Eu576 2.346 1_554 S
O587 C588 1.298 . S
C588 O586 1.258 . S
C588 O587 1.298 . S
O589 Eu576 2.418 . S
O589 C593 1.244 1_556 S
O590 Eu577 2.488 . S
O590 C606 1.249 . S
O591 Eu577 2.471 1_565 S
O591 C606 1.244 1_565 S
O592 Eu577 2.349 1_565 S
O592 C593 1.265 . S
C593 O589 1.244 1_554 S
C593 O592 1.265 . S
O594 Eu576 2.373 1_545 S
O594 C607 1.258 . S
O595 Eu577 2.392 . S
O595 C607 1.242 1_554 S
O596 Eu577 2.418 . S
O596 C578 1.244 . S
O597 Eu576 2.488 . S
O597 C585 1.249 . S
O598 Eu576 2.471 1_545 S
O598 C585 1.244 1_545 S
O599 Eu576 2.349 1_545 S
O599 C578 1.265 1_556 S
C600 C601 1.379 1_545 S
C600 C604 1.373 . S
C600 C606 1.505 . S
C601 C600 1.379 1_565 S
C601 C603 1.369 . S
C601 H612 0.930 . S
C602 C604 1.383 . S
C602 C605 1.382 1_545 S
C602 H613 0.930 . S
C603 C601 1.369 . S
C603 C605 1.392 . S
C603 H614 0.930 . S
C604 C600 1.373 . S
C604 C602 1.383 . S
C604 H615 0.931 . S
C605 C602 1.382 1_565 S
C605 C603 1.392 . S
C606 Eu577 2.828 . S
C606 O590 1.249 . S
C606 O591 1.244 1_545 S
C606 C600 1.505 . S
C607 O594 1.258 . S
C607 O595 1.242 1_556 S
H608 C580 0.930 . S
H609 C581 0.930 . S
H610 C582 0.930 . S
H611 C583 0.931 . S
H612 C601 0.930 . S
H613 C602 0.930 . S
H614 C603 0.930 . S
H615 C604 0.931 . S
Eu616 C625 2.828 . S
Eu616 O627 2.392 1_556 S
Eu616 O629 2.418 . S
Eu616 O634 2.373 1_455 S
Eu616 O637 2.488 . S
Eu616 O638 2.471 1_455 S
Eu616 O639 2.349 1_455 S
Eu617 O626 2.373 1_655 S
Eu617 O630 2.488 . S
Eu617 O631 2.471 1_655 S
Eu617 O632 2.349 1_655 S
Eu617 O635 2.392 . S
Eu617 O636 2.418 . S
Eu617 C646 2.828 . S
C618 O636 1.244 1_556 S
C618 O639 1.265 . S
C619 C620 1.354 1_455 S
C619 C623 1.387 . S
C619 C625 1.516 . S
C620 C619 1.354 1_655 S
C620 C622 1.369 . S
C620 H648 0.930 . S
C621 C623 1.383 . S
C621 C624 1.382 1_455 S
C621 H649 0.930 . S
C622 C620 1.369 . S
C622 C624 1.392 . S
C622 H650 0.930 . S
C623 C619 1.387 . S
C623 C621 1.383 . S
C623 H651 0.931 . S
C624 C621 1.382 1_655 S
C624 C622 1.392 . S
C625 Eu616 2.828 . S
C625 C619 1.516 . S
C625 O637 1.249 . S
C625 O638 1.244 1_455 S
O626 Eu617 2.373 1_455 S
O626 C628 1.258 . S
O627 Eu616 2.392 1_554 S
O627 C628 1.242 . S
C628 O626 1.258 . S
C628 O627 1.242 . S
O629 Eu616 2.418 . S
O629 C633 1.244 1_556 S
O630 Eu617 2.488 . S
O630 C646 1.249 . S
O631 Eu617 2.471 1_455 S
O631 C646 1.244 1_455 S
O632 Eu617 2.349 1_455 S
O632 C633 1.265 . S
C633 O629 1.244 1_554 S
C633 O632 1.265 . S
O634 Eu616 2.373 1_655 S
O634 C647 1.258 . S
O635 Eu617 2.392 . S
O635 C647 1.242 1_554 S
O636 Eu617 2.418 . S
O636 C618 1.244 1_554 S
O637 Eu616 2.488 . S
O637 C625 1.249 . S
O638 Eu616 2.471 1_655 S
O638 C625 1.244 1_655 S
O639 Eu616 2.349 1_655 S
O639 C618 1.265 . S
C640 C641 1.379 . S
C640 C644 1.373 1_455 S
C640 C646 1.505 1_455 S
C641 C640 1.379 . S
C641 C643 1.369 . S
C641 H652 0.930 . S
C642 C644 1.383 . S
C642 C645 1.382 1_655 S
C642 H653 0.930 . S
C643 C641 1.369 . S
C643 C645 1.392 . S
C643 H654 0.930 . S
C644 C640 1.373 1_655 S
C644 C642 1.383 . S
C644 H655 0.931 . S
C645 C642 1.382 1_455 S
C645 C643 1.392 . S
C646 Eu617 2.828 . S
C646 O630 1.249 . S
C646 O631 1.244 1_655 S
C646 C640 1.505 1_655 S
C647 O634 1.258 . S
C647 O635 1.242 1_556 S
H648 C620 0.930 . S
H649 C621 0.930 . S
H650 C622 0.930 . S
H651 C623 0.931 . S
H652 C641 0.930 . S
H653 C642 0.930 . S
H654 C643 0.930 . S
H655 C644 0.931 . S
Eu656 C665 2.828 . S
Eu656 O667 2.392 . S
Eu656 O669 2.418 . S
Eu656 O674 2.373 . S
Eu656 O677 2.488 . S
Eu656 O678 2.471 . S
Eu656 O679 2.349 . S
Eu657 O666 2.373 . S
Eu657 O670 2.488 . S
Eu657 O671 2.471 . S
Eu657 O672 2.349 . S
Eu657 O675 2.392 1_556 S
Eu657 O676 2.418 . S
Eu657 C686 2.828 . S
C658 O676 1.244 1_554 S
C658 O679 1.265 . S
C659 C660 1.379 . S
C659 C663 1.373 . S
C659 C665 1.505 . S
C660 C659 1.379 . S
C660 C662 1.369 . S
C660 H688 0.930 . S
C661 C663 1.383 . S
C661 C664 1.382 . S
C661 H689 0.930 . S
C662 C660 1.369 . S
C662 C664 1.392 . S
C662 H690 0.930 . S
C663 C659 1.373 . S
C663 C661 1.383 . S
C663 H691 0.931 . S
C664 C661 1.382 . S
C664 C662 1.392 . S
C665 Eu656 2.828 . S
C665 C659 1.505 . S
C665 O677 1.249 . S
C665 O678 1.244 . S
O666 Eu657 2.373 . S
O666 C668 1.258 . S
O667 Eu656 2.392 . S
O667 C668 1.242 1_554 S
C668 O666 1.258 . S
C668 O667 1.242 1_556 S
O669 Eu656 2.418 . S
O669 C673 1.244 1_554 S
O670 Eu657 2.488 . S
O670 C686 1.249 . S
O671 Eu657 2.471 . S
O671 C686 1.244 . S
O672 Eu657 2.349 . S
O672 C673 1.265 . S
C673 O669 1.244 1_556 S
C673 O672 1.265 . S
O674 Eu656 2.373 . S
O674 C687 1.258 . S
O675 Eu657 2.392 1_554 S
O675 C687 1.242 . S
O676 Eu657 2.418 . S
O676 C658 1.244 1_556 S
O677 Eu656 2.488 . S
O677 C665 1.249 . S
O678 Eu656 2.471 . S
O678 C665 1.244 . S
O679 Eu656 2.349 . S
O679 C658 1.265 . S
C680 C681 1.379 . S
C680 C684 1.373 . S
C680 C686 1.505 . S
C681 C680 1.379 . S
C681 C683 1.369 . S
C681 H692 0.930 . S
C682 C684 1.383 . S
C682 C685 1.382 . S
C682 H693 0.930 . S
C683 C681 1.369 . S
C683 C685 1.392 . S
C683 H694 0.930 . S
C684 C680 1.373 . S
C684 C682 1.383 . S
C684 H695 0.931 . S
C685 C682 1.382 . S
C685 C683 1.392 . S
C686 Eu657 2.828 . S
C686 O670 1.249 . S
C686 O671 1.244 . S
C686 C680 1.505 . S
C687 O674 1.258 . S
C687 O675 1.242 . S
H688 C660 0.930 . S
H689 C661 0.930 . S
H690 C662 0.930 . S
H691 C663 0.931 . S
H692 C681 0.930 . S
H693 C682 0.930 . S
H694 C683 0.930 . S
H695 C684 0.931 . S
Eu696 C705 2.828 . S
Eu696 O707 2.392 . S
Eu696 O709 2.418 . S
Eu696 O714 2.373 . S
Eu696 O717 2.488 . S
Eu696 O718 2.471 . S
Eu696 O719 2.349 . S
Eu697 O706 2.373 . S
Eu697 O710 2.488 . S
Eu697 O711 2.471 . S
Eu697 O712 2.349 . S
Eu697 O715 2.392 . S
Eu697 O716 2.418 . S
Eu697 C726 2.828 . S
C698 O716 1.244 . S
C698 O719 1.265 . S
C699 C700 1.379 . S
C699 C703 1.373 . S
C699 C705 1.505 . S
C700 C699 1.379 . S
C700 C702 1.369 . S
C700 H728 0.930 . S
C701 C703 1.383 . S
C701 C704 1.382 . S
C701 H729 0.930 . S
C702 C700 1.369 . S
C702 C704 1.392 . S
C702 H730 0.930 . S
C703 C699 1.373 . S
C703 C701 1.383 . S
C703 H731 0.931 . S
C704 C701 1.382 . S
C704 C702 1.392 . S
C705 Eu696 2.828 . S
C705 C699 1.505 . S
C705 O717 1.249 . S
C705 O718 1.244 . S
O706 Eu697 2.373 . S
O706 C708 1.258 . S
O707 Eu696 2.392 . S
O707 C708 1.242 . S
C708 O706 1.258 . S
C708 O707 1.242 . S
O709 Eu696 2.418 . S
O709 C713 1.244 . S
O710 Eu697 2.488 . S
O710 C726 1.249 . S
O711 Eu697 2.471 . S
O711 C726 1.244 . S
O712 Eu697 2.349 . S
O712 C713 1.265 . S
C713 O709 1.244 . S
C713 O712 1.265 . S
O714 Eu696 2.373 . S
O714 C727 1.258 . S
O715 Eu697 2.392 . S
O715 C727 1.242 . S
O716 Eu697 2.418 . S
O716 C698 1.244 . S
O717 Eu696 2.488 . S
O717 C705 1.249 . S
O718 Eu696 2.471 . S
O718 C705 1.244 . S
O719 Eu696 2.349 . S
O719 C698 1.265 . S
C720 C721 1.379 . S
C720 C724 1.373 . S
C720 C726 1.505 . S
C721 C720 1.379 . S
C721 C723 1.369 . S
C721 H732 0.930 . S
C722 C724 1.383 . S
C722 C725 1.382 . S
C722 H733 0.930 . S
C723 C721 1.369 . S
C723 C725 1.392 . S
C723 H734 0.930 . S
C724 C720 1.373 . S
C724 C722 1.383 . S
C724 H735 0.931 . S
C725 C722 1.382 . S
C725 C723 1.392 . S
C726 Eu697 2.828 . S
C726 O710 1.249 . S
C726 O711 1.244 . S
C726 C720 1.505 . S
C727 O714 1.258 . S
C727 O715 1.242 . S
H728 C700 0.930 . S
H729 C701 0.930 . S
H730 C702 0.930 . S
H731 C703 0.931 . S
H732 C721 0.930 . S
H733 C722 0.930 . S
H734 C723 0.930 . S
H735 C724 0.931 . S
Eu736 C745 2.828 . S
Eu736 O747 2.392 . S
Eu736 O749 2.418 . S
Eu736 O754 2.373 . S
Eu736 O757 2.488 . S
Eu736 O758 2.471 . S
Eu736 O759 2.349 . S
Eu737 O746 2.373 . S
Eu737 O750 2.488 . S
Eu737 O751 2.471 . S
Eu737 O752 2.349 . S
Eu737 O755 2.392 . S
Eu737 O756 2.418 . S
Eu737 C766 2.828 . S
C738 O756 1.244 . S
C738 O759 1.265 . S
C739 C740 1.379 . S
C739 C743 1.373 . S
C739 C745 1.505 . S
C740 C739 1.379 . S
C740 C742 1.369 . S
C740 H768 0.930 . S
C741 C743 1.383 . S
C741 C744 1.382 . S
C741 H769 0.930 . S
C742 C740 1.369 . S
C742 C744 1.392 . S
C742 H770 0.930 . S
C743 C739 1.373 . S
C743 C741 1.383 . S
C743 H771 0.931 . S
C744 C741 1.382 . S
C744 C742 1.392 . S
C745 Eu736 2.828 . S
C745 C739 1.505 . S
C745 O757 1.249 . S
C745 O758 1.244 . S
O746 Eu737 2.373 . S
O746 C748 1.258 . S
O747 Eu736 2.392 . S
O747 C748 1.242 . S
C748 O746 1.258 . S
C748 O747 1.242 . S
O749 Eu736 2.418 . S
O749 C753 1.244 . S
O750 Eu737 2.488 . S
O750 C766 1.249 . S
O751 Eu737 2.471 . S
O751 C766 1.244 . S
O752 Eu737 2.349 . S
O752 C753 1.265 . S
C753 O749 1.244 . S
C753 O752 1.265 . S
O754 Eu736 2.373 . S
O754 C767 1.258 . S
O755 Eu737 2.392 . S
O755 C767 1.242 . S
O756 Eu737 2.418 . S
O756 C738 1.244 . S
O757 Eu736 2.488 . S
O757 C745 1.249 . S
O758 Eu736 2.471 . S
O758 C745 1.244 . S
O759 Eu736 2.349 . S
O759 C738 1.265 . S
C760 C761 1.379 . S
C760 C764 1.373 . S
C760 C766 1.505 . S
C761 C760 1.379 . S
C761 C763 1.369 . S
C761 H772 0.930 . S
C762 C764 1.383 . S
C762 C765 1.382 . S
C762 H773 0.930 . S
C763 C761 1.369 . S
C763 C765 1.392 . S
C763 H774 0.930 . S
C764 C760 1.373 . S
C764 C762 1.383 . S
C764 H775 0.931 . S
C765 C762 1.382 . S
C765 C763 1.392 . S
C766 Eu737 2.828 . S
C766 O750 1.249 . S
C766 O751 1.244 . S
C766 C760 1.505 . S
C767 O754 1.258 . S
C767 O755 1.242 . S
H768 C740 0.930 . S
H769 C741 0.930 . S
H770 C742 0.930 . S
H771 C743 0.931 . S
H772 C761 0.930 . S
H773 C762 0.930 . S
H774 C763 0.930 . S
H775 C764 0.931 . S
Eu776 C785 2.828 . S
Eu776 O787 2.392 . S
Eu776 O789 2.418 . S
Eu776 O794 2.373 . S
Eu776 O797 2.488 . S
Eu776 O798 2.471 . S
Eu776 O799 2.349 . S
Eu777 O786 2.373 . S
Eu777 O790 2.488 . S
Eu777 O791 2.471 . S
Eu777 O792 2.349 . S
Eu777 O795 2.392 . S
Eu777 O796 2.418 . S
Eu777 C806 2.828 . S
C778 O796 1.244 . S
C778 O799 1.265 . S
C779 C780 1.379 . S
C779 C783 1.373 . S
C779 C785 1.505 . S
C780 C779 1.379 . S
C780 C782 1.369 . S
C780 H808 0.930 . S
C781 C783 1.383 . S
C781 C784 1.382 . S
C781 H809 0.930 . S
C782 C780 1.369 . S
C782 C784 1.392 . S
C782 H810 0.930 . S
C783 C779 1.373 . S
C783 C781 1.383 . S
C783 H811 0.931 . S
C784 C781 1.382 . S
C784 C782 1.392 . S
C785 Eu776 2.828 . S
C785 C779 1.505 . S
C785 O797 1.249 . S
C785 O798 1.244 . S
O786 Eu777 2.373 . S
O786 C788 1.258 . S
O787 Eu776 2.392 . S
O787 C788 1.242 . S
C788 O786 1.258 . S
C788 O787 1.242 . S
O789 Eu776 2.418 . S
O789 C793 1.244 . S
O790 Eu777 2.488 . S
O790 C806 1.249 . S
O791 Eu777 2.471 . S
O791 C806 1.244 . S
O792 Eu777 2.349 . S
O792 C793 1.265 . S
C793 O789 1.244 . S
C793 O792 1.265 . S
O794 Eu776 2.373 . S
O794 C807 1.258 . S
O795 Eu777 2.392 . S
O795 C807 1.242 . S
O796 Eu777 2.418 . S
O796 C778 1.244 . S
O797 Eu776 2.488 . S
O797 C785 1.249 . S
O798 Eu776 2.471 . S
O798 C785 1.244 . S
O799 Eu776 2.349 . S
O799 C778 1.265 . S
C800 C801 1.379 . S
C800 C804 1.373 . S
C800 C806 1.505 . S
C801 C800 1.379 . S
C801 C803 1.369 . S
C801 H812 0.930 . S
C802 C804 1.383 . S
C802 C805 1.382 . S
C802 H813 0.930 . S
C803 C801 1.369 . S
C803 C805 1.392 . S
C803 H814 0.930 . S
C804 C800 1.373 . S
C804 C802 1.383 . S
C804 H815 0.931 . S
C805 C802 1.382 . S
C805 C803 1.392 . S
C806 Eu777 2.828 . S
C806 O790 1.249 . S
C806 O791 1.244 . S
C806 C800 1.505 . S
C807 O794 1.258 . S
C807 O795 1.242 . S
H808 C780 0.930 . S
H809 C781 0.930 . S
H810 C782 0.930 . S
H811 C783 0.931 . S
H812 C801 0.930 . S
H813 C802 0.930 . S
H814 C803 0.930 . S
H815 C804 0.931 . S
Eu816 C825 2.828 . S
Eu816 O827 2.392 . S
Eu816 O829 2.418 . S
Eu816 O834 2.373 . S
Eu816 O837 2.488 . S
Eu816 O838 2.471 . S
Eu816 O839 2.349 . S
Eu817 O826 2.373 . S
Eu817 O830 2.488 . S
Eu817 O831 2.471 . S
Eu817 O832 2.349 . S
Eu817 O835 2.392 . S
Eu817 O836 2.418 . S
Eu817 C846 2.828 . S
C818 O836 1.244 . S
C818 O839 1.265 . S
C819 C820 1.379 . S
C819 C823 1.373 . S
C819 C825 1.505 . S
C820 C819 1.379 . S
C820 C822 1.369 . S
C820 H848 0.930 . S
C821 C823 1.383 . S
C821 C824 1.382 . S
C821 H849 0.930 . S
C822 C820 1.369 . S
C822 C824 1.392 . S
C822 H850 0.930 . S
C823 C819 1.373 . S
C823 C821 1.383 . S
C823 H851 0.931 . S
C824 C821 1.382 . S
C824 C822 1.392 . S
C825 Eu816 2.828 . S
C825 C819 1.505 . S
C825 O837 1.249 . S
C825 O838 1.244 . S
O826 Eu817 2.373 . S
O826 C828 1.258 . S
O827 Eu816 2.392 . S
O827 C828 1.242 . S
C828 O826 1.258 . S
C828 O827 1.242 . S
O829 Eu816 2.418 . S
O829 C833 1.244 . S
O830 Eu817 2.488 . S
O830 C846 1.249 . S
O831 Eu817 2.471 . S
O831 C846 1.244 . S
O832 Eu817 2.349 . S
O832 C833 1.265 . S
C833 O829 1.244 . S
C833 O832 1.265 . S
O834 Eu816 2.373 . S
O834 C847 1.258 . S
O835 Eu817 2.392 . S
O835 C847 1.242 . S
O836 Eu817 2.418 . S
O836 C818 1.244 . S
O837 Eu816 2.488 . S
O837 C825 1.249 . S
O838 Eu816 2.471 . S
O838 C825 1.244 . S
O839 Eu816 2.349 . S
O839 C818 1.265 . S
C840 C841 1.379 . S
C840 C844 1.373 . S
C840 C846 1.505 . S
C841 C840 1.379 . S
C841 C843 1.369 . S
C841 H852 0.930 . S
C842 C844 1.383 . S
C842 C845 1.382 . S
C842 H853 0.930 . S
C843 C841 1.369 . S
C843 C845 1.392 . S
C843 H854 0.930 . S
C844 C840 1.373 . S
C844 C842 1.383 . S
C844 H855 0.931 . S
C845 C842 1.382 . S
C845 C843 1.392 . S
C846 Eu817 2.828 . S
C846 O830 1.249 . S
C846 O831 1.244 . S
C846 C840 1.505 . S
C847 O834 1.258 . S
C847 O835 1.242 . S
H848 C820 0.930 . S
H849 C821 0.930 . S
H850 C822 0.930 . S
H851 C823 0.931 . S
H852 C841 0.930 . S
H853 C842 0.930 . S
H854 C843 0.930 . S
H855 C844 0.931 . S
Eu856 C865 2.828 . S
Eu856 O867 2.392 . S
Eu856 O869 2.418 . S
Eu856 O874 2.373 . S
Eu856 O877 2.488 . S
Eu856 O878 2.471 . S
Eu856 O879 2.349 . S
Eu857 O866 2.373 . S
Eu857 O870 2.488 . S
Eu857 O871 2.471 . S
Eu857 O872 2.349 . S
Eu857 O875 2.392 . S
Eu857 O876 2.418 . S
Eu857 C886 2.828 . S
C858 O876 1.244 . S
C858 O879 1.265 . S
C859 C860 1.379 . S
C859 C863 1.373 . S
C859 C865 1.505 . S
C860 C859 1.379 . S
C860 C862 1.369 . S
C860 H888 0.930 . S
C861 C863 1.383 . S
C861 C864 1.382 . S
C861 H889 0.930 . S
C862 C860 1.369 . S
C862 C864 1.392 . S
C862 H890 0.930 . S
C863 C859 1.373 . S
C863 C861 1.383 . S
C863 H891 0.931 . S
C864 C861 1.382 . S
C864 C862 1.392 . S
C865 Eu856 2.828 . S
C865 C859 1.505 . S
C865 O877 1.249 . S
C865 O878 1.244 . S
O866 Eu857 2.373 . S
O866 C868 1.258 . S
O867 Eu856 2.392 . S
O867 C868 1.242 . S
C868 O866 1.258 . S
C868 O867 1.242 . S
O869 Eu856 2.418 . S
O869 C873 1.244 . S
O870 Eu857 2.488 . S
O870 C886 1.249 . S
O871 Eu857 2.471 . S
O871 C886 1.244 . S
O872 Eu857 2.349 . S
O872 C873 1.265 . S
C873 O869 1.244 . S
C873 O872 1.265 . S
O874 Eu856 2.373 . S
O874 C887 1.258 . S
O875 Eu857 2.392 . S
O875 C887 1.242 . S
O876 Eu857 2.418 . S
O876 C858 1.244 . S
O877 Eu856 2.488 . S
O877 C865 1.249 . S
O878 Eu856 2.471 . S
O878 C865 1.244 . S
O879 Eu856 2.349 . S
O879 C858 1.265 . S
C880 C881 1.379 . S
C880 C884 1.373 . S
C880 C886 1.505 . S
C881 C880 1.379 . S
C881 C883 1.369 . S
C881 H892 0.930 . S
C882 C884 1.383 . S
C882 C885 1.382 . S
C882 H893 0.930 . S
C883 C881 1.369 . S
C883 C885 1.392 . S
C883 H894 0.930 . S
C884 C880 1.373 . S
C884 C882 1.383 . S
C884 H895 0.931 . S
C885 C882 1.382 . S
C885 C883 1.392 . S
C886 Eu857 2.828 . S
C886 O870 1.249 . S
C886 O871 1.244 . S
C886 C880 1.505 . S
C887 O874 1.258 . S
C887 O875 1.242 . S
H888 C860 0.930 . S
H889 C861 0.930 . S
H890 C862 0.930 . S
H891 C863 0.931 . S
H892 C881 0.930 . S
H893 C882 0.930 . S
H894 C883 0.930 . S
H895 C884 0.931 . S
Eu896 C905 2.828 . S
Eu896 O907 2.392 . S
Eu896 O909 2.418 . S
Eu896 O914 2.373 . S
Eu896 O917 2.488 . S
Eu896 O918 2.471 . S
Eu896 O919 2.349 . S
Eu897 O906 2.373 . S
Eu897 O910 2.488 . S
Eu897 O911 2.471 . S
Eu897 O912 2.349 . S
Eu897 O915 2.392 . S
Eu897 O916 2.418 . S
Eu897 C926 2.828 . S
C898 O916 1.244 . S
C898 O919 1.265 . S
C899 C900 1.379 . S
C899 C903 1.373 . S
C899 C905 1.505 . S
C900 C899 1.379 . S
C900 C902 1.369 . S
C900 H928 0.930 . S
C901 C903 1.383 . S
C901 C904 1.382 . S
C901 H929 0.930 . S
C902 C900 1.369 . S
C902 C904 1.392 . S
C902 H930 0.930 . S
C903 C899 1.373 . S
C903 C901 1.383 . S
C903 H931 0.931 . S
C904 C901 1.382 . S
C904 C902 1.392 . S
C905 Eu896 2.828 . S
C905 C899 1.505 . S
C905 O917 1.249 . S
C905 O918 1.244 . S
O906 Eu897 2.373 . S
O906 C908 1.258 . S
O907 Eu896 2.392 . S
O907 C908 1.242 . S
C908 O906 1.258 . S
C908 O907 1.242 . S
O909 Eu896 2.418 . S
O909 C913 1.244 . S
O910 Eu897 2.488 . S
O910 C926 1.249 . S
O911 Eu897 2.471 . S
O911 C926 1.244 . S
O912 Eu897 2.349 . S
O912 C913 1.265 . S
C913 O909 1.244 . S
C913 O912 1.265 . S
O914 Eu896 2.373 . S
O914 C927 1.258 . S
O915 Eu897 2.392 . S
O915 C927 1.242 . S
O916 Eu897 2.418 . S
O916 C898 1.244 . S
O917 Eu896 2.488 . S
O917 C905 1.249 . S
O918 Eu896 2.471 . S
O918 C905 1.244 . S
O919 Eu896 2.349 . S
O919 C898 1.265 . S
C920 C921 1.379 . S
C920 C924 1.373 . S
C920 C926 1.505 . S
C921 C920 1.379 . S
C921 C923 1.369 . S
C921 H932 0.930 . S
C922 C924 1.383 . S
C922 C925 1.382 . S
C922 H933 0.930 . S
C923 C921 1.369 . S
C923 C925 1.392 . S
C923 H934 0.930 . S
C924 C920 1.373 . S
C924 C922 1.383 . S
C924 H935 0.931 . S
C925 C922 1.382 . S
C925 C923 1.392 . S
C926 Eu897 2.828 . S
C926 O910 1.249 . S
C926 O911 1.244 . S
C926 C920 1.505 . S
C927 O914 1.258 . S
C927 O915 1.242 . S
H928 C900 0.930 . S
H929 C901 0.930 . S
H930 C902 0.930 . S
H931 C903 0.931 . S
H932 C921 0.930 . S
H933 C922 0.930 . S
H934 C923 0.930 . S
H935 C924 0.931 . S
H936 C944 0.950 . S
H937 C949 0.950 . S
H938 C946 0.950 . S
H939 C948 0.950 . S
H940 C950 0.950 . S
H941 C952 0.950 . S
H942 C954 0.950 . S
H943 C955 0.950 . S
C944 H936 0.950 . S
C944 C945 1.386 . S
C944 C946 1.391 . S
C945 C944 1.386 . S
C945 C949 1.393 . S
C946 H938 0.950 . S
C946 C944 1.391 . S
C946 C947 1.400 . S
C947 C946 1.400 . S
C947 C948 1.398 . S
C947 C953 1.491 . S
C948 H939 0.950 . S
C948 C947 1.398 . S
C948 C949 1.391 . S
C949 H937 0.950 . S
C949 C945 1.393 . S
C949 C948 1.391 . S
C950 H940 0.950 . S
C950 C951 1.386 . S
C950 C952 1.391 . S
C951 C950 1.386 . S
C951 C955 1.393 . S
C952 H941 0.950 . S
C952 C950 1.391 . S
C952 C953 1.400 . S
C953 C947 1.491 . S
C953 C952 1.400 . S
C953 C954 1.398 . S
C954 H942 0.950 . S
C954 C953 1.398 . S
C954 C955 1.391 . S
C955 H943 0.950 . S
C955 C951 1.393 . S
C955 C954 1.391 . S
H956 C964 0.950 . S
H957 C969 0.950 . S
H958 C966 0.950 . S
H959 C968 0.950 . S
H960 C970 0.950 . S
H961 C972 0.950 . S
H962 C974 0.950 . S
H963 C975 0.950 . S
C964 H956 0.950 . S
C964 C965 1.386 . S
C964 C966 1.391 . S
C965 C964 1.386 . S
C965 C969 1.393 . S
C966 H958 0.950 . S
C966 C964 1.391 . S
C966 C967 1.400 . S
C967 C966 1.400 . S
C967 C968 1.398 . S
C967 C973 1.491 . S
C968 H959 0.950 . S
C968 C967 1.398 . S
C968 C969 1.391 . S
C969 H957 0.950 . S
C969 C965 1.393 . S
C969 C968 1.391 . S
C970 H960 0.950 . S
C970 C971 1.386 . S
C970 C972 1.391 . S
C971 C970 1.386 . S
C971 C975 1.393 . S
C972 H961 0.950 . S
C972 C970 1.391 . S
C972 C973 1.400 . S
C973 C967 1.491 . S
C973 C972 1.400 . S
C973 C974 1.398 . S
C974 H962 0.950 . S
C974 C973 1.398 . S
C974 C975 1.391 . S
C975 H963 0.950 . S
C975 C971 1.393 . S
C975 C974 1.391 . S
H976 C984 0.950 . S
H977 C989 0.950 . S
H978 C986 0.950 . S
H979 C988 0.950 . S
H980 C990 0.950 . S
H981 C992 0.950 . S
H982 C994 0.950 . S
H983 C995 0.950 . S
C984 H976 0.950 . S
C984 C985 1.386 . S
C984 C986 1.391 . S
C985 C984 1.386 . S
C985 C989 1.393 . S
C986 H978 0.950 . S
C986 C984 1.391 . S
C986 C987 1.400 . S
C987 C986 1.400 . S
C987 C988 1.398 . S
C987 C993 1.491 . S
C988 H979 0.950 . S
C988 C987 1.398 . S
C988 C989 1.391 . S
C989 H977 0.950 . S
C989 C985 1.393 . S
C989 C988 1.391 . S
C990 H980 0.950 . S
C990 C991 1.386 . S
C990 C992 1.391 . S
C991 C990 1.386 . S
C991 C995 1.393 . S
C992 H981 0.950 . S
C992 C990 1.391 . S
C992 C993 1.400 . S
C993 C987 1.491 . S
C993 C992 1.400 . S
C993 C994 1.398 . S
C994 H982 0.950 . S
C994 C993 1.398 . S
C994 C995 1.391 . S
C995 H983 0.950 . S
C995 C991 1.393 . S
C995 C994 1.391 . S
H996 C1004 0.950 . S
H997 C1009 0.950 . S
H998 C1006 0.950 . S
H999 C1008 0.950 . S
H1000 C1010 0.950 . S
H1001 C1012 0.950 . S
H1002 C1014 0.950 1_554 S
H1003 C1015 0.950 . S
C1004 H996 0.950 . S
C1004 C1005 1.386 . S
C1004 C1006 1.391 . S
C1005 C1004 1.386 . S
C1005 C1009 1.393 . S
C1006 H998 0.950 . S
C1006 C1004 1.391 . S
C1006 C1007 1.400 . S
C1007 C1006 1.400 . S
C1007 C1008 1.398 . S
C1007 C1013 1.491 . S
C1008 H999 0.950 . S
C1008 C1007 1.398 . S
C1008 C1009 1.391 . S
C1009 H997 0.950 . S
C1009 C1005 1.393 . S
C1009 C1008 1.391 . S
C1010 H1000 0.950 . S
C1010 C1011 1.386 . S
C1010 C1012 1.391 . S
C1011 C1010 1.386 . S
C1011 C1015 1.393 1_556 S
C1012 H1001 0.950 . S
C1012 C1010 1.391 . S
C1012 C1013 1.400 . S
C1013 C1007 1.491 . S
C1013 C1012 1.400 . S
C1013 C1014 1.398 . S
C1014 H1002 0.950 1_556 S
C1014 C1013 1.398 . S
C1014 C1015 1.391 1_556 S
C1015 H1003 0.950 . S
C1015 C1011 1.393 1_554 S
C1015 C1014 1.391 1_554 S
H1016 C1024 0.950 . S
H1017 C1029 0.950 . S
H1018 C1026 0.950 . S
H1019 C1028 0.950 . S
H1020 C1030 0.950 . S
H1021 C1032 0.950 . S
H1022 C1034 0.950 . S
H1023 C1035 0.950 . S
C1024 H1016 0.950 . S
C1024 C1025 1.386 . S
C1024 C1026 1.391 . S
C1025 C1024 1.386 . S
C1025 C1029 1.393 . S
C1026 H1018 0.950 . S
C1026 C1024 1.391 . S
C1026 C1027 1.400 . S
C1027 C1026 1.400 . S
C1027 C1028 1.398 . S
C1027 C1033 1.491 . S
C1028 H1019 0.950 . S
C1028 C1027 1.398 . S
C1028 C1029 1.391 . S
C1029 H1017 0.950 . S
C1029 C1025 1.393 . S
C1029 C1028 1.391 . S
C1030 H1020 0.950 . S
C1030 C1031 1.386 . S
C1030 C1032 1.391 . S
C1031 C1030 1.386 . S
C1031 C1035 1.393 . S
C1032 H1021 0.950 . S
C1032 C1030 1.391 . S
C1032 C1033 1.400 . S
C1033 C1027 1.491 . S
C1033 C1032 1.400 . S
C1033 C1034 1.398 . S
C1034 H1022 0.950 . S
C1034 C1033 1.398 . S
C1034 C1035 1.391 . S
C1035 H1023 0.950 . S
C1035 C1031 1.393 . S
C1035 C1034 1.391 . S
H1036 C1044 0.950 . S
H1037 C1049 0.950 . S
H1038 C1046 0.950 . S
H1039 C1048 0.950 . S
H1040 C1050 0.950 . S
H1041 C1052 0.950 . S
H1042 C1054 0.950 . S
H1043 C1055 0.961 . S
C1044 H1036 0.950 . S
C1044 C1045 1.386 . S
C1044 C1046 1.391 . S
C1045 C1044 1.386 . S
C1045 C1049 1.393 . S
C1046 H1038 0.950 . S
C1046 C1044 1.391 . S
C1046 C1047 1.400 . S
C1047 C1046 1.400 . S
C1047 C1048 1.398 . S
C1047 C1053 1.491 . S
C1048 H1039 0.950 . S
C1048 C1047 1.398 . S
C1048 C1049 1.391 . S
C1049 H1037 0.950 . S
C1049 C1045 1.393 . S
C1049 C1048 1.391 . S
C1050 H1040 0.950 . S
C1050 C1051 1.386 . S
C1050 C1052 1.391 . S
C1051 C1050 1.386 . S
C1051 C1055 1.393 . S
C1052 H1041 0.950 . S
C1052 C1050 1.391 . S
C1052 C1053 1.400 . S
C1053 C1047 1.491 . S
C1053 C1052 1.400 . S
C1053 C1054 1.398 . S
C1054 H1042 0.950 . S
C1054 C1053 1.398 . S
C1054 C1055 1.391 . S
C1055 H1043 0.961 . S
C1055 C1051 1.393 . S
C1055 C1054 1.391 . S
H1056 C1064 0.950 . S
H1057 C1069 0.950 . S
H1058 C1066 0.950 . S
H1059 C1068 0.950 . S
H1060 C1070 0.950 . S
H1061 C1072 0.950 . S
H1062 C1074 0.950 . S
H1063 C1075 0.950 . S
C1064 H1056 0.950 . S
C1064 C1065 1.386 . S
C1064 C1066 1.391 . S
C1065 C1064 1.386 . S
C1065 C1069 1.393 . S
C1066 H1058 0.950 . S
C1066 C1064 1.391 . S
C1066 C1067 1.400 . S
C1067 C1066 1.400 . S
C1067 C1068 1.398 . S
C1067 C1073 1.491 . S
C1068 H1059 0.950 . S
C1068 C1067 1.398 . S
C1068 C1069 1.391 . S
C1069 H1057 0.950 . S
C1069 C1065 1.393 . S
C1069 C1068 1.391 . S
C1070 H1060 0.950 . S
C1070 C1071 1.386 . S
C1070 C1072 1.391 . S
C1071 C1070 1.386 . S
C1071 C1075 1.393 . S
C1072 H1061 0.950 . S
C1072 C1070 1.391 . S
C1072 C1073 1.400 . S
C1073 C1067 1.491 . S
C1073 C1072 1.400 . S
C1073 C1074 1.398 . S
C1074 H1062 0.950 . S
C1074 C1073 1.398 . S
C1074 C1075 1.391 . S
C1075 H1063 0.950 . S
C1075 C1071 1.393 . S
C1075 C1074 1.391 . S
H1076 C1084 0.950 . S
H1077 C1089 0.950 . S
H1078 C1086 0.950 . S
H1079 C1088 0.950 . S
H1080 C1090 0.950 . S
H1081 C1092 0.950 . S
H1082 C1094 0.950 . S
H1083 C1095 0.950 . S
C1084 H1076 0.950 . S
C1084 C1085 1.386 . S
C1084 C1086 1.391 . S
C1085 C1084 1.386 . S
C1085 C1089 1.393 . S
C1086 H1078 0.950 . S
C1086 C1084 1.391 . S
C1086 C1087 1.400 . S
C1087 C1086 1.400 . S
C1087 C1088 1.398 . S
C1087 C1093 1.491 . S
C1088 H1079 0.950 . S
C1088 C1087 1.398 . S
C1088 C1089 1.391 . S
C1089 H1077 0.950 . S
C1089 C1085 1.393 . S
C1089 C1088 1.391 . S
C1090 H1080 0.950 . S
C1090 C1091 1.386 . S
C1090 C1092 1.391 . S
C1091 C1090 1.386 . S
C1091 C1095 1.393 . S
C1092 H1081 0.950 . S
C1092 C1090 1.391 . S
C1092 C1093 1.400 . S
C1093 C1087 1.491 . S
C1093 C1092 1.400 . S
C1093 C1094 1.398 . S
C1094 H1082 0.950 . S
C1094 C1093 1.398 . S
C1094 C1095 1.391 . S
C1095 H1083 0.950 . S
C1095 C1091 1.393 . S
C1095 C1094 1.391 . S
H1096 C1104 0.950 . S
H1097 C1109 0.950 . S
H1098 C1106 0.950 . S
H1099 C1108 0.950 . S
H1100 C1110 0.950 . S
H1101 C1112 0.950 . S
H1102 C1114 0.950 1_554 S
H1103 C1115 0.950 1_554 S
C1104 H1096 0.950 . S
C1104 C1105 1.386 . S
C1104 C1106 1.391 . S
C1105 C1104 1.386 . S
C1105 C1109 1.393 . S
C1106 H1098 0.950 . S
C1106 C1104 1.391 . S
C1106 C1107 1.400 . S
C1107 C1106 1.400 . S
C1107 C1108 1.398 . S
C1107 C1113 1.491 . S
C1108 H1099 0.950 . S
C1108 C1107 1.398 . S
C1108 C1109 1.391 . S
C1109 H1097 0.950 . S
C1109 C1105 1.393 . S
C1109 C1108 1.391 . S
C1110 H1100 0.950 . S
C1110 C1111 1.386 . S
C1110 C1112 1.391 . S
C1111 C1110 1.386 . S
C1111 C1115 1.393 . S
C1112 H1101 0.950 . S
C1112 C1110 1.391 . S
C1112 C1113 1.400 . S
C1113 C1107 1.491 . S
C1113 C1112 1.400 . S
C1113 C1114 1.398 . S
C1114 H1102 0.950 1_556 S
C1114 C1113 1.398 . S
C1114 C1115 1.391 . S
C1115 H1103 0.950 1_556 S
C1115 C1111 1.393 . S
C1115 C1114 1.391 . S
H1116 C1124 0.950 . S
H1117 C1129 0.950 . S
H1118 C1126 0.950 . S
H1119 C1128 0.950 . S
H1120 C1130 0.947 . S
H1121 C1132 0.950 . S
H1122 C1134 0.950 . S
H1123 C1135 0.950 . S
C1124 H1116 0.950 . S
C1124 C1125 1.386 . S
C1124 C1126 1.391 . S
C1125 C1124 1.386 . S
C1125 C1129 1.393 . S
C1126 H1118 0.950 . S
C1126 C1124 1.391 . S
C1126 C1127 1.400 . S
C1127 C1126 1.400 . S
C1127 C1128 1.398 . S
C1127 C1133 1.491 . S
C1128 H1119 0.950 . S
C1128 C1127 1.398 . S
C1128 C1129 1.391 . S
C1129 H1117 0.950 . S
C1129 C1125 1.393 . S
C1129 C1128 1.391 . S
C1130 H1120 0.947 . S
C1130 C1131 1.386 . S
C1130 C1132 1.391 . S
C1131 C1130 1.386 . S
C1131 C1135 1.393 . S
C1132 H1121 0.950 . S
C1132 C1130 1.391 . S
C1132 C1133 1.400 . S
C1133 C1127 1.491 . S
C1133 C1132 1.400 . S
C1133 C1134 1.398 . S
C1134 H1122 0.950 . S
C1134 C1133 1.398 . S
C1134 C1135 1.391 . S
C1135 H1123 0.950 . S
C1135 C1131 1.393 . S
C1135 C1134 1.391 . S
H1136 C1144 0.950 . S
H1137 C1149 0.950 . S
H1138 C1146 0.950 . S
H1139 C1148 0.950 . S
H1140 C1150 0.950 . S
H1141 C1152 0.950 . S
H1142 C1154 0.950 . S
H1143 C1155 0.950 . S
C1144 H1136 0.950 . S
C1144 C1145 1.386 . S
C1144 C1146 1.391 . S
C1145 C1144 1.386 . S
C1145 C1149 1.393 . S
C1146 H1138 0.950 . S
C1146 C1144 1.391 . S
C1146 C1147 1.400 . S
C1147 C1146 1.400 . S
C1147 C1148 1.398 . S
C1147 C1153 1.491 . S
C1148 H1139 0.950 . S
C1148 C1147 1.398 . S
C1148 C1149 1.391 . S
C1149 H1137 0.950 . S
C1149 C1145 1.393 . S
C1149 C1148 1.391 . S
C1150 H1140 0.950 . S
C1150 C1151 1.386 . S
C1150 C1152 1.391 . S
C1151 C1150 1.386 . S
C1151 C1155 1.393 . S
C1152 H1141 0.950 . S
C1152 C1150 1.391 . S
C1152 C1153 1.400 . S
C1153 C1147 1.491 . S
C1153 C1152 1.400 . S
C1153 C1154 1.398 . S
C1154 H1142 0.950 . S
C1154 C1153 1.398 . S
C1154 C1155 1.391 . S
C1155 H1143 0.950 . S
C1155 C1151 1.393 . S
C1155 C1154 1.391 . S
H1156 C1164 0.950 . S
H1157 C1169 0.950 . S
H1158 C1166 0.950 . S
H1159 C1168 0.950 . S
H1160 C1170 0.950 . S
H1161 C1172 0.950 . S
H1162 C1174 0.955 . S
H1163 C1175 0.950 1_556 S
C1164 H1156 0.950 . S
C1164 C1165 1.386 . S
C1164 C1166 1.391 . S
C1165 C1164 1.386 . S
C1165 C1169 1.393 . S
C1166 H1158 0.950 . S
C1166 C1164 1.391 . S
C1166 C1167 1.400 . S
C1167 C1166 1.400 . S
C1167 C1168 1.398 . S
C1167 C1173 1.491 . S
C1168 H1159 0.950 . S
C1168 C1167 1.398 . S
C1168 C1169 1.391 . S
C1169 H1157 0.950 . S
C1169 C1165 1.393 . S
C1169 C1168 1.391 . S
C1170 H1160 0.950 . S
C1170 C1171 1.386 . S
C1170 C1172 1.391 . S
C1171 C1170 1.386 . S
C1171 C1175 1.393 . S
C1172 H1161 0.950 . S
C1172 C1170 1.391 . S
C1172 C1173 1.400 . S
C1173 C1167 1.491 . S
C1173 C1172 1.400 . S
C1173 C1174 1.398 . S
C1174 H1162 0.955 . S
C1174 C1173 1.398 . S
C1174 C1175 1.391 . S
C1175 H1163 0.950 1_554 S
C1175 C1171 1.393 . S
C1175 C1174 1.391 . S
H1176 C1184 0.950 . S
H1177 C1189 0.950 . S
H1178 C1186 0.950 1_455 S
H1179 C1188 0.950 . S
H1180 C1190 0.950 . S
H1181 C1192 0.950 . S
H1182 C1194 0.950 . S
H1183 C1195 0.950 . S
C1184 H1176 0.950 . S
C1184 C1185 1.386 . S
C1184 C1186 1.391 . S
C1185 C1184 1.386 . S
C1185 C1189 1.393 . S
C1186 H1178 0.950 1_655 S
C1186 C1184 1.391 . S
C1186 C1187 1.400 1_655 S
C1187 C1186 1.400 1_455 S
C1187 C1188 1.398 . S
C1187 C1193 1.491 . S
C1188 H1179 0.950 . S
C1188 C1187 1.398 . S
C1188 C1189 1.391 1_455 S
C1189 H1177 0.950 . S
C1189 C1185 1.393 . S
C1189 C1188 1.391 1_655 S
C1190 H1180 0.950 . S
C1190 C1191 1.386 . S
C1190 C1192 1.391 . S
C1191 C1190 1.386 . S
C1191 C1195 1.393 . S
C1192 H1181 0.950 . S
C1192 C1190 1.391 . S
C1192 C1193 1.400 . S
C1193 C1187 1.491 . S
C1193 C1192 1.400 . S
C1193 C1194 1.398 . S
C1194 H1182 0.950 . S
C1194 C1193 1.398 . S
C1194 C1195 1.391 . S
C1195 H1183 0.950 . S
C1195 C1191 1.393 . S
C1195 C1194 1.391 . S
H1196 C1204 0.950 . S
H1197 C1209 0.950 . S
H1198 C1206 0.950 . S
H1199 C1208 0.950 . S
H1200 C1210 0.950 . S
H1201 C1212 0.950 . S
H1202 C1214 0.950 . S
H1203 C1215 0.950 . S
C1204 H1196 0.950 . S
C1204 C1205 1.386 . S
C1204 C1206 1.391 . S
C1205 C1204 1.386 . S
C1205 C1209 1.393 . S
C1206 H1198 0.950 . S
C1206 C1204 1.391 . S
C1206 C1207 1.400 . S
C1207 C1206 1.400 . S
C1207 C1208 1.398 . S
C1207 C1213 1.491 . S
C1208 H1199 0.950 . S
C1208 C1207 1.398 . S
C1208 C1209 1.391 . S
C1209 H1197 0.950 . S
C1209 C1205 1.393 . S
C1209 C1208 1.391 . S
C1210 H1200 0.950 . S
C1210 C1211 1.386 . S
C1210 C1212 1.391 . S
C1211 C1210 1.386 . S
C1211 C1215 1.393 . S
C1212 H1201 0.950 . S
C1212 C1210 1.391 . S
C1212 C1213 1.400 . S
C1213 C1207 1.491 . S
C1213 C1212 1.400 . S
C1213 C1214 1.398 . S
C1214 H1202 0.950 . S
C1214 C1213 1.398 . S
C1214 C1215 1.391 . S
C1215 H1203 0.950 . S
C1215 C1211 1.393 . S
C1215 C1214 1.391 . S
H1216 C1224 0.950 . S
H1217 C1229 0.950 . S
H1218 C1226 0.950 . S
H1219 C1228 0.950 . S
H1220 C1230 0.950 . S
H1221 C1232 0.950 . S
H1222 C1234 0.950 . S
H1223 C1235 0.950 . S
C1224 H1216 0.950 . S
C1224 C1225 1.386 . S
C1224 C1226 1.391 . S
C1225 C1224 1.386 . S
C1225 C1229 1.393 . S
C1226 H1218 0.950 . S
C1226 C1224 1.391 . S
C1226 C1227 1.404 . S
C1227 C1226 1.404 . S
C1227 C1228 1.399 . S
C1227 C1233 1.487 1_545 S
C1228 H1219 0.950 . S
C1228 C1227 1.399 . S
C1228 C1229 1.391 . S
C1229 H1217 0.950 . S
C1229 C1225 1.393 . S
C1229 C1228 1.391 . S
C1230 H1220 0.950 . S
C1230 C1231 1.386 . S
C1230 C1232 1.391 . S
C1231 C1230 1.386 . S
C1231 C1235 1.393 . S
C1232 H1221 0.950 . S
C1232 C1230 1.391 . S
C1232 C1233 1.400 . S
C1233 C1227 1.487 1_565 S
C1233 C1232 1.400 . S
C1233 C1234 1.398 . S
C1234 H1222 0.950 . S
C1234 C1233 1.398 . S
C1234 C1235 1.391 . S
C1235 H1223 0.950 . S
C1235 C1231 1.393 . S
C1235 C1234 1.391 . S
H1236 C1244 0.950 . S
H1237 C1249 0.950 . S
H1238 C1246 0.950 . S
H1239 C1248 0.950 . S
H1240 C1250 0.950 . S
H1241 C1252 0.950 . S
H1242 C1254 0.950 . S
H1243 C1255 0.950 . S
C1244 H1236 0.950 . S
C1244 C1245 1.386 . S
C1244 C1246 1.391 . S
C1245 C1244 1.386 . S
C1245 C1249 1.393 . S
C1246 H1238 0.950 . S
C1246 C1244 1.391 . S
C1246 C1247 1.400 . S
C1247 C1246 1.400 . S
C1247 C1248 1.398 . S
C1247 C1253 1.491 . S
C1248 H1239 0.950 . S
C1248 C1247 1.398 . S
C1248 C1249 1.391 . S
C1249 H1237 0.950 . S
C1249 C1245 1.393 . S
C1249 C1248 1.391 . S
C1250 H1240 0.950 . S
C1250 C1251 1.386 . S
C1250 C1252 1.391 . S
C1251 C1250 1.386 . S
C1251 C1255 1.393 . S
C1252 H1241 0.950 . S
C1252 C1250 1.391 . S
C1252 C1253 1.400 . S
C1253 C1247 1.491 . S
C1253 C1252 1.400 . S
C1253 C1254 1.398 . S
C1254 H1242 0.950 . S
C1254 C1253 1.398 . S
C1254 C1255 1.391 . S
C1255 H1243 0.950 . S
C1255 C1251 1.393 . S
C1255 C1254 1.391 . S
H1256 C1264 0.950 . S
H1257 C1269 0.950 . S
H1258 C1266 0.950 . S
H1259 C1268 0.950 . S
H1260 C1270 0.950 . S
H1261 C1272 0.950 . S
H1262 C1274 0.950 . S
H1263 C1275 0.950 . S
C1264 H1256 0.950 . S
C1264 C1265 1.386 . S
C1264 C1266 1.391 . S
C1265 C1264 1.386 . S
C1265 C1269 1.393 . S
C1266 H1258 0.950 . S
C1266 C1264 1.391 . S
C1266 C1267 1.400 . S
C1267 C1266 1.400 . S
C1267 C1268 1.398 . S
C1267 C1273 1.491 . S
C1268 H1259 0.950 . S
C1268 C1267 1.398 . S
C1268 C1269 1.391 . S
C1269 H1257 0.950 . S
C1269 C1265 1.393 . S
C1269 C1268 1.391 . S
C1270 H1260 0.950 . S
C1270 C1271 1.386 . S
C1270 C1272 1.391 . S
C1271 C1270 1.386 . S
C1271 C1275 1.393 . S
C1272 H1261 0.950 . S
C1272 C1270 1.391 . S
C1272 C1273 1.400 . S
C1273 C1267 1.491 . S
C1273 C1272 1.400 . S
C1273 C1274 1.398 . S
C1274 H1262 0.950 . S
C1274 C1273 1.398 . S
C1274 C1275 1.391 . S
C1275 H1263 0.950 . S
C1275 C1271 1.393 . S
C1275 C1274 1.391 . S
H1276 C1284 0.950 . S
H1277 C1289 0.950 . S
H1278 C1286 0.950 . S
H1279 C1288 0.950 . S
H1280 C1290 0.950 . S
H1281 C1292 0.950 . S
H1282 C1294 0.950 . S
H1283 C1295 0.950 . S
C1284 H1276 0.950 . S
C1284 C1285 1.386 . S
C1284 C1286 1.391 . S
C1285 C1284 1.386 . S
C1285 C1289 1.393 . S
C1286 H1278 0.950 . S
C1286 C1284 1.391 . S
C1286 C1287 1.400 . S
C1287 C1286 1.400 . S
C1287 C1288 1.398 . S
C1287 C1293 1.491 . S
C1288 H1279 0.950 . S
C1288 C1287 1.398 . S
C1288 C1289 1.391 . S
C1289 H1277 0.950 . S
C1289 C1285 1.393 . S
C1289 C1288 1.391 . S
C1290 H1280 0.950 . S
C1290 C1291 1.386 . S
C1290 C1292 1.391 . S
C1291 C1290 1.386 . S
C1291 C1295 1.393 . S
C1292 H1281 0.950 . S
C1292 C1290 1.391 . S
C1292 C1293 1.400 . S
C1293 C1287 1.491 . S
C1293 C1292 1.400 . S
C1293 C1294 1.398 . S
C1294 H1282 0.950 . S
C1294 C1293 1.398 . S
C1294 C1295 1.391 . S
C1295 H1283 0.950 . S
C1295 C1291 1.393 . S
C1295 C1294 1.391 . S
H1296 C1304 0.950 . S
H1297 C1309 0.950 . S
H1298 C1306 0.950 . S
H1299 C1308 0.950 . S
H1300 C1310 0.950 . S
H1301 C1312 0.950 . S
H1302 C1314 0.950 . S
H1303 C1315 0.950 . S
C1304 H1296 0.950 . S
C1304 C1305 1.386 . S
C1304 C1306 1.391 . S
C1305 C1304 1.386 . S
C1305 C1309 1.393 . S
C1306 H1298 0.950 . S
C1306 C1304 1.391 . S
C1306 C1307 1.400 . S
C1307 C1306 1.400 . S
C1307 C1308 1.398 . S
C1307 C1313 1.491 . S
C1308 H1299 0.950 . S
C1308 C1307 1.398 . S
C1308 C1309 1.391 . S
C1309 H1297 0.950 . S
C1309 C1305 1.393 . S
C1309 C1308 1.391 . S
C1310 H1300 0.950 . S
C1310 C1311 1.386 . S
C1310 C1312 1.391 . S
C1311 C1310 1.386 . S
C1311 C1315 1.393 . S
C1312 H1301 0.950 . S
C1312 C1310 1.391 . S
C1312 C1313 1.400 . S
C1313 C1307 1.491 . S
C1313 C1312 1.400 . S
C1313 C1314 1.398 . S
C1314 H1302 0.950 . S
C1314 C1313 1.398 . S
C1314 C1315 1.391 . S
C1315 H1303 0.950 . S
C1315 C1311 1.393 . S
C1315 C1314 1.391 . S
H1316 C1324 0.950 . S
H1317 C1329 0.950 . S
H1318 C1326 0.950 . S
H1319 C1328 0.950 . S
H1320 C1330 0.950 . S
H1321 C1332 0.950 . S
H1322 C1334 0.950 . S
H1323 C1335 0.950 . S
C1324 H1316 0.950 . S
C1324 C1325 1.386 . S
C1324 C1326 1.391 . S
C1325 C1324 1.386 . S
C1325 C1329 1.393 . S
C1326 H1318 0.950 . S
C1326 C1324 1.391 . S
C1326 C1327 1.400 . S
C1327 C1326 1.400 . S
C1327 C1328 1.398 . S
C1327 C1333 1.491 . S
C1328 H1319 0.950 . S
C1328 C1327 1.398 . S
C1328 C1329 1.391 . S
C1329 H1317 0.950 . S
C1329 C1325 1.393 . S
C1329 C1328 1.391 . S
C1330 H1320 0.950 . S
C1330 C1331 1.386 . S
C1330 C1332 1.391 . S
C1331 C1330 1.386 . S
C1331 C1335 1.393 . S
C1332 H1321 0.950 . S
C1332 C1330 1.391 . S
C1332 C1333 1.400 . S
C1333 C1327 1.491 . S
C1333 C1332 1.400 . S
C1333 C1334 1.398 . S
C1334 H1322 0.950 . S
C1334 C1333 1.398 . S
C1334 C1335 1.391 . S
C1335 H1323 0.950 . S
C1335 C1331 1.393 . S
C1335 C1334 1.391 . S
H1336 C1344 0.950 . S
H1337 C1349 0.950 . S
H1338 C1346 0.950 . S
H1339 C1348 0.950 . S
H1340 C1350 0.950 . S
H1341 C1352 0.950 . S
H1342 C1354 0.950 . S
H1343 C1355 0.950 . S
C1344 H1336 0.950 . S
C1344 C1345 1.386 . S
C1344 C1346 1.391 . S
C1345 C1344 1.386 . S
C1345 C1349 1.393 . S
C1346 H1338 0.950 . S
C1346 C1344 1.391 . S
C1346 C1347 1.400 . S
C1347 C1346 1.400 . S
C1347 C1348 1.398 . S
C1347 C1353 1.491 . S
C1348 H1339 0.950 . S
C1348 C1347 1.398 . S
C1348 C1349 1.391 . S
C1349 H1337 0.950 . S
C1349 C1345 1.393 . S
C1349 C1348 1.391 . S
C1350 H1340 0.950 . S
C1350 C1351 1.386 . S
C1350 C1352 1.391 . S
C1351 C1350 1.386 . S
C1351 C1355 1.393 . S
C1352 H1341 0.950 . S
C1352 C1350 1.391 . S
C1352 C1353 1.400 . S
C1353 C1347 1.491 . S
C1353 C1352 1.400 . S
C1353 C1354 1.398 . S
C1354 H1342 0.950 . S
C1354 C1353 1.398 . S
C1354 C1355 1.391 . S
C1355 H1343 0.950 . S
C1355 C1351 1.393 . S
C1355 C1354 1.391 . S
H1356 C1364 0.950 . S
H1357 C1369 0.950 . S
H1358 C1366 0.950 1_565 S
H1359 C1368 0.950 1_565 S
H1360 C1370 0.950 . S
H1361 C1372 0.950 . S
H1362 C1374 0.950 . S
H1363 C1375 0.950 . S
C1364 H1356 0.950 . S
C1364 C1365 1.386 . S
C1364 C1366 1.391 . S
C1365 C1364 1.386 . S
C1365 C1369 1.393 . S
C1366 H1358 0.950 1_545 S
C1366 C1364 1.391 . S
C1366 C1367 1.400 1_545 S
C1367 C1366 1.400 1_565 S
C1367 C1368 1.398 1_565 S
C1367 C1373 1.491 . S
C1368 H1359 0.950 1_545 S
C1368 C1367 1.398 1_545 S
C1368 C1369 1.391 . S
C1369 H1357 0.950 . S
C1369 C1365 1.393 . S
C1369 C1368 1.391 . S
C1370 H1360 0.950 . S
C1370 C1371 1.386 . S
C1370 C1372 1.391 . S
C1371 C1370 1.386 . S
C1371 C1375 1.393 . S
C1372 H1361 0.950 . S
C1372 C1370 1.391 . S
C1372 C1373 1.400 . S
C1373 C1367 1.491 . S
C1373 C1372 1.400 . S
C1373 C1374 1.398 . S
C1374 H1362 0.950 . S
C1374 C1373 1.398 . S
C1374 C1375 1.391 . S
C1375 H1363 0.950 . S
C1375 C1371 1.393 . S
C1375 C1374 1.391 . S
H1376 C1384 0.950 . S
H1377 C1389 0.950 . S
H1378 C1386 0.950 . S
H1379 C1388 0.950 . S
H1380 C1390 0.950 . S
H1381 C1392 0.950 . S
H1382 C1394 0.950 . S
H1383 C1395 0.950 . S
C1384 H1376 0.950 . S
C1384 C1385 1.386 . S
C1384 C1386 1.391 1_655 S
C1385 C1384 1.386 . S
C1385 C1389 1.393 . S
C1386 H1378 0.950 . S
C1386 C1384 1.391 1_455 S
C1386 C1387 1.400 . S
C1387 C1386 1.400 . S
C1387 C1388 1.398 . S
C1387 C1393 1.491 . S
C1388 H1379 0.950 . S
C1388 C1387 1.398 . S
C1388 C1389 1.391 1_455 S
C1389 H1377 0.950 . S
C1389 C1385 1.393 . S
C1389 C1388 1.391 1_655 S
C1390 H1380 0.950 . S
C1390 C1391 1.386 . S
C1390 C1392 1.391 . S
C1391 C1390 1.386 . S
C1391 C1395 1.393 . S
C1392 H1381 0.950 . S
C1392 C1390 1.391 . S
C1392 C1393 1.400 . S
C1393 C1387 1.491 . S
C1393 C1392 1.400 . S
C1393 C1394 1.398 . S
C1394 H1382 0.950 . S
C1394 C1393 1.398 . S
C1394 C1395 1.391 . S
C1395 H1383 0.950 . S
C1395 C1391 1.393 . S
C1395 C1394 1.391 . S
H1396 C1404 0.950 . S
H1397 C1409 0.950 . S
H1398 C1406 0.950 . S
H1399 C1408 0.950 . S
H1400 C1410 0.950 . S
H1401 C1412 0.950 . S
H1402 C1414 0.950 . S
H1403 C1415 0.950 . S
C1404 H1396 0.950 . S
C1404 C1405 1.386 . S
C1404 C1406 1.391 . S
C1405 C1404 1.386 . S
C1405 C1409 1.393 . S
C1406 H1398 0.950 . S
C1406 C1404 1.391 . S
C1406 C1407 1.400 . S
C1407 C1406 1.400 . S
C1407 C1408 1.398 . S
C1407 C1413 1.491 . S
C1408 H1399 0.950 . S
C1408 C1407 1.398 . S
C1408 C1409 1.391 . S
C1409 H1397 0.950 . S
C1409 C1405 1.393 . S
C1409 C1408 1.391 . S
C1410 H1400 0.950 . S
C1410 C1411 1.386 . S
C1410 C1412 1.391 . S
C1411 C1410 1.386 . S
C1411 C1415 1.393 . S
C1412 H1401 0.950 . S
C1412 C1410 1.391 . S
C1412 C1413 1.400 . S
C1413 C1407 1.491 . S
C1413 C1412 1.400 . S
C1413 C1414 1.398 . S
C1414 H1402 0.950 . S
C1414 C1413 1.398 . S
C1414 C1415 1.391 . S
C1415 H1403 0.950 . S
C1415 C1411 1.393 . S
C1415 C1414 1.391 . S
H1416 C1424 0.950 . S
H1417 C1429 0.950 . S
H1418 C1426 0.950 . S
H1419 C1428 0.950 . S
H1420 C1430 0.950 . S
H1421 C1432 0.950 . S
H1422 C1434 0.950 . S
H1423 C1435 0.950 . S
C1424 H1416 0.950 . S
C1424 C1425 1.386 . S
C1424 C1426 1.391 . S
C1425 C1424 1.386 . S
C1425 C1429 1.393 . S
C1426 H1418 0.950 . S
C1426 C1424 1.391 . S
C1426 C1427 1.400 . S
C1427 C1426 1.400 . S
C1427 C1428 1.398 . S
C1427 C1433 1.491 . S
C1428 H1419 0.950 . S
C1428 C1427 1.398 . S
C1428 C1429 1.391 . S
C1429 H1417 0.950 . S
C1429 C1425 1.393 . S
C1429 C1428 1.391 . S
C1430 H1420 0.950 . S
C1430 C1431 1.386 . S
C1430 C1432 1.391 . S
C1431 C1430 1.386 . S
C1431 C1435 1.393 . S
C1432 H1421 0.950 . S
C1432 C1430 1.391 . S
C1432 C1433 1.400 . S
C1433 C1427 1.491 . S
C1433 C1432 1.400 . S
C1433 C1434 1.398 . S
C1434 H1422 0.950 . S
C1434 C1433 1.398 . S
C1434 C1435 1.391 . S
C1435 H1423 0.950 . S
C1435 C1431 1.393 . S
C1435 C1434 1.391 . S
H1436 C1444 0.950 . S
H1437 C1449 0.950 . S
H1438 C1446 0.950 . S
H1439 C1448 0.950 . S
H1440 C1450 0.950 . S
H1441 C1452 0.950 . S
H1442 C1454 0.950 . S
H1443 C1455 0.950 . S
C1444 H1436 0.950 . S
C1444 C1445 1.386 . S
C1444 C1446 1.391 . S
C1445 C1444 1.386 . S
C1445 C1449 1.393 . S
C1446 H1438 0.950 . S
C1446 C1444 1.391 . S
C1446 C1447 1.400 . S
C1447 C1446 1.400 . S
C1447 C1448 1.398 . S
C1447 C1453 1.491 . S
C1448 H1439 0.950 . S
C1448 C1447 1.398 . S
C1448 C1449 1.391 . S
C1449 H1437 0.950 . S
C1449 C1445 1.393 . S
C1449 C1448 1.391 . S
C1450 H1440 0.950 . S
C1450 C1451 1.386 . S
C1450 C1452 1.391 . S
C1451 C1450 1.386 . S
C1451 C1455 1.393 . S
C1452 H1441 0.950 . S
C1452 C1450 1.391 . S
C1452 C1453 1.400 . S
C1453 C1447 1.491 . S
C1453 C1452 1.400 . S
C1453 C1454 1.398 . S
C1454 H1442 0.950 . S
C1454 C1453 1.398 . S
C1454 C1455 1.391 . S
C1455 H1443 0.950 . S
C1455 C1451 1.393 . S
C1455 C1454 1.391 . S
H1456 C1464 0.950 . S
H1457 C1469 0.950 . S
H1458 C1466 0.950 . S
H1459 C1468 0.950 . S
H1460 C1470 0.950 . S
H1461 C1472 0.950 . S
H1462 C1474 0.950 . S
H1463 C1475 0.950 . S
C1464 H1456 0.950 . S
C1464 C1465 1.386 . S
C1464 C1466 1.391 . S
C1465 C1464 1.386 . S
C1465 C1469 1.393 . S
C1466 H1458 0.950 . S
C1466 C1464 1.391 . S
C1466 C1467 1.400 . S
C1467 C1466 1.400 . S
C1467 C1468 1.398 . S
C1467 C1473 1.491 . S
C1468 H1459 0.950 . S
C1468 C1467 1.398 . S
C1468 C1469 1.391 . S
C1469 H1457 0.950 . S
C1469 C1465 1.393 . S
C1469 C1468 1.391 . S
C1470 H1460 0.950 . S
C1470 C1471 1.386 . S
C1470 C1472 1.391 . S
C1471 C1470 1.386 . S
C1471 C1475 1.393 . S
C1472 H1461 0.950 . S
C1472 C1470 1.391 . S
C1472 C1473 1.400 . S
C1473 C1467 1.491 . S
C1473 C1472 1.400 . S
C1473 C1474 1.398 . S
C1474 H1462 0.950 . S
C1474 C1473 1.398 . S
C1474 C1475 1.391 . S
C1475 H1463 0.950 . S
C1475 C1471 1.393 . S
C1475 C1474 1.391 . S
H1476 C1484 0.950 . S
H1477 C1489 0.950 . S
H1478 C1486 0.950 1_545 S
H1479 C1488 0.950 . S
H1480 C1490 0.950 . S
H1481 C1492 0.950 . S
H1482 C1494 0.950 . S
H1483 C1495 0.950 . S
C1484 H1476 0.950 . S
C1484 C1485 1.386 . S
C1484 C1486 1.391 . S
C1485 C1484 1.386 . S
C1485 C1489 1.393 . S
C1486 H1478 0.950 1_565 S
C1486 C1484 1.391 . S
C1486 C1487 1.400 1_565 S
C1487 C1486 1.400 1_545 S
C1487 C1488 1.398 1_545 S
C1487 C1493 1.491 . S
C1488 H1479 0.950 . S
C1488 C1487 1.398 1_565 S
C1488 C1489 1.391 . S
C1489 H1477 0.950 . S
C1489 C1485 1.393 . S
C1489 C1488 1.391 . S
C1490 H1480 0.950 . S
C1490 C1491 1.386 . S
C1490 C1492 1.391 . S
C1491 C1490 1.386 . S
C1491 C1495 1.393 . S
C1492 H1481 0.950 . S
C1492 C1490 1.391 . S
C1492 C1493 1.400 . S
C1493 C1487 1.491 . S
C1493 C1492 1.400 . S
C1493 C1494 1.398 . S
C1494 H1482 0.950 . S
C1494 C1493 1.398 . S
C1494 C1495 1.391 . S
C1495 H1483 0.950 . S
C1495 C1491 1.393 . S
C1495 C1494 1.391 . S
H1496 C1504 0.950 . S
H1497 C1509 0.950 . S
H1498 C1506 0.950 . S
H1499 C1508 0.950 . S
H1500 C1510 0.950 . S
H1501 C1512 0.950 . S
H1502 C1514 0.950 . S
H1503 C1515 0.950 . S
C1504 H1496 0.950 . S
C1504 C1505 1.386 . S
C1504 C1506 1.391 1_455 S
C1505 C1504 1.386 . S
C1505 C1509 1.393 . S
C1506 H1498 0.950 . S
C1506 C1504 1.391 1_655 S
C1506 C1507 1.400 . S
C1507 C1506 1.400 . S
C1507 C1508 1.405 . S
C1507 C1513 1.491 . S
C1508 H1499 0.950 . S
C1508 C1507 1.405 . S
C1508 C1509 1.384 1_655 S
C1509 H1497 0.950 . S
C1509 C1505 1.393 . S
C1509 C1508 1.384 1_455 S
C1510 H1500 0.950 . S
C1510 C1511 1.386 . S
C1510 C1512 1.391 . S
C1511 C1510 1.386 . S
C1511 C1515 1.393 . S
C1512 H1501 0.950 . S
C1512 C1510 1.391 . S
C1512 C1513 1.400 . S
C1513 C1507 1.491 . S
C1513 C1512 1.400 . S
C1513 C1514 1.398 . S
C1514 H1502 0.950 . S
C1514 C1513 1.398 . S
C1514 C1515 1.391 . S
C1515 H1503 0.950 . S
C1515 C1511 1.393 . S
C1515 C1514 1.391 . S
H1516 C1524 0.950 . S
H1517 C1529 0.950 . S
H1518 C1526 0.950 . S
H1519 C1528 0.950 . S
H1520 C1530 0.950 . S
H1521 C1532 0.950 . S
H1522 C1534 0.950 . S
H1523 C1535 0.950 . S
C1524 H1516 0.950 . S
C1524 C1525 1.386 . S
C1524 C1526 1.391 . S
C1525 C1524 1.386 . S
C1525 C1529 1.393 . S
C1526 H1518 0.950 . S
C1526 C1524 1.391 . S
C1526 C1527 1.400 . S
C1527 C1526 1.400 . S
C1527 C1528 1.398 . S
C1527 C1533 1.491 . S
C1528 H1519 0.950 . S
C1528 C1527 1.398 . S
C1528 C1529 1.391 . S
C1529 H1517 0.950 . S
C1529 C1525 1.393 . S
C1529 C1528 1.391 . S
C1530 H1520 0.950 . S
C1530 C1531 1.386 . S
C1530 C1532 1.391 . S
C1531 C1530 1.386 . S
C1531 C1535 1.393 . S
C1532 H1521 0.950 . S
C1532 C1530 1.391 . S
C1532 C1533 1.400 . S
C1533 C1527 1.491 . S
C1533 C1532 1.400 . S
C1533 C1534 1.398 . S
C1534 H1522 0.950 . S
C1534 C1533 1.398 . S
C1534 C1535 1.391 . S
C1535 H1523 0.950 . S
C1535 C1531 1.393 . S
C1535 C1534 1.391 . S
H1536 C1544 0.950 . S
H1537 C1549 0.950 . S
H1538 C1546 0.950 . S
H1539 C1548 0.950 . S
H1540 C1550 0.950 . S
H1541 C1552 0.950 . S
H1542 C1554 0.950 . S
H1543 C1555 0.950 . S
C1544 H1536 0.950 . S
C1544 C1545 1.386 . S
C1544 C1546 1.391 1_455 S
C1545 C1544 1.386 . S
C1545 C1549 1.393 . S
C1546 H1538 0.950 . S
C1546 C1544 1.391 1_655 S
C1546 C1547 1.400 . S
C1547 C1546 1.400 . S
C1547 C1548 1.398 1_655 S
C1547 C1553 1.491 . S
C1548 H1539 0.950 . S
C1548 C1547 1.398 1_455 S
C1548 C1549 1.391 . S
C1549 H1537 0.950 . S
C1549 C1545 1.393 . S
C1549 C1548 1.391 . S
C1550 H1540 0.950 . S
C1550 C1551 1.386 . S
C1550 C1552 1.391 . S
C1551 C1550 1.386 . S
C1551 C1555 1.393 . S
C1552 H1541 0.950 . S
C1552 C1550 1.391 . S
C1552 C1553 1.400 . S
C1553 C1547 1.491 . S
C1553 C1552 1.400 . S
C1553 C1554 1.398 . S
C1554 H1542 0.950 . S
C1554 C1553 1.398 . S
C1554 C1555 1.391 . S
C1555 H1543 0.950 . S
C1555 C1551 1.393 . S
C1555 C1554 1.391 . S
H1556 C1564 0.950 . S
H1557 C1569 0.950 . S
H1558 C1566 0.950 . S
H1559 C1568 0.950 . S
H1560 C1570 0.950 . S
H1561 C1572 0.950 . S
H1562 C1574 0.950 . S
H1563 C1575 0.950 . S
C1564 H1556 0.950 . S
C1564 C1565 1.386 . S
C1564 C1566 1.391 . S
C1565 C1564 1.386 . S
C1565 C1569 1.393 . S
C1566 H1558 0.950 . S
C1566 C1564 1.391 . S
C1566 C1567 1.400 . S
C1567 C1566 1.400 . S
C1567 C1568 1.398 . S
C1567 C1573 1.491 . S
C1568 H1559 0.950 . S
C1568 C1567 1.398 . S
C1568 C1569 1.391 . S
C1569 H1557 0.950 . S
C1569 C1565 1.393 . S
C1569 C1568 1.391 . S
C1570 H1560 0.950 . S
C1570 C1571 1.386 . S
C1570 C1572 1.391 . S
C1571 C1570 1.386 . S
C1571 C1575 1.393 . S
C1572 H1561 0.950 . S
C1572 C1570 1.391 . S
C1572 C1573 1.400 . S
C1573 C1567 1.491 . S
C1573 C1572 1.400 . S
C1573 C1574 1.398 . S
C1574 H1562 0.950 . S
C1574 C1573 1.398 . S
C1574 C1575 1.391 . S
C1575 H1563 0.950 . S
C1575 C1571 1.393 . S
C1575 C1574 1.391 . S
H1576 C1584 0.950 . S
H1577 C1589 0.950 . S
H1578 C1586 0.950 . S
H1579 C1588 0.950 . S
H1580 C1590 0.950 . S
H1581 C1592 0.950 . S
H1582 C1594 0.950 . S
H1583 C1595 0.950 . S
C1584 H1576 0.950 . S
C1584 C1585 1.386 . S
C1584 C1586 1.391 . S
C1585 C1584 1.386 . S
C1585 C1589 1.393 . S
C1586 H1578 0.950 . S
C1586 C1584 1.391 . S
C1586 C1587 1.400 1_565 S
C1587 C1586 1.400 1_545 S
C1587 C1588 1.398 1_545 S
C1587 C1593 1.491 . S
C1588 H1579 0.950 . S
C1588 C1587 1.398 1_565 S
C1588 C1589 1.391 . S
C1589 H1577 0.950 . S
C1589 C1585 1.393 . S
C1589 C1588 1.391 . S
C1590 H1580 0.950 . S
C1590 C1591 1.386 . S
C1590 C1592 1.391 . S
C1591 C1590 1.386 . S
C1591 C1595 1.393 . S
C1592 H1581 0.950 . S
C1592 C1590 1.391 . S
C1592 C1593 1.400 . S
C1593 C1587 1.491 . S
C1593 C1592 1.400 . S
C1593 C1594 1.398 . S
C1594 H1582 0.950 . S
C1594 C1593 1.398 . S
C1594 C1595 1.391 . S
C1595 H1583 0.950 . S
C1595 C1591 1.393 . S
C1595 C1594 1.391 . S
H1596 C1604 0.950 . S
H1597 C1609 0.950 . S
H1598 C1606 0.950 . S
H1599 C1608 0.950 . S
H1600 C1610 0.950 . S
H1601 C1612 0.950 . S
H1602 C1614 0.950 . S
H1603 C1615 0.950 . S
C1604 H1596 0.950 . S
C1604 C1605 1.386 . S
C1604 C1606 1.391 . S
C1605 C1604 1.386 . S
C1605 C1609 1.393 . S
C1606 H1598 0.950 . S
C1606 C1604 1.391 . S
C1606 C1607 1.400 . S
C1607 C1606 1.400 . S
C1607 C1608 1.398 . S
C1607 C1613 1.491 . S
C1608 H1599 0.950 . S
C1608 C1607 1.398 . S
C1608 C1609 1.391 . S
C1609 H1597 0.950 . S
C1609 C1605 1.393 . S
C1609 C1608 1.391 . S
C1610 H1600 0.950 . S
C1610 C1611 1.386 . S
C1610 C1612 1.391 . S
C1611 C1610 1.386 . S
C1611 C1615 1.393 . S
C1612 H1601 0.950 . S
C1612 C1610 1.391 . S
C1612 C1613 1.400 . S
C1613 C1607 1.491 . S
C1613 C1612 1.400 . S
C1613 C1614 1.398 . S
C1614 H1602 0.950 . S
C1614 C1613 1.398 . S
C1614 C1615 1.391 . S
C1615 H1603 0.950 . S
C1615 C1611 1.393 . S
C1615 C1614 1.391 . S
H1616 C1624 0.950 . S
H1617 C1629 0.950 . S
H1618 C1626 0.950 . S
H1619 C1628 0.950 . S
H1620 C1630 0.950 . S
H1621 C1632 0.950 . S
H1622 C1634 0.950 . S
H1623 C1635 0.950 . S
C1624 H1616 0.950 . S
C1624 C1625 1.386 . S
C1624 C1626 1.391 . S
C1625 C1624 1.386 . S
C1625 C1629 1.393 . S
C1626 H1618 0.950 . S
C1626 C1624 1.391 . S
C1626 C1627 1.400 . S
C1627 C1626 1.400 . S
C1627 C1628 1.398 . S
C1627 C1633 1.491 . S
C1628 H1619 0.950 . S
C1628 C1627 1.398 . S
C1628 C1629 1.391 . S
C1629 H1617 0.950 . S
C1629 C1625 1.393 . S
C1629 C1628 1.391 . S
C1630 H1620 0.950 . S
C1630 C1631 1.386 . S
C1630 C1632 1.391 . S
C1631 C1630 1.386 . S
C1631 C1635 1.393 . S
C1632 H1621 0.950 . S
C1632 C1630 1.391 . S
C1632 C1633 1.400 . S
C1633 C1627 1.491 . S
C1633 C1632 1.400 . S
C1633 C1634 1.398 . S
C1634 H1622 0.950 . S
C1634 C1633 1.398 . S
C1634 C1635 1.391 . S
C1635 H1623 0.950 . S
C1635 C1631 1.393 . S
C1635 C1634 1.391 . S
H1636 C1644 0.950 . S
H1637 C1649 0.950 . S
H1638 C1646 0.950 . S
H1639 C1648 0.950 . S
H1640 C1650 0.950 . S
H1641 C1652 0.950 . S
H1642 C1654 0.950 . S
H1643 C1655 0.950 . S
C1644 H1636 0.950 . S
C1644 C1645 1.386 . S
C1644 C1646 1.391 . S
C1645 C1644 1.386 . S
C1645 C1649 1.393 . S
C1646 H1638 0.950 . S
C1646 C1644 1.391 . S
C1646 C1647 1.400 . S
C1647 C1646 1.400 . S
C1647 C1648 1.398 . S
C1647 C1653 1.491 . S
C1648 H1639 0.950 . S
C1648 C1647 1.398 . S
C1648 C1649 1.391 . S
C1649 H1637 0.950 . S
C1649 C1645 1.393 . S
C1649 C1648 1.391 . S
C1650 H1640 0.950 . S
C1650 C1651 1.386 . S
C1650 C1652 1.391 . S
C1651 C1650 1.386 . S
C1651 C1655 1.393 . S
C1652 H1641 0.950 . S
C1652 C1650 1.391 . S
C1652 C1653 1.400 . S
C1653 C1647 1.491 . S
C1653 C1652 1.400 . S
C1653 C1654 1.398 . S
C1654 H1642 0.950 . S
C1654 C1653 1.398 . S
C1654 C1655 1.391 . S
C1655 H1643 0.950 . S
C1655 C1651 1.393 . S
C1655 C1654 1.391 . S
H1656 C1664 0.950 . S
H1657 C1669 0.950 . S
H1658 C1666 0.950 . S
H1659 C1668 0.950 1_545 S
H1660 C1670 0.950 . S
H1661 C1672 0.951 . S
H1662 C1674 0.950 . S
H1663 C1675 0.950 . S
C1664 H1656 0.950 . S
C1664 C1665 1.386 . S
C1664 C1666 1.391 . S
C1665 C1664 1.386 . S
C1665 C1669 1.393 . S
C1666 H1658 0.950 . S
C1666 C1664 1.391 . S
C1666 C1667 1.400 . S
C1667 C1666 1.400 . S
C1667 C1668 1.398 . S
C1667 C1673 1.491 . S
C1668 H1659 0.950 1_565 S
C1668 C1667 1.398 . S
C1668 C1669 1.391 . S
C1669 H1657 0.950 . S
C1669 C1665 1.393 . S
C1669 C1668 1.391 . S
C1670 H1660 0.950 . S
C1670 C1671 1.386 1_545 S
C1670 C1672 1.392 . S
C1671 C1670 1.386 1_565 S
C1671 C1675 1.393 . S
C1672 H1661 0.951 . S
C1672 C1670 1.392 . S
C1672 C1673 1.399 1_545 S
C1673 C1667 1.491 . S
C1673 C1672 1.399 1_565 S
C1673 C1674 1.398 . S
C1674 H1662 0.950 . S
C1674 C1673 1.398 . S
C1674 C1675 1.391 . S
C1675 H1663 0.950 . S
C1675 C1671 1.393 . S
C1675 C1674 1.391 . S
H1676 C1684 0.950 1_655 S
H1677 C1689 0.950 . S
H1678 C1686 0.955 1_655 S
H1679 C1688 0.950 . S
H1680 C1690 0.950 . S
H1681 C1692 0.950 . S
H1682 C1694 0.950 . S
H1683 C1695 0.950 . S
C1684 H1676 0.950 1_455 S
C1684 C1685 1.386 . S
C1684 C1686 1.391 . S
C1685 C1684 1.386 . S
C1685 C1689 1.393 . S
C1686 H1678 0.955 1_455 S
C1686 C1684 1.391 . S
C1686 C1687 1.400 . S
C1687 C1686 1.400 . S
C1687 C1688 1.398 . S
C1687 C1693 1.491 . S
C1688 H1679 0.950 . S
C1688 C1687 1.398 . S
C1688 C1689 1.391 . S
C1689 H1677 0.950 . S
C1689 C1685 1.393 . S
C1689 C1688 1.391 . S
C1690 H1680 0.950 . S
C1690 C1691 1.386 . S
C1690 C1692 1.391 . S
C1691 C1690 1.386 . S
C1691 C1695 1.393 . S
C1692 H1681 0.950 . S
C1692 C1690 1.391 . S
C1692 C1693 1.400 . S
C1693 C1687 1.491 . S
C1693 C1692 1.400 . S
C1693 C1694 1.398 . S
C1694 H1682 0.950 . S
C1694 C1693 1.398 . S
C1694 C1695 1.391 . S
C1695 H1683 0.950 . S
C1695 C1691 1.393 . S
C1695 C1694 1.391 . S
H1696 C1704 0.950 . S
H1697 C1709 0.950 . S
H1698 C1706 0.950 . S
H1699 C1708 0.950 . S
H1700 C1710 0.950 . S
H1701 C1712 0.950 . S
H1702 C1714 0.950 . S
H1703 C1715 0.950 . S
C1704 H1696 0.950 . S
C1704 C1705 1.386 . S
C1704 C1706 1.391 . S
C1705 C1704 1.386 . S
C1705 C1709 1.393 . S
C1706 H1698 0.950 . S
C1706 C1704 1.391 . S
C1706 C1707 1.400 . S
C1707 C1706 1.400 . S
C1707 C1708 1.398 . S
C1707 C1713 1.491 . S
C1708 H1699 0.950 . S
C1708 C1707 1.398 . S
C1708 C1709 1.391 . S
C1709 H1697 0.950 . S
C1709 C1705 1.393 . S
C1709 C1708 1.391 . S
C1710 H1700 0.950 . S
C1710 C1711 1.386 . S
C1710 C1712 1.391 . S
C1711 C1710 1.386 . S
C1711 C1715 1.393 . S
C1712 H1701 0.950 . S
C1712 C1710 1.391 . S
C1712 C1713 1.400 . S
C1713 C1707 1.491 . S
C1713 C1712 1.400 . S
C1713 C1714 1.398 . S
C1714 H1702 0.950 . S
C1714 C1713 1.398 . S
C1714 C1715 1.391 . S
C1715 H1703 0.950 . S
C1715 C1711 1.393 . S
C1715 C1714 1.391 . S
H1716 C1724 0.950 . S
H1717 C1729 0.950 . S
H1718 C1726 0.950 . S
H1719 C1728 0.950 . S
H1720 C1730 0.950 . S
H1721 C1732 0.950 . S
H1722 C1734 0.950 . S
H1723 C1735 0.950 . S
C1724 H1716 0.950 . S
C1724 C1725 1.386 1_455 S
C1724 C1726 1.391 . S
C1725 C1724 1.386 1_655 S
C1725 C1729 1.393 . S
C1726 H1718 0.950 . S
C1726 C1724 1.391 . S
C1726 C1727 1.400 1_455 S
C1727 C1726 1.400 1_655 S
C1727 C1728 1.398 . S
C1727 C1733 1.491 . S
C1728 H1719 0.950 . S
C1728 C1727 1.398 . S
C1728 C1729 1.391 . S
C1729 H1717 0.950 . S
C1729 C1725 1.393 . S
C1729 C1728 1.391 . S
C1730 H1720 0.950 . S
C1730 C1731 1.386 . S
C1730 C1732 1.391 . S
C1731 C1730 1.386 . S
C1731 C1735 1.393 1_655 S
C1732 H1721 0.950 . S
C1732 C1730 1.391 . S
C1732 C1733 1.400 . S
C1733 C1727 1.491 . S
C1733 C1732 1.400 . S
C1733 C1734 1.398 1_655 S
C1734 H1722 0.950 . S
C1734 C1733 1.398 1_455 S
C1734 C1735 1.391 . S
C1735 H1723 0.950 . S
C1735 C1731 1.393 1_455 S
C1735 C1734 1.391 . S
H1736 C1744 0.950 . S
H1737 C1749 0.950 . S
H1738 C1746 0.950 . S
H1739 C1748 0.950 . S
H1740 C1750 0.950 . S
H1741 C1752 0.950 . S
H1742 C1754 0.950 . S
H1743 C1755 0.950 . S
C1744 H1736 0.950 . S
C1744 C1745 1.386 . S
C1744 C1746 1.391 . S
C1745 C1744 1.386 . S
C1745 C1749 1.393 . S
C1746 H1738 0.950 . S
C1746 C1744 1.391 . S
C1746 C1747 1.400 . S
C1747 C1746 1.400 . S
C1747 C1748 1.398 . S
C1747 C1753 1.491 . S
C1748 H1739 0.950 . S
C1748 C1747 1.398 . S
C1748 C1749 1.391 . S
C1749 H1737 0.950 . S
C1749 C1745 1.393 . S
C1749 C1748 1.391 . S
C1750 H1740 0.950 . S
C1750 C1751 1.386 . S
C1750 C1752 1.391 . S
C1751 C1750 1.386 . S
C1751 C1755 1.393 . S
C1752 H1741 0.950 . S
C1752 C1750 1.391 . S
C1752 C1753 1.400 . S
C1753 C1747 1.491 . S
C1753 C1752 1.400 . S
C1753 C1754 1.398 . S
C1754 H1742 0.950 . S
C1754 C1753 1.398 . S
C1754 C1755 1.391 . S
C1755 H1743 0.950 . S
C1755 C1751 1.393 . S
C1755 C1754 1.391 . S
H1756 C1764 0.950 . S
H1757 C1769 0.950 . S
H1758 C1766 0.950 . S
H1759 C1768 0.950 . S
H1760 C1770 0.950 . S
H1761 C1772 0.950 . S
H1762 C1774 0.950 . S
H1763 C1775 0.950 . S
C1764 H1756 0.950 . S
C1764 C1765 1.386 . S
C1764 C1766 1.391 . S
C1765 C1764 1.386 . S
C1765 C1769 1.393 . S
C1766 H1758 0.950 . S
C1766 C1764 1.391 . S
C1766 C1767 1.400 . S
C1767 C1766 1.400 . S
C1767 C1768 1.398 . S
C1767 C1773 1.491 . S
C1768 H1759 0.950 . S
C1768 C1767 1.398 . S
C1768 C1769 1.391 . S
C1769 H1757 0.950 . S
C1769 C1765 1.393 . S
C1769 C1768 1.391 . S
C1770 H1760 0.950 . S
C1770 C1771 1.386 . S
C1770 C1772 1.391 . S
C1771 C1770 1.386 . S
C1771 C1775 1.393 . S
C1772 H1761 0.950 . S
C1772 C1770 1.391 . S
C1772 C1773 1.400 . S
C1773 C1767 1.491 . S
C1773 C1772 1.400 . S
C1773 C1774 1.398 . S
C1774 H1762 0.950 . S
C1774 C1773 1.398 . S
C1774 C1775 1.391 . S
C1775 H1763 0.950 . S
C1775 C1771 1.393 . S
C1775 C1774 1.391 . S
H1776 C1784 0.950 . S
H1777 C1789 0.950 . S
H1778 C1786 0.950 . S
H1779 C1788 0.950 . S
H1780 C1790 0.950 . S
H1781 C1792 0.950 . S
H1782 C1794 0.950 . S
H1783 C1795 0.950 . S
C1784 H1776 0.950 . S
C1784 C1785 1.386 . S
C1784 C1786 1.391 . S
C1785 C1784 1.386 . S
C1785 C1789 1.393 . S
C1786 H1778 0.950 . S
C1786 C1784 1.391 . S
C1786 C1787 1.400 . S
C1787 C1786 1.400 . S
C1787 C1788 1.398 . S
C1787 C1793 1.491 . S
C1788 H1779 0.950 . S
C1788 C1787 1.398 . S
C1788 C1789 1.391 . S
C1789 H1777 0.950 . S
C1789 C1785 1.393 . S
C1789 C1788 1.391 . S
C1790 H1780 0.950 . S
C1790 C1791 1.386 . S
C1790 C1792 1.391 . S
C1791 C1790 1.386 . S
C1791 C1795 1.393 . S
C1792 H1781 0.950 . S
C1792 C1790 1.391 . S
C1792 C1793 1.400 . S
C1793 C1787 1.491 . S
C1793 C1792 1.400 . S
C1793 C1794 1.398 . S
C1794 H1782 0.950 . S
C1794 C1793 1.398 . S
C1794 C1795 1.391 . S
C1795 H1783 0.950 . S
C1795 C1791 1.393 . S
C1795 C1794 1.391 . S
H1796 C1804 0.950 . S
H1797 C1809 0.950 . S
H1798 C1806 0.950 . S
H1799 C1808 0.950 . S
H1800 C1810 0.950 . S
H1801 C1812 0.950 . S
H1802 C1814 0.950 . S
H1803 C1815 0.950 . S
C1804 H1796 0.950 . S
C1804 C1805 1.386 . S
C1804 C1806 1.391 . S
C1805 C1804 1.386 . S
C1805 C1809 1.393 . S
C1806 H1798 0.950 . S
C1806 C1804 1.391 . S
C1806 C1807 1.400 . S
C1807 C1806 1.400 . S
C1807 C1808 1.398 . S
C1807 C1813 1.491 . S
C1808 H1799 0.950 . S
C1808 C1807 1.398 . S
C1808 C1809 1.391 . S
C1809 H1797 0.950 . S
C1809 C1805 1.393 . S
C1809 C1808 1.391 . S
C1810 H1800 0.950 . S
C1810 C1811 1.386 . S
C1810 C1812 1.391 . S
C1811 C1810 1.386 . S
C1811 C1815 1.393 . S
C1812 H1801 0.950 . S
C1812 C1810 1.391 . S
C1812 C1813 1.400 . S
C1813 C1807 1.491 . S
C1813 C1812 1.400 . S
C1813 C1814 1.398 . S
C1814 H1802 0.950 . S
C1814 C1813 1.398 . S
C1814 C1815 1.391 . S
C1815 H1803 0.950 . S
C1815 C1811 1.393 . S
C1815 C1814 1.391 . S
H1816 C1824 0.950 . S
H1817 C1829 0.950 . S
H1818 C1826 0.950 . S
H1819 C1828 0.950 . S
H1820 C1830 0.950 . S
H1821 C1832 0.950 . S
H1822 C1834 0.950 . S
H1823 C1835 0.950 . S
C1824 H1816 0.950 . S
C1824 C1825 1.386 . S
C1824 C1826 1.391 . S
C1825 C1824 1.386 . S
C1825 C1829 1.393 . S
C1826 H1818 0.950 . S
C1826 C1824 1.391 . S
C1826 C1827 1.400 . S
C1827 C1826 1.400 . S
C1827 C1828 1.398 . S
C1827 C1833 1.491 . S
C1828 H1819 0.950 . S
C1828 C1827 1.398 . S
C1828 C1829 1.391 . S
C1829 H1817 0.950 . S
C1829 C1825 1.393 . S
C1829 C1828 1.391 . S
C1830 H1820 0.950 . S
C1830 C1831 1.386 . S
C1830 C1832 1.391 . S
C1831 C1830 1.386 . S
C1831 C1835 1.393 . S
C1832 H1821 0.950 . S
C1832 C1830 1.391 . S
C1832 C1833 1.400 . S
C1833 C1827 1.491 . S
C1833 C1832 1.400 . S
C1833 C1834 1.398 . S
C1834 H1822 0.950 . S
C1834 C1833 1.398 . S
C1834 C1835 1.391 . S
C1835 H1823 0.950 . S
C1835 C1831 1.393 . S
C1835 C1834 1.391 . S
H1836 C1844 0.950 . S
H1837 C1849 0.950 . S
H1838 C1846 0.950 . S
H1839 C1848 0.950 . S
H1840 C1850 0.950 . S
H1841 C1852 0.950 . S
H1842 C1854 0.950 . S
H1843 C1855 0.950 . S
C1844 H1836 0.950 . S
C1844 C1845 1.386 . S
C1844 C1846 1.391 . S
C1845 C1844 1.386 . S
C1845 C1849 1.393 . S
C1846 H1838 0.950 . S
C1846 C1844 1.391 . S
C1846 C1847 1.400 . S
C1847 C1846 1.400 . S
C1847 C1848 1.398 . S
C1847 C1853 1.491 . S
C1848 H1839 0.950 . S
C1848 C1847 1.398 . S
C1848 C1849 1.391 . S
C1849 H1837 0.950 . S
C1849 C1845 1.393 . S
C1849 C1848 1.391 . S
C1850 H1840 0.950 . S
C1850 C1851 1.386 . S
C1850 C1852 1.391 . S
C1851 C1850 1.386 . S
C1851 C1855 1.393 . S
C1852 H1841 0.950 . S
C1852 C1850 1.391 . S
C1852 C1853 1.400 . S
C1853 C1847 1.491 . S
C1853 C1852 1.400 . S
C1853 C1854 1.398 . S
C1854 H1842 0.950 . S
C1854 C1853 1.398 . S
C1854 C1855 1.391 . S
C1855 H1843 0.950 . S
C1855 C1851 1.393 . S
C1855 C1854 1.391 . S
H1856 C1864 0.950 . S
H1857 C1869 0.950 . S
H1858 C1866 0.950 . S
H1859 C1868 0.950 . S
H1860 C1870 0.950 . S
H1861 C1872 0.950 . S
H1862 C1874 0.950 . S
H1863 C1875 0.950 . S
C1864 H1856 0.950 . S
C1864 C1865 1.386 . S
C1864 C1866 1.391 . S
C1865 C1864 1.386 . S
C1865 C1869 1.393 . S
C1866 H1858 0.950 . S
C1866 C1864 1.391 . S
C1866 C1867 1.400 . S
C1867 C1866 1.400 . S
C1867 C1868 1.398 . S
C1867 C1873 1.491 . S
C1868 H1859 0.950 . S
C1868 C1867 1.398 . S
C1868 C1869 1.391 . S
C1869 H1857 0.950 . S
C1869 C1865 1.393 . S
C1869 C1868 1.391 . S
C1870 H1860 0.950 . S
C1870 C1871 1.386 . S
C1870 C1872 1.391 . S
C1871 C1870 1.386 . S
C1871 C1875 1.393 . S
C1872 H1861 0.950 . S
C1872 C1870 1.391 . S
C1872 C1873 1.400 . S
C1873 C1867 1.491 . S
C1873 C1872 1.400 . S
C1873 C1874 1.398 . S
C1874 H1862 0.950 . S
C1874 C1873 1.398 . S
C1874 C1875 1.391 . S
C1875 H1863 0.950 . S
C1875 C1871 1.393 . S
C1875 C1874 1.391 . S
H1876 C1884 0.950 . S
H1877 C1889 0.950 . S
H1878 C1886 0.950 . S
H1879 C1888 0.950 . S
H1880 C1890 0.950 . S
H1881 C1892 0.950 . S
H1882 C1894 0.950 . S
H1883 C1895 0.950 . S
C1884 H1876 0.950 . S
C1884 C1885 1.386 . S
C1884 C1886 1.391 . S
C1885 C1884 1.386 . S
C1885 C1889 1.393 . S
C1886 H1878 0.950 . S
C1886 C1884 1.391 . S
C1886 C1887 1.400 . S
C1887 C1886 1.400 . S
C1887 C1888 1.398 . S
C1887 C1893 1.491 . S
C1888 H1879 0.950 . S
C1888 C1887 1.398 . S
C1888 C1889 1.391 . S
C1889 H1877 0.950 . S
C1889 C1885 1.393 . S
C1889 C1888 1.391 . S
C1890 H1880 0.950 . S
C1890 C1891 1.386 . S
C1890 C1892 1.391 . S
C1891 C1890 1.386 . S
C1891 C1895 1.393 . S
C1892 H1881 0.950 . S
C1892 C1890 1.391 . S
C1892 C1893 1.400 . S
C1893 C1887 1.491 . S
C1893 C1892 1.400 . S
C1893 C1894 1.398 . S
C1894 H1882 0.950 . S
C1894 C1893 1.398 . S
C1894 C1895 1.391 . S
C1895 H1883 0.950 . S
C1895 C1891 1.393 . S
C1895 C1894 1.391 . S
H1896 C1904 0.950 . S
H1897 C1909 0.950 . S
H1898 C1906 0.950 . S
H1899 C1908 0.950 . S
H1900 C1910 0.950 . S
H1901 C1912 0.950 . S
H1902 C1914 0.950 . S
H1903 C1915 0.950 . S
C1904 H1896 0.950 . S
C1904 C1905 1.386 . S
C1904 C1906 1.391 . S
C1905 C1904 1.386 . S
C1905 C1909 1.393 . S
C1906 H1898 0.950 . S
C1906 C1904 1.391 . S
C1906 C1907 1.400 . S
C1907 C1906 1.400 . S
C1907 C1908 1.398 . S
C1907 C1913 1.491 . S
C1908 H1899 0.950 . S
C1908 C1907 1.398 . S
C1908 C1909 1.391 . S
C1909 H1897 0.950 . S
C1909 C1905 1.393 . S
C1909 C1908 1.391 . S
C1910 H1900 0.950 . S
C1910 C1911 1.386 . S
C1910 C1912 1.391 . S
C1911 C1910 1.386 . S
C1911 C1915 1.393 . S
C1912 H1901 0.950 . S
C1912 C1910 1.391 . S
C1912 C1913 1.400 . S
C1913 C1907 1.491 . S
C1913 C1912 1.400 . S
C1913 C1914 1.398 . S
C1914 H1902 0.950 . S
C1914 C1913 1.398 . S
C1914 C1915 1.391 . S
C1915 H1903 0.950 . S
C1915 C1911 1.393 . S
C1915 C1914 1.391 . S
H1916 C1924 0.950 . S
H1917 C1929 0.950 . S
H1918 C1926 0.950 . S
H1919 C1928 0.950 . S
H1920 C1930 0.950 . S
H1921 C1932 0.950 . S
H1922 C1934 0.950 . S
H1923 C1935 0.950 . S
C1924 H1916 0.950 . S
C1924 C1925 1.386 . S
C1924 C1926 1.391 . S
C1925 C1924 1.386 . S
C1925 C1929 1.393 . S
C1926 H1918 0.950 . S
C1926 C1924 1.391 . S
C1926 C1927 1.400 . S
C1927 C1926 1.400 . S
C1927 C1928 1.398 . S
C1927 C1933 1.491 . S
C1928 H1919 0.950 . S
C1928 C1927 1.398 . S
C1928 C1929 1.391 . S
C1929 H1917 0.950 . S
C1929 C1925 1.393 . S
C1929 C1928 1.391 . S
C1930 H1920 0.950 . S
C1930 C1931 1.386 . S
C1930 C1932 1.391 . S
C1931 C1930 1.386 . S
C1931 C1935 1.393 . S
C1932 H1921 0.950 . S
C1932 C1930 1.391 . S
C1932 C1933 1.400 . S
C1933 C1927 1.491 . S
C1933 C1932 1.400 . S
C1933 C1934 1.398 . S
C1934 H1922 0.950 . S
C1934 C1933 1.398 . S
C1934 C1935 1.391 . S
C1935 H1923 0.950 . S
C1935 C1931 1.393 . S
C1935 C1934 1.391 . S
H1936 C1944 0.950 . S
H1937 C1949 0.950 . S
H1938 C1946 0.950 . S
H1939 C1948 0.950 . S
H1940 C1950 0.950 . S
H1941 C1952 0.950 . S
H1942 C1954 0.950 . S
H1943 C1955 0.950 . S
C1944 H1936 0.950 . S
C1944 C1945 1.386 . S
C1944 C1946 1.391 . S
C1945 C1944 1.386 . S
C1945 C1949 1.393 . S
C1946 H1938 0.950 . S
C1946 C1944 1.391 . S
C1946 C1947 1.400 . S
C1947 C1946 1.400 . S
C1947 C1948 1.398 . S
C1947 C1953 1.491 . S
C1948 H1939 0.950 . S
C1948 C1947 1.398 . S
C1948 C1949 1.391 . S
C1949 H1937 0.950 . S
C1949 C1945 1.393 . S
C1949 C1948 1.391 . S
C1950 H1940 0.950 . S
C1950 C1951 1.386 . S
C1950 C1952 1.391 . S
C1951 C1950 1.386 . S
C1951 C1955 1.393 . S
C1952 H1941 0.950 . S
C1952 C1950 1.391 . S
C1952 C1953 1.400 . S
C1953 C1947 1.491 . S
C1953 C1952 1.400 . S
C1953 C1954 1.398 . S
C1954 H1942 0.950 . S
C1954 C1953 1.398 . S
C1954 C1955 1.391 . S
C1955 H1943 0.950 . S
C1955 C1951 1.393 . S
C1955 C1954 1.391 . S
H1956 C1964 0.950 . S
H1957 C1969 0.950 . S
H1958 C1966 0.950 . S
H1959 C1968 0.950 . S
H1960 C1970 0.950 . S
H1961 C1972 0.950 . S
H1962 C1974 0.950 . S
H1963 C1975 0.950 . S
C1964 H1956 0.950 . S
C1964 C1965 1.386 . S
C1964 C1966 1.391 . S
C1965 C1964 1.386 . S
C1965 C1969 1.393 . S
C1966 H1958 0.950 . S
C1966 C1964 1.391 . S
C1966 C1967 1.400 . S
C1967 C1966 1.400 . S
C1967 C1968 1.398 . S
C1967 C1973 1.491 . S
C1968 H1959 0.950 . S
C1968 C1967 1.398 . S
C1968 C1969 1.391 . S
C1969 H1957 0.950 . S
C1969 C1965 1.393 . S
C1969 C1968 1.391 . S
C1970 H1960 0.950 . S
C1970 C1971 1.386 . S
C1970 C1972 1.391 . S
C1971 C1970 1.386 . S
C1971 C1975 1.393 . S
C1972 H1961 0.950 . S
C1972 C1970 1.391 . S
C1972 C1973 1.400 . S
C1973 C1967 1.491 . S
C1973 C1972 1.400 . S
C1973 C1974 1.398 . S
C1974 H1962 0.950 . S
C1974 C1973 1.398 . S
C1974 C1975 1.391 . S
C1975 H1963 0.950 . S
C1975 C1971 1.393 . S
C1975 C1974 1.391 . S
H1976 C1984 0.950 . S
H1977 C1989 0.950 . S
H1978 C1986 0.950 . S
H1979 C1988 0.950 . S
H1980 C1990 0.950 . S
H1981 C1992 0.950 . S
H1982 C1994 0.950 . S
H1983 C1995 0.950 . S
C1984 H1976 0.950 . S
C1984 C1985 1.386 . S
C1984 C1986 1.391 . S
C1985 C1984 1.386 . S
C1985 C1989 1.393 . S
C1986 H1978 0.950 . S
C1986 C1984 1.391 . S
C1986 C1987 1.400 . S
C1987 C1986 1.400 . S
C1987 C1988 1.398 . S
C1987 C1993 1.491 . S
C1988 H1979 0.950 . S
C1988 C1987 1.398 . S
C1988 C1989 1.391 . S
C1989 H1977 0.950 . S
C1989 C1985 1.393 . S
C1989 C1988 1.391 . S
C1990 H1980 0.950 . S
C1990 C1991 1.386 . S
C1990 C1992 1.391 . S
C1991 C1990 1.386 . S
C1991 C1995 1.393 . S
C1992 H1981 0.950 . S
C1992 C1990 1.391 . S
C1992 C1993 1.400 . S
C1993 C1987 1.491 . S
C1993 C1992 1.400 . S
C1993 C1994 1.398 . S
C1994 H1982 0.950 . S
C1994 C1993 1.398 . S
C1994 C1995 1.391 . S
C1995 H1983 0.950 . S
C1995 C1991 1.393 . S
C1995 C1994 1.391 . S
H1996 C2004 0.950 . S
H1997 C2009 0.950 . S
H1998 C2006 0.950 . S
H1999 C2008 0.950 . S
H2000 C2010 0.950 . S
H2001 C2012 0.950 . S
H2002 C2014 0.950 . S
H2003 C2015 0.950 . S
C2004 H1996 0.950 . S
C2004 C2005 1.386 . S
C2004 C2006 1.391 . S
C2005 C2004 1.386 . S
C2005 C2009 1.393 . S
C2006 H1998 0.950 . S
C2006 C2004 1.391 . S
C2006 C2007 1.400 . S
C2007 C2006 1.400 . S
C2007 C2008 1.398 . S
C2007 C2013 1.491 . S
C2008 H1999 0.950 . S
C2008 C2007 1.398 . S
C2008 C2009 1.391 . S
C2009 H1997 0.950 . S
C2009 C2005 1.393 . S
C2009 C2008 1.391 . S
C2010 H2000 0.950 . S
C2010 C2011 1.386 . S
C2010 C2012 1.391 . S
C2011 C2010 1.386 . S
C2011 C2015 1.393 . S
C2012 H2001 0.950 . S
C2012 C2010 1.391 . S
C2012 C2013 1.400 . S
C2013 C2007 1.491 . S
C2013 C2012 1.400 . S
C2013 C2014 1.398 . S
C2014 H2002 0.950 . S
C2014 C2013 1.398 . S
C2014 C2015 1.391 . S
C2015 H2003 0.950 . S
C2015 C2011 1.393 . S
C2015 C2014 1.391 . S
C945 C439 1.530 . S
C951 C588 1.626 . S
C965 C465 1.814 . S
C971 C628 1.803 . S
C985 C401 1.723 . S
C991 C658 1.692 . S
C1005 C369 1.556 . S
C1011 C618 1.521 . S
C1031 C668 1.506 . S
C1025 C305 1.498 . S
C1045 C343 1.261 . S
C1051 C578 1.357 1_556 S
C1071 C607 1.660 . S
C1065 C375 1.667 . S
C1091 C647 1.768 . S
C1085 C311 1.772 . S
C1105 C337 1.581 . S
C1111 C673 1.677 . S
C1125 C433 1.468 . S
C1131 C633 1.516 . S
C1145 C471 1.463 . S
C1151 C687 1.469 . S
C1171 C593 1.398 . S
C1165 C407 1.421 . S
C1191 C708 1.626 . S
C1185 C55 1.530 . S
C1205 C81 1.814 . S
C1211 C748 1.804 . S
C1225 C17 1.721 . S
C1231 C778 1.684 . S
C1245 C561 1.556 . S
C1251 C738 1.531 . S
C1265 C497 1.498 . S
C1271 C788 1.506 . S
C1285 C535 1.288 . S
C1291 C698 1.371 . S
C1305 C567 1.670 . S
C1311 C727 1.662 . S
C1325 C503 1.772 . S
C1331 C767 1.774 . S
C1351 C793 1.690 . S
C1345 C529 1.588 . S
C1365 C49 1.451 . S
C1371 C753 1.512 . S
C1391 C807 1.471 . S
C1385 C87 1.470 . S
C1405 C23 1.425 . S
C1411 C713 1.399 . S
C1431 C828 1.619 . S
C1425 C247 1.509 . S
C1445 C273 1.814 . S
C1451 C868 1.804 . S
C1471 C898 1.690 . S
C1465 C209 1.723 . S
C1491 C858 1.531 . S
C1485 C177 1.556 . S
C1511 C908 1.504 . S
C1505 C113 1.504 . S
C1525 C151 1.276 . S
C1531 C818 1.375 . S
C1545 C183 1.670 . S
C1551 C847 1.662 . S
C1565 C119 1.771 . S
C1571 C887 1.772 . S
C1591 C913 1.689 . S
C1585 C145 1.585 . S
C1605 C241 1.448 . S
C1611 C873 1.527 . S
C1625 C279 1.470 . S
C1631 C927 1.472 . S
C1645 C215 1.426 . S
C1651 C833 1.406 . S
C1665 C509 1.344 . S
C1671 C605 1.344 . S
C1691 C645 1.799 . S
C1685 C541 1.720 . S
C1705 C573 1.555 . S
C1711 C664 1.563 . S
C1725 C221 1.842 . S
C1731 C624 1.807 . S
C1745 C253 1.481 . S
C1751 C685 1.535 . S
C1771 C584 1.344 . S
C1765 C285 1.342 . S
C1785 C125 1.349 . S
C1791 C725 1.352 . S
C1805 C157 1.696 . S
C1811 C765 1.789 . S
C1825 C189 1.556 . S
C1831 C784 1.558 . S
C1845 C413 1.842 . S
C1851 C744 1.822 . S
C1871 C805 1.535 . S
C1865 C445 1.481 . S
C1885 C477 1.324 . S
C1891 C704 1.348 . S
C1905 C317 1.349 . S
C1911 C845 1.350 . S
C1925 C349 1.720 . S
C1931 C885 1.796 . S
C1951 C904 1.557 . S
C1945 C381 1.556 . S
C1965 C29 1.840 . S
C1971 C864 1.813 . S
C1985 C61 1.456 . S
C1991 C925 1.530 . S
C2005 C93 1.322 . S
C2011 C824 1.342 . S
