# Generated by pormake.
# Topology anh, (6,3)-cn, num edge types: 1
# Building blocks:
#     Node 0, Type 0, BuildingBlock: CUKXOW_clean_sbu_0, # of connection points: 6
#     Node 1, Type 0, BuildingBlock: CUKXOW_clean_sbu_0, # of connection points: 6
#     Node 2, Type 0, BuildingBlock: CUKXOW_clean_sbu_0, # of connection points: 6
#     Node 3, Type 1, BuildingBlock: ESEHIV_clean_linker_0, # of connection points: 3
#     Node 4, Type 1, BuildingBlock: ESEHIV_clean_linker_0, # of connection points: 3
#     Node 5, Type 1, BuildingBlock: ESEHIV_clean_linker_0, # of connection points: 3
#     Node 6, Type 1, BuildingBlock: ESEHIV_clean_linker_0, # of connection points: 3
#     Node 7, Type 1, BuildingBlock: ESEHIV_clean_linker_0, # of connection points: 3
#     Node 8, Type 1, BuildingBlock: ESEHIV_clean_linker_0, # of connection points: 3
#     Edge 9, Type (0, 1), BuildingBlock: AJUNOK_clean_linker_0, # of connection points: 2
#     Edge 10, Type (0, 1), BuildingBlock: AJUNOK_clean_linker_0, # of connection points: 2
#     Edge 11, Type (0, 1), BuildingBlock: AJUNOK_clean_linker_0, # of connection points: 2
#     Edge 12, Type (0, 1), BuildingBlock: AJUNOK_clean_linker_0, # of connection points: 2
#     Edge 13, Type (0, 1), BuildingBlock: AJUNOK_clean_linker_0, # of connection points: 2
#     Edge 14, Type (0, 1), BuildingBlock: AJUNOK_clean_linker_0, # of connection points: 2
#     Edge 15, Type (0, 1), BuildingBlock: AJUNOK_clean_linker_0, # of connection points: 2
#     Edge 16, Type (0, 1), BuildingBlock: AJUNOK_clean_linker_0, # of connection points: 2
#     Edge 17, Type (0, 1), BuildingBlock: AJUNOK_clean_linker_0, # of connection points: 2
#     Edge 18, Type (0, 1), BuildingBlock: AJUNOK_clean_linker_0, # of connection points: 2
#     Edge 19, Type (0, 1), BuildingBlock: AJUNOK_clean_linker_0, # of connection points: 2
#     Edge 20, Type (0, 1), BuildingBlock: AJUNOK_clean_linker_0, # of connection points: 2
#     Edge 21, Type (0, 1), BuildingBlock: AJUNOK_clean_linker_0, # of connection points: 2
#     Edge 22, Type (0, 1), BuildingBlock: AJUNOK_clean_linker_0, # of connection points: 2
#     Edge 23, Type (0, 1), BuildingBlock: AJUNOK_clean_linker_0, # of connection points: 2
#     Edge 24, Type (0, 1), BuildingBlock: AJUNOK_clean_linker_0, # of connection points: 2
#     Edge 25, Type (0, 1), BuildingBlock: AJUNOK_clean_linker_0, # of connection points: 2
#     Edge 26, Type (0, 1), BuildingBlock: AJUNOK_clean_linker_0, # of connection points: 2
# Relax obj value: 0.144
# Max RMSD: 0.195
# Mean RMSD: 0.144
data_MOF--net-anh--node1-CUKXOW_clean_sbu_0--node2-ESEHIV_clean_linker_0--edge1-AJUNOK_clean_linker_0
_symmetry_space_group_name_H-M    P1
_symmetry_Int_Tables_number       1
_symmetry_cell_setting            triclinic
loop_
_symmetry_equiv_pos_as_xyz
'x, y, z'
_cell_length_a     18.397095
_cell_length_b     17.956642
_cell_length_c     37.062821
_cell_angle_alpha  93.69301
_cell_angle_beta   90.123822
_cell_angle_gamma 108.3779
loop_
_atom_site_label
_atom_site_type_symbol
_atom_site_fract_x
_atom_site_fract_y
_atom_site_fract_z
_atom_type_partial_charge
Tb0 Tb 0.12268 0.56893 0.13888 0.0
C1 C 0.0755 0.50169 0.2158 0.0
Tb2 Tb 1.03367 0.39071 0.14455 0.0
O3 O 1.02235 0.61079 0.13105 0.0
O4 O 1.00786 0.49524 0.13788 0.0
O5 O 0.12042 0.55921 0.19746 0.0
C6 C 0.9215 0.25561 0.15191 0.0
O7 O 1.03164 0.43397 0.20025 0.0
C8 C 0.18439 0.42651 0.13483 0.0
C9 C 0.07133 0.4539 0.06816 0.0
O10 O 0.99002 0.27429 0.16636 0.0
O11 O 0.91699 0.3128 0.13338 0.0
O12 O 0.13362 0.35954 0.12439 0.0
O13 O 0.1497 0.46702 0.1529 0.0
O14 O 1.02421 0.40094 0.0876 0.0
O15 O 0.12014 0.5211 0.08261 0.0
C16 C 0.24106 0.70293 0.14194 0.0
O17 O 0.23838 0.63834 0.12317 0.0
O18 O 0.17606 0.69224 0.15779 0.0
C19 C 0.97049 0.54246 0.13334 0.0
Tb20 Tb 0.49746 0.01363 0.48707 0.0
C21 C 0.58774 0.04557 0.41387 0.0
Tb22 Tb 0.67483 0.10876 0.48954 0.0
O23 O 0.46948 0.11593 0.46913 0.0
O24 O 0.56912 0.13034 0.49853 0.0
O25 O 0.52324 1.00913 0.42998 0.0
C26 C 0.79022 0.24075 0.48609 0.0
O27 O 0.65125 0.09011 0.43135 0.0
C28 C 0.64849 0.95471 0.48768 0.0
C29 C 0.58831 0.06411 0.56285 0.0
O30 O 0.79602 0.17691 0.49892 0.0
O31 O 0.72036 0.22935 0.47523 0.0
O32 O 0.71738 1.00556 0.48854 0.0
O33 O 0.60296 0.99419 0.48669 0.0
O34 O 0.65145 0.10672 0.54704 0.0
O35 O 0.52368 0.02193 0.54514 0.0
C36 C 0.37567 0.88639 0.48215 0.0
O37 O 0.37634 0.95378 0.4979 0.0
O38 O 0.44265 0.89186 0.46966 0.0
C39 C 0.5348 0.16667 0.48028 0.0
Tb40 Tb 0.54028 0.5825 0.81494 0.0
C41 C 0.617 0.6072 0.8901 0.0
Tb42 Tb 0.70887 0.63198 0.81823 0.0
O43 O 0.53266 0.47373 0.84037 0.0
O44 O 0.62222 0.52316 0.80751 0.0
O45 O 0.56013 0.61909 0.87201 0.0
C46 C 0.8464 0.61273 0.81501 0.0
O47 O 0.67689 0.5971 0.87314 0.0
C48 C 0.65523 0.75109 0.82751 0.0
C49 C 0.63071 0.61229 0.74141 0.0
O50 O 0.82366 0.65259 0.84044 0.0
O51 O 0.79347 0.59045 0.79007 0.0
O52 O 0.72236 0.75231 0.83906 0.0
O53 O 0.62767 0.68914 0.80752 0.0
O54 O 0.69707 0.63426 0.75972 0.0
O55 O 0.56372 0.59383 0.75764 0.0
C56 C 0.39135 0.54473 0.8021 0.0
O57 O 0.43569 0.50748 0.7885 0.0
O58 O 0.43208 0.60608 0.82207 0.0
C59 C 0.59597 0.46764 0.82764 0.0
H60 H 0.47241 0.90876 0.25251 0.0
H61 H 0.69881 0.07489 0.25265 0.0
H62 H 0.58642 0.96794 0.15182 0.0
C63 C 0.52188 0.94172 0.23791 0.0
C64 C 0.52051 0.93384 0.19981 0.0
C65 C 0.58662 0.99123 0.2573 0.0
C66 C 0.65039 0.0328 0.23813 0.0
C67 C 0.65198 0.02306 0.20035 0.0
C68 C 0.58644 0.97398 0.1811 0.0
H69 H 0.63835 0.70389 0.57957 0.0
H70 H 0.61519 0.45981 0.5808 0.0
H71 H 0.5824 0.55644 0.48039 0.0
C72 C 0.62865 0.64712 0.56497 0.0
C73 C 0.6134 0.63883 0.52753 0.0
C74 C 0.62718 0.58239 0.58416 0.0
C75 C 0.61419 0.509 0.56552 0.0
C76 C 0.59665 0.49735 0.52815 0.0
C77 C 0.59735 0.56359 0.50895 0.0
H78 H 0.93826 0.38546 0.91663 0.0
H79 H 0.16231 0.36398 0.90429 0.0
H80 H 1.03525 0.38879 0.81179 0.0
C81 C 0.98114 0.37357 0.89915 0.0
C82 C 0.97883 0.38641 0.86239 0.0
C83 C 1.04751 0.36527 0.91456 0.0
C84 C 0.10775 0.36151 0.89221 0.0
C85 C 0.10285 0.37045 0.8551 0.0
C86 C 1.03503 0.37417 0.8398 0.0
H87 H 0.97123 0.44348 0.37919 0.0
H88 H 0.16751 0.65138 0.37587 0.0
H89 H 0.07281 0.5733 0.47794 0.0
C90 C 1.01477 0.49295 0.39274 0.0
C91 C 1.01671 0.50229 0.4306 0.0
C92 C 0.06938 0.54615 0.37254 0.0
C93 C 0.12398 0.61041 0.3909 0.0
C94 C 0.12441 0.62098 0.42876 0.0
C95 C 0.07087 0.56673 0.44862 0.0
H96 H 0.59781 0.20271 0.72267 0.0
H97 H 0.59871 0.96457 0.72438 0.0
H98 H 0.61544 0.10557 0.82446 0.0
C99 C 0.60004 0.15385 0.7379 0.0
C100 C 0.60719 0.16289 0.77583 0.0
C101 C 0.59705 0.08255 0.71939 0.0
C102 C 0.59992 0.0194 0.73888 0.0
C103 C 0.60596 0.02701 0.77681 0.0
C104 C 0.60975 0.09903 0.79522 0.0
H105 H 0.47027 0.5301 0.04716 0.0
H106 H 0.70554 0.53545 0.04653 0.0
H107 H 0.57434 0.48042 0.14316 0.0
C108 C 0.5193 0.52227 0.06072 0.0
C109 C 0.51166 0.50037 0.09665 0.0
C110 C 0.58816 0.53395 0.0421 0.0
C111 C 0.65224 0.52693 0.06062 0.0
C112 C 0.64947 0.50947 0.09714 0.0
C113 C 0.57823 0.49585 0.11531 0.0
C114 C 0.29414 0.40186 0.10072 0.0
C115 C 0.26954 0.44628 0.12804 0.0
C116 C 0.37228 0.41738 0.09256 0.0
C117 C 0.43117 0.47752 0.11154 0.0
H118 H 0.25223 0.35527 0.08472 0.0
H119 H 0.38674 0.38286 0.07031 0.0
S120 S 0.39969 0.60838 0.18749 0.0
N121 N 0.31217 0.55148 0.1755 0.0
N122 N 0.45861 0.58044 0.16015 0.0
C123 C 0.40795 0.5212 0.13972 0.0
C124 C 0.32766 0.50578 0.1479 0.0
C125 C 0.83519 0.37986 0.47139 0.0
C126 C 0.85318 0.31207 0.47934 0.0
C127 C 0.88982 0.44359 0.45719 0.0
C128 C 0.96422 0.44156 0.45107 0.0
H129 H 0.7776 0.38235 0.47481 0.0
H130 H 0.87304 0.49325 0.44961 0.0
S131 S 1.04295 0.2824 0.47117 0.0
N132 N 0.95238 0.24964 0.48297 0.0
N133 N 1.05579 0.37055 0.45653 0.0
C134 C 0.98464 0.37675 0.46117 0.0
C135 C 0.92887 0.31162 0.47549 0.0
C136 C 0.57052 0.81749 0.80063 0.0
C137 C 0.6356 0.82314 0.82194 0.0
C138 C 0.5588 0.88459 0.78799 0.0
C139 C 0.6115 0.95971 0.79638 0.0
H140 H 0.53048 0.7605 0.79196 0.0
H141 H 0.50993 0.87737 0.77017 0.0
S142 S 0.78552 1.00721 0.85525 0.0
N143 N 0.74883 0.91046 0.8543 0.0
N144 N 0.72721 0.03677 0.83 0.0
C145 C 0.67357 0.96681 0.81996 0.0
C146 C 0.68549 0.89837 0.83293 0.0
C147 C 0.83405 0.45703 0.11351 0.0
C148 C 0.88472 0.52752 0.12989 0.0
C149 C 0.75598 0.44874 0.10565 0.0
C150 C 0.72415 0.50965 0.11464 0.0
H151 H 0.8558 0.40974 0.10459 0.0
H152 H 0.72112 0.39552 0.09077 0.0
S153 S 0.83068 0.70458 0.1593 0.0
N154 N 0.89538 0.65843 0.1558 0.0
N155 N 0.75028 0.64201 0.14173 0.0
C156 C 0.77347 0.57883 0.13234 0.0
C157 C 0.8529 0.58786 0.13977 0.0
C158 C 0.32211 0.74888 0.45776 0.0
C159 C 0.30918 0.81586 0.47467 0.0
C160 C 0.26138 0.68482 0.44412 0.0
C161 C 0.18569 0.68513 0.44738 0.0
H162 H 0.37983 0.74699 0.45365 0.0
H163 H 0.27373 0.63557 0.43 0.0
S164 S 0.1203 0.84178 0.49262 0.0
N165 N 0.21478 0.87617 0.49637 0.0
N166 N 0.09965 0.75393 0.471 0.0
C167 C 0.17126 0.74918 0.46618 0.0
C168 C 0.23343 0.81515 0.47986 0.0
C169 C 0.66208 0.38306 0.79513 0.0
C170 C 0.60882 0.3909 0.82103 0.0
C171 C 0.66397 0.30889 0.78213 0.0
C172 C 0.61267 0.23987 0.79457 0.0
H173 H 0.69958 0.43432 0.78321 0.0
H174 H 0.70379 0.30544 0.76107 0.0
S175 S 0.46908 0.22873 0.86578 0.0
N176 N 0.50946 0.32388 0.86169 0.0
N177 N 0.51202 0.18398 0.83665 0.0
C178 C 0.56303 0.24691 0.82241 0.0
C179 C 0.56135 0.32264 0.8358 0.0
C180 C 0.68014 0.82844 0.47949 0.0
C181 C 0.63013 0.869 0.49256 0.0
C182 C 0.67034 0.75035 0.48789 0.0
C183 C 0.61039 0.71017 0.50987 0.0
H184 H 0.72892 0.85829 0.46373 0.0
H185 H 0.71269 0.72313 0.47906 0.0
S186 S 0.46423 0.78933 0.55122 0.0
N187 N 0.51899 0.86229 0.52893 0.0
N188 N 0.49923 0.71582 0.54365 0.0
C189 C 0.55833 0.74894 0.52182 0.0
C190 C 0.56853 0.82826 0.51349 0.0
C191 C 0.8771 0.48887 0.80439 0.0
C192 C 0.89288 0.56308 0.82327 0.0
C193 C 0.90146 0.42996 0.81817 0.0
C194 C 0.94291 0.44377 0.85103 0.0
H195 H 0.84252 0.4747 0.77969 0.0
H196 H 0.88804 0.37337 0.80308 0.0
S197 S 1.01019 0.63268 0.90736 0.0
N198 N 0.95921 0.65007 0.87412 0.0
N199 N 1.00732 0.54024 0.89974 0.0
C200 C 0.96305 0.51939 0.86899 0.0
C201 C 0.93794 0.57904 0.85501 0.0
C202 C 0.38385 0.76588 0.14088 0.0
C203 C 0.31145 0.77001 0.15114 0.0
C204 C 0.45182 0.82143 0.15524 0.0
C205 C 0.44958 0.88308 0.18023 0.0
H206 H 0.38813 0.71711 0.12317 0.0
H207 H 0.50621 0.81368 0.14818 0.0
S208 S 0.27513 0.92776 0.21094 0.0
N209 N 0.24219 0.8463 0.18442 0.0
N210 N 0.36937 0.9507 0.21087 0.0
C211 C 0.37771 0.89101 0.18853 0.0
C212 C 0.3088 0.83459 0.17406 0.0
C213 C 0.51347 0.27347 0.52061 0.0
C214 C 0.54399 0.25111 0.48865 0.0
C215 C 0.52676 0.35295 0.53153 0.0
C216 C 0.57303 0.4142 0.51151 0.0
H217 H 0.4803 0.22903 0.53779 0.0
H218 H 0.50212 0.36643 0.55666 0.0
S219 S 0.6574 0.38546 0.42278 0.0
N220 N 0.61447 0.2951 0.43459 0.0
N221 N 0.64296 0.44517 0.45585 0.0
C222 C 0.60032 0.39224 0.47827 0.0
C223 C 0.58538 0.31062 0.46681 0.0
C224 C 0.28086 0.42278 0.79963 0.0
C225 C 0.31027 0.50486 0.80762 0.0
C226 C 0.21268 0.3782 0.81471 0.0
C227 C 0.1726 0.41511 0.83773 0.0
H228 H 0.31315 0.392 0.78369 0.0
H229 H 0.19263 0.3149 0.80934 0.0
S230 S 0.2179 0.62877 0.8618 0.0
N231 N 0.28902 0.62167 0.83615 0.0
N232 N 0.16025 0.5379 0.86421 0.0
C233 C 0.19799 0.49748 0.84346 0.0
C234 C 0.26703 0.54259 0.82826 0.0
C235 C 0.78198 0.18052 0.14572 0.0
C236 C 0.85533 0.18659 0.1594 0.0
C237 C 0.71617 0.12297 0.15682 0.0
C238 C 0.72157 0.06961 0.18198 0.0
H239 H 0.77484 0.22294 0.12766 0.0
H240 H 0.66053 0.12356 0.14745 0.0
S241 S 0.90069 0.05326 0.2218 0.0
N242 N 0.92991 0.12898 0.19643 0.0
N243 N 0.80642 0.02045 0.21701 0.0
C244 C 0.79497 0.07141 0.19375 0.0
C245 C 0.86184 0.13004 0.18255 0.0
C246 C 1.01155 0.36499 0.01439 0.0
C247 C 0.06918 0.43301 0.02877 0.0
C248 C 1.0074 0.34118 0.97767 0.0
C249 C 0.06086 0.38397 0.95381 0.0
H250 H 0.96813 0.32974 0.03144 0.0
H251 H 0.96095 0.28985 0.9677 0.0
S252 S 0.22251 0.56641 0.97679 0.0
N253 N 0.18134 0.54255 0.0158 0.0
N254 N 0.17256 0.4982 0.94635 0.0
C255 C 0.11928 0.45163 0.96753 0.0
C256 C 0.12358 0.47614 0.0051 0.0
C257 C 0.52399 0.02723 0.35292 0.0
C258 C 0.58917 0.03285 0.37417 0.0
C259 C 0.52326 0.01295 0.31525 0.0
C260 C 0.58724 1.00237 0.29749 0.0
H261 H 0.47351 0.03506 0.36546 0.0
H262 H 0.47261 0.01152 0.29989 0.0
S263 S 0.76874 1.0023 0.34167 0.0
N264 N 0.71752 0.02225 0.37525 0.0
N265 N 0.71527 0.992 0.30471 0.0
C266 C 0.65194 1.00542 0.31872 0.0
C267 C 0.65314 0.02154 0.35696 0.0
C268 C 0.69179 0.65066 0.68184 0.0
C269 C 0.62995 0.60493 0.70136 0.0
C270 C 0.69098 0.6435 0.6438 0.0
C271 C 0.62917 0.58908 0.62422 0.0
H272 H 0.74058 0.69291 0.69598 0.0
H273 H 0.7391 0.68025 0.62963 0.0
S274 S 0.45422 0.45445 0.66227 0.0
N275 N 0.50572 0.50254 0.69794 0.0
N276 N 0.50475 0.48937 0.62688 0.0
C277 C 0.5675 0.54276 0.6434 0.0
C278 C 0.56776 0.55058 0.68187 0.0
C279 C 0.52747 0.07368 0.62237 0.0
C280 C 0.58995 0.06538 0.60261 0.0
C281 C 0.53009 0.07951 0.66032 0.0
C282 C 0.59443 0.07515 0.67951 0.0
H283 H 0.47716 0.07773 0.60844 0.0
H284 H 0.48159 0.08729 0.67478 0.0
S285 S 0.7707 0.04924 0.64041 0.0
N286 N 0.71686 0.05097 0.60494 0.0
N287 N 0.72074 0.05976 0.67627 0.0
C288 C 0.6563 0.06491 0.66008 0.0
C289 C 0.65434 0.0606 0.62157 0.0
C290 C 0.66762 0.62596 0.95407 0.0
C291 C 0.60745 0.59151 0.92885 0.0
C292 C 0.66035 0.60826 -0.00941 0.0
C293 C 0.59347 0.55341 0.00314 0.0
H294 H 0.72048 0.66741 0.94558 0.0
H295 H 0.7077 0.63806 0.00911 0.0
S296 S 0.42256 0.44064 0.94618 0.0
N297 N 0.48009 0.49831 0.91816 0.0
N298 N 0.46809 0.46048 -0.01419 0.0
C299 C 0.53356 0.51722 0.97765 0.0
C300 C 0.54021 0.53726 0.94079 0.0
C301 C 0.08485 0.58692 0.27283 0.0
C302 C 0.07539 0.51228 0.25565 0.0
C303 C 0.08231 0.5973 0.31059 0.0
C304 C 0.07127 0.53359 0.33254 0.0
H305 H 0.09272 0.63738 0.25696 0.0
H306 H 0.08815 0.65553 0.32264 0.0
S307 S 1.05227 0.3278 0.30072 0.0
N308 N 0.05901 0.37451 0.26334 0.0
N309 N 1.05714 0.39446 0.33424 0.0
C310 C 0.06399 0.45906 0.31563 0.0
C311 C 0.0654 0.44833 0.27721 0.0
loop_
_geom_bond_atom_site_label_1
_geom_bond_atom_site_label_2
_geom_bond_distance
_geom_bond_site_symmetry_2
_ccdc_geom_bond_type
Tb0 O3 2.453 1_455 S
Tb0 O4 2.596 1_455 S
Tb0 O5 2.374 . S
Tb0 O13 2.343 . S
Tb0 O15 2.353 . S
Tb0 O17 2.427 . S
Tb0 O18 2.513 . S
C1 O5 1.251 . S
C1 O7 1.263 . S
Tb2 O4 2.343 . S
Tb2 O7 2.353 1_655 S
Tb2 O10 2.427 . S
Tb2 O11 2.513 . S
Tb2 O12 2.453 1_655 S
Tb2 O13 2.596 1_655 S
Tb2 O14 2.374 1_655 S
O3 Tb0 2.453 1_655 S
O3 C19 1.245 . S
O4 Tb0 2.596 1_655 S
O4 Tb2 2.343 . S
O4 C19 1.259 . S
O5 Tb0 2.374 . S
O5 C1 1.251 . S
C6 O10 1.275 . S
C6 O11 1.246 . S
O7 C1 1.263 . S
O7 Tb2 2.353 1_455 S
C8 O12 1.245 . S
C8 O13 1.259 . S
C9 O14 1.250 . S
C9 O15 1.263 . S
O10 Tb2 2.427 . S
O10 C6 1.275 . S
O11 Tb2 2.513 . S
O11 C6 1.246 . S
O12 Tb2 2.453 1_455 S
O12 C8 1.245 . S
O13 Tb0 2.343 . S
O13 Tb2 2.596 1_455 S
O13 C8 1.259 . S
O14 Tb2 2.374 1_455 S
O14 C9 1.250 . S
O15 Tb0 2.353 . S
O15 C9 1.263 . S
C16 O17 1.275 . S
C16 O18 1.246 . S
O17 Tb0 2.427 . S
O17 C16 1.275 . S
O18 Tb0 2.513 . S
O18 C16 1.246 . S
C19 O3 1.245 . S
C19 O4 1.259 . S
Tb20 O23 2.453 . S
Tb20 O24 2.596 . S
Tb20 O25 2.374 . S
Tb20 O33 2.343 1_545 S
Tb20 O35 2.353 . S
Tb20 O37 2.427 1_545 S
Tb20 O38 2.513 1_545 S
C21 O25 1.251 . S
C21 O27 1.263 . S
Tb22 O24 2.343 . S
Tb22 O27 2.353 . S
Tb22 O30 2.427 . S
Tb22 O31 2.513 . S
Tb22 O32 2.453 1_545 S
Tb22 O33 2.596 1_545 S
Tb22 O34 2.374 . S
O23 Tb20 2.453 . S
O23 C39 1.245 . S
O24 Tb20 2.596 . S
O24 Tb22 2.343 . S
O24 C39 1.259 . S
O25 Tb20 2.374 . S
O25 C21 1.251 . S
C26 O30 1.275 . S
C26 O31 1.246 . S
O27 C21 1.263 . S
O27 Tb22 2.353 . S
C28 O32 1.245 . S
C28 O33 1.259 . S
C29 O34 1.250 . S
C29 O35 1.263 . S
O30 Tb22 2.427 . S
O30 C26 1.275 . S
O31 Tb22 2.513 . S
O31 C26 1.246 . S
O32 Tb22 2.453 1_565 S
O32 C28 1.245 . S
O33 Tb20 2.343 1_565 S
O33 Tb22 2.596 1_565 S
O33 C28 1.259 . S
O34 Tb22 2.374 . S
O34 C29 1.250 . S
O35 Tb20 2.353 . S
O35 C29 1.263 . S
C36 O37 1.275 . S
C36 O38 1.246 . S
O37 Tb20 2.427 1_565 S
O37 C36 1.275 . S
O38 Tb20 2.513 1_565 S
O38 C36 1.246 . S
C39 O23 1.245 . S
C39 O24 1.259 . S
Tb40 O43 2.453 . S
Tb40 O44 2.596 . S
Tb40 O45 2.374 . S
Tb40 O53 2.343 . S
Tb40 O55 2.353 . S
Tb40 O57 2.427 . S
Tb40 O58 2.513 . S
C41 O45 1.251 . S
C41 O47 1.263 . S
Tb42 O44 2.343 . S
Tb42 O47 2.353 . S
Tb42 O50 2.427 . S
Tb42 O51 2.513 . S
Tb42 O52 2.453 . S
Tb42 O53 2.596 . S
Tb42 O54 2.374 . S
O43 Tb40 2.453 . S
O43 C59 1.245 . S
O44 Tb40 2.596 . S
O44 Tb42 2.343 . S
O44 C59 1.259 . S
O45 Tb40 2.374 . S
O45 C41 1.251 . S
C46 O50 1.275 . S
C46 O51 1.246 . S
O47 C41 1.263 . S
O47 Tb42 2.353 . S
C48 O52 1.245 . S
C48 O53 1.259 . S
C49 O54 1.250 . S
C49 O55 1.263 . S
O50 Tb42 2.427 . S
O50 C46 1.275 . S
O51 Tb42 2.513 . S
O51 C46 1.246 . S
O52 Tb42 2.453 . S
O52 C48 1.245 . S
O53 Tb40 2.343 . S
O53 Tb42 2.596 . S
O53 C48 1.259 . S
O54 Tb42 2.374 . S
O54 C49 1.250 . S
O55 Tb40 2.353 . S
O55 C49 1.263 . S
C56 O57 1.275 . S
C56 O58 1.246 . S
O57 Tb40 2.427 . S
O57 C56 1.275 . S
O58 Tb40 2.513 . S
O58 C56 1.246 . S
C59 O43 1.245 . S
C59 O44 1.259 . S
H60 C63 0.931 . S
H61 C66 0.928 . S
H62 C68 0.930 . S
C63 H60 0.931 . S
C63 C64 1.413 . S
C63 C65 1.360 1_565 S
C64 C63 1.413 . S
C64 C68 1.429 1_565 S
C65 C63 1.360 1_545 S
C65 C66 1.372 . S
C66 H61 0.928 . S
C66 C65 1.372 . S
C66 C67 1.404 . S
C67 C66 1.404 . S
C67 C68 1.391 . S
C68 H62 0.930 . S
C68 C64 1.429 1_545 S
C68 C67 1.391 . S
H69 C72 0.931 . S
H70 C75 0.928 . S
H71 C77 0.930 . S
C72 H69 0.931 . S
C72 C73 1.413 . S
C72 C74 1.360 . S
C73 C72 1.413 . S
C73 C77 1.429 . S
C74 C72 1.360 . S
C74 C75 1.372 . S
C75 H70 0.928 . S
C75 C74 1.372 . S
C75 C76 1.404 . S
C76 C75 1.404 . S
C76 C77 1.391 . S
C77 H71 0.930 . S
C77 C73 1.429 . S
C77 C76 1.391 . S
H78 C81 0.931 1_655 S
H79 C84 0.928 . S
H80 C86 0.930 . S
C81 H78 0.931 1_455 S
C81 C82 1.413 . S
C81 C83 1.360 . S
C82 C81 1.413 . S
C82 C86 1.429 . S
C83 C81 1.360 . S
C83 C84 1.372 . S
C84 H79 0.928 . S
C84 C83 1.372 . S
C84 C85 1.404 . S
C85 C84 1.404 . S
C85 C86 1.391 . S
C86 H80 0.930 . S
C86 C82 1.429 . S
C86 C85 1.391 . S
H87 C90 0.931 . S
H88 C93 0.928 . S
H89 C95 0.930 . S
C90 H87 0.931 . S
C90 C91 1.413 . S
C90 C92 1.362 . S
C91 C90 1.413 . S
C91 C95 1.429 1_655 S
C92 C90 1.362 . S
C92 C93 1.369 1_655 S
C93 H88 0.928 . S
C93 C92 1.369 1_455 S
C93 C94 1.404 . S
C94 C93 1.404 . S
C94 C95 1.391 . S
C95 H89 0.930 . S
C95 C91 1.429 1_455 S
C95 C94 1.391 . S
H96 C99 0.931 . S
H97 C102 0.928 . S
H98 C104 0.930 . S
C99 H96 0.931 . S
C99 C100 1.413 . S
C99 C101 1.360 . S
C100 C99 1.413 . S
C100 C104 1.429 . S
C101 C99 1.360 . S
C101 C102 1.372 1_545 S
C102 H97 0.928 . S
C102 C101 1.372 1_565 S
C102 C103 1.404 . S
C103 C102 1.404 . S
C103 C104 1.391 1_565 S
C104 H98 0.930 . S
C104 C100 1.429 . S
C104 C103 1.391 1_545 S
H105 C108 0.931 . S
H106 C111 0.928 . S
H107 C113 0.930 . S
C108 H105 0.931 . S
C108 C109 1.413 . S
C108 C110 1.360 . S
C109 C108 1.413 . S
C109 C113 1.429 . S
C110 C108 1.360 . S
C110 C111 1.372 . S
C111 H106 0.928 . S
C111 C110 1.372 . S
C111 C112 1.404 . S
C112 C111 1.404 . S
C112 C113 1.391 . S
C113 H107 0.930 . S
C113 C109 1.429 . S
C113 C112 1.391 . S
C114 C115 1.369 . S
C114 C116 1.419 . S
C114 H118 0.930 . S
C115 C114 1.369 . S
C115 C124 1.429 . S
C116 C114 1.419 . S
C116 C117 1.363 . S
C116 H119 0.929 . S
C117 C116 1.363 . S
C117 C123 1.428 . S
H118 C114 0.930 . S
H119 C116 0.929 . S
S120 N121 1.613 . S
S120 N122 1.610 . S
N121 S120 1.613 . S
N121 C124 1.350 . S
N122 S120 1.610 . S
N122 C123 1.351 . S
C123 C117 1.428 . S
C123 N122 1.351 . S
C123 C124 1.434 . S
C124 C115 1.429 . S
C124 N121 1.350 . S
C124 C123 1.434 . S
C125 C126 1.369 . S
C125 C127 1.419 . S
C125 H129 0.930 . S
C126 C125 1.369 . S
C126 C135 1.429 . S
C127 C125 1.419 . S
C127 C128 1.363 . S
C127 H130 0.929 . S
C128 C127 1.363 . S
C128 C134 1.428 . S
H129 C125 0.930 . S
H130 C127 0.929 . S
S131 N132 1.613 . S
S131 N133 1.610 . S
N132 S131 1.613 . S
N132 C135 1.350 . S
N133 S131 1.610 . S
N133 C134 1.351 . S
C134 C128 1.428 . S
C134 N133 1.351 . S
C134 C135 1.434 . S
C135 C126 1.429 . S
C135 N132 1.350 . S
C135 C134 1.434 . S
C136 C137 1.369 . S
C136 C138 1.419 . S
C136 H140 0.930 . S
C137 C136 1.369 . S
C137 C146 1.429 . S
C138 C136 1.419 . S
C138 C139 1.363 . S
C138 H141 0.929 . S
C139 C138 1.363 . S
C139 C145 1.428 . S
H140 C136 0.930 . S
H141 C138 0.929 . S
S142 N143 1.613 . S
S142 N144 1.610 . S
N143 S142 1.613 . S
N143 C146 1.350 . S
N144 S142 1.610 . S
N144 C145 1.351 . S
C145 C139 1.428 . S
C145 N144 1.351 . S
C145 C146 1.434 . S
C146 C137 1.429 . S
C146 N143 1.350 . S
C146 C145 1.434 . S
C147 C148 1.369 . S
C147 C149 1.419 . S
C147 H151 0.930 . S
C148 C147 1.369 . S
C148 C157 1.429 . S
C149 C147 1.419 . S
C149 C150 1.363 . S
C149 H152 0.929 . S
C150 C149 1.363 . S
C150 C156 1.428 . S
H151 C147 0.930 . S
H152 C149 0.929 . S
S153 N154 1.613 . S
S153 N155 1.610 . S
N154 S153 1.613 . S
N154 C157 1.350 . S
N155 S153 1.610 . S
N155 C156 1.351 . S
C156 C150 1.428 . S
C156 N155 1.351 . S
C156 C157 1.434 . S
C157 C148 1.429 . S
C157 N154 1.350 . S
C157 C156 1.434 . S
C158 C159 1.369 . S
C158 C160 1.419 . S
C158 H162 0.930 . S
C159 C158 1.369 . S
C159 C168 1.429 . S
C160 C158 1.419 . S
C160 C161 1.363 . S
C160 H163 0.929 . S
C161 C160 1.363 . S
C161 C167 1.428 . S
H162 C158 0.930 . S
H163 C160 0.929 . S
S164 N165 1.613 . S
S164 N166 1.610 . S
N165 S164 1.613 . S
N165 C168 1.350 . S
N166 S164 1.610 . S
N166 C167 1.351 . S
C167 C161 1.428 . S
C167 N166 1.351 . S
C167 C168 1.434 . S
C168 C159 1.429 . S
C168 N165 1.350 . S
C168 C167 1.434 . S
C169 C170 1.369 . S
C169 C171 1.419 . S
C169 H173 0.930 . S
C170 C169 1.369 . S
C170 C179 1.429 . S
C171 C169 1.419 . S
C171 C172 1.363 . S
C171 H174 0.929 . S
C172 C171 1.363 . S
C172 C178 1.428 . S
H173 C169 0.930 . S
H174 C171 0.929 . S
S175 N176 1.613 . S
S175 N177 1.610 . S
N176 S175 1.613 . S
N176 C179 1.350 . S
N177 S175 1.610 . S
N177 C178 1.351 . S
C178 C172 1.428 . S
C178 N177 1.351 . S
C178 C179 1.434 . S
C179 C170 1.429 . S
C179 N176 1.350 . S
C179 C178 1.434 . S
C180 C181 1.369 . S
C180 C182 1.419 . S
C180 H184 0.930 . S
C181 C180 1.369 . S
C181 C190 1.429 . S
C182 C180 1.419 . S
C182 C183 1.363 . S
C182 H185 0.929 . S
C183 C182 1.363 . S
C183 C189 1.428 . S
H184 C180 0.930 . S
H185 C182 0.929 . S
S186 N187 1.613 . S
S186 N188 1.610 . S
N187 S186 1.613 . S
N187 C190 1.350 . S
N188 S186 1.610 . S
N188 C189 1.351 . S
C189 C183 1.428 . S
C189 N188 1.351 . S
C189 C190 1.434 . S
C190 C181 1.429 . S
C190 N187 1.350 . S
C190 C189 1.434 . S
C191 C192 1.369 . S
C191 C193 1.419 . S
C191 H195 0.930 . S
C192 C191 1.369 . S
C192 C201 1.429 . S
C193 C191 1.419 . S
C193 C194 1.363 . S
C193 H196 0.929 . S
C194 C193 1.363 . S
C194 C200 1.428 . S
H195 C191 0.930 . S
H196 C193 0.929 . S
S197 N198 1.613 . S
S197 N199 1.610 . S
N198 S197 1.613 . S
N198 C201 1.350 . S
N199 S197 1.610 . S
N199 C200 1.351 . S
C200 C194 1.428 . S
C200 N199 1.351 . S
C200 C201 1.434 . S
C201 C192 1.429 . S
C201 N198 1.350 . S
C201 C200 1.434 . S
C202 C203 1.369 . S
C202 C204 1.419 . S
C202 H206 0.930 . S
C203 C202 1.369 . S
C203 C212 1.429 . S
C204 C202 1.419 . S
C204 C205 1.363 . S
C204 H207 0.929 . S
C205 C204 1.363 . S
C205 C211 1.428 . S
H206 C202 0.930 . S
H207 C204 0.929 . S
S208 N209 1.613 . S
S208 N210 1.610 . S
N209 S208 1.613 . S
N209 C212 1.350 . S
N210 S208 1.610 . S
N210 C211 1.351 . S
C211 C205 1.428 . S
C211 N210 1.351 . S
C211 C212 1.434 . S
C212 C203 1.429 . S
C212 N209 1.350 . S
C212 C211 1.434 . S
C213 C214 1.369 . S
C213 C215 1.419 . S
C213 H217 0.930 . S
C214 C213 1.369 . S
C214 C223 1.429 . S
C215 C213 1.419 . S
C215 C216 1.363 . S
C215 H218 0.929 . S
C216 C215 1.363 . S
C216 C222 1.428 . S
H217 C213 0.930 . S
H218 C215 0.929 . S
S219 N220 1.613 . S
S219 N221 1.610 . S
N220 S219 1.613 . S
N220 C223 1.350 . S
N221 S219 1.610 . S
N221 C222 1.351 . S
C222 C216 1.428 . S
C222 N221 1.351 . S
C222 C223 1.434 . S
C223 C214 1.429 . S
C223 N220 1.350 . S
C223 C222 1.434 . S
C224 C225 1.369 . S
C224 C226 1.419 . S
C224 H228 0.930 . S
C225 C224 1.369 . S
C225 C234 1.429 . S
C226 C224 1.419 . S
C226 C227 1.363 . S
C226 H229 0.929 . S
C227 C226 1.363 . S
C227 C233 1.428 . S
H228 C224 0.930 . S
H229 C226 0.929 . S
S230 N231 1.613 . S
S230 N232 1.610 . S
N231 S230 1.613 . S
N231 C234 1.350 . S
N232 S230 1.610 . S
N232 C233 1.351 . S
C233 C227 1.428 . S
C233 N232 1.351 . S
C233 C234 1.434 . S
C234 C225 1.429 . S
C234 N231 1.350 . S
C234 C233 1.434 . S
C235 C236 1.369 . S
C235 C237 1.419 . S
C235 H239 0.930 . S
C236 C235 1.369 . S
C236 C245 1.429 . S
C237 C235 1.419 . S
C237 C238 1.363 . S
C237 H240 0.929 . S
C238 C237 1.363 . S
C238 C244 1.428 . S
H239 C235 0.930 . S
H240 C237 0.929 . S
S241 N242 1.613 . S
S241 N243 1.610 . S
N242 S241 1.613 . S
N242 C245 1.350 . S
N243 S241 1.610 . S
N243 C244 1.351 . S
C244 C238 1.428 . S
C244 N243 1.351 . S
C244 C245 1.434 . S
C245 C236 1.429 . S
C245 N242 1.350 . S
C245 C244 1.434 . S
C246 C247 1.369 . S
C246 C248 1.419 1_554 S
C246 H250 0.930 1_455 S
C247 C246 1.369 . S
C247 C256 1.429 . S
C248 C246 1.419 1_556 S
C248 C249 1.363 . S
C248 H251 0.929 1_455 S
C249 C248 1.363 . S
C249 C255 1.428 . S
H250 C246 0.930 1_655 S
H251 C248 0.929 1_655 S
S252 N253 1.613 . S
S252 N254 1.610 1_554 S
N253 S252 1.613 . S
N253 C256 1.350 . S
N254 S252 1.610 1_556 S
N254 C255 1.351 . S
C255 C249 1.428 . S
C255 N254 1.351 . S
C255 C256 1.434 1_556 S
C256 C247 1.429 . S
C256 N253 1.350 . S
C256 C255 1.434 1_554 S
C257 C258 1.369 . S
C257 C259 1.419 . S
C257 H261 0.930 1_545 S
C258 C257 1.369 . S
C258 C267 1.429 . S
C259 C257 1.419 . S
C259 C260 1.363 . S
C259 H262 0.929 1_545 S
C260 C259 1.363 . S
C260 C266 1.428 . S
H261 C257 0.930 1_565 S
H262 C259 0.929 1_565 S
S263 N264 1.613 . S
S263 N265 1.610 . S
N264 S263 1.613 . S
N264 C267 1.350 . S
N265 S263 1.610 . S
N265 C266 1.351 . S
C266 C260 1.428 . S
C266 N265 1.351 . S
C266 C267 1.434 . S
C267 C258 1.429 . S
C267 N264 1.350 . S
C267 C266 1.434 . S
C268 C269 1.369 . S
C268 C270 1.419 . S
C268 H272 0.930 . S
C269 C268 1.369 . S
C269 C278 1.429 . S
C270 C268 1.419 . S
C270 C271 1.363 . S
C270 H273 0.929 . S
C271 C270 1.363 . S
C271 C277 1.428 . S
H272 C268 0.930 . S
H273 C270 0.929 . S
S274 N275 1.613 . S
S274 N276 1.610 . S
N275 S274 1.613 . S
N275 C278 1.350 . S
N276 S274 1.610 . S
N276 C277 1.351 . S
C277 C271 1.428 . S
C277 N276 1.351 . S
C277 C278 1.434 . S
C278 C269 1.429 . S
C278 N275 1.350 . S
C278 C277 1.434 . S
C279 C280 1.369 . S
C279 C281 1.419 . S
C279 H283 0.930 . S
C280 C279 1.369 . S
C280 C289 1.429 1_545 S
C281 C279 1.419 . S
C281 C282 1.363 . S
C281 H284 0.929 . S
C282 C281 1.363 . S
C282 C288 1.428 1_545 S
H283 C279 0.930 . S
H284 C281 0.929 . S
S285 N286 1.613 . S
S285 N287 1.610 . S
N286 S285 1.613 . S
N286 C289 1.350 . S
N287 S285 1.610 . S
N287 C288 1.351 . S
C288 C282 1.428 1_565 S
C288 N287 1.351 . S
C288 C289 1.434 . S
C289 C280 1.429 1_565 S
C289 N286 1.350 . S
C289 C288 1.434 . S
C290 C291 1.369 . S
C290 C292 1.419 1_556 S
C290 H294 0.930 . S
C291 C290 1.369 . S
C291 C300 1.429 . S
C292 C290 1.419 1_554 S
C292 C293 1.363 . S
C292 H295 0.929 . S
C293 C292 1.363 . S
C293 C299 1.428 1_554 S
H294 C290 0.930 . S
H295 C292 0.929 . S
S296 N297 1.613 . S
S296 N298 1.610 1_556 S
N297 S296 1.613 . S
N297 C300 1.350 . S
N298 S296 1.610 1_554 S
N298 C299 1.351 1_554 S
C299 C293 1.428 1_556 S
C299 N298 1.351 1_556 S
C299 C300 1.434 . S
C300 C291 1.429 . S
C300 N297 1.350 . S
C300 C299 1.434 . S
C301 C302 1.369 . S
C301 C303 1.419 . S
C301 H305 0.930 . S
C302 C301 1.369 . S
C302 C311 1.429 1_455 S
C303 C301 1.419 . S
C303 C304 1.362 1_455 S
C303 H306 0.929 . S
C304 C303 1.362 1_655 S
C304 C310 1.428 . S
H305 C301 0.930 . S
H306 C303 0.929 . S
S307 N308 1.613 . S
S307 N309 1.610 . S
N308 S307 1.613 . S
N308 C311 1.350 . S
N309 S307 1.610 . S
N309 C310 1.351 . S
C310 C304 1.428 . S
C310 N309 1.351 . S
C310 C311 1.434 . S
C311 C302 1.429 1_655 S
C311 N308 1.350 . S
C311 C310 1.434 . S
C115 C8 1.882 . S
C117 C109 1.927 . S
C126 C26 1.358 . S
C128 C91 1.391 . S
C137 C48 1.471 . S
C139 C103 1.524 . S
C148 C19 1.783 . S
C150 C112 1.866 . S
C161 C94 1.433 . S
C159 C36 1.390 . S
C172 C100 1.648 . S
C170 C59 1.536 . S
C181 C28 1.499 . S
C183 C73 1.540 . S
C192 C46 1.140 . S
C194 C82 1.188 1_655 S
C203 C16 1.423 . S
C205 C64 1.473 . S
C216 C76 1.614 . S
C214 C39 1.540 . S
C227 C85 1.087 . S
C225 C56 1.041 . S
C236 C6 1.428 . S
C238 C67 1.444 . S
C249 C83 1.452 . S
C247 C9 1.407 . S
C258 C21 1.490 . S
C260 C65 1.510 . S
C269 C49 1.462 . S
C271 C74 1.486 . S
C282 C101 1.471 . S
C280 C29 1.457 . S
C293 C110 1.585 . S
C291 C41 1.563 . S
C302 C1 1.494 . S
C304 C92 1.512 . S
