# Generated by pormake.
# Topology zzz, (3,6)-cn, num edge types: 1
# Building blocks:
#     Node 0, Type 0, BuildingBlock: BELTOD_clean_linker_0, # of connection points: 3
#     Node 1, Type 0, BuildingBlock: BELTOD_clean_linker_0, # of connection points: 3
#     Node 2, Type 0, BuildingBlock: BELTOD_clean_linker_0, # of connection points: 3
#     Node 3, Type 0, BuildingBlock: BELTOD_clean_linker_0, # of connection points: 3
#     Node 4, Type 0, BuildingBlock: BELTOD_clean_linker_0, # of connection points: 3
#     Node 5, Type 0, BuildingBlock: BELTOD_clean_linker_0, # of connection points: 3
#     Node 6, Type 0, BuildingBlock: BELTOD_clean_linker_0, # of connection points: 3
#     Node 7, Type 0, BuildingBlock: BELTOD_clean_linker_0, # of connection points: 3
#     Node 8, Type 1, BuildingBlock: BETDAH_clean_sbu_0, # of connection points: 6
#     Node 9, Type 1, BuildingBlock: BETDAH_clean_sbu_0, # of connection points: 6
#     Node 10, Type 1, BuildingBlock: BETDAH_clean_sbu_0, # of connection points: 6
#     Node 11, Type 1, BuildingBlock: BETDAH_clean_sbu_0, # of connection points: 6
#     Edge 12, Type (0, 1), BuildingBlock: MIFKUJ_clean_linker_0, # of connection points: 2
#     Edge 13, Type (0, 1), BuildingBlock: MIFKUJ_clean_linker_0, # of connection points: 2
#     Edge 14, Type (0, 1), BuildingBlock: MIFKUJ_clean_linker_0, # of connection points: 2
#     Edge 15, Type (0, 1), BuildingBlock: MIFKUJ_clean_linker_0, # of connection points: 2
#     Edge 16, Type (0, 1), BuildingBlock: MIFKUJ_clean_linker_0, # of connection points: 2
#     Edge 17, Type (0, 1), BuildingBlock: MIFKUJ_clean_linker_0, # of connection points: 2
#     Edge 18, Type (0, 1), BuildingBlock: MIFKUJ_clean_linker_0, # of connection points: 2
#     Edge 19, Type (0, 1), BuildingBlock: MIFKUJ_clean_linker_0, # of connection points: 2
#     Edge 20, Type (0, 1), BuildingBlock: MIFKUJ_clean_linker_0, # of connection points: 2
#     Edge 21, Type (0, 1), BuildingBlock: MIFKUJ_clean_linker_0, # of connection points: 2
#     Edge 22, Type (0, 1), BuildingBlock: MIFKUJ_clean_linker_0, # of connection points: 2
#     Edge 23, Type (0, 1), BuildingBlock: MIFKUJ_clean_linker_0, # of connection points: 2
#     Edge 24, Type (0, 1), BuildingBlock: MIFKUJ_clean_linker_0, # of connection points: 2
#     Edge 25, Type (0, 1), BuildingBlock: MIFKUJ_clean_linker_0, # of connection points: 2
#     Edge 26, Type (0, 1), BuildingBlock: MIFKUJ_clean_linker_0, # of connection points: 2
#     Edge 27, Type (0, 1), BuildingBlock: MIFKUJ_clean_linker_0, # of connection points: 2
#     Edge 28, Type (0, 1), BuildingBlock: MIFKUJ_clean_linker_0, # of connection points: 2
#     Edge 29, Type (0, 1), BuildingBlock: MIFKUJ_clean_linker_0, # of connection points: 2
#     Edge 30, Type (0, 1), BuildingBlock: MIFKUJ_clean_linker_0, # of connection points: 2
#     Edge 31, Type (0, 1), BuildingBlock: MIFKUJ_clean_linker_0, # of connection points: 2
#     Edge 32, Type (0, 1), BuildingBlock: MIFKUJ_clean_linker_0, # of connection points: 2
#     Edge 33, Type (0, 1), BuildingBlock: MIFKUJ_clean_linker_0, # of connection points: 2
#     Edge 34, Type (0, 1), BuildingBlock: MIFKUJ_clean_linker_0, # of connection points: 2
#     Edge 35, Type (0, 1), BuildingBlock: MIFKUJ_clean_linker_0, # of connection points: 2
# Relax obj value: 0.394
# Max RMSD: 0.262
# Mean RMSD: 0.244
data_MOF--net-zzz--node1-BETDAH_clean_sbu_0--node2-BELTOD_clean_linker_0--edge1-MIFKUJ_clean_linker_0
_symmetry_space_group_name_H-M    P1
_symmetry_Int_Tables_number       1
_symmetry_cell_setting            triclinic
loop_
_symmetry_equiv_pos_as_xyz
'x, y, z'
_cell_length_a     71.1444
_cell_length_b     71.137671
_cell_length_c     21.260158
_cell_angle_alpha  89.968094
_cell_angle_beta   89.984002
_cell_angle_gamma 90.175268
loop_
_atom_site_label
_atom_site_type_symbol
_atom_site_fract_x
_atom_site_fract_y
_atom_site_fract_z
_atom_type_partial_charge
P0 P 0.71409 0.48559 0.32589 0.0
H1 H 0.72883 0.48835 0.4536 0.0
H2 H 0.75912 0.49879 0.49211 0.0
H3 H 0.77045 0.5252 0.3128 0.0
H4 H 0.74021 0.51385 0.27359 0.0
H5 H 0.67911 0.46939 0.28641 0.0
H6 H 0.65408 0.47957 0.21719 0.0
H7 H 0.68142 0.53354 0.19558 0.0
H8 H 0.70693 0.5229 0.26506 0.0
H9 H 0.73384 0.4501 0.34442 0.0
H10 H 0.72439 0.48956 0.1938 0.0
O11 O 0.70475 0.47211 0.38219 0.0
H12 H 0.7572 0.43384 0.28024 0.0
H13 H 0.74808 0.47396 0.13046 0.0
C14 C 0.73199 0.50042 0.36069 0.0
C15 C 0.73745 0.49698 0.42305 0.0
C16 C 0.75497 0.50299 0.4452 0.0
C17 C 0.76756 0.51266 0.40549 0.0
C18 C 0.76138 0.51745 0.34451 0.0
C19 C 0.74384 0.51129 0.32227 0.0
C20 C 0.69474 0.49547 0.282 0.0
C21 C 0.67958 0.48358 0.26799 0.0
C22 C 0.66517 0.48948 0.22831 0.0
C23 C 0.66549 0.50751 0.20116 0.0
C24 C 0.6807 0.51955 0.21555 0.0
C25 C 0.69525 0.51356 0.25565 0.0
C26 C 0.72718 0.47084 0.27347 0.0
C27 C 0.73639 0.45493 0.29685 0.0
C28 C 0.74989 0.44578 0.26034 0.0
C29 C 0.75462 0.45264 0.20029 0.0
C30 C 0.74459 0.46803 0.17594 0.0
C31 C 0.73103 0.47705 0.21228 0.0
P32 P 0.02473 0.71588 0.3337 0.0
H33 H 0.03267 0.73337 0.45407 0.0
H34 H 0.02356 0.76314 0.4972 0.0
H35 H 0.97944 0.76748 0.35772 0.0
H36 H 0.99022 0.73833 0.31064 0.0
H37 H 0.03938 0.67932 0.30304 0.0
H38 H 0.02855 0.65398 0.23627 0.0
H39 H 0.97556 0.68242 0.21058 0.0
H40 H 0.9866 0.70804 0.27847 0.0
H41 H 0.05941 0.73774 0.32775 0.0
H42 H 0.01173 0.72646 0.2082 0.0
O43 O 0.0421 0.70763 0.37864 0.0
H44 H 0.07003 0.76214 0.25485 0.0
H45 H 0.02196 0.75094 0.1362 0.0
C46 C 0.01192 0.73309 0.37962 0.0
C47 C 0.02061 0.74033 0.43369 0.0
C48 C 0.01527 0.75766 0.45874 0.0
C49 C 1.00074 0.7683 0.43119 0.0
C50 C 0.99102 0.76023 0.37983 0.0
C51 C 0.9968 0.74305 0.35364 0.0
C52 C 0.01377 0.69561 0.29702 0.0
C53 C 0.02517 0.67996 0.28494 0.0
C54 C 0.01894 0.66536 0.24639 0.0
C55 C 1.00113 0.66605 0.21796 0.0
C56 C 0.9894 0.68148 0.23145 0.0
C57 C 0.99566 0.69611 0.27081 0.0
C58 C 0.03501 0.73 0.27274 0.0
C59 C 0.05155 0.74009 0.28487 0.0
C60 C 0.05749 0.75417 0.24353 0.0
C61 C 0.04681 0.75851 0.18984 0.0
C62 C 0.03071 0.74774 0.17647 0.0
C63 C 0.02481 0.73368 0.21777 0.0
P64 P 0.78943 0.02858 0.30976 0.0
H65 H 0.77579 0.02701 0.43931 0.0
H66 H 0.74586 0.01723 0.48241 0.0
H67 H 0.7321 0.99004 0.30629 0.0
H68 H 0.76176 1.0012 0.26207 0.0
H69 H 0.82768 0.04047 0.28776 0.0
H70 H 0.8528 0.02873 0.22176 0.0
H71 H 0.81934 0.97969 0.17732 0.0
H72 H 0.79386 0.99189 0.24351 0.0
H73 H 0.76025 0.05645 0.32426 0.0
H74 H 0.79042 0.03082 0.17068 0.0
O75 O 0.79839 0.04331 0.36309 0.0
H76 H 0.73876 0.07102 0.24979 0.0
H77 H 0.76947 0.04595 0.09575 0.0
C78 C 0.77129 0.01467 0.34749 0.0
C79 C 0.76665 0.01845 0.41033 0.0
C80 C 0.74933 0.01277 0.43517 0.0
C81 C 0.73617 0.00296 0.39793 0.0
C82 C 0.74154 0.99793 0.33628 0.0
C83 C 0.7588 0.0039 0.31118 0.0
C84 C 0.80897 0.01692 0.27187 0.0
C85 C 0.82587 0.02691 0.26541 0.0
C86 C 0.84033 0.02013 0.22742 0.0
C87 C 0.83826 0.00314 0.19426 0.0
C88 C 0.82142 0.99286 0.20188 0.0
C89 C 0.80687 0.99972 0.24027 0.0
C90 C 0.7769 0.04254 0.25321 0.0
C91 C 0.7626 0.05445 0.27436 0.0
C92 C 0.75037 0.06286 0.23157 0.0
C93 C 0.75229 0.05957 0.16664 0.0
C94 C 0.7674 0.04853 0.14547 0.0
C95 C 0.77951 0.03995 0.18842 0.0
P96 P 0.47669 0.79058 0.34048 0.0
H97 H 0.46863 0.773 0.4617 0.0
H98 H 0.47729 0.74273 0.5043 0.0
H99 H 0.51975 0.73696 0.36005 0.0
H100 H 0.51012 0.76705 0.3154 0.0
H101 H 0.46207 0.82766 0.31653 0.0
H102 H 0.47371 0.85401 0.25572 0.0
H103 H 0.52786 0.82711 0.24028 0.0
H104 H 0.51597 0.80048 0.30249 0.0
H105 H 0.44395 0.76714 0.31284 0.0
H106 H 0.494 0.78587 0.21649 0.0
O107 O 0.45747 0.7968 0.3804 0.0
H108 H 0.43767 0.74492 0.22759 0.0
H109 H 0.48823 0.76363 0.13319 0.0
C110 C 0.48881 0.77262 0.38547 0.0
C111 C 0.48024 0.7656 0.44017 0.0
C112 C 0.48526 0.74806 0.46475 0.0
C113 C 0.49913 0.73699 0.43554 0.0
C114 C 0.5087 0.74473 0.38334 0.0
C115 C 0.5035 0.76226 0.35837 0.0
C116 C 0.48815 0.81206 0.31493 0.0
C117 C 0.4767 0.82764 0.30242 0.0
C118 C 0.48339 0.8428 0.26717 0.0
C119 C 0.50173 0.84272 0.24257 0.0
C120 C 0.5136 0.82756 0.25801 0.0
C121 C 0.50689 0.8124 0.29425 0.0
C122 C 0.4693 0.77837 0.27082 0.0
C123 C 0.45325 0.76694 0.27251 0.0
C124 C 0.44976 0.75415 0.224 0.0
C125 C 0.4625 0.75242 0.1737 0.0
C126 C 0.47791 0.76478 0.17042 0.0
C127 C 0.48129 0.77757 0.21862 0.0
P128 P 0.27327 0.45685 0.04043 0.0
H129 H 0.25556 0.43938 0.93086 0.0
H130 H 0.22919 0.44933 0.8664 0.0
H131 H 0.23307 0.50509 0.94575 0.0
H132 H 0.25952 0.49489 0.01097 0.0
H133 H 0.31233 0.44431 0.02577 0.0
H134 H 0.34099 0.45426 0.07991 0.0
H135 H 0.31213 0.50315 0.15052 0.0
H136 H 0.28355 0.49333 0.09542 0.0
H137 H 0.23258 0.46154 0.0615 0.0
H138 H 0.28253 0.45591 0.17539 0.0
O139 O 0.27682 0.43396 0.02813 0.0
H140 H 0.21488 0.47117 0.15373 0.0
H141 H 0.26459 0.4655 0.26841 0.0
C142 C 0.25971 0.46639 0.9757 0.0
C143 C 0.25131 0.45397 0.93274 0.0
C144 C 0.23608 0.45969 0.8958 0.0
C145 C 0.22875 0.47797 0.90136 0.0
C146 C 0.23815 0.49083 0.94088 0.0
C147 C 0.25353 0.4851 0.97752 0.0
C148 C 0.29568 0.46797 0.05685 0.0
C149 C 0.31232 0.45757 0.0507 0.0
C150 C 0.32873 0.46324 0.0819 0.0
C151 C 0.32869 0.4793 0.1204 0.0
C152 C 0.3125 0.4906 0.12176 0.0
C153 C 0.2962 0.4851 0.08959 0.0
C154 C 0.2592 0.45909 0.11068 0.0
C155 C 0.23981 0.46232 0.10614 0.0
C156 C 0.22964 0.46776 0.15901 0.0
C157 C 0.23857 0.46963 0.21755 0.0
C158 C 0.25749 0.46441 0.2235 0.0
C159 C 0.26773 0.45906 0.1703 0.0
P160 P 0.03733 0.28036 0.02391 0.0
H161 H 0.05469 0.26437 0.91111 0.0
H162 H 0.04568 0.23768 0.84631 0.0
H163 H 0.99064 0.23753 0.93209 0.0
H164 H 0.99991 0.26429 0.99769 0.0
H165 H 0.05054 0.31934 0.01236 0.0
H166 H 0.04053 0.34783 0.0667 0.0
H167 H 0.99038 0.31927 0.13 0.0
H168 H 1.00032 0.2908 0.0746 0.0
H169 H 0.03549 0.23955 0.04523 0.0
H170 H 0.03562 0.28983 0.15905 0.0
O171 O 0.06025 0.28395 0.01196 0.0
H172 H 0.02618 0.22109 0.13641 0.0
H173 H 0.02608 0.27126 0.25063 0.0
C174 C 0.02798 0.26651 0.95935 0.0
C175 C 0.04042 0.25915 0.91445 0.0
C176 C 0.03523 0.24373 0.87728 0.0
C177 C 0.0175 0.23517 0.88447 0.0
C178 C 0.00452 0.24355 0.92594 0.0
C179 C 0.00969 0.2591 0.96281 0.0
C180 C 0.02627 0.3028 0.03967 0.0
C181 C 0.03701 0.31936 0.03566 0.0
C182 C 0.0313 0.33569 0.06703 0.0
C183 C 0.01484 0.33569 0.10363 0.0
C184 C 0.00325 0.31962 0.1028 0.0
C185 C 0.00881 0.30339 0.07039 0.0
C186 C 0.03503 0.26629 0.0942 0.0
C187 C 0.03348 0.2467 0.08962 0.0
C188 C 0.02819 0.23611 0.14186 0.0
C189 C 0.02474 0.24489 0.19986 0.0
C190 C 0.02832 0.26421 0.20611 0.0
C191 C 0.03361 0.27483 0.15359 0.0
P192 P 0.22902 0.0504 0.04474 0.0
H193 H 0.24337 0.06598 0.92661 0.0
H194 H 0.2711 0.0581 0.86458 0.0
H195 H 0.27713 0.0065 0.96976 0.0
H196 H 0.24905 0.01418 0.03012 0.0
H197 H 0.19691 0.07335 0.07686 0.0
H198 H 0.1657 0.06523 0.1133 0.0
H199 H 0.17477 0.0075 0.05876 0.0
H200 H 0.20633 0.01595 0.02051 0.0
H201 H 0.25576 0.06736 0.13269 0.0
H202 H 0.22336 0.0161 0.12004 0.0
O203 O 0.23134 0.07376 0.04159 0.0
H204 H 0.2711 0.0554 0.22743 0.0
H205 H 0.23845 0.00429 0.21444 0.0
C206 C 0.24422 0.04089 0.9841 0.0
C207 C 0.25026 0.05266 0.93507 0.0
C208 C 0.26635 0.04825 0.90009 0.0
C209 C 0.27678 0.03193 0.9133 0.0
C210 C 0.26959 0.01925 0.95827 0.0
C211 C 0.25343 0.02366 0.9931 0.0
C212 C 0.20408 0.04529 0.04576 0.0
C213 C 0.19201 0.05908 0.06987 0.0
C214 C 0.17404 0.05439 0.09108 0.0
C215 C 0.16773 0.03566 0.0897 0.0
C216 C 0.17928 0.02204 0.06107 0.0
C217 C 0.19726 0.02688 0.03863 0.0
C218 C 0.23818 0.04279 0.11948 0.0
C219 C 0.25156 0.05378 0.15102 0.0
C220 C 0.26025 0.04698 0.20534 0.0
C221 C 0.25586 0.02896 0.22831 0.0
C222 C 0.24204 0.01824 0.19775 0.0
C223 C 0.23331 0.02509 0.1438 0.0
P224 P 0.4684 0.22449 0.04422 0.0
H225 H 0.46149 0.23286 0.91129 0.0
H226 H 0.47022 0.25984 0.84627 0.0
H227 H 0.50858 0.27846 0.99111 0.0
H228 H 0.50025 0.25118 0.05459 0.0
H229 H 0.44773 0.19104 0.07795 0.0
H230 H 0.4572 0.16146 0.12366 0.0
H231 H 0.51539 0.17506 0.08627 0.0
H232 H 0.50556 0.20527 0.04064 0.0
H233 H 0.44416 0.25106 0.11099 0.0
H234 H 0.49636 0.22207 0.14538 0.0
O235 O 0.44573 0.22387 0.02388 0.0
H236 H 0.44749 0.26742 0.21167 0.0
H237 H 0.49947 0.2379 0.24596 0.0
C238 C 0.47999 0.24 0.98839 0.0
C239 C 0.47224 0.24241 0.92824 0.0
C240 C 0.47705 0.25807 0.89138 0.0
C241 C 0.48977 0.27174 0.91384 0.0
C242 C 0.49873 0.26835 0.97189 0.0
C243 C 0.49394 0.25264 0.00858 0.0
C244 C 0.47587 0.20036 0.05476 0.0
C245 C 0.4625 0.18745 0.07703 0.0
C246 C 0.468 0.17039 0.10361 0.0
C247 C 0.48712 0.16572 0.10923 0.0
C248 C 0.50054 0.17822 0.08345 0.0
C249 C 0.49494 0.19539 0.05635 0.0
C250 C 0.46983 0.2351 0.12093 0.0
C251 C 0.4561 0.24788 0.14068 0.0
C252 C 0.45795 0.25712 0.19839 0.0
C253 C 0.4737 0.25384 0.23677 0.0
C254 C 0.48721 0.24073 0.21732 0.0
C255 C 0.48534 0.23154 0.15981 0.0
Ho256 Ho 0.0136 1.00073 0.68608 0.0
Ho257 Ho 0.98741 0.00858 0.57999 0.0
C258 C 0.99834 0.96605 0.59794 0.0
C259 C 0.03061 0.98776 0.7842 0.0
C260 C 0.03421 0.96894 0.80942 0.0
C261 C 0.02161 0.95408 0.79831 0.0
C262 C 0.02512 0.93629 0.82325 0.0
C263 C 0.0413 0.93309 0.85964 0.0
C264 C 0.05403 0.94795 0.86962 0.0
C265 C 0.0505 0.96575 0.84468 0.0
C266 C 0.03061 0.01214 0.57883 0.0
C267 C 0.00268 0.043 0.6681 0.0
C268 C 0.97092 0.02394 0.48543 0.0
C269 C 0.97095 0.04398 0.46836 0.0
C270 C 0.98771 0.0544 0.47238 0.0
C271 C 0.98731 0.07393 0.47028 0.0
C272 C 0.97017 0.08347 0.46417 0.0
C273 C 0.95351 0.07309 0.4564 0.0
C274 C 0.95389 0.05343 0.45884 0.0
C275 C 0.97033 0.99722 0.68709 0.0
O276 O 0.00529 0.97147 0.65294 0.0
O277 O 0.99198 0.97836 0.55665 0.0
O278 O 0.03929 0.99192 0.73187 0.0
O279 O 0.01306 0.99315 0.7843 0.0
O280 O 0.03564 0.01758 0.63459 0.0
O281 O 0.01714 1.00064 0.58284 0.0
O282 O 0.99734 0.03768 0.61113 0.0
O283 O 0.00742 0.03052 0.71096 0.0
O284 O 0.96227 0.02015 0.53815 0.0
O285 O 0.98703 0.01519 0.48063 0.0
O286 O 0.96501 0.99219 0.63119 0.0
O287 O 0.9839 0.00861 0.68305 0.0
H288 H 0.00895 0.95627 0.77105 0.0
H289 H 0.01494 0.92519 0.81535 0.0
H290 H 0.06674 0.94584 0.89672 0.0
H291 H 0.06043 0.97704 0.85317 0.0
H292 H 1.00109 0.04755 0.48023 0.0
H293 H 1.00041 0.08161 0.47484 0.0
H294 H 0.94014 0.08017 0.45124 0.0
H295 H 0.94079 0.04566 0.45638 0.0
Ho296 Ho 0.51342 0.01485 0.71902 0.0
Ho297 Ho 0.50113 0.98861 0.61648 0.0
C298 C 0.54466 0.99713 0.62829 0.0
C299 C 0.52354 0.03167 0.82096 0.0
C300 C 0.54111 0.04107 0.83858 0.0
C301 C 0.55609 0.04169 0.79574 0.0
C302 C 0.57348 0.04892 0.81406 0.0
C303 C 0.57618 0.05567 0.87554 0.0
C304 C 0.56091 0.05566 0.91764 0.0
C305 C 0.54349 0.04833 0.89927 0.0
C306 C 0.51358 0.0306 0.60311 0.0
C307 C 0.46883 0.00804 0.70252 0.0
C308 C 0.48421 0.97201 0.52492 0.0
C309 C 0.46472 0.97411 0.50346 0.0
C310 C 0.45564 0.99148 0.51007 0.0
C311 C 0.43639 0.99294 0.49984 0.0
C312 C 0.42574 0.97699 0.4836 0.0
C313 C 0.43494 0.95971 0.4749 0.0
C314 C 0.45432 0.95829 0.48495 0.0
C315 C 0.51348 0.97157 0.72293 0.0
O316 O 0.54092 1.0021 0.68705 0.0
O317 O 0.53099 0.99373 0.58779 0.0
O318 O 0.51375 0.03988 0.7767 0.0
O319 O 0.52505 0.0135 0.81251 0.0
O320 O 0.52592 0.03409 0.64635 0.0
O321 O 0.50117 0.01951 0.62432 0.0
O322 O 0.47282 0.9971 0.65421 0.0
O323 O 0.48216 0.01647 0.73555 0.0
O324 O 0.48579 0.96463 0.58092 0.0
O325 O 0.49524 0.98661 0.51687 0.0
O326 O 0.51729 0.96574 0.66658 0.0
O327 O 0.50311 0.98585 0.71958 0.0
H328 H 0.55446 0.03611 0.74863 0.0
H329 H 0.58493 0.04893 0.78044 0.0
H330 H 0.56264 0.0606 0.96549 0.0
H331 H 0.53205 0.04786 0.93291 0.0
H332 H 0.46329 0.00383 0.52537 0.0
H333 H 0.42979 0.00653 0.50567 0.0
H334 H 0.42708 0.94718 0.46267 0.0
H335 H 0.46105 0.94471 0.48069 0.0
Ho336 Ho 0.4895 0.50587 0.70583 0.0
Ho337 Ho 0.51352 0.49698 0.59348 0.0
C338 C 0.50456 0.53984 0.61348 0.0
C339 C 0.47706 0.52025 0.80875 0.0
C340 C 0.48009 0.53877 0.83686 0.0
C341 C 0.49615 0.54935 0.82141 0.0
C342 C 0.49841 0.5675 0.8449 0.0
C343 C 0.48471 0.57528 0.88461 0.0
C344 C 0.46873 0.56453 0.9003 0.0
C345 C 0.46644 0.54641 0.8765 0.0
C346 C 0.46975 0.49483 0.60381 0.0
C347 C 0.4981 0.46292 0.68479 0.0
C348 C 0.5265 0.48017 0.49612 0.0
C349 C 0.52339 0.46016 0.4806 0.0
C350 C 0.505 0.45326 0.47203 0.0
C351 C 0.50144 0.434 0.47345 0.0
C352 C 0.51611 0.4212 0.48326 0.0
C353 C 0.53464 0.42798 0.48766 0.0
C354 C 0.53824 0.44731 0.48632 0.0
C355 C 0.53266 0.50808 0.69666 0.0
O356 O 0.49892 0.53462 0.6704 0.0
O357 O 0.50945 0.52733 0.57063 0.0
O358 O 0.46743 0.52024 0.75639 0.0
O359 O 0.49191 0.50949 0.80617 0.0
O360 O 0.46508 0.49081 0.66133 0.0
O361 O 0.48403 0.50542 0.6037 0.0
O362 O 0.50416 0.46816 0.62849 0.0
O363 O 0.49294 0.47539 0.72718 0.0
O364 O 0.53665 0.48314 0.54647 0.0
O365 O 0.51169 0.49102 0.49393 0.0
O366 O 0.53748 0.51268 0.63973 0.0
O367 O 0.51871 0.49715 0.69514 0.0
H368 H 0.50687 0.54365 0.7907 0.0
H369 H 0.51088 0.57541 0.83216 0.0
H370 H 0.45776 0.57029 0.92982 0.0
H371 H 0.45389 0.53848 0.88823 0.0
H372 H 0.49315 0.4627 0.46757 0.0
H373 H 0.48708 0.42915 0.46844 0.0
H374 H 0.54625 0.41843 0.49518 0.0
H375 H 0.5525 0.45225 0.49347 0.0
Ho376 Ho 0.99412 0.49301 0.7029 0.0
Ho377 Ho 0.005 0.51752 0.59547 0.0
C378 C 0.96154 0.5092 0.60796 0.0
C379 C 0.97994 0.47842 0.80376 0.0
C380 C 0.96198 0.47048 0.82528 0.0
C381 C 0.94475 0.47826 0.80668 0.0
C382 C 0.92793 0.47136 0.83171 0.0
C383 C 0.92807 0.45653 0.87555 0.0
C384 C 0.94535 0.44832 0.892 0.0
C385 C 0.96215 0.45529 0.86717 0.0
C386 C 0.00364 0.47381 0.59752 0.0
C387 C 0.03729 0.50046 0.68632 0.0
C388 C 0.02246 0.53298 0.5027 0.0
C389 C 0.04277 0.53277 0.48974 0.0
C390 C 0.05297 0.51604 0.4973 0.0
C391 C 0.07251 0.51635 0.49737 0.0
C392 C 0.08229 0.53336 0.48982 0.0
C393 C 0.07218 0.54998 0.47909 0.0
C394 C 0.0525 0.5497 0.47948 0.0
C395 C 0.99516 0.5361 0.70146 0.0
O396 O 0.96571 0.50215 0.66409 0.0
O397 O 0.97482 0.51457 0.5683 0.0
O398 O 0.98911 0.46867 0.76186 0.0
O399 O 0.98025 0.49649 0.79231 0.0
O400 O 0.00756 0.46839 0.6542 0.0
O401 O 0.99403 0.48868 0.59961 0.0
O402 O 0.03269 0.50489 0.62797 0.0
O403 O 0.02415 0.49815 0.72938 0.0
O404 O 0.01777 0.54215 0.55348 0.0
O405 O 0.01365 0.51687 0.49791 0.0
O406 O 0.99033 0.54129 0.64529 0.0
O407 O 0.0053 0.52163 0.6984 0.0
H408 H 0.9443 0.48996 0.77413 0.0
H409 H 0.9149 0.47814 0.81853 0.0
H410 H 0.94592 0.43669 0.92482 0.0
H411 H 0.97533 0.44903 0.88166 0.0
H412 H 0.04589 0.50276 0.50558 0.0
H413 H 0.08001 0.50326 0.504 0.0
H414 H 0.07947 0.56323 0.47259 0.0
H415 H 0.04489 0.56277 0.47425 0.0
H416 H 0.1337 0.05384 0.09294 0.0
H417 H 0.1081 0.04885 0.16823 0.0
H418 H 0.13711 1.00076 0.24381 0.0
H419 H 0.1629 0.00587 0.16963 0.0
H420 H 0.0832 0.02112 0.20204 0.0
H421 H 0.13493 0.00345 0.40393 0.0
H422 H 0.16799 0.00958 0.43282 0.0
H423 H 0.1677 0.06019 0.32266 0.0
H424 H 0.13459 0.05453 0.294 0.0
H425 H 0.03097 0.9911 0.47122 0.0
H426 H 0.05224 0.99435 0.38131 0.0
H427 H 0.07714 0.0435 0.46684 0.0
H428 H 0.05655 0.03962 0.55819 0.0
H429 H 0.10359 0.02381 0.42503 0.0
H430 H 0.04565 0.04427 0.33383 0.0
H431 H 0.01212 0.04186 0.30545 0.0
H432 H 0.02359 0.99284 0.19426 0.0
H433 H 0.05715 0.99477 0.22284 0.0
C434 C 0.13448 0.04201 0.12491 0.0
C435 C 0.15045 0.03035 0.12552 0.0
C436 C 0.11977 0.03912 0.16774 0.0
C437 C 0.12079 0.02461 0.21241 0.0
C438 C 0.1361 0.01218 0.21027 0.0
C439 C 0.15077 0.01502 0.16734 0.0
C440 C 0.10684 0.02355 0.2647 0.0
C441 C 0.08763 0.02162 0.25084 0.0
C442 C 0.11252 0.02476 0.32841 0.0
C443 C 0.13236 0.02843 0.34624 0.0
C444 C 0.14191 0.01592 0.38608 0.0
C445 C 0.16066 0.01931 0.40241 0.0
C446 C 0.16996 0.03522 0.3794 0.0
C447 C 0.16051 0.04783 0.34025 0.0
C448 C 0.14176 0.04453 0.32392 0.0
C449 C 0.04089 0.00268 0.47048 0.0
C450 C 0.04216 0.01509 0.52172 0.0
C451 C 0.05301 0.0046 0.41885 0.0
C452 C 0.06628 0.01931 0.41653 0.0
C453 C 0.06716 0.03197 0.46728 0.0
C454 C 0.05532 0.02982 0.51942 0.0
C455 C 0.07979 0.0211 0.36284 0.0
C456 C 0.09903 0.0232 0.37639 0.0
C457 C 0.07402 0.02059 0.29894 0.0
C458 C 0.05389 0.01958 0.28091 0.0
C459 C 0.04101 0.03291 0.30361 0.0
C460 C 0.02199 0.03164 0.28747 0.0
C461 C 0.01573 0.01719 0.24816 0.0
C462 C 0.02847 0.00402 0.22475 0.0
C463 C 0.04749 0.0052 0.24087 0.0
H464 H 1.001 0.01622 0.23574 0.0
H465 H 0.18448 0.03781 0.39202 0.0
H466 H 0.51693 0.16206 0.19101 0.0
H467 H 0.52315 0.13623 0.26403 0.0
H468 H 0.47572 0.10568 0.18966 0.0
H469 H 0.46976 0.1311 0.11505 0.0
H470 H 0.47455 0.10919 0.31959 0.0
H471 H 0.51902 0.08992 0.16215 0.0
H472 H 0.54577 0.09387 0.08947 0.0
H473 H 0.58204 0.10682 0.245 0.0
H474 H 0.55548 0.10311 0.31856 0.0
H475 H 0.48631 0.02882 0.51182 0.0
H476 H 0.48345 0.04871 0.41801 0.0
H477 H 0.53486 0.07736 0.46805 0.0
H478 H 0.538 0.05718 0.56043 0.0
H479 H 0.53384 0.07353 0.34576 0.0
H480 H 0.49096 0.09656 0.50095 0.0
H481 H 0.46534 0.09394 0.57867 0.0
H482 H 0.42734 0.07625 0.4334 0.0
H483 H 0.45279 0.07858 0.35481 0.0
C484 C 0.50813 0.14964 0.18873 0.0
C485 C 0.49272 0.14885 0.14711 0.0
C486 C 0.51165 0.13489 0.23094 0.0
C487 C 0.49985 0.11901 0.23266 0.0
C488 C 0.48494 0.11783 0.18962 0.0
C489 C 0.48152 0.13246 0.14705 0.0
C490 C 0.50222 0.10428 0.28206 0.0
C491 C 0.4874 0.10115 0.32453 0.0
C492 C 0.5192 0.09419 0.29 0.0
C493 C 0.5352 0.09643 0.24581 0.0
C494 C 0.53266 0.09377 0.18081 0.0
C495 C 0.54781 0.09592 0.13945 0.0
C496 C 0.56558 0.10066 0.16256 0.0
C497 C 0.56826 0.10318 0.22712 0.0
C498 C 0.55318 0.10102 0.26868 0.0
C499 C 0.49706 0.03924 0.50238 0.0
C500 C 0.51224 0.04157 0.54389 0.0
C501 C 0.4954 0.05068 0.4489 0.0
C502 C 0.50876 0.06486 0.4363 0.0
C503 C 0.52432 0.06663 0.47654 0.0
C504 C 0.52604 0.05513 0.52965 0.0
C505 C 0.50614 0.07842 0.38322 0.0
C506 C 0.52092 0.08142 0.34037 0.0
C507 C 0.48926 0.08868 0.37547 0.0
C508 C 0.4738 0.08759 0.42216 0.0
C509 C 0.47715 0.09203 0.48564 0.0
C510 C 0.46267 0.0906 0.52982 0.0
C511 C 0.44473 0.08489 0.51099 0.0
C512 C 0.44123 0.08065 0.44789 0.0
C513 C 0.45567 0.08205 0.40347 0.0
H514 H 0.43356 0.08379 0.54532 0.0
H515 H 0.57728 0.10233 0.13046 0.0
H516 H 0.32623 0.48503 0.24631 0.0
H517 H 0.35167 0.48832 0.32224 0.0
H518 H 0.39234 0.48483 0.172 0.0
H519 H 0.36668 0.48054 0.09591 0.0
H520 H 0.40525 0.46593 0.26358 0.0
H521 H 0.3809 0.5278 0.25259 0.0
H522 H 0.35709 0.55291 0.25248 0.0
H523 H 0.34184 0.53895 0.44231 0.0
H524 H 0.36538 0.51357 0.4433 0.0
H525 H 0.47635 0.50306 0.47975 0.0
H526 H 0.45405 0.50087 0.39179 0.0
H527 H 0.41126 0.48062 0.51861 0.0
H528 H 0.4336 0.48211 0.60609 0.0
H529 H 0.40201 0.51379 0.43292 0.0
H530 H 0.4266 0.44968 0.43406 0.0
H531 H 0.45324 0.42761 0.43218 0.0
H532 H 0.47117 0.45011 0.25449 0.0
H533 H 0.44469 0.47247 0.25568 0.0
C534 C 0.34059 0.48524 0.22931 0.0
C535 C 0.34444 0.48283 0.165 0.0
C536 C 0.35518 0.48717 0.27283 0.0
C537 C 0.37406 0.4873 0.25312 0.0
C538 C 0.37795 0.48488 0.18869 0.0
C539 C 0.3633 0.48253 0.14513 0.0
C540 C 0.38957 0.48946 0.30023 0.0
C541 C 0.4046 0.47663 0.29983 0.0
C542 C 0.38898 0.50338 0.34805 0.0
C543 C 0.37482 0.51868 0.34782 0.0
C544 C 0.37238 0.53 0.29418 0.0
C545 C 0.35894 0.54429 0.29398 0.0
C546 C 0.34793 0.5475 0.34731 0.0
C547 C 0.35037 0.53644 0.40101 0.0
C548 C 0.36378 0.52212 0.40145 0.0
C549 C 0.46228 0.49788 0.48866 0.0
C550 C 0.45676 0.49268 0.54978 0.0
C551 C 0.44955 0.49672 0.43846 0.0
C552 C 0.431 0.49066 0.44883 0.0
C553 C 0.4255 0.48539 0.50971 0.0
C554 C 0.4383 0.48619 0.55957 0.0
C555 C 0.41715 0.49007 0.39658 0.0
C556 C 0.40255 0.50324 0.39612 0.0
C557 C 0.41839 0.47682 0.34731 0.0
C558 C 0.43379 0.46285 0.34525 0.0
C559 C 0.43627 0.44997 0.39472 0.0
C560 C 0.45134 0.43741 0.39378 0.0
C561 C 0.46396 0.43753 0.34342 0.0
C562 C 0.46141 0.45007 0.29355 0.0
C563 C 0.44635 0.46266 0.29427 0.0
H564 H 0.47571 0.4279 0.343 0.0
H565 H 0.33753 0.55857 0.34706 0.0
H566 H 0.0154 0.37377 0.08078 0.0
H567 H 0.01195 0.39927 0.15751 0.0
H568 H 0.00393 0.35834 0.30518 0.0
H569 H 0.0065 0.33302 0.22829 0.0
H570 H 0.98209 0.38517 0.32844 0.0
H571 H 0.04763 0.38309 0.27318 0.0
H572 H 0.07499 0.3839 0.20194 0.0
H573 H 0.0601 0.4396 0.1425 0.0
H574 H 0.03251 0.43902 0.2129 0.0
H575 H 0.0139 0.43697 0.59483 0.0
H576 H 0.01459 0.41581 0.50408 0.0
H577 H 0.99826 0.46144 0.38261 0.0
H578 H 0.99688 0.48264 0.47392 0.0
H579 H 0.03091 0.435 0.34097 0.0
H580 H 0.96635 0.4366 0.40989 0.0
H581 H 0.94171 0.43485 0.49091 0.0
H582 H 0.95711 0.37785 0.53204 0.0
H583 H 0.98242 0.37951 0.45286 0.0
C584 C 0.01269 0.37028 0.12955 0.0
C585 C 0.01114 0.35139 0.1484 0.0
C586 C 0.01088 0.38486 0.17359 0.0
C587 C 0.00805 0.38085 0.23781 0.0
C588 C 0.00607 0.36195 0.25618 0.0
C589 C 0.0075 0.34743 0.21206 0.0
C590 C 0.00745 0.39613 0.28632 0.0
C591 C 0.99289 0.39594 0.33111 0.0
C592 C 0.0213 0.41052 0.28994 0.0
C593 C 0.03789 0.41092 0.24773 0.0
C594 C 0.05012 0.39545 0.24458 0.0
C595 C 0.06568 0.39588 0.20442 0.0
C596 C 0.06925 0.41177 0.16757 0.0
C597 C 0.0573 0.42729 0.17098 0.0
C598 C 0.0417 0.42693 0.21102 0.0
C599 C 0.01055 0.44256 0.54879 0.0
C600 C 0.00529 0.46148 0.54154 0.0
C601 C 0.01097 0.43044 0.49698 0.0
C602 C 0.00647 0.43705 0.43665 0.0
C603 C 1.00184 0.45609 0.42876 0.0
C604 C 1.00103 0.46816 0.48092 0.0
C605 C 0.00577 0.42372 0.38276 0.0
C606 C 0.02007 0.42429 0.33738 0.0
C607 C 0.99193 0.40945 0.37926 0.0
C608 C 0.97643 0.40826 0.42587 0.0
C609 C 0.96464 0.42376 0.43664 0.0
C610 C 0.95051 0.42277 0.48219 0.0
C611 C 0.94778 0.40623 0.51652 0.0
C612 C 0.95923 0.39065 0.50542 0.0
C613 C 0.97351 0.39163 0.4603 0.0
H614 H 0.93681 0.4055 0.5517 0.0
H615 H 0.0813 0.41208 0.1365 0.0
H616 H 0.87658 0.00582 0.20781 0.0
H617 H 0.90059 1.0011 0.12722 0.0
H618 H 0.85815 0.98195 0.99745 0.0
H619 H 0.83387 0.98717 0.07721 0.0
H620 H 0.89348 0.96126 0.99195 0.0
H621 H 0.87009 0.0252 0.98777 0.0
H622 H 0.8624 0.05573 0.03605 0.0
H623 H 0.92011 0.06316 0.09 0.0
H624 H 0.92808 0.0325 0.04288 0.0
H625 H 0.93717 0.97818 0.69712 0.0
H626 H 0.91677 0.97561 0.78916 0.0
H627 H 0.95718 0.00682 0.89911 0.0
H628 H 0.97734 0.00999 0.80621 0.0
H629 H 0.92421 0.02022 0.92028 0.0
H630 H 0.94899 0.95826 0.91909 0.0
H631 H 0.9577 0.9275 0.8745 0.0
H632 H 0.89965 0.91556 0.83585 0.0
H633 H 0.89061 0.94639 0.87925 0.0
C634 C 0.8723 1.00052 0.16227 0.0
C635 C 0.85317 0.99718 0.14889 0.0
C636 C 0.88609 0.99771 0.11636 0.0
C637 C 0.88114 0.99137 0.05609 0.0
C638 C 0.86228 0.98682 0.0437 0.0
C639 C 0.84842 0.98977 0.08953 0.0
C640 C 0.89533 0.9912 0.00463 0.0
C641 C 0.90011 0.97413 0.97574 0.0
C642 C 0.90438 0.00794 0.98481 0.0
C643 C 0.89964 0.02648 0.0124 0.0
C644 C 0.88111 0.03328 0.01036 0.0
C645 C 0.8767 0.05061 0.03746 0.0
C646 C 0.89075 0.06136 0.06623 0.0
C647 C 0.90924 0.05481 0.06779 0.0
C648 C 0.91371 0.03746 0.04088 0.0
C649 C 0.94179 0.98435 0.74108 0.0
C650 C 0.95885 0.9943 0.74444 0.0
C651 C 0.93015 0.98276 0.79391 0.0
C652 C 0.93546 0.99082 0.85163 0.0
C653 C 0.95273 1.00045 0.85529 0.0
C654 C 0.9643 1.00219 0.80223 0.0
C655 C 0.92247 0.99023 0.90683 0.0
C656 C 0.91781 0.00723 0.93651 0.0
C657 C 0.91377 0.97336 0.92777 0.0
C658 C 0.91913 0.95473 0.90198 0.0
C659 C 0.93809 0.94914 0.90066 0.0
C660 C 0.94309 0.93168 0.87564 0.0
C661 C 0.92924 0.9196 0.85225 0.0
C662 C 0.91036 0.92494 0.85394 0.0
C663 C 0.90529 0.9424 0.8788 0.0
H664 H 0.93312 0.90609 0.83296 0.0
H665 H 0.88731 0.07478 0.08718 0.0
H666 H 0.52127 0.83835 0.1322 0.0
H667 H 0.52641 0.86172 0.04952 0.0
H668 H 0.49968 0.90391 0.1641 0.0
H669 H 0.49461 0.88064 0.24711 0.0
H670 H 0.4851 0.90393 0.04911 0.0
H671 H 0.54731 0.90497 0.1341 0.0
H672 H 0.57734 0.89161 0.17047 0.0
H673 H 0.58779 0.86954 0.98583 0.0
H674 H 0.55768 0.88256 0.94853 0.0
H675 H 0.50232 0.98003 0.84255 0.0
H676 H 0.50344 0.95974 0.93553 0.0
H677 H 0.53015 0.91634 0.82595 0.0
H678 H 0.52945 0.93679 0.73317 0.0
H679 H 0.54534 0.9178 0.94089 0.0
H680 H 0.48249 0.91547 0.85762 0.0
H681 H 0.4525 0.92887 0.82098 0.0
H682 H 0.44323 0.95321 0.0031 0.0
H683 H 0.47331 0.94016 0.04059 0.0
C684 C 0.51693 0.85271 0.14059 0.0
C685 C 0.50747 0.85755 0.19643 0.0
C686 C 0.51982 0.86608 0.09303 0.0
C687 C 0.51344 0.88465 0.10035 0.0
C688 C 0.50463 0.88968 0.157 0.0
C689 C 0.50174 0.87633 0.2045 0.0
C690 C 0.51487 0.89849 0.04764 0.0
C691 C 0.49835 0.90718 0.02623 0.0
C692 C 0.53204 0.90245 0.01644 0.0
C693 C 0.55015 0.8946 0.03868 0.0
C694 C 0.55594 0.89714 0.10137 0.0
C695 C 0.57299 0.88965 0.12213 0.0
C696 C 0.58444 0.87969 0.08053 0.0
C697 C 0.57889 0.87724 0.01803 0.0
C698 C 0.56184 0.88469 0.99703 0.0
C699 C 0.50862 0.96624 0.83847 0.0
C700 C 0.51568 0.95995 0.78043 0.0
C701 C 0.50916 0.9546 0.89159 0.0
C702 C 0.51656 0.93632 0.88768 0.0
C703 C 0.5243 0.93032 0.83027 0.0
C704 C 0.52385 0.94201 0.77718 0.0
C705 C 0.51559 0.92322 0.94256 0.0
C706 C 0.53214 0.91462 0.96413 0.0
C707 C 0.49844 0.9193 0.97396 0.0
C708 C 0.48025 0.92699 0.9517 0.0
C709 C 0.47412 0.92378 0.88973 0.0
C710 C 0.45709 0.9313 0.86882 0.0
C711 C 0.44599 0.94193 0.90963 0.0
C712 C 0.45186 0.945 0.97151 0.0
C713 C 0.46889 0.93753 0.99263 0.0
H714 H 0.43282 0.94775 0.89335 0.0
H715 H 0.59764 0.87391 0.09669 0.0
H716 H 0.62778 0.49967 0.20827 0.0
H717 H 0.60416 0.50353 0.12609 0.0
H718 H 0.64479 0.53196 0.00931 0.0
H719 H 0.66886 0.52753 0.09056 0.0
H720 H 0.60445 0.54735 0.01092 0.0
H721 H 0.6408 0.49033 0.97781 0.0
H722 H 0.65466 0.46035 0.01275 0.0
H723 H 0.59975 0.4393 0.05919 0.0
H724 H 0.5856 0.4693 0.02554 0.0
H725 H 0.56275 0.53175 0.70837 0.0
H726 H 0.58346 0.53549 0.79978 0.0
H727 H 0.54964 0.49574 0.90363 0.0
H728 H 0.52892 0.492 0.81252 0.0
H729 H 0.58629 0.48698 0.91047 0.0
H730 H 0.54905 0.54071 0.94908 0.0
H731 H 0.53251 0.57036 0.9269 0.0
H732 H 0.58488 0.59695 0.8795 0.0
H733 H 0.60181 0.56743 0.90192 0.0
C734 C 0.63176 0.50683 0.16529 0.0
C735 C 0.6504 0.51295 0.15574 0.0
C736 C 0.61816 0.50916 0.11856 0.0
C737 C 0.62276 0.51789 0.06143 0.0
C738 C 0.64094 0.52523 0.0532 0.0
C739 C 0.65468 0.52271 0.09983 0.0
C740 C 0.60914 0.51748 0.00842 0.0
C741 C 0.60068 0.53423 0.98814 0.0
C742 C 0.6037 0.50025 0.98043 0.0
C743 C 0.61217 0.48212 0.99978 0.0
C744 C 0.6317 0.47937 0.99599 0.0
C745 C 0.63961 0.46237 0.01548 0.0
C746 C 0.62809 0.44795 0.03834 0.0
C747 C 0.60865 0.45049 0.04157 0.0
C748 C 0.60068 0.46748 0.02227 0.0
C749 C 0.55965 0.52397 0.75096 0.0
C750 C 0.5443 0.51151 0.75324 0.0
C751 C 0.57143 0.52618 0.80326 0.0
C752 C 0.56811 0.51592 0.85871 0.0
C753 C 0.55251 0.50379 0.86141 0.0
C754 C 0.54065 0.5017 0.80936 0.0
C755 C 0.58159 0.51689 0.91224 0.0
C756 C 0.59006 0.50018 0.93277 0.0
C757 C 0.5867 0.53409 0.94118 0.0
C758 C 0.57667 0.55181 0.92654 0.0
C759 C 0.55703 0.55283 0.93336 0.0
C760 C 0.54759 0.56962 0.92091 0.0
C761 C 0.55761 0.58549 0.90142 0.0
C762 C 0.57714 0.58462 0.89453 0.0
C763 C 0.58668 0.56788 0.90734 0.0
H764 H 0.55026 0.59849 0.89208 0.0
H765 H 0.63424 0.4348 0.05341 0.0
H766 H 0.00701 0.628 0.22477 0.0
H767 H 0.00297 0.60478 0.14119 0.0
H768 H 0.97914 0.64729 0.02094 0.0
H769 H 0.98337 0.67074 0.1042 0.0
H770 H 0.96099 0.61245 0.0087 0.0
H771 H 0.02421 0.63688 0.00597 0.0
H772 H 0.05495 0.64487 0.0525 0.0
H773 H 0.06412 0.58678 0.09775 0.0
H774 H 0.03327 0.57848 0.05234 0.0
H775 H 0.9777 0.57006 0.71064 0.0
H776 H 0.97579 0.59061 0.8026 0.0
H777 H 0.00549 0.54938 0.91311 0.0
H778 H 0.00777 0.52894 0.82061 0.0
H779 H 0.0199 0.58286 0.93316 0.0
H780 H 0.9576 0.55781 0.9322 0.0
H781 H 0.92678 0.54945 0.88706 0.0
H782 H 0.91559 0.60771 0.85031 0.0
H783 H 0.94649 0.61641 0.89441 0.0
C784 C 1.00078 0.63243 0.18073 0.0
C785 C 0.99575 0.65134 0.17105 0.0
C786 C 0.99844 0.6191 0.13299 0.0
C787 C 0.99105 0.62434 0.07434 0.0
C788 C 0.98491 0.64292 0.06575 0.0
C789 C 0.98728 0.65631 0.11355 0.0
C790 C 0.99096 0.61077 0.0209 0.0
C791 C 0.97388 0.60611 0.99169 0.0
C792 C 0.00772 0.60216 0.99957 0.0
C793 C 0.02635 0.60709 0.02634 0.0
C794 C 0.03271 0.62583 0.02627 0.0
C795 C 0.05017 0.63042 0.05239 0.0
C796 C 0.06146 0.61635 0.07822 0.0
C797 C 0.05534 0.59767 0.07782 0.0
C798 C 0.03788 0.59301 0.05187 0.0
C799 C 0.98369 0.56531 0.75468 0.0
C800 C 0.9929 0.5479 0.7584 0.0
C801 C 0.98251 0.57704 0.80741 0.0
C802 C 0.99033 0.57153 0.86525 0.0
C803 C 0.99933 0.55399 0.86915 0.0
C804 C 1.00058 0.54228 0.81632 0.0
C805 C 0.98989 0.58441 0.92069 0.0
C806 C 0.00694 0.58904 0.95024 0.0
C807 C 0.97308 0.5929 0.9424 0.0
C808 C 0.95445 0.58774 0.91611 0.0
C809 C 0.94864 0.56883 0.91406 0.0
C810 C 0.93114 0.56403 0.88873 0.0
C811 C 0.91925 0.57803 0.86569 0.0
C812 C 0.92482 0.59687 0.86811 0.0
C813 C 0.94232 0.60175 0.89333 0.0
H814 H 0.90571 0.57429 0.84609 0.0
H815 H 0.07497 0.61993 0.09841 0.0
H816 H 0.035 0.24396 0.32448 0.0
H817 H 0.02185 0.22348 0.40686 0.0
H818 H 0.98195 0.20115 0.27329 0.0
H819 H 0.99472 0.22162 0.19194 0.0
H820 H 0.96638 0.20485 0.39151 0.0
H821 H 0.02505 0.1807 0.29443 0.0
H822 H 0.05905 0.18281 0.27232 0.0
H823 H 0.07058 0.18664 0.47021 0.0
H824 H 0.03659 0.18476 0.49333 0.0
H825 H 0.9527 0.10781 0.38398 0.0
H826 H 0.95754 0.14181 0.3778 0.0
H827 H 0.99236 0.13976 0.5438 0.0
H828 H 0.98737 0.10579 0.55028 0.0
H829 H 0.01091 0.1542 0.44926 0.0
H830 H 0.95306 0.16623 0.54454 0.0
H831 H 0.9193 0.16357 0.5686 0.0
H832 H 0.90566 0.1824 0.38227 0.0
H833 H 0.93935 0.185 0.35669 0.0
C834 C 0.02321 0.2349 0.31331 0.0
C835 C 0.01612 0.23401 0.25168 0.0
C836 C 0.0157 0.22327 0.36025 0.0
C837 C 1.00102 0.21073 0.34594 0.0
C838 C 0.99323 0.21075 0.2854 0.0
C839 C 1.00073 0.22224 0.23872 0.0
C840 C 0.9952 0.19574 0.39005 0.0
C841 C 0.97605 0.19378 0.4048 0.0
C842 C 0.008 0.18174 0.40955 0.0
C843 C 0.02834 0.18286 0.39551 0.0
C844 C 0.03485 0.18213 0.33313 0.0
C845 C 0.0541 0.18326 0.32044 0.0
C846 C 0.06696 0.18493 0.36982 0.0
C847 C 0.0606 0.18541 0.43201 0.0
C848 C 0.04135 0.18432 0.44493 0.0
C849 C 0.96088 0.11473 0.42021 0.0
C850 C 0.97002 0.10422 0.46683 0.0
C851 C 0.96357 0.13416 0.41693 0.0
C852 C 0.97531 0.14331 0.4605 0.0
C853 C 0.98326 0.13298 0.50985 0.0
C854 C 0.98056 0.1136 0.51312 0.0
C855 C 0.98183 0.16269 0.4476 0.0
C856 C 1.00117 0.16546 0.43854 0.0
C857 C 0.96918 0.17742 0.43389 0.0
C858 C 0.94882 0.17582 0.44868 0.0
C859 C 0.94289 0.16974 0.50852 0.0
C860 C 0.92375 0.16825 0.52247 0.0
C861 C 0.91034 0.17282 0.477 0.0
C862 C 0.91607 0.1789 0.41749 0.0
C863 C 0.9352 0.18043 0.40329 0.0
H864 H 0.89552 0.17164 0.48788 0.0
H865 H 0.08186 0.18579 0.35991 0.0
H866 H 0.27226 0.99461 0.22802 0.0
H867 H 0.29584 0.98292 0.30078 0.0
H868 H 0.28907 0.03249 0.41568 0.0
H869 H 0.26572 0.04454 0.34127 0.0
H870 H 0.32336 0.02908 0.386 0.0
H871 H 0.27968 0.98659 0.47303 0.0
H872 H 0.25441 0.96284 0.4762 0.0
H873 H 0.28985 0.92346 0.38006 0.0
H874 H 0.31527 0.94705 0.37539 0.0
H875 H 0.40176 0.99635 0.55897 0.0
H876 H 0.36834 0.00256 0.54092 0.0
H877 H 0.36945 0.96664 0.37773 0.0
H878 H 0.40303 0.96093 0.39414 0.0
H879 H 0.3356 0.96376 0.45631 0.0
H880 H 0.3766 0.0097 0.35571 0.0
H881 H 0.40068 0.03464 0.35092 0.0
H882 H 0.36806 0.06871 0.47656 0.0
H883 H 0.34409 0.04368 0.4839 0.0
C884 C 0.27536 0.00275 0.26985 0.0
C885 C 0.26729 0.02053 0.27893 0.0
C886 C 0.28878 0.99598 0.31176 0.0
C887 C 0.29416 0.00673 0.36413 0.0
C888 C 0.28514 0.02395 0.37558 0.0
C889 C 0.27187 0.03085 0.33308 0.0
C890 C 0.31129 1.00154 0.39973 0.0
C891 C 0.32576 0.01493 0.40325 0.0
C892 C 0.31463 0.98298 0.42108 0.0
C893 C 0.29938 0.96867 0.42362 0.0
C894 C 0.28206 0.97292 0.45213 0.0
C895 C 0.2677 0.95947 0.45427 0.0
C896 C 0.27051 0.94167 0.42829 0.0
C897 C 0.2877 0.93726 0.40019 0.0
C898 C 0.3021 0.95066 0.3979 0.0
C899 C 0.39485 0.98981 0.51927 0.0
C900 C 0.40507 0.97856 0.4771 0.0
C901 C 0.37578 0.99317 0.50954 0.0
C902 C 0.36658 0.98516 0.45785 0.0
C903 C 0.37638 0.97288 0.41806 0.0
C904 C 0.39554 0.96966 0.42742 0.0
C905 C 0.34744 0.99125 0.44099 0.0
C906 C 0.3328 0.97801 0.44082 0.0
C907 C 0.3438 0.01004 0.42332 0.0
C908 C 0.35869 0.02467 0.42119 0.0
C909 C 0.37473 0.02234 0.38334 0.0
C910 C 0.38835 0.03652 0.38001 0.0
C911 C 0.38591 0.05322 0.4135 0.0
C912 C 0.36994 0.05574 0.45072 0.0
C913 C 0.35639 0.04153 0.45476 0.0
H914 H 0.39635 0.06426 0.4104 0.0
H915 H 0.25938 0.93127 0.43 0.0
H916 H 0.50628 0.27095 0.27052 0.0
H917 H 0.51116 0.29352 0.35438 0.0
H918 H 0.45371 0.28598 0.41516 0.0
H919 H 0.44864 0.26341 0.32952 0.0
H920 H 0.4601 0.32085 0.39894 0.0
H921 H 0.49193 0.27482 0.51235 0.0
H922 H 0.51313 0.24844 0.53576 0.0
H923 H 0.56089 0.28268 0.4886 0.0
H924 H 0.54001 0.30921 0.46385 0.0
H925 H 0.48747 0.40484 0.5497 0.0
H926 H 0.47857 0.37159 0.55116 0.0
H927 H 0.52628 0.35856 0.43388 0.0
H928 H 0.53529 0.39169 0.4324 0.0
H929 H 0.51883 0.33033 0.52073 0.0
H930 H 0.48382 0.36862 0.36495 0.0
H931 H 0.46265 0.39472 0.33684 0.0
H932 H 0.42121 0.37385 0.46636 0.0
H933 H 0.44214 0.34754 0.49483 0.0
C934 C 0.49482 0.27364 0.30282 0.0
C935 C 0.47707 0.26545 0.29343 0.0
C936 C 0.49767 0.28649 0.35121 0.0
C937 C 0.48289 0.29127 0.39193 0.0
C938 C 0.46534 0.28244 0.38454 0.0
C939 C 0.46243 0.26965 0.33551 0.0
C940 C 0.4852 0.30761 0.43454 0.0
C941 C 0.47263 0.32262 0.42747 0.0
C942 C 0.50156 0.31005 0.47169 0.0
C943 C 0.51432 0.29409 0.48622 0.0
C944 C 0.50694 0.27673 0.50647 0.0
C945 C 0.51892 0.26173 0.5201 0.0
C946 C 0.53834 0.26389 0.51371 0.0
C947 C 0.54583 0.28105 0.49369 0.0
C948 C 0.53392 0.2961 0.48003 0.0
C949 C 0.49615 0.39484 0.52466 0.0
C950 C 0.5119 0.40089 0.48991 0.0
C951 C 0.49115 0.37586 0.52612 0.0
C952 C 0.50167 0.36269 0.49217 0.0
C953 C 0.51804 0.36851 0.46075 0.0
C954 C 0.52313 0.38746 0.45963 0.0
C955 C 0.4944 0.3435 0.48102 0.0
C956 C 0.50598 0.32809 0.49429 0.0
C957 C 0.47714 0.34057 0.44956 0.0
C958 C 0.46457 0.3563 0.43246 0.0
C959 C 0.47022 0.36968 0.38757 0.0
C960 C 0.45826 0.38448 0.37156 0.0
C961 C 0.44063 0.38602 0.40008 0.0
C962 C 0.43488 0.37267 0.44444 0.0
C963 C 0.44676 0.35779 0.46042 0.0
H964 H 0.4314 0.3975 0.38764 0.0
H965 H 0.54759 0.25226 0.52426 0.0
H966 H 0.21974 0.50249 0.21457 0.0
H967 H 0.20048 0.51631 0.29699 0.0
H968 H 0.21528 0.47095 0.42231 0.0
H969 H 0.2347 0.4569 0.33881 0.0
H970 H 0.17782 0.47537 0.41284 0.0
H971 H 0.2284 0.51511 0.46265 0.0
H972 H 0.25555 0.53605 0.44479 0.0
H973 H 0.21965 0.57648 0.35562 0.0
H974 H 0.19231 0.55569 0.37204 0.0
H975 H 0.10458 0.51722 0.57846 0.0
H976 H 0.13809 0.51033 0.5684 0.0
H977 H 0.14018 0.5423 0.39616 0.0
H978 H 0.10662 0.54915 0.4058 0.0
H979 H 0.17446 0.54324 0.46584 0.0
H980 H 0.12668 0.49797 0.39282 0.0
H981 H 0.09943 0.47737 0.41369 0.0
H982 H 0.13151 0.4468 0.55063 0.0
H983 H 0.1589 0.46735 0.53083 0.0
C984 C 0.21904 0.49556 0.25992 0.0
C985 C 0.22843 0.47852 0.27026 0.0
C986 C 0.20826 0.50361 0.3073 0.0
C987 C 0.20664 0.49479 0.36608 0.0
C988 C 0.21651 0.47804 0.3774 0.0
C989 C 0.22752 0.47004 0.32987 0.0
C990 C 0.19254 0.5019 0.41126 0.0
C991 C 0.17739 0.49007 0.42629 0.0
C992 C 0.19192 0.52111 0.42852 0.0
C993 C 0.20828 0.53378 0.41849 0.0
C994 C 0.2263 0.52841 0.43886 0.0
C995 C 0.24173 0.54027 0.42904 0.0
C996 C 0.23933 0.55758 0.39906 0.0
C997 C 0.22148 0.56308 0.37891 0.0
C998 C 0.206 0.55127 0.38859 0.0
C999 C 0.11235 0.52317 0.53938 0.0
C1000 C 0.10302 0.53329 0.49199 0.0
C1001 C 0.13149 0.51939 0.5341 0.0
C1002 C 0.14148 0.52557 0.48114 0.0
C1003 C 0.13266 0.53741 0.43741 0.0
C1004 C 0.1135 0.54126 0.44276 0.0
C1005 C 0.15962 0.51687 0.46439 0.0
C1006 C 0.17533 0.52841 0.45447 0.0
C1007 C 0.16085 0.49735 0.452 0.0
C1008 C 0.14469 0.48443 0.46138 0.0
C1009 C 0.12788 0.48692 0.42761 0.0
C1010 C 0.11242 0.47524 0.43918 0.0
C1011 C 0.1137 0.46085 0.48374 0.0
C1012 C 0.1305 0.45801 0.51637 0.0
C1013 C 0.14599 0.46967 0.50503 0.0
H1014 H 0.1017 0.45186 0.49277 0.0
H1015 H 0.2513 0.56673 0.39149 0.0
H1016 H 0.04518 0.76251 0.06173 0.0
H1017 H 0.04725 0.7918 0.00189 0.0
H1018 H 0.0601 0.82211 0.1724 0.0
H1019 H 0.05729 0.7931 0.23276 0.0
H1020 H 0.03229 0.83831 0.11094 0.0
H1021 H 0.09338 0.81495 0.05659 0.0
H1022 H 0.11622 0.79181 0.01693 0.0
H1023 H 0.08905 0.79205 0.83661 0.0
H1024 H 0.06588 0.81502 0.87546 0.0
H1025 H 0.0536 0.9261 0.97877 0.0
H1026 H 0.05743 0.89564 0.02988 0.0
H1027 H 0.03933 0.86766 0.86032 0.0
H1028 H 0.03595 0.89817 0.80797 0.0
H1029 H 0.06999 0.85011 0.91842 0.0
H1030 H 0.00857 0.87257 0.97356 0.0
H1031 H 0.98583 0.89596 0.01234 0.0
H1032 H 0.01394 0.89734 0.191 0.0
H1033 H 0.03694 0.87405 0.15311 0.0
C1034 C 0.04864 0.7754 0.08631 0.0
C1035 C 0.05105 0.77549 0.15195 0.0
C1036 C 0.04997 0.79209 0.05201 0.0
C1037 C 0.05392 0.80911 0.08269 0.0
C1038 C 0.05708 0.80911 0.14782 0.0
C1039 C 0.05566 0.79247 0.18215 0.0
C1040 C 0.05323 0.82713 0.04797 0.0
C1041 C 0.04079 0.84098 0.06947 0.0
C1042 C 0.06384 0.83036 0.99266 0.0
C1043 C 0.07778 0.81658 0.96914 0.0
C1044 C 0.09218 0.80996 0.00864 0.0
C1045 C 0.1052 0.79689 0.98627 0.0
C1046 C 0.10405 0.79042 0.92434 0.0
C1047 C 0.08991 0.79705 0.88459 0.0
C1048 C 0.07684 0.81011 0.90674 0.0
C1049 C 0.05075 0.91347 0.95191 0.0
C1050 C 0.04445 0.91453 0.88936 0.0
C1051 C 0.05281 0.8961 0.98134 0.0
C1052 C 0.04849 0.87948 0.94897 0.0
C1053 C 0.04271 0.88039 0.886 0.0
C1054 C 0.04063 0.8978 0.85643 0.0
C1055 C 0.04929 0.86124 0.98206 0.0
C1056 C 0.06161 0.84737 0.96008 0.0
C1057 C 0.03857 0.85793 0.03696 0.0
C1058 C 0.02457 0.8717 0.0603 0.0
C1059 C 0.00996 0.87794 0.02101 0.0
C1060 C 0.99701 0.89115 0.04286 0.0
C1061 C 0.99846 0.89816 0.10406 0.0
C1062 C 0.01285 0.89192 0.14358 0.0
C1063 C 0.02582 0.87867 0.122 0.0
H1064 H 0.98843 0.9084 0.12089 0.0
H1065 H 0.11415 0.78031 0.90711 0.0
H1066 H 0.73769 0.04001 0.0675 0.0
H1067 H 0.70991 0.04756 0.00617 0.0
H1068 H 0.70424 0.09999 0.10603 0.0
H1069 H 0.73252 0.09276 0.16701 0.0
H1070 H 0.67263 0.07814 0.11184 0.0
H1071 H 0.71326 0.10095 0.9508 0.0
H1072 H 0.74037 0.1003 0.87859 0.0
H1073 H 0.71824 0.05084 0.7894 0.0
H1074 H 0.69113 0.05101 0.86164 0.0
H1075 H 0.58604 0.08651 0.94572 0.0
H1076 H 0.6174 0.09467 0.98523 0.0
H1077 H 0.64024 0.04556 0.89419 0.0
H1078 H 0.60916 0.03756 0.85408 0.0
H1079 H 0.66367 0.07381 0.88096 0.0
H1080 H 0.62835 0.04635 0.05281 0.0
H1081 H 0.60234 0.04378 0.12912 0.0
H1082 H 0.61541 0.09873 0.20052 0.0
H1083 H 0.64134 0.10173 0.12398 0.0
C1084 C 0.73102 0.05348 0.07505 0.0
C1085 C 0.73734 0.06574 0.12248 0.0
C1086 C 0.71505 0.05775 0.03992 0.0
C1087 C 0.70506 0.07437 0.05137 0.0
C1088 C 0.71179 0.08709 0.09651 0.0
C1089 C 0.72787 0.08288 0.1315 0.0
C1090 C 0.68644 0.07708 0.02175 0.0
C1091 C 0.67066 0.07775 0.06123 0.0
C1092 C 0.68394 0.07605 0.95587 0.0
C1093 C 0.70017 0.07597 0.91189 0.0
C1094 C 0.71422 0.08986 0.91606 0.0
C1095 C 0.72959 0.08959 0.87506 0.0
C1096 C 0.73103 0.07553 0.82947 0.0
C1097 C 0.71709 0.06173 0.8247 0.0
C1098 C 0.7017 0.06193 0.8656 0.0
C1099 C 0.5978 0.07754 0.93399 0.0
C1100 C 0.59517 0.06141 0.89684 0.0
C1101 C 0.61569 0.08221 0.9565 0.0
C1102 C 0.63115 0.07063 0.94308 0.0
C1103 C 0.62857 0.05478 0.90478 0.0
C1104 C 0.61079 0.05022 0.88186 0.0
C1105 C 0.64988 0.07426 0.9712 0.0
C1106 C 0.66565 0.07475 0.93145 0.0
C1107 C 0.65242 0.07601 0.03698 0.0
C1108 C 0.63661 0.07437 0.08213 0.0
C1109 C 0.62554 0.05797 0.08434 0.0
C1110 C 0.61085 0.05641 0.12772 0.0
C1111 C 0.6072 0.0711 0.16956 0.0
C1112 C 0.61823 0.08738 0.16802 0.0
C1113 C 0.63292 0.08902 0.12463 0.0
H1114 H 0.59587 0.06983 0.20329 0.0
H1115 H 0.74295 0.07534 0.7978 0.0
H1116 H 0.45369 0.71627 0.20433 0.0
H1117 H 0.45945 0.68834 0.14165 0.0
H1118 H 0.47702 0.7229 0.98543 0.0
H1119 H 0.47039 0.75118 0.04714 0.0
H1120 H 0.45873 0.69127 0.94584 0.0
H1121 H 0.50943 0.70648 0.08 0.0
H1122 H 0.52562 0.71526 0.17818 0.0
H1123 H 0.50833 0.66331 0.26333 0.0
H1124 H 0.49155 0.65438 0.16612 0.0
H1125 H 0.49697 0.60652 0.82085 0.0
H1126 H 0.49732 0.639 0.85889 0.0
H1127 H 0.47677 0.62024 0.03941 0.0
H1128 H 0.47715 0.58781 0.00281 0.0
H1129 H 0.50256 0.64744 0.05267 0.0
H1130 H 0.44657 0.63671 0.91926 0.0
H1131 H 0.43219 0.62824 0.81744 0.0
H1132 H 0.46297 0.67262 0.72653 0.0
H1133 H 0.4776 0.68126 0.82783 0.0
C1134 C 0.45807 0.71805 0.1559 0.0
C1135 C 0.46179 0.73598 0.13097 0.0
C1136 C 0.46161 0.70202 0.1204 0.0
C1137 C 0.4692 0.70361 0.05974 0.0
C1138 C 0.47141 0.72143 0.03256 0.0
C1139 C 0.4677 0.73754 0.06796 0.0
C1140 C 0.47612 0.68664 0.02734 0.0
C1141 C 0.46855 0.68183 0.96864 0.0
C1142 C 0.48918 0.67451 0.05679 0.0
C1143 C 0.49911 0.67981 0.11575 0.0
C1144 C 0.50889 0.697 0.11983 0.0
C1145 C 0.51816 0.702 0.17533 0.0
C1146 C 0.51795 0.68985 0.22696 0.0
C1147 C 0.5084 0.67271 0.2233 0.0
C1148 C 0.49901 0.66767 0.168 0.0
C1149 C 0.49292 0.6093 0.86907 0.0
C1150 C 0.48674 0.59467 0.90867 0.0
C1151 C 0.493 0.62786 0.89051 0.0
C1152 C 0.48677 0.63202 0.95155 0.0
C1153 C 0.48155 0.61733 0.99201 0.0
C1154 C 0.48156 0.59883 0.97083 0.0
C1155 C 0.48438 0.65161 0.97299 0.0
C1156 C 0.49296 0.65703 0.02949 0.0
C1157 C 0.47248 0.66438 0.94113 0.0
C1158 C 0.46324 0.65954 0.88086 0.0
C1159 C 0.45026 0.64463 0.8775 0.0
C1160 C 0.44208 0.6398 0.81992 0.0
C1161 C 0.44669 0.64986 0.76553 0.0
C1162 C 0.45941 0.66484 0.76868 0.0
C1163 C 0.46763 0.66973 0.82615 0.0
H1164 H 0.44038 0.64607 0.72097 0.0
H1165 H 0.52529 0.69368 0.26967 0.0
H1166 H 0.78837 0.44252 0.25117 0.0
H1167 H 0.8177 0.43674 0.1956 0.0
H1168 H 0.78905 0.44243 0.01788 0.0
H1169 H 0.75931 0.44731 0.07322 0.0
H1170 H 0.81711 0.41653 0.01079 0.0
H1171 H 0.80963 0.48001 0.08351 0.0
H1172 H 0.80401 0.50521 0.1608 0.0
H1173 H 0.85225 0.48759 0.2666 0.0
H1174 H 0.85802 0.46209 0.19031 0.0
H1175 H 0.89299 0.45208 0.82378 0.0
H1176 H 0.86353 0.44568 0.8793 0.0
H1177 H 0.8939 0.44084 0.05415 0.0
H1178 H 0.92322 0.44793 0.99962 0.0
H1179 H 0.86528 0.46451 0.06438 0.0
H1180 H 0.87407 0.40225 0.98326 0.0
H1181 H 0.87971 0.37845 0.90119 0.0
H1182 H 0.82905 0.39495 0.80662 0.0
H1183 H 0.82323 0.41904 0.88769 0.0
C1184 C 0.78809 0.44187 0.2003 0.0
C1185 C 0.77149 0.44561 0.16663 0.0
C1186 C 0.80495 0.43875 0.16859 0.0
C1187 C 0.80561 0.43962 0.10271 0.0
C1188 C 0.78886 0.44187 0.0688 0.0
C1189 C 0.77192 0.44483 0.1005 0.0
C1190 C 0.82393 0.44019 0.06976 0.0
C1191 C 0.82763 0.42706 0.02213 0.0
C1192 C 0.83769 0.45385 0.08516 0.0
C1193 C 0.83414 0.46903 0.13153 0.0
C1194 C 0.81894 0.4814 0.12356 0.0
C1195 C 0.81575 0.49575 0.16711 0.0
C1196 C 0.82777 0.49799 0.21853 0.0
C1197 C 0.84296 0.48583 0.2267 0.0
C1198 C 0.8462 0.47143 0.18332 0.0
C1199 C 0.89339 0.44956 0.874 0.0
C1200 C 0.91045 0.45057 0.90729 0.0
C1201 C 0.87658 0.44569 0.90553 0.0
C1202 C 0.87656 0.44265 0.97078 0.0
C1203 C 0.89363 0.44308 0.00373 0.0
C1204 C 0.9104 0.44699 0.97236 0.0
C1205 C 0.85864 0.44072 0.00569 0.0
C1206 C 0.85492 0.45376 0.0535 0.0
C1207 C 0.84489 0.4271 0.98996 0.0
C1208 C 0.8483 0.41256 0.9413 0.0
C1209 C 0.8642 0.4009 0.94471 0.0
C1210 C 0.86742 0.38734 0.89841 0.0
C1211 C 0.85477 0.38522 0.84865 0.0
C1212 C 0.83884 0.39662 0.84517 0.0
C1213 C 0.83557 0.41021 0.89133 0.0
H1214 H 0.85728 0.37471 0.81284 0.0
H1215 H 0.82537 0.50923 0.25178 0.0
H1216 H 0.02668 0.22322 0.76488 0.0
H1217 H 0.02359 0.19148 0.72142 0.0
H1218 H 0.99638 0.17309 0.89198 0.0
H1219 H 0.99984 0.20458 0.93629 0.0
H1220 H 0.02503 0.14978 0.85781 0.0
H1221 H 0.96889 0.17519 0.74921 0.0
H1222 H 0.95394 0.19964 0.68371 0.0
H1223 H 0.99619 0.1921 0.54193 0.0
H1224 H 0.01101 0.16716 0.6056 0.0
H1225 H 0.99513 0.05887 0.78156 0.0
H1226 H 0.99668 0.09202 0.8107 0.0
H1227 H 0.01466 0.10613 0.6226 0.0
H1228 H 0.01176 0.07292 0.59213 0.0
H1229 H 0.99269 0.13243 0.65939 0.0
H1230 H 0.04586 0.10389 0.75383 0.0
H1231 H 0.06369 0.0808 0.81626 0.0
H1232 H 0.03296 0.09645 0.98192 0.0
H1233 H 0.01475 0.11946 0.92029 0.0
C1234 C 0.01989 0.21247 0.79298 0.0
C1235 C 0.01349 0.21657 0.85419 0.0
C1236 C 0.01799 0.19432 0.7678 0.0
C1237 C 0.00963 0.17982 0.80316 0.0
C1238 C 0.00283 0.184 0.8636 0.0
C1239 C 0.00466 0.20212 0.88869 0.0
C1240 C 0.00901 0.16006 0.77927 0.0
C1241 C 0.01774 0.14594 0.81485 0.0
C1242 C 1.00035 0.1551 0.72168 0.0
C1243 C 0.991 0.16937 0.68204 0.0
C1244 C 0.97487 0.17866 0.70378 0.0
C1245 C 0.96639 0.19253 0.66688 0.0
C1246 C 0.97406 0.19733 0.60849 0.0
C1247 C 0.99014 0.18818 0.58673 0.0
C1248 C 0.9985 0.17409 0.62297 0.0
C1249 C 0.99933 0.06906 0.7463 0.0
C1250 C 0.0034 0.06328 0.68463 0.0
C1251 C 1.00035 0.08805 0.7631 0.0
C1252 C 0.00619 0.10174 0.71935 0.0
C1253 C 0.01006 0.09598 0.65734 0.0
C1254 C 0.00846 0.07697 0.63996 0.0
C1255 C 0.00834 0.12191 0.73883 0.0
C1256 C 1.00003 0.13616 0.70229 0.0
C1257 C 0.01788 0.12708 0.7949 0.0
C1258 C 0.02883 0.11329 0.83228 0.0
C1259 C 0.04281 0.10232 0.80348 0.0
C1260 C 0.053 0.08926 0.83874 0.0
C1261 C 0.04943 0.08713 0.90299 0.0
C1262 C 0.03569 0.0981 0.93214 0.0
C1263 C 0.02545 0.11117 0.89708 0.0
H1264 H 0.05733 0.07701 0.9302 0.0
H1265 H 0.96755 0.20814 0.58011 0.0
H1266 H 0.29319 0.9989 0.87295 0.0
H1267 H 0.32524 0.99438 0.83371 0.0
H1268 H 0.3358 0.05387 0.85106 0.0
H1269 H 0.30394 0.05848 0.89027 0.0
H1270 H 0.35077 0.04165 0.74522 0.0
H1271 H 0.35189 0.02157 0.96092 0.0
H1272 H 0.34186 0.00316 0.05342 0.0
H1273 H 0.35594 0.95194 0.95783 0.0
H1274 H 0.3658 0.97004 0.86436 0.0
H1275 H 0.45381 0.03317 0.78689 0.0
H1276 H 0.42074 0.03668 0.81744 0.0
H1277 H 0.40528 0.99176 0.69174 0.0
H1278 H 0.43814 0.98843 0.65952 0.0
H1279 H 0.39319 0.99616 0.85036 0.0
H1280 H 0.38676 0.01664 0.63041 0.0
H1281 H 0.3979 0.03495 0.53887 0.0
H1282 H 0.39451 0.08572 0.64752 0.0
H1283 H 0.38378 0.06747 0.73991 0.0
C1284 C 0.30232 0.01103 0.86843 0.0
C1285 C 0.29585 0.02907 0.88483 0.0
C1286 C 0.3207 0.00842 0.84599 0.0
C1287 C 0.33313 0.02375 0.84004 0.0
C1288 C 0.32655 0.0418 0.85495 0.0
C1289 C 0.30821 0.04442 0.87715 0.0
C1290 C 0.35306 0.02105 0.81938 0.0
C1291 C 0.35998 0.03176 0.76871 0.0
C1292 C 0.36527 0.00806 0.84922 0.0
C1293 C 0.35939 0.99715 0.9054 0.0
C1294 C 0.3527 0.00637 0.95943 0.0
C1295 C 0.34707 0.99599 0.01207 0.0
C1296 C 0.34821 0.97639 0.01143 0.0
C1297 C 0.35503 0.96712 0.95821 0.0
C1298 C 0.36065 0.97743 0.90541 0.0
C1299 C 0.4434 0.02408 0.76547 0.0
C1300 C 0.44873 0.01052 0.72069 0.0
C1301 C 0.4245 0.0261 0.78305 0.0
C1302 C 0.41057 0.0145 0.75681 0.0
C1303 C 0.4158 1.0009 0.71242 0.0
C1304 C 0.43463 0.99905 0.69406 0.0
C1305 C 0.39057 0.01654 0.77623 0.0
C1306 C 0.38379 0.0059 0.82696 0.0
C1307 C 0.37849 0.02956 0.74674 0.0
C1308 C 0.3848 0.04068 0.69186 0.0
C1309 C 0.38867 0.03166 0.63466 0.0
C1310 C 0.39485 0.04202 0.58275 0.0
C1311 C 0.39696 0.0615 0.58742 0.0
C1312 C 0.3929 0.07063 0.64404 0.0
C1313 C 0.3868 0.06027 0.6962 0.0
H1314 H 0.40161 0.06953 0.54706 0.0
H1315 H 0.34385 0.96838 0.05224 0.0
H1316 H 0.46336 0.29259 0.85034 0.0
H1317 H 0.467 0.3235 0.80211 0.0
H1318 H 0.52563 0.32406 0.85325 0.0
H1319 H 0.52218 0.29294 0.90104 0.0
H1320 H 0.51039 0.35619 0.88417 0.0
H1321 H 0.51057 0.31829 0.70169 0.0
H1322 H 0.49936 0.29418 0.6277 0.0
H1323 H 0.45016 0.32698 0.58904 0.0
H1324 H 0.4607 0.35103 0.66474 0.0
H1325 H 0.5131 0.43317 0.61935 0.0
H1326 H 0.51392 0.40002 0.65066 0.0
H1327 H 0.48255 0.41326 0.81835 0.0
H1328 H 0.4821 0.44638 0.78831 0.0
H1329 H 0.48838 0.37356 0.67062 0.0
H1330 H 0.4964 0.38625 0.93944 0.0
H1331 H 0.51045 0.40973 0.01084 0.0
H1332 H 0.54929 0.42635 0.86639 0.0
H1333 H 0.53567 0.40279 0.79446 0.0
C1334 C 0.47717 0.29902 0.85022 0.0
C1335 C 0.49248 0.29006 0.87972 0.0
C1336 C 0.47921 0.31682 0.82265 0.0
C1337 C 0.49662 0.3262 0.8235 0.0
C1338 C 0.51201 0.31721 0.85202 0.0
C1339 C 0.50999 0.29938 0.87957 0.0
C1340 C 0.4985 0.34575 0.79779 0.0
C1341 C 0.50558 0.35991 0.8374 0.0
C1342 C 0.49265 0.35071 0.73609 0.0
C1343 C 0.48631 0.33635 0.68991 0.0
C1344 C 0.49723 0.32028 0.67813 0.0
C1345 C 0.49098 0.30661 0.63581 0.0
C1346 C 0.474 0.309 0.60388 0.0
C1347 C 0.46327 0.32511 0.61404 0.0
C1348 C 0.46935 0.33875 0.65684 0.0
C1349 C 0.50628 0.42902 0.66273 0.0
C1350 C 0.49761 0.44254 0.70139 0.0
C1351 C 0.50673 0.41002 0.68054 0.0
C1352 C 0.4985 0.40406 0.73731 0.0
C1353 C 0.48935 0.41746 0.77496 0.0
C1354 C 0.48902 0.43645 0.7575 0.0
C1355 C 0.49961 0.38396 0.75786 0.0
C1356 C 0.49317 0.36974 0.71729 0.0
C1357 C 0.50641 0.37883 0.81812 0.0
C1358 C 0.51488 0.39286 0.8614 0.0
C1359 C 0.508 0.39485 0.92302 0.0
C1360 C 0.51588 0.40819 0.96356 0.0
C1361 C 0.53071 0.41956 0.9431 0.0
C1362 C 0.53775 0.41758 0.88211 0.0
C1363 C 0.52994 0.40425 0.84142 0.0
H1364 H 0.53678 0.42989 0.97454 0.0
H1365 H 0.46921 0.29842 0.57096 0.0
H1366 H 0.21573 0.46843 0.78344 0.0
H1367 H 0.18401 0.47276 0.74135 0.0
H1368 H 0.16809 0.50244 0.90977 0.0
H1369 H 0.19956 0.49774 0.95286 0.0
H1370 H 0.14302 0.47426 0.87867 0.0
H1371 H 0.16983 0.52974 0.76318 0.0
H1372 H 0.19456 0.54331 0.69503 0.0
H1373 H 0.18658 0.49857 0.56214 0.0
H1374 H 0.1615 0.48508 0.62894 0.0
H1375 H 0.05317 0.50689 0.80094 0.0
H1376 H 0.08614 0.50402 0.83084 0.0
H1377 H 0.09987 0.48589 0.64262 0.0
H1378 H 0.0669 0.4899 0.6117 0.0
H1379 H 0.1268 0.50639 0.67892 0.0
H1380 H 0.09615 0.45471 0.77635 0.0
H1381 H 0.07254 0.43784 0.84003 0.0
H1382 H 0.08974 0.46857 0.0041 0.0
H1383 H 0.11329 0.48582 0.9412 0.0
C1384 C 0.20554 0.47604 0.81133 0.0
C1385 C 0.2103 0.48276 0.87161 0.0
C1386 C 0.18742 0.47865 0.78692 0.0
C1387 C 0.17362 0.48807 0.8221 0.0
C1388 C 0.17847 0.49519 0.88156 0.0
C1389 C 0.19658 0.49264 0.90592 0.0
C1390 C 0.15385 0.48949 0.79905 0.0
C1391 C 0.13942 0.48151 0.83544 0.0
C1392 C 0.14918 0.49811 0.74123 0.0
C1393 C 0.1638 0.50651 0.70054 0.0
C1394 C 0.17329 0.52292 0.71913 0.0
C1395 C 0.1873 0.53062 0.6807 0.0
C1396 C 0.19202 0.5219 0.62394 0.0
C1397 C 0.18273 0.50546 0.60558 0.0
C1398 C 0.16857 0.49785 0.64348 0.0
C1399 C 0.06321 0.50228 0.76593 0.0
C1400 C 0.05739 0.49851 0.70406 0.0
C1401 C 0.08211 0.50051 0.78316 0.0
C1402 C 0.09563 0.49425 0.73962 0.0
C1403 C 0.08984 0.4907 0.67741 0.0
C1404 C 0.07096 0.49295 0.65971 0.0
C1405 C 0.1157 0.4915 0.7593 0.0
C1406 C 0.13025 0.49912 0.72219 0.0
C1407 C 0.12054 0.48201 0.81582 0.0
C1408 C 0.10637 0.47169 0.85389 0.0
C1409 C 0.0948 0.45797 0.82591 0.0
C1410 C 0.08144 0.44833 0.86188 0.0
C1411 C 0.07961 0.45216 0.92604 0.0
C1412 C 0.09116 0.46563 0.95438 0.0
C1413 C 0.10453 0.47534 0.9186 0.0
H1414 H 0.06926 0.44467 0.95382 0.0
H1415 H 0.20291 0.52782 0.59433 0.0
H1416 H 0.98605 0.79812 0.36272 0.0
H1417 H 0.98298 0.83066 0.39403 0.0
H1418 H 0.00641 0.81756 0.57586 0.0
H1419 H 0.00702 0.78451 0.54843 0.0
H1420 H 0.98427 0.84315 0.59531 0.0
H1421 H 0.03296 0.83839 0.4388 0.0
H1422 H 0.04639 0.82936 0.33611 0.0
H1423 H 0.00557 0.8635 0.24139 0.0
H1424 H 0.99197 0.87281 0.34343 0.0
H1425 H 0.01417 0.93678 0.66324 0.0
H1426 H 0.01367 0.90339 0.63657 0.0
H1427 H 0.98079 0.91547 0.47108 0.0
H1428 H 0.98163 0.94897 0.49658 0.0
H1429 H 0.00787 0.89084 0.44418 0.0
H1430 H 0.96092 0.89619 0.61049 0.0
H1431 H 0.95105 0.90582 0.71699 0.0
H1432 H 0.99339 0.87042 0.79818 0.0
H1433 H 0.00358 0.86067 0.69216 0.0
C1434 C 0.99004 0.80182 0.41019 0.0
C1435 C 0.99717 0.78824 0.45224 0.0
C1436 C 0.98871 0.82077 0.4276 0.0
C1437 C 0.99527 0.82698 0.48647 0.0
C1438 C 1.00153 0.81341 0.52964 0.0
C1439 C 1.00219 0.79434 0.5132 0.0
C1440 C 0.99596 0.84753 0.50271 0.0
C1441 C 0.98966 0.85347 0.56228 0.0
C1442 C 0.00285 0.86131 0.46005 0.0
C1443 C 0.01138 0.8562 0.39871 0.0
C1444 C 0.02688 0.84399 0.39603 0.0
C1445 C 0.03453 0.83885 0.33795 0.0
C1446 C 0.02687 0.8459 0.28224 0.0
C1447 C 0.01158 0.85816 0.28453 0.0
C1448 C 0.00392 0.86341 0.34247 0.0
C1449 C 0.00676 0.93237 0.62125 0.0
C1450 C 0.99785 0.94564 0.58228 0.0
C1451 C 0.00643 0.9132 0.60613 0.0
C1452 C 0.99693 0.90677 0.55222 0.0
C1453 C 0.98818 0.92001 0.51298 0.0
C1454 C 0.98863 0.9392 0.52778 0.0
C1455 C 0.99618 0.8863 0.53635 0.0
C1456 C 0.00249 0.88043 0.47693 0.0
C1457 C 0.98978 0.87256 0.57971 0.0
C1458 C 0.98305 0.87776 0.64341 0.0
C1459 C 0.9681 0.89045 0.65108 0.0
C1460 C 0.96246 0.89594 0.71135 0.0
C1461 C 0.9716 0.88875 0.7643 0.0
C1462 C 0.98631 0.87596 0.75713 0.0
C1463 C 0.99199 0.8704 0.69697 0.0
H1464 H 0.96728 0.89308 0.8109 0.0
H1465 H 0.03276 0.84185 0.23731 0.0
H1466 H 0.72428 0.99617 0.51984 0.0
H1467 H 0.69222 0.99464 0.55914 0.0
H1468 H 0.6711 0.99916 0.36958 0.0
H1469 H 0.70305 1.0025 0.33037 0.0
H1470 H 0.65097 0.01996 0.43674 0.0
H1471 H 0.67085 0.95633 0.46337 0.0
H1472 H 0.69121 0.93042 0.49896 0.0
H1473 H 0.68257 0.94671 0.69123 0.0
H1474 H 0.66235 0.97287 0.65675 0.0
H1475 H 0.55731 0.99178 0.50809 0.0
H1476 H 0.58974 0.99169 0.47054 0.0
H1477 H 0.60956 1.00044 0.6599 0.0
H1478 H 0.57703 1.00063 0.69813 0.0
H1479 H 0.62991 0.97284 0.59391 0.0
H1480 H 0.60815 0.03622 0.56083 0.0
H1481 H 0.58643 0.06023 0.51982 0.0
H1482 H 0.59751 0.04202 0.33093 0.0
H1483 H 0.619 0.01761 0.37089 0.0
C1484 C 0.71289 0.99701 0.48624 0.0
C1485 C 0.71654 0.99954 0.42159 0.0
C1486 C 0.69443 0.9958 0.5089 0.0
C1487 C 0.67903 0.9965 0.46749 0.0
C1488 C 0.68262 0.99856 0.40282 0.0
C1489 C 0.70106 1.00017 0.38023 0.0
C1490 C 0.65923 0.99584 0.49159 0.0
C1491 C 0.64637 0.00943 0.47034 0.0
C1492 C 0.65309 0.98239 0.53652 0.0
C1493 C 0.66523 0.96667 0.55742 0.0
C1494 C 0.67341 0.95447 0.51322 0.0
C1495 C 0.6849 0.93972 0.5332 0.0
C1496 C 0.68822 0.93695 0.59731 0.0
C1497 C 0.68001 0.94889 0.64159 0.0
C1498 C 0.66851 0.96366 0.62186 0.0
C1499 C 0.56852 0.9936 0.54201 0.0
C1500 C 0.5645 0.99621 0.60627 0.0
C1501 C 0.58709 0.99361 0.52031 0.0
C1502 C 0.60211 0.99622 0.56226 0.0
C1503 C 0.5982 0.99843 0.62664 0.0
C1504 C 0.57958 0.99856 0.6484 0.0
C1505 C 0.62183 0.99683 0.53869 0.0
C1506 C 0.63462 0.98329 0.56016 0.0
C1507 C 0.6278 0.01008 0.49305 0.0
C1508 C 0.61505 0.02494 0.46896 0.0
C1509 C 0.60584 0.03721 0.51059 0.0
C1510 C 0.59357 0.05091 0.48752 0.0
C1511 C 0.59055 0.05261 0.42283 0.0
C1512 C 0.59983 0.04066 0.38105 0.0
C1513 C 0.61206 0.02689 0.40389 0.0
H1514 H 0.58105 0.06322 0.40507 0.0
H1515 H 0.69712 0.92552 0.61268 0.0
H1516 H 0.50884 0.70631 0.36318 0.0
H1517 H 0.51168 0.6736 0.39519 0.0
H1518 H 0.49759 0.68885 0.58578 0.0
H1519 H 0.49649 0.72184 0.5553 0.0
H1520 H 0.52138 0.66282 0.59301 0.0
H1521 H 0.46527 0.66931 0.47167 0.0
H1522 H 0.446 0.67779 0.37961 0.0
H1523 H 0.47628 0.63821 0.26612 0.0
H1524 H 0.4961 0.62987 0.35703 0.0
H1525 H 0.49489 0.5699 0.68803 0.0
H1526 H 0.49478 0.60323 0.66012 0.0
H1527 H 0.51542 0.58966 0.47492 0.0
H1528 H 0.51525 0.55626 0.50206 0.0
H1529 H 0.48777 0.61468 0.46695 0.0
H1530 H 0.54422 0.60918 0.59237 0.0
H1531 H 0.56216 0.60073 0.68748 0.0
H1532 H 0.52831 0.63812 0.79789 0.0
H1533 H 0.50994 0.64658 0.70361 0.0
C1534 C 0.50686 0.7029 0.4123 0.0
C1535 C 0.50231 0.717 0.45628 0.0
C1536 C 0.50812 0.68398 0.43044 0.0
C1537 C 0.5043 0.67846 0.49275 0.0
C1538 C 0.50043 0.69255 0.53724 0.0
C1539 C 0.49957 0.71152 0.51942 0.0
C1540 C 0.50401 0.65808 0.51139 0.0
C1541 C 0.5138 0.6524 0.56568 0.0
C1542 C 0.49432 0.6442 0.47584 0.0
C1543 C 0.48233 0.64912 0.42109 0.0
C1544 C 0.46794 0.66254 0.42695 0.0
C1545 C 0.45693 0.66733 0.37493 0.0
C1546 C 0.45998 0.65861 0.31696 0.0
C1547 C 0.47398 0.64501 0.31099 0.0
C1548 C 0.48513 0.64026 0.36272 0.0
C1549 C 0.49949 0.57396 0.64139 0.0
C1550 C 0.50513 0.56028 0.5974 0.0
C1551 C 0.49949 0.59311 0.62553 0.0
C1552 C 0.50528 0.59911 0.56548 0.0
C1553 C 0.51088 0.58547 0.52154 0.0
C1554 C 0.51085 0.56633 0.53728 0.0
C1555 C 0.50526 0.61951 0.54791 0.0
C1556 C 0.49534 0.62518 0.49402 0.0
C1557 C 0.51455 0.63339 0.58433 0.0
C1558 C 0.52565 0.62843 0.64099 0.0
C1559 C 0.54052 0.61551 0.63701 0.0
C1560 C 0.55076 0.61072 0.69076 0.0
C1561 C 0.54635 0.61886 0.74868 0.0
C1562 C 0.53168 0.63181 0.753 0.0
C1563 C 0.52136 0.63663 0.69941 0.0
H1564 H 0.55436 0.6152 0.79011 0.0
H1565 H 0.45146 0.66236 0.27671 0.0
H1566 H 0.7812 0.52104 0.52396 0.0
H1567 H 0.81387 0.52176 0.55835 0.0
H1568 H 0.83216 0.51307 0.36719 0.0
H1569 H 0.79952 0.51094 0.33311 0.0
H1570 H 0.85102 0.49129 0.43651 0.0
H1571 H 0.83689 0.55673 0.45141 0.0
H1572 H 0.81931 0.58492 0.48403 0.0
H1573 H 0.82964 0.57174 0.67806 0.0
H1574 H 0.84707 0.54332 0.64663 0.0
H1575 H 0.94774 0.51325 0.48861 0.0
H1576 H 0.91486 0.51502 0.4555 0.0
H1577 H 0.89703 0.5102 0.64864 0.0
H1578 H 0.92996 0.5082 0.68224 0.0
H1579 H 0.87834 0.53918 0.57945 0.0
H1580 H 0.89222 0.4732 0.56064 0.0
H1581 H 0.90971 0.44533 0.52493 0.0
H1582 H 0.90044 0.4611 0.33241 0.0
H1583 H 0.88291 0.48912 0.36708 0.0
C1584 C 0.79212 0.51925 0.48904 0.0
C1585 C 0.78753 0.51588 0.42554 0.0
C1586 C 0.81091 0.51993 0.50877 0.0
C1587 C 0.82566 0.51767 0.46539 0.0
C1588 C 0.82112 0.51488 0.40173 0.0
C1589 C 0.80235 0.51394 0.3821 0.0
C1590 C 0.84573 0.51709 0.48658 0.0
C1591 C 0.857 0.50199 0.46689 0.0
C1592 C 0.85362 0.53073 0.52758 0.0
C1593 C 0.84312 0.54779 0.54666 0.0
C1594 C 0.83528 0.55976 0.50105 0.0
C1595 C 0.82537 0.57579 0.51932 0.0
C1596 C 0.82332 0.58009 0.58308 0.0
C1597 C 0.83121 0.56838 0.62869 0.0
C1598 C 0.84113 0.55231 0.61068 0.0
C1599 C 0.93685 0.5126 0.52418 0.0
C1600 C 0.94153 0.51054 0.58816 0.0
C1601 C 0.91804 0.51354 0.50509 0.0
C1602 C 0.90346 0.51266 0.54952 0.0
C1603 C 0.90805 0.5109 0.61352 0.0
C1604 C 0.92688 0.50968 0.63262 0.0
C1605 C 0.88345 0.51351 0.52893 0.0
C1606 C 0.87225 0.5286 0.54883 0.0
C1607 C 0.87567 0.50003 0.48745 0.0
C1608 C 0.88646 0.48337 0.46648 0.0
C1609 C 0.89409 0.47083 0.51071 0.0
C1610 C 0.90396 0.45497 0.49063 0.0
C1611 C 0.90628 0.45149 0.42641 0.0
C1612 C 0.89867 0.46383 0.38213 0.0
C1613 C 0.88874 0.47969 0.40197 0.0
H1614 H 0.91391 0.43919 0.41093 0.0
H1615 H 0.81564 0.59251 0.59712 0.0
loop_
_geom_bond_atom_site_label_1
_geom_bond_atom_site_label_2
_geom_bond_distance
_geom_bond_site_symmetry_2
_ccdc_geom_bond_type
P0 O11 1.490 . S
P0 C14 1.812 . S
P0 C20 1.803 . S
P0 C26 1.819 . S
H1 C15 0.941 . S
H2 C16 0.939 . S
H3 C18 0.940 . S
H4 C19 0.940 . S
H5 C21 0.939 . S
H6 C22 0.942 . S
H7 C24 0.940 . S
H8 C25 0.939 . S
H9 C27 0.941 . S
H10 C31 0.939 . S
O11 P0 1.490 . S
H12 C28 0.939 . S
H13 C30 0.940 . S
C14 P0 1.812 . S
C14 C15 1.389 . S
C14 C19 1.391 . S
C15 H1 0.941 . S
C15 C14 1.389 . S
C15 C16 1.397 . S
C16 H2 0.939 . S
C16 C15 1.397 . S
C16 C17 1.378 . S
C17 C16 1.378 . S
C17 C18 1.378 . S
C18 H3 0.940 . S
C18 C17 1.378 . S
C18 C19 1.396 . S
C19 H4 0.940 . S
C19 C14 1.391 . S
C19 C18 1.396 . S
C20 P0 1.803 . S
C20 C21 1.378 . S
C20 C25 1.400 . S
C21 H5 0.939 . S
C21 C20 1.378 . S
C21 C22 1.361 . S
C22 H6 0.942 . S
C22 C21 1.361 . S
C22 C23 1.369 . S
C23 C22 1.369 . S
C23 C24 1.404 . S
C24 H7 0.940 . S
C24 C23 1.404 . S
C24 C25 1.389 . S
C25 H8 0.939 . S
C25 C20 1.400 . S
C25 C24 1.389 . S
C26 P0 1.819 . S
C26 C27 1.391 . S
C26 C31 1.391 . S
C27 H9 0.941 . S
C27 C26 1.391 . S
C27 C28 1.396 . S
C28 H12 0.939 . S
C28 C27 1.396 . S
C28 C29 1.397 . S
C29 C28 1.397 . S
C29 C30 1.385 . S
C30 H13 0.940 . S
C30 C29 1.385 . S
C30 C31 1.388 . S
C31 H10 0.939 . S
C31 C26 1.391 . S
C31 C30 1.388 . S
P32 O43 1.490 . S
P32 C46 1.812 . S
P32 C52 1.803 . S
P32 C58 1.819 . S
H33 C47 0.941 . S
H34 C48 0.939 . S
H35 C50 0.940 . S
H36 C51 0.950 . S
H37 C53 0.939 . S
H38 C54 0.942 . S
H39 C56 0.940 . S
H40 C57 0.959 . S
H41 C59 0.941 . S
H42 C63 0.929 1_655 S
O43 P32 1.490 . S
H44 C60 0.939 . S
H45 C62 0.940 . S
C46 P32 1.812 . S
C46 C47 1.389 . S
C46 C51 1.375 1_455 S
C47 H33 0.941 . S
C47 C46 1.389 . S
C47 C48 1.397 . S
C48 H34 0.939 . S
C48 C47 1.397 . S
C48 C49 1.378 . S
C49 C48 1.378 . S
C49 C50 1.378 1_455 S
C50 H35 0.940 . S
C50 C49 1.378 1_655 S
C50 C51 1.403 . S
C51 H36 0.950 . S
C51 C46 1.375 1_655 S
C51 C50 1.403 . S
C52 P32 1.803 . S
C52 C53 1.378 . S
C52 C57 1.368 1_455 S
C53 H37 0.939 . S
C53 C52 1.378 . S
C53 C54 1.361 . S
C54 H38 0.942 . S
C54 C53 1.361 . S
C54 C55 1.369 . S
C55 C54 1.369 . S
C55 C56 1.404 1_455 S
C56 H39 0.940 . S
C56 C55 1.404 1_655 S
C56 C57 1.402 . S
C57 H40 0.959 . S
C57 C52 1.368 1_655 S
C57 C56 1.402 . S
C58 P32 1.819 . S
C58 C59 1.391 . S
C58 C63 1.391 . S
C59 H41 0.941 . S
C59 C58 1.391 . S
C59 C60 1.396 . S
C60 H44 0.939 . S
C60 C59 1.396 . S
C60 C61 1.397 . S
C61 C60 1.397 . S
C61 C62 1.385 1_455 S
C62 H45 0.940 . S
C62 C61 1.385 1_655 S
C62 C63 1.388 1_655 S
C63 H42 0.929 1_455 S
C63 C58 1.391 . S
C63 C62 1.388 1_455 S
P64 O75 1.490 . S
P64 C78 1.812 . S
P64 C84 1.803 . S
P64 C90 1.819 . S
H65 C79 0.941 . S
H66 C80 0.939 . S
H67 C82 0.940 . S
H68 C83 0.940 . S
H69 C85 0.939 . S
H70 C86 0.942 . S
H71 C88 0.940 . S
H72 C89 0.939 . S
H73 C91 0.941 . S
H74 C95 0.955 . S
O75 P64 1.490 . S
H76 C92 0.939 . S
H77 C94 0.940 . S
C78 P64 1.812 . S
C78 C79 1.389 . S
C78 C83 1.391 1_545 S
C79 H65 0.941 . S
C79 C78 1.389 . S
C79 C80 1.397 . S
C80 H66 0.939 . S
C80 C79 1.397 . S
C80 C81 1.378 1_545 S
C81 C80 1.378 1_565 S
C81 C82 1.378 . S
C82 H67 0.940 . S
C82 C81 1.378 . S
C82 C83 1.396 . S
C83 H68 0.940 . S
C83 C78 1.391 1_565 S
C83 C82 1.396 . S
C84 P64 1.803 . S
C84 C85 1.378 . S
C84 C89 1.400 1_545 S
C85 H69 0.939 . S
C85 C84 1.378 . S
C85 C86 1.361 . S
C86 H70 0.942 . S
C86 C85 1.361 . S
C86 C87 1.369 1_545 S
C87 C86 1.369 1_565 S
C87 C88 1.404 . S
C88 H71 0.940 . S
C88 C87 1.404 . S
C88 C89 1.389 . S
C89 H72 0.939 . S
C89 C84 1.400 1_565 S
C89 C88 1.389 . S
C90 P64 1.819 . S
C90 C91 1.391 . S
C90 C95 1.362 1_545 S
C91 H73 0.941 . S
C91 C90 1.391 . S
C91 C92 1.396 . S
C92 H76 0.939 . S
C92 C91 1.396 . S
C92 C93 1.369 1_545 S
C93 C92 1.369 1_565 S
C93 C94 1.399 . S
C94 H77 0.940 . S
C94 C93 1.399 . S
C94 C95 1.404 . S
C95 H74 0.955 . S
C95 C90 1.362 1_565 S
C95 C94 1.404 . S
P96 O107 1.490 . S
P96 C110 1.812 . S
P96 C116 1.803 . S
P96 C122 1.819 . S
H97 C111 0.941 . S
H98 C112 0.939 . S
H99 C114 0.940 . S
H100 C115 0.940 . S
H101 C117 0.939 . S
H102 C118 0.942 . S
H103 C120 0.940 . S
H104 C121 0.939 . S
H105 C123 0.941 . S
H106 C127 0.939 . S
O107 P96 1.490 . S
H108 C124 0.939 . S
H109 C126 0.940 . S
C110 P96 1.812 . S
C110 C111 1.389 . S
C110 C115 1.391 . S
C111 H97 0.941 . S
C111 C110 1.389 . S
C111 C112 1.397 . S
C112 H98 0.939 . S
C112 C111 1.397 . S
C112 C113 1.378 . S
C113 C112 1.378 . S
C113 C114 1.378 . S
C114 H99 0.940 . S
C114 C113 1.378 . S
C114 C115 1.396 . S
C115 H100 0.940 . S
C115 C110 1.391 . S
C115 C114 1.396 . S
C116 P96 1.803 . S
C116 C117 1.378 . S
C116 C121 1.400 . S
C117 H101 0.939 . S
C117 C116 1.378 . S
C117 C118 1.361 . S
C118 H102 0.942 . S
C118 C117 1.361 . S
C118 C119 1.369 . S
C119 C118 1.369 . S
C119 C120 1.404 . S
C120 H103 0.940 . S
C120 C119 1.404 . S
C120 C121 1.389 . S
C121 H104 0.939 . S
C121 C116 1.400 . S
C121 C120 1.389 . S
C122 P96 1.819 . S
C122 C123 1.391 . S
C122 C127 1.391 . S
C123 H105 0.941 . S
C123 C122 1.391 . S
C123 C124 1.396 . S
C124 H108 0.939 . S
C124 C123 1.396 . S
C124 C125 1.397 . S
C125 C124 1.397 . S
C125 C126 1.385 . S
C126 H109 0.940 . S
C126 C125 1.385 . S
C126 C127 1.388 . S
C127 H106 0.939 . S
C127 C122 1.391 . S
C127 C126 1.388 . S
P128 O139 1.490 . S
P128 C142 1.812 1_554 S
P128 C148 1.803 . S
P128 C154 1.819 . S
H129 C143 0.941 . S
H130 C144 0.939 . S
H131 C146 0.940 . S
H132 C147 0.940 . S
H133 C149 0.939 . S
H134 C150 0.942 . S
H135 C152 0.940 . S
H136 C153 0.939 . S
H137 C155 0.941 . S
H138 C159 0.939 . S
O139 P128 1.490 . S
H140 C156 0.939 . S
H141 C158 0.940 . S
C142 P128 1.812 1_556 S
C142 C143 1.389 . S
C142 C147 1.391 . S
C143 H129 0.941 . S
C143 C142 1.389 . S
C143 C144 1.397 . S
C144 H130 0.939 . S
C144 C143 1.397 . S
C144 C145 1.378 . S
C145 C144 1.378 . S
C145 C146 1.378 . S
C146 H131 0.940 . S
C146 C145 1.378 . S
C146 C147 1.396 . S
C147 H132 0.940 . S
C147 C142 1.391 . S
C147 C146 1.396 . S
C148 P128 1.803 . S
C148 C149 1.378 . S
C148 C153 1.400 . S
C149 H133 0.939 . S
C149 C148 1.378 . S
C149 C150 1.361 . S
C150 H134 0.942 . S
C150 C149 1.361 . S
C150 C151 1.369 . S
C151 C150 1.369 . S
C151 C152 1.404 . S
C152 H135 0.940 . S
C152 C151 1.404 . S
C152 C153 1.389 . S
C153 H136 0.939 . S
C153 C148 1.400 . S
C153 C152 1.389 . S
C154 P128 1.819 . S
C154 C155 1.391 . S
C154 C159 1.391 . S
C155 H137 0.941 . S
C155 C154 1.391 . S
C155 C156 1.396 . S
C156 H140 0.939 . S
C156 C155 1.396 . S
C156 C157 1.397 . S
C157 C156 1.397 . S
C157 C158 1.385 . S
C158 H141 0.940 . S
C158 C157 1.385 . S
C158 C159 1.388 . S
C159 H138 0.939 . S
C159 C154 1.391 . S
C159 C158 1.388 . S
P160 O171 1.490 . S
P160 C174 1.812 1_554 S
P160 C180 1.803 . S
P160 C186 1.819 . S
H161 C175 0.941 . S
H162 C176 0.939 . S
H163 C178 0.940 . S
H164 C179 0.942 . S
H165 C181 0.939 . S
H166 C182 0.942 . S
H167 C184 0.940 . S
H168 C185 0.951 . S
H169 C187 0.941 . S
H170 C191 0.934 1_655 S
O171 P160 1.490 . S
H172 C188 0.939 . S
H173 C190 0.940 . S
C174 P160 1.812 1_556 S
C174 C175 1.389 . S
C174 C179 1.388 1_455 S
C175 H161 0.941 . S
C175 C174 1.389 . S
C175 C176 1.397 . S
C176 H162 0.939 . S
C176 C175 1.397 . S
C176 C177 1.378 . S
C177 C176 1.378 . S
C177 C178 1.378 1_455 S
C178 H163 0.940 . S
C178 C177 1.378 1_655 S
C178 C179 1.398 . S
C179 H164 0.942 . S
C179 C174 1.388 1_655 S
C179 C178 1.398 . S
C180 P160 1.803 . S
C180 C181 1.378 . S
C180 C185 1.381 1_455 S
C181 H165 0.939 . S
C181 C180 1.378 . S
C181 C182 1.361 . S
C182 H166 0.942 . S
C182 C181 1.361 . S
C182 C183 1.369 . S
C183 C182 1.369 . S
C183 C184 1.404 1_455 S
C184 H167 0.940 . S
C184 C183 1.404 1_655 S
C184 C185 1.396 . S
C185 H168 0.951 . S
C185 C180 1.381 1_655 S
C185 C184 1.396 . S
C186 P160 1.819 . S
C186 C187 1.391 . S
C186 C191 1.391 . S
C187 H169 0.941 . S
C187 C186 1.391 . S
C187 C188 1.396 . S
C188 H172 0.939 . S
C188 C187 1.396 . S
C188 C189 1.397 . S
C189 C188 1.397 . S
C189 C190 1.385 1_455 S
C190 H173 0.940 . S
C190 C189 1.385 1_655 S
C190 C191 1.388 1_655 S
C191 H170 0.934 1_455 S
C191 C186 1.391 . S
C191 C190 1.388 1_455 S
P192 O203 1.490 . S
P192 C206 1.812 1_554 S
P192 C212 1.803 . S
P192 C218 1.819 . S
H193 C207 0.941 . S
H194 C208 0.939 . S
H195 C210 0.940 1_565 S
H196 C211 0.948 . S
H197 C213 0.939 . S
H198 C214 0.942 . S
H199 C216 0.919 1_565 S
H200 C217 0.941 1_565 S
H201 C219 0.941 . S
H202 C223 0.939 . S
O203 P192 1.490 . S
H204 C220 0.939 . S
H205 C222 0.940 1_565 S
C206 P192 1.812 1_556 S
C206 C207 1.389 . S
C206 C211 1.391 . S
C207 H193 0.941 . S
C207 C206 1.389 . S
C207 C208 1.397 . S
C208 H194 0.939 . S
C208 C207 1.397 . S
C208 C209 1.378 . S
C209 C208 1.378 . S
C209 C210 1.378 . S
C210 H195 0.940 1_545 S
C210 C209 1.378 . S
C210 C211 1.396 . S
C211 H196 0.948 . S
C211 C206 1.391 . S
C211 C210 1.396 . S
C212 P192 1.803 . S
C212 C213 1.378 . S
C212 C217 1.400 . S
C213 H197 0.939 . S
C213 C212 1.378 . S
C213 C214 1.361 . S
C214 H198 0.942 . S
C214 C213 1.361 . S
C214 C215 1.369 . S
C215 C214 1.369 . S
C215 C216 1.417 . S
C216 H199 0.919 1_545 S
C216 C215 1.417 . S
C216 C217 1.397 . S
C217 H200 0.941 1_545 S
C217 C212 1.400 . S
C217 C216 1.397 . S
C218 P192 1.819 . S
C218 C219 1.391 . S
C218 C223 1.391 . S
C219 H201 0.941 . S
C219 C218 1.391 . S
C219 C220 1.396 . S
C220 H204 0.939 . S
C220 C219 1.396 . S
C220 C221 1.397 . S
C221 C220 1.397 . S
C221 C222 1.385 . S
C222 H205 0.940 1_545 S
C222 C221 1.385 . S
C222 C223 1.388 . S
C223 H202 0.939 . S
C223 C218 1.391 . S
C223 C222 1.388 . S
P224 O235 1.490 . S
P224 C238 1.812 1_554 S
P224 C244 1.803 . S
P224 C250 1.819 . S
H225 C239 0.941 . S
H226 C240 0.939 . S
H227 C242 0.940 . S
H228 C243 0.940 . S
H229 C245 0.939 . S
H230 C246 0.942 . S
H231 C248 0.940 . S
H232 C249 0.939 . S
H233 C251 0.941 . S
H234 C255 0.939 . S
O235 P224 1.490 . S
H236 C252 0.939 . S
H237 C254 0.940 . S
C238 P224 1.812 1_556 S
C238 C239 1.389 . S
C238 C243 1.391 . S
C239 H225 0.941 . S
C239 C238 1.389 . S
C239 C240 1.397 . S
C240 H226 0.939 . S
C240 C239 1.397 . S
C240 C241 1.378 . S
C241 C240 1.378 . S
C241 C242 1.378 . S
C242 H227 0.940 . S
C242 C241 1.378 . S
C242 C243 1.396 . S
C243 H228 0.940 . S
C243 C238 1.391 . S
C243 C242 1.396 . S
C244 P224 1.803 . S
C244 C245 1.378 . S
C244 C249 1.400 . S
C245 H229 0.939 . S
C245 C244 1.378 . S
C245 C246 1.361 . S
C246 H230 0.942 . S
C246 C245 1.361 . S
C246 C247 1.369 . S
C247 C246 1.369 . S
C247 C248 1.404 . S
C248 H231 0.940 . S
C248 C247 1.404 . S
C248 C249 1.389 . S
C249 H232 0.939 . S
C249 C244 1.400 . S
C249 C248 1.389 . S
C250 P224 1.819 . S
C250 C251 1.391 . S
C250 C255 1.391 . S
C251 H233 0.941 . S
C251 C250 1.391 . S
C251 C252 1.396 . S
C252 H236 0.939 . S
C252 C251 1.396 . S
C252 C253 1.397 . S
C253 C252 1.397 . S
C253 C254 1.385 . S
C254 H237 0.940 . S
C254 C253 1.385 . S
C254 C255 1.388 . S
C255 H234 0.939 . S
C255 C250 1.391 . S
C255 C254 1.388 . S
Ho256 C259 2.811 . S
Ho256 O276 2.322 . S
Ho256 O278 2.378 . S
Ho256 O279 2.541 . S
Ho256 O280 2.381 . S
Ho256 O281 2.669 1_565 S
Ho256 O283 2.346 1_565 S
Ho256 O287 2.305 1_455 S
Ho257 C268 2.811 . S
Ho257 O277 2.346 1_545 S
Ho257 O281 2.305 1_655 S
Ho257 O282 2.322 . S
Ho257 O284 2.378 . S
Ho257 O285 2.535 . S
Ho257 O286 2.381 . S
Ho257 O287 2.669 1_545 S
C258 O276 1.259 1_655 S
C258 O277 1.268 . S
C259 Ho256 2.811 . S
C259 C260 1.488 . S
C259 O278 1.215 . S
C259 O279 1.329 . S
C260 C259 1.488 . S
C260 C261 1.348 . S
C260 C265 1.413 . S
C261 C260 1.348 . S
C261 C262 1.442 . S
C261 H288 0.930 1_455 S
C262 C261 1.442 . S
C262 C263 1.381 . S
C262 H289 0.931 1_455 S
C263 C262 1.381 . S
C263 C264 1.321 . S
C264 C263 1.321 . S
C264 C265 1.403 . S
C264 H290 0.934 . S
C265 C260 1.413 . S
C265 C264 1.403 . S
C265 H291 0.930 . S
C266 O280 1.275 1_545 S
C266 O281 1.256 . S
C267 O282 1.259 1_455 S
C267 O283 1.268 . S
C268 Ho257 2.811 . S
C268 C269 1.488 . S
C268 O284 1.215 . S
C268 O285 1.316 . S
C269 C268 1.488 . S
C269 C270 1.348 . S
C269 C274 1.413 . S
C270 C269 1.348 . S
C270 C271 1.442 . S
C270 H292 0.930 1_655 S
C271 C270 1.442 . S
C271 C272 1.381 . S
C271 H293 0.931 1_655 S
C272 C271 1.381 . S
C272 C273 1.321 . S
C273 C272 1.321 . S
C273 C274 1.403 . S
C273 H294 0.934 . S
C274 C269 1.413 . S
C274 C273 1.403 . S
C274 H295 0.930 . S
C275 O286 1.275 . S
C275 O287 1.256 1_545 S
O276 Ho256 2.322 . S
O276 C258 1.259 1_455 S
O277 Ho257 2.346 1_565 S
O277 C258 1.268 . S
O278 Ho256 2.378 . S
O278 C259 1.215 . S
O279 Ho256 2.541 . S
O279 C259 1.329 . S
O280 Ho256 2.381 . S
O280 C266 1.275 1_565 S
O281 Ho256 2.669 1_545 S
O281 Ho257 2.305 1_455 S
O281 C266 1.256 . S
O282 Ho257 2.322 . S
O282 C267 1.259 1_655 S
O283 Ho256 2.346 1_545 S
O283 C267 1.268 . S
O284 Ho257 2.378 . S
O284 C268 1.215 . S
O285 Ho257 2.535 . S
O285 C268 1.316 . S
O286 Ho257 2.381 . S
O286 C275 1.275 . S
O287 Ho256 2.305 1_655 S
O287 Ho257 2.669 1_565 S
O287 C275 1.256 1_565 S
H288 C261 0.930 1_655 S
H289 C262 0.931 1_655 S
H290 C264 0.934 . S
H291 C265 0.930 . S
H292 C270 0.930 1_455 S
H293 C271 0.931 1_455 S
H294 C273 0.934 . S
H295 C274 0.930 . S
Ho296 C299 2.811 . S
Ho296 O316 2.322 . S
Ho296 O318 2.378 . S
Ho296 O319 2.524 . S
Ho296 O320 2.381 . S
Ho296 O321 2.669 . S
Ho296 O323 2.346 . S
Ho296 O327 2.305 1_545 S
Ho297 C308 2.811 . S
Ho297 O317 2.346 . S
Ho297 O321 2.305 1_565 S
Ho297 O322 2.322 . S
Ho297 O324 2.378 . S
Ho297 O325 2.524 1_565 S
Ho297 O326 2.381 . S
Ho297 O327 2.669 . S
C298 O316 1.259 1_565 S
C298 O317 1.268 . S
C299 Ho296 2.811 . S
C299 C300 1.488 . S
C299 O318 1.215 . S
C299 O319 1.289 . S
C300 C299 1.488 . S
C300 C301 1.348 . S
C300 C305 1.413 . S
C301 C300 1.348 . S
C301 C302 1.442 . S
C301 H328 0.930 1_545 S
C302 C301 1.442 . S
C302 C303 1.381 . S
C302 H329 0.931 1_545 S
C303 C302 1.381 . S
C303 C304 1.321 . S
C304 C303 1.321 . S
C304 C305 1.403 . S
C304 H330 0.934 . S
C305 C300 1.413 . S
C305 C304 1.403 . S
C305 H331 0.930 . S
C306 O320 1.275 . S
C306 O321 1.256 . S
C307 O322 1.259 1_545 S
C307 O323 1.268 . S
C308 Ho297 2.811 . S
C308 C309 1.488 . S
C308 O324 1.215 . S
C308 O325 1.289 1_565 S
C309 C308 1.488 . S
C309 C310 1.348 . S
C309 C314 1.413 . S
C310 C309 1.348 . S
C310 C311 1.442 . S
C310 H332 0.930 1_565 S
C311 C310 1.442 . S
C311 C312 1.381 . S
C311 H333 0.931 1_565 S
C312 C311 1.381 . S
C312 C313 1.321 . S
C313 C312 1.321 . S
C313 C314 1.403 . S
C313 H334 0.934 . S
C314 C309 1.413 . S
C314 C313 1.403 . S
C314 H335 0.930 . S
C315 O326 1.275 . S
C315 O327 1.256 . S
O316 Ho296 2.322 . S
O316 C298 1.259 1_545 S
O317 Ho297 2.346 . S
O317 C298 1.268 . S
O318 Ho296 2.378 . S
O318 C299 1.215 . S
O319 Ho296 2.524 . S
O319 C299 1.289 . S
O320 Ho296 2.381 . S
O320 C306 1.275 . S
O321 Ho296 2.669 . S
O321 Ho297 2.305 1_545 S
O321 C306 1.256 . S
O322 Ho297 2.322 . S
O322 C307 1.259 1_565 S
O323 Ho296 2.346 . S
O323 C307 1.268 . S
O324 Ho297 2.378 . S
O324 C308 1.215 . S
O325 Ho297 2.524 1_545 S
O325 C308 1.289 1_545 S
O326 Ho297 2.381 . S
O326 C315 1.275 . S
O327 Ho296 2.305 1_565 S
O327 Ho297 2.669 . S
O327 C315 1.256 . S
H328 C301 0.930 1_565 S
H329 C302 0.931 1_565 S
H330 C304 0.934 . S
H331 C305 0.930 . S
H332 C310 0.930 1_545 S
H333 C311 0.931 1_545 S
H334 C313 0.934 . S
H335 C314 0.930 . S
Ho336 C339 2.811 . S
Ho336 O356 2.322 . S
Ho336 O358 2.378 . S
Ho336 O359 2.524 . S
Ho336 O360 2.381 . S
Ho336 O361 2.669 . S
Ho336 O363 2.346 . S
Ho336 O367 2.305 . S
Ho337 C348 2.811 . S
Ho337 O357 2.346 . S
Ho337 O361 2.305 . S
Ho337 O362 2.322 . S
Ho337 O364 2.378 . S
Ho337 O365 2.524 . S
Ho337 O366 2.381 . S
Ho337 O367 2.669 . S
C338 O356 1.259 . S
C338 O357 1.268 . S
C339 Ho336 2.811 . S
C339 C340 1.488 . S
C339 O358 1.215 . S
C339 O359 1.289 . S
C340 C339 1.488 . S
C340 C341 1.348 . S
C340 C345 1.413 . S
C341 C340 1.348 . S
C341 C342 1.442 . S
C341 H368 0.930 . S
C342 C341 1.442 . S
C342 C343 1.381 . S
C342 H369 0.931 . S
C343 C342 1.381 . S
C343 C344 1.321 . S
C344 C343 1.321 . S
C344 C345 1.403 . S
C344 H370 0.934 . S
C345 C340 1.413 . S
C345 C344 1.403 . S
C345 H371 0.930 . S
C346 O360 1.275 . S
C346 O361 1.256 . S
C347 O362 1.259 . S
C347 O363 1.268 . S
C348 Ho337 2.811 . S
C348 C349 1.488 . S
C348 O364 1.215 . S
C348 O365 1.289 . S
C349 C348 1.488 . S
C349 C350 1.348 . S
C349 C354 1.413 . S
C350 C349 1.348 . S
C350 C351 1.442 . S
C350 H372 0.930 . S
C351 C350 1.442 . S
C351 C352 1.381 . S
C351 H373 0.931 . S
C352 C351 1.381 . S
C352 C353 1.321 . S
C353 C352 1.321 . S
C353 C354 1.403 . S
C353 H374 0.934 . S
C354 C349 1.413 . S
C354 C353 1.403 . S
C354 H375 0.930 . S
C355 O366 1.275 . S
C355 O367 1.256 . S
O356 Ho336 2.322 . S
O356 C338 1.259 . S
O357 Ho337 2.346 . S
O357 C338 1.268 . S
O358 Ho336 2.378 . S
O358 C339 1.215 . S
O359 Ho336 2.524 . S
O359 C339 1.289 . S
O360 Ho336 2.381 . S
O360 C346 1.275 . S
O361 Ho336 2.669 . S
O361 Ho337 2.305 . S
O361 C346 1.256 . S
O362 Ho337 2.322 . S
O362 C347 1.259 . S
O363 Ho336 2.346 . S
O363 C347 1.268 . S
O364 Ho337 2.378 . S
O364 C348 1.215 . S
O365 Ho337 2.524 . S
O365 C348 1.289 . S
O366 Ho337 2.381 . S
O366 C355 1.275 . S
O367 Ho336 2.305 . S
O367 Ho337 2.669 . S
O367 C355 1.256 . S
H368 C341 0.930 . S
H369 C342 0.931 . S
H370 C344 0.934 . S
H371 C345 0.930 . S
H372 C350 0.930 . S
H373 C351 0.931 . S
H374 C353 0.934 . S
H375 C354 0.930 . S
Ho376 C379 2.811 . S
Ho376 O396 2.322 . S
Ho376 O398 2.378 . S
Ho376 O399 2.524 . S
Ho376 O400 2.381 . S
Ho376 O401 2.669 1_655 S
Ho376 O403 2.346 1_655 S
Ho376 O407 2.305 . S
Ho377 C388 2.811 . S
Ho377 O397 2.346 1_455 S
Ho377 O401 2.305 . S
Ho377 O402 2.322 . S
Ho377 O404 2.378 . S
Ho377 O405 2.524 . S
Ho377 O406 2.381 . S
Ho377 O407 2.669 1_455 S
C378 O396 1.259 . S
C378 O397 1.268 . S
C379 Ho376 2.811 . S
C379 C380 1.488 . S
C379 O398 1.215 . S
C379 O399 1.289 . S
C380 C379 1.488 . S
C380 C381 1.348 . S
C380 C385 1.413 . S
C381 C380 1.348 . S
C381 C382 1.442 . S
C381 H408 0.930 . S
C382 C381 1.442 . S
C382 C383 1.381 . S
C382 H409 0.931 . S
C383 C382 1.381 . S
C383 C384 1.321 . S
C384 C383 1.321 . S
C384 C385 1.403 . S
C384 H410 0.934 . S
C385 C380 1.413 . S
C385 C384 1.403 . S
C385 H411 0.930 . S
C386 O400 1.275 . S
C386 O401 1.256 1_655 S
C387 O402 1.259 . S
C387 O403 1.268 . S
C388 Ho377 2.811 . S
C388 C389 1.488 . S
C388 O404 1.215 . S
C388 O405 1.289 . S
C389 C388 1.488 . S
C389 C390 1.348 . S
C389 C394 1.413 . S
C390 C389 1.348 . S
C390 C391 1.442 . S
C390 H412 0.930 . S
C391 C390 1.442 . S
C391 C392 1.381 . S
C391 H413 0.931 . S
C392 C391 1.381 . S
C392 C393 1.321 . S
C393 C392 1.321 . S
C393 C394 1.403 . S
C393 H414 0.934 . S
C394 C389 1.413 . S
C394 C393 1.403 . S
C394 H415 0.930 . S
C395 O406 1.275 . S
C395 O407 1.256 1_455 S
O396 Ho376 2.322 . S
O396 C378 1.259 . S
O397 Ho377 2.346 1_655 S
O397 C378 1.268 . S
O398 Ho376 2.378 . S
O398 C379 1.215 . S
O399 Ho376 2.524 . S
O399 C379 1.289 . S
O400 Ho376 2.381 . S
O400 C386 1.275 . S
O401 Ho376 2.669 1_455 S
O401 Ho377 2.305 . S
O401 C386 1.256 1_455 S
O402 Ho377 2.322 . S
O402 C387 1.259 . S
O403 Ho376 2.346 1_455 S
O403 C387 1.268 . S
O404 Ho377 2.378 . S
O404 C388 1.215 . S
O405 Ho377 2.524 . S
O405 C388 1.289 . S
O406 Ho377 2.381 . S
O406 C395 1.275 . S
O407 Ho376 2.305 . S
O407 Ho377 2.669 1_655 S
O407 C395 1.256 1_655 S
H408 C381 0.930 . S
H409 C382 0.931 . S
H410 C384 0.934 . S
H411 C385 0.930 . S
H412 C390 0.930 . S
H413 C391 0.931 . S
H414 C393 0.934 . S
H415 C394 0.930 . S
H416 C434 0.951 . S
H417 C436 0.951 . S
H418 C438 0.950 . S
H419 C439 0.950 . S
H420 C441 0.950 . S
H421 C444 0.950 . S
H422 C445 0.950 . S
H423 C447 0.950 . S
H424 C448 0.950 . S
H425 C449 0.951 . S
H426 C451 0.951 . S
H427 C453 0.950 . S
H428 C454 0.950 . S
H429 C456 0.950 . S
H430 C459 0.950 . S
H431 C460 0.950 . S
H432 C462 0.950 . S
H433 C463 0.950 . S
C434 H416 0.951 . S
C434 C435 1.366 . S
C434 C436 1.388 . S
C435 C434 1.366 . S
C435 C439 1.385 1_545 S
C436 H417 0.951 . S
C436 C434 1.388 . S
C436 C437 1.366 . S
C437 C436 1.366 . S
C437 C438 1.414 1_545 S
C437 C440 1.499 . S
C438 H418 0.950 . S
C438 C437 1.414 1_565 S
C438 C439 1.374 . S
C439 H419 0.950 . S
C439 C435 1.385 1_565 S
C439 C438 1.374 . S
C440 C437 1.499 . S
C440 C441 1.373 1_545 S
C440 C442 1.389 . S
C441 H420 0.950 . S
C441 C440 1.373 1_565 S
C441 C457 1.377 . S
C442 C440 1.389 . S
C442 C443 1.524 . S
C442 C456 1.377 . S
C443 C442 1.524 . S
C443 C444 1.397 . S
C443 C448 1.363 . S
C444 H421 0.950 . S
C444 C443 1.397 . S
C444 C445 1.334 . S
C445 H422 0.950 . S
C445 C444 1.334 . S
C445 C446 1.287 . S
C446 C445 1.287 . S
C446 C447 1.524 . S
C446 H465 0.913 . S
C447 H423 0.950 . S
C447 C446 1.524 . S
C447 C448 1.415 . S
C448 H424 0.950 . S
C448 C443 1.363 . S
C448 C447 1.415 . S
C449 H425 0.951 . S
C449 C450 1.366 1_565 S
C449 C451 1.388 . S
C450 C449 1.366 1_545 S
C450 C454 1.385 . S
C451 H426 0.951 . S
C451 C449 1.388 . S
C451 C452 1.366 1_565 S
C452 C451 1.366 1_545 S
C452 C453 1.414 . S
C452 C455 1.499 . S
C453 H427 0.950 . S
C453 C452 1.414 . S
C453 C454 1.374 . S
C454 H428 0.950 . S
C454 C450 1.385 . S
C454 C453 1.374 . S
C455 C452 1.499 . S
C455 C456 1.373 . S
C455 C457 1.389 1_545 S
C456 H429 0.950 . S
C456 C442 1.377 . S
C456 C455 1.373 . S
C457 C441 1.377 . S
C457 C455 1.389 1_565 S
C457 C458 1.524 . S
C458 C457 1.524 . S
C458 C459 1.397 . S
C458 C463 1.363 . S
C459 H430 0.950 . S
C459 C458 1.397 . S
C459 C460 1.334 . S
C460 H431 0.950 . S
C460 C459 1.334 . S
C460 C461 1.287 . S
C461 C460 1.287 . S
C461 C462 1.524 . S
C461 H464 0.999 . S
C462 H432 0.950 . S
C462 C461 1.524 . S
C462 C463 1.415 . S
C463 H433 0.950 . S
C463 C458 1.363 . S
C463 C462 1.415 . S
H464 C461 0.999 . S
H465 C446 0.913 . S
H466 C484 0.951 . S
H467 C486 0.951 . S
H468 C488 0.950 . S
H469 C489 0.950 . S
H470 C491 0.950 . S
H471 C494 0.950 . S
H472 C495 0.950 . S
H473 C497 0.950 . S
H474 C498 0.950 . S
H475 C499 0.951 . S
H476 C501 0.951 . S
H477 C503 0.950 . S
H478 C504 0.950 . S
H479 C506 0.950 . S
H480 C509 0.950 . S
H481 C510 0.950 . S
H482 C512 0.950 . S
H483 C513 0.950 . S
C484 H466 0.951 . S
C484 C485 1.366 . S
C484 C486 1.388 . S
C485 C484 1.366 . S
C485 C489 1.385 . S
C486 H467 0.951 . S
C486 C484 1.388 . S
C486 C487 1.366 . S
C487 C486 1.366 . S
C487 C488 1.414 . S
C487 C490 1.499 . S
C488 H468 0.950 . S
C488 C487 1.414 . S
C488 C489 1.374 . S
C489 H469 0.950 . S
C489 C485 1.385 . S
C489 C488 1.374 . S
C490 C487 1.499 . S
C490 C491 1.373 . S
C490 C492 1.389 . S
C491 H470 0.950 . S
C491 C490 1.373 . S
C491 C507 1.377 . S
C492 C490 1.389 . S
C492 C493 1.524 . S
C492 C506 1.377 . S
C493 C492 1.524 . S
C493 C494 1.397 . S
C493 C498 1.363 . S
C494 H471 0.950 . S
C494 C493 1.397 . S
C494 C495 1.334 . S
C495 H472 0.950 . S
C495 C494 1.334 . S
C495 C496 1.287 . S
C496 C495 1.287 . S
C496 C497 1.524 . S
C496 H515 0.913 . S
C497 H473 0.950 . S
C497 C496 1.524 . S
C497 C498 1.415 . S
C498 H474 0.950 . S
C498 C493 1.363 . S
C498 C497 1.415 . S
C499 H475 0.951 . S
C499 C500 1.366 . S
C499 C501 1.388 . S
C500 C499 1.366 . S
C500 C504 1.385 . S
C501 H476 0.951 . S
C501 C499 1.388 . S
C501 C502 1.366 . S
C502 C501 1.366 . S
C502 C503 1.414 . S
C502 C505 1.499 . S
C503 H477 0.950 . S
C503 C502 1.414 . S
C503 C504 1.374 . S
C504 H478 0.950 . S
C504 C500 1.385 . S
C504 C503 1.374 . S
C505 C502 1.499 . S
C505 C506 1.373 . S
C505 C507 1.389 . S
C506 H479 0.950 . S
C506 C492 1.377 . S
C506 C505 1.373 . S
C507 C491 1.377 . S
C507 C505 1.389 . S
C507 C508 1.524 . S
C508 C507 1.524 . S
C508 C509 1.397 . S
C508 C513 1.363 . S
C509 H480 0.950 . S
C509 C508 1.397 . S
C509 C510 1.334 . S
C510 H481 0.950 . S
C510 C509 1.334 . S
C510 C511 1.287 . S
C511 C510 1.287 . S
C511 C512 1.524 . S
C511 H514 0.999 . S
C512 H482 0.950 . S
C512 C511 1.524 . S
C512 C513 1.415 . S
C513 H483 0.950 . S
C513 C508 1.363 . S
C513 C512 1.415 . S
H514 C511 0.999 . S
H515 C496 0.913 . S
H516 C534 0.951 . S
H517 C536 0.951 . S
H518 C538 0.950 . S
H519 C539 0.950 . S
H520 C541 0.950 . S
H521 C544 0.950 . S
H522 C545 0.950 . S
H523 C547 0.950 . S
H524 C548 0.950 . S
H525 C549 0.951 . S
H526 C551 0.951 . S
H527 C553 0.950 . S
H528 C554 0.950 . S
H529 C556 0.950 . S
H530 C559 0.950 . S
H531 C560 0.950 . S
H532 C562 0.950 . S
H533 C563 0.950 . S
C534 H516 0.951 . S
C534 C535 1.366 . S
C534 C536 1.388 . S
C535 C534 1.366 . S
C535 C539 1.385 . S
C536 H517 0.951 . S
C536 C534 1.388 . S
C536 C537 1.366 . S
C537 C536 1.366 . S
C537 C538 1.414 . S
C537 C540 1.499 . S
C538 H518 0.950 . S
C538 C537 1.414 . S
C538 C539 1.374 . S
C539 H519 0.950 . S
C539 C535 1.385 . S
C539 C538 1.374 . S
C540 C537 1.499 . S
C540 C541 1.373 . S
C540 C542 1.389 . S
C541 H520 0.950 . S
C541 C540 1.373 . S
C541 C557 1.377 . S
C542 C540 1.389 . S
C542 C543 1.524 . S
C542 C556 1.377 . S
C543 C542 1.524 . S
C543 C544 1.397 . S
C543 C548 1.363 . S
C544 H521 0.950 . S
C544 C543 1.397 . S
C544 C545 1.334 . S
C545 H522 0.950 . S
C545 C544 1.334 . S
C545 C546 1.287 . S
C546 C545 1.287 . S
C546 C547 1.524 . S
C546 H565 0.913 . S
C547 H523 0.950 . S
C547 C546 1.524 . S
C547 C548 1.415 . S
C548 H524 0.950 . S
C548 C543 1.363 . S
C548 C547 1.415 . S
C549 H525 0.951 . S
C549 C550 1.366 . S
C549 C551 1.388 . S
C550 C549 1.366 . S
C550 C554 1.385 . S
C551 H526 0.951 . S
C551 C549 1.388 . S
C551 C552 1.366 . S
C552 C551 1.366 . S
C552 C553 1.414 . S
C552 C555 1.499 . S
C553 H527 0.950 . S
C553 C552 1.414 . S
C553 C554 1.374 . S
C554 H528 0.950 . S
C554 C550 1.385 . S
C554 C553 1.374 . S
C555 C552 1.499 . S
C555 C556 1.373 . S
C555 C557 1.389 . S
C556 H529 0.950 . S
C556 C542 1.377 . S
C556 C555 1.373 . S
C557 C541 1.377 . S
C557 C555 1.389 . S
C557 C558 1.524 . S
C558 C557 1.524 . S
C558 C559 1.397 . S
C558 C563 1.363 . S
C559 H530 0.950 . S
C559 C558 1.397 . S
C559 C560 1.334 . S
C560 H531 0.950 . S
C560 C559 1.334 . S
C560 C561 1.287 . S
C561 C560 1.287 . S
C561 C562 1.524 . S
C561 H564 0.999 . S
C562 H532 0.950 . S
C562 C561 1.524 . S
C562 C563 1.415 . S
C563 H533 0.950 . S
C563 C558 1.363 . S
C563 C562 1.415 . S
H564 C561 0.999 . S
H565 C546 0.913 . S
H566 C584 0.951 . S
H567 C586 0.951 . S
H568 C588 0.950 . S
H569 C589 0.950 . S
H570 C591 0.950 . S
H571 C594 0.950 . S
H572 C595 0.950 . S
H573 C597 0.950 . S
H574 C598 0.950 . S
H575 C599 0.951 . S
H576 C601 0.951 . S
H577 C603 0.950 . S
H578 C604 0.950 . S
H579 C606 0.950 . S
H580 C609 0.950 . S
H581 C610 0.950 . S
H582 C612 0.950 . S
H583 C613 0.950 . S
C584 H566 0.951 . S
C584 C585 1.366 . S
C584 C586 1.388 . S
C585 C584 1.366 . S
C585 C589 1.384 1_455 S
C586 H567 0.951 . S
C586 C584 1.388 . S
C586 C587 1.366 . S
C587 C586 1.366 . S
C587 C588 1.414 1_455 S
C587 C590 1.499 . S
C588 H568 0.950 . S
C588 C587 1.414 1_655 S
C588 C589 1.374 . S
C589 H569 0.950 . S
C589 C585 1.384 1_655 S
C589 C588 1.374 . S
C590 C587 1.499 . S
C590 C591 1.373 1_455 S
C590 C592 1.389 . S
C591 H570 0.950 . S
C591 C590 1.373 1_655 S
C591 C607 1.377 . S
C592 C590 1.389 . S
C592 C593 1.524 . S
C592 C606 1.377 . S
C593 C592 1.524 . S
C593 C594 1.397 . S
C593 C598 1.363 . S
C594 H571 0.950 . S
C594 C593 1.397 . S
C594 C595 1.334 . S
C595 H572 0.950 . S
C595 C594 1.334 . S
C595 C596 1.287 . S
C596 C595 1.287 . S
C596 C597 1.524 . S
C596 H615 0.913 . S
C597 H573 0.950 . S
C597 C596 1.524 . S
C597 C598 1.415 . S
C598 H574 0.950 . S
C598 C593 1.363 . S
C598 C597 1.415 . S
C599 H575 0.951 . S
C599 C600 1.366 1_655 S
C599 C601 1.388 . S
C600 C599 1.366 1_455 S
C600 C604 1.385 . S
C601 H576 0.951 . S
C601 C599 1.388 . S
C601 C602 1.366 . S
C602 C601 1.366 . S
C602 C603 1.413 1_655 S
C602 C605 1.499 . S
C603 H577 0.950 . S
C603 C602 1.413 1_455 S
C603 C604 1.374 . S
C604 H578 0.950 . S
C604 C600 1.385 . S
C604 C603 1.374 . S
C605 C602 1.499 . S
C605 C606 1.361 1_655 S
C605 C607 1.401 . S
C606 H579 0.950 . S
C606 C592 1.377 . S
C606 C605 1.361 1_455 S
C607 C591 1.377 . S
C607 C605 1.401 . S
C607 C608 1.524 . S
C608 C607 1.524 . S
C608 C609 1.397 . S
C608 C613 1.363 . S
C609 H580 0.950 . S
C609 C608 1.397 . S
C609 C610 1.334 . S
C610 H581 0.950 . S
C610 C609 1.334 . S
C610 C611 1.287 . S
C611 C610 1.287 . S
C611 C612 1.524 . S
C611 H614 0.999 . S
C612 H582 0.950 . S
C612 C611 1.524 . S
C612 C613 1.415 . S
C613 H583 0.950 . S
C613 C608 1.363 . S
C613 C612 1.415 . S
H614 C611 0.999 . S
H615 C596 0.913 . S
H616 C634 0.951 . S
H617 C636 0.951 . S
H618 C638 0.950 . S
H619 C639 0.950 . S
H620 C641 0.950 1_554 S
H621 C644 0.950 . S
H622 C645 0.950 . S
H623 C647 0.950 . S
H624 C648 0.950 . S
H625 C649 0.951 1_545 S
H626 C651 0.949 . S
H627 C653 0.950 . S
H628 C654 0.950 . S
H629 C656 0.950 . S
H630 C659 0.950 . S
H631 C660 0.950 . S
H632 C662 0.950 . S
H633 C663 0.950 . S
C634 H616 0.951 . S
C634 C635 1.366 . S
C634 C636 1.388 . S
C635 C634 1.366 . S
C635 C639 1.385 . S
C636 H617 0.951 . S
C636 C634 1.388 . S
C636 C637 1.366 . S
C637 C636 1.366 . S
C637 C638 1.414 . S
C637 C640 1.499 . S
C638 H618 0.950 . S
C638 C637 1.414 . S
C638 C639 1.374 . S
C639 H619 0.950 . S
C639 C635 1.385 . S
C639 C638 1.374 . S
C640 C637 1.499 . S
C640 C641 1.371 1_554 S
C640 C642 1.389 1_565 S
C641 H620 0.950 1_556 S
C641 C640 1.371 1_556 S
C641 C657 1.379 . S
C642 C640 1.389 1_545 S
C642 C643 1.524 . S
C642 C656 1.377 1_554 S
C643 C642 1.524 . S
C643 C644 1.397 . S
C643 C648 1.363 . S
C644 H621 0.950 . S
C644 C643 1.397 . S
C644 C645 1.334 . S
C645 H622 0.950 . S
C645 C644 1.334 . S
C645 C646 1.287 . S
C646 C645 1.287 . S
C646 C647 1.524 . S
C646 H665 0.913 . S
C647 H623 0.950 . S
C647 C646 1.524 . S
C647 C648 1.415 . S
C648 H624 0.950 . S
C648 C643 1.363 . S
C648 C647 1.415 . S
C649 H625 0.951 1_565 S
C649 C650 1.364 . S
C649 C651 1.386 . S
C650 C649 1.364 . S
C650 C654 1.390 . S
C651 H626 0.949 . S
C651 C649 1.386 . S
C651 C652 1.373 . S
C652 C651 1.373 . S
C652 C653 1.414 . S
C652 C655 1.499 . S
C653 H627 0.950 . S
C653 C652 1.414 . S
C653 C654 1.374 . S
C654 H628 0.950 . S
C654 C650 1.390 . S
C654 C653 1.374 . S
C655 C652 1.499 . S
C655 C656 1.373 1_565 S
C655 C657 1.389 . S
C656 H629 0.950 . S
C656 C642 1.377 1_556 S
C656 C655 1.373 1_545 S
C657 C641 1.379 . S
C657 C655 1.389 . S
C657 C658 1.524 . S
C658 C657 1.524 . S
C658 C659 1.397 . S
C658 C663 1.363 . S
C659 H630 0.950 . S
C659 C658 1.397 . S
C659 C660 1.334 . S
C660 H631 0.950 . S
C660 C659 1.334 . S
C660 C661 1.287 . S
C661 C660 1.287 . S
C661 C662 1.524 . S
C661 H664 0.999 . S
C662 H632 0.950 . S
C662 C661 1.524 . S
C662 C663 1.415 . S
C663 H633 0.950 . S
C663 C658 1.363 . S
C663 C662 1.415 . S
H664 C661 0.999 . S
H665 C646 0.913 . S
H666 C684 0.951 . S
H667 C686 0.951 . S
H668 C688 0.950 . S
H669 C689 0.950 . S
H670 C691 0.950 . S
H671 C694 0.950 . S
H672 C695 0.950 . S
H673 C697 0.950 1_556 S
H674 C698 0.950 . S
H675 C699 0.951 . S
H676 C701 0.951 . S
H677 C703 0.950 . S
H678 C704 0.950 . S
H679 C706 0.950 . S
H680 C709 0.950 . S
H681 C710 0.950 . S
H682 C712 0.950 1_554 S
H683 C713 0.950 1_554 S
C684 H666 0.951 . S
C684 C685 1.366 . S
C684 C686 1.388 . S
C685 C684 1.366 . S
C685 C689 1.385 . S
C686 H667 0.951 . S
C686 C684 1.388 . S
C686 C687 1.366 . S
C687 C686 1.366 . S
C687 C688 1.414 . S
C687 C690 1.499 . S
C688 H668 0.950 . S
C688 C687 1.414 . S
C688 C689 1.374 . S
C689 H669 0.950 . S
C689 C685 1.385 . S
C689 C688 1.374 . S
C690 C687 1.499 . S
C690 C691 1.373 . S
C690 C692 1.389 . S
C691 H670 0.950 . S
C691 C690 1.373 . S
C691 C707 1.377 1_554 S
C692 C690 1.389 . S
C692 C693 1.524 . S
C692 C706 1.377 1_554 S
C693 C692 1.524 . S
C693 C694 1.397 . S
C693 C698 1.363 1_554 S
C694 H671 0.950 . S
C694 C693 1.397 . S
C694 C695 1.334 . S
C695 H672 0.950 . S
C695 C694 1.334 . S
C695 C696 1.287 . S
C696 C695 1.287 . S
C696 C697 1.524 . S
C696 H715 0.913 . S
C697 H673 0.950 1_554 S
C697 C696 1.524 . S
C697 C698 1.415 1_554 S
C698 H674 0.950 . S
C698 C693 1.363 1_556 S
C698 C697 1.415 1_556 S
C699 H675 0.951 . S
C699 C700 1.366 . S
C699 C701 1.388 . S
C700 C699 1.366 . S
C700 C704 1.385 . S
C701 H676 0.951 . S
C701 C699 1.388 . S
C701 C702 1.366 . S
C702 C701 1.366 . S
C702 C703 1.414 . S
C702 C705 1.499 . S
C703 H677 0.950 . S
C703 C702 1.414 . S
C703 C704 1.374 . S
C704 H678 0.950 . S
C704 C700 1.385 . S
C704 C703 1.374 . S
C705 C702 1.499 . S
C705 C706 1.373 . S
C705 C707 1.389 . S
C706 H679 0.950 . S
C706 C692 1.377 1_556 S
C706 C705 1.373 . S
C707 C691 1.377 1_556 S
C707 C705 1.389 . S
C707 C708 1.524 . S
C708 C707 1.524 . S
C708 C709 1.397 . S
C708 C713 1.363 . S
C709 H680 0.950 . S
C709 C708 1.397 . S
C709 C710 1.334 . S
C710 H681 0.950 . S
C710 C709 1.334 . S
C710 C711 1.287 . S
C711 C710 1.287 . S
C711 C712 1.524 . S
C711 H714 0.999 . S
C712 H682 0.950 1_556 S
C712 C711 1.524 . S
C712 C713 1.415 . S
C713 H683 0.950 1_556 S
C713 C708 1.363 . S
C713 C712 1.415 . S
H714 C711 0.999 . S
H715 C696 0.913 . S
H716 C734 0.951 . S
H717 C736 0.951 . S
H718 C738 0.950 . S
H719 C739 0.950 . S
H720 C741 0.950 . S
H721 C744 0.950 . S
H722 C745 0.950 . S
H723 C747 0.950 . S
H724 C748 0.950 . S
H725 C749 0.951 . S
H726 C751 0.951 . S
H727 C753 0.950 . S
H728 C754 0.950 . S
H729 C756 0.950 . S
H730 C759 0.950 . S
H731 C760 0.950 . S
H732 C762 0.950 . S
H733 C763 0.950 . S
C734 H716 0.951 . S
C734 C735 1.366 . S
C734 C736 1.388 . S
C735 C734 1.366 . S
C735 C739 1.385 . S
C736 H717 0.951 . S
C736 C734 1.388 . S
C736 C737 1.366 . S
C737 C736 1.366 . S
C737 C738 1.414 . S
C737 C740 1.499 . S
C738 H718 0.950 . S
C738 C737 1.414 . S
C738 C739 1.374 . S
C739 H719 0.950 . S
C739 C735 1.385 . S
C739 C738 1.374 . S
C740 C737 1.499 . S
C740 C741 1.373 . S
C740 C742 1.389 . S
C741 H720 0.950 . S
C741 C740 1.373 . S
C741 C757 1.377 1_554 S
C742 C740 1.389 . S
C742 C743 1.524 . S
C742 C756 1.377 1_554 S
C743 C742 1.524 . S
C743 C744 1.397 . S
C743 C748 1.363 . S
C744 H721 0.950 . S
C744 C743 1.397 . S
C744 C745 1.334 . S
C745 H722 0.950 . S
C745 C744 1.334 . S
C745 C746 1.287 . S
C746 C745 1.287 . S
C746 C747 1.524 . S
C746 H765 0.913 . S
C747 H723 0.950 . S
C747 C746 1.524 . S
C747 C748 1.415 . S
C748 H724 0.950 . S
C748 C743 1.363 . S
C748 C747 1.415 . S
C749 H725 0.951 . S
C749 C750 1.366 . S
C749 C751 1.388 . S
C750 C749 1.366 . S
C750 C754 1.385 . S
C751 H726 0.951 . S
C751 C749 1.388 . S
C751 C752 1.366 . S
C752 C751 1.366 . S
C752 C753 1.414 . S
C752 C755 1.499 . S
C753 H727 0.950 . S
C753 C752 1.414 . S
C753 C754 1.374 . S
C754 H728 0.950 . S
C754 C750 1.385 . S
C754 C753 1.374 . S
C755 C752 1.499 . S
C755 C756 1.373 . S
C755 C757 1.389 . S
C756 H729 0.950 . S
C756 C742 1.377 1_556 S
C756 C755 1.373 . S
C757 C741 1.377 1_556 S
C757 C755 1.389 . S
C757 C758 1.524 . S
C758 C757 1.524 . S
C758 C759 1.397 . S
C758 C763 1.363 . S
C759 H730 0.950 . S
C759 C758 1.397 . S
C759 C760 1.334 . S
C760 H731 0.950 . S
C760 C759 1.334 . S
C760 C761 1.287 . S
C761 C760 1.287 . S
C761 C762 1.524 . S
C761 H764 0.999 . S
C762 H732 0.950 . S
C762 C761 1.524 . S
C762 C763 1.415 . S
C763 H733 0.950 . S
C763 C758 1.363 . S
C763 C762 1.415 . S
H764 C761 0.999 . S
H765 C746 0.913 . S
H766 C784 0.951 . S
H767 C786 0.951 . S
H768 C788 0.950 . S
H769 C789 0.950 . S
H770 C791 0.950 . S
H771 C794 0.950 . S
H772 C795 0.950 . S
H773 C797 0.950 . S
H774 C798 0.950 . S
H775 C799 0.951 . S
H776 C801 0.951 . S
H777 C803 0.950 . S
H778 C804 0.950 . S
H779 C806 0.950 . S
H780 C809 0.950 . S
H781 C810 0.950 . S
H782 C812 0.950 . S
H783 C813 0.950 . S
C784 H766 0.951 . S
C784 C785 1.361 1_455 S
C784 C786 1.388 . S
C785 C784 1.361 1_655 S
C785 C789 1.389 . S
C786 H767 0.951 . S
C786 C784 1.388 . S
C786 C787 1.373 . S
C787 C786 1.373 . S
C787 C788 1.406 1_455 S
C787 C790 1.498 1_455 S
C788 H768 0.950 . S
C788 C787 1.406 1_655 S
C788 C789 1.374 . S
C789 H769 0.950 . S
C789 C785 1.389 . S
C789 C788 1.374 . S
C790 C787 1.498 1_655 S
C790 C791 1.378 . S
C790 C792 1.384 1_655 S
C791 H770 0.950 . S
C791 C790 1.378 . S
C791 C807 1.377 1_554 S
C792 C790 1.384 1_455 S
C792 C793 1.524 . S
C792 C806 1.377 1_554 S
C793 C792 1.524 . S
C793 C794 1.397 . S
C793 C798 1.363 . S
C794 H771 0.950 . S
C794 C793 1.397 . S
C794 C795 1.334 . S
C795 H772 0.950 . S
C795 C794 1.334 . S
C795 C796 1.287 . S
C796 C795 1.287 . S
C796 C797 1.524 . S
C796 H815 0.913 . S
C797 H773 0.950 . S
C797 C796 1.524 . S
C797 C798 1.415 . S
C798 H774 0.950 . S
C798 C793 1.363 . S
C798 C797 1.415 . S
C799 H775 0.951 . S
C799 C800 1.404 . S
C799 C801 1.388 . S
C800 C799 1.404 . S
C800 C804 1.348 1_655 S
C801 H776 0.951 . S
C801 C799 1.388 . S
C801 C802 1.366 . S
C802 C801 1.366 . S
C802 C803 1.414 1_655 S
C802 C805 1.501 . S
C803 H777 0.950 . S
C803 C802 1.414 1_455 S
C803 C804 1.374 . S
C804 H778 0.950 . S
C804 C800 1.348 1_455 S
C804 C803 1.374 . S
C805 C802 1.501 . S
C805 C806 1.321 1_655 S
C805 C807 1.441 . S
C806 H779 0.950 . S
C806 C792 1.377 1_556 S
C806 C805 1.321 1_455 S
C807 C791 1.377 1_556 S
C807 C805 1.441 . S
C807 C808 1.524 . S
C808 C807 1.524 . S
C808 C809 1.397 . S
C808 C813 1.363 . S
C809 H780 0.950 . S
C809 C808 1.397 . S
C809 C810 1.334 . S
C810 H781 0.950 . S
C810 C809 1.334 . S
C810 C811 1.287 . S
C811 C810 1.287 . S
C811 C812 1.524 . S
C811 H814 0.999 . S
C812 H782 0.950 . S
C812 C811 1.524 . S
C812 C813 1.415 . S
C813 H783 0.950 . S
C813 C808 1.363 . S
C813 C812 1.415 . S
H814 C811 0.999 . S
H815 C796 0.913 . S
H816 C834 0.951 . S
H817 C836 0.951 . S
H818 C838 0.950 . S
H819 C839 0.950 . S
H820 C841 0.950 . S
H821 C844 0.950 . S
H822 C845 0.950 . S
H823 C847 0.950 . S
H824 C848 0.950 . S
H825 C849 0.951 . S
H826 C851 0.951 . S
H827 C853 0.950 . S
H828 C854 0.950 . S
H829 C856 0.950 . S
H830 C859 0.950 . S
H831 C860 0.950 . S
H832 C862 0.950 . S
H833 C863 0.950 . S
C834 H816 0.951 . S
C834 C835 1.366 1_655 S
C834 C836 1.388 . S
C835 C834 1.366 1_455 S
C835 C839 1.385 . S
C836 H817 0.951 . S
C836 C834 1.388 . S
C836 C837 1.366 . S
C837 C836 1.366 . S
C837 C838 1.422 . S
C837 C840 1.499 . S
C838 H818 0.950 . S
C838 C837 1.422 . S
C838 C839 1.368 1_655 S
C839 H819 0.950 . S
C839 C835 1.385 . S
C839 C838 1.368 1_455 S
C840 C837 1.499 . S
C840 C841 1.373 . S
C840 C842 1.407 . S
C841 H820 0.950 . S
C841 C840 1.373 . S
C841 C857 1.377 . S
C842 C840 1.407 . S
C842 C843 1.495 1_655 S
C842 C856 1.388 . S
C843 C842 1.495 1_455 S
C843 C844 1.397 . S
C843 C848 1.363 . S
C844 H821 0.950 . S
C844 C843 1.397 . S
C844 C845 1.334 . S
C845 H822 0.950 . S
C845 C844 1.334 . S
C845 C846 1.287 . S
C846 C845 1.287 . S
C846 C847 1.524 . S
C846 H865 0.913 . S
C847 H823 0.950 . S
C847 C846 1.524 . S
C847 C848 1.415 . S
C848 H824 0.950 . S
C848 C843 1.363 . S
C848 C847 1.415 . S
C849 H825 0.951 . S
C849 C850 1.366 . S
C849 C851 1.388 . S
C850 C849 1.366 . S
C850 C854 1.385 . S
C851 H826 0.951 . S
C851 C849 1.388 . S
C851 C852 1.366 . S
C852 C851 1.366 . S
C852 C853 1.414 . S
C852 C855 1.499 . S
C853 H827 0.950 . S
C853 C852 1.414 . S
C853 C854 1.374 . S
C854 H828 0.950 . S
C854 C850 1.385 . S
C854 C853 1.374 . S
C855 C852 1.499 . S
C855 C856 1.373 . S
C855 C857 1.389 . S
C856 H829 0.950 . S
C856 C842 1.388 . S
C856 C855 1.373 . S
C857 C841 1.377 . S
C857 C855 1.389 . S
C857 C858 1.524 . S
C858 C857 1.524 . S
C858 C859 1.397 . S
C858 C863 1.363 . S
C859 H830 0.950 . S
C859 C858 1.397 . S
C859 C860 1.334 . S
C860 H831 0.950 . S
C860 C859 1.334 . S
C860 C861 1.287 . S
C861 C860 1.287 . S
C861 C862 1.524 . S
C861 H864 0.999 . S
C862 H832 0.950 . S
C862 C861 1.524 . S
C862 C863 1.415 . S
C863 H833 0.950 . S
C863 C858 1.363 . S
C863 C862 1.415 . S
H864 C861 0.999 . S
H865 C846 0.913 . S
H866 C884 0.951 . S
H867 C886 0.951 . S
H868 C888 0.950 . S
H869 C889 0.950 . S
H870 C891 0.950 . S
H871 C894 0.950 . S
H872 C895 0.950 . S
H873 C897 0.950 . S
H874 C898 0.950 . S
H875 C899 0.951 1_545 S
H876 C901 0.951 1_545 S
H877 C903 0.950 . S
H878 C904 0.950 . S
H879 C906 0.950 . S
H880 C909 0.950 1_565 S
H881 C910 0.950 . S
H882 C912 0.950 . S
H883 C913 0.950 . S
C884 H866 0.951 . S
C884 C885 1.366 1_565 S
C884 C886 1.388 . S
C885 C884 1.366 1_545 S
C885 C889 1.385 . S
C886 H867 0.951 . S
C886 C884 1.388 . S
C886 C887 1.366 1_565 S
C887 C886 1.366 1_545 S
C887 C888 1.414 . S
C887 C890 1.499 1_545 S
C888 H868 0.950 . S
C888 C887 1.414 . S
C888 C889 1.374 . S
C889 H869 0.950 . S
C889 C885 1.385 . S
C889 C888 1.374 . S
C890 C887 1.499 1_565 S
C890 C891 1.373 1_565 S
C890 C892 1.389 . S
C891 H870 0.950 . S
C891 C890 1.373 1_545 S
C891 C907 1.377 . S
C892 C890 1.389 . S
C892 C893 1.524 . S
C892 C906 1.377 . S
C893 C892 1.524 . S
C893 C894 1.397 . S
C893 C898 1.363 . S
C894 H871 0.950 . S
C894 C893 1.397 . S
C894 C895 1.334 . S
C895 H872 0.950 . S
C895 C894 1.334 . S
C895 C896 1.287 . S
C896 C895 1.287 . S
C896 C897 1.524 . S
C896 H915 0.913 . S
C897 H873 0.950 . S
C897 C896 1.524 . S
C897 C898 1.415 . S
C898 H874 0.950 . S
C898 C893 1.363 . S
C898 C897 1.415 . S
C899 H875 0.951 1_565 S
C899 C900 1.366 . S
C899 C901 1.388 . S
C900 C899 1.366 . S
C900 C904 1.385 . S
C901 H876 0.951 1_565 S
C901 C899 1.388 . S
C901 C902 1.366 . S
C902 C901 1.366 . S
C902 C903 1.414 . S
C902 C905 1.499 . S
C903 H877 0.950 . S
C903 C902 1.414 . S
C903 C904 1.374 . S
C904 H878 0.950 . S
C904 C900 1.385 . S
C904 C903 1.374 . S
C905 C902 1.499 . S
C905 C906 1.373 . S
C905 C907 1.389 1_565 S
C906 H879 0.950 . S
C906 C892 1.377 . S
C906 C905 1.373 . S
C907 C891 1.377 . S
C907 C905 1.389 1_545 S
C907 C908 1.524 . S
C908 C907 1.524 . S
C908 C909 1.397 . S
C908 C913 1.363 . S
C909 H880 0.950 1_545 S
C909 C908 1.397 . S
C909 C910 1.334 . S
C910 H881 0.950 . S
C910 C909 1.334 . S
C910 C911 1.287 . S
C911 C910 1.287 . S
C911 C912 1.524 . S
C911 H914 0.999 . S
C912 H882 0.950 . S
C912 C911 1.524 . S
C912 C913 1.415 . S
C913 H883 0.950 . S
C913 C908 1.363 . S
C913 C912 1.415 . S
H914 C911 0.999 . S
H915 C896 0.913 . S
H916 C934 0.951 . S
H917 C936 0.951 . S
H918 C938 0.950 . S
H919 C939 0.950 . S
H920 C941 0.950 . S
H921 C944 0.950 . S
H922 C945 0.950 . S
H923 C947 0.950 . S
H924 C948 0.950 . S
H925 C949 0.951 . S
H926 C951 0.951 . S
H927 C953 0.950 . S
H928 C954 0.950 . S
H929 C956 0.950 . S
H930 C959 0.950 . S
H931 C960 0.950 . S
H932 C962 0.950 . S
H933 C963 0.950 . S
C934 H916 0.951 . S
C934 C935 1.366 . S
C934 C936 1.388 . S
C935 C934 1.366 . S
C935 C939 1.385 . S
C936 H917 0.951 . S
C936 C934 1.388 . S
C936 C937 1.366 . S
C937 C936 1.366 . S
C937 C938 1.414 . S
C937 C940 1.499 . S
C938 H918 0.950 . S
C938 C937 1.414 . S
C938 C939 1.374 . S
C939 H919 0.950 . S
C939 C935 1.385 . S
C939 C938 1.374 . S
C940 C937 1.499 . S
C940 C941 1.373 . S
C940 C942 1.389 . S
C941 H920 0.950 . S
C941 C940 1.373 . S
C941 C957 1.377 . S
C942 C940 1.389 . S
C942 C943 1.524 . S
C942 C956 1.377 . S
C943 C942 1.524 . S
C943 C944 1.397 . S
C943 C948 1.363 . S
C944 H921 0.950 . S
C944 C943 1.397 . S
C944 C945 1.334 . S
C945 H922 0.950 . S
C945 C944 1.334 . S
C945 C946 1.287 . S
C946 C945 1.287 . S
C946 C947 1.524 . S
C946 H965 0.913 . S
C947 H923 0.950 . S
C947 C946 1.524 . S
C947 C948 1.415 . S
C948 H924 0.950 . S
C948 C943 1.363 . S
C948 C947 1.415 . S
C949 H925 0.951 . S
C949 C950 1.366 . S
C949 C951 1.388 . S
C950 C949 1.366 . S
C950 C954 1.385 . S
C951 H926 0.951 . S
C951 C949 1.388 . S
C951 C952 1.366 . S
C952 C951 1.366 . S
C952 C953 1.414 . S
C952 C955 1.499 . S
C953 H927 0.950 . S
C953 C952 1.414 . S
C953 C954 1.374 . S
C954 H928 0.950 . S
C954 C950 1.385 . S
C954 C953 1.374 . S
C955 C952 1.499 . S
C955 C956 1.373 . S
C955 C957 1.389 . S
C956 H929 0.950 . S
C956 C942 1.377 . S
C956 C955 1.373 . S
C957 C941 1.377 . S
C957 C955 1.389 . S
C957 C958 1.524 . S
C958 C957 1.524 . S
C958 C959 1.397 . S
C958 C963 1.363 . S
C959 H930 0.950 . S
C959 C958 1.397 . S
C959 C960 1.334 . S
C960 H931 0.950 . S
C960 C959 1.334 . S
C960 C961 1.287 . S
C961 C960 1.287 . S
C961 C962 1.524 . S
C961 H964 0.999 . S
C962 H932 0.950 . S
C962 C961 1.524 . S
C962 C963 1.415 . S
C963 H933 0.950 . S
C963 C958 1.363 . S
C963 C962 1.415 . S
H964 C961 0.999 . S
H965 C946 0.913 . S
H966 C984 0.951 . S
H967 C986 0.951 . S
H968 C988 0.950 . S
H969 C989 0.950 . S
H970 C991 0.950 . S
H971 C994 0.950 . S
H972 C995 0.950 . S
H973 C997 0.950 . S
H974 C998 0.950 . S
H975 C999 0.951 . S
H976 C1001 0.951 . S
H977 C1003 0.950 . S
H978 C1004 0.950 . S
H979 C1006 0.950 . S
H980 C1009 0.950 . S
H981 C1010 0.950 . S
H982 C1012 0.950 . S
H983 C1013 0.950 . S
C984 H966 0.951 . S
C984 C985 1.366 . S
C984 C986 1.388 . S
C985 C984 1.366 . S
C985 C989 1.385 . S
C986 H967 0.951 . S
C986 C984 1.388 . S
C986 C987 1.366 . S
C987 C986 1.366 . S
C987 C988 1.414 . S
C987 C990 1.499 . S
C988 H968 0.950 . S
C988 C987 1.414 . S
C988 C989 1.374 . S
C989 H969 0.950 . S
C989 C985 1.385 . S
C989 C988 1.374 . S
C990 C987 1.499 . S
C990 C991 1.373 . S
C990 C992 1.389 . S
C991 H970 0.950 . S
C991 C990 1.373 . S
C991 C1007 1.377 . S
C992 C990 1.389 . S
C992 C993 1.524 . S
C992 C1006 1.377 . S
C993 C992 1.524 . S
C993 C994 1.397 . S
C993 C998 1.363 . S
C994 H971 0.950 . S
C994 C993 1.397 . S
C994 C995 1.334 . S
C995 H972 0.950 . S
C995 C994 1.334 . S
C995 C996 1.287 . S
C996 C995 1.287 . S
C996 C997 1.524 . S
C996 H1015 0.913 . S
C997 H973 0.950 . S
C997 C996 1.524 . S
C997 C998 1.415 . S
C998 H974 0.950 . S
C998 C993 1.363 . S
C998 C997 1.415 . S
C999 H975 0.951 . S
C999 C1000 1.366 . S
C999 C1001 1.388 . S
C1000 C999 1.366 . S
C1000 C1004 1.385 . S
C1001 H976 0.951 . S
C1001 C999 1.388 . S
C1001 C1002 1.366 . S
C1002 C1001 1.366 . S
C1002 C1003 1.414 . S
C1002 C1005 1.499 . S
C1003 H977 0.950 . S
C1003 C1002 1.414 . S
C1003 C1004 1.374 . S
C1004 H978 0.950 . S
C1004 C1000 1.385 . S
C1004 C1003 1.374 . S
C1005 C1002 1.499 . S
C1005 C1006 1.373 . S
C1005 C1007 1.389 . S
C1006 H979 0.950 . S
C1006 C992 1.377 . S
C1006 C1005 1.373 . S
C1007 C991 1.377 . S
C1007 C1005 1.389 . S
C1007 C1008 1.524 . S
C1008 C1007 1.524 . S
C1008 C1009 1.397 . S
C1008 C1013 1.363 . S
C1009 H980 0.950 . S
C1009 C1008 1.397 . S
C1009 C1010 1.334 . S
C1010 H981 0.950 . S
C1010 C1009 1.334 . S
C1010 C1011 1.287 . S
C1011 C1010 1.287 . S
C1011 C1012 1.524 . S
C1011 H1014 0.999 . S
C1012 H982 0.950 . S
C1012 C1011 1.524 . S
C1012 C1013 1.415 . S
C1013 H983 0.950 . S
C1013 C1008 1.363 . S
C1013 C1012 1.415 . S
H1014 C1011 0.999 . S
H1015 C996 0.913 . S
H1016 C1034 0.951 . S
H1017 C1036 0.951 . S
H1018 C1038 0.950 . S
H1019 C1039 0.950 . S
H1020 C1041 0.950 . S
H1021 C1044 0.950 . S
H1022 C1045 0.950 . S
H1023 C1047 0.950 . S
H1024 C1048 0.950 . S
H1025 C1049 0.951 . S
H1026 C1051 0.951 1_554 S
H1027 C1053 0.950 . S
H1028 C1054 0.950 . S
H1029 C1056 0.950 . S
H1030 C1059 0.950 . S
H1031 C1060 0.950 . S
H1032 C1062 0.950 . S
H1033 C1063 0.950 . S
C1034 H1016 0.951 . S
C1034 C1035 1.366 1_455 S
C1034 C1036 1.388 . S
C1035 C1034 1.366 1_655 S
C1035 C1039 1.385 . S
C1036 H1017 0.951 . S
C1036 C1034 1.388 . S
C1036 C1037 1.366 . S
C1037 C1036 1.366 . S
C1037 C1038 1.414 . S
C1037 C1040 1.499 . S
C1038 H1018 0.950 . S
C1038 C1037 1.414 . S
C1038 C1039 1.374 1_455 S
C1039 H1019 0.950 . S
C1039 C1035 1.385 . S
C1039 C1038 1.374 1_655 S
C1040 C1037 1.499 . S
C1040 C1041 1.373 1_455 S
C1040 C1042 1.389 . S
C1041 H1020 0.950 . S
C1041 C1040 1.373 1_655 S
C1041 C1057 1.372 1_655 S
C1042 C1040 1.389 . S
C1042 C1043 1.524 . S
C1042 C1056 1.377 1_554 S
C1043 C1042 1.524 . S
C1043 C1044 1.397 . S
C1043 C1048 1.363 1_554 S
C1044 H1021 0.950 . S
C1044 C1043 1.397 . S
C1044 C1045 1.334 . S
C1045 H1022 0.950 . S
C1045 C1044 1.334 . S
C1045 C1046 1.287 . S
C1046 C1045 1.287 . S
C1046 C1047 1.524 1_554 S
C1046 H1065 0.913 . S
C1047 H1023 0.950 . S
C1047 C1046 1.524 1_556 S
C1047 C1048 1.415 . S
C1048 H1024 0.950 . S
C1048 C1043 1.363 1_556 S
C1048 C1047 1.415 . S
C1049 H1025 0.951 . S
C1049 C1050 1.366 . S
C1049 C1051 1.388 . S
C1050 C1049 1.366 . S
C1050 C1054 1.385 . S
C1051 H1026 0.951 1_556 S
C1051 C1049 1.388 . S
C1051 C1052 1.366 . S
C1052 C1051 1.366 . S
C1052 C1053 1.414 . S
C1052 C1055 1.499 . S
C1053 H1027 0.950 . S
C1053 C1052 1.414 . S
C1053 C1054 1.374 . S
C1054 H1028 0.950 . S
C1054 C1050 1.385 . S
C1054 C1053 1.374 . S
C1055 C1052 1.499 . S
C1055 C1056 1.373 . S
C1055 C1057 1.416 1_556 S
C1056 H1029 0.950 . S
C1056 C1042 1.377 1_556 S
C1056 C1055 1.373 . S
C1057 C1041 1.372 1_455 S
C1057 C1055 1.416 1_554 S
C1057 C1058 1.500 1_455 S
C1058 C1057 1.500 1_655 S
C1058 C1059 1.397 1_554 S
C1058 C1063 1.363 . S
C1059 H1030 0.950 . S
C1059 C1058 1.397 1_556 S
C1059 C1060 1.334 . S
C1060 H1031 0.950 . S
C1060 C1059 1.334 . S
C1060 C1061 1.287 1_556 S
C1061 C1060 1.287 1_554 S
C1061 C1062 1.524 . S
C1061 H1064 0.999 . S
C1062 H1032 0.950 . S
C1062 C1061 1.524 . S
C1062 C1063 1.415 . S
C1063 H1033 0.950 . S
C1063 C1058 1.363 . S
C1063 C1062 1.415 . S
H1064 C1061 0.999 . S
H1065 C1046 0.913 . S
H1066 C1084 0.951 . S
H1067 C1086 0.951 . S
H1068 C1088 0.950 . S
H1069 C1089 0.950 . S
H1070 C1091 0.950 . S
H1071 C1094 0.950 . S
H1072 C1095 0.950 . S
H1073 C1097 0.950 . S
H1074 C1098 0.950 . S
H1075 C1099 0.951 . S
H1076 C1101 0.951 . S
H1077 C1103 0.950 1_565 S
H1078 C1104 0.950 . S
H1079 C1106 0.950 . S
H1080 C1109 0.950 . S
H1081 C1110 0.950 . S
H1082 C1112 0.950 . S
H1083 C1113 0.950 . S
C1084 H1066 0.951 . S
C1084 C1085 1.366 . S
C1084 C1086 1.388 . S
C1085 C1084 1.366 . S
C1085 C1089 1.385 1_565 S
C1086 H1067 0.951 . S
C1086 C1084 1.388 . S
C1086 C1087 1.366 1_565 S
C1087 C1086 1.366 1_545 S
C1087 C1088 1.414 . S
C1087 C1090 1.499 . S
C1088 H1068 0.950 . S
C1088 C1087 1.414 . S
C1088 C1089 1.374 . S
C1089 H1069 0.950 . S
C1089 C1085 1.385 1_545 S
C1089 C1088 1.374 . S
C1090 C1087 1.499 . S
C1090 C1091 1.373 . S
C1090 C1092 1.389 1_545 S
C1091 H1070 0.950 . S
C1091 C1090 1.373 . S
C1091 C1107 1.377 . S
C1092 C1090 1.389 1_565 S
C1092 C1093 1.524 1_554 S
C1092 C1106 1.377 1_554 S
C1093 C1092 1.524 1_556 S
C1093 C1094 1.397 . S
C1093 C1098 1.363 . S
C1094 H1071 0.950 . S
C1094 C1093 1.397 . S
C1094 C1095 1.334 . S
C1095 H1072 0.950 . S
C1095 C1094 1.334 . S
C1095 C1096 1.287 . S
C1096 C1095 1.287 . S
C1096 C1097 1.524 . S
C1096 H1115 0.913 . S
C1097 H1073 0.950 . S
C1097 C1096 1.524 . S
C1097 C1098 1.415 . S
C1098 H1074 0.950 . S
C1098 C1093 1.363 . S
C1098 C1097 1.415 . S
C1099 H1075 0.951 . S
C1099 C1100 1.366 . S
C1099 C1101 1.388 . S
C1100 C1099 1.366 . S
C1100 C1104 1.385 . S
C1101 H1076 0.951 . S
C1101 C1099 1.388 . S
C1101 C1102 1.366 . S
C1102 C1101 1.366 . S
C1102 C1103 1.414 . S
C1102 C1105 1.499 . S
C1103 H1077 0.950 1_545 S
C1103 C1102 1.414 . S
C1103 C1104 1.374 . S
C1104 H1078 0.950 . S
C1104 C1100 1.385 . S
C1104 C1103 1.374 . S
C1105 C1102 1.499 . S
C1105 C1106 1.373 1_545 S
C1105 C1107 1.389 1_556 S
C1106 H1079 0.950 . S
C1106 C1092 1.377 1_556 S
C1106 C1105 1.373 1_565 S
C1107 C1091 1.377 . S
C1107 C1105 1.389 1_554 S
C1107 C1108 1.524 . S
C1108 C1107 1.524 . S
C1108 C1109 1.397 . S
C1108 C1113 1.363 . S
C1109 H1080 0.950 . S
C1109 C1108 1.397 . S
C1109 C1110 1.334 . S
C1110 H1081 0.950 . S
C1110 C1109 1.334 . S
C1110 C1111 1.287 . S
C1111 C1110 1.287 . S
C1111 C1112 1.524 . S
C1111 H1114 0.999 . S
C1112 H1082 0.950 . S
C1112 C1111 1.524 . S
C1112 C1113 1.415 . S
C1113 H1083 0.950 . S
C1113 C1108 1.363 . S
C1113 C1112 1.415 . S
H1114 C1111 0.999 . S
H1115 C1096 0.913 . S
H1116 C1134 0.951 . S
H1117 C1136 0.951 . S
H1118 C1138 0.950 . S
H1119 C1139 0.950 . S
H1120 C1141 0.950 . S
H1121 C1144 0.950 . S
H1122 C1145 0.950 . S
H1123 C1147 0.950 . S
H1124 C1148 0.950 . S
H1125 C1149 0.951 . S
H1126 C1151 0.951 . S
H1127 C1153 0.950 1_554 S
H1128 C1154 0.950 . S
H1129 C1156 0.950 . S
H1130 C1159 0.950 . S
H1131 C1160 0.950 . S
H1132 C1162 0.950 . S
H1133 C1163 0.950 . S
C1134 H1116 0.951 . S
C1134 C1135 1.366 . S
C1134 C1136 1.388 . S
C1135 C1134 1.366 . S
C1135 C1139 1.385 . S
C1136 H1117 0.951 . S
C1136 C1134 1.388 . S
C1136 C1137 1.366 . S
C1137 C1136 1.366 . S
C1137 C1138 1.414 . S
C1137 C1140 1.499 . S
C1138 H1118 0.950 . S
C1138 C1137 1.414 . S
C1138 C1139 1.374 . S
C1139 H1119 0.950 . S
C1139 C1135 1.385 . S
C1139 C1138 1.374 . S
C1140 C1137 1.499 . S
C1140 C1141 1.373 1_554 S
C1140 C1142 1.389 . S
C1141 H1120 0.950 . S
C1141 C1140 1.373 1_556 S
C1141 C1157 1.377 . S
C1142 C1140 1.389 . S
C1142 C1143 1.524 . S
C1142 C1156 1.377 . S
C1143 C1142 1.524 . S
C1143 C1144 1.397 . S
C1143 C1148 1.363 . S
C1144 H1121 0.950 . S
C1144 C1143 1.397 . S
C1144 C1145 1.334 . S
C1145 H1122 0.950 . S
C1145 C1144 1.334 . S
C1145 C1146 1.287 . S
C1146 C1145 1.287 . S
C1146 C1147 1.524 . S
C1146 H1165 0.913 . S
C1147 H1123 0.950 . S
C1147 C1146 1.524 . S
C1147 C1148 1.415 . S
C1148 H1124 0.950 . S
C1148 C1143 1.363 . S
C1148 C1147 1.415 . S
C1149 H1125 0.951 . S
C1149 C1150 1.366 . S
C1149 C1151 1.388 . S
C1150 C1149 1.366 . S
C1150 C1154 1.385 . S
C1151 H1126 0.951 . S
C1151 C1149 1.388 . S
C1151 C1152 1.366 . S
C1152 C1151 1.366 . S
C1152 C1153 1.414 . S
C1152 C1155 1.499 . S
C1153 H1127 0.950 1_556 S
C1153 C1152 1.414 . S
C1153 C1154 1.374 . S
C1154 H1128 0.950 . S
C1154 C1150 1.385 . S
C1154 C1153 1.374 . S
C1155 C1152 1.499 . S
C1155 C1156 1.373 1_556 S
C1155 C1157 1.389 . S
C1156 H1129 0.950 . S
C1156 C1142 1.377 . S
C1156 C1155 1.373 1_554 S
C1157 C1141 1.377 . S
C1157 C1155 1.389 . S
C1157 C1158 1.524 . S
C1158 C1157 1.524 . S
C1158 C1159 1.397 . S
C1158 C1163 1.363 . S
C1159 H1130 0.950 . S
C1159 C1158 1.397 . S
C1159 C1160 1.334 . S
C1160 H1131 0.950 . S
C1160 C1159 1.334 . S
C1160 C1161 1.287 . S
C1161 C1160 1.287 . S
C1161 C1162 1.524 . S
C1161 H1164 0.999 . S
C1162 H1132 0.950 . S
C1162 C1161 1.524 . S
C1162 C1163 1.415 . S
C1163 H1133 0.950 . S
C1163 C1158 1.363 . S
C1163 C1162 1.415 . S
H1164 C1161 0.999 . S
H1165 C1146 0.913 . S
H1166 C1184 0.951 . S
H1167 C1186 0.951 . S
H1168 C1188 0.950 . S
H1169 C1189 0.950 . S
H1170 C1191 0.950 . S
H1171 C1194 0.950 . S
H1172 C1195 0.950 . S
H1173 C1197 0.950 . S
H1174 C1198 0.950 . S
H1175 C1199 0.951 . S
H1176 C1201 0.951 . S
H1177 C1203 0.950 1_554 S
H1178 C1204 0.950 . S
H1179 C1206 0.950 . S
H1180 C1209 0.950 . S
H1181 C1210 0.950 . S
H1182 C1212 0.950 . S
H1183 C1213 0.950 . S
C1184 H1166 0.951 . S
C1184 C1185 1.366 . S
C1184 C1186 1.388 . S
C1185 C1184 1.366 . S
C1185 C1189 1.385 . S
C1186 H1167 0.951 . S
C1186 C1184 1.388 . S
C1186 C1187 1.366 . S
C1187 C1186 1.366 . S
C1187 C1188 1.414 . S
C1187 C1190 1.499 . S
C1188 H1168 0.950 . S
C1188 C1187 1.414 . S
C1188 C1189 1.374 . S
C1189 H1169 0.950 . S
C1189 C1185 1.385 . S
C1189 C1188 1.374 . S
C1190 C1187 1.499 . S
C1190 C1191 1.373 . S
C1190 C1192 1.389 . S
C1191 H1170 0.950 . S
C1191 C1190 1.373 . S
C1191 C1207 1.377 1_554 S
C1192 C1190 1.389 . S
C1192 C1193 1.524 . S
C1192 C1206 1.377 . S
C1193 C1192 1.524 . S
C1193 C1194 1.397 . S
C1193 C1198 1.363 . S
C1194 H1171 0.950 . S
C1194 C1193 1.397 . S
C1194 C1195 1.334 . S
C1195 H1172 0.950 . S
C1195 C1194 1.334 . S
C1195 C1196 1.287 . S
C1196 C1195 1.287 . S
C1196 C1197 1.524 . S
C1196 H1215 0.913 . S
C1197 H1173 0.950 . S
C1197 C1196 1.524 . S
C1197 C1198 1.415 . S
C1198 H1174 0.950 . S
C1198 C1193 1.363 . S
C1198 C1197 1.415 . S
C1199 H1175 0.951 . S
C1199 C1200 1.366 . S
C1199 C1201 1.388 . S
C1200 C1199 1.366 . S
C1200 C1204 1.385 . S
C1201 H1176 0.951 . S
C1201 C1199 1.388 . S
C1201 C1202 1.366 . S
C1202 C1201 1.366 . S
C1202 C1203 1.414 . S
C1202 C1205 1.499 . S
C1203 H1177 0.950 1_556 S
C1203 C1202 1.414 . S
C1203 C1204 1.374 . S
C1204 H1178 0.950 . S
C1204 C1200 1.385 . S
C1204 C1203 1.374 . S
C1205 C1202 1.499 . S
C1205 C1206 1.373 1_556 S
C1205 C1207 1.389 . S
C1206 H1179 0.950 . S
C1206 C1192 1.377 . S
C1206 C1205 1.373 1_554 S
C1207 C1191 1.377 1_556 S
C1207 C1205 1.389 . S
C1207 C1208 1.524 . S
C1208 C1207 1.524 . S
C1208 C1209 1.397 . S
C1208 C1213 1.363 . S
C1209 H1180 0.950 . S
C1209 C1208 1.397 . S
C1209 C1210 1.334 . S
C1210 H1181 0.950 . S
C1210 C1209 1.334 . S
C1210 C1211 1.287 . S
C1211 C1210 1.287 . S
C1211 C1212 1.524 . S
C1211 H1214 0.999 . S
C1212 H1182 0.950 . S
C1212 C1211 1.524 . S
C1212 C1213 1.415 . S
C1213 H1183 0.950 . S
C1213 C1208 1.363 . S
C1213 C1212 1.415 . S
H1214 C1211 0.999 . S
H1215 C1196 0.913 . S
H1216 C1234 0.951 . S
H1217 C1236 0.951 . S
H1218 C1238 0.950 . S
H1219 C1239 0.950 . S
H1220 C1241 0.950 . S
H1221 C1244 0.950 . S
H1222 C1245 0.950 . S
H1223 C1247 0.959 . S
H1224 C1248 0.950 . S
H1225 C1249 0.951 . S
H1226 C1251 0.951 . S
H1227 C1253 0.950 . S
H1228 C1254 0.950 . S
H1229 C1256 0.951 . S
H1230 C1259 0.950 . S
H1231 C1260 0.950 . S
H1232 C1262 0.950 1_554 S
H1233 C1263 0.950 1_655 S
C1234 H1216 0.951 . S
C1234 C1235 1.366 . S
C1234 C1236 1.388 . S
C1235 C1234 1.366 . S
C1235 C1239 1.385 1_455 S
C1236 H1217 0.951 . S
C1236 C1234 1.388 . S
C1236 C1237 1.366 . S
C1237 C1236 1.366 . S
C1237 C1238 1.414 1_455 S
C1237 C1240 1.499 . S
C1238 H1218 0.950 . S
C1238 C1237 1.414 1_655 S
C1238 C1239 1.374 . S
C1239 H1219 0.950 . S
C1239 C1235 1.385 1_655 S
C1239 C1238 1.374 . S
C1240 C1237 1.499 . S
C1240 C1241 1.373 . S
C1240 C1242 1.389 1_455 S
C1241 H1220 0.950 . S
C1241 C1240 1.373 . S
C1241 C1257 1.377 . S
C1242 C1240 1.389 1_655 S
C1242 C1243 1.526 . S
C1242 C1256 1.376 1_655 S
C1243 C1242 1.526 . S
C1243 C1244 1.397 . S
C1243 C1248 1.363 1_655 S
C1244 H1221 0.950 . S
C1244 C1243 1.397 . S
C1244 C1245 1.334 . S
C1245 H1222 0.950 . S
C1245 C1244 1.334 . S
C1245 C1246 1.287 . S
C1246 C1245 1.287 . S
C1246 C1247 1.524 . S
C1246 H1265 0.913 . S
C1247 H1223 0.959 . S
C1247 C1246 1.524 . S
C1247 C1248 1.415 1_655 S
C1248 H1224 0.950 . S
C1248 C1243 1.363 1_455 S
C1248 C1247 1.415 1_455 S
C1249 H1225 0.951 . S
C1249 C1250 1.366 1_655 S
C1249 C1251 1.388 . S
C1250 C1249 1.366 1_455 S
C1250 C1254 1.385 . S
C1251 H1226 0.951 . S
C1251 C1249 1.388 . S
C1251 C1252 1.366 1_655 S
C1252 C1251 1.366 1_455 S
C1252 C1253 1.414 . S
C1252 C1255 1.499 . S
C1253 H1227 0.950 . S
C1253 C1252 1.414 . S
C1253 C1254 1.374 . S
C1254 H1228 0.950 . S
C1254 C1250 1.385 . S
C1254 C1253 1.374 . S
C1255 C1252 1.499 . S
C1255 C1256 1.373 . S
C1255 C1257 1.389 . S
C1256 H1229 0.951 . S
C1256 C1242 1.376 1_455 S
C1256 C1255 1.373 . S
C1257 C1241 1.377 . S
C1257 C1255 1.389 . S
C1257 C1258 1.524 . S
C1258 C1257 1.524 . S
C1258 C1259 1.397 . S
C1258 C1263 1.363 . S
C1259 H1230 0.950 . S
C1259 C1258 1.397 . S
C1259 C1260 1.334 . S
C1260 H1231 0.950 . S
C1260 C1259 1.334 . S
C1260 C1261 1.287 . S
C1261 C1260 1.287 . S
C1261 C1262 1.524 . S
C1261 H1264 0.999 1_556 S
C1262 H1232 0.950 1_556 S
C1262 C1261 1.524 . S
C1262 C1263 1.415 . S
C1263 H1233 0.950 1_455 S
C1263 C1258 1.363 . S
C1263 C1262 1.415 . S
H1264 C1261 0.999 1_554 S
H1265 C1246 0.913 . S
H1266 C1284 0.951 . S
H1267 C1286 0.951 . S
H1268 C1288 0.950 . S
H1269 C1289 0.950 . S
H1270 C1291 0.950 . S
H1271 C1294 0.950 . S
H1272 C1295 0.950 . S
H1273 C1297 0.950 . S
H1274 C1298 0.950 . S
H1275 C1299 0.951 . S
H1276 C1301 0.951 . S
H1277 C1303 0.950 . S
H1278 C1304 0.950 . S
H1279 C1306 0.950 . S
H1280 C1309 0.950 . S
H1281 C1310 0.950 . S
H1282 C1312 0.950 . S
H1283 C1313 0.950 . S
C1284 H1266 0.951 . S
C1284 C1285 1.366 1_565 S
C1284 C1286 1.388 . S
C1285 C1284 1.366 1_545 S
C1285 C1289 1.385 . S
C1286 H1267 0.951 . S
C1286 C1284 1.388 . S
C1286 C1287 1.366 1_565 S
C1287 C1286 1.366 1_545 S
C1287 C1288 1.414 . S
C1287 C1290 1.499 . S
C1288 H1268 0.950 . S
C1288 C1287 1.414 . S
C1288 C1289 1.374 . S
C1289 H1269 0.950 . S
C1289 C1285 1.385 . S
C1289 C1288 1.374 . S
C1290 C1287 1.499 . S
C1290 C1291 1.373 . S
C1290 C1292 1.389 1_545 S
C1291 H1270 0.950 . S
C1291 C1290 1.373 . S
C1291 C1307 1.377 . S
C1292 C1290 1.389 1_565 S
C1292 C1293 1.524 . S
C1292 C1306 1.377 . S
C1293 C1292 1.524 . S
C1293 C1294 1.397 . S
C1293 C1298 1.363 . S
C1294 H1271 0.950 . S
C1294 C1293 1.397 . S
C1294 C1295 1.334 . S
C1295 H1272 0.950 . S
C1295 C1294 1.334 . S
C1295 C1296 1.287 . S
C1296 C1295 1.287 . S
C1296 C1297 1.524 . S
C1296 H1315 0.913 . S
C1297 H1273 0.950 . S
C1297 C1296 1.524 . S
C1297 C1298 1.415 . S
C1298 H1274 0.950 . S
C1298 C1293 1.363 . S
C1298 C1297 1.415 . S
C1299 H1275 0.951 . S
C1299 C1300 1.366 . S
C1299 C1301 1.388 . S
C1300 C1299 1.366 . S
C1300 C1304 1.385 1_545 S
C1301 H1276 0.951 . S
C1301 C1299 1.388 . S
C1301 C1302 1.366 . S
C1302 C1301 1.366 . S
C1302 C1303 1.414 1_545 S
C1302 C1305 1.499 . S
C1303 H1277 0.950 . S
C1303 C1302 1.414 1_565 S
C1303 C1304 1.374 . S
C1304 H1278 0.950 . S
C1304 C1300 1.385 1_565 S
C1304 C1303 1.374 . S
C1305 C1302 1.499 . S
C1305 C1306 1.373 1_545 S
C1305 C1307 1.389 . S
C1306 H1279 0.950 . S
C1306 C1292 1.377 . S
C1306 C1305 1.373 1_565 S
C1307 C1291 1.377 . S
C1307 C1305 1.389 . S
C1307 C1308 1.524 . S
C1308 C1307 1.524 . S
C1308 C1309 1.397 . S
C1308 C1313 1.363 . S
C1309 H1280 0.950 . S
C1309 C1308 1.397 . S
C1309 C1310 1.334 . S
C1310 H1281 0.950 . S
C1310 C1309 1.334 . S
C1310 C1311 1.287 . S
C1311 C1310 1.287 . S
C1311 C1312 1.524 . S
C1311 H1314 0.999 . S
C1312 H1282 0.950 . S
C1312 C1311 1.524 . S
C1312 C1313 1.415 . S
C1313 H1283 0.950 . S
C1313 C1308 1.363 . S
C1313 C1312 1.415 . S
H1314 C1311 0.999 . S
H1315 C1296 0.913 . S
H1316 C1334 0.951 . S
H1317 C1336 0.951 . S
H1318 C1338 0.950 . S
H1319 C1339 0.950 . S
H1320 C1341 0.950 . S
H1321 C1344 0.950 . S
H1322 C1345 0.950 . S
H1323 C1347 0.950 . S
H1324 C1348 0.950 . S
H1325 C1349 0.951 . S
H1326 C1351 0.951 . S
H1327 C1353 0.950 . S
H1328 C1354 0.950 . S
H1329 C1356 0.950 . S
H1330 C1359 0.950 . S
H1331 C1360 0.950 . S
H1332 C1362 0.950 . S
H1333 C1363 0.950 . S
C1334 H1316 0.951 . S
C1334 C1335 1.366 . S
C1334 C1336 1.388 . S
C1335 C1334 1.366 . S
C1335 C1339 1.385 . S
C1336 H1317 0.951 . S
C1336 C1334 1.388 . S
C1336 C1337 1.366 . S
C1337 C1336 1.366 . S
C1337 C1338 1.414 . S
C1337 C1340 1.499 . S
C1338 H1318 0.950 . S
C1338 C1337 1.414 . S
C1338 C1339 1.374 . S
C1339 H1319 0.950 . S
C1339 C1335 1.385 . S
C1339 C1338 1.374 . S
C1340 C1337 1.499 . S
C1340 C1341 1.373 . S
C1340 C1342 1.389 . S
C1341 H1320 0.950 . S
C1341 C1340 1.373 . S
C1341 C1357 1.377 . S
C1342 C1340 1.389 . S
C1342 C1343 1.524 . S
C1342 C1356 1.377 . S
C1343 C1342 1.524 . S
C1343 C1344 1.397 . S
C1343 C1348 1.363 . S
C1344 H1321 0.950 . S
C1344 C1343 1.397 . S
C1344 C1345 1.334 . S
C1345 H1322 0.950 . S
C1345 C1344 1.334 . S
C1345 C1346 1.287 . S
C1346 C1345 1.287 . S
C1346 C1347 1.524 . S
C1346 H1365 0.913 . S
C1347 H1323 0.950 . S
C1347 C1346 1.524 . S
C1347 C1348 1.415 . S
C1348 H1324 0.950 . S
C1348 C1343 1.363 . S
C1348 C1347 1.415 . S
C1349 H1325 0.951 . S
C1349 C1350 1.366 . S
C1349 C1351 1.388 . S
C1350 C1349 1.366 . S
C1350 C1354 1.385 . S
C1351 H1326 0.951 . S
C1351 C1349 1.388 . S
C1351 C1352 1.366 . S
C1352 C1351 1.366 . S
C1352 C1353 1.414 . S
C1352 C1355 1.499 . S
C1353 H1327 0.950 . S
C1353 C1352 1.414 . S
C1353 C1354 1.374 . S
C1354 H1328 0.950 . S
C1354 C1350 1.385 . S
C1354 C1353 1.374 . S
C1355 C1352 1.499 . S
C1355 C1356 1.373 . S
C1355 C1357 1.389 . S
C1356 H1329 0.950 . S
C1356 C1342 1.377 . S
C1356 C1355 1.373 . S
C1357 C1341 1.377 . S
C1357 C1355 1.389 . S
C1357 C1358 1.524 . S
C1358 C1357 1.524 . S
C1358 C1359 1.397 . S
C1358 C1363 1.363 . S
C1359 H1330 0.950 . S
C1359 C1358 1.397 . S
C1359 C1360 1.334 . S
C1360 H1331 0.950 . S
C1360 C1359 1.334 . S
C1360 C1361 1.287 . S
C1361 C1360 1.287 . S
C1361 C1362 1.524 . S
C1361 H1364 0.999 . S
C1362 H1332 0.950 . S
C1362 C1361 1.524 . S
C1362 C1363 1.415 . S
C1363 H1333 0.950 . S
C1363 C1358 1.363 . S
C1363 C1362 1.415 . S
H1364 C1361 0.999 . S
H1365 C1346 0.913 . S
H1366 C1384 0.951 . S
H1367 C1386 0.951 . S
H1368 C1388 0.950 . S
H1369 C1389 0.950 . S
H1370 C1391 0.950 . S
H1371 C1394 0.950 . S
H1372 C1395 0.950 . S
H1373 C1397 0.950 . S
H1374 C1398 0.950 . S
H1375 C1399 0.951 . S
H1376 C1401 0.951 . S
H1377 C1403 0.950 . S
H1378 C1404 0.950 . S
H1379 C1406 0.950 . S
H1380 C1409 0.950 . S
H1381 C1410 0.950 . S
H1382 C1412 0.950 1_554 S
H1383 C1413 0.950 . S
C1384 H1366 0.951 . S
C1384 C1385 1.366 . S
C1384 C1386 1.388 . S
C1385 C1384 1.366 . S
C1385 C1389 1.385 . S
C1386 H1367 0.951 . S
C1386 C1384 1.388 . S
C1386 C1387 1.366 . S
C1387 C1386 1.366 . S
C1387 C1388 1.414 . S
C1387 C1390 1.499 . S
C1388 H1368 0.950 . S
C1388 C1387 1.414 . S
C1388 C1389 1.374 . S
C1389 H1369 0.950 . S
C1389 C1385 1.385 . S
C1389 C1388 1.374 . S
C1390 C1387 1.499 . S
C1390 C1391 1.373 . S
C1390 C1392 1.389 . S
C1391 H1370 0.950 . S
C1391 C1390 1.373 . S
C1391 C1407 1.377 . S
C1392 C1390 1.389 . S
C1392 C1393 1.524 . S
C1392 C1406 1.377 . S
C1393 C1392 1.524 . S
C1393 C1394 1.397 . S
C1393 C1398 1.363 . S
C1394 H1371 0.950 . S
C1394 C1393 1.397 . S
C1394 C1395 1.334 . S
C1395 H1372 0.950 . S
C1395 C1394 1.334 . S
C1395 C1396 1.287 . S
C1396 C1395 1.287 . S
C1396 C1397 1.524 . S
C1396 H1415 0.913 . S
C1397 H1373 0.950 . S
C1397 C1396 1.524 . S
C1397 C1398 1.415 . S
C1398 H1374 0.950 . S
C1398 C1393 1.363 . S
C1398 C1397 1.415 . S
C1399 H1375 0.951 . S
C1399 C1400 1.366 . S
C1399 C1401 1.388 . S
C1400 C1399 1.366 . S
C1400 C1404 1.385 . S
C1401 H1376 0.951 . S
C1401 C1399 1.388 . S
C1401 C1402 1.366 . S
C1402 C1401 1.366 . S
C1402 C1403 1.414 . S
C1402 C1405 1.499 . S
C1403 H1377 0.950 . S
C1403 C1402 1.414 . S
C1403 C1404 1.374 . S
C1404 H1378 0.950 . S
C1404 C1400 1.385 . S
C1404 C1403 1.374 . S
C1405 C1402 1.499 . S
C1405 C1406 1.373 . S
C1405 C1407 1.389 . S
C1406 H1379 0.950 . S
C1406 C1392 1.377 . S
C1406 C1405 1.373 . S
C1407 C1391 1.377 . S
C1407 C1405 1.389 . S
C1407 C1408 1.524 . S
C1408 C1407 1.524 . S
C1408 C1409 1.397 . S
C1408 C1413 1.363 . S
C1409 H1380 0.950 . S
C1409 C1408 1.397 . S
C1409 C1410 1.334 . S
C1410 H1381 0.950 . S
C1410 C1409 1.334 . S
C1410 C1411 1.287 . S
C1411 C1410 1.287 . S
C1411 C1412 1.524 . S
C1411 H1414 0.999 . S
C1412 H1382 0.950 1_556 S
C1412 C1411 1.524 . S
C1412 C1413 1.415 . S
C1413 H1383 0.950 . S
C1413 C1408 1.363 . S
C1413 C1412 1.415 . S
H1414 C1411 0.999 . S
H1415 C1396 0.913 . S
H1416 C1434 0.951 . S
H1417 C1436 0.951 . S
H1418 C1438 0.950 1_455 S
H1419 C1439 0.950 . S
H1420 C1441 0.950 . S
H1421 C1444 0.950 . S
H1422 C1445 0.950 . S
H1423 C1447 0.950 . S
H1424 C1448 0.950 . S
H1425 C1449 0.951 . S
H1426 C1451 0.951 . S
H1427 C1453 0.950 . S
H1428 C1454 0.950 . S
H1429 C1456 0.950 . S
H1430 C1459 0.950 . S
H1431 C1460 0.950 . S
H1432 C1462 0.950 . S
H1433 C1463 0.950 . S
C1434 H1416 0.951 . S
C1434 C1435 1.366 . S
C1434 C1436 1.388 . S
C1435 C1434 1.366 . S
C1435 C1439 1.385 1_655 S
C1436 H1417 0.951 . S
C1436 C1434 1.388 . S
C1436 C1437 1.366 . S
C1437 C1436 1.366 . S
C1437 C1438 1.416 . S
C1437 C1440 1.499 . S
C1438 H1418 0.950 1_655 S
C1438 C1437 1.416 . S
C1438 C1439 1.373 1_655 S
C1439 H1419 0.950 . S
C1439 C1435 1.385 1_455 S
C1439 C1438 1.373 1_455 S
C1440 C1437 1.499 . S
C1440 C1441 1.373 . S
C1440 C1442 1.389 1_655 S
C1441 H1420 0.950 . S
C1441 C1440 1.373 . S
C1441 C1457 1.377 . S
C1442 C1440 1.389 1_455 S
C1442 C1443 1.524 . S
C1442 C1456 1.377 . S
C1443 C1442 1.524 . S
C1443 C1444 1.397 . S
C1443 C1448 1.363 . S
C1444 H1421 0.950 . S
C1444 C1443 1.397 . S
C1444 C1445 1.334 . S
C1445 H1422 0.950 . S
C1445 C1444 1.334 . S
C1445 C1446 1.287 . S
C1446 C1445 1.287 . S
C1446 C1447 1.524 . S
C1446 H1465 0.913 . S
C1447 H1423 0.950 . S
C1447 C1446 1.524 . S
C1447 C1448 1.415 . S
C1448 H1424 0.950 . S
C1448 C1443 1.363 . S
C1448 C1447 1.415 . S
C1449 H1425 0.951 . S
C1449 C1450 1.366 . S
C1449 C1451 1.388 . S
C1450 C1449 1.366 . S
C1450 C1454 1.385 . S
C1451 H1426 0.951 . S
C1451 C1449 1.388 . S
C1451 C1452 1.366 . S
C1452 C1451 1.366 . S
C1452 C1453 1.414 . S
C1452 C1455 1.499 . S
C1453 H1427 0.950 . S
C1453 C1452 1.414 . S
C1453 C1454 1.374 . S
C1454 H1428 0.950 . S
C1454 C1450 1.385 . S
C1454 C1453 1.374 . S
C1455 C1452 1.499 . S
C1455 C1456 1.373 1_655 S
C1455 C1457 1.389 . S
C1456 H1429 0.950 . S
C1456 C1442 1.377 . S
C1456 C1455 1.373 1_455 S
C1457 C1441 1.377 . S
C1457 C1455 1.389 . S
C1457 C1458 1.524 . S
C1458 C1457 1.524 . S
C1458 C1459 1.397 . S
C1458 C1463 1.363 . S
C1459 H1430 0.950 . S
C1459 C1458 1.397 . S
C1459 C1460 1.334 . S
C1460 H1431 0.950 . S
C1460 C1459 1.334 . S
C1460 C1461 1.287 . S
C1461 C1460 1.287 . S
C1461 C1462 1.524 . S
C1461 H1464 0.999 . S
C1462 H1432 0.950 . S
C1462 C1461 1.524 . S
C1462 C1463 1.415 . S
C1463 H1433 0.950 . S
C1463 C1458 1.363 . S
C1463 C1462 1.415 . S
H1464 C1461 0.999 . S
H1465 C1446 0.913 . S
H1466 C1484 0.951 . S
H1467 C1486 0.951 . S
H1468 C1488 0.950 1_545 S
H1469 C1489 0.942 1_545 S
H1470 C1491 0.950 . S
H1471 C1494 0.950 . S
H1472 C1495 0.950 . S
H1473 C1497 0.950 . S
H1474 C1498 0.950 . S
H1475 C1499 0.949 . S
H1476 C1501 0.951 1_545 S
H1477 C1503 0.950 . S
H1478 C1504 0.950 . S
H1479 C1506 0.950 . S
H1480 C1509 0.950 . S
H1481 C1510 0.950 . S
H1482 C1512 0.950 . S
H1483 C1513 0.950 . S
C1484 H1466 0.951 . S
C1484 C1485 1.366 . S
C1484 C1486 1.388 . S
C1485 C1484 1.366 . S
C1485 C1489 1.393 . S
C1486 H1467 0.951 . S
C1486 C1484 1.388 . S
C1486 C1487 1.366 . S
C1487 C1486 1.366 . S
C1487 C1488 1.414 . S
C1487 C1490 1.499 . S
C1488 H1468 0.950 1_565 S
C1488 C1487 1.414 . S
C1488 C1489 1.375 . S
C1489 H1469 0.942 1_565 S
C1489 C1485 1.393 . S
C1489 C1488 1.375 . S
C1490 C1487 1.499 . S
C1490 C1491 1.373 1_565 S
C1490 C1492 1.389 . S
C1491 H1470 0.950 . S
C1491 C1490 1.373 1_545 S
C1491 C1507 1.377 . S
C1492 C1490 1.389 . S
C1492 C1493 1.524 . S
C1492 C1506 1.377 . S
C1493 C1492 1.524 . S
C1493 C1494 1.397 . S
C1493 C1498 1.363 . S
C1494 H1471 0.950 . S
C1494 C1493 1.397 . S
C1494 C1495 1.334 . S
C1495 H1472 0.950 . S
C1495 C1494 1.334 . S
C1495 C1496 1.287 . S
C1496 C1495 1.287 . S
C1496 C1497 1.524 . S
C1496 H1515 0.913 . S
C1497 H1473 0.950 . S
C1497 C1496 1.524 . S
C1497 C1498 1.415 . S
C1498 H1474 0.950 . S
C1498 C1493 1.363 . S
C1498 C1497 1.415 . S
C1499 H1475 0.949 . S
C1499 C1500 1.366 . S
C1499 C1501 1.388 . S
C1500 C1499 1.366 . S
C1500 C1504 1.385 . S
C1501 H1476 0.951 1_565 S
C1501 C1499 1.388 . S
C1501 C1502 1.366 . S
C1502 C1501 1.366 . S
C1502 C1503 1.414 . S
C1502 C1505 1.499 . S
C1503 H1477 0.950 . S
C1503 C1502 1.414 . S
C1503 C1504 1.374 . S
C1504 H1478 0.950 . S
C1504 C1500 1.385 . S
C1504 C1503 1.374 . S
C1505 C1502 1.499 . S
C1505 C1506 1.373 . S
C1505 C1507 1.389 1_565 S
C1506 H1479 0.950 . S
C1506 C1492 1.377 . S
C1506 C1505 1.373 . S
C1507 C1491 1.377 . S
C1507 C1505 1.389 1_545 S
C1507 C1508 1.524 . S
C1508 C1507 1.524 . S
C1508 C1509 1.397 . S
C1508 C1513 1.363 . S
C1509 H1480 0.950 . S
C1509 C1508 1.397 . S
C1509 C1510 1.334 . S
C1510 H1481 0.950 . S
C1510 C1509 1.334 . S
C1510 C1511 1.287 . S
C1511 C1510 1.287 . S
C1511 C1512 1.524 . S
C1511 H1514 0.999 . S
C1512 H1482 0.950 . S
C1512 C1511 1.524 . S
C1512 C1513 1.415 . S
C1513 H1483 0.950 . S
C1513 C1508 1.363 . S
C1513 C1512 1.415 . S
H1514 C1511 0.999 . S
H1515 C1496 0.913 . S
H1516 C1534 0.951 . S
H1517 C1536 0.951 . S
H1518 C1538 0.950 . S
H1519 C1539 0.950 . S
H1520 C1541 0.950 . S
H1521 C1544 0.950 . S
H1522 C1545 0.950 . S
H1523 C1547 0.950 . S
H1524 C1548 0.950 . S
H1525 C1549 0.951 . S
H1526 C1551 0.951 . S
H1527 C1553 0.950 . S
H1528 C1554 0.950 . S
H1529 C1556 0.950 . S
H1530 C1559 0.950 . S
H1531 C1560 0.950 . S
H1532 C1562 0.950 . S
H1533 C1563 0.950 . S
C1534 H1516 0.951 . S
C1534 C1535 1.366 . S
C1534 C1536 1.388 . S
C1535 C1534 1.366 . S
C1535 C1539 1.385 . S
C1536 H1517 0.951 . S
C1536 C1534 1.388 . S
C1536 C1537 1.366 . S
C1537 C1536 1.366 . S
C1537 C1538 1.414 . S
C1537 C1540 1.499 . S
C1538 H1518 0.950 . S
C1538 C1537 1.414 . S
C1538 C1539 1.374 . S
C1539 H1519 0.950 . S
C1539 C1535 1.385 . S
C1539 C1538 1.374 . S
C1540 C1537 1.499 . S
C1540 C1541 1.373 . S
C1540 C1542 1.389 . S
C1541 H1520 0.950 . S
C1541 C1540 1.373 . S
C1541 C1557 1.377 . S
C1542 C1540 1.389 . S
C1542 C1543 1.524 . S
C1542 C1556 1.377 . S
C1543 C1542 1.524 . S
C1543 C1544 1.397 . S
C1543 C1548 1.363 . S
C1544 H1521 0.950 . S
C1544 C1543 1.397 . S
C1544 C1545 1.334 . S
C1545 H1522 0.950 . S
C1545 C1544 1.334 . S
C1545 C1546 1.287 . S
C1546 C1545 1.287 . S
C1546 C1547 1.524 . S
C1546 H1565 0.913 . S
C1547 H1523 0.950 . S
C1547 C1546 1.524 . S
C1547 C1548 1.415 . S
C1548 H1524 0.950 . S
C1548 C1543 1.363 . S
C1548 C1547 1.415 . S
C1549 H1525 0.951 . S
C1549 C1550 1.366 . S
C1549 C1551 1.388 . S
C1550 C1549 1.366 . S
C1550 C1554 1.385 . S
C1551 H1526 0.951 . S
C1551 C1549 1.388 . S
C1551 C1552 1.366 . S
C1552 C1551 1.366 . S
C1552 C1553 1.414 . S
C1552 C1555 1.499 . S
C1553 H1527 0.950 . S
C1553 C1552 1.414 . S
C1553 C1554 1.374 . S
C1554 H1528 0.950 . S
C1554 C1550 1.385 . S
C1554 C1553 1.374 . S
C1555 C1552 1.499 . S
C1555 C1556 1.373 . S
C1555 C1557 1.389 . S
C1556 H1529 0.950 . S
C1556 C1542 1.377 . S
C1556 C1555 1.373 . S
C1557 C1541 1.377 . S
C1557 C1555 1.389 . S
C1557 C1558 1.524 . S
C1558 C1557 1.524 . S
C1558 C1559 1.397 . S
C1558 C1563 1.363 . S
C1559 H1530 0.950 . S
C1559 C1558 1.397 . S
C1559 C1560 1.334 . S
C1560 H1531 0.950 . S
C1560 C1559 1.334 . S
C1560 C1561 1.287 . S
C1561 C1560 1.287 . S
C1561 C1562 1.524 . S
C1561 H1564 0.999 . S
C1562 H1532 0.950 . S
C1562 C1561 1.524 . S
C1562 C1563 1.415 . S
C1563 H1533 0.950 . S
C1563 C1558 1.363 . S
C1563 C1562 1.415 . S
H1564 C1561 0.999 . S
H1565 C1546 0.913 . S
H1566 C1584 0.951 . S
H1567 C1586 0.951 . S
H1568 C1588 0.950 . S
H1569 C1589 0.950 . S
H1570 C1591 0.950 . S
H1571 C1594 0.950 . S
H1572 C1595 0.950 . S
H1573 C1597 0.950 . S
H1574 C1598 0.950 . S
H1575 C1599 0.951 . S
H1576 C1601 0.951 . S
H1577 C1603 0.950 . S
H1578 C1604 0.950 . S
H1579 C1606 0.950 . S
H1580 C1609 0.950 . S
H1581 C1610 0.950 . S
H1582 C1612 0.950 . S
H1583 C1613 0.950 . S
C1584 H1566 0.951 . S
C1584 C1585 1.366 . S
C1584 C1586 1.388 . S
C1585 C1584 1.366 . S
C1585 C1589 1.385 . S
C1586 H1567 0.951 . S
C1586 C1584 1.388 . S
C1586 C1587 1.366 . S
C1587 C1586 1.366 . S
C1587 C1588 1.414 . S
C1587 C1590 1.499 . S
C1588 H1568 0.950 . S
C1588 C1587 1.414 . S
C1588 C1589 1.374 . S
C1589 H1569 0.950 . S
C1589 C1585 1.385 . S
C1589 C1588 1.374 . S
C1590 C1587 1.499 . S
C1590 C1591 1.373 . S
C1590 C1592 1.389 . S
C1591 H1570 0.950 . S
C1591 C1590 1.373 . S
C1591 C1607 1.377 . S
C1592 C1590 1.389 . S
C1592 C1593 1.524 . S
C1592 C1606 1.377 . S
C1593 C1592 1.524 . S
C1593 C1594 1.397 . S
C1593 C1598 1.363 . S
C1594 H1571 0.950 . S
C1594 C1593 1.397 . S
C1594 C1595 1.334 . S
C1595 H1572 0.950 . S
C1595 C1594 1.334 . S
C1595 C1596 1.287 . S
C1596 C1595 1.287 . S
C1596 C1597 1.524 . S
C1596 H1615 0.913 . S
C1597 H1573 0.950 . S
C1597 C1596 1.524 . S
C1597 C1598 1.415 . S
C1598 H1574 0.950 . S
C1598 C1593 1.363 . S
C1598 C1597 1.415 . S
C1599 H1575 0.951 . S
C1599 C1600 1.366 . S
C1599 C1601 1.388 . S
C1600 C1599 1.366 . S
C1600 C1604 1.385 . S
C1601 H1576 0.951 . S
C1601 C1599 1.388 . S
C1601 C1602 1.366 . S
C1602 C1601 1.366 . S
C1602 C1603 1.414 . S
C1602 C1605 1.499 . S
C1603 H1577 0.950 . S
C1603 C1602 1.414 . S
C1603 C1604 1.374 . S
C1604 H1578 0.950 . S
C1604 C1600 1.385 . S
C1604 C1603 1.374 . S
C1605 C1602 1.499 . S
C1605 C1606 1.373 . S
C1605 C1607 1.389 . S
C1606 H1579 0.950 . S
C1606 C1592 1.377 . S
C1606 C1605 1.373 . S
C1607 C1591 1.377 . S
C1607 C1605 1.389 . S
C1607 C1608 1.524 . S
C1608 C1607 1.524 . S
C1608 C1609 1.397 . S
C1608 C1613 1.363 . S
C1609 H1580 0.950 . S
C1609 C1608 1.397 . S
C1609 C1610 1.334 . S
C1610 H1581 0.950 . S
C1610 C1609 1.334 . S
C1610 C1611 1.287 . S
C1611 C1610 1.287 . S
C1611 C1612 1.524 . S
C1611 H1614 0.999 . S
C1612 H1582 0.950 . S
C1612 C1611 1.524 . S
C1612 C1613 1.415 . S
C1613 H1583 0.950 . S
C1613 C1608 1.363 . S
C1613 C1612 1.415 . S
H1614 C1611 0.999 . S
H1615 C1596 0.913 . S
C435 C215 1.793 . S
C450 C266 1.890 . S
C500 C306 1.893 . S
C485 C247 1.786 . S
C550 C346 1.895 . S
C535 C151 1.793 . S
C600 C386 1.894 1_455 S
C585 C183 1.788 . S
C650 C275 1.890 1_565 S
C635 C87 1.791 . S
C685 C119 1.790 . S
C700 C315 1.894 . S
C735 C23 1.786 . S
C750 C355 1.895 . S
C785 C55 1.788 1_655 S
C800 C395 1.889 1_655 S
C850 C272 0.279 . S
C835 C189 0.243 . S
C900 C312 0.289 . S
C885 C221 0.234 . S
C950 C352 0.282 . S
C935 C253 0.242 . S
C985 C157 0.233 . S
C1000 C392 0.286 . S
C1035 C61 0.442 1_655 S
C1050 C263 0.271 . S
C1100 C303 0.287 . S
C1085 C93 0.490 . S
C1150 C343 0.279 . S
C1135 C125 0.437 . S
C1185 C29 0.453 . S
C1200 C383 0.289 . S
C1235 C177 2.230 . S
C1250 C267 2.474 . S
C1285 C209 2.234 . S
C1300 C307 2.471 . S
C1350 C347 2.472 . S
C1335 C241 2.228 . S
C1400 C387 2.476 . S
C1385 C145 2.232 . S
C1435 C49 2.250 1_655 S
C1450 C258 2.475 . S
C1500 C298 2.473 . S
C1485 C81 2.243 . S
C1550 C338 2.472 . S
C1535 C113 2.248 . S
C1585 C17 2.245 . S
C1600 C378 2.481 . S
