# Generated by pormake.
# Topology ssa, (4,4)-cn, num edge types: 1
# Building blocks:
#     Node 0, Type 0, BuildingBlock: ESEHIV_clean_sbu_0, # of connection points: 4
#     Node 1, Type 0, BuildingBlock: ESEHIV_clean_sbu_0, # of connection points: 4
#     Node 2, Type 0, BuildingBlock: ESEHIV_clean_sbu_0, # of connection points: 4
#     Node 3, Type 0, BuildingBlock: ESEHIV_clean_sbu_0, # of connection points: 4
#     Node 4, Type 0, BuildingBlock: ESEHIV_clean_sbu_0, # of connection points: 4
#     Node 5, Type 0, BuildingBlock: ESEHIV_clean_sbu_0, # of connection points: 4
#     Node 6, Type 1, BuildingBlock: AZAVOO_clean_linker_0, # of connection points: 4
#     Node 7, Type 1, BuildingBlock: AZAVOO_clean_linker_0, # of connection points: 4
#     Node 8, Type 1, BuildingBlock: AZAVOO_clean_linker_0, # of connection points: 4
#     Node 9, Type 1, BuildingBlock: AZAVOO_clean_linker_0, # of connection points: 4
#     Node 10, Type 1, BuildingBlock: AZAVOO_clean_linker_0, # of connection points: 4
#     Node 11, Type 1, BuildingBlock: AZAVOO_clean_linker_0, # of connection points: 4
#     Edge 12, Type (0, 1), BuildingBlock: ZUJKAS_clean_linker_0, # of connection points: 2
#     Edge 13, Type (0, 1), BuildingBlock: ZUJKAS_clean_linker_0, # of connection points: 2
#     Edge 14, Type (0, 1), BuildingBlock: ZUJKAS_clean_linker_0, # of connection points: 2
#     Edge 15, Type (0, 1), BuildingBlock: ZUJKAS_clean_linker_0, # of connection points: 2
#     Edge 16, Type (0, 1), BuildingBlock: ZUJKAS_clean_linker_0, # of connection points: 2
#     Edge 17, Type (0, 1), BuildingBlock: ZUJKAS_clean_linker_0, # of connection points: 2
#     Edge 18, Type (0, 1), BuildingBlock: ZUJKAS_clean_linker_0, # of connection points: 2
#     Edge 19, Type (0, 1), BuildingBlock: ZUJKAS_clean_linker_0, # of connection points: 2
#     Edge 20, Type (0, 1), BuildingBlock: ZUJKAS_clean_linker_0, # of connection points: 2
#     Edge 21, Type (0, 1), BuildingBlock: ZUJKAS_clean_linker_0, # of connection points: 2
#     Edge 22, Type (0, 1), BuildingBlock: ZUJKAS_clean_linker_0, # of connection points: 2
#     Edge 23, Type (0, 1), BuildingBlock: ZUJKAS_clean_linker_0, # of connection points: 2
#     Edge 24, Type (0, 1), BuildingBlock: ZUJKAS_clean_linker_0, # of connection points: 2
#     Edge 25, Type (0, 1), BuildingBlock: ZUJKAS_clean_linker_0, # of connection points: 2
#     Edge 26, Type (0, 1), BuildingBlock: ZUJKAS_clean_linker_0, # of connection points: 2
#     Edge 27, Type (0, 1), BuildingBlock: ZUJKAS_clean_linker_0, # of connection points: 2
#     Edge 28, Type (0, 1), BuildingBlock: ZUJKAS_clean_linker_0, # of connection points: 2
#     Edge 29, Type (0, 1), BuildingBlock: ZUJKAS_clean_linker_0, # of connection points: 2
#     Edge 30, Type (0, 1), BuildingBlock: ZUJKAS_clean_linker_0, # of connection points: 2
#     Edge 31, Type (0, 1), BuildingBlock: ZUJKAS_clean_linker_0, # of connection points: 2
#     Edge 32, Type (0, 1), BuildingBlock: ZUJKAS_clean_linker_0, # of connection points: 2
#     Edge 33, Type (0, 1), BuildingBlock: ZUJKAS_clean_linker_0, # of connection points: 2
#     Edge 34, Type (0, 1), BuildingBlock: ZUJKAS_clean_linker_0, # of connection points: 2
#     Edge 35, Type (0, 1), BuildingBlock: ZUJKAS_clean_linker_0, # of connection points: 2
# Relax obj value: 0.066
# Max RMSD: 0.229
# Mean RMSD: 0.155
data_MOF--net-ssa--node1-ESEHIV_clean_sbu_0--node2-AZAVOO_clean_linker_0--edge1-ZUJKAS_clean_linker_0
_symmetry_space_group_name_H-M    P1
_symmetry_Int_Tables_number       1
_symmetry_cell_setting            triclinic
loop_
_symmetry_equiv_pos_as_xyz
'x, y, z'
_cell_length_a     61.917537
_cell_length_b     65.852468
_cell_length_c     60.687489
_cell_angle_alpha  88.591896
_cell_angle_beta   92.937921
_cell_angle_gamma 121.96
loop_
_atom_site_label
_atom_site_type_symbol
_atom_site_fract_x
_atom_site_fract_y
_atom_site_fract_z
_atom_type_partial_charge
Cu0 Cu 0.15871 0.56302 0.00246 0.0
N1 N 0.16049 0.54963 0.97648 0.0
N2 N 0.1466 0.52405 0.94819 0.0
C3 C 0.14029 0.53066 0.96645 0.0
C4 C 0.17194 0.53949 0.94674 0.0
C5 C 0.18047 0.55536 0.96424 0.0
O6 O 0.12666 0.5619 1.0008 0.0
C7 C 0.18312 0.54666 0.02963 0.0
O8 O 0.20066 0.55924 0.01533 0.0
H9 H 0.12139 0.52154 0.97283 0.0
H10 H 0.19984 0.56985 0.96789 0.0
N11 N 0.18508 0.59483 0.00591 0.0
N12 N 0.21177 0.62918 0.02359 0.0
C13 C 0.19335 0.60591 0.02555 0.0
C14 C 0.19867 0.61161 0.99082 0.0
C15 C 0.21517 0.63293 0.00173 0.0
C16 C 0.12331 0.57204 0.98398 0.0
O17 O 0.14146 0.58245 0.96981 0.0
H18 H 0.18538 0.59713 0.04097 0.0
H19 H 0.19648 0.60864 0.97318 0.0
O20 O 0.16182 0.54528 0.02719 0.0
H21 H 0.18346 0.53939 0.93397 0.0
H22 H 0.22855 0.64982 0.99418 0.0
Cu23 Cu 0.59651 0.02717 0.54766 0.0
N24 N 0.61208 0.02698 0.52223 0.0
N25 N 0.62703 0.01262 0.49831 0.0
C26 C 0.61872 0.01095 0.51877 0.0
C27 C 0.6256 0.03051 0.48847 0.0
C28 C 0.61612 0.03921 0.50324 0.0
O29 O 0.56168 1.00046 0.54404 0.0
C30 C 0.63916 0.03811 0.57318 0.0
O31 O 0.64959 0.05119 0.55566 0.0
H32 H 0.61697 0.99798 0.53101 0.0
H33 H 0.61146 0.05269 0.49996 0.0
N34 N 0.59677 0.05526 0.55195 0.0
N35 N 0.58912 0.08035 0.56901 0.0
C36 C 0.58473 0.05801 0.56834 0.0
C37 C 0.60943 0.07666 0.54187 0.0
C38 C 0.60457 0.09217 0.55229 0.0
C39 C 0.54687 0.00383 0.53133 0.0
O40 O 0.55516 0.02547 0.5237 0.0
H41 H 0.57316 0.04384 0.57972 0.0
H42 H 0.62195 0.08097 0.52843 0.0
O43 O 0.61501 0.02458 0.57319 0.0
H44 H 0.62994 0.03615 0.47153 0.0
H45 H 0.61256 0.11089 0.54842 0.0
Cu46 Cu 0.61254 0.506 0.09511 0.0
N47 N 0.60746 0.47609 0.08907 0.0
N48 N 0.59701 0.4438 0.06908 0.0
C49 C 0.60084 0.46598 0.06891 0.0
C50 C 0.60157 0.43989 0.09028 0.0
C51 C 0.60794 0.45983 0.1026 0.0
O52 O 0.62857 0.52583 0.06957 0.0
C53 C 0.56898 0.48904 0.11735 0.0
O54 O 0.58011 0.47942 0.12849 0.0
H55 H 0.59888 0.47488 0.05441 0.0
H56 H 0.61206 0.46205 0.12021 0.0
N57 N 0.63311 0.52026 0.12054 0.0
N58 N 0.64996 0.54511 0.14951 0.0
C59 C 0.63432 0.53849 0.13125 0.0
C60 C 0.64858 0.51508 0.13232 0.0
C61 C 0.65906 0.53043 0.15021 0.0
C62 C 0.65239 0.53483 0.06808 0.0
O63 O 0.66515 0.53189 0.08449 0.0
H64 H 0.62394 0.54677 0.12551 0.0
H65 H 0.652 0.50116 0.12824 0.0
O66 O 0.57979 0.5018 0.10059 0.0
H67 H 0.59977 0.42358 0.09661 0.0
H68 H 0.67204 0.53047 0.16287 0.0
Cu69 Cu 0.03679 0.47074 0.54667 0.0
N70 N 0.02863 0.44887 0.52413 0.0
N71 N 0.03523 0.43171 0.49616 0.0
C72 C 0.04539 0.4508 0.50975 0.0
C73 C 0.011 0.41713 0.50226 0.0
C74 C 0.00694 0.42785 0.51954 0.0
O75 O 0.0689 0.49924 0.53912 0.0
C76 C 0.04027 0.43893 0.57742 0.0
O77 O 0.04631 0.43135 0.56035 0.0
H78 H 0.06506 0.4655 0.50998 0.0
H79 H 0.98969 0.4206 0.52848 0.0
N80 N 0.01207 0.47854 0.54754 0.0
N81 N 0.98931 0.49211 0.56134 0.0
C82 C 0.00672 0.486 0.5657 0.0
C83 C 0.99737 0.47964 0.53104 0.0
C84 C 0.98317 0.48795 0.53956 0.0
C85 C 0.07523 0.52056 0.54348 0.0
O86 O 0.06142 0.52415 0.55671 0.0
H87 H 0.01579 0.48722 0.58176 0.0
H88 H 0.99742 0.47524 0.514 0.0
O89 O 0.0374 0.45665 0.57512 0.0
H90 H 0.99732 0.39988 0.49496 0.0
H91 H 0.97001 0.49139 0.53032 0.0
Cu92 Cu 0.58829 0.04353 0.10165 0.0
N93 N 0.57649 0.06429 0.09803 0.0
N94 N 0.56577 0.08882 0.08195 0.0
C95 C 0.57836 0.07737 0.08003 0.0
C96 C 0.5558 0.08283 0.10207 0.0
C97 C 0.56251 0.06774 0.11196 0.0
O98 O 0.60545 0.04402 0.07557 0.0
C99 C 0.53731 0.00317 0.10538 0.0
O100 O 0.53049 0.01441 0.09123 0.0
H101 H 0.58788 0.07771 0.06546 0.0
H102 H 0.55699 0.0593 0.12792 0.0
N103 N 0.61271 0.05393 0.12468 0.0
N104 N 0.64057 0.05283 0.1487 0.0
C105 C 0.62645 0.04398 0.12975 0.0
C106 C 0.61833 0.06981 0.14088 0.0
C107 C 0.63551 0.06909 0.15584 0.0
C108 C 0.59627 0.03995 0.05582 0.0
O109 O 0.57212 0.03252 0.05192 0.0
H110 H 0.62483 0.0294 0.1204 0.0
H111 H 0.60976 0.08037 0.1422 0.0
O112 O 0.56086 0.01197 0.11028 0.0
H113 H 0.5442 0.08864 0.10903 0.0
H114 H 0.64305 0.07916 0.17108 0.0
Cu115 Cu 0.54441 0.52547 0.58594 0.0
N116 N 0.546 0.55388 0.57864 0.0
N117 N 0.55581 0.58653 0.55904 0.0
C118 C 0.55465 0.56551 0.55952 0.0
C119 C 0.54748 0.58822 0.57862 0.0
C120 C 0.54122 0.56788 0.59066 0.0
O121 O 0.53314 0.5065 0.55894 0.0
C122 C 0.58736 0.54801 0.61346 0.0
O123 O 0.57516 0.55808 0.61966 0.0
H124 H 0.5609 0.55907 0.54654 0.0
H125 H 0.53439 0.56392 0.60721 0.0
N126 N 0.52216 0.50892 0.60845 0.0
N127 N 0.50665 0.48497 0.63766 0.0
C128 C 0.52492 0.49445 0.62275 0.0
C129 C 0.50148 0.50877 0.61454 0.0
C130 C 0.49172 0.49381 0.63252 0.0
C131 C 0.50983 0.49704 0.55259 0.0
O132 O 0.49444 0.49882 0.56539 0.0
H133 H 0.53997 0.49078 0.62203 0.0
H134 H 0.49405 0.51882 0.60652 0.0
O135 O 0.57772 0.533 0.5976 0.0
H136 H 0.54623 0.60314 0.58389 0.0
H137 H 0.47519 0.49002 0.6413 0.0
H138 H 0.32297 0.455 0.44622 0.0
H139 H 0.13445 0.406 0.24989 0.0
H140 H 0.3517 0.48846 0.3248 0.0
H141 H 0.38754 0.49507 0.34908 0.0
H142 H 0.36206 0.42023 0.34337 0.0
H143 H 0.32681 0.41411 0.31826 0.0
H144 H 0.3064 0.47521 0.35462 0.0
H145 H 0.31483 0.47346 0.39428 0.0
H146 H 0.29598 0.40062 0.38668 0.0
H147 H 0.28756 0.40264 0.34706 0.0
H148 H 0.2567 0.46932 0.32718 0.0
H149 H 0.22212 0.46223 0.35025 0.0
H150 H 0.20196 0.38908 0.36016 0.0
H151 H 0.2369 0.39651 0.33717 0.0
H152 H 0.25877 0.47514 0.27643 0.0
H153 H 0.21936 0.47098 0.26092 0.0
H154 H 0.17912 0.39494 0.27395 0.0
H155 H 0.21877 0.39931 0.28911 0.0
H156 H 0.31005 0.48721 0.25597 0.0
H157 H 0.29746 0.49611 0.21994 0.0
H158 H 0.23897 0.42138 0.21145 0.0
H159 H 0.2519 0.41259 0.24748 0.0
H160 H 0.35506 0.48908 0.2824 0.0
H161 H 0.38739 0.49688 0.25617 0.0
H162 H 0.33856 0.42544 0.22971 0.0
H163 H 0.3065 0.4177 0.25618 0.0
O164 O 0.31928 0.45523 0.43058 0.0
O165 O 0.30922 0.41777 0.42581 0.0
O166 O 0.17193 0.44731 0.24942 0.0
O167 O 0.1503 0.40817 0.25601 0.0
C168 C 0.31212 0.44605 0.30969 0.0
C169 C 0.29236 0.44058 0.32394 0.0
C170 C 0.26926 0.43758 0.31541 0.0
C171 C 0.26575 0.43996 0.29257 0.0
C172 C 0.28533 0.44516 0.27816 0.0
C173 C 0.30853 0.4481 0.28671 0.0
C174 C 0.33684 0.45088 0.31957 0.0
C175 C 0.35446 0.47372 0.32811 0.0
C176 C 0.37468 0.47734 0.34228 0.0
C177 C 0.37745 0.45809 0.34854 0.0
C178 C 0.36065 0.4355 0.33881 0.0
C179 C 0.34051 0.43196 0.32441 0.0
C180 C 0.29639 0.43906 0.34808 0.0
C181 C 0.30397 0.45887 0.36162 0.0
C182 C 0.30883 0.45783 0.38423 0.0
C183 C 0.30613 0.43691 0.39365 0.0
C184 C 0.29827 0.417 0.37996 0.0
C185 C 0.29342 0.41809 0.35736 0.0
C186 C 0.24921 0.43342 0.33051 0.0
C187 C 0.24486 0.45181 0.33443 0.0
C188 C 0.225 0.44766 0.34746 0.0
C189 C 0.20913 0.42501 0.35686 0.0
C190 C 0.21394 0.40674 0.35327 0.0
C191 C 0.23382 0.41093 0.34016 0.0
C192 C 0.24162 0.43751 0.28378 0.0
C193 C 0.24143 0.4576 0.27586 0.0
C194 C 0.21889 0.45518 0.26705 0.0
C195 C 0.19608 0.43261 0.26616 0.0
C196 C 0.19633 0.41256 0.27436 0.0
C197 C 0.21892 0.41501 0.28308 0.0
C198 C 0.28183 0.44929 0.2544 0.0
C199 C 0.29513 0.47263 0.246 0.0
C200 C 0.28783 0.47769 0.22544 0.0
C201 C 0.26698 0.45948 0.21301 0.0
C202 C 0.25484 0.43582 0.22081 0.0
C203 C 0.26233 0.43075 0.24128 0.0
C204 C 0.3286 0.45269 0.27144 0.0
C205 C 0.35155 0.47499 0.27121 0.0
C206 C 0.36992 0.47945 0.25615 0.0
C207 C 0.36549 0.46177 0.24087 0.0
C208 C 0.3424 0.43949 0.24111 0.0
C209 C 0.32417 0.43499 0.2563 0.0
C210 C 0.3116 0.43596 0.41762 0.0
C211 C 0.17211 0.42991 0.25669 0.0
H212 H 0.88065 0.27936 0.96443 0.0
H213 H 0.72932 0.06899 0.80477 0.0
H214 H 0.88284 0.28455 0.84706 0.0
H215 H 0.92272 0.3221 0.85633 0.0
H216 H 0.96527 0.29112 0.83646 0.0
H217 H 0.92526 0.25341 0.82793 0.0
H218 H 0.83837 0.24615 0.8749 0.0
H219 H 0.85032 0.26132 0.91279 0.0
H220 H 0.91251 0.24917 0.9138 0.0
H221 H 0.90017 0.2338 0.87598 0.0
H222 H 0.79249 0.20235 0.84989 0.0
H223 H 0.76071 0.17811 0.87682 0.0
H224 H 0.81139 0.1577 0.90665 0.0
H225 H 0.84332 0.18248 0.87974 0.0
H226 H 0.78816 0.18808 0.80197 0.0
H227 H 0.75094 0.14866 0.79242 0.0
H228 H 0.78748 0.11514 0.82586 0.0
H229 H 0.82472 0.1547 0.83503 0.0
H230 H 0.82651 0.22224 0.77179 0.0
H231 H 0.80401 0.19702 0.73941 0.0
H232 H 0.83135 0.15064 0.7589 0.0
H233 H 0.85356 0.17587 0.79131 0.0
H234 H 0.87296 0.27479 0.79602 0.0
H235 H 0.89777 0.30125 0.76616 0.0
H236 H 0.92527 0.2548 0.75291 0.0
H237 H 0.90062 0.22858 0.78321 0.0
O238 O 0.87621 0.27323 0.94947 0.0
O239 O 0.90797 0.26675 0.9491 0.0
O240 O 0.72577 0.10292 0.79148 0.0
O241 O 0.74365 0.08479 0.80857 0.0
C242 C 0.87705 0.24308 0.83231 0.0
C243 C 0.86114 0.22968 0.84976 0.0
C244 C 0.83838 0.20751 0.84527 0.0
C245 C 0.83236 0.19813 0.82365 0.0
C246 C 0.84838 0.21137 0.80628 0.0
C247 C 0.87019 0.23427 0.8104 0.0
C248 C 0.90118 0.26624 0.83699 0.0
C249 C 0.9008 0.28591 0.84474 0.0
C250 C 0.92359 0.3074 0.84981 0.0
C251 C 0.94719 0.30959 0.84713 0.0
C252 C 0.94744 0.28992 0.83896 0.0
C253 C 0.92463 0.26844 0.83394 0.0
C254 C 0.86837 0.23883 0.87275 0.0
C255 C 0.85448 0.24667 0.88339 0.0
C256 C 0.8614 0.25538 0.905 0.0
C257 C 0.88237 0.25646 0.91633 0.0
C258 C 0.89625 0.24858 0.90556 0.0
C259 C 0.88928 0.23983 0.88396 0.0
C260 C 0.82019 0.19418 0.86288 0.0
C261 C 0.79679 0.19279 0.86237 0.0
C262 C 0.77858 0.17875 0.87766 0.0
C263 C 0.78335 0.16572 0.89379 0.0
C264 C 0.80714 0.16763 0.89457 0.0
C265 C 0.82541 0.18174 0.87922 0.0
C266 C 0.80913 0.1742 0.8191 0.0
C267 C 0.78804 0.17219 0.80723 0.0
C268 C 0.76683 0.14966 0.80181 0.0
C269 C 0.76627 0.12874 0.80831 0.0
C270 C 0.7873 0.13088 0.82056 0.0
C271 C 0.80854 0.15343 0.8259 0.0
C272 C 0.84155 0.2008 0.78386 0.0
C273 C 0.82842 0.20717 0.76857 0.0
C274 C 0.8155 0.19266 0.75015 0.0
C275 C 0.81557 0.17162 0.74685 0.0
C276 C 0.83058 0.1665 0.76125 0.0
C277 C 0.84353 0.18103 0.77958 0.0
C278 C 0.88494 0.24974 0.79177 0.0
C279 C 0.88433 0.27032 0.78665 0.0
C280 C 0.8984 0.28534 0.7695 0.0
C281 C 0.91346 0.28012 0.75708 0.0
C282 C 0.91405 0.25944 0.76227 0.0
C283 C 0.89985 0.24435 0.77944 0.0
C284 C 0.8897 0.26577 0.93928 0.0
C285 C 0.74397 0.10476 0.80226 0.0
H286 H 0.68492 0.78933 0.16938 0.0
H287 H 0.73346 0.96853 0.35129 0.0
H288 H 0.65362 0.76461 0.28374 0.0
H289 H 0.6508 0.72892 0.26923 0.0
H290 H 0.72438 0.75113 0.30038 0.0
H291 H 0.72709 0.78699 0.31477 0.0
H292 H 0.66202 0.80717 0.25654 0.0
H293 H 0.6647 0.79871 0.21808 0.0
H294 H 0.73928 0.80997 0.23343 0.0
H295 H 0.73643 0.81865 0.2718 0.0
H296 H 0.65862 0.84235 0.28223 0.0
H297 H 0.65892 0.87441 0.26081 0.0
H298 H 0.73914 0.90658 0.2508 0.0
H299 H 0.73882 0.87439 0.27274 0.0
H300 H 0.66065 0.85158 0.32936 0.0
H301 H 0.66464 0.88868 0.34131 0.0
H302 H 0.74578 0.92666 0.33232 0.0
H303 H 0.74154 0.88931 0.32073 0.0
H304 H 0.65147 0.81046 0.35705 0.0
H305 H 0.64595 0.83043 0.38774 0.0
H306 H 0.72752 0.87924 0.39419 0.0
H307 H 0.73281 0.8592 0.3634 0.0
H308 H 0.64726 0.76268 0.3294 0.0
H309 H 0.63197 0.73278 0.35851 0.0
H310 H 0.70185 0.77756 0.3972 0.0
H311 H 0.71778 0.8065 0.36708 0.0
O312 O 0.68433 0.79289 0.18463 0.0
O313 O 0.72257 0.7988 0.1934 0.0
O314 O 0.68956 0.9332 0.35108 0.0
O315 O 0.73129 0.95368 0.34632 0.0
C316 C 0.69343 0.8013 0.30676 0.0
C317 C 0.69728 0.81839 0.29028 0.0
C318 C 0.69903 0.83981 0.29607 0.0
C319 C 0.69859 0.84492 0.31838 0.0
C320 C 0.69493 0.82803 0.33492 0.0
C321 C 0.69158 0.80584 0.32909 0.0
C322 C 0.69057 0.77837 0.30027 0.0
C323 C 0.66896 0.76159 0.28768 0.0
C324 C 0.66734 0.74117 0.27949 0.0
C325 C 0.6874 0.73724 0.28363 0.0
C326 C 0.70874 0.7538 0.29678 0.0
C327 C 0.71024 0.77415 0.30513 0.0
C328 C 0.69911 0.81368 0.26688 0.0
C329 C 0.679 0.80801 0.2515 0.0
C330 C 0.68055 0.80308 0.22958 0.0
C331 C 0.70222 0.80369 0.22267 0.0
C332 C 0.72233 0.80938 0.23819 0.0
C333 C 0.72077 0.81435 0.2601 0.0
C334 C 0.69868 0.85611 0.279 0.0
C335 C 0.67612 0.85598 0.27496 0.0
C336 C 0.67636 0.87434 0.2629 0.0
C337 C 0.69912 0.89302 0.25448 0.0
C338 C 0.72139 0.89231 0.25718 0.0
C339 C 0.72121 0.87396 0.26955 0.0
C340 C 0.70085 0.86777 0.32438 0.0
C341 C 0.67926 0.86794 0.33 0.0
C342 C 0.68159 0.88915 0.33678 0.0
C343 C 0.70556 0.91063 0.33785 0.0
C344 C 0.72706 0.91044 0.33175 0.0
C345 C 0.72471 0.88917 0.32506 0.0
C346 C 0.69251 0.83353 0.35791 0.0
C347 C 0.6682 0.82468 0.3658 0.0
C348 C 0.66509 0.83623 0.38327 0.0
C349 C 0.68629 0.85675 0.39301 0.0
C350 C 0.71082 0.86375 0.3867 0.0
C351 C 0.71391 0.85215 0.36933 0.0
C352 C 0.68372 0.78675 0.346 0.0
C353 C 0.65959 0.76571 0.34388 0.0
C354 C 0.65068 0.74882 0.36078 0.0
C355 C 0.66545 0.75284 0.38047 0.0
C356 C 0.68999 0.77366 0.38226 0.0
C357 C 0.69909 0.79036 0.36512 0.0
C358 C 0.70375 0.79833 0.19939 0.0
C359 C 0.70821 0.93313 0.34546 0.0
H360 H 0.82338 0.60512 0.67662 0.0
H361 H 0.97864 0.54243 0.8462 0.0
H362 H 0.83533 0.61728 0.7941 0.0
H363 H 0.79853 0.61333 0.77313 0.0
H364 H 0.75345 0.53901 0.79214 0.0
H365 H 0.79055 0.54306 0.81277 0.0
H366 H 0.87458 0.61632 0.76325 0.0
H367 H 0.85924 0.61835 0.72575 0.0
H368 H 0.79527 0.54574 0.73198 0.0
H369 H 0.81109 0.54384 0.76927 0.0
H370 H 0.91955 0.60821 0.77812 0.0
H371 H 0.93627 0.60181 0.74482 0.0
H372 H 0.87014 0.53 0.73918 0.0
H373 H 0.85369 0.53658 0.77222 0.0
H374 H 0.93018 0.61158 0.8313 0.0
H375 H 0.96623 0.60737 0.84221 0.0
H376 H 0.92039 0.53203 0.82581 0.0
H377 H 0.88445 0.53649 0.81511 0.0
H378 H 0.89927 0.61231 0.86561 0.0
H379 H 0.92437 0.60895 0.89645 0.0
H380 H 0.88323 0.53238 0.88678 0.0
H381 H 0.85841 0.53594 0.85598 0.0
H382 H 0.84287 0.61514 0.8469 0.0
H383 H 0.8161 0.61343 0.87615 0.0
H384 H 0.78982 0.53878 0.88663 0.0
H385 H 0.81699 0.54088 0.85772 0.0
O386 O 0.82934 0.60381 0.69134 0.0
O387 O 0.79652 0.56662 0.69557 0.0
O388 O 0.98779 0.58361 0.84934 0.0
O389 O 0.96495 0.54473 0.84141 0.0
C390 C 0.83926 0.5803 0.80993 0.0
C391 C 0.85259 0.57934 0.79212 0.0
C392 C 0.87382 0.57707 0.79619 0.0
C393 C 0.88229 0.57652 0.81803 0.0
C394 C 0.86875 0.57706 0.83592 0.0
C395 C 0.84712 0.57885 0.83188 0.0
C396 C 0.81563 0.58043 0.80483 0.0
C397 C 0.8172 0.60045 0.79454 0.0
C398 C 0.79617 0.59811 0.78247 0.0
C399 C 0.77326 0.5757 0.78061 0.0
C400 C 0.77102 0.55636 0.79295 0.0
C401 C 0.79205 0.55874 0.80504 0.0
C402 C 0.84382 0.58003 0.76899 0.0
C403 C 0.85737 0.60084 0.7564 0.0
C404 C 0.84851 0.60196 0.73503 0.0
C405 C 0.82595 0.58224 0.72591 0.0
C406 C 0.81266 0.56127 0.73851 0.0
C407 C 0.82161 0.56014 0.75982 0.0
C408 C 0.8854 0.57288 0.77743 0.0
C409 C 0.90891 0.59105 0.76977 0.0
C410 C 0.91837 0.58737 0.7508 0.0
C411 C 0.90432 0.56551 0.73925 0.0
C412 C 0.88114 0.54719 0.74745 0.0
C413 C 0.87181 0.55083 0.76639 0.0
C414 C 0.9048 0.57436 0.82238 0.0
C415 C 0.92809 0.59425 0.82986 0.0
C416 C 0.94859 0.59177 0.83615 0.0
C417 C 0.94615 0.56932 0.83497 0.0
C418 C 0.92291 0.54954 0.82696 0.0
C419 C 0.9024 0.55206 0.82071 0.0
C420 C 0.87704 0.57437 0.85859 0.0
C421 C 0.89489 0.59472 0.87084 0.0
C422 C 0.9093 0.59277 0.88836 0.0
C423 C 0.90604 0.57043 0.89374 0.0
C424 C 0.88639 0.54985 0.88278 0.0
C425 C 0.87198 0.55181 0.86538 0.0
C426 C 0.83206 0.57821 0.85039 0.0
C427 C 0.83149 0.59851 0.8557 0.0
C428 C 0.81603 0.59743 0.87228 0.0
C429 C 0.80079 0.57596 0.88377 0.0
C430 C 0.80162 0.55571 0.87841 0.0
C431 C 0.81711 0.55684 0.86189 0.0
C432 C 0.81631 0.58365 0.70337 0.0
C433 C 0.96761 0.56643 0.84232 0.0
H434 H 0.29551 0.80902 0.46191 0.0
H435 H 0.16408 0.62191 0.27978 0.0
H436 H 0.30903 0.82938 0.34652 0.0
H437 H 0.34215 0.85907 0.3718 0.0
H438 H 0.39138 0.83371 0.35656 0.0
H439 H 0.35775 0.80357 0.33176 0.0
H440 H 0.26291 0.784 0.36919 0.0
H441 H 0.27013 0.79474 0.40837 0.0
H442 H 0.33637 0.78856 0.41105 0.0
H443 H 0.32864 0.77741 0.37199 0.0
H444 H 0.22061 0.73431 0.34372 0.0
H445 H 0.195 0.7052 0.37204 0.0
H446 H 0.2596 0.7 0.39318 0.0
H447 H 0.28484 0.72876 0.36482 0.0
H448 H 0.2254 0.7408 0.28914 0.0
H449 H 0.18855 0.70311 0.27524 0.0
H450 H 0.22155 0.66469 0.30499 0.0
H451 H 0.25841 0.70254 0.31859 0.0
H452 H 0.2714 0.784 0.26368 0.0
H453 H 0.266 0.77321 0.22449 0.0
H454 H 0.28541 0.72025 0.24052 0.0
H455 H 0.2902 0.73081 0.27947 0.0
H456 H 0.31587 0.83124 0.29509 0.0
H457 H 0.34559 0.85878 0.26792 0.0
H458 H 0.36632 0.80743 0.25392 0.0
H459 H 0.33709 0.78029 0.28142 0.0
O460 O 0.29278 0.80438 0.44654 0.0
O461 O 0.32683 0.80123 0.44696 0.0
O462 O 0.1624 0.6577 0.26995 0.0
O463 O 0.17846 0.63707 0.28503 0.0
C464 C 0.30856 0.79171 0.32865 0.0
C465 C 0.29149 0.77463 0.34371 0.0
C466 C 0.27087 0.75232 0.33606 0.0
C467 C 0.26681 0.74736 0.3132 0.0
C468 C 0.28412 0.76425 0.29814 0.0
C469 C 0.30522 0.7864 0.30586 0.0
C470 C 0.33095 0.81423 0.3375 0.0
C471 C 0.32733 0.83087 0.34803 0.0
C472 C 0.34627 0.84778 0.36251 0.0
C473 C 0.36918 0.84838 0.36652 0.0
C474 C 0.37369 0.8333 0.35415 0.0
C475 C 0.35469 0.81634 0.33972 0.0
C476 C 0.29535 0.7801 0.36775 0.0
C477 C 0.27885 0.78481 0.37833 0.0
C478 C 0.28308 0.79102 0.40068 0.0
C479 C 0.3039 0.79262 0.41282 0.0
C480 C 0.32019 0.78755 0.40218 0.0
C481 C 0.31586 0.78123 0.37987 0.0
C482 C 0.25463 0.73376 0.35229 0.0
C483 C 0.2291 0.72669 0.35435 0.0
C484 C 0.21453 0.71008 0.3705 0.0
C485 C 0.22538 0.70049 0.38497 0.0
C486 C 0.25083 0.70736 0.38255 0.0
C487 C 0.26524 0.72371 0.36631 0.0
C488 C 0.24449 0.72437 0.30494 0.0
C489 C 0.22463 0.72422 0.2926 0.0
C490 C 0.20361 0.70267 0.28471 0.0
C491 C 0.20208 0.68086 0.28904 0.0
C492 C 0.22209 0.68113 0.30139 0.0
C493 C 0.24313 0.70271 0.30923 0.0
C494 C 0.28094 0.75801 0.27438 0.0
C495 C 0.27442 0.77005 0.25863 0.0
C496 C 0.27151 0.76397 0.23629 0.0
C497 C 0.2751 0.74575 0.22939 0.0
C498 C 0.28197 0.73401 0.24529 0.0
C499 C 0.2848 0.74005 0.26755 0.0
C500 C 0.32412 0.80365 0.29015 0.0
C501 C 0.32703 0.82606 0.28632 0.0
C502 C 0.34398 0.84174 0.2708 0.0
C503 C 0.35813 0.83517 0.25866 0.0
C504 C 0.3554 0.81284 0.26276 0.0
C505 C 0.33875 0.79734 0.27848 0.0
C506 C 0.3086 0.79963 0.43646 0.0
C507 C 0.17976 0.65791 0.28073 0.0
H508 H 0.51712 0.26887 0.6663 0.0
H509 H 0.48206 0.08317 0.83505 0.0
H510 H 0.54385 0.28854 0.78225 0.0
H511 H 0.54102 0.32197 0.76777 0.0
H512 H 0.46803 0.29239 0.79704 0.0
H513 H 0.47064 0.25838 0.81068 0.0
H514 H 0.54212 0.2494 0.75544 0.0
H515 H 0.53883 0.25929 0.71678 0.0
H516 H 0.4621 0.24217 0.72584 0.0
H517 H 0.46554 0.23204 0.7644 0.0
H518 H 0.54711 0.20909 0.78451 0.0
H519 H 0.55217 0.1877 0.7549 0.0
H520 H 0.47677 0.16533 0.7282 0.0
H521 H 0.47153 0.18639 0.75837 0.0
H522 H 0.54602 0.20256 0.83248 0.0
H523 H 0.54472 0.16563 0.84208 0.0
H524 H 0.4667 0.12422 0.81632 0.0
H525 H 0.46816 0.1613 0.80706 0.0
H526 H 0.55179 0.24526 0.85793 0.0
H527 H 0.55865 0.23299 0.89469 0.0
H528 H 0.48086 0.17274 0.89205 0.0
H529 H 0.474 0.1856 0.85556 0.0
H530 H 0.55079 0.28816 0.83226 0.0
H531 H 0.56023 0.31489 0.86337 0.0
H532 H 0.48826 0.26263 0.89069 0.0
H533 H 0.47856 0.2364 0.85897 0.0
O534 O 0.518 0.26484 0.68162 0.0
O535 O 0.47872 0.25604 0.6872 0.0
O536 O 0.52322 0.12015 0.84451 0.0
O537 O 0.48311 0.09804 0.83142 0.0
C538 C 0.50751 0.24895 0.80315 0.0
C539 C 0.50601 0.23384 0.78613 0.0
C540 C 0.50676 0.2132 0.79143 0.0
C541 C 0.50769 0.20699 0.81375 0.0
C542 C 0.50935 0.22213 0.83078 0.0
C543 C 0.50966 0.24333 0.82548 0.0
C544 C 0.50734 0.27092 0.79731 0.0
C545 C 0.52737 0.28942 0.7857 0.0
C546 C 0.52578 0.30862 0.77759 0.0
C547 C 0.50421 0.30986 0.78112 0.0
C548 C 0.48471 0.29181 0.7937 0.0
C549 C 0.48626 0.27249 0.8017 0.0
C550 C 0.50403 0.2399 0.76267 0.0
C551 C 0.52458 0.24768 0.749 0.0
C552 C 0.52266 0.25338 0.72694 0.0
C553 C 0.50019 0.2515 0.71821 0.0
C554 C 0.47967 0.24379 0.73203 0.0
C555 C 0.48159 0.23803 0.75406 0.0
C556 C 0.50891 0.19922 0.7737 0.0
C557 C 0.53149 0.19926 0.77249 0.0
C558 C 0.53436 0.18704 0.75557 0.0
C559 C 0.51483 0.17479 0.73929 0.0
C560 C 0.49216 0.17473 0.74048 0.0
C561 C 0.48914 0.18669 0.75768 0.0
C562 C 0.50712 0.18459 0.81925 0.0
C563 C 0.52863 0.18549 0.82905 0.0
C564 C 0.52785 0.16438 0.83444 0.0
C565 C 0.50557 0.14196 0.83001 0.0
C566 C 0.48414 0.14117 0.81999 0.0
C567 C 0.48493 0.1623 0.81466 0.0
C568 C 0.51241 0.21631 0.8541 0.0
C569 C 0.53609 0.22972 0.86552 0.0
C570 C 0.54003 0.22255 0.88641 0.0
C571 C 0.52037 0.20176 0.89621 0.0
C572 C 0.49633 0.18894 0.88507 0.0
C573 C 0.49239 0.19618 0.86419 0.0
C574 C 0.51397 0.26035 0.84331 0.0
C575 C 0.53684 0.28269 0.84474 0.0
C576 C 0.54234 0.29781 0.86269 0.0
C577 C 0.52513 0.2908 0.87969 0.0
C578 C 0.50185 0.26868 0.87784 0.0
C579 C 0.49631 0.25361 0.85979 0.0
C580 C 0.49822 0.25757 0.69477 0.0
C581 C 0.50461 0.11947 0.83577 0.0
H582 H 0.22832 0.55046 0.04032 0.0
H583 H 0.2389 0.53306 0.07172 0.0
H584 H 0.16219 0.49995 0.0934 0.0
H585 H 0.15127 0.51744 0.06179 0.0
H586 H 0.23311 0.54062 0.11817 0.0
H587 H 0.17828 0.44495 0.09199 0.0
H588 H 0.18731 0.46908 0.07255 0.0
H589 H 0.16206 0.461 0.09074 0.0
C590 C 0.21356 0.53938 0.05164 0.0
C591 C 0.1889 0.53533 0.04851 0.0
C592 C 0.2197 0.52947 0.0696 0.0
C593 C 0.20131 0.51511 0.08475 0.0
C594 C 0.17658 0.51079 0.08171 0.0
H595 H 0.21716 0.44344 0.20195 0.0
H596 H 0.20028 0.45629 0.171 0.0
C597 C 0.17041 0.52086 0.06371 0.0
C598 C 0.20862 0.50551 0.10409 0.0
H599 H 0.20225 0.45433 0.12571 0.0
C600 C 0.22629 0.52175 0.11991 0.0
C601 C 0.19955 0.48088 0.1063 0.0
C602 C 0.18084 0.46285 0.08949 0.0
C603 C 0.23533 0.51404 0.13786 0.0
C604 C 0.22697 0.4895 0.1397 0.0
C605 C 0.20879 0.47316 0.12416 0.0
C606 C 0.23708 0.48058 0.15759 0.0
C607 C 0.25354 0.53226 0.15482 0.0
C608 C 0.26329 0.48944 0.15995 0.0
C609 C 0.273 0.48214 0.17761 0.0
C610 C 0.25661 0.46557 0.19307 0.0
C611 C 0.23024 0.45601 0.19016 0.0
C612 C 0.22057 0.46342 0.17256 0.0
H613 H 0.2522 0.54844 0.15456 0.0
H614 H 0.24979 0.5246 0.1717 0.0
H615 H 0.27334 0.538 0.1511 0.0
H616 H 0.27631 0.50224 0.14827 0.0
H617 H 0.29335 0.48958 0.17927 0.0
H618 H 0.62431 0.0272 0.61594 0.0
H619 H 0.65227 0.04246 0.6494 0.0
H620 H 0.71817 0.07494 0.60952 0.0
H621 H 0.69058 0.05961 0.57624 0.0
H622 H 0.72468 0.0556 0.64997 0.0
H623 H 0.6874 0.11529 0.6604 0.0
H624 H 0.66433 0.08364 0.65978 0.0
H625 H 0.68121 0.09833 0.63547 0.0
C626 C 0.64476 0.03705 0.61438 0.0
C627 C 0.65528 0.04256 0.59347 0.0
C628 C 0.66068 0.04586 0.63347 0.0
C629 C 0.68723 0.06021 0.63184 0.0
C630 C 0.69772 0.06401 0.61111 0.0
H631 H 0.80583 0.18007 0.7042 0.0
H632 H 0.77416 0.15095 0.67747 0.0
C633 C 0.68191 0.0553 0.5921 0.0
C634 C 0.70417 0.07362 0.65108 0.0
H635 H 0.72117 0.1213 0.68439 0.0
C636 C 0.72375 0.06975 0.65776 0.0
C637 C 0.70307 0.09231 0.66089 0.0
C638 C 0.68303 0.09787 0.65374 0.0
C639 C 0.74263 0.08445 0.67372 0.0
C640 C 0.74169 0.10332 0.68326 0.0
C641 C 0.72177 0.10679 0.67698 0.0
C642 C 0.76179 0.12045 0.69907 0.0
C643 C 0.76399 0.08033 0.6796 0.0
C644 C 0.76531 0.11288 0.71999 0.0
C645 C 0.78333 0.12946 0.73527 0.0
C646 C 0.79809 0.15392 0.7299 0.0
C647 C 0.79469 0.16138 0.70882 0.0
C648 C 0.77667 0.14478 0.69355 0.0
H649 H 0.76462 0.0681 0.66773 0.0
H650 H 0.78266 0.09755 0.68007 0.0
H651 H 0.76121 0.0722 0.69625 0.0
H652 H 0.75364 0.09426 0.72471 0.0
H653 H 0.78507 0.12323 0.75157 0.0
H654 H 0.62103 0.56398 0.15644 0.0
H655 H 0.63129 0.59688 0.18106 0.0
H656 H 0.70108 0.60157 0.203 0.0
H657 H 0.69139 0.56894 0.17788 0.0
H658 H 0.6678 0.6017 0.23774 0.0
H659 H 0.69137 0.66857 0.17088 0.0
H660 H 0.66204 0.64022 0.16662 0.0
H661 H 0.69182 0.64163 0.16733 0.0
C662 C 0.63874 0.57209 0.16624 0.0
C663 C 0.65553 0.56389 0.16488 0.0
C664 C 0.64447 0.59084 0.18042 0.0
C665 C 0.66704 0.60177 0.19363 0.0
C666 C 0.68358 0.59335 0.19285 0.0
H667 H 0.72532 0.73726 0.26248 0.0
H668 H 0.72263 0.70409 0.24243 0.0
C669 C 0.67793 0.57463 0.17854 0.0
C670 C 0.67328 0.62214 0.20806 0.0
H671 H 0.68704 0.67964 0.20654 0.0
C672 C 0.67224 0.61883 0.23099 0.0
C673 C 0.67927 0.64448 0.19915 0.0
C674 C 0.68143 0.64914 0.17466 0.0
C675 C 0.67619 0.63711 0.24525 0.0
C676 C 0.68117 0.65914 0.23626 0.0
C677 C 0.68309 0.66269 0.21337 0.0
C678 C 0.68354 0.67848 0.25014 0.0
C679 C 0.67492 0.63274 0.26979 0.0
C680 C 0.66247 0.675 0.26118 0.0
C681 C 0.66393 0.6939 0.27261 0.0
C682 C 0.68651 0.71662 0.27322 0.0
C683 C 0.70778 0.71988 0.26257 0.0
C684 C 0.70624 0.70101 0.25102 0.0
H685 H 0.67731 0.61758 0.27435 0.0
H686 H 0.6898 0.64899 0.27892 0.0
H687 H 0.65604 0.62831 0.27517 0.0
H688 H 0.64465 0.65785 0.26042 0.0
H689 H 0.64728 0.69082 0.28073 0.0
H690 H 0.01498 0.5187 0.59762 0.0
H691 H 0.99903 0.5335 0.62497 0.0
H692 H 0.92781 0.5039 0.58716 0.0
H693 H 0.94345 0.48837 0.55988 0.0
H694 H 0.98037 0.56473 0.62017 0.0
H695 H 0.90709 0.47394 0.64905 0.0
H696 H 0.9328 0.47906 0.63233 0.0
H697 H 0.90595 0.47926 0.61994 0.0
C698 C 0.99584 0.51512 0.59517 0.0
C699 C 0.98031 0.502 0.57674 0.0
C700 C 0.98686 0.52381 0.61072 0.0
C701 C 0.96216 0.51952 0.60821 0.0
C702 C 0.94683 0.50709 0.58952 0.0
H703 H 0.8766 0.5453 0.701 0.0
H704 H 0.89066 0.53619 0.66777 0.0
C705 C 0.95584 0.4984 0.57388 0.0
C706 C 0.95242 0.52752 0.62563 0.0
H707 H 0.90945 0.50677 0.6661 0.0
C708 C 0.96477 0.5521 0.63016 0.0
C709 C 0.93211 0.51097 0.63861 0.0
C710 C 0.91878 0.48431 0.63494 0.0
C711 C 0.95735 0.56059 0.64743 0.0
C712 C 0.93739 0.54399 0.6607 0.0
C713 C 0.92474 0.51945 0.65588 0.0
C714 C 0.92965 0.55148 0.68009 0.0
C715 C 0.97082 0.58722 0.65122 0.0
C716 C 0.94697 0.5632 0.698 0.0
C717 C 0.93897 0.5684 0.71704 0.0
C718 C 0.91345 0.56169 0.71857 0.0
C719 C 0.8963 0.55038 0.70042 0.0
C720 C 0.90432 0.54527 0.68139 0.0
H721 H 0.9802 0.59746 0.63617 0.0
H722 H 0.95736 0.59234 0.65632 0.0
H723 H 0.98579 0.59254 0.66456 0.0
H724 H 0.96647 0.56767 0.69753 0.0
H725 H 0.95252 0.57689 0.73085 0.0
H726 H 0.48529 0.97829 0.0987 0.0
H727 H 0.45341 0.94756 0.12249 0.0
H728 H 0.51333 0.95164 0.16538 0.0
H729 H 0.54521 0.9817 0.14139 0.0
H730 H 0.47495 0.90634 0.16032 0.0
H731 H 0.43621 0.96234 0.18063 0.0
H732 H 0.43427 0.95643 0.15167 0.0
H733 H 0.46496 0.9739 0.16583 0.0
C734 C 0.49168 0.97245 0.11307 0.0
C735 C 0.51784 0.98263 0.1182 0.0
C736 C 0.47342 0.95503 0.12678 0.0
C737 C 0.48095 0.94772 0.14608 0.0
C738 C 0.50701 0.95709 0.15069 0.0
H739 H 0.39309 0.88326 0.26217 0.0
H740 H 0.42251 0.90978 0.23444 0.0
C741 C 0.52525 0.97431 0.1369 0.0
C742 C 0.46189 0.93074 0.16181 0.0
H743 H 0.41464 0.92277 0.19448 0.0
C744 C 0.46174 0.90992 0.16777 0.0
C745 C 0.44494 0.9356 0.17187 0.0
C746 C 0.4452 0.95838 0.16737 0.0
C747 C 0.44515 0.89385 0.18343 0.0
C748 C 0.42767 0.89835 0.19298 0.0
C749 C 0.42784 0.91918 0.18703 0.0
C750 C 0.40957 0.8821 0.20967 0.0
C751 C 0.44716 0.87265 0.19007 0.0
C752 C 0.3922 0.85777 0.20493 0.0
C753 C 0.37556 0.84255 0.22083 0.0
C754 C 0.37561 0.85144 0.24169 0.0
C755 C 0.39254 0.87592 0.24622 0.0
C756 C 0.40938 0.89107 0.2304 0.0
H757 H 0.46599 0.8756 0.18631 0.0
H758 H 0.44428 0.86884 0.20796 0.0
H759 H 0.43231 0.85663 0.18071 0.0
H760 H 0.39139 0.85053 0.18886 0.0
H761 H 0.3624 0.82386 0.21672 0.0
H762 H 0.5444 0.48318 0.66022 0.0
H763 H 0.53968 0.45364 0.68793 0.0
H764 H 0.45806 0.42029 0.68267 0.0
H765 H 0.46264 0.44976 0.65471 0.0
H766 H 0.51103 0.44033 0.73037 0.0
H767 H 0.47498 0.36721 0.66816 0.0
H768 H 0.49292 0.39842 0.66053 0.0
H769 H 0.46045 0.38475 0.66799 0.0
C770 C 0.52544 0.46956 0.66494 0.0
C771 C 0.50386 0.46863 0.65512 0.0
C772 C 0.5228 0.45283 0.68088 0.0
C773 C 0.49854 0.43474 0.68717 0.0
C774 C 0.47695 0.43409 0.6779 0.0
H775 H 0.46118 0.30601 0.76182 0.0
H776 H 0.45758 0.33673 0.74167 0.0
C777 C 0.47959 0.45098 0.66205 0.0
C778 C 0.49601 0.41604 0.70275 0.0
H779 H 0.48068 0.35809 0.70478 0.0
C780 C 0.5042 0.42227 0.72488 0.0
C781 C 0.487 0.39254 0.69548 0.0
C782 C 0.47842 0.38518 0.67174 0.0
C783 C 0.50382 0.40557 0.73999 0.0
C784 C 0.49569 0.38227 0.73254 0.0
C785 C 0.4869 0.37594 0.71049 0.0
C786 C 0.49731 0.36449 0.74692 0.0
C787 C 0.51198 0.41306 0.76376 0.0
C788 C 0.52079 0.3699 0.75678 0.0
C789 C 0.52283 0.35247 0.76861 0.0
C790 C 0.50152 0.32911 0.77056 0.0
C791 C 0.47791 0.32388 0.761 0.0
C792 C 0.47585 0.34138 0.7493 0.0
H793 H 0.50919 0.42776 0.76821 0.0
H794 H 0.50123 0.39782 0.77514 0.0
H795 H 0.53257 0.41977 0.76626 0.0
H796 H 0.53777 0.38741 0.75476 0.0
H797 H 0.54125 0.35721 0.77592 0.0
H798 H 0.6093 0.96625 0.50851 0.0
H799 H 0.6212 0.94011 0.49239 0.0
H800 H 0.67169 0.99725 0.44957 0.0
H801 H 0.66019 0.02377 0.46596 0.0
H802 H 0.61595 0.9276 0.44651 0.0
H803 H 0.71631 0.97326 0.47955 0.0
H804 H 0.69284 0.97777 0.49108 0.0
H805 H 0.70705 0.99215 0.46573 0.0
C806 C 0.62321 0.97341 0.49589 0.0
C807 C 0.63399 0.9972 0.48865 0.0
C808 C 0.62985 0.95838 0.4866 0.0
C809 C 0.64755 0.96685 0.47002 0.0
C810 C 0.65827 0.9905 0.4626 0.0
H811 H 0.70958 0.90513 0.39 0.0
H812 H 0.70026 0.93121 0.40982 0.0
C813 C 0.65151 0.00555 0.47182 0.0
C814 C 0.65412 0.95061 0.46006 0.0
H815 H 0.70307 0.94177 0.45398 0.0
C816 C 0.63495 0.93059 0.4482 0.0
C817 C 0.67894 0.95465 0.46233 0.0
C818 C 0.69999 0.9755 0.4755 0.0
C819 C 0.64006 0.91473 0.43808 0.0
C820 C 0.66489 0.91871 0.44038 0.0
C821 C 0.68404 0.9387 0.45234 0.0
C822 C 0.67161 0.9029 0.42967 0.0
C823 C 0.61904 0.8943 0.42446 0.0
C824 C 0.65906 0.87838 0.43465 0.0
C825 C 0.66434 0.86336 0.4233 0.0
C826 C 0.68255 0.8727 0.40703 0.0
C827 C 0.69576 0.89743 0.40271 0.0
C828 C 0.69035 0.91236 0.41393 0.0
H829 H 0.60332 0.89727 0.41983 0.0
H830 H 0.62641 0.89173 0.40915 0.0
H831 H 0.61095 0.87755 0.43421 0.0
H832 H 0.64492 0.8708 0.4471 0.0
H833 H 0.65399 0.84441 0.42705 0.0
H834 H 0.70333 0.56166 0.06228 0.0
H835 H 0.72479 0.57329 0.02752 0.0
H836 H 0.65225 0.54305 0.99172 0.0
H837 H 0.63046 0.53109 0.02667 0.0
H838 H 0.68138 0.5256 0.97818 0.0
H839 H 0.73967 0.62447 0.98129 0.0
H840 H 0.74354 0.61126 0.0062 0.0
H841 H 0.71293 0.60703 0.99858 0.0
C842 C 0.69192 0.55792 0.04705 0.0
C843 C 0.66519 0.54538 0.04722 0.0
C844 C 0.70426 0.56477 0.02717 0.0
C845 C 0.69016 0.5593 0.00702 0.0
C846 C 0.6635 0.54762 0.00711 0.0
H847 H 0.77169 0.59616 0.88345 0.0
H848 H 0.74298 0.59273 0.91164 0.0
C849 C 0.65109 0.54087 0.02708 0.0
C850 C 0.70324 0.56321 0.98612 0.0
H851 H 0.75408 0.60534 0.95765 0.0
C852 C 0.69695 0.5431 0.97345 0.0
C853 C 0.72343 0.58607 0.97983 0.0
C854 C 0.73013 0.60847 0.99207 0.0
C855 C 0.71126 0.54505 0.95543 0.0
C856 C 0.73257 0.56764 0.95014 0.0
C857 C 0.73794 0.58797 0.96195 0.0
C858 C 0.75027 0.5702 0.93323 0.0
C859 C 0.70376 0.52282 0.94248 0.0
C860 C 0.76427 0.5591 0.9363 0.0
C861 C 0.78084 0.5612 0.92039 0.0
C862 C 0.7838 0.57449 0.90105 0.0
C863 C 0.77007 0.58598 0.89823 0.0
C864 C 0.75354 0.58393 0.91424 0.0
H865 H 0.68347 0.50861 0.94455 0.0
H866 H 0.70682 0.52686 0.92463 0.0
H867 H 0.71569 0.51568 0.94848 0.0
H868 H 0.76243 0.54885 0.9511 0.0
H869 H 0.79149 0.55254 0.92333 0.0
H870 H 0.10071 0.51841 0.50894 0.0
H871 H 0.12847 0.5509 0.48448 0.0
H872 H 0.12235 0.60099 0.52407 0.0
H873 H 0.09396 0.56841 0.54838 0.0
H874 H 0.11333 0.60561 0.48116 0.0
H875 H 0.20192 0.60431 0.49081 0.0
H876 H 0.1748 0.57552 0.48329 0.0
H877 H 0.17625 0.58869 0.50941 0.0
C878 C 0.10564 0.5364 0.51275 0.0
C879 C 0.0951 0.54079 0.53068 0.0
C880 C 0.12164 0.55502 0.49875 0.0
C881 C 0.12778 0.57849 0.50254 0.0
C882 C 0.11793 0.58305 0.52083 0.0
H883 H 0.2407 0.70094 0.42805 0.0
H884 H 0.2168 0.67242 0.45708 0.0
C885 C 0.10178 0.5644 0.53477 0.0
C886 C 0.1429 0.59786 0.48655 0.0
H887 H 0.19849 0.62541 0.45946 0.0
C888 C 0.13206 0.61009 0.47657 0.0
C889 C 0.16747 0.60393 0.48072 0.0
C890 C 0.18091 0.5926 0.49179 0.0
C891 C 0.14481 0.62779 0.46056 0.0
C892 C 0.16882 0.63301 0.45393 0.0
C893 C 0.17995 0.62121 0.46431 0.0
C894 C 0.18284 0.65072 0.43635 0.0
C895 C 0.13254 0.64092 0.45114 0.0
C896 C 0.17176 0.64801 0.41498 0.0
C897 C 0.18535 0.66439 0.39837 0.0
C898 C 0.21045 0.68356 0.40272 0.0
C899 C 0.2215 0.68621 0.42412 0.0
C900 C 0.20784 0.66996 0.44075 0.0
H901 H 0.11853 0.64013 0.46242 0.0
H902 H 0.14702 0.65999 0.44792 0.0
H903 H 0.12219 0.6324 0.43531 0.0
H904 H 0.15274 0.63298 0.41101 0.0
H905 H 0.17647 0.6617 0.38197 0.0
H906 H 0.52563 0.09476 0.07648 0.0
H907 H 0.51776 0.1156 0.0462 0.0
H908 H 0.58908 0.1348 0.01886 0.0
H909 H 0.59715 0.11414 0.04908 0.0
H910 H 0.54647 0.16354 0.03139 0.0
H911 H 0.5365 0.09946 0.96796 0.0
H912 H 0.53595 0.09331 0.99714 0.0
H913 H 0.56577 0.1125 0.98438 0.0
C914 C 0.53981 0.10367 0.0642 0.0
C915 C 0.56192 0.10256 0.06509 0.0
C916 C 0.53522 0.11548 0.04685 0.0
C917 C 0.5526 0.12632 0.03008 0.0
C918 C 0.57513 0.12605 0.03137 0.0
H919 H 0.56223 0.19966 0.90814 0.0
H920 H 0.56972 0.18255 0.94165 0.0
C921 C 0.57971 0.11422 0.04865 0.0
C922 C 0.54703 0.13755 0.01099 0.0
H923 H 0.5384 0.13462 0.95489 0.0
C924 C 0.54455 0.15717 0.01466 0.0
C925 C 0.54439 0.12907 0.98922 0.0
C926 C 0.54554 0.10729 0.98438 0.0
C927 C 0.54028 0.16903 0.99701 0.0
C928 C 0.53811 0.16079 0.97523 0.0
C929 C 0.54023 0.14097 0.97162 0.0
C930 C 0.53406 0.17264 0.95579 0.0
C931 C 0.5388 0.19064 0.00173 0.0
C932 C 0.51153 0.17278 0.95267 0.0
C933 C 0.50723 0.18269 0.93355 0.0
C934 C 0.5254 0.19258 0.91721 0.0
C935 C 0.54806 0.1926 0.92056 0.0
C936 C 0.5523 0.18267 0.93962 0.0
H937 H 0.54645 0.19781 0.01861 0.0
H938 H 0.5495 0.20506 0.98959 0.0
H939 H 0.51859 0.18552 1.00033 0.0
H940 H 0.49702 0.16477 0.9648 0.0
H941 H 0.48964 0.18249 0.93149 0.0
H942 H 0.46064 0.46927 0.53742 0.0
H943 H 0.44473 0.45883 0.4993 0.0
H944 H 0.52174 0.49262 0.4781 0.0
H945 H 0.53795 0.50345 0.51651 0.0
H946 H 0.49458 0.5091 0.45589 0.0
H947 H 0.43757 0.41036 0.45512 0.0
H948 H 0.4294 0.42198 0.47748 0.0
H949 H 0.46107 0.42732 0.47689 0.0
C950 C 0.47424 0.47405 0.52475 0.0
C951 C 0.50057 0.48725 0.53 0.0
C952 C 0.46507 0.46787 0.50292 0.0
C953 C 0.48199 0.47463 0.48582 0.0
C954 C 0.50832 0.48702 0.49106 0.0
H955 H 0.40738 0.43849 0.35206 0.0
H956 H 0.4365 0.44247 0.38307 0.0
C957 C 0.51756 0.49312 0.51301 0.0
C958 C 0.47201 0.47128 0.46254 0.0
H959 H 0.42475 0.42998 0.42762 0.0
C960 C 0.47974 0.49172 0.4495 0.0
C961 C 0.45287 0.44859 0.45401 0.0
C962 C 0.44495 0.42581 0.46655 0.0
C963 C 0.46752 0.49029 0.42894 0.0
C964 C 0.44681 0.4679 0.42137 0.0
C965 C 0.44038 0.44721 0.43358 0.0
C966 C 0.43006 0.46598 0.4021 0.0
C967 C 0.4764 0.51291 0.41582 0.0
C968 C 0.41653 0.47756 0.40268 0.0
C969 C 0.39982 0.4752 0.38519 0.0
C970 C 0.39619 0.46116 0.36661 0.0
C971 C 0.40969 0.44942 0.3661 0.0
C972 C 0.42641 0.45175 0.38374 0.0
H973 H 0.49671 0.52654 0.41999 0.0
H974 H 0.47406 0.50927 0.39781 0.0
H975 H 0.46488 0.52063 0.4198 0.0
H976 H 0.41847 0.48807 0.41695 0.0
H977 H 0.38921 0.48389 0.38653 0.0
H978 H 0.09598 0.50477 0.94073 0.0
H979 H 0.06631 0.46826 0.92016 0.0
H980 H 0.12863 0.46128 0.90249 0.0
H981 H 0.15861 0.49774 0.92354 0.0
H982 H 0.08675 0.45305 0.86665 0.0
H983 H 0.05319 0.4008 0.94417 0.0
H984 H 0.05533 0.42914 0.94362 0.0
H985 H 0.08381 0.42837 0.94265 0.0
C986 C 0.10345 0.4955 0.93254 0.0
C987 C 0.12964 0.50397 0.93409 0.0
C988 C 0.08647 0.47473 0.92068 0.0
C989 C 0.09532 0.46204 0.91007 0.0
C990 C 0.12152 0.4709 0.91065 0.0
H991 H 0.98908 0.31409 0.86933 0.0
H992 H 0.02779 0.35091 0.88212 0.0
C993 C 0.1386 0.49174 0.92261 0.0
C994 C 0.07679 0.43888 0.89942 0.0
H995 H 0.02861 0.38232 0.91133 0.0
C996 C 0.07419 0.43745 0.87633 0.0
C997 C 0.06072 0.4186 0.91217 0.0
C998 C 0.06342 0.4191 0.93704 0.0
C999 C 0.0551 0.41635 0.86563 0.0
C1000 C 0.03815 0.39643 0.87845 0.0
C1001 C 0.04152 0.39765 0.90153 0.0
C1002 C 0.01606 0.37445 0.86849 0.0
C1003 C 0.05316 0.41561 0.84076 0.0
C1004 C 0.99668 0.37549 0.8565 0.0
C1005 C 0.97458 0.35448 0.84907 0.0
C1006 C 0.97138 0.33202 0.85362 0.0
C1007 C 0.99108 0.3311 0.86527 0.0
C1008 C 0.01316 0.35211 0.87269 0.0
H1009 H 0.07153 0.42913 0.83361 0.0
H1010 H 0.04733 0.39762 0.8345 0.0
H1011 H 0.03859 0.41967 0.83485 0.0
H1012 H 0.99829 0.3925 0.85346 0.0
H1013 H 0.95986 0.35581 0.83997 0.0
H1014 H 0.08214 0.55475 0.01034 0.0
H1015 H 0.0426 0.55428 0.00197 0.0
H1016 H 0.07088 0.58757 0.93917 0.0
H1017 H 0.11026 0.58861 0.94752 0.0
H1018 H 0.04965 0.60827 0.96042 0.0
H1019 H 0.98492 0.50915 0.9589 0.0
H1020 H 0.00364 0.52185 0.98406 0.0
H1021 H 0.01913 0.52363 0.95922 0.0
C1022 C 0.07988 0.56198 0.99478 0.0
C1023 C 0.09933 0.57166 0.97959 0.0
C1024 C 0.05724 0.56159 0.98997 0.0
C1025 C 0.05367 0.57066 0.96982 0.0
C1026 C 0.0732 0.58051 0.95482 0.0
H1027 H 0.92955 0.54651 0.8858 0.0
H1028 H 0.96358 0.54649 0.90784 0.0
C1029 C 0.09574 0.58103 0.95963 0.0
C1030 C 0.02972 0.56998 0.96385 0.0
H1031 H 0.96666 0.53189 0.94976 0.0
C1032 C 0.0314 0.5916 0.95835 0.0
C1033 C 0.006 0.54818 0.96104 0.0
C1034 C 0.00318 0.52433 0.96593 0.0
C1035 C 0.01034 0.59199 0.94918 0.0
C1036 C 0.98671 0.57015 0.94597 0.0
C1037 C 0.98475 0.5486 0.95235 0.0
C1038 C 0.96467 0.56904 0.93379 0.0
C1039 C 0.01401 0.61565 0.94183 0.0
C1040 C 0.95361 0.58143 0.94118 0.0
C1041 C 0.93415 0.58159 0.92847 0.0
C1042 C 0.92514 0.56898 0.90838 0.0
C1043 C 0.93574 0.55602 0.9014 0.0
C1044 C 0.95527 0.55606 0.91396 0.0
H1045 H 0.03448 0.62994 0.94121 0.0
H1046 H 0.00475 0.614 0.92525 0.0
H1047 H 0.00513 0.62137 0.95365 0.0
H1048 H 0.96024 0.59121 0.95663 0.0
H1049 H 0.92625 0.59163 0.93426 0.0
H1050 H 0.5301 0.95598 0.5332 0.0
H1051 H 0.49561 0.92411 0.51015 0.0
H1052 H 0.47629 0.9741 0.48347 0.0
H1053 H 0.51016 0.00577 0.50663 0.0
H1054 H 0.43365 0.92827 0.48986 0.0
H1055 H 0.50804 0.92589 0.44415 0.0
H1056 H 0.50755 0.91981 0.47321 0.0
H1057 H 0.51577 0.94906 0.46391 0.0
C1058 C 0.51807 0.96001 0.52285 0.0
C1059 C 0.5231 0.98347 0.52145 0.0
C1060 C 0.49853 0.94184 0.50957 0.0
C1061 C 0.48387 0.94694 0.49472 0.0
C1062 C 0.48753 0.96984 0.49468 0.0
H1063 H 0.38477 0.89412 0.37892 0.0
H1064 H 0.41135 0.91607 0.41152 0.0
C1065 C 0.50696 0.98794 0.5079 0.0
C1066 C 0.46635 0.9294 0.47774 0.0
H1067 H 0.46575 0.90195 0.43049 0.0
C1068 C 0.44058 0.92229 0.477 0.0
C1069 C 0.47553 0.92177 0.46092 0.0
C1070 C 0.50325 0.92961 0.46037 0.0
C1071 C 0.4238 0.90803 0.45968 0.0
C1072 C 0.43319 0.90106 0.44254 0.0
C1073 C 0.45871 0.90745 0.44366 0.0
C1074 C 0.41708 0.88778 0.42289 0.0
C1075 C 0.39621 0.90064 0.45977 0.0
C1076 C 0.41217 0.86495 0.41821 0.0
C1077 C 0.39709 0.85242 0.39961 0.0
C1078 C 0.38684 0.86262 0.38522 0.0
C1079 C 0.39221 0.88572 0.38977 0.0
C1080 C 0.40727 0.89822 0.40842 0.0
H1081 H 0.39067 0.90201 0.47654 0.0
H1082 H 0.39315 0.91262 0.44867 0.0
H1083 H 0.38349 0.88199 0.45369 0.0
H1084 H 0.41968 0.85666 0.42915 0.0
H1085 H 0.39288 0.83447 0.39684 0.0
H1086 H 0.60423 0.40682 0.06461 0.0
H1087 H 0.5914 0.38007 0.03277 0.0
H1088 H 0.55908 0.41723 0.9996 0.0
H1089 H 0.57137 0.44372 0.03134 0.0
H1090 H 0.54129 0.3497 0.01212 0.0
H1091 H 0.60939 0.41946 0.95553 0.0
H1092 H 0.61252 0.42325 0.98513 0.0
H1093 H 0.58958 0.42706 0.96931 0.0
C1094 C 0.59422 0.40921 0.05064 0.0
C1095 C 0.58909 0.42765 0.05053 0.0
C1096 C 0.58698 0.39395 0.03242 0.0
C1097 C 0.57464 0.39693 0.01373 0.0
C1098 C 0.56905 0.41495 0.0137 0.0
H1099 H 0.49427 0.30026 0.90263 0.0
H1100 H 0.50579 0.32527 0.93562 0.0
C1101 C 0.5762 0.43016 0.03188 0.0
C1102 C 0.56758 0.38121 0.99419 0.0
H1103 H 0.57887 0.38182 0.93962 0.0
C1104 C 0.54952 0.35667 0.99626 0.0
C1105 C 0.57854 0.39037 0.97362 0.0
C1106 C 0.59875 0.41644 0.97069 0.0
C1107 C 0.54182 0.34106 0.97815 0.0
C1108 C 0.55235 0.35033 0.95745 0.0
C1109 C 0.57068 0.37482 0.95548 0.0
C1110 C 0.54509 0.33486 0.9377 0.0
C1111 C 0.5228 0.31474 0.98136 0.0
C1112 C 0.56346 0.33228 0.92777 0.0
C1113 C 0.55694 0.31799 0.90898 0.0
C1114 C 0.53194 0.30613 0.89961 0.0
C1115 C 0.5136 0.30887 0.90957 0.0
C1116 C 0.52014 0.32315 0.92843 0.0
H1117 H 0.52086 0.30974 0.99909 0.0
H1118 H 0.50387 0.31029 0.97439 0.0
H1119 H 0.52843 0.30373 0.97261 0.0
H1120 H 0.58282 0.34118 0.93468 0.0
H1121 H 0.57146 0.31598 0.90199 0.0
H1122 H 0.02617 0.3887 0.48265 0.0
H1123 H 0.05223 0.38207 0.45816 0.0
H1124 H 0.10079 0.45824 0.4489 0.0
H1125 H 0.07481 0.46498 0.47301 0.0
H1126 H 0.06727 0.39771 0.41293 0.0
H1127 H 0.14895 0.43614 0.47418 0.0
H1128 H 0.11699 0.42663 0.48138 0.0
H1129 H 0.13655 0.45502 0.46818 0.0
C1130 C 0.04214 0.40399 0.4751 0.0
C1131 C 0.04865 0.42739 0.48003 0.0
C1132 C 0.05706 0.40017 0.46122 0.0
C1133 C 0.07869 0.4197 0.45213 0.0
C1134 C 0.08447 0.44297 0.45616 0.0
H1135 H 0.17577 0.43973 0.34823 0.0
H1136 H 0.14223 0.43486 0.37139 0.0
C1137 C 0.06964 0.44678 0.46997 0.0
C1138 C 0.09585 0.41609 0.43897 0.0
H1139 H 0.15754 0.43088 0.43762 0.0
C1140 C 0.08694 0.40469 0.41838 0.0
C1141 C 0.12134 0.42486 0.44633 0.0
C1142 C 0.13153 0.43615 0.46882 0.0
C1143 C 0.10328 0.40285 0.40446 0.0
C1144 C 0.12919 0.41294 0.41129 0.0
C1145 C 0.13773 0.42332 0.43232 0.0
C1146 C 0.14818 0.41418 0.39651 0.0
C1147 C 0.0927 0.39025 0.38255 0.0
C1148 C 0.16298 0.40452 0.40311 0.0
C1149 C 0.18245 0.40759 0.39004 0.0
C1150 C 0.18761 0.42057 0.37023 0.0
C1151 C 0.17247 0.42989 0.36353 0.0
C1152 C 0.15304 0.42681 0.37658 0.0
H1153 H 0.07179 0.37734 0.38278 0.0
H1154 H 0.09623 0.40369 0.36956 0.0
H1155 H 0.102 0.38053 0.37802 0.0
H1156 H 0.1597 0.39492 0.41855 0.0
H1157 H 0.19393 0.4004 0.39577 0.0
H1158 H 0.58528 0.04001 0.01139 0.0
H1159 H 0.61556 0.05686 0.98186 0.0
H1160 H 0.67735 0.07441 0.02924 0.0
H1161 H 0.64734 0.05725 0.05865 0.0
H1162 H 0.65428 0.10334 0.97908 0.0
H1163 H 0.69414 0.04534 0.98027 0.0
H1164 H 0.66529 0.0371 0.99378 0.0
H1165 H 0.69595 0.05734 0.00699 0.0
C1166 C 0.60524 0.04698 0.01545 0.0
C1167 C 0.61383 0.04725 0.03742 0.0
C1168 C 0.62254 0.05668 0.99856 0.0
C1169 C 0.64872 0.06666 0.00326 0.0
C1170 C 0.65722 0.06633 0.02508 0.0
H1171 H 0.78936 0.15912 0.93805 0.0
H1172 H 0.75608 0.134 0.96373 0.0
C1173 C 0.63998 0.05663 0.04193 0.0
C1174 C 0.66743 0.0793 0.98586 0.0
H1175 H 0.71808 0.08298 0.96171 0.0
C1176 C 0.668 0.09868 0.97507 0.0
C1177 C 0.68545 0.07331 0.98072 0.0
C1178 C 0.68506 0.05199 0.99089 0.0
C1179 C 0.68655 0.11266 0.9598 0.0
C1180 C 0.70485 0.10695 0.95499 0.0
C1181 C 0.7041 0.08739 0.96552 0.0
C1182 C 0.72503 0.12127 0.93919 0.0
C1183 C 0.68692 0.13391 0.94944 0.0
C1184 C 0.71864 0.12206 0.91682 0.0
C1185 C 0.73758 0.13627 0.9021 0.0
C1186 C 0.76337 0.14999 0.90943 0.0
C1187 C 0.76975 0.14869 0.9318 0.0
C1188 C 0.75075 0.13441 0.94652 0.0
H1189 H 0.67523 0.13895 0.95841 0.0
H1190 H 0.70672 0.14964 0.94906 0.0
H1191 H 0.67908 0.12942 0.93219 0.0
H1192 H 0.69895 0.11169 0.91074 0.0
H1193 H 0.73201 0.13639 0.88491 0.0
H1194 H 0.58484 0.63465 0.56357 0.0
H1195 H 0.60431 0.66404 0.53398 0.0
H1196 H 0.5681 0.60711 0.48571 0.0
H1197 H 0.54948 0.57774 0.51534 0.0
H1198 H 0.61592 0.63631 0.47698 0.0
H1199 H 0.57385 0.69064 0.49206 0.0
H1200 H 0.59153 0.68922 0.51575 0.0
H1201 H 0.5632 0.66238 0.50556 0.0
C1202 C 0.5808 0.62853 0.54661 0.0
C1203 C 0.56562 0.60398 0.54168 0.0
C1204 C 0.59185 0.64531 0.5297 0.0
C1205 C 0.58736 0.63786 0.50754 0.0
C1206 C 0.57186 0.61332 0.50265 0.0
H1207 H 0.61613 0.72801 0.39345 0.0
H1208 H 0.59835 0.7 0.42387 0.0
C1209 C 0.56121 0.59656 0.51955 0.0
C1210 C 0.59957 0.65537 0.48944 0.0
H1211 H 0.60685 0.70639 0.46654 0.0
C1212 C 0.61384 0.65159 0.47464 0.0
C1213 C 0.59668 0.67519 0.48625 0.0
C1214 C 0.58027 0.67949 0.50061 0.0
C1215 C 0.62516 0.66693 0.45671 0.0
C1216 C 0.62294 0.68717 0.45393 0.0
C1217 C 0.60877 0.69102 0.46878 0.0
C1218 C 0.63413 0.70399 0.43518 0.0
C1219 C 0.63862 0.66078 0.44057 0.0
C1220 C 0.66025 0.71573 0.43138 0.0
C1221 C 0.67043 0.73133 0.41351 0.0
C1222 C 0.65477 0.73591 0.39933 0.0
C1223 C 0.62871 0.7245 0.40356 0.0
C1224 C 0.61852 0.70866 0.42118 0.0
H1225 H 0.63218 0.64151 0.44135 0.0
H1226 H 0.63536 0.66507 0.42339 0.0
H1227 H 0.65941 0.67129 0.44471 0.0
H1228 H 0.67283 0.71291 0.44227 0.0
H1229 H 0.69053 0.73965 0.41077 0.0
H1230 H 0.57929 0.11572 0.56324 0.0
H1231 H 0.5647 0.13178 0.59108 0.0
H1232 H 0.56472 0.08246 0.63908 0.0
H1233 H 0.5794 0.0665 0.61157 0.0
H1234 H 0.51687 0.09994 0.62078 0.0
H1235 H 0.61198 0.15533 0.66402 0.0
H1236 H 0.6084 0.14717 0.63525 0.0
H1237 H 0.60205 0.12528 0.65623 0.0
C1238 C 0.57627 0.1084 0.57975 0.0
C1239 C 0.58044 0.08981 0.58518 0.0
C1240 C 0.56781 0.11746 0.59555 0.0
C1241 C 0.5637 0.10827 0.61706 0.0
C1242 C 0.56779 0.08974 0.62253 0.0
H1243 H 0.53317 0.14517 0.74194 0.0
H1244 H 0.54301 0.12812 0.71151 0.0
C1245 C 0.57604 0.08056 0.60675 0.0
C1246 C 0.55552 0.11818 0.63405 0.0
H1247 H 0.57695 0.15264 0.68057 0.0
C1248 C 0.52995 0.11161 0.6338 0.0
C1249 C 0.57267 0.13318 0.65102 0.0
C1250 C 0.60038 0.14086 0.65174 0.0
C1251 C 0.5209 0.11925 0.65051 0.0
C1252 C 0.5381 0.13431 0.66756 0.0
C1253 C 0.56376 0.14107 0.66755 0.0
C1254 C 0.53001 0.14308 0.68581 0.0
C1255 C 0.4929 0.11048 0.65015 0.0
C1256 C 0.51919 0.15698 0.6815 0.0
C1257 C 0.51336 0.16658 0.6989 0.0
C1258 C 0.51864 0.16276 0.72089 0.0
C1259 C 0.52908 0.14854 0.72515 0.0
C1260 C 0.53468 0.13878 0.70779 0.0
H1261 H 0.48138 0.09408 0.6399 0.0
H1262 H 0.48569 0.10658 0.66707 0.0
H1263 H 0.48998 0.12455 0.64294 0.0
H1264 H 0.51598 0.16102 0.6647 0.0
H1265 H 0.50565 0.17775 0.69515 0.0
H1266 H 0.54213 0.50925 0.1012 0.0
H1267 H 0.50445 0.50575 0.11685 0.0
H1268 H 0.5055 0.45935 0.16773 0.0
H1269 H 0.54244 0.46232 0.15214 0.0
H1270 H 0.45738 0.44293 0.14988 0.0
H1271 H 0.50631 0.53894 0.1738 0.0
H1272 H 0.50659 0.53291 0.14513 0.0
H1273 H 0.5235 0.52549 0.16537 0.0
C1274 C 0.53418 0.49819 0.11563 0.0
C1275 C 0.54538 0.48618 0.12549 0.0
C1276 C 0.51278 0.49633 0.12462 0.0
C1277 C 0.50241 0.48255 0.14365 0.0
C1278 C 0.5132 0.47011 0.15309 0.0
H1279 H 0.4168 0.48285 0.24879 0.0
H1280 H 0.44854 0.48871 0.22278 0.0
C1281 C 0.53441 0.4719 0.14414 0.0
C1282 C 0.48061 0.48112 0.1543 0.0
H1283 H 0.46391 0.51378 0.18394 0.0
C1284 C 0.45863 0.45844 0.15711 0.0
C1285 C 0.48248 0.50138 0.16391 0.0
C1286 C 0.50602 0.52607 0.16211 0.0
C1287 C 0.43884 0.45532 0.16989 0.0
C1288 C 0.44081 0.47555 0.1797 0.0
C1289 C 0.46242 0.49834 0.17631 0.0
C1290 C 0.42157 0.4732 0.19489 0.0
C1291 C 0.41663 0.43025 0.17368 0.0
C1292 C 0.39595 0.46294 0.18776 0.0
C1293 C 0.37775 0.45942 0.20263 0.0
C1294 C 0.38492 0.46641 0.22485 0.0
C1295 C 0.41073 0.47741 0.23176 0.0
C1296 C 0.42887 0.48074 0.21692 0.0
H1297 H 0.4209 0.41648 0.16929 0.0
H1298 H 0.41133 0.42769 0.19118 0.0
H1299 H 0.39992 0.42716 0.16323 0.0
H1300 H 0.38999 0.45749 0.17072 0.0
H1301 H 0.35807 0.45129 0.19675 0.0
H1302 H 0.02341 0.44746 0.61497 0.0
H1303 H 0.00577 0.42101 0.64673 0.0
H1304 H 0.02209 0.37145 0.61834 0.0
H1305 H 0.03959 0.39767 0.58642 0.0
H1306 H 0.97196 0.35019 0.63044 0.0
H1307 H 0.03889 0.40523 0.69914 0.0
H1308 H 0.02677 0.42033 0.68257 0.0
H1309 H 0.0467 0.41173 0.67052 0.0
C1310 C 0.02371 0.43116 0.61564 0.0
C1311 C 0.03291 0.4247 0.59808 0.0
C1312 C 0.01369 0.41609 0.63389 0.0
C1313 C 0.01279 0.39433 0.63501 0.0
C1314 C 0.02267 0.38819 0.61785 0.0
H1315 H 0.96254 0.29555 0.74698 0.0
H1316 H 0.98712 0.32254 0.71713 0.0
C1317 C 0.03274 0.40326 0.59963 0.0
C1318 C 0.99967 0.3771 0.65312 0.0
H1319 H 0.99962 0.37058 0.70918 0.0
C1320 C 0.97813 0.35459 0.64764 0.0
C1321 C 0.00784 0.38277 0.67555 0.0
C1322 C 0.03146 0.40624 0.68236 0.0
C1323 C 0.96417 0.33785 0.66399 0.0
C1324 C 0.97176 0.34385 0.68646 0.0
C1325 C 0.9937 0.36609 0.69194 0.0
C1326 C 0.95687 0.32741 0.70448 0.0
C1327 C 0.94143 0.31381 0.65707 0.0
C1328 C 0.93178 0.32134 0.70735 0.0
C1329 C 0.9177 0.30591 0.72431 0.0
C1330 C 0.92842 0.29624 0.73882 0.0
C1331 C 0.95361 0.30243 0.73593 0.0
C1332 C 0.96774 0.31797 0.71899 0.0
H1333 H 0.94202 0.3097 0.63954 0.0
H1334 H 0.94039 0.29929 0.66757 0.0
H1335 H 0.92376 0.31391 0.65896 0.0
H1336 H 0.92313 0.32866 0.69653 0.0
H1337 H 0.8983 0.30139 0.72595 0.0
H1338 H 0.64543 0.04872 0.19293 0.0
H1339 H 0.66282 0.02689 0.21202 0.0
H1340 H 0.68356 0.0133 0.14979 0.0
H1341 H 0.66642 0.03531 0.13064 0.0
H1342 H 0.64134 0.977 0.19982 0.0
H1343 H 0.74653 0.03213 0.193 0.0
H1344 H 0.72683 0.04487 0.1912 0.0
H1345 H 0.72751 0.02857 0.16826 0.0
C1346 C 0.65439 0.04173 0.1834 0.0
C1347 C 0.65443 0.04357 0.16028 0.0
C1348 C 0.66423 0.02919 0.1943 0.0
C1349 C 0.6746 0.01865 0.18231 0.0
C1350 C 0.67595 0.02159 0.15937 0.0
H1351 H 0.7149 0.91255 0.21365 0.0
H1352 H 0.71072 0.94448 0.19607 0.0
C1353 C 0.66594 0.03396 0.14844 0.0
C1354 C 0.68074 0.00192 0.19331 0.0
H1355 H 0.72907 0.99255 0.20652 0.0
C1356 C 0.66055 0.98047 0.20146 0.0
C1357 C 0.70573 0.00637 0.19497 0.0
C1358 C 0.72801 0.02929 0.18654 0.0
C1359 C 0.66459 0.96316 0.21113 0.0
C1360 C 0.68967 0.96776 0.21329 0.0
C1361 C 0.70991 0.98916 0.20496 0.0
C1362 C 0.69501 0.95052 0.22447 0.0
C1363 C 0.64181 0.93984 0.21844 0.0
C1364 C 0.68845 0.94404 0.24642 0.0
C1365 C 0.6905 0.92576 0.25627 0.0
C1366 C 0.6996 0.91392 0.24447 0.0
C1367 C 0.70774 0.9214 0.22298 0.0
C1368 C 0.70537 0.93958 0.21299 0.0
H1369 H 0.62385 0.93638 0.20992 0.0
H1370 H 0.64402 0.92452 0.21523 0.0
H1371 H 0.63992 0.94068 0.23643 0.0
H1372 H 0.68106 0.95269 0.25576 0.0
H1373 H 0.68458 0.92056 0.27303 0.0
H1374 H 0.6171 0.58504 0.64141 0.0
H1375 H 0.65027 0.58932 0.66783 0.0
H1376 H 0.64144 0.52434 0.64317 0.0
H1377 H 0.60826 0.52009 0.61629 0.0
H1378 H 0.64128 0.55604 0.7004 0.0
H1379 H 0.71913 0.5699 0.64812 0.0
H1380 H 0.69365 0.57374 0.63774 0.0
H1381 H 0.6882 0.54423 0.64114 0.0
C1382 C 0.62251 0.57186 0.6413 0.0
C1383 C 0.61001 0.55217 0.62681 0.0
C1384 C 0.64147 0.57434 0.65643 0.0
C1385 C 0.64838 0.55721 0.65745 0.0
C1386 C 0.63669 0.53798 0.64243 0.0
H1387 H 0.74782 0.53884 0.75128 0.0
H1388 H 0.71678 0.53357 0.72184 0.0
C1389 C 0.61772 0.53555 0.6271 0.0
C1390 C 0.6662 0.55861 0.67551 0.0
H1391 H 0.72421 0.56516 0.6865 0.0
C1392 C 0.65944 0.55808 0.69736 0.0
C1393 C 0.68978 0.56112 0.67149 0.0
C1394 C 0.69832 0.56249 0.64837 0.0
C1395 C 0.67562 0.56 0.71531 0.0
C1396 C 0.69936 0.56288 0.71131 0.0
C1397 C 0.706 0.56303 0.68948 0.0
C1398 C 0.71763 0.56586 0.72959 0.0
C1399 C 0.667 0.55862 0.73841 0.0
C1400 C 0.7284 0.58581 0.74371 0.0
C1401 C 0.74601 0.58879 0.76068 0.0
C1402 C 0.75313 0.57185 0.76383 0.0
C1403 C 0.74225 0.55189 0.74964 0.0
C1404 C 0.72473 0.54897 0.73266 0.0
H1405 H 0.64605 0.55043 0.73866 0.0
H1406 H 0.67241 0.54806 0.7493 0.0
H1407 H 0.67637 0.57697 0.74535 0.0
H1408 H 0.72346 0.59925 0.74138 0.0
H1409 H 0.75417 0.60439 0.77126 0.0
H1410 H 0.22045 0.62005 0.06562 0.0
H1411 H 0.23694 0.64779 0.0967 0.0
H1412 H 0.24826 0.70509 0.05319 0.0
H1413 H 0.2309 0.67705 0.0219 0.0
H1414 H 0.28371 0.69048 0.10441 0.0
H1415 H 0.20263 0.70492 0.10028 0.0
H1416 H 0.20163 0.68103 0.08538 0.0
H1417 H 0.22031 0.7113 0.07579 0.0
C1418 C 0.22632 0.63851 0.06263 0.0
C1419 C 0.22397 0.64626 0.04136 0.0
C1420 C 0.23595 0.6544 0.08039 0.0
C1421 C 0.24345 0.67839 0.0773 0.0
C1422 C 0.24217 0.68653 0.05596 0.0
H1423 H 0.28952 0.77479 0.1928 0.0
H1424 H 0.28432 0.76252 0.15401 0.0
C1425 C 0.23249 0.67056 0.03809 0.0
C1426 C 0.25167 0.69429 0.09682 0.0
H1427 H 0.23169 0.72127 0.13069 0.0
C1428 C 0.27263 0.69761 0.10996 0.0
C1429 C 0.23713 0.70354 0.104 0.0
C1430 C 0.21406 0.69997 0.09078 0.0
C1431 C 0.27871 0.70894 0.13058 0.0
C1432 C 0.2634 0.71704 0.13822 0.0
C1433 C 0.24336 0.71502 0.12462 0.0
C1434 C 0.26597 0.72478 0.16132 0.0
C1435 C 0.30079 0.7113 0.14454 0.0
C1436 C 0.25691 0.70752 0.17803 0.0
C1437 C 0.25955 0.71436 0.20003 0.0
C1438 C 0.27145 0.73865 0.20579 0.0
C1439 C 0.28011 0.75592 0.1889 0.0
C1440 C 0.2773 0.749 0.16679 0.0
H1441 H 0.31368 0.70852 0.13472 0.0
H1442 H 0.31195 0.72923 0.15247 0.0
H1443 H 0.29336 0.69769 0.15784 0.0
H1444 H 0.24784 0.6887 0.17401 0.0
H1445 H 0.25216 0.70056 0.21254 0.0
loop_
_geom_bond_atom_site_label_1
_geom_bond_atom_site_label_2
_geom_bond_distance
_geom_bond_site_symmetry_2
_ccdc_geom_bond_type
Cu0 N1 1.999 1_554 S
Cu0 O6 1.974 1_554 S
Cu0 N11 1.985 . S
Cu0 O20 1.959 . S
N1 Cu0 1.999 1_556 S
N1 C3 1.263 . S
N1 C5 1.389 . S
N2 C3 1.358 . S
N2 C4 1.400 . S
C3 N1 1.263 . S
C3 N2 1.358 . S
C3 H9 0.930 . S
C4 N2 1.400 . S
C4 C5 1.351 . S
C4 H21 0.930 . S
C5 N1 1.389 . S
C5 C4 1.351 . S
C5 H10 0.930 1_556 S
O6 Cu0 1.974 1_556 S
O6 C16 1.282 . S
C7 O8 1.261 . S
C7 O20 1.251 . S
O8 C7 1.261 . S
H9 C3 0.930 . S
H10 C5 0.930 1_554 S
N11 Cu0 1.985 . S
N11 C13 1.335 . S
N11 C14 1.390 . S
N12 C13 1.345 . S
N12 C15 1.336 . S
C13 N11 1.335 . S
C13 N12 1.345 . S
C13 H18 0.930 . S
C14 N11 1.390 . S
C14 C15 1.346 . S
C14 H19 0.930 1_554 S
C15 N12 1.336 . S
C15 C14 1.346 . S
C15 H22 0.929 . S
C16 O6 1.282 . S
C16 O17 1.216 . S
O17 C16 1.216 . S
H18 C13 0.930 . S
H19 C14 0.930 1_556 S
O20 Cu0 1.959 . S
O20 C7 1.251 . S
H21 C4 0.930 . S
H22 C15 0.929 . S
Cu23 N24 1.999 . S
Cu23 O29 1.974 . S
Cu23 N34 1.985 1_565 S
Cu23 O43 1.959 1_565 S
N24 Cu23 1.999 . S
N24 C26 1.263 . S
N24 C28 1.389 . S
N25 C26 1.358 . S
N25 C27 1.400 . S
C26 N24 1.263 . S
C26 N25 1.358 . S
C26 H32 0.930 . S
C27 N25 1.400 . S
C27 C28 1.351 . S
C27 H44 0.930 . S
C28 N24 1.389 . S
C28 C27 1.351 . S
C28 H33 0.930 . S
O29 Cu23 1.974 . S
O29 C39 1.282 . S
C30 O31 1.261 . S
C30 O43 1.251 . S
O31 C30 1.261 . S
H32 C26 0.930 . S
H33 C28 0.930 . S
N34 Cu23 1.985 1_545 S
N34 C36 1.335 . S
N34 C37 1.390 . S
N35 C36 1.345 . S
N35 C38 1.336 . S
C36 N34 1.335 . S
C36 N35 1.345 . S
C36 H41 0.930 . S
C37 N34 1.390 . S
C37 C38 1.346 . S
C37 H42 0.930 . S
C38 N35 1.336 . S
C38 C37 1.346 . S
C38 H45 0.929 . S
C39 O29 1.282 . S
C39 O40 1.216 1_565 S
O40 C39 1.216 1_545 S
H41 C36 0.930 . S
H42 C37 0.930 . S
O43 Cu23 1.959 1_545 S
O43 C30 1.251 . S
H44 C27 0.930 . S
H45 C38 0.929 . S
Cu46 N47 1.999 . S
Cu46 O52 1.974 . S
Cu46 N57 1.985 . S
Cu46 O66 1.959 . S
N47 Cu46 1.999 . S
N47 C49 1.263 . S
N47 C51 1.389 . S
N48 C49 1.358 . S
N48 C50 1.400 . S
C49 N47 1.263 . S
C49 N48 1.358 . S
C49 H55 0.930 . S
C50 N48 1.400 . S
C50 C51 1.351 . S
C50 H67 0.930 . S
C51 N47 1.389 . S
C51 C50 1.351 . S
C51 H56 0.930 . S
O52 Cu46 1.974 . S
O52 C62 1.282 . S
C53 O54 1.261 . S
C53 O66 1.251 . S
O54 C53 1.261 . S
H55 C49 0.930 . S
H56 C51 0.930 . S
N57 Cu46 1.985 . S
N57 C59 1.335 . S
N57 C60 1.390 . S
N58 C59 1.345 . S
N58 C61 1.336 . S
C59 N57 1.335 . S
C59 N58 1.345 . S
C59 H64 0.930 . S
C60 N57 1.390 . S
C60 C61 1.346 . S
C60 H65 0.930 . S
C61 N58 1.336 . S
C61 C60 1.346 . S
C61 H68 0.929 . S
C62 O52 1.282 . S
C62 O63 1.216 . S
O63 C62 1.216 . S
H64 C59 0.930 . S
H65 C60 0.930 . S
O66 Cu46 1.959 . S
O66 C53 1.251 . S
H67 C50 0.930 . S
H68 C61 0.929 . S
Cu69 N70 1.999 1_655 S
Cu69 O75 1.974 1_655 S
Cu69 N80 1.985 . S
Cu69 O89 1.959 . S
N70 Cu69 1.999 1_455 S
N70 C72 1.263 . S
N70 C74 1.389 1_455 S
N71 C72 1.358 . S
N71 C73 1.400 . S
C72 N70 1.263 . S
C72 N71 1.358 . S
C72 H78 0.930 . S
C73 N71 1.400 . S
C73 C74 1.351 1_455 S
C73 H90 0.930 1_455 S
C74 N70 1.389 1_655 S
C74 C73 1.351 1_655 S
C74 H79 0.930 . S
O75 Cu69 1.974 1_455 S
O75 C85 1.282 . S
C76 O77 1.261 1_655 S
C76 O89 1.251 . S
O77 C76 1.261 1_455 S
H78 C72 0.930 . S
H79 C74 0.930 . S
N80 Cu69 1.985 . S
N80 C82 1.335 . S
N80 C83 1.390 . S
N81 C82 1.345 . S
N81 C84 1.336 . S
C82 N80 1.335 . S
C82 N81 1.345 . S
C82 H87 0.930 . S
C83 N80 1.390 . S
C83 C84 1.346 . S
C83 H88 0.930 1_655 S
C84 N81 1.336 . S
C84 C83 1.346 . S
C84 H91 0.929 . S
C85 O75 1.282 . S
C85 O86 1.216 . S
O86 C85 1.216 . S
H87 C82 0.930 . S
H88 C83 0.930 1_455 S
O89 Cu69 1.959 . S
O89 C76 1.251 . S
H90 C73 0.930 1_655 S
H91 C84 0.929 . S
Cu92 N93 1.999 . S
Cu92 O98 1.974 . S
Cu92 N103 1.985 . S
Cu92 O112 1.959 . S
N93 Cu92 1.999 . S
N93 C95 1.263 . S
N93 C97 1.389 . S
N94 C95 1.358 . S
N94 C96 1.400 . S
C95 N93 1.263 . S
C95 N94 1.358 . S
C95 H101 0.930 . S
C96 N94 1.400 . S
C96 C97 1.351 . S
C96 H113 0.930 . S
C97 N93 1.389 . S
C97 C96 1.351 . S
C97 H102 0.930 . S
O98 Cu92 1.974 . S
O98 C108 1.282 . S
C99 O100 1.261 . S
C99 O112 1.251 . S
O100 C99 1.261 . S
H101 C95 0.930 . S
H102 C97 0.930 . S
N103 Cu92 1.985 . S
N103 C105 1.335 . S
N103 C106 1.390 . S
N104 C105 1.345 . S
N104 C107 1.336 . S
C105 N103 1.335 . S
C105 N104 1.345 . S
C105 H110 0.930 . S
C106 N103 1.390 . S
C106 C107 1.346 . S
C106 H111 0.930 . S
C107 N104 1.336 . S
C107 C106 1.346 . S
C107 H114 0.929 . S
C108 O98 1.282 . S
C108 O109 1.216 . S
O109 C108 1.216 . S
H110 C105 0.930 . S
H111 C106 0.930 . S
O112 Cu92 1.959 . S
O112 C99 1.251 . S
H113 C96 0.930 . S
H114 C107 0.929 . S
Cu115 N116 1.999 . S
Cu115 O121 1.974 . S
Cu115 N126 1.985 . S
Cu115 O135 1.959 . S
N116 Cu115 1.999 . S
N116 C118 1.263 . S
N116 C120 1.389 . S
N117 C118 1.358 . S
N117 C119 1.400 . S
C118 N116 1.263 . S
C118 N117 1.358 . S
C118 H124 0.930 . S
C119 N117 1.400 . S
C119 C120 1.351 . S
C119 H136 0.930 . S
C120 N116 1.389 . S
C120 C119 1.351 . S
C120 H125 0.930 . S
O121 Cu115 1.974 . S
O121 C131 1.282 . S
C122 O123 1.261 . S
C122 O135 1.251 . S
O123 C122 1.261 . S
H124 C118 0.930 . S
H125 C120 0.930 . S
N126 Cu115 1.985 . S
N126 C128 1.335 . S
N126 C129 1.390 . S
N127 C128 1.345 . S
N127 C130 1.336 . S
C128 N126 1.335 . S
C128 N127 1.345 . S
C128 H133 0.930 . S
C129 N126 1.390 . S
C129 C130 1.346 . S
C129 H134 0.930 . S
C130 N127 1.336 . S
C130 C129 1.346 . S
C130 H137 0.929 . S
C131 O121 1.282 . S
C131 O132 1.216 . S
O132 C131 1.216 . S
H133 C128 0.930 . S
H134 C129 0.930 . S
O135 Cu115 1.959 . S
O135 C122 1.251 . S
H136 C119 0.930 . S
H137 C130 0.929 . S
H138 O164 0.856 . S
H139 O167 0.854 . S
H140 C175 0.930 . S
H141 C176 0.930 . S
H142 C178 0.930 . S
H143 C179 0.930 . S
H144 C181 0.931 . S
H145 C182 0.930 . S
H146 C184 0.930 . S
H147 C185 0.929 . S
H148 C187 0.930 . S
H149 C188 0.931 . S
H150 C190 0.930 . S
H151 C191 0.929 . S
H152 C193 0.931 . S
H153 C194 0.930 . S
H154 C196 0.930 . S
H155 C197 0.932 . S
H156 C199 0.930 . S
H157 C200 0.929 . S
H158 C202 0.931 . S
H159 C203 0.930 . S
H160 C205 0.929 . S
H161 C206 0.931 . S
H162 C208 0.930 . S
H163 C209 0.929 . S
O164 H138 0.856 . S
O164 C210 1.300 . S
O165 C210 1.209 . S
O166 C211 1.199 . S
O167 H139 0.854 . S
O167 C211 1.297 . S
C168 C169 1.404 . S
C168 C173 1.397 . S
C168 C174 1.492 . S
C169 C168 1.404 . S
C169 C170 1.396 . S
C169 C180 1.492 . S
C170 C169 1.396 . S
C170 C171 1.397 . S
C170 C186 1.509 . S
C171 C170 1.397 . S
C171 C172 1.412 . S
C171 C192 1.485 . S
C172 C171 1.412 . S
C172 C173 1.388 . S
C172 C198 1.490 . S
C173 C168 1.397 . S
C173 C172 1.388 . S
C173 C204 1.519 . S
C174 C168 1.492 . S
C174 C175 1.363 . S
C174 C179 1.390 . S
C175 H140 0.930 . S
C175 C174 1.363 . S
C175 C176 1.372 . S
C176 H141 0.930 . S
C176 C175 1.372 . S
C176 C177 1.383 . S
C177 C176 1.383 . S
C177 C178 1.395 . S
C178 H142 0.930 . S
C178 C177 1.395 . S
C178 C179 1.362 . S
C179 H143 0.930 . S
C179 C174 1.390 . S
C179 C178 1.362 . S
C180 C169 1.492 . S
C180 C181 1.377 . S
C180 C185 1.397 . S
C181 H144 0.931 . S
C181 C180 1.377 . S
C181 C182 1.376 . S
C182 H145 0.930 . S
C182 C181 1.376 . S
C182 C183 1.376 . S
C183 C182 1.376 . S
C183 C184 1.378 . S
C183 C210 1.486 . S
C184 H146 0.930 . S
C184 C183 1.378 . S
C184 C185 1.376 . S
C185 H147 0.929 . S
C185 C180 1.397 . S
C185 C184 1.376 . S
C186 C170 1.509 . S
C186 C187 1.391 . S
C186 C191 1.386 . S
C187 H148 0.930 . S
C187 C186 1.391 . S
C187 C188 1.375 . S
C188 H149 0.931 . S
C188 C187 1.375 . S
C188 C189 1.375 . S
C189 C188 1.375 . S
C189 C190 1.361 . S
C190 H150 0.930 . S
C190 C189 1.361 . S
C190 C191 1.399 . S
C191 H151 0.929 . S
C191 C186 1.386 . S
C191 C190 1.399 . S
C192 C171 1.485 . S
C192 C193 1.394 . S
C192 C197 1.360 . S
C193 H152 0.931 . S
C193 C192 1.394 . S
C193 C194 1.372 . S
C194 H153 0.930 . S
C194 C193 1.372 . S
C194 C195 1.397 . S
C195 C194 1.397 . S
C195 C196 1.390 . S
C195 C211 1.476 . S
C196 H154 0.930 . S
C196 C195 1.390 . S
C196 C197 1.366 . S
C197 H155 0.932 . S
C197 C192 1.360 . S
C197 C196 1.366 . S
C198 C172 1.490 . S
C198 C199 1.380 . S
C198 C203 1.386 . S
C199 H156 0.930 . S
C199 C198 1.380 . S
C199 C200 1.381 . S
C200 H157 0.929 . S
C200 C199 1.381 . S
C200 C201 1.371 . S
C201 C200 1.371 . S
C201 C202 1.380 . S
C202 H158 0.931 . S
C202 C201 1.380 . S
C202 C203 1.387 . S
C203 H159 0.930 . S
C203 C198 1.386 . S
C203 C202 1.387 . S
C204 C173 1.519 . S
C204 C205 1.377 . S
C204 C209 1.361 . S
C205 H160 0.929 . S
C205 C204 1.377 . S
C205 C206 1.386 . S
C206 H161 0.931 . S
C206 C205 1.386 . S
C206 C207 1.363 . S
C207 C206 1.363 . S
C207 C208 1.385 . S
C208 H162 0.930 . S
C208 C207 1.385 . S
C208 C209 1.396 . S
C209 H163 0.929 . S
C209 C204 1.361 . S
C209 C208 1.396 . S
C210 O164 1.300 . S
C210 O165 1.209 . S
C210 C183 1.486 . S
C211 O166 1.199 . S
C211 O167 1.297 . S
C211 C195 1.476 . S
H212 O238 0.856 . S
H213 O241 0.854 . S
H214 C249 0.930 . S
H215 C250 0.930 . S
H216 C252 0.930 . S
H217 C253 0.930 . S
H218 C255 0.931 . S
H219 C256 0.930 . S
H220 C258 0.930 . S
H221 C259 0.929 . S
H222 C261 0.930 . S
H223 C262 0.931 . S
H224 C264 0.930 . S
H225 C265 0.929 . S
H226 C267 0.931 . S
H227 C268 0.930 . S
H228 C270 0.930 . S
H229 C271 0.932 . S
H230 C273 0.930 . S
H231 C274 0.929 . S
H232 C276 0.931 . S
H233 C277 0.930 . S
H234 C279 0.929 . S
H235 C280 0.931 . S
H236 C282 0.930 . S
H237 C283 0.929 . S
O238 H212 0.856 . S
O238 C284 1.300 . S
O239 C284 1.209 . S
O240 C285 1.199 . S
O241 H213 0.854 . S
O241 C285 1.297 . S
C242 C243 1.404 . S
C242 C247 1.397 . S
C242 C248 1.492 . S
C243 C242 1.404 . S
C243 C244 1.396 . S
C243 C254 1.492 . S
C244 C243 1.396 . S
C244 C245 1.397 . S
C244 C260 1.509 . S
C245 C244 1.397 . S
C245 C246 1.412 . S
C245 C266 1.485 . S
C246 C245 1.412 . S
C246 C247 1.388 . S
C246 C272 1.490 . S
C247 C242 1.397 . S
C247 C246 1.388 . S
C247 C278 1.519 . S
C248 C242 1.492 . S
C248 C249 1.363 . S
C248 C253 1.390 . S
C249 H214 0.930 . S
C249 C248 1.363 . S
C249 C250 1.372 . S
C250 H215 0.930 . S
C250 C249 1.372 . S
C250 C251 1.383 . S
C251 C250 1.383 . S
C251 C252 1.395 . S
C252 H216 0.930 . S
C252 C251 1.395 . S
C252 C253 1.362 . S
C253 H217 0.930 . S
C253 C248 1.390 . S
C253 C252 1.362 . S
C254 C243 1.492 . S
C254 C255 1.377 . S
C254 C259 1.397 . S
C255 H218 0.931 . S
C255 C254 1.377 . S
C255 C256 1.376 . S
C256 H219 0.930 . S
C256 C255 1.376 . S
C256 C257 1.376 . S
C257 C256 1.376 . S
C257 C258 1.378 . S
C257 C284 1.486 . S
C258 H220 0.930 . S
C258 C257 1.378 . S
C258 C259 1.376 . S
C259 H221 0.929 . S
C259 C254 1.397 . S
C259 C258 1.376 . S
C260 C244 1.509 . S
C260 C261 1.391 . S
C260 C265 1.386 . S
C261 H222 0.930 . S
C261 C260 1.391 . S
C261 C262 1.375 . S
C262 H223 0.931 . S
C262 C261 1.375 . S
C262 C263 1.375 . S
C263 C262 1.375 . S
C263 C264 1.361 . S
C264 H224 0.930 . S
C264 C263 1.361 . S
C264 C265 1.399 . S
C265 H225 0.929 . S
C265 C260 1.386 . S
C265 C264 1.399 . S
C266 C245 1.485 . S
C266 C267 1.394 . S
C266 C271 1.360 . S
C267 H226 0.931 . S
C267 C266 1.394 . S
C267 C268 1.372 . S
C268 H227 0.930 . S
C268 C267 1.372 . S
C268 C269 1.397 . S
C269 C268 1.397 . S
C269 C270 1.390 . S
C269 C285 1.476 . S
C270 H228 0.930 . S
C270 C269 1.390 . S
C270 C271 1.366 . S
C271 H229 0.932 . S
C271 C266 1.360 . S
C271 C270 1.366 . S
C272 C246 1.490 . S
C272 C273 1.380 . S
C272 C277 1.386 . S
C273 H230 0.930 . S
C273 C272 1.380 . S
C273 C274 1.381 . S
C274 H231 0.929 . S
C274 C273 1.381 . S
C274 C275 1.371 . S
C275 C274 1.371 . S
C275 C276 1.380 . S
C276 H232 0.931 . S
C276 C275 1.380 . S
C276 C277 1.387 . S
C277 H233 0.930 . S
C277 C272 1.386 . S
C277 C276 1.387 . S
C278 C247 1.519 . S
C278 C279 1.377 . S
C278 C283 1.361 . S
C279 H234 0.929 . S
C279 C278 1.377 . S
C279 C280 1.386 . S
C280 H235 0.931 . S
C280 C279 1.386 . S
C280 C281 1.363 . S
C281 C280 1.363 . S
C281 C282 1.385 . S
C282 H236 0.930 . S
C282 C281 1.385 . S
C282 C283 1.396 . S
C283 H237 0.929 . S
C283 C278 1.361 . S
C283 C282 1.396 . S
C284 O238 1.300 . S
C284 O239 1.209 . S
C284 C257 1.486 . S
C285 O240 1.199 . S
C285 O241 1.297 . S
C285 C269 1.476 . S
H286 O312 0.856 . S
H287 O315 0.854 . S
H288 C323 0.930 . S
H289 C324 0.930 . S
H290 C326 0.930 . S
H291 C327 0.930 . S
H292 C329 0.931 . S
H293 C330 0.930 . S
H294 C332 0.930 . S
H295 C333 0.929 . S
H296 C335 0.930 . S
H297 C336 0.931 . S
H298 C338 0.930 . S
H299 C339 0.929 . S
H300 C341 0.931 . S
H301 C342 0.930 . S
H302 C344 0.930 . S
H303 C345 0.932 . S
H304 C347 0.930 . S
H305 C348 0.929 . S
H306 C350 0.931 . S
H307 C351 0.930 . S
H308 C353 0.929 . S
H309 C354 0.931 . S
H310 C356 0.930 . S
H311 C357 0.929 . S
O312 H286 0.856 . S
O312 C358 1.300 . S
O313 C358 1.209 . S
O314 C359 1.199 . S
O315 H287 0.854 . S
O315 C359 1.297 . S
C316 C317 1.404 . S
C316 C321 1.397 . S
C316 C322 1.492 . S
C317 C316 1.404 . S
C317 C318 1.396 . S
C317 C328 1.492 . S
C318 C317 1.396 . S
C318 C319 1.397 . S
C318 C334 1.509 . S
C319 C318 1.397 . S
C319 C320 1.412 . S
C319 C340 1.485 . S
C320 C319 1.412 . S
C320 C321 1.388 . S
C320 C346 1.490 . S
C321 C316 1.397 . S
C321 C320 1.388 . S
C321 C352 1.519 . S
C322 C316 1.492 . S
C322 C323 1.363 . S
C322 C327 1.390 . S
C323 H288 0.930 . S
C323 C322 1.363 . S
C323 C324 1.372 . S
C324 H289 0.930 . S
C324 C323 1.372 . S
C324 C325 1.383 . S
C325 C324 1.383 . S
C325 C326 1.395 . S
C326 H290 0.930 . S
C326 C325 1.395 . S
C326 C327 1.362 . S
C327 H291 0.930 . S
C327 C322 1.390 . S
C327 C326 1.362 . S
C328 C317 1.492 . S
C328 C329 1.377 . S
C328 C333 1.397 . S
C329 H292 0.931 . S
C329 C328 1.377 . S
C329 C330 1.376 . S
C330 H293 0.930 . S
C330 C329 1.376 . S
C330 C331 1.376 . S
C331 C330 1.376 . S
C331 C332 1.378 . S
C331 C358 1.486 . S
C332 H294 0.930 . S
C332 C331 1.378 . S
C332 C333 1.376 . S
C333 H295 0.929 . S
C333 C328 1.397 . S
C333 C332 1.376 . S
C334 C318 1.509 . S
C334 C335 1.391 . S
C334 C339 1.386 . S
C335 H296 0.930 . S
C335 C334 1.391 . S
C335 C336 1.375 . S
C336 H297 0.931 . S
C336 C335 1.375 . S
C336 C337 1.375 . S
C337 C336 1.375 . S
C337 C338 1.361 . S
C338 H298 0.930 . S
C338 C337 1.361 . S
C338 C339 1.399 . S
C339 H299 0.929 . S
C339 C334 1.386 . S
C339 C338 1.399 . S
C340 C319 1.485 . S
C340 C341 1.394 . S
C340 C345 1.360 . S
C341 H300 0.931 . S
C341 C340 1.394 . S
C341 C342 1.372 . S
C342 H301 0.930 . S
C342 C341 1.372 . S
C342 C343 1.397 . S
C343 C342 1.397 . S
C343 C344 1.390 . S
C343 C359 1.476 . S
C344 H302 0.930 . S
C344 C343 1.390 . S
C344 C345 1.366 . S
C345 H303 0.932 . S
C345 C340 1.360 . S
C345 C344 1.366 . S
C346 C320 1.490 . S
C346 C347 1.380 . S
C346 C351 1.386 . S
C347 H304 0.930 . S
C347 C346 1.380 . S
C347 C348 1.381 . S
C348 H305 0.929 . S
C348 C347 1.381 . S
C348 C349 1.371 . S
C349 C348 1.371 . S
C349 C350 1.380 . S
C350 H306 0.931 . S
C350 C349 1.380 . S
C350 C351 1.387 . S
C351 H307 0.930 . S
C351 C346 1.386 . S
C351 C350 1.387 . S
C352 C321 1.519 . S
C352 C353 1.377 . S
C352 C357 1.361 . S
C353 H308 0.929 . S
C353 C352 1.377 . S
C353 C354 1.386 . S
C354 H309 0.931 . S
C354 C353 1.386 . S
C354 C355 1.363 . S
C355 C354 1.363 . S
C355 C356 1.385 . S
C356 H310 0.930 . S
C356 C355 1.385 . S
C356 C357 1.396 . S
C357 H311 0.929 . S
C357 C352 1.361 . S
C357 C356 1.396 . S
C358 O312 1.300 . S
C358 O313 1.209 . S
C358 C331 1.486 . S
C359 O314 1.199 . S
C359 O315 1.297 . S
C359 C343 1.476 . S
H360 O386 0.856 . S
H361 O389 0.854 . S
H362 C397 0.930 . S
H363 C398 0.930 . S
H364 C400 0.930 . S
H365 C401 0.930 . S
H366 C403 0.931 . S
H367 C404 0.930 . S
H368 C406 0.930 . S
H369 C407 0.929 . S
H370 C409 0.930 . S
H371 C410 0.931 . S
H372 C412 0.930 . S
H373 C413 0.929 . S
H374 C415 0.931 . S
H375 C416 0.930 1_455 S
H376 C418 0.930 . S
H377 C419 0.932 . S
H378 C421 0.930 . S
H379 C422 0.929 . S
H380 C424 0.931 . S
H381 C425 0.930 . S
H382 C427 0.929 . S
H383 C428 0.931 . S
H384 C430 0.930 . S
H385 C431 0.929 . S
O386 H360 0.856 . S
O386 C432 1.300 . S
O387 C432 1.209 . S
O388 C433 1.199 . S
O389 H361 0.854 . S
O389 C433 1.297 . S
C390 C391 1.404 . S
C390 C395 1.397 . S
C390 C396 1.492 . S
C391 C390 1.404 . S
C391 C392 1.396 . S
C391 C402 1.492 . S
C392 C391 1.396 . S
C392 C393 1.397 . S
C392 C408 1.509 . S
C393 C392 1.397 . S
C393 C394 1.412 . S
C393 C414 1.485 . S
C394 C393 1.412 . S
C394 C395 1.388 . S
C394 C420 1.490 . S
C395 C390 1.397 . S
C395 C394 1.388 . S
C395 C426 1.519 . S
C396 C390 1.492 . S
C396 C397 1.363 . S
C396 C401 1.390 . S
C397 H362 0.930 . S
C397 C396 1.363 . S
C397 C398 1.372 . S
C398 H363 0.930 . S
C398 C397 1.372 . S
C398 C399 1.383 . S
C399 C398 1.383 . S
C399 C400 1.395 . S
C400 H364 0.930 . S
C400 C399 1.395 . S
C400 C401 1.362 . S
C401 H365 0.930 . S
C401 C396 1.390 . S
C401 C400 1.362 . S
C402 C391 1.492 . S
C402 C403 1.377 . S
C402 C407 1.397 . S
C403 H366 0.931 . S
C403 C402 1.377 . S
C403 C404 1.376 . S
C404 H367 0.930 . S
C404 C403 1.376 . S
C404 C405 1.376 . S
C405 C404 1.376 . S
C405 C406 1.378 . S
C405 C432 1.486 . S
C406 H368 0.930 . S
C406 C405 1.378 . S
C406 C407 1.376 . S
C407 H369 0.929 . S
C407 C402 1.397 . S
C407 C406 1.376 . S
C408 C392 1.509 . S
C408 C409 1.391 . S
C408 C413 1.386 . S
C409 H370 0.930 . S
C409 C408 1.391 . S
C409 C410 1.375 . S
C410 H371 0.931 . S
C410 C409 1.375 . S
C410 C411 1.375 . S
C411 C410 1.375 . S
C411 C412 1.361 . S
C412 H372 0.930 . S
C412 C411 1.361 . S
C412 C413 1.399 . S
C413 H373 0.929 . S
C413 C408 1.386 . S
C413 C412 1.399 . S
C414 C393 1.485 . S
C414 C415 1.394 . S
C414 C419 1.360 . S
C415 H374 0.931 . S
C415 C414 1.394 . S
C415 C416 1.372 . S
C416 H375 0.930 1_655 S
C416 C415 1.372 . S
C416 C417 1.397 . S
C417 C416 1.397 . S
C417 C418 1.390 . S
C417 C433 1.476 1_655 S
C418 H376 0.930 . S
C418 C417 1.390 . S
C418 C419 1.366 . S
C419 H377 0.932 . S
C419 C414 1.360 . S
C419 C418 1.366 . S
C420 C394 1.490 . S
C420 C421 1.380 . S
C420 C425 1.386 . S
C421 H378 0.930 . S
C421 C420 1.380 . S
C421 C422 1.381 . S
C422 H379 0.929 . S
C422 C421 1.381 . S
C422 C423 1.371 . S
C423 C422 1.371 . S
C423 C424 1.380 . S
C424 H380 0.931 . S
C424 C423 1.380 . S
C424 C425 1.387 . S
C425 H381 0.930 . S
C425 C420 1.386 . S
C425 C424 1.387 . S
C426 C395 1.519 . S
C426 C427 1.377 . S
C426 C431 1.361 . S
C427 H382 0.929 . S
C427 C426 1.377 . S
C427 C428 1.386 . S
C428 H383 0.931 . S
C428 C427 1.386 . S
C428 C429 1.363 . S
C429 C428 1.363 . S
C429 C430 1.385 . S
C430 H384 0.930 . S
C430 C429 1.385 . S
C430 C431 1.396 . S
C431 H385 0.929 . S
C431 C426 1.361 . S
C431 C430 1.396 . S
C432 O386 1.300 . S
C432 O387 1.209 . S
C432 C405 1.486 . S
C433 O388 1.199 . S
C433 O389 1.297 . S
C433 C417 1.476 1_455 S
H434 O460 0.856 . S
H435 O463 0.854 . S
H436 C471 0.930 . S
H437 C472 0.930 . S
H438 C474 0.930 . S
H439 C475 0.930 . S
H440 C477 0.931 . S
H441 C478 0.930 . S
H442 C480 0.930 . S
H443 C481 0.929 . S
H444 C483 0.930 . S
H445 C484 0.931 . S
H446 C486 0.930 . S
H447 C487 0.929 . S
H448 C489 0.931 . S
H449 C490 0.930 . S
H450 C492 0.930 . S
H451 C493 0.932 . S
H452 C495 0.930 . S
H453 C496 0.929 . S
H454 C498 0.931 . S
H455 C499 0.930 . S
H456 C501 0.929 . S
H457 C502 0.931 . S
H458 C504 0.930 . S
H459 C505 0.929 . S
O460 H434 0.856 . S
O460 C506 1.300 . S
O461 C506 1.209 . S
O462 C507 1.199 . S
O463 H435 0.854 . S
O463 C507 1.297 . S
C464 C465 1.404 . S
C464 C469 1.397 . S
C464 C470 1.492 . S
C465 C464 1.404 . S
C465 C466 1.396 . S
C465 C476 1.492 . S
C466 C465 1.396 . S
C466 C467 1.397 . S
C466 C482 1.509 . S
C467 C466 1.397 . S
C467 C468 1.412 . S
C467 C488 1.485 . S
C468 C467 1.412 . S
C468 C469 1.388 . S
C468 C494 1.490 . S
C469 C464 1.397 . S
C469 C468 1.388 . S
C469 C500 1.519 . S
C470 C464 1.492 . S
C470 C471 1.363 . S
C470 C475 1.390 . S
C471 H436 0.930 . S
C471 C470 1.363 . S
C471 C472 1.372 . S
C472 H437 0.930 . S
C472 C471 1.372 . S
C472 C473 1.383 . S
C473 C472 1.383 . S
C473 C474 1.395 . S
C474 H438 0.930 . S
C474 C473 1.395 . S
C474 C475 1.362 . S
C475 H439 0.930 . S
C475 C470 1.390 . S
C475 C474 1.362 . S
C476 C465 1.492 . S
C476 C477 1.377 . S
C476 C481 1.397 . S
C477 H440 0.931 . S
C477 C476 1.377 . S
C477 C478 1.376 . S
C478 H441 0.930 . S
C478 C477 1.376 . S
C478 C479 1.376 . S
C479 C478 1.376 . S
C479 C480 1.378 . S
C479 C506 1.486 . S
C480 H442 0.930 . S
C480 C479 1.378 . S
C480 C481 1.376 . S
C481 H443 0.929 . S
C481 C476 1.397 . S
C481 C480 1.376 . S
C482 C466 1.509 . S
C482 C483 1.391 . S
C482 C487 1.386 . S
C483 H444 0.930 . S
C483 C482 1.391 . S
C483 C484 1.375 . S
C484 H445 0.931 . S
C484 C483 1.375 . S
C484 C485 1.375 . S
C485 C484 1.375 . S
C485 C486 1.361 . S
C486 H446 0.930 . S
C486 C485 1.361 . S
C486 C487 1.399 . S
C487 H447 0.929 . S
C487 C482 1.386 . S
C487 C486 1.399 . S
C488 C467 1.485 . S
C488 C489 1.394 . S
C488 C493 1.360 . S
C489 H448 0.931 . S
C489 C488 1.394 . S
C489 C490 1.372 . S
C490 H449 0.930 . S
C490 C489 1.372 . S
C490 C491 1.397 . S
C491 C490 1.397 . S
C491 C492 1.390 . S
C491 C507 1.476 . S
C492 H450 0.930 . S
C492 C491 1.390 . S
C492 C493 1.366 . S
C493 H451 0.932 . S
C493 C488 1.360 . S
C493 C492 1.366 . S
C494 C468 1.490 . S
C494 C495 1.380 . S
C494 C499 1.386 . S
C495 H452 0.930 . S
C495 C494 1.380 . S
C495 C496 1.381 . S
C496 H453 0.929 . S
C496 C495 1.381 . S
C496 C497 1.371 . S
C497 C496 1.371 . S
C497 C498 1.380 . S
C498 H454 0.931 . S
C498 C497 1.380 . S
C498 C499 1.387 . S
C499 H455 0.930 . S
C499 C494 1.386 . S
C499 C498 1.387 . S
C500 C469 1.519 . S
C500 C501 1.377 . S
C500 C505 1.361 . S
C501 H456 0.929 . S
C501 C500 1.377 . S
C501 C502 1.386 . S
C502 H457 0.931 . S
C502 C501 1.386 . S
C502 C503 1.363 . S
C503 C502 1.363 . S
C503 C504 1.385 . S
C504 H458 0.930 . S
C504 C503 1.385 . S
C504 C505 1.396 . S
C505 H459 0.929 . S
C505 C500 1.361 . S
C505 C504 1.396 . S
C506 O460 1.300 . S
C506 O461 1.209 . S
C506 C479 1.486 . S
C507 O462 1.199 . S
C507 O463 1.297 . S
C507 C491 1.476 . S
H508 O534 0.856 . S
H509 O537 0.854 . S
H510 C545 0.930 . S
H511 C546 0.930 . S
H512 C548 0.930 . S
H513 C549 0.930 . S
H514 C551 0.931 . S
H515 C552 0.930 . S
H516 C554 0.930 . S
H517 C555 0.929 . S
H518 C557 0.930 . S
H519 C558 0.931 . S
H520 C560 0.930 . S
H521 C561 0.929 . S
H522 C563 0.931 . S
H523 C564 0.930 . S
H524 C566 0.930 . S
H525 C567 0.932 . S
H526 C569 0.930 . S
H527 C570 0.929 . S
H528 C572 0.931 . S
H529 C573 0.930 . S
H530 C575 0.929 . S
H531 C576 0.931 . S
H532 C578 0.930 . S
H533 C579 0.929 . S
O534 H508 0.856 . S
O534 C580 1.300 . S
O535 C580 1.209 . S
O536 C581 1.199 . S
O537 H509 0.854 . S
O537 C581 1.297 . S
C538 C539 1.404 . S
C538 C543 1.397 . S
C538 C544 1.492 . S
C539 C538 1.404 . S
C539 C540 1.396 . S
C539 C550 1.492 . S
C540 C539 1.396 . S
C540 C541 1.397 . S
C540 C556 1.509 . S
C541 C540 1.397 . S
C541 C542 1.412 . S
C541 C562 1.485 . S
C542 C541 1.412 . S
C542 C543 1.388 . S
C542 C568 1.490 . S
C543 C538 1.397 . S
C543 C542 1.388 . S
C543 C574 1.519 . S
C544 C538 1.492 . S
C544 C545 1.363 . S
C544 C549 1.390 . S
C545 H510 0.930 . S
C545 C544 1.363 . S
C545 C546 1.372 . S
C546 H511 0.930 . S
C546 C545 1.372 . S
C546 C547 1.383 . S
C547 C546 1.383 . S
C547 C548 1.395 . S
C548 H512 0.930 . S
C548 C547 1.395 . S
C548 C549 1.362 . S
C549 H513 0.930 . S
C549 C544 1.390 . S
C549 C548 1.362 . S
C550 C539 1.492 . S
C550 C551 1.377 . S
C550 C555 1.397 . S
C551 H514 0.931 . S
C551 C550 1.377 . S
C551 C552 1.376 . S
C552 H515 0.930 . S
C552 C551 1.376 . S
C552 C553 1.376 . S
C553 C552 1.376 . S
C553 C554 1.378 . S
C553 C580 1.486 . S
C554 H516 0.930 . S
C554 C553 1.378 . S
C554 C555 1.376 . S
C555 H517 0.929 . S
C555 C550 1.397 . S
C555 C554 1.376 . S
C556 C540 1.509 . S
C556 C557 1.391 . S
C556 C561 1.386 . S
C557 H518 0.930 . S
C557 C556 1.391 . S
C557 C558 1.375 . S
C558 H519 0.931 . S
C558 C557 1.375 . S
C558 C559 1.375 . S
C559 C558 1.375 . S
C559 C560 1.361 . S
C560 H520 0.930 . S
C560 C559 1.361 . S
C560 C561 1.399 . S
C561 H521 0.929 . S
C561 C556 1.386 . S
C561 C560 1.399 . S
C562 C541 1.485 . S
C562 C563 1.394 . S
C562 C567 1.360 . S
C563 H522 0.931 . S
C563 C562 1.394 . S
C563 C564 1.372 . S
C564 H523 0.930 . S
C564 C563 1.372 . S
C564 C565 1.397 . S
C565 C564 1.397 . S
C565 C566 1.390 . S
C565 C581 1.476 . S
C566 H524 0.930 . S
C566 C565 1.390 . S
C566 C567 1.366 . S
C567 H525 0.932 . S
C567 C562 1.360 . S
C567 C566 1.366 . S
C568 C542 1.490 . S
C568 C569 1.380 . S
C568 C573 1.386 . S
C569 H526 0.930 . S
C569 C568 1.380 . S
C569 C570 1.381 . S
C570 H527 0.929 . S
C570 C569 1.381 . S
C570 C571 1.371 . S
C571 C570 1.371 . S
C571 C572 1.380 . S
C572 H528 0.931 . S
C572 C571 1.380 . S
C572 C573 1.387 . S
C573 H529 0.930 . S
C573 C568 1.386 . S
C573 C572 1.387 . S
C574 C543 1.519 . S
C574 C575 1.377 . S
C574 C579 1.361 . S
C575 H530 0.929 . S
C575 C574 1.377 . S
C575 C576 1.386 . S
C576 H531 0.931 . S
C576 C575 1.386 . S
C576 C577 1.363 . S
C577 C576 1.363 . S
C577 C578 1.385 . S
C578 H532 0.930 . S
C578 C577 1.385 . S
C578 C579 1.396 . S
C579 H533 0.929 . S
C579 C574 1.361 . S
C579 C578 1.396 . S
C580 O534 1.300 . S
C580 O535 1.209 . S
C580 C553 1.486 . S
C581 O536 1.199 . S
C581 O537 1.297 . S
C581 C565 1.476 . S
H582 C590 0.929 . S
H583 C592 0.930 . S
H584 C594 0.930 . S
H585 C597 0.929 . S
H586 C600 0.930 . S
H587 C602 0.960 . S
H588 C602 0.960 . S
H589 C602 0.960 . S
C590 H582 0.929 . S
C590 C591 1.377 . S
C590 C592 1.384 . S
C591 C590 1.377 . S
C591 C597 1.390 . S
C592 H583 0.930 . S
C592 C590 1.384 . S
C592 C593 1.372 . S
C593 C592 1.372 . S
C593 C594 1.400 . S
C593 C598 1.490 . S
C594 H584 0.930 . S
C594 C593 1.400 . S
C594 C597 1.386 . S
H595 C611 0.930 . S
H596 C612 0.931 . S
C597 H585 0.929 . S
C597 C591 1.390 . S
C597 C594 1.386 . S
C598 C593 1.490 . S
C598 C600 1.395 . S
C598 C601 1.403 . S
H599 C605 0.930 . S
C600 H586 0.930 . S
C600 C598 1.395 . S
C600 C603 1.403 . S
C601 C598 1.403 . S
C601 C602 1.524 . S
C601 C605 1.400 . S
C602 H587 0.960 . S
C602 H588 0.960 . S
C602 H589 0.960 . S
C602 C601 1.524 . S
C603 C600 1.403 . S
C603 C604 1.392 . S
C603 C607 1.495 . S
C604 C603 1.392 . S
C604 C605 1.385 . S
C604 C606 1.478 . S
C605 H599 0.930 . S
C605 C601 1.400 . S
C605 C604 1.385 . S
C606 C604 1.478 . S
C606 C608 1.381 . S
C606 C612 1.383 . S
C607 C603 1.495 . S
C607 H613 0.959 . S
C607 H614 0.961 . S
C607 H615 0.960 . S
C608 C606 1.381 . S
C608 C609 1.394 . S
C608 H616 0.930 . S
C609 C608 1.394 . S
C609 C610 1.383 . S
C609 H617 0.929 . S
C610 C609 1.383 . S
C610 C611 1.377 . S
C611 H595 0.930 . S
C611 C610 1.377 . S
C611 C612 1.379 . S
C612 H596 0.931 . S
C612 C606 1.383 . S
C612 C611 1.379 . S
H613 C607 0.959 . S
H614 C607 0.961 . S
H615 C607 0.960 . S
H616 C608 0.930 . S
H617 C609 0.929 . S
H618 C626 0.929 . S
H619 C628 0.930 . S
H620 C630 0.930 . S
H621 C633 0.929 . S
H622 C636 0.930 . S
H623 C638 0.960 . S
H624 C638 0.960 . S
H625 C638 0.960 . S
C626 H618 0.929 . S
C626 C627 1.377 . S
C626 C628 1.384 . S
C627 C626 1.377 . S
C627 C633 1.390 . S
C628 H619 0.930 . S
C628 C626 1.384 . S
C628 C629 1.372 . S
C629 C628 1.372 . S
C629 C630 1.400 . S
C629 C634 1.490 . S
C630 H620 0.930 . S
C630 C629 1.400 . S
C630 C633 1.386 . S
H631 C647 0.930 . S
H632 C648 0.931 . S
C633 H621 0.929 . S
C633 C627 1.390 . S
C633 C630 1.386 . S
C634 C629 1.490 . S
C634 C636 1.395 . S
C634 C637 1.403 . S
H635 C641 0.930 . S
C636 H622 0.930 . S
C636 C634 1.395 . S
C636 C639 1.403 . S
C637 C634 1.403 . S
C637 C638 1.524 . S
C637 C641 1.400 . S
C638 H623 0.960 . S
C638 H624 0.960 . S
C638 H625 0.960 . S
C638 C637 1.524 . S
C639 C636 1.403 . S
C639 C640 1.392 . S
C639 C643 1.495 . S
C640 C639 1.392 . S
C640 C641 1.385 . S
C640 C642 1.478 . S
C641 H635 0.930 . S
C641 C637 1.400 . S
C641 C640 1.385 . S
C642 C640 1.478 . S
C642 C644 1.381 . S
C642 C648 1.383 . S
C643 C639 1.495 . S
C643 H649 0.959 . S
C643 H650 0.961 . S
C643 H651 0.960 . S
C644 C642 1.381 . S
C644 C645 1.394 . S
C644 H652 0.930 . S
C645 C644 1.394 . S
C645 C646 1.383 . S
C645 H653 0.929 . S
C646 C645 1.383 . S
C646 C647 1.377 . S
C647 H631 0.930 . S
C647 C646 1.377 . S
C647 C648 1.379 . S
C648 H632 0.931 . S
C648 C642 1.383 . S
C648 C647 1.379 . S
H649 C643 0.959 . S
H650 C643 0.961 . S
H651 C643 0.960 . S
H652 C644 0.930 . S
H653 C645 0.929 . S
H654 C662 0.929 . S
H655 C664 0.930 . S
H656 C666 0.930 . S
H657 C669 0.929 . S
H658 C672 0.930 . S
H659 C674 0.960 . S
H660 C674 0.960 . S
H661 C674 0.960 . S
C662 H654 0.929 . S
C662 C663 1.377 . S
C662 C664 1.384 . S
C663 C662 1.377 . S
C663 C669 1.390 . S
C664 H655 0.930 . S
C664 C662 1.384 . S
C664 C665 1.372 . S
C665 C664 1.372 . S
C665 C666 1.400 . S
C665 C670 1.490 . S
C666 H656 0.930 . S
C666 C665 1.400 . S
C666 C669 1.386 . S
H667 C683 0.930 . S
H668 C684 0.931 . S
C669 H657 0.929 . S
C669 C663 1.390 . S
C669 C666 1.386 . S
C670 C665 1.490 . S
C670 C672 1.395 . S
C670 C673 1.403 . S
H671 C677 0.930 . S
C672 H658 0.930 . S
C672 C670 1.395 . S
C672 C675 1.403 . S
C673 C670 1.403 . S
C673 C674 1.524 . S
C673 C677 1.400 . S
C674 H659 0.960 . S
C674 H660 0.960 . S
C674 H661 0.960 . S
C674 C673 1.524 . S
C675 C672 1.403 . S
C675 C676 1.392 . S
C675 C679 1.495 . S
C676 C675 1.392 . S
C676 C677 1.385 . S
C676 C678 1.478 . S
C677 H671 0.930 . S
C677 C673 1.400 . S
C677 C676 1.385 . S
C678 C676 1.478 . S
C678 C680 1.381 . S
C678 C684 1.383 . S
C679 C675 1.495 . S
C679 H685 0.959 . S
C679 H686 0.961 . S
C679 H687 0.960 . S
C680 C678 1.381 . S
C680 C681 1.394 . S
C680 H688 0.930 . S
C681 C680 1.394 . S
C681 C682 1.383 . S
C681 H689 0.929 . S
C682 C681 1.383 . S
C682 C683 1.377 . S
C683 H667 0.930 . S
C683 C682 1.377 . S
C683 C684 1.379 . S
C684 H668 0.931 . S
C684 C678 1.383 . S
C684 C683 1.379 . S
H685 C679 0.959 . S
H686 C679 0.961 . S
H687 C679 0.960 . S
H688 C680 0.930 . S
H689 C681 0.929 . S
H690 C698 0.929 . S
H691 C700 0.930 . S
H692 C702 0.930 . S
H693 C705 0.929 . S
H694 C708 0.930 . S
H695 C710 0.960 . S
H696 C710 0.960 . S
H697 C710 0.960 . S
C698 H690 0.929 . S
C698 C699 1.377 . S
C698 C700 1.384 . S
C699 C698 1.377 . S
C699 C705 1.390 . S
C700 H691 0.930 . S
C700 C698 1.384 . S
C700 C701 1.372 . S
C701 C700 1.372 . S
C701 C702 1.400 . S
C701 C706 1.490 . S
C702 H692 0.930 . S
C702 C701 1.400 . S
C702 C705 1.386 . S
H703 C719 0.930 . S
H704 C720 0.931 . S
C705 H693 0.929 . S
C705 C699 1.390 . S
C705 C702 1.386 . S
C706 C701 1.490 . S
C706 C708 1.395 . S
C706 C709 1.403 . S
H707 C713 0.930 . S
C708 H694 0.930 . S
C708 C706 1.395 . S
C708 C711 1.403 . S
C709 C706 1.403 . S
C709 C710 1.524 . S
C709 C713 1.400 . S
C710 H695 0.960 . S
C710 H696 0.960 . S
C710 H697 0.960 . S
C710 C709 1.524 . S
C711 C708 1.403 . S
C711 C712 1.392 . S
C711 C715 1.495 . S
C712 C711 1.392 . S
C712 C713 1.385 . S
C712 C714 1.478 . S
C713 H707 0.930 . S
C713 C709 1.400 . S
C713 C712 1.385 . S
C714 C712 1.478 . S
C714 C716 1.381 . S
C714 C720 1.383 . S
C715 C711 1.495 . S
C715 H721 0.959 1_655 S
C715 H722 0.961 . S
C715 H723 0.960 1_655 S
C716 C714 1.381 . S
C716 C717 1.394 . S
C716 H724 0.930 . S
C717 C716 1.394 . S
C717 C718 1.383 . S
C717 H725 0.929 . S
C718 C717 1.383 . S
C718 C719 1.377 . S
C719 H703 0.930 . S
C719 C718 1.377 . S
C719 C720 1.379 . S
C720 H704 0.931 . S
C720 C714 1.383 . S
C720 C719 1.379 . S
H721 C715 0.959 1_455 S
H722 C715 0.961 . S
H723 C715 0.960 1_455 S
H724 C716 0.930 . S
H725 C717 0.929 . S
H726 C734 0.929 . S
H727 C736 0.930 . S
H728 C738 0.930 . S
H729 C741 0.929 . S
H730 C744 0.930 . S
H731 C746 0.960 . S
H732 C746 0.960 1_545 S
H733 C746 0.960 1_545 S
C734 H726 0.929 . S
C734 C735 1.377 1_565 S
C734 C736 1.384 . S
C735 C734 1.377 1_545 S
C735 C741 1.390 . S
C736 H727 0.930 . S
C736 C734 1.384 . S
C736 C737 1.372 . S
C737 C736 1.372 . S
C737 C738 1.400 . S
C737 C742 1.490 . S
C738 H728 0.930 . S
C738 C737 1.400 . S
C738 C741 1.386 1_565 S
H739 C755 0.930 . S
H740 C756 0.931 . S
C741 H729 0.929 . S
C741 C735 1.390 . S
C741 C738 1.386 1_545 S
C742 C737 1.490 . S
C742 C744 1.395 . S
C742 C745 1.403 . S
H743 C749 0.930 . S
C744 H730 0.930 . S
C744 C742 1.395 . S
C744 C747 1.403 . S
C745 C742 1.403 . S
C745 C746 1.524 . S
C745 C749 1.400 . S
C746 H731 0.960 . S
C746 H732 0.960 1_565 S
C746 H733 0.960 1_565 S
C746 C745 1.524 . S
C747 C744 1.403 . S
C747 C748 1.392 . S
C747 C751 1.495 . S
C748 C747 1.392 . S
C748 C749 1.385 . S
C748 C750 1.478 . S
C749 H743 0.930 . S
C749 C745 1.400 . S
C749 C748 1.385 . S
C750 C748 1.478 . S
C750 C752 1.381 . S
C750 C756 1.383 . S
C751 C747 1.495 . S
C751 H757 0.959 . S
C751 H758 0.961 . S
C751 H759 0.960 . S
C752 C750 1.381 . S
C752 C753 1.394 . S
C752 H760 0.930 . S
C753 C752 1.394 . S
C753 C754 1.383 . S
C753 H761 0.929 . S
C754 C753 1.383 . S
C754 C755 1.377 . S
C755 H739 0.930 . S
C755 C754 1.377 . S
C755 C756 1.379 . S
C756 H740 0.931 . S
C756 C750 1.383 . S
C756 C755 1.379 . S
H757 C751 0.959 . S
H758 C751 0.961 . S
H759 C751 0.960 . S
H760 C752 0.930 . S
H761 C753 0.929 . S
H762 C770 0.929 . S
H763 C772 0.930 . S
H764 C774 0.930 . S
H765 C777 0.929 . S
H766 C780 0.930 . S
H767 C782 0.960 . S
H768 C782 0.960 . S
H769 C782 0.960 . S
C770 H762 0.929 . S
C770 C771 1.377 . S
C770 C772 1.384 . S
C771 C770 1.377 . S
C771 C777 1.390 . S
C772 H763 0.930 . S
C772 C770 1.384 . S
C772 C773 1.372 . S
C773 C772 1.372 . S
C773 C774 1.400 . S
C773 C778 1.490 . S
C774 H764 0.930 . S
C774 C773 1.400 . S
C774 C777 1.386 . S
H775 C791 0.930 . S
H776 C792 0.931 . S
C777 H765 0.929 . S
C777 C771 1.390 . S
C777 C774 1.386 . S
C778 C773 1.490 . S
C778 C780 1.395 . S
C778 C781 1.403 . S
H779 C785 0.930 . S
C780 H766 0.930 . S
C780 C778 1.395 . S
C780 C783 1.403 . S
C781 C778 1.403 . S
C781 C782 1.524 . S
C781 C785 1.400 . S
C782 H767 0.960 . S
C782 H768 0.960 . S
C782 H769 0.960 . S
C782 C781 1.524 . S
C783 C780 1.403 . S
C783 C784 1.392 . S
C783 C787 1.495 . S
C784 C783 1.392 . S
C784 C785 1.385 . S
C784 C786 1.478 . S
C785 H779 0.930 . S
C785 C781 1.400 . S
C785 C784 1.385 . S
C786 C784 1.478 . S
C786 C788 1.381 . S
C786 C792 1.383 . S
C787 C783 1.495 . S
C787 H793 0.959 . S
C787 H794 0.961 . S
C787 H795 0.960 . S
C788 C786 1.381 . S
C788 C789 1.394 . S
C788 H796 0.930 . S
C789 C788 1.394 . S
C789 C790 1.383 . S
C789 H797 0.929 . S
C790 C789 1.383 . S
C790 C791 1.377 . S
C791 H775 0.930 . S
C791 C790 1.377 . S
C791 C792 1.379 . S
C792 H776 0.931 . S
C792 C786 1.383 . S
C792 C791 1.379 . S
H793 C787 0.959 . S
H794 C787 0.961 . S
H795 C787 0.960 . S
H796 C788 0.930 . S
H797 C789 0.929 . S
H798 C806 0.929 . S
H799 C808 0.930 . S
H800 C810 0.930 . S
H801 C813 0.929 . S
H802 C816 0.930 . S
H803 C818 0.960 . S
H804 C818 0.960 . S
H805 C818 0.960 . S
C806 H798 0.929 . S
C806 C807 1.377 . S
C806 C808 1.384 . S
C807 C806 1.377 . S
C807 C813 1.390 . S
C808 H799 0.930 . S
C808 C806 1.384 . S
C808 C809 1.372 . S
C809 C808 1.372 . S
C809 C810 1.400 . S
C809 C814 1.490 . S
C810 H800 0.930 . S
C810 C809 1.400 . S
C810 C813 1.386 . S
H811 C827 0.930 . S
H812 C828 0.931 . S
C813 H801 0.929 . S
C813 C807 1.390 . S
C813 C810 1.386 . S
C814 C809 1.490 . S
C814 C816 1.395 . S
C814 C817 1.403 . S
H815 C821 0.930 . S
C816 H802 0.930 . S
C816 C814 1.395 . S
C816 C819 1.403 . S
C817 C814 1.403 . S
C817 C818 1.524 . S
C817 C821 1.400 . S
C818 H803 0.960 . S
C818 H804 0.960 . S
C818 H805 0.960 . S
C818 C817 1.524 . S
C819 C816 1.403 . S
C819 C820 1.392 . S
C819 C823 1.495 . S
C820 C819 1.392 . S
C820 C821 1.385 . S
C820 C822 1.478 . S
C821 H815 0.930 . S
C821 C817 1.400 . S
C821 C820 1.385 . S
C822 C820 1.478 . S
C822 C824 1.381 . S
C822 C828 1.383 . S
C823 C819 1.495 . S
C823 H829 0.959 . S
C823 H830 0.961 . S
C823 H831 0.960 . S
C824 C822 1.381 . S
C824 C825 1.394 . S
C824 H832 0.930 . S
C825 C824 1.394 . S
C825 C826 1.383 . S
C825 H833 0.929 . S
C826 C825 1.383 . S
C826 C827 1.377 . S
C827 H811 0.930 . S
C827 C826 1.377 . S
C827 C828 1.379 . S
C828 H812 0.931 . S
C828 C822 1.383 . S
C828 C827 1.379 . S
H829 C823 0.959 . S
H830 C823 0.961 . S
H831 C823 0.960 . S
H832 C824 0.930 . S
H833 C825 0.929 . S
H834 C842 0.929 . S
H835 C844 0.930 . S
H836 C846 0.930 . S
H837 C849 0.929 . S
H838 C852 0.930 . S
H839 C854 0.960 . S
H840 C854 0.960 . S
H841 C854 0.960 . S
C842 H834 0.929 . S
C842 C843 1.377 . S
C842 C844 1.384 . S
C843 C842 1.377 . S
C843 C849 1.390 . S
C844 H835 0.930 . S
C844 C842 1.384 . S
C844 C845 1.372 . S
C845 C844 1.372 . S
C845 C846 1.400 . S
C845 C850 1.490 1_554 S
C846 H836 0.930 . S
C846 C845 1.400 . S
C846 C849 1.386 . S
H847 C863 0.930 . S
H848 C864 0.931 . S
C849 H837 0.929 . S
C849 C843 1.390 . S
C849 C846 1.386 . S
C850 C845 1.490 1_556 S
C850 C852 1.395 . S
C850 C853 1.403 . S
H851 C857 0.930 . S
C852 H838 0.930 . S
C852 C850 1.395 . S
C852 C855 1.403 . S
C853 C850 1.403 . S
C853 C854 1.524 1_556 S
C853 C857 1.400 . S
C854 H839 0.960 . S
C854 H840 0.960 . S
C854 H841 0.960 . S
C854 C853 1.524 1_554 S
C855 C852 1.403 . S
C855 C856 1.392 . S
C855 C859 1.495 . S
C856 C855 1.392 . S
C856 C857 1.385 . S
C856 C858 1.478 . S
C857 H851 0.930 . S
C857 C853 1.400 . S
C857 C856 1.385 . S
C858 C856 1.478 . S
C858 C860 1.381 . S
C858 C864 1.383 . S
C859 C855 1.495 . S
C859 H865 0.959 . S
C859 H866 0.961 . S
C859 H867 0.960 . S
C860 C858 1.381 . S
C860 C861 1.394 . S
C860 H868 0.930 . S
C861 C860 1.394 . S
C861 C862 1.383 . S
C861 H869 0.929 . S
C862 C861 1.383 . S
C862 C863 1.377 . S
C863 H847 0.930 . S
C863 C862 1.377 . S
C863 C864 1.379 . S
C864 H848 0.931 . S
C864 C858 1.383 . S
C864 C863 1.379 . S
H865 C859 0.959 . S
H866 C859 0.961 . S
H867 C859 0.960 . S
H868 C860 0.930 . S
H869 C861 0.929 . S
H870 C878 0.929 . S
H871 C880 0.930 . S
H872 C882 0.930 . S
H873 C885 0.929 . S
H874 C888 0.930 . S
H875 C890 0.960 . S
H876 C890 0.960 . S
H877 C890 0.960 . S
C878 H870 0.929 . S
C878 C879 1.377 . S
C878 C880 1.384 . S
C879 C878 1.377 . S
C879 C885 1.390 . S
C880 H871 0.930 . S
C880 C878 1.384 . S
C880 C881 1.372 . S
C881 C880 1.372 . S
C881 C882 1.400 . S
C881 C886 1.490 . S
C882 H872 0.930 . S
C882 C881 1.400 . S
C882 C885 1.386 . S
H883 C899 0.930 . S
H884 C900 0.931 . S
C885 H873 0.929 . S
C885 C879 1.390 . S
C885 C882 1.386 . S
C886 C881 1.490 . S
C886 C888 1.395 . S
C886 C889 1.403 . S
H887 C893 0.930 . S
C888 H874 0.930 . S
C888 C886 1.395 . S
C888 C891 1.403 . S
C889 C886 1.403 . S
C889 C890 1.524 . S
C889 C893 1.400 . S
C890 H875 0.960 . S
C890 H876 0.960 . S
C890 H877 0.960 . S
C890 C889 1.524 . S
C891 C888 1.403 . S
C891 C892 1.392 . S
C891 C895 1.495 . S
C892 C891 1.392 . S
C892 C893 1.385 . S
C892 C894 1.478 . S
C893 H887 0.930 . S
C893 C889 1.400 . S
C893 C892 1.385 . S
C894 C892 1.478 . S
C894 C896 1.381 . S
C894 C900 1.383 . S
C895 C891 1.495 . S
C895 H901 0.959 . S
C895 H902 0.961 . S
C895 H903 0.960 . S
C896 C894 1.381 . S
C896 C897 1.394 . S
C896 H904 0.930 . S
C897 C896 1.394 . S
C897 C898 1.383 . S
C897 H905 0.929 . S
C898 C897 1.383 . S
C898 C899 1.377 . S
C899 H883 0.930 . S
C899 C898 1.377 . S
C899 C900 1.379 . S
C900 H884 0.931 . S
C900 C894 1.383 . S
C900 C899 1.379 . S
H901 C895 0.959 . S
H902 C895 0.961 . S
H903 C895 0.960 . S
H904 C896 0.930 . S
H905 C897 0.929 . S
H906 C914 0.929 . S
H907 C916 0.930 . S
H908 C918 0.930 1_556 S
H909 C921 0.929 . S
H910 C924 0.930 1_554 S
H911 C926 0.960 . S
H912 C926 0.960 . S
H913 C926 0.960 . S
C914 H906 0.929 . S
C914 C915 1.377 . S
C914 C916 1.384 . S
C915 C914 1.377 . S
C915 C921 1.390 . S
C916 H907 0.930 . S
C916 C914 1.384 . S
C916 C917 1.372 . S
C917 C916 1.372 . S
C917 C918 1.400 . S
C917 C922 1.490 1_554 S
C918 H908 0.930 1_554 S
C918 C917 1.400 . S
C918 C921 1.386 . S
H919 C935 0.930 . S
H920 C936 0.931 . S
C921 H909 0.929 . S
C921 C915 1.390 . S
C921 C918 1.386 . S
C922 C917 1.490 1_556 S
C922 C924 1.395 . S
C922 C925 1.403 . S
H923 C929 0.930 . S
C924 H910 0.930 1_556 S
C924 C922 1.395 . S
C924 C927 1.403 . S
C925 C922 1.403 . S
C925 C926 1.524 . S
C925 C929 1.400 . S
C926 H911 0.960 . S
C926 H912 0.960 . S
C926 H913 0.960 . S
C926 C925 1.524 . S
C927 C924 1.403 . S
C927 C928 1.392 . S
C927 C931 1.495 . S
C928 C927 1.392 . S
C928 C929 1.385 . S
C928 C930 1.478 . S
C929 H923 0.930 . S
C929 C925 1.400 . S
C929 C928 1.385 . S
C930 C928 1.478 . S
C930 C932 1.381 . S
C930 C936 1.383 . S
C931 C927 1.495 . S
C931 H937 0.959 . S
C931 H938 0.961 . S
C931 H939 0.960 . S
C932 C930 1.381 . S
C932 C933 1.394 . S
C932 H940 0.930 . S
C933 C932 1.394 . S
C933 C934 1.383 . S
C933 H941 0.929 . S
C934 C933 1.383 . S
C934 C935 1.377 . S
C935 H919 0.930 . S
C935 C934 1.377 . S
C935 C936 1.379 . S
C936 H920 0.931 . S
C936 C930 1.383 . S
C936 C935 1.379 . S
H937 C931 0.959 . S
H938 C931 0.961 . S
H939 C931 0.960 . S
H940 C932 0.930 . S
H941 C933 0.929 . S
H942 C950 0.929 . S
H943 C952 0.930 . S
H944 C954 0.930 . S
H945 C957 0.929 . S
H946 C960 0.930 . S
H947 C962 0.960 . S
H948 C962 0.960 . S
H949 C962 0.960 . S
C950 H942 0.929 . S
C950 C951 1.377 . S
C950 C952 1.384 . S
C951 C950 1.377 . S
C951 C957 1.390 . S
C952 H943 0.930 . S
C952 C950 1.384 . S
C952 C953 1.372 . S
C953 C952 1.372 . S
C953 C954 1.400 . S
C953 C958 1.490 . S
C954 H944 0.930 . S
C954 C953 1.400 . S
C954 C957 1.386 . S
H955 C971 0.930 . S
H956 C972 0.931 . S
C957 H945 0.929 . S
C957 C951 1.390 . S
C957 C954 1.386 . S
C958 C953 1.490 . S
C958 C960 1.395 . S
C958 C961 1.403 . S
H959 C965 0.930 . S
C960 H946 0.930 . S
C960 C958 1.395 . S
C960 C963 1.403 . S
C961 C958 1.403 . S
C961 C962 1.524 . S
C961 C965 1.400 . S
C962 H947 0.960 . S
C962 H948 0.960 . S
C962 H949 0.960 . S
C962 C961 1.524 . S
C963 C960 1.403 . S
C963 C964 1.392 . S
C963 C967 1.495 . S
C964 C963 1.392 . S
C964 C965 1.385 . S
C964 C966 1.478 . S
C965 H959 0.930 . S
C965 C961 1.400 . S
C965 C964 1.385 . S
C966 C964 1.478 . S
C966 C968 1.381 . S
C966 C972 1.383 . S
C967 C963 1.495 . S
C967 H973 0.959 . S
C967 H974 0.961 . S
C967 H975 0.960 . S
C968 C966 1.381 . S
C968 C969 1.394 . S
C968 H976 0.930 . S
C969 C968 1.394 . S
C969 C970 1.383 . S
C969 H977 0.929 . S
C970 C969 1.383 . S
C970 C971 1.377 . S
C971 H955 0.930 . S
C971 C970 1.377 . S
C971 C972 1.379 . S
C972 H956 0.931 . S
C972 C966 1.383 . S
C972 C971 1.379 . S
H973 C967 0.959 . S
H974 C967 0.961 . S
H975 C967 0.960 . S
H976 C968 0.930 . S
H977 C969 0.929 . S
H978 C986 0.929 . S
H979 C988 0.930 . S
H980 C990 0.930 . S
H981 C993 0.929 . S
H982 C996 0.930 . S
H983 C998 0.960 . S
H984 C998 0.960 . S
H985 C998 0.960 . S
C986 H978 0.929 . S
C986 C987 1.377 . S
C986 C988 1.384 . S
C987 C986 1.377 . S
C987 C993 1.390 . S
C988 H979 0.930 . S
C988 C986 1.384 . S
C988 C989 1.372 . S
C989 C988 1.372 . S
C989 C990 1.400 . S
C989 C994 1.490 . S
C990 H980 0.930 . S
C990 C989 1.400 . S
C990 C993 1.386 . S
H991 C1007 0.930 . S
H992 C1008 0.931 . S
C993 H981 0.929 . S
C993 C987 1.390 . S
C993 C990 1.386 . S
C994 C989 1.490 . S
C994 C996 1.395 . S
C994 C997 1.403 . S
H995 C1001 0.930 . S
C996 H982 0.930 . S
C996 C994 1.395 . S
C996 C999 1.403 . S
C997 C994 1.403 . S
C997 C998 1.524 . S
C997 C1001 1.400 . S
C998 H983 0.960 . S
C998 H984 0.960 . S
C998 H985 0.960 . S
C998 C997 1.524 . S
C999 C996 1.403 . S
C999 C1000 1.392 . S
C999 C1003 1.495 . S
C1000 C999 1.392 . S
C1000 C1001 1.385 . S
C1000 C1002 1.478 . S
C1001 H995 0.930 . S
C1001 C997 1.400 . S
C1001 C1000 1.385 . S
C1002 C1000 1.478 . S
C1002 C1004 1.381 1_455 S
C1002 C1008 1.383 . S
C1003 C999 1.495 . S
C1003 H1009 0.959 . S
C1003 H1010 0.961 . S
C1003 H1011 0.960 . S
C1004 C1002 1.381 1_655 S
C1004 C1005 1.394 . S
C1004 H1012 0.930 . S
C1005 C1004 1.394 . S
C1005 C1006 1.383 . S
C1005 H1013 0.929 . S
C1006 C1005 1.383 . S
C1006 C1007 1.377 1_655 S
C1007 H991 0.930 . S
C1007 C1006 1.377 1_455 S
C1007 C1008 1.379 . S
C1008 H992 0.931 . S
C1008 C1002 1.383 . S
C1008 C1007 1.379 . S
H1009 C1003 0.959 . S
H1010 C1003 0.961 . S
H1011 C1003 0.960 . S
H1012 C1004 0.930 . S
H1013 C1005 0.929 . S
H1014 C1022 0.929 . S
H1015 C1024 0.930 . S
H1016 C1026 0.930 . S
H1017 C1029 0.929 . S
H1018 C1032 0.930 . S
H1019 C1034 0.960 . S
H1020 C1034 0.960 . S
H1021 C1034 0.960 . S
C1022 H1014 0.929 . S
C1022 C1023 1.377 . S
C1022 C1024 1.384 . S
C1023 C1022 1.377 . S
C1023 C1029 1.390 . S
C1024 H1015 0.930 . S
C1024 C1022 1.384 . S
C1024 C1025 1.372 . S
C1025 C1024 1.372 . S
C1025 C1026 1.400 . S
C1025 C1030 1.490 . S
C1026 H1016 0.930 . S
C1026 C1025 1.400 . S
C1026 C1029 1.386 . S
H1027 C1043 0.930 . S
H1028 C1044 0.931 . S
C1029 H1017 0.929 . S
C1029 C1023 1.390 . S
C1029 C1026 1.386 . S
C1030 C1025 1.490 . S
C1030 C1032 1.395 . S
C1030 C1033 1.403 . S
H1031 C1037 0.930 . S
C1032 H1018 0.930 . S
C1032 C1030 1.395 . S
C1032 C1035 1.403 . S
C1033 C1030 1.403 . S
C1033 C1034 1.524 . S
C1033 C1037 1.400 . S
C1034 H1019 0.960 . S
C1034 H1020 0.960 . S
C1034 H1021 0.960 . S
C1034 C1033 1.524 . S
C1035 C1032 1.403 . S
C1035 C1036 1.392 . S
C1035 C1039 1.495 . S
C1036 C1035 1.392 . S
C1036 C1037 1.385 . S
C1036 C1038 1.478 . S
C1037 H1031 0.930 . S
C1037 C1033 1.400 . S
C1037 C1036 1.385 . S
C1038 C1036 1.478 . S
C1038 C1040 1.381 . S
C1038 C1044 1.383 . S
C1039 C1035 1.495 . S
C1039 H1045 0.959 . S
C1039 H1046 0.961 . S
C1039 H1047 0.960 . S
C1040 C1038 1.381 . S
C1040 C1041 1.394 1_455 S
C1040 H1048 0.930 . S
C1041 C1040 1.394 1_655 S
C1041 C1042 1.383 . S
C1041 H1049 0.929 . S
C1042 C1041 1.383 . S
C1042 C1043 1.377 . S
C1043 H1027 0.930 . S
C1043 C1042 1.377 . S
C1043 C1044 1.379 1_655 S
C1044 H1028 0.931 . S
C1044 C1038 1.383 . S
C1044 C1043 1.379 1_455 S
H1045 C1039 0.959 . S
H1046 C1039 0.961 . S
H1047 C1039 0.960 . S
H1048 C1040 0.930 . S
H1049 C1041 0.929 . S
H1050 C1058 0.929 . S
H1051 C1060 0.930 . S
H1052 C1062 0.930 . S
H1053 C1065 0.929 . S
H1054 C1068 0.930 . S
H1055 C1070 0.960 . S
H1056 C1070 0.960 . S
H1057 C1070 0.960 . S
C1058 H1050 0.929 . S
C1058 C1059 1.377 . S
C1058 C1060 1.384 . S
C1059 C1058 1.377 . S
C1059 C1065 1.390 . S
C1060 H1051 0.930 . S
C1060 C1058 1.384 . S
C1060 C1061 1.372 . S
C1061 C1060 1.372 . S
C1061 C1062 1.400 . S
C1061 C1066 1.490 . S
C1062 H1052 0.930 . S
C1062 C1061 1.400 . S
C1062 C1065 1.386 . S
H1063 C1079 0.930 . S
H1064 C1080 0.931 . S
C1065 H1053 0.929 . S
C1065 C1059 1.390 . S
C1065 C1062 1.386 . S
C1066 C1061 1.490 . S
C1066 C1068 1.395 . S
C1066 C1069 1.403 . S
H1067 C1073 0.930 . S
C1068 H1054 0.930 . S
C1068 C1066 1.395 . S
C1068 C1071 1.403 . S
C1069 C1066 1.403 . S
C1069 C1070 1.524 . S
C1069 C1073 1.400 . S
C1070 H1055 0.960 . S
C1070 H1056 0.960 . S
C1070 H1057 0.960 . S
C1070 C1069 1.524 . S
C1071 C1068 1.403 . S
C1071 C1072 1.392 . S
C1071 C1075 1.495 . S
C1072 C1071 1.392 . S
C1072 C1073 1.385 . S
C1072 C1074 1.478 . S
C1073 H1067 0.930 . S
C1073 C1069 1.400 . S
C1073 C1072 1.385 . S
C1074 C1072 1.478 . S
C1074 C1076 1.381 . S
C1074 C1080 1.383 . S
C1075 C1071 1.495 . S
C1075 H1081 0.959 . S
C1075 H1082 0.961 . S
C1075 H1083 0.960 . S
C1076 C1074 1.381 . S
C1076 C1077 1.394 . S
C1076 H1084 0.930 . S
C1077 C1076 1.394 . S
C1077 C1078 1.383 . S
C1077 H1085 0.929 . S
C1078 C1077 1.383 . S
C1078 C1079 1.377 . S
C1079 H1063 0.930 . S
C1079 C1078 1.377 . S
C1079 C1080 1.379 . S
C1080 H1064 0.931 . S
C1080 C1074 1.383 . S
C1080 C1079 1.379 . S
H1081 C1075 0.959 . S
H1082 C1075 0.961 . S
H1083 C1075 0.960 . S
H1084 C1076 0.930 . S
H1085 C1077 0.929 . S
H1086 C1094 0.929 . S
H1087 C1096 0.930 . S
H1088 C1098 0.930 . S
H1089 C1101 0.929 . S
H1090 C1104 0.930 . S
H1091 C1106 0.960 . S
H1092 C1106 0.960 . S
H1093 C1106 0.960 . S
C1094 H1086 0.929 . S
C1094 C1095 1.377 . S
C1094 C1096 1.384 . S
C1095 C1094 1.377 . S
C1095 C1101 1.390 . S
C1096 H1087 0.930 . S
C1096 C1094 1.384 . S
C1096 C1097 1.372 1_554 S
C1097 C1096 1.372 1_556 S
C1097 C1098 1.400 . S
C1097 C1102 1.490 . S
C1098 H1088 0.930 . S
C1098 C1097 1.400 . S
C1098 C1101 1.386 1_556 S
H1099 C1115 0.930 . S
H1100 C1116 0.931 . S
C1101 H1089 0.929 . S
C1101 C1095 1.390 . S
C1101 C1098 1.386 1_554 S
C1102 C1097 1.490 . S
C1102 C1104 1.395 . S
C1102 C1105 1.403 . S
H1103 C1109 0.930 . S
C1104 H1090 0.930 . S
C1104 C1102 1.395 . S
C1104 C1107 1.403 . S
C1105 C1102 1.403 . S
C1105 C1106 1.524 . S
C1105 C1109 1.400 . S
C1106 H1091 0.960 . S
C1106 H1092 0.960 . S
C1106 H1093 0.960 . S
C1106 C1105 1.524 . S
C1107 C1104 1.403 . S
C1107 C1108 1.392 . S
C1107 C1111 1.495 . S
C1108 C1107 1.392 . S
C1108 C1109 1.385 . S
C1108 C1110 1.478 . S
C1109 H1103 0.930 . S
C1109 C1105 1.400 . S
C1109 C1108 1.385 . S
C1110 C1108 1.478 . S
C1110 C1112 1.381 . S
C1110 C1116 1.383 . S
C1111 C1107 1.495 . S
C1111 H1117 0.959 . S
C1111 H1118 0.961 . S
C1111 H1119 0.960 . S
C1112 C1110 1.381 . S
C1112 C1113 1.394 . S
C1112 H1120 0.930 . S
C1113 C1112 1.394 . S
C1113 C1114 1.383 . S
C1113 H1121 0.929 . S
C1114 C1113 1.383 . S
C1114 C1115 1.377 . S
C1115 H1099 0.930 . S
C1115 C1114 1.377 . S
C1115 C1116 1.379 . S
C1116 H1100 0.931 . S
C1116 C1110 1.383 . S
C1116 C1115 1.379 . S
H1117 C1111 0.959 . S
H1118 C1111 0.961 . S
H1119 C1111 0.960 . S
H1120 C1112 0.930 . S
H1121 C1113 0.929 . S
H1122 C1130 0.929 . S
H1123 C1132 0.930 . S
H1124 C1134 0.930 . S
H1125 C1137 0.929 . S
H1126 C1140 0.930 . S
H1127 C1142 0.960 . S
H1128 C1142 0.960 . S
H1129 C1142 0.960 . S
C1130 H1122 0.929 . S
C1130 C1131 1.377 . S
C1130 C1132 1.384 . S
C1131 C1130 1.377 . S
C1131 C1137 1.390 . S
C1132 H1123 0.930 . S
C1132 C1130 1.384 . S
C1132 C1133 1.372 . S
C1133 C1132 1.372 . S
C1133 C1134 1.400 . S
C1133 C1138 1.490 . S
C1134 H1124 0.930 . S
C1134 C1133 1.400 . S
C1134 C1137 1.386 . S
H1135 C1151 0.930 . S
H1136 C1152 0.931 . S
C1137 H1125 0.929 . S
C1137 C1131 1.390 . S
C1137 C1134 1.386 . S
C1138 C1133 1.490 . S
C1138 C1140 1.395 . S
C1138 C1141 1.403 . S
H1139 C1145 0.930 . S
C1140 H1126 0.930 . S
C1140 C1138 1.395 . S
C1140 C1143 1.403 . S
C1141 C1138 1.403 . S
C1141 C1142 1.524 . S
C1141 C1145 1.400 . S
C1142 H1127 0.960 . S
C1142 H1128 0.960 . S
C1142 H1129 0.960 . S
C1142 C1141 1.524 . S
C1143 C1140 1.403 . S
C1143 C1144 1.392 . S
C1143 C1147 1.495 . S
C1144 C1143 1.392 . S
C1144 C1145 1.385 . S
C1144 C1146 1.478 . S
C1145 H1139 0.930 . S
C1145 C1141 1.400 . S
C1145 C1144 1.385 . S
C1146 C1144 1.478 . S
C1146 C1148 1.381 . S
C1146 C1152 1.383 . S
C1147 C1143 1.495 . S
C1147 H1153 0.959 . S
C1147 H1154 0.961 . S
C1147 H1155 0.960 . S
C1148 C1146 1.381 . S
C1148 C1149 1.394 . S
C1148 H1156 0.930 . S
C1149 C1148 1.394 . S
C1149 C1150 1.383 . S
C1149 H1157 0.929 . S
C1150 C1149 1.383 . S
C1150 C1151 1.377 . S
C1151 H1135 0.930 . S
C1151 C1150 1.377 . S
C1151 C1152 1.379 . S
C1152 H1136 0.931 . S
C1152 C1146 1.383 . S
C1152 C1151 1.379 . S
H1153 C1147 0.959 . S
H1154 C1147 0.961 . S
H1155 C1147 0.960 . S
H1156 C1148 0.930 . S
H1157 C1149 0.929 . S
H1158 C1166 0.929 . S
H1159 C1168 0.930 1_556 S
H1160 C1170 0.930 . S
H1161 C1173 0.929 . S
H1162 C1176 0.930 . S
H1163 C1178 0.960 . S
H1164 C1178 0.960 . S
H1165 C1178 0.960 . S
C1166 H1158 0.929 . S
C1166 C1167 1.377 . S
C1166 C1168 1.384 . S
C1167 C1166 1.377 . S
C1167 C1173 1.390 . S
C1168 H1159 0.930 1_554 S
C1168 C1166 1.384 . S
C1168 C1169 1.372 . S
C1169 C1168 1.372 . S
C1169 C1170 1.400 . S
C1169 C1174 1.490 1_554 S
C1170 H1160 0.930 . S
C1170 C1169 1.400 . S
C1170 C1173 1.386 . S
H1171 C1187 0.930 . S
H1172 C1188 0.931 . S
C1173 H1161 0.929 . S
C1173 C1167 1.390 . S
C1173 C1170 1.386 . S
C1174 C1169 1.490 1_556 S
C1174 C1176 1.395 . S
C1174 C1177 1.403 . S
H1175 C1181 0.930 . S
C1176 H1162 0.930 . S
C1176 C1174 1.395 . S
C1176 C1179 1.403 . S
C1177 C1174 1.403 . S
C1177 C1178 1.524 1_556 S
C1177 C1181 1.400 . S
C1178 H1163 0.960 . S
C1178 H1164 0.960 . S
C1178 H1165 0.960 . S
C1178 C1177 1.524 1_554 S
C1179 C1176 1.403 . S
C1179 C1180 1.392 . S
C1179 C1183 1.495 . S
C1180 C1179 1.392 . S
C1180 C1181 1.385 . S
C1180 C1182 1.478 . S
C1181 H1175 0.930 . S
C1181 C1177 1.400 . S
C1181 C1180 1.385 . S
C1182 C1180 1.478 . S
C1182 C1184 1.381 . S
C1182 C1188 1.383 . S
C1183 C1179 1.495 . S
C1183 H1189 0.959 . S
C1183 H1190 0.961 . S
C1183 H1191 0.960 . S
C1184 C1182 1.381 . S
C1184 C1185 1.394 . S
C1184 H1192 0.930 . S
C1185 C1184 1.394 . S
C1185 C1186 1.383 . S
C1185 H1193 0.929 . S
C1186 C1185 1.383 . S
C1186 C1187 1.377 . S
C1187 H1171 0.930 . S
C1187 C1186 1.377 . S
C1187 C1188 1.379 . S
C1188 H1172 0.931 . S
C1188 C1182 1.383 . S
C1188 C1187 1.379 . S
H1189 C1183 0.959 . S
H1190 C1183 0.961 . S
H1191 C1183 0.960 . S
H1192 C1184 0.930 . S
H1193 C1185 0.929 . S
H1194 C1202 0.929 . S
H1195 C1204 0.930 . S
H1196 C1206 0.930 . S
H1197 C1209 0.929 . S
H1198 C1212 0.930 . S
H1199 C1214 0.960 . S
H1200 C1214 0.960 . S
H1201 C1214 0.960 . S
C1202 H1194 0.929 . S
C1202 C1203 1.377 . S
C1202 C1204 1.384 . S
C1203 C1202 1.377 . S
C1203 C1209 1.390 . S
C1204 H1195 0.930 . S
C1204 C1202 1.384 . S
C1204 C1205 1.372 . S
C1205 C1204 1.372 . S
C1205 C1206 1.400 . S
C1205 C1210 1.490 . S
C1206 H1196 0.930 . S
C1206 C1205 1.400 . S
C1206 C1209 1.386 . S
H1207 C1223 0.930 . S
H1208 C1224 0.931 . S
C1209 H1197 0.929 . S
C1209 C1203 1.390 . S
C1209 C1206 1.386 . S
C1210 C1205 1.490 . S
C1210 C1212 1.395 . S
C1210 C1213 1.403 . S
H1211 C1217 0.930 . S
C1212 H1198 0.930 . S
C1212 C1210 1.395 . S
C1212 C1215 1.403 . S
C1213 C1210 1.403 . S
C1213 C1214 1.524 . S
C1213 C1217 1.400 . S
C1214 H1199 0.960 . S
C1214 H1200 0.960 . S
C1214 H1201 0.960 . S
C1214 C1213 1.524 . S
C1215 C1212 1.403 . S
C1215 C1216 1.392 . S
C1215 C1219 1.495 . S
C1216 C1215 1.392 . S
C1216 C1217 1.385 . S
C1216 C1218 1.478 . S
C1217 H1211 0.930 . S
C1217 C1213 1.400 . S
C1217 C1216 1.385 . S
C1218 C1216 1.478 . S
C1218 C1220 1.381 . S
C1218 C1224 1.383 . S
C1219 C1215 1.495 . S
C1219 H1225 0.959 . S
C1219 H1226 0.961 . S
C1219 H1227 0.960 . S
C1220 C1218 1.381 . S
C1220 C1221 1.394 . S
C1220 H1228 0.930 . S
C1221 C1220 1.394 . S
C1221 C1222 1.383 . S
C1221 H1229 0.929 . S
C1222 C1221 1.383 . S
C1222 C1223 1.377 . S
C1223 H1207 0.930 . S
C1223 C1222 1.377 . S
C1223 C1224 1.379 . S
C1224 H1208 0.931 . S
C1224 C1218 1.383 . S
C1224 C1223 1.379 . S
H1225 C1219 0.959 . S
H1226 C1219 0.961 . S
H1227 C1219 0.960 . S
H1228 C1220 0.930 . S
H1229 C1221 0.929 . S
H1230 C1238 0.929 . S
H1231 C1240 0.930 . S
H1232 C1242 0.930 . S
H1233 C1245 0.929 . S
H1234 C1248 0.930 . S
H1235 C1250 0.960 . S
H1236 C1250 0.960 . S
H1237 C1250 0.960 . S
C1238 H1230 0.929 . S
C1238 C1239 1.377 . S
C1238 C1240 1.384 . S
C1239 C1238 1.377 . S
C1239 C1245 1.390 . S
C1240 H1231 0.930 . S
C1240 C1238 1.384 . S
C1240 C1241 1.372 . S
C1241 C1240 1.372 . S
C1241 C1242 1.400 . S
C1241 C1246 1.490 . S
C1242 H1232 0.930 . S
C1242 C1241 1.400 . S
C1242 C1245 1.386 . S
H1243 C1259 0.930 . S
H1244 C1260 0.931 . S
C1245 H1233 0.929 . S
C1245 C1239 1.390 . S
C1245 C1242 1.386 . S
C1246 C1241 1.490 . S
C1246 C1248 1.395 . S
C1246 C1249 1.403 . S
H1247 C1253 0.930 . S
C1248 H1234 0.930 . S
C1248 C1246 1.395 . S
C1248 C1251 1.403 . S
C1249 C1246 1.403 . S
C1249 C1250 1.524 . S
C1249 C1253 1.400 . S
C1250 H1235 0.960 . S
C1250 H1236 0.960 . S
C1250 H1237 0.960 . S
C1250 C1249 1.524 . S
C1251 C1248 1.403 . S
C1251 C1252 1.392 . S
C1251 C1255 1.495 . S
C1252 C1251 1.392 . S
C1252 C1253 1.385 . S
C1252 C1254 1.478 . S
C1253 H1247 0.930 . S
C1253 C1249 1.400 . S
C1253 C1252 1.385 . S
C1254 C1252 1.478 . S
C1254 C1256 1.381 . S
C1254 C1260 1.383 . S
C1255 C1251 1.495 . S
C1255 H1261 0.959 . S
C1255 H1262 0.961 . S
C1255 H1263 0.960 . S
C1256 C1254 1.381 . S
C1256 C1257 1.394 . S
C1256 H1264 0.930 . S
C1257 C1256 1.394 . S
C1257 C1258 1.383 . S
C1257 H1265 0.929 . S
C1258 C1257 1.383 . S
C1258 C1259 1.377 . S
C1259 H1243 0.930 . S
C1259 C1258 1.377 . S
C1259 C1260 1.379 . S
C1260 H1244 0.931 . S
C1260 C1254 1.383 . S
C1260 C1259 1.379 . S
H1261 C1255 0.959 . S
H1262 C1255 0.961 . S
H1263 C1255 0.960 . S
H1264 C1256 0.930 . S
H1265 C1257 0.929 . S
H1266 C1274 0.929 . S
H1267 C1276 0.930 . S
H1268 C1278 0.930 . S
H1269 C1281 0.929 . S
H1270 C1284 0.930 . S
H1271 C1286 0.960 . S
H1272 C1286 0.960 . S
H1273 C1286 0.960 . S
C1274 H1266 0.929 . S
C1274 C1275 1.377 . S
C1274 C1276 1.384 . S
C1275 C1274 1.377 . S
C1275 C1281 1.390 . S
C1276 H1267 0.930 . S
C1276 C1274 1.384 . S
C1276 C1277 1.372 . S
C1277 C1276 1.372 . S
C1277 C1278 1.400 . S
C1277 C1282 1.490 . S
C1278 H1268 0.930 . S
C1278 C1277 1.400 . S
C1278 C1281 1.386 . S
H1279 C1295 0.930 . S
H1280 C1296 0.931 . S
C1281 H1269 0.929 . S
C1281 C1275 1.390 . S
C1281 C1278 1.386 . S
C1282 C1277 1.490 . S
C1282 C1284 1.395 . S
C1282 C1285 1.403 . S
H1283 C1289 0.930 . S
C1284 H1270 0.930 . S
C1284 C1282 1.395 . S
C1284 C1287 1.403 . S
C1285 C1282 1.403 . S
C1285 C1286 1.524 . S
C1285 C1289 1.400 . S
C1286 H1271 0.960 . S
C1286 H1272 0.960 . S
C1286 H1273 0.960 . S
C1286 C1285 1.524 . S
C1287 C1284 1.403 . S
C1287 C1288 1.392 . S
C1287 C1291 1.495 . S
C1288 C1287 1.392 . S
C1288 C1289 1.385 . S
C1288 C1290 1.478 . S
C1289 H1283 0.930 . S
C1289 C1285 1.400 . S
C1289 C1288 1.385 . S
C1290 C1288 1.478 . S
C1290 C1292 1.381 . S
C1290 C1296 1.383 . S
C1291 C1287 1.495 . S
C1291 H1297 0.959 . S
C1291 H1298 0.961 . S
C1291 H1299 0.960 . S
C1292 C1290 1.381 . S
C1292 C1293 1.394 . S
C1292 H1300 0.930 . S
C1293 C1292 1.394 . S
C1293 C1294 1.383 . S
C1293 H1301 0.929 . S
C1294 C1293 1.383 . S
C1294 C1295 1.377 . S
C1295 H1279 0.930 . S
C1295 C1294 1.377 . S
C1295 C1296 1.379 . S
C1296 H1280 0.931 . S
C1296 C1290 1.383 . S
C1296 C1295 1.379 . S
H1297 C1291 0.959 . S
H1298 C1291 0.961 . S
H1299 C1291 0.960 . S
H1300 C1292 0.930 . S
H1301 C1293 0.929 . S
H1302 C1310 0.929 . S
H1303 C1312 0.930 . S
H1304 C1314 0.930 . S
H1305 C1317 0.929 1_455 S
H1306 C1320 0.930 . S
H1307 C1322 0.960 . S
H1308 C1322 0.960 . S
H1309 C1322 0.960 . S
C1310 H1302 0.929 . S
C1310 C1311 1.377 . S
C1310 C1312 1.384 . S
C1311 C1310 1.377 . S
C1311 C1317 1.390 . S
C1312 H1303 0.930 . S
C1312 C1310 1.384 . S
C1312 C1313 1.372 . S
C1313 C1312 1.372 . S
C1313 C1314 1.400 . S
C1313 C1318 1.490 . S
C1314 H1304 0.930 . S
C1314 C1313 1.400 . S
C1314 C1317 1.386 . S
H1315 C1331 0.930 . S
H1316 C1332 0.931 . S
C1317 H1305 0.929 1_655 S
C1317 C1311 1.390 . S
C1317 C1314 1.386 . S
C1318 C1313 1.490 . S
C1318 C1320 1.395 . S
C1318 C1321 1.403 . S
H1319 C1325 0.930 . S
C1320 H1306 0.930 . S
C1320 C1318 1.395 . S
C1320 C1323 1.403 . S
C1321 C1318 1.403 . S
C1321 C1322 1.524 1_655 S
C1321 C1325 1.400 . S
C1322 H1307 0.960 . S
C1322 H1308 0.960 . S
C1322 H1309 0.960 . S
C1322 C1321 1.524 1_455 S
C1323 C1320 1.403 . S
C1323 C1324 1.392 . S
C1323 C1327 1.495 . S
C1324 C1323 1.392 . S
C1324 C1325 1.385 . S
C1324 C1326 1.478 . S
C1325 H1319 0.930 . S
C1325 C1321 1.400 . S
C1325 C1324 1.385 . S
C1326 C1324 1.478 . S
C1326 C1328 1.381 . S
C1326 C1332 1.383 . S
C1327 C1323 1.495 . S
C1327 H1333 0.959 . S
C1327 H1334 0.961 . S
C1327 H1335 0.960 . S
C1328 C1326 1.381 . S
C1328 C1329 1.394 . S
C1328 H1336 0.930 . S
C1329 C1328 1.394 . S
C1329 C1330 1.383 . S
C1329 H1337 0.929 . S
C1330 C1329 1.383 . S
C1330 C1331 1.377 . S
C1331 H1315 0.930 . S
C1331 C1330 1.377 . S
C1331 C1332 1.379 . S
C1332 H1316 0.931 . S
C1332 C1326 1.383 . S
C1332 C1331 1.379 . S
H1333 C1327 0.959 . S
H1334 C1327 0.961 . S
H1335 C1327 0.960 . S
H1336 C1328 0.930 . S
H1337 C1329 0.929 . S
H1338 C1346 0.929 . S
H1339 C1348 0.939 . S
H1340 C1350 0.930 1_565 S
H1341 C1353 0.929 . S
H1342 C1356 0.930 . S
H1343 C1358 0.960 . S
H1344 C1358 0.960 . S
H1345 C1358 0.960 . S
C1346 H1338 0.929 . S
C1346 C1347 1.377 . S
C1346 C1348 1.384 . S
C1347 C1346 1.377 . S
C1347 C1353 1.390 . S
C1348 H1339 0.939 . S
C1348 C1346 1.384 . S
C1348 C1349 1.372 1_545 S
C1349 C1348 1.372 1_565 S
C1349 C1350 1.400 1_565 S
C1349 C1354 1.490 . S
C1350 H1340 0.930 1_545 S
C1350 C1349 1.400 1_545 S
C1350 C1353 1.386 . S
H1351 C1367 0.930 . S
H1352 C1368 0.931 . S
C1353 H1341 0.929 . S
C1353 C1347 1.390 . S
C1353 C1350 1.386 . S
C1354 C1349 1.490 . S
C1354 C1356 1.395 . S
C1354 C1357 1.403 . S
H1355 C1361 0.930 . S
C1356 H1342 0.930 . S
C1356 C1354 1.395 . S
C1356 C1359 1.403 . S
C1357 C1354 1.403 . S
C1357 C1358 1.524 1_565 S
C1357 C1361 1.400 . S
C1358 H1343 0.960 . S
C1358 H1344 0.960 . S
C1358 H1345 0.960 . S
C1358 C1357 1.524 1_545 S
C1359 C1356 1.403 . S
C1359 C1360 1.392 . S
C1359 C1363 1.495 . S
C1360 C1359 1.392 . S
C1360 C1361 1.385 . S
C1360 C1362 1.478 . S
C1361 H1355 0.930 . S
C1361 C1357 1.400 . S
C1361 C1360 1.385 . S
C1362 C1360 1.478 . S
C1362 C1364 1.381 . S
C1362 C1368 1.383 . S
C1363 C1359 1.495 . S
C1363 H1369 0.959 . S
C1363 H1370 0.961 . S
C1363 H1371 0.960 . S
C1364 C1362 1.381 . S
C1364 C1365 1.394 . S
C1364 H1372 0.930 . S
C1365 C1364 1.394 . S
C1365 C1366 1.383 . S
C1365 H1373 0.929 . S
C1366 C1365 1.383 . S
C1366 C1367 1.377 . S
C1367 H1351 0.930 . S
C1367 C1366 1.377 . S
C1367 C1368 1.379 . S
C1368 H1352 0.931 . S
C1368 C1362 1.383 . S
C1368 C1367 1.379 . S
H1369 C1363 0.959 . S
H1370 C1363 0.961 . S
H1371 C1363 0.960 . S
H1372 C1364 0.930 . S
H1373 C1365 0.929 . S
H1374 C1382 0.929 . S
H1375 C1384 0.930 . S
H1376 C1386 0.930 . S
H1377 C1389 0.929 . S
H1378 C1392 0.930 . S
H1379 C1394 0.960 . S
H1380 C1394 0.960 . S
H1381 C1394 0.960 . S
C1382 H1374 0.929 . S
C1382 C1383 1.377 . S
C1382 C1384 1.384 . S
C1383 C1382 1.377 . S
C1383 C1389 1.390 . S
C1384 H1375 0.930 . S
C1384 C1382 1.384 . S
C1384 C1385 1.372 . S
C1385 C1384 1.372 . S
C1385 C1386 1.400 . S
C1385 C1390 1.490 . S
C1386 H1376 0.930 . S
C1386 C1385 1.400 . S
C1386 C1389 1.386 . S
H1387 C1403 0.930 . S
H1388 C1404 0.931 . S
C1389 H1377 0.929 . S
C1389 C1383 1.390 . S
C1389 C1386 1.386 . S
C1390 C1385 1.490 . S
C1390 C1392 1.395 . S
C1390 C1393 1.403 . S
H1391 C1397 0.930 . S
C1392 H1378 0.930 . S
C1392 C1390 1.395 . S
C1392 C1395 1.403 . S
C1393 C1390 1.403 . S
C1393 C1394 1.524 . S
C1393 C1397 1.400 . S
C1394 H1379 0.960 . S
C1394 H1380 0.960 . S
C1394 H1381 0.960 . S
C1394 C1393 1.524 . S
C1395 C1392 1.403 . S
C1395 C1396 1.392 . S
C1395 C1399 1.495 . S
C1396 C1395 1.392 . S
C1396 C1397 1.385 . S
C1396 C1398 1.478 . S
C1397 H1391 0.930 . S
C1397 C1393 1.400 . S
C1397 C1396 1.385 . S
C1398 C1396 1.478 . S
C1398 C1400 1.381 . S
C1398 C1404 1.383 . S
C1399 C1395 1.495 . S
C1399 H1405 0.959 . S
C1399 H1406 0.961 . S
C1399 H1407 0.960 . S
C1400 C1398 1.381 . S
C1400 C1401 1.394 . S
C1400 H1408 0.930 . S
C1401 C1400 1.394 . S
C1401 C1402 1.383 . S
C1401 H1409 0.929 . S
C1402 C1401 1.383 . S
C1402 C1403 1.377 . S
C1403 H1387 0.930 . S
C1403 C1402 1.377 . S
C1403 C1404 1.379 . S
C1404 H1388 0.931 . S
C1404 C1398 1.383 . S
C1404 C1403 1.379 . S
H1405 C1399 0.959 . S
H1406 C1399 0.961 . S
H1407 C1399 0.960 . S
H1408 C1400 0.930 . S
H1409 C1401 0.929 . S
H1410 C1418 0.929 . S
H1411 C1420 0.930 . S
H1412 C1422 0.930 . S
H1413 C1425 0.929 . S
H1414 C1428 0.930 . S
H1415 C1430 0.960 . S
H1416 C1430 0.960 . S
H1417 C1430 0.960 . S
C1418 H1410 0.929 . S
C1418 C1419 1.377 . S
C1418 C1420 1.384 . S
C1419 C1418 1.377 . S
C1419 C1425 1.390 . S
C1420 H1411 0.930 . S
C1420 C1418 1.384 . S
C1420 C1421 1.372 . S
C1421 C1420 1.372 . S
C1421 C1422 1.400 . S
C1421 C1426 1.490 . S
C1422 H1412 0.930 . S
C1422 C1421 1.400 . S
C1422 C1425 1.386 . S
H1423 C1439 0.930 . S
H1424 C1440 0.931 . S
C1425 H1413 0.929 . S
C1425 C1419 1.390 . S
C1425 C1422 1.386 . S
C1426 C1421 1.490 . S
C1426 C1428 1.395 . S
C1426 C1429 1.403 . S
H1427 C1433 0.930 . S
C1428 H1414 0.930 . S
C1428 C1426 1.395 . S
C1428 C1431 1.403 . S
C1429 C1426 1.403 . S
C1429 C1430 1.524 . S
C1429 C1433 1.400 . S
C1430 H1415 0.960 . S
C1430 H1416 0.960 . S
C1430 H1417 0.960 . S
C1430 C1429 1.524 . S
C1431 C1428 1.403 . S
C1431 C1432 1.392 . S
C1431 C1435 1.495 . S
C1432 C1431 1.392 . S
C1432 C1433 1.385 . S
C1432 C1434 1.478 . S
C1433 H1427 0.930 . S
C1433 C1429 1.400 . S
C1433 C1432 1.385 . S
C1434 C1432 1.478 . S
C1434 C1436 1.381 . S
C1434 C1440 1.383 . S
C1435 C1431 1.495 . S
C1435 H1441 0.959 . S
C1435 H1442 0.961 . S
C1435 H1443 0.960 . S
C1436 C1434 1.381 . S
C1436 C1437 1.394 . S
C1436 H1444 0.930 . S
C1437 C1436 1.394 . S
C1437 C1438 1.383 . S
C1437 H1445 0.929 . S
C1438 C1437 1.383 . S
C1438 C1439 1.377 . S
C1439 H1423 0.930 . S
C1439 C1438 1.377 . S
C1439 C1440 1.379 . S
C1440 H1424 0.931 . S
C1440 C1434 1.383 . S
C1440 C1439 1.379 . S
H1441 C1435 0.959 . S
H1442 C1435 0.961 . S
H1443 C1435 0.960 . S
H1444 C1436 0.930 . S
H1445 C1437 0.929 . S
C591 C7 2.372 . S
C610 C201 2.323 . S
C627 C30 1.264 . S
C646 C275 1.242 . S
C682 C325 1.817 . S
C663 N58 1.820 . S
C718 C411 1.064 . S
C699 N81 1.000 . S
C754 C503 2.065 . S
C735 C99 2.070 . S
C790 C547 1.715 . S
C771 N127 1.712 . S
C807 N25 1.103 . S
C826 C349 1.085 . S
C843 C62 2.556 . S
C862 C429 2.512 . S
C898 C485 1.456 . S
C879 C85 1.434 . S
C934 C571 1.238 . S
C915 N94 1.235 . S
C951 C131 2.384 . S
C970 C177 2.257 . S
C1006 C251 1.757 . S
C987 N2 1.691 . S
C1042 C423 2.049 . S
C1023 C16 2.207 . S
C1059 C39 1.987 . S
C1078 C473 1.880 . S
C1114 C577 2.307 . S
C1095 N48 2.304 . S
C1131 N71 1.240 . S
C1150 C189 1.245 . S
C1167 C108 1.869 . S
C1186 C263 1.810 . S
C1203 N117 2.093 . S
C1222 C355 2.121 . S
C1239 N35 1.790 . S
C1258 C559 1.802 . S
C1294 C207 2.246 . S
C1275 C53 2.254 . S
C1311 C76 2.479 . S
C1330 C281 2.383 . S
C1347 N104 1.392 . S
C1366 C337 1.352 . S
C1383 C122 1.715 . S
C1402 C399 1.608 . S
C1419 N12 1.718 . S
C1438 C497 1.631 . S
