# Generated by pormake.
# Topology pyr, (3,6)-cn, num edge types: 1
# Building blocks:
#     Node 0, Type 0, BuildingBlock: BELTOD_clean_linker_0, # of connection points: 3
#     Node 1, Type 0, BuildingBlock: BELTOD_clean_linker_0, # of connection points: 3
#     Node 2, Type 0, BuildingBlock: BELTOD_clean_linker_0, # of connection points: 3
#     Node 3, Type 0, BuildingBlock: BELTOD_clean_linker_0, # of connection points: 3
#     Node 4, Type 0, BuildingBlock: BELTOD_clean_linker_0, # of connection points: 3
#     Node 5, Type 0, BuildingBlock: BELTOD_clean_linker_0, # of connection points: 3
#     Node 6, Type 0, BuildingBlock: BELTOD_clean_linker_0, # of connection points: 3
#     Node 7, Type 0, BuildingBlock: BELTOD_clean_linker_0, # of connection points: 3
#     Node 8, Type 1, BuildingBlock: LEVNOQ01_clean_sbu_1, # of connection points: 6
#     Node 9, Type 1, BuildingBlock: LEVNOQ01_clean_sbu_1, # of connection points: 6
#     Node 10, Type 1, BuildingBlock: LEVNOQ01_clean_sbu_1, # of connection points: 6
#     Node 11, Type 1, BuildingBlock: LEVNOQ01_clean_sbu_1, # of connection points: 6
#     Edge 12, Type (0, 1), BuildingBlock: EZIPEK_clean_linker_0, # of connection points: 2
#     Edge 13, Type (0, 1), BuildingBlock: EZIPEK_clean_linker_0, # of connection points: 2
#     Edge 14, Type (0, 1), BuildingBlock: EZIPEK_clean_linker_0, # of connection points: 2
#     Edge 15, Type (0, 1), BuildingBlock: EZIPEK_clean_linker_0, # of connection points: 2
#     Edge 16, Type (0, 1), BuildingBlock: EZIPEK_clean_linker_0, # of connection points: 2
#     Edge 17, Type (0, 1), BuildingBlock: EZIPEK_clean_linker_0, # of connection points: 2
#     Edge 18, Type (0, 1), BuildingBlock: EZIPEK_clean_linker_0, # of connection points: 2
#     Edge 19, Type (0, 1), BuildingBlock: EZIPEK_clean_linker_0, # of connection points: 2
#     Edge 20, Type (0, 1), BuildingBlock: EZIPEK_clean_linker_0, # of connection points: 2
#     Edge 21, Type (0, 1), BuildingBlock: EZIPEK_clean_linker_0, # of connection points: 2
#     Edge 22, Type (0, 1), BuildingBlock: EZIPEK_clean_linker_0, # of connection points: 2
#     Edge 23, Type (0, 1), BuildingBlock: EZIPEK_clean_linker_0, # of connection points: 2
#     Edge 24, Type (0, 1), BuildingBlock: EZIPEK_clean_linker_0, # of connection points: 2
#     Edge 25, Type (0, 1), BuildingBlock: EZIPEK_clean_linker_0, # of connection points: 2
#     Edge 26, Type (0, 1), BuildingBlock: EZIPEK_clean_linker_0, # of connection points: 2
#     Edge 27, Type (0, 1), BuildingBlock: EZIPEK_clean_linker_0, # of connection points: 2
#     Edge 28, Type (0, 1), BuildingBlock: EZIPEK_clean_linker_0, # of connection points: 2
#     Edge 29, Type (0, 1), BuildingBlock: EZIPEK_clean_linker_0, # of connection points: 2
#     Edge 30, Type (0, 1), BuildingBlock: EZIPEK_clean_linker_0, # of connection points: 2
#     Edge 31, Type (0, 1), BuildingBlock: EZIPEK_clean_linker_0, # of connection points: 2
#     Edge 32, Type (0, 1), BuildingBlock: EZIPEK_clean_linker_0, # of connection points: 2
#     Edge 33, Type (0, 1), BuildingBlock: EZIPEK_clean_linker_0, # of connection points: 2
#     Edge 34, Type (0, 1), BuildingBlock: EZIPEK_clean_linker_0, # of connection points: 2
#     Edge 35, Type (0, 1), BuildingBlock: EZIPEK_clean_linker_0, # of connection points: 2
# Relax obj value: 0.036
# Max RMSD: 0.107
# Mean RMSD: 0.051
data_MOF--net-pry--node1-LEVNOQ01_clean_sbu_1--node2-BELTOD_clean_linker_0--edge1-EZIPEK_clean_linker_0
_symmetry_space_group_name_H-M    P1
_symmetry_Int_Tables_number       1
_symmetry_cell_setting            triclinic
loop_
_symmetry_equiv_pos_as_xyz
'x, y, z'
_cell_length_a     33.006799
_cell_length_b     31.931702
_cell_length_c     31.46996
_cell_angle_alpha  92.234254
_cell_angle_beta   91.420072
_cell_angle_gamma 93.738733
loop_
_atom_site_label
_atom_site_type_symbol
_atom_site_fract_x
_atom_site_fract_y
_atom_site_fract_z
_atom_type_partial_charge
P0 P 0.15934 0.16715 0.15921 0.0
H1 H 0.24097 0.18451 0.12875 0.0
H2 H 0.28925 0.14127 0.09309 0.0
H3 H 0.19812 0.03831 0.08017 0.0
H4 H 0.14956 0.08146 0.117 0.0
H5 H 0.13945 0.25378 0.17475 0.0
H6 H 0.10177 0.30272 0.13418 0.0
H7 H 0.07064 0.20534 0.03806 0.0
H8 H 0.1098 0.15588 0.07859 0.0
H9 H 0.16621 0.16175 0.25159 0.0
H10 H 0.08941 0.10349 0.14996 0.0
O11 O 0.19148 0.19954 0.18874 0.0
H12 H 0.12891 0.12078 0.3032 0.0
H13 H 0.05321 0.06024 0.20221 0.0
C14 C 0.19171 0.13612 0.12656 0.0
C15 C 0.23104 0.15271 0.1183 0.0
C16 C 0.25873 0.12802 0.09793 0.0
C17 C 0.24758 0.08632 0.08474 0.0
C18 C 0.20752 0.07024 0.09071 0.0
C19 C 0.17978 0.09496 0.11166 0.0
C20 C 0.1282 0.20121 0.12941 0.0
C21 C 0.12484 0.24266 0.14488 0.0
C22 C 0.10326 0.27076 0.12171 0.0
C23 C 0.08391 0.25801 0.08275 0.0
C24 C 0.08582 0.21602 0.06779 0.0
C25 C 0.10801 0.18782 0.09093 0.0
C26 C 0.13074 0.13591 0.19659 0.0
C27 C 0.14143 0.1401 0.24011 0.0
C28 C 0.12019 0.11655 0.26981 0.0
C29 C 0.08811 0.08766 0.25675 0.0
C30 C 0.07775 0.08257 0.21305 0.0
C31 C 0.0985 0.10709 0.18326 0.0
P32 P 0.38675 0.90621 0.57967 0.0
H33 H 0.46002 0.91742 0.63378 0.0
H34 H 0.47209 0.93938 0.70906 0.0
H35 H 0.34335 0.94803 0.72383 0.0
H36 H 0.33107 0.92418 0.64967 0.0
H37 H 0.42921 0.87425 0.50594 0.0
H38 H 0.45092 0.80445 0.48514 0.0
H39 H 0.40135 0.75508 0.59981 0.0
H40 H 0.37985 0.82516 0.62092 0.0
H41 H 0.33602 0.97695 0.57934 0.0
H42 H 0.32206 0.8446 0.54453 0.0
O43 O 0.41446 0.94188 0.55355 0.0
H44 H 0.26406 0.98359 0.56156 0.0
H45 H 0.25029 0.85165 0.52553 0.0
C46 C 0.39473 0.91932 0.63583 0.0
C47 C 0.43437 0.9237 0.65331 0.0
C48 C 0.44128 0.93659 0.69609 0.0
C49 C 0.40864 0.94575 0.72196 0.0
C50 C 0.36899 0.9415 0.70437 0.0
C51 C 0.36205 0.9278 0.66189 0.0
C52 C 0.40368 0.85503 0.56542 0.0
C53 C 0.42325 0.84856 0.52684 0.0
C54 C 0.43543 0.80876 0.51479 0.0
C55 C 0.42768 0.77474 0.54092 0.0
C56 C 0.40759 0.78104 0.57928 0.0
C57 C 0.39556 0.82095 0.5914 0.0
C58 C 0.33437 0.91032 0.56359 0.0
C59 C 0.31759 0.94943 0.56755 0.0
C60 C 0.27661 0.95322 0.55746 0.0
C61 C 0.25187 0.91803 0.54259 0.0
C62 C 0.26889 0.87905 0.5373 0.0
C63 C 0.30986 0.87512 0.54812 0.0
P64 P 0.6673 0.32589 0.81173 0.0
H65 H 0.74486 0.31395 0.85279 0.0
H66 H 0.78598 0.35581 0.90638 0.0
H67 H 0.68811 0.43725 0.92502 0.0
H68 H 0.64717 0.39598 0.86957 0.0
H69 H 0.65402 0.23673 0.78774 0.0
H70 H 0.61428 0.17916 0.81979 0.0
H71 H 0.56767 0.26725 0.91058 0.0
H72 H 0.60738 0.325 0.87857 0.0
H73 H 0.69368 0.40308 0.77152 0.0
H74 H 0.58249 0.3254 0.78131 0.0
O75 O 0.70131 0.30469 0.78051 0.0
H76 H 0.65887 0.44832 0.72275 0.0
H77 H 0.54816 0.37014 0.73274 0.0
C78 C 0.69384 0.35306 0.85607 0.0
C79 C 0.73202 0.34058 0.86852 0.0
C80 C 0.75522 0.36406 0.89956 0.0
C81 C 0.74027 0.39995 0.919 0.0
C82 C 0.70014 0.40973 0.91008 0.0
C83 C 0.67712 0.38659 0.87818 0.0
C84 C 0.6343 0.28483 0.83154 0.0
C85 C 0.63496 0.24379 0.81423 0.0
C86 C 0.61219 0.21103 0.83222 0.0
C87 C 0.5884 0.21923 0.86743 0.0
C88 C 0.58595 0.26061 0.8833 0.0
C89 C 0.60877 0.29336 0.86531 0.0
C90 C 0.64056 0.36117 0.78018 0.0
C91 C 0.6618 0.39602 0.76348 0.0
C92 C 0.64217 0.42155 0.73554 0.0
C93 C 0.60123 0.41207 0.72385 0.0
C94 C 0.57992 0.37758 0.74117 0.0
C95 C 0.59947 0.35224 0.7691 0.0
P96 P 0.82987 0.63625 0.35666 0.0
H97 H 0.85234 0.72536 0.3535 0.0
H98 H 0.90066 0.7724 0.3946 0.0
H99 H 0.94118 0.66822 0.46381 0.0
H100 H 0.89297 0.62025 0.42156 0.0
H101 H 0.79196 0.56488 0.30739 0.0
H102 H 0.815 0.52582 0.24461 0.0
H103 H 0.93449 0.58789 0.26285 0.0
H104 H 0.91159 0.6272 0.32492 0.0
H105 H 0.74497 0.64652 0.37328 0.0
H106 H 0.83944 0.57126 0.41964 0.0
O107 O 0.80314 0.66639 0.32581 0.0
H108 H 0.69626 0.60937 0.41731 0.0
H109 H 0.79094 0.53653 0.46712 0.0
C110 C 0.86826 0.66939 0.38515 0.0
C111 C 0.87157 0.71225 0.37721 0.0
C112 C 0.89925 0.73913 0.40058 0.0
C113 C 0.92406 0.72367 0.43235 0.0
C114 C 0.92201 0.68055 0.4395 0.0
C115 C 0.89427 0.6534 0.4157 0.0
C116 C 0.85022 0.59851 0.32102 0.0
C117 C 0.8235 0.56892 0.29876 0.0
C118 C 0.83646 0.54685 0.26294 0.0
C119 C 0.87628 0.55429 0.24931 0.0
C120 C 0.90366 0.58183 0.27319 0.0
C121 C 0.89064 0.60404 0.30874 0.0
C122 C 0.79581 0.6115 0.39294 0.0
C123 C 0.75552 0.62257 0.39345 0.0
C124 C 0.72774 0.60161 0.41888 0.0
C125 C 0.73992 0.56978 0.44488 0.0
C126 C 0.78091 0.56059 0.44672 0.0
C127 C 0.80858 0.58067 0.41996 0.0
P128 P 0.87476 0.89373 0.90038 0.0
H129 H 0.84742 0.94023 0.97547 0.0
H130 H 0.78091 0.96328 -0.00367 0.0
H131 H 0.72548 0.90034 0.8838 0.0
H132 H 0.79204 0.87691 0.86301 0.0
H133 H 0.95218 0.85395 0.90365 0.0
H134 H 0.97135 0.78457 0.92425 0.0
H135 H 0.84965 0.75623 0.96657 0.0
H136 H 0.82949 0.82391 0.9418 0.0
H137 H 0.84006 0.94949 0.83933 0.0
H138 H 0.921 0.84863 0.83483 0.0
O139 O 0.90844 0.93007 0.92215 0.0
H140 H 0.85398 0.96312 0.7649 0.0
H141 H 0.9372 0.86455 0.76193 0.0
C142 C 0.82491 0.90742 0.91726 0.0
C143 C 0.82103 0.9313 0.95521 0.0
C144 C 0.78313 0.94463 0.96708 0.0
C145 C 0.74834 0.93408 0.94131 0.0
C146 C 0.752 0.90924 0.90389 0.0
C147 C 0.78993 0.89574 0.89214 0.0
C148 C 0.88897 0.84365 0.91956 0.0
C149 C 0.92934 0.83251 0.91661 0.0
C150 C 0.94051 0.7931 0.92902 0.0
C151 C 0.91199 0.76471 0.94677 0.0
C152 C 0.87222 0.77724 0.95257 0.0
C153 C 0.86062 0.81592 0.9383 0.0
C154 C 0.87902 0.89765 0.84317 0.0
C155 C 0.86009 0.9296 0.82235 0.0
C156 C 0.86822 0.93762 0.77983 0.0
C157 C 0.89693 0.91511 0.75782 0.0
C158 C 0.91494 0.88235 0.77816 0.0
C159 C 0.90582 0.87349 0.82023 0.0
P160 P 0.6579 0.16891 0.35963 0.0
H161 H 0.65649 0.19334 0.45097 0.0
H162 H 0.61433 0.24201 0.48891 0.0
H163 H 0.53682 0.24611 0.37703 0.0
H164 H 0.57761 0.19582 0.33987 0.0
H165 H 0.7454 0.17535 0.35079 0.0
H166 H 0.80053 0.13993 0.38392 0.0
H167 H 0.715 0.07385 0.46292 0.0
H168 H 0.65915 0.11 0.42983 0.0
H169 H 0.64329 0.17617 0.26852 0.0
H170 H 0.62186 0.08183 0.36139 0.0
O171 O 0.67913 0.21003 0.33527 0.0
H172 H 0.6104 0.12892 0.21341 0.0
H173 H 0.58874 0.03408 0.30548 0.0
C174 C 0.61997 0.19048 0.39264 0.0
C175 C 0.62921 0.20278 0.43528 0.0
C176 C 0.60522 0.23078 0.45695 0.0
C177 C 0.57289 0.24828 0.43552 0.0
C178 C 0.5617 0.23317 0.39413 0.0
C179 C 0.58501 0.20438 0.37292 0.0
C180 C 0.69817 0.14564 0.38815 0.0
C181 C 0.73834 0.15411 0.37594 0.0
C182 C 0.76993 0.1341 0.39499 0.0
C183 C 0.76186 0.10488 0.42627 0.0
C184 C 0.7218 0.09695 0.43936 0.0
C185 C 0.69002 0.11722 0.42027 0.0
C186 C 0.63532 0.13248 0.31912 0.0
C187 C 0.63197 0.14514 0.27708 0.0
C188 C 0.61327 0.11814 0.24551 0.0
C189 C 0.59736 0.07803 0.25536 0.0
C190 C 0.60112 0.06487 0.29729 0.0
C191 C 0.61988 0.09211 0.32909 0.0
P192 P 0.37823 0.6068 0.11316 0.0
H193 H 0.35172 0.57559 0.02773 0.0
H194 H 0.28388 0.5595 -0.00553 0.0
H195 H 0.22901 0.5925 0.11306 0.0
H196 H 0.29605 0.60889 0.146 0.0
H197 H 0.43682 0.66585 0.15827 0.0
H198 H 0.45826 0.73952 0.14748 0.0
H199 H 0.37258 0.74085 0.04187 0.0
H200 H 0.35002 0.66785 0.05345 0.0
H201 H 0.40954 0.53899 0.16133 0.0
H202 H 0.34882 0.6525 0.18755 0.0
O203 O 0.41275 0.57922 0.08875 0.0
H204 H 0.41581 0.52827 0.23779 0.0
H205 H 0.354 0.64093 0.26423 0.0
C206 C 0.32894 0.59244 0.08964 0.0
C207 C 0.32507 0.57895 0.04664 0.0
C208 C 0.28658 0.5701 0.0276 0.0
C209 C 0.25177 0.57471 0.05155 0.0
C210 C 0.25571 0.58867 0.09428 0.0
C211 C 0.29403 0.59773 0.11314 0.0
C212 C 0.39145 0.66156 0.10704 0.0
C213 C 0.42188 0.68227 0.13349 0.0
C214 C 0.43401 0.72424 0.12753 0.0
C215 C 0.41685 0.7454 0.094 0.0
C216 C 0.38588 0.72496 0.06808 0.0
C217 C 0.37325 0.68323 0.07455 0.0
C218 C 0.37916 0.59673 0.16893 0.0
C219 C 0.3972 0.56132 0.18345 0.0
C220 C 0.40064 0.55516 0.22697 0.0
C221 C 0.38568 0.58409 0.25642 0.0
C222 C 0.36587 0.61849 0.24186 0.0
C223 C 0.36297 0.62498 0.19828 0.0
P224 P 0.13415 0.35261 0.62537 0.0
H225 H 0.13147 0.32096 0.53773 0.0
H226 H 0.08906 0.26251 0.5063 0.0
H227 H 0.00547 0.27321 0.60851 0.0
H228 H 0.04749 0.33283 0.63978 0.0
H229 H 0.21657 0.38128 0.64706 0.0
H230 H 0.26972 0.41743 0.60682 0.0
H231 H 0.1828 0.43586 0.50575 0.0
H232 H 0.12892 0.40051 0.54677 0.0
H233 H 0.14593 0.33262 0.71427 0.0
H234 H 0.08865 0.42674 0.64339 0.0
O235 O 0.1598 0.31128 0.63804 0.0
H236 H 0.12383 0.3647 0.78077 0.0
H237 H 0.06607 0.4588 0.71058 0.0
C238 C 0.09287 0.33122 0.59132 0.0
C239 C 0.10241 0.31329 0.55172 0.0
C240 C 0.07804 0.27973 0.53355 0.0
C241 C 0.0447 0.26313 0.55561 0.0
C242 C 0.03112 0.28571 0.59107 0.0
C243 C 0.05542 0.31965 0.60913 0.0
C244 C 0.1693 0.38724 0.59925 0.0
C245 C 0.20871 0.39373 0.61662 0.0
C246 C 0.23895 0.41414 0.59368 0.0
C247 C 0.23005 0.42836 0.55317 0.0
C248 C 0.19002 0.4245 0.53684 0.0
C249 C 0.15951 0.40433 0.56016 0.0
C250 C 0.11858 0.37722 0.67394 0.0
C251 C 0.12877 0.36029 0.71295 0.0
C252 C 0.11641 0.37864 0.75095 0.0
C253 C 0.0935 0.414 0.75038 0.0
C254 C 0.08391 0.43154 0.71143 0.0
C255 C 0.09652 0.41322 0.67329 0.0
O256 O 0.00709 0.97831 0.61137 0.0
Mg257 Mg 0.03303 0.01323 0.56378 0.0
O258 O 0.95924 0.96475 0.56286 0.0
Mg259 Mg -0.00789 0.98607 0.4988 0.0
O260 O 0.00984 0.05643 0.52326 0.0
O261 O 0.03084 0.07063 0.59089 0.0
O262 O 0.01999 0.00749 0.43372 0.0
O263 O 0.92989 0.01624 0.48117 0.0
Mg264 Mg 0.9442 0.94524 0.43054 0.0
O265 O 0.97614 0.91622 0.47542 0.0
O266 O 0.97666 0.97891 0.38452 0.0
O267 O 0.88937 0.96538 0.45211 0.0
O268 O 0.94245 0.88308 0.41923 0.0
C269 C 0.0906 0.96942 0.52952 0.0
C270 C 0.97196 0.96331 0.60142 0.0
C271 C 0.01943 0.08334 0.55455 0.0
C272 C 0.00827 0.00199 0.39469 0.0
C273 C 0.89464 0.00253 0.46713 0.0
C274 C 0.96349 0.88186 0.4542 0.0
O275 O 0.09272 0.00177 0.55374 0.0
O276 O 0.05669 0.95675 0.51122 0.0
O277 O 0.41302 0.07579 0.03915 0.0
Mg278 Mg 0.47536 0.0905 0.04123 0.0
O279 O 0.41936 0.0096 0.01699 0.0
Mg280 Mg 0.48892 0.00119 -0.00105 0.0
O281 O 0.50187 0.07142 0.9868 0.0
O282 O 0.49766 0.13905 0.00695 0.0
O283 O 0.56028 -0.006 0.98356 0.0
O284 O 0.46308 -0.00305 0.92611 0.0
Mg285 Mg 0.50314 0.92713 0.95685 0.0
O286 O 0.47531 0.92978 0.01474 0.0
O287 O 0.5654 0.92944 0.95784 0.0
O288 O 0.47487 0.93448 0.89951 0.0
O289 O 0.4829 0.87091 0.97473 0.0
C290 C 0.51816 0.0367 0.10035 0.0
C291 C 0.39751 0.03926 0.02981 0.0
C292 C 0.50913 0.11101 0.98002 0.0
C293 C 0.58206 0.96448 0.9702 0.0
C294 C 0.46046 0.96951 0.89518 0.0
C295 C 0.47183 0.88901 0.00943 0.0
O296 O 0.50774 0.07361 0.09498 0.0
O297 O 0.51221 0.00775 0.0711 0.0
O298 O 0.44647 0.59135 0.55703 0.0
Mg299 Mg 0.44958 0.52913 0.57021 0.0
O300 O 0.47838 0.5774 0.49816 0.0
Mg301 Mg 0.4845 0.50323 0.49482 0.0
O302 O 0.50065 0.49592 0.56812 0.0
O303 O 0.4779 0.52785 0.62679 0.0
O304 O 0.49435 0.43071 0.48853 0.0
O305 O 0.55455 0.5151 0.48915 0.0
Mg306 Mg 0.51758 0.4795 0.40216 0.0
O307 O 0.47039 0.5097 0.4241 0.0
O308 O 0.51449 0.41735 0.42263 0.0
O309 O 0.57044 0.51637 0.42117 0.0
O310 O 0.48023 0.49908 0.35489 0.0
C311 C 0.38717 0.48268 0.52518 0.0
C312 C 0.46213 0.60343 0.52332 0.0
C313 C 0.50189 0.50239 0.60939 0.0
C314 C 0.50579 0.40526 0.45944 0.0
C315 C 0.58059 0.5209 0.4603 0.0
C316 C 0.45986 0.51549 0.385 0.0
O317 O 0.39541 0.49316 0.56362 0.0
O318 O 0.41403 0.48726 0.49703 0.0
O319 O 0.04044 0.43143 0.06515 0.0
Mg320 Mg 0.02818 0.49446 0.07634 0.0
O321 O 0.00184 0.42806 0.00656 0.0
Mg322 Mg -0.01176 0.50026 -0.00141 0.0
O323 O 0.96872 0.50863 0.07012 0.0
O324 O 0.00247 0.50178 0.13248 0.0
O325 O 0.97343 0.57293 -0.00684 0.0
O326 O 0.91742 0.48039 -0.00957 0.0
Mg327 Mg 0.95477 0.51039 0.91836 0.0
O328 O 0.00969 0.48819 0.92751 0.0
O329 O 0.94448 0.57365 0.92962 0.0
O330 O 0.90811 0.46452 0.92245 0.0
O331 O 0.98277 0.5034 0.86359 0.0
C332 C 0.0837 0.53887 0.03135 0.0
C333 C 0.02379 0.41035 0.03391 0.0
C334 C 0.96985 0.50942 0.11161 0.0
C335 C 0.95558 0.59277 0.96424 0.0
C336 C 0.89455 0.46534 0.95946 0.0
C337 C 0.01115 0.48836 0.88608 0.0
O338 O 0.07488 0.54022 0.06998 0.0
O339 O 0.05808 0.52218 0.00372 0.0
C340 C 0.08659 0.03215 0.31167 0.0
C341 C 0.06616 0.06311 0.28974 0.0
C342 C 0.00864 0.05473 0.33767 0.0
C343 C 0.02953 0.02457 0.36026 0.0
N344 N 0.08914 0.98642 0.37168 0.0
N345 N 0.00545 0.09941 0.2771 0.0
C346 C 0.06878 0.01382 0.34807 0.0
C347 C 0.02642 0.07296 0.30128 0.0
N348 N 0.12206 0.01876 0.29604 0.0
N349 N 0.97284 0.06787 0.3528 0.0
H350 H 0.01819 0.11572 0.25214 0.0
H351 H 0.97459 0.10342 0.2798 0.0
H352 H 0.95942 0.05623 0.37998 0.0
H353 H 0.95777 0.09266 0.34084 0.0
H354 H 0.13707 -0.00621 0.30768 0.0
H355 H 0.13516 0.0306 0.26877 0.0
H356 H 0.11951 0.98062 0.36794 0.0
H357 H 0.07626 0.97085 0.39708 0.0
C358 C 0.43886 -0.00433 0.78064 0.0
C359 C 0.41588 0.95772 0.76802 0.0
C360 C 0.40754 0.94235 0.84296 0.0
C361 C 0.43751 0.97471 0.85478 0.0
N362 N 0.48191 0.0332 0.83539 0.0
N363 N 0.38262 0.89184 0.78788 0.0
C364 C 0.45275 0.00228 0.82388 0.0
C365 C 0.40074 0.93048 0.79939 0.0
N366 N 0.44702 0.02537 0.75141 0.0
N367 N 0.38645 0.92222 0.87383 0.0
H368 H 0.37872 0.88068 0.75638 0.0
H369 H 0.3751 0.86913 0.80975 0.0
H370 H 0.39095 0.93077 0.90607 0.0
H371 H 0.36191 0.90054 0.86722 0.0
H372 H 0.46053 0.05512 0.75934 0.0
H373 H 0.43688 0.02157 0.71974 0.0
H374 H 0.49771 0.05128 0.8136 0.0
H375 H 0.49154 0.03948 0.86694 0.0
C376 C 0.58857 0.43926 0.65074 0.0
C377 C 0.57956 0.43863 0.69455 0.0
C378 C 0.51746 0.47277 0.68044 0.0
C379 C 0.52913 0.47964 0.63778 0.0
N380 N 0.58344 0.47845 0.58705 0.0
N381 N 0.54208 0.46697 0.75258 0.0
C382 C 0.56692 0.46546 0.62402 0.0
C383 C 0.54642 0.45983 0.70992 0.0
N384 N 0.61678 0.41421 0.63429 0.0
N385 N 0.47807 0.47476 0.69238 0.0
H386 H 0.56331 0.45829 0.77518 0.0
H387 H 0.51982 0.48549 0.76472 0.0
H388 H 0.45393 0.47651 0.6707 0.0
H389 H 0.46867 0.46779 0.72285 0.0
H390 H 0.62112 0.41048 0.60168 0.0
H391 H 0.63306 0.39434 0.65279 0.0
H392 H 0.61208 0.47059 0.57748 0.0
H393 H 0.57138 0.50152 0.56907 0.0
C394 C 0.90227 0.4966 0.20328 0.0
C395 C 0.88866 0.53762 0.20749 0.0
C396 C 0.91719 0.5558 0.13905 0.0
C397 C 0.93344 0.51589 0.13652 0.0
N398 N 0.9303 0.44397 0.15684 0.0
N399 N 0.87115 0.60107 0.17456 0.0
C400 C 0.92187 0.48471 0.16552 0.0
C401 C 0.89189 0.56539 0.17345 0.0
N402 N 0.89864 0.47009 0.23623 0.0
N403 N 0.92821 0.58539 0.11055 0.0
H404 H 0.8525 0.60879 0.1996 0.0
H405 H 0.86942 0.62088 0.14917 0.0
H406 H 0.94577 0.57901 0.0843 0.0
H407 H 0.92153 0.61675 0.11388 0.0
H408 H 0.91228 0.44163 0.23703 0.0
H409 H 0.88359 0.47765 0.26398 0.0
H410 H 0.92012 0.41902 0.17498 0.0
H411 H 0.94426 0.43479 0.12885 0.0
C412 C 0.28995 0.06725 0.02238 0.0
C413 C 0.2788 0.06037 0.06497 0.0
C414 C 0.33946 0.02087 0.07627 0.0
C415 C 0.3531 0.03276 0.03588 0.0
N416 N 0.33868 0.05687 0.96642 0.0
N417 N 0.28707 0.02318 0.1294 0.0
C418 C 0.32698 0.05213 0.0074 0.0
C419 C 0.30145 0.03414 0.09073 0.0
N420 N 0.26581 0.08978 -0.00283 0.0
N421 N 0.36433 -0.00079 0.10153 0.0
H422 H 0.25988 0.0332 0.14103 0.0
H423 H 0.30057 0.0025 0.14922 0.0
H424 H 0.39133 0.98798 0.09054 0.0
H425 H 0.35885 -0.0076 0.13298 0.0
H426 H 0.2732 0.09927 0.96695 0.0
H427 H 0.23781 0.09951 0.00695 0.0
H428 H 0.32124 0.06953 0.94279 0.0
H429 H 0.36554 0.04528 0.95538 0.0
C430 C 0.178 0.90686 0.56062 0.0
C431 C 0.2081 0.92278 0.53286 0.0
C432 C 0.15749 0.96196 0.49573 0.0
C433 C 0.12774 0.94666 0.52396 0.0
N434 N 0.10616 0.89682 0.5754 0.0
N435 N 0.22479 0.95607 0.46759 0.0
C436 C 0.13687 0.91619 0.55358 0.0
C437 C 0.19717 0.94722 0.49817 0.0
N438 N 0.18903 0.88534 0.59534 0.0
N439 N 0.1482 -0.00801 0.46794 0.0
H440 H 0.25398 0.94533 0.46845 0.0
H441 H 0.21777 0.97068 0.43959 0.0
H442 H 0.11889 0.002 0.46416 0.0
H443 H 0.1697 0.00834 0.45015 0.0
H444 H 0.16925 0.87718 0.61936 0.0
H445 H 0.21882 0.87809 0.60191 0.0
H446 H 0.11008 0.87158 0.59472 0.0
H447 H 0.07585 0.90354 0.57095 0.0
C448 C 0.78786 0.46362 0.91901 0.0
C449 C 0.77001 0.43006 0.94179 0.0
C450 C 0.83039 0.43071 0.98884 0.0
C451 C 0.84979 0.46044 0.96254 0.0
N452 N 0.8425 0.51719 0.91505 0.0
N453 N 0.76698 0.3924 0.00613 0.0
C454 C 0.82662 0.48128 0.93225 0.0
C455 C 0.78882 0.41766 0.97984 0.0
N456 N 0.76993 0.4758 0.88224 0.0
N457 N 0.85213 0.41316 0.02019 0.0
H458 H 0.73655 0.38292 -0.00071 0.0
H459 H 0.77759 0.38415 0.03587 0.0
H460 H 0.88232 0.42281 0.02775 0.0
H461 H 0.84078 0.38828 0.03776 0.0
H462 H 0.78472 0.4953 0.86093 0.0
H463 H 0.74096 0.46488 0.87154 0.0
H464 H 0.82562 0.53621 0.89624 0.0
H465 H 0.8717 0.52992 0.92279 0.0
C466 C 0.68512 0.56653 0.49707 0.0
C467 C 0.70777 0.54503 0.46667 0.0
C468 C 0.64956 0.49618 0.44882 0.0
C469 C 0.62467 0.52403 0.4711 0.0
N470 N 0.61857 0.57999 0.52405 0.0
N471 N 0.71697 0.48211 0.42457 0.0
C472 C 0.64248 0.55678 0.49872 0.0
C473 C 0.69182 0.50689 0.44669 0.0
N474 N 0.70474 0.59753 0.52243 0.0
N475 N 0.63215 0.46056 0.42841 0.0
H476 H 0.74814 0.48905 0.42344 0.0
H477 H 0.70807 0.45353 0.40915 0.0
H478 H 0.60169 0.45065 0.43148 0.0
H479 H 0.64723 0.44011 0.40888 0.0
H480 H 0.69118 0.61489 0.54611 0.0
H481 H 0.73611 0.60406 0.521 0.0
H482 H 0.62927 0.60549 0.54361 0.0
H483 H 0.5873 0.57398 0.52569 0.0
C484 C 0.08065 0.31186 0.02606 0.0
C485 C 0.0613 0.28943 0.05898 0.0
C486 C 0.00688 0.33864 0.05962 0.0
C487 C 0.0296 0.36446 0.03197 0.0
N488 N 0.08351 0.37407 0.98304 0.0
N489 N 0.00373 0.27712 0.10324 0.0
C490 C 0.06473 0.35001 0.01272 0.0
C491 C 0.02322 0.30118 0.07401 0.0
N492 N 0.11478 0.29714 0.00867 0.0
N493 N 0.97004 0.35087 0.07252 0.0
H494 H 0.01421 0.24868 0.11267 0.0
H495 H 0.9775 0.28486 0.11846 0.0
H496 H 0.95763 0.3778 0.06146 0.0
H497 H 0.95063 0.33375 0.09188 0.0
H498 H 0.13022 0.31072 0.98377 0.0
H499 H 0.12719 0.26971 0.01823 0.0
H500 H 0.11089 0.36797 0.96924 0.0
H501 H 0.07087 0.40074 0.97168 0.0
C502 C 0.5924 0.16779 0.92468 0.0
C503 C 0.56977 0.18405 0.89082 0.0
C504 C 0.50976 0.13925 0.90779 0.0
C505 C 0.53171 0.12556 0.94327 0.0
N506 N 0.59505 0.11663 0.97967 0.0
N507 N 0.50929 0.18331 0.84629 0.0
C508 C 0.57361 0.1364 0.94955 0.0
C509 C 0.52919 0.16867 0.88077 0.0
N510 N 0.63103 0.18415 0.93444 0.0
N511 N 0.47016 0.1246 0.90108 0.0
H512 H 0.52292 0.20509 0.82632 0.0
H513 H 0.47971 0.17373 0.83657 0.0
H514 H 0.45637 0.10177 0.91984 0.0
H515 H 0.45109 0.1338 0.8769 0.0
H516 H 0.64732 0.17752 0.96182 0.0
H517 H 0.64635 0.20644 0.91629 0.0
H518 H 0.62645 0.12036 0.98396 0.0
H519 H 0.58154 0.0933 -0.00197 0.0
C520 C 0.93 0.77721 0.49058 0.0
C521 C 0.9498 0.75458 0.45876 0.0
C522 C -0.0032 0.81536 0.44914 0.0
C523 C 0.96933 0.84026 0.47061 0.0
N524 N 0.91207 0.8461 0.51571 0.0
N525 N 0.00671 0.74778 0.4138 0.0
C526 C 0.93758 0.82139 0.49417 0.0
C527 C 0.98575 0.772 0.44108 0.0
N528 N 0.90192 0.75658 0.51464 0.0
N529 N 0.03174 0.83412 0.43443 0.0
H530 H -0.00112 0.71573 0.40864 0.0
H531 H 0.03097 0.75921 0.39614 0.0
H532 H 0.03927 0.86617 0.4402 0.0
H533 H 0.05421 0.81784 0.41971 0.0
H534 H 0.88778 0.77073 0.54014 0.0
H535 H 0.89581 0.72412 0.51109 0.0
H536 H 0.88547 0.83464 0.52953 0.0
H537 H 0.91703 0.87873 0.51826 0.0
C538 C 0.41851 0.70542 0.49934 0.0
C539 C 0.44173 0.73261 0.52892 0.0
C540 C 0.48676 0.67656 0.54388 0.0
C541 C 0.46241 0.64886 0.516 0.0
N542 N 0.41091 0.63755 0.46081 0.0
N543 N 0.50254 0.74774 0.57222 0.0
C544 C 0.43042 0.66379 0.49121 0.0
C545 C 0.47748 0.71931 0.54879 0.0
N546 N 0.38388 0.71873 0.48098 0.0
N547 N 0.51752 0.66111 0.56724 0.0
H548 H 0.49637 0.77921 0.57676 0.0
H549 H 0.53084 0.7412 0.58459 0.0
H550 H 0.52663 0.63065 0.56216 0.0
H551 H 0.53306 0.6776 0.59247 0.0
H552 H 0.3632 0.69941 0.46251 0.0
H553 H 0.37451 0.74906 0.48597 0.0
H554 H 0.38955 0.64697 0.43891 0.0
H555 H 0.41855 0.60664 0.45538 0.0
C556 C 0.90804 0.8997 0.67934 0.0
C557 C 0.9112 0.92836 0.71526 0.0
C558 C 0.94136 0.98231 0.67028 0.0
C559 C 0.94493 0.95177 0.63687 0.0
N560 N 0.93651 0.8795 0.61178 0.0
N561 N 0.93973 -0.00524 0.74624 0.0
C562 C 0.92918 0.90993 0.64171 0.0
C563 C 0.92998 0.96926 0.71107 0.0
N564 N 0.88453 0.86303 0.68099 0.0
N565 N 0.94901 0.02397 0.66302 0.0
H566 H 0.93452 0.98575 0.77721 0.0
H567 H 0.95718 0.02306 0.74493 0.0
H568 H 0.95646 0.03474 0.63311 0.0
H569 H 0.94357 0.04779 0.68534 0.0
H570 H 0.87829 0.84275 0.65457 0.0
H571 H 0.8681 0.85501 0.70772 0.0
H572 H 0.92921 0.84765 0.61559 0.0
H573 H 0.95309 0.88591 0.58476 0.0
C574 C 0.53192 0.05386 0.21704 0.0
C575 C 0.5746 0.05181 0.22143 0.0
C576 C 0.57735 0.02237 0.14842 0.0
C577 C 0.53542 0.02845 0.14292 0.0
N578 N 0.47057 0.03484 0.17449 0.0
N579 N 0.63563 0.02249 0.19746 0.0
C580 C 0.51197 0.03873 0.17845 0.0
C581 C 0.59648 0.03173 0.18913 0.0
N582 N 0.51099 0.07295 0.24846 0.0
N583 N 0.59922 0.01051 0.11422 0.0
H584 H 0.64989 0.02928 0.22714 0.0
H585 H 0.65259 0.00506 0.17663 0.0
H586 H 0.58569 0.00232 0.08452 0.0
H587 H 0.63072 0.01 0.11477 0.0
H588 H 0.48084 0.08023 0.24495 0.0
H589 H 0.52443 0.0835 0.2776 0.0
H590 H 0.45133 0.0388 0.19985 0.0
H591 H 0.45567 0.02357 0.14625 0.0
C592 C 0.42651 0.60054 0.32387 0.0
C593 C 0.39293 0.57824 0.30237 0.0
C594 C 0.3912 0.52504 0.35612 0.0
C595 C 0.4284 0.54359 0.37298 0.0
N596 N 0.47282 0.60525 0.38551 0.0
N597 N 0.33541 0.52832 0.30451 0.0
C598 C 0.44246 0.58412 0.36155 0.0
C599 C 0.37219 0.54374 0.32125 0.0
N600 N 0.44524 0.6349 0.30629 0.0
N601 N 0.37619 0.48803 0.37167 0.0
H602 H 0.32142 0.5421 0.27892 0.0
H603 H 0.31759 0.50425 0.31752 0.0
H604 H 0.38976 0.47522 0.39811 0.0
H605 H 0.35117 0.4701 0.35859 0.0
H606 H 0.47264 0.64954 0.31779 0.0
H607 H 0.43412 0.64802 0.27891 0.0
H608 H 0.48297 0.63628 0.38104 0.0
H609 H 0.48511 0.59242 0.41259 0.0
C610 C 0.09421 0.46911 0.80967 0.0
C611 C 0.07714 0.43076 0.7905 0.0
C612 C 0.02893 0.42397 0.84794 0.0
C613 C 0.04117 0.46536 0.86259 0.0
N614 N 0.08519 0.52793 0.85923 0.0
N615 N 0.02557 0.37334 0.78859 0.0
C616 C 0.07422 0.48793 0.84435 0.0
C617 C 0.04412 0.40823 0.80921 0.0
N618 N 0.12947 0.4872 0.7948 0.0
N619 N 0.00198 0.40023 0.87076 0.0
H620 H 0.03524 0.36107 0.75965 0.0
H621 H -0.00151 0.35855 0.79825 0.0
H622 H -0.00961 0.41135 0.89932 0.0
H623 H -0.00567 0.36851 0.86377 0.0
H624 H 0.14537 0.5132 0.80963 0.0
H625 H 0.14457 0.47422 0.76922 0.0
H626 H 0.1058 0.54822 0.84435 0.0
H627 H 0.07225 0.54126 0.88607 0.0
C628 C 0.68602 0.92657 0.98592 0.0
C629 C 0.70778 0.94799 0.95405 0.0
C630 C 0.64908 -0.01 0.94034 0.0
C631 C 0.62728 0.96791 0.97164 0.0
N632 N 0.62816 0.92438 0.03218 0.0
N633 N 0.71404 0.00632 0.90782 0.0
C634 C 0.64707 0.93936 -0.00283 0.0
C635 C 0.69057 0.98186 0.93354 0.0
N636 N 0.70155 0.89247 0.00378 0.0
N637 N 0.62948 0.01705 0.9157 0.0
H638 H 0.74428 0.0009 0.90198 0.0
H639 H 0.70473 0.03379 0.895 0.0
H640 H 0.5998 0.02483 0.92126 0.0
H641 H 0.64185 0.03042 0.88889 0.0
H642 H 0.6851 0.87252 0.02339 0.0
H643 H 0.72999 0.8821 -0.00347 0.0
H644 H 0.64209 0.90635 0.05445 0.0
H645 H 0.59971 0.93361 0.04111 0.0
C646 C 0.80641 0.04699 0.40996 0.0
C647 C 0.79462 0.07809 0.43949 0.0
C648 C 0.84852 0.05992 0.4895 0.0
C649 C 0.86237 0.03156 0.45798 0.0
N650 N 0.86255 0.01055 0.38319 0.0
N651 N 0.80796 0.11941 0.50462 0.0
C652 C 0.84361 0.02862 0.41674 0.0
C653 C 0.81674 0.0862 0.47857 0.0
N654 N 0.78194 0.03466 0.37543 0.0
N655 N 0.86457 0.06081 0.52998 0.0
H656 H 0.7843 0.13846 0.49786 0.0
H657 H 0.82584 0.12978 0.53118 0.0
H658 H 0.88757 0.04188 0.5391 0.0
H659 H 0.85305 0.078 0.55521 0.0
H660 H 0.78747 0.009 0.3554 0.0
H661 H 0.75409 0.04722 0.36929 0.0
H662 H 0.8515 0.01091 0.3519 0.0
H663 H 0.89182 0.00021 0.3856 0.0
C664 C 0.18586 0.59754 0.02331 0.0
C665 C 0.21063 0.56434 0.03292 0.0
C666 C 0.15235 0.51346 0.02209 0.0
C667 C 0.12664 0.5473 0.02096 0.0
N668 N 0.11748 0.62111 0.01783 0.0
N669 N 0.21857 0.49062 0.04183 0.0
C670 C 0.14306 0.58928 0.02001 0.0
C671 C 0.1944 0.52209 0.03141 0.0
N672 N 0.20349 0.63682 0.01787 0.0
N673 N 0.13627 0.47313 0.01532 0.0
H674 H 0.24972 0.4956 0.04803 0.0
H675 H 0.20753 0.45996 0.04677 0.0
H676 H 0.10541 0.46582 0.00916 0.0
H677 H 0.15375 0.44728 0.01197 0.0
H678 H 0.18765 0.66191 0.00776 0.0
H679 H 0.23489 0.64341 0.02017 0.0
H680 H 0.12686 0.6528 0.0219 0.0
H681 H 0.08618 0.61539 0.01322 0.0
C682 C 0.28987 0.41593 0.50946 0.0
C683 C 0.26409 0.44499 0.52795 0.0
C684 C 0.31621 0.50171 0.52121 0.0
C685 C 0.34451 0.47114 0.51325 0.0
N686 N 0.3592 0.40028 0.49391 0.0
N687 N 0.25003 0.51596 0.54797 0.0
C688 C 0.33143 0.42861 0.50433 0.0
C689 C 0.27606 0.48833 0.53164 0.0
N690 N 0.27456 0.37611 0.49839 0.0
N691 N 0.32845 0.54334 0.51977 0.0
H692 H 0.21996 0.50697 0.55457 0.0
H693 H 0.25849 0.54721 0.55639 0.0
H694 H 0.35796 0.55337 0.51183 0.0
H695 H 0.30884 0.56747 0.52252 0.0
H696 H 0.29085 0.35385 0.48243 0.0
H697 H 0.24406 0.36655 0.50224 0.0
H698 H 0.35266 0.36794 0.49144 0.0
H699 H 0.38954 0.40944 0.48874 0.0
C700 C 0.89829 0.68606 0.93868 0.0
C701 C 0.92275 0.7209 0.95627 0.0
C702 C 0.96983 0.6714 0.98544 0.0
C703 C 0.94311 0.63704 0.9703 0.0
N704 N 0.87366 0.6152 0.9511 0.0
N705 N 0.97619 0.74555 0.00683 0.0
C706 C 0.90465 0.64561 0.95291 0.0
C707 C 0.95691 0.71328 0.98294 0.0
N708 N 0.87041 0.69078 0.90672 0.0
N709 N 0.00776 0.66461 0.0007 0.0
H710 H 0.96656 0.77602 0.00711 0.0
H711 H -0.00116 0.74109 0.02955 0.0
H712 H 0.01796 0.63469 0.00356 0.0
H713 H 0.02984 0.68885 0.00788 0.0
H714 H 0.85437 0.66518 0.89113 0.0
H715 H 0.86697 0.71928 0.89239 0.0
H716 H 0.84435 0.62064 0.94043 0.0
H717 H 0.8763 0.58699 0.96624 0.0
C718 C 0.47381 0.79058 0.06548 0.0
C719 C 0.43438 0.78709 0.08245 0.0
C720 C 0.42271 0.85876 0.06213 0.0
C721 C 0.4618 0.86132 0.04455 0.0
N722 N 0.52954 0.83771 0.04495 0.0
N723 N 0.37611 0.82107 0.10807 0.0
C724 C 0.48912 0.82999 0.05209 0.0
C725 C 0.41042 0.82246 0.08467 0.0
N726 N 0.49533 0.75587 0.05864 0.0
N727 N 0.39676 0.88955 0.05529 0.0
H728 H 0.36676 0.7948 0.12494 0.0
H729 H 0.35916 0.84699 0.11382 0.0
H730 H 0.40544 0.91689 0.03988 0.0
H731 H 0.3663 0.88721 0.06331 0.0
H732 H 0.52215 0.75655 0.04182 0.0
H733 H 0.48472 0.72562 0.06591 0.0
H734 H 0.55137 0.81696 0.05285 0.0
H735 H 0.54143 0.86688 0.03543 0.0
C736 C 0.003 0.19745 0.52906 0.0
C737 C 0.03652 0.21702 0.55295 0.0
C738 C 0.06264 0.14888 0.56468 0.0
C739 C 0.02592 0.1288 0.54778 0.0
N740 N 0.95921 0.13383 0.51582 0.0
N741 N 0.09363 0.21025 0.60176 0.0
C742 C -0.00448 0.15293 0.52999 0.0
C743 C 0.0649 0.19242 0.57332 0.0
N744 N 0.97876 0.22124 0.50546 0.0
N745 N 0.09604 0.12649 0.5712 0.0
H746 H 0.09689 0.24225 0.60972 0.0
H747 H 0.11169 0.19246 0.62073 0.0
H748 H 0.09665 0.09472 0.56226 0.0
H749 H 0.12446 0.14056 0.5804 0.0
H750 H 0.95632 0.2084 0.48405 0.0
H751 H 0.98325 0.25389 0.50514 0.0
H752 H 0.93458 0.15033 0.50628 0.0
H753 H 0.95275 0.10148 0.51633 0.0
C754 C 0.51276 0.28743 0.45967 0.0
C755 C 0.5552 0.28701 0.4529 0.0
C756 C 0.56278 0.36172 0.47365 0.0
C757 C 0.52027 0.36398 0.47024 0.0
N758 N 0.45373 0.32935 0.46172 0.0
N759 N 0.61969 0.32701 0.44617 0.0
C760 C 0.49479 0.32677 0.46438 0.0
C761 C 0.58025 0.32487 0.45868 0.0
N762 N 0.48992 0.25038 0.46157 0.0
N763 N 0.58649 0.39548 0.48986 0.0
H764 H 0.63347 0.30185 0.43187 0.0
H765 H 0.63742 0.35522 0.44566 0.0
H766 H 0.57409 0.42294 0.50106 0.0
H767 H 0.61761 0.39449 0.49592 0.0
H768 H 0.4595 0.24855 0.46975 0.0
H769 H 0.50259 0.22132 0.45867 0.0
H770 H 0.43344 0.30394 0.45303 0.0
H771 H 0.44032 0.35777 0.46679 0.0
loop_
_geom_bond_atom_site_label_1
_geom_bond_atom_site_label_2
_geom_bond_distance
_geom_bond_site_symmetry_2
_ccdc_geom_bond_type
P0 O11 1.490 . S
P0 C14 1.812 . S
P0 C20 1.803 . S
P0 C26 1.819 . S
H1 C15 0.941 . S
H2 C16 0.939 . S
H3 C18 0.940 . S
H4 C19 0.940 . S
H5 C21 0.939 . S
H6 C22 0.942 . S
H7 C24 0.940 . S
H8 C25 0.939 . S
H9 C27 0.941 . S
H10 C31 0.939 . S
O11 P0 1.490 . S
H12 C28 0.939 . S
H13 C30 0.940 . S
C14 P0 1.812 . S
C14 C15 1.389 . S
C14 C19 1.391 . S
C15 H1 0.941 . S
C15 C14 1.389 . S
C15 C16 1.397 . S
C16 H2 0.939 . S
C16 C15 1.397 . S
C16 C17 1.378 . S
C17 C16 1.378 . S
C17 C18 1.378 . S
C18 H3 0.940 . S
C18 C17 1.378 . S
C18 C19 1.396 . S
C19 H4 0.940 . S
C19 C14 1.391 . S
C19 C18 1.396 . S
C20 P0 1.803 . S
C20 C21 1.378 . S
C20 C25 1.400 . S
C21 H5 0.939 . S
C21 C20 1.378 . S
C21 C22 1.361 . S
C22 H6 0.942 . S
C22 C21 1.361 . S
C22 C23 1.369 . S
C23 C22 1.369 . S
C23 C24 1.404 . S
C24 H7 0.940 . S
C24 C23 1.404 . S
C24 C25 1.389 . S
C25 H8 0.939 . S
C25 C20 1.400 . S
C25 C24 1.389 . S
C26 P0 1.819 . S
C26 C27 1.391 . S
C26 C31 1.391 . S
C27 H9 0.941 . S
C27 C26 1.391 . S
C27 C28 1.396 . S
C28 H12 0.939 . S
C28 C27 1.396 . S
C28 C29 1.397 . S
C29 C28 1.397 . S
C29 C30 1.385 . S
C30 H13 0.940 . S
C30 C29 1.385 . S
C30 C31 1.388 . S
C31 H10 0.939 . S
C31 C26 1.391 . S
C31 C30 1.388 . S
P32 O43 1.490 . S
P32 C46 1.812 . S
P32 C52 1.803 . S
P32 C58 1.819 . S
H33 C47 0.941 . S
H34 C48 0.939 . S
H35 C50 0.940 . S
H36 C51 0.940 . S
H37 C53 0.939 . S
H38 C54 0.942 . S
H39 C56 0.940 . S
H40 C57 0.939 . S
H41 C59 0.941 . S
H42 C63 0.939 . S
O43 P32 1.490 . S
H44 C60 0.939 . S
H45 C62 0.940 . S
C46 P32 1.812 . S
C46 C47 1.389 . S
C46 C51 1.391 . S
C47 H33 0.941 . S
C47 C46 1.389 . S
C47 C48 1.397 . S
C48 H34 0.939 . S
C48 C47 1.397 . S
C48 C49 1.378 . S
C49 C48 1.378 . S
C49 C50 1.378 . S
C50 H35 0.940 . S
C50 C49 1.378 . S
C50 C51 1.396 . S
C51 H36 0.940 . S
C51 C46 1.391 . S
C51 C50 1.396 . S
C52 P32 1.803 . S
C52 C53 1.378 . S
C52 C57 1.400 . S
C53 H37 0.939 . S
C53 C52 1.378 . S
C53 C54 1.361 . S
C54 H38 0.942 . S
C54 C53 1.361 . S
C54 C55 1.369 . S
C55 C54 1.369 . S
C55 C56 1.404 . S
C56 H39 0.940 . S
C56 C55 1.404 . S
C56 C57 1.389 . S
C57 H40 0.939 . S
C57 C52 1.400 . S
C57 C56 1.389 . S
C58 P32 1.819 . S
C58 C59 1.391 . S
C58 C63 1.391 . S
C59 H41 0.941 . S
C59 C58 1.391 . S
C59 C60 1.396 . S
C60 H44 0.939 . S
C60 C59 1.396 . S
C60 C61 1.397 . S
C61 C60 1.397 . S
C61 C62 1.385 . S
C62 H45 0.940 . S
C62 C61 1.385 . S
C62 C63 1.388 . S
C63 H42 0.939 . S
C63 C58 1.391 . S
C63 C62 1.388 . S
P64 O75 1.490 . S
P64 C78 1.812 . S
P64 C84 1.803 . S
P64 C90 1.819 . S
H65 C79 0.941 . S
H66 C80 0.939 . S
H67 C82 0.940 . S
H68 C83 0.940 . S
H69 C85 0.939 . S
H70 C86 0.942 . S
H71 C88 0.940 . S
H72 C89 0.939 . S
H73 C91 0.941 . S
H74 C95 0.939 . S
O75 P64 1.490 . S
H76 C92 0.939 . S
H77 C94 0.940 . S
C78 P64 1.812 . S
C78 C79 1.389 . S
C78 C83 1.391 . S
C79 H65 0.941 . S
C79 C78 1.389 . S
C79 C80 1.397 . S
C80 H66 0.939 . S
C80 C79 1.397 . S
C80 C81 1.378 . S
C81 C80 1.378 . S
C81 C82 1.378 . S
C82 H67 0.940 . S
C82 C81 1.378 . S
C82 C83 1.396 . S
C83 H68 0.940 . S
C83 C78 1.391 . S
C83 C82 1.396 . S
C84 P64 1.803 . S
C84 C85 1.378 . S
C84 C89 1.400 . S
C85 H69 0.939 . S
C85 C84 1.378 . S
C85 C86 1.361 . S
C86 H70 0.942 . S
C86 C85 1.361 . S
C86 C87 1.369 . S
C87 C86 1.369 . S
C87 C88 1.404 . S
C88 H71 0.940 . S
C88 C87 1.404 . S
C88 C89 1.389 . S
C89 H72 0.939 . S
C89 C84 1.400 . S
C89 C88 1.389 . S
C90 P64 1.819 . S
C90 C91 1.391 . S
C90 C95 1.391 . S
C91 H73 0.941 . S
C91 C90 1.391 . S
C91 C92 1.396 . S
C92 H76 0.939 . S
C92 C91 1.396 . S
C92 C93 1.397 . S
C93 C92 1.397 . S
C93 C94 1.385 . S
C94 H77 0.940 . S
C94 C93 1.385 . S
C94 C95 1.388 . S
C95 H74 0.939 . S
C95 C90 1.391 . S
C95 C94 1.388 . S
P96 O107 1.490 . S
P96 C110 1.812 . S
P96 C116 1.803 . S
P96 C122 1.819 . S
H97 C111 0.941 . S
H98 C112 0.939 . S
H99 C114 0.940 . S
H100 C115 0.940 . S
H101 C117 0.939 . S
H102 C118 0.942 . S
H103 C120 0.940 . S
H104 C121 0.939 . S
H105 C123 0.941 . S
H106 C127 0.939 . S
O107 P96 1.490 . S
H108 C124 0.939 . S
H109 C126 0.940 . S
C110 P96 1.812 . S
C110 C111 1.389 . S
C110 C115 1.391 . S
C111 H97 0.941 . S
C111 C110 1.389 . S
C111 C112 1.397 . S
C112 H98 0.939 . S
C112 C111 1.397 . S
C112 C113 1.378 . S
C113 C112 1.378 . S
C113 C114 1.378 . S
C114 H99 0.940 . S
C114 C113 1.378 . S
C114 C115 1.396 . S
C115 H100 0.940 . S
C115 C110 1.391 . S
C115 C114 1.396 . S
C116 P96 1.803 . S
C116 C117 1.378 . S
C116 C121 1.400 . S
C117 H101 0.939 . S
C117 C116 1.378 . S
C117 C118 1.361 . S
C118 H102 0.942 . S
C118 C117 1.361 . S
C118 C119 1.369 . S
C119 C118 1.369 . S
C119 C120 1.404 . S
C120 H103 0.940 . S
C120 C119 1.404 . S
C120 C121 1.389 . S
C121 H104 0.939 . S
C121 C116 1.400 . S
C121 C120 1.389 . S
C122 P96 1.819 . S
C122 C123 1.391 . S
C122 C127 1.391 . S
C123 H105 0.941 . S
C123 C122 1.391 . S
C123 C124 1.396 . S
C124 H108 0.939 . S
C124 C123 1.396 . S
C124 C125 1.397 . S
C125 C124 1.397 . S
C125 C126 1.385 . S
C126 H109 0.940 . S
C126 C125 1.385 . S
C126 C127 1.388 . S
C127 H106 0.939 . S
C127 C122 1.391 . S
C127 C126 1.388 . S
P128 O139 1.490 . S
P128 C142 1.812 . S
P128 C148 1.803 . S
P128 C154 1.819 . S
H129 C143 0.941 . S
H130 C144 0.939 . S
H131 C146 0.940 . S
H132 C147 0.940 . S
H133 C149 0.939 . S
H134 C150 0.942 . S
H135 C152 0.940 . S
H136 C153 0.939 . S
H137 C155 0.941 . S
H138 C159 0.939 . S
O139 P128 1.490 . S
H140 C156 0.939 . S
H141 C158 0.940 . S
C142 P128 1.812 . S
C142 C143 1.389 . S
C142 C147 1.391 . S
C143 H129 0.941 . S
C143 C142 1.389 . S
C143 C144 1.397 . S
C144 H130 0.939 . S
C144 C143 1.397 . S
C144 C145 1.378 . S
C145 C144 1.378 . S
C145 C146 1.378 . S
C146 H131 0.940 . S
C146 C145 1.378 . S
C146 C147 1.396 . S
C147 H132 0.940 . S
C147 C142 1.391 . S
C147 C146 1.396 . S
C148 P128 1.803 . S
C148 C149 1.378 . S
C148 C153 1.400 . S
C149 H133 0.939 . S
C149 C148 1.378 . S
C149 C150 1.361 . S
C150 H134 0.942 . S
C150 C149 1.361 . S
C150 C151 1.369 . S
C151 C150 1.369 . S
C151 C152 1.404 . S
C152 H135 0.940 . S
C152 C151 1.404 . S
C152 C153 1.389 . S
C153 H136 0.939 . S
C153 C148 1.400 . S
C153 C152 1.389 . S
C154 P128 1.819 . S
C154 C155 1.391 . S
C154 C159 1.391 . S
C155 H137 0.941 . S
C155 C154 1.391 . S
C155 C156 1.396 . S
C156 H140 0.939 . S
C156 C155 1.396 . S
C156 C157 1.397 . S
C157 C156 1.397 . S
C157 C158 1.385 . S
C158 H141 0.940 . S
C158 C157 1.385 . S
C158 C159 1.388 . S
C159 H138 0.939 . S
C159 C154 1.391 . S
C159 C158 1.388 . S
P160 O171 1.490 . S
P160 C174 1.812 . S
P160 C180 1.803 . S
P160 C186 1.819 . S
H161 C175 0.941 . S
H162 C176 0.939 . S
H163 C178 0.940 . S
H164 C179 0.940 . S
H165 C181 0.939 . S
H166 C182 0.942 . S
H167 C184 0.940 . S
H168 C185 0.939 . S
H169 C187 0.941 . S
H170 C191 0.939 . S
O171 P160 1.490 . S
H172 C188 0.939 . S
H173 C190 0.940 . S
C174 P160 1.812 . S
C174 C175 1.389 . S
C174 C179 1.391 . S
C175 H161 0.941 . S
C175 C174 1.389 . S
C175 C176 1.397 . S
C176 H162 0.939 . S
C176 C175 1.397 . S
C176 C177 1.378 . S
C177 C176 1.378 . S
C177 C178 1.378 . S
C178 H163 0.940 . S
C178 C177 1.378 . S
C178 C179 1.396 . S
C179 H164 0.940 . S
C179 C174 1.391 . S
C179 C178 1.396 . S
C180 P160 1.803 . S
C180 C181 1.378 . S
C180 C185 1.400 . S
C181 H165 0.939 . S
C181 C180 1.378 . S
C181 C182 1.361 . S
C182 H166 0.942 . S
C182 C181 1.361 . S
C182 C183 1.369 . S
C183 C182 1.369 . S
C183 C184 1.404 . S
C184 H167 0.940 . S
C184 C183 1.404 . S
C184 C185 1.389 . S
C185 H168 0.939 . S
C185 C180 1.400 . S
C185 C184 1.389 . S
C186 P160 1.819 . S
C186 C187 1.391 . S
C186 C191 1.391 . S
C187 H169 0.941 . S
C187 C186 1.391 . S
C187 C188 1.396 . S
C188 H172 0.939 . S
C188 C187 1.396 . S
C188 C189 1.397 . S
C189 C188 1.397 . S
C189 C190 1.385 . S
C190 H173 0.940 . S
C190 C189 1.385 . S
C190 C191 1.388 . S
C191 H170 0.939 . S
C191 C186 1.391 . S
C191 C190 1.388 . S
P192 O203 1.490 . S
P192 C206 1.812 . S
P192 C212 1.803 . S
P192 C218 1.819 . S
H193 C207 0.941 . S
H194 C208 0.939 . S
H195 C210 0.940 . S
H196 C211 0.940 . S
H197 C213 0.939 . S
H198 C214 0.942 . S
H199 C216 0.940 . S
H200 C217 0.939 . S
H201 C219 0.941 . S
H202 C223 0.939 . S
O203 P192 1.490 . S
H204 C220 0.939 . S
H205 C222 0.940 . S
C206 P192 1.812 . S
C206 C207 1.389 . S
C206 C211 1.391 . S
C207 H193 0.941 . S
C207 C206 1.389 . S
C207 C208 1.397 . S
C208 H194 0.939 . S
C208 C207 1.397 . S
C208 C209 1.378 . S
C209 C208 1.378 . S
C209 C210 1.378 . S
C210 H195 0.940 . S
C210 C209 1.378 . S
C210 C211 1.396 . S
C211 H196 0.940 . S
C211 C206 1.391 . S
C211 C210 1.396 . S
C212 P192 1.803 . S
C212 C213 1.378 . S
C212 C217 1.400 . S
C213 H197 0.939 . S
C213 C212 1.378 . S
C213 C214 1.361 . S
C214 H198 0.942 . S
C214 C213 1.361 . S
C214 C215 1.369 . S
C215 C214 1.369 . S
C215 C216 1.404 . S
C216 H199 0.940 . S
C216 C215 1.404 . S
C216 C217 1.389 . S
C217 H200 0.939 . S
C217 C212 1.400 . S
C217 C216 1.389 . S
C218 P192 1.819 . S
C218 C219 1.391 . S
C218 C223 1.391 . S
C219 H201 0.941 . S
C219 C218 1.391 . S
C219 C220 1.396 . S
C220 H204 0.939 . S
C220 C219 1.396 . S
C220 C221 1.397 . S
C221 C220 1.397 . S
C221 C222 1.385 . S
C222 H205 0.940 . S
C222 C221 1.385 . S
C222 C223 1.388 . S
C223 H202 0.939 . S
C223 C218 1.391 . S
C223 C222 1.388 . S
P224 O235 1.490 . S
P224 C238 1.812 . S
P224 C244 1.803 . S
P224 C250 1.819 . S
H225 C239 0.941 . S
H226 C240 0.939 . S
H227 C242 0.940 . S
H228 C243 0.940 . S
H229 C245 0.939 . S
H230 C246 0.942 . S
H231 C248 0.940 . S
H232 C249 0.939 . S
H233 C251 0.941 . S
H234 C255 0.939 . S
O235 P224 1.490 . S
H236 C252 0.939 . S
H237 C254 0.940 . S
C238 P224 1.812 . S
C238 C239 1.389 . S
C238 C243 1.391 . S
C239 H225 0.941 . S
C239 C238 1.389 . S
C239 C240 1.397 . S
C240 H226 0.939 . S
C240 C239 1.397 . S
C240 C241 1.378 . S
C241 C240 1.378 . S
C241 C242 1.378 . S
C242 H227 0.940 . S
C242 C241 1.378 . S
C242 C243 1.396 . S
C243 H228 0.940 . S
C243 C238 1.391 . S
C243 C242 1.396 . S
C244 P224 1.803 . S
C244 C245 1.378 . S
C244 C249 1.400 . S
C245 H229 0.939 . S
C245 C244 1.378 . S
C245 C246 1.361 . S
C246 H230 0.942 . S
C246 C245 1.361 . S
C246 C247 1.369 . S
C247 C246 1.369 . S
C247 C248 1.404 . S
C248 H231 0.940 . S
C248 C247 1.404 . S
C248 C249 1.389 . S
C249 H232 0.939 . S
C249 C244 1.400 . S
C249 C248 1.389 . S
C250 P224 1.819 . S
C250 C251 1.391 . S
C250 C255 1.391 . S
C251 H233 0.941 . S
C251 C250 1.391 . S
C251 C252 1.396 . S
C252 H236 0.939 . S
C252 C251 1.396 . S
C252 C253 1.397 . S
C253 C252 1.397 . S
C253 C254 1.385 . S
C254 H237 0.940 . S
C254 C253 1.385 . S
C254 C255 1.388 . S
C255 H234 0.939 . S
C255 C250 1.391 . S
C255 C254 1.388 . S
O256 Mg257 1.990 . S
O256 C270 1.253 1_445 S
Mg257 O256 1.990 . S
Mg257 O260 2.180 . S
Mg257 O261 2.117 . S
Mg257 O275 2.030 1_545 S
O258 Mg259 2.072 1_665 S
O258 C270 1.260 . S
Mg259 O258 2.072 1_445 S
Mg259 O260 2.099 . S
Mg259 O262 2.079 . S
Mg259 O263 2.072 1_455 S
Mg259 O265 2.099 1_445 S
Mg259 O276 2.079 1_545 S
O260 Mg257 2.180 . S
O260 Mg259 2.099 . S
O260 C271 1.279 . S
O261 Mg257 2.117 . S
O261 C271 1.250 . S
O262 Mg259 2.079 . S
O262 C272 1.264 . S
O263 Mg259 2.072 1_655 S
O263 C273 1.260 . S
Mg264 O265 2.180 . S
Mg264 O266 2.030 1_565 S
Mg264 O267 1.990 1_565 S
Mg264 O268 2.117 . S
O265 Mg259 2.099 1_665 S
O265 Mg264 2.180 . S
O265 C274 1.279 . S
O266 Mg264 2.030 1_545 S
O266 C272 1.248 1_655 S
O267 Mg264 1.990 1_545 S
O267 C273 1.253 . S
O268 Mg264 2.117 . S
O268 C274 1.250 . S
C269 O275 1.248 . S
C269 O276 1.264 . S
C270 O256 1.253 1_665 S
C270 O258 1.260 . S
C271 O260 1.279 . S
C271 O261 1.250 . S
C272 O262 1.264 . S
C272 O266 1.248 1_455 S
C273 O263 1.260 . S
C273 O267 1.253 . S
C274 O265 1.279 . S
C274 O268 1.250 . S
O275 Mg257 2.030 1_565 S
O275 C269 1.248 . S
O276 Mg259 2.079 1_565 S
O276 C269 1.264 . S
O277 Mg278 1.990 . S
O277 C291 1.253 . S
Mg278 O277 1.990 . S
Mg278 O281 2.180 . S
Mg278 O282 2.117 1_554 S
Mg278 O296 2.030 . S
O279 Mg280 2.072 . S
O279 C291 1.260 . S
Mg280 O279 2.072 . S
Mg280 O281 2.099 . S
Mg280 O283 2.079 1_544 S
Mg280 O284 2.072 1_554 S
Mg280 O286 2.099 1_545 S
Mg280 O297 2.079 . S
O281 Mg278 2.180 . S
O281 Mg280 2.099 . S
O281 C292 1.279 1_554 S
O282 Mg278 2.117 1_556 S
O282 C292 1.250 . S
O283 Mg280 2.079 1_566 S
O283 C293 1.264 . S
O284 Mg280 2.072 1_556 S
O284 C294 1.260 1_545 S
Mg285 O286 2.180 1_556 S
Mg285 O287 2.030 . S
Mg285 O288 1.990 . S
Mg285 O289 2.117 1_556 S
O286 Mg280 2.099 1_565 S
O286 Mg285 2.180 1_554 S
O286 C295 1.279 . S
O287 Mg285 2.030 . S
O287 C293 1.248 . S
O288 Mg285 1.990 . S
O288 C294 1.253 . S
O289 Mg285 2.117 1_554 S
O289 C295 1.250 . S
C290 O296 1.248 . S
C290 O297 1.264 . S
C291 O277 1.253 . S
C291 O279 1.260 . S
C292 O281 1.279 1_556 S
C292 O282 1.250 . S
C293 O283 1.264 . S
C293 O287 1.248 . S
C294 O284 1.260 1_565 S
C294 O288 1.253 . S
C295 O286 1.279 . S
C295 O289 1.250 . S
O296 Mg278 2.030 . S
O296 C290 1.248 . S
O297 Mg280 2.079 . S
O297 C290 1.264 . S
O298 Mg299 1.990 . S
O298 C312 1.253 . S
Mg299 O298 1.990 . S
Mg299 O302 2.180 . S
Mg299 O303 2.117 . S
Mg299 O317 2.030 . S
O300 Mg301 2.072 . S
O300 C312 1.260 . S
Mg301 O300 2.072 . S
Mg301 O302 2.099 . S
Mg301 O304 2.079 . S
Mg301 O305 2.072 . S
Mg301 O307 2.099 . S
Mg301 O318 2.079 . S
O302 Mg299 2.180 . S
O302 Mg301 2.099 . S
O302 C313 1.279 . S
O303 Mg299 2.117 . S
O303 C313 1.250 . S
O304 Mg301 2.079 . S
O304 C314 1.264 . S
O305 Mg301 2.072 . S
O305 C315 1.260 . S
Mg306 O307 2.180 . S
Mg306 O308 2.030 . S
Mg306 O309 1.990 . S
Mg306 O310 2.117 . S
O307 Mg301 2.099 . S
O307 Mg306 2.180 . S
O307 C316 1.279 . S
O308 Mg306 2.030 . S
O308 C314 1.248 . S
O309 Mg306 1.990 . S
O309 C315 1.253 . S
O310 Mg306 2.117 . S
O310 C316 1.250 . S
C311 O317 1.248 . S
C311 O318 1.264 . S
C312 O298 1.253 . S
C312 O300 1.260 . S
C313 O302 1.279 . S
C313 O303 1.250 . S
C314 O304 1.264 . S
C314 O308 1.248 . S
C315 O305 1.260 . S
C315 O309 1.253 . S
C316 O307 1.279 . S
C316 O310 1.250 . S
O317 Mg299 2.030 . S
O317 C311 1.248 . S
O318 Mg301 2.079 . S
O318 C311 1.264 . S
O319 Mg320 1.990 . S
O319 C333 1.253 . S
Mg320 O319 1.990 . S
Mg320 O323 2.180 1_455 S
Mg320 O324 2.117 1_455 S
Mg320 O338 2.030 . S
O321 Mg322 2.072 . S
O321 C333 1.260 . S
Mg322 O321 2.072 . S
Mg322 O323 2.099 1_455 S
Mg322 O325 2.079 1_454 S
Mg322 O326 2.072 1_455 S
Mg322 O328 2.099 1_554 S
Mg322 O339 2.079 . S
O323 Mg320 2.180 1_655 S
O323 Mg322 2.099 1_655 S
O323 C334 1.279 . S
O324 Mg320 2.117 1_655 S
O324 C334 1.250 . S
O325 Mg322 2.079 1_656 S
O325 C335 1.264 . S
O326 Mg322 2.072 1_655 S
O326 C336 1.260 1_554 S
Mg327 O328 2.180 1_655 S
Mg327 O329 2.030 . S
Mg327 O330 1.990 . S
Mg327 O331 2.117 . S
O328 Mg322 2.099 1_556 S
O328 Mg327 2.180 1_455 S
O328 C337 1.279 . S
O329 Mg327 2.030 . S
O329 C335 1.248 . S
O330 Mg327 1.990 . S
O330 C336 1.253 . S
O331 Mg327 2.117 . S
O331 C337 1.250 1_655 S
C332 O338 1.248 . S
C332 O339 1.264 . S
C333 O319 1.253 . S
C333 O321 1.260 . S
C334 O323 1.279 . S
C334 O324 1.250 . S
C335 O325 1.264 . S
C335 O329 1.248 . S
C336 O326 1.260 1_556 S
C336 O330 1.253 . S
C337 O328 1.279 . S
C337 O331 1.250 1_455 S
O338 Mg320 2.030 . S
O338 C332 1.248 . S
O339 Mg322 2.079 . S
O339 C332 1.264 . S
C340 C341 1.363 . S
C340 C346 1.379 . S
C340 N348 1.356 . S
C341 C340 1.363 . S
C341 C347 1.363 . S
C342 C343 1.363 . S
C342 C347 1.379 . S
C342 N349 1.356 1_455 S
C343 C342 1.363 . S
C343 C346 1.363 . S
N344 C346 1.356 . S
N344 H356 0.984 . S
N344 H357 0.985 . S
N345 C347 1.356 . S
N345 H350 0.984 . S
N345 H351 0.985 1_455 S
C346 C340 1.379 . S
C346 C343 1.363 . S
C346 N344 1.356 . S
C347 C341 1.363 . S
C347 C342 1.379 . S
C347 N345 1.356 . S
N348 C340 1.356 . S
N348 H354 0.984 . S
N348 H355 0.984 . S
N349 C342 1.356 1_655 S
N349 H352 0.984 . S
N349 H353 0.985 . S
H350 N345 0.984 . S
H351 N345 0.985 1_655 S
H352 N349 0.984 . S
H353 N349 0.985 . S
H354 N348 0.984 . S
H355 N348 0.984 . S
H356 N344 0.984 . S
H357 N344 0.985 . S
C358 C359 1.363 . S
C358 C364 1.379 1_565 S
C358 N366 1.356 1_565 S
C359 C358 1.363 . S
C359 C365 1.363 . S
C360 C361 1.363 . S
C360 C365 1.379 . S
C360 N367 1.356 . S
C361 C360 1.363 . S
C361 C364 1.363 1_565 S
N362 C364 1.356 . S
N362 H374 0.984 . S
N362 H375 0.985 . S
N363 C365 1.356 . S
N363 H368 0.984 . S
N363 H369 0.985 . S
C364 C358 1.379 1_545 S
C364 C361 1.363 1_545 S
C364 N362 1.356 . S
C365 C359 1.363 . S
C365 C360 1.379 . S
C365 N363 1.356 . S
N366 C358 1.356 1_545 S
N366 H372 0.984 . S
N366 H373 0.984 1_545 S
N367 C360 1.356 . S
N367 H370 0.984 . S
N367 H371 0.985 . S
H368 N363 0.984 . S
H369 N363 0.985 . S
H370 N367 0.984 . S
H371 N367 0.985 . S
H372 N366 0.984 . S
H373 N366 0.984 1_565 S
H374 N362 0.984 . S
H375 N362 0.985 . S
C376 C377 1.363 . S
C376 C382 1.379 . S
C376 N384 1.356 . S
C377 C376 1.363 . S
C377 C383 1.363 . S
C378 C379 1.363 . S
C378 C383 1.379 . S
C378 N385 1.356 . S
C379 C378 1.363 . S
C379 C382 1.363 . S
N380 C382 1.356 . S
N380 H392 0.984 . S
N380 H393 0.985 . S
N381 C383 1.356 . S
N381 H386 0.984 . S
N381 H387 0.985 . S
C382 C376 1.379 . S
C382 C379 1.363 . S
C382 N380 1.356 . S
C383 C377 1.363 . S
C383 C378 1.379 . S
C383 N381 1.356 . S
N384 C376 1.356 . S
N384 H390 0.984 . S
N384 H391 0.984 . S
N385 C378 1.356 . S
N385 H388 0.984 . S
N385 H389 0.985 . S
H386 N381 0.984 . S
H387 N381 0.985 . S
H388 N385 0.984 . S
H389 N385 0.985 . S
H390 N384 0.984 . S
H391 N384 0.984 . S
H392 N380 0.984 . S
H393 N380 0.985 . S
C394 C395 1.363 . S
C394 C400 1.379 . S
C394 N402 1.356 . S
C395 C394 1.363 . S
C395 C401 1.363 . S
C396 C397 1.363 . S
C396 C401 1.379 . S
C396 N403 1.356 . S
C397 C396 1.363 . S
C397 C400 1.363 . S
N398 C400 1.356 . S
N398 H410 0.984 . S
N398 H411 0.985 . S
N399 C401 1.356 . S
N399 H404 0.984 . S
N399 H405 0.985 . S
C400 C394 1.379 . S
C400 C397 1.363 . S
C400 N398 1.356 . S
C401 C395 1.363 . S
C401 C396 1.379 . S
C401 N399 1.356 . S
N402 C394 1.356 . S
N402 H408 0.984 . S
N402 H409 0.984 . S
N403 C396 1.356 . S
N403 H406 0.984 . S
N403 H407 0.985 . S
H404 N399 0.984 . S
H405 N399 0.985 . S
H406 N403 0.984 . S
H407 N403 0.985 . S
H408 N402 0.984 . S
H409 N402 0.984 . S
H410 N398 0.984 . S
H411 N398 0.985 . S
C412 C413 1.363 . S
C412 C418 1.379 . S
C412 N420 1.356 . S
C413 C412 1.363 . S
C413 C419 1.363 . S
C414 C415 1.363 . S
C414 C419 1.379 . S
C414 N421 1.356 . S
C415 C414 1.363 . S
C415 C418 1.363 . S
N416 C418 1.355 . S
N416 H428 0.986 1_554 S
N416 H429 0.984 . S
N417 C419 1.356 . S
N417 H422 0.984 . S
N417 H423 0.985 . S
C418 C412 1.379 . S
C418 C415 1.363 . S
C418 N416 1.355 . S
C419 C413 1.363 . S
C419 C414 1.379 . S
C419 N417 1.356 . S
N420 C412 1.356 . S
N420 H426 0.984 1_554 S
N420 H427 0.984 . S
N421 C414 1.356 . S
N421 H424 0.984 . S
N421 H425 0.985 . S
H422 N417 0.984 . S
H423 N417 0.985 . S
H424 N421 0.984 . S
H425 N421 0.985 . S
H426 N420 0.984 1_556 S
H427 N420 0.984 . S
H428 N416 0.986 1_556 S
H429 N416 0.984 . S
C430 C431 1.363 . S
C430 C436 1.379 . S
C430 N438 1.356 . S
C431 C430 1.363 . S
C431 C437 1.363 . S
C432 C433 1.363 . S
C432 C437 1.379 . S
C432 N439 1.356 . S
C433 C432 1.363 . S
C433 C436 1.363 . S
N434 C436 1.356 . S
N434 H446 0.984 . S
N434 H447 0.985 . S
N435 C437 1.356 . S
N435 H440 0.984 . S
N435 H441 0.985 1_565 S
C436 C430 1.379 . S
C436 C433 1.363 . S
C436 N434 1.356 . S
C437 C431 1.363 . S
C437 C432 1.379 . S
C437 N435 1.356 . S
N438 C430 1.356 . S
N438 H444 0.984 . S
N438 H445 0.984 . S
N439 C432 1.356 . S
N439 H442 0.984 . S
N439 H443 0.985 1_565 S
H440 N435 0.984 . S
H441 N435 0.985 1_545 S
H442 N439 0.984 . S
H443 N439 0.985 1_545 S
H444 N438 0.984 . S
H445 N438 0.984 . S
H446 N434 0.984 . S
H447 N434 0.985 . S
C448 C449 1.363 . S
C448 C454 1.379 . S
C448 N456 1.356 . S
C449 C448 1.363 . S
C449 C455 1.363 . S
C450 C451 1.363 . S
C450 C455 1.379 . S
C450 N457 1.356 1_556 S
C451 C450 1.363 . S
C451 C454 1.363 . S
N452 C454 1.356 . S
N452 H464 0.984 . S
N452 H465 0.985 . S
N453 C455 1.356 . S
N453 H458 0.984 . S
N453 H459 0.985 1_556 S
C454 C448 1.379 . S
C454 C451 1.363 . S
C454 N452 1.356 . S
C455 C449 1.363 . S
C455 C450 1.379 . S
C455 N453 1.356 . S
N456 C448 1.356 . S
N456 H462 0.984 . S
N456 H463 0.984 . S
N457 C450 1.356 1_554 S
N457 H460 0.984 . S
N457 H461 0.985 . S
H458 N453 0.984 . S
H459 N453 0.985 1_554 S
H460 N457 0.984 . S
H461 N457 0.985 . S
H462 N456 0.984 . S
H463 N456 0.984 . S
H464 N452 0.984 . S
H465 N452 0.985 . S
C466 C467 1.363 . S
C466 C472 1.379 . S
C466 N474 1.356 . S
C467 C466 1.363 . S
C467 C473 1.363 . S
C468 C469 1.363 . S
C468 C473 1.379 . S
C468 N475 1.356 . S
C469 C468 1.363 . S
C469 C472 1.363 . S
N470 C472 1.356 . S
N470 H482 0.984 . S
N470 H483 0.985 . S
N471 C473 1.356 . S
N471 H476 0.984 . S
N471 H477 0.985 . S
C472 C466 1.379 . S
C472 C469 1.363 . S
C472 N470 1.356 . S
C473 C467 1.363 . S
C473 C468 1.379 . S
C473 N471 1.356 . S
N474 C466 1.356 . S
N474 H480 0.984 . S
N474 H481 0.984 . S
N475 C468 1.356 . S
N475 H478 0.984 . S
N475 H479 0.985 . S
H476 N471 0.984 . S
H477 N471 0.985 . S
H478 N475 0.984 . S
H479 N475 0.985 . S
H480 N474 0.984 . S
H481 N474 0.984 . S
H482 N470 0.984 . S
H483 N470 0.985 . S
C484 C485 1.363 . S
C484 C490 1.379 . S
C484 N492 1.356 . S
C485 C484 1.363 . S
C485 C491 1.363 . S
C486 C487 1.363 . S
C486 C491 1.379 . S
C486 N493 1.356 . S
C487 C486 1.363 . S
C487 C490 1.363 . S
N488 C490 1.356 1_556 S
N488 H500 0.984 . S
N488 H501 0.985 . S
N489 C491 1.356 . S
N489 H494 0.984 . S
N489 H495 0.985 . S
C490 C484 1.379 . S
C490 C487 1.363 . S
C490 N488 1.356 1_554 S
C491 C485 1.363 . S
C491 C486 1.379 . S
C491 N489 1.356 . S
N492 C484 1.356 . S
N492 H498 0.984 1_554 S
N492 H499 0.984 . S
N493 C486 1.356 . S
N493 H496 0.984 . S
N493 H497 0.985 1_455 S
H494 N489 0.984 . S
H495 N489 0.985 . S
H496 N493 0.984 . S
H497 N493 0.985 1_655 S
H498 N492 0.984 1_556 S
H499 N492 0.984 . S
H500 N488 0.984 . S
H501 N488 0.985 . S
C502 C503 1.363 . S
C502 C508 1.379 . S
C502 N510 1.356 . S
C503 C502 1.363 . S
C503 C509 1.363 . S
C504 C505 1.363 . S
C504 C509 1.379 . S
C504 N511 1.356 . S
C505 C504 1.363 . S
C505 C508 1.363 . S
N506 C508 1.356 1_554 S
N506 H518 0.984 . S
N506 H519 0.985 . S
N507 C509 1.356 . S
N507 H512 0.984 . S
N507 H513 0.985 . S
C508 C502 1.379 . S
C508 C505 1.363 . S
C508 N506 1.356 1_556 S
C509 C503 1.363 . S
C509 C504 1.379 . S
C509 N507 1.356 . S
N510 C502 1.356 . S
N510 H516 0.984 1_556 S
N510 H517 0.984 . S
N511 C504 1.356 . S
N511 H514 0.984 . S
N511 H515 0.985 . S
H512 N507 0.984 . S
H513 N507 0.985 . S
H514 N511 0.984 . S
H515 N511 0.985 . S
H516 N510 0.984 1_554 S
H517 N510 0.984 . S
H518 N506 0.984 . S
H519 N506 0.985 . S
C520 C521 1.363 . S
C520 C526 1.379 . S
C520 N528 1.356 . S
C521 C520 1.363 . S
C521 C527 1.363 . S
C522 C523 1.363 . S
C522 C527 1.379 . S
C522 N529 1.356 . S
C523 C522 1.363 . S
C523 C526 1.363 . S
N524 C526 1.356 . S
N524 H536 0.984 . S
N524 H537 0.985 . S
N525 C527 1.356 . S
N525 H530 0.984 . S
N525 H531 0.985 . S
C526 C520 1.379 . S
C526 C523 1.363 . S
C526 N524 1.356 . S
C527 C521 1.363 . S
C527 C522 1.379 . S
C527 N525 1.356 . S
N528 C520 1.356 . S
N528 H534 0.984 . S
N528 H535 0.984 . S
N529 C522 1.356 . S
N529 H532 0.984 . S
N529 H533 0.985 1_655 S
H530 N525 0.984 . S
H531 N525 0.985 . S
H532 N529 0.984 . S
H533 N529 0.985 1_455 S
H534 N528 0.984 . S
H535 N528 0.984 . S
H536 N524 0.984 . S
H537 N524 0.985 . S
C538 C539 1.363 . S
C538 C544 1.379 . S
C538 N546 1.356 . S
C539 C538 1.363 . S
C539 C545 1.363 . S
C540 C541 1.363 . S
C540 C545 1.379 . S
C540 N547 1.356 . S
C541 C540 1.363 . S
C541 C544 1.363 . S
N542 C544 1.356 . S
N542 H554 0.984 . S
N542 H555 0.985 . S
N543 C545 1.356 . S
N543 H548 0.984 . S
N543 H549 0.985 . S
C544 C538 1.379 . S
C544 C541 1.363 . S
C544 N542 1.356 . S
C545 C539 1.363 . S
C545 C540 1.379 . S
C545 N543 1.356 . S
N546 C538 1.356 . S
N546 H552 0.984 . S
N546 H553 0.984 . S
N547 C540 1.356 . S
N547 H550 0.984 . S
N547 H551 0.985 . S
H548 N543 0.984 . S
H549 N543 0.985 . S
H550 N547 0.984 . S
H551 N547 0.985 . S
H552 N546 0.984 . S
H553 N546 0.984 . S
H554 N542 0.984 . S
H555 N542 0.985 . S
C556 C557 1.363 . S
C556 C562 1.379 . S
C556 N564 1.356 . S
C557 C556 1.363 . S
C557 C563 1.363 . S
C558 C559 1.363 . S
C558 C563 1.379 . S
C558 N565 1.356 1_565 S
C559 C558 1.363 . S
C559 C562 1.363 . S
N560 C562 1.356 . S
N560 H572 0.984 . S
N560 H573 0.985 . S
N561 C563 1.355 1_545 S
N561 H566 0.983 1_545 S
N561 H567 0.987 . S
C562 C556 1.379 . S
C562 C559 1.363 . S
C562 N560 1.356 . S
C563 C557 1.363 . S
C563 C558 1.379 . S
C563 N561 1.355 1_565 S
N564 C556 1.356 . S
N564 H570 0.984 . S
N564 H571 0.984 . S
N565 C558 1.356 1_545 S
N565 H568 0.984 1_655 S
N565 H569 0.985 1_655 S
H566 N561 0.983 1_565 S
H567 N561 0.987 . S
H568 N565 0.984 1_455 S
H569 N565 0.985 1_455 S
H570 N564 0.984 . S
H571 N564 0.984 . S
H572 N560 0.984 . S
H573 N560 0.985 . S
C574 C575 1.363 . S
C574 C580 1.379 . S
C574 N582 1.356 . S
C575 C574 1.363 . S
C575 C581 1.363 . S
C576 C577 1.363 . S
C576 C581 1.379 . S
C576 N583 1.356 . S
C577 C576 1.363 . S
C577 C580 1.363 . S
N578 C580 1.356 . S
N578 H590 0.984 . S
N578 H591 0.985 . S
N579 C581 1.356 . S
N579 H584 0.984 . S
N579 H585 0.985 . S
C580 C574 1.379 . S
C580 C577 1.363 . S
C580 N578 1.356 . S
C581 C575 1.363 . S
C581 C576 1.379 . S
C581 N579 1.356 . S
N582 C574 1.356 . S
N582 H588 0.984 . S
N582 H589 0.984 . S
N583 C576 1.356 . S
N583 H586 0.984 . S
N583 H587 0.983 . S
H584 N579 0.984 . S
H585 N579 0.985 . S
H586 N583 0.984 . S
H587 N583 0.983 . S
H588 N582 0.984 . S
H589 N582 0.984 . S
H590 N578 0.984 . S
H591 N578 0.985 . S
C592 C593 1.363 . S
C592 C598 1.379 . S
C592 N600 1.356 . S
C593 C592 1.363 . S
C593 C599 1.363 . S
C594 C595 1.363 . S
C594 C599 1.379 . S
C594 N601 1.356 . S
C595 C594 1.363 . S
C595 C598 1.363 . S
N596 C598 1.356 . S
N596 H608 0.984 . S
N596 H609 0.985 . S
N597 C599 1.356 . S
N597 H602 0.984 . S
N597 H603 0.985 . S
C598 C592 1.379 . S
C598 C595 1.363 . S
C598 N596 1.356 . S
C599 C593 1.363 . S
C599 C594 1.379 . S
C599 N597 1.356 . S
N600 C592 1.356 . S
N600 H606 0.984 . S
N600 H607 0.984 . S
N601 C594 1.356 . S
N601 H604 0.984 . S
N601 H605 0.985 . S
H602 N597 0.984 . S
H603 N597 0.985 . S
H604 N601 0.984 . S
H605 N601 0.985 . S
H606 N600 0.984 . S
H607 N600 0.984 . S
H608 N596 0.984 . S
H609 N596 0.985 . S
C610 C611 1.363 . S
C610 C616 1.379 . S
C610 N618 1.356 . S
C611 C610 1.363 . S
C611 C617 1.363 . S
C612 C613 1.363 . S
C612 C617 1.379 . S
C612 N619 1.356 . S
C613 C612 1.363 . S
C613 C616 1.363 . S
N614 C616 1.356 . S
N614 H626 0.984 . S
N614 H627 0.985 . S
N615 C617 1.356 . S
N615 H620 0.984 . S
N615 H621 0.985 1_455 S
C616 C610 1.379 . S
C616 C613 1.363 . S
C616 N614 1.356 . S
C617 C611 1.363 . S
C617 C612 1.379 . S
C617 N615 1.356 . S
N618 C610 1.356 . S
N618 H624 0.984 . S
N618 H625 0.984 . S
N619 C612 1.356 . S
N619 H622 0.984 . S
N619 H623 0.985 1_455 S
H620 N615 0.984 . S
H621 N615 0.985 1_655 S
H622 N619 0.984 . S
H623 N619 0.985 1_655 S
H624 N618 0.984 . S
H625 N618 0.984 . S
H626 N614 0.984 . S
H627 N614 0.985 . S
C628 C629 1.363 . S
C628 C634 1.379 . S
C628 N636 1.356 . S
C629 C628 1.363 . S
C629 C635 1.363 . S
C630 C631 1.363 . S
C630 C635 1.379 . S
C630 N637 1.356 1_565 S
C631 C630 1.363 . S
C631 C634 1.363 . S
N632 C634 1.356 . S
N632 H644 0.984 1_556 S
N632 H645 0.985 . S
N633 C635 1.362 . S
N633 H638 0.994 . S
N633 H639 0.969 1_565 S
C634 C628 1.379 . S
C634 C631 1.363 . S
C634 N632 1.356 . S
C635 C629 1.363 . S
C635 C630 1.379 . S
C635 N633 1.362 . S
N636 C628 1.356 . S
N636 H642 0.984 . S
N636 H643 0.984 . S
N637 C630 1.356 1_545 S
N637 H640 0.984 . S
N637 H641 0.985 . S
H638 N633 0.994 . S
H639 N633 0.969 1_545 S
H640 N637 0.984 . S
H641 N637 0.985 . S
H642 N636 0.984 . S
H643 N636 0.984 . S
H644 N632 0.984 1_554 S
H645 N632 0.985 . S
C646 C647 1.363 . S
C646 C652 1.379 . S
C646 N654 1.356 . S
C647 C646 1.363 . S
C647 C653 1.363 . S
C648 C649 1.363 . S
C648 C653 1.379 . S
C648 N655 1.356 . S
C649 C648 1.363 . S
C649 C652 1.363 . S
N650 C652 1.356 . S
N650 H662 0.984 1_545 S
N650 H663 0.985 . S
N651 C653 1.356 . S
N651 H656 0.984 . S
N651 H657 0.985 . S
C652 C646 1.379 . S
C652 C649 1.363 . S
C652 N650 1.356 . S
C653 C647 1.363 . S
C653 C648 1.379 . S
C653 N651 1.356 . S
N654 C646 1.356 . S
N654 H660 0.984 . S
N654 H661 0.984 . S
N655 C648 1.356 . S
N655 H658 0.984 . S
N655 H659 0.985 . S
H656 N651 0.984 . S
H657 N651 0.985 . S
H658 N655 0.984 . S
H659 N655 0.985 . S
H660 N654 0.984 . S
H661 N654 0.984 . S
H662 N650 0.984 1_565 S
H663 N650 0.985 . S
C664 C665 1.363 . S
C664 C670 1.379 . S
C664 N672 1.356 . S
C665 C664 1.363 . S
C665 C671 1.363 . S
C666 C667 1.363 . S
C666 C671 1.379 . S
C666 N673 1.356 . S
C667 C666 1.363 . S
C667 C670 1.363 . S
N668 C670 1.356 . S
N668 H680 0.984 . S
N668 H681 0.985 . S
N669 C671 1.356 . S
N669 H674 0.984 . S
N669 H675 0.985 . S
C670 C664 1.379 . S
C670 C667 1.363 . S
C670 N668 1.356 . S
C671 C665 1.363 . S
C671 C666 1.379 . S
C671 N669 1.356 . S
N672 C664 1.356 . S
N672 H678 0.984 . S
N672 H679 0.984 . S
N673 C666 1.356 . S
N673 H676 0.984 . S
N673 H677 0.985 . S
H674 N669 0.984 . S
H675 N669 0.985 . S
H676 N673 0.984 . S
H677 N673 0.985 . S
H678 N672 0.984 . S
H679 N672 0.984 . S
H680 N668 0.984 . S
H681 N668 0.985 . S
C682 C683 1.363 . S
C682 C688 1.379 . S
C682 N690 1.356 . S
C683 C682 1.363 . S
C683 C689 1.363 . S
C684 C685 1.363 . S
C684 C689 1.379 . S
C684 N691 1.356 . S
C685 C684 1.363 . S
C685 C688 1.363 . S
N686 C688 1.356 . S
N686 H698 0.984 . S
N686 H699 0.985 . S
N687 C689 1.356 . S
N687 H692 0.984 . S
N687 H693 0.985 . S
C688 C682 1.379 . S
C688 C685 1.363 . S
C688 N686 1.356 . S
C689 C683 1.363 . S
C689 C684 1.379 . S
C689 N687 1.356 . S
N690 C682 1.356 . S
N690 H696 0.984 . S
N690 H697 0.984 . S
N691 C684 1.356 . S
N691 H694 0.984 . S
N691 H695 0.985 . S
H692 N687 0.984 . S
H693 N687 0.985 . S
H694 N691 0.984 . S
H695 N691 0.985 . S
H696 N690 0.984 . S
H697 N690 0.984 . S
H698 N686 0.984 . S
H699 N686 0.985 . S
C700 C701 1.363 . S
C700 C706 1.379 . S
C700 N708 1.356 . S
C701 C700 1.363 . S
C701 C707 1.363 . S
C702 C703 1.363 . S
C702 C707 1.379 . S
C702 N709 1.356 1_556 S
C703 C702 1.363 . S
C703 C706 1.363 . S
N704 C706 1.356 . S
N704 H716 0.984 . S
N704 H717 0.985 . S
N705 C707 1.356 . S
N705 H710 0.984 . S
N705 H711 0.985 1_556 S
C706 C700 1.379 . S
C706 C703 1.363 . S
C706 N704 1.356 . S
C707 C701 1.363 . S
C707 C702 1.379 . S
C707 N705 1.356 . S
N708 C700 1.356 . S
N708 H714 0.984 . S
N708 H715 0.984 . S
N709 C702 1.356 1_554 S
N709 H712 0.984 . S
N709 H713 0.985 1_655 S
H710 N705 0.984 . S
H711 N705 0.985 1_554 S
H712 N709 0.984 . S
H713 N709 0.985 1_455 S
H714 N708 0.984 . S
H715 N708 0.984 . S
H716 N704 0.984 . S
H717 N704 0.985 . S
C718 C719 1.363 . S
C718 C724 1.379 . S
C718 N726 1.356 . S
C719 C718 1.363 . S
C719 C725 1.363 . S
C720 C721 1.363 . S
C720 C725 1.379 . S
C720 N727 1.356 . S
C721 C720 1.363 . S
C721 C724 1.363 . S
N722 C724 1.356 . S
N722 H734 0.984 . S
N722 H735 0.985 . S
N723 C725 1.356 . S
N723 H728 0.984 . S
N723 H729 0.985 . S
C724 C718 1.379 . S
C724 C721 1.363 . S
C724 N722 1.356 . S
C725 C719 1.363 . S
C725 C720 1.379 . S
C725 N723 1.356 . S
N726 C718 1.356 . S
N726 H732 0.984 . S
N726 H733 0.984 . S
N727 C720 1.356 . S
N727 H730 0.984 . S
N727 H731 0.985 . S
H728 N723 0.984 . S
H729 N723 0.985 . S
H730 N727 0.984 . S
H731 N727 0.985 . S
H732 N726 0.984 . S
H733 N726 0.984 . S
H734 N722 0.984 . S
H735 N722 0.985 . S
C736 C737 1.363 . S
C736 C742 1.379 . S
C736 N744 1.356 . S
C737 C736 1.363 . S
C737 C743 1.363 . S
C738 C739 1.363 . S
C738 C743 1.379 . S
C738 N745 1.356 . S
C739 C738 1.363 . S
C739 C742 1.363 . S
N740 C742 1.356 1_655 S
N740 H752 0.984 . S
N740 H753 0.985 . S
N741 C743 1.356 . S
N741 H746 0.984 . S
N741 H747 0.985 . S
C742 C736 1.379 . S
C742 C739 1.363 . S
C742 N740 1.356 1_455 S
C743 C737 1.363 . S
C743 C738 1.379 . S
C743 N741 1.356 . S
N744 C736 1.356 . S
N744 H750 0.984 1_455 S
N744 H751 0.984 . S
N745 C738 1.356 . S
N745 H748 0.984 . S
N745 H749 0.985 . S
H746 N741 0.984 . S
H747 N741 0.985 . S
H748 N745 0.984 . S
H749 N745 0.985 . S
H750 N744 0.984 1_655 S
H751 N744 0.984 . S
H752 N740 0.984 . S
H753 N740 0.985 . S
C754 C755 1.363 . S
C754 C760 1.379 . S
C754 N762 1.356 . S
C755 C754 1.363 . S
C755 C761 1.363 . S
C756 C757 1.363 . S
C756 C761 1.379 . S
C756 N763 1.356 . S
C757 C756 1.363 . S
C757 C760 1.363 . S
N758 C760 1.356 . S
N758 H770 0.984 . S
N758 H771 0.985 . S
N759 C761 1.356 . S
N759 H764 0.984 . S
N759 H765 0.985 . S
C760 C754 1.379 . S
C760 C757 1.363 . S
C760 N758 1.356 . S
C761 C755 1.363 . S
C761 C756 1.379 . S
C761 N759 1.356 . S
N762 C754 1.356 . S
N762 H768 0.984 . S
N762 H769 0.984 . S
N763 C756 1.356 . S
N763 H766 0.984 . S
N763 H767 0.985 . S
H764 N759 0.984 . S
H765 N759 0.985 . S
H766 N763 0.984 . S
H767 N763 0.985 . S
H768 N762 0.984 . S
H769 N762 0.984 . S
H770 N758 0.984 . S
H771 N758 0.985 . S
C341 C29 1.537 . S
C343 C272 1.561 . S
C359 C49 1.476 . S
C361 C294 1.428 . S
C379 C313 1.236 . S
C377 C93 1.446 . S
C395 C119 1.628 . S
C397 C334 1.376 . S
C415 C291 1.694 . S
C413 C17 1.661 . S
C433 C269 1.662 . S
C431 C61 1.732 . S
C451 C336 1.347 . S
C449 C81 1.358 . S
C469 C315 1.500 . S
C467 C125 1.437 . S
C485 C23 1.587 . S
C487 C333 1.613 . S
C505 C292 1.270 . S
C503 C87 1.513 . S
C521 C113 1.575 . S
C523 C274 1.543 . S
C539 C55 1.544 . S
C541 C312 1.532 . S
C559 C270 1.513 . S
C557 C157 1.594 . S
C575 C189 1.311 . S
C577 C290 1.338 . S
C593 C221 1.539 . S
C595 C316 1.269 . S
C611 C253 1.594 . S
C613 C337 1.349 . S
C629 C145 1.711 . S
C631 C293 1.677 . S
C649 C273 1.629 . S
C647 C183 1.607 . S
C667 C332 1.286 . S
C665 C209 1.341 . S
C685 C311 1.509 . S
C683 C247 1.463 . S
C701 C151 1.543 . S
C703 C335 1.513 . S
C721 C295 1.238 . S
C719 C215 1.540 . S
C739 C271 1.415 . S
C737 C241 1.449 . S
C755 C177 1.421 . S
C757 C314 1.477 . S
