# Generated by pormake.
# Topology zzz, (3,6)-cn, num edge types: 1
# Building blocks:
#     Node 0, Type 0, BuildingBlock: VETTIZ_charged_linker_0, # of connection points: 3
#     Node 1, Type 0, BuildingBlock: VETTIZ_charged_linker_0, # of connection points: 3
#     Node 2, Type 0, BuildingBlock: VETTIZ_charged_linker_0, # of connection points: 3
#     Node 3, Type 0, BuildingBlock: VETTIZ_charged_linker_0, # of connection points: 3
#     Node 4, Type 0, BuildingBlock: VETTIZ_charged_linker_0, # of connection points: 3
#     Node 5, Type 0, BuildingBlock: VETTIZ_charged_linker_0, # of connection points: 3
#     Node 6, Type 0, BuildingBlock: VETTIZ_charged_linker_0, # of connection points: 3
#     Node 7, Type 0, BuildingBlock: VETTIZ_charged_linker_0, # of connection points: 3
#     Node 8, Type 1, BuildingBlock: FUNLAD_clean_sbu_0, # of connection points: 6
#     Node 9, Type 1, BuildingBlock: FUNLAD_clean_sbu_0, # of connection points: 6
#     Node 10, Type 1, BuildingBlock: FUNLAD_clean_sbu_0, # of connection points: 6
#     Node 11, Type 1, BuildingBlock: FUNLAD_clean_sbu_0, # of connection points: 6
#     Edge 12, Type (0, 1), BuildingBlock: OJICUG_clean_linker_0, # of connection points: 2
#     Edge 13, Type (0, 1), BuildingBlock: OJICUG_clean_linker_0, # of connection points: 2
#     Edge 14, Type (0, 1), BuildingBlock: OJICUG_clean_linker_0, # of connection points: 2
#     Edge 15, Type (0, 1), BuildingBlock: OJICUG_clean_linker_0, # of connection points: 2
#     Edge 16, Type (0, 1), BuildingBlock: OJICUG_clean_linker_0, # of connection points: 2
#     Edge 17, Type (0, 1), BuildingBlock: OJICUG_clean_linker_0, # of connection points: 2
#     Edge 18, Type (0, 1), BuildingBlock: OJICUG_clean_linker_0, # of connection points: 2
#     Edge 19, Type (0, 1), BuildingBlock: OJICUG_clean_linker_0, # of connection points: 2
#     Edge 20, Type (0, 1), BuildingBlock: OJICUG_clean_linker_0, # of connection points: 2
#     Edge 21, Type (0, 1), BuildingBlock: OJICUG_clean_linker_0, # of connection points: 2
#     Edge 22, Type (0, 1), BuildingBlock: OJICUG_clean_linker_0, # of connection points: 2
#     Edge 23, Type (0, 1), BuildingBlock: OJICUG_clean_linker_0, # of connection points: 2
#     Edge 24, Type (0, 1), BuildingBlock: OJICUG_clean_linker_0, # of connection points: 2
#     Edge 25, Type (0, 1), BuildingBlock: OJICUG_clean_linker_0, # of connection points: 2
#     Edge 26, Type (0, 1), BuildingBlock: OJICUG_clean_linker_0, # of connection points: 2
#     Edge 27, Type (0, 1), BuildingBlock: OJICUG_clean_linker_0, # of connection points: 2
#     Edge 28, Type (0, 1), BuildingBlock: OJICUG_clean_linker_0, # of connection points: 2
#     Edge 29, Type (0, 1), BuildingBlock: OJICUG_clean_linker_0, # of connection points: 2
#     Edge 30, Type (0, 1), BuildingBlock: OJICUG_clean_linker_0, # of connection points: 2
#     Edge 31, Type (0, 1), BuildingBlock: OJICUG_clean_linker_0, # of connection points: 2
#     Edge 32, Type (0, 1), BuildingBlock: OJICUG_clean_linker_0, # of connection points: 2
#     Edge 33, Type (0, 1), BuildingBlock: OJICUG_clean_linker_0, # of connection points: 2
#     Edge 34, Type (0, 1), BuildingBlock: OJICUG_clean_linker_0, # of connection points: 2
#     Edge 35, Type (0, 1), BuildingBlock: OJICUG_clean_linker_0, # of connection points: 2
# Relax obj value: 0.274
# Max RMSD: 0.240
# Mean RMSD: 0.196
data_MOF--net-zzz--node1-FUNLAD_clean_sbu_0--node2-VETTIZ_charged_linker_0--edge1-OJICUG_clean_linker_0
_symmetry_space_group_name_H-M    P1
_symmetry_Int_Tables_number       1
_symmetry_cell_setting            triclinic
loop_
_symmetry_equiv_pos_as_xyz
'x, y, z'
_cell_length_a     44.20748
_cell_length_b     49.935341
_cell_length_c     17.682052
_cell_angle_alpha  85.711998
_cell_angle_beta   84.640369
_cell_angle_gamma 92.45751
loop_
_atom_site_label
_atom_site_type_symbol
_atom_site_fract_x
_atom_site_fract_y
_atom_site_fract_z
_atom_type_partial_charge
C0 C 0.84467 0.4784 0.47421 0.0
C1 C 0.8672 0.46638 0.51537 0.0
C2 C 0.8756 0.4402 0.50066 0.0
C3 C 0.84601 0.44144 0.3934 0.0
C4 C 0.83349 0.46482 0.41463 0.0
C5 C 0.80769 0.47185 0.367 0.0
H6 H 0.73589 0.44617 0.05125 0.0
C7 C 0.83451 0.43435 0.3226 0.0
C8 C 0.81053 0.45089 0.30808 0.0
H9 H 0.70763 0.50003 0.22104 0.0
H10 H 0.75132 0.48899 0.29026 0.0
H11 H 0.79846 0.46631 0.02981 0.0
H12 H 0.75865 0.3964 0.15804 0.0
H13 H 0.79268 0.38806 0.10564 0.0
H14 H 0.76315 0.40317 0.05617 0.0
H15 H 0.80291 0.43426 0.99358 0.0
H16 H 0.83094 0.4488 0.04864 0.0
C17 C 0.81363 0.50078 0.32987 0.0
C18 C 0.77751 0.46768 0.41911 0.0
C19 C 0.91074 0.40002 0.12942 0.0
C20 C 0.91075 0.40097 0.04979 0.0
C21 C 0.8826 0.39963 0.01841 0.0
C22 C 0.85537 0.4017 0.0645 0.0
C23 C 0.85652 0.40614 0.14165 0.0
C24 C 0.88357 0.40361 0.17416 0.0
C25 C 0.88091 0.41014 0.2562 0.0
C26 C 0.84835 0.41955 0.26465 0.0
C27 C 0.83457 0.41761 0.1969 0.0
C28 C 0.90471 0.43306 0.26581 0.0
C29 C 0.88528 0.3842 0.30717 0.0
C30 C 0.73884 0.4552 0.10411 0.0
C31 C 0.7181 0.47339 0.132 0.0
C32 C 0.72324 0.48566 0.19926 0.0
C33 C 0.74832 0.47904 0.23957 0.0
C34 C 0.76855 0.46024 0.21156 0.0
C35 C 0.76386 0.44916 0.14394 0.0
C36 C 0.78897 0.4317 0.11801 0.0
C37 C 0.80777 0.43152 0.18553 0.0
C38 C 0.79599 0.44848 0.24011 0.0
C39 C 0.80623 0.44577 0.04378 0.0
C40 C 0.77524 0.40327 0.10847 0.0
H41 H 0.87109 0.4075 0.43095 0.0
H42 H 0.83657 0.49785 0.48724 0.0
H43 H 0.77834 0.45026 0.46182 0.0
H44 H 0.75788 0.46284 0.38748 0.0
H45 H 0.77289 0.48571 0.45072 0.0
H46 H 0.83712 0.50342 0.30088 0.0
H47 H 0.81116 0.51565 0.37346 0.0
H48 H 0.79802 0.50573 0.28628 0.0
H49 H 0.93202 0.39978 0.15508 0.0
H50 H 0.88167 0.39971 0.95741 0.0
H51 H 0.83468 0.40168 0.03746 0.0
H52 H 0.90177 0.45087 0.22597 0.0
H53 H 0.92824 0.42646 0.25443 0.0
H54 H 0.90312 0.43969 0.32405 0.0
H55 H 0.89433 0.3678 0.27369 0.0
H56 H 0.86343 0.37617 0.33858 0.0
H57 H 0.90202 0.38774 0.34886 0.0
H58 H 0.89198 0.43012 0.53321 0.0
C59 C 0.86461 0.42749 0.44042 0.0
C60 C 1.01035 0.84088 0.00327 0.0
C61 C 1.00669 0.86851 0.01026 0.0
C62 C 0.98015 0.87664 0.05133 0.0
C63 C 0.96495 0.83043 0.08939 0.0
C64 C 0.98868 0.82219 0.04199 0.0
C65 C 0.98731 0.79213 0.0391 0.0
H66 H 0.95542 0.67104 0.20713 0.0
C67 C 0.94958 0.8068 0.13254 0.0
C68 C 0.96023 0.78423 0.09834 0.0
H69 H 0.95541 0.69209 0.96504 0.0
H70 H 0.9505 0.73917 0.99013 0.0
H71 H 0.99771 0.7265 0.25269 0.0
H72 H 0.89986 0.7148 0.24943 0.0
H73 H 0.91077 0.72521 0.33751 0.0
H74 H 0.92099 0.69296 0.30817 0.0
H75 H 0.97591 0.70233 0.31886 0.0
H76 H 0.97764 0.73759 0.33447 0.0
C77 C 0.01697 0.78055 0.06393 0.0
C78 C 0.98217 0.78535 0.9574 0.0
C79 C 0.91706 0.82288 0.40484 0.0
C80 C 0.92511 0.80943 0.47157 0.0
C81 C 0.93223 0.78218 0.47086 0.0
C82 C 0.93323 0.76921 0.40257 0.0
C83 C 0.92917 0.78426 0.33403 0.0
C84 C 0.92197 0.81095 0.33623 0.0
C85 C 0.92738 0.82643 0.25978 0.0
C86 C 0.93735 0.80427 0.2101 0.0
C87 C 0.9373 0.77931 0.25327 0.0
C88 C 0.95281 0.84897 0.26268 0.0
C89 C 0.89692 0.83737 0.23839 0.0
C90 C 0.95604 0.68594 0.1592 0.0
C91 C 0.95744 0.67814 0.08375 0.0
C92 C 0.95593 0.69779 0.02287 0.0
C93 C 0.95481 0.72491 0.03598 0.0
C94 C 0.95677 0.73245 0.10965 0.0
C95 C 0.95456 0.71348 0.17089 0.0
C96 C 0.94835 0.72663 0.24525 0.0
C97 C 0.94562 0.756 0.21589 0.0
C98 C 0.95366 0.75879 0.13738 0.0
C99 C 0.97621 0.72304 0.2909 0.0
C100 C 0.9184 0.71426 0.28786 0.0
H101 H 0.93848 0.86445 0.11786 0.0
H102 H 0.02959 0.834 0.96885 0.0
H103 H 0.99598 0.79926 0.91422 0.0
H104 H 0.95789 0.78693 0.94688 0.0
H105 H 0.98975 0.76503 0.94619 0.0
H106 H 0.0211 0.78635 0.12176 0.0
H107 H 0.03679 0.78805 0.02348 0.0
H108 H 0.01569 0.75826 0.0654 0.0
H109 H 0.91277 0.84413 0.40352 0.0
H110 H 0.93907 0.77159 0.52172 0.0
H111 H 0.93948 0.74868 0.40451 0.0
H112 H 0.97485 0.84376 0.23341 0.0
H113 H 0.95807 0.85268 0.32125 0.0
H114 H 0.94626 0.86871 0.2381 0.0
H115 H 0.87833 0.82142 0.24908 0.0
H116 H 0.89788 0.84431 0.17732 0.0
H117 H 0.89053 0.85437 0.27276 0.0
H118 H 0.97548 0.89773 0.0527 0.0
C119 C 0.95895 0.85763 0.08966 0.0
C120 C 0.84733 0.00484 0.0769 0.0
C121 C 0.86241 0.01334 0.00409 0.0
C122 C 0.84867 0.03186 0.95618 0.0
C123 C 0.80512 0.03255 0.04932 0.0
C124 C 0.81846 0.01488 0.09854 0.0
C125 C 0.7979 0.00862 0.1725 0.0
H126 H 0.66427 0.03711 0.37861 0.0
C127 C 0.77571 0.03979 0.08621 0.0
C128 C 0.77133 0.02674 0.16015 0.0
H129 H 0.72541 0.97699 0.44762 0.0
H130 H 0.75946 0.98927 0.33098 0.0
H131 H 0.71509 0.08357 0.3075 0.0
H132 H 0.65648 0.02332 0.24149 0.0
H133 H 0.66845 0.03852 0.15049 0.0
H134 H 0.64817 0.05737 0.22067 0.0
H135 H 0.67471 0.08395 0.30268 0.0
H136 H 0.70123 0.097 0.22319 0.0
C137 C 0.81509 0.01646 0.24005 0.0
C138 C 0.78765 0.97858 0.17818 0.0
C139 C 0.69625 0.0778 0.92931 0.0
C140 C 0.66575 0.08274 0.95175 0.0
C141 C 0.65781 0.08987 0.02614 0.0
C142 C 0.67853 0.08704 0.08101 0.0
C143 C 0.70682 0.07643 0.06095 0.0
C144 C 0.71653 0.07459 0.98528 0.0
C145 C 0.74829 0.06472 0.97523 0.0
C146 C 0.75319 0.05615 0.05779 0.0
C147 C 0.72845 0.06257 0.10701 0.0
C148 C 0.76999 0.08886 0.94144 0.0
C149 C 0.74841 0.04055 0.92502 0.0
C150 C 0.68516 0.02667 0.36958 0.0
C151 C 0.69227 0.00638 0.42282 0.0
C152 C 0.71933 0.99278 0.4073 0.0
C153 C 0.73897 0.99989 0.33966 0.0
C154 C 0.73099 0.02028 0.28634 0.0
C155 C 0.70412 0.03289 0.30252 0.0
C156 C 0.69679 0.05236 0.2396 0.0
C157 C 0.72382 0.04996 0.18192 0.0
C158 C 0.74446 0.03147 0.20876 0.0
C159 C 0.69669 0.08077 0.2695 0.0
C160 C 0.666 0.04265 0.21145 0.0
H161 H 0.81139 0.05562 0.93918 0.0
H162 H 0.85754 0.9907 0.11509 0.0
H163 H 0.77967 0.97295 0.1234 0.0
H164 H 0.76848 0.97354 0.2221 0.0
H165 H 0.80678 0.9658 0.19111 0.0
H166 H 0.82474 0.03748 0.22958 0.0
H167 H 0.83412 0.00303 0.2482 0.0
H168 H 0.80006 0.01536 0.29378 0.0
H169 H 0.70289 0.07314 0.87146 0.0
H170 H 0.63461 0.0944 0.04414 0.0
H171 H 0.6709 0.09113 0.13803 0.0
H172 H 0.7585 0.10827 0.93945 0.0
H173 H 0.77924 0.08609 0.88208 0.0
H174 H 0.78924 0.09195 0.97647 0.0
H175 H 0.72938 0.02576 0.94585 0.0
H176 H 0.76946 0.02952 0.92523 0.0
H177 H 0.74579 0.04728 0.8648 0.0
H178 H 0.85993 0.03883 0.90064 0.0
C179 C 0.82048 0.04165 0.97862 0.0
C180 C 0.57523 0.664 0.42936 0.0
C181 C 0.58369 0.63698 0.44023 0.0
C182 C 0.5934 0.62336 0.3761 0.0
C183 C 0.57663 0.65917 0.29429 0.0
C184 C 0.57323 0.67517 0.35425 0.0
C185 C 0.56719 0.70373 0.32532 0.0
H186 H 0.52095 0.78154 0.02421 0.0
C187 C 0.56494 0.67288 0.22807 0.0
C188 C 0.56057 0.69972 0.24323 0.0
H189 H 0.55982 0.81104 0.21948 0.0
H190 H 0.56263 0.7649 0.27353 0.0
H191 H 0.56292 0.73364 0.99179 0.0
H192 H 0.47672 0.73844 0.12204 0.0
H193 H 0.47737 0.70502 0.09743 0.0
H194 H 0.47895 0.73218 0.02339 0.0
H195 H 0.52804 0.74228 0.95336 0.0
H196 H 0.53734 0.70786 0.96891 0.0
C197 C 0.59676 0.72116 0.32805 0.0
C198 C 0.53964 0.71403 0.37254 0.0
C199 C 0.5155 0.61259 0.0526 0.0
C200 C 0.49501 0.617 0.99732 0.0
C201 C 0.48719 0.6436 0.97812 0.0
C202 C 0.49967 0.66523 0.01341 0.0
C203 C 0.51983 0.66022 0.06929 0.0
C204 C 0.52702 0.63417 0.08863 0.0
C205 C 0.54736 0.63209 0.15195 0.0
C206 C 0.55103 0.66152 0.16812 0.0
C207 C 0.53511 0.67779 0.11929 0.0
C208 C 0.57788 0.6205 0.12207 0.0
C209 C 0.52983 0.61452 0.21937 0.0
C210 C 0.52994 0.77839 0.07885 0.0
C211 C 0.54043 0.80021 0.1168 0.0
C212 C 0.55221 0.7947 0.1878 0.0
C213 C 0.55418 0.76798 0.21877 0.0
C214 C 0.54473 0.74652 0.17791 0.0
C215 C 0.53225 0.75209 0.10992 0.0
C216 C 0.52241 0.72716 0.07458 0.0
C217 C 0.53445 0.70576 0.12729 0.0
C218 C 0.54699 0.7169 0.18903 0.0
C219 C 0.53834 0.72767 0.99261 0.0
C220 C 0.48711 0.72554 0.07899 0.0
H221 H 0.59632 0.62288 0.25586 0.0
H222 H 0.56921 0.67543 0.47772 0.0
H223 H 0.51957 0.69976 0.37347 0.0
H224 H 0.53323 0.73384 0.34859 0.0
H225 H 0.5447 0.71612 0.43225 0.0
H226 H 0.61715 0.70976 0.31189 0.0
H227 H 0.59869 0.72755 0.38634 0.0
H228 H 0.5985 0.73907 0.28727 0.0
H229 H 0.5231 0.59269 0.06703 0.0
H230 H 0.47151 0.64776 0.93573 0.0
H231 H 0.4933 0.68501 0.99552 0.0
H232 H 0.57983 0.61886 0.05942 0.0
H233 H 0.58047 0.60003 0.14916 0.0
H234 H 0.59773 0.63366 0.1323 0.0
H235 H 0.50855 0.62403 0.23947 0.0
H236 H 0.54302 0.61104 0.26854 0.0
H237 H 0.52353 0.59426 0.20202 0.0
H238 H 0.60082 0.60298 0.38268 0.0
C239 C 0.59008 0.63448 0.30292 0.0
C240 C 0.31177 0.51983 0.28058 0.0
C241 C 0.32453 0.52963 0.34415 0.0
C242 C 0.30968 0.54936 0.38416 0.0
C243 C 0.26942 0.54878 0.30097 0.0
C244 C 0.28427 0.53015 0.25912 0.0
C245 C 0.26745 0.52382 0.19111 0.0
H246 H 0.14687 0.55162 0.98629 0.0
C247 C 0.242 0.55613 0.2651 0.0
C248 C 0.24105 0.54257 0.19837 0.0
H249 H 0.21113 0.49059 0.94395 0.0
H250 H 0.23862 0.50416 0.0499 0.0
H251 H 0.13086 0.53863 0.13087 0.0
H252 H 0.19419 0.5994 0.03302 0.0
H253 H 0.17388 0.61253 0.11148 0.0
H254 H 0.15338 0.59884 0.03832 0.0
H255 H 0.12147 0.57264 0.13702 0.0
H256 H 0.1376 0.55406 0.21395 0.0
C257 C 0.25628 0.49393 0.2018 0.0
C258 C 0.28874 0.53103 0.11755 0.0
C259 C 0.15454 0.59433 0.41699 0.0
C260 C 0.12504 0.59912 0.39708 0.0
C261 C 0.12077 0.60542 0.32 0.0
C262 C 0.14419 0.60226 0.26305 0.0
C263 C 0.1716 0.59213 0.28383 0.0
C264 C 0.17761 0.59077 0.3591 0.0
C265 C 0.2091 0.58139 0.36876 0.0
C266 C 0.21814 0.57258 0.28919 0.0
C267 C 0.19573 0.57854 0.24057 0.0
C268 C 0.20703 0.5575 0.43051 0.0
C269 C 0.22916 0.60583 0.38791 0.0
C270 C 0.16731 0.5415 0.99831 0.0
C271 C 0.17722 0.52048 0.95573 0.0
C272 C 0.20316 0.50706 0.97573 0.0
C273 C 0.21895 0.51489 0.03729 0.0
C274 C 0.20807 0.53579 0.0804 0.0
C275 C 0.18238 0.54836 0.06039 0.0
C276 C 0.17132 0.56791 0.11541 0.0
C277 C 0.19503 0.56578 0.17172 0.0
C278 C 0.21698 0.54727 0.1511 0.0
C279 C 0.13874 0.55804 0.15119 0.0
C280 C 0.17302 0.59623 0.07259 0.0
H281 H 0.27225 0.57409 0.39507 0.0
H282 H 0.32313 0.505 0.2481 0.0
H283 H 0.29977 0.55142 0.11857 0.0
H284 H 0.27652 0.53146 0.06593 0.0
H285 H 0.30696 0.51645 0.1117 0.0
H286 H 0.24688 0.48843 0.2618 0.0
H287 H 0.27526 0.48067 0.18816 0.0
H288 H 0.23768 0.48928 0.16671 0.0
H289 H 0.15855 0.59016 0.47606 0.0
H290 H 0.09847 0.61012 0.30359 0.0
H291 H 0.13939 0.60595 0.20507 0.0
H292 H 0.18981 0.5419 0.41838 0.0
H293 H 0.20044 0.56428 0.48788 0.0
H294 H 0.22874 0.5476 0.43372 0.0
H295 H 0.21701 0.62489 0.38603 0.0
H296 H 0.24961 0.60966 0.34633 0.0
H297 H 0.23662 0.60284 0.44611 0.0
H298 H 0.31926 0.55726 0.43267 0.0
C299 C 0.2824 0.55905 0.36263 0.0
C300 C 0.05351 0.1534 0.48241 0.0
C301 C 0.05937 0.1261 0.47607 0.0
C302 C 0.08835 0.11938 0.44421 0.0
C303 C 0.10089 0.16601 0.4065 0.0
C304 C 0.07512 0.17307 0.44863 0.0
C305 C 0.07347 0.20307 0.44749 0.0
H306 H 0.08545 0.32076 0.26719 0.0
C307 C 0.11433 0.18976 0.36017 0.0
C308 C 0.10085 0.21196 0.39016 0.0
H309 H 0.09429 0.30553 0.50868 0.0
H310 H 0.10757 0.25938 0.48788 0.0
H311 H 0.14818 0.28044 0.20835 0.0
H312 H 0.05125 0.25785 0.24289 0.0
H313 H 0.06963 0.2505 0.15405 0.0
H314 H 0.06529 0.28491 0.17393 0.0
H315 H 0.12128 0.30024 0.16131 0.0
H316 H 0.13132 0.26845 0.12806 0.0
C317 C 0.07653 0.21178 0.52834 0.0
C318 C 0.04324 0.21189 0.41854 0.0
C319 C 0.14671 0.16952 0.09103 0.0
C320 C 0.13028 0.17543 0.02808 0.0
C321 C 0.11624 0.20047 0.02387 0.0
C322 C 0.11557 0.21701 0.0855 0.0
C323 C 0.12671 0.20741 0.15384 0.0
C324 C 0.14056 0.18308 0.15637 0.0
C325 C 0.13845 0.16947 0.23559 0.0
C326 C 0.12473 0.19128 0.28123 0.0
C327 C 0.11927 0.21416 0.23332 0.0
C328 C 0.17062 0.16363 0.25721 0.0
C329 C 0.11711 0.14352 0.23924 0.0
C330 C 0.08966 0.30739 0.31573 0.0
C331 C 0.08719 0.31619 0.3904 0.0
C332 C 0.09428 0.29869 0.45193 0.0
C333 C 0.10061 0.27213 0.44136 0.0
C334 C 0.09867 0.26296 0.36964 0.0
C335 C 0.09634 0.28034 0.30655 0.0
C336 C 0.10078 0.26553 0.23418 0.0
C337 C 0.10867 0.23759 0.26683 0.0
C338 C 0.10394 0.23653 0.34592 0.0
C339 C 0.12687 0.27942 0.17968 0.0
C340 C 0.07019 0.26464 0.1988 0.0
H341 H 0.13164 0.13406 0.38809 0.0
H342 H 0.03229 0.15928 0.51043 0.0
H343 H 0.04065 0.20475 0.36129 0.0
H344 H 0.04241 0.23414 0.41418 0.0
H345 H 0.02348 0.20372 0.45823 0.0
H346 H 0.06205 0.1984 0.57159 0.0
H347 H 0.06847 0.23227 0.53454 0.0
H348 H 0.10046 0.21097 0.54261 0.0
H349 H 0.15937 0.15154 0.09595 0.0
H350 H 0.10387 0.20652 0.97603 0.0
H351 H 0.10394 0.23536 0.08068 0.0
H352 H 0.186 0.182 0.24609 0.0
H353 H 0.18045 0.14764 0.22348 0.0
H354 H 0.1703 0.15701 0.31847 0.0
H355 H 0.11335 0.13654 0.18274 0.0
H356 H 0.09393 0.14676 0.2658 0.0
H357 H 0.12672 0.12609 0.26939 0.0
H358 H 0.09453 0.09862 0.4445 0.0
C359 C 0.1095 0.13945 0.41085 0.0
C360 C 0.3443 0.00973 0.04786 0.0
C361 C 0.3733 0.02366 0.03208 0.0
C362 C 0.38347 0.04052 0.08611 0.0
C363 C 0.34246 0.02259 0.17642 0.0
C364 C 0.32823 0.01095 0.12069 0.0
C365 C 0.29736 0.99832 0.15467 0.0
H366 H 0.20945 0.96725 0.49808 0.0
C367 C 0.32719 0.01292 0.25016 0.0
C368 C 0.2976 0.00376 0.23946 0.0
H369 H 0.17704 0.01652 0.31462 0.0
H370 H 0.22759 0.01641 0.24173 0.0
H371 H 0.25393 0.92828 0.39265 0.0
H372 H 0.26891 0.00165 0.50092 0.0
H373 H 0.29622 0.97837 0.52462 0.0
H374 H 0.25691 0.96985 0.5517 0.0
H375 H 0.2594 0.9279 0.49194 0.0
H376 H 0.29122 0.92841 0.41963 0.0
C377 C 0.29585 0.96792 0.14477 0.0
C378 C 0.27169 0.01219 0.11679 0.0
C379 C 0.40066 0.97374 0.42586 0.0
C380 C 0.39735 0.95432 0.48816 0.0
C381 C 0.36806 0.94296 0.51352 0.0
C382 C 0.34256 0.95131 0.4781 0.0
C383 C 0.3464 0.97138 0.41737 0.0
C384 C 0.37518 0.98176 0.3911 0.0
C385 C 0.37568 1.00034 0.32013 0.0
C386 C 0.34174 0.00089 0.31132 0.0
C387 C 0.32501 0.9835 0.36743 0.0
C388 C 0.39341 0.98668 0.25492 0.0
C389 C 0.39009 0.02834 0.33301 0.0
C390 C 0.21269 0.97711 0.44103 0.0
C391 C 0.18924 0.99152 0.41175 0.0
C392 C 0.19452 0.0047 0.3376 0.0
C393 C 0.22327 0.00426 0.29496 0.0
C394 C 0.24635 0.98973 0.32577 0.0
C395 C 0.24102 0.97695 0.39845 0.0
C396 C 0.26979 0.96757 0.42874 0.0
C397 C 0.29324 0.97958 0.36601 0.0
C398 C 0.27944 0.99018 0.30284 0.0
C399 C 0.26863 0.93643 0.43417 0.0
C400 C 0.27328 0.97985 0.50569 0.0
H401 H 0.37662 0.05217 0.20063 0.0
H402 H 0.33524 0.99759 0.00621 0.0
H403 H 0.27042 0.03336 0.13187 0.0
H404 H 0.24948 0.00126 0.13443 0.0
H405 H 0.27564 0.01226 0.05375 0.0
H406 H 0.31495 0.95805 0.17052 0.0
H407 H 0.29721 0.96415 0.08343 0.0
H408 H 0.27413 0.95836 0.17308 0.0
H409 H 0.42266 0.98323 0.40518 0.0
H410 H 0.36482 0.92782 0.56107 0.0
H411 H 0.32079 0.94216 0.49993 0.0
H412 H 0.38161 0.96734 0.24474 0.0
H413 H 0.41676 0.98242 0.26919 0.0
H414 H 0.39629 0.99929 0.2007 0.0
H415 H 0.40183 0.02816 0.38592 0.0
H416 H 0.3726 0.04361 0.33814 0.0
H417 H 0.40755 0.0355 0.2858 0.0
H418 H 0.40485 0.0522 0.07449 0.0
C419 C 0.36793 0.04012 0.15871 0.0
C420 C 0.47682 0.33301 0.01511 0.0
C421 C 0.46797 0.35993 0.00434 0.0
C422 C 0.4584 0.37352 0.06864 0.0
C423 C 0.476 0.338 0.14998 0.0
C424 C 0.47929 0.32195 0.09016 0.0
C425 C 0.48561 0.29345 0.11929 0.0
H426 H 0.52934 0.21614 0.42632 0.0
C427 C 0.48806 0.32447 0.21593 0.0
C428 C 0.49253 0.29762 0.20114 0.0
H429 H 0.49167 0.18609 0.23108 0.0
H430 H 0.49133 0.2321 0.17205 0.0
H431 H 0.57548 0.25788 0.32713 0.0
H432 H 0.48918 0.26597 0.45366 0.0
H433 H 0.51582 0.29101 0.47609 0.0
H434 H 0.52347 0.25629 0.49335 0.0
H435 H 0.57314 0.26573 0.4245 0.0
H436 H 0.57559 0.29183 0.3473 0.0
C437 C 0.51302 0.28316 0.07159 0.0
C438 C 0.45607 0.27594 0.11732 0.0
C439 C 0.53738 0.38538 0.38984 0.0
C440 C 0.55788 0.38118 0.44518 0.0
C441 C 0.56607 0.35468 0.4643 0.0
C442 C 0.5538 0.33293 0.42916 0.0
C443 C 0.53344 0.33772 0.37365 0.0
C444 C 0.52604 0.36369 0.35406 0.0
C445 C 0.5055 0.36553 0.29116 0.0
C446 C 0.50206 0.33605 0.27536 0.0
C447 C 0.51814 0.31998 0.32423 0.0
C448 C 0.52271 0.38313 0.22334 0.0
C449 C 0.47494 0.37693 0.32151 0.0
C450 C 0.52065 0.21952 0.37126 0.0
C451 C 0.50967 0.19782 0.33427 0.0
C452 C 0.49962 0.20271 0.26124 0.0
C453 C 0.4988 0.22929 0.22796 0.0
C454 C 0.50799 0.25096 0.26849 0.0
C455 C 0.51968 0.24567 0.33779 0.0
C456 C 0.53003 0.27071 0.37166 0.0
C457 C 0.5187 0.29196 0.31719 0.0
C458 C 0.50625 0.28061 0.25561 0.0
C459 C 0.56532 0.27166 0.36802 0.0
C460 C 0.51394 0.27111 0.45321 0.0
H461 H 0.45601 0.37411 0.18874 0.0
H462 H 0.48272 0.32156 0.96671 0.0
H463 H 0.43582 0.28684 0.13769 0.0
H464 H 0.45524 0.25731 0.155 0.0
H465 H 0.4532 0.27071 0.05834 0.0
H466 H 0.53303 0.29754 0.06979 0.0
H467 H 0.50769 0.28085 0.01219 0.0
H468 H 0.51964 0.26346 0.09584 0.0
H469 H 0.52952 0.40518 0.37542 0.0
H470 H 0.58179 0.3507 0.50671 0.0
H471 H 0.56039 0.31323 0.44707 0.0
H472 H 0.54406 0.37378 0.20302 0.0
H473 H 0.52884 0.40348 0.24036 0.0
H474 H 0.50935 0.38638 0.17438 0.0
H475 H 0.47324 0.37887 0.38402 0.0
H476 H 0.45516 0.36349 0.31237 0.0
H477 H 0.47197 0.39725 0.29387 0.0
H478 H 0.45067 0.3938 0.06225 0.0
C479 C 0.46221 0.36253 0.14163 0.0
C480 C 0.05019 0.95792 0.8234 0.0
N481 N 0.99727 0.94985 0.6445 0.0
C482 C 0.01504 0.92834 0.6399 0.0
C483 C 1.00303 0.90348 0.62332 0.0
C484 C 0.97259 0.90055 0.60688 0.0
C485 C 0.95507 0.92356 0.60852 0.0
C486 C 0.96776 0.94796 0.62876 0.0
Zn487 Zn 0.01634 0.98239 0.69125 0.0
C488 C 0.97611 0.99725 0.8296 0.0
N489 N 0.06039 0.04177 0.80974 0.0
C490 C 0.08986 0.04118 0.82585 0.0
C491 C 0.04435 0.06424 0.81829 0.0
C492 C 0.0579 0.08729 0.8436 0.0
C493 C 0.0881 0.08711 0.86156 0.0
C494 C 0.10414 0.06366 0.85253 0.0
Zn495 Zn 0.04045 0.00985 0.76269 0.0
O496 O 0.03439 0.95486 0.76818 0.0
C497 C 0.08038 0.99515 0.62335 0.0
O498 O 0.05774 0.98148 0.83954 0.0
H499 H 0.02095 0.06438 0.80514 0.0
H500 H 0.0385 0.93006 0.65219 0.0
H501 H 0.10235 0.0233 0.81767 0.0
O502 O 0.05618 0.98186 0.61254 0.0
O503 O 0.08058 0.00828 0.68251 0.0
H504 H 0.95388 0.9652 0.6333 0.0
O505 O 0.02266 0.03733 0.68679 0.0
O506 O 0.99905 0.01101 0.61454 0.0
O507 O 1.00019 0.01077 0.84062 0.0
O508 O 0.97633 0.9837 0.77117 0.0
C509 C 1.00683 0.03448 0.63147 0.0
H510 H 0.01767 0.88671 0.62525 0.0
H511 H 0.93177 0.92293 0.59454 0.0
H512 H 0.04462 0.10479 0.8513 0.0
H513 H 0.12746 0.06273 0.86628 0.0
C514 C 0.49879 0.97007 0.64695 0.0
N515 N 0.52178 0.05339 0.6232 0.0
C516 C 0.52442 0.05103 0.54662 0.0
C517 C 0.52056 0.07316 0.49549 0.0
C518 C 0.51415 0.09823 0.52297 0.0
C519 C 0.51158 0.1 0.60249 0.0
C520 C 0.51533 0.07731 0.65157 0.0
Zn521 Zn 0.52866 0.02033 0.69665 0.0
C522 C 0.47882 0.00925 0.82215 0.0
N523 N 0.54336 0.94879 0.83897 0.0
C524 C 0.54552 0.9243 0.81031 0.0
C525 C 0.54302 0.95117 0.91539 0.0
C526 C 0.54415 0.92834 0.96615 0.0
C527 C 0.54496 0.90283 0.9381 0.0
C528 C 0.546 0.90097 0.8591 0.0
Zn529 Zn 0.53672 0.98211 0.76609 0.0
O530 O 0.50408 0.99515 0.63056 0.0
C531 C 0.58651 0.99409 0.64041 0.0
O532 O 0.50955 0.95845 0.7039 0.0
H533 H 0.54096 0.97071 0.93738 0.0
H534 H 0.52967 0.03191 0.52489 0.0
H535 H 0.54594 0.92271 0.74958 0.0
O536 O 0.57015 0.01421 0.63104 0.0
O537 O 0.5776 0.97537 0.69185 0.0
H538 H 0.51339 0.07889 0.71248 0.0
O539 O 0.56398 0.00679 0.82668 0.0
O540 O 0.55377 0.04452 0.76379 0.0
O541 O 0.4957 0.98981 0.8372 0.0
O542 O 0.48724 0.02603 0.76544 0.0
C543 C 0.56786 0.03219 0.81409 0.0
H544 H 0.52242 0.07053 0.43505 0.0
H545 H 0.5073 0.11887 0.62692 0.0
H546 H 0.54311 0.93049 0.02683 0.0
H547 H 0.54674 0.88159 0.83545 0.0
C548 C 0.55697 0.4703 0.61861 0.0
N549 N 0.4697 0.50125 0.61767 0.0
C550 C 0.46065 0.47943 0.58198 0.0
C551 C 0.43856 0.48158 0.53002 0.0
C552 C 0.42584 0.50648 0.51414 0.0
C553 C 0.43535 0.52847 0.55285 0.0
C554 C 0.4573 0.52542 0.60432 0.0
Zn555 Zn 0.50427 0.49937 0.68894 0.0
C556 C 0.50118 0.44969 0.79312 0.0
N557 N 0.57965 0.49621 0.82705 0.0
C558 C 0.5942 0.47285 0.83502 0.0
C559 C 0.58638 0.5172 0.8686 0.0
C560 C 0.60796 0.5149 0.92171 0.0
C561 C 0.62302 0.49082 0.93198 0.0
C562 C 0.61613 0.46982 0.88657 0.0
Zn563 Zn 0.54518 0.49809 0.75573 0.0
O564 O 0.53025 0.47774 0.61019 0.0
C565 C 0.54852 0.54766 0.65162 0.0
O566 O 0.57011 0.47657 0.67601 0.0
H567 H 0.57455 0.53561 0.86176 0.0
H568 H 0.47086 0.4604 0.59295 0.0
H569 H 0.58851 0.45627 0.80208 0.0
O570 O 0.52376 0.53647 0.63569 0.0
O571 O 0.56397 0.53572 0.70006 0.0
H572 H 0.46465 0.54255 0.63311 0.0
O573 O 0.51898 0.51932 0.83494 0.0
O574 O 0.47951 0.52145 0.76798 0.0
O575 O 0.52614 0.46079 0.80803 0.0
O576 O 0.48534 0.46181 0.74585 0.0
C577 C 0.49255 0.52732 0.82594 0.0
H578 H 0.43199 0.46409 0.50151 0.0
H579 H 0.42575 0.54791 0.54396 0.0
H580 H 0.61219 0.53162 0.95554 0.0
H581 H 0.62753 0.45109 0.89058 0.0
C582 C 0.04406 0.53899 0.61967 0.0
N583 N 0.03945 0.45446 0.61743 0.0
C584 C 0.06833 0.45256 0.58463 0.0
C585 C 0.07515 0.43217 0.53624 0.0
C586 C 0.05192 0.41383 0.52027 0.0
C587 C 0.02216 0.41722 0.5524 0.0
C588 C 0.01656 0.43723 0.60195 0.0
Zn589 Zn 0.02828 0.48325 0.69171 0.0
C590 C 0.0777 0.49888 0.78446 0.0
N591 N 1.00161 0.54404 0.83973 0.0
C592 C 0.98614 0.56524 0.8137 0.0
C593 C 1.00832 0.54127 0.91347 0.0
C594 C 0.99935 0.56031 0.96421 0.0
C595 C 0.98314 0.58229 0.93889 0.0
C596 C 0.97666 0.58461 0.86239 0.0
Zn597 Zn 1.01388 0.5158 0.76574 0.0
O598 O 0.04632 0.51413 0.60996 0.0
C599 C 0.96467 0.50091 0.67255 0.0
O600 O 0.03076 0.54619 0.68111 0.0
H601 H 0.02057 0.5242 0.93308 0.0
H602 H 0.08623 0.46652 0.59712 0.0
H603 H 0.98114 0.56715 0.75489 0.0
O604 O 0.98535 0.48608 0.64767 0.0
O605 O 0.96961 0.51599 0.72523 0.0
H606 H 0.99378 0.43867 0.62879 0.0
O607 O 0.9978 0.48489 0.84926 0.0
O608 O 1.00927 0.45284 0.77449 0.0
O609 O 0.05779 0.51533 0.80407 0.0
O610 O 0.07166 0.4814 0.73841 0.0
C611 C 0.99787 0.46005 0.83794 0.0
H612 H 0.09854 0.43032 0.51386 0.0
H613 H 1.00321 0.40423 0.54072 0.0
H614 H 1.00478 0.55772 0.0227 0.0
H615 H 0.96482 0.60153 0.83983 0.0
C616 C 0.16266 0.00343 0.53573 0.0
C617 C 0.16078 0.99447 0.46258 0.0
H618 H 0.13905 0.01095 0.64306 0.0
C619 C 0.13204 0.98661 0.44158 0.0
H620 H 0.18449 0.00971 0.55353 0.0
C621 C 0.10594 0.98684 0.49362 0.0
C622 C 0.10793 0.99541 0.56737 0.0
H623 H 0.12989 0.97948 0.38587 0.0
H624 H 0.0842 0.9802 0.47614 0.0
C625 C 0.1366 0.00413 0.58712 0.0
C626 C 0.52676 0.15051 0.35176 0.0
C627 C 0.5077 0.17068 0.37532 0.0
H628 H 0.54439 0.11214 0.38027 0.0
C629 C 0.4893 0.16615 0.44461 0.0
H630 H 0.54149 0.15373 0.29905 0.0
C631 C 0.49056 0.14231 0.49078 0.0
C632 C 0.51073 0.12249 0.46962 0.0
H633 H 0.47442 0.18146 0.46402 0.0
H634 H 0.476 0.13968 0.54379 0.0
C635 C 0.52836 0.12669 0.39853 0.0
C636 C 0.35396 0.49576 0.41433 0.0
C637 C 0.35339 0.5204 0.37076 0.0
H638 H 0.37731 0.472 0.49449 0.0
C639 C 0.3784 0.53885 0.36751 0.0
H640 H 0.33461 0.48147 0.41889 0.0
C641 C 0.40271 0.53357 0.41065 0.0
C642 C 0.40243 0.50981 0.45888 0.0
H643 H 0.3783 0.55811 0.33493 0.0
H644 H 0.42118 0.54866 0.40858 0.0
C645 C 0.37833 0.49046 0.45791 0.0
C646 C 0.04997 0.3421 0.46347 0.0
C647 C 0.07515 0.34233 0.40896 0.0
H648 H 0.0238 0.36362 0.54286 0.0
C649 C 0.09111 0.36682 0.38474 0.0
H650 H 0.03744 0.32337 0.48347 0.0
C651 C 0.08293 0.39048 0.41822 0.0
C652 C 0.05878 0.38989 0.4767 0.0
H653 H 0.11082 0.36739 0.34324 0.0
H654 H 0.09605 0.409 0.39981 0.0
C655 C 0.04206 0.36539 0.4973 0.0
C656 C 0.91947 0.01648 0.99109 0.0
C657 C 0.89226 0.00373 0.97406 0.0
H658 H 0.96725 0.02453 0.95912 0.0
C659 C 0.89337 0.98704 0.91333 0.0
H660 H 0.91913 0.03006 0.03613 0.0
C661 C 0.92076 0.98407 0.86854 0.0
C662 C 0.94778 0.99798 0.88272 0.0
H663 H 0.87261 0.97753 0.89771 0.0
H664 H 0.92043 0.97178 0.82066 0.0
C665 C 0.94694 0.01359 0.94611 0.0
C666 C 0.56403 0.84731 0.08296 0.0
C667 C 0.5399 0.82816 0.07969 0.0
H668 H 0.58449 0.88615 0.04085 0.0
C669 C 0.51637 0.8351 0.03437 0.0
H670 H 0.58264 0.84274 0.11666 0.0
C671 C 0.51796 0.85949 0.98967 0.0
C672 C 0.54265 0.87801 0.99049 0.0
H673 H 0.49691 0.82138 0.03193 0.0
H674 H 0.49997 0.86381 0.95362 0.0
C675 C 0.56526 0.8721 0.03915 0.0
C676 C 0.68781 0.50478 0.05485 0.0
C677 C 0.69142 0.47907 0.08959 0.0
H678 H 0.66399 0.52865 0.9763 0.0
C679 C 0.67126 0.45782 0.07658 0.0
H680 H 0.70335 0.5214 0.06344 0.0
C681 C 0.64847 0.46193 0.02791 0.0
C682 C 0.64563 0.48731 0.98951 0.0
H683 H 0.67356 0.43782 0.10302 0.0
H684 H 0.63334 0.44499 0.01968 0.0
C685 C 0.66523 0.50886 0.00496 0.0
C686 C 0.98749 0.63708 0.07586 0.0
C687 C 0.96041 0.64994 0.06541 0.0
H688 H 0.01617 0.60551 0.04316 0.0
C689 C 0.93903 0.63812 0.02254 0.0
H690 H 1.00446 0.64608 0.10788 0.0
C691 C 0.94563 0.61503 0.9856 0.0
C692 C 0.97388 0.60342 0.99019 0.0
H693 H 0.918 0.64775 0.01371 0.0
H694 H 0.92917 0.60703 0.95039 0.0
C695 C 0.9942 0.61396 0.03848 0.0
C696 C 0.01909 0.1061 0.57563 0.0
C697 C 0.03632 0.10451 0.50545 0.0
H698 H 0.99348 0.08409 0.67028 0.0
C699 C 0.03372 0.08084 0.46747 0.0
H700 H 0.02027 0.12407 0.60614 0.0
C701 C 0.01811 0.05789 0.50431 0.0
C702 C 1.0052 0.05847 0.57954 0.0
H703 H 0.04586 0.07939 0.41191 0.0
H704 H 0.0199 0.03901 0.47811 0.0
C705 C 1.00335 0.08325 0.61207 0.0
C706 C 0.4535 0.95031 0.49145 0.0
C707 C 0.4241 0.9487 0.53044 0.0
H708 H 0.50098 0.95913 0.49884 0.0
C709 C 0.42108 0.94717 0.61052 0.0
H710 H 0.45668 0.95051 0.42992 0.0
C711 C 0.44667 0.95079 0.64986 0.0
C712 C 0.47532 0.95639 0.60947 0.0
H713 H 0.39889 0.94597 0.6425 0.0
H714 H 0.4436 0.95216 0.71098 0.0
C715 C 0.47892 0.95488 0.53061 0.0
C716 C 0.57052 0.43046 0.45036 0.0
C717 C 0.5679 0.40425 0.48683 0.0
H718 H 0.56858 0.47263 0.46479 0.0
C719 C 0.56983 0.40101 0.5659 0.0
H720 H 0.5704 0.43374 0.38915 0.0
C721 C 0.57053 0.42344 0.6084 0.0
C722 C 0.56864 0.44925 0.57261 0.0
H723 H 0.56786 0.38126 0.59618 0.0
H724 H 0.56905 0.42038 0.67001 0.0
C725 C 0.57003 0.45279 0.49319 0.0
C726 C 0.09721 0.59553 0.52839 0.0
C727 C 0.09869 0.58966 0.45167 0.0
H728 H 0.07768 0.58416 0.64265 0.0
C729 C 0.07834 0.56986 0.43 0.0
H730 H 0.1128 0.61056 0.54649 0.0
C731 C 0.05901 0.55446 0.48472 0.0
C732 C 0.05912 0.559 0.56183 0.0
H733 H 0.07926 0.56454 0.37156 0.0
H734 H 0.04517 0.53802 0.46719 0.0
C735 C 0.0772 0.58047 0.58316 0.0
C736 C 0.03462 0.91354 1.00063 0.0
C737 C 0.02834 0.88916 0.96864 0.0
H738 H 0.04802 0.95531 0.97826 0.0
C739 C 0.03894 0.88642 0.89246 0.0
H740 H 0.02753 0.91591 0.05997 0.0
C741 C 0.05135 0.90877 0.84641 0.0
C742 C 0.05292 0.93414 0.87569 0.0
H743 H 0.03472 0.8679 0.86612 0.0
H744 H 0.05617 0.90685 0.78586 0.0
C745 C 0.04691 0.93599 0.95428 0.0
C746 C 0.642 0.04437 0.89591 0.0
C747 C 0.64164 0.07172 0.90907 0.0
H748 H 0.61865 0.01054 0.85768 0.0
C749 C 0.61647 0.08639 0.89137 0.0
H750 H 0.66077 0.03242 0.91089 0.0
C751 C 0.59214 0.07376 0.85988 0.0
C752 C 0.59237 0.04617 0.8488 0.0
H753 H 0.61556 0.10739 0.90248 0.0
H754 H 0.573 0.08534 0.84569 0.0
C755 C 0.61758 0.03171 0.86681 0.0
C756 C 0.48191 0.59707 0.87745 0.0
C757 C 0.48432 0.59395 0.95635 0.0
H758 H 0.48133 0.57746 0.77396 0.0
C759 C 0.48118 0.56783 0.99337 0.0
H760 H 0.48425 0.61674 0.84675 0.0
C761 C 0.48059 0.54537 0.95111 0.0
C762 C 0.48148 0.54869 0.87172 0.0
H763 H 0.48164 0.56466 0.0545 0.0
H764 H 0.48167 0.52554 0.97985 0.0
C765 C 0.48016 0.57453 0.83556 0.0
C766 C 0.94457 0.40285 0.92604 0.0
C767 C 0.93876 0.4107 1.00058 0.0
H768 H 0.96865 0.41224 0.81545 0.0
C769 C 0.95673 0.43203 0.02356 0.0
H770 H 0.93127 0.38641 0.90678 0.0
C771 C 0.97781 0.44677 0.97158 0.0
C772 C 0.98165 0.44043 0.89558 0.0
H773 H 0.95276 0.43902 0.07999 0.0
H774 H 0.98972 0.46422 0.98981 0.0
C775 C 0.96605 0.41753 0.87394 0.0
C776 C 0.11151 0.15815 0.90702 0.0
C777 C 0.12272 0.15316 0.97867 0.0
H778 H 0.09147 0.14121 0.81363 0.0
C779 C 0.12361 0.12597 0.00744 0.0
H780 H 0.11049 0.17845 0.88176 0.0
C781 C 0.11368 0.10493 0.96738 0.0
C782 C 0.1016 0.11 0.8979 0.0
H783 H 0.13051 0.12029 0.06304 0.0
H784 H 0.11404 0.08454 0.99298 0.0
C785 C 0.10072 0.13679 0.86753 0.0
C786 C 0.40902 0.99352 0.96553 0.0
C787 C 0.39557 0.01851 0.96672 0.0
H788 H 0.44602 0.97109 0.92039 0.0
C789 C 0.40869 0.03998 0.91661 0.0
H790 H 0.39994 0.97682 0.00492 0.0
C791 C 0.43507 0.03675 0.86798 0.0
C792 C 0.44951 0.01214 0.8697 0.0
H793 H 0.39926 0.05964 0.91752 0.0
H794 H 0.44488 0.0539 0.83139 0.0
C795 C 0.43575 0.99041 0.91801 0.0
C796 C 0.45202 0.39317 0.90393 0.0
C797 C 0.47431 0.37655 0.93092 0.0
H798 H 0.44298 0.42938 0.83787 0.0
C799 C 0.50478 0.38197 0.90192 0.0
H800 H 0.42841 0.38967 0.92635 0.0
C801 C 0.51318 0.40509 0.8536 0.0
C802 C 0.49123 0.42297 0.83186 0.0
H803 H 0.52249 0.36987 0.92269 0.0
H804 H 0.53713 0.40973 0.83643 0.0
C805 C 0.46038 0.41604 0.85402 0.0
C806 C 0.14501 0.48608 0.89765 0.0
C807 C 0.15831 0.5123 0.89514 0.0
H808 H 0.10868 0.46098 0.86308 0.0
C809 C 0.14805 0.5324 0.84508 0.0
H810 H 0.15222 0.47029 0.93633 0.0
C811 C 0.12295 0.52728 0.80515 0.0
C812 C 0.10797 0.50176 0.81267 0.0
H813 H 0.15795 0.55274 0.8416 0.0
H814 H 0.11417 0.54371 0.77149 0.0
C815 C 0.12002 0.4808 0.85622 0.0
C816 C 0.91654 0.84426 0.56489 0.0
C817 C 0.93609 0.82679 0.52838 0.0
H818 H 0.91245 0.88044 0.62154 0.0
C819 C 0.96757 0.83197 0.52592 0.0
H820 H 0.89211 0.84096 0.56598 0.0
C821 C 0.9793 0.8554 0.55291 0.0
C822 C 0.95989 0.87401 0.58579 0.0
H823 H 0.98311 0.81932 0.49569 0.0
H824 H 1.00359 0.85951 0.54277 0.0
C825 C 0.92832 0.86736 0.59459 0.0
C826 C 0.65466 0.97515 0.50877 0.0
C827 C 0.67033 1.00041 0.49233 0.0
H828 H 0.6156 0.95299 0.56959 0.0
C829 C 0.66027 0.02203 0.53296 0.0
H830 H 0.6616 0.9582 0.47769 0.0
C831 C 0.63383 0.01927 0.5832 0.0
C832 C 0.61686 0.99466 0.59583 0.0
H833 H 0.67181 0.04172 0.52185 0.0
H834 H 0.62601 0.03682 0.61028 0.0
C835 C 0.6282 0.97223 0.56076 0.0
C836 C 0.54605 0.61514 0.54094 0.0
C837 C 0.57671 0.62038 0.51342 0.0
H838 H 0.51312 0.58764 0.60539 0.0
C839 C 0.59866 0.60369 0.54173 0.0
H840 H 0.52861 0.62731 0.51906 0.0
C841 C 0.58981 0.58095 0.59174 0.0
C842 C 0.55882 0.57423 0.61255 0.0
H843 H 0.6224 0.60704 0.5204 0.0
H844 H 0.60697 0.56756 0.60907 0.0
C845 C 0.53716 0.59214 0.58931 0.0
C846 C 0.88924 0.46934 0.63962 0.0
C847 C 0.8851 0.48124 0.56696 0.0
H848 H 0.91795 0.46688 0.73103 0.0
C849 C 0.90429 0.50339 0.53657 0.0
H850 H 0.87502 0.45202 0.66374 0.0
C851 C 0.92908 0.51164 0.57466 0.0
C852 C 0.93456 0.49821 0.64423 0.0
H853 H 0.90197 0.51252 0.48001 0.0
H854 H 0.9452 0.52712 0.54713 0.0
C855 C 0.91379 0.47779 0.67798 0.0
loop_
_geom_bond_atom_site_label_1
_geom_bond_atom_site_label_2
_geom_bond_distance
_geom_bond_site_symmetry_2
_ccdc_geom_bond_type
C0 C1 1.391 . S
C0 C4 1.391 . S
C0 H42 0.948 . S
C1 C0 1.391 . S
C1 C2 1.391 . S
C2 C1 1.391 . S
C2 H58 0.947 . S
C2 C59 1.392 . S
C3 C4 1.391 . S
C3 C7 1.397 . S
C3 C59 1.419 . S
C4 C0 1.391 . S
C4 C3 1.391 . S
C4 C5 1.399 . S
C5 C4 1.399 . S
C5 C8 1.396 . S
C5 C17 1.453 . S
C5 C18 1.684 . S
H6 C30 0.948 . S
C7 C3 1.397 . S
C7 C8 1.394 . S
C7 C26 1.723 . S
C8 C5 1.396 . S
C8 C7 1.394 . S
C8 C38 1.723 . S
H9 C32 0.947 . S
H10 C33 0.948 . S
H11 C39 0.982 1_554 S
H12 C40 0.979 . S
H13 C40 0.980 . S
H14 C40 0.983 . S
H15 C39 0.979 . S
H16 C39 0.977 . S
C17 C5 1.453 . S
C17 H46 0.982 . S
C17 H47 0.979 . S
C17 H48 0.977 . S
C18 C5 1.684 . S
C18 H43 0.979 . S
C18 H44 0.980 . S
C18 H45 0.983 . S
C19 C20 1.391 1_554 S
C19 C24 1.391 . S
C19 H49 0.948 . S
C20 C19 1.391 1_556 S
C20 C21 1.391 . S
C21 C20 1.391 . S
C21 C22 1.392 . S
C21 H50 0.947 . S
C22 C21 1.392 . S
C22 C23 1.419 1_556 S
C22 H51 0.948 . S
C23 C22 1.419 1_554 S
C23 C24 1.391 . S
C23 C27 1.397 . S
C24 C19 1.391 . S
C24 C23 1.391 . S
C24 C25 1.399 . S
C25 C24 1.399 . S
C25 C26 1.396 . S
C25 C28 1.453 . S
C25 C29 1.684 . S
C26 C7 1.723 . S
C26 C25 1.396 . S
C26 C27 1.394 . S
C27 C23 1.397 . S
C27 C26 1.394 . S
C27 C37 1.723 . S
C28 C25 1.453 . S
C28 H52 0.982 . S
C28 H53 0.979 . S
C28 H54 0.977 . S
C29 C25 1.684 . S
C29 H55 0.979 . S
C29 H56 0.980 . S
C29 H57 0.983 . S
C30 H6 0.948 . S
C30 C31 1.391 . S
C30 C35 1.391 . S
C31 C30 1.391 . S
C31 C32 1.391 . S
C32 H9 0.947 . S
C32 C31 1.391 . S
C32 C33 1.392 . S
C33 H10 0.948 . S
C33 C32 1.392 . S
C33 C34 1.419 . S
C34 C33 1.419 . S
C34 C35 1.391 . S
C34 C38 1.397 . S
C35 C30 1.391 . S
C35 C34 1.391 . S
C35 C36 1.399 . S
C36 C35 1.399 . S
C36 C37 1.396 . S
C36 C39 1.453 1_554 S
C36 C40 1.684 1_554 S
C37 C27 1.723 . S
C37 C36 1.396 . S
C37 C38 1.394 . S
C38 C8 1.723 . S
C38 C34 1.397 . S
C38 C37 1.394 . S
C39 H11 0.982 1_556 S
C39 H15 0.979 . S
C39 H16 0.977 . S
C39 C36 1.453 1_556 S
C40 H12 0.979 . S
C40 H13 0.980 . S
C40 H14 0.983 . S
C40 C36 1.684 1_556 S
H41 C59 0.948 . S
H42 C0 0.948 . S
H43 C18 0.979 . S
H44 C18 0.980 . S
H45 C18 0.983 . S
H46 C17 0.982 . S
H47 C17 0.979 . S
H48 C17 0.977 . S
H49 C19 0.948 . S
H50 C21 0.947 . S
H51 C22 0.948 . S
H52 C28 0.982 . S
H53 C28 0.979 . S
H54 C28 0.977 . S
H55 C29 0.979 . S
H56 C29 0.980 . S
H57 C29 0.983 . S
H58 C2 0.947 . S
C59 C2 1.392 . S
C59 C3 1.419 . S
C59 H41 0.948 . S
C60 C61 1.391 . S
C60 C64 1.391 . S
C60 H102 0.948 . S
C61 C60 1.391 . S
C61 C62 1.391 . S
C62 C61 1.391 . S
C62 H118 0.947 . S
C62 C119 1.392 . S
C63 C64 1.391 . S
C63 C67 1.397 . S
C63 C119 1.419 . S
C64 C60 1.391 . S
C64 C63 1.391 . S
C64 C65 1.399 . S
C65 C64 1.399 . S
C65 C68 1.396 . S
C65 C77 1.453 . S
C65 C78 1.684 . S
H66 C90 0.948 1_554 S
C67 C63 1.397 . S
C67 C68 1.394 . S
C67 C86 1.723 1_556 S
C68 C65 1.396 . S
C68 C67 1.394 . S
C68 C98 1.723 . S
H69 C92 0.947 . S
H70 C93 0.948 . S
H71 C99 0.982 . S
H72 C100 0.979 . S
H73 C100 0.980 . S
H74 C100 0.983 . S
H75 C99 0.979 . S
H76 C99 0.977 . S
C77 C65 1.453 . S
C77 H106 0.982 . S
C77 H107 0.979 . S
C77 H108 0.977 . S
C78 C65 1.684 . S
C78 H103 0.979 . S
C78 H104 0.980 . S
C78 H105 0.983 . S
C79 C80 1.391 . S
C79 C84 1.391 . S
C79 H109 0.948 . S
C80 C79 1.391 . S
C80 C81 1.391 . S
C81 C80 1.391 . S
C81 C82 1.392 . S
C81 H110 0.947 . S
C82 C81 1.392 . S
C82 C83 1.419 . S
C82 H111 0.948 . S
C83 C82 1.419 . S
C83 C84 1.391 . S
C83 C87 1.397 . S
C84 C79 1.391 . S
C84 C83 1.391 . S
C84 C85 1.399 . S
C85 C84 1.399 . S
C85 C86 1.396 . S
C85 C88 1.453 . S
C85 C89 1.684 . S
C86 C67 1.723 1_554 S
C86 C85 1.396 . S
C86 C87 1.394 . S
C87 C83 1.397 . S
C87 C86 1.394 . S
C87 C97 1.723 . S
C88 C85 1.453 . S
C88 H112 0.982 . S
C88 H113 0.979 . S
C88 H114 0.977 . S
C89 C85 1.684 . S
C89 H115 0.979 . S
C89 H116 0.980 . S
C89 H117 0.983 . S
C90 H66 0.948 1_556 S
C90 C91 1.391 . S
C90 C95 1.391 1_556 S
C91 C90 1.391 . S
C91 C92 1.391 . S
C92 H69 0.947 . S
C92 C91 1.391 . S
C92 C93 1.392 . S
C93 H70 0.948 . S
C93 C92 1.392 . S
C93 C94 1.419 . S
C94 C93 1.419 . S
C94 C95 1.391 1_556 S
C94 C98 1.397 . S
C95 C90 1.391 1_554 S
C95 C94 1.391 1_554 S
C95 C96 1.399 . S
C96 C95 1.399 . S
C96 C97 1.396 . S
C96 C99 1.453 . S
C96 C100 1.684 . S
C97 C87 1.723 . S
C97 C96 1.396 . S
C97 C98 1.394 1_554 S
C98 C68 1.723 . S
C98 C94 1.397 . S
C98 C97 1.394 1_556 S
C99 H71 0.982 . S
C99 H75 0.979 . S
C99 H76 0.977 . S
C99 C96 1.453 . S
C100 H72 0.979 . S
C100 H73 0.980 . S
C100 H74 0.983 . S
C100 C96 1.684 . S
H101 C119 0.948 . S
H102 C60 0.948 . S
H103 C78 0.979 . S
H104 C78 0.980 . S
H105 C78 0.983 . S
H106 C77 0.982 . S
H107 C77 0.979 . S
H108 C77 0.977 . S
H109 C79 0.948 . S
H110 C81 0.947 . S
H111 C82 0.948 . S
H112 C88 0.982 . S
H113 C88 0.979 . S
H114 C88 0.977 . S
H115 C89 0.979 . S
H116 C89 0.980 . S
H117 C89 0.983 . S
H118 C62 0.947 . S
C119 C62 1.392 . S
C119 C63 1.419 . S
C119 H101 0.948 . S
C120 C121 1.391 . S
C120 C124 1.391 . S
C120 H162 0.948 . S
C121 C120 1.391 . S
C121 C122 1.391 1_554 S
C122 C121 1.391 1_556 S
C122 H178 0.947 . S
C122 C179 1.392 . S
C123 C124 1.391 . S
C123 C127 1.397 1_565 S
C123 C179 1.419 1_554 S
C124 C120 1.391 . S
C124 C123 1.391 . S
C124 C125 1.399 . S
C125 C124 1.399 . S
C125 C128 1.396 1_565 S
C125 C137 1.453 1_565 S
C125 C138 1.684 . S
H126 C150 0.948 . S
C127 C123 1.397 1_545 S
C127 C128 1.394 . S
C127 C146 1.723 . S
C128 C125 1.396 1_545 S
C128 C127 1.394 . S
C128 C158 1.723 . S
H129 C152 0.947 . S
H130 C153 0.948 . S
H131 C159 0.982 . S
H132 C160 0.979 . S
H133 C160 0.980 . S
H134 C160 0.983 . S
H135 C159 0.979 . S
H136 C159 0.977 . S
C137 C125 1.453 1_545 S
C137 H166 0.982 . S
C137 H167 0.979 . S
C137 H168 0.977 . S
C138 C125 1.684 . S
C138 H163 0.979 . S
C138 H164 0.980 . S
C138 H165 0.983 . S
C139 C140 1.391 . S
C139 C144 1.391 . S
C139 H169 0.948 . S
C140 C139 1.391 . S
C140 C141 1.391 . S
C141 C140 1.391 . S
C141 C142 1.392 1_556 S
C141 H170 0.947 . S
C142 C141 1.392 1_554 S
C142 C143 1.419 . S
C142 H171 0.948 . S
C143 C142 1.419 . S
C143 C144 1.391 1_554 S
C143 C147 1.397 1_565 S
C144 C139 1.391 . S
C144 C143 1.391 1_556 S
C144 C145 1.399 . S
C145 C144 1.399 . S
C145 C146 1.396 1_566 S
C145 C148 1.453 1_565 S
C145 C149 1.684 . S
C146 C127 1.723 . S
C146 C145 1.396 1_544 S
C146 C147 1.394 . S
C147 C143 1.397 1_545 S
C147 C146 1.394 . S
C147 C157 1.723 . S
C148 C145 1.453 1_545 S
C148 H172 0.982 . S
C148 H173 0.979 . S
C148 H174 0.977 . S
C149 C145 1.684 . S
C149 H175 0.979 . S
C149 H176 0.980 . S
C149 H177 0.983 . S
C150 H126 0.948 . S
C150 C151 1.391 . S
C150 C155 1.391 . S
C151 C150 1.391 . S
C151 C152 1.391 . S
C152 H129 0.947 . S
C152 C151 1.391 . S
C152 C153 1.392 . S
C153 H130 0.948 . S
C153 C152 1.392 . S
C153 C154 1.419 . S
C154 C153 1.419 . S
C154 C155 1.391 . S
C154 C158 1.397 1_565 S
C155 C150 1.391 . S
C155 C154 1.391 . S
C155 C156 1.399 . S
C156 C155 1.399 . S
C156 C157 1.396 1_565 S
C156 C159 1.453 1_565 S
C156 C160 1.684 . S
C157 C147 1.723 . S
C157 C156 1.396 1_545 S
C157 C158 1.394 . S
C158 C128 1.723 . S
C158 C154 1.397 1_545 S
C158 C157 1.394 . S
C159 H131 0.982 . S
C159 H135 0.979 . S
C159 H136 0.977 . S
C159 C156 1.453 1_545 S
C160 H132 0.979 . S
C160 H133 0.980 . S
C160 H134 0.983 . S
C160 C156 1.684 . S
H161 C179 0.948 . S
H162 C120 0.948 . S
H163 C138 0.979 . S
H164 C138 0.980 . S
H165 C138 0.983 . S
H166 C137 0.982 . S
H167 C137 0.979 . S
H168 C137 0.977 . S
H169 C139 0.948 . S
H170 C141 0.947 . S
H171 C142 0.948 . S
H172 C148 0.982 . S
H173 C148 0.979 . S
H174 C148 0.977 . S
H175 C149 0.979 . S
H176 C149 0.980 . S
H177 C149 0.983 . S
H178 C122 0.947 . S
C179 C122 1.392 . S
C179 C123 1.419 1_556 S
C179 H161 0.948 . S
C180 C181 1.391 . S
C180 C184 1.391 . S
C180 H222 0.948 . S
C181 C180 1.391 . S
C181 C182 1.391 . S
C182 C181 1.391 . S
C182 H238 0.947 . S
C182 C239 1.392 . S
C183 C184 1.391 . S
C183 C187 1.397 . S
C183 C239 1.419 . S
C184 C180 1.391 . S
C184 C183 1.391 . S
C184 C185 1.399 . S
C185 C184 1.399 . S
C185 C188 1.396 . S
C185 C197 1.453 . S
C185 C198 1.684 . S
H186 C210 0.948 . S
C187 C183 1.397 . S
C187 C188 1.394 . S
C187 C206 1.723 . S
C188 C185 1.396 . S
C188 C187 1.394 . S
C188 C218 1.723 . S
H189 C212 0.947 . S
H190 C213 0.948 . S
H191 C219 0.982 . S
H192 C220 0.979 . S
H193 C220 0.980 . S
H194 C220 0.983 . S
H195 C219 0.979 . S
H196 C219 0.977 . S
C197 C185 1.453 . S
C197 H226 0.982 . S
C197 H227 0.979 . S
C197 H228 0.977 . S
C198 C185 1.684 . S
C198 H223 0.979 . S
C198 H224 0.980 . S
C198 H225 0.983 . S
C199 C200 1.391 . S
C199 C204 1.391 1_556 S
C199 H229 0.948 . S
C200 C199 1.391 . S
C200 C201 1.391 . S
C201 C200 1.391 . S
C201 C202 1.392 . S
C201 H230 0.947 . S
C202 C201 1.392 . S
C202 C203 1.419 . S
C202 H231 0.948 . S
C203 C202 1.419 . S
C203 C204 1.391 1_556 S
C203 C207 1.397 1_556 S
C204 C199 1.391 1_554 S
C204 C203 1.391 1_554 S
C204 C205 1.399 . S
C205 C204 1.399 . S
C205 C206 1.396 . S
C205 C208 1.453 . S
C205 C209 1.684 . S
C206 C187 1.723 . S
C206 C205 1.396 . S
C206 C207 1.394 . S
C207 C203 1.397 1_554 S
C207 C206 1.394 . S
C207 C217 1.723 . S
C208 C205 1.453 . S
C208 H232 0.982 . S
C208 H233 0.979 . S
C208 H234 0.977 . S
C209 C205 1.684 . S
C209 H235 0.979 . S
C209 H236 0.980 . S
C209 H237 0.983 . S
C210 H186 0.948 . S
C210 C211 1.391 1_556 S
C210 C215 1.391 1_556 S
C211 C210 1.391 1_554 S
C211 C212 1.391 . S
C212 H189 0.947 . S
C212 C211 1.391 . S
C212 C213 1.392 . S
C213 H190 0.948 . S
C213 C212 1.392 . S
C213 C214 1.419 . S
C214 C213 1.419 . S
C214 C215 1.391 . S
C214 C218 1.397 . S
C215 C210 1.391 1_554 S
C215 C214 1.391 . S
C215 C216 1.399 1_554 S
C216 C215 1.399 1_556 S
C216 C217 1.396 1_556 S
C216 C219 1.453 . S
C216 C220 1.684 . S
C217 C207 1.723 . S
C217 C216 1.396 1_554 S
C217 C218 1.394 . S
C218 C188 1.723 . S
C218 C214 1.397 . S
C218 C217 1.394 . S
C219 H191 0.982 . S
C219 H195 0.979 . S
C219 H196 0.977 . S
C219 C216 1.453 . S
C220 H192 0.979 . S
C220 H193 0.980 . S
C220 H194 0.983 . S
C220 C216 1.684 . S
H221 C239 0.948 . S
H222 C180 0.948 . S
H223 C198 0.979 . S
H224 C198 0.980 . S
H225 C198 0.983 . S
H226 C197 0.982 . S
H227 C197 0.979 . S
H228 C197 0.977 . S
H229 C199 0.948 . S
H230 C201 0.947 . S
H231 C202 0.948 . S
H232 C208 0.982 . S
H233 C208 0.979 . S
H234 C208 0.977 . S
H235 C209 0.979 . S
H236 C209 0.980 . S
H237 C209 0.983 . S
H238 C182 0.947 . S
C239 C182 1.392 . S
C239 C183 1.419 . S
C239 H221 0.948 . S
C240 C241 1.391 . S
C240 C244 1.391 . S
C240 H282 0.948 . S
C241 C240 1.391 . S
C241 C242 1.391 . S
C242 C241 1.391 . S
C242 H298 0.947 . S
C242 C299 1.392 . S
C243 C244 1.391 . S
C243 C247 1.397 . S
C243 C299 1.419 . S
C244 C240 1.391 . S
C244 C243 1.391 . S
C244 C245 1.399 . S
C245 C244 1.399 . S
C245 C248 1.396 . S
C245 C257 1.453 . S
C245 C258 1.684 . S
H246 C270 0.948 . S
C247 C243 1.397 . S
C247 C248 1.394 . S
C247 C266 1.723 . S
C248 C245 1.396 . S
C248 C247 1.394 . S
C248 C278 1.723 . S
H249 C272 0.947 . S
H250 C273 0.948 . S
H251 C279 0.982 . S
H252 C280 0.979 . S
H253 C280 0.980 . S
H254 C280 0.983 . S
H255 C279 0.979 . S
H256 C279 0.977 . S
C257 C245 1.453 . S
C257 H286 0.982 . S
C257 H287 0.979 . S
C257 H288 0.977 . S
C258 C245 1.684 . S
C258 H283 0.979 . S
C258 H284 0.980 . S
C258 H285 0.983 . S
C259 C260 1.391 . S
C259 C264 1.391 . S
C259 H289 0.948 . S
C260 C259 1.391 . S
C260 C261 1.391 . S
C261 C260 1.391 . S
C261 C262 1.392 . S
C261 H290 0.947 . S
C262 C261 1.392 . S
C262 C263 1.419 . S
C262 H291 0.948 . S
C263 C262 1.419 . S
C263 C264 1.391 . S
C263 C267 1.397 . S
C264 C259 1.391 . S
C264 C263 1.391 . S
C264 C265 1.399 . S
C265 C264 1.399 . S
C265 C266 1.396 . S
C265 C268 1.453 . S
C265 C269 1.684 . S
C266 C247 1.723 . S
C266 C265 1.396 . S
C266 C267 1.394 . S
C267 C263 1.397 . S
C267 C266 1.394 . S
C267 C277 1.723 . S
C268 C265 1.453 . S
C268 H292 0.982 . S
C268 H293 0.979 . S
C268 H294 0.977 . S
C269 C265 1.684 . S
C269 H295 0.979 . S
C269 H296 0.980 . S
C269 H297 0.983 . S
C270 H246 0.948 . S
C270 C271 1.391 1_554 S
C270 C275 1.391 . S
C271 C270 1.391 1_556 S
C271 C272 1.391 . S
C272 H249 0.947 . S
C272 C271 1.391 . S
C272 C273 1.392 1_556 S
C273 H250 0.948 . S
C273 C272 1.392 1_554 S
C273 C274 1.419 . S
C274 C273 1.419 . S
C274 C275 1.391 . S
C274 C278 1.397 . S
C275 C270 1.391 . S
C275 C274 1.391 . S
C275 C276 1.399 . S
C276 C275 1.399 . S
C276 C277 1.396 . S
C276 C279 1.453 . S
C276 C280 1.684 . S
C277 C267 1.723 . S
C277 C276 1.396 . S
C277 C278 1.394 . S
C278 C248 1.723 . S
C278 C274 1.397 . S
C278 C277 1.394 . S
C279 H251 0.982 . S
C279 H255 0.979 . S
C279 H256 0.977 . S
C279 C276 1.453 . S
C280 H252 0.979 . S
C280 H253 0.980 . S
C280 H254 0.983 . S
C280 C276 1.684 . S
H281 C299 0.948 . S
H282 C240 0.948 . S
H283 C258 0.979 . S
H284 C258 0.980 . S
H285 C258 0.983 . S
H286 C257 0.982 . S
H287 C257 0.979 . S
H288 C257 0.977 . S
H289 C259 0.948 . S
H290 C261 0.947 . S
H291 C262 0.948 . S
H292 C268 0.982 . S
H293 C268 0.979 . S
H294 C268 0.977 . S
H295 C269 0.979 . S
H296 C269 0.980 . S
H297 C269 0.983 . S
H298 C242 0.947 . S
C299 C242 1.392 . S
C299 C243 1.419 . S
C299 H281 0.948 . S
C300 C301 1.391 . S
C300 C304 1.391 . S
C300 H342 0.948 . S
C301 C300 1.391 . S
C301 C302 1.391 . S
C302 C301 1.391 . S
C302 H358 0.947 . S
C302 C359 1.392 . S
C303 C304 1.391 . S
C303 C307 1.397 . S
C303 C359 1.419 . S
C304 C300 1.391 . S
C304 C303 1.391 . S
C304 C305 1.399 . S
C305 C304 1.399 . S
C305 C308 1.396 . S
C305 C317 1.453 . S
C305 C318 1.684 . S
H306 C330 0.948 . S
C307 C303 1.397 . S
C307 C308 1.394 . S
C307 C326 1.723 . S
C308 C305 1.396 . S
C308 C307 1.394 . S
C308 C338 1.723 . S
H309 C332 0.947 . S
H310 C333 0.948 . S
H311 C339 0.982 . S
H312 C340 0.979 . S
H313 C340 0.980 . S
H314 C340 0.983 . S
H315 C339 0.979 . S
H316 C339 0.977 . S
C317 C305 1.453 . S
C317 H346 0.982 . S
C317 H347 0.979 . S
C317 H348 0.977 . S
C318 C305 1.684 . S
C318 H343 0.979 . S
C318 H344 0.980 . S
C318 H345 0.983 . S
C319 C320 1.391 . S
C319 C324 1.391 . S
C319 H349 0.948 . S
C320 C319 1.391 . S
C320 C321 1.391 . S
C321 C320 1.391 . S
C321 C322 1.392 . S
C321 H350 0.947 . S
C322 C321 1.392 . S
C322 C323 1.419 . S
C322 H351 0.948 . S
C323 C322 1.419 . S
C323 C324 1.391 . S
C323 C327 1.397 . S
C324 C319 1.391 . S
C324 C323 1.391 . S
C324 C325 1.399 . S
C325 C324 1.399 . S
C325 C326 1.396 . S
C325 C328 1.453 . S
C325 C329 1.684 . S
C326 C307 1.723 . S
C326 C325 1.396 . S
C326 C327 1.394 . S
C327 C323 1.397 . S
C327 C326 1.394 . S
C327 C337 1.723 . S
C328 C325 1.453 . S
C328 H352 0.982 . S
C328 H353 0.979 . S
C328 H354 0.977 . S
C329 C325 1.684 . S
C329 H355 0.979 . S
C329 H356 0.980 . S
C329 H357 0.983 . S
C330 H306 0.948 . S
C330 C331 1.391 . S
C330 C335 1.391 . S
C331 C330 1.391 . S
C331 C332 1.391 . S
C332 H309 0.947 . S
C332 C331 1.391 . S
C332 C333 1.392 . S
C333 H310 0.948 . S
C333 C332 1.392 . S
C333 C334 1.419 . S
C334 C333 1.419 . S
C334 C335 1.391 . S
C334 C338 1.397 . S
C335 C330 1.391 . S
C335 C334 1.391 . S
C335 C336 1.399 . S
C336 C335 1.399 . S
C336 C337 1.396 . S
C336 C339 1.453 . S
C336 C340 1.684 . S
C337 C327 1.723 . S
C337 C336 1.396 . S
C337 C338 1.394 . S
C338 C308 1.723 . S
C338 C334 1.397 . S
C338 C337 1.394 . S
C339 H311 0.982 . S
C339 H315 0.979 . S
C339 H316 0.977 . S
C339 C336 1.453 . S
C340 H312 0.979 . S
C340 H313 0.980 . S
C340 H314 0.983 . S
C340 C336 1.684 . S
H341 C359 0.948 . S
H342 C300 0.948 . S
H343 C318 0.979 . S
H344 C318 0.980 . S
H345 C318 0.983 . S
H346 C317 0.982 . S
H347 C317 0.979 . S
H348 C317 0.977 . S
H349 C319 0.948 . S
H350 C321 0.947 . S
H351 C322 0.948 . S
H352 C328 0.982 . S
H353 C328 0.979 . S
H354 C328 0.977 . S
H355 C329 0.979 . S
H356 C329 0.980 . S
H357 C329 0.983 . S
H358 C302 0.947 . S
C359 C302 1.392 . S
C359 C303 1.419 . S
C359 H341 0.948 . S
C360 C361 1.391 . S
C360 C364 1.391 . S
C360 H402 0.948 . S
C361 C360 1.391 . S
C361 C362 1.391 . S
C362 C361 1.391 . S
C362 H418 0.947 . S
C362 C419 1.392 . S
C363 C364 1.391 . S
C363 C367 1.397 1_545 S
C363 C419 1.419 . S
C364 C360 1.391 . S
C364 C363 1.391 . S
C364 C365 1.399 . S
C365 C364 1.399 . S
C365 C368 1.396 1_545 S
C365 C377 1.453 1_545 S
C365 C378 1.684 . S
H366 C390 0.948 . S
C367 C363 1.397 1_565 S
C367 C368 1.394 . S
C367 C386 1.723 . S
C368 C365 1.396 1_565 S
C368 C367 1.394 . S
C368 C398 1.723 . S
H369 C392 0.947 . S
H370 C393 0.948 . S
H371 C399 0.982 . S
H372 C400 0.979 . S
H373 C400 0.980 . S
H374 C400 0.983 . S
H375 C399 0.979 . S
H376 C399 0.977 . S
C377 C365 1.453 1_565 S
C377 H406 0.982 . S
C377 H407 0.979 . S
C377 H408 0.977 . S
C378 C365 1.684 . S
C378 H403 0.979 . S
C378 H404 0.980 . S
C378 H405 0.983 . S
C379 C380 1.391 . S
C379 C384 1.391 . S
C379 H409 0.948 . S
C380 C379 1.391 . S
C380 C381 1.391 . S
C381 C380 1.391 . S
C381 C382 1.392 . S
C381 H410 0.947 . S
C382 C381 1.392 . S
C382 C383 1.419 . S
C382 H411 0.948 . S
C383 C382 1.419 . S
C383 C384 1.391 . S
C383 C387 1.397 1_545 S
C384 C379 1.391 . S
C384 C383 1.391 . S
C384 C385 1.399 . S
C385 C384 1.399 . S
C385 C386 1.396 1_545 S
C385 C388 1.453 1_545 S
C385 C389 1.684 . S
C386 C367 1.723 . S
C386 C385 1.396 1_565 S
C386 C387 1.394 . S
C387 C383 1.397 1_565 S
C387 C386 1.394 . S
C387 C397 1.723 . S
C388 C385 1.453 1_565 S
C388 H412 0.982 . S
C388 H413 0.979 . S
C388 H414 0.977 . S
C389 C385 1.684 . S
C389 H415 0.979 . S
C389 H416 0.980 . S
C389 H417 0.983 . S
C390 H366 0.948 . S
C390 C391 1.391 . S
C390 C395 1.391 . S
C391 C390 1.391 . S
C391 C392 1.391 . S
C392 H369 0.947 . S
C392 C391 1.391 . S
C392 C393 1.392 . S
C393 H370 0.948 . S
C393 C392 1.392 . S
C393 C394 1.419 . S
C394 C393 1.419 . S
C394 C395 1.391 . S
C394 C398 1.397 1_545 S
C395 C390 1.391 . S
C395 C394 1.391 . S
C395 C396 1.399 . S
C396 C395 1.399 . S
C396 C397 1.396 1_545 S
C396 C399 1.453 1_545 S
C396 C400 1.684 . S
C397 C387 1.723 . S
C397 C396 1.396 1_565 S
C397 C398 1.394 . S
C398 C368 1.723 . S
C398 C394 1.397 1_565 S
C398 C397 1.394 . S
C399 H371 0.982 . S
C399 H375 0.979 . S
C399 H376 0.977 . S
C399 C396 1.453 1_565 S
C400 H372 0.979 . S
C400 H373 0.980 . S
C400 H374 0.983 . S
C400 C396 1.684 . S
H401 C419 0.948 . S
H402 C360 0.948 . S
H403 C378 0.979 . S
H404 C378 0.980 . S
H405 C378 0.983 . S
H406 C377 0.982 . S
H407 C377 0.979 . S
H408 C377 0.977 . S
H409 C379 0.948 . S
H410 C381 0.947 . S
H411 C382 0.948 . S
H412 C388 0.982 . S
H413 C388 0.979 . S
H414 C388 0.977 . S
H415 C389 0.979 . S
H416 C389 0.980 . S
H417 C389 0.983 . S
H418 C362 0.947 . S
C419 C362 1.392 . S
C419 C363 1.419 . S
C419 H401 0.948 . S
C420 C421 1.391 . S
C420 C424 1.391 . S
C420 H462 0.948 . S
C421 C420 1.391 . S
C421 C422 1.391 . S
C422 C421 1.391 . S
C422 H478 0.947 . S
C422 C479 1.392 . S
C423 C424 1.391 . S
C423 C427 1.397 . S
C423 C479 1.419 . S
C424 C420 1.391 . S
C424 C423 1.391 . S
C424 C425 1.399 . S
C425 C424 1.399 . S
C425 C428 1.396 . S
C425 C437 1.453 . S
C425 C438 1.684 . S
H426 C450 0.948 . S
C427 C423 1.397 . S
C427 C428 1.394 . S
C427 C446 1.723 . S
C428 C425 1.396 . S
C428 C427 1.394 . S
C428 C458 1.723 . S
H429 C452 0.947 . S
H430 C453 0.948 . S
H431 C459 0.982 . S
H432 C460 0.979 . S
H433 C460 0.980 . S
H434 C460 0.983 . S
H435 C459 0.979 . S
H436 C459 0.977 . S
C437 C425 1.453 . S
C437 H466 0.982 . S
C437 H467 0.979 . S
C437 H468 0.977 . S
C438 C425 1.684 . S
C438 H463 0.979 . S
C438 H464 0.980 . S
C438 H465 0.983 . S
C439 C440 1.391 . S
C439 C444 1.391 . S
C439 H469 0.948 . S
C440 C439 1.391 . S
C440 C441 1.391 . S
C441 C440 1.391 . S
C441 C442 1.392 . S
C441 H470 0.947 . S
C442 C441 1.392 . S
C442 C443 1.419 . S
C442 H471 0.948 . S
C443 C442 1.419 . S
C443 C444 1.391 . S
C443 C447 1.397 . S
C444 C439 1.391 . S
C444 C443 1.391 . S
C444 C445 1.399 . S
C445 C444 1.399 . S
C445 C446 1.396 . S
C445 C448 1.453 . S
C445 C449 1.684 . S
C446 C427 1.723 . S
C446 C445 1.396 . S
C446 C447 1.394 . S
C447 C443 1.397 . S
C447 C446 1.394 . S
C447 C457 1.723 . S
C448 C445 1.453 . S
C448 H472 0.982 . S
C448 H473 0.979 . S
C448 H474 0.977 . S
C449 C445 1.684 . S
C449 H475 0.979 . S
C449 H476 0.980 . S
C449 H477 0.983 . S
C450 H426 0.948 . S
C450 C451 1.391 . S
C450 C455 1.391 . S
C451 C450 1.391 . S
C451 C452 1.391 . S
C452 H429 0.947 . S
C452 C451 1.391 . S
C452 C453 1.392 . S
C453 H430 0.948 . S
C453 C452 1.392 . S
C453 C454 1.419 . S
C454 C453 1.419 . S
C454 C455 1.391 . S
C454 C458 1.397 . S
C455 C450 1.391 . S
C455 C454 1.391 . S
C455 C456 1.399 . S
C456 C455 1.399 . S
C456 C457 1.396 . S
C456 C459 1.453 . S
C456 C460 1.684 . S
C457 C447 1.723 . S
C457 C456 1.396 . S
C457 C458 1.394 . S
C458 C428 1.723 . S
C458 C454 1.397 . S
C458 C457 1.394 . S
C459 H431 0.982 . S
C459 H435 0.979 . S
C459 H436 0.977 . S
C459 C456 1.453 . S
C460 H432 0.979 . S
C460 H433 0.980 . S
C460 H434 0.983 . S
C460 C456 1.684 . S
H461 C479 0.948 . S
H462 C420 0.948 . S
H463 C438 0.979 . S
H464 C438 0.980 . S
H465 C438 0.983 . S
H466 C437 0.982 . S
H467 C437 0.979 . S
H468 C437 0.977 . S
H469 C439 0.948 . S
H470 C441 0.947 . S
H471 C442 0.948 . S
H472 C448 0.982 . S
H473 C448 0.979 . S
H474 C448 0.977 . S
H475 C449 0.979 . S
H476 C449 0.980 . S
H477 C449 0.983 . S
H478 C422 0.947 . S
C479 C422 1.392 . S
C479 C423 1.419 . S
C479 H461 0.948 . S
C480 O496 1.251 1_455 S
C480 O498 1.254 . S
N481 C482 1.333 . S
N481 C486 1.307 . S
N481 Zn487 2.020 1_655 S
C482 N481 1.333 . S
C482 C483 1.379 . S
C482 H500 0.952 . S
C483 C482 1.379 . S
C483 C484 1.390 . S
C483 H510 0.949 . S
C484 C483 1.390 . S
C484 C485 1.357 . S
C485 C484 1.357 . S
C485 C486 1.370 . S
C485 H511 0.950 . S
C486 N481 1.307 . S
C486 C485 1.370 . S
C486 H504 0.948 1_565 S
Zn487 N481 2.020 1_455 S
Zn487 O496 2.039 1_455 S
Zn487 O502 2.034 . S
Zn487 O506 2.025 1_565 S
Zn487 O508 2.019 1_465 S
C488 O507 1.246 . S
C488 O508 1.257 . S
N489 C490 1.307 . S
N489 C491 1.333 . S
N489 Zn495 2.020 . S
C490 N489 1.307 . S
C490 C494 1.370 1_556 S
C490 H501 0.948 1_545 S
C491 N489 1.333 . S
C491 C492 1.379 . S
C491 H499 0.952 . S
C492 C491 1.379 . S
C492 C493 1.390 1_556 S
C492 H512 0.949 . S
C493 C492 1.390 1_554 S
C493 C494 1.357 . S
C494 C490 1.370 1_554 S
C494 C493 1.357 . S
C494 H513 0.950 . S
Zn495 N489 2.020 . S
Zn495 O498 2.025 1_545 S
Zn495 O503 2.022 1_545 S
Zn495 O505 2.039 . S
Zn495 O507 2.034 1_455 S
O496 C480 1.251 1_655 S
O496 Zn487 2.039 1_655 S
C497 O502 1.246 . S
C497 O503 1.252 . S
O498 C480 1.254 . S
O498 Zn495 2.025 1_565 S
H499 C491 0.952 . S
H500 C482 0.952 . S
H501 C490 0.948 1_565 S
O502 Zn487 2.034 . S
O502 C497 1.246 . S
O503 Zn495 2.022 1_565 S
O503 C497 1.252 . S
H504 C486 0.948 1_545 S
O505 Zn495 2.039 . S
O505 C509 1.251 . S
O506 Zn487 2.025 1_545 S
O506 C509 1.254 . S
O507 C488 1.246 . S
O507 Zn495 2.034 1_655 S
O508 Zn487 2.019 1_645 S
O508 C488 1.257 . S
C509 O505 1.251 . S
C509 O506 1.254 . S
H510 C483 0.949 . S
H511 C485 0.950 . S
H512 C492 0.949 . S
H513 C494 0.950 . S
C514 O530 1.251 1_565 S
C514 O532 1.254 . S
N515 C516 1.333 . S
N515 C520 1.307 . S
N515 Zn521 2.020 . S
C516 N515 1.333 . S
C516 C517 1.379 . S
C516 H534 0.952 . S
C517 C516 1.379 . S
C517 C518 1.390 . S
C517 H544 0.949 . S
C518 C517 1.390 . S
C518 C519 1.357 . S
C519 C518 1.357 . S
C519 C520 1.370 . S
C519 H545 0.950 . S
C520 N515 1.307 . S
C520 C519 1.370 . S
C520 H538 0.948 . S
Zn521 N515 2.020 . S
Zn521 O530 2.039 . S
Zn521 O536 2.034 . S
Zn521 O540 2.025 . S
Zn521 O542 2.024 . S
C522 O541 1.246 1_545 S
C522 O542 1.249 . S
N523 C524 1.307 . S
N523 C525 1.333 . S
N523 Zn529 2.020 . S
C524 N523 1.307 . S
C524 C528 1.370 . S
C524 H535 0.948 . S
C525 N523 1.333 . S
C525 C526 1.379 . S
C525 H533 0.952 . S
C526 C525 1.379 . S
C526 C527 1.390 . S
C526 H546 0.949 . S
C527 C526 1.390 . S
C527 C528 1.357 . S
C528 C524 1.370 . S
C528 C527 1.357 . S
C528 H547 0.950 . S
Zn529 N523 2.020 . S
Zn529 O532 2.025 . S
Zn529 O537 2.024 . S
Zn529 O539 2.039 . S
Zn529 O541 2.034 . S
O530 C514 1.251 1_545 S
O530 Zn521 2.039 . S
C531 O536 1.246 1_565 S
C531 O537 1.249 . S
O532 C514 1.254 . S
O532 Zn529 2.025 . S
H533 C525 0.952 . S
H534 C516 0.952 . S
H535 C524 0.948 . S
O536 Zn521 2.034 . S
O536 C531 1.246 1_545 S
O537 Zn529 2.024 . S
O537 C531 1.249 . S
H538 C520 0.948 . S
O539 Zn529 2.039 . S
O539 C543 1.251 1_565 S
O540 Zn521 2.025 . S
O540 C543 1.254 . S
O541 C522 1.246 1_565 S
O541 Zn529 2.034 . S
O542 Zn521 2.024 . S
O542 C522 1.249 . S
C543 O539 1.251 1_545 S
C543 O540 1.254 . S
H544 C517 0.949 . S
H545 C519 0.950 . S
H546 C526 0.949 . S
H547 C528 0.950 . S
C548 O564 1.251 . S
C548 O566 1.254 . S
N549 C550 1.333 . S
N549 C554 1.307 . S
N549 Zn555 2.020 . S
C550 N549 1.333 . S
C550 C551 1.379 . S
C550 H568 0.952 . S
C551 C550 1.379 . S
C551 C552 1.390 . S
C551 H578 0.949 . S
C552 C551 1.390 . S
C552 C553 1.357 . S
C553 C552 1.357 . S
C553 C554 1.370 . S
C553 H579 0.950 . S
C554 N549 1.307 . S
C554 C553 1.370 . S
C554 H572 0.948 . S
Zn555 N549 2.020 . S
Zn555 O564 2.039 . S
Zn555 O570 2.034 . S
Zn555 O574 2.025 . S
Zn555 O576 2.024 . S
C556 O575 1.246 . S
C556 O576 1.249 . S
N557 C558 1.307 . S
N557 C559 1.333 . S
N557 Zn563 2.020 . S
C558 N557 1.307 . S
C558 C562 1.370 . S
C558 H569 0.948 . S
C559 N557 1.333 . S
C559 C560 1.379 . S
C559 H567 0.952 . S
C560 C559 1.379 . S
C560 C561 1.390 . S
C560 H580 0.949 . S
C561 C560 1.390 . S
C561 C562 1.357 . S
C562 C558 1.370 . S
C562 C561 1.357 . S
C562 H581 0.950 . S
Zn563 N557 2.020 . S
Zn563 O566 2.025 . S
Zn563 O571 2.024 . S
Zn563 O573 2.039 . S
Zn563 O575 2.034 . S
O564 C548 1.251 . S
O564 Zn555 2.039 . S
C565 O570 1.246 . S
C565 O571 1.249 . S
O566 C548 1.254 . S
O566 Zn563 2.025 . S
H567 C559 0.952 . S
H568 C550 0.952 . S
H569 C558 0.948 . S
O570 Zn555 2.034 . S
O570 C565 1.246 . S
O571 Zn563 2.024 . S
O571 C565 1.249 . S
H572 C554 0.948 . S
O573 Zn563 2.039 . S
O573 C577 1.251 . S
O574 Zn555 2.025 . S
O574 C577 1.254 . S
O575 C556 1.246 . S
O575 Zn563 2.034 . S
O576 Zn555 2.024 . S
O576 C556 1.249 . S
C577 O573 1.251 . S
C577 O574 1.254 . S
H578 C551 0.949 . S
H579 C553 0.950 . S
H580 C560 0.949 . S
H581 C562 0.950 . S
C582 O598 1.251 . S
C582 O600 1.254 . S
N583 C584 1.333 . S
N583 C588 1.307 . S
N583 Zn589 2.020 . S
C584 N583 1.333 . S
C584 C585 1.379 . S
C584 H602 0.952 . S
C585 C584 1.379 . S
C585 C586 1.390 . S
C585 H612 0.949 . S
C586 C585 1.390 . S
C586 C587 1.357 . S
C587 C586 1.357 . S
C587 C588 1.370 . S
C587 H613 0.950 . S
C588 N583 1.307 . S
C588 C587 1.370 . S
C588 H606 0.948 . S
Zn589 N583 2.020 . S
Zn589 O598 2.039 . S
Zn589 O604 2.034 1_455 S
Zn589 O608 2.025 1_455 S
Zn589 O610 2.024 . S
C590 O609 1.246 . S
C590 O610 1.249 . S
N591 C592 1.307 . S
N591 C593 1.333 . S
N591 Zn597 2.020 1_655 S
C592 N591 1.307 . S
C592 C596 1.370 . S
C592 H603 0.948 1_655 S
C593 N591 1.333 . S
C593 C594 1.379 . S
C593 H601 0.952 . S
C594 C593 1.379 . S
C594 C595 1.390 . S
C594 H614 0.949 . S
C595 C594 1.390 . S
C595 C596 1.357 . S
C596 C592 1.370 . S
C596 C595 1.357 . S
C596 H615 0.950 . S
Zn597 N591 2.020 1_455 S
Zn597 O600 2.025 . S
Zn597 O605 2.024 1_455 S
Zn597 O607 2.039 1_455 S
Zn597 O609 2.034 . S
O598 C582 1.251 . S
O598 Zn589 2.039 . S
C599 O604 1.246 . S
C599 O605 1.249 . S
O600 C582 1.254 . S
O600 Zn597 2.025 . S
H601 C593 0.952 . S
H602 C584 0.952 . S
H603 C592 0.948 1_455 S
O604 Zn589 2.034 1_655 S
O604 C599 1.246 . S
O605 Zn597 2.024 1_655 S
O605 C599 1.249 . S
H606 C588 0.948 . S
O607 Zn597 2.039 1_655 S
O607 C611 1.251 . S
O608 Zn589 2.025 1_655 S
O608 C611 1.254 . S
O609 C590 1.246 . S
O609 Zn597 2.034 . S
O610 Zn589 2.024 . S
O610 C590 1.249 . S
C611 O607 1.251 . S
C611 O608 1.254 . S
H612 C585 0.949 . S
H613 C587 0.950 . S
H614 C594 0.949 . S
H615 C596 0.950 . S
C616 C617 1.387 1_545 S
C616 H620 0.950 . S
C616 C625 1.390 . S
C617 C616 1.387 1_565 S
C617 C619 1.387 . S
H618 C625 0.950 . S
C619 C617 1.387 . S
C619 C621 1.390 . S
C619 H623 0.950 . S
H620 C616 0.950 . S
C621 C619 1.390 . S
C621 C622 1.387 . S
C621 H624 0.950 . S
C622 C621 1.387 . S
C622 C625 1.387 1_565 S
H623 C619 0.950 . S
H624 C621 0.950 . S
C625 C616 1.390 . S
C625 H618 0.950 . S
C625 C622 1.387 1_545 S
C626 C627 1.387 . S
C626 H630 0.950 . S
C626 C635 1.390 . S
C627 C626 1.387 . S
C627 C629 1.387 . S
H628 C635 0.950 . S
C629 C627 1.387 . S
C629 C631 1.390 . S
C629 H633 0.950 . S
H630 C626 0.950 . S
C631 C629 1.390 . S
C631 C632 1.387 . S
C631 H634 0.950 . S
C632 C631 1.387 . S
C632 C635 1.387 . S
H633 C629 0.950 . S
H634 C631 0.950 . S
C635 C626 1.390 . S
C635 H628 0.950 . S
C635 C632 1.387 . S
C636 C637 1.387 . S
C636 H640 0.950 . S
C636 C645 1.390 . S
C637 C636 1.387 . S
C637 C639 1.387 . S
H638 C645 0.950 . S
C639 C637 1.387 . S
C639 C641 1.390 . S
C639 H643 0.950 . S
H640 C636 0.950 . S
C641 C639 1.390 . S
C641 C642 1.387 . S
C641 H644 0.950 . S
C642 C641 1.387 . S
C642 C645 1.387 . S
H643 C639 0.950 . S
H644 C641 0.950 . S
C645 C636 1.390 . S
C645 H638 0.950 . S
C645 C642 1.387 . S
C646 C647 1.387 . S
C646 H650 0.950 . S
C646 C655 1.390 . S
C647 C646 1.387 . S
C647 C649 1.387 . S
H648 C655 0.950 . S
C649 C647 1.387 . S
C649 C651 1.390 . S
C649 H653 0.950 . S
H650 C646 0.950 . S
C651 C649 1.390 . S
C651 C652 1.387 . S
C651 H654 0.950 . S
C652 C651 1.387 . S
C652 C655 1.387 . S
H653 C649 0.950 . S
H654 C651 0.950 . S
C655 C646 1.390 . S
C655 H648 0.950 . S
C655 C652 1.387 . S
C656 C657 1.387 . S
C656 H660 0.950 . S
C656 C665 1.390 . S
C657 C656 1.387 . S
C657 C659 1.387 1_545 S
H658 C665 0.950 . S
C659 C657 1.387 1_565 S
C659 C661 1.390 . S
C659 H663 0.950 . S
H660 C656 0.950 . S
C661 C659 1.390 . S
C661 C662 1.387 1_565 S
C661 H664 0.950 . S
C662 C661 1.387 1_545 S
C662 C665 1.387 . S
H663 C659 0.950 . S
H664 C661 0.950 . S
C665 C656 1.390 . S
C665 H658 0.950 . S
C665 C662 1.387 . S
C666 C667 1.387 . S
C666 H670 0.950 1_556 S
C666 C675 1.390 . S
C667 C666 1.387 . S
C667 C669 1.387 . S
H668 C675 0.950 . S
C669 C667 1.387 . S
C669 C671 1.390 . S
C669 H673 0.950 . S
H670 C666 0.950 1_554 S
C671 C669 1.390 . S
C671 C672 1.387 . S
C671 H674 0.950 . S
C672 C671 1.387 . S
C672 C675 1.387 . S
H673 C669 0.950 . S
H674 C671 0.950 . S
C675 C666 1.390 . S
C675 H668 0.950 . S
C675 C672 1.387 . S
C676 C677 1.387 . S
C676 H680 0.950 . S
C676 C685 1.390 1_554 S
C677 C676 1.387 . S
C677 C679 1.387 1_554 S
H678 C685 0.950 . S
C679 C677 1.387 1_556 S
C679 C681 1.390 . S
C679 H683 0.950 1_556 S
H680 C676 0.950 . S
C681 C679 1.390 . S
C681 C682 1.387 . S
C681 H684 0.950 . S
C682 C681 1.387 . S
C682 C685 1.387 . S
H683 C679 0.950 1_554 S
H684 C681 0.950 . S
C685 C676 1.390 1_556 S
C685 H678 0.950 . S
C685 C682 1.387 . S
C686 C687 1.387 . S
C686 H690 0.950 . S
C686 C695 1.390 . S
C687 C686 1.387 . S
C687 C689 1.387 . S
H688 C695 0.950 . S
C689 C687 1.387 . S
C689 C691 1.390 . S
C689 H693 0.950 . S
H690 C686 0.950 . S
C691 C689 1.390 . S
C691 C692 1.387 . S
C691 H694 0.950 . S
C692 C691 1.387 . S
C692 C695 1.387 . S
H693 C689 0.950 . S
H694 C691 0.950 . S
C695 C686 1.390 . S
C695 H688 0.950 . S
C695 C692 1.387 . S
C696 C697 1.387 . S
C696 H700 0.950 . S
C696 C705 1.390 . S
C697 C696 1.387 . S
C697 C699 1.387 . S
H698 C705 0.950 . S
C699 C697 1.387 . S
C699 C701 1.390 . S
C699 H703 0.950 . S
H700 C696 0.950 . S
C701 C699 1.390 . S
C701 C702 1.387 . S
C701 H704 0.950 . S
C702 C701 1.387 . S
C702 C705 1.387 . S
H703 C699 0.950 . S
H704 C701 0.950 . S
C705 C696 1.390 . S
C705 H698 0.950 . S
C705 C702 1.387 . S
C706 C707 1.398 . S
C706 H710 0.950 . S
C706 C715 1.390 . S
C707 C706 1.398 . S
C707 C709 1.380 1_565 S
H708 C715 0.950 . S
C709 C707 1.380 1_545 S
C709 C711 1.390 . S
C709 H713 0.950 . S
H710 C706 0.950 . S
C711 C709 1.390 . S
C711 C712 1.387 1_545 S
C711 H714 0.950 . S
C712 C711 1.387 1_565 S
C712 C715 1.387 . S
H713 C709 0.950 . S
H714 C711 0.950 . S
C715 C706 1.390 . S
C715 H708 0.950 . S
C715 C712 1.387 . S
C716 C717 1.387 . S
C716 H720 0.950 . S
C716 C725 1.390 . S
C717 C716 1.387 . S
C717 C719 1.387 . S
H718 C725 0.950 . S
C719 C717 1.387 . S
C719 C721 1.390 . S
C719 H723 0.950 . S
H720 C716 0.950 . S
C721 C719 1.390 . S
C721 C722 1.387 . S
C721 H724 0.950 . S
C722 C721 1.387 . S
C722 C725 1.387 . S
H723 C719 0.950 . S
H724 C721 0.950 . S
C725 C716 1.390 . S
C725 H718 0.950 . S
C725 C722 1.387 . S
C726 C727 1.387 . S
C726 H730 0.950 . S
C726 C735 1.390 . S
C727 C726 1.387 . S
C727 C729 1.387 . S
H728 C735 0.950 . S
C729 C727 1.387 . S
C729 C731 1.390 . S
C729 H733 0.950 . S
H730 C726 0.950 . S
C731 C729 1.390 . S
C731 C732 1.387 . S
C731 H734 0.950 . S
C732 C731 1.387 . S
C732 C735 1.387 . S
H733 C729 0.950 . S
H734 C731 0.950 . S
C735 C726 1.390 . S
C735 H728 0.950 . S
C735 C732 1.387 . S
C736 C737 1.387 . S
C736 H740 0.950 . S
C736 C745 1.390 . S
C737 C736 1.387 . S
C737 C739 1.387 . S
H738 C745 0.950 . S
C739 C737 1.387 . S
C739 C741 1.390 . S
C739 H743 0.950 . S
H740 C736 0.950 . S
C741 C739 1.390 . S
C741 C742 1.387 . S
C741 H744 0.950 . S
C742 C741 1.387 . S
C742 C745 1.387 . S
H743 C739 0.950 . S
H744 C741 0.950 . S
C745 C736 1.390 . S
C745 H738 0.950 . S
C745 C742 1.387 . S
C746 C747 1.375 1_565 S
C746 H750 0.950 . S
C746 C755 1.390 . S
C747 C746 1.375 1_545 S
C747 C749 1.404 . S
H748 C755 0.950 . S
C749 C747 1.404 . S
C749 C751 1.390 . S
C749 H753 0.950 . S
H750 C746 0.950 . S
C751 C749 1.390 . S
C751 C752 1.387 . S
C751 H754 0.950 . S
C752 C751 1.387 . S
C752 C755 1.387 1_545 S
H753 C749 0.950 . S
H754 C751 0.950 . S
C755 C746 1.390 . S
C755 H748 0.950 . S
C755 C752 1.387 1_565 S
C756 C757 1.387 . S
C756 H760 0.950 . S
C756 C765 1.390 . S
C757 C756 1.387 . S
C757 C759 1.387 . S
H758 C765 0.950 . S
C759 C757 1.387 . S
C759 C761 1.390 . S
C759 H763 0.950 . S
H760 C756 0.950 . S
C761 C759 1.390 . S
C761 C762 1.387 . S
C761 H764 0.950 . S
C762 C761 1.387 . S
C762 C765 1.387 . S
H763 C759 0.950 . S
H764 C761 0.950 . S
C765 C756 1.390 . S
C765 H758 0.950 . S
C765 C762 1.387 . S
C766 C767 1.387 . S
C766 H770 0.950 . S
C766 C775 1.390 . S
C767 C766 1.387 . S
C767 C769 1.387 . S
H768 C775 0.950 . S
C769 C767 1.387 . S
C769 C771 1.390 . S
C769 H773 0.950 1_556 S
H770 C766 0.950 . S
C771 C769 1.390 . S
C771 C772 1.387 . S
C771 H774 0.950 . S
C772 C771 1.387 . S
C772 C775 1.387 . S
H773 C769 0.950 1_554 S
H774 C771 0.950 . S
C775 C766 1.390 . S
C775 H768 0.950 . S
C775 C772 1.387 . S
C776 C777 1.387 . S
C776 H780 0.950 1_554 S
C776 C785 1.390 . S
C777 C776 1.387 . S
C777 C779 1.387 . S
H778 C785 0.950 1_556 S
C779 C777 1.387 . S
C779 C781 1.390 . S
C779 H783 0.950 . S
H780 C776 0.950 1_556 S
C781 C779 1.390 . S
C781 C782 1.387 . S
C781 H784 0.950 . S
C782 C781 1.387 . S
C782 C785 1.387 . S
H783 C779 0.950 . S
H784 C781 0.950 . S
C785 C776 1.390 . S
C785 H778 0.950 1_554 S
C785 C782 1.387 . S
C786 C787 1.387 1_565 S
C786 H790 0.950 . S
C786 C795 1.390 . S
C787 C786 1.387 1_545 S
C787 C789 1.387 . S
H788 C795 0.950 . S
C789 C787 1.387 . S
C789 C791 1.390 . S
C789 H793 0.950 . S
H790 C786 0.950 . S
C791 C789 1.390 . S
C791 C792 1.387 . S
C791 H794 0.950 . S
C792 C791 1.387 . S
C792 C795 1.387 1_545 S
H793 C789 0.950 . S
H794 C791 0.950 . S
C795 C786 1.390 . S
C795 H788 0.950 . S
C795 C792 1.387 1_565 S
C796 C797 1.387 . S
C796 H800 0.950 1_556 S
C796 C805 1.390 . S
C797 C796 1.387 . S
C797 C799 1.387 . S
H798 C805 0.950 . S
C799 C797 1.387 . S
C799 C801 1.390 . S
C799 H803 0.950 . S
H800 C796 0.950 1_554 S
C801 C799 1.390 . S
C801 C802 1.387 . S
C801 H804 0.950 . S
C802 C801 1.387 . S
C802 C805 1.387 . S
H803 C799 0.950 . S
H804 C801 0.950 . S
C805 C796 1.390 . S
C805 H798 0.950 . S
C805 C802 1.387 . S
C806 C807 1.387 . S
C806 H810 0.950 1_556 S
C806 C815 1.390 . S
C807 C806 1.387 . S
C807 C809 1.387 . S
H808 C815 0.950 . S
C809 C807 1.387 . S
C809 C811 1.390 . S
C809 H813 0.950 . S
H810 C806 0.950 1_554 S
C811 C809 1.390 . S
C811 C812 1.387 . S
C811 H814 0.950 . S
C812 C811 1.387 . S
C812 C815 1.387 . S
H813 C809 0.950 . S
H814 C811 0.950 . S
C815 C806 1.390 . S
C815 H808 0.950 . S
C815 C812 1.387 . S
C816 C817 1.387 . S
C816 H820 0.950 . S
C816 C825 1.390 . S
C817 C816 1.387 . S
C817 C819 1.387 . S
H818 C825 0.950 . S
C819 C817 1.387 . S
C819 C821 1.390 . S
C819 H823 0.950 . S
H820 C816 0.950 . S
C821 C819 1.390 . S
C821 C822 1.387 . S
C821 H824 0.950 . S
C822 C821 1.387 . S
C822 C825 1.387 . S
H823 C819 0.950 . S
H824 C821 0.950 . S
C825 C816 1.390 . S
C825 H818 0.950 . S
C825 C822 1.387 . S
C826 C827 1.419 . S
C826 H830 0.950 . S
C826 C835 1.390 . S
C827 C826 1.419 . S
C827 C829 1.355 1_565 S
H828 C835 0.950 . S
C829 C827 1.355 1_545 S
C829 C831 1.390 . S
C829 H833 0.950 . S
H830 C826 0.950 . S
C831 C829 1.390 . S
C831 C832 1.387 1_545 S
C831 H834 0.950 . S
C832 C831 1.387 1_565 S
C832 C835 1.387 . S
H833 C829 0.950 . S
H834 C831 0.950 . S
C835 C826 1.390 . S
C835 H828 0.950 . S
C835 C832 1.387 . S
C836 C837 1.387 . S
C836 H840 0.950 . S
C836 C845 1.390 . S
C837 C836 1.387 . S
C837 C839 1.387 . S
H838 C845 0.950 . S
C839 C837 1.387 . S
C839 C841 1.390 . S
C839 H843 0.950 . S
H840 C836 0.950 . S
C841 C839 1.390 . S
C841 C842 1.387 . S
C841 H844 0.950 . S
C842 C841 1.387 . S
C842 C845 1.387 . S
H843 C839 0.950 . S
H844 C841 0.950 . S
C845 C836 1.390 . S
C845 H838 0.950 . S
C845 C842 1.387 . S
C846 C847 1.387 . S
C846 H850 0.950 . S
C846 C855 1.390 . S
C847 C846 1.387 . S
C847 C849 1.387 . S
H848 C855 0.950 . S
C849 C847 1.387 . S
C849 C851 1.390 . S
C849 H853 0.950 . S
H850 C846 0.950 . S
C851 C849 1.390 . S
C851 C852 1.387 . S
C851 H854 0.950 . S
C852 C851 1.387 . S
C852 C855 1.387 . S
H853 C849 0.950 . S
H854 C851 0.950 . S
C855 C846 1.390 . S
C855 H848 0.950 . S
C855 C852 1.387 . S
C617 C391 2.012 1_565 S
C622 C497 1.978 . S
C632 C518 1.829 . S
C627 C451 1.867 . S
C642 C552 1.778 . S
C637 C241 1.605 . S
C652 C586 1.772 . S
C647 C331 1.595 . S
C662 C488 1.978 . S
C657 C121 1.844 1_546 S
C667 C211 1.788 1_556 S
C672 C527 1.831 . S
C677 C31 1.858 . S
C682 C561 1.782 . S
C687 C91 1.686 . S
C692 C595 1.772 . S
C702 C509 1.318 . S
C697 C301 0.930 . S
C712 C514 0.844 . S
C707 C380 0.850 1_565 S
C722 C548 1.023 . S
C717 C440 1.039 . S
C727 C260 0.620 . S
C732 C582 0.573 . S
C737 C61 1.127 . S
C742 C480 1.320 1_655 S
C752 C543 0.845 . S
C747 C140 0.820 1_545 S
C762 C577 1.023 . S
C757 C200 0.967 . S
C767 C20 0.590 . S
C772 C611 0.574 . S
C777 C320 1.817 . S
C782 C493 1.908 . S
C787 C361 1.927 1_556 S
C792 C522 2.252 . S
C802 C556 1.993 . S
C797 C421 1.724 1_556 S
C812 C590 2.091 . S
C807 C271 2.036 . S
C817 C80 1.894 . S
C822 C484 1.915 . S
C832 C531 2.252 . S
C827 C151 2.196 . S
C842 C565 1.992 . S
C837 C181 1.656 . S
C847 C1 1.802 . S
C852 C599 2.091 . S
