# Generated by pormake.
# Topology zzz, (3,6)-cn, num edge types: 1
# Building blocks:
#     Node 0, Type 0, BuildingBlock: KAKCAD_clean_linker_0, # of connection points: 3
#     Node 1, Type 0, BuildingBlock: KAKCAD_clean_linker_0, # of connection points: 3
#     Node 2, Type 0, BuildingBlock: KAKCAD_clean_linker_0, # of connection points: 3
#     Node 3, Type 0, BuildingBlock: KAKCAD_clean_linker_0, # of connection points: 3
#     Node 4, Type 0, BuildingBlock: KAKCAD_clean_linker_0, # of connection points: 3
#     Node 5, Type 0, BuildingBlock: KAKCAD_clean_linker_0, # of connection points: 3
#     Node 6, Type 0, BuildingBlock: KAKCAD_clean_linker_0, # of connection points: 3
#     Node 7, Type 0, BuildingBlock: KAKCAD_clean_linker_0, # of connection points: 3
#     Node 8, Type 1, BuildingBlock: KUMJIN_clean_sbu_0, # of connection points: 6
#     Node 9, Type 1, BuildingBlock: KUMJIN_clean_sbu_0, # of connection points: 6
#     Node 10, Type 1, BuildingBlock: KUMJIN_clean_sbu_0, # of connection points: 6
#     Node 11, Type 1, BuildingBlock: KUMJIN_clean_sbu_0, # of connection points: 6
#     Edge 12, Type (0, 1), BuildingBlock: XIVTED_clean_linker_0, # of connection points: 2
#     Edge 13, Type (0, 1), BuildingBlock: XIVTED_clean_linker_0, # of connection points: 2
#     Edge 14, Type (0, 1), BuildingBlock: XIVTED_clean_linker_0, # of connection points: 2
#     Edge 15, Type (0, 1), BuildingBlock: XIVTED_clean_linker_0, # of connection points: 2
#     Edge 16, Type (0, 1), BuildingBlock: XIVTED_clean_linker_0, # of connection points: 2
#     Edge 17, Type (0, 1), BuildingBlock: XIVTED_clean_linker_0, # of connection points: 2
#     Edge 18, Type (0, 1), BuildingBlock: XIVTED_clean_linker_0, # of connection points: 2
#     Edge 19, Type (0, 1), BuildingBlock: XIVTED_clean_linker_0, # of connection points: 2
#     Edge 20, Type (0, 1), BuildingBlock: XIVTED_clean_linker_0, # of connection points: 2
#     Edge 21, Type (0, 1), BuildingBlock: XIVTED_clean_linker_0, # of connection points: 2
#     Edge 22, Type (0, 1), BuildingBlock: XIVTED_clean_linker_0, # of connection points: 2
#     Edge 23, Type (0, 1), BuildingBlock: XIVTED_clean_linker_0, # of connection points: 2
#     Edge 24, Type (0, 1), BuildingBlock: XIVTED_clean_linker_0, # of connection points: 2
#     Edge 25, Type (0, 1), BuildingBlock: XIVTED_clean_linker_0, # of connection points: 2
#     Edge 26, Type (0, 1), BuildingBlock: XIVTED_clean_linker_0, # of connection points: 2
#     Edge 27, Type (0, 1), BuildingBlock: XIVTED_clean_linker_0, # of connection points: 2
#     Edge 28, Type (0, 1), BuildingBlock: XIVTED_clean_linker_0, # of connection points: 2
#     Edge 29, Type (0, 1), BuildingBlock: XIVTED_clean_linker_0, # of connection points: 2
#     Edge 30, Type (0, 1), BuildingBlock: XIVTED_clean_linker_0, # of connection points: 2
#     Edge 31, Type (0, 1), BuildingBlock: XIVTED_clean_linker_0, # of connection points: 2
#     Edge 32, Type (0, 1), BuildingBlock: XIVTED_clean_linker_0, # of connection points: 2
#     Edge 33, Type (0, 1), BuildingBlock: XIVTED_clean_linker_0, # of connection points: 2
#     Edge 34, Type (0, 1), BuildingBlock: XIVTED_clean_linker_0, # of connection points: 2
#     Edge 35, Type (0, 1), BuildingBlock: XIVTED_clean_linker_0, # of connection points: 2
# Relax obj value: 0.296
# Max RMSD: 0.224
# Mean RMSD: 0.211
data_MOF--net-zzz--node1-KUMJIN_clean_sbu_0--node2-KAKCAD_clean_linker_0--edge1-XIVTED_clean_linker_0
_symmetry_space_group_name_H-M    P1
_symmetry_Int_Tables_number       1
_symmetry_cell_setting            triclinic
loop_
_symmetry_equiv_pos_as_xyz
'x, y, z'
_cell_length_a     57.67149
_cell_length_b     57.457035
_cell_length_c     20.066759
_cell_angle_alpha  90.797486
_cell_angle_beta   90.238662
_cell_angle_gamma 90.046376
loop_
_atom_site_label
_atom_site_type_symbol
_atom_site_fract_x
_atom_site_fract_y
_atom_site_fract_z
_atom_type_partial_charge
C0 C 0.79594 0.61267 0.96814 0.0
C1 C 0.81932 0.60592 0.97221 0.0
C2 C 0.77987 0.60487 0.01524 0.0
C3 C 0.78679 0.58967 0.06624 0.0
C4 C 0.81049 0.58409 0.07165 0.0
C5 C 0.82648 0.59232 0.02604 0.0
C6 C 0.76958 0.57748 0.10924 0.0
C7 C 0.74758 0.57109 0.08461 0.0
C8 C 0.73307 0.55586 0.11988 0.0
C9 C 0.74147 0.54587 0.17945 0.0
C10 C 0.76319 0.55283 0.20577 0.0
C11 C 0.77633 0.56938 0.17203 0.0
C12 C 0.77463 0.5415 0.26333 0.0
C13 C 0.77934 0.55461 0.32153 0.0
C14 C 0.78703 0.52079 0.2522 0.0
C15 C 0.80502 0.51432 0.29544 0.0
C16 C 0.81089 0.52833 0.35114 0.0
C17 C 0.7097 0.55024 0.09122 0.0
C18 C 0.69558 0.5683 0.0675 0.0
C19 C 0.70223 0.52714 0.08133 0.0
C20 C 0.68165 0.52228 0.04576 0.0
C21 C 0.66798 0.54041 0.01959 0.0
C22 C 0.67505 0.56349 0.03253 0.0
C23 C 0.79711 0.54797 0.36536 0.0
H24 H 0.78993 0.62311 0.92701 0.0
H25 H 0.76193 0.61006 0.00997 0.0
H26 H 0.81679 0.57195 0.10823 0.0
H27 H 0.8442 0.58622 0.02991 0.0
H28 H 0.74204 0.57695 0.03603 0.0
H29 H 0.79281 0.57476 0.19341 0.0
H30 H 0.73118 0.5331 0.20533 0.0
H31 H 0.77051 0.571 0.33029 0.0
H32 H 0.78421 0.51069 0.20688 0.0
H33 H 0.81515 0.49898 0.28335 0.0
H34 H 0.70068 0.58631 0.075 0.0
H35 H 0.7128 0.51283 0.09843 0.0
H36 H 0.80123 0.55925 0.40746 0.0
H37 H 0.6648 0.57799 0.01511 0.0
H38 H 0.67694 0.50427 0.03669 0.0
C39 C 0.9474 0.79366 0.88845 0.0
C40 C 0.95533 0.81663 0.8845 0.0
C41 C 0.94792 0.78217 0.94943 0.0
C42 C 0.95734 0.79317 1.00678 0.0
C43 C 0.96374 0.81676 1.00303 0.0
C44 C 0.96249 0.8284 0.94273 0.0
C45 C 0.96371 0.77948 0.06683 0.0
C46 C 0.97174 0.75663 0.05907 0.0
C47 C 0.98136 0.74433 0.11232 0.0
C48 C 0.98319 0.75548 0.17573 0.0
C49 C 0.97482 0.77859 0.18482 0.0
C50 C 0.96468 0.78995 0.13035 0.0
C51 C 0.97775 0.79258 0.24793 0.0
C52 C 0.95854 0.80437 0.27522 0.0
C53 C 0.99995 0.79853 0.27195 0.0
C54 C 1.00291 0.81679 0.31895 0.0
C55 C 0.98373 0.82957 0.34331 0.0
C56 C 0.98971 0.72021 0.09666 0.0
C57 C 0.97826 0.70061 0.12201 0.0
C58 C 1.00488 0.7169 0.04246 0.0
C59 C 0.0069 0.69517 0.01056 0.0
C60 C 0.99424 0.67593 0.03283 0.0
C61 C 0.98066 0.6786 0.09066 0.0
C62 C 0.96145 0.8225 0.32209 0.0
H63 H 0.94174 0.78434 0.84398 0.0
H64 H 0.94207 0.76428 0.95065 0.0
H65 H 0.9714 0.82589 0.04518 0.0
H66 H 0.96897 0.84608 0.94056 0.0
H67 H 0.97141 0.74841 0.01017 0.0
H68 H 0.95839 0.80759 0.13709 0.0
H69 H 0.99122 0.7465 0.21691 0.0
H70 H 0.94122 0.80046 0.25717 0.0
H71 H 0.01514 0.7901 0.25123 0.0
H72 H 0.02034 0.8213 0.33468 0.0
H73 H 0.96612 0.70262 0.16271 0.0
H74 H 0.0138 0.73166 0.02133 0.0
H75 H 0.94619 0.83185 0.33862 0.0
H76 H 0.97072 0.66403 0.10895 0.0
H77 H 0.01766 0.69361 0.96658 0.0
C78 C 0.71603 0.91725 0.96165 0.0
C79 C 0.69346 0.92627 0.95694 0.0
C80 C 0.73012 0.92299 0.01647 0.0
C81 C 0.72209 0.93837 0.06665 0.0
C82 C 0.69876 0.94552 0.06439 0.0
C83 C 0.6846 0.93934 0.01067 0.0
C84 C 0.73841 0.94971 0.11523 0.0
C85 C 0.7611 0.95533 0.09602 0.0
C86 C 0.7754 0.96975 0.13585 0.0
C87 C 0.76626 0.9796 0.19519 0.0
C88 C 0.74369 0.97352 0.216 0.0
C89 C 0.73043 0.95801 0.17704 0.0
C90 C 0.73187 0.98467 0.27369 0.0
C91 C 0.72735 0.97168 0.33094 0.0
C92 C 0.71952 1.00538 0.2639 0.0
C93 C 0.70195 0.0122 0.30812 0.0
C94 C 0.69631 0.99849 0.3636 0.0
C95 C 0.79926 0.97479 0.11111 0.0
C96 C 0.81292 0.95632 0.08654 0.0
C97 C 0.80717 0.99771 0.10222 0.0
C98 C 0.82748 1.00199 0.06551 0.0
C99 C 0.84013 0.98343 0.0368 0.0
C100 C 0.83298 0.96056 0.04982 0.0
C101 C 0.70998 0.97863 0.37576 0.0
H102 H 0.72323 0.90699 0.92105 0.0
H103 H 0.74771 0.91646 0.0174 0.0
H104 H 0.69176 0.95759 0.10092 0.0
H105 H 0.66741 0.94688 1.00827 0.0
H106 H 0.76741 0.94959 0.04776 0.0
H107 H 0.71316 0.9535 0.19366 0.0
H108 H 0.77655 0.99168 0.22486 0.0
H109 H 0.73627 0.95535 0.33881 0.0
H110 H 0.72216 0.0153 0.21904 0.0
H111 H 0.6918 0.0274 0.29596 0.0
H112 H 0.80746 0.93845 0.09317 0.0
H113 H 0.79696 0.0123 0.12007 0.0
H114 H 0.70668 0.96785 0.4185 0.0
H115 H 0.84256 0.94585 0.02982 0.0
H116 H 0.83253 0.01982 0.05647 0.0
C117 C 0.52087 0.70884 0.29388 0.0
C118 C 0.53136 0.70862 0.35739 0.0
C119 C 0.52696 0.72564 0.24712 0.0
C120 C 0.54352 0.74285 0.26261 0.0
C121 C 0.553 0.74363 0.32717 0.0
C122 C 0.54699 0.72672 0.37408 0.0
C123 C 0.55483 0.75563 0.20754 0.0
C124 C 0.55196 0.77974 0.19731 0.0
C125 C 0.56327 0.7906 0.14348 0.0
C126 C 0.57749 0.77713 0.10115 0.0
C127 C 0.57983 0.75304 0.10939 0.0
C128 C 0.56845 0.7426 0.16302 0.0
C129 C 0.59193 0.73823 0.05861 0.0
C130 C 0.59057 0.74346 0.99038 0.0
C131 C 0.60246 0.7172 0.07699 0.0
C132 C 0.60822 0.70046 0.02883 0.0
C133 C 0.60428 0.70457 0.96062 0.0
C134 C 0.5593 0.81543 0.12578 0.0
C135 C 0.5368 0.82368 0.11293 0.0
C136 C 0.57827 0.82964 0.1095 0.0
C137 C 0.57495 0.85072 0.07672 0.0
C138 C 0.55256 0.85822 0.05916 0.0
C139 C 0.53346 0.84486 0.07996 0.0
C140 C 0.59712 0.72701 0.94207 0.0
H141 H 0.50901 0.69514 0.27855 0.0
H142 H 0.51979 0.72432 0.19721 0.0
H143 H 0.56618 0.7564 0.33996 0.0
H144 H 0.55521 0.72736 0.42268 0.0
H145 H 0.54089 0.78983 0.23022 0.0
H146 H 0.56948 0.72394 0.16952 0.0
H147 H 0.58609 0.78541 0.05984 0.0
H148 H 0.58287 0.75952 0.97361 0.0
H149 H 0.60486 0.71294 0.12896 0.0
H150 H 0.6139 0.68367 0.04622 0.0
H151 H 0.52186 0.81301 0.12411 0.0
H152 H 0.59582 0.82382 0.11912 0.0
H153 H 0.5949 0.73142 0.8902 0.0
H154 H 0.51596 0.85002 0.06723 0.0
H155 H 0.59005 0.86078 0.0631 0.0
C156 C 0.21648 0.43181 0.32807 0.0
C157 C 0.20081 0.41464 0.30494 0.0
C158 C 0.23495 0.4389 0.28846 0.0
C159 C 0.23801 0.42915 0.2247 0.0
C160 C 0.22409 0.41024 0.20456 0.0
C161 C 0.20584 0.40284 0.24473 0.0
C162 C 0.25246 0.44153 0.17579 0.0
C163 C 0.27512 0.44843 0.19135 0.0
C164 C 0.28761 0.4631 0.14887 0.0
C165 C 0.2767 0.47146 0.09038 0.0
C166 C 0.25396 0.46401 0.07348 0.0
C167 C 0.24227 0.44901 0.11651 0.0
C168 C 0.24105 0.47184 0.01318 0.0
C169 C 0.23491 0.4953 1.0052 0.0
C170 C 0.23051 0.45504 0.97136 0.0
C171 C 0.21315 0.46121 0.92602 0.0
C172 C 0.20576 0.48448 0.92069 0.0
C173 C 0.31183 0.46928 0.16858 0.0
C174 C 0.31829 0.49241 0.18287 0.0
C175 C 0.32755 0.4514 0.18376 0.0
C176 C 0.34864 0.45632 0.21565 0.0
C177 C 0.35464 0.47929 0.23394 0.0
C178 C 0.33947 0.49737 0.21526 0.0
C179 C 0.21749 0.50156 0.95944 0.0
H180 H 0.21334 0.44152 0.37374 0.0
H181 H 0.24541 0.45355 0.30508 0.0
H182 H 0.22639 0.40222 0.15586 0.0
H183 H 0.19466 0.38904 0.22616 0.0
H184 H 0.28291 0.44272 0.2376 0.0
H185 H 0.22447 0.44411 0.10544 0.0
H186 H 0.28595 0.4831 0.05781 0.0
H187 H 0.24249 0.5086 0.03729 0.0
H188 H 0.23469 0.43678 0.97682 0.0
H189 H 0.20459 0.44739 0.89819 0.0
H190 H 0.3064 0.5065 0.17258 0.0
H191 H 0.32306 0.4334 0.17322 0.0
H192 H 0.21271 0.51972 0.95609 0.0
H193 H 0.34339 0.51527 0.2286 0.0
H194 H 0.36003 0.44196 0.22738 0.0
C195 C 0.09709 0.2319 0.32785 0.0
C196 C 0.11169 0.21389 0.30487 0.0
C197 C 0.08767 0.24783 0.28362 0.0
C198 C 0.09257 0.24618 0.21528 0.0
C199 C 0.1092 0.22995 0.19335 0.0
C200 C 0.11879 0.21403 0.23783 0.0
C201 C 0.07769 0.25876 0.16714 0.0
C202 C 0.07062 0.28165 0.18041 0.0
C203 C 0.05331 0.29237 0.14206 0.0
C204 C 0.04289 0.27958 0.08869 0.0
C205 C 0.05072 0.25673 0.07297 0.0
C206 C 0.06804 0.24672 0.11257 0.0
C207 C 0.04117 0.24196 0.01743 0.0
C208 C 0.01951 0.23098 0.02339 0.0
C209 C 0.05614 0.23429 0.96652 0.0
C210 C 0.05012 0.21548 0.92457 0.0
C211 C 0.02898 0.20354 0.93251 0.0
C212 C 0.04642 0.31658 0.16213 0.0
C213 C 0.02386 0.32167 0.18425 0.0
C214 C 0.06375 0.33359 0.17173 0.0
C215 C 0.0591 0.35445 0.20609 0.0
C216 C 0.03693 0.35904 0.23213 0.0
C217 C 0.01915 0.34268 0.21876 0.0
C218 C 0.01348 0.21202 0.98147 0.0
H219 H 0.09093 0.23245 0.37873 0.0
H220 H 0.07486 0.26004 0.30226 0.0
H221 H 0.11373 0.22865 0.1411 0.0
H222 H 0.13046 0.20082 0.21865 0.0
H223 H 0.07814 0.29098 0.22262 0.0
H224 H 0.07313 0.22883 0.10272 0.0
H225 H 0.02929 0.28741 0.05916 0.0
H226 H 0.00784 0.23611 0.06312 0.0
H227 H 0.07319 0.24201 0.96176 0.0
H228 H 0.06273 0.2095 0.8884 0.0
H229 H 0.01023 0.30881 0.17866 0.0
H230 H 0.08133 0.33021 0.15536 0.0
H231 H 0.9969 0.2036 0.98874 0.0
H232 H 1.00186 0.34551 0.23803 0.0
H233 H 0.07313 0.36676 0.21371 0.0
C234 C 0.2992 0.09588 0.33366 0.0
C235 C 0.31759 0.11104 0.31892 0.0
C236 C 0.28354 0.0889 0.28428 0.0
C237 C 0.28575 0.09698 0.21883 0.0
C238 C 0.30254 0.11409 0.20577 0.0
C239 C 0.31831 0.12106 0.25538 0.0
C240 C 0.27305 0.08487 0.16369 0.0
C241 C 0.25052 0.07654 0.17343 0.0
C242 C 0.24024 0.06075 0.12826 0.0
C243 C 0.2525 0.05384 0.07038 0.0
C244 C 0.27492 0.06292 0.05827 0.0
C245 C 0.28485 0.07836 0.10538 0.0
C246 C 0.28965 0.0552 1.00093 0.0
C247 C 0.29408 0.03149 0.98854 0.0
C248 C 0.30253 0.07176 0.96563 0.0
C249 C 0.3204 0.06493 0.9226 0.0
C250 C 0.32596 0.04126 0.91328 0.0
C251 C 0.21775 0.05031 0.148 0.0
C252 C 0.21705 0.03667 0.20546 0.0
C253 C 0.19675 0.05773 0.11976 0.0
C254 C 0.1755 0.0525 0.15045 0.0
C255 C 0.17485 0.03983 0.21024 0.0
C256 C 0.19598 0.03151 0.23612 0.0
C257 C 0.31203 0.0246 0.9453 0.0
H258 H 0.29812 0.0875 0.38155 0.0
H259 H 0.27103 0.07556 0.29633 0.0
H260 H 0.30435 0.12106 0.15619 0.0
H261 H 0.33199 0.13312 0.24269 0.0
H262 H 0.2412 0.08152 0.21825 0.0
H263 H 0.30263 0.08396 0.09881 0.0
H264 H 0.24491 0.04123 0.03607 0.0
H265 H 0.28462 0.01829 0.01526 0.0
H266 H 0.29955 0.09019 0.97399 0.0
H267 H 0.33067 0.07837 0.89961 0.0
H268 H 0.23303 0.03116 0.22904 0.0
H269 H 0.19684 0.06865 0.07619 0.0
H270 H 0.3154 1.00619 0.9385 0.0
H271 H 0.1965 0.02209 0.28245 0.0
H272 H 0.15966 0.05896 0.12831 0.0
C273 C 0.45937 0.30545 0.87447 0.0
C274 C 0.48293 0.31168 0.86953 0.0
C275 C 0.45194 0.28962 0.9223 0.0
C276 C 0.46774 0.27969 0.96728 0.0
C277 C 0.49149 0.28418 0.95872 0.0
C278 C 0.49901 0.29993 0.91031 0.0
C279 C 0.45911 0.27013 0.03141 0.0
C280 C 0.46732 0.24918 0.05909 0.0
C281 C 0.46087 0.24297 0.12447 0.0
C282 C 0.44706 0.25842 0.16231 0.0
C283 C 0.439 0.27942 0.13581 0.0
C284 C 0.44417 0.28431 0.06918 0.0
C285 C 0.42773 0.29754 0.17929 0.0
C286 C 0.41494 0.29165 0.23655 0.0
C287 C 0.43161 0.32129 0.16682 0.0
C288 C 0.42374 0.33843 0.21064 0.0
C289 C 0.41237 0.33249 0.26963 0.0
C290 C 0.46862 0.22086 0.15597 0.0
C291 C 0.46483 0.1991 0.12473 0.0
C292 C 0.47706 0.22132 0.22187 0.0
C293 C 0.47999 0.20076 0.25729 0.0
C294 C 0.47474 0.17904 0.22783 0.0
C295 C 0.46791 0.17836 0.16031 0.0
C296 C 0.40771 0.30896 0.28194 0.0
H297 H 0.44628 0.314 0.84479 0.0
H298 H 0.4335 0.28655 0.92768 0.0
H299 H 0.5041 0.27697 0.99283 0.0
H300 H 0.51736 0.30366 0.90706 0.0
H301 H 0.4789 0.23808 0.03059 0.0
H302 H 0.43765 0.30014 0.04729 0.0
H303 H 0.44314 0.25422 0.21344 0.0
H304 H 0.41111 0.27369 0.24763 0.0
H305 H 0.44201 0.32692 0.12533 0.0
H306 H 0.42823 0.35637 0.20074 0.0
H307 H 0.45824 0.19816 0.07414 0.0
H308 H 0.48056 0.23776 0.24706 0.0
H309 H 0.39917 0.30396 0.32753 0.0
H310 H 0.46378 0.16191 0.13606 0.0
H311 H 0.48585 0.20191 0.30859 0.0
Eu312 Eu 0.02838 0.01042 0.685 0.0
C313 C 0.94117 0.99468 0.51686 0.0
C314 C 0.95487 0.96811 0.43121 0.0
C315 C 0.91494 0.9658 0.46852 0.0
C316 C 0.9589 0.98654 0.47712 0.0
C317 C 0.91879 0.98484 0.51181 0.0
C318 C 0.93297 0.95743 0.42829 0.0
C319 C 0.90516 0.01478 0.58757 0.0
N320 N 0.94547 0.01313 0.55774 0.0
C321 C 0.9276 0.02396 0.59056 0.0
C322 C 0.90079 0.99489 0.54881 0.0
Eu323 Eu 0.98427 0.02725 0.56381 0.0
N324 N 0.97984 0.99727 0.48133 0.0
C325 C 0.9971 0.9912 0.43793 0.0
C326 C 0.97281 0.96129 0.38862 0.0
C327 C 0.99389 0.97314 0.39132 0.0
H328 H 0.93094 0.03923 0.62126 0.0
H329 H 0.00782 0.9682 0.35803 0.0
H330 H 0.92965 0.94308 0.39396 0.0
H331 H 0.89127 0.02302 0.61527 0.0
H332 H 0.01366 0.99977 0.43928 0.0
H333 H 0.00982 0.9956 0.94843 0.0
H334 H 0.97044 0.94719 0.35281 0.0
H335 H 0.06066 0.05347 0.6169 0.0
H336 H 0.01121 0.98603 0.82813 0.0
H337 H 0.08084 0.08904 0.65171 0.0
H338 H 0.89795 0.95783 0.4645 0.0
H339 H 0.02584 0.03299 0.9904 0.0
H340 H 0.04698 0.07011 0.96674 0.0
H341 H 0.88338 0.98784 0.54634 0.0
H342 H 0.06676 0.09515 0.88643 0.0
N343 N 0.02694 0.01815 0.80179 0.0
C344 C 0.01816 1.00249 0.84597 0.0
C345 C 0.0264 0.02892 0.93754 0.0
C346 C 0.03672 0.0442 0.89278 0.0
C347 C 0.01736 1.00781 0.91409 0.0
C348 C 0.03696 0.0381 0.82437 0.0
H349 H 0.07995 0.10205 0.76958 0.0
N350 N 0.04833 0.04548 0.71403 0.0
C351 C 0.07175 0.0788 0.68821 0.0
C352 C 0.04821 0.05207 0.77929 0.0
C353 C 0.0602 0.0584 0.66866 0.0
C354 C 0.07119 0.0861 0.75471 0.0
C355 C 0.05939 0.07269 0.80126 0.0
O356 O 0.06348 0.9989 0.65874 0.0
O357 O 0.00795 0.99879 0.59502 0.0
O358 O 0.96602 0.00994 0.65107 0.0
O359 O 0.99323 0.01157 0.73747 0.0
O360 O 0.00856 0.97629 0.6743 0.0
O361 O 0.0455 0.98251 0.73895 0.0
O362 O 0.96237 0.05701 0.54057 0.0
O363 O 0.01031 0.04059 0.63951 0.0
O364 O 0.04665 0.01571 0.58671 0.0
O365 O 0.01952 0.03141 0.5136 0.0
O366 O 0.97689 0.05384 0.64548 0.0
O367 O 0.98976 0.04728 0.47327 0.0
C368 C 1.00139 0.97893 0.61394 0.0
C369 C 0.06584 0.95789 0.66397 0.0
C370 C 0.05005 0.9192 0.63786 0.0
C371 C 0.05061 0.93951 0.67776 0.0
C372 C 0.06647 0.91662 0.58672 0.0
C373 C 0.08219 0.95492 0.61295 0.0
C374 C 0.08262 0.93428 0.5751 0.0
C375 C 0.97174 0.00888 0.71499 0.0
C376 C 0.0626 0.98087 0.69714 0.0
C377 C 0.05852 0.07925 0.86886 0.0
C378 C 0.04719 0.06503 0.91454 0.0
C379 C 0.99733 0.05474 0.67106 0.0
C380 C 0.98372 0.08752 0.4957 0.0
C381 C 0.0076 0.09242 0.49348 0.0
C382 C 0.01578 0.11519 0.50437 0.0
C383 C 0.99978 0.13303 0.51859 0.0
C384 C 0.96804 0.10564 0.50902 0.0
C385 C 0.97607 0.12824 0.52075 0.0
C386 C 0.04084 0.02466 0.52868 0.0
C387 C 0.97507 0.06341 0.49091 0.0
H388 H 0.03856 0.94132 0.7187 0.0
H389 H 0.06648 0.90131 0.55468 0.0
H390 H 0.09423 0.96874 0.60132 0.0
H391 H 0.09509 0.93226 0.53528 0.0
H392 H 0.01992 0.07856 0.48438 0.0
H393 H 1.0055 0.15083 0.52611 0.0
H394 H 0.94959 0.10221 0.51166 0.0
H395 H 0.96388 0.14211 0.53129 0.0
Eu396 Eu 0.51285 0.04169 0.69159 0.0
C397 C 0.54316 0.94786 0.55448 0.0
C398 C 0.56813 0.95806 0.46276 0.0
C399 C 0.57398 0.92152 0.51992 0.0
C400 C 0.54959 0.9634 0.50607 0.0
C401 C 0.55494 0.9265 0.5611 0.0
C402 C 0.58057 0.93728 0.47084 0.0
C403 C 0.52707 0.91579 0.6449 0.0
N404 N 0.52471 0.95318 0.59333 0.0
C405 C 0.51592 0.93715 0.63625 0.0
C406 C 0.54687 0.91057 0.60781 0.0
Eu407 Eu 0.50741 0.99022 0.57919 0.0
N408 N 0.5373 0.98341 0.49994 0.0
C409 C 0.54171 0.99806 0.44844 0.0
C410 C 0.5734 0.97361 0.412 0.0
C411 C 0.55994 0.99356 0.40436 0.0
H412 H 0.50074 0.94124 0.66555 0.0
H413 H 0.56366 1.00556 0.3647 0.0
H414 H 0.59502 0.93303 0.43854 0.0
H415 H 0.52045 0.90344 0.68033 0.0
H416 H 0.53167 0.0136 0.44165 0.0
H417 H 0.46175 0.02439 0.91639 0.0
H418 H 0.58756 0.97021 0.37792 0.0
H419 H 0.51714 0.09212 0.61088 0.0
H420 H 0.49346 0.01862 0.83769 0.0
H421 H 0.49562 0.12909 0.60001 0.0
H422 H 0.5834 0.90531 0.52468 0.0
H423 H 0.4349 0.05754 0.90363 0.0
H424 H 0.42431 0.09398 0.84335 0.0
H425 H 0.55548 0.894 0.6145 0.0
H426 H 0.43358 0.12262 0.75739 0.0
N427 N 0.48434 0.04724 0.77644 0.0
C428 C 0.48184 0.03284 0.82963 0.0
C429 C 0.4488 0.05496 0.86811 0.0
C430 C 0.45237 0.07062 0.81649 0.0
C431 C 0.46389 0.03624 0.8754 0.0
C432 C 0.47065 0.06637 0.77133 0.0
H433 H 0.46044 0.13612 0.66751 0.0
N434 N 0.49419 0.07834 0.68312 0.0
C435 C 0.48977 0.11609 0.63465 0.0
C436 C 0.47573 0.08241 0.72302 0.0
C437 C 0.50196 0.09521 0.64116 0.0
C438 C 0.46988 0.11994 0.67261 0.0
C439 C 0.46285 0.10319 0.71835 0.0
O440 O 0.53655 0.06981 0.71963 0.0
O441 O 0.531 0.01712 0.62229 0.0
O442 O 0.52981 0.98097 0.66808 0.0
O443 O 0.51584 1.00709 0.74802 0.0
O444 O 0.53914 0.05183 0.61243 0.0
O445 O 0.53846 0.03719 0.7712 0.0
O446 O 0.48051 0.96452 0.55763 0.0
O447 O 0.48919 0.01554 0.64599 0.0
O448 O 0.49127 0.05137 0.60106 0.0
O449 O 0.50327 0.02424 0.52099 0.0
O450 O 0.47918 0.9813 0.65441 0.0
O451 O 0.48871 0.99068 0.48443 0.0
C452 C 0.54404 0.03105 0.59214 0.0
C453 C 0.57384 0.05405 0.73481 0.0
C454 C 0.60693 0.02876 0.70919 0.0
C455 C 0.58563 0.0328 0.74159 0.0
C456 C 0.61651 0.04668 0.67082 0.0
C457 C 0.58431 0.07193 0.69838 0.0
C458 C 0.60544 0.06818 0.6665 0.0
C459 C 0.52603 0.98713 0.73087 0.0
C460 C 0.54935 0.05635 0.75622 0.0
C461 C 0.44388 0.10691 0.76079 0.0
C462 C 0.43862 0.09062 0.80975 0.0
C463 C 0.47522 1.00225 0.67485 0.0
C464 C 0.4492 0.98114 0.5017 0.0
C465 C 0.44227 1.00459 0.5036 0.0
C466 C 0.41873 0.01055 0.50781 0.0
C467 C 0.40211 0.99266 0.51132 0.0
C468 C 0.43237 0.96357 0.50475 0.0
C469 C 0.40894 0.96935 0.50976 0.0
C470 C 0.49394 0.04459 0.53821 0.0
C471 C 0.47391 0.97487 0.50345 0.0
H472 H 0.57796 0.01931 0.7715 0.0
H473 H 0.63246 0.04412 0.64348 0.0
H474 H 0.57568 0.0885 0.69213 0.0
H475 H 0.61301 0.08183 0.63699 0.0
H476 H 0.45515 0.01825 0.50242 0.0
H477 H 0.38378 0.99664 0.51337 0.0
H478 H 0.43741 0.94541 0.50439 0.0
H479 H 0.39602 0.95572 0.51217 0.0
Eu480 Eu 0.54013 0.50675 0.57601 0.0
C481 C 0.43774 0.48389 0.65398 0.0
C482 C 0.41278 0.50231 0.5731 0.0
C483 C 0.40067 0.46625 0.62436 0.0
C484 C 0.43372 0.50165 0.60975 0.0
C485 C 0.42103 0.46627 0.66301 0.0
C486 C 0.39656 0.48424 0.57945 0.0
C487 C 0.44481 0.45119 0.75189 0.0
N488 N 0.45751 0.48444 0.69064 0.0
C489 C 0.46078 0.46906 0.7413 0.0
C490 C 0.425 0.44957 0.71188 0.0
Eu491 Eu 0.48474 0.51415 0.66676 0.0
N492 N 0.44988 0.51874 0.60433 0.0
C493 C 0.44521 0.53792 0.5671 0.0
C494 C 0.40856 0.52133 0.5321 0.0
C495 C 0.4247 0.53938 0.52993 0.0
H496 H 0.47624 0.47012 0.77186 0.0
H497 H 0.42141 0.55442 0.49942 0.0
H498 H 0.38055 0.4843 0.55099 0.0
H499 H 0.44784 0.43863 0.79067 0.0
H500 H 0.45721 0.55215 0.56491 0.0
H501 H 0.60276 0.46799 0.74825 0.0
H502 H 0.39274 0.52246 0.50301 0.0
H503 H 0.54899 0.54948 0.46728 0.0
H504 H 0.5669 0.46997 0.68287 0.0
H505 H 0.57788 0.58019 0.44472 0.0
H506 H 0.38776 0.45272 0.63 0.0
H507 H 0.63195 0.49937 0.74093 0.0
H508 H 0.64473 0.53662 0.68863 0.0
H509 H 0.41261 0.43573 0.72022 0.0
H510 H 0.63792 0.56726 0.60634 0.0
N511 N 0.57477 0.50273 0.63973 0.0
C512 C 0.57918 0.48395 0.67892 0.0
C513 C 0.61611 0.50039 0.71188 0.0
C514 C 0.61215 0.51893 0.66894 0.0
C515 C 0.59968 0.48266 0.71614 0.0
C516 C 0.59116 0.51949 0.63249 0.0
H517 H 0.61324 0.58344 0.51451 0.0
N518 N 0.56757 0.53597 0.54993 0.0
C519 C 0.58074 0.56814 0.48491 0.0
C520 C 0.58737 0.53671 0.58642 0.0
C521 C 0.56447 0.55072 0.49767 0.0
C522 C 0.60062 0.56996 0.52456 0.0
C523 C 0.60436 0.55389 0.57528 0.0
O524 O 0.55261 0.50061 0.47508 0.0
O525 O 0.50159 0.50421 0.57149 0.0
O526 O 0.48989 0.47606 0.63923 0.0
O527 O 0.53009 0.47397 0.6342 0.0
O528 O 0.51714 0.51726 0.48791 0.0
O529 O 0.55077 0.47191 0.54383 0.0
O530 O 0.47165 0.51892 0.76757 0.0
O531 O 0.52331 0.51693 0.67137 0.0
O532 O 0.5348 0.54512 0.60008 0.0
O533 O 0.49456 0.5471 0.60874 0.0
O534 O 0.50781 0.50307 0.75395 0.0
O535 O 0.47517 0.5488 0.70351 0.0
C536 C 0.49763 0.51139 0.51362 0.0
C537 C 0.54087 0.46483 0.43086 0.0
C538 C 0.50531 0.44624 0.39137 0.0
C539 C 0.51837 0.45649 0.44313 0.0
C540 C 0.51505 0.44429 0.32735 0.0
C541 C 0.55034 0.46263 0.36691 0.0
C542 C 0.53746 0.45235 0.31541 0.0
C543 C 0.50948 0.46422 0.64341 0.0
C544 C 0.55357 0.47815 0.48203 0.0
C545 C 0.62478 0.55406 0.61365 0.0
C546 C 0.62866 0.53661 0.66042 0.0
C547 C 0.52727 0.5095 0.72901 0.0
C548 C 0.4853 0.55309 0.81783 0.0
C549 C 0.50661 0.564 0.80478 0.0
C550 C 0.52024 0.573 0.85736 0.0
C551 C 0.51242 0.5706 0.92327 0.0
C552 C 0.47774 0.55107 0.88381 0.0
C553 C 0.49131 0.55972 0.93623 0.0
C554 C 0.51508 0.55687 0.59731 0.0
C555 C 0.472 0.54152 0.76425 0.0
H556 H 0.51084 0.45845 0.49227 0.0
H557 H 0.50549 0.43611 0.28675 0.0
H558 H 0.56752 0.46927 0.35657 0.0
H559 H 0.54481 0.45073 0.26603 0.0
H560 H 0.51276 0.56525 0.75398 0.0
H561 H 0.5223 0.57773 0.9648 0.0
H562 H 0.46154 0.54238 0.89479 0.0
H563 H 0.48541 0.55807 0.98708 0.0
Eu564 Eu 0.01595 0.54215 0.59769 0.0
C565 C 0.03413 0.44148 0.69799 0.0
C566 C 0.02342 0.41453 0.60914 0.0
C567 C 0.05422 0.40444 0.68649 0.0
C568 C 0.02083 0.4362 0.64223 0.0
C569 C 0.05074 0.4255 0.72135 0.0
C570 C 0.04054 0.39893 0.6306 0.0
C571 C 0.05789 0.45143 0.81506 0.0
N572 N 0.03019 0.46187 0.73101 0.0
C573 C 0.04108 0.4666 0.79038 0.0
C574 C 0.06294 0.43091 0.78001 0.0
Eu575 Eu 1.00225 0.48716 0.68389 0.0
N576 N 1.00449 0.45168 0.62252 0.0
C577 C 0.98886 0.44571 0.57379 0.0
C578 C 0.00822 0.40885 0.55684 0.0
C579 C 0.99061 0.42435 0.53989 0.0
H580 H 0.0374 0.48249 0.81763 0.0
H581 H 0.9785 0.41996 0.50032 0.0
H582 H 0.04296 0.38233 0.6053 0.0
H583 H 0.06693 0.45557 0.86108 0.0
H584 H 0.97522 0.45759 0.56005 0.0
H585 H 0.05727 0.6018 0.77931 0.0
H586 H 0.00962 0.39238 0.53022 0.0
H587 H 0.97981 0.55782 0.47495 0.0
H588 H 0.05416 0.56709 0.70865 0.0
H589 H 0.95176 0.58903 0.44977 0.0
H590 H 0.06703 0.39203 0.70336 0.0
H591 H 0.02771 0.63276 0.77239 0.0
H592 H 0.99233 0.6485 0.71597 0.0
H593 H 0.07589 0.41912 0.79943 0.0
H594 H 0.96317 0.64485 0.62667 0.0
N595 N 0.0216 0.57635 0.66547 0.0
C596 C 0.04042 0.57961 0.70634 0.0
C597 C 0.02593 0.61717 0.74181 0.0
C598 C 0.00774 0.61472 0.69608 0.0
C599 C 0.04259 0.59971 0.74597 0.0
C600 C 1.0062 0.59399 0.65752 0.0
H601 H 0.94812 0.62292 0.52646 0.0
N602 N 0.99038 0.57284 0.56758 0.0
C603 C 0.96215 0.59 0.49478 0.0
C604 C 0.98988 0.59202 0.60743 0.0
C605 C 0.9779 0.5723 0.50938 0.0
C606 C 0.96011 0.60905 0.53822 0.0
C607 C 0.97457 0.61059 0.59429 0.0
O608 O 0.02715 0.55913 0.50667 0.0
O609 O 0.01594 0.50336 0.59165 0.0
O610 O 0.04122 0.49014 0.67315 0.0
O611 O 0.04431 0.53046 0.67161 0.0
O612 O 0.00752 0.52023 0.50481 0.0
O613 O 0.05261 0.54329 0.57069 0.0
O614 O 0.98578 0.48197 0.78052 0.0
O615 O 0.99989 0.52629 0.68721 0.0
O616 O 0.97696 0.536 0.5895 0.0
O617 O 0.97203 0.49669 0.615 0.0
O618 O 0.00807 0.51012 0.77576 0.0
O619 O 0.97092 0.46628 0.69129 0.0
C620 C 0.01095 0.50014 0.53081 0.0
C621 C 0.05758 0.53931 0.45372 0.0
C622 C 0.07358 0.50411 0.4019 0.0
C623 C 0.06615 0.51647 0.45891 0.0
C624 C 0.072 0.51486 0.3394 0.0
C625 C 0.05634 0.54969 0.39097 0.0
C626 C 0.06342 0.53746 0.33415 0.0
C627 C 0.05318 0.50952 0.68305 0.0
C628 C 0.04843 0.55198 0.51224 0.0
C629 C 0.97498 0.63055 0.63543 0.0
C630 C 0.9916 0.63263 0.68619 0.0
C631 C 1.00417 0.52989 0.74844 0.0
C632 C 0.94509 0.47764 0.7745 0.0
C633 C 0.93808 0.50098 0.76969 0.0
C634 C 0.91482 0.50705 0.78113 0.0
C635 C 0.89893 0.48964 0.7991 0.0
C636 C 0.92907 0.46056 0.79264 0.0
C637 C 0.90608 0.46659 0.80519 0.0
C638 C 0.96445 0.51665 0.5907 0.0
C639 C 0.96839 0.47037 0.75478 0.0
H640 H 0.06686 0.50822 0.5071 0.0
H641 H 0.07803 0.50611 0.2946 0.0
H642 H 0.04963 0.56718 0.38588 0.0
H643 H 0.06241 0.54558 0.28588 0.0
H644 H 0.95041 0.51416 0.75471 0.0
H645 H 0.88099 0.49393 0.80927 0.0
H646 H 0.93426 0.44249 0.79595 0.0
H647 H 0.89373 0.45334 0.81907 0.0
H648 H 0.13752 0.0699 0.22332 0.0
H649 H 0.08205 1.00137 0.52498 0.0
H650 H 0.16144 1.00239 0.28585 0.0
H651 H 0.04221 0.05159 0.41512 0.0
H652 H 0.11285 1.00416 0.44287 0.0
H653 H 0.1037 0.06573 0.29576 0.0
C654 C 0.13561 0.05405 0.25129 0.0
C655 C 0.15274 0.03658 0.24847 0.0
C656 C 0.09738 0.01458 0.43652 0.0
C657 C 0.11414 0.03206 0.33315 0.0
C658 C 0.07976 0.01311 0.48376 0.0
C659 C 0.05946 0.02642 0.47759 0.0
C660 C 0.09505 0.02976 0.38269 0.0
C661 C 0.05755 0.0411 0.42228 0.0
C662 C 0.1163 0.05179 0.29308 0.0
C663 C 0.14921 0.01665 0.28718 0.0
N664 N 0.0752 0.04256 0.37732 0.0
N665 N 0.13055 0.01508 0.32819 0.0
H666 H 0.4573 0.17365 0.353 0.0
H667 H 0.509 0.04621 0.40796 0.0
H668 H 0.49266 0.13549 0.19733 0.0
H669 H 0.46416 0.08156 0.54777 0.0
H670 H 0.50224 0.0774 0.32805 0.0
H671 H 0.45923 0.13946 0.42339 0.0
C672 C 0.46556 0.15806 0.33362 0.0
C673 C 0.4751 0.15761 0.2693 0.0
C674 C 0.49378 0.07825 0.37608 0.0
C675 C 0.47729 0.11803 0.35013 0.0
C676 C 0.49757 0.06037 0.42176 0.0
C677 C 0.4876 0.06147 0.48552 0.0
C678 C 0.47992 0.09742 0.39424 0.0
C679 C 0.47281 0.08027 0.50011 0.0
C680 C 0.46652 0.13843 0.37379 0.0
C681 C 0.48511 0.13666 0.24655 0.0
N682 N 0.46964 0.09754 0.4553 0.0
N683 N 0.48616 0.1178 0.28712 0.0
H684 H 0.37256 0.45323 0.33609 0.0
H685 H 0.48092 0.53757 0.41205 0.0
H686 H 0.38544 0.51621 0.22739 0.0
H687 H 0.46703 0.47494 0.52038 0.0
H688 H 0.44643 0.52996 0.34285 0.0
H689 H 0.4072 0.46084 0.40298 0.0
C690 C 0.38275 0.46858 0.32566 0.0
C691 C 0.37597 0.48398 0.2752 0.0
C692 C 0.45081 0.51793 0.38199 0.0
C693 C 0.41589 0.49298 0.35305 0.0
C694 C 0.47047 0.5223 0.4215 0.0
C695 C 0.47637 0.50727 0.47337 0.0
C696 C 0.43713 0.49814 0.39367 0.0
C697 C 0.46264 0.48741 0.48245 0.0
C698 C 0.40253 0.47299 0.36441 0.0
C699 C 0.38976 0.50388 0.26576 0.0
N700 N 0.44363 0.4835 0.44335 0.0
N701 N 0.40902 0.50775 0.30408 0.0
H702 H 0.99868 0.38807 0.23694 0.0
H703 H 0.04626 0.46804 0.54034 0.0
H704 H 0.06587 0.37837 0.32773 0.0
H705 H 0.98595 0.48512 0.42365 0.0
H706 H 0.05306 0.43411 0.4668 0.0
H707 H 0.99267 0.42226 0.30927 0.0
C708 C 0.01217 0.39304 0.27207 0.0
C709 C 0.03288 0.38021 0.27558 0.0
C710 C 0.03827 0.44521 0.45738 0.0
C711 C 0.02608 0.41962 0.35903 0.0
C712 C 0.03431 0.46446 0.49969 0.0
C713 C 0.01509 0.47896 0.48924 0.0
C714 C 0.02291 0.44039 0.40414 0.0
C715 C 1.00067 0.47406 0.43426 0.0
C716 C 0.00877 0.4127 0.31319 0.0
C717 C 0.04976 0.3878 0.32212 0.0
N718 N 1.00469 0.45511 0.39437 0.0
N719 N 0.04596 0.40685 0.36193 0.0
H720 H 0.84767 0.96215 0.91624 0.0
H721 H 0.9702 0.02255 0.8466 0.0
H722 H 0.87697 0.01414 0.04887 0.0
H723 H 0.93027 0.98638 0.69531 0.0
H724 H 0.93839 0.01686 0.92562 0.0
H725 H 0.87971 0.96816 0.83921 0.0
C726 C 0.86094 0.97477 0.92941 0.0
C727 C 0.85965 0.98754 0.98954 0.0
C728 C 0.9366 0.01019 0.87513 0.0
C729 C 0.8966 0.99458 0.90085 0.0
C730 C 0.95483 0.01326 0.83009 0.0
C731 C 0.95294 1.00492 0.7641 0.0
C732 C 0.91639 0.99842 0.8544 0.0
C733 C 0.93244 0.9933 0.7454 0.0
C734 C 0.87919 0.97829 0.88509 0.0
C735 C 0.87721 1.00395 1.0031 0.0
N736 N 0.91507 0.99031 0.79027 0.0
N737 N 0.89503 1.00688 0.95939 0.0
H738 H 0.51918 0.89273 0.06542 0.0
H739 H 0.55876 0.95265 0.72557 0.0
H740 H 0.57852 0.87052 0.95083 0.0
H741 H 0.5063 0.98169 0.85451 0.0
H742 H 0.56614 0.92245 0.80758 0.0
H743 H 0.51379 0.92521 0.98877 0.0
C744 C 0.5311 0.89466 0.02432 0.0
C745 C 0.5494 0.87881 0.01502 0.0
C746 C 0.55315 0.93556 0.81836 0.0
C747 C 0.5433 0.91604 0.92674 0.0
C748 C 0.54895 0.95288 0.77149 0.0
C749 C 0.532 0.96999 0.78321 0.0
C750 C 0.54013 0.93506 0.87742 0.0
C751 C 0.51978 0.96922 0.8436 0.0
C752 C 0.52808 0.9133 0.9807 0.0
C753 C 0.56438 0.88241 0.96091 0.0
N754 N 0.52395 0.95198 0.8881 0.0
N755 N 0.56093 0.90049 0.91887 0.0
H756 H 0.63547 0.50526 0.0319 0.0
H757 H 0.55758 0.54622 0.72156 0.0
H758 H 0.65216 0.56422 0.90994 0.0
H759 H 0.54338 0.48452 0.83381 0.0
H760 H 0.59158 0.55383 0.79234 0.0
H761 H 0.60133 0.49782 0.96186 0.0
C762 C 0.63209 0.51662 0.99038 0.0
C763 C 0.64688 0.53549 0.97744 0.0
C764 C 0.58112 0.53856 0.80149 0.0
C765 C 0.60739 0.52717 0.89703 0.0
C766 C 0.5618 0.53413 0.76069 0.0
C767 C 0.54814 0.51427 0.77044 0.0
C768 C 0.58664 0.52323 0.85328 0.0
C769 C 0.55379 0.49975 0.82377 0.0
C770 C 0.61245 0.51242 0.95054 0.0
C771 C 0.64119 0.54972 0.92309 0.0
N772 N 0.57267 0.50441 0.86284 0.0
N773 N 0.62201 0.54528 0.88516 0.0
H774 H 0.97945 0.66997 0.90428 0.0
H775 H 0.03026 0.54252 0.85522 0.0
H776 H 0.00846 0.63199 0.06824 0.0
H777 H 0.97269 0.56596 0.73655 0.0
H778 H 0.02624 0.57711 0.92718 0.0
H779 H 0.9802 0.6342 0.83558 0.0
C780 C 0.98595 0.65406 0.9258 0.0
C781 C 0.99389 0.65394 0.99214 0.0
C782 C 0.01452 0.57477 0.88533 0.0
C783 C 0.99529 0.61305 0.91319 0.0
C784 C 0.01689 0.55513 0.84393 0.0
C785 C 1.00237 0.55183 0.78825 0.0
C786 C 0.9974 0.59138 0.87136 0.0
C787 C 0.98486 0.56833 0.77731 0.0
C788 C 0.98631 0.63366 0.88661 0.0
C789 C 1.0021 0.63283 0.0175 0.0
N790 N 0.98303 0.58755 0.81794 0.0
N791 N 1.00287 0.61333 0.97781 0.0
H792 H 0.11242 0.16813 0.26312 0.0
H793 H 0.04338 0.14401 0.5811 0.0
H794 H 0.1171 0.21071 0.44171 0.0
H795 H 0.04494 0.09916 0.40696 0.0
H796 H 0.08037 0.16087 0.54747 0.0
H797 H 0.10052 0.13554 0.32978 0.0
C798 C 0.1118 0.17057 0.31666 0.0
C799 C 0.11457 0.19273 0.34625 0.0
C800 C 0.07296 0.14691 0.51747 0.0
C801 C 0.09972 0.15544 0.42271 0.0
C802 C 0.05175 0.13741 0.53645 0.0
C803 C 0.04065 0.12086 0.4953 0.0
C804 C 0.08285 0.14007 0.45634 0.0
C805 C 0.05263 0.11225 0.43949 0.0
C806 C 0.10469 0.15183 0.3549 0.0
C807 C 0.11384 0.19431 0.41618 0.0
N808 N 0.07278 0.12239 0.4207 0.0
N809 N 0.1056 0.17618 0.45185 0.0
H810 H 0.31876 0.11234 0.45658 0.0
H811 H 0.43618 0.04416 0.42641 0.0
H812 H 0.36354 0.11079 0.28471 0.0
H813 H 0.38453 0.0333 0.57792 0.0
H814 H 0.41806 0.08122 0.40007 0.0
H815 H 0.35062 0.09719 0.52392 0.0
C816 C 0.33547 0.10953 0.43336 0.0
C817 C 0.3381 0.11181 0.36415 0.0
C818 C 0.41097 0.07098 0.4401 0.0
C819 C 0.37454 0.09459 0.44087 0.0
C820 C 0.42137 0.04981 0.45539 0.0
C821 C 0.41131 0.03519 0.50279 0.0
C822 C 0.39023 0.07741 0.47178 0.0
C823 C 0.39226 0.0436 0.53908 0.0
C824 C 0.35365 0.1009 0.4719 0.0
C825 C 0.36041 0.10882 0.33745 0.0
N826 N 0.38199 0.06392 0.52177 0.0
N827 N 0.37758 0.09973 0.37546 0.0
H828 H 0.39135 0.37498 0.2595 0.0
H829 H 0.49198 0.41779 0.49269 0.0
H830 H 0.42919 0.33205 0.39654 0.0
H831 H 0.46566 0.45241 0.31879 0.0
H832 H 0.45671 0.39399 0.495 0.0
H833 H 0.40442 0.40958 0.32117 0.0
C834 C 0.40152 0.37281 0.3045 0.0
C835 C 0.40991 0.35077 0.32174 0.0
C836 C 0.45836 0.40728 0.45753 0.0
C837 C 0.42555 0.3901 0.39077 0.0
C838 C 0.47847 0.42084 0.45617 0.0
C839 C 0.48203 0.43639 0.40387 0.0
C840 C 0.44187 0.40935 0.40619 0.0
C841 C 0.46392 0.43991 0.35837 0.0
C842 C 0.40915 0.39255 0.33938 0.0
C843 C 0.42276 0.34881 0.38086 0.0
N844 N 0.4448 0.42617 0.35979 0.0
N845 N 0.4309 0.36832 0.41206 0.0
H846 H 0.15902 0.40619 0.24234 0.0
H847 H 0.10309 0.48889 0.4999 0.0
H848 H 0.18829 0.41974 0.43765 0.0
H849 H 0.06957 0.46614 0.31757 0.0
H850 H 0.12822 0.45496 0.494 0.0
H851 H 0.12132 0.41728 0.28396 0.0
C852 C 0.15758 0.41075 0.29466 0.0
C853 C 0.17733 0.41301 0.33563 0.0
C854 C 0.11505 0.45707 0.45596 0.0
C855 C 0.1339 0.4269 0.38284 0.0
C856 C 0.10058 0.47649 0.45939 0.0
C857 C 0.08481 0.48094 0.40756 0.0
C858 C 0.11401 0.44222 0.39978 0.0
C859 C 0.08227 0.46402 0.35688 0.0
C860 C 0.13585 0.41736 0.31833 0.0
C861 C 0.17385 0.41889 0.40311 0.0
N862 N 0.09711 0.44572 0.35338 0.0
N863 N 0.15272 0.4264 0.42406 0.0
H864 H 0.93898 0.85778 0.8376 0.0
H865 H 0.05264 0.8712 0.62559 0.0
H866 H 0.98387 0.80033 0.78745 0.0
H867 H 1.00511 0.92671 0.67549 0.0
H868 H 0.02311 0.84301 0.65867 0.0
H869 H 0.95717 0.8807 0.75062 0.0
C870 C 0.95218 0.8498 0.80656 0.0
C871 C 0.96018 0.82735 0.81981 0.0
C872 C 0.01904 0.8614 0.66094 0.0
C873 C 0.98189 0.85366 0.72267 0.0
C874 C 0.03591 0.87752 0.64204 0.0
C875 C 0.03163 0.9015 0.64897 0.0
C876 C 0.99782 0.86936 0.68693 0.0
C877 C 0.00955 0.90853 0.67055 0.0
C878 C 0.96273 0.86288 0.75725 0.0
C879 C 0.97733 0.81767 0.77856 0.0
N880 N 0.99367 0.89262 0.68941 0.0
N881 N 0.98811 0.83112 0.7329 0.0
H882 H 0.71147 0.93771 0.83669 0.0
H883 H 0.58849 0.9847 0.72558 0.0
H884 H 0.64724 0.91835 0.93044 0.0
H885 H 0.654 0.0208 0.71007 0.0
H886 H 0.60935 0.94984 0.76007 0.0
H887 H 0.68948 0.95534 0.74655 0.0
C888 C 0.69275 0.93617 0.83684 0.0
C889 C 0.68112 0.92719 0.89214 0.0
C890 C 0.61907 0.9653 0.74741 0.0
C891 C 0.65597 0.94781 0.79007 0.0
C892 C 0.6072 0.98536 0.72871 0.0
C893 C 0.61934 1.00619 0.71723 0.0
C894 C 0.64328 0.96593 0.75342 0.0
C895 C 0.64369 1.00542 0.71875 0.0
C896 C 0.6802 0.94649 0.78563 0.0
C897 C 0.65682 0.9257 0.88946 0.0
N898 N 0.65479 0.98576 0.73749 0.0
N899 N 0.64497 0.93654 0.84017 0.0
H900 H 0.57691 0.70012 0.84781 0.0
H901 H 0.56209 0.57184 0.92308 0.0
H902 H 0.6284 0.66255 0.96089 0.0
H903 H 0.52677 0.60547 0.7608 0.0
H904 H 0.59241 0.60147 0.91891 0.0
H905 H 0.56552 0.66428 0.79379 0.0
C906 C 0.58645 0.68459 0.8604 0.0
C907 C 0.60302 0.68455 0.91215 0.0
C908 C 0.57836 0.60207 0.88303 0.0
C909 C 0.58889 0.64273 0.85155 0.0
C910 C 0.56093 0.58526 0.88583 0.0
C911 C 0.54145 0.58673 0.84396 0.0
C912 C 0.5759 0.62079 0.83927 0.0
C913 C 0.54125 0.60391 0.79496 0.0
C914 C 0.57967 0.66385 0.82941 0.0
C915 C 0.61455 0.66344 0.92452 0.0
N916 N 0.55786 0.62066 0.7952 0.0
N917 N 0.6067 0.64325 0.89635 0.0
H918 H 0.8103 0.59768 0.84029 0.0
H919 H 0.93433 0.54625 0.83705 0.0
H920 H 0.8653 0.61864 0.97433 0.0
H921 H 0.87717 0.5233 0.71355 0.0
H922 H 0.91475 0.58364 0.85432 0.0
H923 H 0.83913 0.58373 0.76109 0.0
C924 C 0.82848 0.60033 0.85193 0.0
C925 C 0.83543 0.60837 0.91525 0.0
C926 C 0.90675 0.57068 0.82193 0.0
C927 C 0.86848 0.59149 0.82612 0.0
C928 C 0.91796 0.54935 0.81204 0.0
C929 C 0.90681 0.53143 0.77621 0.0
C930 C 0.88425 0.57385 0.79619 0.0
C931 C 0.88586 0.53643 0.7438 0.0
C932 C 0.84501 0.59207 0.80686 0.0
C933 C 0.85924 0.61166 0.92698 0.0
N934 N 0.87498 0.55698 0.75584 0.0
N935 N 0.87496 0.6024 0.88395 0.0
H936 H 0.04002 0.19318 0.80123 0.0
H937 H 0.98613 0.06388 0.80074 0.0
H938 H 0.00676 0.16336 0.9724 0.0
H939 H 0.02267 0.09259 0.63451 0.0
H940 H 0.99379 0.09985 0.86505 0.0
H941 H 0.03386 0.15661 0.73991 0.0
C942 C 0.03144 0.179 0.82621 0.0
C943 C 0.02395 0.18164 0.89262 0.0
C944 C 1.00036 0.09826 0.81474 0.0
C945 C 0.01664 0.13933 0.82164 0.0
C946 C 0.99611 0.07766 0.77826 0.0
C947 C 1.00454 0.07495 0.71314 0.0
C948 C 0.01254 0.11668 0.78518 0.0
C949 C 0.01656 0.09369 0.68533 0.0
C950 C 0.02787 0.15805 0.79087 0.0
C951 C 0.01258 0.16251 0.92124 0.0
N952 N 0.02022 0.11368 0.72137 0.0
N953 N 0.00934 0.14229 0.88581 0.0
H954 H 0.35663 1.00564 0.93836 0.0
H955 H 0.44675 0.03959 0.65124 0.0
H956 H 0.34428 0.06121 0.80002 0.0
H957 H 0.4538 0.97918 0.77437 0.0
H958 H 0.4097 0.04858 0.70605 0.0
H959 H 0.3924 0.99617 0.87951 0.0
C960 C 0.36118 0.0157 0.8951 0.0
C961 C 0.34714 0.03429 0.87443 0.0
C962 C 0.41938 0.03342 0.72138 0.0
C963 C 0.38876 0.02373 0.80712 0.0
C964 C 0.44063 0.02843 0.69055 0.0
C965 C 0.45363 0.009 0.70984 0.0
C966 C 0.41107 0.01884 0.77182 0.0
C967 C 0.44449 0.99459 0.75907 0.0
C968 C 0.38182 0.01038 0.86175 0.0
C969 C 0.35454 0.04693 0.81868 0.0
N970 N 0.42394 0.99989 0.78872 0.0
N971 N 0.37479 0.04148 0.78726 0.0
H972 H 0.51781 0.34383 0.89295 0.0
H973 H 0.47439 0.43303 0.62 0.0
H974 H 0.46431 0.32636 0.74941 0.0
H975 H 0.54072 0.43965 0.7183 0.0
H976 H 0.46991 0.39426 0.66772 0.0
H977 H 0.5264 0.37885 0.8304 0.0
C978 C 0.50808 0.34699 0.84776 0.0
C979 C 0.49013 0.33184 0.82716 0.0
C980 C 0.4856 0.40404 0.67819 0.0
C981 C 0.49959 0.37275 0.75594 0.0
C982 C 0.48816 0.4262 0.65098 0.0
C983 C 0.508 0.43962 0.66508 0.0
C984 C 0.50282 0.39531 0.72087 0.0
C985 C 0.52526 0.42987 0.70555 0.0
C986 C 0.51292 0.36723 0.81226 0.0
C987 C 0.47793 0.33756 0.7686 0.0
N988 N 0.52215 0.40847 0.73267 0.0
N989 N 0.4827 0.35759 0.73568 0.0
H990 H 0.19116 0.46429 0.8015 0.0
H991 H 0.07507 0.54009 0.76905 0.0
H992 H 0.17205 0.51788 0.94393 0.0
H993 H 0.08463 0.47409 0.66824 0.0
H994 H 0.11307 0.53562 0.82229 0.0
H995 H 0.15489 0.47103 0.74158 0.0
C996 C 0.17945 0.47749 0.82044 0.0
C997 C 0.18487 0.49031 0.87884 0.0
C998 C 0.10696 0.5222 0.7881 0.0
C999 C 0.14313 0.49843 0.80884 0.0
C1000 C 0.08533 0.52488 0.75702 0.0
C1001 C 0.07674 0.50762 0.71321 0.0
C1002 C 0.1203 0.5022 0.77497 0.0
C1003 C 0.09059 0.48788 0.70144 0.0
C1004 C 0.1587 0.48137 0.78581 0.0
C1005 C 0.169 0.50764 0.8991 0.0
N1006 N 0.11166 0.48575 0.73187 0.0
N1007 N 0.14894 0.51112 0.86439 0.0
H1008 H 0.9557 0.84609 0.44557 0.0
H1009 H 0.03203 0.96042 0.52511 0.0
H1010 H 0.01864 0.86269 0.3407 0.0
H1011 H 0.96394 0.94955 0.60594 0.0
H1012 H 0.02833 0.92383 0.46118 0.0
H1013 H 0.95944 0.88257 0.50906 0.0
C1014 C 0.97032 0.85732 0.43557 0.0
C1015 C 0.9868 0.85103 0.38686 0.0
C1016 C 0.01404 0.92951 0.4922 0.0
C1017 C 0.99125 0.89319 0.46065 0.0
C1018 C 0.01611 0.95048 0.52833 0.0
C1019 C 0.99801 0.9583 0.56943 0.0
C1020 C 0.99382 0.91596 0.49776 0.0
C1021 C 0.97808 0.94437 0.57369 0.0
C1022 C 0.97245 0.87822 0.47219 0.0
C1023 C 1.00558 0.86638 0.37791 0.0
N1024 N 0.97649 0.92393 0.53829 0.0
N1025 N 0.00723 0.88663 0.41409 0.0
H1026 H 0.67714 0.0414 0.39576 0.0
H1027 H 0.57139 0.99235 0.60921 0.0
H1028 H 0.66656 0.96782 0.4255 0.0
H1029 H 0.56888 0.05787 0.50781 0.0
H1030 H 0.60939 0.9845 0.55865 0.0
H1031 H 0.64065 0.04919 0.45329 0.0
C1032 C 0.66728 0.02682 0.41421 0.0
C1033 C 0.67517 1.00383 0.40478 0.0
C1034 C 0.60044 1.00052 0.54709 0.0
C1035 C 0.6333 0.01285 0.47241 0.0
C1036 C 0.57869 1.0049 0.57548 0.0
C1037 C 0.56659 0.02538 0.5606 0.0
C1038 C 0.61044 0.01703 0.50487 0.0
C1039 C 0.57737 0.0416 0.51922 0.0
C1040 C 0.64643 0.03135 0.4474 0.0
C1041 C 0.66163 0.98586 0.43193 0.0
N1042 N 0.59862 0.03708 0.49271 0.0
N1043 N 0.64143 0.99075 0.46429 0.0
H1044 H 0.49085 0.68433 0.38031 0.0
H1045 H 0.55197 0.58701 0.60439 0.0
H1046 H 0.56294 0.68658 0.43857 0.0
H1047 H 0.48097 0.5829 0.53716 0.0
H1048 H 0.55526 0.62531 0.55338 0.0
H1049 H 0.48594 0.64915 0.44607 0.0
C1050 C 0.50566 0.67754 0.40706 0.0
C1051 C 0.52741 0.68856 0.40322 0.0
C1052 C 0.53888 0.61614 0.55023 0.0
C1053 C 0.52181 0.64805 0.47941 0.0
C1054 C 0.53698 0.5942 0.57933 0.0
C1055 C 0.51621 0.58145 0.57454 0.0
C1056 C 0.51984 0.62559 0.51601 0.0
C1057 C 0.4973 0.59195 0.54238 0.0
C1058 C 0.5028 0.65743 0.44491 0.0
C1059 C 0.54578 0.67899 0.44025 0.0
N1060 N 0.49962 0.61324 0.51395 0.0
N1061 N 0.54261 0.65929 0.47622 0.0
H1062 H 0.81809 0.52929 0.4875 0.0
H1063 H 0.95605 0.52538 0.46013 0.0
H1064 H 0.85395 0.51858 0.30148 0.0
H1065 H 0.92121 0.50747 0.6414 0.0
H1066 H 0.9185 0.52707 0.40297 0.0
H1067 H 0.85523 0.52511 0.54712 0.0
C1068 C 0.83371 0.52592 0.45924 0.0
C1069 C 0.83281 0.52412 0.38931 0.0
C1070 C 0.919 0.52283 0.45537 0.0
C1071 C 0.87541 0.51975 0.45713 0.0
C1072 C 0.94042 0.52214 0.48817 0.0
C1073 C 0.94168 0.51686 0.55606 0.0
C1074 C 0.89852 0.51845 0.49082 0.0
C1075 C 0.92095 0.51191 0.58938 0.0
C1076 C 0.85488 0.52348 0.49329 0.0
C1077 C 0.85368 0.51976 0.35536 0.0
N1078 N 0.90017 0.51307 0.55672 0.0
N1079 N 0.87406 0.51796 0.38942 0.0
loop_
_geom_bond_atom_site_label_1
_geom_bond_atom_site_label_2
_geom_bond_distance
_geom_bond_site_symmetry_2
_ccdc_geom_bond_type
C0 C1 1.386 . S
C0 C2 1.397 . S
C0 H24 0.931 1_554 S
C1 C0 1.386 . S
C1 C5 1.397 . S
C2 C0 1.397 . S
C2 C3 1.384 . S
C2 H25 0.930 . S
C3 C2 1.384 . S
C3 C4 1.377 . S
C3 C6 1.481 . S
C4 C3 1.377 . S
C4 C5 1.389 . S
C4 H26 0.929 . S
C5 C1 1.397 . S
C5 C4 1.389 . S
C5 H27 0.931 . S
C6 C3 1.481 . S
C6 C7 1.387 . S
C6 C11 1.390 . S
C7 C6 1.387 . S
C7 C8 1.401 . S
C7 H28 0.930 . S
C8 C7 1.401 . S
C8 C9 1.376 . S
C8 C17 1.511 . S
C9 C8 1.376 . S
C9 C10 1.392 . S
C9 H30 0.931 . S
C10 C9 1.392 . S
C10 C11 1.361 . S
C10 C12 1.500 . S
C11 C6 1.390 . S
C11 C10 1.361 . S
C11 H29 0.931 . S
C12 C10 1.500 . S
C12 C13 1.371 . S
C12 C14 1.365 . S
C13 C12 1.371 . S
C13 C23 1.386 . S
C13 H31 0.931 . S
C14 C12 1.365 . S
C14 C15 1.409 . S
C14 H32 0.929 . S
C15 C14 1.409 . S
C15 C16 1.380 . S
C15 H33 0.930 . S
C16 C15 1.380 . S
C16 C23 1.357 . S
C17 C8 1.511 . S
C17 C18 1.341 . S
C17 C19 1.371 . S
C18 C17 1.341 . S
C18 C22 1.394 . S
C18 H34 0.930 . S
C19 C17 1.371 . S
C19 C20 1.392 . S
C19 H35 0.931 . S
C20 C19 1.392 . S
C20 C21 1.331 . S
C20 H38 0.932 . S
C21 C20 1.331 . S
C21 C22 1.336 . S
C22 C18 1.394 . S
C22 C21 1.336 . S
C22 H37 0.929 . S
C23 C13 1.386 . S
C23 C16 1.357 . S
C23 H36 0.928 . S
H24 C0 0.931 1_556 S
H25 C2 0.930 . S
H26 C4 0.929 . S
H27 C5 0.931 . S
H28 C7 0.930 . S
H29 C11 0.931 . S
H30 C9 0.931 . S
H31 C13 0.931 . S
H32 C14 0.929 . S
H33 C15 0.930 . S
H34 C18 0.930 . S
H35 C19 0.931 . S
H36 C23 0.928 . S
H37 C22 0.929 . S
H38 C20 0.932 . S
C39 C40 1.386 . S
C39 C41 1.397 . S
C39 H63 0.931 1_554 S
C40 C39 1.386 . S
C40 C44 1.397 . S
C41 C39 1.397 . S
C41 C42 1.384 . S
C41 H64 0.930 . S
C42 C41 1.384 . S
C42 C43 1.377 . S
C42 C45 1.481 . S
C43 C42 1.377 . S
C43 C44 1.389 . S
C43 H65 0.929 . S
C44 C40 1.397 . S
C44 C43 1.389 . S
C44 H66 0.931 . S
C45 C42 1.481 . S
C45 C46 1.387 . S
C45 C50 1.390 . S
C46 C45 1.387 . S
C46 C47 1.401 . S
C46 H67 0.930 . S
C47 C46 1.401 . S
C47 C48 1.376 . S
C47 C56 1.511 . S
C48 C47 1.376 . S
C48 C49 1.392 . S
C48 H69 0.931 . S
C49 C48 1.392 . S
C49 C50 1.361 . S
C49 C51 1.500 . S
C50 C45 1.390 . S
C50 C49 1.361 . S
C50 H68 0.931 . S
C51 C49 1.500 . S
C51 C52 1.371 . S
C51 C53 1.365 . S
C52 C51 1.371 . S
C52 C62 1.386 . S
C52 H70 0.931 . S
C53 C51 1.365 . S
C53 C54 1.409 . S
C53 H71 0.929 . S
C54 C53 1.409 . S
C54 C55 1.380 . S
C54 H72 0.930 . S
C55 C54 1.380 . S
C55 C62 1.357 . S
C56 C47 1.511 . S
C56 C57 1.341 . S
C56 C58 1.371 . S
C57 C56 1.341 . S
C57 C61 1.394 . S
C57 H73 0.930 . S
C58 C56 1.371 . S
C58 C59 1.392 . S
C58 H74 0.931 . S
C59 C58 1.392 . S
C59 C60 1.331 . S
C59 H77 0.932 . S
C60 C59 1.331 . S
C60 C61 1.336 . S
C61 C57 1.394 . S
C61 C60 1.336 . S
C61 H76 0.929 . S
C62 C52 1.386 . S
C62 C55 1.357 . S
C62 H75 0.928 . S
H63 C39 0.931 1_556 S
H64 C41 0.930 . S
H65 C43 0.929 . S
H66 C44 0.931 . S
H67 C46 0.930 . S
H68 C50 0.931 . S
H69 C48 0.931 . S
H70 C52 0.931 . S
H71 C53 0.929 . S
H72 C54 0.930 . S
H73 C57 0.930 . S
H74 C58 0.931 . S
H75 C62 0.928 . S
H76 C61 0.929 . S
H77 C59 0.932 . S
C78 C79 1.386 . S
C78 C80 1.397 . S
C78 H102 0.931 1_554 S
C79 C78 1.386 . S
C79 C83 1.397 . S
C80 C78 1.397 . S
C80 C81 1.384 . S
C80 H103 0.930 . S
C81 C80 1.384 . S
C81 C82 1.377 . S
C81 C84 1.481 . S
C82 C81 1.377 . S
C82 C83 1.389 . S
C82 H104 0.929 . S
C83 C79 1.397 . S
C83 C82 1.389 . S
C83 H105 0.931 . S
C84 C81 1.481 . S
C84 C85 1.387 . S
C84 C89 1.390 . S
C85 C84 1.387 . S
C85 C86 1.401 . S
C85 H106 0.930 . S
C86 C85 1.401 . S
C86 C87 1.376 . S
C86 C95 1.511 . S
C87 C86 1.376 . S
C87 C88 1.392 . S
C87 H108 0.931 . S
C88 C87 1.392 . S
C88 C89 1.361 . S
C88 C90 1.500 . S
C89 C84 1.390 . S
C89 C88 1.361 . S
C89 H107 0.931 . S
C90 C88 1.500 . S
C90 C91 1.371 . S
C90 C92 1.365 . S
C91 C90 1.371 . S
C91 C101 1.386 . S
C91 H109 0.931 . S
C92 C90 1.365 . S
C92 C93 1.409 . S
C92 H110 0.929 . S
C93 C92 1.409 . S
C93 C94 1.380 . S
C93 H111 0.930 . S
C94 C93 1.380 . S
C94 C101 1.357 . S
C95 C86 1.511 . S
C95 C96 1.341 . S
C95 C97 1.371 . S
C96 C95 1.341 . S
C96 C100 1.394 . S
C96 H112 0.930 . S
C97 C95 1.371 . S
C97 C98 1.392 . S
C97 H113 0.931 . S
C98 C97 1.392 . S
C98 C99 1.331 . S
C98 H116 0.932 . S
C99 C98 1.331 . S
C99 C100 1.336 . S
C100 C96 1.394 . S
C100 C99 1.336 . S
C100 H115 0.929 . S
C101 C91 1.386 . S
C101 C94 1.357 . S
C101 H114 0.928 . S
H102 C78 0.931 1_556 S
H103 C80 0.930 . S
H104 C82 0.929 . S
H105 C83 0.931 . S
H106 C85 0.930 . S
H107 C89 0.931 . S
H108 C87 0.931 . S
H109 C91 0.931 . S
H110 C92 0.929 . S
H111 C93 0.930 . S
H112 C96 0.930 . S
H113 C97 0.931 . S
H114 C101 0.928 . S
H115 C100 0.929 . S
H116 C98 0.932 . S
C117 C118 1.386 . S
C117 C119 1.397 . S
C117 H141 0.931 . S
C118 C117 1.386 . S
C118 C122 1.397 . S
C119 C117 1.397 . S
C119 C120 1.384 . S
C119 H142 0.930 . S
C120 C119 1.384 . S
C120 C121 1.377 . S
C120 C123 1.481 . S
C121 C120 1.377 . S
C121 C122 1.389 . S
C121 H143 0.929 . S
C122 C118 1.397 . S
C122 C121 1.389 . S
C122 H144 0.931 . S
C123 C120 1.481 . S
C123 C124 1.387 . S
C123 C128 1.390 . S
C124 C123 1.387 . S
C124 C125 1.401 . S
C124 H145 0.930 . S
C125 C124 1.401 . S
C125 C126 1.376 . S
C125 C134 1.511 . S
C126 C125 1.376 . S
C126 C127 1.392 . S
C126 H147 0.931 . S
C127 C126 1.392 . S
C127 C128 1.361 . S
C127 C129 1.500 . S
C128 C123 1.390 . S
C128 C127 1.361 . S
C128 H146 0.931 . S
C129 C127 1.500 . S
C129 C130 1.371 . S
C129 C131 1.365 . S
C130 C129 1.371 . S
C130 C140 1.386 1_554 S
C130 H148 0.931 . S
C131 C129 1.365 . S
C131 C132 1.409 . S
C131 H149 0.929 . S
C132 C131 1.409 . S
C132 C133 1.380 . S
C132 H150 0.930 . S
C133 C132 1.380 . S
C133 C140 1.357 1_554 S
C134 C125 1.511 . S
C134 C135 1.341 . S
C134 C136 1.371 . S
C135 C134 1.341 . S
C135 C139 1.394 . S
C135 H151 0.930 . S
C136 C134 1.371 . S
C136 C137 1.392 . S
C136 H152 0.931 . S
C137 C136 1.392 . S
C137 C138 1.331 . S
C137 H155 0.932 . S
C138 C137 1.331 . S
C138 C139 1.336 . S
C139 C135 1.394 . S
C139 C138 1.336 . S
C139 H154 0.929 . S
C140 C130 1.386 1_556 S
C140 C133 1.357 1_556 S
C140 H153 0.928 . S
H141 C117 0.931 . S
H142 C119 0.930 . S
H143 C121 0.929 . S
H144 C122 0.931 . S
H145 C124 0.930 . S
H146 C128 0.931 . S
H147 C126 0.931 . S
H148 C130 0.931 . S
H149 C131 0.929 . S
H150 C132 0.930 . S
H151 C135 0.930 . S
H152 C136 0.931 . S
H153 C140 0.928 . S
H154 C139 0.929 . S
H155 C137 0.932 . S
C156 C157 1.386 . S
C156 C158 1.397 . S
C156 H180 0.931 . S
C157 C156 1.386 . S
C157 C161 1.397 . S
C158 C156 1.397 . S
C158 C159 1.384 . S
C158 H181 0.930 . S
C159 C158 1.384 . S
C159 C160 1.377 . S
C159 C162 1.481 . S
C160 C159 1.377 . S
C160 C161 1.389 . S
C160 H182 0.929 . S
C161 C157 1.397 . S
C161 C160 1.389 . S
C161 H183 0.931 . S
C162 C159 1.481 . S
C162 C163 1.387 . S
C162 C167 1.390 . S
C163 C162 1.387 . S
C163 C164 1.401 . S
C163 H184 0.930 . S
C164 C163 1.401 . S
C164 C165 1.376 1_554 S
C164 C173 1.511 . S
C165 C164 1.376 1_556 S
C165 C166 1.392 . S
C165 H186 0.931 . S
C166 C165 1.392 . S
C166 C167 1.361 1_556 S
C166 C168 1.500 . S
C167 C162 1.390 . S
C167 C166 1.361 1_554 S
C167 H185 0.928 1_554 S
C168 C166 1.500 . S
C168 C169 1.371 . S
C168 C170 1.365 . S
C169 C168 1.371 . S
C169 C179 1.386 . S
C169 H187 0.931 . S
C170 C168 1.365 . S
C170 C171 1.409 . S
C170 H188 0.929 . S
C171 C170 1.409 . S
C171 C172 1.380 . S
C171 H189 0.930 . S
C172 C171 1.380 . S
C172 C179 1.357 . S
C173 C164 1.511 . S
C173 C174 1.341 . S
C173 C175 1.371 . S
C174 C173 1.341 . S
C174 C178 1.394 . S
C174 H190 0.930 . S
C175 C173 1.371 . S
C175 C176 1.392 . S
C175 H191 0.931 1_554 S
C176 C175 1.392 . S
C176 C177 1.331 . S
C176 H194 0.932 1_554 S
C177 C176 1.331 . S
C177 C178 1.336 . S
C178 C174 1.394 . S
C178 C177 1.336 . S
C178 H193 0.929 . S
C179 C169 1.386 . S
C179 C172 1.357 . S
C179 H192 0.928 . S
H180 C156 0.931 . S
H181 C158 0.930 . S
H182 C160 0.929 . S
H183 C161 0.931 . S
H184 C163 0.930 . S
H185 C167 0.928 1_556 S
H186 C165 0.931 . S
H187 C169 0.931 . S
H188 C170 0.929 . S
H189 C171 0.930 . S
H190 C174 0.930 . S
H191 C175 0.931 1_556 S
H192 C179 0.928 . S
H193 C178 0.929 . S
H194 C176 0.932 1_556 S
C195 C196 1.386 . S
C195 C197 1.397 . S
C195 H219 0.931 . S
C196 C195 1.386 . S
C196 C200 1.397 . S
C197 C195 1.397 . S
C197 C198 1.384 . S
C197 H220 0.930 . S
C198 C197 1.384 . S
C198 C199 1.377 . S
C198 C201 1.481 . S
C199 C198 1.377 . S
C199 C200 1.389 . S
C199 H221 0.929 . S
C200 C196 1.397 . S
C200 C199 1.389 . S
C200 H222 0.931 . S
C201 C198 1.481 . S
C201 C202 1.387 . S
C201 C206 1.390 . S
C202 C201 1.387 . S
C202 C203 1.401 . S
C202 H223 0.930 . S
C203 C202 1.401 . S
C203 C204 1.376 1_554 S
C203 C212 1.511 . S
C204 C203 1.376 1_556 S
C204 C205 1.392 . S
C204 H225 0.931 . S
C205 C204 1.392 . S
C205 C206 1.361 1_556 S
C205 C207 1.500 . S
C206 C201 1.390 . S
C206 C205 1.361 1_554 S
C206 H224 0.931 1_554 S
C207 C205 1.500 . S
C207 C208 1.371 . S
C207 C209 1.365 . S
C208 C207 1.371 . S
C208 C218 1.386 . S
C208 H226 0.931 . S
C209 C207 1.365 . S
C209 C210 1.409 . S
C209 H227 0.929 . S
C210 C209 1.409 . S
C210 C211 1.380 . S
C210 H228 0.930 . S
C211 C210 1.380 . S
C211 C218 1.357 . S
C212 C203 1.511 . S
C212 C213 1.341 . S
C212 C214 1.371 . S
C213 C212 1.341 . S
C213 C217 1.394 . S
C213 H229 0.930 . S
C214 C212 1.371 . S
C214 C215 1.392 . S
C214 H230 0.931 1_554 S
C215 C214 1.392 . S
C215 C216 1.331 . S
C215 H233 0.932 1_554 S
C216 C215 1.331 . S
C216 C217 1.336 . S
C217 C213 1.394 . S
C217 C216 1.336 . S
C217 H232 0.929 . S
C218 C208 1.386 . S
C218 C211 1.357 . S
C218 H231 0.928 . S
H219 C195 0.931 . S
H220 C197 0.930 . S
H221 C199 0.929 . S
H222 C200 0.931 . S
H223 C202 0.930 . S
H224 C206 0.931 1_556 S
H225 C204 0.931 . S
H226 C208 0.931 . S
H227 C209 0.929 . S
H228 C210 0.930 . S
H229 C213 0.930 . S
H230 C214 0.931 1_556 S
H231 C218 0.928 . S
H232 C217 0.929 . S
H233 C215 0.932 1_556 S
C234 C235 1.386 . S
C234 C236 1.397 . S
C234 H258 0.931 . S
C235 C234 1.386 . S
C235 C239 1.397 . S
C236 C234 1.397 . S
C236 C237 1.384 . S
C236 H259 0.930 . S
C237 C236 1.384 . S
C237 C238 1.377 . S
C237 C240 1.481 . S
C238 C237 1.377 . S
C238 C239 1.389 . S
C238 H260 0.929 . S
C239 C235 1.397 . S
C239 C238 1.389 . S
C239 H261 0.931 . S
C240 C237 1.481 . S
C240 C241 1.387 . S
C240 C245 1.390 . S
C241 C240 1.387 . S
C241 C242 1.401 . S
C241 H262 0.930 . S
C242 C241 1.401 . S
C242 C243 1.376 1_554 S
C242 C251 1.511 . S
C243 C242 1.376 1_556 S
C243 C244 1.392 . S
C243 H264 0.931 . S
C244 C243 1.392 . S
C244 C245 1.361 1_556 S
C244 C246 1.500 . S
C245 C240 1.390 . S
C245 C244 1.361 1_554 S
C245 H263 0.931 1_554 S
C246 C244 1.500 . S
C246 C247 1.371 . S
C246 C248 1.365 . S
C247 C246 1.371 . S
C247 C257 1.386 . S
C247 H265 0.931 . S
C248 C246 1.365 . S
C248 C249 1.409 . S
C248 H266 0.929 . S
C249 C248 1.409 . S
C249 C250 1.380 . S
C249 H267 0.930 . S
C250 C249 1.380 . S
C250 C257 1.357 . S
C251 C242 1.511 . S
C251 C252 1.341 . S
C251 C253 1.371 . S
C252 C251 1.341 . S
C252 C256 1.394 . S
C252 H268 0.930 . S
C253 C251 1.371 . S
C253 C254 1.392 . S
C253 H269 0.931 1_554 S
C254 C253 1.392 . S
C254 C255 1.331 . S
C254 H272 0.932 1_554 S
C255 C254 1.331 . S
C255 C256 1.336 . S
C256 C252 1.394 . S
C256 C255 1.336 . S
C256 H271 0.929 . S
C257 C247 1.386 . S
C257 C250 1.357 . S
C257 H270 0.928 . S
H258 C234 0.931 . S
H259 C236 0.930 . S
H260 C238 0.929 . S
H261 C239 0.931 . S
H262 C241 0.930 . S
H263 C245 0.931 1_556 S
H264 C243 0.931 . S
H265 C247 0.931 . S
H266 C248 0.929 . S
H267 C249 0.930 . S
H268 C252 0.930 . S
H269 C253 0.931 1_556 S
H270 C257 0.928 . S
H271 C256 0.929 . S
H272 C254 0.932 1_556 S
C273 C274 1.386 . S
C273 C275 1.397 . S
C273 H297 0.931 . S
C274 C273 1.386 . S
C274 C278 1.397 . S
C275 C273 1.397 . S
C275 C276 1.384 . S
C275 H298 0.930 . S
C276 C275 1.384 . S
C276 C277 1.377 . S
C276 C279 1.481 . S
C277 C276 1.377 . S
C277 C278 1.389 . S
C277 H299 0.929 . S
C278 C274 1.397 . S
C278 C277 1.389 . S
C278 H300 0.931 . S
C279 C276 1.481 . S
C279 C280 1.387 . S
C279 C284 1.390 1_556 S
C280 C279 1.387 . S
C280 C281 1.401 1_556 S
C280 H301 0.930 . S
C281 C280 1.401 1_554 S
C281 C282 1.376 . S
C281 C290 1.511 . S
C282 C281 1.376 . S
C282 C283 1.392 . S
C282 H303 0.931 . S
C283 C282 1.392 . S
C283 C284 1.361 . S
C283 C285 1.500 . S
C284 C279 1.390 1_554 S
C284 C283 1.361 . S
C284 H302 0.929 1_554 S
C285 C283 1.500 . S
C285 C286 1.371 . S
C285 C287 1.365 . S
C286 C285 1.371 . S
C286 C296 1.386 . S
C286 H304 0.931 . S
C287 C285 1.365 . S
C287 C288 1.409 . S
C287 H305 0.929 . S
C288 C287 1.409 . S
C288 C289 1.380 . S
C288 H306 0.930 . S
C289 C288 1.380 . S
C289 C296 1.357 . S
C290 C281 1.511 . S
C290 C291 1.341 . S
C290 C292 1.371 . S
C291 C290 1.341 . S
C291 C295 1.394 . S
C291 H307 0.930 1_554 S
C292 C290 1.371 . S
C292 C293 1.392 . S
C292 H308 0.931 . S
C293 C292 1.392 . S
C293 C294 1.331 . S
C293 H311 0.932 . S
C294 C293 1.331 . S
C294 C295 1.336 . S
C295 C291 1.394 . S
C295 C294 1.336 . S
C295 H310 0.929 1_554 S
C296 C286 1.386 . S
C296 C289 1.357 . S
C296 H309 0.928 . S
H297 C273 0.931 . S
H298 C275 0.930 . S
H299 C277 0.929 . S
H300 C278 0.931 . S
H301 C280 0.930 . S
H302 C284 0.929 1_556 S
H303 C282 0.931 . S
H304 C286 0.931 . S
H305 C287 0.929 . S
H306 C288 0.930 . S
H307 C291 0.930 1_556 S
H308 C292 0.931 . S
H309 C296 0.928 . S
H310 C295 0.929 1_556 S
H311 C293 0.932 . S
Eu312 N343 2.657 1_565 S
Eu312 N350 2.609 . S
Eu312 O356 2.558 . S
Eu312 O357 2.612 1_455 S
Eu312 O359 2.339 1_455 S
Eu312 O360 2.563 . S
Eu312 O361 2.419 . S
Eu312 O363 2.380 1_565 S
Eu312 O364 2.432 . S
Eu312 C376 2.848 . S
C313 C316 1.429 1_545 S
C313 C317 1.411 . S
C313 N320 1.377 . S
C314 C316 1.420 . S
C314 C318 1.423 . S
C314 C326 1.392 . S
C315 C317 1.420 1_565 S
C315 C318 1.351 . S
C315 H338 0.931 . S
C316 C313 1.429 1_565 S
C316 C314 1.420 . S
C316 N324 1.361 . S
C317 C313 1.411 . S
C317 C315 1.420 1_545 S
C317 C322 1.395 . S
C318 C314 1.423 . S
C318 C315 1.351 . S
C318 H330 0.930 . S
C319 C321 1.400 . S
C319 C322 1.386 . S
C319 H331 0.930 . S
N320 C313 1.377 . S
N320 C321 1.321 . S
N320 Eu323 2.609 . S
C321 C319 1.400 . S
C321 N320 1.321 . S
C321 H328 0.930 . S
C322 C317 1.395 . S
C322 C319 1.386 . S
C322 H341 0.930 . S
Eu323 N320 2.609 . S
Eu323 N324 2.658 1_545 S
Eu323 O357 2.380 1_545 S
Eu323 O358 2.432 . S
Eu323 O362 2.558 . S
Eu323 O363 2.612 1_655 S
Eu323 O365 2.339 1_655 S
Eu323 O366 2.563 1_655 S
Eu323 O367 2.419 . S
Eu323 C387 2.848 . S
N324 C316 1.361 . S
N324 Eu323 2.658 1_565 S
N324 C325 1.333 1_655 S
C325 N324 1.333 1_455 S
C325 C327 1.413 . S
C325 H332 0.929 . S
C326 C314 1.392 . S
C326 C327 1.369 1_655 S
C326 H334 0.930 . S
C327 C325 1.413 . S
C327 C326 1.369 1_455 S
C327 H329 0.929 . S
H328 C321 0.930 . S
H329 C327 0.929 . S
H330 C318 0.930 . S
H331 C319 0.930 . S
H332 C325 0.929 . S
H333 C347 0.930 1_655 S
H334 C326 0.930 . S
H335 C353 0.930 . S
H336 C344 0.929 1_655 S
H337 C351 0.930 . S
H338 C315 0.931 . S
H339 C345 0.930 . S
H340 C378 0.930 . S
H341 C322 0.930 . S
H342 C377 0.931 . S
N343 Eu312 2.657 1_545 S
N343 C344 1.334 . S
N343 C348 1.362 . S
C344 H336 0.929 1_455 S
C344 N343 1.334 . S
C344 C347 1.413 . S
C345 H339 0.930 . S
C345 C346 1.392 . S
C345 C347 1.367 . S
C346 C345 1.392 . S
C346 C348 1.420 . S
C346 C378 1.423 . S
C347 H333 0.930 1_455 S
C347 C344 1.413 . S
C347 C345 1.367 . S
C348 N343 1.362 . S
C348 C346 1.420 . S
C348 C352 1.429 . S
H349 C354 0.928 1_545 S
N350 Eu312 2.609 . S
N350 C352 1.377 1_565 S
N350 C353 1.321 . S
C351 H337 0.930 . S
C351 C353 1.400 . S
C351 C354 1.400 . S
C352 C348 1.429 . S
C352 N350 1.377 1_545 S
C352 C355 1.411 . S
C353 H335 0.930 . S
C353 N350 1.321 . S
C353 C351 1.400 . S
C354 H349 0.928 1_565 S
C354 C351 1.400 . S
C354 C355 1.383 1_565 S
C355 C352 1.411 . S
C355 C354 1.383 1_545 S
C355 C377 1.420 . S
O356 Eu312 2.558 . S
O356 C376 1.257 . S
O357 Eu312 2.612 1_655 S
O357 Eu323 2.380 1_565 S
O357 C368 1.276 . S
O358 Eu323 2.432 . S
O358 C375 1.264 . S
O359 Eu312 2.339 1_655 S
O359 C375 1.254 1_565 S
O360 Eu312 2.563 . S
O360 C368 1.235 1_455 S
O361 Eu312 2.419 . S
O361 C376 1.249 . S
O362 Eu323 2.558 . S
O362 C387 1.257 . S
O363 Eu312 2.380 1_545 S
O363 Eu323 2.612 1_455 S
O363 C379 1.276 . S
O364 Eu312 2.432 . S
O364 C386 1.264 1_565 S
O365 Eu323 2.339 1_455 S
O365 C386 1.254 . S
O366 Eu323 2.563 1_455 S
O366 C379 1.235 . S
O367 Eu323 2.419 . S
O367 C387 1.249 . S
C368 O357 1.276 . S
C368 O360 1.235 1_655 S
C369 C371 1.393 . S
C369 C373 1.395 . S
C369 C376 1.492 . S
C370 C371 1.392 . S
C370 C372 1.386 . S
C371 C369 1.393 . S
C371 C370 1.392 . S
C371 H388 0.925 1_455 S
C372 C370 1.386 . S
C372 C374 1.395 . S
C372 H389 0.930 . S
C373 C369 1.395 . S
C373 C374 1.379 . S
C373 H390 0.930 . S
C374 C372 1.395 . S
C374 C373 1.379 . S
C374 H391 0.930 . S
C375 O358 1.264 . S
C375 O359 1.254 1_545 S
C376 Eu312 2.848 . S
C376 O356 1.257 . S
C376 O361 1.249 . S
C376 C369 1.492 . S
C377 H342 0.931 . S
C377 C355 1.420 . S
C377 C378 1.351 . S
C378 H340 0.930 . S
C378 C346 1.423 . S
C378 C377 1.351 . S
C379 O363 1.276 . S
C379 O366 1.235 . S
C380 C381 1.393 . S
C380 C384 1.395 . S
C380 C387 1.492 . S
C381 C380 1.393 . S
C381 C382 1.392 . S
C381 H392 0.930 1_655 S
C382 C381 1.392 . S
C382 C383 1.386 . S
C383 C382 1.386 . S
C383 C385 1.395 . S
C383 H393 0.930 . S
C384 C380 1.395 . S
C384 C385 1.379 . S
C384 H394 0.930 . S
C385 C383 1.395 . S
C385 C384 1.379 . S
C385 H395 0.930 . S
C386 O364 1.264 1_545 S
C386 O365 1.254 . S
C387 Eu323 2.848 . S
C387 O362 1.257 . S
C387 O367 1.249 . S
C387 C380 1.492 . S
H388 C371 0.925 1_655 S
H389 C372 0.930 . S
H390 C373 0.930 . S
H391 C374 0.930 . S
H392 C381 0.930 1_455 S
H393 C383 0.930 . S
H394 C384 0.930 . S
H395 C385 0.930 . S
Eu396 N427 2.657 . S
Eu396 N434 2.609 . S
Eu396 O440 2.558 . S
Eu396 O441 2.612 1_545 S
Eu396 O443 2.339 1_545 S
Eu396 O444 2.563 . S
Eu396 O445 2.419 . S
Eu396 O447 2.380 . S
Eu396 O448 2.432 . S
Eu396 C460 2.848 . S
C397 C400 1.429 . S
C397 C401 1.411 . S
C397 N404 1.377 . S
C398 C400 1.420 . S
C398 C402 1.423 . S
C398 C410 1.392 . S
C399 C401 1.420 . S
C399 C402 1.351 . S
C399 H422 0.931 . S
C400 C397 1.429 . S
C400 C398 1.420 . S
C400 N408 1.362 . S
C401 C397 1.411 . S
C401 C399 1.420 . S
C401 C406 1.395 . S
C402 C398 1.423 . S
C402 C399 1.351 . S
C402 H414 0.930 . S
C403 C405 1.400 . S
C403 C406 1.386 . S
C403 H415 0.930 . S
N404 C397 1.377 . S
N404 C405 1.321 . S
N404 Eu407 2.609 . S
C405 C403 1.400 . S
C405 N404 1.321 . S
C405 H412 0.930 . S
C406 C401 1.395 . S
C406 C403 1.386 . S
C406 H425 0.930 . S
Eu407 N404 2.609 . S
Eu407 N408 2.657 . S
Eu407 O441 2.380 . S
Eu407 O442 2.432 . S
Eu407 O446 2.558 . S
Eu407 O447 2.612 1_565 S
Eu407 O449 2.339 1_565 S
Eu407 O450 2.563 1_565 S
Eu407 O451 2.419 . S
Eu407 C471 2.848 . S
N408 C400 1.362 . S
N408 Eu407 2.657 . S
N408 C409 1.334 1_565 S
C409 N408 1.334 1_545 S
C409 C411 1.413 . S
C409 H416 0.929 . S
C410 C398 1.392 . S
C410 C411 1.367 1_565 S
C410 H418 0.930 . S
C411 C409 1.413 . S
C411 C410 1.367 1_545 S
C411 H413 0.930 . S
H412 C405 0.930 . S
H413 C411 0.930 . S
H414 C402 0.930 . S
H415 C403 0.930 . S
H416 C409 0.929 . S
H417 C431 0.930 1_565 S
H418 C410 0.930 . S
H419 C437 0.930 . S
H420 C428 0.929 1_565 S
H421 C435 0.930 . S
H422 C399 0.931 . S
H423 C429 0.930 . S
H424 C462 0.930 . S
H425 C406 0.930 . S
H426 C461 0.931 . S
N427 Eu396 2.657 . S
N427 C428 1.334 . S
N427 C432 1.362 . S
C428 H420 0.929 1_545 S
C428 N427 1.334 . S
C428 C431 1.413 . S
C429 H423 0.930 . S
C429 C430 1.392 . S
C429 C431 1.367 . S
C430 C429 1.392 . S
C430 C432 1.420 . S
C430 C462 1.423 . S
C431 H417 0.930 1_545 S
C431 C428 1.413 . S
C431 C429 1.367 . S
C432 N427 1.362 . S
C432 C430 1.420 . S
C432 C436 1.429 . S
H433 C438 0.930 . S
N434 Eu396 2.609 . S
N434 C436 1.377 . S
N434 C437 1.321 . S
C435 H421 0.930 . S
C435 C437 1.400 . S
C435 C438 1.386 . S
C436 C432 1.429 . S
C436 N434 1.377 . S
C436 C439 1.411 . S
C437 H419 0.930 . S
C437 N434 1.321 . S
C437 C435 1.400 . S
C438 H433 0.930 . S
C438 C435 1.386 . S
C438 C439 1.395 . S
C439 C436 1.411 . S
C439 C438 1.395 . S
C439 C461 1.420 . S
O440 Eu396 2.558 . S
O440 C460 1.257 . S
O441 Eu396 2.612 1_565 S
O441 Eu407 2.380 . S
O441 C452 1.276 . S
O442 Eu407 2.432 . S
O442 C459 1.264 . S
O443 Eu396 2.339 1_565 S
O443 C459 1.254 . S
O444 Eu396 2.563 . S
O444 C452 1.235 1_545 S
O445 Eu396 2.419 . S
O445 C460 1.249 . S
O446 Eu407 2.558 . S
O446 C471 1.257 . S
O447 Eu396 2.380 . S
O447 Eu407 2.612 1_545 S
O447 C463 1.276 . S
O448 Eu396 2.432 . S
O448 C470 1.264 . S
O449 Eu407 2.339 1_545 S
O449 C470 1.254 . S
O450 Eu407 2.563 1_545 S
O450 C463 1.235 . S
O451 Eu407 2.419 . S
O451 C471 1.249 . S
C452 O441 1.276 . S
C452 O444 1.235 1_565 S
C453 C455 1.393 . S
C453 C457 1.395 . S
C453 C460 1.492 . S
C454 C455 1.392 . S
C454 C456 1.386 . S
C455 C453 1.393 . S
C455 C454 1.392 . S
C455 H472 0.930 . S
C456 C454 1.386 . S
C456 C458 1.395 . S
C456 H473 0.930 . S
C457 C453 1.395 . S
C457 C458 1.379 . S
C457 H474 0.930 . S
C458 C456 1.395 . S
C458 C457 1.379 . S
C458 H475 0.930 . S
C459 O442 1.264 . S
C459 O443 1.254 . S
C460 Eu396 2.848 . S
C460 O440 1.257 . S
C460 O445 1.249 . S
C460 C453 1.492 . S
C461 H426 0.931 . S
C461 C439 1.420 . S
C461 C462 1.351 . S
C462 H424 0.930 . S
C462 C430 1.423 . S
C462 C461 1.351 . S
C463 O447 1.276 . S
C463 O450 1.235 . S
C464 C465 1.393 . S
C464 C468 1.395 . S
C464 C471 1.492 . S
C465 C464 1.393 . S
C465 C466 1.392 . S
C465 H476 0.930 1_565 S
C466 C465 1.392 . S
C466 C467 1.386 . S
C467 C466 1.386 . S
C467 C469 1.395 . S
C467 H477 0.930 . S
C468 C464 1.395 . S
C468 C469 1.379 . S
C468 H478 0.930 . S
C469 C467 1.395 . S
C469 C468 1.379 . S
C469 H479 0.930 . S
C470 O448 1.264 . S
C470 O449 1.254 . S
C471 Eu407 2.848 . S
C471 O446 1.257 . S
C471 O451 1.249 . S
C471 C464 1.492 . S
H472 C455 0.930 . S
H473 C456 0.930 . S
H474 C457 0.930 . S
H475 C458 0.930 . S
H476 C465 0.930 1_545 S
H477 C467 0.930 . S
H478 C468 0.930 . S
H479 C469 0.930 . S
Eu480 N511 2.657 . S
Eu480 N518 2.609 . S
Eu480 O524 2.558 . S
Eu480 O525 2.612 . S
Eu480 O527 2.339 . S
Eu480 O528 2.563 . S
Eu480 O529 2.419 . S
Eu480 O531 2.380 . S
Eu480 O532 2.432 . S
Eu480 C544 2.848 . S
C481 C484 1.429 . S
C481 C485 1.411 . S
C481 N488 1.377 . S
C482 C484 1.420 . S
C482 C486 1.423 . S
C482 C494 1.392 . S
C483 C485 1.420 . S
C483 C486 1.351 . S
C483 H506 0.931 . S
C484 C481 1.429 . S
C484 C482 1.420 . S
C484 N492 1.362 . S
C485 C481 1.411 . S
C485 C483 1.420 . S
C485 C490 1.395 . S
C486 C482 1.423 . S
C486 C483 1.351 . S
C486 H498 0.930 . S
C487 C489 1.400 . S
C487 C490 1.386 . S
C487 H499 0.930 . S
N488 C481 1.377 . S
N488 C489 1.321 . S
N488 Eu491 2.609 . S
C489 C487 1.400 . S
C489 N488 1.321 . S
C489 H496 0.930 . S
C490 C485 1.395 . S
C490 C487 1.386 . S
C490 H509 0.930 . S
Eu491 N488 2.609 . S
Eu491 N492 2.657 . S
Eu491 O525 2.380 . S
Eu491 O526 2.432 . S
Eu491 O530 2.558 . S
Eu491 O531 2.612 . S
Eu491 O533 2.339 . S
Eu491 O534 2.563 . S
Eu491 O535 2.419 . S
Eu491 C555 2.848 . S
N492 C484 1.362 . S
N492 Eu491 2.657 . S
N492 C493 1.334 . S
C493 N492 1.334 . S
C493 C495 1.413 . S
C493 H500 0.929 . S
C494 C482 1.392 . S
C494 C495 1.367 . S
C494 H502 0.930 . S
C495 C493 1.413 . S
C495 C494 1.367 . S
C495 H497 0.930 . S
H496 C489 0.930 . S
H497 C495 0.930 . S
H498 C486 0.930 . S
H499 C487 0.930 . S
H500 C493 0.929 . S
H501 C515 0.930 . S
H502 C494 0.930 . S
H503 C521 0.930 . S
H504 C512 0.929 . S
H505 C519 0.930 . S
H506 C483 0.931 . S
H507 C513 0.930 . S
H508 C546 0.930 . S
H509 C490 0.930 . S
H510 C545 0.931 . S
N511 Eu480 2.657 . S
N511 C512 1.334 . S
N511 C516 1.362 . S
C512 H504 0.929 . S
C512 N511 1.334 . S
C512 C515 1.413 . S
C513 H507 0.930 . S
C513 C514 1.392 . S
C513 C515 1.367 . S
C514 C513 1.392 . S
C514 C516 1.420 . S
C514 C546 1.423 . S
C515 H501 0.930 . S
C515 C512 1.413 . S
C515 C513 1.367 . S
C516 N511 1.362 . S
C516 C514 1.420 . S
C516 C520 1.429 . S
H517 C522 0.930 . S
N518 Eu480 2.609 . S
N518 C520 1.377 . S
N518 C521 1.321 . S
C519 H505 0.930 . S
C519 C521 1.400 . S
C519 C522 1.386 . S
C520 C516 1.429 . S
C520 N518 1.377 . S
C520 C523 1.411 . S
C521 H503 0.930 . S
C521 N518 1.321 . S
C521 C519 1.400 . S
C522 H517 0.930 . S
C522 C519 1.386 . S
C522 C523 1.395 . S
C523 C520 1.411 . S
C523 C522 1.395 . S
C523 C545 1.420 . S
O524 Eu480 2.558 . S
O524 C544 1.257 . S
O525 Eu480 2.612 . S
O525 Eu491 2.380 . S
O525 C536 1.276 . S
O526 Eu491 2.432 . S
O526 C543 1.264 . S
O527 Eu480 2.339 . S
O527 C543 1.254 . S
O528 Eu480 2.563 . S
O528 C536 1.235 . S
O529 Eu480 2.419 . S
O529 C544 1.249 . S
O530 Eu491 2.558 . S
O530 C555 1.257 . S
O531 Eu480 2.380 . S
O531 Eu491 2.612 . S
O531 C547 1.276 . S
O532 Eu480 2.432 . S
O532 C554 1.264 . S
O533 Eu491 2.339 . S
O533 C554 1.254 . S
O534 Eu491 2.563 . S
O534 C547 1.235 . S
O535 Eu491 2.419 . S
O535 C555 1.249 . S
C536 O525 1.276 . S
C536 O528 1.235 . S
C537 C539 1.393 . S
C537 C541 1.395 . S
C537 C544 1.492 . S
C538 C539 1.392 . S
C538 C540 1.386 . S
C539 C537 1.393 . S
C539 C538 1.392 . S
C539 H556 0.930 . S
C540 C538 1.386 . S
C540 C542 1.395 . S
C540 H557 0.930 . S
C541 C537 1.395 . S
C541 C542 1.379 . S
C541 H558 0.930 . S
C542 C540 1.395 . S
C542 C541 1.379 . S
C542 H559 0.930 . S
C543 O526 1.264 . S
C543 O527 1.254 . S
C544 Eu480 2.848 . S
C544 O524 1.257 . S
C544 O529 1.249 . S
C544 C537 1.492 . S
C545 H510 0.931 . S
C545 C523 1.420 . S
C545 C546 1.351 . S
C546 H508 0.930 . S
C546 C514 1.423 . S
C546 C545 1.351 . S
C547 O531 1.276 . S
C547 O534 1.235 . S
C548 C549 1.393 . S
C548 C552 1.395 . S
C548 C555 1.492 . S
C549 C548 1.393 . S
C549 C550 1.392 . S
C549 H560 0.930 . S
C550 C549 1.392 . S
C550 C551 1.386 . S
C551 C550 1.386 . S
C551 C553 1.395 . S
C551 H561 0.930 . S
C552 C548 1.395 . S
C552 C553 1.379 . S
C552 H562 0.930 . S
C553 C551 1.395 . S
C553 C552 1.379 . S
C553 H563 0.930 . S
C554 O532 1.264 . S
C554 O533 1.254 . S
C555 Eu491 2.848 . S
C555 O530 1.257 . S
C555 O535 1.249 . S
C555 C548 1.492 . S
H556 C539 0.930 . S
H557 C540 0.930 . S
H558 C541 0.930 . S
H559 C542 0.930 . S
H560 C549 0.930 . S
H561 C551 0.930 . S
H562 C552 0.930 . S
H563 C553 0.930 . S
Eu564 N595 2.657 . S
Eu564 N602 2.609 . S
Eu564 O608 2.558 . S
Eu564 O609 2.612 . S
Eu564 O611 2.339 . S
Eu564 O612 2.563 . S
Eu564 O613 2.419 . S
Eu564 O615 2.385 . S
Eu564 O616 2.432 1_455 S
Eu564 C628 2.848 . S
C565 C568 1.429 . S
C565 C569 1.411 . S
C565 N572 1.377 . S
C566 C568 1.420 . S
C566 C570 1.423 . S
C566 C578 1.392 . S
C567 C569 1.420 . S
C567 C570 1.351 . S
C567 H590 0.931 . S
C568 C565 1.429 . S
C568 C566 1.420 . S
C568 N576 1.362 . S
C569 C565 1.411 . S
C569 C567 1.420 . S
C569 C574 1.395 . S
C570 C566 1.423 . S
C570 C567 1.351 . S
C570 H582 0.930 . S
C571 C573 1.400 . S
C571 C574 1.386 1_455 S
C571 H583 0.930 . S
N572 C565 1.377 . S
N572 C573 1.321 1_655 S
N572 Eu575 2.609 . S
C573 C571 1.400 . S
C573 N572 1.321 1_455 S
C573 H580 0.930 . S
C574 C569 1.395 . S
C574 C571 1.386 1_655 S
C574 H593 0.930 . S
Eu575 N572 2.609 . S
Eu575 N576 2.657 . S
Eu575 O609 2.380 1_655 S
Eu575 O610 2.432 1_655 S
Eu575 O614 2.558 . S
Eu575 O615 2.610 1_655 S
Eu575 O617 2.339 . S
Eu575 O618 2.563 . S
Eu575 O619 2.419 . S
Eu575 C639 2.848 . S
N576 C568 1.362 . S
N576 Eu575 2.657 . S
N576 C577 1.334 . S
C577 N576 1.334 . S
C577 C579 1.413 . S
C577 H584 0.929 . S
C578 C566 1.392 . S
C578 C579 1.367 . S
C578 H586 0.930 . S
C579 C577 1.413 . S
C579 C578 1.367 . S
C579 H581 0.930 . S
H580 C573 0.930 . S
H581 C579 0.930 . S
H582 C570 0.930 . S
H583 C571 0.930 . S
H584 C577 0.929 . S
H585 C599 0.930 . S
H586 C578 0.930 . S
H587 C605 0.930 1_655 S
H588 C596 0.929 . S
H589 C603 0.928 . S
H590 C567 0.931 . S
H591 C597 0.930 . S
H592 C630 0.930 . S
H593 C574 0.930 . S
H594 C629 0.931 . S
N595 Eu564 2.657 . S
N595 C596 1.334 . S
N595 C600 1.362 . S
C596 H588 0.929 . S
C596 N595 1.334 . S
C596 C599 1.413 . S
C597 H591 0.930 . S
C597 C598 1.392 . S
C597 C599 1.367 . S
C598 C597 1.392 . S
C598 C600 1.420 . S
C598 C630 1.423 . S
C599 H585 0.930 . S
C599 C596 1.413 . S
C599 C597 1.367 . S
C600 N595 1.362 . S
C600 C598 1.420 . S
C600 C604 1.429 . S
H601 C606 0.930 . S
N602 Eu564 2.609 . S
N602 C604 1.377 . S
N602 C605 1.321 . S
C603 H589 0.928 . S
C603 C605 1.400 1_655 S
C603 C606 1.387 1_655 S
C604 C600 1.429 . S
C604 N602 1.377 . S
C604 C607 1.411 . S
C605 H587 0.930 1_455 S
C605 N602 1.321 . S
C605 C603 1.400 1_455 S
C606 H601 0.930 . S
C606 C603 1.387 1_455 S
C606 C607 1.395 . S
C607 C604 1.411 . S
C607 C606 1.395 . S
C607 C629 1.420 . S
O608 Eu564 2.558 . S
O608 C628 1.257 . S
O609 Eu564 2.612 . S
O609 Eu575 2.380 1_455 S
O609 C620 1.276 . S
O610 Eu575 2.432 1_455 S
O610 C627 1.264 . S
O611 Eu564 2.339 . S
O611 C627 1.254 . S
O612 Eu564 2.563 . S
O612 C620 1.235 . S
O613 Eu564 2.419 . S
O613 C628 1.249 . S
O614 Eu575 2.558 . S
O614 C639 1.257 . S
O615 Eu564 2.385 . S
O615 Eu575 2.610 1_455 S
O615 C631 1.273 1_455 S
O616 Eu564 2.432 1_655 S
O616 C638 1.264 . S
O617 Eu575 2.339 . S
O617 C638 1.254 . S
O618 Eu575 2.563 . S
O618 C631 1.235 . S
O619 Eu575 2.419 . S
O619 C639 1.249 . S
C620 O609 1.276 . S
C620 O612 1.235 . S
C621 C623 1.393 . S
C621 C625 1.395 . S
C621 C628 1.492 . S
C622 C623 1.392 . S
C622 C624 1.386 . S
C623 C621 1.393 . S
C623 C622 1.392 . S
C623 H640 0.930 . S
C624 C622 1.386 . S
C624 C626 1.395 . S
C624 H641 0.930 . S
C625 C621 1.395 . S
C625 C626 1.379 . S
C625 H642 0.930 . S
C626 C624 1.395 . S
C626 C625 1.379 . S
C626 H643 0.930 . S
C627 O610 1.264 . S
C627 O611 1.254 . S
C628 Eu564 2.848 . S
C628 O608 1.257 . S
C628 O613 1.249 . S
C628 C621 1.492 . S
C629 H594 0.931 . S
C629 C607 1.420 . S
C629 C630 1.351 . S
C630 H592 0.930 . S
C630 C598 1.423 . S
C630 C629 1.351 . S
C631 O615 1.273 1_655 S
C631 O618 1.235 . S
C632 C633 1.393 . S
C632 C636 1.395 . S
C632 C639 1.492 . S
C633 C632 1.393 . S
C633 C634 1.392 . S
C633 H644 0.930 . S
C634 C633 1.392 . S
C634 C635 1.386 . S
C635 C634 1.386 . S
C635 C637 1.395 . S
C635 H645 0.930 . S
C636 C632 1.395 . S
C636 C637 1.379 . S
C636 H646 0.930 . S
C637 C635 1.395 . S
C637 C636 1.379 . S
C637 H647 0.930 . S
C638 O616 1.264 . S
C638 O617 1.254 . S
C639 Eu575 2.848 . S
C639 O614 1.257 . S
C639 O619 1.249 . S
C639 C632 1.492 . S
H640 C623 0.930 . S
H641 C624 0.930 . S
H642 C625 0.930 . S
H643 C626 0.930 . S
H644 C633 0.930 . S
H645 C635 0.930 . S
H646 C636 0.930 . S
H647 C637 0.930 . S
H648 C654 0.930 . S
H649 C658 0.930 . S
H650 C663 0.929 . S
H651 C661 0.929 . S
H652 C656 0.929 . S
H653 C662 0.929 . S
C654 H648 0.930 . S
C654 C655 1.367 . S
C654 C662 1.378 . S
C655 C654 1.367 . S
C655 C663 1.433 . S
C656 H652 0.929 . S
C656 C658 1.378 . S
C656 C660 1.350 . S
C657 C660 1.463 . S
C657 C662 1.350 . S
C657 N665 1.427 . S
C658 H649 0.930 . S
C658 C656 1.378 . S
C658 C659 1.367 . S
C659 C658 1.367 . S
C659 C661 1.433 . S
C660 C656 1.350 . S
C660 C657 1.463 . S
C660 N664 1.427 . S
C661 H651 0.929 . S
C661 C659 1.433 . S
C661 N664 1.384 . S
C662 H653 0.929 . S
C662 C654 1.378 . S
C662 C657 1.350 . S
C663 H650 0.929 . S
C663 C655 1.433 . S
C663 N665 1.384 . S
N664 C660 1.427 . S
N664 C661 1.384 . S
N665 C657 1.427 . S
N665 C663 1.384 . S
H666 C672 0.930 . S
H667 C676 0.930 . S
H668 C681 0.929 . S
H669 C679 0.929 . S
H670 C674 0.929 . S
H671 C680 0.929 . S
C672 H666 0.930 . S
C672 C673 1.367 . S
C672 C680 1.378 . S
C673 C672 1.367 . S
C673 C681 1.433 . S
C674 H670 0.929 . S
C674 C676 1.378 . S
C674 C678 1.350 . S
C675 C678 1.463 . S
C675 C680 1.350 . S
C675 N683 1.427 . S
C676 H667 0.930 . S
C676 C674 1.378 . S
C676 C677 1.367 . S
C677 C676 1.367 . S
C677 C679 1.433 . S
C678 C674 1.350 . S
C678 C675 1.463 . S
C678 N682 1.427 . S
C679 H669 0.929 . S
C679 C677 1.433 . S
C679 N682 1.384 . S
C680 H671 0.929 . S
C680 C672 1.378 . S
C680 C675 1.350 . S
C681 H668 0.929 . S
C681 C673 1.433 . S
C681 N683 1.384 . S
N682 C678 1.427 . S
N682 C679 1.384 . S
N683 C675 1.427 . S
N683 C681 1.384 . S
H684 C690 0.930 . S
H685 C694 0.930 . S
H686 C699 0.929 . S
H687 C697 0.929 . S
H688 C692 0.929 . S
H689 C698 0.929 . S
C690 H684 0.930 . S
C690 C691 1.367 . S
C690 C698 1.378 . S
C691 C690 1.367 . S
C691 C699 1.433 . S
C692 H688 0.929 . S
C692 C694 1.378 . S
C692 C696 1.350 . S
C693 C696 1.463 . S
C693 C698 1.350 . S
C693 N701 1.427 . S
C694 H685 0.930 . S
C694 C692 1.378 . S
C694 C695 1.367 . S
C695 C694 1.367 . S
C695 C697 1.433 . S
C696 C692 1.350 . S
C696 C693 1.463 . S
C696 N700 1.427 . S
C697 H687 0.929 . S
C697 C695 1.433 . S
C697 N700 1.384 . S
C698 H689 0.929 . S
C698 C690 1.378 . S
C698 C693 1.350 . S
C699 H686 0.929 . S
C699 C691 1.433 . S
C699 N701 1.384 . S
N700 C696 1.427 . S
N700 C697 1.384 . S
N701 C693 1.427 . S
N701 C699 1.384 . S
H702 C708 0.930 . S
H703 C712 0.930 . S
H704 C717 0.929 . S
H705 C715 0.919 1_655 S
H706 C710 0.929 . S
H707 C716 0.929 . S
C708 H702 0.930 . S
C708 C709 1.367 . S
C708 C716 1.378 . S
C709 C708 1.367 . S
C709 C717 1.433 . S
C710 H706 0.929 . S
C710 C712 1.378 . S
C710 C714 1.350 . S
C711 C714 1.463 . S
C711 C716 1.350 . S
C711 N719 1.427 . S
C712 H703 0.930 . S
C712 C710 1.378 . S
C712 C713 1.367 . S
C713 C712 1.367 . S
C713 C715 1.433 . S
C714 C710 1.350 . S
C714 C711 1.463 . S
C714 N718 1.427 . S
C715 H705 0.919 1_455 S
C715 C713 1.433 . S
C715 N718 1.384 . S
C716 H707 0.929 . S
C716 C708 1.378 . S
C716 C711 1.350 . S
C717 H704 0.929 . S
C717 C709 1.433 . S
C717 N719 1.384 . S
N718 C714 1.427 . S
N718 C715 1.384 . S
N719 C711 1.427 . S
N719 C717 1.384 . S
H720 C726 0.930 . S
H721 C730 0.930 1_545 S
H722 C735 0.929 . S
H723 C733 0.929 . S
H724 C728 0.929 . S
H725 C734 0.929 . S
C726 H720 0.930 . S
C726 C727 1.367 . S
C726 C734 1.378 1_554 S
C727 C726 1.367 . S
C727 C735 1.433 . S
C728 H724 0.929 . S
C728 C730 1.378 . S
C728 C732 1.350 . S
C729 C732 1.463 . S
C729 C734 1.350 . S
C729 N737 1.427 1_556 S
C730 H721 0.930 1_565 S
C730 C728 1.378 . S
C730 C731 1.367 . S
C731 C730 1.367 . S
C731 C733 1.433 . S
C732 C728 1.350 . S
C732 C729 1.463 . S
C732 N736 1.427 . S
C733 H723 0.929 . S
C733 C731 1.433 . S
C733 N736 1.384 . S
C734 H725 0.929 . S
C734 C726 1.378 1_556 S
C734 C729 1.350 . S
C735 H722 0.929 . S
C735 C727 1.433 . S
C735 N737 1.384 . S
N736 C732 1.427 . S
N736 C733 1.384 . S
N737 C729 1.427 1_554 S
N737 C735 1.384 . S
H738 C744 0.930 . S
H739 C748 0.930 . S
H740 C753 0.929 . S
H741 C751 0.929 . S
H742 C746 0.929 . S
H743 C752 0.929 . S
C744 H738 0.930 . S
C744 C745 1.367 . S
C744 C752 1.378 . S
C745 C744 1.367 . S
C745 C753 1.433 . S
C746 H742 0.929 . S
C746 C748 1.378 . S
C746 C750 1.350 . S
C747 C750 1.463 . S
C747 C752 1.350 1_556 S
C747 N755 1.427 . S
C748 H739 0.930 . S
C748 C746 1.378 . S
C748 C749 1.367 . S
C749 C748 1.367 . S
C749 C751 1.433 . S
C750 C746 1.350 . S
C750 C747 1.463 . S
C750 N754 1.427 . S
C751 H741 0.929 . S
C751 C749 1.433 . S
C751 N754 1.384 . S
C752 H743 0.929 . S
C752 C744 1.378 . S
C752 C747 1.350 1_554 S
C753 H740 0.929 . S
C753 C745 1.433 . S
C753 N755 1.384 1_554 S
N754 C750 1.427 . S
N754 C751 1.384 . S
N755 C747 1.427 . S
N755 C753 1.384 1_556 S
H756 C762 0.930 . S
H757 C766 0.930 . S
H758 C771 0.929 . S
H759 C769 0.929 . S
H760 C764 0.929 . S
H761 C770 0.929 . S
C762 H756 0.930 . S
C762 C763 1.367 . S
C762 C770 1.369 1_554 S
C763 C762 1.367 . S
C763 C771 1.433 . S
C764 H760 0.929 . S
C764 C766 1.378 . S
C764 C768 1.350 . S
C765 C768 1.463 . S
C765 C770 1.359 . S
C765 N773 1.427 . S
C766 H757 0.930 . S
C766 C764 1.378 . S
C766 C767 1.367 . S
C767 C766 1.367 . S
C767 C769 1.433 . S
C768 C764 1.350 . S
C768 C765 1.463 . S
C768 N772 1.427 . S
C769 H759 0.929 . S
C769 C767 1.433 . S
C769 N772 1.384 . S
C770 H761 0.929 . S
C770 C762 1.369 1_556 S
C770 C765 1.359 . S
C771 H758 0.929 . S
C771 C763 1.433 . S
C771 N773 1.384 1_554 S
N772 C768 1.427 . S
N772 C769 1.384 . S
N773 C765 1.427 . S
N773 C771 1.384 1_556 S
H774 C780 0.930 . S
H775 C784 0.930 . S
H776 C789 0.929 . S
H777 C787 0.929 . S
H778 C782 0.929 . S
H779 C788 0.929 . S
C780 H774 0.930 . S
C780 C781 1.367 . S
C780 C788 1.378 1_554 S
C781 C780 1.367 . S
C781 C789 1.433 . S
C782 H778 0.929 . S
C782 C784 1.378 . S
C782 C786 1.350 . S
C783 C786 1.463 . S
C783 C788 1.350 . S
C783 N791 1.427 . S
C784 H775 0.930 . S
C784 C782 1.378 . S
C784 C785 1.367 . S
C785 C784 1.367 . S
C785 C787 1.433 . S
C786 C782 1.350 . S
C786 C783 1.463 . S
C786 N790 1.427 . S
C787 H777 0.929 . S
C787 C785 1.433 . S
C787 N790 1.384 . S
C788 H779 0.929 . S
C788 C780 1.378 1_556 S
C788 C783 1.350 . S
C789 H776 0.929 . S
C789 C781 1.433 . S
C789 N791 1.384 1_554 S
N790 C786 1.427 . S
N790 C787 1.384 . S
N791 C783 1.427 . S
N791 C789 1.384 1_556 S
H792 C798 0.930 . S
H793 C802 0.930 . S
H794 C807 0.929 . S
H795 C805 0.929 . S
H796 C800 0.929 . S
H797 C806 0.929 . S
C798 H792 0.930 . S
C798 C799 1.367 . S
C798 C806 1.378 . S
C799 C798 1.367 . S
C799 C807 1.433 . S
C800 H796 0.929 . S
C800 C802 1.378 . S
C800 C804 1.350 . S
C801 C804 1.463 . S
C801 C806 1.350 . S
C801 N809 1.427 . S
C802 H793 0.930 . S
C802 C800 1.378 . S
C802 C803 1.367 . S
C803 C802 1.367 . S
C803 C805 1.433 1_455 S
C804 C800 1.350 . S
C804 C801 1.463 . S
C804 N808 1.427 . S
C805 H795 0.929 . S
C805 C803 1.433 1_655 S
C805 N808 1.384 1_655 S
C806 H797 0.929 . S
C806 C798 1.378 . S
C806 C801 1.350 . S
C807 H794 0.929 . S
C807 C799 1.433 . S
C807 N809 1.384 . S
N808 C804 1.427 . S
N808 C805 1.384 1_455 S
N809 C801 1.427 . S
N809 C807 1.384 . S
H810 C816 0.930 . S
H811 C820 0.930 . S
H812 C825 0.929 . S
H813 C823 0.929 . S
H814 C818 0.929 . S
H815 C824 0.929 . S
C816 H810 0.930 . S
C816 C817 1.367 . S
C816 C824 1.378 . S
C817 C816 1.367 . S
C817 C825 1.433 . S
C818 H814 0.929 . S
C818 C820 1.378 1_545 S
C818 C822 1.350 . S
C819 C822 1.463 . S
C819 C824 1.350 . S
C819 N827 1.427 . S
C820 H811 0.930 . S
C820 C818 1.378 1_565 S
C820 C821 1.355 1_565 S
C821 C820 1.355 1_545 S
C821 C823 1.467 . S
C822 C818 1.350 . S
C822 C819 1.463 . S
C822 N826 1.427 . S
C823 H813 0.929 . S
C823 C821 1.467 . S
C823 N826 1.384 . S
C824 H815 0.929 . S
C824 C816 1.378 . S
C824 C819 1.350 . S
C825 H812 0.929 . S
C825 C817 1.433 . S
C825 N827 1.384 . S
N826 C822 1.427 . S
N826 C823 1.384 . S
N827 C819 1.427 . S
N827 C825 1.384 . S
H828 C834 0.930 . S
H829 C838 0.930 . S
H830 C843 0.929 . S
H831 C841 0.929 . S
H832 C836 0.929 . S
H833 C842 0.929 . S
C834 H828 0.930 . S
C834 C835 1.367 . S
C834 C842 1.378 . S
C835 C834 1.367 . S
C835 C843 1.433 . S
C836 H832 0.929 . S
C836 C838 1.378 . S
C836 C840 1.350 . S
C837 C840 1.463 . S
C837 C842 1.350 . S
C837 N845 1.427 . S
C838 H829 0.930 . S
C838 C836 1.378 . S
C838 C839 1.367 . S
C839 C838 1.367 . S
C839 C841 1.433 . S
C840 C836 1.350 . S
C840 C837 1.463 . S
C840 N844 1.427 . S
C841 H831 0.929 . S
C841 C839 1.433 . S
C841 N844 1.384 . S
C842 H833 0.929 . S
C842 C834 1.378 . S
C842 C837 1.350 . S
C843 H830 0.929 . S
C843 C835 1.433 . S
C843 N845 1.384 . S
N844 C840 1.427 . S
N844 C841 1.384 . S
N845 C837 1.427 . S
N845 C843 1.384 . S
H846 C852 0.930 . S
H847 C856 0.930 . S
H848 C861 0.929 . S
H849 C859 0.929 . S
H850 C854 0.929 . S
H851 C860 0.929 . S
C852 H846 0.930 . S
C852 C853 1.367 . S
C852 C860 1.378 . S
C853 C852 1.367 . S
C853 C861 1.433 . S
C854 H850 0.929 . S
C854 C856 1.378 . S
C854 C858 1.350 . S
C855 C858 1.463 . S
C855 C860 1.350 . S
C855 N863 1.427 . S
C856 H847 0.930 . S
C856 C854 1.378 . S
C856 C857 1.367 . S
C857 C856 1.367 . S
C857 C859 1.433 . S
C858 C854 1.350 . S
C858 C855 1.463 . S
C858 N862 1.427 . S
C859 H849 0.929 . S
C859 C857 1.433 . S
C859 N862 1.384 . S
C860 H851 0.929 . S
C860 C852 1.378 . S
C860 C855 1.350 . S
C861 H848 0.929 . S
C861 C853 1.433 . S
C861 N863 1.384 . S
N862 C858 1.427 . S
N862 C859 1.384 . S
N863 C855 1.427 . S
N863 C861 1.384 . S
H864 C870 0.930 . S
H865 C874 0.930 . S
H866 C879 0.929 . S
H867 C877 0.929 . S
H868 C872 0.929 1_455 S
H869 C878 0.929 . S
C870 H864 0.930 . S
C870 C871 1.367 . S
C870 C878 1.378 . S
C871 C870 1.367 . S
C871 C879 1.433 1_556 S
C872 H868 0.929 1_655 S
C872 C874 1.378 1_655 S
C872 C876 1.350 . S
C873 C876 1.463 . S
C873 C878 1.350 . S
C873 N881 1.427 . S
C874 H865 0.930 . S
C874 C872 1.378 1_455 S
C874 C875 1.367 . S
C875 C874 1.367 . S
C875 C877 1.433 1_455 S
C876 C872 1.350 . S
C876 C873 1.463 . S
C876 N880 1.427 . S
C877 H867 0.929 . S
C877 C875 1.433 1_655 S
C877 N880 1.384 . S
C878 H869 0.929 . S
C878 C870 1.378 . S
C878 C873 1.350 . S
C879 H866 0.929 . S
C879 C871 1.433 1_554 S
C879 N881 1.384 1_554 S
N880 C876 1.427 . S
N880 C877 1.384 . S
N881 C873 1.427 . S
N881 C879 1.384 1_556 S
H882 C888 0.930 . S
H883 C892 0.930 . S
H884 C897 0.929 . S
H885 C895 0.929 . S
H886 C890 0.929 . S
H887 C896 0.929 1_554 S
C888 H882 0.930 . S
C888 C889 1.367 1_554 S
C888 C896 1.378 1_554 S
C889 C888 1.367 1_556 S
C889 C897 1.433 . S
C890 H886 0.929 . S
C890 C892 1.378 . S
C890 C894 1.350 . S
C891 C894 1.463 . S
C891 C896 1.350 . S
C891 N899 1.427 . S
C892 H883 0.930 . S
C892 C890 1.378 . S
C892 C893 1.367 1_565 S
C893 C892 1.367 1_545 S
C893 C895 1.433 . S
C894 C890 1.350 . S
C894 C891 1.463 . S
C894 N898 1.427 1_565 S
C895 H885 0.929 . S
C895 C893 1.433 . S
C895 N898 1.384 . S
C896 H887 0.929 1_556 S
C896 C888 1.378 1_556 S
C896 C891 1.350 . S
C897 H884 0.929 . S
C897 C889 1.433 . S
C897 N899 1.384 . S
N898 C894 1.427 1_545 S
N898 C895 1.384 . S
N899 C891 1.427 . S
N899 C897 1.384 . S
H900 C906 0.930 . S
H901 C910 0.930 . S
H902 C915 0.929 1_554 S
H903 C913 0.929 . S
H904 C908 0.929 . S
H905 C914 0.929 . S
C906 H900 0.930 . S
C906 C907 1.367 . S
C906 C914 1.378 . S
C907 C906 1.367 . S
C907 C915 1.433 . S
C908 H904 0.929 . S
C908 C910 1.378 . S
C908 C912 1.350 . S
C909 C912 1.463 . S
C909 C914 1.350 . S
C909 N917 1.427 . S
C910 H901 0.930 . S
C910 C908 1.378 . S
C910 C911 1.367 . S
C911 C910 1.367 . S
C911 C913 1.433 . S
C912 C908 1.350 . S
C912 C909 1.463 . S
C912 N916 1.427 . S
C913 H903 0.929 . S
C913 C911 1.433 . S
C913 N916 1.384 . S
C914 H905 0.929 . S
C914 C906 1.378 . S
C914 C909 1.350 . S
C915 H902 0.929 1_556 S
C915 C907 1.433 . S
C915 N917 1.384 . S
N916 C912 1.427 . S
N916 C913 1.384 . S
N917 C909 1.427 . S
N917 C915 1.384 . S
H918 C924 0.930 1_554 S
H919 C928 0.930 . S
H920 C933 0.929 . S
H921 C931 0.929 . S
H922 C926 0.929 . S
H923 C932 0.929 . S
C924 H918 0.930 1_556 S
C924 C925 1.367 . S
C924 C932 1.378 . S
C925 C924 1.367 . S
C925 C933 1.433 . S
C926 H922 0.929 . S
C926 C928 1.378 . S
C926 C930 1.350 . S
C927 C930 1.463 . S
C927 C932 1.350 . S
C927 N935 1.427 . S
C928 H919 0.930 . S
C928 C926 1.378 . S
C928 C929 1.367 . S
C929 C928 1.367 . S
C929 C931 1.433 . S
C930 C926 1.350 . S
C930 C927 1.463 . S
C930 N934 1.427 . S
C931 H921 0.929 . S
C931 C929 1.433 . S
C931 N934 1.384 . S
C932 H923 0.929 . S
C932 C924 1.378 . S
C932 C927 1.350 . S
C933 H920 0.929 . S
C933 C925 1.433 . S
C933 N935 1.384 . S
N934 C930 1.427 . S
N934 C931 1.384 . S
N935 C927 1.427 . S
N935 C933 1.384 . S
H936 C942 0.930 . S
H937 C946 0.930 . S
H938 C951 0.929 . S
H939 C949 0.929 . S
H940 C944 0.929 . S
H941 C950 0.929 . S
C942 H936 0.930 . S
C942 C943 1.367 . S
C942 C950 1.378 . S
C943 C942 1.367 . S
C943 C951 1.433 . S
C944 H940 0.929 . S
C944 C946 1.378 . S
C944 C948 1.350 . S
C945 C948 1.463 . S
C945 C950 1.350 . S
C945 N953 1.427 . S
C946 H937 0.930 . S
C946 C944 1.378 . S
C946 C947 1.367 . S
C947 C946 1.367 . S
C947 C949 1.433 . S
C948 C944 1.350 . S
C948 C945 1.463 . S
C948 N952 1.427 . S
C949 H939 0.929 . S
C949 C947 1.433 . S
C949 N952 1.384 . S
C950 H941 0.929 . S
C950 C942 1.378 . S
C950 C945 1.350 . S
C951 H938 0.929 . S
C951 C943 1.433 . S
C951 N953 1.384 . S
N952 C948 1.427 . S
N952 C949 1.384 . S
N953 C945 1.427 . S
N953 C951 1.384 . S
H954 C960 0.930 . S
H955 C964 0.930 . S
H956 C969 0.929 . S
H957 C967 0.929 . S
H958 C962 0.929 . S
H959 C968 0.929 . S
C960 H954 0.930 . S
C960 C961 1.367 . S
C960 C968 1.378 . S
C961 C960 1.367 . S
C961 C969 1.433 . S
C962 H958 0.929 . S
C962 C964 1.378 . S
C962 C966 1.350 . S
C963 C966 1.463 . S
C963 C968 1.350 . S
C963 N971 1.427 . S
C964 H955 0.930 . S
C964 C962 1.378 . S
C964 C965 1.367 . S
C965 C964 1.367 . S
C965 C967 1.433 . S
C966 C962 1.350 . S
C966 C963 1.463 . S
C966 N970 1.427 . S
C967 H957 0.929 . S
C967 C965 1.433 . S
C967 N970 1.384 . S
C968 H959 0.929 . S
C968 C960 1.378 . S
C968 C963 1.350 . S
C969 H956 0.929 . S
C969 C961 1.433 . S
C969 N971 1.384 . S
N970 C966 1.427 . S
N970 C967 1.384 . S
N971 C963 1.427 . S
N971 C969 1.384 . S
H972 C978 0.930 . S
H973 C982 0.930 . S
H974 C987 0.929 . S
H975 C985 0.929 . S
H976 C980 0.929 . S
H977 C986 0.929 . S
C978 H972 0.930 . S
C978 C979 1.367 . S
C978 C986 1.378 . S
C979 C978 1.367 . S
C979 C987 1.433 . S
C980 H976 0.929 . S
C980 C982 1.378 . S
C980 C984 1.350 . S
C981 C984 1.463 . S
C981 C986 1.350 . S
C981 N989 1.427 . S
C982 H973 0.930 . S
C982 C980 1.378 . S
C982 C983 1.367 . S
C983 C982 1.367 . S
C983 C985 1.433 . S
C984 C980 1.350 . S
C984 C981 1.463 . S
C984 N988 1.427 . S
C985 H975 0.929 . S
C985 C983 1.433 . S
C985 N988 1.384 . S
C986 H977 0.929 . S
C986 C978 1.378 . S
C986 C981 1.350 . S
C987 H974 0.929 . S
C987 C979 1.433 . S
C987 N989 1.384 . S
N988 C984 1.427 . S
N988 C985 1.384 . S
N989 C981 1.427 . S
N989 C987 1.384 . S
H990 C996 0.930 . S
H991 C1000 0.930 . S
H992 C1005 0.929 . S
H993 C1003 0.929 . S
H994 C998 0.929 . S
H995 C1004 0.929 . S
C996 H990 0.930 . S
C996 C997 1.367 . S
C996 C1004 1.378 . S
C997 C996 1.367 . S
C997 C1005 1.433 . S
C998 H994 0.929 . S
C998 C1000 1.378 . S
C998 C1002 1.350 . S
C999 C1002 1.463 . S
C999 C1004 1.350 . S
C999 N1007 1.427 . S
C1000 H991 0.930 . S
C1000 C998 1.378 . S
C1000 C1001 1.367 . S
C1001 C1000 1.367 . S
C1001 C1003 1.433 . S
C1002 C998 1.350 . S
C1002 C999 1.463 . S
C1002 N1006 1.427 . S
C1003 H993 0.929 . S
C1003 C1001 1.433 . S
C1003 N1006 1.384 . S
C1004 H995 0.929 . S
C1004 C996 1.378 . S
C1004 C999 1.350 . S
C1005 H992 0.929 . S
C1005 C997 1.433 . S
C1005 N1007 1.384 . S
N1006 C1002 1.427 . S
N1006 C1003 1.384 . S
N1007 C999 1.427 . S
N1007 C1005 1.384 . S
H1008 C1014 0.930 . S
H1009 C1018 0.930 . S
H1010 C1023 0.929 . S
H1011 C1021 0.929 . S
H1012 C1016 0.929 . S
H1013 C1022 0.929 . S
C1014 H1008 0.930 . S
C1014 C1015 1.367 . S
C1014 C1022 1.378 . S
C1015 C1014 1.367 . S
C1015 C1023 1.433 . S
C1016 H1012 0.929 . S
C1016 C1018 1.378 . S
C1016 C1020 1.350 . S
C1017 C1020 1.463 . S
C1017 C1022 1.350 . S
C1017 N1025 1.427 . S
C1018 H1009 0.930 . S
C1018 C1016 1.378 . S
C1018 C1019 1.367 . S
C1019 C1018 1.367 . S
C1019 C1021 1.433 . S
C1020 C1016 1.350 . S
C1020 C1017 1.463 . S
C1020 N1024 1.427 . S
C1021 H1011 0.929 . S
C1021 C1019 1.433 . S
C1021 N1024 1.384 . S
C1022 H1013 0.929 . S
C1022 C1014 1.378 . S
C1022 C1017 1.350 . S
C1023 H1010 0.929 . S
C1023 C1015 1.433 . S
C1023 N1025 1.384 . S
N1024 C1020 1.427 . S
N1024 C1021 1.384 . S
N1025 C1017 1.427 . S
N1025 C1023 1.384 . S
H1026 C1032 0.930 . S
H1027 C1036 0.930 . S
H1028 C1041 0.929 . S
H1029 C1039 0.929 . S
H1030 C1034 0.929 . S
H1031 C1040 0.929 . S
C1032 H1026 0.930 . S
C1032 C1033 1.367 . S
C1032 C1040 1.378 . S
C1033 C1032 1.367 . S
C1033 C1041 1.433 . S
C1034 H1030 0.929 . S
C1034 C1036 1.378 . S
C1034 C1038 1.350 . S
C1035 C1038 1.463 . S
C1035 C1040 1.350 . S
C1035 N1043 1.427 . S
C1036 H1027 0.930 . S
C1036 C1034 1.378 . S
C1036 C1037 1.367 . S
C1037 C1036 1.367 . S
C1037 C1039 1.433 . S
C1038 C1034 1.350 . S
C1038 C1035 1.463 . S
C1038 N1042 1.427 . S
C1039 H1029 0.929 . S
C1039 C1037 1.433 . S
C1039 N1042 1.384 . S
C1040 H1031 0.929 . S
C1040 C1032 1.378 . S
C1040 C1035 1.350 . S
C1041 H1028 0.929 . S
C1041 C1033 1.433 . S
C1041 N1043 1.384 . S
N1042 C1038 1.427 . S
N1042 C1039 1.384 . S
N1043 C1035 1.427 . S
N1043 C1041 1.384 . S
H1044 C1050 0.930 . S
H1045 C1054 0.930 . S
H1046 C1059 0.929 . S
H1047 C1057 0.929 . S
H1048 C1052 0.929 . S
H1049 C1058 0.929 . S
C1050 H1044 0.930 . S
C1050 C1051 1.367 . S
C1050 C1058 1.378 . S
C1051 C1050 1.367 . S
C1051 C1059 1.433 . S
C1052 H1048 0.929 . S
C1052 C1054 1.378 . S
C1052 C1056 1.350 . S
C1053 C1056 1.463 . S
C1053 C1058 1.350 . S
C1053 N1061 1.427 . S
C1054 H1045 0.930 . S
C1054 C1052 1.378 . S
C1054 C1055 1.367 . S
C1055 C1054 1.367 . S
C1055 C1057 1.433 . S
C1056 C1052 1.350 . S
C1056 C1053 1.463 . S
C1056 N1060 1.427 . S
C1057 H1047 0.929 . S
C1057 C1055 1.433 . S
C1057 N1060 1.384 . S
C1058 H1049 0.929 . S
C1058 C1050 1.378 . S
C1058 C1053 1.350 . S
C1059 H1046 0.929 . S
C1059 C1051 1.433 . S
C1059 N1061 1.384 . S
N1060 C1056 1.427 . S
N1060 C1057 1.384 . S
N1061 C1053 1.427 . S
N1061 C1059 1.384 . S
H1062 C1068 0.930 . S
H1063 C1072 0.930 . S
H1064 C1077 0.929 . S
H1065 C1075 0.929 . S
H1066 C1070 0.929 . S
H1067 C1076 0.929 . S
C1068 H1062 0.930 . S
C1068 C1069 1.367 . S
C1068 C1076 1.378 . S
C1069 C1068 1.367 . S
C1069 C1077 1.433 . S
C1070 H1066 0.929 . S
C1070 C1072 1.378 . S
C1070 C1074 1.350 . S
C1071 C1074 1.463 . S
C1071 C1076 1.350 . S
C1071 N1079 1.427 . S
C1072 H1063 0.930 . S
C1072 C1070 1.378 . S
C1072 C1073 1.367 . S
C1073 C1072 1.367 . S
C1073 C1075 1.433 . S
C1074 C1070 1.350 . S
C1074 C1071 1.463 . S
C1074 N1078 1.427 . S
C1075 H1065 0.929 . S
C1075 C1073 1.433 . S
C1075 N1078 1.384 . S
C1076 H1067 0.929 . S
C1076 C1068 1.378 . S
C1076 C1071 1.350 . S
C1077 H1064 0.929 . S
C1077 C1069 1.433 . S
C1077 N1079 1.384 . S
N1078 C1074 1.427 . S
N1078 C1075 1.384 . S
N1079 C1071 1.427 . S
N1079 C1077 1.384 . S
C655 C255 2.280 . S
C659 C386 2.357 . S
C677 C470 2.377 . S
C673 C294 2.277 . S
C695 C536 2.292 . S
C691 C177 2.402 . S
C713 C620 2.273 . S
C709 C216 2.385 . S
C731 C375 2.349 1_565 S
C727 C99 2.280 . S
C745 C138 2.277 . S
C749 C459 2.388 . S
C763 C21 2.413 . S
C767 C547 2.289 . S
C781 C60 2.399 . S
C785 C631 2.272 . S
C803 C382 0.658 1_455 S
C799 C196 0.653 . S
C821 C466 0.546 1_545 S
C817 C235 0.647 . S
C839 C538 0.583 . S
C835 C289 0.602 . S
C853 C157 0.650 . S
C857 C622 0.636 . S
C871 C40 0.689 1_556 S
C875 C370 0.639 . S
C893 C454 0.600 . S
C889 C79 0.600 1_556 S
C911 C550 0.560 . S
C907 C133 0.595 1_556 S
C925 C1 0.627 1_556 S
C929 C634 0.628 . S
C943 C211 2.777 . S
C947 C379 2.934 . S
C961 C250 2.720 . S
C965 C463 2.886 . S
C983 C543 2.957 . S
C979 C274 2.618 . S
C1001 C627 2.983 . S
C997 C172 2.651 . S
C1015 C55 2.774 . S
C1019 C368 2.936 . S
C1037 C452 2.886 . S
C1033 C94 2.717 . S
C1055 C554 2.958 . S
C1051 C118 2.623 . S
C1069 C16 2.649 . S
C1073 C638 2.984 . S
