# Generated by pormake.
# Topology ssc, (4,4)-cn, num edge types: 1
# Building blocks:
#     Node 0, Type 0, BuildingBlock: QUQFOY_clean_sbu_3, # of connection points: 4
#     Node 1, Type 0, BuildingBlock: QUQFOY_clean_sbu_3, # of connection points: 4
#     Node 2, Type 0, BuildingBlock: QUQFOY_clean_sbu_3, # of connection points: 4
#     Node 3, Type 0, BuildingBlock: QUQFOY_clean_sbu_3, # of connection points: 4
#     Node 4, Type 0, BuildingBlock: QUQFOY_clean_sbu_3, # of connection points: 4
#     Node 5, Type 0, BuildingBlock: QUQFOY_clean_sbu_3, # of connection points: 4
#     Node 6, Type 0, BuildingBlock: QUQFOY_clean_sbu_3, # of connection points: 4
#     Node 7, Type 0, BuildingBlock: QUQFOY_clean_sbu_3, # of connection points: 4
#     Node 8, Type 0, BuildingBlock: QUQFOY_clean_sbu_3, # of connection points: 4
#     Node 9, Type 0, BuildingBlock: QUQFOY_clean_sbu_3, # of connection points: 4
#     Node 10, Type 0, BuildingBlock: QUQFOY_clean_sbu_3, # of connection points: 4
#     Node 11, Type 0, BuildingBlock: QUQFOY_clean_sbu_3, # of connection points: 4
#     Node 12, Type 1, BuildingBlock: KUFVIS_clean_linker_0, # of connection points: 4
#     Node 13, Type 1, BuildingBlock: KUFVIS_clean_linker_0, # of connection points: 4
#     Node 14, Type 1, BuildingBlock: KUFVIS_clean_linker_0, # of connection points: 4
#     Node 15, Type 1, BuildingBlock: KUFVIS_clean_linker_0, # of connection points: 4
#     Node 16, Type 1, BuildingBlock: KUFVIS_clean_linker_0, # of connection points: 4
#     Node 17, Type 1, BuildingBlock: KUFVIS_clean_linker_0, # of connection points: 4
#     Node 18, Type 1, BuildingBlock: KUFVIS_clean_linker_0, # of connection points: 4
#     Node 19, Type 1, BuildingBlock: KUFVIS_clean_linker_0, # of connection points: 4
#     Node 20, Type 1, BuildingBlock: KUFVIS_clean_linker_0, # of connection points: 4
#     Node 21, Type 1, BuildingBlock: KUFVIS_clean_linker_0, # of connection points: 4
#     Node 22, Type 1, BuildingBlock: KUFVIS_clean_linker_0, # of connection points: 4
#     Node 23, Type 1, BuildingBlock: KUFVIS_clean_linker_0, # of connection points: 4
#     Edge 24, Type (0, 1), BuildingBlock: OJICUG_clean_linker_0, # of connection points: 2
#     Edge 25, Type (0, 1), BuildingBlock: OJICUG_clean_linker_0, # of connection points: 2
#     Edge 26, Type (0, 1), BuildingBlock: OJICUG_clean_linker_0, # of connection points: 2
#     Edge 27, Type (0, 1), BuildingBlock: OJICUG_clean_linker_0, # of connection points: 2
#     Edge 28, Type (0, 1), BuildingBlock: OJICUG_clean_linker_0, # of connection points: 2
#     Edge 29, Type (0, 1), BuildingBlock: OJICUG_clean_linker_0, # of connection points: 2
#     Edge 30, Type (0, 1), BuildingBlock: OJICUG_clean_linker_0, # of connection points: 2
#     Edge 31, Type (0, 1), BuildingBlock: OJICUG_clean_linker_0, # of connection points: 2
#     Edge 32, Type (0, 1), BuildingBlock: OJICUG_clean_linker_0, # of connection points: 2
#     Edge 33, Type (0, 1), BuildingBlock: OJICUG_clean_linker_0, # of connection points: 2
#     Edge 34, Type (0, 1), BuildingBlock: OJICUG_clean_linker_0, # of connection points: 2
#     Edge 35, Type (0, 1), BuildingBlock: OJICUG_clean_linker_0, # of connection points: 2
#     Edge 36, Type (0, 1), BuildingBlock: OJICUG_clean_linker_0, # of connection points: 2
#     Edge 37, Type (0, 1), BuildingBlock: OJICUG_clean_linker_0, # of connection points: 2
#     Edge 38, Type (0, 1), BuildingBlock: OJICUG_clean_linker_0, # of connection points: 2
#     Edge 39, Type (0, 1), BuildingBlock: OJICUG_clean_linker_0, # of connection points: 2
#     Edge 40, Type (0, 1), BuildingBlock: OJICUG_clean_linker_0, # of connection points: 2
#     Edge 41, Type (0, 1), BuildingBlock: OJICUG_clean_linker_0, # of connection points: 2
#     Edge 42, Type (0, 1), BuildingBlock: OJICUG_clean_linker_0, # of connection points: 2
#     Edge 43, Type (0, 1), BuildingBlock: OJICUG_clean_linker_0, # of connection points: 2
#     Edge 44, Type (0, 1), BuildingBlock: OJICUG_clean_linker_0, # of connection points: 2
#     Edge 45, Type (0, 1), BuildingBlock: OJICUG_clean_linker_0, # of connection points: 2
#     Edge 46, Type (0, 1), BuildingBlock: OJICUG_clean_linker_0, # of connection points: 2
#     Edge 47, Type (0, 1), BuildingBlock: OJICUG_clean_linker_0, # of connection points: 2
#     Edge 48, Type (0, 1), BuildingBlock: OJICUG_clean_linker_0, # of connection points: 2
#     Edge 49, Type (0, 1), BuildingBlock: OJICUG_clean_linker_0, # of connection points: 2
#     Edge 50, Type (0, 1), BuildingBlock: OJICUG_clean_linker_0, # of connection points: 2
#     Edge 51, Type (0, 1), BuildingBlock: OJICUG_clean_linker_0, # of connection points: 2
#     Edge 52, Type (0, 1), BuildingBlock: OJICUG_clean_linker_0, # of connection points: 2
#     Edge 53, Type (0, 1), BuildingBlock: OJICUG_clean_linker_0, # of connection points: 2
#     Edge 54, Type (0, 1), BuildingBlock: OJICUG_clean_linker_0, # of connection points: 2
#     Edge 55, Type (0, 1), BuildingBlock: OJICUG_clean_linker_0, # of connection points: 2
#     Edge 56, Type (0, 1), BuildingBlock: OJICUG_clean_linker_0, # of connection points: 2
#     Edge 57, Type (0, 1), BuildingBlock: OJICUG_clean_linker_0, # of connection points: 2
#     Edge 58, Type (0, 1), BuildingBlock: OJICUG_clean_linker_0, # of connection points: 2
#     Edge 59, Type (0, 1), BuildingBlock: OJICUG_clean_linker_0, # of connection points: 2
#     Edge 60, Type (0, 1), BuildingBlock: OJICUG_clean_linker_0, # of connection points: 2
#     Edge 61, Type (0, 1), BuildingBlock: OJICUG_clean_linker_0, # of connection points: 2
#     Edge 62, Type (0, 1), BuildingBlock: OJICUG_clean_linker_0, # of connection points: 2
#     Edge 63, Type (0, 1), BuildingBlock: OJICUG_clean_linker_0, # of connection points: 2
#     Edge 64, Type (0, 1), BuildingBlock: OJICUG_clean_linker_0, # of connection points: 2
#     Edge 65, Type (0, 1), BuildingBlock: OJICUG_clean_linker_0, # of connection points: 2
#     Edge 66, Type (0, 1), BuildingBlock: OJICUG_clean_linker_0, # of connection points: 2
#     Edge 67, Type (0, 1), BuildingBlock: OJICUG_clean_linker_0, # of connection points: 2
#     Edge 68, Type (0, 1), BuildingBlock: OJICUG_clean_linker_0, # of connection points: 2
#     Edge 69, Type (0, 1), BuildingBlock: OJICUG_clean_linker_0, # of connection points: 2
#     Edge 70, Type (0, 1), BuildingBlock: OJICUG_clean_linker_0, # of connection points: 2
#     Edge 71, Type (0, 1), BuildingBlock: OJICUG_clean_linker_0, # of connection points: 2
# Relax obj value: 0.126
# Max RMSD: 0.307
# Mean RMSD: 0.275
data_MOF--net-ssc--node1-QUQFOY_clean_sbu_3--node2-KUFVIS_clean_linker_0--edge1-OJICUG_clean_linker_0
_symmetry_space_group_name_H-M    P1
_symmetry_Int_Tables_number       1
_symmetry_cell_setting            triclinic
loop_
_symmetry_equiv_pos_as_xyz
'x, y, z'
_cell_length_a     23.369909
_cell_length_b     23.395681
_cell_length_c     23.363697
_cell_angle_alpha  92.101797
_cell_angle_beta   90.513733
_cell_angle_gamma 91.014544
loop_
_atom_site_label
_atom_site_type_symbol
_atom_site_fract_x
_atom_site_fract_y
_atom_site_fract_z
_atom_type_partial_charge
C0 C 0.0825 0.15604 0.22956 0.0
O1 O 0.04045 0.12643 0.24572 0.0
Cd2 Cd 0.9758 0.14446 0.16842 0.0
O3 O 0.07616 0.18338 0.18394 0.0
Cd4 Cd 0.97995 0.18013 0.13163 0.0
C5 C 0.88663 0.18269 0.23664 0.0
O6 O -0.01037 0.07898 0.09437 0.0
O7 O 0.90817 0.11681 0.07831 0.0
O8 O 0.04075 0.21607 0.05883 0.0
C9 C 0.94289 0.07688 0.06673 0.0
O10 O 0.88152 0.13562 0.20848 0.0
C11 C 0.00687 0.25134 0.03746 0.0
O12 O 0.92628 0.21685 0.22181 0.0
O13 O 0.95938 0.2583 0.06277 0.0
C14 C 0.11396 0.67065 0.28957 0.0
O15 O 0.11269 0.72445 0.29766 0.0
Cd16 Cd 0.03899 0.77143 0.34845 0.0
O17 O 0.07818 0.63769 0.3132 0.0
Cd18 Cd 0.00263 0.64171 0.38525 0.0
C19 C 0.92291 0.69904 0.2798 0.0
O20 O 0.03183 0.72956 0.43806 0.0
O21 O 0.94399 0.69997 0.4451 0.0
O22 O 0.06894 0.58052 0.43297 0.0
C23 C 0.98306 0.73565 0.46045 0.0
O24 O 0.95562 0.74236 0.29038 0.0
C25 C 0.03176 0.55057 0.45799 0.0
O26 O 0.92884 0.65258 0.30661 0.0
O27 O 0.97953 0.55915 0.44534 0.0
C28 C 0.55789 0.76638 0.75015 0.0
O29 O 0.53491 0.71706 0.75159 0.0
Cd30 Cd 0.4566 0.68979 0.69308 0.0
O31 O 0.5378 0.8043 0.71773 0.0
Cd32 Cd 0.45953 0.81682 0.64484 0.0
C33 C 0.36428 0.79222 0.74943 0.0
O34 O 0.48821 0.72694 0.60565 0.0
O35 O 0.40823 0.75448 0.57125 0.0
O36 O 0.53371 0.87718 0.60406 0.0
C37 C 0.45024 0.72106 0.56739 0.0
O38 O 0.38291 0.74169 0.74326 0.0
C39 C 0.50184 0.90493 0.57125 0.0
O40 O 0.3845 0.83267 0.72002 0.0
O41 O 0.44834 0.89547 0.57546 0.0
C42 C 0.66392 0.27599 0.82895 0.0
O43 O 0.66104 0.32861 0.8184 0.0
Cd44 Cd 0.57755 0.38108 0.83946 0.0
O45 O 0.62369 0.25113 0.8556 0.0
Cd46 Cd 0.53049 0.27885 0.8999 0.0
C47 C 0.47651 0.29121 0.77213 0.0
O48 O 0.55004 0.3744 0.9371 0.0
O49 O 0.46151 0.35601 0.91475 0.0
O50 O 0.5462 0.24951 -0.00472 0.0
C51 C 0.49803 0.38802 0.94142 0.0
O52 O 0.50586 0.33761 0.77429 0.0
C53 C 0.50649 0.21203 -0.00433 0.0
O54 O 0.47722 0.25689 0.8129 0.0
O55 O 0.47923 0.20131 0.94915 0.0
C56 C 0.0134 0.98156 0.21295 0.0
O57 O 0.02829 0.01163 0.25698 0.0
Cd58 Cd 0.11657 0.01071 0.30795 0.0
O59 O 0.04482 0.94126 0.19354 0.0
Cd60 Cd 0.12798 0.89529 0.23754 0.0
C61 C 0.05469 0.90427 0.36138 0.0
O62 O 0.18736 0.97988 0.24308 0.0
O63 O 0.21471 0.91207 0.2965 0.0
O64 O 0.16035 0.85316 0.14578 0.0
C65 C 0.22599 0.95956 0.2742 0.0
O66 O 0.09641 0.93749 0.37545 0.0
C67 C 0.17539 0.80642 0.16719 0.0
O68 O 0.05266 0.88218 0.31072 0.0
O69 O 0.16155 0.79896 0.21895 0.0
C70 C 0.14854 0.95495 0.53226 0.0
O71 O 0.15253 0.95347 0.47826 0.0
Cd72 Cd 0.24442 0.94257 0.44088 0.0
O73 O 0.18804 0.93402 0.56264 0.0
Cd74 Cd 0.27466 0.87382 0.54475 0.0
C75 C 0.32423 0.00399 0.55701 0.0
O76 O 0.27244 0.84614 0.44115 0.0
O77 O 0.35596 0.8614 0.47919 0.0
O78 O 0.21925 0.79466 0.58138 0.0
C79 C 0.32634 0.84479 0.43574 0.0
O80 O 0.30041 0.00435 0.50774 0.0
C81 C 0.25777 0.77622 0.6142 0.0
O82 O 0.32499 0.95852 0.58526 0.0
O83 O 0.30558 0.80307 0.61532 0.0
C84 C 0.47089 0.0002 0.70156 0.0
O85 O 0.45064 0.95322 0.71872 0.0
Cd86 Cd 0.36329 0.94097 0.7685 0.0
O87 O 0.44333 0.04659 0.70815 0.0
Cd88 Cd 0.35473 0.07258 0.75963 0.0
C89 C 0.42559 0.02068 0.87418 0.0
O90 O 0.29168 -0.00584 0.72213 0.0
O91 O 0.26445 0.0403 0.79836 0.0
O92 O 0.3288 0.14676 0.69408 0.0
C93 C 0.25162 0.0067 0.75619 0.0
O94 O 0.39792 0.97429 0.86235 0.0
C95 C 0.30863 0.18009 0.73286 0.0
O96 O 0.42041 0.06352 0.84251 0.0
O97 O 0.31881 0.16756 0.78442 0.0
C98 C 0.21536 0.05704 0.10696 0.0
O99 O 0.20268 0.06982 0.15835 0.0
Cd100 Cd 0.2782 0.12541 0.20409 0.0
O101 O 0.25602 0.08399 0.08292 0.0
Cd102 Cd 0.32514 0.16594 0.10321 0.0
C103 C 0.39332 0.05429 0.15274 0.0
O104 O 0.28191 0.22371 0.17801 0.0
O105 O 0.37415 0.22337 0.18023 0.0
O106 O 0.28354 0.2204 0.02709 0.0
C107 C 0.32826 0.24825 0.19446 0.0
O108 O 0.36174 0.06229 0.19616 0.0
C109 C 0.33063 0.23849 0.00732 0.0
O110 O 0.38871 0.08632 0.11017 0.0
O111 O 0.37612 0.21978 0.02926 0.0
C112 C 0.72146 0.47189 0.88833 0.0
O113 O 0.7536 0.48003 0.84585 0.0
Cd114 Cd 0.8377 0.42581 0.82399 0.0
O115 O 0.73256 0.43221 0.92282 0.0
Cd116 Cd 0.81523 0.36295 0.93227 0.0
C117 C 0.90771 0.47447 0.94317 0.0
O118 O 0.83134 0.32464 0.83375 0.0
O119 O 0.90411 0.32675 0.89118 0.0
O120 O 0.76236 0.27724 0.96361 0.0
C121 C 0.88183 0.30838 0.84422 0.0
O122 O 0.90917 0.46921 0.88877 0.0
C123 C 0.78858 0.27302 0.01112 0.0
O124 O 0.87248 0.44472 0.9715 0.0
O125 O 0.82538 0.31219 0.02383 0.0
C126 C 0.97526 0.39134 0.13534 0.0
O127 O 0.9697 0.34104 0.15283 0.0
Cd128 Cd 0.89265 0.32337 0.21625 0.0
O129 O 0.94161 0.43021 0.15323 0.0
Cd130 Cd 0.86369 0.43521 0.22467 0.0
C131 C 0.94947 0.39834 0.32692 0.0
O132 O 0.80192 0.35908 0.18448 0.0
O133 O 0.80421 0.3659 0.27656 0.0
O134 O 0.82916 0.51415 0.17141 0.0
C135 C 0.78016 0.345 0.23136 0.0
O136 O 0.92956 0.34921 0.31155 0.0
C137 C 0.80229 0.53847 0.21218 0.0
O138 O 0.93723 0.44162 0.29835 0.0
O139 O 0.80555 0.51615 0.26076 0.0
C140 C 0.6162 0.52771 0.48276 0.0
O141 O 0.62045 0.52504 0.5366 0.0
Cd142 Cd 0.67615 0.59229 0.59215 0.0
O143 O 0.64292 0.56675 0.45689 0.0
Cd144 Cd 0.71006 0.64466 0.48966 0.0
C145 C 0.80457 0.55535 0.54244 0.0
O146 O 0.65647 0.6897 0.57017 0.0
O147 O 0.74801 0.70286 0.57015 0.0
O148 O 0.67014 0.69764 0.41226 0.0
C149 C 0.69974 0.71762 0.58937 0.0
O150 O 0.7748 0.56029 0.58759 0.0
C151 C 0.71681 0.71997 0.39626 0.0
O152 O 0.78797 0.57788 0.4966 0.0
O153 O 0.76188 0.70566 0.42245 0.0
C154 C 0.52991 0.57972 0.61753 0.0
O155 O 0.54838 0.63087 0.61965 0.0
Cd156 Cd 0.61379 0.64964 0.69909 0.0
O157 O 0.55583 0.54194 0.645 0.0
Cd158 Cd 0.64459 0.53106 0.7024 0.0
C159 C 0.54844 0.55851 0.79417 0.0
O160 O 0.70992 0.61656 0.69662 0.0
O161 O 0.70064 0.5787 0.77879 0.0
O162 O 0.68134 0.46412 0.63085 0.0
C163 C 0.72706 0.61392 0.74817 0.0
O164 O 0.5607 0.60876 0.77844 0.0
C165 C 0.69435 0.42682 0.66669 0.0
O166 O 0.57171 0.51529 0.77072 0.0
O167 O 0.68513 0.43856 0.71926 0.0
H168 H 0.83642 0.34685 0.50886 0.0
H169 H 0.88849 0.22093 0.62479 0.0
H170 H 0.00932 0.34732 0.57054 0.0
H171 H 0.96322 0.15912 0.58789 0.0
H172 H 0.12139 0.14358 0.67871 0.0
H173 H 0.05748 0.31059 0.64833 0.0
C174 C 0.8706 0.32456 0.52999 0.0
C175 C 0.92331 0.35314 0.53727 0.0
C176 C 0.85556 0.28366 0.56931 0.0
C177 C 0.89953 0.25407 0.59557 0.0
C178 C 0.95681 0.27337 0.59199 0.0
C179 C 0.96783 0.32619 0.56635 0.0
C180 C 0.00245 0.23927 0.61854 0.0
C181 C -0.00195 0.17916 0.61273 0.0
C182 C 0.04088 0.14447 0.6338 0.0
C183 C 0.0867 0.17001 0.6644 0.0
C184 C 0.09363 0.22961 0.66852 0.0
C185 C 0.05147 0.26458 0.64569 0.0
H186 H 0.86869 0.66136 0.92534 0.0
H187 H 0.02764 0.7402 0.9802 0.0
H188 H 0.92543 0.81501 0.84785 0.0
H189 H 0.02027 0.83268 0.81891 0.0
H190 H 0.1455 0.9463 0.89713 0.0
H191 H 0.04146 0.84219 0.00383 0.0
C192 C 0.89841 0.69758 0.92486 0.0
C193 C 0.89102 0.73841 0.88355 0.0
C194 C 0.94778 0.69736 0.9591 0.0
C195 C -0.01177 0.74198 0.95556 0.0
C196 C 0.97983 0.7863 0.91705 0.0
C197 C 0.9314 0.78332 0.87993 0.0
C198 C 0.02456 0.83208 0.9121 0.0
C199 C 0.04048 0.85078 0.85752 0.0
C200 C 0.08371 0.89228 0.85275 0.0
C201 C 0.11219 0.91392 0.90181 0.0
C202 C 0.0983 0.89594 0.95634 0.0
C203 C 0.05341 0.85559 0.96161 0.0
H204 H 0.36136 0.82704 0.13338 0.0
H205 H 0.42113 0.66497 0.06744 0.0
H206 H 0.54076 0.80476 0.10764 0.0
H207 H 0.51297 0.66723 0.9879 0.0
H208 H 0.66989 0.59778 0.04885 0.0
H209 H 0.57475 0.70918 0.16036 0.0
C210 C 0.39648 0.79955 0.12083 0.0
C211 C 0.4519 0.822 0.123 0.0
C212 C 0.38456 0.74413 0.09935 0.0
C213 C 0.43003 0.70853 0.08269 0.0
C214 C 0.48727 0.72953 0.08768 0.0
C215 C 0.49757 0.78704 0.10672 0.0
C216 C 0.53697 0.69185 0.07589 0.0
C217 C 0.54433 0.66305 0.02181 0.0
C218 C 0.5939 0.63058 0.01177 0.0
C219 C 0.63337 0.62519 0.05601 0.0
C220 C 0.62801 0.65427 0.10865 0.0
C221 C 0.57938 0.68709 0.11909 0.0
H222 H 0.39015 0.06094 0.44314 0.0
H223 H 0.48059 0.22182 0.46327 0.0
H224 H 0.42904 0.15604 0.29488 0.0
H225 H 0.54147 0.18895 0.29393 0.0
H226 H 0.5786 0.36837 0.29201 0.0
H227 H 0.45086 0.30534 0.4059 0.0
C228 C 0.41168 0.09706 0.42418 0.0
C229 C 0.40748 0.10316 0.36539 0.0
C230 C 0.43666 0.14019 0.45975 0.0
C231 C 0.46133 0.18844 0.43563 0.0
C232 C 0.46081 0.19313 0.37558 0.0
C233 C 0.43285 0.15084 0.34071 0.0
C234 C 0.48905 0.2422 0.3491 0.0
C235 C 0.53056 0.23235 0.30693 0.0
C236 C 0.56166 0.27825 0.28531 0.0
C237 C 0.55061 0.33399 0.30546 0.0
C238 C 0.51303 0.34404 0.35096 0.0
C239 C 0.48022 0.29813 0.37079 0.0
H240 H 0.64801 0.90439 0.39696 0.0
H241 H 0.69763 0.96399 0.23319 0.0
H242 H 0.58881 0.06678 0.3438 0.0
H243 H 0.54775 0.06338 0.24062 0.0
H244 H 0.62281 0.17705 0.12188 0.0
H245 H 0.73124 0.06805 0.21712 0.0
C246 C 0.64794 0.93807 0.36611 0.0
C247 C 0.61608 0.98691 0.37735 0.0
C248 C 0.6767 0.92935 0.31462 0.0
C249 C 0.67636 0.97156 0.27369 0.0
C250 C 0.64532 0.02205 0.28405 0.0
C251 C 0.61415 0.029 0.33586 0.0
C252 C 0.64067 0.06472 0.2386 0.0
C253 C 0.58574 0.08232 0.22223 0.0
C254 C 0.57982 0.12218 0.1798 0.0
C255 C 0.62824 0.14606 0.15498 0.0
C256 C 0.68275 0.12616 0.16634 0.0
C257 C 0.68933 0.08488 0.20848 0.0
H258 H 0.12085 0.28042 0.37053 0.0
H259 H 0.20268 0.411 0.47683 0.0
H260 H 0.29657 0.26179 0.42001 0.0
H261 H 0.30341 0.27569 0.53418 0.0
H262 H 0.41652 0.40487 0.60705 0.0
H263 H 0.30785 0.44486 0.46523 0.0
C264 C 0.15829 0.29614 0.39463 0.0
C265 C 0.20861 0.26525 0.39174 0.0
C266 C 0.15587 0.3484 0.4247 0.0
C267 C 0.20464 0.37045 0.45331 0.0
C268 C 0.25518 0.33848 0.45364 0.0
C269 C 0.25746 0.28601 0.42157 0.0
C270 C 0.30276 0.35693 0.49248 0.0
C271 C 0.32222 0.31826 0.5328 0.0
C272 C 0.36301 0.33598 0.57387 0.0
C273 C 0.38489 0.39168 0.57459 0.0
C274 C 0.36452 0.43159 0.53684 0.0
C275 C 0.32386 0.41415 0.49477 0.0
H276 H 0.9688 0.1014 0.861 0.0
H277 H 0.91975 0.07243 0.68394 0.0
H278 H 0.8937 0.94082 0.80607 0.0
H279 H 0.95617 0.95815 0.64369 0.0
H280 H 0.81446 0.85026 0.58785 0.0
H281 H 0.79888 0.95549 0.73986 0.0
C282 C 0.95435 0.07315 0.82574 0.0
C283 C 0.93448 0.01844 0.83859 0.0
C284 C 0.94778 0.0944 0.77072 0.0
C285 C 0.92574 0.05712 0.72678 0.0
C286 C 0.90666 0.00151 0.73938 0.0
C287 C 0.91035 0.98269 0.79562 0.0
C288 C 0.87956 0.96374 0.69492 0.0
C289 C 0.91214 0.94374 0.64817 0.0
C290 C 0.88849 0.90281 0.60907 0.0
C291 C 0.83205 0.88425 0.61599 0.0
C292 C 0.79932 0.90327 0.66206 0.0
C293 C 0.82319 0.94262 0.7024 0.0
H294 H 0.34025 0.65639 0.82763 0.0
H295 H 0.30401 0.51327 0.93051 0.0
H296 H 0.20738 0.66778 0.9532 0.0
H297 H 0.25612 0.62836 0.05127 0.0
H298 H 0.17463 0.48832 0.13292 0.0
H299 H 0.1765 0.49218 0.94939 0.0
C300 C 0.31282 0.63599 0.85849 0.0
C301 C 0.27039 0.66788 0.88601 0.0
C302 C 0.32695 0.58191 0.87678 0.0
C303 C 0.29237 0.555 0.91609 0.0
C304 C 0.24839 0.58523 0.94324 0.0
C305 C 0.2381 0.64262 0.9292 0.0
C306 C 0.22386 0.56023 -0.00544 0.0
C307 C 0.23564 0.58643 0.04829 0.0
C308 C 0.21714 0.56065 0.09808 0.0
C309 C 0.19178 0.50627 0.09426 0.0
C310 C 0.17387 0.48278 0.04105 0.0
C311 C 0.19108 0.5092 -0.0092 0.0
H312 H 0.62108 0.92882 0.8868 0.0
H313 H 0.64005 0.96103 0.0673 0.0
H314 H 0.72694 0.81923 0.98436 0.0
H315 H 0.71808 0.78909 0.08446 0.0
H316 H 0.82654 0.86781 0.21523 0.0
H317 H 0.74936 0.97156 0.09044 0.0
C318 C 0.64261 0.91967 0.92675 0.0
C319 C 0.676 0.87078 0.92969 0.0
C320 C 0.62785 0.9512 0.97589 0.0
C321 C 0.65171 0.93687 0.02879 0.0
C322 C 0.69007 0.89076 0.03198 0.0
C323 C 0.7002 0.8565 0.98236 0.0
C324 C 0.72331 0.88231 0.08552 0.0
C325 C 0.73524 0.82735 0.10634 0.0
C326 C 0.77179 0.82239 0.15436 0.0
C327 C 0.79525 0.87197 0.18099 0.0
C328 C 0.78969 0.92493 0.15616 0.0
C329 C 0.75165 0.93057 0.11057 0.0
H330 H 0.50143 0.73397 0.36194 0.0
H331 H 0.4151 0.68756 0.2046 0.0
H332 H 0.46691 0.55812 0.31932 0.0
H333 H 0.46351 0.60089 0.14025 0.0
H334 H 0.35979 0.44899 0.11427 0.0
H335 H 0.37702 0.52627 0.28245 0.0
C336 C 0.48854 0.7018 0.32949 0.0
C337 C 0.48756 0.6448 0.34538 0.0
C338 C 0.4545 0.71796 0.28346 0.0
C339 C 0.43835 0.67548 0.24207 0.0
C340 C 0.44464 0.61713 0.25355 0.0
C341 C 0.46793 0.60217 0.30645 0.0
C342 C 0.41873 0.57234 0.21477 0.0
C343 C 0.43252 0.5706 0.15636 0.0
C344 C 0.41082 0.52626 0.12005 0.0
C345 C 0.37346 0.48524 0.14176 0.0
C346 C 0.36321 0.48367 0.20047 0.0
C347 C 0.3848 0.52789 0.23688 0.0
H348 H 0.8865 0.06839 0.38703 0.0
H349 H 0.8498 0.98687 0.54425 0.0
H350 H 0.78014 0.15249 0.51212 0.0
H351 H 0.82275 0.14527 0.62633 0.0
H352 H 0.70069 0.06416 0.73473 0.0
H353 H 0.72206 0.00216 0.56188 0.0
C354 C 0.86551 0.06844 0.42834 0.0
C355 C 0.83274 0.1154 0.44544 0.0
C356 C 0.87215 0.02197 0.46332 0.0
C357 C 0.84528 0.02271 0.51692 0.0
C358 C 0.81216 0.06975 0.53512 0.0
C359 C 0.80622 0.1165 0.49913 0.0
C360 C 0.78203 0.06848 0.59067 0.0
C361 C 0.79366 0.11015 0.63442 0.0
C362 C 0.7649 0.10804 0.68719 0.0
C363 C 0.72571 0.06368 0.69573 0.0
C364 C 0.70681 0.02897 0.64962 0.0
C365 C 0.73669 0.0292 0.5978 0.0
H366 H 0.18674 0.34956 0.94322 0.0
H367 H 0.26612 0.44663 0.81284 0.0
H368 H 0.08173 0.42312 0.81473 0.0
H369 H 0.1113 0.41987 0.71069 0.0
H370 H 0.15884 0.57216 0.6248 0.0
H371 H 0.22266 0.54828 0.79469 0.0
C372 C 0.18273 0.37607 0.90619 0.0
C373 C 0.12886 0.38275 0.88149 0.0
C374 C 0.23222 0.39728 0.88121 0.0
C375 C 0.22763 0.43101 0.83301 0.0
C376 C 0.17306 0.44274 0.80977 0.0
C377 C 0.12358 0.41723 0.83372 0.0
C378 C 0.16848 0.47894 0.75873 0.0
C379 C 0.13453 0.46038 0.71075 0.0
C380 C 0.13194 0.49397 0.66223 0.0
C381 C 0.16196 0.54588 0.66209 0.0
C382 C 0.1938 0.56623 0.70935 0.0
C383 C 0.19809 0.53243 0.7577 0.0
C384 C 0.06521 0.25653 0.95001 0.0
C385 C 0.02423 0.28193 0.98578 0.0
H386 H 0.12756 0.2684 0.88538 0.0
C387 C 0.00642 0.33764 0.97467 0.0
H388 H 0.07839 0.21294 0.95589 0.0
C389 C 0.03618 0.37049 0.93478 0.0
C390 C 0.08205 0.34667 0.90419 0.0
H391 H 0.973 0.35726 -6e-05 0.0
H392 H 0.02671 0.41538 0.93156 0.0
C393 C 0.09296 0.28815 0.90903 0.0
C394 C 0.89172 0.72542 0.18257 0.0
C395 C 0.87676 0.70654 0.23701 0.0
H396 H 0.86758 0.77508 0.1112 0.0
C397 C 0.82 0.71263 0.25503 0.0
H398 H 0.93546 0.72211 0.16798 0.0
C399 C 0.78114 0.74335 0.22228 0.0
C400 C 0.79816 0.76814 0.17125 0.0
H401 H 0.80741 0.69878 0.29686 0.0
H402 H 0.73918 0.75182 0.23867 0.0
C403 C 0.85267 0.75551 0.1498 0.0
C404 C 0.51713 0.67836 0.49708 0.0
C405 C 0.4606 0.68533 0.51591 0.0
H406 H 0.57073 0.65538 0.4265 0.0
C407 C 0.41511 0.66265 0.48247 0.0
H408 H 0.55292 0.69584 0.52211 0.0
C409 C 0.42586 0.63761 0.42863 0.0
C410 C 0.48193 0.63719 0.40703 0.0
H411 H 0.37131 0.66715 0.49652 0.0
H412 H 0.38974 0.62565 0.40104 0.0
C413 C 0.52768 0.6544 0.44289 0.0
C414 C 0.71034 0.249 0.73801 0.0
C415 C 0.70528 0.24095 0.79695 0.0
H416 H 0.73426 0.21262 0.65681 0.0
C417 C 0.73114 0.19371 0.82104 0.0
H418 H 0.68857 0.28376 0.71826 0.0
C419 C 0.75858 0.15323 0.78572 0.0
C420 C 0.75908 0.15895 0.72585 0.0
H421 H 0.72709 0.18636 0.86634 0.0
H422 H 0.77471 0.11489 0.80436 0.0
C423 C 0.73676 0.20834 0.70275 0.0
C424 C 0.0172 0.51742 0.55713 0.0
C425 C 0.04925 0.51584 0.50664 0.0
H426 H 0.01778 0.5074 0.64804 0.0
C427 C 0.10407 0.49239 0.50792 0.0
H428 H 0.97669 0.53897 0.55823 0.0
C429 C 0.12704 0.47277 0.55882 0.0
C430 C 0.09724 0.47977 0.6104 0.0
H431 H 0.13147 0.49421 0.47097 0.0
H432 H 0.17155 0.46066 0.55968 0.0
C433 C 0.04076 0.49914 0.6086 0.0
C434 C 0.64079 0.8285 0.78095 0.0
C435 C 0.60467 0.78162 0.79071 0.0
H436 H 0.69888 0.89121 0.81797 0.0
C437 C 0.60907 0.75378 0.84285 0.0
H438 H 0.63884 0.84972 0.74068 0.0
C439 C 0.64243 0.77808 0.88758 0.0
C440 C 0.67205 0.82995 0.88015 0.0
H441 H 0.58235 0.71676 0.85121 0.0
H442 H 0.63878 0.76051 0.92969 0.0
C443 C 0.67584 0.85147 0.82486 0.0
C444 C 0.51485 0.45034 0.0284 0.0
C445 C 0.48044 0.43491 0.98054 0.0
H446 H 0.52047 0.4964 0.10897 0.0
C447 C 0.42726 0.46085 0.97373 0.0
H448 H 0.55609 0.43095 0.03464 0.0
C449 C 0.40669 0.49802 0.01665 0.0
C450 C 0.4395 0.51016 0.06631 0.0
H451 H 0.40038 0.44987 0.93688 0.0
H452 H 0.36334 0.51323 0.01369 0.0
C453 C 0.49495 0.48861 0.07041 0.0
C454 C 0.80607 0.15884 0.3009 0.0
C455 C 0.85699 0.18982 0.29209 0.0
H456 H 0.75451 0.11463 0.36058 0.0
C457 C 0.88678 0.21372 0.34002 0.0
H458 H 0.78261 0.13964 0.26506 0.0
C459 C 0.87122 0.19843 0.3953 0.0
C460 C 0.82551 0.15966 0.40285 0.0
H461 H 0.9266 0.2372 0.33471 0.0
H462 H 0.89994 0.20978 0.43076 0.0
C463 C 0.78961 0.145 0.35599 0.0
C464 C 0.00362 0.93168 0.45105 0.0
C465 C 0.00077 0.91328 0.39322 0.0
H466 H 0.96506 0.98185 0.51874 0.0
C467 C 0.94916 0.91991 0.36295 0.0
H468 H 0.04189 0.92485 0.47584 0.0
C469 C 0.90456 0.951 0.3879 0.0
C470 C 0.91067 0.9757 0.44354 0.0
H471 H 0.94534 0.90646 0.31819 0.0
H472 H 0.86724 0.95978 0.36207 0.0
C473 C 0.95964 0.96387 0.47562 0.0
C474 C 0.19061 0.71788 0.67073 0.0
C475 C 0.24601 0.72627 0.64959 0.0
H476 H 0.13243 0.66173 0.71206 0.0
C477 C 0.28802 0.68564 0.66067 0.0
H478 H 0.15765 0.74893 0.66366 0.0
C479 C 0.27326 0.63502 0.68813 0.0
C480 C 0.21672 0.62531 0.70596 0.0
H481 H 0.33103 0.6911 0.64463 0.0
H482 H 0.30455 0.60159 0.69093 0.0
C483 C 0.17654 0.66866 0.69971 0.0
C484 C 0.47361 0.97488 0.95563 0.0
C485 C 0.47377 0.01828 0.91582 0.0
H486 H 0.52407 0.92124 0.00769 0.0
C487 C 0.52517 0.04909 0.90726 0.0
H488 H 0.4353 0.94916 0.96135 0.0
C489 C 0.5761 0.033 0.93432 0.0
C490 C 0.57619 0.98636 0.97071 0.0
H491 H 0.52722 0.08194 0.87582 0.0
H492 H 0.61615 0.05303 0.92231 0.0
C493 C 0.52409 0.95949 0.98306 0.0
C494 C 0.28429 0.34455 0.20058 0.0
C495 C 0.32952 0.3087 0.21505 0.0
H496 H 0.25934 0.43053 0.18577 0.0
C497 C 0.3795 0.33312 0.24001 0.0
H498 H 0.24516 0.32689 0.18138 0.0
C499 C 0.38668 0.39257 0.24424 0.0
C500 C 0.34451 0.42815 0.22236 0.0
H501 H 0.4148 0.30642 0.25185 0.0
H502 H 0.42791 0.41032 0.25806 0.0
C503 C 0.29198 0.40393 0.20365 0.0
C504 C 0.94016 0.96298 0.1367 0.0
C505 C 0.95451 0.98589 0.19117 0.0
H506 H 0.87361 0.93093 0.08085 0.0
C507 C 0.91059 0.00336 0.22853 0.0
H508 H 0.97293 0.94916 0.10725 0.0
C509 C 0.85343 -0.00923 0.21431 0.0
C510 C 0.83994 0.96302 0.16168 0.0
H511 H 0.92049 0.02099 0.27107 0.0
H512 H 0.82072 -0.00263 0.24635 0.0
C513 C 0.88317 0.95331 0.12138 0.0
C514 C 0.4096 0.84417 0.36893 0.0
C515 C 0.35369 0.82582 0.38153 0.0
H516 H 0.48532 0.82744 0.32075 0.0
C517 C 0.32646 0.78501 0.34462 0.0
H518 H 0.43092 0.87721 0.39531 0.0
C519 C 0.35784 0.75602 0.30224 0.0
C520 C 0.41688 0.7676 0.29621 0.0
H521 H 0.28282 0.77116 0.35233 0.0
H522 H 0.3378 0.71913 0.28049 0.0
C523 C 0.44037 0.81647 0.32528 0.0
C524 C 0.54924 0.04686 0.64727 0.0
C525 C 0.53017 0.0021 0.68084 0.0
H526 H 0.62024 0.08667 0.60644 0.0
C527 C 0.56998 0.96261 0.70029 0.0
H528 H 0.52079 0.0805 0.63592 0.0
C529 C 0.62787 0.96893 0.68745 0.0
C530 C 0.64621 0.01201 0.65148 0.0
H531 H 0.55706 0.92928 0.72872 0.0
H532 H 0.65865 0.94256 0.70827 0.0
C533 C 0.60629 0.05063 0.63099 0.0
C534 C 0.32342 0.34196 -0.00694 0.0
C535 C 0.33104 0.28687 0.96889 0.0
H536 H 0.28756 0.42415 0.98148 0.0
C537 C 0.3243 0.27763 0.90961 0.0
H538 H 0.32818 0.34986 0.03888 0.0
C539 C 0.30301 0.3212 0.87621 0.0
C540 C 0.28619 0.37332 0.90223 0.0
H541 H 0.32965 0.23531 0.89026 0.0
H542 H 0.29105 0.31091 0.83216 0.0
C543 C 0.3011 0.38498 0.95993 0.0
C544 C 0.44398 0.96944 0.19256 0.0
C545 C 0.42421 -0.00014 0.14558 0.0
H546 H 0.47123 0.8879 0.22208 0.0
C547 C 0.42435 0.97313 0.09096 0.0
H548 H 0.44381 0.98893 0.23527 0.0
C549 C 0.43949 0.91614 0.0838 0.0
C550 C 0.45701 0.88478 0.13037 0.0
H551 H 0.40728 -0.00545 0.05441 0.0
H552 H 0.43237 0.8946 0.04247 0.0
C553 C 0.46037 0.91205 0.18497 0.0
C554 C 0.90868 0.5579 0.0124 0.0
C555 C 0.93699 0.52503 0.97017 0.0
H556 H 0.89269 0.64282 0.04493 0.0
C557 C 0.98495 0.54878 0.94339 0.0
H558 H 0.87188 0.54053 0.03416 0.0
C559 C -0.0019 0.60696 0.95127 0.0
C560 C 0.96172 0.64214 0.98384 0.0
H561 H 0.00823 0.52399 0.9115 0.0
H562 H 0.03004 0.62567 0.9239 0.0
C563 C 0.92112 0.61647 0.01929 0.0
C564 C 0.70915 0.58809 0.22661 0.0
C565 C 0.76305 0.58521 0.20031 0.0
H566 H 0.62184 0.61427 0.2176 0.0
C567 C 0.77456 0.61963 0.15389 0.0
H568 H 0.69932 0.5617 0.2625 0.0
C569 C 0.73132 0.65152 0.13019 0.0
C570 C 0.67499 0.64719 0.15052 0.0
H571 H 0.81594 0.61877 0.13333 0.0
H572 H 0.74031 0.67389 0.09135 0.0
C573 C 0.66492 0.61861 0.20136 0.0
C574 C 0.56104 0.43552 0.47739 0.0
C575 C 0.58018 0.48497 0.45053 0.0
H576 H 0.52293 0.35246 0.46705 0.0
C577 C 0.56488 0.49267 0.3931 0.0
H578 H 0.57089 0.42897 0.52205 0.0
C579 C 0.53565 0.44916 0.36169 0.0
C580 C 0.52223 0.39696 0.38701 0.0
H581 H 0.57733 0.53129 0.37186 0.0
H582 H 0.52744 0.45459 0.31651 0.0
C583 C 0.53234 0.39199 0.44601 0.0
C584 C 0.25025 0.7319 0.17113 0.0
C585 C 0.21796 0.76914 0.13837 0.0
H586 H 0.32597 0.68356 0.17805 0.0
C587 C 0.23479 0.77831 0.08178 0.0
H588 H 0.23912 0.72408 0.21505 0.0
C589 C 0.28717 0.75746 0.06187 0.0
C590 C 0.32325 0.72724 0.09827 0.0
H591 H 0.21092 0.80671 0.05525 0.0
H592 H 0.3034 0.77287 0.02192 0.0
C593 C 0.30072 0.70869 0.1499 0.0
C594 C 0.09834 -0.00387 0.61876 0.0
C595 C 0.10514 -0.00767 0.55904 0.0
H596 H 0.06914 0.04774 0.6903 0.0
C597 C 0.07725 0.03191 0.52508 0.0
H598 H 0.11878 0.96589 0.64597 0.0
C599 C 0.04836 0.07757 0.55024 0.0
C600 C 0.04796 0.08559 0.60999 0.0
H601 H 0.08145 0.0305 0.47891 0.0
H602 H 0.03227 0.11 0.52265 0.0
C603 C 0.06977 0.04258 0.6441 0.0
C604 C 0.71778 0.27707 0.28215 0.0
C605 C 0.72753 0.31004 0.23419 0.0
H606 H 0.65543 0.23564 0.33328 0.0
C607 C 0.68353 0.31564 0.19355 0.0
H608 H 0.75139 0.2716 0.3136 0.0
C609 C 0.62815 0.29617 0.2055 0.0
C610 C 0.6171 0.26966 0.25732 0.0
H611 H 0.69043 0.3404 0.15586 0.0
H612 H 0.5931 0.30766 0.17777 0.0
C613 C 0.66308 0.2557 0.2929 0.0
C614 C 0.82186 0.66647 0.75438 0.0
C615 C 0.76647 0.65718 0.77525 0.0
H616 H 0.90552 0.70267 0.77258 0.0
C617 C 0.74963 0.68689 0.82533 0.0
H618 H 0.83556 0.64441 0.71543 0.0
C619 C 0.78892 0.72077 0.85738 0.0
C620 C 0.84598 0.7257 0.83969 0.0
H621 H 0.70668 0.68134 0.84118 0.0
H622 H 0.77608 0.7389 0.89854 0.0
C623 C 0.86147 0.70055 0.78652 0.0
C624 C 0.4956 0.95859 0.4789 0.0
C625 C 0.52728 0.94159 0.52683 0.0
H626 H 0.49957 0.9885 0.3928 0.0
C627 C 0.58636 0.9532 0.52842 0.0
H628 H 0.4499 0.95031 0.4762 0.0
C629 C 0.61387 0.97771 0.4824 0.0
C630 C 0.58362 0.98854 0.43189 0.0
H631 H 0.61224 0.93952 0.56366 0.0
H632 H 0.6601 0.98164 0.48345 0.0
C633 C 0.52373 0.98148 0.43151 0.0
C634 C 0.45882 0.26023 0.67111 0.0
C635 C 0.43765 0.28114 0.72367 0.0
H636 H 0.44891 0.25977 0.57969 0.0
C637 C 0.38419 0.30689 0.72595 0.0
H638 H 0.5008 0.2414 0.66881 0.0
C639 C 0.35468 0.31703 0.67554 0.0
C640 C 0.37842 0.30146 0.62241 0.0
H641 H 0.36828 0.32466 0.76604 0.0
H642 H 0.31654 0.34271 0.67772 0.0
C643 C 0.4291 0.27031 0.6204 0.0
C644 C 0.98478 0.01893 0.9877 0.0
C645 C 0.9356 0.03931 0.0152 0.0
H646 H 0.02233 -0.00588 0.90795 0.0
C647 C 0.88262 0.03465 0.98648 0.0
H648 H 0.02632 0.02375 0.00809 0.0
C649 C 0.88044 0.01724 0.92859 0.0
C650 C 0.93127 0.00498 0.89931 0.0
H651 H 0.84405 0.04995 0.00688 0.0
H652 H 0.84048 0.02073 0.90518 0.0
C653 C 0.98261 0.0018 0.93011 0.0
C654 C 0.19018 0.60701 0.25104 0.0
C655 C 0.14769 0.6475 0.24248 0.0
H656 H 0.24836 0.54835 0.21041 0.0
C657 C 0.13291 0.66273 0.18706 0.0
H658 H 0.20096 0.59412 0.29381 0.0
C659 C 0.1598 0.63739 0.14024 0.0
C660 C 0.20207 0.59651 0.14815 0.0
H661 H 0.09914 0.69291 0.17988 0.0
H662 H 0.14555 0.64778 0.09763 0.0
C663 C 0.2175 0.58154 0.20381 0.0
C664 C 0.49308 0.21385 0.1002 0.0
C665 C 0.49535 0.18193 0.04832 0.0
H666 H 0.51251 0.21547 0.18934 0.0
C667 C 0.50118 0.12265 0.04913 0.0
H668 H 0.48745 0.25975 0.10044 0.0
C669 C 0.51656 0.09745 0.10009 0.0
C670 C 0.52564 0.13182 0.15008 0.0
H671 H 0.50169 0.09737 0.00974 0.0
H672 H 0.53111 0.05368 0.09798 0.0
C673 C 0.50635 0.18824 0.15141 0.0
C674 C 0.17621 0.20506 0.25179 0.0
C675 C 0.13336 0.16596 0.26715 0.0
H676 H 0.23978 0.26559 0.28245 0.0
C677 C 0.13435 0.14492 0.32282 0.0
H678 H 0.1765 0.22208 0.20933 0.0
C679 C 0.17179 0.16924 0.36438 0.0
C680 C 0.20742 0.21577 0.35098 0.0
H681 H 0.10208 0.11453 0.33609 0.0
H682 H 0.16582 0.15845 0.40867 0.0
C683 C 0.21366 0.22907 0.29336 0.0
C684 C -0.00082 0.80855 0.5399 0.0
C685 C 0.96778 0.78816 0.49169 0.0
H686 H -0.00179 0.86254 0.61619 0.0
C687 C 0.91687 0.81439 0.47658 0.0
H688 H 0.03894 0.78876 0.55168 0.0
C689 C 0.89446 0.85677 0.51211 0.0
C690 C 0.922 0.87303 0.56414 0.0
H691 H 0.89298 0.80021 0.43854 0.0
H692 H 0.85364 0.87458 0.50048 0.0
C693 C 0.97612 0.85085 0.57641 0.0
C694 C 0.34614 0.79736 0.85211 0.0
C695 C 0.3235 0.80162 0.79659 0.0
H696 H 0.34322 0.75015 0.92853 0.0
C697 C 0.26686 0.78284 0.78676 0.0
H698 H 0.38955 0.81212 0.86154 0.0
C699 C 0.24038 0.74583 0.82474 0.0
C700 C 0.27005 0.72957 0.87381 0.0
H701 H 0.24707 0.78912 0.74578 0.0
H702 H 0.20158 0.72306 0.81114 0.0
C703 C 0.31923 0.76165 0.8909 0.0
C704 C 0.48518 0.595 0.87006 0.0
C705 C 0.49797 0.5514 0.82992 0.0
H706 H 0.42016 0.63663 0.91843 0.0
C707 C 0.45579 0.50992 0.81409 0.0
H708 H 0.51678 0.62773 0.88227 0.0
C709 C 0.39946 0.51661 0.83268 0.0
C710 C 0.38606 0.56382 0.86826 0.0
H711 H 0.46477 0.47617 0.78262 0.0
H712 H 0.36607 0.48781 0.81597 0.0
C713 C 0.42987 0.60044 0.89005 0.0
C714 C 0.74358 0.17737 0.03057 0.0
C715 C 0.77469 0.22615 0.05057 0.0
H716 H 0.69376 0.10381 0.05266 0.0
C717 C 0.78856 0.23133 0.10926 0.0
H718 H 0.73331 0.17113 0.98544 0.0
C719 C 0.7646 0.19336 0.14805 0.0
C720 C 0.72874 0.14781 0.12863 0.0
H721 H 0.81421 0.26722 0.1257 0.0
H722 H 0.76959 0.20309 0.19328 0.0
C723 C 0.72182 0.13812 0.06906 0.0
C724 C 0.04497 0.43616 0.35837 0.0
C725 C -0.00321 0.40143 0.36879 0.0
H726 H 0.13589 0.44564 0.36879 0.0
C727 C 1e-05 0.36022 0.41075 0.0
H728 H 0.0437 0.46787 0.32575 0.0
C729 C 0.05181 0.35034 0.43812 0.0
C730 C 0.10175 0.37896 0.42112 0.0
H731 H 0.96364 0.33241 0.41892 0.0
H732 H 0.05439 0.31476 0.46642 0.0
C733 C 0.09765 0.42392 0.38332 0.0
C734 C 0.72817 0.76909 0.67881 0.0
C735 C 0.69597 0.76803 0.62802 0.0
H736 H 0.78377 0.81849 0.73508 0.0
C737 C 0.67958 0.8197 0.60506 0.0
H738 H 0.74146 0.72961 0.69633 0.0
C739 C 0.70504 0.87081 0.62601 0.0
C740 C 0.74608 0.87038 0.67051 0.0
H741 H 0.65522 0.81981 0.56537 0.0
H742 H 0.70103 0.9082 0.60061 0.0
C743 C 0.75211 0.82033 0.70102 0.0
C744 C 0.42733 0.55247 0.62182 0.0
C745 C 0.47553 0.56342 0.58847 0.0
H746 H 0.34954 0.50376 0.62852 0.0
C747 C 0.47488 0.54526 0.53072 0.0
H748 H 0.42665 0.5663 0.6666 0.0
C749 C 0.43132 0.50865 0.50886 0.0
C750 C 0.38759 0.49054 0.54495 0.0
H751 H 0.51024 0.55567 0.50391 0.0
H752 H 0.43582 0.48912 0.4664 0.0
C753 C 0.38295 0.51715 0.59976 0.0
C754 C 0.88068 0.23536 0.76349 0.0
C755 C 0.91061 0.26454 0.80799 0.0
H756 H 0.87305 0.15849 0.71216 0.0
C757 C 0.96507 0.24536 0.82309 0.0
H758 H 0.83945 0.25002 0.74985 0.0
C759 C 0.98426 0.19256 0.8016 0.0
C760 C 0.94822 0.1578 0.76579 0.0
H761 H -0.00987 0.26834 0.8556 0.0
H762 H 0.02338 0.17578 0.81904 0.0
C763 C 0.90004 0.18285 0.74175 0.0
C764 C 0.02163 0.45683 0.06761 0.0
C765 C 0.02349 0.40646 0.09811 0.0
H766 H 0.06891 0.51845 0.0213 0.0
C767 C 0.07357 0.37388 0.09654 0.0
H768 H 0.98393 0.4829 0.06877 0.0
C769 C 0.12251 0.39436 0.06919 0.0
C770 C 0.12153 0.44717 0.04254 0.0
H771 H 0.07627 0.33486 0.11991 0.0
H772 H 0.16242 0.37202 0.07376 0.0
C773 C 0.06987 0.47648 0.03929 0.0
C774 C 0.6673 0.77542 0.32226 0.0
C775 C 0.71657 0.7666 0.35548 0.0
H776 H 0.61882 0.83546 0.27616 0.0
C777 C 0.76105 0.8079 0.3563 0.0
H778 H 0.63269 0.74394 0.32011 0.0
C779 C 0.75279 0.86055 0.33119 0.0
C780 C 0.70024 0.87204 0.30485 0.0
H781 H 0.79962 0.80204 0.38127 0.0
H782 H 0.78404 0.89467 0.33927 0.0
C783 C 0.65994 0.8273 0.2958 0.0
C784 C 0.87324 0.49239 0.59184 0.0
C785 C 0.85257 0.51509 0.54093 0.0
H786 H 0.91711 0.42362 0.62973 0.0
C787 C 0.87084 0.49151 0.48819 0.0
H788 H 0.86005 0.50971 0.63319 0.0
C789 C 0.90298 0.44182 0.48631 0.0
C790 C 0.91922 0.4159 0.53708 0.0
H791 H 0.85521 0.50761 0.44818 0.0
H792 H 0.90807 0.41983 0.44538 0.0
C793 C 0.90684 0.44358 0.58986 0.0
C794 C 0.33751 0.10849 0.56424 0.0
C795 C 0.35975 0.05428 0.57394 0.0
H796 H 0.35152 0.18683 0.5223 0.0
C797 C 0.41909 0.04767 0.57248 0.0
H798 H 0.29177 0.11514 0.56613 0.0
C799 C 0.45315 0.08852 0.54604 0.0
C800 C 0.42723 0.13538 0.52147 0.0
H801 H 0.43732 0.00686 0.58124 0.0
H802 H 0.49619 0.07705 0.53379 0.0
C803 C 0.37211 0.15006 0.53959 0.0
C804 C 0.2213 0.23413 0.76091 0.0
C805 C 0.262 0.21967 0.71892 0.0
H806 H 0.13301 0.25159 0.77708 0.0
C807 C 0.24915 0.23 0.66137 0.0
H808 H 0.2295 0.22636 0.80563 0.0
C809 C 0.19435 0.24683 0.64549 0.0
C810 C 0.15097 0.25104 0.68659 0.0
H811 H 0.27935 0.21921 0.62796 0.0
H812 H 0.18368 0.24736 0.60026 0.0
C813 C 0.16592 0.24931 0.74476 0.0
C814 C 0.21695 0.97687 0.0342 0.0
C815 C 0.18656 0.00814 0.0759 0.0
H816 H 0.21356 0.91321 0.96642 0.0
C817 C 0.12952 -0.00801 0.08683 0.0
H818 H 0.26169 0.98652 0.02647 0.0
C819 C 0.1017 0.9496 0.05197 0.0
C820 C 0.13044 0.92335 0.00578 0.0
H821 H 0.10554 0.01442 0.11984 0.0
H822 H 0.0567 0.94086 0.058 0.0
C823 C 0.18951 0.93436 0.00026 0.0
C824 C 0.77335 0.36034 0.68089 0.0
C825 C 0.72574 0.37577 0.64868 0.0
H826 H 0.85263 0.31772 0.67998 0.0
C827 C 0.71372 0.3473 0.59589 0.0
H828 H 0.78351 0.38205 0.72159 0.0
C829 C 0.75197 0.3073 0.57327 0.0
C830 C 0.80364 0.29739 0.60227 0.0
H831 H 0.67683 0.35869 0.57059 0.0
H832 H 0.7448 0.28976 0.53019 0.0
C833 C 0.81225 0.32194 0.65766 0.0
C834 C 0.69632 0.57403 0.90665 0.0
C835 C 0.679 0.5162 0.9041 0.0
H836 H 0.67947 0.6583 0.94034 0.0
C837 C 0.62387 0.50194 0.92257 0.0
H838 H 0.73897 0.58634 0.89344 0.0
C839 C 0.58885 0.54394 0.94781 0.0
C840 C 0.60926 0.60016 0.95729 0.0
H841 H 0.60931 0.45806 0.91998 0.0
H842 H 0.54802 0.53198 0.96495 0.0
C843 C 0.66165 0.61564 0.93245 0.0
C844 C 0.19562 0.9151 0.74986 0.0
C845 C 0.19682 0.97501 0.75535 0.0
H846 H 0.15283 0.83858 0.77575 0.0
C847 C 0.14714 0.00367 0.77188 0.0
H848 H 0.23336 0.89239 0.73613 0.0
C849 C 0.09992 0.97285 0.79109 0.0
C850 C 0.10398 0.91365 0.79788 0.0
H851 H 0.1468 0.05 0.77512 0.0
H852 H 0.0651 -0.00368 0.81051 0.0
C853 C 0.14913 0.88431 0.77141 0.0
C854 C 0.32593 0.97127 0.31182 0.0
C855 C 0.27465 -0.00444 0.29402 0.0
H856 H 0.40972 0.98704 0.34757 0.0
C857 C 0.26924 0.05515 0.2965 0.0
H858 H 0.33073 0.92531 0.31047 0.0
C859 C 0.31452 0.09024 0.31601 0.0
C860 C 0.36579 0.06619 0.33385 0.0
H861 H 0.22953 0.07469 0.28426 0.0
H862 H 0.3087 0.1361 0.31928 0.0
C863 C 0.37117 0.00644 0.33211 0.0
loop_
_geom_bond_atom_site_label_1
_geom_bond_atom_site_label_2
_geom_bond_distance
_geom_bond_site_symmetry_2
_ccdc_geom_bond_type
C0 O1 1.306 . S
C0 O3 1.160 . S
O1 C0 1.306 . S
O1 Cd2 2.228 . S
Cd2 O1 2.228 . S
Cd2 O6 2.273 . S
Cd2 O10 2.277 1_455 S
O3 C0 1.160 . S
O3 Cd4 2.203 1_455 S
Cd4 O3 2.203 1_655 S
Cd4 O6 2.411 1_655 S
Cd4 O7 2.333 . S
Cd4 O8 2.352 1_655 S
Cd4 O12 2.277 . S
Cd4 O13 2.356 . S
C5 O10 1.209 . S
C5 O12 1.226 . S
O6 Cd2 2.273 . S
O6 Cd4 2.411 1_455 S
O6 C9 1.320 . S
O7 Cd4 2.333 . S
O7 C9 1.214 1_655 S
O8 Cd4 2.352 1_455 S
O8 C11 1.258 1_455 S
C9 O6 1.320 . S
C9 O7 1.214 1_455 S
O10 Cd2 2.277 1_655 S
O10 C5 1.209 . S
C11 O8 1.258 1_655 S
C11 O13 1.282 . S
O12 Cd4 2.277 . S
O12 C5 1.226 . S
O13 Cd4 2.356 . S
O13 C11 1.282 . S
C14 O15 1.306 . S
C14 O17 1.160 . S
O15 C14 1.306 . S
O15 Cd16 2.228 . S
Cd16 O15 2.228 . S
Cd16 O20 2.273 . S
Cd16 O24 2.277 1_455 S
O17 C14 1.160 . S
O17 Cd18 2.203 1_455 S
Cd18 O17 2.203 1_655 S
Cd18 O20 2.411 1_655 S
Cd18 O21 2.333 . S
Cd18 O22 2.352 1_655 S
Cd18 O26 2.277 . S
Cd18 O27 2.356 . S
C19 O24 1.209 . S
C19 O26 1.226 . S
O20 Cd16 2.273 . S
O20 Cd18 2.411 1_455 S
O20 C23 1.320 . S
O21 Cd18 2.333 . S
O21 C23 1.214 1_655 S
O22 Cd18 2.352 1_455 S
O22 C25 1.258 1_455 S
C23 O20 1.320 . S
C23 O21 1.214 1_455 S
O24 Cd16 2.277 1_655 S
O24 C19 1.209 . S
C25 O22 1.258 1_655 S
C25 O27 1.282 . S
O26 Cd18 2.277 . S
O26 C19 1.226 . S
O27 Cd18 2.356 . S
O27 C25 1.282 . S
C28 O29 1.306 . S
C28 O31 1.160 . S
O29 C28 1.306 . S
O29 Cd30 2.228 . S
Cd30 O29 2.228 . S
Cd30 O34 2.273 . S
Cd30 O38 2.277 . S
O31 C28 1.160 . S
O31 Cd32 2.203 . S
Cd32 O31 2.203 . S
Cd32 O34 2.411 . S
Cd32 O35 2.333 . S
Cd32 O36 2.352 . S
Cd32 O40 2.277 . S
Cd32 O41 2.356 . S
C33 O38 1.209 . S
C33 O40 1.226 . S
O34 Cd30 2.273 . S
O34 Cd32 2.411 . S
O34 C37 1.320 . S
O35 Cd32 2.333 . S
O35 C37 1.214 . S
O36 Cd32 2.352 . S
O36 C39 1.258 . S
C37 O34 1.320 . S
C37 O35 1.214 . S
O38 Cd30 2.277 . S
O38 C33 1.209 . S
C39 O36 1.258 . S
C39 O41 1.282 . S
O40 Cd32 2.277 . S
O40 C33 1.226 . S
O41 Cd32 2.356 . S
O41 C39 1.282 . S
C42 O43 1.306 . S
C42 O45 1.160 . S
O43 C42 1.306 . S
O43 Cd44 2.228 . S
Cd44 O43 2.228 . S
Cd44 O48 2.273 . S
Cd44 O52 2.277 . S
O45 C42 1.160 . S
O45 Cd46 2.203 . S
Cd46 O45 2.203 . S
Cd46 O48 2.411 . S
Cd46 O49 2.333 . S
Cd46 O50 2.352 . S
Cd46 O54 2.277 . S
Cd46 O55 2.356 . S
C47 O52 1.209 . S
C47 O54 1.226 . S
O48 Cd44 2.273 . S
O48 Cd46 2.411 . S
O48 C51 1.320 . S
O49 Cd46 2.333 . S
O49 C51 1.214 . S
O50 Cd46 2.352 . S
O50 C53 1.258 . S
C51 O48 1.320 . S
C51 O49 1.214 . S
O52 Cd44 2.277 . S
O52 C47 1.209 . S
C53 O50 1.258 . S
C53 O55 1.282 . S
O54 Cd46 2.277 . S
O54 C47 1.226 . S
O55 Cd46 2.356 . S
O55 C53 1.282 . S
C56 O57 1.306 . S
C56 O59 1.160 1_545 S
O57 C56 1.306 . S
O57 Cd58 2.228 . S
Cd58 O57 2.228 . S
Cd58 O62 2.273 . S
Cd58 O66 2.277 . S
O59 C56 1.160 1_565 S
O59 Cd60 2.203 . S
Cd60 O59 2.203 . S
Cd60 O62 2.411 1_565 S
Cd60 O63 2.333 1_565 S
Cd60 O64 2.352 . S
Cd60 O68 2.277 . S
Cd60 O69 2.356 . S
C61 O66 1.209 . S
C61 O68 1.226 1_545 S
O62 Cd58 2.273 . S
O62 Cd60 2.411 1_545 S
O62 C65 1.320 . S
O63 Cd60 2.333 1_545 S
O63 C65 1.214 . S
O64 Cd60 2.352 . S
O64 C67 1.258 . S
C65 O62 1.320 . S
C65 O63 1.214 . S
O66 Cd58 2.277 . S
O66 C61 1.209 . S
C67 O64 1.258 . S
C67 O69 1.282 . S
O68 Cd60 2.277 . S
O68 C61 1.226 1_565 S
O69 Cd60 2.356 . S
O69 C67 1.282 . S
C70 O71 1.306 . S
C70 O73 1.160 . S
O71 C70 1.306 . S
O71 Cd72 2.228 . S
Cd72 O71 2.228 . S
Cd72 O76 2.273 . S
Cd72 O80 2.277 . S
O73 C70 1.160 . S
O73 Cd74 2.203 . S
Cd74 O73 2.203 . S
Cd74 O76 2.411 . S
Cd74 O77 2.333 . S
Cd74 O78 2.352 . S
Cd74 O82 2.277 . S
Cd74 O83 2.356 . S
C75 O80 1.209 . S
C75 O82 1.226 . S
O76 Cd72 2.273 . S
O76 Cd74 2.411 . S
O76 C79 1.320 . S
O77 Cd74 2.333 . S
O77 C79 1.214 . S
O78 Cd74 2.352 . S
O78 C81 1.258 . S
C79 O76 1.320 . S
C79 O77 1.214 . S
O80 Cd72 2.277 . S
O80 C75 1.209 . S
C81 O78 1.258 . S
C81 O83 1.282 . S
O82 Cd74 2.277 . S
O82 C75 1.226 . S
O83 Cd74 2.356 . S
O83 C81 1.282 . S
C84 O85 1.306 . S
C84 O87 1.160 1_565 S
O85 C84 1.306 . S
O85 Cd86 2.228 . S
Cd86 O85 2.228 . S
Cd86 O90 2.273 . S
Cd86 O94 2.277 . S
O87 C84 1.160 1_545 S
O87 Cd88 2.203 . S
Cd88 O87 2.203 . S
Cd88 O90 2.411 1_545 S
Cd88 O91 2.333 1_545 S
Cd88 O92 2.352 . S
Cd88 O96 2.277 . S
Cd88 O97 2.356 . S
C89 O94 1.209 1_545 S
C89 O96 1.226 . S
O90 Cd86 2.273 . S
O90 Cd88 2.411 1_565 S
O90 C93 1.320 . S
O91 Cd88 2.333 1_565 S
O91 C93 1.214 . S
O92 Cd88 2.352 . S
O92 C95 1.258 . S
C93 O90 1.320 . S
C93 O91 1.214 . S
O94 Cd86 2.277 . S
O94 C89 1.209 1_565 S
C95 O92 1.258 . S
C95 O97 1.282 . S
O96 Cd88 2.277 . S
O96 C89 1.226 . S
O97 Cd88 2.356 . S
O97 C95 1.282 . S
C98 O99 1.306 . S
C98 O101 1.160 1_554 S
O99 C98 1.306 . S
O99 Cd100 2.228 . S
Cd100 O99 2.228 . S
Cd100 O104 2.273 . S
Cd100 O108 2.277 . S
O101 C98 1.160 1_556 S
O101 Cd102 2.203 . S
Cd102 O101 2.203 . S
Cd102 O104 2.411 1_556 S
Cd102 O105 2.333 1_556 S
Cd102 O106 2.352 . S
Cd102 O110 2.277 . S
Cd102 O111 2.356 . S
C103 O108 1.209 1_556 S
C103 O110 1.226 . S
O104 Cd100 2.273 . S
O104 Cd102 2.411 1_554 S
O104 C107 1.320 . S
O105 Cd102 2.333 1_554 S
O105 C107 1.214 . S
O106 Cd102 2.352 . S
O106 C109 1.258 . S
C107 O104 1.320 . S
C107 O105 1.214 . S
O108 Cd100 2.277 . S
O108 C103 1.209 1_554 S
C109 O106 1.258 . S
C109 O111 1.282 . S
O110 Cd102 2.277 . S
O110 C103 1.226 . S
O111 Cd102 2.356 . S
O111 C109 1.282 . S
C112 O113 1.306 1_554 S
C112 O115 1.160 . S
O113 C112 1.306 1_556 S
O113 Cd114 2.228 . S
Cd114 O113 2.228 . S
Cd114 O118 2.273 . S
Cd114 O122 2.277 . S
O115 C112 1.160 . S
O115 Cd116 2.203 . S
Cd116 O115 2.203 . S
Cd116 O118 2.411 1_554 S
Cd116 O119 2.333 1_554 S
Cd116 O120 2.352 . S
Cd116 O124 2.277 . S
Cd116 O125 2.356 . S
C117 O122 1.209 1_554 S
C117 O124 1.226 . S
O118 Cd114 2.273 . S
O118 Cd116 2.411 1_556 S
O118 C121 1.320 . S
O119 Cd116 2.333 1_556 S
O119 C121 1.214 . S
O120 Cd116 2.352 . S
O120 C123 1.258 . S
C121 O118 1.320 . S
C121 O119 1.214 . S
O122 Cd114 2.277 . S
O122 C117 1.209 1_556 S
C123 O120 1.258 . S
C123 O125 1.282 . S
O124 Cd116 2.277 . S
O124 C117 1.226 . S
O125 Cd116 2.356 . S
O125 C123 1.282 . S
C126 O127 1.306 . S
C126 O129 1.160 . S
O127 C126 1.306 . S
O127 Cd128 2.228 . S
Cd128 O127 2.228 . S
Cd128 O132 2.273 . S
Cd128 O136 2.277 . S
O129 C126 1.160 . S
O129 Cd130 2.203 . S
Cd130 O129 2.203 . S
Cd130 O132 2.411 . S
Cd130 O133 2.333 . S
Cd130 O134 2.352 . S
Cd130 O138 2.277 . S
Cd130 O139 2.356 . S
C131 O136 1.209 . S
C131 O138 1.226 . S
O132 Cd128 2.273 . S
O132 Cd130 2.411 . S
O132 C135 1.320 . S
O133 Cd130 2.333 . S
O133 C135 1.214 . S
O134 Cd130 2.352 . S
O134 C137 1.258 . S
C135 O132 1.320 . S
C135 O133 1.214 . S
O136 Cd128 2.277 . S
O136 C131 1.209 . S
C137 O134 1.258 . S
C137 O139 1.282 . S
O138 Cd130 2.277 . S
O138 C131 1.226 . S
O139 Cd130 2.356 . S
O139 C137 1.282 . S
C140 O141 1.306 . S
C140 O143 1.160 . S
O141 C140 1.306 . S
O141 Cd142 2.228 . S
Cd142 O141 2.228 . S
Cd142 O146 2.273 . S
Cd142 O150 2.277 . S
O143 C140 1.160 . S
O143 Cd144 2.203 . S
Cd144 O143 2.203 . S
Cd144 O146 2.411 . S
Cd144 O147 2.333 . S
Cd144 O148 2.352 . S
Cd144 O152 2.277 . S
Cd144 O153 2.356 . S
C145 O150 1.209 . S
C145 O152 1.226 . S
O146 Cd142 2.273 . S
O146 Cd144 2.411 . S
O146 C149 1.320 . S
O147 Cd144 2.333 . S
O147 C149 1.214 . S
O148 Cd144 2.352 . S
O148 C151 1.258 . S
C149 O146 1.320 . S
C149 O147 1.214 . S
O150 Cd142 2.277 . S
O150 C145 1.209 . S
C151 O148 1.258 . S
C151 O153 1.282 . S
O152 Cd144 2.277 . S
O152 C145 1.226 . S
O153 Cd144 2.356 . S
O153 C151 1.282 . S
C154 O155 1.306 . S
C154 O157 1.160 . S
O155 C154 1.306 . S
O155 Cd156 2.228 . S
Cd156 O155 2.228 . S
Cd156 O160 2.273 . S
Cd156 O164 2.277 . S
O157 C154 1.160 . S
O157 Cd158 2.203 . S
Cd158 O157 2.203 . S
Cd158 O160 2.411 . S
Cd158 O161 2.333 . S
Cd158 O162 2.352 . S
Cd158 O166 2.277 . S
Cd158 O167 2.356 . S
C159 O164 1.209 . S
C159 O166 1.226 . S
O160 Cd156 2.273 . S
O160 Cd158 2.411 . S
O160 C163 1.320 . S
O161 Cd158 2.333 . S
O161 C163 1.214 . S
O162 Cd158 2.352 . S
O162 C165 1.258 . S
C163 O160 1.320 . S
C163 O161 1.214 . S
O164 Cd156 2.277 . S
O164 C159 1.209 . S
C165 O162 1.258 . S
C165 O167 1.282 . S
O166 Cd158 2.277 . S
O166 C159 1.226 . S
O167 Cd158 2.356 . S
O167 C165 1.282 . S
H168 C174 0.930 . S
H169 C177 0.931 . S
H170 C179 0.931 1_455 S
H171 C181 0.930 . S
H172 C183 0.930 . S
H173 C185 0.931 . S
C174 H168 0.930 . S
C174 C175 1.380 . S
C174 C176 1.394 . S
C175 C174 1.380 . S
C175 C179 1.382 . S
C176 C174 1.394 . S
C176 C177 1.400 . S
C177 H169 0.931 . S
C177 C176 1.400 . S
C177 C178 1.375 . S
C178 C177 1.375 . S
C178 C179 1.415 . S
C178 C180 1.501 1_655 S
C179 H170 0.931 1_655 S
C179 C175 1.382 . S
C179 C178 1.415 . S
C180 C178 1.501 1_455 S
C180 C181 1.384 . S
C180 C185 1.408 . S
C181 H171 0.930 . S
C181 C180 1.384 . S
C181 C182 1.389 . S
C182 C181 1.389 . S
C182 C183 1.405 . S
C183 H172 0.930 . S
C183 C182 1.405 . S
C183 C184 1.364 . S
C184 C183 1.364 . S
C184 C185 1.400 . S
C185 H173 0.931 . S
C185 C180 1.408 . S
C185 C184 1.400 . S
H186 C192 0.930 . S
H187 C195 0.931 1_455 S
H188 C197 0.931 . S
H189 C199 0.930 . S
H190 C201 0.930 . S
H191 C203 0.931 . S
C192 H186 0.930 . S
C192 C193 1.380 . S
C192 C194 1.394 1_556 S
C193 C192 1.380 . S
C193 C197 1.382 . S
C194 C192 1.394 1_554 S
C194 C195 1.400 . S
C195 H187 0.931 1_655 S
C195 C194 1.400 . S
C195 C196 1.375 1_654 S
C196 C195 1.375 1_456 S
C196 C197 1.415 1_455 S
C196 C198 1.501 . S
C197 H188 0.931 . S
C197 C193 1.382 . S
C197 C196 1.415 1_655 S
C198 C196 1.501 . S
C198 C199 1.384 . S
C198 C203 1.408 1_556 S
C199 H189 0.930 . S
C199 C198 1.384 . S
C199 C200 1.389 . S
C200 C199 1.389 . S
C200 C201 1.405 . S
C201 H190 0.930 . S
C201 C200 1.405 . S
C201 C202 1.364 1_556 S
C202 C201 1.364 1_554 S
C202 C203 1.400 . S
C203 H191 0.931 . S
C203 C198 1.408 1_554 S
C203 C202 1.400 . S
H204 C210 0.930 . S
H205 C213 0.931 . S
H206 C215 0.931 1_556 S
H207 C217 0.930 1_556 S
H208 C219 0.930 . S
H209 C221 0.931 . S
C210 H204 0.930 . S
C210 C211 1.380 . S
C210 C212 1.394 . S
C211 C210 1.380 . S
C211 C215 1.382 . S
C212 C210 1.394 . S
C212 C213 1.400 . S
C213 H205 0.931 . S
C213 C212 1.400 . S
C213 C214 1.375 . S
C214 C213 1.375 . S
C214 C215 1.415 . S
C214 C216 1.501 . S
C215 H206 0.931 1_554 S
C215 C211 1.382 . S
C215 C214 1.415 . S
C216 C214 1.501 . S
C216 C217 1.384 . S
C216 C221 1.408 . S
C217 H207 0.930 1_554 S
C217 C216 1.384 . S
C217 C218 1.389 . S
C218 C217 1.389 . S
C218 C219 1.405 . S
C219 H208 0.930 . S
C219 C218 1.405 . S
C219 C220 1.364 . S
C220 C219 1.364 . S
C220 C221 1.400 . S
C221 H209 0.931 . S
C221 C216 1.408 . S
C221 C220 1.400 . S
H222 C228 0.930 . S
H223 C231 0.931 . S
H224 C233 0.931 . S
H225 C235 0.930 . S
H226 C237 0.930 . S
H227 C239 0.931 . S
C228 H222 0.930 . S
C228 C229 1.380 . S
C228 C230 1.394 . S
C229 C228 1.380 . S
C229 C233 1.382 . S
C230 C228 1.394 . S
C230 C231 1.400 . S
C231 H223 0.931 . S
C231 C230 1.400 . S
C231 C232 1.375 . S
C232 C231 1.375 . S
C232 C233 1.415 . S
C232 C234 1.501 . S
C233 H224 0.931 . S
C233 C229 1.382 . S
C233 C232 1.415 . S
C234 C232 1.501 . S
C234 C235 1.384 . S
C234 C239 1.408 . S
C235 H225 0.930 . S
C235 C234 1.384 . S
C235 C236 1.389 . S
C236 C235 1.389 . S
C236 C237 1.405 . S
C237 H226 0.930 . S
C237 C236 1.405 . S
C237 C238 1.364 . S
C238 C237 1.364 . S
C238 C239 1.400 . S
C239 H227 0.931 . S
C239 C234 1.408 . S
C239 C238 1.400 . S
H240 C246 0.930 . S
H241 C249 0.931 . S
H242 C251 0.931 . S
H243 C253 0.930 . S
H244 C255 0.930 . S
H245 C257 0.931 . S
C246 H240 0.930 . S
C246 C247 1.380 . S
C246 C248 1.394 . S
C247 C246 1.380 . S
C247 C251 1.382 . S
C248 C246 1.394 . S
C248 C249 1.400 . S
C249 H241 0.931 . S
C249 C248 1.400 . S
C249 C250 1.375 . S
C250 C249 1.375 . S
C250 C251 1.415 . S
C250 C252 1.501 1_565 S
C251 H242 0.931 . S
C251 C247 1.382 . S
C251 C250 1.415 . S
C252 C250 1.501 1_545 S
C252 C253 1.384 . S
C252 C257 1.408 . S
C253 H243 0.930 . S
C253 C252 1.384 . S
C253 C254 1.389 . S
C254 C253 1.389 . S
C254 C255 1.405 . S
C255 H244 0.930 . S
C255 C254 1.405 . S
C255 C256 1.364 . S
C256 C255 1.364 . S
C256 C257 1.400 . S
C257 H245 0.931 . S
C257 C252 1.408 . S
C257 C256 1.400 . S
H258 C264 0.930 . S
H259 C267 0.931 . S
H260 C269 0.931 . S
H261 C271 0.930 . S
H262 C273 0.930 . S
H263 C275 0.931 . S
C264 H258 0.930 . S
C264 C265 1.380 . S
C264 C266 1.394 . S
C265 C264 1.380 . S
C265 C269 1.382 . S
C266 C264 1.394 . S
C266 C267 1.400 . S
C267 H259 0.931 . S
C267 C266 1.400 . S
C267 C268 1.375 . S
C268 C267 1.375 . S
C268 C269 1.415 . S
C268 C270 1.501 . S
C269 H260 0.931 . S
C269 C265 1.382 . S
C269 C268 1.415 . S
C270 C268 1.501 . S
C270 C271 1.384 . S
C270 C275 1.408 . S
C271 H261 0.930 . S
C271 C270 1.384 . S
C271 C272 1.389 . S
C272 C271 1.389 . S
C272 C273 1.405 . S
C273 H262 0.930 . S
C273 C272 1.405 . S
C273 C274 1.364 . S
C274 C273 1.364 . S
C274 C275 1.400 . S
C275 H263 0.931 . S
C275 C270 1.408 . S
C275 C274 1.400 . S
H276 C282 0.930 . S
H277 C285 0.931 . S
H278 C287 0.931 . S
H279 C289 0.930 . S
H280 C291 0.930 . S
H281 C293 0.931 . S
C282 H276 0.930 . S
C282 C283 1.380 1_655 S
C282 C284 1.394 . S
C283 C282 1.380 1_455 S
C283 C287 1.382 . S
C284 C282 1.394 . S
C284 C285 1.400 . S
C285 H277 0.931 . S
C285 C284 1.400 . S
C285 C286 1.375 . S
C286 C285 1.375 . S
C286 C287 1.415 1_655 S
C286 C288 1.501 1_545 S
C287 H278 0.931 . S
C287 C283 1.382 . S
C287 C286 1.415 1_455 S
C288 C286 1.501 1_565 S
C288 C289 1.384 1_655 S
C288 C293 1.408 . S
C289 H279 0.930 . S
C289 C288 1.384 1_455 S
C289 C290 1.389 . S
C290 C289 1.389 . S
C290 C291 1.405 1_455 S
C291 H280 0.930 . S
C291 C290 1.405 1_655 S
C291 C292 1.364 . S
C292 C291 1.364 . S
C292 C293 1.400 . S
C293 H281 0.931 . S
C293 C288 1.408 . S
C293 C292 1.400 . S
H294 C300 0.930 . S
H295 C303 0.931 1_554 S
H296 C305 0.931 . S
H297 C307 0.930 . S
H298 C309 0.930 . S
H299 C311 0.931 . S
C300 H294 0.930 . S
C300 C301 1.380 . S
C300 C302 1.394 . S
C301 C300 1.380 . S
C301 C305 1.382 . S
C302 C300 1.394 . S
C302 C303 1.400 . S
C303 H295 0.931 1_556 S
C303 C302 1.400 . S
C303 C304 1.378 . S
C304 C303 1.378 . S
C304 C305 1.422 . S
C304 C306 1.490 1_556 S
C305 H296 0.931 . S
C305 C301 1.382 . S
C305 C304 1.422 . S
C306 C304 1.490 1_554 S
C306 C307 1.384 . S
C306 C311 1.408 . S
C307 H297 0.930 . S
C307 C306 1.384 . S
C307 C308 1.389 . S
C308 C307 1.389 . S
C308 C309 1.405 . S
C309 H298 0.930 . S
C309 C308 1.405 . S
C309 C310 1.364 . S
C310 C309 1.364 . S
C310 C311 1.400 . S
C311 H299 0.931 . S
C311 C306 1.408 . S
C311 C310 1.400 . S
H312 C318 0.930 . S
H313 C321 0.931 1_554 S
H314 C323 0.931 . S
H315 C325 0.930 . S
H316 C327 0.930 . S
H317 C329 0.931 . S
C318 H312 0.930 . S
C318 C319 1.380 . S
C318 C320 1.394 1_565 S
C319 C318 1.380 . S
C319 C323 1.382 . S
C320 C318 1.394 1_545 S
C320 C321 1.400 . S
C321 H313 0.931 1_556 S
C321 C320 1.400 . S
C321 C322 1.375 1_546 S
C322 C321 1.375 1_564 S
C322 C323 1.415 1_554 S
C322 C324 1.501 . S
C323 H314 0.931 . S
C323 C319 1.382 . S
C323 C322 1.415 1_556 S
C324 C322 1.501 . S
C324 C325 1.384 . S
C324 C329 1.408 1_565 S
C325 H315 0.930 . S
C325 C324 1.384 . S
C325 C326 1.389 . S
C326 C325 1.389 . S
C326 C327 1.405 . S
C327 H316 0.930 . S
C327 C326 1.405 . S
C327 C328 1.364 1_565 S
C328 C327 1.364 1_545 S
C328 C329 1.400 . S
C329 H317 0.931 . S
C329 C324 1.408 1_545 S
C329 C328 1.400 . S
H330 C336 0.930 . S
H331 C339 0.931 . S
H332 C341 0.931 . S
H333 C343 0.930 . S
H334 C345 0.930 . S
H335 C347 0.931 . S
C336 H330 0.930 . S
C336 C337 1.380 . S
C336 C338 1.394 . S
C337 C336 1.380 . S
C337 C341 1.382 . S
C338 C336 1.394 . S
C338 C339 1.400 . S
C339 H331 0.931 . S
C339 C338 1.400 . S
C339 C340 1.375 . S
C340 C339 1.375 . S
C340 C341 1.415 . S
C340 C342 1.501 . S
C341 H332 0.931 . S
C341 C337 1.382 . S
C341 C340 1.415 . S
C342 C340 1.501 . S
C342 C343 1.384 . S
C342 C347 1.408 . S
C343 H333 0.930 . S
C343 C342 1.384 . S
C343 C344 1.389 . S
C344 C343 1.389 . S
C344 C345 1.405 . S
C345 H334 0.930 . S
C345 C344 1.405 . S
C345 C346 1.364 . S
C346 C345 1.364 . S
C346 C347 1.400 . S
C347 H335 0.931 . S
C347 C342 1.408 . S
C347 C346 1.400 . S
H348 C354 0.930 . S
H349 C357 0.931 1_565 S
H350 C359 0.931 . S
H351 C361 0.930 . S
H352 C363 0.930 . S
H353 C365 0.931 1_565 S
C354 H348 0.930 . S
C354 C355 1.380 . S
C354 C356 1.394 . S
C355 C354 1.380 . S
C355 C359 1.382 . S
C356 C354 1.394 . S
C356 C357 1.400 . S
C357 H349 0.931 1_545 S
C357 C356 1.400 . S
C357 C358 1.375 . S
C358 C357 1.375 . S
C358 C359 1.415 . S
C358 C360 1.501 . S
C359 H350 0.931 . S
C359 C355 1.382 . S
C359 C358 1.415 . S
C360 C358 1.501 . S
C360 C361 1.384 . S
C360 C365 1.408 . S
C361 H351 0.930 . S
C361 C360 1.384 . S
C361 C362 1.389 . S
C362 C361 1.389 . S
C362 C363 1.405 . S
C363 H352 0.930 . S
C363 C362 1.405 . S
C363 C364 1.364 . S
C364 C363 1.364 . S
C364 C365 1.400 . S
C365 H353 0.931 1_545 S
C365 C360 1.408 . S
C365 C364 1.400 . S
H366 C372 0.930 . S
H367 C375 0.931 . S
H368 C377 0.931 1_655 S
H369 C379 0.930 1_655 S
H370 C381 0.930 . S
H371 C383 0.931 . S
C372 H366 0.930 . S
C372 C373 1.380 . S
C372 C374 1.394 . S
C373 C372 1.380 . S
C373 C377 1.382 . S
C374 C372 1.394 . S
C374 C375 1.400 . S
C375 H367 0.931 . S
C375 C374 1.400 . S
C375 C376 1.375 . S
C376 C375 1.375 . S
C376 C377 1.415 . S
C376 C378 1.501 . S
C377 H368 0.931 1_455 S
C377 C373 1.382 . S
C377 C376 1.415 . S
C378 C376 1.501 . S
C378 C379 1.384 . S
C378 C383 1.408 . S
C379 H369 0.930 1_455 S
C379 C378 1.384 . S
C379 C380 1.389 . S
C380 C379 1.389 . S
C380 C381 1.405 . S
C381 H370 0.930 . S
C381 C380 1.405 . S
C381 C382 1.364 . S
C382 C381 1.364 . S
C382 C383 1.400 . S
C383 H371 0.931 . S
C383 C378 1.408 . S
C383 C382 1.400 . S
C384 C385 1.387 1_556 S
C384 H388 0.950 1_556 S
C384 C393 1.390 . S
C385 C384 1.387 1_554 S
C385 C387 1.387 1_654 S
H386 C393 0.950 . S
C387 C385 1.387 1_456 S
C387 C389 1.390 . S
C387 H391 0.950 1_556 S
H388 C384 0.950 1_554 S
C389 C387 1.390 . S
C389 C390 1.387 1_455 S
C389 H392 0.950 . S
C390 C389 1.387 1_655 S
C390 C393 1.387 . S
H391 C387 0.950 1_554 S
H392 C389 0.950 . S
C393 C384 1.390 . S
C393 H386 0.950 . S
C393 C390 1.387 . S
C394 C395 1.387 . S
C394 H398 0.950 . S
C394 C403 1.390 . S
C395 C394 1.387 . S
C395 C397 1.387 . S
H396 C403 0.950 . S
C397 C395 1.387 . S
C397 C399 1.390 . S
C397 H401 0.950 . S
H398 C394 0.950 . S
C399 C397 1.390 . S
C399 C400 1.387 . S
C399 H402 0.950 . S
C400 C399 1.387 . S
C400 C403 1.387 . S
H401 C397 0.950 . S
H402 C399 0.950 . S
C403 C394 1.390 . S
C403 H396 0.950 . S
C403 C400 1.387 . S
C404 C405 1.387 . S
C404 H408 0.950 . S
C404 C413 1.390 . S
C405 C404 1.387 . S
C405 C407 1.387 . S
H406 C413 0.950 . S
C407 C405 1.387 . S
C407 C409 1.390 . S
C407 H411 0.950 . S
H408 C404 0.950 . S
C409 C407 1.390 . S
C409 C410 1.387 . S
C409 H412 0.950 . S
C410 C409 1.387 . S
C410 C413 1.387 . S
H411 C407 0.950 . S
H412 C409 0.950 . S
C413 C404 1.390 . S
C413 H406 0.950 . S
C413 C410 1.387 . S
C414 C415 1.387 . S
C414 H418 0.950 . S
C414 C423 1.390 . S
C415 C414 1.387 . S
C415 C417 1.387 . S
H416 C423 0.950 . S
C417 C415 1.387 . S
C417 C419 1.390 . S
C417 H421 0.950 . S
H418 C414 0.950 . S
C419 C417 1.390 . S
C419 C420 1.387 . S
C419 H422 0.950 . S
C420 C419 1.387 . S
C420 C423 1.387 . S
H421 C417 0.950 . S
H422 C419 0.950 . S
C423 C414 1.390 . S
C423 H416 0.950 . S
C423 C420 1.387 . S
C424 C425 1.387 . S
C424 H428 0.950 . S
C424 C433 1.390 . S
C425 C424 1.387 . S
C425 C427 1.387 1_655 S
H426 C433 0.950 . S
C427 C425 1.387 1_455 S
C427 C429 1.390 . S
C427 H431 0.950 . S
H428 C424 0.950 . S
C429 C427 1.390 . S
C429 C430 1.387 1_455 S
C429 H432 0.950 . S
C430 C429 1.387 1_655 S
C430 C433 1.387 . S
H431 C427 0.950 . S
H432 C429 0.950 . S
C433 C424 1.390 . S
C433 H426 0.950 . S
C433 C430 1.387 . S
C434 C435 1.387 . S
C434 H438 0.950 . S
C434 C443 1.390 . S
C435 C434 1.387 . S
C435 C437 1.387 . S
H436 C443 0.950 . S
C437 C435 1.387 . S
C437 C439 1.390 . S
C437 H441 0.950 . S
H438 C434 0.950 . S
C439 C437 1.390 . S
C439 C440 1.387 . S
C439 H442 0.950 . S
C440 C439 1.387 . S
C440 C443 1.387 . S
H441 C437 0.950 . S
H442 C439 0.950 . S
C443 C434 1.390 . S
C443 H436 0.950 . S
C443 C440 1.387 . S
C444 C445 1.387 . S
C444 H448 0.950 . S
C444 C453 1.390 . S
C445 C444 1.387 . S
C445 C447 1.387 . S
H446 C453 0.950 . S
C447 C445 1.387 . S
C447 C449 1.390 . S
C447 H451 0.950 . S
H448 C444 0.950 . S
C449 C447 1.390 . S
C449 C450 1.387 . S
C449 H452 0.950 . S
C450 C449 1.387 . S
C450 C453 1.387 . S
H451 C447 0.950 . S
H452 C449 0.950 . S
C453 C444 1.390 . S
C453 H446 0.950 . S
C453 C450 1.387 . S
C454 C455 1.387 . S
C454 H458 0.950 . S
C454 C463 1.390 . S
C455 C454 1.387 . S
C455 C457 1.387 . S
H456 C463 0.950 . S
C457 C455 1.387 . S
C457 C459 1.390 . S
C457 H461 0.950 . S
H458 C454 0.950 . S
C459 C457 1.390 . S
C459 C460 1.387 . S
C459 H462 0.950 . S
C460 C459 1.387 . S
C460 C463 1.387 . S
H461 C457 0.950 . S
H462 C459 0.950 . S
C463 C454 1.390 . S
C463 H456 0.950 . S
C463 C460 1.387 . S
C464 C465 1.387 . S
C464 H468 0.950 . S
C464 C473 1.390 1_455 S
C465 C464 1.387 . S
C465 C467 1.387 1_445 S
H466 C473 0.950 . S
C467 C465 1.387 1_665 S
C467 C469 1.390 . S
C467 H471 0.950 1_655 S
H468 C464 0.950 . S
C469 C467 1.390 . S
C469 C470 1.387 . S
C469 H472 0.950 . S
C470 C469 1.387 . S
C470 C473 1.387 1_565 S
H471 C467 0.950 1_455 S
H472 C469 0.950 . S
C473 C464 1.390 1_655 S
C473 H466 0.950 . S
C473 C470 1.387 1_545 S
C474 C475 1.387 . S
C474 H478 0.950 . S
C474 C483 1.390 . S
C475 C474 1.387 . S
C475 C477 1.387 . S
H476 C483 0.950 . S
C477 C475 1.387 . S
C477 C479 1.390 . S
C477 H481 0.950 . S
H478 C474 0.950 . S
C479 C477 1.390 . S
C479 C480 1.387 . S
C479 H482 0.950 . S
C480 C479 1.387 . S
C480 C483 1.387 . S
H481 C477 0.950 . S
H482 C479 0.950 . S
C483 C474 1.390 . S
C483 H476 0.950 . S
C483 C480 1.387 . S
C484 C485 1.387 1_565 S
C484 H488 0.950 . S
C484 C493 1.390 . S
C485 C484 1.387 1_545 S
C485 C487 1.387 . S
H486 C493 0.950 . S
C487 C485 1.387 . S
C487 C489 1.390 . S
C487 H491 0.950 . S
H488 C484 0.950 . S
C489 C487 1.390 . S
C489 C490 1.387 . S
C489 H492 0.950 . S
C490 C489 1.387 . S
C490 C493 1.387 1_545 S
H491 C487 0.950 . S
H492 C489 0.950 . S
C493 C484 1.390 . S
C493 H486 0.950 . S
C493 C490 1.387 1_565 S
C494 C495 1.387 . S
C494 H498 0.950 . S
C494 C503 1.390 . S
C495 C494 1.387 . S
C495 C497 1.387 . S
H496 C503 0.950 . S
C497 C495 1.387 . S
C497 C499 1.390 . S
C497 H501 0.950 . S
H498 C494 0.950 . S
C499 C497 1.390 . S
C499 C500 1.387 . S
C499 H502 0.950 . S
C500 C499 1.387 . S
C500 C503 1.387 . S
H501 C497 0.950 . S
H502 C499 0.950 . S
C503 C494 1.390 . S
C503 H496 0.950 . S
C503 C500 1.387 . S
C504 C505 1.387 1_665 S
C504 H508 0.950 1_655 S
C504 C513 1.390 . S
C505 C504 1.387 1_445 S
C505 C507 1.388 1_455 S
H506 C513 0.950 . S
C507 C505 1.388 1_655 S
C507 C509 1.390 . S
C507 H511 0.950 1_655 S
H508 C504 0.950 1_455 S
C509 C507 1.390 . S
C509 C510 1.387 . S
C509 H512 0.950 . S
C510 C509 1.387 . S
C510 C513 1.387 1_545 S
H511 C507 0.950 1_455 S
H512 C509 0.950 . S
C513 C504 1.390 . S
C513 H506 0.950 . S
C513 C510 1.387 1_565 S
C514 C515 1.387 . S
C514 H518 0.950 . S
C514 C523 1.390 . S
C515 C514 1.387 . S
C515 C517 1.387 . S
H516 C523 0.950 . S
C517 C515 1.387 . S
C517 C519 1.390 . S
C517 H521 0.950 . S
H518 C514 0.950 . S
C519 C517 1.390 . S
C519 C520 1.387 . S
C519 H522 0.950 . S
C520 C519 1.387 . S
C520 C523 1.387 . S
H521 C517 0.950 . S
H522 C519 0.950 . S
C523 C514 1.390 . S
C523 H516 0.950 . S
C523 C520 1.387 . S
C524 C525 1.387 1_545 S
C524 H528 0.950 . S
C524 C533 1.390 . S
C525 C524 1.387 1_565 S
C525 C527 1.387 . S
H526 C533 0.950 . S
C527 C525 1.387 . S
C527 C529 1.390 . S
C527 H531 0.950 . S
H528 C524 0.950 . S
C529 C527 1.390 . S
C529 C530 1.387 . S
C529 H532 0.950 . S
C530 C529 1.387 . S
C530 C533 1.387 1_565 S
H531 C527 0.950 . S
H532 C529 0.950 . S
C533 C524 1.390 . S
C533 H526 0.950 . S
C533 C530 1.387 1_545 S
C534 C535 1.387 . S
C534 H538 0.950 . S
C534 C543 1.390 . S
C535 C534 1.387 . S
C535 C537 1.387 . S
H536 C543 0.950 . S
C537 C535 1.387 . S
C537 C539 1.390 . S
C537 H541 0.950 . S
H538 C534 0.950 . S
C539 C537 1.390 . S
C539 C540 1.387 . S
C539 H542 0.950 . S
C540 C539 1.387 . S
C540 C543 1.387 . S
H541 C537 0.950 . S
H542 C539 0.950 . S
C543 C534 1.390 . S
C543 H536 0.950 . S
C543 C540 1.387 . S
C544 C545 1.387 1_564 S
C544 H548 0.950 . S
C544 C553 1.390 . S
C545 C544 1.387 1_546 S
C545 C547 1.387 1_545 S
H546 C553 0.950 . S
C547 C545 1.387 1_565 S
C547 C549 1.390 . S
C547 H551 0.950 . S
H548 C544 0.950 . S
C549 C547 1.390 . S
C549 C550 1.387 . S
C549 H552 0.950 . S
C550 C549 1.387 . S
C550 C553 1.387 1_556 S
H551 C547 0.950 . S
H552 C549 0.950 . S
C553 C544 1.390 . S
C553 H546 0.950 . S
C553 C550 1.387 1_554 S
C554 C555 1.387 . S
C554 H558 0.950 . S
C554 C563 1.390 . S
C555 C554 1.387 . S
C555 C557 1.387 1_554 S
H556 C563 0.950 . S
C557 C555 1.387 1_556 S
C557 C559 1.390 . S
C557 H561 0.950 . S
H558 C554 0.950 . S
C559 C557 1.390 . S
C559 C560 1.387 1_556 S
C559 H562 0.950 . S
C560 C559 1.387 1_554 S
C560 C563 1.387 . S
H561 C557 0.950 . S
H562 C559 0.950 . S
C563 C554 1.390 . S
C563 H556 0.950 . S
C563 C560 1.387 . S
C564 C565 1.387 . S
C564 H568 0.950 . S
C564 C573 1.390 . S
C565 C564 1.387 . S
C565 C567 1.387 . S
H566 C573 0.950 . S
C567 C565 1.387 . S
C567 C569 1.390 . S
C567 H571 0.950 . S
H568 C564 0.950 . S
C569 C567 1.390 . S
C569 C570 1.387 . S
C569 H572 0.950 . S
C570 C569 1.387 . S
C570 C573 1.387 . S
H571 C567 0.950 . S
H572 C569 0.950 . S
C573 C564 1.390 . S
C573 H566 0.950 . S
C573 C570 1.387 . S
C574 C575 1.387 . S
C574 H578 0.950 . S
C574 C583 1.390 . S
C575 C574 1.387 . S
C575 C577 1.387 . S
H576 C583 0.950 . S
C577 C575 1.387 . S
C577 C579 1.390 . S
C577 H581 0.950 . S
H578 C574 0.950 . S
C579 C577 1.390 . S
C579 C580 1.387 . S
C579 H582 0.950 . S
C580 C579 1.387 . S
C580 C583 1.387 . S
H581 C577 0.950 . S
H582 C579 0.950 . S
C583 C574 1.390 . S
C583 H576 0.950 . S
C583 C580 1.387 . S
C584 C585 1.387 . S
C584 H588 0.950 . S
C584 C593 1.390 . S
C585 C584 1.387 . S
C585 C587 1.387 . S
H586 C593 0.950 . S
C587 C585 1.387 . S
C587 C589 1.390 . S
C587 H591 0.950 . S
H588 C584 0.950 . S
C589 C587 1.390 . S
C589 C590 1.387 . S
C589 H592 0.950 . S
C590 C589 1.387 . S
C590 C593 1.387 . S
H591 C587 0.950 . S
H592 C589 0.950 . S
C593 C584 1.390 . S
C593 H586 0.950 . S
C593 C590 1.387 . S
C594 C595 1.387 1_545 S
C594 H598 0.950 . S
C594 C603 1.390 . S
C595 C594 1.387 1_565 S
C595 C597 1.387 1_565 S
H596 C603 0.950 . S
C597 C595 1.387 1_545 S
C597 C599 1.390 . S
C597 H601 0.950 1_545 S
H598 C594 0.950 . S
C599 C597 1.390 . S
C599 C600 1.387 . S
C599 H602 0.950 . S
C600 C599 1.387 . S
C600 C603 1.387 . S
H601 C597 0.950 1_565 S
H602 C599 0.950 . S
C603 C594 1.390 . S
C603 H596 0.950 . S
C603 C600 1.387 . S
C604 C605 1.387 . S
C604 H608 0.950 . S
C604 C613 1.390 . S
C605 C604 1.387 . S
C605 C607 1.387 . S
H606 C613 0.950 . S
C607 C605 1.387 . S
C607 C609 1.390 . S
C607 H611 0.950 . S
H608 C604 0.950 . S
C609 C607 1.390 . S
C609 C610 1.387 . S
C609 H612 0.950 . S
C610 C609 1.387 . S
C610 C613 1.387 . S
H611 C607 0.950 . S
H612 C609 0.950 . S
C613 C604 1.390 . S
C613 H606 0.950 . S
C613 C610 1.387 . S
C614 C615 1.387 . S
C614 H618 0.950 . S
C614 C623 1.390 . S
C615 C614 1.387 . S
C615 C617 1.387 . S
H616 C623 0.950 . S
C617 C615 1.387 . S
C617 C619 1.390 . S
C617 H621 0.950 . S
H618 C614 0.950 . S
C619 C617 1.390 . S
C619 C620 1.387 . S
C619 H622 0.950 . S
C620 C619 1.387 . S
C620 C623 1.387 . S
H621 C617 0.950 . S
H622 C619 0.950 . S
C623 C614 1.390 . S
C623 H616 0.950 . S
C623 C620 1.387 . S
C624 C625 1.387 . S
C624 H628 0.950 . S
C624 C633 1.390 . S
C625 C624 1.387 . S
C625 C627 1.387 . S
H626 C633 0.950 . S
C627 C625 1.387 . S
C627 C629 1.390 . S
C627 H631 0.950 . S
H628 C624 0.950 . S
C629 C627 1.390 . S
C629 C630 1.387 . S
C629 H632 0.950 . S
C630 C629 1.387 . S
C630 C633 1.387 . S
H631 C627 0.950 . S
H632 C629 0.950 . S
C633 C624 1.390 . S
C633 H626 0.950 . S
C633 C630 1.387 . S
C634 C635 1.387 . S
C634 H638 0.950 . S
C634 C643 1.390 . S
C635 C634 1.387 . S
C635 C637 1.387 . S
H636 C643 0.950 . S
C637 C635 1.387 . S
C637 C639 1.390 . S
C637 H641 0.950 . S
H638 C634 0.950 . S
C639 C637 1.390 . S
C639 C640 1.387 . S
C639 H642 0.950 . S
C640 C639 1.387 . S
C640 C643 1.387 . S
H641 C637 0.950 . S
H642 C639 0.950 . S
C643 C634 1.390 . S
C643 H636 0.950 . S
C643 C640 1.387 . S
C644 C645 1.387 1_556 S
C644 H648 0.950 1_556 S
C644 C653 1.390 . S
C645 C644 1.387 1_554 S
C645 C647 1.387 . S
H646 C653 0.950 . S
C647 C645 1.387 . S
C647 C649 1.390 1_554 S
C647 H651 0.950 . S
H648 C644 0.950 1_554 S
C649 C647 1.390 1_556 S
C649 C650 1.387 . S
C649 H652 0.950 . S
C650 C649 1.387 . S
C650 C653 1.387 . S
H651 C647 0.950 . S
H652 C649 0.950 . S
C653 C644 1.390 . S
C653 H646 0.950 . S
C653 C650 1.387 . S
C654 C655 1.387 . S
C654 H658 0.950 . S
C654 C663 1.390 . S
C655 C654 1.387 . S
C655 C657 1.387 . S
H656 C663 0.950 . S
C657 C655 1.387 . S
C657 C659 1.390 . S
C657 H661 0.950 . S
H658 C654 0.950 . S
C659 C657 1.390 . S
C659 C660 1.387 . S
C659 H662 0.950 . S
C660 C659 1.387 . S
C660 C663 1.387 . S
H661 C657 0.950 . S
H662 C659 0.950 . S
C663 C654 1.390 . S
C663 H656 0.950 . S
C663 C660 1.387 . S
C664 C665 1.387 . S
C664 H668 0.950 . S
C664 C673 1.390 . S
C665 C664 1.387 . S
C665 C667 1.387 . S
H666 C673 0.950 . S
C667 C665 1.387 . S
C667 C669 1.390 . S
C667 H671 0.950 . S
H668 C664 0.950 . S
C669 C667 1.390 . S
C669 C670 1.387 . S
C669 H672 0.950 . S
C670 C669 1.387 . S
C670 C673 1.387 . S
H671 C667 0.950 . S
H672 C669 0.950 . S
C673 C664 1.390 . S
C673 H666 0.950 . S
C673 C670 1.387 . S
C674 C675 1.387 . S
C674 H678 0.950 . S
C674 C683 1.390 . S
C675 C674 1.387 . S
C675 C677 1.387 . S
H676 C683 0.950 . S
C677 C675 1.387 . S
C677 C679 1.390 . S
C677 H681 0.950 . S
H678 C674 0.950 . S
C679 C677 1.390 . S
C679 C680 1.387 . S
C679 H682 0.950 . S
C680 C679 1.387 . S
C680 C683 1.387 . S
H681 C677 0.950 . S
H682 C679 0.950 . S
C683 C674 1.390 . S
C683 H676 0.950 . S
C683 C680 1.387 . S
C684 C685 1.387 . S
C684 H688 0.950 . S
C684 C693 1.390 . S
C685 C684 1.387 . S
C685 C687 1.387 . S
H686 C693 0.950 . S
C687 C685 1.387 . S
C687 C689 1.390 . S
C687 H691 0.950 . S
H688 C684 0.950 . S
C689 C687 1.390 . S
C689 C690 1.387 . S
C689 H692 0.950 . S
C690 C689 1.387 . S
C690 C693 1.387 . S
H691 C687 0.950 . S
H692 C689 0.950 . S
C693 C684 1.390 . S
C693 H686 0.950 . S
C693 C690 1.387 . S
C694 C695 1.387 . S
C694 H698 0.950 . S
C694 C703 1.390 . S
C695 C694 1.387 . S
C695 C697 1.387 . S
H696 C703 0.950 . S
C697 C695 1.387 . S
C697 C699 1.390 . S
C697 H701 0.950 . S
H698 C694 0.950 . S
C699 C697 1.390 . S
C699 C700 1.387 . S
C699 H702 0.950 . S
C700 C699 1.387 . S
C700 C703 1.387 . S
H701 C697 0.950 . S
H702 C699 0.950 . S
C703 C694 1.390 . S
C703 H696 0.950 . S
C703 C700 1.387 . S
C704 C705 1.387 . S
C704 H708 0.950 . S
C704 C713 1.390 . S
C705 C704 1.387 . S
C705 C707 1.387 . S
H706 C713 0.950 . S
C707 C705 1.387 . S
C707 C709 1.390 . S
C707 H711 0.950 . S
H708 C704 0.950 . S
C709 C707 1.390 . S
C709 C710 1.387 . S
C709 H712 0.950 . S
C710 C709 1.387 . S
C710 C713 1.387 . S
H711 C707 0.950 . S
H712 C709 0.950 . S
C713 C704 1.390 . S
C713 H706 0.950 . S
C713 C710 1.387 . S
C714 C715 1.387 . S
C714 H718 0.950 . S
C714 C723 1.390 . S
C715 C714 1.387 . S
C715 C717 1.387 . S
H716 C723 0.950 . S
C717 C715 1.387 . S
C717 C719 1.390 . S
C717 H721 0.950 . S
H718 C714 0.950 . S
C719 C717 1.390 . S
C719 C720 1.387 . S
C719 H722 0.950 . S
C720 C719 1.387 . S
C720 C723 1.387 . S
H721 C717 0.950 . S
H722 C719 0.950 . S
C723 C714 1.390 . S
C723 H716 0.950 . S
C723 C720 1.387 . S
C724 C725 1.387 . S
C724 H728 0.950 . S
C724 C733 1.390 . S
C725 C724 1.387 . S
C725 C727 1.387 . S
H726 C733 0.950 . S
C727 C725 1.387 . S
C727 C729 1.390 . S
C727 H731 0.950 . S
H728 C724 0.950 . S
C729 C727 1.390 . S
C729 C730 1.387 . S
C729 H732 0.950 . S
C730 C729 1.387 . S
C730 C733 1.387 . S
H731 C727 0.950 . S
H732 C729 0.950 . S
C733 C724 1.390 . S
C733 H726 0.950 . S
C733 C730 1.387 . S
C734 C735 1.387 . S
C734 H738 0.950 . S
C734 C743 1.390 . S
C735 C734 1.387 . S
C735 C737 1.387 . S
H736 C743 0.950 . S
C737 C735 1.387 . S
C737 C739 1.390 . S
C737 H741 0.950 . S
H738 C734 0.950 . S
C739 C737 1.390 . S
C739 C740 1.387 . S
C739 H742 0.950 . S
C740 C739 1.387 . S
C740 C743 1.387 . S
H741 C737 0.950 . S
H742 C739 0.950 . S
C743 C734 1.390 . S
C743 H736 0.950 . S
C743 C740 1.387 . S
C744 C745 1.387 . S
C744 H748 0.950 . S
C744 C753 1.390 . S
C745 C744 1.387 . S
C745 C747 1.387 . S
H746 C753 0.950 . S
C747 C745 1.387 . S
C747 C749 1.390 . S
C747 H751 0.950 . S
H748 C744 0.950 . S
C749 C747 1.390 . S
C749 C750 1.387 . S
C749 H752 0.950 . S
C750 C749 1.387 . S
C750 C753 1.387 . S
H751 C747 0.950 . S
H752 C749 0.950 . S
C753 C744 1.390 . S
C753 H746 0.950 . S
C753 C750 1.387 . S
C754 C755 1.387 . S
C754 H758 0.950 . S
C754 C763 1.390 . S
C755 C754 1.387 . S
C755 C757 1.387 . S
H756 C763 0.950 . S
C757 C755 1.387 . S
C757 C759 1.390 . S
C757 H761 0.950 . S
H758 C754 0.950 . S
C759 C757 1.390 . S
C759 C760 1.387 . S
C759 H762 0.950 . S
C760 C759 1.387 . S
C760 C763 1.387 . S
H761 C757 0.950 . S
H762 C759 0.950 . S
C763 C754 1.390 . S
C763 H756 0.950 . S
C763 C760 1.387 . S
C764 C765 1.387 . S
C764 H768 0.950 . S
C764 C773 1.390 . S
C765 C764 1.387 . S
C765 C767 1.387 . S
H766 C773 0.950 . S
C767 C765 1.387 . S
C767 C769 1.390 . S
C767 H771 0.950 . S
H768 C764 0.950 . S
C769 C767 1.390 . S
C769 C770 1.387 . S
C769 H772 0.950 . S
C770 C769 1.387 . S
C770 C773 1.387 . S
H771 C767 0.950 . S
H772 C769 0.950 . S
C773 C764 1.390 . S
C773 H766 0.950 . S
C773 C770 1.387 . S
C774 C775 1.387 . S
C774 H778 0.950 . S
C774 C783 1.390 . S
C775 C774 1.387 . S
C775 C777 1.387 . S
H776 C783 0.950 . S
C777 C775 1.387 . S
C777 C779 1.390 . S
C777 H781 0.950 . S
H778 C774 0.950 . S
C779 C777 1.390 . S
C779 C780 1.387 . S
C779 H782 0.950 . S
C780 C779 1.387 . S
C780 C783 1.387 . S
H781 C777 0.950 . S
H782 C779 0.950 . S
C783 C774 1.390 . S
C783 H776 0.950 . S
C783 C780 1.387 . S
C784 C785 1.387 . S
C784 H788 0.950 . S
C784 C793 1.390 . S
C785 C784 1.387 . S
C785 C787 1.387 . S
H786 C793 0.950 . S
C787 C785 1.387 . S
C787 C789 1.390 . S
C787 H791 0.950 . S
H788 C784 0.950 . S
C789 C787 1.390 . S
C789 C790 1.387 . S
C789 H792 0.950 . S
C790 C789 1.387 . S
C790 C793 1.387 . S
H791 C787 0.950 . S
H792 C789 0.950 . S
C793 C784 1.390 . S
C793 H786 0.950 . S
C793 C790 1.387 . S
C794 C795 1.387 . S
C794 H798 0.950 . S
C794 C803 1.390 . S
C795 C794 1.387 . S
C795 C797 1.387 . S
H796 C803 0.950 . S
C797 C795 1.387 . S
C797 C799 1.390 . S
C797 H801 0.950 . S
H798 C794 0.950 . S
C799 C797 1.390 . S
C799 C800 1.387 . S
C799 H802 0.950 . S
C800 C799 1.387 . S
C800 C803 1.387 . S
H801 C797 0.950 . S
H802 C799 0.950 . S
C803 C794 1.390 . S
C803 H796 0.950 . S
C803 C800 1.387 . S
C804 C805 1.387 . S
C804 H808 0.950 . S
C804 C813 1.390 . S
C805 C804 1.387 . S
C805 C807 1.387 . S
H806 C813 0.950 . S
C807 C805 1.387 . S
C807 C809 1.390 . S
C807 H811 0.950 . S
H808 C804 0.950 . S
C809 C807 1.390 . S
C809 C810 1.387 . S
C809 H812 0.950 . S
C810 C809 1.387 . S
C810 C813 1.387 . S
H811 C807 0.950 . S
H812 C809 0.950 . S
C813 C804 1.390 . S
C813 H806 0.950 . S
C813 C810 1.387 . S
C814 C815 1.387 1_566 S
C814 H818 0.950 . S
C814 C823 1.390 . S
C815 C814 1.387 1_544 S
C815 C817 1.387 . S
H816 C823 0.950 . S
C817 C815 1.387 . S
C817 C819 1.390 1_545 S
C817 H821 0.950 . S
H818 C814 0.950 . S
C819 C817 1.390 1_565 S
C819 C820 1.387 . S
C819 H822 0.950 . S
C820 C819 1.387 . S
C820 C823 1.387 1_554 S
H821 C817 0.950 . S
H822 C819 0.950 . S
C823 C814 1.390 . S
C823 H816 0.950 . S
C823 C820 1.387 1_556 S
C824 C825 1.387 . S
C824 H828 0.950 . S
C824 C833 1.390 . S
C825 C824 1.387 . S
C825 C827 1.387 . S
H826 C833 0.950 . S
C827 C825 1.387 . S
C827 C829 1.390 . S
C827 H831 0.950 . S
H828 C824 0.950 . S
C829 C827 1.390 . S
C829 C830 1.387 . S
C829 H832 0.950 . S
C830 C829 1.387 . S
C830 C833 1.387 . S
H831 C827 0.950 . S
H832 C829 0.950 . S
C833 C824 1.390 . S
C833 H826 0.950 . S
C833 C830 1.387 . S
C834 C835 1.387 1_556 S
C834 H838 0.950 . S
C834 C843 1.390 . S
C835 C834 1.387 1_554 S
C835 C837 1.387 . S
H836 C843 0.950 . S
C837 C835 1.387 . S
C837 C839 1.390 . S
C837 H841 0.950 . S
H838 C834 0.950 . S
C839 C837 1.390 . S
C839 C840 1.387 1_554 S
C839 H842 0.950 . S
C840 C839 1.387 1_556 S
C840 C843 1.387 . S
H841 C837 0.950 . S
H842 C839 0.950 . S
C843 C834 1.390 . S
C843 H836 0.950 . S
C843 C840 1.387 . S
C844 C845 1.387 . S
C844 H848 0.950 . S
C844 C853 1.390 . S
C845 C844 1.387 . S
C845 C847 1.387 . S
H846 C853 0.950 . S
C847 C845 1.387 . S
C847 C849 1.390 . S
C847 H851 0.950 . S
H848 C844 0.950 . S
C849 C847 1.390 . S
C849 C850 1.387 . S
C849 H852 0.950 . S
C850 C849 1.387 . S
C850 C853 1.387 . S
H851 C847 0.950 . S
H852 C849 0.950 . S
C853 C844 1.390 . S
C853 H846 0.950 . S
C853 C850 1.387 . S
C854 C855 1.387 . S
C854 H858 0.950 . S
C854 C863 1.390 . S
C855 C854 1.387 . S
C855 C857 1.387 . S
H856 C863 0.950 . S
C857 C855 1.387 . S
C857 C859 1.390 . S
C857 H861 0.950 . S
H858 C854 0.950 . S
C859 C857 1.390 . S
C859 C860 1.387 . S
C859 H862 0.950 . S
C860 C859 1.387 . S
C860 C863 1.387 . S
H861 C857 0.950 . S
H862 C859 0.950 . S
C863 C854 1.390 . S
C863 H856 0.950 . S
C863 C860 1.387 . S
C390 C373 1.227 1_655 S
C385 C11 1.333 . S
C395 C19 1.438 . S
C400 C326 1.408 . S
C405 C37 1.415 . S
C410 C337 1.190 . S
C420 C362 1.313 . S
C415 C42 1.388 . S
C425 C25 1.357 . S
C430 C380 1.210 1_655 S
C440 C319 1.307 . S
C435 C28 1.376 . S
C450 C344 1.180 . S
C445 C51 1.451 1_554 S
C460 C355 1.406 . S
C455 C5 1.430 . S
C465 C61 1.362 . S
C470 C356 1.191 1_565 S
C480 C382 1.381 . S
C475 C81 1.425 . S
C490 C320 1.199 . S
C485 C89 1.424 . S
C500 C346 1.334 . S
C495 C107 1.363 . S
C505 C56 1.311 . S
C510 C328 1.212 . S
C515 C79 1.381 . S
C520 C338 1.359 . S
C525 C84 1.372 . S
C530 C364 1.219 1_565 S
C540 C374 1.431 . S
C535 C109 1.469 . S
C550 C211 1.295 1_556 S
C545 C103 1.459 . S
C560 C194 1.229 . S
C555 C117 1.410 . S
C570 C220 1.367 . S
C565 C137 1.414 . S
C580 C238 1.147 . S
C575 C140 1.332 . S
C585 C67 1.358 . S
C590 C212 1.318 . S
C595 C70 1.371 . S
C600 C182 1.162 . S
C605 C135 1.432 . S
C610 C236 1.404 . S
C615 C163 1.389 . S
C620 C193 1.390 . S
C630 C247 1.230 . S
C625 C39 1.336 . S
C640 C272 1.410 . S
C635 C47 1.441 . S
C645 C9 1.416 . S
C650 C283 1.193 . S
C655 C14 1.387 . S
C660 C308 1.309 . S
C670 C254 1.210 . S
C665 C53 1.358 1_554 S
C680 C265 1.307 . S
C675 C0 1.377 . S
C685 C23 1.452 . S
C690 C290 1.181 . S
C700 C301 1.408 . S
C695 C33 1.430 . S
C705 C159 1.362 . S
C710 C302 1.191 . S
C715 C123 1.424 . S
C720 C256 1.384 . S
C730 C266 1.199 . S
C725 C131 1.421 1_455 S
C735 C149 1.366 . S
C740 C292 1.330 . S
C750 C274 1.214 . S
C745 C154 1.307 . S
C755 C121 1.381 . S
C760 C284 1.363 . S
C770 C310 1.219 . S
C765 C126 1.372 1_455 S
C780 C248 1.429 . S
C775 C151 1.468 . S
C790 C175 1.296 . S
C785 C145 1.459 . S
C800 C230 1.229 . S
C795 C75 1.410 1_545 S
C805 C95 1.415 . S
C810 C184 1.367 . S
C820 C202 1.151 . S
C815 C98 1.336 . S
C830 C176 1.318 . S
C825 C165 1.359 . S
C835 C112 1.369 . S
C840 C218 1.165 1_556 S
C845 C93 1.433 . S
C850 C200 1.404 . S
C855 C65 1.389 . S
C860 C229 1.389 . S
