# Generated by pormake.
# Topology anh, (6,3)-cn, num edge types: 1
# Building blocks:
#     Node 0, Type 0, BuildingBlock: CUWYAW_clean_sbu_0, # of connection points: 6
#     Node 1, Type 0, BuildingBlock: CUWYAW_clean_sbu_0, # of connection points: 6
#     Node 2, Type 0, BuildingBlock: CUWYAW_clean_sbu_0, # of connection points: 6
#     Node 3, Type 1, BuildingBlock: CUQRIR_clean_linker_1, # of connection points: 3
#     Node 4, Type 1, BuildingBlock: CUQRIR_clean_linker_1, # of connection points: 3
#     Node 5, Type 1, BuildingBlock: CUQRIR_clean_linker_1, # of connection points: 3
#     Node 6, Type 1, BuildingBlock: CUQRIR_clean_linker_1, # of connection points: 3
#     Node 7, Type 1, BuildingBlock: CUQRIR_clean_linker_1, # of connection points: 3
#     Node 8, Type 1, BuildingBlock: CUQRIR_clean_linker_1, # of connection points: 3
#     Edge 9, Type (0, 1), BuildingBlock: XUDNAN_clean_linker_2, # of connection points: 2
#     Edge 10, Type (0, 1), BuildingBlock: XUDNAN_clean_linker_2, # of connection points: 2
#     Edge 11, Type (0, 1), BuildingBlock: XUDNAN_clean_linker_2, # of connection points: 2
#     Edge 12, Type (0, 1), BuildingBlock: XUDNAN_clean_linker_2, # of connection points: 2
#     Edge 13, Type (0, 1), BuildingBlock: XUDNAN_clean_linker_2, # of connection points: 2
#     Edge 14, Type (0, 1), BuildingBlock: XUDNAN_clean_linker_2, # of connection points: 2
#     Edge 15, Type (0, 1), BuildingBlock: XUDNAN_clean_linker_2, # of connection points: 2
#     Edge 16, Type (0, 1), BuildingBlock: XUDNAN_clean_linker_2, # of connection points: 2
#     Edge 17, Type (0, 1), BuildingBlock: XUDNAN_clean_linker_2, # of connection points: 2
#     Edge 18, Type (0, 1), BuildingBlock: XUDNAN_clean_linker_2, # of connection points: 2
#     Edge 19, Type (0, 1), BuildingBlock: XUDNAN_clean_linker_2, # of connection points: 2
#     Edge 20, Type (0, 1), BuildingBlock: XUDNAN_clean_linker_2, # of connection points: 2
#     Edge 21, Type (0, 1), BuildingBlock: XUDNAN_clean_linker_2, # of connection points: 2
#     Edge 22, Type (0, 1), BuildingBlock: XUDNAN_clean_linker_2, # of connection points: 2
#     Edge 23, Type (0, 1), BuildingBlock: XUDNAN_clean_linker_2, # of connection points: 2
#     Edge 24, Type (0, 1), BuildingBlock: XUDNAN_clean_linker_2, # of connection points: 2
#     Edge 25, Type (0, 1), BuildingBlock: XUDNAN_clean_linker_2, # of connection points: 2
#     Edge 26, Type (0, 1), BuildingBlock: XUDNAN_clean_linker_2, # of connection points: 2
# Relax obj value: 0.301
# Max RMSD: 0.203
# Mean RMSD: 0.155
data_MOF--net-anh--node1-CUWYAW_clean_sbu_0--node2-CUQRIR_clean_linker_1--edge1-XUDNAN_clean_linker_2
_symmetry_space_group_name_H-M    P1
_symmetry_Int_Tables_number       1
_symmetry_cell_setting            triclinic
loop_
_symmetry_equiv_pos_as_xyz
'x, y, z'
_cell_length_a     28.50722
_cell_length_b     28.683458
_cell_length_c     47.249109
_cell_angle_alpha  85.40564
_cell_angle_beta   91.288335
_cell_angle_gamma 119.71363
loop_
_atom_site_label
_atom_site_type_symbol
_atom_site_fract_x
_atom_site_fract_y
_atom_site_fract_z
_atom_type_partial_charge
C0 C 1.0603 0.41098 0.14397 0.0
Eu1 Eu 0.12685 0.51009 0.15446 0.0
C2 C 1.00083 0.3822 0.14701 0.0
C3 C 0.97573 0.34312 0.16981 0.0
C4 C 0.92345 0.32831 0.17877 0.0
C5 C 0.89586 0.35251 0.16504 0.0
C6 C 0.91857 0.38707 0.14051 0.0
C7 C 0.97047 0.40146 0.13137 0.0
C8 C 0.15185 0.53216 0.21009 0.0
C9 C 1.05057 0.57151 0.15214 0.0
C10 C 0.23842 0.71979 0.17541 0.0
Eu11 Eu 0.18041 0.62189 0.16056 0.0
C12 C 0.23821 0.77118 0.17257 0.0
C13 C 0.19541 0.77643 0.18309 0.0
C14 C 0.19842 0.82684 0.18128 0.0
C15 C 0.24395 0.87245 0.16868 0.0
C16 C 0.28585 0.86645 0.15757 0.0
C17 C 0.28301 0.81645 0.15956 0.0
C18 C 0.15638 0.59904 0.10607 0.0
C19 C 0.25776 0.56547 0.15157 0.0
O20 O 1.08181 0.45037 0.12406 0.0
O21 O 1.08589 0.42429 0.1678 0.0
O22 O 0.16028 0.49938 0.19662 0.0
O23 O 0.13207 0.55437 0.19318 0.0
O24 O 1.05298 0.52685 0.14865 0.0
O25 O 1.09582 0.61443 0.15937 0.0
O26 O 0.24697 0.70359 0.15202 0.0
O27 O 0.20188 0.68039 0.19212 0.0
O28 O 0.15046 0.63541 0.11748 0.0
O29 O 0.17531 0.57734 0.12346 0.0
O30 O 0.25289 0.60415 0.16298 0.0
O31 O 0.21254 0.52408 0.1429 0.0
H32 H 0.99809 0.32742 0.18213 0.0
H33 H 0.90624 0.30111 0.19765 0.0
H34 H 0.89724 0.40492 0.12921 0.0
H35 H 0.98795 0.43067 0.11333 0.0
H36 H 0.16017 0.74196 0.19312 0.0
H37 H 0.16567 0.83036 0.1901 0.0
H38 H 0.32216 0.90091 0.1484 0.0
H39 H 0.31657 0.81339 0.15144 0.0
C40 C 0.59034 0.16883 0.4788 0.0
Eu41 Eu 0.64999 0.12343 0.48738 0.0
C42 C 0.60602 0.22308 0.46616 0.0
C43 C 0.65716 0.25412 0.45325 0.0
C44 C 0.67628 0.30768 0.44405 0.0
C45 C 0.64459 0.33189 0.44756 0.0
C46 C 0.59124 0.29938 0.45832 0.0
C47 C 0.57218 0.24526 0.46775 0.0
C48 C 0.68623 0.10321 0.53913 0.0
C49 C 0.78192 0.20083 0.47579 0.0
C50 C 0.75192 1.00897 0.49841 0.0
Eu51 Eu 0.7078 1.06635 0.48278 0.0
C52 C 0.74007 0.96793 0.52216 0.0
C53 C 0.71447 0.91329 0.51714 0.0
C54 C 0.7068 0.87479 0.53921 0.0
C55 C 0.72518 0.89045 0.56657 0.0
C56 C 0.74787 0.94464 0.57201 0.0
C57 C 0.75512 0.9831 0.55002 0.0
C58 C 0.70014 0.11091 0.43162 0.0
C59 C 0.57349 0.99015 0.48257 0.0
O60 O 0.5935 0.1375 0.46138 0.0
O61 O 0.61182 0.16658 0.50321 0.0
O62 O 0.6902 0.149 0.53026 0.0
O63 O 0.66394 1.07073 0.5201 0.0
O64 O 0.73353 0.19684 0.47291 0.0
O65 O 0.78261 0.15513 0.48314 0.0
O66 O 0.76995 1.05801 0.50566 0.0
O67 O 0.71686 0.99613 0.47791 0.0
O68 O 0.73966 0.102 0.4379 0.0
O69 O 0.6644 0.08939 0.45087 0.0
O70 O 0.62053 0.99163 0.47833 0.0
O71 O 0.57555 1.03578 0.48903 0.0
H72 H 0.68365 0.23779 0.45141 0.0
H73 H 0.71775 0.33087 0.4364 0.0
H74 H 0.56542 0.31653 0.461 0.0
H75 H 0.53212 0.22155 0.47727 0.0
H76 H 0.70223 0.9005 0.49596 0.0
H77 H 0.6902 0.83328 0.53437 0.0
H78 H 0.76274 0.95754 0.59289 0.0
H79 H 0.77439 1.02489 0.55475 0.0
C80 C 0.88997 0.69735 0.79938 0.0
Eu81 Eu 0.79196 0.64477 0.81916 0.0
C82 C 0.91554 0.67278 0.78416 0.0
C83 C 0.96794 0.6838 0.7907 0.0
C84 C 0.98662 0.65003 0.78246 0.0
C85 C 0.95331 0.60485 0.76719 0.0
C86 C 0.90257 0.597 0.75867 0.0
C87 C 0.88351 0.62982 0.76757 0.0
C88 C 0.7604 0.62031 0.87549 0.0
C89 C 0.74065 0.51135 0.81719 0.0
C90 C 0.58432 0.51744 0.85051 0.0
Eu91 Eu 0.67705 0.58238 0.82572 0.0
C92 C 0.55211 0.52106 0.87293 0.0
C93 C 0.49898 0.47964 0.87796 0.0
C94 C 0.46639 0.48439 0.89774 0.0
C95 C 0.48656 0.53078 0.91285 0.0
C96 C 0.54099 0.57097 0.90879 0.0
C97 C 0.57357 0.56616 0.88891 0.0
C98 C 0.70954 0.60256 0.77075 0.0
C99 C 0.72498 0.71456 0.8142 0.0
O100 O 0.85006 0.69967 0.7864 0.0
O101 O 0.87845 0.67953 0.82607 0.0
O102 O 0.80284 0.62234 0.86487 0.0
O103 O 0.738 0.63515 0.856 0.0
O104 O 0.78444 0.5603 0.81384 0.0
O105 O 0.69384 0.5095 0.82261 0.0
O106 O 0.62969 0.52028 0.85877 0.0
O107 O 0.58941 0.5462 0.8266 0.0
O108 O 0.66377 0.59722 0.77894 0.0
O109 O 0.73124 0.59041 0.79121 0.0
O110 O 0.68249 0.66708 0.8232 0.0
O111 O 0.77179 0.71555 0.80997 0.0
H112 H 0.9928 0.7159 0.80406 0.0
H113 H 1.02548 0.65718 0.79016 0.0
H114 H 0.8761 0.5637 0.74641 0.0
H115 H 0.84242 0.61962 0.76268 0.0
H116 H 0.48208 0.4445 0.86585 0.0
H117 H 0.4244 0.45318 0.8998 0.0
H118 H 0.55772 0.60696 0.9202 0.0
H119 H 0.61496 0.59826 0.8854 0.0
C120 C 0.50429 0.23137 0.23853 0.0
N121 N 0.54624 0.23488 0.25401 0.0
N122 N 0.45901 0.18272 0.24394 0.0
C123 C 0.50895 0.27505 0.21693 0.0
C124 C 0.47496 0.15751 0.26435 0.0
N125 N 0.52742 0.18935 0.27046 0.0
C126 C 0.4416 0.09954 0.27583 0.0
H127 H 0.46862 0.26859 0.21049 0.0
H128 H 0.53206 0.27631 0.19801 0.0
H129 H 0.53187 0.31471 0.22595 0.0
H130 H 0.42414 1.0732 0.25809 0.0
H131 H 0.40805 0.09506 0.28929 0.0
H132 H 0.4654 0.08547 0.28907 0.0
C133 C 0.87903 0.67233 0.54798 0.0
N134 N 0.87206 0.67307 0.57606 0.0
N135 N 0.88223 0.62844 0.54236 0.0
C136 C 0.86865 0.70642 0.52559 0.0
C137 C 0.88106 0.60483 0.56862 0.0
N138 N 0.87342 0.63098 0.58906 0.0
C139 C 0.87978 0.55178 0.57355 0.0
H140 H 0.88665 0.70725 0.50484 0.0
H141 H 0.88571 0.7481 0.53198 0.0
H142 H 0.8244 0.68916 0.5232 0.0
H143 H 0.90827 0.55034 0.55849 0.0
H144 H 0.83876 0.51853 0.56932 0.0
H145 H 0.89057 0.54561 0.59571 0.0
C146 C 0.13092 0.44652 0.88356 0.0
N147 N 0.1417 0.46285 0.9101 0.0
N148 N 1.08048 0.43532 0.87618 0.0
C149 C 0.17141 0.4457 0.86404 0.0
C150 C 1.06099 0.44567 0.89943 0.0
N151 N 1.09828 0.46242 0.92006 0.0
C152 C 1.00907 0.44745 0.90016 0.0
H153 H 0.20013 0.48748 0.85559 0.0
H154 H 0.15121 0.42085 0.84604 0.0
H155 H 0.19504 0.42966 0.87598 0.0
H156 H 0.97467 0.40566 0.90288 0.0
H157 H 1.00382 0.46645 0.87985 0.0
H158 H 1.00781 0.47024 0.91772 0.0
C159 C 0.17797 0.59505 0.45872 0.0
N160 N 0.145 0.55576 0.44077 0.0
N161 N 0.2261 0.63538 0.44581 0.0
C162 C 0.16326 0.59368 0.48912 0.0
C163 C 0.21963 0.61928 0.4189 0.0
N164 N 0.17154 0.57284 0.41569 0.0
C165 C 0.26107 0.64998 0.39538 0.0
H166 H 0.13919 0.61427 0.4902 0.0
H167 H 0.20009 0.61484 0.50186 0.0
H168 H 0.13825 0.55148 0.49818 0.0
H169 H 0.29496 0.64163 0.39845 0.0
H170 H 0.27746 0.69392 0.39617 0.0
H171 H 0.24512 0.63854 0.37398 0.0
C172 C 0.72871 0.11193 0.7904 0.0
N173 N 0.72535 1.0755 0.77148 0.0
N174 N 0.72635 0.15602 0.77747 0.0
C175 C 0.73361 0.10407 0.82183 0.0
C176 C 0.72172 0.14474 0.74976 0.0
N177 N 0.72207 0.09778 0.74585 0.0
C178 C 0.71546 0.17989 0.72615 0.0
H179 H 0.69256 0.07909 0.83147 0.0
H180 H 0.75344 0.14322 0.83149 0.0
H181 H 0.7567 0.08267 0.82659 0.0
H182 H 0.75598 0.21041 0.71746 0.0
H183 H 0.69593 0.20169 0.73379 0.0
H184 H 0.69071 0.15578 0.70879 0.0
C185 C 0.6565 0.56966 0.12563 0.0
N186 N 0.69506 0.57173 0.10732 0.0
N187 N 0.61271 0.56892 0.11181 0.0
C188 C 0.66094 0.56691 0.15734 0.0
C189 C 0.62727 0.57195 0.08413 0.0
N190 N 0.67568 0.57281 0.08123 0.0
C191 C 0.59772 0.58224 0.05966 0.0
H192 H 0.68383 0.54616 0.16427 0.0
H193 H 0.62026 0.54552 0.16767 0.0
H194 H 0.6829 0.60842 0.16426 0.0
H195 H 0.57516 0.60185 0.06641 0.0
H196 H 0.56848 0.54332 0.0513 0.0
H197 H 0.62605 0.60876 0.04223 0.0
H198 H 0.29684 0.50856 0.11937 0.0
H199 H 0.35216 0.63381 0.17777 0.0
H200 H 0.44379 0.64564 0.17528 0.0
H201 H 0.38242 0.45141 0.14512 0.0
H202 H 0.39711 0.43945 0.11039 0.0
H203 H 0.33487 0.43909 0.11697 0.0
H204 H 0.35789 0.51166 0.07548 0.0
H205 H 0.42017 0.51218 0.06878 0.0
H206 H 0.4213 0.57387 0.0751 0.0
H207 H 0.53459 0.64482 0.16659 0.0
H208 H 0.61089 0.63422 0.15094 0.0
H209 H 0.50274 0.51121 0.09699 0.0
C210 C 0.32798 0.53838 0.13183 0.0
C211 C 0.31484 0.56993 0.14912 0.0
C212 C 0.35885 0.6086 0.16443 0.0
C213 C 0.412 0.61572 0.16314 0.0
C214 C 0.42339 0.58446 0.14611 0.0
C215 C 0.38247 0.54663 0.1305 0.0
C216 C 0.40649 0.51941 0.11324 0.0
C217 C 0.37854 0.45872 0.12194 0.0
C218 C 0.40112 0.52988 0.08125 0.0
C219 C 0.46671 0.54739 0.1216 0.0
C220 C 0.47537 0.58468 0.14078 0.0
C221 C 0.52745 0.61544 0.15162 0.0
C222 C 0.57123 0.60876 0.14272 0.0
C223 C 0.56482 0.5715 0.12274 0.0
C224 C 0.51063 0.54026 0.11228 0.0
H225 H 0.89668 0.23635 0.46464 0.0
H226 H 0.7894 0.30035 0.47582 0.0
H227 H 0.86648 0.39251 0.46893 0.0
H228 H 1.01574 0.34216 0.49894 0.0
H229 H 1.06467 0.34609 0.47395 0.0
H230 H 1.00169 0.2841 0.48047 0.0
H231 H 0.98196 0.28378 0.42693 0.0
H232 H 1.04486 0.34583 0.42028 0.0
H233 H 0.98233 0.34156 0.4086 0.0
H234 H 0.9594 0.48341 0.46192 0.0
H235 H 1.05304 0.55839 0.45269 0.0
H236 H 1.10578 0.44273 0.44254 0.0
C237 C 0.88908 0.26955 0.46582 0.0
C238 C 0.83438 0.25835 0.4713 0.0
C239 C 0.82891 0.30514 0.47196 0.0
C240 C 0.87337 0.35879 0.46802 0.0
C241 C 0.92581 0.36822 0.46276 0.0
C242 C 0.93391 0.32468 0.46133 0.0
C243 C 0.99477 0.34695 0.45437 0.0
C244 C 1.02076 0.32871 0.47835 0.0
C245 C 1.00137 0.3284 0.42585 0.0
C246 C 1.01946 0.40916 0.45238 0.0
C247 C 0.97857 0.42025 0.45756 0.0
C248 C 0.99103 0.47432 0.45767 0.0
C249 C 1.04514 0.51743 0.45236 0.0
C250 C 1.08872 0.50862 0.4464 0.0
C251 C 1.07459 0.45256 0.4465 0.0
H252 H 0.79176 0.82096 0.78364 0.0
H253 H 0.64354 0.73058 0.83373 0.0
H254 H 0.62894 0.80865 0.82814 0.0
H255 H 0.83296 0.95448 0.809 0.0
H256 H 0.8578 0.99159 0.77497 0.0
H257 H 0.85833 0.92932 0.78301 0.0
H258 H 0.80318 0.89159 0.73825 0.0
H259 H 0.80245 0.95375 0.73012 0.0
H260 H 0.73983 0.89072 0.73347 0.0
H261 H 0.62994 0.90111 0.81814 0.0
H262 H 0.64461 0.99221 0.80348 0.0
H263 H 0.78928 1.02846 0.75685 0.0
C264 C 0.75616 0.81727 0.79362 0.0
C265 C 0.71907 0.76699 0.80962 0.0
C266 C 0.67322 0.7665 0.82153 0.0
C267 C 0.66443 0.81162 0.81841 0.0
C268 C 0.70112 0.85963 0.80275 0.0
C269 C 0.7461 0.8627 0.79027 0.0
C270 C 0.77832 0.91929 0.7739 0.0
C271 C 0.83526 0.95052 0.78592 0.0
C272 C 0.78115 0.91349 0.74204 0.0
C273 C 0.74508 0.94757 0.77927 0.0
C274 C 0.70074 0.91198 0.79622 0.0
C275 C 0.66458 0.92848 0.80477 0.0
C276 C 0.67331 0.98123 0.79623 0.0
C277 C 0.71779 1.01967 0.77862 0.0
C278 C 0.75418 1.00135 0.76999 0.0
H279 H 0.94835 0.50533 0.12384 0.0
H280 H 1.03042 0.64922 0.16952 0.0
H281 H 0.95256 0.66358 0.16288 0.0
H282 H 0.88516 0.55791 0.07178 0.0
H283 H 0.82179 0.49604 0.07061 0.0
H284 H 0.8827 0.49414 0.07955 0.0
H285 H 0.83704 0.43745 0.12619 0.0
H286 H 0.77631 0.43954 0.11755 0.0
H287 H 0.80899 0.46263 0.15067 0.0
H288 H 0.86273 0.66382 0.15192 0.0
H289 H 0.77361 0.6506 0.13678 0.0
H290 H 0.74375 0.50897 0.09576 0.0
C291 C 0.9499 0.53955 0.13282 0.0
C292 C 0.99773 0.57575 0.14776 0.0
C293 C 0.99617 0.62027 0.15821 0.0
C294 C 0.95126 0.62895 0.15449 0.0
C295 C 0.9057 0.59329 0.13983 0.0
C296 C 0.90448 0.54925 0.12905 0.0
C297 C 0.85011 0.51814 0.11352 0.0
C298 C 0.86056 0.51643 0.08198 0.0
C299 C 0.81614 0.46103 0.12783 0.0
C300 C 0.82152 0.55146 0.11711 0.0
C301 C 0.85457 0.59441 0.13271 0.0
C302 C 0.83712 0.63019 0.13967 0.0
C303 C 0.78563 0.62225 0.13093 0.0
C304 C 0.74979 0.57891 0.11483 0.0
C305 C 0.76914 0.5431 0.10773 0.0
H306 H 0.54101 0.88644 0.45986 0.0
H307 H 0.47273 0.97128 0.49934 0.0
H308 H 0.38163 0.89284 0.49595 0.0
H309 H 0.43008 0.81999 0.41006 0.0
H310 H 0.4311 0.75748 0.41228 0.0
H311 H 0.49186 0.81947 0.41837 0.0
H312 H 0.50103 0.77824 0.4673 0.0
H313 H 0.44031 0.71612 0.46132 0.0
H314 H 0.44553 0.75034 0.49261 0.0
H315 H 0.29188 0.80042 0.48807 0.0
H316 H 0.21921 0.71148 0.47485 0.0
H317 H 0.34011 0.68171 0.43977 0.0
C318 C 0.50714 0.88876 0.46802 0.0
C319 C 0.5167 0.93747 0.48025 0.0
C320 C 0.46909 0.9364 0.49001 0.0
C321 C 0.41609 0.89111 0.48815 0.0
C322 C 0.40825 0.84455 0.47611 0.0
C323 C 0.45276 0.84315 0.46605 0.0
C324 C 0.43245 0.78817 0.45343 0.0
C325 C 0.44728 0.79679 0.42164 0.0
C326 C 0.45627 0.75633 0.46962 0.0
C327 C 0.37021 0.75907 0.45792 0.0
C328 C 0.35722 0.79246 0.47124 0.0
C329 C 0.30251 0.77457 0.47767 0.0
C330 C 0.26069 0.72288 0.47022 0.0
C331 C 0.27154 0.68711 0.45605 0.0
C332 C 0.32835 0.70664 0.45018 0.0
H333 H 0.66217 0.40304 0.80216 0.0
H334 H 0.83058 0.49881 0.82352 0.0
H335 H 0.84311 0.42055 0.81886 0.0
H336 H 0.63918 0.273 0.83654 0.0
H337 H 0.59739 0.23317 0.80891 0.0
H338 H 0.60005 0.29564 0.81515 0.0
H339 H 0.62798 0.32991 0.76274 0.0
H340 H 0.62523 0.26747 0.75634 0.0
H341 H 0.68617 0.33059 0.74808 0.0
H342 H 0.83874 0.32746 0.81089 0.0
H343 H 0.81866 0.23681 0.79875 0.0
H344 H 0.65447 0.19753 0.77986 0.0
C345 C 0.70183 0.40784 0.806 0.0
C346 C 0.74526 0.45936 0.81375 0.0
C347 C 0.79607 0.4616 0.81782 0.0
C348 C 0.80376 0.41651 0.81508 0.0
C349 C 0.76082 0.36717 0.80736 0.0
C350 C 0.71071 0.36274 0.80259 0.0
C351 C 0.67182 0.30531 0.79349 0.0
C352 C 0.62426 0.27498 0.81478 0.0
C353 C 0.65157 0.30851 0.76338 0.0
C354 C 0.70731 0.27812 0.79405 0.0
C355 C 0.75862 0.31471 0.80234 0.0
C356 C 0.79847 0.29915 0.80444 0.0
C357 C 0.78652 0.2466 0.79766 0.0
C358 C 0.73476 0.20764 0.78848 0.0
C359 C 0.69461 0.22477 0.78695 0.0
H360 H 0.81837 0.90735 0.58964 0.0
H361 H 0.64934 0.78792 0.58545 0.0
H362 H 0.67033 0.71674 0.6019 0.0
H363 H 0.86251 0.84832 0.55559 0.0
H364 H 0.92392 0.86302 0.57391 0.0
H365 H 0.89625 0.90666 0.57581 0.0
H366 H 0.8929 0.89421 0.63035 0.0
H367 H 0.92106 0.85017 0.6295 0.0
H368 H 0.85815 0.82772 0.64825 0.0
H369 H 0.71011 0.6597 0.60023 0.0
H370 H 0.76523 0.62102 0.58549 0.0
H371 H 0.91023 0.77517 0.58921 0.0
C372 C 0.78551 0.86664 0.59424 0.0
C373 C 0.73233 0.85275 0.58669 0.0
C374 C 0.69021 0.79904 0.59156 0.0
C375 C 0.70191 0.75849 0.60091 0.0
C376 C 0.75582 0.77263 0.60524 0.0
C377 C 0.79704 0.82578 0.60276 0.0
C378 C 0.85203 0.82975 0.60184 0.0
C379 C 0.88551 0.86389 0.5752 0.0
C380 C 0.88286 0.85173 0.62911 0.0
C381 C 0.83514 0.77108 0.60067 0.0
C382 C 0.77962 0.73865 0.60381 0.0
C383 C 0.75365 0.68425 0.59897 0.0
C384 C 0.78499 0.66271 0.59041 0.0
C385 C 0.84152 0.69543 0.58688 0.0
C386 C 0.86707 0.74978 0.59254 0.0
H387 H 1.05395 0.61529 0.762 0.0
H388 H 0.88388 0.49527 0.7689 0.0
H389 H 0.9072 0.42562 0.78204 0.0
H390 H 1.10792 0.51341 0.75025 0.0
H391 H 0.16375 0.55134 0.77284 0.0
H392 H 0.13788 0.58557 0.74924 0.0
H393 H 0.12447 0.62937 0.79191 0.0
H394 H 0.14986 0.59551 0.81532 0.0
H395 H 1.0838 0.58673 0.82205 0.0
H396 H 0.94167 0.37929 0.81325 0.0
H397 H 0.98443 0.36288 0.85604 0.0
H398 H 0.13195 0.51112 0.83415 0.0
C399 C 1.02173 0.574 0.76536 0.0
C400 C 0.96724 0.56151 0.76499 0.0
C401 C 0.92617 0.50672 0.76879 0.0
C402 C 0.93908 0.46637 0.77644 0.0
C403 C 0.9931 0.48115 0.78043 0.0
C404 C 1.03415 0.53373 0.7743 0.0
C405 C 1.08696 0.54244 0.78688 0.0
C406 C 0.12645 0.54852 0.7634 0.0
C407 C 1.11261 0.59127 0.80514 0.0
C408 C 1.06725 0.48959 0.80464 0.0
C409 C 1.01382 0.45344 0.79929 0.0
C410 C 0.98402 0.40619 0.81682 0.0
C411 C 1.00833 0.39715 0.84114 0.0
C412 C 1.06151 0.43545 0.8478 0.0
C413 C 1.092 0.48049 0.82861 0.0
H414 H 0.22519 0.91484 0.21389 0.0
H415 H 0.28378 0.95439 0.12665 0.0
H416 H 0.32724 1.05068 0.13401 0.0
H417 H 0.21726 1.05016 0.21924 0.0
H418 H 0.23721 1.05097 0.25575 0.0
H419 H 0.19345 0.98775 0.24093 0.0
H420 H 0.26004 0.95462 0.25657 0.0
H421 H 0.30475 1.01756 0.27061 0.0
H422 H 0.32938 0.99267 0.2441 0.0
H423 H 0.39332 0.13008 0.15526 0.0
H424 H 0.4632 0.18908 0.18638 0.0
H425 H 0.35418 0.11256 0.25892 0.0
C426 C 0.24408 0.94392 0.19588 0.0
C427 C 0.25184 0.92738 0.16986 0.0
C428 C 0.27803 0.96633 0.14689 0.0
C429 C 0.30248 1.02121 0.15083 0.0
C430 C 0.29885 1.03651 0.1776 0.0
C431 C 0.26818 0.99912 0.19949 0.0
C432 C 0.27815 1.0254 0.22731 0.0
C433 C 0.22857 1.02879 0.23633 0.0
C434 C 0.29408 0.99583 0.25098 0.0
C435 C 0.3248 0.08093 0.21845 0.0
C436 C 0.33517 0.08683 0.18952 0.0
C437 C 0.38383 0.12786 0.17754 0.0
C438 C 0.42356 0.1619 0.19553 0.0
C439 C 0.414 0.15655 0.22521 0.0
C440 C 0.36252 0.11775 0.23635 0.0
H441 H 0.62872 0.39211 0.48362 0.0
H442 H 0.72509 0.40661 0.41028 0.0
H443 H 0.79512 0.49626 0.42307 0.0
H444 H 0.67945 0.54641 0.48425 0.0
H445 H 0.67599 0.53839 0.52251 0.0
H446 H 0.62698 0.48531 0.50223 0.0
H447 H 0.65144 0.41896 0.52991 0.0
H448 H 0.70214 0.47161 0.54927 0.0
H449 H 0.72024 0.43222 0.52885 0.0
H450 H 0.86509 0.56782 0.45237 0.0
H451 H 0.92056 0.62392 0.49093 0.0
H452 H 0.77633 0.56342 0.54297 0.0
C453 C 0.6626 0.41537 0.46905 0.0
C454 C 0.67199 0.39163 0.44644 0.0
C455 C 0.71763 0.42346 0.42822 0.0
C456 C 0.75763 0.47461 0.43525 0.0
C457 C 0.75008 0.49416 0.45979 0.0
C458 C 0.70242 0.46648 0.47568 0.0
C459 C 0.70674 0.49174 0.50316 0.0
C460 C 0.67013 0.51698 0.50301 0.0
C461 C 0.69446 0.45121 0.52928 0.0
C462 C 0.76548 0.53447 0.50148 0.0
C463 C 0.78997 0.53632 0.47619 0.0
C464 C 0.84593 0.56811 0.47181 0.0
C465 C 0.87721 0.59913 0.49377 0.0
C466 C 0.85214 0.59706 0.51958 0.0
C467 C 0.7958 0.56518 0.52317 0.0
H468 H 0.40137 0.45894 0.94751 0.0
H469 H 0.48322 0.62417 0.91112 0.0
H470 H 0.40323 0.63132 0.92072 0.0
H471 H 0.29323 0.41932 0.9147 0.0
H472 H 0.24344 0.37582 0.94154 0.0
H473 H 0.3115 0.38889 0.94467 0.0
H474 H 0.31844 0.42398 -0.00575 0.0
H475 H 0.24935 0.40961 0.9917 0.0
H476 H 0.30208 0.47615 -0.00126 0.0
H477 H 0.31142 0.61003 0.91346 0.0
H478 H 0.21592 0.56625 0.89961 0.0
H479 H 0.18732 0.41621 0.94311 0.0
C480 C 0.40311 0.49738 0.94303 0.0
C481 C 0.44819 0.54073 0.92837 0.0
C482 C 0.44948 0.59051 0.92265 0.0
C483 C 0.4039 0.59491 0.92798 0.0
C484 C 0.35775 0.54952 0.93948 0.0
C485 C 0.35747 0.50207 0.94803 0.0
C486 C 0.30039 0.45647 0.95466 0.0
C487 C 0.28639 0.40733 0.93787 0.0
C488 C 0.29208 0.44064 0.98675 0.0
C489 C 0.26849 0.48378 0.9447 0.0
C490 C 0.30248 0.53794 0.93682 0.0
C491 C 0.28405 0.56877 0.92117 0.0
C492 C 0.23007 0.54372 0.9132 0.0
C493 C 0.19459 0.4891 0.92179 0.0
C494 C 0.21364 0.45892 0.938 0.0
H495 H 0.80066 0.25961 0.17639 0.0
H496 H 0.8811 0.43189 0.18319 0.0
H497 H 0.80048 0.42164 0.20809 0.0
H498 H 0.66891 0.24395 0.16187 0.0
H499 H 0.63362 0.17904 0.18153 0.0
H500 H 0.69818 0.20067 0.16494 0.0
H501 H 0.73457 0.18511 0.21359 0.0
H502 H 0.67022 0.16401 0.23031 0.0
H503 H 0.73081 0.21843 0.24353 0.0
H504 H 0.71118 0.39059 0.23456 0.0
H505 H 0.61807 0.34187 0.25586 0.0
H506 H 0.59565 0.19333 0.22661 0.0
C507 C 0.80097 0.29503 0.18307 0.0
C508 C 0.84654 0.3464 0.17806 0.0
C509 C 0.84602 0.39218 0.18687 0.0
C510 C 0.8007 0.38672 0.2011 0.0
C511 C 0.75624 0.33529 0.20594 0.0
C512 C 0.75583 0.29041 0.19677 0.0
C513 C 0.70258 0.23992 0.20363 0.0
C514 C 0.67414 0.21442 0.17637 0.0
C515 C 0.71003 0.1995 0.22397 0.0
C516 C 0.67324 0.26325 0.21818 0.0
C517 C 0.70479 0.31813 0.21981 0.0
C518 C 0.68603 0.34762 0.23328 0.0
C519 C 0.6335 0.31996 0.2453 0.0
C520 C 0.60093 0.26395 0.24335 0.0
C521 C 0.62087 0.2358 0.22925 0.0
H522 H 0.20497 0.63398 0.05364 0.0
H523 H 1.05608 0.51714 0.09733 0.0
H524 H 1.02206 0.47031 0.05358 0.0
H525 H 0.13737 0.64 0.98567 0.0
H526 H 0.19366 0.64965 0.96439 0.0
H527 H 0.20495 0.67479 -0.0009 0.0
H528 H 0.25424 0.62112 0.0134 0.0
H529 H 0.24231 0.59527 0.97892 0.0
H530 H 0.21968 0.54943 0.01038 0.0
H531 H 1.01181 0.42856 0.00731 0.0
H532 H 1.0192 0.40369 0.95917 0.0
H533 H 0.16448 0.55779 0.94277 0.0
C534 C 0.16484 0.59918 0.05367 0.0
C535 C 0.13348 0.57772 0.07887 0.0
C536 C 1.08112 0.53264 0.07838 0.0
C537 C 1.06136 0.50619 0.05357 0.0
C538 C 1.09396 0.52689 0.0292 0.0
C539 C 0.14381 0.57341 0.02875 0.0
C540 C 0.17038 0.58744 -0.0004 0.0
C541 C 0.17695 0.64115 0.98641 0.0
C542 C 0.22486 0.58835 0.00067 0.0
C543 C 0.12868 0.54045 0.9842 0.0
C544 C 1.08528 0.50554 0.00171 0.0
C545 C 1.04485 0.45632 -0.0069 0.0
C546 C 1.04928 0.44249 0.96586 0.0
C547 C 1.09307 0.47822 0.94749 0.0
C548 C 0.13204 0.52848 0.95659 0.0
H549 H 0.66147 0.17805 0.41686 0.0
H550 H 0.70987 1.07309 0.38199 0.0
H551 H 0.67494 0.08568 0.33507 0.0
H552 H 0.54154 0.13654 0.38272 0.0
H553 H 0.54756 0.20206 0.37593 0.0
H554 H 0.58119 0.18926 0.40563 0.0
H555 H 0.67349 0.26915 0.38721 0.0
H556 H 0.63951 0.2831 0.35794 0.0
H557 H 0.69536 0.27242 0.35128 0.0
H558 H 0.62129 0.09867 0.29468 0.0
H559 H 0.56477 0.12111 0.26196 0.0
H560 H 0.56051 0.22531 0.32185 0.0
C561 C 0.66587 0.15894 0.39915 0.0
C562 C 0.68829 0.12489 0.40279 0.0
C563 C 0.69327 0.0999 0.37934 0.0
C564 C 0.67336 0.10666 0.35275 0.0
C565 C 0.65009 0.13964 0.35002 0.0
C566 C 0.64767 0.16655 0.37244 0.0
C567 C 0.61987 0.19884 0.36432 0.0
C568 C 0.56956 0.18054 0.38327 0.0
C569 C 0.65941 0.25948 0.36523 0.0
C570 C 0.60468 0.18398 0.33417 0.0
C571 C 0.62232 0.14969 0.32628 0.0
C572 C 0.60871 0.12671 0.30031 0.0
C573 C 0.57674 0.13956 0.2819 0.0
C574 C 0.55979 0.17575 0.28938 0.0
C575 C 0.57415 0.19837 0.31569 0.0
H576 H 0.79456 0.6771 0.73803 0.0
H577 H 0.65536 0.51696 0.73922 0.0
H578 H 0.68773 0.5024 0.69424 0.0
H579 H 0.79609 0.70384 0.66127 0.0
H580 H 0.86873 0.743 0.65827 0.0
H581 H 0.83471 0.7415 0.69025 0.0
H582 H 0.89095 0.70667 0.72094 0.0
H583 H 0.9265 0.71437 0.68836 0.0
H584 H 0.89582 0.65077 0.70891 0.0
H585 H 0.73575 0.50598 0.64925 0.0
H586 H 0.78979 0.53121 0.60501 0.0
H587 H 0.90215 0.68572 0.63556 0.0
C588 C 0.77071 0.63935 0.72851 0.0
C589 C 0.72231 0.59828 0.74159 0.0
C590 C 0.69195 0.54917 0.72892 0.0
C591 C 0.71045 0.54035 0.70371 0.0
C592 C 0.75938 0.58109 0.69171 0.0
C593 C 0.78874 0.62994 0.70346 0.0
C594 C 0.83852 0.66807 0.68555 0.0
C595 C 0.83422 0.71698 0.67308 0.0
C596 C 0.89095 0.68598 0.70204 0.0
C597 C 0.83406 0.63208 0.66276 0.0
C598 C 0.78781 0.58238 0.6664 0.0
C599 C 0.77276 0.54428 0.64654 0.0
C600 C 0.80457 0.55839 0.62173 0.0
C601 C 0.85155 0.60967 0.61738 0.0
C602 C 0.8675 0.64568 0.63887 0.0
H603 H 0.75672 0.16491 0.57966 0.0
H604 H 0.62308 1.00518 0.56897 0.0
H605 H 0.62268 0.98104 0.62062 0.0
H606 H 0.82554 0.11923 0.63337 0.0
H607 H 0.84935 0.1785 0.65257 0.0
H608 H 0.83951 0.18233 0.61481 0.0
H609 H 0.77568 0.22061 0.6224 0.0
H610 H 0.78584 0.2173 0.66006 0.0
H611 H 0.7184 0.18383 0.64642 0.0
H612 H 0.62962 0.97996 0.67633 0.0
H613 H 0.64832 1.00041 0.72691 0.0
H614 H 0.78739 0.15353 0.70012 0.0
C615 C 0.72776 0.12462 0.58813 0.0
C616 C 0.6896 0.08714 0.57003 0.0
C617 C 0.65275 1.03474 0.58216 0.0
C618 C 0.6522 1.02067 0.61164 0.0
C619 C 0.68992 1.05876 0.62898 0.0
C620 C 0.72791 0.10931 0.6174 0.0
C621 C 0.76466 0.14282 0.64038 0.0
C622 C 0.82324 0.15653 0.63495 0.0
C623 C 0.76089 0.19416 0.64242 0.0
C624 C 0.74054 0.10421 0.66682 0.0
C625 C 0.69695 1.05603 0.66005 0.0
C626 C 0.66464 1.0171 0.68162 0.0
C627 C 0.67589 1.02862 0.71048 0.0
C628 C 0.71972 0.07832 0.71782 0.0
C629 C 0.75387 0.11491 0.6954 0.0
H630 H 0.67485 0.55295 0.91298 0.0
H631 H 0.83613 0.69128 0.90937 0.0
H632 H 0.83502 0.69122 0.96174 0.0
H633 H 0.62285 0.5891 0.9722 0.0
H634 H 0.58497 0.52125 0.9883 0.0
H635 H 0.59697 0.53285 0.95048 0.0
H636 H 0.64005 0.4722 0.95258 0.0
H637 H 0.62824 0.4597 0.99044 0.0
H638 H 0.69548 0.48606 0.97602 0.0
H639 H 0.81556 0.67672 0.0156 0.0
H640 H 0.77789 0.65066 0.0648 0.0
H641 H 0.63343 0.51633 0.03456 0.0
C642 C 0.70942 0.58385 0.92321 0.0
C643 C 0.75524 0.62301 0.90683 0.0
C644 C 0.80028 0.66152 0.92128 0.0
C645 C 0.80012 0.66158 0.95113 0.0
C646 C 0.75489 0.62211 0.96674 0.0
C647 C 0.7103 0.58386 0.95325 0.0
C648 C 0.66755 0.54492 0.97514 0.0
C649 C 0.61498 0.54721 0.97131 0.0
C650 C 0.65724 0.4873 0.97343 0.0
C651 C 0.69469 0.5675 0.00289 0.0
C652 C 0.74503 0.61217 -0.00238 0.0
C653 C 0.77639 0.64137 0.01989 0.0
C654 C 0.75505 0.62582 0.04798 0.0
C655 C 0.70294 0.58099 0.05391 0.0
C656 C 0.67356 0.55056 0.03091 0.0
H657 H 0.13578 0.59545 0.24748 0.0
H658 H 0.16372 0.46006 0.2458 0.0
H659 H 0.16057 0.44953 0.29792 0.0
H660 H 0.21981 0.65071 0.30785 0.0
H661 H 0.17711 0.67259 0.32288 0.0
H662 H 0.17793 0.66776 0.28515 0.0
H663 H 1.07422 0.60469 0.28701 0.0
H664 H 1.07333 0.60884 0.32485 0.0
H665 H 1.04527 0.54409 0.31056 0.0
H666 H 0.15922 0.45518 0.35073 0.0
H667 H 0.16744 0.48271 0.39981 0.0
H668 H 0.13973 0.61318 0.36965 0.0
C669 C 0.14074 0.56335 0.25811 0.0
C670 C 0.14956 0.52832 0.24211 0.0
C671 C 0.15668 0.48743 0.25716 0.0
C672 C 0.15474 0.48085 0.28698 0.0
C673 C 0.14587 0.51557 0.3021 0.0
C674 C 0.13943 0.5564 0.28828 0.0
C675 C 0.13376 0.59 0.31003 0.0
C676 C 0.17989 0.64874 0.30625 0.0
C677 C 1.07834 0.5867 0.30798 0.0
C678 C 0.13846 0.56194 0.33797 0.0
C679 C 0.14495 0.51875 0.33283 0.0
C680 C 0.15336 0.48847 0.35501 0.0
C681 C 0.15725 0.50381 0.38296 0.0
C682 C 0.15263 0.54893 0.3888 0.0
C683 C 0.14157 0.57735 0.36595 0.0
loop_
_geom_bond_atom_site_label_1
_geom_bond_atom_site_label_2
_geom_bond_distance
_geom_bond_site_symmetry_2
_ccdc_geom_bond_type
C0 Eu1 2.835 . S
C0 C2 1.500 . S
C0 O20 1.257 . S
C0 O21 1.260 . S
Eu1 C0 2.835 . S
Eu1 O20 2.473 . S
Eu1 O21 2.480 . S
Eu1 O22 2.430 1_655 S
Eu1 O23 2.670 1_655 S
Eu1 O24 2.394 . S
Eu1 O29 2.355 1_655 S
Eu1 O31 2.374 1_655 S
C2 C0 1.500 . S
C2 C3 1.377 . S
C2 C7 1.377 . S
C3 C2 1.377 . S
C3 C4 1.395 . S
C3 H32 0.931 . S
C4 C3 1.395 . S
C4 C5 1.383 . S
C4 H33 0.931 . S
C5 C4 1.383 . S
C5 C6 1.394 . S
C6 C5 1.394 . S
C6 C7 1.378 . S
C6 H34 0.931 . S
C7 C2 1.377 . S
C7 C6 1.378 . S
C7 H35 0.931 . S
C8 O22 1.259 . S
C8 O23 1.270 . S
C9 O24 1.251 . S
C9 O25 1.251 . S
C10 Eu11 2.835 . S
C10 C12 1.500 . S
C10 O26 1.257 . S
C10 O27 1.260 . S
Eu11 C10 2.835 . S
Eu11 O23 2.355 . S
Eu11 O25 2.374 1_455 S
Eu11 O26 2.473 . S
Eu11 O27 2.480 . S
Eu11 O28 2.430 . S
Eu11 O29 2.670 . S
Eu11 O30 2.394 . S
C12 C10 1.500 . S
C12 C13 1.377 . S
C12 C17 1.377 . S
C13 C12 1.377 . S
C13 C14 1.395 . S
C13 H36 0.931 . S
C14 C13 1.395 . S
C14 C15 1.383 . S
C14 H37 0.931 . S
C15 C14 1.383 . S
C15 C16 1.394 . S
C16 C15 1.394 . S
C16 C17 1.378 . S
C16 H38 0.931 . S
C17 C12 1.377 . S
C17 C16 1.378 . S
C17 H39 0.931 . S
C18 O28 1.259 . S
C18 O29 1.270 . S
C19 O30 1.251 . S
C19 O31 1.251 . S
O20 C0 1.257 . S
O20 Eu1 2.473 . S
O21 C0 1.260 . S
O21 Eu1 2.480 . S
O22 Eu1 2.430 1_455 S
O22 C8 1.259 . S
O23 Eu1 2.670 1_455 S
O23 C8 1.270 . S
O23 Eu11 2.355 . S
O24 Eu1 2.394 . S
O24 C9 1.251 . S
O25 C9 1.251 . S
O25 Eu11 2.374 1_655 S
O26 C10 1.257 . S
O26 Eu11 2.473 . S
O27 C10 1.260 . S
O27 Eu11 2.480 . S
O28 Eu11 2.430 . S
O28 C18 1.259 . S
O29 Eu1 2.355 1_455 S
O29 Eu11 2.670 . S
O29 C18 1.270 . S
O30 Eu11 2.394 . S
O30 C19 1.251 . S
O31 Eu1 2.374 1_455 S
O31 C19 1.251 . S
H32 C3 0.931 . S
H33 C4 0.931 . S
H34 C6 0.931 . S
H35 C7 0.931 . S
H36 C13 0.931 . S
H37 C14 0.931 . S
H38 C16 0.931 . S
H39 C17 0.931 . S
C40 Eu41 2.835 . S
C40 C42 1.500 . S
C40 O60 1.257 . S
C40 O61 1.260 . S
Eu41 C40 2.835 . S
Eu41 O60 2.473 . S
Eu41 O61 2.480 . S
Eu41 O62 2.430 . S
Eu41 O63 2.670 . S
Eu41 O64 2.394 . S
Eu41 O69 2.355 . S
Eu41 O71 2.374 1_545 S
C42 C40 1.500 . S
C42 C43 1.377 . S
C42 C47 1.377 . S
C43 C42 1.377 . S
C43 C44 1.395 . S
C43 H72 0.931 . S
C44 C43 1.395 . S
C44 C45 1.383 . S
C44 H73 0.931 . S
C45 C44 1.383 . S
C45 C46 1.394 . S
C46 C45 1.394 . S
C46 C47 1.378 . S
C46 H74 0.931 . S
C47 C42 1.377 . S
C47 C46 1.378 . S
C47 H75 0.931 . S
C48 O62 1.259 . S
C48 O63 1.270 . S
C49 O64 1.251 . S
C49 O65 1.251 . S
C50 Eu51 2.835 . S
C50 C52 1.500 . S
C50 O66 1.257 . S
C50 O67 1.260 . S
Eu51 C50 2.835 . S
Eu51 O63 2.355 1_565 S
Eu51 O65 2.374 1_565 S
Eu51 O66 2.473 . S
Eu51 O67 2.480 . S
Eu51 O68 2.430 1_565 S
Eu51 O69 2.670 1_565 S
Eu51 O70 2.394 . S
C52 C50 1.500 . S
C52 C53 1.377 . S
C52 C57 1.377 . S
C53 C52 1.377 . S
C53 C54 1.395 . S
C53 H76 0.931 . S
C54 C53 1.395 . S
C54 C55 1.383 . S
C54 H77 0.931 . S
C55 C54 1.383 . S
C55 C56 1.394 . S
C56 C55 1.394 . S
C56 C57 1.378 . S
C56 H78 0.931 . S
C57 C52 1.377 . S
C57 C56 1.378 . S
C57 H79 0.931 . S
C58 O68 1.259 . S
C58 O69 1.270 . S
C59 O70 1.251 . S
C59 O71 1.251 . S
O60 C40 1.257 . S
O60 Eu41 2.473 . S
O61 C40 1.260 . S
O61 Eu41 2.480 . S
O62 Eu41 2.430 . S
O62 C48 1.259 . S
O63 Eu41 2.670 . S
O63 C48 1.270 . S
O63 Eu51 2.355 1_545 S
O64 Eu41 2.394 . S
O64 C49 1.251 . S
O65 C49 1.251 . S
O65 Eu51 2.374 1_545 S
O66 C50 1.257 . S
O66 Eu51 2.473 . S
O67 C50 1.260 . S
O67 Eu51 2.480 . S
O68 Eu51 2.430 1_545 S
O68 C58 1.259 . S
O69 Eu41 2.355 . S
O69 Eu51 2.670 1_545 S
O69 C58 1.270 . S
O70 Eu51 2.394 . S
O70 C59 1.251 . S
O71 Eu41 2.374 1_565 S
O71 C59 1.251 . S
H72 C43 0.931 . S
H73 C44 0.931 . S
H74 C46 0.931 . S
H75 C47 0.931 . S
H76 C53 0.931 . S
H77 C54 0.931 . S
H78 C56 0.931 . S
H79 C57 0.931 . S
C80 Eu81 2.835 . S
C80 C82 1.500 . S
C80 O100 1.257 . S
C80 O101 1.260 . S
Eu81 C80 2.835 . S
Eu81 O100 2.473 . S
Eu81 O101 2.480 . S
Eu81 O102 2.430 . S
Eu81 O103 2.670 . S
Eu81 O104 2.394 . S
Eu81 O109 2.355 . S
Eu81 O111 2.374 . S
C82 C80 1.500 . S
C82 C83 1.377 . S
C82 C87 1.377 . S
C83 C82 1.377 . S
C83 C84 1.395 . S
C83 H112 0.931 . S
C84 C83 1.395 . S
C84 C85 1.383 . S
C84 H113 0.931 . S
C85 C84 1.383 . S
C85 C86 1.394 . S
C86 C85 1.394 . S
C86 C87 1.378 . S
C86 H114 0.931 . S
C87 C82 1.377 . S
C87 C86 1.378 . S
C87 H115 0.931 . S
C88 O102 1.259 . S
C88 O103 1.270 . S
C89 O104 1.251 . S
C89 O105 1.251 . S
C90 Eu91 2.835 . S
C90 C92 1.500 . S
C90 O106 1.257 . S
C90 O107 1.260 . S
Eu91 C90 2.835 . S
Eu91 O103 2.355 . S
Eu91 O105 2.374 . S
Eu91 O106 2.473 . S
Eu91 O107 2.480 . S
Eu91 O108 2.430 . S
Eu91 O109 2.670 . S
Eu91 O110 2.394 . S
C92 C90 1.500 . S
C92 C93 1.377 . S
C92 C97 1.377 . S
C93 C92 1.377 . S
C93 C94 1.395 . S
C93 H116 0.931 . S
C94 C93 1.395 . S
C94 C95 1.383 . S
C94 H117 0.931 . S
C95 C94 1.383 . S
C95 C96 1.394 . S
C96 C95 1.394 . S
C96 C97 1.378 . S
C96 H118 0.931 . S
C97 C92 1.377 . S
C97 C96 1.378 . S
C97 H119 0.931 . S
C98 O108 1.259 . S
C98 O109 1.270 . S
C99 O110 1.251 . S
C99 O111 1.251 . S
O100 C80 1.257 . S
O100 Eu81 2.473 . S
O101 C80 1.260 . S
O101 Eu81 2.480 . S
O102 Eu81 2.430 . S
O102 C88 1.259 . S
O103 Eu81 2.670 . S
O103 C88 1.270 . S
O103 Eu91 2.355 . S
O104 Eu81 2.394 . S
O104 C89 1.251 . S
O105 C89 1.251 . S
O105 Eu91 2.374 . S
O106 C90 1.257 . S
O106 Eu91 2.473 . S
O107 C90 1.260 . S
O107 Eu91 2.480 . S
O108 Eu91 2.430 . S
O108 C98 1.259 . S
O109 Eu81 2.355 . S
O109 Eu91 2.670 . S
O109 C98 1.270 . S
O110 Eu91 2.394 . S
O110 C99 1.251 . S
O111 Eu81 2.374 . S
O111 C99 1.251 . S
H112 C83 0.931 . S
H113 C84 0.931 . S
H114 C86 0.931 . S
H115 C87 0.931 . S
H116 C93 0.931 . S
H117 C94 0.931 . S
H118 C96 0.931 . S
H119 C97 0.931 . S
C120 N121 1.317 . S
C120 N122 1.348 1_545 S
C120 C123 1.485 . S
N121 C120 1.317 . S
N121 N125 1.370 . S
N122 C120 1.348 1_565 S
N122 C124 1.346 . S
C123 C120 1.485 . S
C123 H127 0.960 . S
C123 H128 0.961 . S
C123 H129 0.960 . S
C124 N122 1.346 . S
C124 N125 1.307 1_565 S
C124 C126 1.486 . S
N125 N121 1.370 . S
N125 C124 1.307 1_545 S
C126 C124 1.486 . S
C126 H130 0.960 . S
C126 H131 0.960 . S
C126 H132 0.959 . S
H127 C123 0.960 . S
H128 C123 0.961 . S
H129 C123 0.960 . S
H130 C126 0.960 . S
H131 C126 0.960 . S
H132 C126 0.959 . S
C133 N134 1.317 . S
C133 N135 1.348 . S
C133 C136 1.485 . S
N134 C133 1.317 . S
N134 N138 1.370 . S
N135 C133 1.348 . S
N135 C137 1.346 . S
C136 C133 1.485 . S
C136 H140 0.960 . S
C136 H141 0.961 . S
C136 H142 0.960 . S
C137 N135 1.346 . S
C137 N138 1.307 . S
C137 C139 1.486 . S
N138 N134 1.370 . S
N138 C137 1.307 . S
C139 C137 1.486 . S
C139 H143 0.960 . S
C139 H144 0.960 . S
C139 H145 0.959 . S
H140 C136 0.960 . S
H141 C136 0.961 . S
H142 C136 0.960 . S
H143 C139 0.960 . S
H144 C139 0.960 . S
H145 C139 0.959 . S
C146 N147 1.317 . S
C146 N148 1.348 1_455 S
C146 C149 1.485 . S
N147 C146 1.317 . S
N147 N151 1.370 . S
N148 C146 1.348 1_655 S
N148 C150 1.346 . S
C149 C146 1.485 . S
C149 H153 0.960 . S
C149 H154 0.961 1_455 S
C149 H155 0.960 . S
C150 N148 1.346 . S
C150 N151 1.307 1_655 S
C150 C152 1.486 . S
N151 N147 1.370 . S
N151 C150 1.307 1_455 S
C152 C150 1.486 . S
C152 H156 0.960 . S
C152 H157 0.960 . S
C152 H158 0.959 . S
H153 C149 0.960 . S
H154 C149 0.961 1_655 S
H155 C149 0.960 . S
H156 C152 0.960 . S
H157 C152 0.960 . S
H158 C152 0.959 . S
C159 N160 1.317 . S
C159 N161 1.348 . S
C159 C162 1.485 . S
N160 C159 1.317 . S
N160 N164 1.370 . S
N161 C159 1.348 . S
N161 C163 1.346 . S
C162 C159 1.485 . S
C162 H166 0.960 . S
C162 H167 0.961 . S
C162 H168 0.960 . S
C163 N161 1.346 . S
C163 N164 1.307 . S
C163 C165 1.486 . S
N164 N160 1.370 . S
N164 C163 1.307 . S
C165 C163 1.486 . S
C165 H169 0.960 . S
C165 H170 0.960 . S
C165 H171 0.959 . S
H166 C162 0.960 . S
H167 C162 0.961 . S
H168 C162 0.960 . S
H169 C165 0.960 . S
H170 C165 0.960 . S
H171 C165 0.959 . S
C172 N173 1.317 . S
C172 N174 1.348 . S
C172 C175 1.485 . S
N173 C172 1.317 . S
N173 N177 1.370 . S
N174 C172 1.348 . S
N174 C176 1.346 . S
C175 C172 1.485 . S
C175 H179 0.960 . S
C175 H180 0.961 . S
C175 H181 0.937 1_545 S
C176 N174 1.346 . S
C176 N177 1.307 . S
C176 C178 1.486 . S
N177 N173 1.370 . S
N177 C176 1.307 . S
C178 C176 1.486 . S
C178 H182 0.960 . S
C178 H183 0.960 . S
C178 H184 0.959 . S
H179 C175 0.960 . S
H180 C175 0.961 . S
H181 C175 0.937 1_565 S
H182 C178 0.960 . S
H183 C178 0.960 . S
H184 C178 0.959 . S
C185 N186 1.317 . S
C185 N187 1.348 . S
C185 C188 1.485 . S
N186 C185 1.317 . S
N186 N190 1.370 . S
N187 C185 1.348 . S
N187 C189 1.346 . S
C188 C185 1.485 . S
C188 H192 0.960 . S
C188 H193 0.961 . S
C188 H194 0.960 . S
C189 N187 1.346 . S
C189 N190 1.307 . S
C189 C191 1.486 . S
N190 N186 1.370 . S
N190 C189 1.307 . S
C191 C189 1.486 . S
C191 H195 0.960 . S
C191 H196 0.960 . S
C191 H197 0.959 . S
H192 C188 0.960 . S
H193 C188 0.961 . S
H194 C188 0.960 . S
H195 C191 0.960 . S
H196 C191 0.960 . S
H197 C191 0.959 . S
H198 C210 0.930 . S
H199 C212 0.930 . S
H200 C213 0.930 . S
H201 C217 0.959 . S
H202 C217 0.959 . S
H203 C217 0.961 . S
H204 C218 0.960 . S
H205 C218 0.961 . S
H206 C218 0.959 . S
H207 C221 0.929 . S
H208 C222 0.931 . S
H209 C224 0.930 . S
C210 H198 0.930 . S
C210 C211 1.399 . S
C210 C215 1.399 . S
C211 C210 1.399 . S
C211 C212 1.376 . S
C212 H199 0.930 . S
C212 C211 1.376 . S
C212 C213 1.388 . S
C213 H200 0.930 . S
C213 C212 1.388 . S
C213 C214 1.390 . S
C214 C213 1.390 . S
C214 C215 1.394 . S
C214 C220 1.465 . S
C215 C210 1.399 . S
C215 C214 1.394 . S
C215 C216 1.516 . S
C216 C215 1.516 . S
C216 C217 1.502 . S
C216 C218 1.561 . S
C216 C219 1.526 . S
C217 H201 0.959 . S
C217 H202 0.959 . S
C217 H203 0.961 . S
C217 C216 1.502 . S
C218 H204 0.960 . S
C218 H205 0.961 . S
C218 H206 0.959 . S
C218 C216 1.561 . S
C219 C216 1.526 . S
C219 C220 1.396 . S
C219 C224 1.390 . S
C220 C214 1.465 . S
C220 C219 1.396 . S
C220 C221 1.399 . S
C221 H207 0.929 . S
C221 C220 1.399 . S
C221 C222 1.385 . S
C222 H208 0.931 . S
C222 C221 1.385 . S
C222 C223 1.389 . S
C223 C222 1.389 . S
C223 C224 1.387 . S
C224 H209 0.930 . S
C224 C219 1.390 . S
C224 C223 1.387 . S
H225 C237 0.930 . S
H226 C239 0.930 . S
H227 C240 0.930 . S
H228 C244 0.959 . S
H229 C244 0.959 . S
H230 C244 0.961 . S
H231 C245 0.960 . S
H232 C245 0.961 . S
H233 C245 0.959 . S
H234 C248 0.929 . S
H235 C249 0.931 . S
H236 C251 0.930 . S
C237 H225 0.930 . S
C237 C238 1.399 . S
C237 C242 1.399 . S
C238 C237 1.399 . S
C238 C239 1.376 . S
C239 H226 0.930 . S
C239 C238 1.376 . S
C239 C240 1.388 . S
C240 H227 0.930 . S
C240 C239 1.388 . S
C240 C241 1.390 . S
C241 C240 1.390 . S
C241 C242 1.394 . S
C241 C247 1.465 . S
C242 C237 1.399 . S
C242 C241 1.394 . S
C242 C243 1.516 . S
C243 C242 1.516 . S
C243 C244 1.502 . S
C243 C245 1.561 . S
C243 C246 1.526 . S
C244 H228 0.959 . S
C244 H229 0.959 . S
C244 H230 0.961 . S
C244 C243 1.502 . S
C245 H231 0.960 . S
C245 H232 0.961 . S
C245 H233 0.959 . S
C245 C243 1.561 . S
C246 C243 1.526 . S
C246 C247 1.396 . S
C246 C251 1.390 . S
C247 C241 1.465 . S
C247 C246 1.396 . S
C247 C248 1.399 . S
C248 H234 0.929 . S
C248 C247 1.399 . S
C248 C249 1.385 . S
C249 H235 0.931 . S
C249 C248 1.385 . S
C249 C250 1.389 . S
C250 C249 1.389 . S
C250 C251 1.387 . S
C251 H236 0.930 . S
C251 C246 1.390 . S
C251 C250 1.387 . S
H252 C264 0.930 . S
H253 C266 0.930 . S
H254 C267 0.930 . S
H255 C271 0.959 . S
H256 C271 0.959 . S
H257 C271 0.961 . S
H258 C272 0.960 . S
H259 C272 0.961 . S
H260 C272 0.959 . S
H261 C275 0.929 . S
H262 C276 0.931 . S
H263 C278 0.930 . S
C264 H252 0.930 . S
C264 C265 1.399 . S
C264 C269 1.399 . S
C265 C264 1.399 . S
C265 C266 1.376 . S
C266 H253 0.930 . S
C266 C265 1.376 . S
C266 C267 1.388 . S
C267 H254 0.930 . S
C267 C266 1.388 . S
C267 C268 1.390 . S
C268 C267 1.390 . S
C268 C269 1.394 . S
C268 C274 1.465 . S
C269 C264 1.399 . S
C269 C268 1.394 . S
C269 C270 1.516 . S
C270 C269 1.516 . S
C270 C271 1.502 . S
C270 C272 1.561 . S
C270 C273 1.526 . S
C271 H255 0.959 . S
C271 H256 0.959 . S
C271 H257 0.961 . S
C271 C270 1.502 . S
C272 H258 0.960 . S
C272 H259 0.961 . S
C272 H260 0.959 . S
C272 C270 1.561 . S
C273 C270 1.526 . S
C273 C274 1.396 . S
C273 C278 1.390 . S
C274 C268 1.465 . S
C274 C273 1.396 . S
C274 C275 1.399 . S
C275 H261 0.929 . S
C275 C274 1.399 . S
C275 C276 1.385 . S
C276 H262 0.931 . S
C276 C275 1.385 . S
C276 C277 1.389 . S
C277 C276 1.389 . S
C277 C278 1.387 . S
C278 H263 0.930 . S
C278 C273 1.390 . S
C278 C277 1.387 . S
H279 C291 0.930 . S
H280 C293 0.930 . S
H281 C294 0.930 . S
H282 C298 0.959 . S
H283 C298 0.959 . S
H284 C298 0.961 . S
H285 C299 0.960 . S
H286 C299 0.961 . S
H287 C299 0.959 . S
H288 C302 0.929 . S
H289 C303 0.931 . S
H290 C305 0.930 . S
C291 H279 0.930 . S
C291 C292 1.399 . S
C291 C296 1.399 . S
C292 C291 1.399 . S
C292 C293 1.376 . S
C293 H280 0.930 . S
C293 C292 1.376 . S
C293 C294 1.388 . S
C294 H281 0.930 . S
C294 C293 1.388 . S
C294 C295 1.390 . S
C295 C294 1.390 . S
C295 C296 1.394 . S
C295 C301 1.465 . S
C296 C291 1.399 . S
C296 C295 1.394 . S
C296 C297 1.516 . S
C297 C296 1.516 . S
C297 C298 1.502 . S
C297 C299 1.561 . S
C297 C300 1.526 . S
C298 H282 0.959 . S
C298 H283 0.959 . S
C298 H284 0.961 . S
C298 C297 1.502 . S
C299 H285 0.960 . S
C299 H286 0.961 . S
C299 H287 0.959 . S
C299 C297 1.561 . S
C300 C297 1.526 . S
C300 C301 1.396 . S
C300 C305 1.390 . S
C301 C295 1.465 . S
C301 C300 1.396 . S
C301 C302 1.399 . S
C302 H288 0.929 . S
C302 C301 1.399 . S
C302 C303 1.385 . S
C303 H289 0.931 . S
C303 C302 1.385 . S
C303 C304 1.389 . S
C304 C303 1.389 . S
C304 C305 1.387 . S
C305 H290 0.930 . S
C305 C300 1.390 . S
C305 C304 1.387 . S
H306 C318 0.930 . S
H307 C320 0.930 . S
H308 C321 0.930 . S
H309 C325 0.959 . S
H310 C325 0.959 . S
H311 C325 0.961 . S
H312 C326 0.960 . S
H313 C326 0.961 . S
H314 C326 0.959 . S
H315 C329 0.929 . S
H316 C330 0.931 . S
H317 C332 0.930 . S
C318 H306 0.930 . S
C318 C319 1.399 . S
C318 C323 1.399 . S
C319 C318 1.399 . S
C319 C320 1.376 . S
C320 H307 0.930 . S
C320 C319 1.376 . S
C320 C321 1.388 . S
C321 H308 0.930 . S
C321 C320 1.388 . S
C321 C322 1.390 . S
C322 C321 1.390 . S
C322 C323 1.394 . S
C322 C328 1.465 . S
C323 C318 1.399 . S
C323 C322 1.394 . S
C323 C324 1.516 . S
C324 C323 1.516 . S
C324 C325 1.502 . S
C324 C326 1.561 . S
C324 C327 1.526 . S
C325 H309 0.959 . S
C325 H310 0.959 . S
C325 H311 0.961 . S
C325 C324 1.502 . S
C326 H312 0.960 . S
C326 H313 0.961 . S
C326 H314 0.959 . S
C326 C324 1.561 . S
C327 C324 1.526 . S
C327 C328 1.396 . S
C327 C332 1.390 . S
C328 C322 1.465 . S
C328 C327 1.396 . S
C328 C329 1.399 . S
C329 H315 0.929 . S
C329 C328 1.399 . S
C329 C330 1.385 . S
C330 H316 0.931 . S
C330 C329 1.385 . S
C330 C331 1.389 . S
C331 C330 1.389 . S
C331 C332 1.387 . S
C332 H317 0.930 . S
C332 C327 1.390 . S
C332 C331 1.387 . S
H333 C345 0.930 . S
H334 C347 0.930 . S
H335 C348 0.930 . S
H336 C352 0.959 . S
H337 C352 0.959 . S
H338 C352 0.961 . S
H339 C353 0.960 . S
H340 C353 0.961 . S
H341 C353 0.959 . S
H342 C356 0.929 . S
H343 C357 0.931 . S
H344 C359 0.930 . S
C345 H333 0.930 . S
C345 C346 1.399 . S
C345 C350 1.399 . S
C346 C345 1.399 . S
C346 C347 1.376 . S
C347 H334 0.930 . S
C347 C346 1.376 . S
C347 C348 1.388 . S
C348 H335 0.930 . S
C348 C347 1.388 . S
C348 C349 1.390 . S
C349 C348 1.390 . S
C349 C350 1.394 . S
C349 C355 1.465 . S
C350 C345 1.399 . S
C350 C349 1.394 . S
C350 C351 1.516 . S
C351 C350 1.516 . S
C351 C352 1.502 . S
C351 C353 1.561 . S
C351 C354 1.526 . S
C352 H336 0.959 . S
C352 H337 0.959 . S
C352 H338 0.961 . S
C352 C351 1.502 . S
C353 H339 0.960 . S
C353 H340 0.961 . S
C353 H341 0.959 . S
C353 C351 1.561 . S
C354 C351 1.526 . S
C354 C355 1.396 . S
C354 C359 1.390 . S
C355 C349 1.465 . S
C355 C354 1.396 . S
C355 C356 1.399 . S
C356 H342 0.929 . S
C356 C355 1.399 . S
C356 C357 1.385 . S
C357 H343 0.931 . S
C357 C356 1.385 . S
C357 C358 1.389 . S
C358 C357 1.389 . S
C358 C359 1.387 . S
C359 H344 0.930 . S
C359 C354 1.390 . S
C359 C358 1.387 . S
H360 C372 0.930 . S
H361 C374 0.930 . S
H362 C375 0.930 . S
H363 C379 0.959 . S
H364 C379 0.959 . S
H365 C379 0.961 . S
H366 C380 0.960 . S
H367 C380 0.961 . S
H368 C380 0.959 . S
H369 C383 0.929 . S
H370 C384 0.931 . S
H371 C386 0.930 . S
C372 H360 0.930 . S
C372 C373 1.399 . S
C372 C377 1.399 . S
C373 C372 1.399 . S
C373 C374 1.376 . S
C374 H361 0.930 . S
C374 C373 1.376 . S
C374 C375 1.388 . S
C375 H362 0.930 . S
C375 C374 1.388 . S
C375 C376 1.390 . S
C376 C375 1.390 . S
C376 C377 1.394 . S
C376 C382 1.465 . S
C377 C372 1.399 . S
C377 C376 1.394 . S
C377 C378 1.516 . S
C378 C377 1.516 . S
C378 C379 1.502 . S
C378 C380 1.561 . S
C378 C381 1.526 . S
C379 H363 0.959 . S
C379 H364 0.959 . S
C379 H365 0.961 . S
C379 C378 1.502 . S
C380 H366 0.960 . S
C380 H367 0.961 . S
C380 H368 0.959 . S
C380 C378 1.561 . S
C381 C378 1.526 . S
C381 C382 1.396 . S
C381 C386 1.390 . S
C382 C376 1.465 . S
C382 C381 1.396 . S
C382 C383 1.399 . S
C383 H369 0.929 . S
C383 C382 1.399 . S
C383 C384 1.385 . S
C384 H370 0.931 . S
C384 C383 1.385 . S
C384 C385 1.389 . S
C385 C384 1.389 . S
C385 C386 1.387 . S
C386 H371 0.930 . S
C386 C381 1.390 . S
C386 C385 1.387 . S
H387 C399 0.930 . S
H388 C401 0.930 . S
H389 C402 0.930 . S
H390 C406 0.959 . S
H391 C406 0.959 . S
H392 C406 0.961 . S
H393 C407 0.960 . S
H394 C407 0.961 . S
H395 C407 0.959 . S
H396 C410 0.929 . S
H397 C411 0.931 . S
H398 C413 0.930 . S
C399 H387 0.930 . S
C399 C400 1.399 . S
C399 C404 1.399 . S
C400 C399 1.399 . S
C400 C401 1.376 . S
C401 H388 0.930 . S
C401 C400 1.376 . S
C401 C402 1.388 . S
C402 H389 0.930 . S
C402 C401 1.388 . S
C402 C403 1.390 . S
C403 C402 1.390 . S
C403 C404 1.394 . S
C403 C409 1.465 . S
C404 C399 1.399 . S
C404 C403 1.394 . S
C404 C405 1.516 . S
C405 C404 1.516 . S
C405 C406 1.502 . S
C405 C407 1.561 . S
C405 C408 1.526 . S
C406 H390 0.959 . S
C406 H391 0.959 . S
C406 H392 0.961 . S
C406 C405 1.502 . S
C407 H393 0.960 . S
C407 H394 0.961 . S
C407 H395 0.959 . S
C407 C405 1.561 . S
C408 C405 1.526 . S
C408 C409 1.396 . S
C408 C413 1.390 . S
C409 C403 1.465 . S
C409 C408 1.396 . S
C409 C410 1.399 . S
C410 H396 0.929 . S
C410 C409 1.399 . S
C410 C411 1.385 . S
C411 H397 0.931 . S
C411 C410 1.385 . S
C411 C412 1.389 . S
C412 C411 1.389 . S
C412 C413 1.387 . S
C413 H398 0.930 . S
C413 C408 1.390 . S
C413 C412 1.387 . S
H414 C426 0.930 . S
H415 C428 0.930 . S
H416 C429 0.930 . S
H417 C433 0.959 . S
H418 C433 0.959 . S
H419 C433 0.961 . S
H420 C434 0.960 . S
H421 C434 0.961 . S
H422 C434 0.959 . S
H423 C437 0.929 . S
H424 C438 0.931 . S
H425 C440 0.930 . S
C426 H414 0.930 . S
C426 C427 1.399 . S
C426 C431 1.399 . S
C427 C426 1.399 . S
C427 C428 1.376 . S
C428 H415 0.930 . S
C428 C427 1.376 . S
C428 C429 1.388 . S
C429 H416 0.930 . S
C429 C428 1.388 . S
C429 C430 1.390 . S
C430 C429 1.390 . S
C430 C431 1.394 . S
C430 C436 1.465 . S
C431 C426 1.399 . S
C431 C430 1.394 . S
C431 C432 1.516 . S
C432 C431 1.516 . S
C432 C433 1.502 . S
C432 C434 1.561 . S
C432 C435 1.526 . S
C433 H417 0.959 . S
C433 H418 0.959 . S
C433 H419 0.961 . S
C433 C432 1.502 . S
C434 H420 0.960 . S
C434 H421 0.961 . S
C434 H422 0.959 . S
C434 C432 1.561 . S
C435 C432 1.526 . S
C435 C436 1.396 . S
C435 C440 1.390 . S
C436 C430 1.465 . S
C436 C435 1.396 . S
C436 C437 1.399 . S
C437 H423 0.929 . S
C437 C436 1.399 . S
C437 C438 1.385 . S
C438 H424 0.931 . S
C438 C437 1.385 . S
C438 C439 1.389 . S
C439 C438 1.389 . S
C439 C440 1.387 . S
C440 H425 0.930 . S
C440 C435 1.390 . S
C440 C439 1.387 . S
H441 C453 0.930 . S
H442 C455 0.930 . S
H443 C456 0.930 . S
H444 C460 0.959 . S
H445 C460 0.959 . S
H446 C460 0.961 . S
H447 C461 0.960 . S
H448 C461 0.961 . S
H449 C461 0.959 . S
H450 C464 0.929 . S
H451 C465 0.931 . S
H452 C467 0.930 . S
C453 H441 0.930 . S
C453 C454 1.399 . S
C453 C458 1.399 . S
C454 C453 1.399 . S
C454 C455 1.376 . S
C455 H442 0.930 . S
C455 C454 1.376 . S
C455 C456 1.388 . S
C456 H443 0.930 . S
C456 C455 1.388 . S
C456 C457 1.390 . S
C457 C456 1.390 . S
C457 C458 1.394 . S
C457 C463 1.465 . S
C458 C453 1.399 . S
C458 C457 1.394 . S
C458 C459 1.516 . S
C459 C458 1.516 . S
C459 C460 1.502 . S
C459 C461 1.561 . S
C459 C462 1.526 . S
C460 H444 0.959 . S
C460 H445 0.959 . S
C460 H446 0.961 . S
C460 C459 1.502 . S
C461 H447 0.960 . S
C461 H448 0.961 . S
C461 H449 0.959 . S
C461 C459 1.561 . S
C462 C459 1.526 . S
C462 C463 1.396 . S
C462 C467 1.390 . S
C463 C457 1.465 . S
C463 C462 1.396 . S
C463 C464 1.399 . S
C464 H450 0.929 . S
C464 C463 1.399 . S
C464 C465 1.385 . S
C465 H451 0.931 . S
C465 C464 1.385 . S
C465 C466 1.389 . S
C466 C465 1.389 . S
C466 C467 1.387 . S
C467 H452 0.930 . S
C467 C462 1.390 . S
C467 C466 1.387 . S
H468 C480 0.930 . S
H469 C482 0.930 . S
H470 C483 0.930 . S
H471 C487 0.959 . S
H472 C487 0.959 . S
H473 C487 0.961 . S
H474 C488 0.960 . S
H475 C488 0.961 . S
H476 C488 0.959 . S
H477 C491 0.929 . S
H478 C492 0.931 . S
H479 C494 0.930 . S
C480 H468 0.930 . S
C480 C481 1.399 . S
C480 C485 1.399 . S
C481 C480 1.399 . S
C481 C482 1.376 . S
C482 H469 0.930 . S
C482 C481 1.376 . S
C482 C483 1.388 . S
C483 H470 0.930 . S
C483 C482 1.388 . S
C483 C484 1.390 . S
C484 C483 1.390 . S
C484 C485 1.394 . S
C484 C490 1.465 . S
C485 C480 1.399 . S
C485 C484 1.394 . S
C485 C486 1.516 . S
C486 C485 1.516 . S
C486 C487 1.502 . S
C486 C488 1.561 . S
C486 C489 1.526 . S
C487 H471 0.959 . S
C487 H472 0.959 . S
C487 H473 0.961 . S
C487 C486 1.502 . S
C488 H474 0.960 . S
C488 H475 0.961 . S
C488 H476 0.959 . S
C488 C486 1.561 . S
C489 C486 1.526 . S
C489 C490 1.396 . S
C489 C494 1.390 . S
C490 C484 1.465 . S
C490 C489 1.396 . S
C490 C491 1.399 . S
C491 H477 0.929 . S
C491 C490 1.399 . S
C491 C492 1.385 . S
C492 H478 0.931 . S
C492 C491 1.385 . S
C492 C493 1.389 . S
C493 C492 1.389 . S
C493 C494 1.387 . S
C494 H479 0.930 . S
C494 C489 1.390 . S
C494 C493 1.387 . S
H495 C507 0.930 . S
H496 C509 0.930 . S
H497 C510 0.930 . S
H498 C514 0.959 . S
H499 C514 0.959 . S
H500 C514 0.961 . S
H501 C515 0.960 . S
H502 C515 0.961 . S
H503 C515 0.959 . S
H504 C518 0.929 . S
H505 C519 0.931 . S
H506 C521 0.930 . S
C507 H495 0.930 . S
C507 C508 1.399 . S
C507 C512 1.399 . S
C508 C507 1.399 . S
C508 C509 1.376 . S
C509 H496 0.930 . S
C509 C508 1.376 . S
C509 C510 1.388 . S
C510 H497 0.930 . S
C510 C509 1.388 . S
C510 C511 1.390 . S
C511 C510 1.390 . S
C511 C512 1.394 . S
C511 C517 1.465 . S
C512 C507 1.399 . S
C512 C511 1.394 . S
C512 C513 1.516 . S
C513 C512 1.516 . S
C513 C514 1.502 . S
C513 C515 1.561 . S
C513 C516 1.526 . S
C514 H498 0.959 . S
C514 H499 0.959 . S
C514 H500 0.961 . S
C514 C513 1.502 . S
C515 H501 0.960 . S
C515 H502 0.961 . S
C515 H503 0.959 . S
C515 C513 1.561 . S
C516 C513 1.526 . S
C516 C517 1.396 . S
C516 C521 1.390 . S
C517 C511 1.465 . S
C517 C516 1.396 . S
C517 C518 1.399 . S
C518 H504 0.929 . S
C518 C517 1.399 . S
C518 C519 1.385 . S
C519 H505 0.931 . S
C519 C518 1.385 . S
C519 C520 1.389 . S
C520 C519 1.389 . S
C520 C521 1.387 . S
C521 H506 0.930 . S
C521 C516 1.390 . S
C521 C520 1.387 . S
H522 C534 0.930 . S
H523 C536 0.930 . S
H524 C537 0.930 . S
H525 C541 0.959 . S
H526 C541 0.959 1_556 S
H527 C541 0.961 . S
H528 C542 0.960 . S
H529 C542 0.961 . S
H530 C542 0.959 . S
H531 C545 0.929 . S
H532 C546 0.931 . S
H533 C548 0.930 . S
C534 H522 0.930 . S
C534 C535 1.399 . S
C534 C539 1.399 . S
C535 C534 1.399 . S
C535 C536 1.376 1_455 S
C536 H523 0.930 . S
C536 C535 1.376 1_655 S
C536 C537 1.388 . S
C537 H524 0.930 . S
C537 C536 1.388 . S
C537 C538 1.390 . S
C538 C537 1.390 . S
C538 C539 1.394 1_655 S
C538 C544 1.465 . S
C539 C534 1.399 . S
C539 C538 1.394 1_455 S
C539 C540 1.516 . S
C540 C539 1.516 . S
C540 C541 1.502 . S
C540 C542 1.561 . S
C540 C543 1.526 1_554 S
C541 H525 0.959 . S
C541 H526 0.959 1_554 S
C541 H527 0.961 . S
C541 C540 1.502 . S
C542 H528 0.960 . S
C542 H529 0.961 . S
C542 H530 0.959 . S
C542 C540 1.561 . S
C543 C540 1.526 1_556 S
C543 C544 1.396 1_456 S
C543 C548 1.390 . S
C544 C538 1.465 . S
C544 C543 1.396 1_654 S
C544 C545 1.399 1_554 S
C545 H531 0.929 . S
C545 C544 1.399 1_556 S
C545 C546 1.385 . S
C546 H532 0.931 . S
C546 C545 1.385 . S
C546 C547 1.389 1_655 S
C547 C546 1.389 1_455 S
C547 C548 1.387 . S
C548 H533 0.930 . S
C548 C543 1.390 . S
C548 C547 1.387 . S
H549 C561 0.930 . S
H550 C563 0.930 . S
H551 C564 0.930 . S
H552 C568 0.959 . S
H553 C568 0.959 . S
H554 C568 0.961 . S
H555 C569 0.960 . S
H556 C569 0.961 . S
H557 C569 0.959 . S
H558 C572 0.929 . S
H559 C573 0.931 . S
H560 C575 0.930 . S
C561 H549 0.930 . S
C561 C562 1.399 . S
C561 C566 1.399 . S
C562 C561 1.399 . S
C562 C563 1.376 1_545 S
C563 H550 0.930 . S
C563 C562 1.376 1_565 S
C563 C564 1.388 . S
C564 H551 0.930 . S
C564 C563 1.388 . S
C564 C565 1.390 1_565 S
C565 C564 1.390 1_545 S
C565 C566 1.394 . S
C565 C571 1.465 . S
C566 C561 1.399 . S
C566 C565 1.394 . S
C566 C567 1.516 . S
C567 C566 1.516 . S
C567 C568 1.502 . S
C567 C569 1.561 . S
C567 C570 1.526 . S
C568 H552 0.959 . S
C568 H553 0.959 . S
C568 H554 0.961 . S
C568 C567 1.502 . S
C569 H555 0.960 . S
C569 H556 0.961 . S
C569 H557 0.959 . S
C569 C567 1.561 . S
C570 C567 1.526 . S
C570 C571 1.396 . S
C570 C575 1.390 . S
C571 C565 1.465 . S
C571 C570 1.396 . S
C571 C572 1.399 1_545 S
C572 H558 0.929 . S
C572 C571 1.399 1_565 S
C572 C573 1.385 . S
C573 H559 0.931 . S
C573 C572 1.385 . S
C573 C574 1.389 1_565 S
C574 C573 1.389 1_545 S
C574 C575 1.387 . S
C575 H560 0.930 . S
C575 C570 1.390 . S
C575 C574 1.387 . S
H576 C588 0.930 . S
H577 C590 0.930 . S
H578 C591 0.930 . S
H579 C595 0.959 . S
H580 C595 0.959 . S
H581 C595 0.961 . S
H582 C596 0.960 . S
H583 C596 0.961 . S
H584 C596 0.959 . S
H585 C599 0.929 . S
H586 C600 0.931 . S
H587 C602 0.930 . S
C588 H576 0.930 . S
C588 C589 1.399 . S
C588 C593 1.399 . S
C589 C588 1.399 . S
C589 C590 1.376 . S
C590 H577 0.930 . S
C590 C589 1.376 . S
C590 C591 1.388 . S
C591 H578 0.930 . S
C591 C590 1.388 . S
C591 C592 1.390 . S
C592 C591 1.390 . S
C592 C593 1.394 . S
C592 C598 1.465 . S
C593 C588 1.399 . S
C593 C592 1.394 . S
C593 C594 1.516 . S
C594 C593 1.516 . S
C594 C595 1.502 . S
C594 C596 1.561 . S
C594 C597 1.526 . S
C595 H579 0.959 . S
C595 H580 0.959 . S
C595 H581 0.961 . S
C595 C594 1.502 . S
C596 H582 0.960 . S
C596 H583 0.961 . S
C596 H584 0.959 . S
C596 C594 1.561 . S
C597 C594 1.526 . S
C597 C598 1.396 . S
C597 C602 1.390 . S
C598 C592 1.465 . S
C598 C597 1.396 . S
C598 C599 1.399 . S
C599 H585 0.929 . S
C599 C598 1.399 . S
C599 C600 1.385 . S
C600 H586 0.931 . S
C600 C599 1.385 . S
C600 C601 1.389 . S
C601 C600 1.389 . S
C601 C602 1.387 . S
C602 H587 0.930 . S
C602 C597 1.390 . S
C602 C601 1.387 . S
H603 C615 0.930 . S
H604 C617 0.931 . S
H605 C618 0.930 . S
H606 C622 0.959 . S
H607 C622 0.959 . S
H608 C622 0.961 . S
H609 C623 0.960 . S
H610 C623 0.961 . S
H611 C623 0.959 . S
H612 C626 0.929 . S
H613 C627 0.931 . S
H614 C629 0.930 . S
C615 H603 0.930 . S
C615 C616 1.399 . S
C615 C620 1.399 . S
C616 C615 1.399 . S
C616 C617 1.377 1_545 S
C617 H604 0.931 . S
C617 C616 1.377 1_565 S
C617 C618 1.387 . S
C618 H605 0.930 . S
C618 C617 1.387 . S
C618 C619 1.390 1_565 S
C619 C618 1.390 1_545 S
C619 C620 1.394 . S
C619 C625 1.465 . S
C620 C615 1.399 . S
C620 C619 1.394 . S
C620 C621 1.516 . S
C621 C620 1.516 . S
C621 C622 1.502 . S
C621 C623 1.561 . S
C621 C624 1.526 . S
C622 H606 0.959 . S
C622 H607 0.959 . S
C622 H608 0.961 . S
C622 C621 1.502 . S
C623 H609 0.960 . S
C623 H610 0.961 . S
C623 H611 0.959 . S
C623 C621 1.561 . S
C624 C621 1.526 . S
C624 C625 1.396 . S
C624 C629 1.390 . S
C625 C619 1.465 . S
C625 C624 1.396 . S
C625 C626 1.399 1_545 S
C626 H612 0.929 . S
C626 C625 1.399 1_565 S
C626 C627 1.385 . S
C627 H613 0.931 . S
C627 C626 1.385 . S
C627 C628 1.389 1_565 S
C628 C627 1.389 1_545 S
C628 C629 1.387 . S
C629 H614 0.930 . S
C629 C624 1.390 . S
C629 C628 1.387 . S
H630 C642 0.930 . S
H631 C644 0.930 . S
H632 C645 0.930 . S
H633 C649 0.964 . S
H634 C649 0.978 . S
H635 C649 0.940 1_556 S
H636 C650 0.960 . S
H637 C650 0.961 1_554 S
H638 C650 0.959 . S
H639 C653 0.929 . S
H640 C654 0.931 . S
H641 C656 0.930 . S
C642 H630 0.930 . S
C642 C643 1.399 . S
C642 C647 1.399 . S
C643 C642 1.399 . S
C643 C644 1.376 . S
C644 H631 0.930 . S
C644 C643 1.376 . S
C644 C645 1.388 . S
C645 H632 0.930 . S
C645 C644 1.388 . S
C645 C646 1.390 . S
C646 C645 1.390 . S
C646 C647 1.394 . S
C646 C652 1.465 1_556 S
C647 C642 1.399 . S
C647 C646 1.394 . S
C647 C648 1.516 . S
C648 C647 1.516 . S
C648 C649 1.501 1_556 S
C648 C650 1.561 . S
C648 C651 1.526 1_556 S
C649 H633 0.964 . S
C649 H634 0.978 . S
C649 H635 0.940 1_554 S
C649 C648 1.501 1_554 S
C650 H636 0.960 . S
C650 H637 0.961 1_556 S
C650 H638 0.959 . S
C650 C648 1.561 . S
C651 C648 1.526 1_554 S
C651 C652 1.396 . S
C651 C656 1.390 . S
C652 C646 1.465 1_554 S
C652 C651 1.396 . S
C652 C653 1.399 . S
C653 H639 0.929 . S
C653 C652 1.399 . S
C653 C654 1.385 . S
C654 H640 0.931 . S
C654 C653 1.385 . S
C654 C655 1.389 . S
C655 C654 1.389 . S
C655 C656 1.387 . S
C656 H641 0.930 . S
C656 C651 1.390 . S
C656 C655 1.387 . S
H657 C669 0.930 1_655 S
H658 C671 0.930 . S
H659 C672 0.930 . S
H660 C676 0.959 1_455 S
H661 C676 0.959 . S
H662 C676 0.961 . S
H663 C677 0.960 . S
H664 C677 0.961 . S
H665 C677 0.959 . S
H666 C680 0.929 . S
H667 C681 0.931 . S
H668 C683 0.930 . S
C669 H657 0.930 1_455 S
C669 C670 1.399 . S
C669 C674 1.399 . S
C670 C669 1.399 . S
C670 C671 1.376 . S
C671 H658 0.930 . S
C671 C670 1.376 . S
C671 C672 1.388 . S
C672 H659 0.930 . S
C672 C671 1.388 . S
C672 C673 1.390 . S
C673 C672 1.390 . S
C673 C674 1.394 . S
C673 C679 1.465 . S
C674 C669 1.399 . S
C674 C673 1.394 . S
C674 C675 1.516 . S
C675 C674 1.516 . S
C675 C676 1.502 1_455 S
C675 C677 1.561 1_455 S
C675 C678 1.526 . S
C676 H660 0.959 1_655 S
C676 H661 0.959 . S
C676 H662 0.961 . S
C676 C675 1.502 1_655 S
C677 H663 0.960 . S
C677 H664 0.961 . S
C677 H665 0.959 . S
C677 C675 1.561 1_655 S
C678 C675 1.526 . S
C678 C679 1.396 . S
C678 C683 1.390 . S
C679 C673 1.465 . S
C679 C678 1.396 . S
C679 C680 1.399 . S
C680 H666 0.929 . S
C680 C679 1.399 . S
C680 C681 1.385 . S
C681 H667 0.931 . S
C681 C680 1.385 . S
C681 C682 1.389 . S
C682 C681 1.389 . S
C682 C683 1.387 . S
C683 H668 0.930 . S
C683 C678 1.390 . S
C683 C682 1.387 . S
C211 C19 2.709 . S
C223 N187 2.673 . S
C238 C49 2.949 . S
C250 N160 2.951 1_655 S
C265 C99 2.881 . S
C277 N173 2.897 1_565 S
C292 C9 3.301 . S
C304 N186 3.313 . S
C331 N161 3.035 . S
C319 C59 3.023 . S
C358 N174 3.076 . S
C346 C89 3.118 . S
C373 C55 0.160 . S
C385 N134 0.311 . S
C400 C85 0.331 . S
C412 N148 0.270 . S
C427 C15 0.559 . S
C439 N122 0.470 . S
C466 N135 0.411 . S
C454 C45 0.637 . S
C493 N147 0.696 . S
C481 C95 0.687 . S
C508 C5 0.275 . S
C520 N121 0.472 . S
C547 N151 1.159 . S
C535 C18 1.206 . S
C562 C58 1.237 . S
C574 N125 1.241 . S
C589 C98 1.126 . S
C601 N138 1.158 . S
C628 N177 1.821 . S
C616 C48 1.657 . S
C655 N190 1.738 . S
C643 C88 1.648 . S
C670 C8 1.669 . S
C682 N164 1.716 . S
