# Generated by pormake.
# Topology anh, (6,3)-cn, num edge types: 1
# Building blocks:
#     Node 0, Type 0, BuildingBlock: BETFAJ_clean_sbu_0, # of connection points: 6
#     Node 1, Type 0, BuildingBlock: BETFAJ_clean_sbu_0, # of connection points: 6
#     Node 2, Type 0, BuildingBlock: BETFAJ_clean_sbu_0, # of connection points: 6
#     Node 3, Type 1, BuildingBlock: ESEHIV_clean_linker_0, # of connection points: 3
#     Node 4, Type 1, BuildingBlock: ESEHIV_clean_linker_0, # of connection points: 3
#     Node 5, Type 1, BuildingBlock: ESEHIV_clean_linker_0, # of connection points: 3
#     Node 6, Type 1, BuildingBlock: ESEHIV_clean_linker_0, # of connection points: 3
#     Node 7, Type 1, BuildingBlock: ESEHIV_clean_linker_0, # of connection points: 3
#     Node 8, Type 1, BuildingBlock: ESEHIV_clean_linker_0, # of connection points: 3
#     Edge 9, Type (0, 1), BuildingBlock: TEMPAE_clean_linker_10, # of connection points: 2
#     Edge 10, Type (0, 1), BuildingBlock: TEMPAE_clean_linker_10, # of connection points: 2
#     Edge 11, Type (0, 1), BuildingBlock: TEMPAE_clean_linker_10, # of connection points: 2
#     Edge 12, Type (0, 1), BuildingBlock: TEMPAE_clean_linker_10, # of connection points: 2
#     Edge 13, Type (0, 1), BuildingBlock: TEMPAE_clean_linker_10, # of connection points: 2
#     Edge 14, Type (0, 1), BuildingBlock: TEMPAE_clean_linker_10, # of connection points: 2
#     Edge 15, Type (0, 1), BuildingBlock: TEMPAE_clean_linker_10, # of connection points: 2
#     Edge 16, Type (0, 1), BuildingBlock: TEMPAE_clean_linker_10, # of connection points: 2
#     Edge 17, Type (0, 1), BuildingBlock: TEMPAE_clean_linker_10, # of connection points: 2
#     Edge 18, Type (0, 1), BuildingBlock: TEMPAE_clean_linker_10, # of connection points: 2
#     Edge 19, Type (0, 1), BuildingBlock: TEMPAE_clean_linker_10, # of connection points: 2
#     Edge 20, Type (0, 1), BuildingBlock: TEMPAE_clean_linker_10, # of connection points: 2
#     Edge 21, Type (0, 1), BuildingBlock: TEMPAE_clean_linker_10, # of connection points: 2
#     Edge 22, Type (0, 1), BuildingBlock: TEMPAE_clean_linker_10, # of connection points: 2
#     Edge 23, Type (0, 1), BuildingBlock: TEMPAE_clean_linker_10, # of connection points: 2
#     Edge 24, Type (0, 1), BuildingBlock: TEMPAE_clean_linker_10, # of connection points: 2
#     Edge 25, Type (0, 1), BuildingBlock: TEMPAE_clean_linker_10, # of connection points: 2
#     Edge 26, Type (0, 1), BuildingBlock: TEMPAE_clean_linker_10, # of connection points: 2
# Relax obj value: 0.215
# Max RMSD: 0.225
# Mean RMSD: 0.165
data_MOF--net-anh--node1-BETFAJ_clean_sbu_0--node2-ESEHIV_clean_linker_0--edge1-TEMPAE_clean_linker_10
_symmetry_space_group_name_H-M    P1
_symmetry_Int_Tables_number       1
_symmetry_cell_setting            triclinic
loop_
_symmetry_equiv_pos_as_xyz
'x, y, z'
_cell_length_a     29.449396
_cell_length_b     35.486537
_cell_length_c     52.996798
_cell_angle_alpha  92.304376
_cell_angle_beta   89.487948
_cell_angle_gamma 130.26612
loop_
_atom_site_label
_atom_site_type_symbol
_atom_site_fract_x
_atom_site_fract_y
_atom_site_fract_z
_atom_type_partial_charge
Sm0 Sm 0.11485 0.52181 0.13352 0.0
Sm1 Sm 1.04751 0.55268 0.15644 0.0
C2 C 0.17778 0.5092 0.10461 0.0
C3 C 0.23516 0.52029 0.105 0.0
C4 C 0.27022 0.53868 0.08349 0.0
C5 C 0.3189 0.54052 0.0816 0.0
C6 C 0.33242 0.52309 0.10106 0.0
C7 C 0.3003 0.50887 0.1235 0.0
C8 C 0.25223 0.50774 0.12551 0.0
C9 C 0.11578 0.52505 0.18534 0.0
C10 C 0.18628 0.64198 0.14613 0.0
C11 C 0.97954 0.56079 0.18497 0.0
C12 C 0.91891 0.52329 0.19415 0.0
C13 C 0.88037 0.5334 0.1967 0.0
C14 C 0.81903 0.49451 0.19837 0.0
C15 C 0.79514 0.44481 0.19588 0.0
C16 C 0.83524 0.43583 0.19675 0.0
C17 C 0.89641 0.47481 0.1964 0.0
C18 C 1.05039 0.54915 0.10418 0.0
C19 C 0.9786 0.43363 0.14626 0.0
O20 O 0.17863 0.54624 0.10233 0.0
O21 O 0.13823 0.47675 0.12042 0.0
O22 O 0.12083 0.55558 0.17158 0.0
O23 O 0.11614 0.49388 0.17191 0.0
O24 O 0.18488 0.60844 0.13308 0.0
O25 O 0.14003 0.62911 0.15914 0.0
O26 O 1.02008 0.56016 0.19419 0.0
O27 O 0.98311 0.56545 0.1605 0.0
O28 O 1.04167 0.51803 0.11868 0.0
O29 O 1.05519 0.5836 0.11709 0.0
O30 O 0.98419 0.46748 0.16098 0.0
O31 O 1.01955 0.44696 0.12955 0.0
H32 H 0.2581 0.54912 0.0676 0.0
H33 H 0.34376 0.55282 0.06432 0.0
H34 H 0.30923 0.49501 0.13882 0.0
H35 H 0.22633 0.49412 0.14252 0.0
H36 H 0.89715 0.57093 0.1958 0.0
H37 H 0.79049 0.50371 0.19958 0.0
H38 H 0.82021 0.39887 0.19529 0.0
H39 H 0.92594 0.4667 0.19584 0.0
Sm40 Sm 0.64383 0.03932 0.4716 0.0
Sm41 Sm 0.56276 0.06667 0.45905 0.0
C42 C 0.69253 0.01272 0.49908 0.0
C43 C 0.68508 0.96827 0.50322 0.0
C44 C 0.68495 0.95613 0.52807 0.0
C45 C 0.67505 0.91297 0.53281 0.0
C46 C 0.66529 0.88117 0.51276 0.0
C47 C 0.66611 0.89364 0.48781 0.0
C48 C 0.67555 0.93675 0.48306 0.0
C49 C 0.62217 0.02939 0.42003 0.0
C50 C 0.5 0.95082 0.45837 0.0
C51 C 0.5164 0.10548 0.44368 0.0
C52 C 0.52347 0.14814 0.45402 0.0
C53 C 0.5203 0.17709 0.43815 0.0
C54 C 0.52945 0.21879 0.44809 0.0
C55 C 0.54147 0.23176 0.47407 0.0
C56 C 0.54487 0.20272 0.48982 0.0
C57 C 0.53635 0.16154 0.47987 0.0
C58 C 0.575 0.0563 0.50897 0.0
C59 C 0.71109 0.15629 0.46415 0.0
O60 O 0.64902 0.0111 0.50698 0.0
O61 O 0.71398 0.03392 0.47742 0.0
O62 O 0.60391 0.04202 0.43704 0.0
O63 O 0.65327 0.01958 0.43034 0.0
O64 O 0.54657 0.96463 0.47202 0.0
O65 O 0.50001 0.9836 0.44716 0.0
O66 O 0.56403 0.11589 0.43375 0.0
O67 O 0.48807 0.06729 0.45797 0.0
O68 O 0.61575 0.07728 0.49305 0.0
O69 O 0.52559 0.04181 0.49908 0.0
O70 O 0.65808 0.14348 0.46047 0.0
O71 O 0.71782 0.12377 0.46903 0.0
H72 H 0.692 0.97989 0.54386 0.0
H73 H 0.67542 0.90462 0.55221 0.0
H74 H 0.65832 0.8696 0.47203 0.0
H75 H 0.67477 0.9451 0.46372 0.0
H76 H 0.5111 0.16761 0.4181 0.0
H77 H 0.52656 0.24058 0.43557 0.0
H78 H 0.5551 0.21235 0.50981 0.0
H79 H 0.54023 0.1403 0.49239 0.0
Sm80 Sm 0.64994 0.59458 0.84072 0.0
Sm81 Sm 0.56396 0.48544 0.84587 0.0
C82 C 0.70685 0.68631 0.82683 0.0
C83 C 0.69287 0.71762 0.81965 0.0
C84 C 0.63391 0.69758 0.81539 0.0
C85 C 0.62156 0.72776 0.80814 0.0
C86 C 0.66805 0.7786 0.80492 0.0
C87 C 0.72706 0.79837 0.80932 0.0
C88 C 0.73926 0.76819 0.81663 0.0
C89 C 0.64269 0.56472 0.88863 0.0
C90 C 0.50305 0.5372 0.84898 0.0
C91 C 0.51103 0.39245 0.85511 0.0
C92 C 0.51977 0.35806 0.84506 0.0
C93 C 0.51653 0.32586 0.86107 0.0
C94 C 0.5264 0.29419 0.8517 0.0
C95 C 0.53903 0.29379 0.82606 0.0
C96 C 0.54243 0.32624 0.81012 0.0
C97 C 0.53334 0.35825 0.81954 0.0
C98 C 0.5787 0.51465 0.79701 0.0
C99 C 0.71251 0.54376 0.84179 0.0
O100 O 0.689 0.6496 0.81098 0.0
O101 O 0.6988 0.67417 0.85042 0.0
O102 O 0.59907 0.54752 0.87396 0.0
O103 O 0.69234 0.60121 0.87864 0.0
O104 O 0.5552 0.57502 0.83947 0.0
O105 O 0.49718 0.49894 0.85668 0.0
O106 O 0.55428 0.42992 0.86938 0.0
O107 O 0.4896 0.40497 0.83919 0.0
O108 O 0.61979 0.53232 0.8131 0.0
O109 O 0.52749 0.47926 0.80616 0.0
O110 O 0.65761 0.50351 0.84752 0.0
O111 O 0.72125 0.58415 0.83582 0.0
H112 H 0.59748 0.6586 0.81755 0.0
H113 H 0.57557 0.71128 0.80521 0.0
H114 H 0.76407 0.83708 0.80663 0.0
H115 H 0.78509 0.78431 0.8197 0.0
H116 H 0.50636 0.32522 0.88081 0.0
H117 H 0.52328 0.26949 0.86442 0.0
H118 H 0.55296 0.32737 0.79039 0.0
H119 H 0.53715 0.3833 0.80684 0.0
H120 H 0.5267 0.95995 0.22626 0.0
H121 H 0.67347 0.1163 0.22762 0.0
H122 H 0.59761 0.03442 0.15643 0.0
C123 C 0.55811 0.99367 0.21637 0.0
C124 C 0.55632 0.99146 0.18978 0.0
C125 C 0.59985 0.03826 0.23035 0.0
C126 C 0.64124 0.08141 0.21719 0.0
C127 C 0.64147 0.08056 0.19062 0.0
C128 C 0.5978 0.03551 0.17689 0.0
H129 H 0.62197 0.61594 0.60912 0.0
H130 H 0.61589 0.49144 0.60057 0.0
H131 H 0.61944 0.56077 0.53512 0.0
C132 C 0.62212 0.59035 0.59736 0.0
C133 C 0.62312 0.59369 0.571 0.0
C134 C 0.61942 0.5536 0.60847 0.0
C135 C 0.61733 0.51976 0.59252 0.0
C136 C 0.61588 0.52138 0.5661 0.0
C137 C 0.61897 0.55857 0.55548 0.0
H138 H 1.0271 0.53822 0.90997 0.0
H139 H 0.16965 0.5358 0.91457 0.0
H140 H 0.11682 0.55006 0.84172 0.0
C141 C 1.06045 0.53929 0.90028 0.0
C142 C 1.06525 0.54446 0.87399 0.0
C143 C 0.09815 0.53717 0.91482 0.0
C144 C 0.1421 0.53873 0.90291 0.0
C145 C 0.15122 0.54346 0.87658 0.0
C146 C 0.11106 0.54565 0.86187 0.0
H147 H 1.03093 0.46572 0.37863 0.0
H148 H 0.18745 0.61797 0.37893 0.0
H149 H 0.10381 0.55135 0.44934 0.0
C150 C 1.0633 0.50046 0.38913 0.0
C151 C 1.0595 0.50314 0.41559 0.0
C152 C 0.1088 0.54155 0.37585 0.0
C153 C 0.15297 0.58586 0.38929 0.0
C154 C 0.15282 0.58992 0.4158 0.0
C155 C 0.10516 0.54841 0.42897 0.0
H156 H 0.60633 0.10397 0.70562 0.0
H157 H 0.6072 0.98314 0.69744 0.0
H158 H 0.60879 0.03852 0.77135 0.0
C159 C 0.60654 0.07658 0.71374 0.0
C160 C 0.60561 0.07404 0.74017 0.0
C161 C 0.60679 0.04389 0.69785 0.0
C162 C 0.60857 0.00957 0.70915 0.0
C163 C 0.61054 1.00789 0.7356 0.0
C164 C 0.60768 0.03959 0.75097 0.0
H165 H 0.52447 0.39722 0.02392 0.0
H166 H 0.58552 0.31696 0.03415 0.0
H167 H 0.4967 0.33157 0.09427 0.0
C168 C 0.52666 0.37364 0.03532 0.0
C169 C 0.50631 0.36513 0.05994 0.0
C170 C 0.55618 0.3573 0.02615 0.0
C171 C 0.56086 0.32808 0.04109 0.0
C172 C 0.53744 0.31671 0.06571 0.0
C173 C 0.50999 0.33555 0.07477 0.0
C174 C 0.36824 0.48934 0.07324 0.0
C175 C 0.37229 0.51178 0.09648 0.0
C176 C 0.39688 0.47003 0.06968 0.0
C177 C 0.43001 0.47282 0.08993 0.0
C178 C 0.43705 0.49767 0.11303 0.0
C179 C 0.40812 0.51703 0.11603 0.0
C180 C 0.38905 0.44436 0.0446 0.0
C181 C 0.47267 0.50174 0.13491 0.0
C182 C 0.43627 0.36992 0.08362 0.0
C183 C 0.48984 0.39354 0.07102 0.0
C184 C 0.41797 0.39634 0.09161 0.0
C185 C 0.45444 0.44734 0.08691 0.0
C186 C 0.5106 0.47199 0.0759 0.0
C187 C 0.52763 0.44471 0.06808 0.0
C188 C 0.35795 0.36903 0.10354 0.0
C189 C 0.55093 0.52638 0.07082 0.0
H190 H 0.33986 0.48425 0.05817 0.0
H191 H 0.41199 0.53488 0.13393 0.0
H192 H 0.43302 0.45985 0.03698 0.0
H193 H 0.36386 0.40446 0.04725 0.0
H194 H 0.36479 0.448 0.03035 0.0
H195 H 0.48018 0.52756 0.15029 0.0
H196 H 0.44853 0.46476 0.14272 0.0
H197 H 0.51643 0.51446 0.12855 0.0
H198 H 0.40753 0.33046 0.08612 0.0
H199 H 0.56997 0.46319 0.05894 0.0
H200 H 0.32689 0.366 0.09013 0.0
H201 H 0.36159 0.3897 0.12078 0.0
H202 H 0.33842 0.3312 0.10863 0.0
H203 H 0.53201 0.53208 0.05489 0.0
H204 H 0.59646 0.54135 0.06581 0.0
H205 H 0.55417 0.54793 0.08752 0.0
C206 C 0.8157 0.22226 0.45001 0.0
C207 C 0.765 0.20929 0.46206 0.0
C208 C 0.86462 0.27199 0.44543 0.0
C209 C 0.86409 0.31015 0.45396 0.0
C210 C 0.81426 0.2973 0.46744 0.0
C211 C 0.76489 0.2471 0.47081 0.0
C212 C 0.91549 0.28339 0.43022 0.0
C213 C 0.81238 0.3365 0.4778 0.0
C214 C 1.01407 0.44227 0.45093 0.0
C215 C 1.00755 0.45746 0.42815 0.0
C216 C 0.9669 0.39548 0.46033 0.0
C217 C 0.91241 0.36243 0.44632 0.0
C218 C 0.90487 0.37856 0.42397 0.0
C219 C 0.95159 0.42594 0.41562 0.0
C220 C 0.97609 0.38084 0.48485 0.0
C221 C 0.84834 0.34482 0.40804 0.0
H222 H 0.81589 0.19323 0.44301 0.0
H223 H 0.72606 0.23739 0.48033 0.0
H224 H 0.91828 0.29982 0.41228 0.0
H225 H 0.95828 0.31098 0.44069 0.0
H226 H 0.91025 0.24991 0.42566 0.0
H227 H 0.77552 0.32141 0.49119 0.0
H228 H 0.85512 0.36705 0.48761 0.0
H229 H 0.80606 0.35252 0.46208 0.0
H230 H 1.05664 0.46604 0.46095 0.0
H231 H 0.9448 0.43765 0.39853 0.0
H232 H 0.98077 0.35256 0.48095 0.0
H233 H 0.93694 0.36415 0.49704 0.0
H234 H 1.01658 0.41287 0.49538 0.0
H235 H 0.84081 0.31084 0.40194 0.0
H236 H 0.84977 0.36268 0.39096 0.0
H237 H 0.80954 0.33321 0.41927 0.0
C238 C 0.68842 0.85943 0.8066 0.0
C239 C 0.65545 0.81083 0.7965 0.0
C240 C 0.67939 0.89109 0.79787 0.0
C241 C 0.6361 0.87384 0.77861 0.0
C242 C 0.60155 0.82446 0.7688 0.0
C243 C 0.61169 0.79364 0.7778 0.0
C244 C 0.71713 0.9434 0.80889 0.0
C245 C 0.5549 0.80455 0.74827 0.0
C246 C 0.58316 0.94588 0.76771 0.0
C247 C 0.61684 0.97358 0.74693 0.0
C248 C 0.58876 0.91319 0.77821 0.0
C249 C 0.62924 0.90823 0.76778 0.0
C250 C 0.6636 0.93634 0.74692 0.0
C251 C 0.65697 0.96855 0.73677 0.0
C252 C 0.55112 0.88372 0.80037 0.0
C253 C 0.70761 0.93254 0.73531 0.0
H254 H 0.72158 0.87286 0.82136 0.0
H255 H 0.58638 0.75643 0.76964 0.0
H256 H 0.74472 0.96981 0.79393 0.0
H257 H 0.68833 0.95114 0.81617 0.0
H258 H 0.7471 0.95052 0.82449 0.0
H259 H 0.52921 0.76451 0.74379 0.0
H260 H 0.52344 0.81036 0.75403 0.0
H261 H 0.57651 0.82493 0.73083 0.0
H262 H 0.55169 0.94919 0.77554 0.0
H263 H 0.68389 0.99037 0.72098 0.0
H264 H 0.58009 0.89177 0.81663 0.0
H265 H 0.52278 0.8436 0.79537 0.0
H266 H 0.52198 0.89194 0.80638 0.0
H267 H 0.7414 0.94276 0.74974 0.0
H268 H 0.73088 0.95686 0.71914 0.0
H269 H 0.6844 0.89383 0.72863 0.0
C270 C 0.70524 0.35406 0.18793 0.0
C271 C 0.73216 0.40429 0.18675 0.0
C272 C 0.65806 0.31788 0.1713 0.0
C273 C 0.63544 0.33195 0.15416 0.0
C274 C 0.65486 0.38037 0.1563 0.0
C275 C 0.70343 0.41598 0.17219 0.0
C276 C 0.63477 0.26551 0.17123 0.0
C277 C 0.62936 0.39655 0.13956 0.0
C278 C 0.61102 0.31277 0.08546 0.0
C279 C 0.55294 0.29605 0.08439 0.0
C280 C 0.63583 0.31478 0.10843 0.0
C281 C 0.60245 0.30185 0.13067 0.0
C282 C 0.54055 0.27483 0.12856 0.0
C283 C 0.51599 0.27126 0.10511 0.0
C284 C 0.70087 0.33914 0.10962 0.0
C285 C 0.50246 0.257 0.15159 0.0
H286 H 0.72348 0.34328 0.2005 0.0
H287 H 0.72169 0.4538 0.17105 0.0
H288 H 0.59127 0.24216 0.1807 0.0
H289 H 0.62749 0.24984 0.15169 0.0
H290 H 0.66529 0.26297 0.18154 0.0
H291 H 0.64303 0.43277 0.14618 0.0
H292 H 0.64518 0.40014 0.12001 0.0
H293 H 0.58005 0.36888 0.13895 0.0
H294 H 0.63984 0.33027 0.06946 0.0
H295 H 0.46978 0.25518 0.10398 0.0
H296 H 0.70902 0.32163 0.12367 0.0
H297 H 0.72763 0.37877 0.11551 0.0
H298 H 0.71658 0.33689 0.09093 0.0
H299 H 0.51542 0.24208 0.16503 0.0
H300 H 0.45446 0.22801 0.14649 0.0
H301 H 0.50902 0.28852 0.16137 0.0
C302 C 0.43853 0.86287 0.4718 0.0
C303 C 0.44671 0.89697 0.45544 0.0
C304 C 0.38924 0.81186 0.46892 0.0
C305 C 0.34731 0.79395 0.44888 0.0
C306 C 0.35495 0.82828 0.43251 0.0
C307 C 0.40405 0.87919 0.43611 0.0
C308 C 0.38265 0.77698 0.48709 0.0
C309 C 0.31218 0.81107 0.41063 0.0
C310 C 0.26174 0.66311 0.42051 0.0
C311 C 0.20331 0.63862 0.4285 0.0
C312 C 0.30895 0.71288 0.42763 0.0
C313 C 0.29834 0.73926 0.44367 0.0
C314 C 0.24033 0.71385 0.45327 0.0
C315 C 0.19344 0.66391 0.4455 0.0
C316 C 0.36963 0.73795 0.4168 0.0
C317 C 0.22716 0.74007 0.47085 0.0
H318 H 0.47075 0.87605 0.48697 0.0
H319 H 0.40978 0.90497 0.4233 0.0
H320 H 0.33725 0.753 0.49492 0.0
H321 H 0.38846 0.75243 0.47696 0.0
H322 H 0.41572 0.79694 0.50297 0.0
H323 H 0.32286 0.84236 0.40018 0.0
H324 H 0.31342 0.78684 0.39729 0.0
H325 H 0.26602 0.78884 0.41748 0.0
H326 H 0.27006 0.64374 0.40762 0.0
H327 H 0.14858 0.64554 0.45171 0.0
H328 H 0.40392 0.75572 0.43215 0.0
H329 H 0.38161 0.76753 0.40439 0.0
H330 H 0.37132 0.71176 0.40559 0.0
H331 H 0.26097 0.76039 0.48642 0.0
H332 H 0.1823 0.71406 0.47909 0.0
H333 H 0.2295 0.76769 0.46036 0.0
C334 C 0.58666 0.25532 0.82822 0.0
C335 C 0.54854 0.25973 0.81575 0.0
C336 C 0.59806 0.22502 0.81789 0.0
C337 C 0.57008 0.198 0.79471 0.0
C338 C 0.53051 0.2015 0.78238 0.0
C339 C 0.52052 0.23247 0.79296 0.0
C340 C 0.64106 0.22281 0.83148 0.0
C341 C 0.49915 0.17291 0.75782 0.0
C342 C 0.63696 0.15737 0.75168 0.0
C343 C 0.60093 0.10684 0.7562 0.0
C344 C 0.62896 0.18783 0.76482 0.0
C345 C 0.58337 0.16725 0.78278 0.0
C346 C 0.54816 0.1166 0.78804 0.0
C347 C 0.55758 0.08707 0.77478 0.0
C348 C 0.66807 0.24174 0.75887 0.0
C349 C 0.49883 0.09309 0.80689 0.0
H350 H 0.60883 0.27662 0.84572 0.0
H351 H 0.49045 0.23525 0.7834 0.0
H352 H 0.6194 0.18393 0.83516 0.0
H353 H 0.67975 0.23721 0.81938 0.0
H354 H 0.65759 0.24469 0.84972 0.0
H355 H 0.4679 0.17809 0.75116 0.0
H356 H 0.53238 0.18495 0.74299 0.0
H357 H 0.47387 0.13289 0.76008 0.0
H358 H 0.67102 0.17297 0.73755 0.0
H359 H 0.5293 0.04798 0.77821 0.0
H360 H 0.6881 0.26532 0.77651 0.0
H361 H 0.64081 0.24917 0.7499 0.0
H362 H 0.70441 0.25288 0.74592 0.0
H363 H 0.51598 0.11458 0.8252 0.0
H364 H 0.47831 0.05427 0.81016 0.0
H365 H 0.46369 0.09344 0.79992 0.0
C366 C 0.6148 0.80472 0.53694 0.0
C367 C 0.65447 0.83527 0.51811 0.0
C368 C 0.60724 0.76318 0.54365 0.0
C369 C 0.64049 0.75212 0.53133 0.0
C370 C 0.67914 0.78187 0.5117 0.0
C371 C 0.68552 0.82306 0.50525 0.0
C372 C 0.5651 0.73207 0.56449 0.0
C373 C 0.71551 0.77135 0.49821 0.0
C374 C 0.67141 0.68285 0.56984 0.0
C375 C 0.6289 0.6343 0.55989 0.0
C376 C 0.67651 0.72166 0.56027 0.0
C377 C 0.6379 0.71163 0.54033 0.0
C378 C 0.59555 0.66282 0.52987 0.0
C379 C 0.59167 0.62468 0.53974 0.0
C380 C 0.72261 0.77328 0.57179 0.0
C381 C 0.55343 0.65072 0.50871 0.0
H382 H 0.59002 0.81365 0.54664 0.0
H383 H 0.71645 0.84678 0.49077 0.0
H384 H 0.53336 0.69255 0.55802 0.0
H385 H 0.59061 0.73519 0.58092 0.0
H386 H 0.5394 0.74352 0.57088 0.0
H387 H 0.73988 0.79559 0.4821 0.0
H388 H 0.74834 0.77707 0.51166 0.0
H389 H 0.68644 0.73223 0.49107 0.0
H390 H 0.70086 0.6905 0.58516 0.0
H391 H 0.55851 0.58711 0.53212 0.0
H392 H 0.7003 0.78632 0.58054 0.0
H393 H 0.75181 0.79918 0.55691 0.0
H394 H 0.75084 0.77518 0.58645 0.0
H395 H 0.52409 0.65835 0.5153 0.0
H396 H 0.5251 0.61141 0.50184 0.0
H397 H 0.57877 0.67459 0.49263 0.0
C398 C 0.81976 0.57845 0.83088 0.0
C399 C 0.76524 0.54363 0.8431 0.0
C400 C 0.86877 0.57875 0.83235 0.0
C401 C 0.86613 0.54467 0.84727 0.0
C402 C 0.8111 0.50943 0.85962 0.0
C403 C 0.7621 0.50884 0.85708 0.0
C404 C 0.92386 0.61598 0.81769 0.0
C405 C 0.80441 0.47306 0.87656 0.0
C406 C 0.97877 0.51874 0.84302 0.0
C407 C 1.02196 0.55067 0.86222 0.0
C408 C 0.9301 0.51774 0.83722 0.0
C409 C 0.92137 0.54794 0.85134 0.0
C410 C 0.96569 0.58091 0.8702 0.0
C411 C 1.01478 0.58261 0.87482 0.0
C412 C 0.88676 0.48298 0.81623 0.0
C413 C 0.95977 0.6131 0.88673 0.0
H414 H 0.82414 0.60556 0.81975 0.0
H415 H 0.7213 0.48152 0.86683 0.0
H416 H 0.96074 0.6445 0.83089 0.0
H417 H 0.93826 0.59768 0.8072 0.0
H418 H 0.91663 0.63473 0.80406 0.0
H419 H 0.75755 0.44388 0.88212 0.0
H420 H 0.82032 0.45512 0.86718 0.0
H421 H 0.83223 0.49313 0.89393 0.0
H422 H 0.98142 0.49294 0.8331 0.0
H423 H 1.0466 0.60775 0.88973 0.0
H424 H 0.87721 0.50202 0.8041 0.0
H425 H 0.84409 0.45141 0.82438 0.0
H426 H 0.90382 0.46822 0.8043 0.0
H427 H 0.9595 0.63813 0.87501 0.0
H428 H 0.99641 0.63588 0.90108 0.0
H429 H 0.91676 0.58962 0.89663 0.0
C430 C 0.24819 0.72772 0.16613 0.0
C431 C 0.24222 0.6949 0.14783 0.0
C432 C 0.30149 0.77689 0.1694 0.0
C433 C 0.35043 0.79451 0.15378 0.0
C434 C 0.34417 0.76217 0.13466 0.0
C435 C 0.29043 0.71272 0.13205 0.0
C436 C 0.30606 0.80952 0.19029 0.0
C437 C 0.39469 0.77951 0.11731 0.0
C438 C 0.47221 0.93553 0.15769 0.0
C439 C 0.5105 0.94218 0.17641 0.0
C440 C 0.42179 0.88763 0.14884 0.0
C441 C 0.40911 0.8454 0.15908 0.0
C442 C 0.44995 0.85219 0.17671 0.0
C443 C 0.50011 0.90023 0.18494 0.0
C444 C 0.38027 0.88225 0.12961 0.0
C445 C 0.43864 0.80865 0.18829 0.0
H446 H 0.21158 0.71463 0.17853 0.0
H447 H 0.28639 0.68793 0.11775 0.0
H448 H 0.34081 0.82031 0.20433 0.0
H449 H 0.31965 0.84399 0.18254 0.0
H450 H 0.26341 0.79092 0.20021 0.0
H451 H 0.38094 0.75179 0.10179 0.0
H452 H 0.41209 0.81471 0.10897 0.0
H453 H 0.43183 0.78686 0.12825 0.0
H454 H 0.47976 0.96759 0.15097 0.0
H455 H 0.53006 0.90497 0.19905 0.0
H456 H 0.33893 0.86966 0.13896 0.0
H457 H 0.36738 0.85392 0.11466 0.0
H458 H 0.40061 0.91768 0.12066 0.0
H459 H 0.39887 0.78958 0.2003 0.0
H460 H 0.47695 0.81994 0.20011 0.0
H461 H 0.42919 0.78148 0.17335 0.0
C462 C 0.52236 0.27179 0.50721 0.0
C463 C 0.55097 0.27558 0.48498 0.0
C464 C 0.5335 0.31333 0.51881 0.0
C465 C 0.57466 0.35995 0.50801 0.0
C466 C 0.60286 0.36388 0.48528 0.0
C467 C 0.59043 0.32151 0.47394 0.0
C468 C 0.50198 0.30747 0.54287 0.0
C469 C 0.64731 0.41302 0.47333 0.0
C470 C 0.56594 0.4582 0.53015 0.0
C471 C 0.60912 0.48308 0.54968 0.0
C472 C 0.55545 0.41897 0.51585 0.0
C473 C 0.58929 0.4046 0.52111 0.0
C474 C 0.63452 0.43086 0.54016 0.0
C475 C 0.6437 0.46965 0.5543 0.0
C476 C 0.50655 0.39165 0.49583 0.0
C477 C 0.67199 0.417 0.54615 0.0
H478 H 0.49129 0.23617 0.51561 0.0
H479 H 0.61298 0.32458 0.45687 0.0
H480 H 0.53503 0.32949 0.55859 0.0
H481 H 0.47814 0.32178 0.5407 0.0
H482 H 0.46944 0.26832 0.54822 0.0
H483 H 0.6634 0.40946 0.45509 0.0
H484 H 0.62715 0.43015 0.47002 0.0
H485 H 0.68616 0.43864 0.48636 0.0
H486 H 0.5388 0.46823 0.52668 0.0
H487 H 0.67764 0.48927 0.56918 0.0
H488 H 0.47044 0.35323 0.50145 0.0
H489 H 0.52371 0.38933 0.47763 0.0
H490 H 0.48727 0.40964 0.49281 0.0
H491 H 0.64348 0.37954 0.55379 0.0
H492 H 0.70817 0.44338 0.56019 0.0
H493 H 0.69211 0.4157 0.52869 0.0
C494 C 0.39917 0.50404 0.86504 0.0
C495 C 0.45069 0.53805 0.85085 0.0
C496 C 0.35125 0.50516 0.86725 0.0
C497 C 0.35211 0.54055 0.85467 0.0
C498 C 0.40354 0.57441 0.83996 0.0
C499 C 0.4513 0.57304 0.83844 0.0
C500 C 0.29957 0.46846 0.88362 0.0
C501 C 0.40837 0.61265 0.8256 0.0
C502 C 0.20127 0.51761 0.84741 0.0
C503 C 0.20497 0.54768 0.86715 0.0
C504 C 0.24833 0.51579 0.8427 0.0
C505 C 0.30167 0.54396 0.85813 0.0
C506 C 0.30607 0.57526 0.87751 0.0
C507 C 0.25928 0.57704 0.88146 0.0
C508 C 0.24012 0.48241 0.82137 0.0
C509 C 0.35999 0.60613 0.89498 0.0
H510 H 0.3965 0.47656 0.87493 0.0
H511 H 0.48944 0.59966 0.82718 0.0
H512 H 0.29585 0.4884 0.89903 0.0
H513 H 0.25746 0.44626 0.8723 0.0
H514 H 0.30422 0.44298 0.89213 0.0
H515 H 0.44848 0.63437 0.81372 0.0
H516 H 0.36823 0.59444 0.8133 0.0
H517 H 0.41036 0.63851 0.83902 0.0
H518 H 0.16052 0.49388 0.83612 0.0
H519 H 0.26469 0.60097 0.89674 0.0
H520 H 0.23513 0.45139 0.82917 0.0
H521 H 0.28002 0.50295 0.80939 0.0
H522 H 0.2003 0.46689 0.80936 0.0
H523 H 0.36408 0.5817 0.90518 0.0
H524 H 0.3578 0.62888 0.9091 0.0
H525 H 0.40095 0.63106 0.88394 0.0
C526 C 0.91361 0.3435 0.13152 0.0
C527 C 0.92647 0.38003 0.14921 0.0
C528 C 0.86589 0.29279 0.13489 0.0
C529 C 0.82999 0.27798 0.15649 0.0
C530 C 0.84237 0.31474 0.17419 0.0
C531 C 0.89026 0.36495 0.17038 0.0
C532 C 0.85481 0.25498 0.11566 0.0
C533 C 0.80567 0.30095 0.19755 0.0
C534 C 0.67663 0.14966 0.16187 0.0
C535 C 0.68962 0.12729 0.17808 0.0
C536 C 0.72213 0.19801 0.15376 0.0
C537 C 0.78206 0.22425 0.16175 0.0
C538 C 0.79548 0.20045 0.17692 0.0
C539 C 0.74925 0.15263 0.18499 0.0
C540 C 0.70586 0.22168 0.13737 0.0
C541 C 0.85847 0.22645 0.18577 0.0
H542 H 0.94119 0.35447 0.1151 0.0
H543 H 0.90022 0.39232 0.18449 0.0
H544 H 0.8617 0.23126 0.12464 0.0
H545 H 0.80798 0.23048 0.10862 0.0
H546 H 0.88472 0.27237 0.09931 0.0
H547 H 0.82067 0.33379 0.20949 0.0
H548 H 0.75825 0.27951 0.19205 0.0
H549 H 0.80821 0.27698 0.20913 0.0
H550 H 0.63063 0.13036 0.15657 0.0
H551 H 0.75954 0.13543 0.19747 0.0
H552 H 0.727 0.229 0.11875 0.0
H553 H 0.72313 0.25786 0.14606 0.0
H554 H 0.65699 0.19799 0.13428 0.0
H555 H 0.88895 0.24221 0.16958 0.0
H556 H 0.86234 0.20133 0.19535 0.0
H557 H 0.87377 0.25763 0.1992 0.0
C558 C 1.06268 0.51308 0.06599 0.0
C559 C 1.05917 0.548 0.0766 0.0
C560 C 1.07133 0.51105 0.04001 0.0
C561 C 0.07562 0.54422 0.02402 0.0
C562 C 0.07222 0.57968 0.03465 0.0
C563 C 1.06444 0.58136 0.06084 0.0
C564 C 0.07554 0.47314 0.02966 0.0
C565 C 0.07606 0.61544 0.01827 0.0
C566 C 0.14363 0.56637 0.95886 0.0
C567 C 0.09279 0.53589 0.943 0.0
C568 C 0.13881 0.56897 0.98524 0.0
C569 C 0.08179 0.54075 -0.00388 0.0
C570 C 1.03039 0.50909 0.98029 0.0
C571 C 1.0365 0.50678 0.95405 0.0
C572 C 0.19477 0.60265 0.00144 0.0
C573 C 0.96874 0.47823 -0.00898 0.0
H574 H 1.05892 0.48727 0.07806 0.0
H575 H 1.06182 0.60843 0.06894 0.0
H576 H 1.03821 0.44705 0.01605 0.0
H577 H 0.11748 0.49158 0.01923 0.0
H578 H 0.0742 0.45163 0.04476 0.0
H579 H 0.07344 0.64115 0.02941 0.0
H580 H 0.11846 0.63747 0.00794 0.0
H581 H 1.0393 0.59471 0.00393 0.0
H582 H 0.18731 0.58943 0.95059 0.0
H583 H 0.99691 0.48243 0.94209 0.0
H584 H 0.19447 0.58155 0.01643 0.0
H585 H 0.19664 0.63204 0.01099 0.0
H586 H 0.23568 0.62041 -0.00972 0.0
H587 H 0.96325 0.45329 0.00508 0.0
H588 H 0.93326 0.45546 0.97619 0.0
H589 H 0.96244 0.5026 0.00101 0.0
C590 C 0.60229 0.05848 0.38293 0.0
C591 C 0.61366 0.02907 0.3926 0.0
C592 C 0.59888 0.06143 0.35672 0.0
C593 C 0.60528 0.03314 0.33988 0.0
C594 C 0.61476 1.00209 0.34968 0.0
C595 C 0.61978 1.00105 0.37593 0.0
C596 C 0.59031 0.09596 0.34707 0.0
C597 C 0.62008 0.97024 0.33244 0.0
C598 C 0.54793 1.00765 0.272 0.0
C599 C 0.60099 0.03916 0.25864 0.0
C600 C 0.54859 1.00545 0.2984 0.0
C601 C 0.60347 0.0367 0.31201 0.0
C602 C 0.65697 0.07002 0.29886 0.0
C603 C 0.6552 0.07034 0.27238 0.0
C604 C 0.49063 0.96874 0.31164 0.0
C605 C 0.71635 0.10477 0.31272 0.0
H606 H 0.59812 0.08051 0.39584 0.0
H607 H 0.62831 0.97812 0.38344 0.0
H608 H 0.6292 0.12451 0.33579 0.0
H609 H 0.55046 0.07535 0.33438 0.0
H610 H 0.58509 0.11475 0.36263 0.0
H611 H 0.62367 0.94589 0.34309 0.0
H612 H 0.58078 0.94681 0.31941 0.0
H613 H 0.66 0.99396 0.32067 0.0
H614 H 0.50557 0.98425 0.26184 0.0
H615 H 0.69666 0.09434 0.26245 0.0
H616 H 0.48403 0.98813 0.32614 0.0
H617 H 0.49205 0.94257 0.32159 0.0
H618 H 0.45167 0.9472 0.29835 0.0
H619 H 0.7146 0.12589 0.32813 0.0
H620 H 0.75315 0.13135 0.30002 0.0
H621 H 0.72677 0.08325 0.32155 0.0
C622 C 0.6395 0.5375 0.75857 0.0
C623 C 0.58834 0.52466 0.76996 0.0
C624 C 0.64694 0.54336 0.73241 0.0
C625 C 0.6032 0.53811 0.71758 0.0
C626 C 0.55261 0.5271 0.72928 0.0
C627 C 0.54521 0.51951 0.7553 0.0
C628 C 0.70043 0.55339 0.72054 0.0
C629 C 0.50609 0.52299 0.7143 0.0
C630 C 0.64642 0.59244 0.65267 0.0
C631 C 0.61717 0.54988 0.63656 0.0
C632 C 0.64178 0.58916 0.67903 0.0
C633 C 0.60922 0.54243 0.68971 0.0
C634 C 0.58132 0.49952 0.67373 0.0
C635 C 0.58457 0.50363 0.64743 0.0
C636 C 0.67084 0.63565 0.69542 0.0
C637 C 0.54751 0.44909 0.68441 0.0
H638 H 0.67262 0.54109 0.76997 0.0
H639 H 0.50589 0.50994 0.76426 0.0
H640 H 0.68549 0.52291 0.70665 0.0
H641 H 0.72609 0.58791 0.71009 0.0
H642 H 0.73056 0.55682 0.73476 0.0
H643 H 0.47203 0.5182 0.72656 0.0
H644 H 0.52748 0.55657 0.70336 0.0
H645 H 0.48329 0.49098 0.70053 0.0
H646 H 0.673 0.62857 0.64476 0.0
H647 H 0.56054 0.47023 0.63544 0.0
H648 H 0.70437 0.64146 0.70841 0.0
H649 H 0.63693 0.63184 0.70728 0.0
H650 H 0.69308 0.66898 0.68413 0.0
H651 H 0.5758 0.44983 0.69848 0.0
H652 H 0.53263 0.42002 0.66954 0.0
H653 H 0.50776 0.43868 0.69435 0.0
C654 C 0.53755 0.01089 0.54874 0.0
C655 C 0.58327 0.05262 0.53587 0.0
C656 C 0.54342 1.00767 0.57466 0.0
C657 C 0.59515 0.04816 0.58823 0.0
C658 C 0.64166 0.09033 0.57517 0.0
C659 C 0.63566 0.09157 0.54899 0.0
C660 C 0.49393 0.96119 0.58759 0.0
C661 C 0.69653 0.135 0.58901 0.0
C662 C 0.57472 0.05946 0.65829 0.0
C663 C 0.60436 0.04522 0.66961 0.0
C664 C 0.573 0.06192 0.63198 0.0
C665 C 0.59896 0.04748 0.61625 0.0
C666 C 0.62768 0.03192 0.62731 0.0
C667 C 0.63122 0.03205 0.65378 0.0
C668 C 0.54326 0.08002 0.62102 0.0
C669 C 0.65414 0.0146 0.61117 0.0
H670 H 0.49728 0.98059 0.53844 0.0
H671 H 0.67083 0.12395 0.53897 0.0
H672 H 0.5123 0.94773 0.59874 0.0
H673 H 0.47165 0.96919 0.60096 0.0
H674 H 0.45992 0.93119 0.57391 0.0
H675 H 0.72912 0.1644 0.57603 0.0
H676 H 0.68355 0.1505 0.60301 0.0
H677 H 0.71871 0.12436 0.59964 0.0
H678 H 0.5521 0.06836 0.66991 0.0
H679 H 0.65539 0.02194 0.66196 0.0
H680 H 0.50318 0.04964 0.60973 0.0
H681 H 0.57388 0.11032 0.60811 0.0
H682 H 0.52959 0.09373 0.63586 0.0
H683 H 0.61984 0.98431 0.59771 0.0
H684 H 0.67211 1.00112 0.62262 0.0
H685 H 0.6906 0.0452 0.5998 0.0
C686 C 0.68385 0.5303 0.90929 0.0
C687 C 0.64031 0.53518 0.90816 0.0
C688 C 0.67906 0.49833 0.92608 0.0
C689 C 0.63109 0.47257 0.94291 0.0
C690 C 0.58806 0.47877 0.94234 0.0
C691 C 0.59236 0.50898 0.92445 0.0
C692 C 0.72402 0.49082 0.92508 0.0
C693 C 0.53784 0.45402 0.96084 0.0
C694 C 0.56705 0.35935 0.97955 0.0
C695 C 0.59182 0.3813 0.00353 0.0
C696 C 0.58537 0.38879 0.95853 0.0
C697 C 0.62672 0.44099 0.96211 0.0
C698 C 0.6563 0.46269 0.98579 0.0
C699 C 0.63956 0.43229 0.00607 0.0
C700 C 0.55628 0.36432 0.93307 0.0
C701 C 0.69964 0.51808 -0.00928 0.0
H702 H 0.72064 0.55015 0.89643 0.0
H703 H 0.55872 0.51278 0.92344 0.0
H704 H 0.73854 0.49064 0.94426 0.0
H705 H 0.7029 0.45423 0.91567 0.0
H706 H 0.76396 0.51973 0.91436 0.0
H707 H 0.51119 0.46591 0.95918 0.0
H708 H 0.5077 0.41333 0.95754 0.0
H709 H 0.55582 0.4626 0.98048 0.0
H710 H 0.52993 0.31994 0.97764 0.0
H711 H 0.65811 0.44908 0.02477 0.0
H712 H 0.58916 0.38381 0.91783 0.0
H713 H 0.52064 0.36605 0.92943 0.0
H714 H 0.53602 0.32486 0.9321 0.0
H715 H 0.73322 0.53665 0.97574 0.0
H716 H 0.72322 0.52894 0.00928 0.0
H717 H 0.67506 0.53203 -0.00947 0.0
C718 C 0.12325 0.5666 0.22611 0.0
C719 C 0.11518 0.52736 0.21318 0.0
C720 C 0.12228 0.56905 0.25259 0.0
C721 C 0.11298 0.53131 0.26641 0.0
C722 C 0.10477 0.49158 0.2534 0.0
C723 C 0.10605 0.49012 0.22691 0.0
C724 C 0.13126 0.61203 0.26576 0.0
C725 C 0.09448 0.45056 0.26747 0.0
C726 C 0.16339 0.55992 0.33538 0.0
C727 C 0.10981 0.5383 0.34779 0.0
C728 C 0.16505 0.55783 0.30891 0.0
C729 C 0.11181 0.53342 0.29449 0.0
C730 C 1.05752 0.51126 0.30688 0.0
C731 C 1.05719 0.51403 0.33337 0.0
C732 C 0.22379 0.58183 0.29636 0.0
C733 C 0.99984 0.48495 0.29215 0.0
H734 H 0.13055 0.59555 0.21553 0.0
H735 H 0.09959 0.45965 0.21692 0.0
H736 H 0.09207 0.59828 0.27736 0.0
H737 H 0.17054 0.63235 0.27879 0.0
H738 H 0.13795 0.6383 0.25225 0.0
H739 H 0.08892 0.42233 0.25455 0.0
H740 H 0.13252 0.46607 0.28064 0.0
H741 H 1.05408 0.43206 0.27902 0.0
H742 H 0.20407 0.57817 0.34639 0.0
H743 H 1.01575 0.49782 0.34282 0.0
H744 H 0.23402 0.61046 0.28366 0.0
H745 H 0.22101 0.55388 0.28451 0.0
H746 H 0.26115 0.59939 0.31028 0.0
H747 H 1.00332 0.51102 0.27965 0.0
H748 H 0.96131 0.46905 0.30465 0.0
H749 H 0.99097 0.45468 0.27984 0.0
loop_
_geom_bond_atom_site_label_1
_geom_bond_atom_site_label_2
_geom_bond_distance
_geom_bond_site_symmetry_2
_ccdc_geom_bond_type
Sm0 C2 2.846 . S
Sm0 O20 2.543 . S
Sm0 O21 2.450 . S
Sm0 O22 2.681 . S
Sm0 O23 2.464 . S
Sm0 O24 2.396 . S
Sm0 O28 2.386 . S
Sm0 O31 2.408 1_455 S
Sm1 C11 2.846 . S
Sm1 O22 2.386 1_655 S
Sm1 O25 2.408 1_655 S
Sm1 O26 2.543 . S
Sm1 O27 2.450 . S
Sm1 O28 2.681 1_655 S
Sm1 O29 2.464 . S
Sm1 O30 2.396 . S
C2 Sm0 2.846 . S
C2 C3 1.506 . S
C2 O20 1.261 . S
C2 O21 1.242 . S
C3 C2 1.506 . S
C3 C4 1.358 . S
C3 C8 1.382 . S
C4 C3 1.358 . S
C4 C5 1.385 . S
C4 H32 0.930 . S
C5 C4 1.385 . S
C5 C6 1.395 . S
C5 H33 0.929 . S
C6 C5 1.395 . S
C6 C7 1.335 . S
C7 C6 1.335 . S
C7 C8 1.398 . S
C7 H34 0.930 . S
C8 C3 1.382 . S
C8 C7 1.398 . S
C8 H35 0.929 . S
C9 O22 1.271 . S
C9 O23 1.251 . S
C10 O24 1.252 . S
C10 O25 1.272 . S
C11 Sm1 2.846 . S
C11 C12 1.506 . S
C11 O26 1.261 . S
C11 O27 1.242 . S
C12 C11 1.506 . S
C12 C13 1.358 . S
C12 C17 1.382 . S
C13 C12 1.358 . S
C13 C14 1.385 . S
C13 H36 0.930 . S
C14 C13 1.385 . S
C14 C15 1.395 . S
C14 H37 0.929 . S
C15 C14 1.395 . S
C15 C16 1.335 . S
C16 C15 1.335 . S
C16 C17 1.398 . S
C16 H38 0.930 . S
C17 C12 1.382 . S
C17 C16 1.398 . S
C17 H39 0.929 . S
C18 O28 1.271 . S
C18 O29 1.251 1_455 S
C19 O30 1.252 . S
C19 O31 1.272 . S
O20 Sm0 2.543 . S
O20 C2 1.261 . S
O21 Sm0 2.450 . S
O21 C2 1.242 . S
O22 Sm0 2.681 . S
O22 Sm1 2.386 1_455 S
O22 C9 1.271 . S
O23 Sm0 2.464 . S
O23 C9 1.251 . S
O24 Sm0 2.396 . S
O24 C10 1.252 . S
O25 Sm1 2.408 1_455 S
O25 C10 1.272 . S
O26 Sm1 2.543 . S
O26 C11 1.261 . S
O27 Sm1 2.450 . S
O27 C11 1.242 . S
O28 Sm0 2.386 . S
O28 Sm1 2.681 1_455 S
O28 C18 1.271 . S
O29 Sm1 2.464 . S
O29 C18 1.251 1_655 S
O30 Sm1 2.396 . S
O30 C19 1.252 . S
O31 Sm0 2.408 1_655 S
O31 C19 1.272 . S
H32 C4 0.930 . S
H33 C5 0.929 . S
H34 C7 0.930 . S
H35 C8 0.929 . S
H36 C13 0.930 . S
H37 C14 0.929 . S
H38 C16 0.930 . S
H39 C17 0.929 . S
Sm40 C42 2.846 . S
Sm40 O60 2.543 . S
Sm40 O61 2.450 . S
Sm40 O62 2.681 1_565 S
Sm40 O63 2.464 . S
Sm40 O64 2.396 . S
Sm40 O68 2.386 . S
Sm40 O71 2.408 1_565 S
Sm41 C51 2.846 . S
Sm41 O62 2.386 . S
Sm41 O65 2.408 1_545 S
Sm41 O66 2.543 . S
Sm41 O67 2.450 . S
Sm41 O68 2.681 1_545 S
Sm41 O69 2.464 . S
Sm41 O70 2.396 . S
C42 Sm40 2.846 . S
C42 C43 1.506 . S
C42 O60 1.261 . S
C42 O61 1.242 . S
C43 C42 1.506 . S
C43 C44 1.358 . S
C43 C48 1.382 . S
C44 C43 1.358 . S
C44 C45 1.385 . S
C44 H72 0.930 . S
C45 C44 1.385 . S
C45 C46 1.395 . S
C45 H73 0.929 . S
C46 C45 1.395 . S
C46 C47 1.335 . S
C47 C46 1.335 . S
C47 C48 1.398 . S
C47 H74 0.930 . S
C48 C43 1.382 . S
C48 C47 1.398 . S
C48 H75 0.929 . S
C49 O62 1.271 . S
C49 O63 1.251 1_545 S
C50 O64 1.252 . S
C50 O65 1.272 . S
C51 Sm41 2.846 . S
C51 C52 1.506 . S
C51 O66 1.261 . S
C51 O67 1.242 . S
C52 C51 1.506 . S
C52 C53 1.358 . S
C52 C57 1.382 . S
C53 C52 1.358 . S
C53 C54 1.385 . S
C53 H76 0.930 . S
C54 C53 1.385 . S
C54 C55 1.395 . S
C54 H77 0.929 . S
C55 C54 1.395 . S
C55 C56 1.335 . S
C56 C55 1.335 . S
C56 C57 1.398 . S
C56 H78 0.930 . S
C57 C52 1.382 . S
C57 C56 1.398 . S
C57 H79 0.929 . S
C58 O68 1.271 1_545 S
C58 O69 1.251 . S
C59 O70 1.252 . S
C59 O71 1.272 . S
O60 Sm40 2.543 . S
O60 C42 1.261 . S
O61 Sm40 2.450 . S
O61 C42 1.242 . S
O62 Sm40 2.681 1_545 S
O62 Sm41 2.386 . S
O62 C49 1.271 . S
O63 Sm40 2.464 . S
O63 C49 1.251 1_565 S
O64 Sm40 2.396 . S
O64 C50 1.252 . S
O65 Sm41 2.408 1_565 S
O65 C50 1.272 . S
O66 Sm41 2.543 . S
O66 C51 1.261 . S
O67 Sm41 2.450 . S
O67 C51 1.242 . S
O68 Sm40 2.386 . S
O68 Sm41 2.681 1_565 S
O68 C58 1.271 1_565 S
O69 Sm41 2.464 . S
O69 C58 1.251 . S
O70 Sm41 2.396 . S
O70 C59 1.252 . S
O71 Sm40 2.408 1_545 S
O71 C59 1.272 . S
H72 C44 0.930 . S
H73 C45 0.929 . S
H74 C47 0.930 . S
H75 C48 0.929 . S
H76 C53 0.930 . S
H77 C54 0.929 . S
H78 C56 0.930 . S
H79 C57 0.929 . S
Sm80 C82 2.846 . S
Sm80 O100 2.543 . S
Sm80 O101 2.450 . S
Sm80 O102 2.681 . S
Sm80 O103 2.464 . S
Sm80 O104 2.396 . S
Sm80 O108 2.386 . S
Sm80 O111 2.408 . S
Sm81 C91 2.846 . S
Sm81 O102 2.386 . S
Sm81 O105 2.408 . S
Sm81 O106 2.543 . S
Sm81 O107 2.450 . S
Sm81 O108 2.681 . S
Sm81 O109 2.464 . S
Sm81 O110 2.396 . S
C82 Sm80 2.846 . S
C82 C83 1.506 . S
C82 O100 1.261 . S
C82 O101 1.242 . S
C83 C82 1.506 . S
C83 C84 1.358 . S
C83 C88 1.382 . S
C84 C83 1.358 . S
C84 C85 1.385 . S
C84 H112 0.930 . S
C85 C84 1.385 . S
C85 C86 1.395 . S
C85 H113 0.929 . S
C86 C85 1.395 . S
C86 C87 1.335 . S
C87 C86 1.335 . S
C87 C88 1.398 . S
C87 H114 0.930 . S
C88 C83 1.382 . S
C88 C87 1.398 . S
C88 H115 0.929 . S
C89 O102 1.271 . S
C89 O103 1.251 . S
C90 O104 1.252 . S
C90 O105 1.272 . S
C91 Sm81 2.846 . S
C91 C92 1.506 . S
C91 O106 1.261 . S
C91 O107 1.242 . S
C92 C91 1.506 . S
C92 C93 1.358 . S
C92 C97 1.382 . S
C93 C92 1.358 . S
C93 C94 1.385 . S
C93 H116 0.930 . S
C94 C93 1.385 . S
C94 C95 1.395 . S
C94 H117 0.929 . S
C95 C94 1.395 . S
C95 C96 1.335 . S
C96 C95 1.335 . S
C96 C97 1.398 . S
C96 H118 0.930 . S
C97 C92 1.382 . S
C97 C96 1.398 . S
C97 H119 0.929 . S
C98 O108 1.271 . S
C98 O109 1.251 . S
C99 O110 1.252 . S
C99 O111 1.272 . S
O100 Sm80 2.543 . S
O100 C82 1.261 . S
O101 Sm80 2.450 . S
O101 C82 1.242 . S
O102 Sm80 2.681 . S
O102 Sm81 2.386 . S
O102 C89 1.271 . S
O103 Sm80 2.464 . S
O103 C89 1.251 . S
O104 Sm80 2.396 . S
O104 C90 1.252 . S
O105 Sm81 2.408 . S
O105 C90 1.272 . S
O106 Sm81 2.543 . S
O106 C91 1.261 . S
O107 Sm81 2.450 . S
O107 C91 1.242 . S
O108 Sm80 2.386 . S
O108 Sm81 2.681 . S
O108 C98 1.271 . S
O109 Sm81 2.464 . S
O109 C98 1.251 . S
O110 Sm81 2.396 . S
O110 C99 1.252 . S
O111 Sm80 2.408 . S
O111 C99 1.272 . S
H112 C84 0.930 . S
H113 C85 0.929 . S
H114 C87 0.930 . S
H115 C88 0.929 . S
H116 C93 0.930 . S
H117 C94 0.929 . S
H118 C96 0.930 . S
H119 C97 0.929 . S
H120 C123 0.931 . S
H121 C126 0.928 . S
H122 C128 0.930 . S
C123 H120 0.931 . S
C123 C124 1.413 . S
C123 C125 1.360 1_565 S
C124 C123 1.413 . S
C124 C128 1.429 1_565 S
C125 C123 1.360 1_545 S
C125 C126 1.372 . S
C126 H121 0.928 . S
C126 C125 1.372 . S
C126 C127 1.404 . S
C127 C126 1.404 . S
C127 C128 1.391 . S
C128 H122 0.930 . S
C128 C124 1.429 1_545 S
C128 C127 1.391 . S
H129 C132 0.931 . S
H130 C135 0.928 . S
H131 C137 0.930 . S
C132 H129 0.931 . S
C132 C133 1.413 . S
C132 C134 1.360 . S
C133 C132 1.413 . S
C133 C137 1.429 . S
C134 C132 1.360 . S
C134 C135 1.372 . S
C135 H130 0.928 . S
C135 C134 1.372 . S
C135 C136 1.404 . S
C136 C135 1.404 . S
C136 C137 1.391 . S
C137 H131 0.930 . S
C137 C133 1.429 . S
C137 C136 1.391 . S
H138 C141 0.931 1_655 S
H139 C144 0.928 . S
H140 C146 0.930 . S
C141 H138 0.931 1_455 S
C141 C142 1.413 . S
C141 C143 1.360 . S
C142 C141 1.413 . S
C142 C146 1.429 . S
C143 C141 1.360 . S
C143 C144 1.372 . S
C144 H139 0.928 . S
C144 C143 1.372 . S
C144 C145 1.404 . S
C145 C144 1.404 . S
C145 C146 1.391 . S
C146 H140 0.930 . S
C146 C142 1.429 . S
C146 C145 1.391 . S
H147 C150 0.931 . S
H148 C153 0.928 . S
H149 C155 0.930 . S
C150 H147 0.931 . S
C150 C151 1.413 . S
C150 C152 1.359 1_655 S
C151 C150 1.413 . S
C151 C155 1.429 1_655 S
C152 C150 1.359 1_455 S
C152 C153 1.373 . S
C153 H148 0.928 . S
C153 C152 1.373 . S
C153 C154 1.404 . S
C154 C153 1.404 . S
C154 C155 1.391 . S
C155 H149 0.930 . S
C155 C151 1.429 1_455 S
C155 C154 1.391 . S
H156 C159 0.931 . S
H157 C162 0.928 . S
H158 C164 0.930 . S
C159 H156 0.931 . S
C159 C160 1.413 . S
C159 C161 1.354 1_545 S
C160 C159 1.413 . S
C160 C164 1.429 . S
C161 C159 1.354 1_565 S
C161 C162 1.377 . S
C162 H157 0.928 . S
C162 C161 1.377 . S
C162 C163 1.404 . S
C163 C162 1.404 . S
C163 C164 1.391 1_565 S
C164 H158 0.930 . S
C164 C160 1.429 . S
C164 C163 1.391 1_545 S
H165 C168 0.931 . S
H166 C171 0.928 . S
H167 C173 0.930 . S
C168 H165 0.931 . S
C168 C169 1.413 . S
C168 C170 1.360 . S
C169 C168 1.413 . S
C169 C173 1.429 . S
C170 C168 1.360 . S
C170 C171 1.372 . S
C171 H166 0.928 . S
C171 C170 1.372 . S
C171 C172 1.404 . S
C172 C171 1.404 . S
C172 C173 1.391 . S
C173 H167 0.930 . S
C173 C169 1.429 . S
C173 C172 1.391 . S
C174 C175 1.391 . S
C174 C176 1.394 . S
C174 H190 0.931 . S
C175 C174 1.391 . S
C175 C179 1.376 . S
C176 C174 1.394 . S
C176 C177 1.369 . S
C176 C180 1.531 . S
C177 C176 1.369 . S
C177 C178 1.410 . S
C177 C185 1.503 . S
C178 C177 1.410 . S
C178 C179 1.392 . S
C178 C181 1.511 . S
C179 C175 1.376 . S
C179 C178 1.392 . S
C179 H191 0.929 . S
C180 C176 1.531 . S
C180 H192 0.960 . S
C180 H193 0.962 . S
C180 H194 0.960 . S
C181 C178 1.511 . S
C181 H195 0.961 . S
C181 H196 0.961 . S
C181 H197 0.961 . S
C182 C183 1.370 . S
C182 C184 1.363 . S
C182 H198 0.931 . S
C183 C182 1.370 . S
C183 C187 1.408 . S
C184 C182 1.363 . S
C184 C185 1.370 . S
C184 C188 1.524 . S
C185 C177 1.503 . S
C185 C184 1.370 . S
C185 C186 1.403 . S
C186 C185 1.403 . S
C186 C187 1.404 . S
C186 C189 1.539 . S
C187 C183 1.408 . S
C187 C186 1.404 . S
C187 H199 0.930 . S
C188 C184 1.524 . S
C188 H200 0.956 . S
C188 H201 0.961 . S
C188 H202 0.961 . S
C189 C186 1.539 . S
C189 H203 0.958 . S
C189 H204 0.961 . S
C189 H205 0.960 . S
H190 C174 0.931 . S
H191 C179 0.929 . S
H192 C180 0.960 . S
H193 C180 0.962 . S
H194 C180 0.960 . S
H195 C181 0.961 . S
H196 C181 0.961 . S
H197 C181 0.961 . S
H198 C182 0.931 . S
H199 C187 0.930 . S
H200 C188 0.956 . S
H201 C188 0.961 . S
H202 C188 0.961 . S
H203 C189 0.958 . S
H204 C189 0.961 . S
H205 C189 0.960 . S
C206 C207 1.391 . S
C206 C208 1.394 . S
C206 H222 0.931 . S
C207 C206 1.391 . S
C207 C211 1.376 . S
C208 C206 1.394 . S
C208 C209 1.369 . S
C208 C212 1.531 . S
C209 C208 1.369 . S
C209 C210 1.410 . S
C209 C217 1.503 . S
C210 C209 1.410 . S
C210 C211 1.392 . S
C210 C213 1.511 . S
C211 C207 1.376 . S
C211 C210 1.392 . S
C211 H223 0.929 . S
C212 C208 1.531 . S
C212 H224 0.960 . S
C212 H225 0.962 . S
C212 H226 0.960 . S
C213 C210 1.511 . S
C213 H227 0.961 . S
C213 H228 0.961 . S
C213 H229 0.961 . S
C214 C215 1.370 . S
C214 C216 1.363 . S
C214 H230 0.931 . S
C215 C214 1.370 . S
C215 C219 1.408 . S
C216 C214 1.363 . S
C216 C217 1.370 . S
C216 C220 1.524 . S
C217 C209 1.503 . S
C217 C216 1.370 . S
C217 C218 1.403 . S
C218 C217 1.403 . S
C218 C219 1.404 . S
C218 C221 1.539 . S
C219 C215 1.408 . S
C219 C218 1.404 . S
C219 H231 0.930 . S
C220 C216 1.524 . S
C220 H232 0.956 . S
C220 H233 0.961 . S
C220 H234 0.961 . S
C221 C218 1.539 . S
C221 H235 0.958 . S
C221 H236 0.961 . S
C221 H237 0.960 . S
H222 C206 0.931 . S
H223 C211 0.929 . S
H224 C212 0.960 . S
H225 C212 0.962 . S
H226 C212 0.960 . S
H227 C213 0.961 . S
H228 C213 0.961 . S
H229 C213 0.961 . S
H230 C214 0.931 . S
H231 C219 0.930 . S
H232 C220 0.956 . S
H233 C220 0.961 . S
H234 C220 0.961 . S
H235 C221 0.958 . S
H236 C221 0.961 . S
H237 C221 0.960 . S
C238 C239 1.391 . S
C238 C240 1.394 . S
C238 H254 0.931 . S
C239 C238 1.391 . S
C239 C243 1.376 . S
C240 C238 1.394 . S
C240 C241 1.369 . S
C240 C244 1.531 . S
C241 C240 1.369 . S
C241 C242 1.410 . S
C241 C249 1.503 . S
C242 C241 1.410 . S
C242 C243 1.392 . S
C242 C245 1.511 . S
C243 C239 1.376 . S
C243 C242 1.392 . S
C243 H255 0.929 . S
C244 C240 1.531 . S
C244 H256 0.960 . S
C244 H257 0.962 . S
C244 H258 0.960 . S
C245 C242 1.511 . S
C245 H259 0.961 . S
C245 H260 0.961 . S
C245 H261 0.961 . S
C246 C247 1.370 . S
C246 C248 1.363 . S
C246 H262 0.931 . S
C247 C246 1.370 . S
C247 C251 1.408 . S
C248 C246 1.363 . S
C248 C249 1.370 . S
C248 C252 1.524 . S
C249 C241 1.503 . S
C249 C248 1.370 . S
C249 C250 1.403 . S
C250 C249 1.403 . S
C250 C251 1.404 . S
C250 C253 1.539 . S
C251 C247 1.408 . S
C251 C250 1.404 . S
C251 H263 0.930 . S
C252 C248 1.524 . S
C252 H264 0.956 . S
C252 H265 0.961 . S
C252 H266 0.961 . S
C253 C250 1.539 . S
C253 H267 0.958 . S
C253 H268 0.961 . S
C253 H269 0.960 . S
H254 C238 0.931 . S
H255 C243 0.929 . S
H256 C244 0.960 . S
H257 C244 0.962 . S
H258 C244 0.960 . S
H259 C245 0.961 . S
H260 C245 0.961 . S
H261 C245 0.961 . S
H262 C246 0.931 . S
H263 C251 0.930 . S
H264 C252 0.956 . S
H265 C252 0.961 . S
H266 C252 0.961 . S
H267 C253 0.958 . S
H268 C253 0.961 . S
H269 C253 0.960 . S
C270 C271 1.391 . S
C270 C272 1.394 . S
C270 H286 0.931 . S
C271 C270 1.391 . S
C271 C275 1.376 . S
C272 C270 1.394 . S
C272 C273 1.369 . S
C272 C276 1.531 . S
C273 C272 1.369 . S
C273 C274 1.410 . S
C273 C281 1.503 . S
C274 C273 1.410 . S
C274 C275 1.392 . S
C274 C277 1.511 . S
C275 C271 1.376 . S
C275 C274 1.392 . S
C275 H287 0.929 . S
C276 C272 1.531 . S
C276 H288 0.960 . S
C276 H289 0.962 . S
C276 H290 0.960 . S
C277 C274 1.511 . S
C277 H291 0.961 . S
C277 H292 0.961 . S
C277 H293 0.961 . S
C278 C279 1.370 . S
C278 C280 1.363 . S
C278 H294 0.931 . S
C279 C278 1.370 . S
C279 C283 1.408 . S
C280 C278 1.363 . S
C280 C281 1.370 . S
C280 C284 1.524 . S
C281 C273 1.503 . S
C281 C280 1.370 . S
C281 C282 1.403 . S
C282 C281 1.403 . S
C282 C283 1.404 . S
C282 C285 1.539 . S
C283 C279 1.408 . S
C283 C282 1.404 . S
C283 H295 0.930 . S
C284 C280 1.524 . S
C284 H296 0.956 . S
C284 H297 0.961 . S
C284 H298 0.961 . S
C285 C282 1.539 . S
C285 H299 0.958 . S
C285 H300 0.961 . S
C285 H301 0.960 . S
H286 C270 0.931 . S
H287 C275 0.929 . S
H288 C276 0.960 . S
H289 C276 0.962 . S
H290 C276 0.960 . S
H291 C277 0.961 . S
H292 C277 0.961 . S
H293 C277 0.961 . S
H294 C278 0.931 . S
H295 C283 0.930 . S
H296 C284 0.956 . S
H297 C284 0.961 . S
H298 C284 0.961 . S
H299 C285 0.958 . S
H300 C285 0.961 . S
H301 C285 0.960 . S
C302 C303 1.391 . S
C302 C304 1.394 . S
C302 H318 0.931 . S
C303 C302 1.391 . S
C303 C307 1.376 . S
C304 C302 1.394 . S
C304 C305 1.369 . S
C304 C308 1.531 . S
C305 C304 1.369 . S
C305 C306 1.410 . S
C305 C313 1.503 . S
C306 C305 1.410 . S
C306 C307 1.392 . S
C306 C309 1.511 . S
C307 C303 1.376 . S
C307 C306 1.392 . S
C307 H319 0.929 . S
C308 C304 1.531 . S
C308 H320 0.960 . S
C308 H321 0.962 . S
C308 H322 0.960 . S
C309 C306 1.511 . S
C309 H323 0.961 . S
C309 H324 0.961 . S
C309 H325 0.961 . S
C310 C311 1.370 . S
C310 C312 1.363 . S
C310 H326 0.931 . S
C311 C310 1.370 . S
C311 C315 1.408 . S
C312 C310 1.363 . S
C312 C313 1.370 . S
C312 C316 1.524 . S
C313 C305 1.503 . S
C313 C312 1.370 . S
C313 C314 1.403 . S
C314 C313 1.403 . S
C314 C315 1.404 . S
C314 C317 1.539 . S
C315 C311 1.408 . S
C315 C314 1.404 . S
C315 H327 0.930 . S
C316 C312 1.524 . S
C316 H328 0.956 . S
C316 H329 0.961 . S
C316 H330 0.961 . S
C317 C314 1.539 . S
C317 H331 0.958 . S
C317 H332 0.961 . S
C317 H333 0.960 . S
H318 C302 0.931 . S
H319 C307 0.929 . S
H320 C308 0.960 . S
H321 C308 0.962 . S
H322 C308 0.960 . S
H323 C309 0.961 . S
H324 C309 0.961 . S
H325 C309 0.961 . S
H326 C310 0.931 . S
H327 C315 0.930 . S
H328 C316 0.956 . S
H329 C316 0.961 . S
H330 C316 0.961 . S
H331 C317 0.958 . S
H332 C317 0.961 . S
H333 C317 0.960 . S
C334 C335 1.391 . S
C334 C336 1.394 . S
C334 H350 0.931 . S
C335 C334 1.391 . S
C335 C339 1.376 . S
C336 C334 1.394 . S
C336 C337 1.369 . S
C336 C340 1.531 . S
C337 C336 1.369 . S
C337 C338 1.410 . S
C337 C345 1.503 . S
C338 C337 1.410 . S
C338 C339 1.392 . S
C338 C341 1.511 . S
C339 C335 1.376 . S
C339 C338 1.392 . S
C339 H351 0.929 . S
C340 C336 1.531 . S
C340 H352 0.960 . S
C340 H353 0.962 . S
C340 H354 0.960 . S
C341 C338 1.511 . S
C341 H355 0.961 . S
C341 H356 0.961 . S
C341 H357 0.961 . S
C342 C343 1.370 . S
C342 C344 1.363 . S
C342 H358 0.931 . S
C343 C342 1.370 . S
C343 C347 1.408 . S
C344 C342 1.363 . S
C344 C345 1.370 . S
C344 C348 1.524 . S
C345 C337 1.503 . S
C345 C344 1.370 . S
C345 C346 1.403 . S
C346 C345 1.403 . S
C346 C347 1.404 . S
C346 C349 1.539 . S
C347 C343 1.408 . S
C347 C346 1.404 . S
C347 H359 0.930 . S
C348 C344 1.524 . S
C348 H360 0.956 . S
C348 H361 0.961 . S
C348 H362 0.961 . S
C349 C346 1.539 . S
C349 H363 0.958 . S
C349 H364 0.961 . S
C349 H365 0.960 . S
H350 C334 0.931 . S
H351 C339 0.929 . S
H352 C340 0.960 . S
H353 C340 0.962 . S
H354 C340 0.960 . S
H355 C341 0.961 . S
H356 C341 0.961 . S
H357 C341 0.961 . S
H358 C342 0.931 . S
H359 C347 0.930 . S
H360 C348 0.956 . S
H361 C348 0.961 . S
H362 C348 0.961 . S
H363 C349 0.958 . S
H364 C349 0.961 . S
H365 C349 0.960 . S
C366 C367 1.391 . S
C366 C368 1.394 . S
C366 H382 0.931 . S
C367 C366 1.391 . S
C367 C371 1.376 . S
C368 C366 1.394 . S
C368 C369 1.369 . S
C368 C372 1.531 . S
C369 C368 1.369 . S
C369 C370 1.410 . S
C369 C377 1.503 . S
C370 C369 1.410 . S
C370 C371 1.392 . S
C370 C373 1.511 . S
C371 C367 1.376 . S
C371 C370 1.392 . S
C371 H383 0.929 . S
C372 C368 1.531 . S
C372 H384 0.960 . S
C372 H385 0.962 . S
C372 H386 0.960 . S
C373 C370 1.511 . S
C373 H387 0.961 . S
C373 H388 0.961 . S
C373 H389 0.961 . S
C374 C375 1.370 . S
C374 C376 1.363 . S
C374 H390 0.931 . S
C375 C374 1.370 . S
C375 C379 1.408 . S
C376 C374 1.363 . S
C376 C377 1.370 . S
C376 C380 1.524 . S
C377 C369 1.503 . S
C377 C376 1.370 . S
C377 C378 1.403 . S
C378 C377 1.403 . S
C378 C379 1.404 . S
C378 C381 1.539 . S
C379 C375 1.408 . S
C379 C378 1.404 . S
C379 H391 0.930 . S
C380 C376 1.524 . S
C380 H392 0.956 . S
C380 H393 0.961 . S
C380 H394 0.961 . S
C381 C378 1.539 . S
C381 H395 0.958 . S
C381 H396 0.961 . S
C381 H397 0.960 . S
H382 C366 0.931 . S
H383 C371 0.929 . S
H384 C372 0.960 . S
H385 C372 0.962 . S
H386 C372 0.960 . S
H387 C373 0.961 . S
H388 C373 0.961 . S
H389 C373 0.961 . S
H390 C374 0.931 . S
H391 C379 0.930 . S
H392 C380 0.956 . S
H393 C380 0.961 . S
H394 C380 0.961 . S
H395 C381 0.958 . S
H396 C381 0.961 . S
H397 C381 0.960 . S
C398 C399 1.391 . S
C398 C400 1.394 . S
C398 H414 0.931 . S
C399 C398 1.391 . S
C399 C403 1.376 . S
C400 C398 1.394 . S
C400 C401 1.369 . S
C400 C404 1.531 . S
C401 C400 1.369 . S
C401 C402 1.410 . S
C401 C409 1.503 . S
C402 C401 1.410 . S
C402 C403 1.392 . S
C402 C405 1.511 . S
C403 C399 1.376 . S
C403 C402 1.392 . S
C403 H415 0.929 . S
C404 C400 1.531 . S
C404 H416 0.960 . S
C404 H417 0.962 . S
C404 H418 0.960 . S
C405 C402 1.511 . S
C405 H419 0.961 . S
C405 H420 0.961 . S
C405 H421 0.961 . S
C406 C407 1.370 . S
C406 C408 1.363 . S
C406 H422 0.931 . S
C407 C406 1.370 . S
C407 C411 1.408 . S
C408 C406 1.363 . S
C408 C409 1.370 . S
C408 C412 1.524 . S
C409 C401 1.503 . S
C409 C408 1.370 . S
C409 C410 1.403 . S
C410 C409 1.403 . S
C410 C411 1.404 . S
C410 C413 1.539 . S
C411 C407 1.408 . S
C411 C410 1.404 . S
C411 H423 0.930 . S
C412 C408 1.524 . S
C412 H424 0.956 . S
C412 H425 0.961 . S
C412 H426 0.961 . S
C413 C410 1.539 . S
C413 H427 0.958 . S
C413 H428 0.961 . S
C413 H429 0.960 . S
H414 C398 0.931 . S
H415 C403 0.929 . S
H416 C404 0.960 . S
H417 C404 0.962 . S
H418 C404 0.960 . S
H419 C405 0.961 . S
H420 C405 0.961 . S
H421 C405 0.961 . S
H422 C406 0.931 . S
H423 C411 0.930 . S
H424 C412 0.956 . S
H425 C412 0.961 . S
H426 C412 0.961 . S
H427 C413 0.958 . S
H428 C413 0.961 . S
H429 C413 0.960 . S
C430 C431 1.391 . S
C430 C432 1.394 . S
C430 H446 0.931 . S
C431 C430 1.391 . S
C431 C435 1.376 . S
C432 C430 1.394 . S
C432 C433 1.369 . S
C432 C436 1.531 . S
C433 C432 1.369 . S
C433 C434 1.410 . S
C433 C441 1.503 . S
C434 C433 1.410 . S
C434 C435 1.392 . S
C434 C437 1.511 . S
C435 C431 1.376 . S
C435 C434 1.392 . S
C435 H447 0.929 . S
C436 C432 1.531 . S
C436 H448 0.960 . S
C436 H449 0.962 . S
C436 H450 0.960 . S
C437 C434 1.511 . S
C437 H451 0.961 . S
C437 H452 0.961 . S
C437 H453 0.961 . S
C438 C439 1.370 . S
C438 C440 1.363 . S
C438 H454 0.931 . S
C439 C438 1.370 . S
C439 C443 1.408 . S
C440 C438 1.363 . S
C440 C441 1.370 . S
C440 C444 1.524 . S
C441 C433 1.503 . S
C441 C440 1.370 . S
C441 C442 1.403 . S
C442 C441 1.403 . S
C442 C443 1.404 . S
C442 C445 1.539 . S
C443 C439 1.408 . S
C443 C442 1.404 . S
C443 H455 0.930 . S
C444 C440 1.524 . S
C444 H456 0.956 . S
C444 H457 0.961 . S
C444 H458 0.961 . S
C445 C442 1.539 . S
C445 H459 0.958 . S
C445 H460 0.961 . S
C445 H461 0.960 . S
H446 C430 0.931 . S
H447 C435 0.929 . S
H448 C436 0.960 . S
H449 C436 0.962 . S
H450 C436 0.960 . S
H451 C437 0.961 . S
H452 C437 0.961 . S
H453 C437 0.961 . S
H454 C438 0.931 . S
H455 C443 0.930 . S
H456 C444 0.956 . S
H457 C444 0.961 . S
H458 C444 0.961 . S
H459 C445 0.958 . S
H460 C445 0.961 . S
H461 C445 0.960 . S
C462 C463 1.391 . S
C462 C464 1.394 . S
C462 H478 0.931 . S
C463 C462 1.391 . S
C463 C467 1.376 . S
C464 C462 1.394 . S
C464 C465 1.369 . S
C464 C468 1.531 . S
C465 C464 1.369 . S
C465 C466 1.410 . S
C465 C473 1.503 . S
C466 C465 1.410 . S
C466 C467 1.392 . S
C466 C469 1.511 . S
C467 C463 1.376 . S
C467 C466 1.392 . S
C467 H479 0.929 . S
C468 C464 1.531 . S
C468 H480 0.960 . S
C468 H481 0.962 . S
C468 H482 0.960 . S
C469 C466 1.511 . S
C469 H483 0.961 . S
C469 H484 0.961 . S
C469 H485 0.961 . S
C470 C471 1.370 . S
C470 C472 1.363 . S
C470 H486 0.931 . S
C471 C470 1.370 . S
C471 C475 1.408 . S
C472 C470 1.363 . S
C472 C473 1.370 . S
C472 C476 1.524 . S
C473 C465 1.503 . S
C473 C472 1.370 . S
C473 C474 1.403 . S
C474 C473 1.403 . S
C474 C475 1.404 . S
C474 C477 1.539 . S
C475 C471 1.408 . S
C475 C474 1.404 . S
C475 H487 0.930 . S
C476 C472 1.524 . S
C476 H488 0.956 . S
C476 H489 0.961 . S
C476 H490 0.961 . S
C477 C474 1.539 . S
C477 H491 0.958 . S
C477 H492 0.961 . S
C477 H493 0.960 . S
H478 C462 0.931 . S
H479 C467 0.929 . S
H480 C468 0.960 . S
H481 C468 0.962 . S
H482 C468 0.960 . S
H483 C469 0.961 . S
H484 C469 0.961 . S
H485 C469 0.961 . S
H486 C470 0.931 . S
H487 C475 0.930 . S
H488 C476 0.956 . S
H489 C476 0.961 . S
H490 C476 0.961 . S
H491 C477 0.958 . S
H492 C477 0.961 . S
H493 C477 0.960 . S
C494 C495 1.391 . S
C494 C496 1.394 . S
C494 H510 0.931 . S
C495 C494 1.391 . S
C495 C499 1.376 . S
C496 C494 1.394 . S
C496 C497 1.369 . S
C496 C500 1.531 . S
C497 C496 1.369 . S
C497 C498 1.410 . S
C497 C505 1.503 . S
C498 C497 1.410 . S
C498 C499 1.392 . S
C498 C501 1.511 . S
C499 C495 1.376 . S
C499 C498 1.392 . S
C499 H511 0.929 . S
C500 C496 1.531 . S
C500 H512 0.960 . S
C500 H513 0.962 . S
C500 H514 0.960 . S
C501 C498 1.511 . S
C501 H515 0.961 . S
C501 H516 0.961 . S
C501 H517 0.961 . S
C502 C503 1.370 . S
C502 C504 1.363 . S
C502 H518 0.931 . S
C503 C502 1.370 . S
C503 C507 1.408 . S
C504 C502 1.363 . S
C504 C505 1.370 . S
C504 C508 1.524 . S
C505 C497 1.503 . S
C505 C504 1.370 . S
C505 C506 1.403 . S
C506 C505 1.403 . S
C506 C507 1.404 . S
C506 C509 1.539 . S
C507 C503 1.408 . S
C507 C506 1.404 . S
C507 H519 0.930 . S
C508 C504 1.524 . S
C508 H520 0.956 . S
C508 H521 0.961 . S
C508 H522 0.961 . S
C509 C506 1.539 . S
C509 H523 0.958 . S
C509 H524 0.961 . S
C509 H525 0.960 . S
H510 C494 0.931 . S
H511 C499 0.929 . S
H512 C500 0.960 . S
H513 C500 0.962 . S
H514 C500 0.960 . S
H515 C501 0.961 . S
H516 C501 0.961 . S
H517 C501 0.961 . S
H518 C502 0.931 . S
H519 C507 0.930 . S
H520 C508 0.956 . S
H521 C508 0.961 . S
H522 C508 0.961 . S
H523 C509 0.958 . S
H524 C509 0.961 . S
H525 C509 0.960 . S
C526 C527 1.391 . S
C526 C528 1.394 . S
C526 H542 0.931 . S
C527 C526 1.391 . S
C527 C531 1.376 . S
C528 C526 1.394 . S
C528 C529 1.369 . S
C528 C532 1.531 . S
C529 C528 1.369 . S
C529 C530 1.410 . S
C529 C537 1.503 . S
C530 C529 1.410 . S
C530 C531 1.392 . S
C530 C533 1.511 . S
C531 C527 1.376 . S
C531 C530 1.392 . S
C531 H543 0.929 . S
C532 C528 1.531 . S
C532 H544 0.960 . S
C532 H545 0.962 . S
C532 H546 0.960 . S
C533 C530 1.511 . S
C533 H547 0.961 . S
C533 H548 0.961 . S
C533 H549 0.961 . S
C534 C535 1.370 . S
C534 C536 1.363 . S
C534 H550 0.931 . S
C535 C534 1.370 . S
C535 C539 1.408 . S
C536 C534 1.363 . S
C536 C537 1.370 . S
C536 C540 1.524 . S
C537 C529 1.503 . S
C537 C536 1.370 . S
C537 C538 1.403 . S
C538 C537 1.403 . S
C538 C539 1.404 . S
C538 C541 1.539 . S
C539 C535 1.408 . S
C539 C538 1.404 . S
C539 H551 0.930 . S
C540 C536 1.524 . S
C540 H552 0.956 . S
C540 H553 0.961 . S
C540 H554 0.961 . S
C541 C538 1.539 . S
C541 H555 0.958 . S
C541 H556 0.961 . S
C541 H557 0.960 . S
H542 C526 0.931 . S
H543 C531 0.929 . S
H544 C532 0.960 . S
H545 C532 0.962 . S
H546 C532 0.960 . S
H547 C533 0.961 . S
H548 C533 0.961 . S
H549 C533 0.961 . S
H550 C534 0.931 . S
H551 C539 0.930 . S
H552 C540 0.956 . S
H553 C540 0.961 . S
H554 C540 0.961 . S
H555 C541 0.958 . S
H556 C541 0.961 . S
H557 C541 0.960 . S
C558 C559 1.391 . S
C558 C560 1.394 . S
C558 H574 0.931 . S
C559 C558 1.391 . S
C559 C563 1.376 1_455 S
C560 C558 1.394 . S
C560 C561 1.369 . S
C560 C564 1.531 . S
C561 C560 1.369 . S
C561 C562 1.410 1_455 S
C561 C569 1.503 . S
C562 C561 1.410 1_655 S
C562 C563 1.392 . S
C562 C565 1.511 . S
C563 C559 1.376 1_655 S
C563 C562 1.392 . S
C563 H575 0.929 . S
C564 C560 1.531 . S
C564 H576 0.960 . S
C564 H577 0.962 . S
C564 H578 0.960 . S
C565 C562 1.511 . S
C565 H579 0.961 . S
C565 H580 0.961 . S
C565 H581 0.961 . S
C566 C567 1.370 . S
C566 C568 1.363 . S
C566 H582 0.931 . S
C567 C566 1.370 . S
C567 C571 1.410 . S
C568 C566 1.363 . S
C568 C569 1.370 1_556 S
C568 C572 1.524 1_556 S
C569 C561 1.503 . S
C569 C568 1.370 1_554 S
C569 C570 1.403 1_454 S
C570 C569 1.403 1_656 S
C570 C571 1.404 1_655 S
C570 C573 1.539 . S
C571 C567 1.410 . S
C571 C570 1.404 1_455 S
C571 H583 0.928 1_455 S
C572 C568 1.524 1_554 S
C572 H584 0.956 . S
C572 H585 0.961 . S
C572 H586 0.961 . S
C573 C570 1.539 . S
C573 H587 0.958 . S
C573 H588 0.961 . S
C573 H589 0.960 1_556 S
H574 C558 0.931 . S
H575 C563 0.929 . S
H576 C564 0.960 . S
H577 C564 0.962 . S
H578 C564 0.960 . S
H579 C565 0.961 . S
H580 C565 0.961 . S
H581 C565 0.961 . S
H582 C566 0.931 . S
H583 C571 0.928 1_655 S
H584 C572 0.956 . S
H585 C572 0.961 . S
H586 C572 0.961 . S
H587 C573 0.958 . S
H588 C573 0.961 . S
H589 C573 0.960 1_554 S
C590 C591 1.391 . S
C590 C592 1.394 . S
C590 H606 0.931 . S
C591 C590 1.391 . S
C591 C595 1.376 . S
C592 C590 1.394 . S
C592 C593 1.369 . S
C592 C596 1.531 . S
C593 C592 1.369 . S
C593 C594 1.410 . S
C593 C601 1.503 . S
C594 C593 1.410 . S
C594 C595 1.392 . S
C594 C597 1.511 1_545 S
C595 C591 1.376 . S
C595 C594 1.392 . S
C595 H607 0.929 1_545 S
C596 C592 1.531 . S
C596 H608 0.960 . S
C596 H609 0.962 . S
C596 H610 0.960 . S
C597 C594 1.511 1_565 S
C597 H611 0.961 . S
C597 H612 0.961 . S
C597 H613 0.961 1_565 S
C598 C599 1.370 1_565 S
C598 C600 1.363 . S
C598 H614 0.931 . S
C599 C598 1.370 1_545 S
C599 C603 1.408 . S
C600 C598 1.363 . S
C600 C601 1.370 1_565 S
C600 C604 1.524 . S
C601 C593 1.503 . S
C601 C600 1.370 1_545 S
C601 C602 1.403 . S
C602 C601 1.403 . S
C602 C603 1.404 . S
C602 C605 1.539 . S
C603 C599 1.408 . S
C603 C602 1.404 . S
C603 H615 0.930 . S
C604 C600 1.524 . S
C604 H616 0.956 . S
C604 H617 0.961 . S
C604 H618 0.961 . S
C605 C602 1.539 . S
C605 H619 0.958 . S
C605 H620 0.961 . S
C605 H621 0.960 . S
H606 C590 0.931 . S
H607 C595 0.929 1_565 S
H608 C596 0.960 . S
H609 C596 0.962 . S
H610 C596 0.960 . S
H611 C597 0.961 . S
H612 C597 0.961 . S
H613 C597 0.961 1_545 S
H614 C598 0.931 . S
H615 C603 0.930 . S
H616 C604 0.956 . S
H617 C604 0.961 . S
H618 C604 0.961 . S
H619 C605 0.958 . S
H620 C605 0.961 . S
H621 C605 0.960 . S
C622 C623 1.391 . S
C622 C624 1.394 . S
C622 H638 0.931 . S
C623 C622 1.391 . S
C623 C627 1.376 . S
C624 C622 1.394 . S
C624 C625 1.369 . S
C624 C628 1.531 . S
C625 C624 1.369 . S
C625 C626 1.410 . S
C625 C633 1.503 . S
C626 C625 1.410 . S
C626 C627 1.392 . S
C626 C629 1.511 . S
C627 C623 1.376 . S
C627 C626 1.392 . S
C627 H639 0.929 . S
C628 C624 1.531 . S
C628 H640 0.960 . S
C628 H641 0.962 . S
C628 H642 0.960 . S
C629 C626 1.511 . S
C629 H643 0.961 . S
C629 H644 0.961 . S
C629 H645 0.961 . S
C630 C631 1.370 . S
C630 C632 1.363 . S
C630 H646 0.931 . S
C631 C630 1.370 . S
C631 C635 1.408 . S
C632 C630 1.363 . S
C632 C633 1.370 . S
C632 C636 1.524 . S
C633 C625 1.503 . S
C633 C632 1.370 . S
C633 C634 1.403 . S
C634 C633 1.403 . S
C634 C635 1.404 . S
C634 C637 1.539 . S
C635 C631 1.408 . S
C635 C634 1.404 . S
C635 H647 0.930 . S
C636 C632 1.524 . S
C636 H648 0.956 . S
C636 H649 0.961 . S
C636 H650 0.961 . S
C637 C634 1.539 . S
C637 H651 0.958 . S
C637 H652 0.961 . S
C637 H653 0.960 . S
H638 C622 0.931 . S
H639 C627 0.929 . S
H640 C628 0.960 . S
H641 C628 0.962 . S
H642 C628 0.960 . S
H643 C629 0.961 . S
H644 C629 0.961 . S
H645 C629 0.961 . S
H646 C630 0.931 . S
H647 C635 0.930 . S
H648 C636 0.956 . S
H649 C636 0.961 . S
H650 C636 0.961 . S
H651 C637 0.958 . S
H652 C637 0.961 . S
H653 C637 0.960 . S
C654 C655 1.391 1_565 S
C654 C656 1.394 . S
C654 H670 0.931 . S
C655 C654 1.391 1_545 S
C655 C659 1.376 . S
C656 C654 1.394 . S
C656 C657 1.369 1_565 S
C656 C660 1.531 . S
C657 C656 1.369 1_545 S
C657 C658 1.410 . S
C657 C665 1.503 . S
C658 C657 1.410 . S
C658 C659 1.392 . S
C658 C661 1.511 . S
C659 C655 1.376 . S
C659 C658 1.392 . S
C659 H671 0.929 . S
C660 C656 1.531 . S
C660 H672 0.960 . S
C660 H673 0.962 . S
C660 H674 0.960 . S
C661 C658 1.511 . S
C661 H675 0.961 . S
C661 H676 0.961 . S
C661 H677 0.961 . S
C662 C663 1.378 1_565 S
C662 C664 1.363 . S
C662 H678 0.931 . S
C663 C662 1.378 1_545 S
C663 C667 1.400 . S
C664 C662 1.363 . S
C664 C665 1.370 1_565 S
C664 C668 1.524 . S
C665 C657 1.503 . S
C665 C664 1.370 1_545 S
C665 C666 1.403 . S
C666 C665 1.403 . S
C666 C667 1.404 . S
C666 C669 1.539 . S
C667 C663 1.400 . S
C667 C666 1.404 . S
C667 H679 0.930 . S
C668 C664 1.524 . S
C668 H680 0.956 . S
C668 H681 0.961 1_565 S
C668 H682 0.961 . S
C669 C666 1.539 . S
C669 H683 0.958 . S
C669 H684 0.961 . S
C669 H685 0.960 . S
H670 C654 0.931 . S
H671 C659 0.929 . S
H672 C660 0.960 . S
H673 C660 0.962 . S
H674 C660 0.960 . S
H675 C661 0.961 . S
H676 C661 0.961 . S
H677 C661 0.961 . S
H678 C662 0.931 . S
H679 C667 0.930 . S
H680 C668 0.956 . S
H681 C668 0.961 1_545 S
H682 C668 0.961 . S
H683 C669 0.958 . S
H684 C669 0.961 . S
H685 C669 0.960 . S
C686 C687 1.391 . S
C686 C688 1.394 . S
C686 H702 0.931 . S
C687 C686 1.391 . S
C687 C691 1.376 . S
C688 C686 1.394 . S
C688 C689 1.369 . S
C688 C692 1.531 . S
C689 C688 1.369 . S
C689 C690 1.410 . S
C689 C697 1.503 . S
C690 C689 1.410 . S
C690 C691 1.392 . S
C690 C693 1.511 . S
C691 C687 1.376 . S
C691 C690 1.392 . S
C691 H703 0.929 . S
C692 C688 1.531 . S
C692 H704 0.960 . S
C692 H705 0.962 . S
C692 H706 0.960 . S
C693 C690 1.511 . S
C693 H707 0.961 . S
C693 H708 0.961 . S
C693 H709 0.961 . S
C694 C695 1.370 . S
C694 C696 1.363 1_554 S
C694 H710 0.931 . S
C695 C694 1.370 . S
C695 C699 1.408 . S
C696 C694 1.363 1_556 S
C696 C697 1.370 . S
C696 C700 1.524 . S
C697 C689 1.503 . S
C697 C696 1.370 . S
C697 C698 1.403 . S
C698 C697 1.403 . S
C698 C699 1.404 1_556 S
C698 C701 1.539 . S
C699 C695 1.408 . S
C699 C698 1.404 1_554 S
C699 H711 0.930 . S
C700 C696 1.524 . S
C700 H712 0.956 . S
C700 H713 0.961 . S
C700 H714 0.961 . S
C701 C698 1.539 . S
C701 H715 0.958 . S
C701 H716 0.961 1_556 S
C701 H717 0.960 . S
H702 C686 0.931 . S
H703 C691 0.929 . S
H704 C692 0.960 . S
H705 C692 0.962 . S
H706 C692 0.960 . S
H707 C693 0.961 . S
H708 C693 0.961 . S
H709 C693 0.961 . S
H710 C694 0.931 . S
H711 C699 0.930 . S
H712 C700 0.956 . S
H713 C700 0.961 . S
H714 C700 0.961 . S
H715 C701 0.958 . S
H716 C701 0.961 1_554 S
H717 C701 0.960 . S
C718 C719 1.391 . S
C718 C720 1.394 . S
C718 H734 0.931 . S
C719 C718 1.391 . S
C719 C723 1.376 1_455 S
C720 C718 1.394 . S
C720 C721 1.369 . S
C720 C724 1.531 . S
C721 C720 1.369 . S
C721 C722 1.410 1_455 S
C721 C729 1.503 . S
C722 C721 1.410 1_655 S
C722 C723 1.392 . S
C722 C725 1.511 . S
C723 C719 1.376 1_655 S
C723 C722 1.392 . S
C723 H735 0.929 . S
C724 C720 1.531 . S
C724 H736 0.960 . S
C724 H737 0.962 . S
C724 H738 0.960 . S
C725 C722 1.511 . S
C725 H739 0.961 . S
C725 H740 0.961 . S
C725 H741 0.961 . S
C726 C727 1.376 1_655 S
C726 C728 1.363 . S
C726 H742 0.931 . S
C727 C726 1.376 1_455 S
C727 C731 1.403 . S
C728 C726 1.363 . S
C728 C729 1.370 1_655 S
C728 C732 1.524 . S
C729 C721 1.503 . S
C729 C728 1.370 1_455 S
C729 C730 1.403 . S
C730 C729 1.403 . S
C730 C731 1.404 . S
C730 C733 1.539 . S
C731 C727 1.403 . S
C731 C730 1.404 . S
C731 H743 0.930 . S
C732 C728 1.524 . S
C732 H744 0.956 1_655 S
C732 H745 0.961 . S
C732 H746 0.961 . S
C733 C730 1.539 . S
C733 H747 0.958 . S
C733 H748 0.961 . S
C733 H749 0.960 . S
H734 C718 0.931 . S
H735 C723 0.929 . S
H736 C724 0.960 . S
H737 C724 0.962 . S
H738 C724 0.960 . S
H739 C725 0.961 . S
H740 C725 0.961 . S
H741 C725 0.961 . S
H742 C726 0.931 . S
H743 C731 0.930 . S
H744 C732 0.956 1_455 S
H745 C732 0.961 . S
H746 C732 0.961 . S
H747 C733 0.958 . S
H748 C733 0.961 . S
H749 C733 0.960 . S
C175 C6 0.775 . S
C183 C169 0.677 . S
C207 C59 1.824 . S
C215 C151 1.798 . S
C239 C86 1.318 . S
C247 C163 1.352 . S
C271 C15 0.613 . S
C279 C172 0.536 . S
C311 C154 1.829 . S
C303 C50 1.823 . S
C343 C160 1.391 . S
C335 C95 1.366 . S
C367 C46 1.305 . S
C375 C133 1.313 . S
C399 C99 2.987 . S
C407 C142 2.954 1_655 S
C431 C10 1.879 . S
C439 C124 1.885 . S
C471 C136 1.379 . S
C463 C55 1.306 . S
C503 C145 2.897 . S
C495 C90 2.877 . S
C527 C19 1.813 . S
C535 C127 1.790 . S
C567 C143 1.790 . S
C559 C18 1.724 . S
C591 C49 1.310 . S
C599 C125 1.366 . S
C623 C98 1.413 . S
C631 C134 1.506 . S
C663 C161 1.478 1_545 S
C655 C58 1.454 . S
C695 C170 1.045 . S
C687 C89 1.032 . S
C719 C9 1.333 . S
C727 C152 1.351 . S
