# Generated by pormake.
# Topology anh, (6,3)-cn, num edge types: 1
# Building blocks:
#     Node 0, Type 0, BuildingBlock: CUKXOW_clean_sbu_0, # of connection points: 6
#     Node 1, Type 0, BuildingBlock: CUKXOW_clean_sbu_0, # of connection points: 6
#     Node 2, Type 0, BuildingBlock: CUKXOW_clean_sbu_0, # of connection points: 6
#     Node 3, Type 1, BuildingBlock: MIDCAF_clean_linker_0, # of connection points: 3
#     Node 4, Type 1, BuildingBlock: MIDCAF_clean_linker_0, # of connection points: 3
#     Node 5, Type 1, BuildingBlock: MIDCAF_clean_linker_0, # of connection points: 3
#     Node 6, Type 1, BuildingBlock: MIDCAF_clean_linker_0, # of connection points: 3
#     Node 7, Type 1, BuildingBlock: MIDCAF_clean_linker_0, # of connection points: 3
#     Node 8, Type 1, BuildingBlock: MIDCAF_clean_linker_0, # of connection points: 3
#     Edge 9, Type (0, 1), BuildingBlock: ZUJKAS_clean_linker_0, # of connection points: 2
#     Edge 10, Type (0, 1), BuildingBlock: ZUJKAS_clean_linker_0, # of connection points: 2
#     Edge 11, Type (0, 1), BuildingBlock: ZUJKAS_clean_linker_0, # of connection points: 2
#     Edge 12, Type (0, 1), BuildingBlock: ZUJKAS_clean_linker_0, # of connection points: 2
#     Edge 13, Type (0, 1), BuildingBlock: ZUJKAS_clean_linker_0, # of connection points: 2
#     Edge 14, Type (0, 1), BuildingBlock: ZUJKAS_clean_linker_0, # of connection points: 2
#     Edge 15, Type (0, 1), BuildingBlock: ZUJKAS_clean_linker_0, # of connection points: 2
#     Edge 16, Type (0, 1), BuildingBlock: ZUJKAS_clean_linker_0, # of connection points: 2
#     Edge 17, Type (0, 1), BuildingBlock: ZUJKAS_clean_linker_0, # of connection points: 2
#     Edge 18, Type (0, 1), BuildingBlock: ZUJKAS_clean_linker_0, # of connection points: 2
#     Edge 19, Type (0, 1), BuildingBlock: ZUJKAS_clean_linker_0, # of connection points: 2
#     Edge 20, Type (0, 1), BuildingBlock: ZUJKAS_clean_linker_0, # of connection points: 2
#     Edge 21, Type (0, 1), BuildingBlock: ZUJKAS_clean_linker_0, # of connection points: 2
#     Edge 22, Type (0, 1), BuildingBlock: ZUJKAS_clean_linker_0, # of connection points: 2
#     Edge 23, Type (0, 1), BuildingBlock: ZUJKAS_clean_linker_0, # of connection points: 2
#     Edge 24, Type (0, 1), BuildingBlock: ZUJKAS_clean_linker_0, # of connection points: 2
#     Edge 25, Type (0, 1), BuildingBlock: ZUJKAS_clean_linker_0, # of connection points: 2
#     Edge 26, Type (0, 1), BuildingBlock: ZUJKAS_clean_linker_0, # of connection points: 2
# Relax obj value: 0.133
# Max RMSD: 0.194
# Mean RMSD: 0.138
data_MOF--net-anh--node1-CUKXOW_clean_sbu_0--node2-MIDCAF_clean_linker_0--edge1-ZUJKAS_clean_linker_0
_symmetry_space_group_name_H-M    P1
_symmetry_Int_Tables_number       1
_symmetry_cell_setting            triclinic
loop_
_symmetry_equiv_pos_as_xyz
'x, y, z'
_cell_length_a     43.655257
_cell_length_b     42.676469
_cell_length_c     80.728814
_cell_angle_alpha  95.538421
_cell_angle_beta   90.210527
_cell_angle_gamma 116.12393
loop_
_atom_site_label
_atom_site_type_symbol
_atom_site_fract_x
_atom_site_fract_y
_atom_site_fract_z
_atom_type_partial_charge
Tb0 Tb 0.07233 0.52392 0.15487 0.0
C1 C 0.0438 0.48773 0.18673 0.0
Tb2 Tb 0.02051 0.44353 0.1512 0.0
O3 O 0.03213 0.53836 0.16353 0.0
O4 O 0.01941 0.49217 0.1481 0.0
O5 O 0.07075 0.51229 0.18048 0.0
C6 C 0.96249 0.38442 0.15041 0.0
O7 O 0.01867 0.46209 0.17722 0.0
C8 C 0.0853 0.45357 0.15299 0.0
C9 C 0.05384 0.47803 0.11916 0.0
O10 O 0.98835 0.39399 0.16093 0.0
O11 O 0.96945 0.40794 0.14012 0.0
O12 O 0.05918 0.42276 0.15054 0.0
O13 O 0.07292 0.47522 0.15442 0.0
O14 O 0.02883 0.45065 0.12506 0.0
O15 O 0.07492 0.50703 0.12869 0.0
C16 C 0.12655 0.58605 0.15497 0.0
O17 O 0.09841 0.57577 0.14596 0.0
O18 O 0.12402 0.56146 0.16396 0.0
C19 C 1.00699 0.50953 0.15683 0.0
Tb20 Tb 0.50211 0.00902 0.50857 0.0
C21 C 0.53982 0.03473 0.47587 0.0
Tb22 Tb 0.57891 0.06821 0.51128 0.0
O23 O 0.48553 0.04669 0.50012 0.0
O24 O 0.52939 0.06388 0.51567 0.0
O25 O 0.51517 0.00846 0.48261 0.0
C26 C 0.63106 0.13181 0.51264 0.0
O27 O 0.56465 0.06203 0.48479 0.0
C28 C 0.57436 0.00392 0.50693 0.0
C29 C 0.54327 0.03726 0.54375 0.0
O30 O 0.603 0.12091 0.50351 0.0
O31 O 0.62988 0.10679 0.52102 0.0
O32 O 0.60339 0.03209 0.50791 0.0
O33 O 0.55164 0.0142 0.50801 0.0
O34 O 0.5672 0.06479 0.53742 0.0
O35 O 0.51794 0.01098 0.53453 0.0
C36 C 0.4438 0.95118 0.5092 0.0
O37 O 0.47007 0.95328 0.501 0.0
O38 O 0.45034 0.98168 0.51704 0.0
C39 C 0.51192 0.07394 0.50712 0.0
Tb40 Tb 0.53169 0.53131 0.83157 0.0
C41 C 0.56772 0.5315 0.86568 0.0
Tb42 Tb 0.60785 0.54087 0.83295 0.0
O43 O 0.50596 0.47333 0.83185 0.0
O44 O 0.55806 0.50136 0.83244 0.0
O45 O 0.54538 0.53981 0.85828 0.0
C46 C 0.66261 0.5299 0.82784 0.0
O47 O 0.5908 0.52466 0.85739 0.0
C48 C 0.59917 0.59821 0.83778 0.0
C49 C 0.57113 0.53678 0.79792 0.0
O50 O 0.66074 0.55237 0.83935 0.0
O51 O 0.63365 0.51347 0.81936 0.0
O52 O 0.6262 0.59625 0.84334 0.0
O53 O 0.58142 0.57053 0.82856 0.0
O54 O 0.59849 0.53858 0.80611 0.0
O55 O 0.54359 0.53566 0.8054 0.0
C56 C 0.48227 0.5513 0.83137 0.0
O57 O 0.48313 0.52597 0.82136 0.0
O58 O 0.50865 0.56457 0.84185 0.0
C59 C 0.53468 0.47087 0.83243 0.0
C60 C 0.42381 0.91279 0.20865 0.0
C61 C 0.42078 0.90893 0.19119 0.0
C62 C 0.44427 0.93562 0.18247 0.0
C63 C 0.47093 0.96522 0.19113 0.0
H64 H 0.56597 0.05205 0.18556 0.0
H65 H 0.61657 0.09194 0.17226 0.0
H66 H 0.66499 0.14166 0.22069 0.0
H67 H 0.61516 0.10204 0.23396 0.0
H68 H 0.58321 0.07075 0.26635 0.0
H69 H 0.58445 0.07278 0.2966 0.0
H70 H 0.4778 0.99804 0.29396 0.0
H71 H 0.47678 0.99517 0.26375 0.0
H72 H 0.45157 0.94401 0.23075 0.0
H73 H 0.40573 0.8929 0.21571 0.0
H74 H 0.44245 0.93324 0.16898 0.0
H75 H 0.48899 0.98513 0.1841 0.0
N76 N 0.52967 0.02219 0.21023 0.0
N77 N 0.55623 0.0523 0.23613 0.0
N78 N 0.50314 0.00316 0.23501 0.0
C79 C 0.55648 0.04894 0.21922 0.0
C80 C 0.5296 0.02962 0.24412 0.0
C81 C 0.50286 0.99915 0.21811 0.0
C82 C 0.58644 0.07361 0.21086 0.0
C83 C 0.5874 0.0715 0.19337 0.0
C84 C 0.61631 0.09442 0.18573 0.0
C85 C 0.64487 0.11968 0.19543 0.0
C86 C 0.64366 0.12204 0.21287 0.0
C87 C 0.61487 0.09938 0.22047 0.0
C88 C 0.52996 0.03262 0.26257 0.0
C89 C 0.55996 0.05487 0.27221 0.0
C90 C 0.56064 0.05616 0.28959 0.0
C91 C 0.53127 0.03541 0.29774 0.0
C92 C 0.50108 0.01383 0.2881 0.0
C93 C 0.50045 0.01235 0.27074 0.0
C94 C 0.47422 0.96876 0.20865 0.0
C95 C 0.45006 0.94231 0.21727 0.0
C96 C 0.58451 0.44885 0.52967 0.0
C97 C 0.56102 0.42944 0.51631 0.0
C98 C 0.54037 0.4435 0.50978 0.0
C99 C 0.54218 0.4756 0.51698 0.0
H100 H 0.56606 0.59477 0.51195 0.0
H101 H 0.56237 0.64494 0.50128 0.0
H102 H 0.52462 0.66745 0.54807 0.0
H103 H 0.52804 0.61769 0.55863 0.0
H104 H 0.56163 0.60212 0.59134 0.0
H105 H 0.56475 0.6028 0.6216 0.0
H106 H 0.57026 0.5038 0.61576 0.0
H107 H 0.56687 0.50276 0.58567 0.0
H108 H 0.60319 0.49389 0.54777 0.0
H109 H 0.60052 0.43866 0.53512 0.0
H110 H 0.52214 0.42918 0.49943 0.0
H111 H 0.525 0.48514 0.51222 0.0
N112 N 0.55568 0.54789 0.53376 0.0
N113 N 0.55561 0.57565 0.5604 0.0
N114 N 0.56459 0.52541 0.5578 0.0
C115 C 0.5528 0.57433 0.54353 0.0
C116 C 0.56145 0.55128 0.56763 0.0
C117 C 0.56171 0.52339 0.54095 0.0
C118 C 0.54757 0.60231 0.53618 0.0
C119 C 0.55652 0.61015 0.51985 0.0
C120 C 0.55461 0.639 0.51377 0.0
C121 C 0.54323 0.6602 0.52383 0.0
C122 C 0.53313 0.65148 0.53992 0.0
C123 C 0.53537 0.62303 0.54602 0.0
C124 C 0.56392 0.55236 0.58602 0.0
C125 C 0.56352 0.58049 0.59649 0.0
C126 C 0.56547 0.581 0.61383 0.0
C127 C 0.5676 0.55328 0.62103 0.0
C128 C 0.56816 0.52529 0.61057 0.0
C129 C 0.56643 0.52486 0.59329 0.0
C130 C 0.56418 0.4937 0.53102 0.0
C131 C 0.58591 0.48044 0.53699 0.0
C132 C 0.96807 0.51685 0.85877 0.0
C133 C 0.96882 0.51633 0.84132 0.0
C134 C 1.00041 0.52667 0.83389 0.0
C135 C 0.03058 0.53829 0.84373 0.0
H136 H 0.13251 0.61178 0.84476 0.0
H137 H 0.18687 0.63836 0.83158 0.0
H138 H 0.23908 0.6346 0.8764 0.0
H139 H 0.18523 0.60909 0.88968 0.0
H140 H 0.14377 0.57078 0.91914 0.0
H141 H 0.14159 0.55265 0.94698 0.0
H142 H 0.0313 0.50142 0.94204 0.0
H143 H 0.03334 0.51878 0.91413 0.0
H144 H 0.99657 0.5286 0.88197 0.0
H145 H 0.94443 0.50997 0.86503 0.0
H146 H 1.00192 0.52615 0.82049 0.0
H147 H 0.05457 0.54651 0.83766 0.0
N148 N 0.09188 0.57375 0.86561 0.0
N149 N 0.12008 0.57753 0.89103 0.0
N150 N 0.06071 0.54448 0.88752 0.0
C151 C 0.12125 0.5864 0.87524 0.0
C152 C 0.08988 0.55661 0.89728 0.0
C153 C 0.06154 0.55285 0.87168 0.0
C154 C 0.1544 0.60753 0.86816 0.0
C155 C 0.15567 0.61726 0.85192 0.0
C156 C 0.18683 0.63255 0.84435 0.0
C157 C 0.2173 0.63828 0.85284 0.0
C158 C 0.21622 0.631 0.86952 0.0
C159 C 0.18515 0.6159 0.8771 0.0
C160 C 0.08873 0.54627 0.91435 0.0
C161 C 0.11903 0.55566 0.92397 0.0
C162 C 0.1178 0.54536 0.93996 0.0
C163 C 0.08628 0.5255 0.94671 0.0
C164 C 0.05602 0.51618 0.93711 0.0
C165 C 0.05722 0.5264 0.92112 0.0
C166 C 0.0297 0.53933 0.86117 0.0
C167 C 0.99809 0.52792 0.86856 0.0
C168 C 0.11089 0.66019 0.45269 0.0
C169 C 0.11859 0.66101 0.46968 0.0
C170 C 0.09828 0.63222 0.47818 0.0
C171 C 0.07103 0.60296 0.46976 0.0
H172 H 0.98222 0.5131 0.47659 0.0
H173 H 0.93778 0.46832 0.49101 0.0
H174 H 0.88897 0.41151 0.44362 0.0
H175 H 0.93286 0.45623 0.42918 0.0
H176 H 0.96962 0.47963 0.39607 0.0
H177 H 0.97125 0.4717 0.36583 0.0
H178 H 0.05684 0.57435 0.36717 0.0
H179 H 0.055 0.58267 0.39729 0.0
H180 H 0.07918 0.63103 0.43109 0.0
H181 H 0.12638 0.68179 0.44575 0.0
H182 H 0.1036 0.63226 0.4913 0.0
H183 H 0.0561 0.58097 0.47658 0.0
N184 N 0.01251 0.54493 0.45146 0.0
N185 N 0.98773 0.51167 0.4259 0.0
N186 N 0.03614 0.5657 0.42642 0.0
C187 C 0.98781 0.51567 0.44282 0.0
C188 C 1.01185 0.53656 0.4176 0.0
C189 C 0.0367 0.57012 0.44331 0.0
C190 C 0.96115 0.48839 0.4517 0.0
C191 C 0.962 0.49111 0.46923 0.0
C192 C 0.93664 0.46538 0.47751 0.0
C193 C 0.90981 0.43652 0.46845 0.0
C194 C 0.90903 0.43374 0.45096 0.0
C195 C 0.93438 0.45932 0.44268 0.0
C196 C 1.01218 0.5318 0.39917 0.0
C197 C 0.98871 0.5006 0.38994 0.0
C198 C 0.98975 0.49593 0.3726 0.0
C199 C 0.01417 0.52239 0.36411 0.0
C200 C 0.03743 0.55365 0.37332 0.0
C201 C 0.03647 0.5583 0.39063 0.0
C202 C 0.06395 0.6018 0.45263 0.0
C203 C 0.08399 0.63091 0.44425 0.0
C204 C 0.52674 0.12095 0.81078 0.0
C205 C 0.54848 0.14119 0.82458 0.0
C206 C 0.57056 0.12932 0.83158 0.0
C207 C 0.57156 0.09838 0.82451 0.0
H208 H 0.56088 0.98617 0.83135 0.0
H209 H 0.56143 0.93491 0.84251 0.0
H210 H 0.56986 0.89304 0.79281 0.0
H211 H 0.5691 0.94325 0.7817 0.0
H212 H 0.55975 0.97349 0.75057 0.0
H213 H 0.55983 0.97369 0.72036 0.0
H214 H 0.56037 0.0756 0.72567 0.0
H215 H 0.56066 0.07575 0.75579 0.0
H216 H 0.51204 0.07648 0.79256 0.0
H217 H 0.50977 0.12949 0.80493 0.0
H218 H 0.58754 0.14436 0.84225 0.0
H219 H 0.58962 0.09041 0.82969 0.0
N220 N 0.55936 0.02508 0.80787 0.0
N221 N 0.56299 0.99891 0.7814 0.0
N222 N 0.55614 0.05032 0.78367 0.0
C223 C 0.56272 0.99872 0.79824 0.0
C224 C 0.5599 0.02464 0.77402 0.0
C225 C 0.5559 0.05088 0.8005 0.0
C226 C 0.56469 0.96892 0.80559 0.0
C227 C 0.56294 0.96605 0.82283 0.0
C228 C 0.56332 0.93674 0.82923 0.0
C229 C 0.56518 0.90965 0.8185 0.0
C230 C 0.56761 0.91298 0.80138 0.0
C231 C 0.5674 0.9421 0.79502 0.0
C232 C 0.56019 0.0246 0.75566 0.0
C233 C 0.55998 0.996 0.74532 0.0
C234 C 0.55985 0.996 0.728 0.0
C235 C 0.56017 0.02468 0.72066 0.0
C236 C 0.56056 0.05331 0.73098 0.0
C237 C 0.56049 0.05325 0.74826 0.0
C238 C 0.55101 0.0794 0.81017 0.0
C239 C 0.52816 0.09062 0.80362 0.0
C240 C 0.64914 0.46323 0.12163 0.0
C241 C 0.66358 0.47705 0.13784 0.0
C242 C 0.64634 0.49127 0.14865 0.0
C243 C 0.61616 0.49251 0.14315 0.0
H244 H 0.48503 0.45502 0.14482 0.0
H245 H 0.43074 0.45302 0.15436 0.0
H246 H 0.44301 0.53577 0.12427 0.0
H247 H 0.49664 0.53796 0.11513 0.0
H248 H 0.50112 0.49627 0.07441 0.0
H249 H 0.50224 0.50051 0.04455 0.0
H250 H 0.6038 0.50682 0.04459 0.0
H251 H 0.60229 0.50145 0.07431 0.0
H252 H 0.60989 0.45433 0.10343 0.0
H253 H 0.66158 0.45257 0.11276 0.0
H254 H 0.65638 0.50187 0.1613 0.0
H255 H 0.60421 0.50465 0.15154 0.0
N256 N 0.54886 0.48807 0.12832 0.0
N257 N 0.52557 0.49745 0.10393 0.0
N258 N 0.57488 0.48922 0.10272 0.0
C259 C 0.52421 0.49403 0.12051 0.0
C260 C 0.55067 0.49503 0.09494 0.0
C261 C 0.5745 0.48572 0.11928 0.0
C262 C 0.49523 0.49667 0.12923 0.0
C263 C 0.47647 0.47338 0.14067 0.0
C264 C 0.44513 0.47196 0.14594 0.0
C265 C 0.43214 0.49412 0.14005 0.0
C266 C 0.45204 0.51854 0.1293 0.0
C267 C 0.48292 0.51971 0.12397 0.0
C268 C 0.55157 0.49842 0.0768 0.0
C269 C 0.52372 0.49859 0.06807 0.0
C270 C 0.52443 0.50121 0.05093 0.0
C271 C 0.5531 0.50396 0.04212 0.0
C272 C 0.58105 0.5041 0.05089 0.0
C273 C 0.58025 0.50123 0.068 0.0
C274 C 0.60278 0.47986 0.12667 0.0
C275 C 0.61937 0.46454 0.11619 0.0
H276 H 0.10985 0.40517 0.15195 0.0
H277 H 0.16912 0.41422 0.15095 0.0
H278 H 0.20285 0.52567 0.15147 0.0
H279 H 0.14322 0.51651 0.1524 0.0
H280 H 0.21589 0.44294 0.1271 0.0
H281 H 0.26449 0.52112 0.18869 0.0
H282 H 0.21943 0.49662 0.18303 0.0
H283 H 0.24396 0.53804 0.17518 0.0
C284 C 0.12987 0.43168 0.15193 0.0
C285 C 0.12178 0.46023 0.1525 0.0
C286 C 0.16383 0.43682 0.15136 0.0
C287 C 0.19074 0.47068 0.15141 0.0
C288 C 0.18275 0.49933 0.15182 0.0
H289 H 0.4119 0.54668 0.14637 0.0
H290 H 0.35394 0.5408 0.1492 0.0
C291 C 0.14861 0.49413 0.15236 0.0
C292 C 0.22681 0.47545 0.15051 0.0
H293 H 0.30507 0.51345 0.17156 0.0
C294 C 0.23535 0.45832 0.13686 0.0
C295 C 0.2524 0.4956 0.16318 0.0
C296 C 0.2447 0.5137 0.17844 0.0
C297 C 0.26857 0.46102 0.13541 0.0
C298 C 0.29408 0.48072 0.1482 0.0
C299 C 0.28564 0.49815 0.16179 0.0
C300 C 0.32974 0.48408 0.14749 0.0
C301 C 0.2762 0.44339 0.11995 0.0
C302 C 0.33596 0.45427 0.1461 0.0
C303 C 0.36923 0.45752 0.14435 0.0
C304 C 0.39725 0.49073 0.14403 0.0
C305 C 0.39105 0.5206 0.14622 0.0
C306 C 0.35781 0.51731 0.14795 0.0
H307 H 0.25734 0.43808 0.1095 0.0
H308 H 0.30216 0.45976 0.11584 0.0
H309 H 0.27492 0.41787 0.12268 0.0
H310 H 0.31497 0.42833 0.14613 0.0
H311 H 0.37277 0.43387 0.14263 0.0
H312 H 0.69297 0.15644 0.52943 0.0
H313 H 0.74285 0.21299 0.52769 0.0
H314 H 0.68484 0.24127 0.49383 0.0
H315 H 0.63498 0.18525 0.49574 0.0
H316 H 0.77548 0.23486 0.49915 0.0
H317 H 0.73001 0.33014 0.52588 0.0
H318 H 0.70877 0.28412 0.52884 0.0
H319 H 0.70072 0.29907 0.50993 0.0
C320 C 0.69081 0.17503 0.52184 0.0
C321 C 0.66028 0.1666 0.51269 0.0
C322 C 0.71923 0.20725 0.52086 0.0
C323 C 0.71737 0.23154 0.51084 0.0
C324 C 0.6866 0.22331 0.50196 0.0
H325 H 0.84112 0.40563 0.46101 0.0
H326 H 0.79675 0.35747 0.47387 0.0
C327 C 0.65825 0.19118 0.50294 0.0
C328 C 0.74826 0.264 0.50832 0.0
H329 H 0.77754 0.35245 0.50807 0.0
C330 C 0.77628 0.26069 0.50141 0.0
C331 C 0.74918 0.29761 0.5113 0.0
C332 C 0.72067 0.30303 0.51956 0.0
C333 C 0.80438 0.28985 0.49648 0.0
C334 C 0.80454 0.32319 0.49874 0.0
C335 C 0.77721 0.32677 0.50631 0.0
C336 C 0.83142 0.35397 0.492 0.0
C337 C 0.83279 0.28448 0.48806 0.0
C338 C 0.86547 0.36832 0.49818 0.0
C339 C 0.89095 0.39572 0.49078 0.0
C340 C 0.88269 0.40914 0.4771 0.0
C341 C 0.84835 0.39542 0.47134 0.0
C342 C 0.82295 0.36814 0.47875 0.0
H343 H 0.82599 0.25623 0.48477 0.0
H344 H 0.83925 0.29787 0.47655 0.0
H345 H 0.85598 0.29609 0.49659 0.0
H346 H 0.87239 0.35793 0.50853 0.0
H347 H 0.91721 0.40568 0.49545 0.0
H348 H 0.63276 0.65844 0.85882 0.0
H349 H 0.62391 0.71163 0.86054 0.0
H350 H 0.54398 0.66244 0.82169 0.0
H351 H 0.55243 0.60938 0.82012 0.0
H352 H 0.63226 0.75352 0.83654 0.0
H353 H 0.49817 0.70211 0.85465 0.0
H354 H 0.5227 0.67757 0.85585 0.0
H355 H 0.50254 0.67746 0.83632 0.0
C356 C 0.61305 0.65894 0.85082 0.0
C357 C 0.59309 0.62976 0.83945 0.0
C358 C 0.60796 0.68926 0.85182 0.0
C359 C 0.5828 0.69085 0.84148 0.0
C360 C 0.56282 0.66157 0.83015 0.0
H361 H 0.52907 0.84148 0.80524 0.0
H362 H 0.53332 0.78982 0.81334 0.0
C363 C 0.56782 0.6313 0.82919 0.0
C364 C 0.57928 0.72398 0.8415 0.0
H365 H 0.52092 0.75728 0.84289 0.0
C366 C 0.60806 0.75452 0.83824 0.0
C367 C 0.54765 0.72525 0.84365 0.0
C368 C 0.51612 0.69391 0.84798 0.0
C369 C 0.60575 0.78576 0.83626 0.0
C370 C 0.5739 0.78673 0.83789 0.0
C371 C 0.54533 0.75652 0.84167 0.0
C372 C 0.56918 0.81785 0.83427 0.0
C373 C 0.63706 0.81695 0.8316 0.0
C374 C 0.58716 0.85068 0.84366 0.0
C375 C 0.58494 0.88045 0.83898 0.0
C376 C 0.56469 0.87781 0.82483 0.0
C377 C 0.54542 0.84453 0.81601 0.0
C378 C 0.54762 0.81491 0.82069 0.0
H379 H 0.65764 0.80971 0.82761 0.0
H380 H 0.6306 0.82898 0.82137 0.0
H381 H 0.6472 0.83707 0.84256 0.0
H382 H 0.60351 0.85343 0.85437 0.0
H383 H 0.60008 0.90569 0.84603 0.0
H384 H 0.97933 0.54725 0.17471 0.0
H385 H 0.92033 0.53956 0.17319 0.0
H386 H 0.89306 0.4501 0.13645 0.0
H387 H 0.95232 0.45813 0.13772 0.0
H388 H 0.88348 0.54078 0.14403 0.0
H389 H 0.81821 0.414 0.17096 0.0
H390 H 0.86373 0.44121 0.17383 0.0
H391 H 0.84582 0.41481 0.15436 0.0
C392 C 0.96072 0.52573 0.16639 0.0
C393 C 0.97052 0.50304 0.15646 0.0
C394 C 0.92696 0.52138 0.16554 0.0
C395 C 0.90199 0.494 0.15486 0.0
C396 C 0.91161 0.47103 0.14503 0.0
H397 H 0.68692 0.42754 0.12924 0.0
H398 H 0.7442 0.43258 0.13386 0.0
C399 C 0.94552 0.47556 0.14579 0.0
C400 C 0.86646 0.49069 0.15348 0.0
H401 H 0.78289 0.43674 0.15983 0.0
C402 C 0.86149 0.5181 0.14756 0.0
C403 C 0.83767 0.46103 0.15797 0.0
C404 C 0.84143 0.43113 0.16476 0.0
C405 C 0.82864 0.51638 0.14566 0.0
C406 C 0.79975 0.48688 0.15034 0.0
C407 C 0.80482 0.45949 0.15632 0.0
C408 C 0.76406 0.48331 0.14849 0.0
C409 C 0.82526 0.54572 0.13805 0.0
C410 C 0.75528 0.50955 0.15559 0.0
C411 C 0.72244 0.50704 0.1527 0.0
C412 C 0.69729 0.47797 0.1428 0.0
C413 C 0.70566 0.45082 0.13655 0.0
C414 C 0.73851 0.45351 0.13931 0.0
H415 H 0.84768 0.56051 0.13076 0.0
H416 H 0.80186 0.53554 0.12971 0.0
H417 H 0.8237 0.56448 0.14813 0.0
H418 H 0.77401 0.53234 0.16319 0.0
H419 H 0.71723 0.52854 0.15775 0.0
H420 H 0.38483 0.94574 0.52273 0.0
H421 H 0.32877 0.89461 0.51952 0.0
H422 H 0.37269 0.83461 0.4914 0.0
H423 H 0.42861 0.88586 0.49429 0.0
H424 H 0.31694 0.83241 0.47542 0.0
H425 H 0.2882 0.80277 0.54055 0.0
H426 H 0.29955 0.84762 0.53755 0.0
H427 H 0.3306 0.83083 0.53455 0.0
C428 C 0.38255 0.92145 0.51608 0.0
C429 C 0.41088 0.91965 0.50869 0.0
C430 C 0.35061 0.89222 0.51436 0.0
C431 C 0.34667 0.8607 0.50541 0.0
C432 C 0.37523 0.85866 0.49843 0.0
H433 H 0.16782 0.65895 0.48991 0.0
H434 H 0.22238 0.70811 0.50012 0.0
C435 C 0.4071 0.8879 0.50007 0.0
C436 C 0.31232 0.83095 0.50192 0.0
H437 H 0.24181 0.77415 0.52016 0.0
C438 C 0.3006 0.81955 0.48521 0.0
C439 C 0.29118 0.81409 0.51471 0.0
C440 C 0.30309 0.82419 0.53285 0.0
C441 C 0.26813 0.79206 0.48091 0.0
C442 C 0.2465 0.77603 0.49369 0.0
C443 C 0.25835 0.7869 0.51042 0.0
C444 C 0.21177 0.74738 0.48973 0.0
C445 C 0.25744 0.78011 0.4627 0.0
C446 C 0.18734 0.75352 0.48111 0.0
C447 C 0.15629 0.72558 0.47525 0.0
C448 C 0.14905 0.69107 0.47805 0.0
C449 C 0.17265 0.68529 0.48764 0.0
C450 C 0.20383 0.71329 0.49344 0.0
H451 H 0.27973 0.78911 0.45469 0.0
H452 H 0.24339 0.75105 0.46049 0.0
H453 H 0.24022 0.79121 0.45876 0.0
H454 H 0.19281 0.7798 0.47841 0.0
H455 H 0.1383 0.73083 0.46813 0.0
H456 H 0.59365 0.46424 0.83705 0.0
H457 H 0.59945 0.40967 0.83764 0.0
H458 H 0.48994 0.34997 0.83147 0.0
H459 H 0.48418 0.40425 0.83041 0.0
H460 H 0.57277 0.35643 0.85876 0.0
H461 H 0.52345 0.3047 0.79356 0.0
H462 H 0.53624 0.34987 0.8016 0.0
H463 H 0.49491 0.3163 0.80572 0.0
C464 C 0.57092 0.43943 0.83562 0.0
C465 C 0.53853 0.43837 0.83334 0.0
C466 C 0.57422 0.40832 0.83609 0.0
C467 C 0.54517 0.37569 0.83427 0.0
C468 C 0.51276 0.37477 0.8325 0.0
H469 H 0.49453 0.15652 0.82985 0.0
H470 H 0.49606 0.21471 0.83405 0.0
C471 C 0.50948 0.4058 0.83198 0.0
C472 C 0.54848 0.34246 0.83411 0.0
H473 H 0.52776 0.26423 0.81066 0.0
C474 C 0.56321 0.33635 0.8482 0.0
C475 C 0.53625 0.31642 0.82027 0.0
C476 C 0.52215 0.32222 0.80436 0.0
C477 C 0.56478 0.30428 0.84905 0.0
C478 C 0.55151 0.27788 0.8354 0.0
C479 C 0.53756 0.28437 0.82119 0.0
C480 C 0.5512 0.24298 0.83551 0.0
C481 C 0.57969 0.29842 0.86466 0.0
C482 C 0.58174 0.23953 0.83538 0.0
C483 C 0.58094 0.20619 0.83295 0.0
C484 C 0.54957 0.17582 0.83048 0.0
C485 C 0.51909 0.17941 0.83154 0.0
C486 C 0.51992 0.21263 0.83396 0.0
H487 H 0.58275 0.31852 0.8752 0.0
H488 H 0.56328 0.27198 0.86841 0.0
H489 H 0.60523 0.29979 0.86221 0.0
H490 H 0.60617 0.26261 0.8363 0.0
H491 H 0.60484 0.20433 0.83198 0.0
H492 H 0.51875 0.94642 0.51514 0.0
H493 H 0.51251 0.88644 0.51508 0.0
H494 H 0.61391 0.91951 0.49719 0.0
H495 H 0.62014 0.9795 0.49729 0.0
H496 H 0.51623 0.83869 0.48997 0.0
H497 H 0.61898 0.87615 0.53922 0.0
H498 H 0.60106 0.90526 0.53439 0.0
H499 H 0.6324 0.90024 0.52144 0.0
C500 C 0.53935 0.94066 0.51086 0.0
C501 C 0.56972 0.96739 0.50602 0.0
C502 C 0.5359 0.90648 0.51096 0.0
C503 C 0.56291 0.89856 0.50634 0.0
C504 C 0.59298 0.92514 0.50111 0.0
H505 H 0.5937 0.7104 0.50791 0.0
H506 H 0.59738 0.76699 0.50168 0.0
C507 C 0.59646 0.95933 0.50109 0.0
C508 C 0.55989 0.86274 0.50736 0.0
H509 H 0.59558 0.81767 0.52637 0.0
C510 C 0.53355 0.83407 0.49793 0.0
C511 C 0.58246 0.85672 0.5178 0.0
C512 C 0.61012 0.88614 0.52892 0.0
C513 C 0.52945 0.79961 0.49851 0.0
C514 C 0.55204 0.79366 0.50894 0.0
C515 C 0.57846 0.82233 0.51828 0.0
C516 C 0.54804 0.75785 0.51094 0.0
C517 C 0.50122 0.76989 0.48784 0.0
C518 C 0.51892 0.73379 0.51804 0.0
C519 C 0.51673 0.70146 0.5216 0.0
C520 C 0.54367 0.69255 0.51815 0.0
C521 C 0.57233 0.71625 0.51052 0.0
C522 C 0.57457 0.74868 0.50705 0.0
H523 H 0.49209 0.77947 0.47746 0.0
H524 H 0.50984 0.7503 0.48253 0.0
H525 H 0.47929 0.75644 0.49562 0.0
H526 H 0.49837 0.74051 0.52139 0.0
H527 H 0.49423 0.6837 0.52738 0.0
H528 H 0.72109 0.55475 0.84722 0.0
H529 H 0.7727 0.54799 0.84096 0.0
H530 H 0.72539 0.489 0.79375 0.0
H531 H 0.67306 0.49447 0.80034 0.0
H532 H 0.75792 0.45894 0.80795 0.0
H533 H 0.84477 0.59983 0.8103 0.0
H534 H 0.82326 0.59162 0.8294 0.0
H535 H 0.79896 0.58366 0.81001 0.0
C536 C 0.72177 0.54038 0.83552 0.0
C537 C 0.69335 0.52527 0.82422 0.0
C538 C 0.75134 0.53683 0.83186 0.0
C539 C 0.75324 0.51889 0.81666 0.0
C540 C 0.72459 0.50328 0.80546 0.0
H541 H 0.96168 0.54645 0.81392 0.0
H542 H 0.90865 0.54059 0.80103 0.0
C543 C 0.69477 0.50638 0.80924 0.0
C544 C 0.7848 0.51533 0.81296 0.0
H545 H 0.87123 0.56229 0.8166 0.0
C546 C 0.78274 0.48158 0.80945 0.0
C547 C 0.81713 0.54485 0.8142 0.0
C548 C 0.82109 0.582 0.81597 0.0
C549 C 0.81233 0.47643 0.80877 0.0
C550 C 0.84458 0.50568 0.81232 0.0
C551 C 0.84659 0.53962 0.8142 0.0
C552 C 0.87577 0.50191 0.81659 0.0
C553 C 0.80853 0.43963 0.80464 0.0
C554 C 0.87502 0.48081 0.82904 0.0
C555 C 0.90529 0.4833 0.83608 0.0
C556 C 0.93706 0.50784 0.83124 0.0
C557 C 0.93776 0.52714 0.81794 0.0
C558 C 0.90738 0.52402 0.81062 0.0
H559 H 0.78708 0.42454 0.79526 0.0
H560 H 0.83219 0.43948 0.79973 0.0
H561 H 0.80227 0.42582 0.81603 0.0
H562 H 0.85118 0.46414 0.8342 0.0
H563 H 0.90376 0.46735 0.84599 0.0
H564 H 0.18665 0.60846 0.17279 0.0
H565 H 0.23673 0.66542 0.17345 0.0
H566 H 0.18518 0.69734 0.13781 0.0
H567 H 0.1347 0.64032 0.13723 0.0
H568 H 0.27698 0.69776 0.14656 0.0
H569 H 0.21483 0.77606 0.17711 0.0
H570 H 0.19663 0.72895 0.17681 0.0
H571 H 0.19377 0.74807 0.15837 0.0
C572 C 0.18598 0.62764 0.16511 0.0
C573 C 0.1568 0.62019 0.15505 0.0
C574 C 0.21461 0.66008 0.16545 0.0
C575 C 0.2145 0.68567 0.1558 0.0
C576 C 0.18556 0.6781 0.14552 0.0
H577 H 0.3759 0.90379 0.16602 0.0
H578 H 0.32659 0.85031 0.1537 0.0
C579 C 0.15685 0.64556 0.14517 0.0
C580 C 0.24474 0.7203 0.15681 0.0
H581 H 0.2731 0.80629 0.1722 0.0
C582 C 0.27609 0.7216 0.15198 0.0
C583 C 0.2434 0.75138 0.16374 0.0
C584 C 0.21047 0.75128 0.16943 0.0
C585 C 0.3064 0.75294 0.15446 0.0
C586 C 0.30535 0.78358 0.16222 0.0
C587 C 0.27377 0.78273 0.16625 0.0
C588 C 0.33691 0.81545 0.16808 0.0
C589 C 0.33939 0.75282 0.14905 0.0
C590 C 0.35898 0.81345 0.18015 0.0
C591 C 0.38687 0.84374 0.18718 0.0
C592 C 0.3932 0.87671 0.18234 0.0
C593 C 0.37171 0.87865 0.16987 0.0
C594 C 0.34356 0.84822 0.16289 0.0
H595 H 0.33472 0.73177 0.13874 0.0
H596 H 0.35708 0.77847 0.14493 0.0
H597 H 0.35208 0.74777 0.15971 0.0
H598 H 0.35397 0.78855 0.18458 0.0
H599 H 0.40315 0.84146 0.19668 0.0
H600 H 0.55856 0.13247 0.52594 0.0
H601 H 0.56822 0.19341 0.5249 0.0
H602 H 0.49048 0.15939 0.48517 0.0
H603 H 0.48088 0.09847 0.48607 0.0
H604 H 0.55482 0.22273 0.48089 0.0
H605 H 0.49587 0.22818 0.54142 0.0
H606 H 0.52848 0.2132 0.54139 0.0
H607 H 0.48888 0.18726 0.52959 0.0
C608 C 0.54376 0.13807 0.51689 0.0
C609 C 0.51892 0.11082 0.5061 0.0
C610 C 0.5492 0.17281 0.51636 0.0
C611 C 0.52984 0.1808 0.50505 0.0
C612 C 0.50563 0.15373 0.49399 0.0
H613 H 0.50077 0.37001 0.51049 0.0
H614 H 0.49282 0.3093 0.50568 0.0
C615 C 0.50009 0.11898 0.49456 0.0
C616 C 0.53394 0.21719 0.50514 0.0
H617 H 0.52081 0.28068 0.52865 0.0
C618 C 0.5474 0.23547 0.4913 0.0
C619 C 0.52384 0.23349 0.51867 0.0
C620 C 0.5082 0.21456 0.53359 0.0
C621 C 0.55154 0.26996 0.49078 0.0
C622 C 0.54203 0.28648 0.50446 0.0
C623 C 0.52811 0.26796 0.51818 0.0
C624 C 0.54678 0.32321 0.50506 0.0
C625 C 0.5657 0.28837 0.47556 0.0
C626 C 0.57972 0.35115 0.50598 0.0
C627 C 0.58434 0.38586 0.5087 0.0
C628 C 0.55607 0.39327 0.51056 0.0
C629 C 0.52303 0.36523 0.50888 0.0
C630 C 0.51845 0.33052 0.50626 0.0
H631 H 0.56438 0.26963 0.46471 0.0
H632 H 0.55161 0.30323 0.47212 0.0
H633 H 0.59289 0.30737 0.47832 0.0
H634 H 0.60195 0.3461 0.5053 0.0
H635 H 0.61009 0.40691 0.50989 0.0
H636 H 0.47822 0.60416 0.85143 0.0
H637 H 0.43639 0.62749 0.8489 0.0
H638 H 0.39003 0.55511 0.80482 0.0
H639 H 0.43113 0.53101 0.80758 0.0
H640 H 0.41902 0.65796 0.82334 0.0
H641 H 0.31139 0.53149 0.83575 0.0
H642 H 0.35547 0.54044 0.83907 0.0
H643 H 0.33573 0.52827 0.81836 0.0
C644 C 0.45892 0.59312 0.84128 0.0
C645 C 0.45729 0.56535 0.8299 0.0
C646 C 0.43532 0.60666 0.83976 0.0
C647 C 0.40992 0.59267 0.8268 0.0
C648 C 0.40909 0.56578 0.81507 0.0
H649 H 0.22238 0.6116 0.82143 0.0
H650 H 0.2729 0.60884 0.81028 0.0
C651 C 0.43247 0.55202 0.81668 0.0
C652 C 0.38305 0.6047 0.82622 0.0
H653 H 0.29775 0.57691 0.83039 0.0
C654 C 0.39241 0.64026 0.82472 0.0
C655 C 0.34846 0.58148 0.82807 0.0
C656 C 0.33708 0.54338 0.83055 0.0
C657 C 0.36795 0.65331 0.82526 0.0
C658 C 0.33352 0.6302 0.82747 0.0
C659 C 0.32414 0.59449 0.82845 0.0
C660 C 0.30707 0.64238 0.83086 0.0
C661 C 0.37914 0.69167 0.82365 0.0
C662 C 0.31006 0.66406 0.84559 0.0
C663 C 0.2812 0.66606 0.85194 0.0
C664 C 0.2489 0.64594 0.84378 0.0
C665 C 0.24681 0.62754 0.82805 0.0
C666 C 0.2757 0.6258 0.82165 0.0
H667 H 0.40287 0.70288 0.81672 0.0
H668 H 0.35889 0.69576 0.8172 0.0
H669 H 0.38455 0.70633 0.83627 0.0
H670 H 0.33392 0.67675 0.853 0.0
H671 H 0.28372 0.68102 0.86392 0.0
H672 H 0.94663 0.33426 0.17143 0.0
H673 H 0.89026 0.28714 0.17543 0.0
H674 H 0.84656 0.31933 0.1363 0.0
H675 H 0.9032 0.36656 0.13214 0.0
H676 H 0.83363 0.30079 0.18425 0.0
H677 H 0.80595 0.21055 0.12565 0.0
H678 H 0.84881 0.24229 0.13263 0.0
H679 H 0.82004 0.2564 0.12359 0.0
C680 C 0.92511 0.33094 0.16349 0.0
C681 C 0.92919 0.35393 0.15146 0.0
C682 C 0.89296 0.30406 0.1658 0.0
C683 C 0.86434 0.29961 0.15608 0.0
C684 C 0.86845 0.32198 0.14373 0.0
H685 H 0.64932 0.15594 0.16851 0.0
H686 H 0.70146 0.19965 0.15753 0.0
C687 C 0.90073 0.34895 0.1414 0.0
C688 C 0.83001 0.27337 0.15995 0.0
H689 H 0.76307 0.19534 0.14528 0.0
C690 C 0.81815 0.2778 0.17571 0.0
C691 C 0.80977 0.24367 0.14869 0.0
C692 C 0.82171 0.2376 0.13171 0.0
C693 C 0.78684 0.25297 0.18066 0.0
C694 C 0.76715 0.22257 0.16967 0.0
C695 C 0.77838 0.21863 0.15368 0.0
C696 C 0.73579 0.19396 0.17506 0.0
C697 C 0.77513 0.2594 0.19768 0.0
C698 C 0.73804 0.17563 0.18816 0.0
C699 C 0.70851 0.15079 0.1944 0.0
C700 C 0.6761 0.14366 0.18762 0.0
C701 C 0.67394 0.16084 0.17396 0.0
C702 C 0.70363 0.18583 0.16771 0.0
H703 H 0.78819 0.28759 0.20265 0.0
H704 H 0.7471 0.25068 0.19729 0.0
H705 H 0.7812 0.24423 0.20646 0.0
H706 H 0.76269 0.18107 0.19377 0.0
H707 H 0.71104 0.13744 0.20469 0.0
H708 H 0.10082 0.52901 0.10225 0.0
H709 H 0.10589 0.52889 0.07221 0.0
H710 H 0.02284 0.42453 0.06467 0.0
H711 H 0.01704 0.42448 0.09481 0.0
H712 H 0.11802 0.48359 0.04853 0.0
H713 H 0.99133 0.4814 0.03675 0.0
H714 H 1.01143 0.49074 0.05738 0.0
H715 H 0.99091 0.44637 0.04758 0.0
C716 C 0.08361 0.5059 0.09427 0.0
C717 C 0.05825 0.47686 0.10097 0.0
C718 C 0.08666 0.50589 0.07708 0.0
C719 C 0.06443 0.47693 0.06624 0.0
C720 C 0.03982 0.4474 0.07285 0.0
H721 H 0.04406 0.4625 0.95761 0.0
H722 H 0.0394 0.44685 0.98619 0.0
C723 C 0.03666 0.44739 0.09008 0.0
C724 C 0.06667 0.47844 0.04804 0.0
H725 H 0.02395 0.48266 0.01349 0.0
C726 C 0.09738 0.48312 0.04082 0.0
C727 C 0.03966 0.4778 0.03806 0.0
C728 C 1.00653 0.47409 0.0453 0.0
C729 C 0.10201 0.48774 0.02389 0.0
C730 C 0.07537 0.48812 0.01404 0.0
C731 C 0.04428 0.48231 0.02112 0.0
C732 C 0.07984 0.49661 0.99662 0.0
C733 C 0.13539 0.49232 0.01669 0.0
C734 C 0.10403 0.52982 0.99309 0.0
C735 C 0.10658 0.53896 0.97683 0.0
C736 C 0.08482 0.51509 0.96382 0.0
C737 C 0.06089 0.48164 0.96739 0.0
C738 C 0.05834 0.47255 0.98367 0.0
H739 H 0.14895 0.48159 0.02436 0.0
H740 H 0.13126 0.47923 0.00375 0.0
H741 H 0.15219 0.52074 0.01639 0.0
H742 H 0.12032 0.54905 0.00299 0.0
H743 H 0.12486 0.56512 0.97455 0.0
H744 H 0.57879 0.08762 0.45748 0.0
H745 H 0.57659 0.08741 0.42726 0.0
H746 H 0.49821 0.9804 0.42233 0.0
H747 H 0.49965 0.98053 0.45261 0.0
H748 H 0.58882 0.04633 0.40281 0.0
H749 H 0.45527 0.0279 0.39564 0.0
H750 H 0.47821 0.03924 0.41565 0.0
H751 H 0.45929 0.99456 0.40611 0.0
C752 C 0.56104 0.06399 0.45 0.0
C753 C 0.53924 0.03413 0.4575 0.0
C754 C 0.55982 0.06395 0.43272 0.0
C755 C 0.53682 0.03412 0.42257 0.0
C756 C 0.51555 0.00401 0.42996 0.0
H757 H 0.50059 0.97955 0.3159 0.0
H758 H 0.50222 0.97991 0.34618 0.0
C759 C 0.51657 0.00407 0.44727 0.0
C760 C 0.53562 0.03444 0.40424 0.0
H761 H 0.48261 0.02354 0.3707 0.0
C762 C 0.56565 0.04153 0.3958 0.0
C763 C 0.50536 0.02827 0.39513 0.0
C764 C 0.47278 0.0224 0.40359 0.0
C765 C 0.56608 0.04203 0.37844 0.0
C766 C 0.53577 0.0355 0.36936 0.0
C767 C 0.50575 0.02843 0.37776 0.0
C768 C 0.53467 0.03568 0.35108 0.0
C769 C 0.59876 0.04893 0.36988 0.0
C770 C 0.55208 0.06705 0.34388 0.0
C771 C 0.55089 0.06707 0.32657 0.0
C772 C 0.53227 0.03566 0.31617 0.0
C773 C 0.51474 0.0043 0.32352 0.0
C774 C 0.5158 0.00437 0.34081 0.0
H775 H 0.61807 0.04705 0.3782 0.0
H776 H 0.59365 0.03004 0.35855 0.0
H777 H 0.60978 0.07576 0.36591 0.0
H778 H 0.56639 0.09156 0.35166 0.0
H779 H 0.56422 0.09176 0.32137 0.0
H780 H 0.62565 0.54971 0.7783 0.0
H781 H 0.62774 0.55538 0.74843 0.0
H782 H 0.52128 0.53305 0.74636 0.0
H783 H 0.51903 0.52804 0.77622 0.0
H784 H 0.59226 0.5081 0.72207 0.0
H785 H 0.56454 0.62321 0.72445 0.0
H786 H 0.57575 0.60891 0.74288 0.0
H787 H 0.53273 0.58729 0.7339 0.0
C788 C 0.60266 0.54603 0.77152 0.0
C789 C 0.57223 0.5387 0.77971 0.0
C790 C 0.60393 0.54932 0.75444 0.0
C791 C 0.57486 0.54538 0.74526 0.0
C792 C 0.54426 0.53716 0.7533 0.0
H793 H 0.53221 0.49869 0.63908 0.0
H794 H 0.5358 0.49795 0.66925 0.0
C795 C 0.54299 0.53407 0.77037 0.0
C796 C 0.57625 0.54897 0.72718 0.0
H797 H 0.56062 0.59268 0.69751 0.0
C798 C 0.58559 0.52676 0.7167 0.0
C799 C 0.56812 0.57377 0.72025 0.0
C800 C 0.56007 0.5999 0.73097 0.0
C801 C 0.586 0.52793 0.69939 0.0
C802 C 0.57607 0.5514 0.69238 0.0
C803 C 0.56779 0.57439 0.7029 0.0
C804 C 0.57362 0.55213 0.67413 0.0
C805 C 0.59735 0.5042 0.68882 0.0
C806 C 0.59278 0.5832 0.66694 0.0
C807 C 0.59057 0.58377 0.64969 0.0
C808 C 0.56913 0.55326 0.63938 0.0
C809 C 0.54946 0.52241 0.64668 0.0
C810 C 0.55155 0.52192 0.6639 0.0
H811 H 0.61351 0.49597 0.69623 0.0
H812 H 0.57452 0.48016 0.6837 0.0
H813 H 0.61195 0.51733 0.67822 0.0
H814 H 0.6098 0.60687 0.67464 0.0
H815 H 0.60615 0.60787 0.6444 0.0
H816 H 0.50282 0.9835 0.56144 0.0
H817 H 0.50586 0.98111 0.59151 0.0
H818 H 0.59027 0.0847 0.59738 0.0
H819 H 0.58743 0.08758 0.56738 0.0
H820 H 0.56403 0.98869 0.61161 0.0
H821 H 0.52051 0.09051 0.63087 0.0
H822 H 0.51371 0.06909 0.60985 0.0
H823 H 0.55499 0.10336 0.61697 0.0
C824 C 0.52195 0.0059 0.56911 0.0
C825 C 0.54479 0.03582 0.56198 0.0
C826 C 0.52366 0.00441 0.58628 0.0
C827 C 0.54801 0.03288 0.59663 0.0
C828 C 0.57095 0.06268 0.5896 0.0
H829 H 0.59841 0.0786 0.7027 0.0
H830 H 0.59603 0.07944 0.67247 0.0
C831 C 0.56936 0.06418 0.57243 0.0
C832 C 0.54984 0.03115 0.61479 0.0
H833 H 0.54076 0.06933 0.65236 0.0
C834 C 0.55882 0.00618 0.62055 0.0
C835 C 0.54309 0.0541 0.62635 0.0
C836 C 0.53225 0.08063 0.62076 0.0
C837 C 0.5619 0.004 0.63767 0.0
C838 C 0.55511 0.02694 0.64925 0.0
C839 C 0.54601 0.05183 0.64345 0.0
C840 C 0.5573 0.0257 0.66746 0.0
C841 C 0.57322 0.97777 0.64319 0.0
C842 C 0.53621 0.99524 0.67465 0.0
C843 C 0.53755 0.99468 0.69191 0.0
C844 C 0.55973 0.02472 0.70229 0.0
C845 C 0.58084 0.05516 0.69504 0.0
C846 C 0.5796 0.05565 0.67778 0.0
H847 H 0.5862 0.96916 0.63321 0.0
H848 H 0.59086 0.98893 0.65444 0.0
H849 H 0.55051 0.95421 0.64632 0.0
H850 H 0.51823 0.97212 0.66694 0.0
H851 H 0.5206 0.97104 0.69717 0.0
H852 H 0.53109 0.55209 0.88789 0.0
H853 H 0.52916 0.54824 0.91791 0.0
H854 H 0.59814 0.50049 0.9146 0.0
H855 H 0.60085 0.50489 0.88466 0.0
H856 H 0.50785 0.49093 0.935 0.0
H857 H 0.64449 0.579 0.95175 0.0
H858 H 0.62496 0.57613 0.93157 0.0
H859 H 0.63818 0.54338 0.93622 0.0
C860 C 0.54598 0.54088 0.89353 0.0
C861 C 0.56632 0.52902 0.88386 0.0
C862 C 0.54483 0.53871 0.91071 0.0
C863 C 0.56398 0.52466 0.91855 0.0
C864 C 0.58386 0.51227 0.90889 0.0
H865 H 0.57958 0.47356 0.01846 0.0
H866 H 0.58171 0.47883 0.98855 0.0
C867 C 0.58522 0.51464 0.89174 0.0
C868 C 0.56245 0.52218 0.93676 0.0
H869 H 0.61173 0.54612 0.973 0.0
C870 C 0.53053 0.5032 0.94332 0.0
C871 C 0.59208 0.53827 0.94761 0.0
C872 C 0.62682 0.56063 0.94148 0.0
C873 C 0.52755 0.4993 0.9604 0.0
C874 C 0.55721 0.51496 0.97115 0.0
C875 C 0.58909 0.53403 0.96465 0.0
C876 C 0.55567 0.51182 0.98925 0.0
C877 C 0.49283 0.47795 0.96681 0.0
C878 C 0.5406 0.52895 -0.00048 0.0
C879 C 0.53971 0.5264 0.01667 0.0
C880 C 0.55385 0.5066 0.02385 0.0
C881 C 0.56891 0.48946 0.01343 0.0
C882 C 0.56997 0.49222 0.99631 0.0
H883 H 0.47349 0.46249 0.95654 0.0
H884 H 0.49418 0.4597 0.97539 0.0
H885 H 0.4841 0.49584 0.97393 0.0
H886 H 0.52986 0.54461 0.99429 0.0
H887 H 0.52845 0.54043 0.02432 0.0
H888 H 0.99172 0.4438 0.20437 0.0
H889 H 0.98611 0.4483 0.23449 0.0
H890 H 0.08298 0.54062 0.2407 0.0
H891 H 0.08912 0.53625 0.21059 0.0
H892 H 0.07459 0.49093 0.26326 0.0
H893 H 0.96416 0.52264 0.26123 0.0
H894 H 0.95853 0.48355 0.24834 0.0
H895 H 0.9905 0.52553 0.2437 0.0
C896 C 1.0119 0.46508 0.21211 0.0
C897 C 0.0408 0.4898 0.20503 0.0
C898 C 1.00853 0.46768 0.22932 0.0
C899 C 0.03388 0.49508 0.23976 0.0
C900 C 0.06306 0.51937 0.23281 0.0
H901 H 0.02342 0.56991 0.34191 0.0
H902 H 0.02841 0.56244 0.31177 0.0
C903 C 0.06648 0.51684 0.2156 0.0
C904 C 0.03006 0.49842 0.25795 0.0
H905 H 0.98049 0.51267 0.28749 0.0
C906 C 0.05404 0.49568 0.26859 0.0
C907 C 1.00341 0.50499 0.26481 0.0
C908 C 0.97781 0.50968 0.25397 0.0
C909 C 0.05191 0.49902 0.28596 0.0
C910 C 0.02483 0.50482 0.2928 0.0
C911 C 1.00103 0.50789 0.28217 0.0
C912 C 0.02134 0.50885 0.311 0.0
C913 C 0.07901 0.49702 0.29686 0.0
C914 C 0.01521 0.48099 0.32048 0.0
C915 C 0.0125 0.48522 0.33771 0.0
C916 C 0.01578 0.51738 0.34574 0.0
C917 C 0.02129 0.545 0.33613 0.0
C918 C 0.02394 0.54072 0.31891 0.0
H919 H 0.10203 0.50052 0.28992 0.0
H920 H 0.08682 0.5173 0.30778 0.0
H921 H 0.06856 0.47088 0.30156 0.0
H922 H 0.01261 0.45601 0.31455 0.0
H923 H 1.00847 0.46353 0.34478 0.0
loop_
_geom_bond_atom_site_label_1
_geom_bond_atom_site_label_2
_geom_bond_distance
_geom_bond_site_symmetry_2
_ccdc_geom_bond_type
Tb0 O3 2.453 1_455 S
Tb0 O4 2.596 1_455 S
Tb0 O5 2.374 . S
Tb0 O13 2.343 . S
Tb0 O15 2.353 . S
Tb0 O17 2.427 . S
Tb0 O18 2.513 . S
C1 O5 1.251 . S
C1 O7 1.263 . S
Tb2 O4 2.343 1_455 S
Tb2 O7 2.353 . S
Tb2 O10 2.427 1_455 S
Tb2 O11 2.513 1_455 S
Tb2 O12 2.453 . S
Tb2 O13 2.596 . S
Tb2 O14 2.374 . S
O3 Tb0 2.453 1_655 S
O3 C19 1.245 . S
O4 Tb0 2.596 1_655 S
O4 Tb2 2.343 1_655 S
O4 C19 1.259 . S
O5 Tb0 2.374 . S
O5 C1 1.251 . S
C6 O10 1.275 . S
C6 O11 1.246 . S
O7 C1 1.263 . S
O7 Tb2 2.353 . S
C8 O12 1.245 . S
C8 O13 1.259 . S
C9 O14 1.250 . S
C9 O15 1.263 . S
O10 Tb2 2.427 1_655 S
O10 C6 1.275 . S
O11 Tb2 2.513 1_655 S
O11 C6 1.246 . S
O12 Tb2 2.453 . S
O12 C8 1.245 . S
O13 Tb0 2.343 . S
O13 Tb2 2.596 . S
O13 C8 1.259 . S
O14 Tb2 2.374 . S
O14 C9 1.250 . S
O15 Tb0 2.353 . S
O15 C9 1.263 . S
C16 O17 1.275 . S
C16 O18 1.246 . S
O17 Tb0 2.427 . S
O17 C16 1.275 . S
O18 Tb0 2.513 . S
O18 C16 1.246 . S
C19 O3 1.245 . S
C19 O4 1.259 . S
Tb20 O23 2.453 . S
Tb20 O24 2.596 . S
Tb20 O25 2.374 . S
Tb20 O33 2.343 1_545 S
Tb20 O35 2.353 . S
Tb20 O37 2.427 1_545 S
Tb20 O38 2.513 1_545 S
C21 O25 1.251 . S
C21 O27 1.263 . S
Tb22 O24 2.343 . S
Tb22 O27 2.353 . S
Tb22 O30 2.427 . S
Tb22 O31 2.513 . S
Tb22 O32 2.453 1_545 S
Tb22 O33 2.596 1_545 S
Tb22 O34 2.374 . S
O23 Tb20 2.453 . S
O23 C39 1.245 . S
O24 Tb20 2.596 . S
O24 Tb22 2.343 . S
O24 C39 1.259 . S
O25 Tb20 2.374 . S
O25 C21 1.251 . S
C26 O30 1.275 . S
C26 O31 1.246 . S
O27 C21 1.263 . S
O27 Tb22 2.353 . S
C28 O32 1.245 . S
C28 O33 1.259 . S
C29 O34 1.250 . S
C29 O35 1.263 . S
O30 Tb22 2.427 . S
O30 C26 1.275 . S
O31 Tb22 2.513 . S
O31 C26 1.246 . S
O32 Tb22 2.453 1_565 S
O32 C28 1.245 . S
O33 Tb20 2.343 1_565 S
O33 Tb22 2.596 1_565 S
O33 C28 1.259 . S
O34 Tb22 2.374 . S
O34 C29 1.250 . S
O35 Tb20 2.353 . S
O35 C29 1.263 . S
C36 O37 1.275 . S
C36 O38 1.246 . S
O37 Tb20 2.427 1_565 S
O37 C36 1.275 . S
O38 Tb20 2.513 1_565 S
O38 C36 1.246 . S
C39 O23 1.245 . S
C39 O24 1.259 . S
Tb40 O43 2.453 . S
Tb40 O44 2.596 . S
Tb40 O45 2.374 . S
Tb40 O53 2.343 . S
Tb40 O55 2.353 . S
Tb40 O57 2.427 . S
Tb40 O58 2.513 . S
C41 O45 1.251 . S
C41 O47 1.263 . S
Tb42 O44 2.343 . S
Tb42 O47 2.353 . S
Tb42 O50 2.427 . S
Tb42 O51 2.513 . S
Tb42 O52 2.453 . S
Tb42 O53 2.596 . S
Tb42 O54 2.374 . S
O43 Tb40 2.453 . S
O43 C59 1.245 . S
O44 Tb40 2.596 . S
O44 Tb42 2.343 . S
O44 C59 1.259 . S
O45 Tb40 2.374 . S
O45 C41 1.251 . S
C46 O50 1.275 . S
C46 O51 1.246 . S
O47 C41 1.263 . S
O47 Tb42 2.353 . S
C48 O52 1.245 . S
C48 O53 1.259 . S
C49 O54 1.250 . S
C49 O55 1.263 . S
O50 Tb42 2.427 . S
O50 C46 1.275 . S
O51 Tb42 2.513 . S
O51 C46 1.246 . S
O52 Tb42 2.453 . S
O52 C48 1.245 . S
O53 Tb40 2.343 . S
O53 Tb42 2.596 . S
O53 C48 1.259 . S
O54 Tb42 2.374 . S
O54 C49 1.250 . S
O55 Tb40 2.353 . S
O55 C49 1.263 . S
C56 O57 1.275 . S
C56 O58 1.246 . S
O57 Tb40 2.427 . S
O57 C56 1.275 . S
O58 Tb40 2.513 . S
O58 C56 1.246 . S
C59 O43 1.245 . S
C59 O44 1.259 . S
C60 C61 1.384 . S
C60 H73 0.947 . S
C60 C95 1.382 . S
C61 C60 1.384 . S
C61 C62 1.378 . S
C62 C61 1.378 . S
C62 C63 1.378 . S
C62 H74 0.952 . S
C63 C62 1.378 . S
C63 H75 0.950 . S
C63 C94 1.383 . S
H64 C83 0.947 . S
H65 C84 0.946 . S
H66 C86 0.953 . S
H67 C87 0.945 . S
H68 C89 0.952 . S
H69 C90 0.949 . S
H70 C92 0.966 . S
H71 C93 0.948 1_565 S
H72 C95 0.951 . S
H73 C60 0.947 . S
H74 C62 0.952 . S
H75 C63 0.950 . S
N76 C79 1.382 . S
N76 C81 1.363 . S
N77 C79 1.371 . S
N77 C80 1.372 . S
N78 C80 1.361 . S
N78 C81 1.377 . S
C79 N76 1.382 . S
C79 N77 1.371 . S
C79 C82 1.480 . S
C80 N77 1.372 . S
C80 N78 1.361 . S
C80 C88 1.457 . S
C81 N76 1.363 . S
C81 N78 1.377 . S
C81 C94 1.479 1_545 S
C82 C79 1.480 . S
C82 C83 1.383 . S
C82 C87 1.385 . S
C83 H64 0.947 . S
C83 C82 1.383 . S
C83 C84 1.388 . S
C84 H65 0.946 . S
C84 C83 1.388 . S
C84 C85 1.384 . S
C85 C84 1.384 . S
C85 C86 1.377 . S
C86 H66 0.953 . S
C86 C85 1.377 . S
C86 C87 1.369 . S
C87 H67 0.945 . S
C87 C82 1.385 . S
C87 C86 1.369 . S
C88 C80 1.457 . S
C88 C89 1.372 . S
C88 C93 1.364 . S
C89 H68 0.952 . S
C89 C88 1.372 . S
C89 C90 1.389 . S
C90 H69 0.949 . S
C90 C89 1.389 . S
C90 C91 1.387 . S
C91 C90 1.387 . S
C91 C92 1.372 . S
C92 H70 0.966 . S
C92 C91 1.372 . S
C92 C93 1.379 . S
C93 H71 0.948 1_545 S
C93 C88 1.364 . S
C93 C92 1.379 . S
C94 C63 1.383 . S
C94 C81 1.479 1_565 S
C94 C95 1.398 . S
C95 C60 1.382 . S
C95 H72 0.951 . S
C95 C94 1.398 . S
C96 C97 1.384 . S
C96 H109 0.947 . S
C96 C131 1.382 . S
C97 C96 1.384 . S
C97 C98 1.378 . S
C98 C97 1.378 . S
C98 C99 1.378 . S
C98 H110 0.952 . S
C99 C98 1.378 . S
C99 H111 0.950 . S
C99 C130 1.383 . S
H100 C119 0.947 . S
H101 C120 0.946 . S
H102 C122 0.953 . S
H103 C123 0.945 . S
H104 C125 0.952 . S
H105 C126 0.949 . S
H106 C128 0.950 . S
H107 C129 0.948 . S
H108 C131 0.951 . S
H109 C96 0.947 . S
H110 C98 0.952 . S
H111 C99 0.950 . S
N112 C115 1.382 . S
N112 C117 1.363 . S
N113 C115 1.371 . S
N113 C116 1.372 . S
N114 C116 1.361 . S
N114 C117 1.377 . S
C115 N112 1.382 . S
C115 N113 1.371 . S
C115 C118 1.480 . S
C116 N113 1.372 . S
C116 N114 1.361 . S
C116 C124 1.457 . S
C117 N112 1.363 . S
C117 N114 1.377 . S
C117 C130 1.479 . S
C118 C115 1.480 . S
C118 C119 1.383 . S
C118 C123 1.385 . S
C119 H100 0.947 . S
C119 C118 1.383 . S
C119 C120 1.388 . S
C120 H101 0.946 . S
C120 C119 1.388 . S
C120 C121 1.384 . S
C121 C120 1.384 . S
C121 C122 1.377 . S
C122 H102 0.953 . S
C122 C121 1.377 . S
C122 C123 1.369 . S
C123 H103 0.945 . S
C123 C118 1.385 . S
C123 C122 1.369 . S
C124 C116 1.457 . S
C124 C125 1.372 . S
C124 C129 1.364 . S
C125 H104 0.952 . S
C125 C124 1.372 . S
C125 C126 1.389 . S
C126 H105 0.949 . S
C126 C125 1.389 . S
C126 C127 1.387 . S
C127 C126 1.387 . S
C127 C128 1.372 . S
C128 H106 0.950 . S
C128 C127 1.372 . S
C128 C129 1.379 . S
C129 H107 0.948 . S
C129 C124 1.364 . S
C129 C128 1.379 . S
C130 C99 1.383 . S
C130 C117 1.479 . S
C130 C131 1.398 . S
C131 C96 1.382 . S
C131 H108 0.951 . S
C131 C130 1.398 . S
C132 C133 1.384 . S
C132 H145 0.947 . S
C132 C167 1.382 . S
C133 C132 1.384 . S
C133 C134 1.378 . S
C134 C133 1.378 . S
C134 C135 1.378 1_655 S
C134 H146 0.952 . S
C135 C134 1.378 1_455 S
C135 H147 0.950 . S
C135 C166 1.383 . S
H136 C155 0.947 . S
H137 C156 0.946 . S
H138 C158 0.953 . S
H139 C159 0.945 . S
H140 C161 0.952 . S
H141 C162 0.949 . S
H142 C164 0.950 . S
H143 C165 0.948 . S
H144 C167 0.951 . S
H145 C132 0.947 . S
H146 C134 0.952 . S
H147 C135 0.950 . S
N148 C151 1.382 . S
N148 C153 1.363 . S
N149 C151 1.371 . S
N149 C152 1.372 . S
N150 C152 1.361 . S
N150 C153 1.377 . S
C151 N148 1.382 . S
C151 N149 1.371 . S
C151 C154 1.480 . S
C152 N149 1.372 . S
C152 N150 1.361 . S
C152 C160 1.457 . S
C153 N148 1.363 . S
C153 N150 1.377 . S
C153 C166 1.479 . S
C154 C151 1.480 . S
C154 C155 1.383 . S
C154 C159 1.385 . S
C155 H136 0.947 . S
C155 C154 1.383 . S
C155 C156 1.388 . S
C156 H137 0.946 . S
C156 C155 1.388 . S
C156 C157 1.384 . S
C157 C156 1.384 . S
C157 C158 1.377 . S
C158 H138 0.953 . S
C158 C157 1.377 . S
C158 C159 1.369 . S
C159 H139 0.945 . S
C159 C154 1.385 . S
C159 C158 1.369 . S
C160 C152 1.457 . S
C160 C161 1.372 . S
C160 C165 1.364 . S
C161 H140 0.952 . S
C161 C160 1.372 . S
C161 C162 1.389 . S
C162 H141 0.949 . S
C162 C161 1.389 . S
C162 C163 1.387 . S
C163 C162 1.387 . S
C163 C164 1.372 . S
C164 H142 0.950 . S
C164 C163 1.372 . S
C164 C165 1.379 . S
C165 H143 0.948 . S
C165 C160 1.364 . S
C165 C164 1.379 . S
C166 C135 1.383 . S
C166 C153 1.479 . S
C166 C167 1.398 1_455 S
C167 C132 1.382 . S
C167 H144 0.951 . S
C167 C166 1.398 1_655 S
C168 C169 1.384 . S
C168 H181 0.947 . S
C168 C203 1.382 . S
C169 C168 1.384 . S
C169 C170 1.378 . S
C170 C169 1.378 . S
C170 C171 1.378 . S
C170 H182 0.952 . S
C171 C170 1.378 . S
C171 H183 0.950 . S
C171 C202 1.383 . S
H172 C191 0.947 . S
H173 C192 0.946 . S
H174 C194 0.953 . S
H175 C195 0.945 . S
H176 C197 0.952 . S
H177 C198 0.949 . S
H178 C200 0.950 . S
H179 C201 0.948 . S
H180 C203 0.951 . S
H181 C168 0.947 . S
H182 C170 0.952 . S
H183 C171 0.950 . S
N184 C187 1.382 1_455 S
N184 C189 1.363 . S
N185 C187 1.371 . S
N185 C188 1.372 1_655 S
N186 C188 1.361 . S
N186 C189 1.377 . S
C187 N184 1.382 1_655 S
C187 N185 1.371 . S
C187 C190 1.480 . S
C188 N185 1.372 1_455 S
C188 N186 1.361 . S
C188 C196 1.457 . S
C189 N184 1.363 . S
C189 N186 1.377 . S
C189 C202 1.479 . S
C190 C187 1.480 . S
C190 C191 1.383 . S
C190 C195 1.385 . S
C191 H172 0.947 . S
C191 C190 1.383 . S
C191 C192 1.388 . S
C192 H173 0.946 . S
C192 C191 1.388 . S
C192 C193 1.384 . S
C193 C192 1.384 . S
C193 C194 1.377 . S
C194 H174 0.953 . S
C194 C193 1.377 . S
C194 C195 1.369 . S
C195 H175 0.945 . S
C195 C190 1.385 . S
C195 C194 1.369 . S
C196 C188 1.457 . S
C196 C197 1.372 1_455 S
C196 C201 1.364 . S
C197 H176 0.952 . S
C197 C196 1.372 1_655 S
C197 C198 1.389 . S
C198 H177 0.949 . S
C198 C197 1.389 . S
C198 C199 1.387 1_655 S
C199 C198 1.387 1_455 S
C199 C200 1.372 . S
C200 H178 0.950 . S
C200 C199 1.372 . S
C200 C201 1.379 . S
C201 H179 0.948 . S
C201 C196 1.364 . S
C201 C200 1.379 . S
C202 C171 1.383 . S
C202 C189 1.479 . S
C202 C203 1.398 . S
C203 C168 1.382 . S
C203 H180 0.951 . S
C203 C202 1.398 . S
C204 C205 1.384 . S
C204 H217 0.947 . S
C204 C239 1.382 . S
C205 C204 1.384 . S
C205 C206 1.378 . S
C206 C205 1.378 . S
C206 C207 1.378 . S
C206 H218 0.952 . S
C207 C206 1.378 . S
C207 H219 0.950 . S
C207 C238 1.383 . S
H208 C227 0.947 . S
H209 C228 0.946 . S
H210 C230 0.953 . S
H211 C231 0.945 . S
H212 C233 0.952 . S
H213 C234 0.949 . S
H214 C236 0.950 . S
H215 C237 0.948 . S
H216 C239 0.951 . S
H217 C204 0.947 . S
H218 C206 0.952 . S
H219 C207 0.950 . S
N220 C223 1.357 1_545 S
N220 C225 1.363 . S
N221 C223 1.371 . S
N221 C224 1.372 1_565 S
N222 C224 1.361 . S
N222 C225 1.377 . S
C223 N220 1.357 1_565 S
C223 N221 1.371 . S
C223 C226 1.507 . S
C224 N221 1.372 1_545 S
C224 N222 1.361 . S
C224 C232 1.457 . S
C225 N220 1.363 . S
C225 N222 1.377 . S
C225 C238 1.479 . S
C226 C223 1.507 . S
C226 C227 1.383 . S
C226 C231 1.385 . S
C227 H208 0.947 . S
C227 C226 1.383 . S
C227 C228 1.388 . S
C228 H209 0.946 . S
C228 C227 1.388 . S
C228 C229 1.384 . S
C229 C228 1.384 . S
C229 C230 1.377 . S
C230 H210 0.953 . S
C230 C229 1.377 . S
C230 C231 1.369 . S
C231 H211 0.945 . S
C231 C226 1.385 . S
C231 C230 1.369 . S
C232 C224 1.457 . S
C232 C233 1.372 1_545 S
C232 C237 1.364 . S
C233 H212 0.952 . S
C233 C232 1.372 1_565 S
C233 C234 1.389 . S
C234 H213 0.949 . S
C234 C233 1.389 . S
C234 C235 1.387 1_565 S
C235 C234 1.387 1_545 S
C235 C236 1.372 . S
C236 H214 0.950 . S
C236 C235 1.372 . S
C236 C237 1.379 . S
C237 H215 0.948 . S
C237 C232 1.364 . S
C237 C236 1.379 . S
C238 C207 1.383 . S
C238 C225 1.479 . S
C238 C239 1.398 . S
C239 C204 1.382 . S
C239 H216 0.951 . S
C239 C238 1.398 . S
C240 C241 1.384 . S
C240 H253 0.947 . S
C240 C275 1.382 . S
C241 C240 1.384 . S
C241 C242 1.378 . S
C242 C241 1.378 . S
C242 C243 1.378 . S
C242 H254 0.952 . S
C243 C242 1.378 . S
C243 H255 0.950 . S
C243 C274 1.383 . S
H244 C263 0.947 . S
H245 C264 0.946 . S
H246 C266 0.953 . S
H247 C267 0.945 . S
H248 C269 0.952 . S
H249 C270 0.949 . S
H250 C272 0.950 . S
H251 C273 0.948 . S
H252 C275 0.951 . S
H253 C240 0.947 . S
H254 C242 0.952 . S
H255 C243 0.950 . S
N256 C259 1.382 . S
N256 C261 1.363 . S
N257 C259 1.371 . S
N257 C260 1.372 . S
N258 C260 1.361 . S
N258 C261 1.377 . S
C259 N256 1.382 . S
C259 N257 1.371 . S
C259 C262 1.480 . S
C260 N257 1.372 . S
C260 N258 1.361 . S
C260 C268 1.457 . S
C261 N256 1.363 . S
C261 N258 1.377 . S
C261 C274 1.479 . S
C262 C259 1.480 . S
C262 C263 1.383 . S
C262 C267 1.385 . S
C263 H244 0.947 . S
C263 C262 1.383 . S
C263 C264 1.388 . S
C264 H245 0.946 . S
C264 C263 1.388 . S
C264 C265 1.384 . S
C265 C264 1.384 . S
C265 C266 1.377 . S
C266 H246 0.953 . S
C266 C265 1.377 . S
C266 C267 1.369 . S
C267 H247 0.945 . S
C267 C262 1.385 . S
C267 C266 1.369 . S
C268 C260 1.457 . S
C268 C269 1.372 . S
C268 C273 1.364 . S
C269 H248 0.952 . S
C269 C268 1.372 . S
C269 C270 1.389 . S
C270 H249 0.949 . S
C270 C269 1.389 . S
C270 C271 1.387 . S
C271 C270 1.387 . S
C271 C272 1.372 . S
C272 H250 0.950 . S
C272 C271 1.372 . S
C272 C273 1.379 . S
C273 H251 0.948 . S
C273 C268 1.364 . S
C273 C272 1.379 . S
C274 C243 1.383 . S
C274 C261 1.479 . S
C274 C275 1.398 . S
C275 C240 1.382 . S
C275 H252 0.951 . S
C275 C274 1.398 . S
H276 C284 0.929 . S
H277 C286 0.930 . S
H278 C288 0.930 . S
H279 C291 0.929 . S
H280 C294 0.930 . S
H281 C296 0.960 . S
H282 C296 0.960 . S
H283 C296 0.960 . S
C284 H276 0.929 . S
C284 C285 1.377 . S
C284 C286 1.384 . S
C285 C284 1.377 . S
C285 C291 1.390 . S
C286 H277 0.930 . S
C286 C284 1.384 . S
C286 C287 1.372 . S
C287 C286 1.372 . S
C287 C288 1.400 . S
C287 C292 1.490 . S
C288 H278 0.930 . S
C288 C287 1.400 . S
C288 C291 1.386 . S
H289 C305 0.930 . S
H290 C306 0.931 . S
C291 H279 0.929 . S
C291 C285 1.390 . S
C291 C288 1.386 . S
C292 C287 1.490 . S
C292 C294 1.395 . S
C292 C295 1.403 . S
H293 C299 0.930 . S
C294 H280 0.930 . S
C294 C292 1.395 . S
C294 C297 1.403 . S
C295 C292 1.403 . S
C295 C296 1.524 . S
C295 C299 1.400 . S
C296 H281 0.960 . S
C296 H282 0.960 . S
C296 H283 0.960 . S
C296 C295 1.524 . S
C297 C294 1.403 . S
C297 C298 1.392 . S
C297 C301 1.495 . S
C298 C297 1.392 . S
C298 C299 1.385 . S
C298 C300 1.478 . S
C299 H293 0.930 . S
C299 C295 1.400 . S
C299 C298 1.385 . S
C300 C298 1.478 . S
C300 C302 1.381 . S
C300 C306 1.383 . S
C301 C297 1.495 . S
C301 H307 0.959 . S
C301 H308 0.961 . S
C301 H309 0.960 . S
C302 C300 1.381 . S
C302 C303 1.394 . S
C302 H310 0.930 . S
C303 C302 1.394 . S
C303 C304 1.383 . S
C303 H311 0.929 . S
C304 C303 1.383 . S
C304 C305 1.377 . S
C305 H289 0.930 . S
C305 C304 1.377 . S
C305 C306 1.379 . S
C306 H290 0.931 . S
C306 C300 1.383 . S
C306 C305 1.379 . S
H307 C301 0.959 . S
H308 C301 0.961 . S
H309 C301 0.960 . S
H310 C302 0.930 . S
H311 C303 0.929 . S
H312 C320 0.929 . S
H313 C322 0.930 . S
H314 C324 0.930 . S
H315 C327 0.929 . S
H316 C330 0.930 . S
H317 C332 0.960 . S
H318 C332 0.960 . S
H319 C332 0.960 . S
C320 H312 0.929 . S
C320 C321 1.377 . S
C320 C322 1.384 . S
C321 C320 1.377 . S
C321 C327 1.390 . S
C322 H313 0.930 . S
C322 C320 1.384 . S
C322 C323 1.372 . S
C323 C322 1.372 . S
C323 C324 1.400 . S
C323 C328 1.490 . S
C324 H314 0.930 . S
C324 C323 1.400 . S
C324 C327 1.386 . S
H325 C341 0.930 . S
H326 C342 0.931 . S
C327 H315 0.929 . S
C327 C321 1.390 . S
C327 C324 1.386 . S
C328 C323 1.490 . S
C328 C330 1.395 . S
C328 C331 1.403 . S
H329 C335 0.930 . S
C330 H316 0.930 . S
C330 C328 1.395 . S
C330 C333 1.403 . S
C331 C328 1.403 . S
C331 C332 1.524 . S
C331 C335 1.400 . S
C332 H317 0.960 . S
C332 H318 0.960 . S
C332 H319 0.960 . S
C332 C331 1.524 . S
C333 C330 1.403 . S
C333 C334 1.392 . S
C333 C337 1.495 . S
C334 C333 1.392 . S
C334 C335 1.385 . S
C334 C336 1.478 . S
C335 H329 0.930 . S
C335 C331 1.400 . S
C335 C334 1.385 . S
C336 C334 1.478 . S
C336 C338 1.381 . S
C336 C342 1.383 . S
C337 C333 1.495 . S
C337 H343 0.959 . S
C337 H344 0.961 . S
C337 H345 0.960 . S
C338 C336 1.381 . S
C338 C339 1.394 . S
C338 H346 0.930 . S
C339 C338 1.394 . S
C339 C340 1.383 . S
C339 H347 0.929 . S
C340 C339 1.383 . S
C340 C341 1.377 . S
C341 H325 0.930 . S
C341 C340 1.377 . S
C341 C342 1.379 . S
C342 H326 0.931 . S
C342 C336 1.383 . S
C342 C341 1.379 . S
H343 C337 0.959 . S
H344 C337 0.961 . S
H345 C337 0.960 . S
H346 C338 0.930 . S
H347 C339 0.929 . S
H348 C356 0.929 . S
H349 C358 0.930 . S
H350 C360 0.930 . S
H351 C363 0.929 . S
H352 C366 0.930 . S
H353 C368 0.960 . S
H354 C368 0.960 . S
H355 C368 0.960 . S
C356 H348 0.929 . S
C356 C357 1.377 . S
C356 C358 1.384 . S
C357 C356 1.377 . S
C357 C363 1.390 . S
C358 H349 0.930 . S
C358 C356 1.384 . S
C358 C359 1.372 . S
C359 C358 1.372 . S
C359 C360 1.400 . S
C359 C364 1.490 . S
C360 H350 0.930 . S
C360 C359 1.400 . S
C360 C363 1.386 . S
H361 C377 0.930 . S
H362 C378 0.931 . S
C363 H351 0.929 . S
C363 C357 1.390 . S
C363 C360 1.386 . S
C364 C359 1.490 . S
C364 C366 1.395 . S
C364 C367 1.403 . S
H365 C371 0.930 . S
C366 H352 0.930 . S
C366 C364 1.395 . S
C366 C369 1.403 . S
C367 C364 1.403 . S
C367 C368 1.524 . S
C367 C371 1.400 . S
C368 H353 0.960 . S
C368 H354 0.960 . S
C368 H355 0.960 . S
C368 C367 1.524 . S
C369 C366 1.403 . S
C369 C370 1.392 . S
C369 C373 1.495 . S
C370 C369 1.392 . S
C370 C371 1.385 . S
C370 C372 1.478 . S
C371 H365 0.930 . S
C371 C367 1.400 . S
C371 C370 1.385 . S
C372 C370 1.478 . S
C372 C374 1.381 . S
C372 C378 1.383 . S
C373 C369 1.495 . S
C373 H379 0.959 . S
C373 H380 0.961 . S
C373 H381 0.960 . S
C374 C372 1.381 . S
C374 C375 1.394 . S
C374 H382 0.930 . S
C375 C374 1.394 . S
C375 C376 1.383 . S
C375 H383 0.929 . S
C376 C375 1.383 . S
C376 C377 1.377 . S
C377 H361 0.930 . S
C377 C376 1.377 . S
C377 C378 1.379 . S
C378 H362 0.931 . S
C378 C372 1.383 . S
C378 C377 1.379 . S
H379 C373 0.959 . S
H380 C373 0.961 . S
H381 C373 0.960 . S
H382 C374 0.930 . S
H383 C375 0.929 . S
H384 C392 0.929 . S
H385 C394 0.930 . S
H386 C396 0.930 . S
H387 C399 0.929 . S
H388 C402 0.930 . S
H389 C404 0.960 . S
H390 C404 0.960 . S
H391 C404 0.960 . S
C392 H384 0.929 . S
C392 C393 1.377 . S
C392 C394 1.384 . S
C393 C392 1.377 . S
C393 C399 1.390 . S
C394 H385 0.930 . S
C394 C392 1.384 . S
C394 C395 1.372 . S
C395 C394 1.372 . S
C395 C396 1.400 . S
C395 C400 1.490 . S
C396 H386 0.930 . S
C396 C395 1.400 . S
C396 C399 1.386 . S
H397 C413 0.930 . S
H398 C414 0.931 . S
C399 H387 0.929 . S
C399 C393 1.390 . S
C399 C396 1.386 . S
C400 C395 1.490 . S
C400 C402 1.395 . S
C400 C403 1.403 . S
H401 C407 0.930 . S
C402 H388 0.930 . S
C402 C400 1.395 . S
C402 C405 1.403 . S
C403 C400 1.403 . S
C403 C404 1.524 . S
C403 C407 1.400 . S
C404 H389 0.960 . S
C404 H390 0.960 . S
C404 H391 0.960 . S
C404 C403 1.524 . S
C405 C402 1.403 . S
C405 C406 1.392 . S
C405 C409 1.495 . S
C406 C405 1.392 . S
C406 C407 1.385 . S
C406 C408 1.478 . S
C407 H401 0.930 . S
C407 C403 1.400 . S
C407 C406 1.385 . S
C408 C406 1.478 . S
C408 C410 1.381 . S
C408 C414 1.383 . S
C409 C405 1.495 . S
C409 H415 0.959 . S
C409 H416 0.961 . S
C409 H417 0.960 . S
C410 C408 1.381 . S
C410 C411 1.394 . S
C410 H418 0.930 . S
C411 C410 1.394 . S
C411 C412 1.383 . S
C411 H419 0.929 . S
C412 C411 1.383 . S
C412 C413 1.377 . S
C413 H397 0.930 . S
C413 C412 1.377 . S
C413 C414 1.379 . S
C414 H398 0.931 . S
C414 C408 1.383 . S
C414 C413 1.379 . S
H415 C409 0.959 . S
H416 C409 0.961 . S
H417 C409 0.960 . S
H418 C410 0.930 . S
H419 C411 0.929 . S
H420 C428 0.929 . S
H421 C430 0.930 . S
H422 C432 0.930 . S
H423 C435 0.929 . S
H424 C438 0.930 . S
H425 C440 0.960 . S
H426 C440 0.960 . S
H427 C440 0.960 . S
C428 H420 0.929 . S
C428 C429 1.377 . S
C428 C430 1.384 . S
C429 C428 1.377 . S
C429 C435 1.390 . S
C430 H421 0.930 . S
C430 C428 1.384 . S
C430 C431 1.372 . S
C431 C430 1.372 . S
C431 C432 1.400 . S
C431 C436 1.490 . S
C432 H422 0.930 . S
C432 C431 1.400 . S
C432 C435 1.386 . S
H433 C449 0.930 . S
H434 C450 0.931 . S
C435 H423 0.929 . S
C435 C429 1.390 . S
C435 C432 1.386 . S
C436 C431 1.490 . S
C436 C438 1.395 . S
C436 C439 1.403 . S
H437 C443 0.930 . S
C438 H424 0.930 . S
C438 C436 1.395 . S
C438 C441 1.403 . S
C439 C436 1.403 . S
C439 C440 1.524 . S
C439 C443 1.400 . S
C440 H425 0.960 . S
C440 H426 0.960 . S
C440 H427 0.960 . S
C440 C439 1.524 . S
C441 C438 1.403 . S
C441 C442 1.392 . S
C441 C445 1.495 . S
C442 C441 1.392 . S
C442 C443 1.385 . S
C442 C444 1.478 . S
C443 H437 0.930 . S
C443 C439 1.400 . S
C443 C442 1.385 . S
C444 C442 1.478 . S
C444 C446 1.381 . S
C444 C450 1.383 . S
C445 C441 1.495 . S
C445 H451 0.959 . S
C445 H452 0.961 . S
C445 H453 0.960 . S
C446 C444 1.381 . S
C446 C447 1.394 . S
C446 H454 0.930 . S
C447 C446 1.394 . S
C447 C448 1.383 . S
C447 H455 0.929 . S
C448 C447 1.383 . S
C448 C449 1.377 . S
C449 H433 0.930 . S
C449 C448 1.377 . S
C449 C450 1.379 . S
C450 H434 0.931 . S
C450 C444 1.383 . S
C450 C449 1.379 . S
H451 C445 0.959 . S
H452 C445 0.961 . S
H453 C445 0.960 . S
H454 C446 0.930 . S
H455 C447 0.929 . S
H456 C464 0.929 . S
H457 C466 0.930 . S
H458 C468 0.930 . S
H459 C471 0.929 . S
H460 C474 0.930 . S
H461 C476 0.960 . S
H462 C476 0.960 . S
H463 C476 0.960 . S
C464 H456 0.929 . S
C464 C465 1.377 . S
C464 C466 1.384 . S
C465 C464 1.377 . S
C465 C471 1.390 . S
C466 H457 0.930 . S
C466 C464 1.384 . S
C466 C467 1.372 . S
C467 C466 1.372 . S
C467 C468 1.400 . S
C467 C472 1.490 . S
C468 H458 0.930 . S
C468 C467 1.400 . S
C468 C471 1.386 . S
H469 C485 0.930 . S
H470 C486 0.931 . S
C471 H459 0.929 . S
C471 C465 1.390 . S
C471 C468 1.386 . S
C472 C467 1.490 . S
C472 C474 1.395 . S
C472 C475 1.403 . S
H473 C479 0.930 . S
C474 H460 0.930 . S
C474 C472 1.395 . S
C474 C477 1.403 . S
C475 C472 1.403 . S
C475 C476 1.524 . S
C475 C479 1.400 . S
C476 H461 0.960 . S
C476 H462 0.960 . S
C476 H463 0.960 . S
C476 C475 1.524 . S
C477 C474 1.403 . S
C477 C478 1.392 . S
C477 C481 1.495 . S
C478 C477 1.392 . S
C478 C479 1.385 . S
C478 C480 1.478 . S
C479 H473 0.930 . S
C479 C475 1.400 . S
C479 C478 1.385 . S
C480 C478 1.478 . S
C480 C482 1.381 . S
C480 C486 1.383 . S
C481 C477 1.495 . S
C481 H487 0.959 . S
C481 H488 0.961 . S
C481 H489 0.960 . S
C482 C480 1.381 . S
C482 C483 1.394 . S
C482 H490 0.930 . S
C483 C482 1.394 . S
C483 C484 1.383 . S
C483 H491 0.929 . S
C484 C483 1.383 . S
C484 C485 1.377 . S
C485 H469 0.930 . S
C485 C484 1.377 . S
C485 C486 1.379 . S
C486 H470 0.931 . S
C486 C480 1.383 . S
C486 C485 1.379 . S
H487 C481 0.959 . S
H488 C481 0.961 . S
H489 C481 0.960 . S
H490 C482 0.930 . S
H491 C483 0.929 . S
H492 C500 0.929 . S
H493 C502 0.930 . S
H494 C504 0.930 . S
H495 C507 0.929 . S
H496 C510 0.930 . S
H497 C512 0.960 . S
H498 C512 0.960 . S
H499 C512 0.960 . S
C500 H492 0.929 . S
C500 C501 1.377 . S
C500 C502 1.384 . S
C501 C500 1.377 . S
C501 C507 1.390 . S
C502 H493 0.930 . S
C502 C500 1.384 . S
C502 C503 1.372 . S
C503 C502 1.372 . S
C503 C504 1.400 . S
C503 C508 1.490 . S
C504 H494 0.930 . S
C504 C503 1.400 . S
C504 C507 1.386 . S
H505 C521 0.930 . S
H506 C522 0.931 . S
C507 H495 0.929 . S
C507 C501 1.390 . S
C507 C504 1.386 . S
C508 C503 1.490 . S
C508 C510 1.395 . S
C508 C511 1.403 . S
H509 C515 0.930 . S
C510 H496 0.930 . S
C510 C508 1.395 . S
C510 C513 1.403 . S
C511 C508 1.403 . S
C511 C512 1.524 . S
C511 C515 1.400 . S
C512 H497 0.960 . S
C512 H498 0.960 . S
C512 H499 0.960 . S
C512 C511 1.524 . S
C513 C510 1.403 . S
C513 C514 1.392 . S
C513 C517 1.495 . S
C514 C513 1.392 . S
C514 C515 1.385 . S
C514 C516 1.478 . S
C515 H509 0.930 . S
C515 C511 1.400 . S
C515 C514 1.385 . S
C516 C514 1.478 . S
C516 C518 1.381 . S
C516 C522 1.383 . S
C517 C513 1.495 . S
C517 H523 0.959 . S
C517 H524 0.961 . S
C517 H525 0.960 . S
C518 C516 1.381 . S
C518 C519 1.394 . S
C518 H526 0.930 . S
C519 C518 1.394 . S
C519 C520 1.383 . S
C519 H527 0.929 . S
C520 C519 1.383 . S
C520 C521 1.377 . S
C521 H505 0.930 . S
C521 C520 1.377 . S
C521 C522 1.379 . S
C522 H506 0.931 . S
C522 C516 1.383 . S
C522 C521 1.379 . S
H523 C517 0.959 . S
H524 C517 0.961 . S
H525 C517 0.960 . S
H526 C518 0.930 . S
H527 C519 0.929 . S
H528 C536 0.929 . S
H529 C538 0.930 . S
H530 C540 0.930 . S
H531 C543 0.929 . S
H532 C546 0.930 . S
H533 C548 0.960 . S
H534 C548 0.960 . S
H535 C548 0.960 . S
C536 H528 0.929 . S
C536 C537 1.377 . S
C536 C538 1.384 . S
C537 C536 1.377 . S
C537 C543 1.390 . S
C538 H529 0.930 . S
C538 C536 1.384 . S
C538 C539 1.372 . S
C539 C538 1.372 . S
C539 C540 1.400 . S
C539 C544 1.490 . S
C540 H530 0.930 . S
C540 C539 1.400 . S
C540 C543 1.386 . S
H541 C557 0.930 . S
H542 C558 0.931 . S
C543 H531 0.929 . S
C543 C537 1.390 . S
C543 C540 1.386 . S
C544 C539 1.490 . S
C544 C546 1.395 . S
C544 C547 1.403 . S
H545 C551 0.930 . S
C546 H532 0.930 . S
C546 C544 1.395 . S
C546 C549 1.403 . S
C547 C544 1.403 . S
C547 C548 1.524 . S
C547 C551 1.400 . S
C548 H533 0.960 . S
C548 H534 0.960 . S
C548 H535 0.960 . S
C548 C547 1.524 . S
C549 C546 1.403 . S
C549 C550 1.392 . S
C549 C553 1.495 . S
C550 C549 1.392 . S
C550 C551 1.385 . S
C550 C552 1.478 . S
C551 H545 0.930 . S
C551 C547 1.400 . S
C551 C550 1.385 . S
C552 C550 1.478 . S
C552 C554 1.381 . S
C552 C558 1.383 . S
C553 C549 1.495 . S
C553 H559 0.959 . S
C553 H560 0.961 . S
C553 H561 0.960 . S
C554 C552 1.381 . S
C554 C555 1.394 . S
C554 H562 0.930 . S
C555 C554 1.394 . S
C555 C556 1.383 . S
C555 H563 0.929 . S
C556 C555 1.383 . S
C556 C557 1.377 . S
C557 H541 0.930 . S
C557 C556 1.377 . S
C557 C558 1.379 . S
C558 H542 0.931 . S
C558 C552 1.383 . S
C558 C557 1.379 . S
H559 C553 0.959 . S
H560 C553 0.961 . S
H561 C553 0.960 . S
H562 C554 0.930 . S
H563 C555 0.929 . S
H564 C572 0.929 . S
H565 C574 0.930 . S
H566 C576 0.930 . S
H567 C579 0.929 . S
H568 C582 0.930 . S
H569 C584 0.960 . S
H570 C584 0.960 . S
H571 C584 0.960 . S
C572 H564 0.929 . S
C572 C573 1.377 . S
C572 C574 1.384 . S
C573 C572 1.377 . S
C573 C579 1.390 . S
C574 H565 0.930 . S
C574 C572 1.384 . S
C574 C575 1.372 . S
C575 C574 1.372 . S
C575 C576 1.400 . S
C575 C580 1.490 . S
C576 H566 0.930 . S
C576 C575 1.400 . S
C576 C579 1.386 . S
H577 C593 0.930 . S
H578 C594 0.931 . S
C579 H567 0.929 . S
C579 C573 1.390 . S
C579 C576 1.386 . S
C580 C575 1.490 . S
C580 C582 1.395 . S
C580 C583 1.403 . S
H581 C587 0.930 . S
C582 H568 0.930 . S
C582 C580 1.395 . S
C582 C585 1.403 . S
C583 C580 1.403 . S
C583 C584 1.524 . S
C583 C587 1.400 . S
C584 H569 0.960 . S
C584 H570 0.960 . S
C584 H571 0.960 . S
C584 C583 1.524 . S
C585 C582 1.403 . S
C585 C586 1.392 . S
C585 C589 1.495 . S
C586 C585 1.392 . S
C586 C587 1.385 . S
C586 C588 1.478 . S
C587 H581 0.930 . S
C587 C583 1.400 . S
C587 C586 1.385 . S
C588 C586 1.478 . S
C588 C590 1.381 . S
C588 C594 1.383 . S
C589 C585 1.495 . S
C589 H595 0.959 . S
C589 H596 0.961 . S
C589 H597 0.960 . S
C590 C588 1.381 . S
C590 C591 1.394 . S
C590 H598 0.930 . S
C591 C590 1.394 . S
C591 C592 1.383 . S
C591 H599 0.929 . S
C592 C591 1.383 . S
C592 C593 1.377 . S
C593 H577 0.930 . S
C593 C592 1.377 . S
C593 C594 1.379 . S
C594 H578 0.931 . S
C594 C588 1.383 . S
C594 C593 1.379 . S
H595 C589 0.959 . S
H596 C589 0.961 . S
H597 C589 0.960 . S
H598 C590 0.930 . S
H599 C591 0.929 . S
H600 C608 0.929 . S
H601 C610 0.930 . S
H602 C612 0.930 . S
H603 C615 0.929 . S
H604 C618 0.930 . S
H605 C620 0.960 . S
H606 C620 0.960 . S
H607 C620 0.960 . S
C608 H600 0.929 . S
C608 C609 1.377 . S
C608 C610 1.384 . S
C609 C608 1.377 . S
C609 C615 1.390 . S
C610 H601 0.930 . S
C610 C608 1.384 . S
C610 C611 1.372 . S
C611 C610 1.372 . S
C611 C612 1.400 . S
C611 C616 1.490 . S
C612 H602 0.930 . S
C612 C611 1.400 . S
C612 C615 1.386 . S
H613 C629 0.930 . S
H614 C630 0.931 . S
C615 H603 0.929 . S
C615 C609 1.390 . S
C615 C612 1.386 . S
C616 C611 1.490 . S
C616 C618 1.395 . S
C616 C619 1.403 . S
H617 C623 0.930 . S
C618 H604 0.930 . S
C618 C616 1.395 . S
C618 C621 1.403 . S
C619 C616 1.403 . S
C619 C620 1.524 . S
C619 C623 1.400 . S
C620 H605 0.960 . S
C620 H606 0.960 . S
C620 H607 0.960 . S
C620 C619 1.524 . S
C621 C618 1.403 . S
C621 C622 1.392 . S
C621 C625 1.495 . S
C622 C621 1.392 . S
C622 C623 1.385 . S
C622 C624 1.478 . S
C623 H617 0.930 . S
C623 C619 1.400 . S
C623 C622 1.385 . S
C624 C622 1.478 . S
C624 C626 1.381 . S
C624 C630 1.383 . S
C625 C621 1.495 . S
C625 H631 0.959 . S
C625 H632 0.961 . S
C625 H633 0.960 . S
C626 C624 1.381 . S
C626 C627 1.394 . S
C626 H634 0.930 . S
C627 C626 1.394 . S
C627 C628 1.383 . S
C627 H635 0.929 . S
C628 C627 1.383 . S
C628 C629 1.377 . S
C629 H613 0.930 . S
C629 C628 1.377 . S
C629 C630 1.379 . S
C630 H614 0.931 . S
C630 C624 1.383 . S
C630 C629 1.379 . S
H631 C625 0.959 . S
H632 C625 0.961 . S
H633 C625 0.960 . S
H634 C626 0.930 . S
H635 C627 0.929 . S
H636 C644 0.929 . S
H637 C646 0.930 . S
H638 C648 0.930 . S
H639 C651 0.929 . S
H640 C654 0.930 . S
H641 C656 0.960 . S
H642 C656 0.960 . S
H643 C656 0.960 . S
C644 H636 0.929 . S
C644 C645 1.377 . S
C644 C646 1.384 . S
C645 C644 1.377 . S
C645 C651 1.390 . S
C646 H637 0.930 . S
C646 C644 1.384 . S
C646 C647 1.372 . S
C647 C646 1.372 . S
C647 C648 1.400 . S
C647 C652 1.490 . S
C648 H638 0.930 . S
C648 C647 1.400 . S
C648 C651 1.386 . S
H649 C665 0.930 . S
H650 C666 0.931 . S
C651 H639 0.929 . S
C651 C645 1.390 . S
C651 C648 1.386 . S
C652 C647 1.490 . S
C652 C654 1.395 . S
C652 C655 1.403 . S
H653 C659 0.930 . S
C654 H640 0.930 . S
C654 C652 1.395 . S
C654 C657 1.403 . S
C655 C652 1.403 . S
C655 C656 1.524 . S
C655 C659 1.400 . S
C656 H641 0.960 . S
C656 H642 0.960 . S
C656 H643 0.960 . S
C656 C655 1.524 . S
C657 C654 1.403 . S
C657 C658 1.392 . S
C657 C661 1.495 . S
C658 C657 1.392 . S
C658 C659 1.385 . S
C658 C660 1.478 . S
C659 H653 0.930 . S
C659 C655 1.400 . S
C659 C658 1.385 . S
C660 C658 1.478 . S
C660 C662 1.381 . S
C660 C666 1.383 . S
C661 C657 1.495 . S
C661 H667 0.959 . S
C661 H668 0.961 . S
C661 H669 0.960 . S
C662 C660 1.381 . S
C662 C663 1.394 . S
C662 H670 0.930 . S
C663 C662 1.394 . S
C663 C664 1.383 . S
C663 H671 0.929 . S
C664 C663 1.383 . S
C664 C665 1.377 . S
C665 H649 0.930 . S
C665 C664 1.377 . S
C665 C666 1.379 . S
C666 H650 0.931 . S
C666 C660 1.383 . S
C666 C665 1.379 . S
H667 C661 0.959 . S
H668 C661 0.961 . S
H669 C661 0.960 . S
H670 C662 0.930 . S
H671 C663 0.929 . S
H672 C680 0.929 . S
H673 C682 0.930 . S
H674 C684 0.930 . S
H675 C687 0.929 . S
H676 C690 0.930 . S
H677 C692 0.960 . S
H678 C692 0.960 . S
H679 C692 0.960 . S
C680 H672 0.929 . S
C680 C681 1.377 . S
C680 C682 1.384 . S
C681 C680 1.377 . S
C681 C687 1.390 . S
C682 H673 0.930 . S
C682 C680 1.384 . S
C682 C683 1.372 . S
C683 C682 1.372 . S
C683 C684 1.400 . S
C683 C688 1.490 . S
C684 H674 0.930 . S
C684 C683 1.400 . S
C684 C687 1.386 . S
H685 C701 0.930 . S
H686 C702 0.931 . S
C687 H675 0.929 . S
C687 C681 1.390 . S
C687 C684 1.386 . S
C688 C683 1.490 . S
C688 C690 1.395 . S
C688 C691 1.403 . S
H689 C695 0.930 . S
C690 H676 0.930 . S
C690 C688 1.395 . S
C690 C693 1.403 . S
C691 C688 1.403 . S
C691 C692 1.524 . S
C691 C695 1.400 . S
C692 H677 0.960 . S
C692 H678 0.960 . S
C692 H679 0.960 . S
C692 C691 1.524 . S
C693 C690 1.403 . S
C693 C694 1.392 . S
C693 C697 1.495 . S
C694 C693 1.392 . S
C694 C695 1.385 . S
C694 C696 1.478 . S
C695 H689 0.930 . S
C695 C691 1.400 . S
C695 C694 1.385 . S
C696 C694 1.478 . S
C696 C698 1.381 . S
C696 C702 1.383 . S
C697 C693 1.495 . S
C697 H703 0.959 . S
C697 H704 0.961 . S
C697 H705 0.960 . S
C698 C696 1.381 . S
C698 C699 1.394 . S
C698 H706 0.930 . S
C699 C698 1.394 . S
C699 C700 1.383 . S
C699 H707 0.929 . S
C700 C699 1.383 . S
C700 C701 1.377 . S
C701 H685 0.930 . S
C701 C700 1.377 . S
C701 C702 1.379 . S
C702 H686 0.931 . S
C702 C696 1.383 . S
C702 C701 1.379 . S
H703 C697 0.959 . S
H704 C697 0.961 . S
H705 C697 0.960 . S
H706 C698 0.930 . S
H707 C699 0.929 . S
H708 C716 0.929 . S
H709 C718 0.930 . S
H710 C720 0.930 . S
H711 C723 0.929 . S
H712 C726 0.930 . S
H713 C728 0.960 . S
H714 C728 0.960 1_455 S
H715 C728 0.960 . S
C716 H708 0.929 . S
C716 C717 1.377 . S
C716 C718 1.384 . S
C717 C716 1.377 . S
C717 C723 1.390 . S
C718 H709 0.930 . S
C718 C716 1.384 . S
C718 C719 1.372 . S
C719 C718 1.372 . S
C719 C720 1.400 . S
C719 C724 1.490 . S
C720 H710 0.930 . S
C720 C719 1.400 . S
C720 C723 1.386 . S
H721 C737 0.930 . S
H722 C738 0.931 1_554 S
C723 H711 0.929 . S
C723 C717 1.390 . S
C723 C720 1.386 . S
C724 C719 1.490 . S
C724 C726 1.395 . S
C724 C727 1.403 . S
H725 C731 0.930 . S
C726 H712 0.930 . S
C726 C724 1.395 . S
C726 C729 1.403 . S
C727 C724 1.403 . S
C727 C728 1.524 1_455 S
C727 C731 1.400 . S
C728 H713 0.960 . S
C728 H714 0.960 1_655 S
C728 H715 0.960 . S
C728 C727 1.524 1_655 S
C729 C726 1.403 . S
C729 C730 1.392 . S
C729 C733 1.495 . S
C730 C729 1.392 . S
C730 C731 1.385 . S
C730 C732 1.478 . S
C731 H725 0.930 . S
C731 C727 1.400 . S
C731 C730 1.385 . S
C732 C730 1.478 . S
C732 C734 1.381 . S
C732 C738 1.383 1_554 S
C733 C729 1.495 . S
C733 H739 0.959 . S
C733 H740 0.961 . S
C733 H741 0.960 . S
C734 C732 1.381 . S
C734 C735 1.394 1_554 S
C734 H742 0.930 . S
C735 C734 1.394 1_556 S
C735 C736 1.383 . S
C735 H743 0.929 . S
C736 C735 1.383 . S
C736 C737 1.377 . S
C737 H721 0.930 . S
C737 C736 1.377 . S
C737 C738 1.379 . S
C738 H722 0.931 1_556 S
C738 C732 1.383 1_556 S
C738 C737 1.379 . S
H739 C733 0.959 . S
H740 C733 0.961 . S
H741 C733 0.960 . S
H742 C734 0.930 . S
H743 C735 0.929 . S
H744 C752 0.929 . S
H745 C754 0.930 . S
H746 C756 0.930 . S
H747 C759 0.929 . S
H748 C762 0.930 . S
H749 C764 0.960 . S
H750 C764 0.960 . S
H751 C764 0.960 . S
C752 H744 0.929 . S
C752 C753 1.377 . S
C752 C754 1.384 . S
C753 C752 1.377 . S
C753 C759 1.390 . S
C754 H745 0.930 . S
C754 C752 1.384 . S
C754 C755 1.372 . S
C755 C754 1.372 . S
C755 C756 1.400 . S
C755 C760 1.490 . S
C756 H746 0.930 . S
C756 C755 1.400 . S
C756 C759 1.386 . S
H757 C773 0.930 . S
H758 C774 0.931 . S
C759 H747 0.929 . S
C759 C753 1.390 . S
C759 C756 1.386 . S
C760 C755 1.490 . S
C760 C762 1.395 . S
C760 C763 1.403 . S
H761 C767 0.930 . S
C762 H748 0.930 . S
C762 C760 1.395 . S
C762 C765 1.403 . S
C763 C760 1.403 . S
C763 C764 1.524 1_545 S
C763 C767 1.400 . S
C764 H749 0.960 . S
C764 H750 0.960 . S
C764 H751 0.960 . S
C764 C763 1.524 1_565 S
C765 C762 1.403 . S
C765 C766 1.392 . S
C765 C769 1.495 . S
C766 C765 1.392 . S
C766 C767 1.385 . S
C766 C768 1.478 . S
C767 H761 0.930 . S
C767 C763 1.400 . S
C767 C766 1.385 . S
C768 C766 1.478 . S
C768 C770 1.381 . S
C768 C774 1.383 . S
C769 C765 1.495 . S
C769 H775 0.959 . S
C769 H776 0.961 . S
C769 H777 0.960 . S
C770 C768 1.381 . S
C770 C771 1.394 . S
C770 H778 0.930 . S
C771 C770 1.394 . S
C771 C772 1.383 . S
C771 H779 0.929 . S
C772 C771 1.383 . S
C772 C773 1.377 . S
C773 H757 0.930 . S
C773 C772 1.377 . S
C773 C774 1.379 . S
C774 H758 0.931 . S
C774 C768 1.383 . S
C774 C773 1.379 . S
H775 C769 0.959 . S
H776 C769 0.961 . S
H777 C769 0.960 . S
H778 C770 0.930 . S
H779 C771 0.929 . S
H780 C788 0.929 . S
H781 C790 0.930 . S
H782 C792 0.930 . S
H783 C795 0.929 . S
H784 C798 0.930 . S
H785 C800 0.960 . S
H786 C800 0.960 . S
H787 C800 0.960 . S
C788 H780 0.929 . S
C788 C789 1.377 . S
C788 C790 1.384 . S
C789 C788 1.377 . S
C789 C795 1.390 . S
C790 H781 0.930 . S
C790 C788 1.384 . S
C790 C791 1.372 . S
C791 C790 1.372 . S
C791 C792 1.400 . S
C791 C796 1.490 . S
C792 H782 0.930 . S
C792 C791 1.400 . S
C792 C795 1.386 . S
H793 C809 0.930 . S
H794 C810 0.931 . S
C795 H783 0.929 . S
C795 C789 1.390 . S
C795 C792 1.386 . S
C796 C791 1.490 . S
C796 C798 1.395 . S
C796 C799 1.403 . S
H797 C803 0.930 . S
C798 H784 0.930 . S
C798 C796 1.395 . S
C798 C801 1.403 . S
C799 C796 1.403 . S
C799 C800 1.524 . S
C799 C803 1.400 . S
C800 H785 0.960 . S
C800 H786 0.960 . S
C800 H787 0.960 . S
C800 C799 1.524 . S
C801 C798 1.403 . S
C801 C802 1.392 . S
C801 C805 1.495 . S
C802 C801 1.392 . S
C802 C803 1.385 . S
C802 C804 1.478 . S
C803 H797 0.930 . S
C803 C799 1.400 . S
C803 C802 1.385 . S
C804 C802 1.478 . S
C804 C806 1.381 . S
C804 C810 1.383 . S
C805 C801 1.495 . S
C805 H811 0.959 . S
C805 H812 0.961 . S
C805 H813 0.960 . S
C806 C804 1.381 . S
C806 C807 1.394 . S
C806 H814 0.930 . S
C807 C806 1.394 . S
C807 C808 1.383 . S
C807 H815 0.929 . S
C808 C807 1.383 . S
C808 C809 1.377 . S
C809 H793 0.930 . S
C809 C808 1.377 . S
C809 C810 1.379 . S
C810 H794 0.931 . S
C810 C804 1.383 . S
C810 C809 1.379 . S
H811 C805 0.959 . S
H812 C805 0.961 . S
H813 C805 0.960 . S
H814 C806 0.930 . S
H815 C807 0.929 . S
H816 C824 0.929 1_565 S
H817 C826 0.933 . S
H818 C828 0.930 . S
H819 C831 0.929 . S
H820 C834 0.930 . S
H821 C836 0.960 . S
H822 C836 0.960 . S
H823 C836 0.960 . S
C824 H816 0.929 1_545 S
C824 C825 1.377 . S
C824 C826 1.383 1_545 S
C825 C824 1.377 . S
C825 C831 1.390 . S
C826 H817 0.933 . S
C826 C824 1.383 1_565 S
C826 C827 1.370 1_565 S
C827 C826 1.370 1_545 S
C827 C828 1.400 . S
C827 C832 1.490 . S
C828 H818 0.930 . S
C828 C827 1.400 . S
C828 C831 1.386 . S
H829 C845 0.930 . S
H830 C846 0.931 . S
C831 H819 0.929 . S
C831 C825 1.390 . S
C831 C828 1.386 . S
C832 C827 1.490 . S
C832 C834 1.395 1_545 S
C832 C835 1.403 . S
H833 C839 0.930 . S
C834 H820 0.930 . S
C834 C832 1.395 1_565 S
C834 C837 1.403 . S
C835 C832 1.403 . S
C835 C836 1.524 . S
C835 C839 1.400 . S
C836 H821 0.960 . S
C836 H822 0.960 . S
C836 H823 0.960 . S
C836 C835 1.524 . S
C837 C834 1.403 . S
C837 C838 1.392 1_565 S
C837 C841 1.495 . S
C838 C837 1.392 1_545 S
C838 C839 1.385 . S
C838 C840 1.478 . S
C839 H833 0.930 . S
C839 C835 1.400 . S
C839 C838 1.385 . S
C840 C838 1.478 . S
C840 C842 1.381 1_545 S
C840 C846 1.383 . S
C841 C837 1.495 . S
C841 H847 0.959 . S
C841 H848 0.961 . S
C841 H849 0.960 . S
C842 C840 1.381 1_565 S
C842 C843 1.394 . S
C842 H850 0.930 . S
C843 C842 1.394 . S
C843 C844 1.383 1_565 S
C843 H851 0.929 . S
C844 C843 1.383 1_545 S
C844 C845 1.377 . S
C845 H829 0.930 . S
C845 C844 1.377 . S
C845 C846 1.379 . S
C846 H830 0.931 . S
C846 C840 1.383 . S
C846 C845 1.379 . S
H847 C841 0.959 . S
H848 C841 0.961 . S
H849 C841 0.960 . S
H850 C842 0.930 . S
H851 C843 0.929 . S
H852 C860 0.929 . S
H853 C862 0.930 . S
H854 C864 0.930 . S
H855 C867 0.929 . S
H856 C870 0.930 . S
H857 C872 0.960 . S
H858 C872 0.960 . S
H859 C872 0.960 . S
C860 H852 0.929 . S
C860 C861 1.377 . S
C860 C862 1.384 . S
C861 C860 1.377 . S
C861 C867 1.390 . S
C862 H853 0.930 . S
C862 C860 1.384 . S
C862 C863 1.372 . S
C863 C862 1.372 . S
C863 C864 1.400 . S
C863 C868 1.490 . S
C864 H854 0.930 . S
C864 C863 1.400 . S
C864 C867 1.386 . S
H865 C881 0.930 . S
H866 C882 0.931 . S
C867 H855 0.929 . S
C867 C861 1.390 . S
C867 C864 1.386 . S
C868 C863 1.490 . S
C868 C870 1.395 . S
C868 C871 1.403 . S
H869 C875 0.930 . S
C870 H856 0.930 . S
C870 C868 1.395 . S
C870 C873 1.403 . S
C871 C868 1.403 . S
C871 C872 1.524 . S
C871 C875 1.400 . S
C872 H857 0.960 . S
C872 H858 0.960 . S
C872 H859 0.960 . S
C872 C871 1.524 . S
C873 C870 1.403 . S
C873 C874 1.392 . S
C873 C877 1.495 . S
C874 C873 1.392 . S
C874 C875 1.385 . S
C874 C876 1.478 . S
C875 H869 0.930 . S
C875 C871 1.400 . S
C875 C874 1.385 . S
C876 C874 1.478 . S
C876 C878 1.353 1_556 S
C876 C882 1.383 . S
C877 C873 1.495 . S
C877 H883 0.959 . S
C877 H884 0.961 . S
C877 H885 0.960 . S
C878 C876 1.353 1_554 S
C878 C879 1.437 . S
C878 H886 0.916 1_554 S
C879 C878 1.437 . S
C879 C880 1.383 . S
C879 H887 0.929 . S
C880 C879 1.383 . S
C880 C881 1.377 . S
C881 H865 0.930 . S
C881 C880 1.377 . S
C881 C882 1.379 1_554 S
C882 H866 0.931 . S
C882 C876 1.383 . S
C882 C881 1.379 1_556 S
H883 C877 0.959 . S
H884 C877 0.961 . S
H885 C877 0.960 . S
H886 C878 0.916 1_556 S
H887 C879 0.929 . S
H888 C896 0.929 . S
H889 C898 0.930 . S
H890 C900 0.930 . S
H891 C903 0.929 . S
H892 C906 0.930 . S
H893 C908 0.960 . S
H894 C908 0.960 . S
H895 C908 0.960 . S
C896 H888 0.929 . S
C896 C897 1.377 . S
C896 C898 1.384 . S
C897 C896 1.377 . S
C897 C903 1.390 . S
C898 H889 0.930 . S
C898 C896 1.384 . S
C898 C899 1.372 . S
C899 C898 1.372 . S
C899 C900 1.400 . S
C899 C904 1.490 . S
C900 H890 0.930 . S
C900 C899 1.400 . S
C900 C903 1.386 . S
H901 C917 0.930 1_655 S
H902 C918 0.931 . S
C903 H891 0.929 . S
C903 C897 1.390 . S
C903 C900 1.386 . S
C904 C899 1.490 . S
C904 C906 1.395 . S
C904 C907 1.403 1_455 S
H905 C911 0.930 . S
C906 H892 0.930 . S
C906 C904 1.395 . S
C906 C909 1.403 . S
C907 C904 1.403 1_655 S
C907 C908 1.524 . S
C907 C911 1.400 . S
C908 H893 0.960 . S
C908 H894 0.960 . S
C908 H895 0.960 . S
C908 C907 1.524 . S
C909 C906 1.403 . S
C909 C910 1.392 . S
C909 C913 1.495 . S
C910 C909 1.392 . S
C910 C911 1.385 1_455 S
C910 C912 1.478 . S
C911 H905 0.930 . S
C911 C907 1.400 . S
C911 C910 1.385 1_655 S
C912 C910 1.478 . S
C912 C914 1.381 . S
C912 C918 1.383 . S
C913 C909 1.495 . S
C913 H919 0.959 . S
C913 H920 0.961 . S
C913 H921 0.960 . S
C914 C912 1.381 . S
C914 C915 1.394 . S
C914 H922 0.930 . S
C915 C914 1.394 . S
C915 C916 1.383 . S
C915 H923 0.929 . S
C916 C915 1.383 . S
C916 C917 1.377 . S
C917 H901 0.930 1_455 S
C917 C916 1.377 . S
C917 C918 1.379 . S
C918 H902 0.931 . S
C918 C912 1.383 . S
C918 C917 1.379 . S
H919 C913 0.959 . S
H920 C913 0.961 . S
H921 C913 0.960 . S
H922 C914 0.930 . S
H923 C915 0.929 . S
C285 C8 1.994 . S
C304 C265 2.018 . S
C321 C26 1.280 . S
C340 C193 1.239 . S
C357 C48 1.440 . S
C376 C229 1.435 . S
C393 C19 1.735 . S
C412 C241 1.786 . S
C448 C169 1.469 . S
C429 C36 1.474 . S
C484 C205 1.744 . S
C465 C59 1.671 . S
C501 C28 1.466 . S
C520 C121 1.496 . S
C537 C46 1.203 . S
C556 C133 1.205 . S
C573 C16 1.559 . S
C592 C61 1.562 . S
C628 C97 1.688 . S
C609 C39 1.628 . S
C664 C157 0.980 . S
C645 C56 0.951 . S
C681 C6 1.312 . S
C700 C85 1.265 . S
C736 C163 1.423 . S
C717 C9 1.397 . S
C753 C21 1.493 . S
C772 C91 1.499 . S
C789 C49 1.476 . S
C808 C127 1.469 . S
C844 C235 1.464 . S
C825 C29 1.455 . S
C880 C271 1.588 . S
C861 C41 1.571 . S
C897 C1 1.497 . S
C916 C199 1.488 . S
