# Generated by pormake.
# Topology ant, (3,6)-cn, num edge types: 1
# Building blocks:
#     Node 0, Type 0, BuildingBlock: BETDIP_clean_linker_0, # of connection points: 3
#     Node 1, Type 0, BuildingBlock: BETDIP_clean_linker_0, # of connection points: 3
#     Node 2, Type 0, BuildingBlock: BETDIP_clean_linker_0, # of connection points: 3
#     Node 3, Type 0, BuildingBlock: BETDIP_clean_linker_0, # of connection points: 3
#     Node 4, Type 0, BuildingBlock: BETDIP_clean_linker_0, # of connection points: 3
#     Node 5, Type 0, BuildingBlock: BETDIP_clean_linker_0, # of connection points: 3
#     Node 6, Type 0, BuildingBlock: BETDIP_clean_linker_0, # of connection points: 3
#     Node 7, Type 0, BuildingBlock: BETDIP_clean_linker_0, # of connection points: 3
#     Node 8, Type 1, BuildingBlock: MIDCAF_clean_sbu_0, # of connection points: 6
#     Node 9, Type 1, BuildingBlock: MIDCAF_clean_sbu_0, # of connection points: 6
#     Node 10, Type 1, BuildingBlock: MIDCAF_clean_sbu_0, # of connection points: 6
#     Node 11, Type 1, BuildingBlock: MIDCAF_clean_sbu_0, # of connection points: 6
#     Edge 12, Type (0, 1), BuildingBlock: CIFDUS_clean_linker_0, # of connection points: 2
#     Edge 13, Type (0, 1), BuildingBlock: CIFDUS_clean_linker_0, # of connection points: 2
#     Edge 14, Type (0, 1), BuildingBlock: CIFDUS_clean_linker_0, # of connection points: 2
#     Edge 15, Type (0, 1), BuildingBlock: CIFDUS_clean_linker_0, # of connection points: 2
#     Edge 16, Type (0, 1), BuildingBlock: CIFDUS_clean_linker_0, # of connection points: 2
#     Edge 17, Type (0, 1), BuildingBlock: CIFDUS_clean_linker_0, # of connection points: 2
#     Edge 18, Type (0, 1), BuildingBlock: CIFDUS_clean_linker_0, # of connection points: 2
#     Edge 19, Type (0, 1), BuildingBlock: CIFDUS_clean_linker_0, # of connection points: 2
#     Edge 20, Type (0, 1), BuildingBlock: CIFDUS_clean_linker_0, # of connection points: 2
#     Edge 21, Type (0, 1), BuildingBlock: CIFDUS_clean_linker_0, # of connection points: 2
#     Edge 22, Type (0, 1), BuildingBlock: CIFDUS_clean_linker_0, # of connection points: 2
#     Edge 23, Type (0, 1), BuildingBlock: CIFDUS_clean_linker_0, # of connection points: 2
#     Edge 24, Type (0, 1), BuildingBlock: CIFDUS_clean_linker_0, # of connection points: 2
#     Edge 25, Type (0, 1), BuildingBlock: CIFDUS_clean_linker_0, # of connection points: 2
#     Edge 26, Type (0, 1), BuildingBlock: CIFDUS_clean_linker_0, # of connection points: 2
#     Edge 27, Type (0, 1), BuildingBlock: CIFDUS_clean_linker_0, # of connection points: 2
#     Edge 28, Type (0, 1), BuildingBlock: CIFDUS_clean_linker_0, # of connection points: 2
#     Edge 29, Type (0, 1), BuildingBlock: CIFDUS_clean_linker_0, # of connection points: 2
#     Edge 30, Type (0, 1), BuildingBlock: CIFDUS_clean_linker_0, # of connection points: 2
#     Edge 31, Type (0, 1), BuildingBlock: CIFDUS_clean_linker_0, # of connection points: 2
#     Edge 32, Type (0, 1), BuildingBlock: CIFDUS_clean_linker_0, # of connection points: 2
#     Edge 33, Type (0, 1), BuildingBlock: CIFDUS_clean_linker_0, # of connection points: 2
#     Edge 34, Type (0, 1), BuildingBlock: CIFDUS_clean_linker_0, # of connection points: 2
#     Edge 35, Type (0, 1), BuildingBlock: CIFDUS_clean_linker_0, # of connection points: 2
# Relax obj value: 0.091
# Max RMSD: 0.189
# Mean RMSD: 0.126
data_MOF--net-ant--node1-MIDCAF_clean_sbu_0--node2-BETDIP_clean_linker_0--edge1-CIFDUS_clean_linker_0
_symmetry_space_group_name_H-M    P1
_symmetry_Int_Tables_number       1
_symmetry_cell_setting            triclinic
loop_
_symmetry_equiv_pos_as_xyz
'x, y, z'
_cell_length_a     25.289322
_cell_length_b     25.268282
_cell_length_c     61.678936
_cell_angle_alpha  94.715686
_cell_angle_beta   93.752372
_cell_angle_gamma 90.083521
loop_
_atom_site_label
_atom_site_type_symbol
_atom_site_fract_x
_atom_site_fract_y
_atom_site_fract_z
_atom_type_partial_charge
H0 H 0.2433 0.29976 0.09137 0.0
H1 H 0.21513 0.1678 0.04372 0.0
H2 H 0.14954 0.32008 0.03162 0.0
H3 H 0.22568 0.18308 0.11014 0.0
C4 C 0.24807 0.16502 0.09706 0.0
C5 C 0.22443 0.28371 0.07595 0.0
C6 C 0.19389 0.31681 0.06264 0.0
C7 C 0.23123 0.22976 0.06923 0.0
C8 C 0.20836 0.20894 0.0491 0.0
C9 C 0.17879 0.24107 0.03544 0.0
C10 C 0.17088 0.29472 0.04247 0.0
N11 N 0.26603 0.19727 0.0812 0.0
H12 H 0.03752 0.78738 0.34287 0.0
H13 H 0.12492 0.81821 0.28807 0.0
H14 H 0.96034 0.77426 0.27808 0.0
H15 H 0.11882 0.75566 0.35458 0.0
C16 C 0.14884 0.77991 0.34827 0.0
C17 C 0.03885 0.78918 0.32546 0.0
C18 C 0.99233 0.77957 0.31168 0.0
C19 C 0.0868 0.80255 0.31684 0.0
C20 C 0.08765 0.80842 0.29458 0.0
C21 C 0.04235 0.79808 0.28047 0.0
C22 C 0.99495 0.78323 0.28907 0.0
N23 N 0.13556 0.80829 0.32974 0.0
H24 H 0.72229 0.76774 0.59668 0.0
H25 H 0.69518 0.65001 0.5428 0.0
H26 H 0.63035 0.80668 0.53913 0.0
H27 H 0.77018 0.61014 0.56062 0.0
C28 C 0.75669 0.61748 0.57696 0.0
C29 C 0.70495 0.75674 0.58039 0.0
C30 C 0.675 0.79366 0.56907 0.0
C31 C 0.71292 0.70531 0.57107 0.0
C32 C 0.69067 0.69019 0.54994 0.0
C33 C 0.6605 0.72659 0.53833 0.0
C34 C 0.65328 0.77831 0.548 0.0
N35 N 0.73929 0.66881 0.5843 0.0
H36 H 0.51996 0.3125 0.85176 0.0
H37 H 0.61729 0.31995 0.79805 0.0
H38 H 0.46031 0.25195 0.78735 0.0
H39 H 0.60393 0.29249 0.86829 0.0
C40 C 0.63334 0.3142 0.86041 0.0
C41 C 0.52523 0.3044 0.83453 0.0
C42 C 0.48303 0.28267 0.82039 0.0
C43 C 0.57387 0.31695 0.82636 0.0
C44 C 0.57983 0.3089 0.80405 0.0
C45 C 0.54012 0.28363 0.7898 0.0
C46 C 0.4912 0.27174 0.79805 0.0
N47 N 0.61901 0.3345 0.84005 0.0
H48 H 0.03148 0.71967 0.88915 0.0
H49 H 0.11149 0.77177 0.95103 0.0
H50 H 0.07732 0.60636 0.93525 0.0
H51 H 0.06856 0.84822 0.94598 0.0
C52 C 0.07005 0.85203 0.92863 0.0
C53 C 0.04881 0.71095 0.90499 0.0
C54 C 0.05069 0.65816 0.9107 0.0
C55 C 0.06902 0.75263 0.91974 0.0
C56 C 0.09385 0.74051 0.93982 0.0
C57 C 0.09676 0.68779 0.9455 0.0
C58 C 0.07413 0.64716 0.93108 0.0
N59 N 0.0657 0.80585 0.91365 0.0
H60 H 0.60897 0.8726 0.14176 0.0
H61 H 0.71156 0.79856 0.18896 0.0
H62 H 0.54662 0.81467 0.1989 0.0
H63 H 0.7672 0.86829 0.17858 0.0
C64 C 0.76193 0.85435 0.16142 0.0
C65 C 0.61467 0.85397 0.15694 0.0
C66 C 0.57133 0.84674 0.16966 0.0
C67 C 0.66581 0.83829 0.16416 0.0
C68 C 0.67288 0.81274 0.18357 0.0
C69 C 0.62995 0.80471 0.196 0.0
C70 C 0.5797 0.82206 0.18918 0.0
N71 N 0.70968 0.84691 0.1516 0.0
H72 H 0.49252 0.18735 0.3937 0.0
H73 H 0.56256 0.26072 0.45402 0.0
H74 H 0.54636 0.09121 0.44523 0.0
H75 H 0.53353 0.33634 0.44184 0.0
C76 C 0.53458 0.32992 0.42426 0.0
C77 C 0.50876 0.18401 0.41023 0.0
C78 C 0.51601 0.1337 0.41806 0.0
C79 C 0.52497 0.23007 0.42306 0.0
C80 C 0.54837 0.22569 0.4441 0.0
C81 C 0.55581 0.17572 0.45228 0.0
C82 C 0.53854 0.12989 0.43935 0.0
N83 N 0.52235 0.27918 0.41336 0.0
H84 H 0.1357 0.33769 0.64019 0.0
H85 H 0.20216 0.35012 0.70644 0.0
H86 H 0.03371 0.342 0.69328 0.0
H87 H 0.27794 0.37157 0.69168 0.0
C88 C 0.27472 0.34606 0.67659 0.0
C89 C 0.13035 0.34264 0.65753 0.0
C90 C 0.07917 0.34196 0.665 0.0
C91 C 0.17496 0.34662 0.67231 0.0
C92 C 0.16818 0.34956 0.69483 0.0
C93 C 0.11726 0.3484 0.70252 0.0
C94 C 0.073 0.34592 0.6875 0.0
N95 N 0.22574 0.34067 0.66394 0.0
Zn96 Zn 0.22235 0.6985 0.14521 0.0
Zn97 Zn 0.1124 0.79172 0.08457 0.0
Zn98 Zn 0.16561 0.74316 0.1145 0.0
C99 C 0.14119 0.69406 0.06524 0.0
C100 C 0.19529 0.85928 0.09806 0.0
O101 O 0.11776 0.74292 0.14348 0.0
O102 O 0.16971 0.70346 0.16752 0.0
C103 C 0.21023 0.62144 0.10987 0.0
O104 O 0.15914 0.68676 0.08479 0.0
O105 O 0.12035 0.73751 0.06087 0.0
O106 O 0.15493 0.85751 0.08488 0.0
O107 O 0.20605 0.81985 0.10962 0.0
O108 O 0.23249 0.62901 0.1288 0.0
O109 O 0.18321 0.6591 0.10153 0.0
O110 O 0.24116 0.78805 0.12131 0.0
O111 O 0.28283 0.74909 0.14833 0.0
C112 C 0.28155 0.78429 0.13494 0.0
O113 O 0.0869 0.76552 0.1266 0.0
O114 O 0.04354 0.79588 0.09787 0.0
C115 C 0.12647 0.72552 0.16246 0.0
C116 C 0.04429 0.78394 0.11735 0.0
Zn117 Zn 0.53376 0.65728 0.33773 0.0
Zn118 Zn 0.6381 0.78917 0.38489 0.0
Zn119 Zn 0.58321 0.72717 0.36415 0.0
C120 C 0.55272 0.84546 0.37327 0.0
C121 C 0.70391 0.75769 0.35561 0.0
O122 O 0.58355 0.65042 0.37951 0.0
O123 O 0.5587 0.59335 0.35164 0.0
C124 C 0.4588 0.73097 0.35433 0.0
O125 O 0.53456 0.79764 0.37199 0.0
O126 O 0.60217 0.85325 0.37452 0.0
O127 O 0.71014 0.77196 0.37566 0.0
O128 O 0.65689 0.74585 0.3471 0.0
O129 O 0.46199 0.68475 0.34499 0.0
O130 O 0.50117 0.75688 0.36135 0.0
O131 O 0.61609 0.72838 0.33214 0.0
O132 O 0.56242 0.67609 0.31004 0.0
C133 C 0.60006 0.70931 0.31279 0.0
O134 O 0.60723 0.69088 0.39461 0.0
O135 O 0.62134 0.76774 0.41377 0.0
C136 C 0.5747 0.60226 0.37143 0.0
C137 C 0.61542 0.71809 0.4131 0.0
Zn138 Zn 0.61305 0.27713 0.60742 0.0
Zn139 Zn 0.73266 0.16426 0.64409 0.0
Zn140 Zn 0.66807 0.22206 0.62577 0.0
C141 C 0.7944 0.24113 0.63052 0.0
C142 C 0.67977 0.09639 0.61355 0.0
O143 O 0.60014 0.24461 0.64582 0.0
O144 O 0.5445 0.2575 0.6178 0.0
C145 C 0.69147 0.34231 0.61798 0.0
O146 O 0.74741 0.25993 0.62766 0.0
O147 O 0.80042 0.194 0.63554 0.0
O148 O 0.70868 0.09435 0.63089 0.0
O149 O 0.66379 0.14166 0.60749 0.0
O150 O 0.64199 0.34823 0.61788 0.0
O151 O 0.71087 0.29524 0.61853 0.0
O152 O 0.64172 0.17835 0.59409 0.0
O153 O 0.62756 0.2512 0.57737 0.0
C154 C 0.63304 0.20153 0.57637 0.0
O155 O 0.6397 0.21958 0.65904 0.0
O156 O 0.71116 0.18366 0.67398 0.0
C157 C 0.55266 0.25279 0.63792 0.0
C158 C 0.6664 0.20491 0.67602 0.0
Zn159 Zn 0.00715 0.18888 0.84191 0.0
Zn160 Zn 0.1227 0.29948 0.88667 0.0
Zn161 Zn 0.0652 0.24406 0.86586 0.0
C162 C 0.0838 0.23375 0.91453 0.0
C163 C 0.04812 0.36528 0.87232 0.0
O164 O 0.10059 0.24128 0.83448 0.0
O165 O 0.02549 0.22252 0.81511 0.0
C166 C 0.05769 0.12038 0.86829 0.0
O167 O 0.07922 0.20495 0.89631 0.0
O168 O 0.09502 0.28241 0.91466 0.0
O169 O 0.0981 0.36612 0.87408 0.0
O170 O 0.02369 0.32049 0.87234 0.0
O171 O 0.03979 0.12022 0.84868 0.0
O172 O 0.06405 0.16513 0.87985 0.0
O173 O 0.98536 0.28237 0.8645 0.0
O174 O 0.93925 0.20919 0.855 0.0
C175 C 0.9405 0.2576 0.86193 0.0
O176 O 0.14184 0.25608 0.84946 0.0
O177 O 0.1935 0.27232 0.87936 0.0
C178 C 0.07311 0.23803 0.81613 0.0
C179 C 0.18884 0.26172 0.85899 0.0
H180 H 0.27047 0.38621 0.08057 0.0
H181 H 0.10513 0.37868 0.05846 0.0
H182 H 0.09648 0.47394 0.06835 0.0
H183 H 0.135 0.55918 0.08558 0.0
H184 H 0.29958 0.56387 0.10885 0.0
H185 H 0.30947 0.47079 0.09605 0.0
C186 C 0.23238 0.40521 0.07808 0.0
C187 C 0.18846 0.37493 0.06898 0.0
C188 C 0.22762 0.45999 0.08388 0.0
C189 C 0.13973 0.40084 0.0654 0.0
C190 C 0.1347 0.45543 0.07108 0.0
C191 C 0.17318 0.53998 0.08736 0.0
C192 C 0.21655 0.56846 0.09809 0.0
C193 C 0.17829 0.48549 0.08051 0.0
C194 C 0.26562 0.54282 0.10063 0.0
C195 C 0.27126 0.48945 0.09344 0.0
H196 H 0.89171 0.80907 0.29854 0.0
H197 H 0.97748 0.71831 0.34559 0.0
H198 H 0.89533 0.70097 0.36237 0.0
H199 H 0.79965 0.71548 0.36502 0.0
H200 H 0.71404 0.80496 0.318 0.0
H201 H 0.7949 0.81683 0.29924 0.0
C202 C 0.89252 0.78458 0.31219 0.0
C203 C 0.94129 0.76578 0.3209 0.0
C204 C 0.84484 0.77387 0.3216 0.0
C205 C 0.94107 0.73466 0.33882 0.0
C206 C 0.89393 0.72423 0.34835 0.0
C207 C 0.79868 0.73666 0.35039 0.0
C208 C 0.75063 0.75804 0.34244 0.0
C209 C 0.84573 0.74427 0.34008 0.0
C210 C 0.74986 0.78607 0.32374 0.0
C211 C 0.79646 0.79377 0.31332 0.0
H212 H 0.79811 0.51878 0.57101 0.0
H213 H 0.70304 0.61634 0.61392 0.0
H214 H 0.68212 0.53963 0.63319 0.0
H215 H 0.67953 0.44315 0.63418 0.0
H216 H 0.77453 0.34424 0.592 0.0
H217 H 0.80829 0.4231 0.57661 0.0
C218 C 0.77366 0.52321 0.58485 0.0
C219 C 0.75142 0.57284 0.59075 0.0
C220 C 0.76179 0.47873 0.59599 0.0
C221 C 0.72034 0.5785 0.60887 0.0
C222 C 0.70823 0.53459 0.61993 0.0
C223 C 0.70885 0.43911 0.62208 0.0
C224 C 0.72408 0.38831 0.61397 0.0
C225 C 0.72716 0.48431 0.61312 0.0
C226 C 0.76237 0.38318 0.59847 0.0
C227 C 0.78112 0.42818 0.58949 0.0
H228 H 0.72046 0.36981 0.8501 0.0
H229 H 0.67322 0.23801 0.88482 0.0
H230 H 0.76576 0.21212 0.89064 0.0
H231 H 0.85851 0.22041 0.88189 0.0
H232 H 0.908 0.35393 0.84888 0.0
H233 H 0.81644 0.38651 0.84668 0.0
C234 C 0.73063 0.33595 0.85922 0.0
C235 C 0.69005 0.3052 0.86671 0.0
C236 C 0.78421 0.32161 0.86273 0.0
C237 C 0.70374 0.26201 0.87881 0.0
C238 C 0.75662 0.24709 0.88207 0.0
C239 C 0.84936 0.25735 0.87468 0.0
C240 C 0.88955 0.28454 0.86536 0.0
C241 C 0.79694 0.27564 0.87355 0.0
C242 C 0.87759 0.33251 0.85621 0.0
C243 C 0.82519 0.35078 0.85478 0.0
H244 H 0.9812 0.57902 0.91612 0.0
H245 H 0.08617 0.63488 0.87051 0.0
H246 H 0.08411 0.54731 0.85043 0.0
H247 H 0.07008 0.45143 0.85166 0.0
H248 H 0.96723 0.39438 0.89773 0.0
H249 H 0.94929 0.48591 0.91148 0.0
C250 C 1.00192 0.57234 0.90129 0.0
C251 C 0.03445 0.61282 0.89492 0.0
C252 C 1.00145 0.52154 0.89015 0.0
C253 C 0.06093 0.60422 0.87567 0.0
C254 C 0.06017 0.55401 0.86433 0.0
C255 C 0.04198 0.4593 0.86408 0.0
C256 C 0.02069 0.41664 0.874 0.0
C257 C 0.03315 0.51176 0.87222 0.0
C258 C 0.98406 0.42679 0.88992 0.0
C259 C 0.97442 0.47909 0.89797 0.0
H260 H 0.86259 0.85627 0.17821 0.0
H261 H 0.76691 0.81512 0.11871 0.0
H262 H 0.84606 0.78648 0.10032 0.0
H263 H 0.94267 0.77485 0.10102 0.0
H264 H 0.03864 0.82077 0.15972 0.0
H265 H 0.95926 0.84418 0.17895 0.0
C266 C 0.85921 0.84108 0.1612 0.0
C267 C 0.80922 0.83804 0.14978 0.0
C268 C 0.90479 0.82462 0.15079 0.0
C269 C 0.80505 0.81808 0.12781 0.0
C270 C 0.85025 0.80156 0.11732 0.0
C271 C 0.94602 0.78948 0.1181 0.0
C272 C 0.99626 0.79414 0.12933 0.0
C273 C 0.90029 0.8048 0.12864 0.0
C274 C 1.00026 0.81394 0.15126 0.0
C275 C 0.95492 0.8285 0.16203 0.0
H276 H 0.54872 0.43266 0.43959 0.0
H277 H 0.54936 0.328 0.38066 0.0
H278 H 0.56814 0.40284 0.35981 0.0
H279 H 0.57917 0.49814 0.35782 0.0
H280 H 0.57197 0.60441 0.41588 0.0
H281 H 0.56294 0.52897 0.4377 0.0
C282 C 0.55317 0.42641 0.42219 0.0
C283 C 0.54708 0.37509 0.41166 0.0
C284 C 0.5635 0.46982 0.41021 0.0
C285 C 0.55322 0.36721 0.38915 0.0
C286 C 0.56419 0.40996 0.3772 0.0
C287 C 0.57628 0.50488 0.3753 0.0
C288 C 0.57714 0.55702 0.38526 0.0
C289 C 0.5687 0.46145 0.38751 0.0
C290 C 0.5732 0.56486 0.4079 0.0
C291 C 0.56704 0.52164 0.42033 0.0
H292 H 0.98361 0.39104 0.66244 0.0
H293 H 0.07007 0.25806 0.63457 0.0
H294 H 0.9878 0.21843 0.6177 0.0
H295 H 0.89077 0.21342 0.6172 0.0
H296 H 0.80371 0.34517 0.64564 0.0
H297 H 0.88643 0.39406 0.65555 0.0
C298 C 0.98439 0.3542 0.65211 0.0
C299 C 0.03254 0.32713 0.64994 0.0
C300 C 0.93677 0.33113 0.64282 0.0
C301 C 0.03345 0.27967 0.63641 0.0
C302 C 0.98635 0.25671 0.62695 0.0
C303 C 0.88998 0.25346 0.62502 0.0
C304 C 0.84155 0.27554 0.63093 0.0
C305 C 0.93767 0.2808 0.63099 0.0
C306 C 0.84062 0.32755 0.64084 0.0
C307 C 0.88795 0.35525 0.64672 0.0
H308 H 0.37638 0.36187 0.69231 0.0
H309 H 0.27862 0.26714 0.64379 0.0
H310 H 0.35692 0.22355 0.63005 0.0
H311 H 0.45313 0.21797 0.62956 0.0
H312 H 0.55238 0.31744 0.67556 0.0
H313 H 0.47388 0.35259 0.69301 0.0
C314 C 0.37245 0.33144 0.67882 0.0
C315 C 0.32207 0.31831 0.66887 0.0
C316 C 0.41785 0.30706 0.67073 0.0
C317 C 0.31709 0.27863 0.6515 0.0
C318 C 0.36181 0.25344 0.6437 0.0
C319 C 0.45745 0.24634 0.64378 0.0
C320 C 0.50815 0.26424 0.65166 0.0
C321 C 0.41233 0.26804 0.65291 0.0
C322 C 0.51362 0.30199 0.66969 0.0
C323 C 0.46876 0.32265 0.6794 0.0
H324 H 0.51933 0.82584 0.12961 0.0
H325 H 0.49937 0.89931 0.19416 0.0
H326 H 0.40339 0.89636 0.18723 0.0
H327 H 0.32683 0.85374 0.16609 0.0
H328 H 0.3454 0.78154 0.10143 0.0
H329 H 0.43995 0.80435 0.10477 0.0
C330 C 0.49401 0.84311 0.14181 0.0
C331 C 0.51627 0.8611 0.16262 0.0
C332 C 0.43856 0.84082 0.13778 0.0
C333 C 0.48299 0.88383 0.17822 0.0
C334 C 0.42809 0.88209 0.1743 0.0
C335 C 0.35127 0.84525 0.15242 0.0
C336 C 0.32984 0.81583 0.13365 0.0
C337 C 0.40553 0.85776 0.15464 0.0
C338 C 0.3614 0.80457 0.11598 0.0
C339 C 0.41554 0.817 0.11802 0.0
H340 H 0.3829 0.29869 0.80232 0.0
H341 H 0.46643 0.23743 0.85813 0.0
H342 H 0.38255 0.22186 0.87396 0.0
H343 H 0.28601 0.23019 0.87312 0.0
H344 H 0.20157 0.29384 0.8183 0.0
H345 H 0.28477 0.30205 0.80051 0.0
C346 C 0.38271 0.28124 0.8178 0.0
C347 C 0.43119 0.26997 0.82913 0.0
C348 C 0.33404 0.2723 0.82688 0.0
C349 C 0.43001 0.24766 0.84925 0.0
C350 C 0.38197 0.23837 0.85827 0.0
C351 C 0.28575 0.24517 0.85712 0.0
C352 C 0.2375 0.26029 0.84679 0.0
C353 C 0.33386 0.2513 0.84741 0.0
C354 C 0.23782 0.28002 0.82617 0.0
C355 C 0.2856 0.28561 0.81621 0.0
H356 H 0.23648 0.84097 0.34337 0.0
H357 H 0.18712 0.69376 0.36686 0.0
H358 H 0.27954 0.6673 0.3725 0.0
H359 H 0.37354 0.68199 0.36727 0.0
H360 H 0.42506 0.83076 0.3461 0.0
H361 H 0.33279 0.86129 0.34333 0.0
C362 C 0.24615 0.80344 0.34997 0.0
C363 C 0.20514 0.76883 0.35436 0.0
C364 C 0.29961 0.78882 0.35351 0.0
C365 C 0.21805 0.7208 0.36326 0.0
C366 C 0.27084 0.7056 0.36642 0.0
C367 C 0.36453 0.72146 0.36241 0.0
C368 C 0.40561 0.75392 0.35663 0.0
C369 C 0.31179 0.73867 0.36109 0.0
C370 C 0.39388 0.8052 0.35063 0.0
C371 C 0.34115 0.82241 0.3489 0.0
H372 H 0.67592 0.88854 0.55044 0.0
H373 H 0.65255 0.82049 0.61114 0.0
H374 H 0.64595 0.90894 0.62955 0.0
H375 H 0.65489 0.00492 0.62925 0.0
H376 H 0.67777 0.07483 0.56916 0.0
H377 H 0.67423 0.98632 0.54937 0.0
C378 C 0.66841 0.89303 0.5676 0.0
C379 C 0.66595 0.84781 0.57949 0.0
C380 C 0.66421 0.94426 0.57812 0.0
C381 C 0.65626 0.8545 0.60173 0.0
C382 C 0.652 0.90508 0.61225 0.0
C383 C 0.65813 1.00076 0.61173 0.0
C384 C 0.66666 0.04597 0.60061 0.0
C385 C 0.65721 0.95009 0.60073 0.0
C386 C 0.67046 0.04048 0.57795 0.0
C387 C 0.66915 0.98987 0.56674 0.0
H388 H 0.24431 0.09624 0.12848 0.0
H389 H 0.26466 0.1019 0.05984 0.0
H390 H 0.25662 0.00555 0.05437 0.0
H391 H 0.23137 0.921 0.06834 0.0
H392 H 0.21961 0.91314 0.13734 0.0
H393 H 0.23854 0.00852 0.14363 0.0
C394 C 0.24795 0.07617 0.11242 0.0
C395 C 0.25332 0.10633 0.09449 0.0
C396 C 0.24506 0.02031 0.10949 0.0
C397 C 0.2592 0.0799 0.07385 0.0
C398 C 0.25478 0.02463 0.07069 0.0
C399 C 0.23483 0.93995 0.08481 0.0
C400 C 0.22378 0.91045 0.10234 0.0
C401 C 0.24596 0.99462 0.08827 0.0
C402 C 0.22836 0.93512 0.12363 0.0
C403 C 0.23848 0.98978 0.12718 0.0
H404 H 0.46634 0.04087 0.42476 0.0
H405 H 0.55115 0.11788 0.3775 0.0
H406 H 0.55814 0.0338 0.3557 0.0
H407 H 0.55727 0.93693 0.35445 0.0
H408 H 0.47519 0.85808 0.40176 0.0
H409 H 0.44837 0.9441 0.41879 0.0
C410 C 0.48517 0.03923 0.40942 0.0
C411 C 0.50889 0.08525 0.40291 0.0
C412 C 0.48972 0.9904 0.39704 0.0
C413 C 0.53253 0.08303 0.38286 0.0
C414 C 0.53687 0.03487 0.37043 0.0
C415 C 0.53158 0.93872 0.36792 0.0
C416 C 0.51876 0.89184 0.37712 0.0
C417 C 0.51793 0.98806 0.37793 0.0
C418 C 0.48535 0.89399 0.39445 0.0
C419 C 0.47079 0.94316 0.40438 0.0
H420 H 0.07937 0.87996 0.8872 0.0
H421 H 0.06443 0.9458 0.9532 0.0
H422 H 0.06356 0.03581 0.94108 0.0
H423 H 0.06213 0.09575 0.91109 0.0
H424 H 0.07673 0.02752 0.84526 0.0
H425 H 0.08323 0.93916 0.85796 0.0
C426 C 0.07598 0.91395 0.89895 0.0
C427 C 0.07135 0.90623 0.92102 0.0
C428 C 0.07554 0.96545 0.89188 0.0
C429 C 0.06766 0.95081 0.93606 0.0
C430 C 0.06721 1.00228 0.92915 0.0
C431 C 0.0675 0.0616 0.89963 0.0
C432 C 0.06844 0.06839 0.87723 0.0
C433 C 0.07054 0.01016 0.90702 0.0
C434 C 0.07527 0.02356 0.86257 0.0
C435 C 0.07895 0.97281 0.86979 0.0
H436 H 0.08233 0.25129 0.01379 0.0
H437 H 0.23753 0.18432 0.00638 0.0
H438 H 0.2153 0.16164 0.96768 0.0
H439 H 0.15828 0.17682 0.93496 0.0
H440 H 0.00579 0.24911 0.94196 0.0
H441 H 0.01921 0.25192 0.98165 0.0
C442 C 0.11086 0.23097 0.00372 0.0
C443 C 0.16168 0.22023 0.01285 0.0
C444 C 0.09807 0.21866 0.98135 0.0
C445 C 0.19808 0.19308 -0.00025 0.0
C446 C 0.18549 0.18022 0.97757 0.0
C447 C 0.12702 0.19053 0.94524 0.0
C448 C 0.08098 0.21222 0.93574 0.0
C449 C 0.13639 0.1947 0.96803 0.0
C450 C 0.04114 0.23137 0.94907 0.0
C451 C 0.04928 0.23392 0.97174 0.0
H452 H 0.01088 0.72195 0.2484 0.0
H453 H 0.08513 0.87643 0.25934 0.0
H454 H 0.11033 0.87083 0.22168 0.0
H455 H 0.12397 0.8159 0.18787 0.0
H456 H 0.05368 0.66004 0.17707 0.0
H457 H 0.01334 0.67223 0.21227 0.0
C458 C 0.03117 0.75497 0.24231 0.0
C459 C 0.0468 0.79924 0.25665 0.0
C460 C 0.04657 0.75093 0.22073 0.0
C461 C 0.0734 0.84166 0.24864 0.0
C462 C 0.08786 0.83845 0.22714 0.0
C463 C 0.09818 0.78552 0.19297 0.0
C464 C 0.0907 0.73765 0.17993 0.0
C465 C 0.07655 0.79241 0.21335 0.0
C466 C 0.05876 0.69765 0.18677 0.0
C467 C 0.03622 0.70449 0.20694 0.0
H468 H 0.70635 0.67108 0.50467 0.0
H469 H 0.56121 0.74882 0.52178 0.0
H470 H 0.52914 0.74298 0.48354 0.0
H471 H 0.54978 0.73123 0.4452 0.0
H472 H 0.69436 0.65449 0.42755 0.0
H473 H 0.71864 0.64259 0.46602 0.0
C474 C 0.66708 0.68529 0.50008 0.0
C475 C 0.63692 0.7119 0.51595 0.0
C476 C 0.64892 0.68205 0.47797 0.0
C477 C 0.58593 0.72978 0.50977 0.0
C478 C 0.56742 0.72624 0.48793 0.0
C479 C 0.58551 0.70998 0.4498 0.0
C480 C 0.62036 0.69371 0.43386 0.0
C481 C 0.59963 0.70477 0.47185 0.0
C482 C 0.66685 0.66674 0.43972 0.0
C483 C 0.68097 0.66063 0.4617 0.0
H484 H 0.6333 0.24567 0.776 0.0
H485 H 0.47408 0.28064 0.75198 0.0
H486 H 0.49737 0.25457 0.71465 0.0
H487 H 0.56546 0.22533 0.68868 0.0
H488 H 0.7262 0.20306 0.71393 0.0
H489 H 0.69988 0.22078 0.75087 0.0
C490 C 0.60371 0.24908 0.76266 0.0
C491 C 0.5523 0.26648 0.76692 0.0
C492 C 0.61787 0.23646 0.74133 0.0
C493 C 0.51407 0.26761 0.74931 0.0
C494 C 0.5275 0.25315 0.7279 0.0
C495 C 0.59477 0.22625 0.70222 0.0
C496 C 0.64791 0.21465 0.69834 0.0
C497 C 0.57968 0.23843 0.72367 0.0
C498 C 0.68503 0.21229 0.71625 0.0
C499 C 0.67012 0.22258 0.73748 0.0
H500 H 0.06041 0.62482 0.97509 0.0
H501 H 0.19369 0.72225 0.96286 0.0
H502 H 0.23176 0.71394 -0.00017 0.0
H503 H 0.21596 0.69698 0.03724 0.0
H504 H 0.0769 0.61062 0.05067 0.0
H505 H 0.05412 0.59276 0.01158 0.0
C506 C 0.09846 0.64302 0.98038 0.0
C507 C 0.1236 0.67529 0.96655 0.0
C508 C 0.11932 0.63929 0.00188 0.0
C509 C 0.17295 0.69852 0.9735 0.0
C510 C 0.1949 0.69341 0.99455 0.0
C511 C 0.18246 0.67152 0.03149 0.0
C512 C 0.14779 0.65557 0.04661 0.0
C513 C 0.16707 0.66622 0.00918 0.0
C514 C 0.10423 0.62304 0.03923 0.0
C515 C 0.09047 0.61416 0.01687 0.0
H516 H 0.63714 0.85137 0.23669 0.0
H517 H 0.63559 0.69881 0.20007 0.0
H518 H 0.63188 0.65413 0.23383 0.0
H519 H 0.61918 0.65968 0.27335 0.0
H520 H 0.61808 0.81317 0.30939 0.0
H521 H 0.63374 0.85656 0.27648 0.0
C522 C 0.63714 0.80835 0.2363 0.0
C523 C 0.63667 0.77806 0.21625 0.0
C524 C 0.63446 0.78332 0.25564 0.0
C525 C 0.63626 0.72248 0.21556 0.0
C526 C 0.63387 0.69711 0.23477 0.0
C527 C 0.62362 0.70249 0.27397 0.0
C528 C 0.61864 0.73326 0.29373 0.0
C529 C 0.63154 0.72722 0.25485 0.0
C530 C 0.6233 0.78873 0.29442 0.0
C531 C 0.63167 0.81358 0.27558 0.0
H532 H 0.5295 0.11926 0.4861 0.0
H533 H 0.64924 0.22358 0.46619 0.0
H534 H 0.69116 0.23138 0.50299 0.0
H535 H 0.68461 0.22129 0.54168 0.0
H536 H 0.56442 0.12007 0.56276 0.0
H537 H 0.53282 0.09651 0.52464 0.0
C538 C 0.56542 0.14267 0.48978 0.0
C539 C 0.58538 0.17212 0.47367 0.0
C540 C 0.58915 0.14746 0.51116 0.0
C541 C 0.63226 0.2019 0.47852 0.0
C542 C 0.65642 0.20616 0.49952 0.0
C543 C 0.65274 0.19255 0.5378 0.0
C544 C 0.62658 0.17251 0.55475 0.0
C545 C 0.63392 0.18097 0.51611 0.0
C546 C 0.58526 0.13552 0.54981 0.0
C547 C 0.5668 0.12275 0.52807 0.0
H548 H 0.17158 0.28302 0.72873 0.0
H549 H 0.04514 0.39761 0.72822 0.0
H550 H 0.02237 0.37501 0.76424 0.0
H551 H 0.03317 0.31691 0.79415 0.0
H552 H 0.15934 0.20272 0.79506 0.0
H553 H 0.18836 0.23143 0.76059 0.0
C554 C 0.14 0.30412 0.73675 0.0
C555 C 0.10983 0.34174 0.72578 0.0
C556 C 0.12687 0.29056 0.75734 0.0
C557 C 0.06849 0.36811 0.73625 0.0
C558 C 0.05545 0.35518 0.7568 0.0
C559 C 0.06733 0.29882 0.78681 0.0
C560 C 0.09418 0.25785 0.79678 0.0
C561 C 0.0834 0.31547 0.76717 0.0
C562 C 0.1384 0.23445 0.78745 0.0
C563 C 0.15479 0.2508 0.76782 0.0
loop_
_geom_bond_atom_site_label_1
_geom_bond_atom_site_label_2
_geom_bond_distance
_geom_bond_site_symmetry_2
_ccdc_geom_bond_type
H0 C5 0.930 . S
H1 C8 0.930 . S
H2 C10 0.930 . S
H3 C4 1.016 . S
C4 H3 1.016 . S
C4 N11 1.286 . S
C5 H0 0.930 . S
C5 C6 1.397 . S
C5 C7 1.361 . S
C6 C5 1.397 . S
C6 C10 1.390 . S
C7 C5 1.361 . S
C7 C8 1.393 . S
C7 N11 1.413 . S
C8 H1 0.930 . S
C8 C7 1.393 . S
C8 C9 1.399 . S
C9 C8 1.399 . S
C9 C10 1.381 . S
C10 H2 0.930 . S
C10 C6 1.390 . S
C10 C9 1.381 . S
N11 C4 1.286 . S
N11 C7 1.413 . S
H12 C17 0.930 . S
H13 C20 0.930 . S
H14 C22 0.930 . S
H15 C16 1.016 . S
C16 H15 1.016 . S
C16 N23 1.286 . S
C17 H12 0.930 . S
C17 C18 1.397 . S
C17 C19 1.361 . S
C18 C17 1.397 . S
C18 C22 1.390 . S
C19 C17 1.361 . S
C19 C20 1.393 . S
C19 N23 1.413 . S
C20 H13 0.930 . S
C20 C19 1.393 . S
C20 C21 1.399 . S
C21 C20 1.399 . S
C21 C22 1.381 . S
C22 H14 0.930 . S
C22 C18 1.390 . S
C22 C21 1.381 . S
N23 C16 1.286 . S
N23 C19 1.413 . S
H24 C29 0.930 . S
H25 C32 0.930 . S
H26 C34 0.930 . S
H27 C28 1.016 . S
C28 H27 1.016 . S
C28 N35 1.286 . S
C29 H24 0.930 . S
C29 C30 1.397 . S
C29 C31 1.361 . S
C30 C29 1.397 . S
C30 C34 1.390 . S
C31 C29 1.361 . S
C31 C32 1.393 . S
C31 N35 1.413 . S
C32 H25 0.930 . S
C32 C31 1.393 . S
C32 C33 1.399 . S
C33 C32 1.399 . S
C33 C34 1.381 . S
C34 H26 0.930 . S
C34 C30 1.390 . S
C34 C33 1.381 . S
N35 C28 1.286 . S
N35 C31 1.413 . S
H36 C41 0.930 . S
H37 C44 0.930 . S
H38 C46 0.930 . S
H39 C40 1.016 . S
C40 H39 1.016 . S
C40 N47 1.286 . S
C41 H36 0.930 . S
C41 C42 1.397 . S
C41 C43 1.361 . S
C42 C41 1.397 . S
C42 C46 1.390 . S
C43 C41 1.361 . S
C43 C44 1.393 . S
C43 N47 1.413 . S
C44 H37 0.930 . S
C44 C43 1.393 . S
C44 C45 1.399 . S
C45 C44 1.399 . S
C45 C46 1.381 . S
C46 H38 0.930 . S
C46 C42 1.390 . S
C46 C45 1.381 . S
N47 C40 1.286 . S
N47 C43 1.413 . S
H48 C53 0.930 . S
H49 C56 0.930 . S
H50 C58 0.930 . S
H51 C52 1.016 . S
C52 H51 1.016 . S
C52 N59 1.286 . S
C53 H48 0.930 . S
C53 C54 1.397 . S
C53 C55 1.361 . S
C54 C53 1.397 . S
C54 C58 1.390 . S
C55 C53 1.361 . S
C55 C56 1.393 . S
C55 N59 1.413 . S
C56 H49 0.930 . S
C56 C55 1.393 . S
C56 C57 1.399 . S
C57 C56 1.399 . S
C57 C58 1.381 . S
C58 H50 0.930 . S
C58 C54 1.390 . S
C58 C57 1.381 . S
N59 C52 1.286 . S
N59 C55 1.413 . S
H60 C65 0.930 . S
H61 C68 0.930 . S
H62 C70 0.930 . S
H63 C64 1.016 . S
C64 H63 1.016 . S
C64 N71 1.286 . S
C65 H60 0.930 . S
C65 C66 1.397 . S
C65 C67 1.361 . S
C66 C65 1.397 . S
C66 C70 1.390 . S
C67 C65 1.361 . S
C67 C68 1.393 . S
C67 N71 1.413 . S
C68 H61 0.930 . S
C68 C67 1.393 . S
C68 C69 1.399 . S
C69 C68 1.399 . S
C69 C70 1.381 . S
C70 H62 0.930 . S
C70 C66 1.390 . S
C70 C69 1.381 . S
N71 C64 1.286 . S
N71 C67 1.413 . S
H72 C77 0.930 . S
H73 C80 0.930 . S
H74 C82 0.930 . S
H75 C76 1.016 . S
C76 H75 1.016 . S
C76 N83 1.286 . S
C77 H72 0.930 . S
C77 C78 1.397 . S
C77 C79 1.361 . S
C78 C77 1.397 . S
C78 C82 1.390 . S
C79 C77 1.361 . S
C79 C80 1.393 . S
C79 N83 1.413 . S
C80 H73 0.930 . S
C80 C79 1.393 . S
C80 C81 1.399 . S
C81 C80 1.399 . S
C81 C82 1.381 . S
C82 H74 0.930 . S
C82 C78 1.390 . S
C82 C81 1.381 . S
N83 C76 1.286 . S
N83 C79 1.413 . S
H84 C89 0.930 . S
H85 C92 0.930 . S
H86 C94 0.930 . S
H87 C88 1.016 . S
C88 H87 1.016 . S
C88 N95 1.286 . S
C89 H84 0.930 . S
C89 C90 1.397 . S
C89 C91 1.361 . S
C90 C89 1.397 . S
C90 C94 1.390 . S
C91 C89 1.361 . S
C91 C92 1.393 . S
C91 N95 1.413 . S
C92 H85 0.930 . S
C92 C91 1.393 . S
C92 C93 1.399 . S
C93 C92 1.399 . S
C93 C94 1.381 . S
C94 H86 0.930 . S
C94 C90 1.390 . S
C94 C93 1.381 . S
N95 C88 1.286 . S
N95 C91 1.413 . S
Zn96 O102 1.920 . S
Zn96 O108 1.898 . S
Zn96 O111 1.905 . S
Zn97 O105 1.905 . S
Zn97 O106 1.898 . S
Zn97 O114 1.920 1_455 S
Zn98 O101 2.080 . S
Zn98 O104 2.114 . S
Zn98 O107 2.120 . S
Zn98 O109 2.120 . S
Zn98 O110 2.114 . S
Zn98 O113 2.080 . S
C99 O104 1.166 . S
C99 O105 1.182 . S
C100 O106 1.167 . S
C100 O107 1.299 . S
O101 Zn98 2.080 . S
O101 C115 1.305 . S
O102 Zn96 1.920 . S
O102 C115 1.234 . S
C103 O108 1.167 . S
C103 O109 1.299 . S
O104 Zn98 2.114 . S
O104 C99 1.166 . S
O105 Zn97 1.905 . S
O105 C99 1.182 . S
O106 Zn97 1.898 . S
O106 C100 1.167 . S
O107 Zn98 2.120 . S
O107 C100 1.299 . S
O108 Zn96 1.898 . S
O108 C103 1.167 . S
O109 Zn98 2.120 . S
O109 C103 1.299 . S
O110 Zn98 2.114 . S
O110 C112 1.166 . S
O111 Zn96 1.905 . S
O111 C112 1.182 . S
C112 O110 1.166 . S
C112 O111 1.182 . S
O113 Zn98 2.080 . S
O113 C116 1.305 1_455 S
O114 Zn97 1.920 1_655 S
O114 C116 1.234 . S
C115 O101 1.305 . S
C115 O102 1.234 . S
C116 O113 1.305 1_655 S
C116 O114 1.234 . S
Zn117 O123 1.920 . S
Zn117 O129 1.898 . S
Zn117 O132 1.905 . S
Zn118 O126 1.905 . S
Zn118 O127 1.898 . S
Zn118 O135 1.920 . S
Zn119 O122 2.080 . S
Zn119 O125 2.114 . S
Zn119 O128 2.120 . S
Zn119 O130 2.120 . S
Zn119 O131 2.114 . S
Zn119 O134 2.080 . S
C120 O125 1.166 . S
C120 O126 1.182 . S
C121 O127 1.167 . S
C121 O128 1.299 . S
O122 Zn119 2.080 . S
O122 C136 1.305 . S
O123 Zn117 1.920 . S
O123 C136 1.234 . S
C124 O129 1.167 . S
C124 O130 1.299 . S
O125 Zn119 2.114 . S
O125 C120 1.166 . S
O126 Zn118 1.905 . S
O126 C120 1.182 . S
O127 Zn118 1.898 . S
O127 C121 1.167 . S
O128 Zn119 2.120 . S
O128 C121 1.299 . S
O129 Zn117 1.898 . S
O129 C124 1.167 . S
O130 Zn119 2.120 . S
O130 C124 1.299 . S
O131 Zn119 2.114 . S
O131 C133 1.166 . S
O132 Zn117 1.905 . S
O132 C133 1.182 . S
C133 O131 1.166 . S
C133 O132 1.182 . S
O134 Zn119 2.080 . S
O134 C137 1.305 . S
O135 Zn118 1.920 . S
O135 C137 1.234 . S
C136 O122 1.305 . S
C136 O123 1.234 . S
C137 O134 1.305 . S
C137 O135 1.234 . S
Zn138 O144 1.920 . S
Zn138 O150 1.898 . S
Zn138 O153 1.905 . S
Zn139 O147 1.905 . S
Zn139 O148 1.898 . S
Zn139 O156 1.920 . S
Zn140 O143 2.080 . S
Zn140 O146 2.114 . S
Zn140 O149 2.120 . S
Zn140 O151 2.120 . S
Zn140 O152 2.114 . S
Zn140 O155 2.080 . S
C141 O146 1.166 . S
C141 O147 1.182 . S
C142 O148 1.167 . S
C142 O149 1.299 . S
O143 Zn140 2.080 . S
O143 C157 1.305 . S
O144 Zn138 1.920 . S
O144 C157 1.234 . S
C145 O150 1.167 . S
C145 O151 1.299 . S
O146 Zn140 2.114 . S
O146 C141 1.166 . S
O147 Zn139 1.905 . S
O147 C141 1.182 . S
O148 Zn139 1.898 . S
O148 C142 1.167 . S
O149 Zn140 2.120 . S
O149 C142 1.299 . S
O150 Zn138 1.898 . S
O150 C145 1.167 . S
O151 Zn140 2.120 . S
O151 C145 1.299 . S
O152 Zn140 2.114 . S
O152 C154 1.166 . S
O153 Zn138 1.905 . S
O153 C154 1.182 . S
C154 O152 1.166 . S
C154 O153 1.182 . S
O155 Zn140 2.080 . S
O155 C158 1.305 . S
O156 Zn139 1.920 . S
O156 C158 1.234 . S
C157 O143 1.305 . S
C157 O144 1.234 . S
C158 O155 1.305 . S
C158 O156 1.234 . S
Zn159 O165 1.920 . S
Zn159 O171 1.898 . S
Zn159 O174 1.905 1_455 S
Zn160 O168 1.905 . S
Zn160 O169 1.898 . S
Zn160 O177 1.920 . S
Zn161 O164 2.080 . S
Zn161 O167 2.114 . S
Zn161 O170 2.120 . S
Zn161 O172 2.120 . S
Zn161 O173 2.114 . S
Zn161 O176 2.080 . S
C162 O167 1.166 . S
C162 O168 1.182 . S
C163 O169 1.167 . S
C163 O170 1.299 . S
O164 Zn161 2.080 . S
O164 C178 1.305 . S
O165 Zn159 1.920 . S
O165 C178 1.234 . S
C166 O171 1.167 . S
C166 O172 1.299 . S
O167 Zn161 2.114 . S
O167 C162 1.166 . S
O168 Zn160 1.905 . S
O168 C162 1.182 . S
O169 Zn160 1.898 . S
O169 C163 1.167 . S
O170 Zn161 2.120 . S
O170 C163 1.299 . S
O171 Zn159 1.898 . S
O171 C166 1.167 . S
O172 Zn161 2.120 . S
O172 C166 1.299 . S
O173 Zn161 2.114 . S
O173 C175 1.166 1_455 S
O174 Zn159 1.905 1_655 S
O174 C175 1.182 . S
C175 O173 1.166 1_655 S
C175 O174 1.182 . S
O176 Zn161 2.080 . S
O176 C179 1.305 . S
O177 Zn160 1.920 . S
O177 C179 1.234 . S
C178 O164 1.305 . S
C178 O165 1.234 . S
C179 O176 1.305 . S
C179 O177 1.234 . S
H180 C186 0.930 . S
H181 C189 0.930 . S
H182 C190 0.930 . S
H183 C191 0.930 . S
H184 C194 0.930 . S
H185 C195 0.930 . S
C186 H180 0.930 . S
C186 C187 1.355 . S
C186 C188 1.415 . S
C187 C186 1.355 . S
C187 C189 1.419 . S
C188 C186 1.415 . S
C188 C193 1.425 . S
C188 C195 1.409 . S
C189 H181 0.930 . S
C189 C187 1.419 . S
C189 C190 1.362 . S
C190 H182 0.930 . S
C190 C189 1.362 . S
C190 C193 1.409 . S
C191 H183 0.930 . S
C191 C192 1.355 . S
C191 C193 1.415 . S
C192 C191 1.355 . S
C192 C194 1.419 . S
C193 C188 1.425 . S
C193 C190 1.409 . S
C193 C191 1.415 . S
C194 H184 0.930 . S
C194 C192 1.419 . S
C194 C195 1.362 . S
C195 H185 0.930 . S
C195 C188 1.409 . S
C195 C194 1.362 . S
H196 C202 0.930 . S
H197 C205 0.930 . S
H198 C206 0.930 . S
H199 C207 0.930 . S
H200 C210 0.930 . S
H201 C211 0.930 . S
C202 H196 0.930 . S
C202 C203 1.355 . S
C202 C204 1.415 . S
C203 C202 1.355 . S
C203 C205 1.419 . S
C204 C202 1.415 . S
C204 C209 1.425 . S
C204 C211 1.409 . S
C205 H197 0.930 . S
C205 C203 1.419 . S
C205 C206 1.362 . S
C206 H198 0.930 . S
C206 C205 1.362 . S
C206 C209 1.409 . S
C207 H199 0.930 . S
C207 C208 1.355 . S
C207 C209 1.415 . S
C208 C207 1.355 . S
C208 C210 1.419 . S
C209 C204 1.425 . S
C209 C206 1.409 . S
C209 C207 1.415 . S
C210 H200 0.930 . S
C210 C208 1.419 . S
C210 C211 1.362 . S
C211 H201 0.930 . S
C211 C204 1.409 . S
C211 C210 1.362 . S
H212 C218 0.930 . S
H213 C221 0.930 . S
H214 C222 0.930 . S
H215 C223 0.930 . S
H216 C226 0.930 . S
H217 C227 0.930 . S
C218 H212 0.930 . S
C218 C219 1.355 . S
C218 C220 1.415 . S
C219 C218 1.355 . S
C219 C221 1.419 . S
C220 C218 1.415 . S
C220 C225 1.425 . S
C220 C227 1.409 . S
C221 H213 0.930 . S
C221 C219 1.419 . S
C221 C222 1.362 . S
C222 H214 0.930 . S
C222 C221 1.362 . S
C222 C225 1.409 . S
C223 H215 0.930 . S
C223 C224 1.355 . S
C223 C225 1.415 . S
C224 C223 1.355 . S
C224 C226 1.419 . S
C225 C220 1.425 . S
C225 C222 1.409 . S
C225 C223 1.415 . S
C226 H216 0.930 . S
C226 C224 1.419 . S
C226 C227 1.362 . S
C227 H217 0.930 . S
C227 C220 1.409 . S
C227 C226 1.362 . S
H228 C234 0.930 . S
H229 C237 0.930 . S
H230 C238 0.930 . S
H231 C239 0.930 . S
H232 C242 0.930 . S
H233 C243 0.930 . S
C234 H228 0.930 . S
C234 C235 1.355 . S
C234 C236 1.415 . S
C235 C234 1.355 . S
C235 C237 1.419 . S
C236 C234 1.415 . S
C236 C241 1.425 . S
C236 C243 1.409 . S
C237 H229 0.930 . S
C237 C235 1.419 . S
C237 C238 1.362 . S
C238 H230 0.930 . S
C238 C237 1.362 . S
C238 C241 1.409 . S
C239 H231 0.930 . S
C239 C240 1.355 . S
C239 C241 1.415 . S
C240 C239 1.355 . S
C240 C242 1.419 . S
C241 C236 1.425 . S
C241 C238 1.409 . S
C241 C239 1.415 . S
C242 H232 0.930 . S
C242 C240 1.419 . S
C242 C243 1.362 . S
C243 H233 0.930 . S
C243 C236 1.409 . S
C243 C242 1.362 . S
H244 C250 0.930 1_655 S
H245 C253 0.930 . S
H246 C254 0.930 . S
H247 C255 0.930 . S
H248 C258 0.943 . S
H249 C259 0.930 1_655 S
C250 H244 0.930 1_455 S
C250 C251 1.355 . S
C250 C252 1.415 . S
C251 C250 1.355 . S
C251 C253 1.419 . S
C252 C250 1.415 . S
C252 C257 1.425 . S
C252 C259 1.409 . S
C253 H245 0.930 . S
C253 C251 1.419 . S
C253 C254 1.362 . S
C254 H246 0.930 . S
C254 C253 1.362 . S
C254 C257 1.409 . S
C255 H247 0.930 . S
C255 C256 1.355 . S
C255 C257 1.415 . S
C256 C255 1.355 . S
C256 C258 1.419 . S
C257 C252 1.425 . S
C257 C254 1.409 . S
C257 C255 1.415 . S
C258 H248 0.943 . S
C258 C256 1.419 . S
C258 C259 1.362 . S
C259 H249 0.930 1_455 S
C259 C252 1.409 . S
C259 C258 1.362 . S
H260 C266 0.930 . S
H261 C269 0.930 . S
H262 C270 0.930 . S
H263 C271 0.930 . S
H264 C274 0.930 . S
H265 C275 0.930 . S
C266 H260 0.930 . S
C266 C267 1.355 . S
C266 C268 1.415 . S
C267 C266 1.355 . S
C267 C269 1.419 . S
C268 C266 1.415 . S
C268 C273 1.425 . S
C268 C275 1.409 . S
C269 H261 0.930 . S
C269 C267 1.419 . S
C269 C270 1.362 . S
C270 H262 0.930 . S
C270 C269 1.362 . S
C270 C273 1.409 . S
C271 H263 0.930 . S
C271 C272 1.355 . S
C271 C273 1.415 . S
C272 C271 1.355 . S
C272 C274 1.419 . S
C273 C268 1.425 . S
C273 C270 1.409 . S
C273 C271 1.415 . S
C274 H264 0.930 . S
C274 C272 1.419 . S
C274 C275 1.362 . S
C275 H265 0.930 . S
C275 C268 1.409 . S
C275 C274 1.362 . S
H276 C282 0.930 . S
H277 C285 0.930 . S
H278 C286 0.930 . S
H279 C287 0.930 . S
H280 C290 0.930 . S
H281 C291 0.930 . S
C282 H276 0.930 . S
C282 C283 1.355 . S
C282 C284 1.415 . S
C283 C282 1.355 . S
C283 C285 1.419 . S
C284 C282 1.415 . S
C284 C289 1.425 . S
C284 C291 1.409 . S
C285 H277 0.930 . S
C285 C283 1.419 . S
C285 C286 1.362 . S
C286 H278 0.930 . S
C286 C285 1.362 . S
C286 C289 1.409 . S
C287 H279 0.930 . S
C287 C288 1.355 . S
C287 C289 1.415 . S
C288 C287 1.355 . S
C288 C290 1.419 . S
C289 C284 1.425 . S
C289 C286 1.409 . S
C289 C287 1.415 . S
C290 H280 0.930 . S
C290 C288 1.419 . S
C290 C291 1.362 . S
C291 H281 0.930 . S
C291 C284 1.409 . S
C291 C290 1.362 . S
H292 C298 0.930 . S
H293 C301 0.930 1_455 S
H294 C302 0.930 . S
H295 C303 0.930 . S
H296 C306 0.930 . S
H297 C307 0.930 . S
C298 H292 0.930 . S
C298 C299 1.355 . S
C298 C300 1.415 . S
C299 C298 1.355 . S
C299 C301 1.419 . S
C300 C298 1.415 . S
C300 C305 1.425 . S
C300 C307 1.409 . S
C301 H293 0.930 1_655 S
C301 C299 1.419 . S
C301 C302 1.362 . S
C302 H294 0.930 . S
C302 C301 1.362 . S
C302 C305 1.409 . S
C303 H295 0.930 . S
C303 C304 1.355 . S
C303 C305 1.415 . S
C304 C303 1.355 . S
C304 C306 1.419 . S
C305 C300 1.425 . S
C305 C302 1.409 . S
C305 C303 1.415 . S
C306 H296 0.930 . S
C306 C304 1.419 . S
C306 C307 1.362 . S
C307 H297 0.930 . S
C307 C300 1.409 . S
C307 C306 1.362 . S
H308 C314 0.930 . S
H309 C317 0.930 . S
H310 C318 0.930 . S
H311 C319 0.930 . S
H312 C322 0.930 . S
H313 C323 0.930 . S
C314 H308 0.930 . S
C314 C315 1.355 . S
C314 C316 1.415 . S
C315 C314 1.355 . S
C315 C317 1.419 . S
C316 C314 1.415 . S
C316 C321 1.425 . S
C316 C323 1.409 . S
C317 H309 0.930 . S
C317 C315 1.419 . S
C317 C318 1.362 . S
C318 H310 0.930 . S
C318 C317 1.362 . S
C318 C321 1.409 . S
C319 H311 0.930 . S
C319 C320 1.355 . S
C319 C321 1.415 . S
C320 C319 1.355 . S
C320 C322 1.419 . S
C321 C316 1.425 . S
C321 C318 1.409 . S
C321 C319 1.415 . S
C322 H312 0.930 . S
C322 C320 1.419 . S
C322 C323 1.362 . S
C323 H313 0.930 . S
C323 C316 1.409 . S
C323 C322 1.362 . S
H324 C330 0.930 . S
H325 C333 0.930 . S
H326 C334 0.930 . S
H327 C335 0.930 . S
H328 C338 0.930 . S
H329 C339 0.930 . S
C330 H324 0.930 . S
C330 C331 1.355 . S
C330 C332 1.415 . S
C331 C330 1.355 . S
C331 C333 1.419 . S
C332 C330 1.415 . S
C332 C337 1.425 . S
C332 C339 1.409 . S
C333 H325 0.930 . S
C333 C331 1.419 . S
C333 C334 1.362 . S
C334 H326 0.930 . S
C334 C333 1.362 . S
C334 C337 1.409 . S
C335 H327 0.930 . S
C335 C336 1.355 . S
C335 C337 1.415 . S
C336 C335 1.355 . S
C336 C338 1.419 . S
C337 C332 1.425 . S
C337 C334 1.409 . S
C337 C335 1.415 . S
C338 H328 0.930 . S
C338 C336 1.419 . S
C338 C339 1.362 . S
C339 H329 0.930 . S
C339 C332 1.409 . S
C339 C338 1.362 . S
H340 C346 0.930 . S
H341 C349 0.930 . S
H342 C350 0.930 . S
H343 C351 0.930 . S
H344 C354 0.930 . S
H345 C355 0.930 . S
C346 H340 0.930 . S
C346 C347 1.355 . S
C346 C348 1.415 . S
C347 C346 1.355 . S
C347 C349 1.419 . S
C348 C346 1.415 . S
C348 C353 1.425 . S
C348 C355 1.409 . S
C349 H341 0.930 . S
C349 C347 1.419 . S
C349 C350 1.362 . S
C350 H342 0.930 . S
C350 C349 1.362 . S
C350 C353 1.409 . S
C351 H343 0.930 . S
C351 C352 1.355 . S
C351 C353 1.415 . S
C352 C351 1.355 . S
C352 C354 1.419 . S
C353 C348 1.425 . S
C353 C350 1.409 . S
C353 C351 1.415 . S
C354 H344 0.930 . S
C354 C352 1.419 . S
C354 C355 1.362 . S
C355 H345 0.930 . S
C355 C348 1.409 . S
C355 C354 1.362 . S
H356 C362 0.930 . S
H357 C365 0.930 . S
H358 C366 0.930 . S
H359 C367 0.930 . S
H360 C370 0.930 . S
H361 C371 0.930 . S
C362 H356 0.930 . S
C362 C363 1.355 . S
C362 C364 1.415 . S
C363 C362 1.355 . S
C363 C365 1.419 . S
C364 C362 1.415 . S
C364 C369 1.425 . S
C364 C371 1.409 . S
C365 H357 0.930 . S
C365 C363 1.419 . S
C365 C366 1.362 . S
C366 H358 0.930 . S
C366 C365 1.362 . S
C366 C369 1.409 . S
C367 H359 0.930 . S
C367 C368 1.355 . S
C367 C369 1.415 . S
C368 C367 1.355 . S
C368 C370 1.419 . S
C369 C364 1.425 . S
C369 C366 1.409 . S
C369 C367 1.415 . S
C370 H360 0.930 . S
C370 C368 1.419 . S
C370 C371 1.362 . S
C371 H361 0.930 . S
C371 C364 1.409 . S
C371 C370 1.362 . S
H372 C378 0.930 . S
H373 C381 0.930 . S
H374 C382 0.930 . S
H375 C383 0.930 . S
H376 C386 0.930 . S
H377 C387 0.930 . S
C378 H372 0.930 . S
C378 C379 1.355 . S
C378 C380 1.415 . S
C379 C378 1.355 . S
C379 C381 1.419 . S
C380 C378 1.415 . S
C380 C385 1.425 . S
C380 C387 1.409 . S
C381 H373 0.930 . S
C381 C379 1.419 . S
C381 C382 1.362 . S
C382 H374 0.930 . S
C382 C381 1.362 . S
C382 C385 1.409 . S
C383 H375 0.930 . S
C383 C384 1.355 . S
C383 C385 1.415 1_545 S
C384 C383 1.355 . S
C384 C386 1.419 . S
C385 C380 1.425 . S
C385 C382 1.409 . S
C385 C383 1.415 1_565 S
C386 H376 0.930 . S
C386 C384 1.419 . S
C386 C387 1.362 1_545 S
C387 H377 0.930 . S
C387 C380 1.409 . S
C387 C386 1.362 1_565 S
H388 C394 0.930 . S
H389 C397 0.930 . S
H390 C398 0.930 . S
H391 C399 0.930 . S
H392 C402 0.930 . S
H393 C403 0.930 . S
C394 H388 0.930 . S
C394 C395 1.355 . S
C394 C396 1.415 1_545 S
C395 C394 1.355 . S
C395 C397 1.419 . S
C396 C394 1.415 1_565 S
C396 C401 1.425 . S
C396 C403 1.409 . S
C397 H389 0.930 . S
C397 C395 1.419 . S
C397 C398 1.362 1_545 S
C398 H390 0.930 . S
C398 C397 1.362 1_565 S
C398 C401 1.409 . S
C399 H391 0.930 . S
C399 C400 1.355 . S
C399 C401 1.415 . S
C400 C399 1.355 . S
C400 C402 1.419 . S
C401 C396 1.425 . S
C401 C398 1.409 . S
C401 C399 1.415 . S
C402 H392 0.930 . S
C402 C400 1.419 . S
C402 C403 1.362 . S
C403 H393 0.930 . S
C403 C396 1.409 . S
C403 C402 1.362 . S
H404 C410 0.930 . S
H405 C413 0.930 . S
H406 C414 0.930 . S
H407 C415 0.930 . S
H408 C418 0.930 . S
H409 C419 0.930 . S
C410 H404 0.930 . S
C410 C411 1.355 . S
C410 C412 1.415 . S
C411 C410 1.355 . S
C411 C413 1.419 . S
C412 C410 1.415 . S
C412 C417 1.425 . S
C412 C419 1.409 . S
C413 H405 0.930 . S
C413 C411 1.419 . S
C413 C414 1.362 . S
C414 H406 0.930 . S
C414 C413 1.362 . S
C414 C417 1.409 . S
C415 H407 0.930 . S
C415 C416 1.355 . S
C415 C417 1.415 1_565 S
C416 C415 1.355 . S
C416 C418 1.419 . S
C417 C412 1.425 . S
C417 C414 1.409 . S
C417 C415 1.415 1_545 S
C418 H408 0.930 . S
C418 C416 1.419 . S
C418 C419 1.362 1_565 S
C419 H409 0.930 . S
C419 C412 1.409 . S
C419 C418 1.362 1_545 S
H420 C426 0.930 . S
H421 C429 0.930 . S
H422 C430 0.935 . S
H423 C431 0.930 . S
H424 C434 0.930 . S
H425 C435 0.930 1_565 S
C426 H420 0.930 . S
C426 C427 1.355 . S
C426 C428 1.415 . S
C427 C426 1.355 . S
C427 C429 1.419 . S
C428 C426 1.415 . S
C428 C433 1.425 1_565 S
C428 C435 1.409 1_565 S
C429 H421 0.930 . S
C429 C427 1.419 . S
C429 C430 1.354 1_565 S
C430 H422 0.935 . S
C430 C429 1.354 1_545 S
C430 C433 1.413 . S
C431 H423 0.930 . S
C431 C432 1.355 . S
C431 C433 1.415 . S
C432 C431 1.355 . S
C432 C434 1.419 . S
C433 C428 1.425 1_545 S
C433 C430 1.413 . S
C433 C431 1.415 . S
C434 H424 0.930 . S
C434 C432 1.419 . S
C434 C435 1.362 . S
C435 H425 0.930 1_545 S
C435 C428 1.409 1_545 S
C435 C434 1.362 . S
H436 C442 0.930 . S
H437 C445 0.930 . S
H438 C446 0.930 . S
H439 C447 0.930 . S
H440 C450 0.930 . S
H441 C451 0.930 . S
C442 H436 0.930 . S
C442 C443 1.355 . S
C442 C444 1.415 1_554 S
C443 C442 1.355 . S
C443 C445 1.419 . S
C444 C442 1.415 1_556 S
C444 C449 1.425 . S
C444 C451 1.409 . S
C445 H437 0.930 . S
C445 C443 1.419 . S
C445 C446 1.362 1_554 S
C446 H438 0.930 . S
C446 C445 1.362 1_556 S
C446 C449 1.409 . S
C447 H439 0.930 . S
C447 C448 1.355 . S
C447 C449 1.415 . S
C448 C447 1.355 . S
C448 C450 1.419 . S
C449 C444 1.425 . S
C449 C446 1.409 . S
C449 C447 1.415 . S
C450 H440 0.930 . S
C450 C448 1.419 . S
C450 C451 1.362 . S
C451 H441 0.930 . S
C451 C444 1.409 . S
C451 C450 1.362 . S
H452 C458 0.930 . S
H453 C461 0.930 . S
H454 C462 0.930 . S
H455 C463 0.930 . S
H456 C466 0.930 . S
H457 C467 0.930 . S
C458 H452 0.930 . S
C458 C459 1.355 . S
C458 C460 1.415 . S
C459 C458 1.355 . S
C459 C461 1.419 . S
C460 C458 1.415 . S
C460 C465 1.425 . S
C460 C467 1.409 . S
C461 H453 0.930 . S
C461 C459 1.419 . S
C461 C462 1.362 . S
C462 H454 0.930 . S
C462 C461 1.362 . S
C462 C465 1.409 . S
C463 H455 0.930 . S
C463 C464 1.355 . S
C463 C465 1.415 . S
C464 C463 1.355 . S
C464 C466 1.419 . S
C465 C460 1.425 . S
C465 C462 1.409 . S
C465 C463 1.415 . S
C466 H456 0.930 . S
C466 C464 1.419 . S
C466 C467 1.362 . S
C467 H457 0.930 . S
C467 C460 1.409 . S
C467 C466 1.362 . S
H468 C474 0.930 . S
H469 C477 0.930 . S
H470 C478 0.930 . S
H471 C479 0.930 . S
H472 C482 0.930 . S
H473 C483 0.930 . S
C474 H468 0.930 . S
C474 C475 1.355 . S
C474 C476 1.415 . S
C475 C474 1.355 . S
C475 C477 1.419 . S
C476 C474 1.415 . S
C476 C481 1.425 . S
C476 C483 1.409 . S
C477 H469 0.930 . S
C477 C475 1.419 . S
C477 C478 1.362 . S
C478 H470 0.930 . S
C478 C477 1.362 . S
C478 C481 1.409 . S
C479 H471 0.930 . S
C479 C480 1.355 . S
C479 C481 1.415 . S
C480 C479 1.355 . S
C480 C482 1.419 . S
C481 C476 1.425 . S
C481 C478 1.409 . S
C481 C479 1.415 . S
C482 H472 0.930 . S
C482 C480 1.419 . S
C482 C483 1.362 . S
C483 H473 0.930 . S
C483 C476 1.409 . S
C483 C482 1.362 . S
H484 C490 0.930 . S
H485 C493 0.930 . S
H486 C494 0.930 . S
H487 C495 0.930 . S
H488 C498 0.930 . S
H489 C499 0.930 . S
C490 H484 0.930 . S
C490 C491 1.355 . S
C490 C492 1.415 . S
C491 C490 1.355 . S
C491 C493 1.419 . S
C492 C490 1.415 . S
C492 C497 1.425 . S
C492 C499 1.409 . S
C493 H485 0.930 . S
C493 C491 1.419 . S
C493 C494 1.362 . S
C494 H486 0.930 . S
C494 C493 1.362 . S
C494 C497 1.409 . S
C495 H487 0.930 . S
C495 C496 1.355 . S
C495 C497 1.415 . S
C496 C495 1.355 . S
C496 C498 1.419 . S
C497 C492 1.425 . S
C497 C494 1.409 . S
C497 C495 1.415 . S
C498 H488 0.930 . S
C498 C496 1.419 . S
C498 C499 1.362 . S
C499 H489 0.930 . S
C499 C492 1.409 . S
C499 C498 1.362 . S
H500 C506 0.930 1_655 S
H501 C509 0.930 . S
H502 C510 0.930 . S
H503 C511 0.930 . S
H504 C514 0.930 . S
H505 C515 0.930 1_655 S
C506 H500 0.930 1_455 S
C506 C507 1.355 . S
C506 C508 1.415 1_556 S
C507 C506 1.355 . S
C507 C509 1.419 . S
C508 C506 1.415 1_554 S
C508 C513 1.425 . S
C508 C515 1.409 . S
C509 H501 0.930 . S
C509 C507 1.419 . S
C509 C510 1.362 1_556 S
C510 H502 0.930 . S
C510 C509 1.362 1_554 S
C510 C513 1.409 . S
C511 H503 0.930 . S
C511 C512 1.355 . S
C511 C513 1.415 . S
C512 C511 1.355 . S
C512 C514 1.419 . S
C513 C508 1.425 . S
C513 C510 1.409 . S
C513 C511 1.415 . S
C514 H504 0.930 . S
C514 C512 1.419 . S
C514 C515 1.362 . S
C515 H505 0.930 1_455 S
C515 C508 1.409 . S
C515 C514 1.362 . S
H516 C522 0.930 . S
H517 C525 0.930 . S
H518 C526 0.930 . S
H519 C527 0.930 . S
H520 C530 0.930 . S
H521 C531 0.930 . S
C522 H516 0.930 . S
C522 C523 1.355 . S
C522 C524 1.415 . S
C523 C522 1.355 . S
C523 C525 1.419 . S
C524 C522 1.415 . S
C524 C529 1.425 . S
C524 C531 1.409 . S
C525 H517 0.930 . S
C525 C523 1.419 . S
C525 C526 1.362 . S
C526 H518 0.930 . S
C526 C525 1.362 . S
C526 C529 1.409 . S
C527 H519 0.930 . S
C527 C528 1.355 . S
C527 C529 1.415 . S
C528 C527 1.355 . S
C528 C530 1.419 . S
C529 C524 1.425 . S
C529 C526 1.409 . S
C529 C527 1.415 . S
C530 H520 0.930 . S
C530 C528 1.419 . S
C530 C531 1.362 . S
C531 H521 0.930 . S
C531 C524 1.409 . S
C531 C530 1.362 . S
H532 C538 0.930 . S
H533 C541 0.930 . S
H534 C542 0.930 . S
H535 C543 0.930 . S
H536 C546 0.930 . S
H537 C547 0.930 . S
C538 H532 0.930 . S
C538 C539 1.355 . S
C538 C540 1.415 . S
C539 C538 1.355 . S
C539 C541 1.419 . S
C540 C538 1.415 . S
C540 C545 1.425 . S
C540 C547 1.409 . S
C541 H533 0.930 . S
C541 C539 1.419 . S
C541 C542 1.362 . S
C542 H534 0.930 . S
C542 C541 1.362 . S
C542 C545 1.409 . S
C543 H535 0.930 . S
C543 C544 1.355 . S
C543 C545 1.415 . S
C544 C543 1.355 . S
C544 C546 1.419 . S
C545 C540 1.425 . S
C545 C542 1.409 . S
C545 C543 1.415 . S
C546 H536 0.930 . S
C546 C544 1.419 . S
C546 C547 1.362 . S
C547 H537 0.930 . S
C547 C540 1.409 . S
C547 C546 1.362 . S
H548 C554 0.930 . S
H549 C557 0.930 . S
H550 C558 0.930 . S
H551 C559 0.930 . S
H552 C562 0.930 . S
H553 C563 0.930 . S
C554 H548 0.930 . S
C554 C555 1.355 . S
C554 C556 1.415 . S
C555 C554 1.355 . S
C555 C557 1.419 . S
C556 C554 1.415 . S
C556 C561 1.425 . S
C556 C563 1.409 . S
C557 H549 0.930 . S
C557 C555 1.419 . S
C557 C558 1.362 . S
C558 H550 0.930 . S
C558 C557 1.362 . S
C558 C561 1.409 . S
C559 H551 0.930 . S
C559 C560 1.355 . S
C559 C561 1.415 . S
C560 C559 1.355 . S
C560 C562 1.419 . S
C561 C556 1.425 . S
C561 C558 1.409 . S
C561 C559 1.415 . S
C562 H552 0.930 . S
C562 C560 1.419 . S
C562 C563 1.362 . S
C563 H553 0.930 . S
C563 C556 1.409 . S
C563 C562 1.362 . S
C192 C103 1.364 . S
C187 C6 1.545 . S
C208 C121 1.608 . S
C203 C18 1.672 1_655 S
C219 C28 1.386 . S
C224 C145 1.372 . S
C240 C175 1.205 . S
C235 C40 1.245 . S
C256 C163 1.329 . S
C251 C54 1.334 . S
C267 C64 1.265 . S
C272 C116 1.227 . S
C283 C76 1.580 . S
C288 C136 1.458 . S
C299 C90 1.678 1_655 S
C304 C141 1.539 . S
C315 C88 1.260 . S
C320 C157 1.214 . S
C331 C66 1.696 . S
C336 C112 1.452 . S
C352 C179 1.622 . S
C347 C42 1.681 . S
C368 C124 1.146 . S
C363 C16 1.268 . S
C379 C30 1.577 . S
C384 C142 1.466 . S
C395 C4 1.445 . S
C400 C100 1.268 . S
C416 C120 1.308 . S
C411 C78 1.333 . S
C432 C166 1.444 . S
C427 C52 1.557 . S
C448 C162 1.367 . S
C443 C9 1.505 . S
C464 C115 1.496 . S
C459 C21 1.579 . S
C475 C33 1.459 . S
C480 C137 1.368 . S
C491 C45 1.592 . S
C496 C158 1.459 . S
C512 C99 1.368 . S
C507 C57 1.556 . S
C523 C69 1.526 . S
C528 C133 1.337 . S
C544 C154 1.334 . S
C539 C81 1.558 . S
C560 C178 1.419 . S
C555 C93 1.499 . S
