# Generated by pormake.
# Topology hwx, (6,3)-cn, num edge types: 1
# Building blocks:
#     Node 0, Type 0, BuildingBlock: IZENUY_clean_sbu_0, # of connection points: 6
#     Node 1, Type 0, BuildingBlock: IZENUY_clean_sbu_0, # of connection points: 6
#     Node 2, Type 0, BuildingBlock: IZENUY_clean_sbu_0, # of connection points: 6
#     Node 3, Type 0, BuildingBlock: IZENUY_clean_sbu_0, # of connection points: 6
#     Node 4, Type 1, BuildingBlock: BELTOD_clean_linker_0, # of connection points: 3
#     Node 5, Type 1, BuildingBlock: BELTOD_clean_linker_0, # of connection points: 3
#     Node 6, Type 1, BuildingBlock: BELTOD_clean_linker_0, # of connection points: 3
#     Node 7, Type 1, BuildingBlock: BELTOD_clean_linker_0, # of connection points: 3
#     Node 8, Type 1, BuildingBlock: BELTOD_clean_linker_0, # of connection points: 3
#     Node 9, Type 1, BuildingBlock: BELTOD_clean_linker_0, # of connection points: 3
#     Node 10, Type 1, BuildingBlock: BELTOD_clean_linker_0, # of connection points: 3
#     Node 11, Type 1, BuildingBlock: BELTOD_clean_linker_0, # of connection points: 3
#     Edge 12, Type (0, 1), BuildingBlock: XIVTED_clean_linker_0, # of connection points: 2
#     Edge 13, Type (0, 1), BuildingBlock: XIVTED_clean_linker_0, # of connection points: 2
#     Edge 14, Type (0, 1), BuildingBlock: XIVTED_clean_linker_0, # of connection points: 2
#     Edge 15, Type (0, 1), BuildingBlock: XIVTED_clean_linker_0, # of connection points: 2
#     Edge 16, Type (0, 1), BuildingBlock: XIVTED_clean_linker_0, # of connection points: 2
#     Edge 17, Type (0, 1), BuildingBlock: XIVTED_clean_linker_0, # of connection points: 2
#     Edge 18, Type (0, 1), BuildingBlock: XIVTED_clean_linker_0, # of connection points: 2
#     Edge 19, Type (0, 1), BuildingBlock: XIVTED_clean_linker_0, # of connection points: 2
#     Edge 20, Type (0, 1), BuildingBlock: XIVTED_clean_linker_0, # of connection points: 2
#     Edge 21, Type (0, 1), BuildingBlock: XIVTED_clean_linker_0, # of connection points: 2
#     Edge 22, Type (0, 1), BuildingBlock: XIVTED_clean_linker_0, # of connection points: 2
#     Edge 23, Type (0, 1), BuildingBlock: XIVTED_clean_linker_0, # of connection points: 2
#     Edge 24, Type (0, 1), BuildingBlock: XIVTED_clean_linker_0, # of connection points: 2
#     Edge 25, Type (0, 1), BuildingBlock: XIVTED_clean_linker_0, # of connection points: 2
#     Edge 26, Type (0, 1), BuildingBlock: XIVTED_clean_linker_0, # of connection points: 2
#     Edge 27, Type (0, 1), BuildingBlock: XIVTED_clean_linker_0, # of connection points: 2
#     Edge 28, Type (0, 1), BuildingBlock: XIVTED_clean_linker_0, # of connection points: 2
#     Edge 29, Type (0, 1), BuildingBlock: XIVTED_clean_linker_0, # of connection points: 2
#     Edge 30, Type (0, 1), BuildingBlock: XIVTED_clean_linker_0, # of connection points: 2
#     Edge 31, Type (0, 1), BuildingBlock: XIVTED_clean_linker_0, # of connection points: 2
#     Edge 32, Type (0, 1), BuildingBlock: XIVTED_clean_linker_0, # of connection points: 2
#     Edge 33, Type (0, 1), BuildingBlock: XIVTED_clean_linker_0, # of connection points: 2
#     Edge 34, Type (0, 1), BuildingBlock: XIVTED_clean_linker_0, # of connection points: 2
#     Edge 35, Type (0, 1), BuildingBlock: XIVTED_clean_linker_0, # of connection points: 2
# Relax obj value: 0.046
# Max RMSD: 0.072
# Mean RMSD: 0.062
data_MOF--net-hwx--node1-IZENUY_clean_sbu_0--node2-BELTOD_clean_linker_0--edge1-XIVTED_clean_linker_0
_symmetry_space_group_name_H-M    P1
_symmetry_Int_Tables_number       1
_symmetry_cell_setting            triclinic
loop_
_symmetry_equiv_pos_as_xyz
'x, y, z'
_cell_length_a     54.245819
_cell_length_b     54.195633
_cell_length_c     25.833216
_cell_angle_alpha  89.436065
_cell_angle_beta   90.583751
_cell_angle_gamma 90.015689
loop_
_atom_site_label
_atom_site_type_symbol
_atom_site_fract_x
_atom_site_fract_y
_atom_site_fract_z
_atom_type_partial_charge
Fe0 Fe 0.23121 0.19857 0.0715 0.0
Fe1 Fe 0.23457 0.19439 0.95386 0.0
O2 O 0.22618 0.18151 0.01436 0.0
Fe3 Fe 0.21261 0.15176 0.01759 0.0
O4 O 0.19282 0.15872 0.07335 0.0
O5 O 0.19868 0.19839 0.08552 0.0
O6 O 0.22609 0.22871 0.04068 0.0
C7 C 0.21423 0.23455 -6e-05 0.0
C8 C 0.24335 0.14962 0.10204 0.0
O9 O 0.21367 0.22028 0.96162 0.0
C10 C 0.24985 0.14696 0.94139 0.0
O11 O 0.26422 0.20014 0.06074 0.0
O12 O 0.2608 0.21192 0.97938 0.0
O13 O 0.23725 0.1402 0.05932 0.0
O14 O 0.23701 0.17144 0.11289 0.0
C15 C 0.18963 0.17016 0.93104 0.0
O16 O 0.25584 0.16944 0.94246 0.0
O17 O 0.23011 0.13952 0.96251 0.0
C18 C 0.27363 0.20906 0.02019 0.0
O19 O 0.21007 0.17905 0.91701 0.0
O20 O 0.18696 0.16132 0.97597 0.0
C21 C 0.18562 0.17933 0.09045 0.0
Fe22 Fe 0.24941 0.70689 0.5682 0.0
Fe23 Fe 0.27136 0.66588 0.5023 0.0
O24 O 0.25582 0.69449 0.50672 0.0
Fe25 Fe 0.24668 0.71097 0.45026 0.0
O26 O 0.25174 0.74155 0.47896 0.0
O27 O 0.26869 0.73354 0.55506 0.0
O28 O 0.27581 0.69268 0.60133 0.0
C29 C 0.29617 0.68506 0.58448 0.0
C30 C 0.20686 0.71985 0.51004 0.0
O31 O 0.29783 0.67713 0.53901 0.0
C32 C 0.23708 0.661 0.42444 0.0
O33 O 0.22993 0.68087 0.58413 0.0
O34 O 0.2567 0.65266 0.5603 0.0
O35 O 0.21444 0.71044 0.46871 0.0
O36 O 0.2216 0.72344 0.54739 0.0
C37 C 0.29265 0.69502 0.42264 0.0
O38 O 0.24629 0.65243 0.46576 0.0
O39 O 0.2404 0.68334 0.41141 0.0
C40 C 0.23714 0.65872 0.5837 0.0
O41 O 0.28838 0.67415 0.44326 0.0
O42 O 0.27806 0.71283 0.42827 0.0
C43 C 0.26525 0.74795 0.51692 0.0
Fe44 Fe 0.76189 0.78974 0.94153 0.0
Fe45 Fe 0.76442 0.79194 0.06029 0.0
O46 O 0.769 0.80607 0.99896 0.0
Fe47 Fe 0.78066 0.83654 0.99503 0.0
O48 O 0.76339 0.84476 0.93618 0.0
O49 O 0.7395 0.81284 0.9208 0.0
O50 O 0.73618 0.77237 0.96952 0.0
C51 C 0.72306 0.77658 0.0087 0.0
C52 C 0.80581 0.81537 0.91607 0.0
O53 O 0.73181 0.78788 0.04716 0.0
C54 C 0.80825 0.81536 0.07795 0.0
O55 O 0.78374 0.7655 0.95812 0.0
O56 O 0.77161 0.76064 0.0385 0.0
O57 O 0.80722 0.82662 0.9585 0.0
O58 O 0.78624 0.80421 0.90304 0.0
C59 C 0.74888 0.84132 0.07564 0.0
O60 O 0.79677 0.79511 0.07775 0.0
O61 O 0.79992 0.83392 0.05337 0.0
C62 C 0.78315 0.75293 0.99946 0.0
O63 O 0.75629 0.82067 0.09318 0.0
O64 O 0.75496 0.84865 0.03112 0.0
C65 C 0.74417 0.83555 0.91605 0.0
Fe66 Fe 0.70329 0.34586 0.50561 0.0
Fe67 Fe 0.72511 0.30143 0.56528 0.0
O68 O 0.71705 0.31613 0.50591 0.0
Fe69 Fe 0.72287 0.30102 0.4468 0.0
O70 O 0.72885 0.32933 0.40998 0.0
O71 O 0.72819 0.35897 0.46735 0.0
O72 O 0.71997 0.35655 0.56364 0.0
C73 C 0.73936 0.3487 0.58615 0.0
C74 C 0.67752 0.32066 0.42555 0.0
O75 O 0.74571 0.32638 0.58276 0.0
C76 C 0.70634 0.26226 0.51205 0.0
O77 O 0.6774 0.335 0.5438 0.0
O78 O 0.69972 0.31485 0.60168 0.0
O79 O 0.69054 0.30143 0.42905 0.0
O80 O 0.68413 0.34042 0.44765 0.0
C81 C 0.76512 0.28984 0.50044 0.0
O82 O 0.705 0.2754 0.55196 0.0
O83 O 0.7179 0.26983 0.47266 0.0
C84 C 0.67945 0.32435 0.5873 0.0
O85 O 0.75211 0.28534 0.53983 0.0
O86 O 0.75569 0.29969 0.4605 0.0
C87 C 0.73508 0.3507 0.42432 0.0
P88 P 0.21167 0.4958 0.00907 0.0
H89 H 0.23215 0.49262 0.11331 0.0
H90 H 0.22523 0.51708 0.19057 0.0
H91 H 0.16349 0.55308 0.11449 0.0
H92 H 0.17057 0.52843 0.03712 0.0
H93 H 0.22937 0.45636 0.94503 0.0
H94 H 0.21838 0.41299 0.93738 0.0
H95 H 0.16013 0.42295 0.04827 0.0
H96 H 0.17157 0.46659 0.05611 0.0
H97 H 0.21716 0.54815 0.98965 0.0
H98 H 0.18628 0.48565 0.90954 0.0
O99 O 0.24243 0.49552 0.00907 0.0
H100 H 0.20941 0.57416 0.91367 0.0
H101 H 0.17872 0.51161 0.83307 0.0
C102 C 0.20234 0.50926 0.06915 0.0
C103 C 0.2168 0.5054 0.11366 0.0
C104 C 0.21272 0.51932 0.15794 0.0
C105 C 0.19404 0.53732 0.15834 0.0
C106 C 0.17831 0.53969 0.11496 0.0
C107 C 0.18231 0.52558 0.07078 0.0
C108 C 0.2016 0.46446 0.00183 0.0
C109 C 0.21414 0.44923 0.96749 0.0
C110 C 0.20762 0.42449 0.9627 0.0
C111 C 0.18836 0.41448 0.99222 0.0
C112 C 0.17521 0.43007 0.02539 0.0
C113 C 0.18172 0.45497 0.02994 0.0
C114 C 0.20223 0.51503 0.95539 0.0
C115 C 0.20824 0.54015 0.95606 0.0
C116 C 0.20369 0.55502 0.91269 0.0
C117 C 0.19339 0.5449 0.86751 0.0
C118 C 0.18675 0.51983 0.86737 0.0
C119 C 0.19107 0.505 0.91111 0.0
P120 P 0.98035 0.86489 0.49945 0.0
H121 H 0.97338 0.88761 0.60068 0.0
H122 H 0.94552 0.87832 0.67212 0.0
H123 H 0.91683 0.81596 0.5873 0.0
H124 H 0.94381 0.82612 0.51546 0.0
H125 H 0.03289 0.87605 0.48944 0.0
H126 H 0.06974 0.84997 0.49198 0.0
H127 H 0.02429 0.78593 0.52041 0.0
H128 H 0.98757 0.81206 0.51865 0.0
H129 H 0.93835 0.8895 0.45174 0.0
H130 H 0.98543 0.82781 0.41673 0.0
O131 O 0.98816 0.89466 0.50149 0.0
H132 H 0.91298 0.88043 0.37539 0.0
H133 H 0.96015 0.81864 0.34094 0.0
C134 C 0.96032 0.85781 0.55253 0.0
C135 C 0.96095 0.87205 0.59747 0.0
C136 C 0.94517 0.86655 0.6385 0.0
C137 C 0.92875 0.84648 0.63541 0.0
C138 C 0.92878 0.83189 0.59064 0.0
C139 C 0.94434 0.83757 0.54957 0.0
C140 C 0.00754 0.84603 0.50446 0.0
C141 C 0.03086 0.85646 0.49682 0.0
C142 C 0.05188 0.84157 0.49821 0.0
C143 C 0.04975 0.81598 0.50628 0.0
C144 C 0.02636 0.80559 0.51378 0.0
C145 C 0.00542 0.82055 0.51326 0.0
C146 C 0.9638 0.85944 0.43997 0.0
C147 C 0.94341 0.87423 0.42729 0.0
C148 C 0.92897 0.86904 0.38369 0.0
C149 C 0.93458 0.84878 0.35233 0.0
C150 C 0.95525 0.8342 0.36475 0.0
C151 C 0.96978 0.83953 0.40814 0.0
P152 P 0.85126 0.49116 0.00616 0.0
H153 H 0.87446 0.46468 0.921 0.0
H154 H 0.85763 0.44251 0.84676 0.0
H155 H 0.78381 0.46039 0.89544 0.0
H156 H 0.80088 0.48292 0.9692 0.0
H157 H 0.85492 0.52889 0.085 0.0
H158 H 0.84593 0.57305 0.08484 0.0
H159 H 0.82227 0.56879 0.92484 0.0
H160 H 0.83203 0.52484 0.92495 0.0
H161 H 0.86963 0.45048 0.07032 0.0
H162 H 0.80621 0.4984 0.06615 0.0
O163 O 0.88194 0.48885 0.00688 0.0
H164 H 0.8528 0.42862 0.14519 0.0
H165 H 0.78899 0.47636 0.14064 0.0
C166 C 0.83889 0.47541 0.9506 0.0
C167 C 0.85466 0.46391 0.91563 0.0
C168 C 0.845 0.45111 0.87331 0.0
C169 C 0.81936 0.44961 0.86518 0.0
C170 C 0.80364 0.46142 0.90018 0.0
C171 C 0.81334 0.47416 0.94257 0.0
C172 C 0.84362 0.52348 0.00543 0.0
C173 C 0.84766 0.53747 0.05 0.0
C174 C 0.84243 0.56271 0.04987 0.0
C175 C 0.83319 0.57448 0.00492 0.0
C176 C 0.82954 0.56039 0.96 0.0
C177 C 0.83485 0.53514 0.96019 0.0
C178 C 0.83939 0.47631 0.06333 0.0
C179 C 0.85218 0.45644 0.08587 0.0
C180 C 0.84243 0.44385 0.12845 0.0
C181 C 0.81955 0.45076 0.14898 0.0
C182 C 0.80683 0.47083 0.12634 0.0
C183 C 0.81661 0.48338 0.08364 0.0
P184 P 0.02931 0.24093 0.51401 0.0
H185 H 0.04909 0.26682 0.42379 0.0
H186 H 0.06826 0.25254 0.34489 0.0
H187 H 0.0535 0.17696 0.39027 0.0
H188 H 0.03513 0.19159 0.47059 0.0
H189 H 0.99436 0.26018 0.58759 0.0
H190 H 0.94947 0.26389 0.58645 0.0
H191 H 0.94639 0.22436 0.44207 0.0
H192 H 0.99126 0.22084 0.4433 0.0
H193 H 0.0805 0.23041 0.53482 0.0
H194 H 0.01091 0.21371 0.60647 0.0
O195 O 0.0378 0.27029 0.52142 0.0
H196 H 0.10225 0.21004 0.60611 0.0
H197 H 0.03268 0.19313 0.67843 0.0
C198 C 0.041 0.23024 0.45325 0.0
C199 C 0.04987 0.24719 0.41671 0.0
C200 C 0.06064 0.23894 0.3712 0.0
C201 C 0.0625 0.21353 0.36101 0.0
C202 C 0.05275 0.19662 0.39713 0.0
C203 C 0.04212 0.20493 0.4429 0.0
C204 C 0.99616 0.2402 0.51572 0.0
C205 C 0.98397 0.25197 0.55613 0.0
C206 C 0.95831 0.254 0.55549 0.0
C207 C 0.94439 0.24448 0.51405 0.0
C208 C 0.95665 0.23211 0.47422 0.0
C209 C 0.98234 0.22995 0.4751 0.0
C210 C 0.04413 0.22354 0.56519 0.0
C211 C 0.06988 0.22204 0.56563 0.0
C212 C 0.08229 0.21025 0.60636 0.0
C213 C 0.06919 0.1998 0.64785 0.0
C214 C 0.04328 0.20111 0.64714 0.0
C215 C 0.03082 0.21283 0.60594 0.0
P216 P 0.71128 1.00002 0.49847 0.0
H217 H 0.73564 0.00497 0.39901 0.0
H218 H 0.73152 0.98212 0.31852 0.0
H219 H 0.66742 0.94472 0.37904 0.0
H220 H 0.67187 0.96758 0.45987 0.0
H221 H 0.72186 0.03787 0.57363 0.0
H222 H 0.71024 0.08116 0.5793 0.0
H223 H 0.66165 0.07264 0.44693 0.0
H224 H 0.67383 0.02926 0.44106 0.0
H225 H 0.72184 0.94827 0.51406 0.0
H226 H 0.68074 0.00459 0.59241 0.0
O227 O 0.74187 0.00243 0.50362 0.0
H228 H 0.71428 0.91955 0.58527 0.0
H229 H 0.67296 0.97583 0.66403 0.0
C230 C 0.70451 0.98741 0.43578 0.0
C231 C 0.72044 0.99218 0.39459 0.0
C232 C 0.71794 0.97921 0.3484 0.0
C233 C 0.69935 0.9613 0.34266 0.0
C234 C 0.68221 0.95804 0.38268 0.0
C235 C 0.6847 0.97112 0.42883 0.0
C236 C 0.69897 0.03052 0.50657 0.0
C237 C 0.70842 0.04525 0.54631 0.0
C238 C 0.70158 0.06998 0.54974 0.0
C239 C 0.6851 0.08047 0.51336 0.0
C240 C 0.67466 0.06523 0.47509 0.0
C241 C 0.68153 0.0404 0.47178 0.0
C242 C 0.70195 0.97854 0.548 0.0
C243 C 0.71075 0.95428 0.5462 0.0
C244 C 0.70625 0.93782 0.58683 0.0
C245 C 0.693 0.9454 0.63037 0.0
C246 C 0.68339 0.96952 0.63118 0.0
C247 C 0.68781 0.98597 0.59022 0.0
P248 P 0.50081 0.35338 0.0017 0.0
H249 H 0.5065 0.38035 0.90323 0.0
H250 H 0.53338 0.37402 0.82913 0.0
H251 H 0.55947 0.30585 0.8987 0.0
H252 H 0.53356 0.313 0.97348 0.0
H253 H 0.45228 0.3607 0.0467 0.0
H254 H 0.41599 0.33414 0.05467 0.0
H255 H 0.45442 0.27612 0.97529 0.0
H256 H 0.4904 0.30263 0.96726 0.0
H257 H 0.55401 0.35857 0.01854 0.0
H258 H 0.49041 0.33953 0.10978 0.0
O259 O 0.49184 0.38283 0.00078 0.0
H260 H 0.58072 0.35126 0.09373 0.0
H261 H 0.51716 0.3329 0.18561 0.0
C262 C 0.51818 0.34724 0.94404 0.0
C263 C 0.51792 0.36399 0.90234 0.0
C264 C 0.53319 0.36024 0.85976 0.0
C265 C 0.54884 0.33955 0.85809 0.0
C266 C 0.54811 0.32227 0.89909 0.0
C267 C 0.53306 0.32617 0.9417 0.0
C268 C 0.47393 0.33391 0.00542 0.0
C269 C 0.45282 0.34233 0.03066 0.0
C270 C 0.43219 0.32705 0.03568 0.0
C271 C 0.43233 0.30307 0.01543 0.0
C272 C 0.45363 0.29462 0.99065 0.0
C273 C 0.47429 0.30984 0.98603 0.0
C274 C 0.52027 0.34868 0.05789 0.0
C275 C 0.54576 0.35257 0.05451 0.0
C276 C 0.56103 0.34849 0.09753 0.0
C277 C 0.55099 0.3412 0.14515 0.0
C278 C 0.52534 0.33839 0.14918 0.0
C279 C 0.51008 0.34205 0.10578 0.0
P280 P 0.35455 0.00337 0.52382 0.0
H281 H 0.37868 0.03961 0.59047 0.0
H282 H 0.36539 0.06119 0.66793 0.0
H283 H 0.29604 0.02185 0.66235 0.0
H284 H 0.30994 0.99971 0.58639 0.0
H285 H 0.33751 0.97151 0.43961 0.0
H286 H 0.32394 0.92865 0.43754 0.0
H287 H 0.33607 0.92263 0.60292 0.0
H288 H 0.35055 0.96527 0.60418 0.0
H289 H 0.37465 0.02021 0.42446 0.0
H290 H 0.3052 0.0234 0.50395 0.0
O291 O 0.38524 0.00361 0.52004 0.0
H292 H 0.35678 0.04398 0.3521 0.0
H293 H 0.28739 0.04717 0.43227 0.0
C294 C 0.34544 0.01784 0.58312 0.0
C295 C 0.36078 0.03537 0.60648 0.0
C296 C 0.35304 0.04787 0.65053 0.0
C297 C 0.3296 0.04332 0.67154 0.0
C298 C 0.31437 0.02554 0.64801 0.0
C299 C 0.32224 0.01294 0.60426 0.0
C300 C 0.34434 0.97179 0.52232 0.0
C301 C 0.33714 0.96102 0.47547 0.0
C302 C 0.32928 0.93648 0.47439 0.0
C303 C 0.32859 0.9222 0.52018 0.0
C304 C 0.33648 0.93297 0.56686 0.0
C305 C 0.34451 0.95746 0.56776 0.0
C306 C 0.34146 0.02059 0.47024 0.0
C307 C 0.35562 0.0261 0.42651 0.0
C308 C 0.34535 0.03952 0.38503 0.0
C309 C 0.32077 0.04767 0.38682 0.0
C310 C 0.30652 0.04156 0.43024 0.0
C311 C 0.31672 0.02798 0.47134 0.0
P312 P 0.45992 0.73996 0.00107 0.0
H313 H 0.45816 0.76425 0.10077 0.0
H314 H 0.4372 0.75423 0.18152 0.0
H315 H 0.41256 0.6852 0.11618 0.0
H316 H 0.43453 0.69493 0.03656 0.0
H317 H 0.49741 0.75766 0.93102 0.0
H318 H 0.54239 0.75601 0.93361 0.0
H319 H 0.53959 0.71125 0.07279 0.0
H320 H 0.4945 0.71287 0.06981 0.0
H321 H 0.4082 0.73546 0.97623 0.0
H322 H 0.47682 0.7113 0.91061 0.0
O323 O 0.45464 0.7701 0.99334 0.0
H324 H 0.38558 0.71686 0.90457 0.0
H325 H 0.45416 0.69293 0.83795 0.0
C326 C 0.44713 0.73074 0.06223 0.0
C327 C 0.44844 0.74686 0.10413 0.0
C328 C 0.43637 0.74113 0.15017 0.0
C329 C 0.4227 0.71916 0.15496 0.0
C330 C 0.42288 0.70227 0.11392 0.0
C331 C 0.4352 0.70795 0.06805 0.0
C332 C 0.4927 0.73559 0.00037 0.0
C333 C 0.50649 0.7472 0.96165 0.0
C334 C 0.53216 0.74612 0.96304 0.0
C335 C 0.54447 0.73356 0.00354 0.0
C336 C 0.53055 0.72125 0.04144 0.0
C337 C 0.5048 0.72214 0.03969 0.0
C338 C 0.44412 0.72461 0.94902 0.0
C339 C 0.41838 0.72594 0.94661 0.0
C340 C 0.40548 0.71522 0.90574 0.0
C341 C 0.41813 0.70327 0.86595 0.0
C342 C 0.444 0.70204 0.86817 0.0
C343 C 0.45693 0.71252 0.9097 0.0
H344 H 0.16496 0.14338 0.15184 0.0
H345 H 0.06266 0.23425 0.26341 0.0
H346 H 0.15585 0.21912 0.10231 0.0
H347 H 0.09296 0.1732 0.35199 0.0
H348 H 0.08922 0.22329 0.19145 0.0
H349 H 0.1309 0.14874 0.21283 0.0
C350 C 0.15551 0.16096 0.15317 0.0
C351 C 0.16332 0.18093 0.12247 0.0
C352 C 0.08982 0.21217 0.22651 0.0
C353 C 0.12448 0.18706 0.19138 0.0
C354 C 0.07477 0.21847 0.26776 0.0
C355 C 0.07585 0.20495 0.31441 0.0
C356 C 0.10593 0.19203 0.23155 0.0
C357 C 0.09139 0.18418 0.3169 0.0
C358 C 0.13623 0.16403 0.18807 0.0
C359 C 0.15056 0.20336 0.12578 0.0
N360 N 0.10597 0.17847 0.27621 0.0
N361 N 0.13181 0.20584 0.15971 0.0
H362 H 0.24392 0.60873 0.58622 0.0
H363 H 0.17687 0.5924 0.85554 0.0
H364 H 0.20244 0.66689 0.65808 0.0
H365 H 0.20779 0.53185 0.77064 0.0
H366 H 0.1821 0.61909 0.77957 0.0
H367 H 0.22722 0.5794 0.64892 0.0
C368 C 0.23114 0.6153 0.61492 0.0
C369 C 0.22491 0.64038 0.61745 0.0
C370 C 0.18736 0.59987 0.77722 0.0
C371 C 0.2058 0.60691 0.68955 0.0
C372 C 0.18442 0.58467 0.8206 0.0
C373 C 0.19216 0.55999 0.81949 0.0
C374 C 0.19845 0.59038 0.73272 0.0
C375 C 0.20153 0.55077 0.77311 0.0
C376 C 0.22153 0.59852 0.65063 0.0
C377 C 0.20796 0.64778 0.655 0.0
N378 N 0.20478 0.56607 0.73182 0.0
N379 N 0.19928 0.63117 0.69005 0.0
H380 H 0.83695 0.85643 0.08752 0.0
H381 H 0.91734 0.80325 0.32452 0.0
H382 H 0.8287 0.78228 0.14776 0.0
H383 H 0.9151 0.88003 0.27894 0.0
H384 H 0.88899 0.79365 0.25312 0.0
H385 H 0.86986 0.86358 0.15019 0.0
C386 C 0.84213 0.84155 0.11375 0.0
C387 C 0.82978 0.81879 0.11274 0.0
C388 C 0.89481 0.81256 0.25862 0.0
C389 C 0.86758 0.82696 0.18493 0.0
C390 C 0.91108 0.81804 0.29913 0.0
C391 C 0.91847 0.8425 0.30774 0.0
C392 C 0.88602 0.83168 0.22635 0.0
C393 C 0.9096 0.86098 0.27408 0.0
C394 C 0.86095 0.8457 0.14963 0.0
C395 C 0.83757 0.80017 0.14739 0.0
N396 N 0.89382 0.85519 0.23493 0.0
N397 N 0.85589 0.80473 0.18236 0.0
H398 H 0.72865 0.39654 0.61143 0.0
H399 H 0.83478 0.40494 0.82842 0.0
H400 H 0.78075 0.33806 0.64426 0.0
H401 H 0.78038 0.46183 0.8012 0.0
H402 H 0.81702 0.38144 0.75699 0.0
H403 H 0.74919 0.42193 0.67644 0.0
C404 C 0.7445 0.38906 0.63202 0.0
C405 C 0.75284 0.36501 0.62251 0.0
C406 C 0.809 0.3991 0.76651 0.0
C407 C 0.77642 0.39404 0.69731 0.0
C408 C 0.81923 0.41261 0.80715 0.0
C409 C 0.80904 0.43541 0.82097 0.0
C410 C 0.78841 0.40842 0.7393 0.0
C411 C 0.78863 0.4442 0.79242 0.0
C412 C 0.75619 0.40358 0.66927 0.0
C413 C 0.77355 0.35642 0.6504 0.0
N414 N 0.77899 0.43069 0.75304 0.0
N415 N 0.78453 0.37087 0.68665 0.0
H416 H 0.66612 0.2873 0.35009 0.0
H417 H 0.54746 0.35961 0.24315 0.0
H418 H 0.64076 0.35524 0.41741 0.0
H419 H 0.59175 0.31191 0.14916 0.0
H420 H 0.57637 0.3528 0.31581 0.0
H421 H 0.63337 0.29057 0.28478 0.0
C422 C 0.65352 0.30277 0.35153 0.0
C423 C 0.65634 0.32117 0.38902 0.0
C424 C 0.57964 0.34377 0.2793 0.0
C425 C 0.61879 0.32491 0.31442 0.0
C426 C 0.56315 0.34754 0.23807 0.0
C427 C 0.5674 0.33641 0.1902 0.0
C428 C 0.6002 0.32842 0.2727 0.0
C429 C 0.58802 0.32103 0.18536 0.0
C430 C 0.63491 0.30467 0.31407 0.0
C431 C 0.63941 0.34078 0.38891 0.0
N432 N 0.60364 0.31744 0.22613 0.0
N433 N 0.62135 0.34216 0.35208 0.0
H434 H 0.24222 0.09749 0.92481 0.0
H435 H 0.33733 0.09235 0.69192 0.0
H436 H 0.28992 0.15798 0.88187 0.0
H437 H 0.30095 0.02756 0.75291 0.0
H438 H 0.32053 0.11636 0.76245 0.0
H439 H 0.26374 0.07123 0.86338 0.0
C440 C 0.25732 0.10521 0.90283 0.0
C441 C 0.26409 0.13008 0.90823 0.0
C442 C 0.31635 0.09685 0.76067 0.0
C443 C 0.28866 0.10016 0.83763 0.0
C444 C 0.32609 0.08304 0.72048 0.0
C445 C 0.32055 0.05782 0.71619 0.0
C446 C 0.30072 0.0855 0.79679 0.0
C447 C 0.30539 0.04701 0.754 0.0
C448 C 0.26961 0.0902 0.86777 0.0
C449 C 0.2839 0.139 0.87884 0.0
N450 N 0.29588 0.06094 0.79248 0.0
N451 N 0.29531 0.12413 0.84455 0.0
H452 H 0.31003 0.73823 0.38249 0.0
H453 H 0.41295 0.67562 0.20736 0.0
H454 H 0.32415 0.6598 0.3846 0.0
H455 H 0.395 0.75325 0.20535 0.0
H456 H 0.38306 0.66931 0.27681 0.0
H457 H 0.3438 0.74394 0.32261 0.0
C458 C 0.32026 0.72215 0.37037 0.0
C459 C 0.31403 0.69844 0.38821 0.0
C460 C 0.38589 0.68774 0.2614 0.0
C461 C 0.35295 0.7049 0.31921 0.0
C462 C 0.40287 0.69135 0.22165 0.0
C463 C 0.40654 0.71502 0.20035 0.0
C464 C 0.37246 0.70793 0.27984 0.0
C465 C 0.39317 0.73474 0.22091 0.0
C466 C 0.33963 0.72545 0.33616 0.0
C467 C 0.32822 0.67839 0.3716 0.0
N468 N 0.37669 0.73072 0.25919 0.0
N469 N 0.34695 0.68205 0.33768 0.0
H470 H 0.739 0.88528 0.91961 0.0
H471 H 0.68438 0.89539 0.63451 0.0
H472 H 0.71549 0.82173 0.83277 0.0
H473 H 0.69953 0.95801 0.73175 0.0
H474 H 0.69042 0.86806 0.70955 0.0
H475 H 0.71943 0.91206 0.85509 0.0
C476 C 0.72947 0.87697 0.8871 0.0
C477 C 0.72918 0.85129 0.88104 0.0
C478 C 0.69198 0.8878 0.71464 0.0
C479 C 0.70694 0.88188 0.80647 0.0
C480 C 0.68862 0.90341 0.6718 0.0
C481 C 0.69179 0.92901 0.67669 0.0
C482 C 0.69879 0.89787 0.76259 0.0
C483 C 0.69684 0.93843 0.72608 0.0
C484 C 0.71823 0.89227 0.85029 0.0
C485 C 0.71625 0.84147 0.83867 0.0
N486 N 0.70055 0.92284 0.76687 0.0
N487 N 0.70599 0.85682 0.80241 0.0
H488 H 0.85109 0.8378 0.92784 0.0
H489 H 0.88094 0.8307 0.62698 0.0
H490 H 0.80573 0.79943 0.81622 0.0
H491 H 0.93629 0.85016 0.74085 0.0
H492 H 0.85238 0.8215 0.69644 0.0
H493 H 0.88203 0.8446 0.86059 0.0
C494 C 0.84768 0.83069 0.88939 0.0
C495 C 0.82568 0.81816 0.87762 0.0
C496 C 0.87082 0.82767 0.70633 0.0
C497 C 0.86082 0.82606 0.80069 0.0
C498 C 0.88723 0.83282 0.6666 0.0
C499 C 0.91121 0.84105 0.67791 0.0
C500 C 0.87822 0.831 0.75799 0.0
C501 C 0.91794 0.84411 0.73018 0.0
C502 C 0.86535 0.83457 0.85109 0.0
C503 C 0.82232 0.80927 0.82717 0.0
N504 N 0.9015 0.83914 0.76833 0.0
N505 N 0.83959 0.81356 0.79058 0.0
H506 H 0.74291 0.40111 0.42661 0.0
H507 H 0.81894 0.40068 0.16203 0.0
H508 H 0.75911 0.33603 0.33808 0.0
H509 H 0.79478 0.46787 0.23409 0.0
H510 H 0.80012 0.37696 0.23168 0.0
H511 H 0.76467 0.42617 0.36165 0.0
C512 C 0.75111 0.39209 0.39376 0.0
C513 C 0.74899 0.36645 0.38759 0.0
C514 C 0.79894 0.3969 0.23247 0.0
C515 C 0.77389 0.39489 0.31352 0.0
C516 C 0.80987 0.41048 0.19282 0.0
C517 C 0.80851 0.43633 0.1922 0.0
C518 C 0.7865 0.40915 0.27212 0.0
C519 C 0.79607 0.44796 0.23275 0.0
C520 C 0.76345 0.40639 0.35667 0.0
C521 C 0.76001 0.35574 0.34428 0.0
N522 N 0.78553 0.43428 0.27112 0.0
N523 N 0.77191 0.36998 0.30906 0.0
H524 H 0.19473 0.16214 0.82851 0.0
H525 H 0.06018 0.20498 0.75182 0.0
H526 H 0.13954 0.17417 0.94455 0.0
H527 H 0.10972 0.16986 0.64565 0.0
H528 H 0.08722 0.19224 0.82389 0.0
H529 H 0.16281 0.16364 0.76173 0.0
C530 C 0.17577 0.16491 0.8399 0.0
C531 C 0.16973 0.16824 0.89198 0.0
C532 C 0.09192 0.187 0.78488 0.0
C533 C 0.13299 0.17035 0.8155 0.0
C534 C 0.07645 0.19417 0.74373 0.0
C535 C 0.08294 0.18886 0.69251 0.0
C536 C 0.11405 0.17462 0.77455 0.0
C537 C 0.10432 0.17492 0.68435 0.0
C538 C 0.15751 0.16566 0.80177 0.0
C539 C 0.14487 0.17152 0.90471 0.0
N540 N 0.11924 0.1686 0.72479 0.0
N541 N 0.12738 0.17293 0.86654 0.0
H542 H 0.21859 0.67086 0.32697 0.0
H543 H 0.19864 0.52841 0.26286 0.0
H544 H 0.22759 0.61181 0.43906 0.0
H545 H 0.18796 0.58732 0.15129 0.0
H546 H 0.20407 0.55911 0.33073 0.0
H547 H 0.20229 0.64109 0.26493 0.0
C548 C 0.21695 0.6517 0.33874 0.0
C549 C 0.22484 0.6438 0.3881 0.0
C550 C 0.2002 0.56534 0.29152 0.0
C551 C 0.20624 0.60959 0.31718 0.0
C552 C 0.19713 0.5478 0.25278 0.0
C553 C 0.19306 0.5553 0.20125 0.0
C554 C 0.19945 0.59058 0.27861 0.0
C555 C 0.19094 0.58068 0.19051 0.0
C556 C 0.20762 0.63469 0.30327 0.0
C557 C 0.22206 0.61874 0.40125 0.0
N558 N 0.19447 0.5974 0.22871 0.0
N559 N 0.21323 0.60253 0.36587 0.0
H560 H 0.34611 0.68808 0.56661 0.0
H561 H 0.37705 0.67449 0.8692 0.0
H562 H 0.29288 0.67515 0.68684 0.0
H563 H 0.42697 0.70938 0.76214 0.0
H564 H 0.3497 0.66432 0.79702 0.0
H565 H 0.37922 0.68666 0.63282 0.0
C566 C 0.34148 0.68464 0.60673 0.0
C567 C 0.31679 0.68211 0.62156 0.0
C568 C 0.36676 0.67396 0.78913 0.0
C569 C 0.35419 0.68009 0.69661 0.0
C570 C 0.38236 0.67975 0.8303 0.0
C571 C 0.40401 0.69319 0.82163 0.0
C572 C 0.37273 0.68182 0.73883 0.0
C573 C 0.41033 0.6991 0.77039 0.0
C574 C 0.36028 0.68388 0.64434 0.0
C575 C 0.31165 0.67764 0.67388 0.0
N576 N 0.39453 0.69371 0.7308 0.0
N577 N 0.33014 0.67684 0.70942 0.0
H578 H 0.72916 0.83091 0.17035 0.0
H579 H 0.70818 0.97218 0.2402 0.0
H580 H 0.73903 0.89062 0.0606 0.0
H581 H 0.69231 0.91138 0.34377 0.0
H582 H 0.71552 0.94269 0.17088 0.0
H583 H 0.71165 0.86 0.23125 0.0
C584 C 0.72749 0.85012 0.15888 0.0
C585 C 0.73591 0.85837 0.11053 0.0
C586 C 0.71008 0.93583 0.20858 0.0
C587 C 0.71594 0.8919 0.18035 0.0
C588 C 0.70594 0.95266 0.24818 0.0
C589 C 0.69981 0.94425 0.29801 0.0
C590 C 0.7083 0.9104 0.219 0.0
C591 C 0.69683 0.91876 0.30595 0.0
C592 C 0.71742 0.86674 0.19368 0.0
C593 C 0.73297 0.88345 0.09761 0.0
N594 N 0.7014 0.90276 0.26709 0.0
N595 N 0.72351 0.89938 0.13257 0.0
H596 H 0.67882 0.30467 0.68474 0.0
H597 H 0.54294 0.35023 0.75382 0.0
H598 H 0.6334 0.34568 0.57587 0.0
H599 H 0.59623 0.32254 0.86534 0.0
H600 H 0.57379 0.34589 0.68571 0.0
H601 H 0.64639 0.30752 0.74837 0.0
C602 C 0.66198 0.31426 0.67405 0.0
C603 C 0.65898 0.32513 0.62484 0.0
C604 C 0.57861 0.3407 0.72512 0.0
C605 C 0.62152 0.32848 0.69819 0.0
C606 C 0.56107 0.34326 0.76408 0.0
C607 C 0.56688 0.33659 0.81552 0.0
C608 C 0.60208 0.33133 0.7377 0.0
C609 C 0.59061 0.32743 0.82626 0.0
C610 C 0.64343 0.31592 0.71061 0.0
C611 C 0.63658 0.33714 0.6134 0.0
N612 N 0.60724 0.32507 0.78779 0.0
N613 N 0.61869 0.33856 0.64991 0.0
H614 H 0.26434 0.10367 0.09224 0.0
H615 H 0.2932 0.0895 0.39508 0.0
H616 H 0.25081 0.16076 0.20388 0.0
H617 H 0.32396 0.04061 0.28188 0.0
H618 H 0.27497 0.11422 0.32515 0.0
H619 H 0.28402 0.07874 0.16082 0.0
C620 C 0.2655 0.11097 0.13107 0.0
C621 C 0.25583 0.13434 0.14229 0.0
C622 C 0.28575 0.09813 0.31549 0.0
C623 C 0.27817 0.1059 0.22078 0.0
C624 C 0.29603 0.08392 0.35543 0.0
C625 C 0.31004 0.06292 0.34426 0.0
C626 C 0.28928 0.09123 0.26383 0.0
C627 C 0.31341 0.05676 0.29212 0.0
C628 C 0.27679 0.09677 0.17011 0.0
C629 C 0.25798 0.14289 0.19328 0.0
N630 N 0.30297 0.07078 0.25377 0.0
N631 N 0.26877 0.12864 0.23057 0.0
H632 H 0.20138 0.26112 0.91226 0.0
H633 H 0.17912 0.3838 0.07449 0.0
H634 H 0.2027 0.26494 0.07909 0.0
H635 H 0.18764 0.38351 0.90854 0.0
H636 H 0.17878 0.33883 0.07472 0.0
H637 H 0.18818 0.30443 0.90846 0.0
C638 C 0.1986 0.27096 0.94803 0.0
C639 C 0.20358 0.25959 0.99604 0.0
C640 C 0.18043 0.34858 0.03812 0.0
C641 C 0.18845 0.30889 0.99201 0.0
C642 C 0.18039 0.3743 0.03792 0.0
C643 C 0.18377 0.38747 0.99151 0.0
C644 C 0.18398 0.33587 0.99163 0.0
C645 C 0.18555 0.37408 0.94537 0.0
C646 C 0.19112 0.29565 0.94585 0.0
C647 C 0.19954 0.27313 0.0412 0.0
N648 N 0.18594 0.34901 0.94665 0.0
N649 N 0.19241 0.29707 0.03806 0.0
H650 H 0.18822 0.74825 0.58671 0.0
H651 H 0.05753 0.77328 0.45325 0.0
H652 H 0.16899 0.71732 0.43813 0.0
H653 H 0.09219 0.82288 0.56138 0.0
H654 H 0.09486 0.74757 0.45528 0.0
H655 H 0.14917 0.77019 0.58674 0.0
C656 C 0.17571 0.74588 0.55418 0.0
C657 C 0.18206 0.73108 0.51201 0.0
C658 C 0.09422 0.76408 0.47849 0.0
C659 C 0.13717 0.75628 0.51208 0.0
C660 C 0.07298 0.77864 0.47755 0.0
C661 C 0.07193 0.8002 0.50712 0.0
C662 C 0.11425 0.77097 0.50995 0.0
C663 C 0.0924 0.80651 0.53771 0.0
C664 C 0.15345 0.75854 0.5542 0.0
C665 C 0.16494 0.72868 0.47121 0.0
N666 N 0.11269 0.79188 0.53853 0.0
N667 N 0.14322 0.74124 0.47218 0.0
H668 H 0.80616 0.72785 0.92134 0.0
H669 H 0.81166 0.60095 0.08223 0.0
H670 H 0.78283 0.7198 0.07997 0.0
H671 H 0.84084 0.60915 0.92815 0.0
H672 H 0.80165 0.64477 0.08201 0.0
H673 H 0.81977 0.68478 0.923 0.0
C674 C 0.80402 0.71711 0.95659 0.0
C675 C 0.79316 0.72747 0.00047 0.0
C676 C 0.81031 0.63703 0.04826 0.0
C677 C 0.80859 0.67814 0.0025 0.0
C678 C 0.81617 0.61198 0.04846 0.0
C679 C 0.82716 0.60126 0.00516 0.0
C680 C 0.81536 0.6516 0.00435 0.0
C681 C 0.83209 0.6165 0.96214 0.0
C682 C 0.81177 0.69251 0.95748 0.0
C683 C 0.79095 0.71264 0.04509 0.0
N684 N 0.82612 0.64087 0.96279 0.0
N685 N 0.79846 0.68875 0.04483 0.0
H686 H 0.79828 0.29278 0.42085 0.0
H687 H 0.91077 0.24032 0.59215 0.0
H688 H 0.79158 0.26882 0.58004 0.0
H689 H 0.91656 0.25845 0.4297 0.0
H690 H 0.86684 0.2502 0.58796 0.0
H691 H 0.84151 0.27997 0.42279 0.0
C692 C 0.80585 0.28478 0.45616 0.0
C693 C 0.79123 0.28188 0.50035 0.0
C694 C 0.87767 0.25189 0.55313 0.0
C695 C 0.84072 0.26724 0.50284 0.0
C696 C 0.90277 0.24633 0.55557 0.0
C697 C 0.91737 0.24863 0.51125 0.0
C698 C 0.86707 0.25999 0.5061 0.0
C699 C 0.90596 0.25619 0.4647 0.0
C700 C 0.83053 0.27744 0.45721 0.0
C701 C 0.80208 0.27141 0.54501 0.0
N702 N 0.88153 0.26175 0.46341 0.0
N703 N 0.82616 0.26454 0.54513 0.0
H704 H 0.69111 0.23447 0.59571 0.0
H705 H 0.68225 0.11125 0.42887 0.0
H706 H 0.70066 0.23136 0.43018 0.0
H707 H 0.67913 0.11172 0.59579 0.0
H708 H 0.68176 0.15617 0.42825 0.0
H709 H 0.68013 0.19058 0.59598 0.0
C710 C 0.69065 0.22466 0.55939 0.0
C711 C 0.69719 0.23652 0.51295 0.0
C712 C 0.68092 0.14648 0.46505 0.0
C713 C 0.68463 0.18641 0.513 0.0
C714 C 0.68095 0.12076 0.46541 0.0
C715 C 0.68097 0.10761 0.5125 0.0
C716 C 0.68103 0.15927 0.51209 0.0
C717 C 0.67963 0.12108 0.55861 0.0
C718 C 0.68442 0.1996 0.55959 0.0
C719 C 0.69614 0.22291 0.46702 0.0
N720 N 0.67997 0.14617 0.55729 0.0
N721 N 0.69018 0.19859 0.46829 0.0
H722 H 0.30327 0.21835 0.93812 0.0
H723 H 0.40232 0.29542 0.09905 0.0
H724 H 0.30118 0.22368 0.1046 0.0
H725 H 0.41191 0.27445 0.93982 0.0
H726 H 0.36499 0.26997 0.1025 0.0
H727 H 0.34308 0.23917 0.93855 0.0
C728 C 0.31129 0.22379 0.97487 0.0
C729 C 0.29882 0.21944 0.02138 0.0
C730 C 0.37539 0.27081 0.06697 0.0
C731 C 0.34439 0.24355 0.02212 0.0
C732 C 0.39657 0.28545 0.06486 0.0
C733 C 0.41019 0.2871 0.01902 0.0
C734 C 0.36764 0.25796 0.02274 0.0
C735 C 0.40209 0.27356 0.97607 0.0
C736 C 0.33406 0.23565 0.97509 0.0
C737 C 0.31019 0.22668 0.06787 0.0
N738 N 0.38128 0.25972 0.97888 0.0
N739 N 0.33225 0.23866 0.06704 0.0
H740 H 0.29825 0.76775 0.58645 0.0
H741 H 0.29024 0.90338 0.4629 0.0
H742 H 0.25474 0.78622 0.4506 0.0
H743 H 0.34572 0.88198 0.57572 0.0
H744 H 0.2753 0.86099 0.46188 0.0
H745 H 0.31403 0.81009 0.58753 0.0
C746 C 0.29197 0.78069 0.55694 0.0
C747 C 0.27508 0.77341 0.51846 0.0
C748 C 0.29079 0.86554 0.48679 0.0
C749 C 0.29303 0.82183 0.51955 0.0
C750 C 0.29945 0.88976 0.48718 0.0
C751 C 0.31938 0.89635 0.51929 0.0
C752 C 0.30197 0.84769 0.51901 0.0
C753 C 0.33012 0.87789 0.55081 0.0
C754 C 0.30105 0.80482 0.55749 0.0
C755 C 0.26772 0.79095 0.48103 0.0
N756 N 0.32126 0.85443 0.54993 0.0
N757 N 0.27667 0.81433 0.48264 0.0
H758 H 0.69816 0.75216 0.93229 0.0
H759 H 0.57234 0.743 0.08985 0.0
H760 H 0.68992 0.7788 0.08823 0.0
H761 H 0.57834 0.72777 0.92683 0.0
H762 H 0.61683 0.75022 0.09394 0.0
H763 H 0.65565 0.73772 0.93358 0.0
C764 C 0.68747 0.75489 0.96695 0.0
C765 C 0.69761 0.76687 0.01014 0.0
C766 C 0.60844 0.74509 0.05738 0.0
C767 C 0.64882 0.75033 0.01176 0.0
C768 C 0.5831 0.74076 0.05511 0.0
C769 C 0.57166 0.73494 0.00783 0.0
C770 C 0.6224 0.7435 0.01207 0.0
C771 C 0.58641 0.73257 0.96389 0.0
C772 C 0.66316 0.74662 0.96761 0.0
C773 C 0.68284 0.76978 0.05396 0.0
N774 N 0.61101 0.73699 0.96701 0.0
N775 N 0.65913 0.76165 0.05358 0.0
loop_
_geom_bond_atom_site_label_1
_geom_bond_atom_site_label_2
_geom_bond_distance
_geom_bond_site_symmetry_2
_ccdc_geom_bond_type
Fe0 O2 1.918 . S
Fe0 O5 1.997 . S
Fe0 O6 2.002 . S
Fe0 O11 1.976 . S
Fe0 O14 1.996 . S
Fe1 O2 1.918 1_556 S
Fe1 O9 1.997 . S
Fe1 O12 1.996 . S
Fe1 O16 1.976 . S
Fe1 O19 2.002 . S
O2 Fe0 1.918 . S
O2 Fe1 1.918 1_554 S
O2 Fe3 1.918 . S
Fe3 O2 1.918 . S
Fe3 O4 2.002 . S
Fe3 O13 1.976 . S
Fe3 O17 1.996 1_554 S
Fe3 O20 1.997 1_554 S
O4 Fe3 2.002 . S
O4 C21 1.295 . S
O5 Fe0 1.997 . S
O5 C21 1.235 . S
O6 Fe0 2.002 . S
O6 C7 1.295 . S
C7 O6 1.295 . S
C7 O9 1.235 1_554 S
C8 O13 1.287 . S
C8 O14 1.255 . S
O9 Fe1 1.997 . S
O9 C7 1.235 1_556 S
C10 O16 1.287 . S
C10 O17 1.255 . S
O11 Fe0 1.976 . S
O11 C18 1.287 . S
O12 Fe1 1.996 . S
O12 C18 1.255 1_556 S
O13 Fe3 1.976 . S
O13 C8 1.287 . S
O14 Fe0 1.996 . S
O14 C8 1.255 . S
C15 O19 1.295 . S
C15 O20 1.235 . S
O16 Fe1 1.976 . S
O16 C10 1.287 . S
O17 Fe3 1.996 1_556 S
O17 C10 1.255 . S
C18 O11 1.287 . S
C18 O12 1.255 1_554 S
O19 Fe1 2.002 . S
O19 C15 1.295 . S
O20 Fe3 1.997 1_556 S
O20 C15 1.235 . S
C21 O4 1.295 . S
C21 O5 1.235 . S
Fe22 O24 1.918 . S
Fe22 O27 1.997 . S
Fe22 O28 2.002 . S
Fe22 O33 1.976 . S
Fe22 O36 1.996 . S
Fe23 O24 1.918 . S
Fe23 O31 1.997 . S
Fe23 O34 1.996 . S
Fe23 O38 1.976 . S
Fe23 O41 2.002 . S
O24 Fe22 1.918 . S
O24 Fe23 1.918 . S
O24 Fe25 1.918 . S
Fe25 O24 1.918 . S
Fe25 O26 2.002 . S
Fe25 O35 1.976 . S
Fe25 O39 1.996 . S
Fe25 O42 1.997 . S
O26 Fe25 2.002 . S
O26 C43 1.295 . S
O27 Fe22 1.997 . S
O27 C43 1.235 . S
O28 Fe22 2.002 . S
O28 C29 1.295 . S
C29 O28 1.295 . S
C29 O31 1.235 . S
C30 O35 1.287 . S
C30 O36 1.255 . S
O31 Fe23 1.997 . S
O31 C29 1.235 . S
C32 O38 1.287 . S
C32 O39 1.255 . S
O33 Fe22 1.976 . S
O33 C40 1.287 . S
O34 Fe23 1.996 . S
O34 C40 1.255 . S
O35 Fe25 1.976 . S
O35 C30 1.287 . S
O36 Fe22 1.996 . S
O36 C30 1.255 . S
C37 O41 1.295 . S
C37 O42 1.235 . S
O38 Fe23 1.976 . S
O38 C32 1.287 . S
O39 Fe25 1.996 . S
O39 C32 1.255 . S
C40 O33 1.287 . S
C40 O34 1.255 . S
O41 Fe23 2.002 . S
O41 C37 1.295 . S
O42 Fe25 1.997 . S
O42 C37 1.235 . S
C43 O26 1.295 . S
C43 O27 1.235 . S
Fe44 O46 1.918 1_556 S
Fe44 O49 1.997 . S
Fe44 O50 2.002 . S
Fe44 O55 1.976 . S
Fe44 O58 1.996 . S
Fe45 O46 1.918 . S
Fe45 O53 1.997 . S
Fe45 O56 1.996 . S
Fe45 O60 1.976 . S
Fe45 O63 2.002 . S
O46 Fe44 1.918 1_554 S
O46 Fe45 1.918 . S
O46 Fe47 1.918 . S
Fe47 O46 1.918 . S
Fe47 O48 2.002 1_554 S
Fe47 O57 1.976 1_554 S
Fe47 O61 1.996 . S
Fe47 O64 1.997 . S
O48 Fe47 2.002 1_556 S
O48 C65 1.295 . S
O49 Fe44 1.997 . S
O49 C65 1.235 . S
O50 Fe44 2.002 . S
O50 C51 1.295 1_556 S
C51 O50 1.295 1_554 S
C51 O53 1.235 . S
C52 O57 1.287 . S
C52 O58 1.255 . S
O53 Fe45 1.997 . S
O53 C51 1.235 . S
C54 O60 1.287 . S
C54 O61 1.255 . S
O55 Fe44 1.976 . S
O55 C62 1.287 1_556 S
O56 Fe45 1.996 . S
O56 C62 1.255 . S
O57 Fe47 1.976 1_556 S
O57 C52 1.287 . S
O58 Fe44 1.996 . S
O58 C52 1.255 . S
C59 O63 1.295 . S
C59 O64 1.235 . S
O60 Fe45 1.976 . S
O60 C54 1.287 . S
O61 Fe47 1.996 . S
O61 C54 1.255 . S
C62 O55 1.287 1_554 S
C62 O56 1.255 . S
O63 Fe45 2.002 . S
O63 C59 1.295 . S
O64 Fe47 1.997 . S
O64 C59 1.235 . S
C65 O48 1.295 . S
C65 O49 1.235 . S
Fe66 O68 1.918 . S
Fe66 O71 1.997 . S
Fe66 O72 2.002 . S
Fe66 O77 1.976 . S
Fe66 O80 1.996 . S
Fe67 O68 1.918 . S
Fe67 O75 1.997 . S
Fe67 O78 1.996 . S
Fe67 O82 1.976 . S
Fe67 O85 2.002 . S
O68 Fe66 1.918 . S
O68 Fe67 1.918 . S
O68 Fe69 1.918 . S
Fe69 O68 1.918 . S
Fe69 O70 2.002 . S
Fe69 O79 1.976 . S
Fe69 O83 1.996 . S
Fe69 O86 1.997 . S
O70 Fe69 2.002 . S
O70 C87 1.295 . S
O71 Fe66 1.997 . S
O71 C87 1.235 . S
O72 Fe66 2.002 . S
O72 C73 1.295 . S
C73 O72 1.295 . S
C73 O75 1.235 . S
C74 O79 1.287 . S
C74 O80 1.255 . S
O75 Fe67 1.997 . S
O75 C73 1.235 . S
C76 O82 1.287 . S
C76 O83 1.255 . S
O77 Fe66 1.976 . S
O77 C84 1.287 . S
O78 Fe67 1.996 . S
O78 C84 1.255 . S
O79 Fe69 1.976 . S
O79 C74 1.287 . S
O80 Fe66 1.996 . S
O80 C74 1.255 . S
C81 O85 1.295 . S
C81 O86 1.235 . S
O82 Fe67 1.976 . S
O82 C76 1.287 . S
O83 Fe69 1.996 . S
O83 C76 1.255 . S
C84 O77 1.287 . S
C84 O78 1.255 . S
O85 Fe67 2.002 . S
O85 C81 1.295 . S
O86 Fe69 1.997 . S
O86 C81 1.235 . S
C87 O70 1.295 . S
C87 O71 1.235 . S
P88 O99 1.490 . S
P88 C102 1.812 . S
P88 C108 1.803 . S
P88 C114 1.819 1_554 S
H89 C103 0.941 . S
H90 C104 0.939 . S
H91 C106 0.940 . S
H92 C107 0.940 . S
H93 C109 0.939 . S
H94 C110 0.942 . S
H95 C112 0.940 . S
H96 C113 0.939 . S
H97 C115 0.941 . S
H98 C119 0.939 . S
O99 P88 1.490 . S
H100 C116 0.939 . S
H101 C118 0.940 . S
C102 P88 1.812 . S
C102 C103 1.389 . S
C102 C107 1.391 . S
C103 H89 0.941 . S
C103 C102 1.389 . S
C103 C104 1.397 . S
C104 H90 0.939 . S
C104 C103 1.397 . S
C104 C105 1.378 . S
C105 C104 1.378 . S
C105 C106 1.378 . S
C106 H91 0.940 . S
C106 C105 1.378 . S
C106 C107 1.396 . S
C107 H92 0.940 . S
C107 C102 1.391 . S
C107 C106 1.396 . S
C108 P88 1.803 . S
C108 C109 1.378 1_554 S
C108 C113 1.400 . S
C109 H93 0.939 . S
C109 C108 1.378 1_556 S
C109 C110 1.361 . S
C110 H94 0.942 . S
C110 C109 1.361 . S
C110 C111 1.369 1_556 S
C111 C110 1.369 1_554 S
C111 C112 1.404 . S
C112 H95 0.940 . S
C112 C111 1.404 . S
C112 C113 1.389 . S
C113 H96 0.939 . S
C113 C108 1.400 . S
C113 C112 1.389 . S
C114 P88 1.819 1_556 S
C114 C115 1.391 . S
C114 C119 1.391 . S
C115 H97 0.941 . S
C115 C114 1.391 . S
C115 C116 1.396 . S
C116 H100 0.939 . S
C116 C115 1.396 . S
C116 C117 1.397 . S
C117 C116 1.397 . S
C117 C118 1.385 . S
C118 H101 0.940 . S
C118 C117 1.385 . S
C118 C119 1.388 . S
C119 H98 0.939 . S
C119 C114 1.391 . S
C119 C118 1.388 . S
P120 O131 1.490 . S
P120 C134 1.812 . S
P120 C140 1.803 1_655 S
P120 C146 1.819 . S
H121 C135 0.941 . S
H122 C136 0.939 . S
H123 C138 0.940 . S
H124 C139 0.940 . S
H125 C141 0.939 . S
H126 C142 0.942 . S
H127 C144 0.940 . S
H128 C145 0.927 1_655 S
H129 C147 0.941 . S
H130 C151 0.939 . S
O131 P120 1.490 . S
H132 C148 0.939 . S
H133 C150 0.940 . S
C134 P120 1.812 . S
C134 C135 1.389 . S
C134 C139 1.391 . S
C135 H121 0.941 . S
C135 C134 1.389 . S
C135 C136 1.397 . S
C136 H122 0.939 . S
C136 C135 1.397 . S
C136 C137 1.378 . S
C137 C136 1.378 . S
C137 C138 1.378 . S
C138 H123 0.940 . S
C138 C137 1.378 . S
C138 C139 1.396 . S
C139 H124 0.940 . S
C139 C134 1.391 . S
C139 C138 1.396 . S
C140 P120 1.803 1_455 S
C140 C141 1.378 . S
C140 C145 1.400 . S
C141 H125 0.939 . S
C141 C140 1.378 . S
C141 C142 1.361 . S
C142 H126 0.942 . S
C142 C141 1.361 . S
C142 C143 1.369 . S
C143 C142 1.369 . S
C143 C144 1.404 . S
C144 H127 0.940 . S
C144 C143 1.404 . S
C144 C145 1.389 . S
C145 H128 0.927 1_455 S
C145 C140 1.400 . S
C145 C144 1.389 . S
C146 P120 1.819 . S
C146 C147 1.391 . S
C146 C151 1.391 . S
C147 H129 0.941 . S
C147 C146 1.391 . S
C147 C148 1.396 . S
C148 H132 0.939 . S
C148 C147 1.396 . S
C148 C149 1.397 . S
C149 C148 1.397 . S
C149 C150 1.385 . S
C150 H133 0.940 . S
C150 C149 1.385 . S
C150 C151 1.388 . S
C151 H130 0.939 . S
C151 C146 1.391 . S
C151 C150 1.388 . S
P152 O163 1.490 . S
P152 C166 1.812 1_554 S
P152 C172 1.803 . S
P152 C178 1.819 . S
H153 C167 0.941 . S
H154 C168 0.939 . S
H155 C170 0.940 . S
H156 C171 0.940 . S
H157 C173 0.939 . S
H158 C174 0.942 . S
H159 C176 0.940 . S
H160 C177 0.939 . S
H161 C179 0.941 . S
H162 C183 0.939 . S
O163 P152 1.490 . S
H164 C180 0.939 . S
H165 C182 0.940 . S
C166 P152 1.812 1_556 S
C166 C167 1.389 . S
C166 C171 1.391 . S
C167 H153 0.941 . S
C167 C166 1.389 . S
C167 C168 1.397 . S
C168 H154 0.939 . S
C168 C167 1.397 . S
C168 C169 1.378 . S
C169 C168 1.378 . S
C169 C170 1.378 . S
C170 H155 0.940 . S
C170 C169 1.378 . S
C170 C171 1.396 . S
C171 H156 0.940 . S
C171 C166 1.391 . S
C171 C170 1.396 . S
C172 P152 1.803 . S
C172 C173 1.378 . S
C172 C177 1.400 1_554 S
C173 H157 0.939 . S
C173 C172 1.378 . S
C173 C174 1.361 . S
C174 H158 0.942 . S
C174 C173 1.361 . S
C174 C175 1.369 . S
C175 C174 1.369 . S
C175 C176 1.404 1_554 S
C176 H159 0.940 . S
C176 C175 1.404 1_556 S
C176 C177 1.389 . S
C177 H160 0.939 . S
C177 C172 1.400 1_556 S
C177 C176 1.389 . S
C178 P152 1.819 . S
C178 C179 1.391 . S
C178 C183 1.391 . S
C179 H161 0.941 . S
C179 C178 1.391 . S
C179 C180 1.396 . S
C180 H164 0.939 . S
C180 C179 1.396 . S
C180 C181 1.397 . S
C181 C180 1.397 . S
C181 C182 1.385 . S
C182 H165 0.940 . S
C182 C181 1.385 . S
C182 C183 1.388 . S
C183 H162 0.939 . S
C183 C178 1.391 . S
C183 C182 1.388 . S
P184 O195 1.490 . S
P184 C198 1.812 . S
P184 C204 1.803 1_455 S
P184 C210 1.819 . S
H185 C199 0.941 . S
H186 C200 0.939 . S
H187 C202 0.940 . S
H188 C203 0.940 . S
H189 C205 0.939 . S
H190 C206 0.942 . S
H191 C208 0.940 . S
H192 C209 0.939 . S
H193 C211 0.941 . S
H194 C215 0.939 . S
O195 P184 1.490 . S
H196 C212 0.939 . S
H197 C214 0.940 . S
C198 P184 1.812 . S
C198 C199 1.389 . S
C198 C203 1.391 . S
C199 H185 0.941 . S
C199 C198 1.389 . S
C199 C200 1.397 . S
C200 H186 0.939 . S
C200 C199 1.397 . S
C200 C201 1.378 . S
C201 C200 1.378 . S
C201 C202 1.378 . S
C202 H187 0.940 . S
C202 C201 1.378 . S
C202 C203 1.396 . S
C203 H188 0.940 . S
C203 C198 1.391 . S
C203 C202 1.396 . S
C204 P184 1.803 1_655 S
C204 C205 1.378 . S
C204 C209 1.400 . S
C205 H189 0.939 . S
C205 C204 1.378 . S
C205 C206 1.361 . S
C206 H190 0.942 . S
C206 C205 1.361 . S
C206 C207 1.369 . S
C207 C206 1.369 . S
C207 C208 1.404 . S
C208 H191 0.940 . S
C208 C207 1.404 . S
C208 C209 1.389 . S
C209 H192 0.939 . S
C209 C204 1.400 . S
C209 C208 1.389 . S
C210 P184 1.819 . S
C210 C211 1.391 . S
C210 C215 1.391 . S
C211 H193 0.941 . S
C211 C210 1.391 . S
C211 C212 1.396 . S
C212 H196 0.939 . S
C212 C211 1.396 . S
C212 C213 1.397 . S
C213 C212 1.397 . S
C213 C214 1.385 . S
C214 H197 0.940 . S
C214 C213 1.385 . S
C214 C215 1.388 . S
C215 H194 0.939 . S
C215 C210 1.391 . S
C215 C214 1.388 . S
P216 O227 1.487 1_565 S
P216 C230 1.812 . S
P216 C236 1.803 1_565 S
P216 C242 1.819 . S
H217 C231 0.941 . S
H218 C232 0.939 . S
H219 C234 0.940 . S
H220 C235 0.940 . S
H221 C237 0.939 . S
H222 C238 0.942 . S
H223 C240 0.940 . S
H224 C241 0.939 . S
H225 C243 0.941 . S
H226 C247 0.939 1_545 S
O227 P216 1.487 1_545 S
H228 C244 0.939 . S
H229 C246 0.940 . S
C230 P216 1.812 . S
C230 C231 1.389 . S
C230 C235 1.391 . S
C231 H217 0.941 . S
C231 C230 1.389 . S
C231 C232 1.397 . S
C232 H218 0.939 . S
C232 C231 1.397 . S
C232 C233 1.378 . S
C233 C232 1.378 . S
C233 C234 1.378 . S
C234 H219 0.940 . S
C234 C233 1.378 . S
C234 C235 1.396 . S
C235 H220 0.940 . S
C235 C230 1.391 . S
C235 C234 1.396 . S
C236 P216 1.803 1_545 S
C236 C237 1.378 . S
C236 C241 1.400 . S
C237 H221 0.939 . S
C237 C236 1.378 . S
C237 C238 1.361 . S
C238 H222 0.942 . S
C238 C237 1.361 . S
C238 C239 1.369 . S
C239 C238 1.369 . S
C239 C240 1.404 . S
C240 H223 0.940 . S
C240 C239 1.404 . S
C240 C241 1.389 . S
C241 H224 0.939 . S
C241 C236 1.400 . S
C241 C240 1.389 . S
C242 P216 1.819 . S
C242 C243 1.391 . S
C242 C247 1.391 . S
C243 H225 0.941 . S
C243 C242 1.391 . S
C243 C244 1.396 . S
C244 H228 0.939 . S
C244 C243 1.396 . S
C244 C245 1.397 . S
C245 C244 1.397 . S
C245 C246 1.385 . S
C246 H229 0.940 . S
C246 C245 1.385 . S
C246 C247 1.388 . S
C247 H226 0.939 1_565 S
C247 C242 1.391 . S
C247 C246 1.388 . S
P248 O259 1.490 . S
P248 C262 1.812 . S
P248 C268 1.803 . S
P248 C274 1.819 1_556 S
H249 C263 0.941 . S
H250 C264 0.939 . S
H251 C266 0.940 . S
H252 C267 0.940 . S
H253 C269 0.939 . S
H254 C270 0.942 . S
H255 C272 0.940 . S
H256 C273 0.939 . S
H257 C275 0.941 . S
H258 C279 0.939 . S
O259 P248 1.490 . S
H260 C276 0.939 . S
H261 C278 0.940 . S
C262 P248 1.812 . S
C262 C263 1.389 . S
C262 C267 1.391 . S
C263 H249 0.941 . S
C263 C262 1.389 . S
C263 C264 1.397 . S
C264 H250 0.939 . S
C264 C263 1.397 . S
C264 C265 1.378 . S
C265 C264 1.378 . S
C265 C266 1.378 . S
C266 H251 0.940 . S
C266 C265 1.378 . S
C266 C267 1.396 . S
C267 H252 0.940 . S
C267 C262 1.391 . S
C267 C266 1.396 . S
C268 P248 1.803 . S
C268 C269 1.378 1_556 S
C268 C273 1.400 . S
C269 H253 0.939 . S
C269 C268 1.378 1_554 S
C269 C270 1.361 . S
C270 H254 0.942 . S
C270 C269 1.361 . S
C270 C271 1.369 . S
C271 C270 1.369 . S
C271 C272 1.404 1_554 S
C272 H255 0.940 . S
C272 C271 1.404 1_556 S
C272 C273 1.389 . S
C273 H256 0.939 . S
C273 C268 1.400 . S
C273 C272 1.389 . S
C274 P248 1.819 1_554 S
C274 C275 1.391 . S
C274 C279 1.391 . S
C275 H257 0.941 . S
C275 C274 1.391 . S
C275 C276 1.396 . S
C276 H260 0.939 . S
C276 C275 1.396 . S
C276 C277 1.397 . S
C277 C276 1.397 . S
C277 C278 1.385 . S
C278 H261 0.940 . S
C278 C277 1.385 . S
C278 C279 1.388 . S
C279 H258 0.939 . S
C279 C274 1.391 . S
C279 C278 1.388 . S
P280 O291 1.490 . S
P280 C294 1.812 . S
P280 C300 1.803 1_545 S
P280 C306 1.819 . S
H281 C295 0.941 . S
H282 C296 0.939 . S
H283 C298 0.940 . S
H284 C299 0.940 . S
H285 C301 0.939 . S
H286 C302 0.942 . S
H287 C304 0.940 . S
H288 C305 0.939 . S
H289 C307 0.941 . S
H290 C311 0.941 1_565 S
O291 P280 1.490 . S
H292 C308 0.939 . S
H293 C310 0.940 . S
C294 P280 1.812 . S
C294 C295 1.389 . S
C294 C299 1.391 . S
C295 H281 0.941 . S
C295 C294 1.389 . S
C295 C296 1.397 . S
C296 H282 0.939 . S
C296 C295 1.397 . S
C296 C297 1.378 . S
C297 C296 1.378 . S
C297 C298 1.378 . S
C298 H283 0.940 . S
C298 C297 1.378 . S
C298 C299 1.396 . S
C299 H284 0.940 . S
C299 C294 1.391 . S
C299 C298 1.396 . S
C300 P280 1.803 1_565 S
C300 C301 1.378 . S
C300 C305 1.400 . S
C301 H285 0.939 . S
C301 C300 1.378 . S
C301 C302 1.361 . S
C302 H286 0.942 . S
C302 C301 1.361 . S
C302 C303 1.369 . S
C303 C302 1.369 . S
C303 C304 1.404 . S
C304 H287 0.940 . S
C304 C303 1.404 . S
C304 C305 1.389 . S
C305 H288 0.939 . S
C305 C300 1.400 . S
C305 C304 1.389 . S
C306 P280 1.819 . S
C306 C307 1.391 . S
C306 C311 1.391 . S
C307 H289 0.941 . S
C307 C306 1.391 . S
C307 C308 1.396 . S
C308 H292 0.939 . S
C308 C307 1.396 . S
C308 C309 1.397 . S
C309 C308 1.397 . S
C309 C310 1.385 . S
C310 H293 0.940 . S
C310 C309 1.385 . S
C310 C311 1.388 . S
C311 H290 0.941 1_545 S
C311 C306 1.391 . S
C311 C310 1.388 . S
P312 O323 1.490 . S
P312 C326 1.812 . S
P312 C332 1.803 . S
P312 C338 1.819 1_554 S
H313 C327 0.941 . S
H314 C328 0.939 . S
H315 C330 0.940 . S
H316 C331 0.940 . S
H317 C333 0.939 . S
H318 C334 0.942 . S
H319 C336 0.940 . S
H320 C337 0.939 . S
H321 C339 0.941 . S
H322 C343 0.939 . S
O323 P312 1.490 . S
H324 C340 0.939 . S
H325 C342 0.940 . S
C326 P312 1.812 . S
C326 C327 1.389 . S
C326 C331 1.391 . S
C327 H313 0.941 . S
C327 C326 1.389 . S
C327 C328 1.397 . S
C328 H314 0.939 . S
C328 C327 1.397 . S
C328 C329 1.378 . S
C329 C328 1.378 . S
C329 C330 1.378 . S
C330 H315 0.940 . S
C330 C329 1.378 . S
C330 C331 1.396 . S
C331 H316 0.940 . S
C331 C326 1.391 . S
C331 C330 1.396 . S
C332 P312 1.803 . S
C332 C333 1.378 1_554 S
C332 C337 1.400 . S
C333 H317 0.939 . S
C333 C332 1.378 1_556 S
C333 C334 1.361 . S
C334 H318 0.942 . S
C334 C333 1.361 . S
C334 C335 1.369 1_556 S
C335 C334 1.369 1_554 S
C335 C336 1.404 . S
C336 H319 0.940 . S
C336 C335 1.404 . S
C336 C337 1.389 . S
C337 H320 0.939 . S
C337 C332 1.400 . S
C337 C336 1.389 . S
C338 P312 1.819 1_556 S
C338 C339 1.391 . S
C338 C343 1.391 . S
C339 H321 0.941 . S
C339 C338 1.391 . S
C339 C340 1.396 . S
C340 H324 0.939 . S
C340 C339 1.396 . S
C340 C341 1.397 . S
C341 C340 1.397 . S
C341 C342 1.385 . S
C342 H325 0.940 . S
C342 C341 1.385 . S
C342 C343 1.388 . S
C343 H322 0.939 . S
C343 C338 1.391 . S
C343 C342 1.388 . S
H344 C350 0.930 . S
H345 C354 0.930 . S
H346 C359 0.929 . S
H347 C357 0.929 . S
H348 C352 0.929 . S
H349 C358 0.929 . S
C350 H344 0.930 . S
C350 C351 1.367 . S
C350 C358 1.378 . S
C351 C350 1.367 . S
C351 C359 1.433 . S
C352 H348 0.929 . S
C352 C354 1.378 . S
C352 C356 1.350 . S
C353 C356 1.463 . S
C353 C358 1.350 . S
C353 N361 1.427 . S
C354 H345 0.930 . S
C354 C352 1.378 . S
C354 C355 1.367 . S
C355 C354 1.367 . S
C355 C357 1.433 . S
C356 C352 1.350 . S
C356 C353 1.463 . S
C356 N360 1.427 . S
C357 H347 0.929 . S
C357 C355 1.433 . S
C357 N360 1.384 . S
C358 H349 0.929 . S
C358 C350 1.378 . S
C358 C353 1.350 . S
C359 H346 0.929 . S
C359 C351 1.433 . S
C359 N361 1.384 . S
N360 C356 1.427 . S
N360 C357 1.384 . S
N361 C353 1.427 . S
N361 C359 1.384 . S
H362 C368 0.930 . S
H363 C372 0.930 . S
H364 C377 0.929 . S
H365 C375 0.929 . S
H366 C370 0.929 . S
H367 C376 0.929 . S
C368 H362 0.930 . S
C368 C369 1.367 . S
C368 C376 1.378 . S
C369 C368 1.367 . S
C369 C377 1.433 . S
C370 H366 0.929 . S
C370 C372 1.378 . S
C370 C374 1.350 . S
C371 C374 1.463 . S
C371 C376 1.350 . S
C371 N379 1.427 . S
C372 H363 0.930 . S
C372 C370 1.378 . S
C372 C373 1.367 . S
C373 C372 1.367 . S
C373 C375 1.433 . S
C374 C370 1.350 . S
C374 C371 1.463 . S
C374 N378 1.427 . S
C375 H365 0.929 . S
C375 C373 1.433 . S
C375 N378 1.384 . S
C376 H367 0.929 . S
C376 C368 1.378 . S
C376 C371 1.350 . S
C377 H364 0.929 . S
C377 C369 1.433 . S
C377 N379 1.384 . S
N378 C374 1.427 . S
N378 C375 1.384 . S
N379 C371 1.427 . S
N379 C377 1.384 . S
H380 C386 0.930 . S
H381 C390 0.930 . S
H382 C395 0.929 . S
H383 C393 0.929 . S
H384 C388 0.929 . S
H385 C394 0.929 . S
C386 H380 0.930 . S
C386 C387 1.367 . S
C386 C394 1.378 . S
C387 C386 1.367 . S
C387 C395 1.433 . S
C388 H384 0.929 . S
C388 C390 1.378 . S
C388 C392 1.350 . S
C389 C392 1.463 . S
C389 C394 1.350 . S
C389 N397 1.427 . S
C390 H381 0.930 . S
C390 C388 1.378 . S
C390 C391 1.367 . S
C391 C390 1.367 . S
C391 C393 1.433 . S
C392 C388 1.350 . S
C392 C389 1.463 . S
C392 N396 1.427 . S
C393 H383 0.929 . S
C393 C391 1.433 . S
C393 N396 1.384 . S
C394 H385 0.929 . S
C394 C386 1.378 . S
C394 C389 1.350 . S
C395 H382 0.929 . S
C395 C387 1.433 . S
C395 N397 1.384 . S
N396 C392 1.427 . S
N396 C393 1.384 . S
N397 C389 1.427 . S
N397 C395 1.384 . S
H398 C404 0.930 . S
H399 C408 0.930 . S
H400 C413 0.929 . S
H401 C411 0.929 . S
H402 C406 0.929 . S
H403 C412 0.929 . S
C404 H398 0.930 . S
C404 C405 1.367 . S
C404 C412 1.378 . S
C405 C404 1.367 . S
C405 C413 1.433 . S
C406 H402 0.929 . S
C406 C408 1.378 . S
C406 C410 1.350 . S
C407 C410 1.463 . S
C407 C412 1.350 . S
C407 N415 1.427 . S
C408 H399 0.930 . S
C408 C406 1.378 . S
C408 C409 1.367 . S
C409 C408 1.367 . S
C409 C411 1.433 . S
C410 C406 1.350 . S
C410 C407 1.463 . S
C410 N414 1.427 . S
C411 H401 0.929 . S
C411 C409 1.433 . S
C411 N414 1.384 . S
C412 H403 0.929 . S
C412 C404 1.378 . S
C412 C407 1.350 . S
C413 H400 0.929 . S
C413 C405 1.433 . S
C413 N415 1.384 . S
N414 C410 1.427 . S
N414 C411 1.384 . S
N415 C407 1.427 . S
N415 C413 1.384 . S
H416 C422 0.930 . S
H417 C426 0.930 . S
H418 C431 0.929 . S
H419 C429 0.929 . S
H420 C424 0.929 . S
H421 C430 0.929 . S
C422 H416 0.930 . S
C422 C423 1.367 . S
C422 C430 1.378 . S
C423 C422 1.367 . S
C423 C431 1.433 . S
C424 H420 0.929 . S
C424 C426 1.378 . S
C424 C428 1.350 . S
C425 C428 1.463 . S
C425 C430 1.350 . S
C425 N433 1.427 . S
C426 H417 0.930 . S
C426 C424 1.378 . S
C426 C427 1.367 . S
C427 C426 1.367 . S
C427 C429 1.433 . S
C428 C424 1.350 . S
C428 C425 1.463 . S
C428 N432 1.427 . S
C429 H419 0.929 . S
C429 C427 1.433 . S
C429 N432 1.384 . S
C430 H421 0.929 . S
C430 C422 1.378 . S
C430 C425 1.350 . S
C431 H418 0.929 . S
C431 C423 1.433 . S
C431 N433 1.384 . S
N432 C428 1.427 . S
N432 C429 1.384 . S
N433 C425 1.427 . S
N433 C431 1.384 . S
H434 C440 0.930 . S
H435 C444 0.930 . S
H436 C449 0.929 . S
H437 C447 0.929 . S
H438 C442 0.929 . S
H439 C448 0.929 . S
C440 H434 0.930 . S
C440 C441 1.367 . S
C440 C448 1.378 . S
C441 C440 1.367 . S
C441 C449 1.433 . S
C442 H438 0.929 . S
C442 C444 1.378 . S
C442 C446 1.350 . S
C443 C446 1.463 . S
C443 C448 1.350 . S
C443 N451 1.427 . S
C444 H435 0.930 . S
C444 C442 1.378 . S
C444 C445 1.367 . S
C445 C444 1.367 . S
C445 C447 1.433 . S
C446 C442 1.350 . S
C446 C443 1.463 . S
C446 N450 1.427 . S
C447 H437 0.929 . S
C447 C445 1.433 . S
C447 N450 1.384 . S
C448 H439 0.929 . S
C448 C440 1.378 . S
C448 C443 1.350 . S
C449 H436 0.929 . S
C449 C441 1.433 . S
C449 N451 1.384 . S
N450 C446 1.427 . S
N450 C447 1.384 . S
N451 C443 1.427 . S
N451 C449 1.384 . S
H452 C458 0.930 . S
H453 C462 0.930 . S
H454 C467 0.929 . S
H455 C465 0.929 . S
H456 C460 0.929 . S
H457 C466 0.929 . S
C458 H452 0.930 . S
C458 C459 1.367 . S
C458 C466 1.378 . S
C459 C458 1.367 . S
C459 C467 1.433 . S
C460 H456 0.929 . S
C460 C462 1.378 . S
C460 C464 1.350 . S
C461 C464 1.463 . S
C461 C466 1.350 . S
C461 N469 1.427 . S
C462 H453 0.930 . S
C462 C460 1.378 . S
C462 C463 1.367 . S
C463 C462 1.367 . S
C463 C465 1.433 . S
C464 C460 1.350 . S
C464 C461 1.463 . S
C464 N468 1.427 . S
C465 H455 0.929 . S
C465 C463 1.433 . S
C465 N468 1.384 . S
C466 H457 0.929 . S
C466 C458 1.378 . S
C466 C461 1.350 . S
C467 H454 0.929 . S
C467 C459 1.433 . S
C467 N469 1.384 . S
N468 C464 1.427 . S
N468 C465 1.384 . S
N469 C461 1.427 . S
N469 C467 1.384 . S
H470 C476 0.930 . S
H471 C480 0.930 . S
H472 C485 0.929 . S
H473 C483 0.929 . S
H474 C478 0.929 . S
H475 C484 0.929 . S
C476 H470 0.930 . S
C476 C477 1.367 . S
C476 C484 1.378 . S
C477 C476 1.367 . S
C477 C485 1.433 . S
C478 H474 0.929 . S
C478 C480 1.378 . S
C478 C482 1.350 . S
C479 C482 1.463 . S
C479 C484 1.350 . S
C479 N487 1.427 . S
C480 H471 0.930 . S
C480 C478 1.378 . S
C480 C481 1.367 . S
C481 C480 1.367 . S
C481 C483 1.433 . S
C482 C478 1.350 . S
C482 C479 1.463 . S
C482 N486 1.427 . S
C483 H473 0.929 . S
C483 C481 1.433 . S
C483 N486 1.384 . S
C484 H475 0.929 . S
C484 C476 1.378 . S
C484 C479 1.350 . S
C485 H472 0.929 . S
C485 C477 1.433 . S
C485 N487 1.384 . S
N486 C482 1.427 . S
N486 C483 1.384 . S
N487 C479 1.427 . S
N487 C485 1.384 . S
H488 C494 0.930 . S
H489 C498 0.930 . S
H490 C503 0.929 . S
H491 C501 0.929 . S
H492 C496 0.929 . S
H493 C502 0.929 . S
C494 H488 0.930 . S
C494 C495 1.367 . S
C494 C502 1.378 . S
C495 C494 1.367 . S
C495 C503 1.433 . S
C496 H492 0.929 . S
C496 C498 1.378 . S
C496 C500 1.350 . S
C497 C500 1.463 . S
C497 C502 1.350 . S
C497 N505 1.427 . S
C498 H489 0.930 . S
C498 C496 1.378 . S
C498 C499 1.367 . S
C499 C498 1.367 . S
C499 C501 1.433 . S
C500 C496 1.350 . S
C500 C497 1.463 . S
C500 N504 1.427 . S
C501 H491 0.929 . S
C501 C499 1.433 . S
C501 N504 1.384 . S
C502 H493 0.929 . S
C502 C494 1.378 . S
C502 C497 1.350 . S
C503 H490 0.929 . S
C503 C495 1.433 . S
C503 N505 1.384 . S
N504 C500 1.427 . S
N504 C501 1.384 . S
N505 C497 1.427 . S
N505 C503 1.384 . S
H506 C512 0.930 . S
H507 C516 0.930 . S
H508 C521 0.929 . S
H509 C519 0.929 . S
H510 C514 0.929 . S
H511 C520 0.929 . S
C512 H506 0.930 . S
C512 C513 1.367 . S
C512 C520 1.378 . S
C513 C512 1.367 . S
C513 C521 1.433 . S
C514 H510 0.929 . S
C514 C516 1.378 . S
C514 C518 1.350 . S
C515 C518 1.463 . S
C515 C520 1.350 . S
C515 N523 1.427 . S
C516 H507 0.930 . S
C516 C514 1.378 . S
C516 C517 1.367 . S
C517 C516 1.367 . S
C517 C519 1.433 . S
C518 C514 1.350 . S
C518 C515 1.463 . S
C518 N522 1.427 . S
C519 H509 0.929 . S
C519 C517 1.433 . S
C519 N522 1.384 . S
C520 H511 0.929 . S
C520 C512 1.378 . S
C520 C515 1.350 . S
C521 H508 0.929 . S
C521 C513 1.433 . S
C521 N523 1.384 . S
N522 C518 1.427 . S
N522 C519 1.384 . S
N523 C515 1.427 . S
N523 C521 1.384 . S
H524 C530 0.930 . S
H525 C534 0.930 . S
H526 C539 0.929 . S
H527 C537 0.929 . S
H528 C532 0.929 . S
H529 C538 0.929 . S
C530 H524 0.930 . S
C530 C531 1.367 . S
C530 C538 1.378 . S
C531 C530 1.367 . S
C531 C539 1.433 . S
C532 H528 0.929 . S
C532 C534 1.378 . S
C532 C536 1.350 . S
C533 C536 1.463 . S
C533 C538 1.350 . S
C533 N541 1.427 . S
C534 H525 0.930 . S
C534 C532 1.378 . S
C534 C535 1.367 . S
C535 C534 1.367 . S
C535 C537 1.433 . S
C536 C532 1.350 . S
C536 C533 1.463 . S
C536 N540 1.427 . S
C537 H527 0.929 . S
C537 C535 1.433 . S
C537 N540 1.384 . S
C538 H529 0.929 . S
C538 C530 1.378 . S
C538 C533 1.350 . S
C539 H526 0.929 . S
C539 C531 1.433 . S
C539 N541 1.384 . S
N540 C536 1.427 . S
N540 C537 1.384 . S
N541 C533 1.427 . S
N541 C539 1.384 . S
H542 C548 0.930 . S
H543 C552 0.930 . S
H544 C557 0.929 . S
H545 C555 0.929 . S
H546 C550 0.929 . S
H547 C556 0.929 . S
C548 H542 0.930 . S
C548 C549 1.367 . S
C548 C556 1.378 . S
C549 C548 1.367 . S
C549 C557 1.433 . S
C550 H546 0.929 . S
C550 C552 1.378 . S
C550 C554 1.350 . S
C551 C554 1.463 . S
C551 C556 1.350 . S
C551 N559 1.427 . S
C552 H543 0.930 . S
C552 C550 1.378 . S
C552 C553 1.367 . S
C553 C552 1.367 . S
C553 C555 1.433 . S
C554 C550 1.350 . S
C554 C551 1.463 . S
C554 N558 1.427 . S
C555 H545 0.929 . S
C555 C553 1.433 . S
C555 N558 1.384 . S
C556 H547 0.929 . S
C556 C548 1.378 . S
C556 C551 1.350 . S
C557 H544 0.929 . S
C557 C549 1.433 . S
C557 N559 1.384 . S
N558 C554 1.427 . S
N558 C555 1.384 . S
N559 C551 1.427 . S
N559 C557 1.384 . S
H560 C566 0.930 . S
H561 C570 0.930 . S
H562 C575 0.929 . S
H563 C573 0.929 . S
H564 C568 0.929 . S
H565 C574 0.929 . S
C566 H560 0.930 . S
C566 C567 1.367 . S
C566 C574 1.378 . S
C567 C566 1.367 . S
C567 C575 1.433 . S
C568 H564 0.929 . S
C568 C570 1.378 . S
C568 C572 1.350 . S
C569 C572 1.463 . S
C569 C574 1.350 . S
C569 N577 1.427 . S
C570 H561 0.930 . S
C570 C568 1.378 . S
C570 C571 1.367 . S
C571 C570 1.367 . S
C571 C573 1.433 . S
C572 C568 1.350 . S
C572 C569 1.463 . S
C572 N576 1.427 . S
C573 H563 0.929 . S
C573 C571 1.433 . S
C573 N576 1.384 . S
C574 H565 0.929 . S
C574 C566 1.378 . S
C574 C569 1.350 . S
C575 H562 0.929 . S
C575 C567 1.433 . S
C575 N577 1.384 . S
N576 C572 1.427 . S
N576 C573 1.384 . S
N577 C569 1.427 . S
N577 C575 1.384 . S
H578 C584 0.930 . S
H579 C588 0.930 . S
H580 C593 0.929 . S
H581 C591 0.929 . S
H582 C586 0.929 . S
H583 C592 0.929 . S
C584 H578 0.930 . S
C584 C585 1.367 . S
C584 C592 1.378 . S
C585 C584 1.367 . S
C585 C593 1.433 . S
C586 H582 0.929 . S
C586 C588 1.378 . S
C586 C590 1.350 . S
C587 C590 1.463 . S
C587 C592 1.350 . S
C587 N595 1.427 . S
C588 H579 0.930 . S
C588 C586 1.378 . S
C588 C589 1.367 . S
C589 C588 1.367 . S
C589 C591 1.433 . S
C590 C586 1.350 . S
C590 C587 1.463 . S
C590 N594 1.427 . S
C591 H581 0.929 . S
C591 C589 1.433 . S
C591 N594 1.384 . S
C592 H583 0.929 . S
C592 C584 1.378 . S
C592 C587 1.350 . S
C593 H580 0.929 . S
C593 C585 1.433 . S
C593 N595 1.384 . S
N594 C590 1.427 . S
N594 C591 1.384 . S
N595 C587 1.427 . S
N595 C593 1.384 . S
H596 C602 0.930 . S
H597 C606 0.930 . S
H598 C611 0.929 . S
H599 C609 0.929 . S
H600 C604 0.929 . S
H601 C610 0.929 . S
C602 H596 0.930 . S
C602 C603 1.367 . S
C602 C610 1.378 . S
C603 C602 1.367 . S
C603 C611 1.433 . S
C604 H600 0.929 . S
C604 C606 1.378 . S
C604 C608 1.350 . S
C605 C608 1.463 . S
C605 C610 1.350 . S
C605 N613 1.427 . S
C606 H597 0.930 . S
C606 C604 1.378 . S
C606 C607 1.367 . S
C607 C606 1.367 . S
C607 C609 1.433 . S
C608 C604 1.350 . S
C608 C605 1.463 . S
C608 N612 1.427 . S
C609 H599 0.929 . S
C609 C607 1.433 . S
C609 N612 1.384 . S
C610 H601 0.929 . S
C610 C602 1.378 . S
C610 C605 1.350 . S
C611 H598 0.929 . S
C611 C603 1.433 . S
C611 N613 1.384 . S
N612 C608 1.427 . S
N612 C609 1.384 . S
N613 C605 1.427 . S
N613 C611 1.384 . S
H614 C620 0.930 . S
H615 C624 0.930 . S
H616 C629 0.929 . S
H617 C627 0.929 . S
H618 C622 0.929 . S
H619 C628 0.929 . S
C620 H614 0.930 . S
C620 C621 1.367 . S
C620 C628 1.378 . S
C621 C620 1.367 . S
C621 C629 1.433 . S
C622 H618 0.929 . S
C622 C624 1.378 . S
C622 C626 1.350 . S
C623 C626 1.463 . S
C623 C628 1.350 . S
C623 N631 1.427 . S
C624 H615 0.930 . S
C624 C622 1.378 . S
C624 C625 1.367 . S
C625 C624 1.367 . S
C625 C627 1.433 . S
C626 C622 1.350 . S
C626 C623 1.463 . S
C626 N630 1.427 . S
C627 H617 0.929 . S
C627 C625 1.433 . S
C627 N630 1.384 . S
C628 H619 0.929 . S
C628 C620 1.378 . S
C628 C623 1.350 . S
C629 H616 0.929 . S
C629 C621 1.433 . S
C629 N631 1.384 . S
N630 C626 1.427 . S
N630 C627 1.384 . S
N631 C623 1.427 . S
N631 C629 1.384 . S
H632 C638 0.930 . S
H633 C642 0.930 . S
H634 C647 0.929 . S
H635 C645 0.929 . S
H636 C640 0.929 . S
H637 C646 0.929 . S
C638 H632 0.930 . S
C638 C639 1.367 1_556 S
C638 C646 1.378 . S
C639 C638 1.367 1_554 S
C639 C647 1.433 . S
C640 H636 0.929 . S
C640 C642 1.378 . S
C640 C644 1.350 . S
C641 C644 1.463 . S
C641 C646 1.350 1_554 S
C641 N649 1.427 . S
C642 H633 0.930 . S
C642 C640 1.378 . S
C642 C643 1.367 . S
C643 C642 1.367 . S
C643 C645 1.433 1_554 S
C644 C640 1.350 . S
C644 C641 1.463 . S
C644 N648 1.427 1_554 S
C645 H635 0.929 . S
C645 C643 1.433 1_556 S
C645 N648 1.384 . S
C646 H637 0.929 . S
C646 C638 1.378 . S
C646 C641 1.350 1_556 S
C647 H634 0.929 . S
C647 C639 1.433 . S
C647 N649 1.384 . S
N648 C644 1.427 1_556 S
N648 C645 1.384 . S
N649 C641 1.427 . S
N649 C647 1.384 . S
H650 C656 0.930 . S
H651 C660 0.930 . S
H652 C665 0.929 . S
H653 C663 0.929 . S
H654 C658 0.929 . S
H655 C664 0.929 . S
C656 H650 0.930 . S
C656 C657 1.367 . S
C656 C664 1.378 . S
C657 C656 1.367 . S
C657 C665 1.433 . S
C658 H654 0.929 . S
C658 C660 1.378 . S
C658 C662 1.350 . S
C659 C662 1.463 . S
C659 C664 1.350 . S
C659 N667 1.427 . S
C660 H651 0.930 . S
C660 C658 1.378 . S
C660 C661 1.367 . S
C661 C660 1.367 . S
C661 C663 1.433 . S
C662 C658 1.350 . S
C662 C659 1.463 . S
C662 N666 1.427 . S
C663 H653 0.929 . S
C663 C661 1.433 . S
C663 N666 1.384 . S
C664 H655 0.929 . S
C664 C656 1.378 . S
C664 C659 1.350 . S
C665 H652 0.929 . S
C665 C657 1.433 . S
C665 N667 1.384 . S
N666 C662 1.427 . S
N666 C663 1.384 . S
N667 C659 1.427 . S
N667 C665 1.384 . S
H668 C674 0.930 . S
H669 C678 0.930 . S
H670 C683 0.929 . S
H671 C681 0.929 . S
H672 C676 0.929 . S
H673 C682 0.929 . S
C674 H668 0.930 . S
C674 C675 1.367 1_556 S
C674 C682 1.378 . S
C675 C674 1.367 1_554 S
C675 C683 1.433 . S
C676 H672 0.929 . S
C676 C678 1.378 . S
C676 C680 1.350 . S
C677 C680 1.463 . S
C677 C682 1.350 1_554 S
C677 N685 1.427 . S
C678 H669 0.930 . S
C678 C676 1.378 . S
C678 C679 1.367 . S
C679 C678 1.367 . S
C679 C681 1.433 1_554 S
C680 C676 1.350 . S
C680 C677 1.463 . S
C680 N684 1.427 1_554 S
C681 H671 0.929 . S
C681 C679 1.433 1_556 S
C681 N684 1.384 . S
C682 H673 0.929 . S
C682 C674 1.378 . S
C682 C677 1.350 1_556 S
C683 H670 0.929 . S
C683 C675 1.433 . S
C683 N685 1.384 . S
N684 C680 1.427 1_556 S
N684 C681 1.384 . S
N685 C677 1.427 . S
N685 C683 1.384 . S
H686 C692 0.930 . S
H687 C696 0.930 . S
H688 C701 0.929 . S
H689 C699 0.929 . S
H690 C694 0.929 . S
H691 C700 0.929 . S
C692 H686 0.930 . S
C692 C693 1.367 . S
C692 C700 1.378 . S
C693 C692 1.367 . S
C693 C701 1.433 . S
C694 H690 0.929 . S
C694 C696 1.378 . S
C694 C698 1.350 . S
C695 C698 1.463 . S
C695 C700 1.350 . S
C695 N703 1.427 . S
C696 H687 0.930 . S
C696 C694 1.378 . S
C696 C697 1.367 . S
C697 C696 1.367 . S
C697 C699 1.433 . S
C698 C694 1.350 . S
C698 C695 1.463 . S
C698 N702 1.427 . S
C699 H689 0.929 . S
C699 C697 1.433 . S
C699 N702 1.384 . S
C700 H691 0.929 . S
C700 C692 1.378 . S
C700 C695 1.350 . S
C701 H688 0.929 . S
C701 C693 1.433 . S
C701 N703 1.384 . S
N702 C698 1.427 . S
N702 C699 1.384 . S
N703 C695 1.427 . S
N703 C701 1.384 . S
H704 C710 0.930 . S
H705 C714 0.930 . S
H706 C719 0.929 . S
H707 C717 0.929 . S
H708 C712 0.929 . S
H709 C718 0.929 . S
C710 H704 0.930 . S
C710 C711 1.367 . S
C710 C718 1.378 . S
C711 C710 1.367 . S
C711 C719 1.433 . S
C712 H708 0.929 . S
C712 C714 1.378 . S
C712 C716 1.350 . S
C713 C716 1.463 . S
C713 C718 1.350 . S
C713 N721 1.427 . S
C714 H705 0.930 . S
C714 C712 1.378 . S
C714 C715 1.367 . S
C715 C714 1.367 . S
C715 C717 1.433 . S
C716 C712 1.350 . S
C716 C713 1.463 . S
C716 N720 1.427 . S
C717 H707 0.929 . S
C717 C715 1.433 . S
C717 N720 1.384 . S
C718 H709 0.929 . S
C718 C710 1.378 . S
C718 C713 1.350 . S
C719 H706 0.929 . S
C719 C711 1.433 . S
C719 N721 1.384 . S
N720 C716 1.427 . S
N720 C717 1.384 . S
N721 C713 1.427 . S
N721 C719 1.384 . S
H722 C728 0.930 . S
H723 C732 0.930 . S
H724 C737 0.929 . S
H725 C735 0.929 . S
H726 C730 0.929 . S
H727 C736 0.929 . S
C728 H722 0.930 . S
C728 C729 1.367 1_556 S
C728 C736 1.378 . S
C729 C728 1.367 1_554 S
C729 C737 1.433 . S
C730 H726 0.929 . S
C730 C732 1.378 . S
C730 C734 1.350 . S
C731 C734 1.463 . S
C731 C736 1.350 1_554 S
C731 N739 1.427 . S
C732 H723 0.930 . S
C732 C730 1.378 . S
C732 C733 1.367 . S
C733 C732 1.367 . S
C733 C735 1.433 1_554 S
C734 C730 1.350 . S
C734 C731 1.463 . S
C734 N738 1.427 1_554 S
C735 H725 0.929 . S
C735 C733 1.433 1_556 S
C735 N738 1.384 . S
C736 H727 0.929 . S
C736 C728 1.378 . S
C736 C731 1.350 1_556 S
C737 H724 0.929 . S
C737 C729 1.433 . S
C737 N739 1.384 . S
N738 C734 1.427 1_556 S
N738 C735 1.384 . S
N739 C731 1.427 . S
N739 C737 1.384 . S
H740 C746 0.930 . S
H741 C750 0.930 . S
H742 C755 0.929 . S
H743 C753 0.929 . S
H744 C748 0.929 . S
H745 C754 0.929 . S
C746 H740 0.930 . S
C746 C747 1.367 . S
C746 C754 1.378 . S
C747 C746 1.367 . S
C747 C755 1.433 . S
C748 H744 0.929 . S
C748 C750 1.378 . S
C748 C752 1.350 . S
C749 C752 1.463 . S
C749 C754 1.350 . S
C749 N757 1.427 . S
C750 H741 0.930 . S
C750 C748 1.378 . S
C750 C751 1.367 . S
C751 C750 1.367 . S
C751 C753 1.433 . S
C752 C748 1.350 . S
C752 C749 1.463 . S
C752 N756 1.427 . S
C753 H743 0.929 . S
C753 C751 1.433 . S
C753 N756 1.384 . S
C754 H745 0.929 . S
C754 C746 1.378 . S
C754 C749 1.350 . S
C755 H742 0.929 . S
C755 C747 1.433 . S
C755 N757 1.384 . S
N756 C752 1.427 . S
N756 C753 1.384 . S
N757 C749 1.427 . S
N757 C755 1.384 . S
H758 C764 0.930 . S
H759 C768 0.930 . S
H760 C773 0.929 . S
H761 C771 0.929 . S
H762 C766 0.929 . S
H763 C772 0.929 . S
C764 H758 0.930 . S
C764 C765 1.367 1_556 S
C764 C772 1.378 . S
C765 C764 1.367 1_554 S
C765 C773 1.433 . S
C766 H762 0.929 . S
C766 C768 1.378 . S
C766 C770 1.350 . S
C767 C770 1.463 . S
C767 C772 1.350 1_554 S
C767 N775 1.427 . S
C768 H759 0.930 . S
C768 C766 1.378 . S
C768 C769 1.367 . S
C769 C768 1.367 . S
C769 C771 1.433 1_554 S
C770 C766 1.350 . S
C770 C767 1.463 . S
C770 N774 1.427 1_554 S
C771 H761 0.929 . S
C771 C769 1.433 1_556 S
C771 N774 1.384 . S
C772 H763 0.929 . S
C772 C764 1.378 . S
C772 C767 1.350 1_556 S
C773 H760 0.929 . S
C773 C765 1.433 . S
C773 N775 1.384 . S
N774 C770 1.427 1_556 S
N774 C771 1.384 . S
N775 C767 1.427 . S
N775 C773 1.384 . S
C351 C21 1.559 . S
C355 C201 1.490 . S
C369 C40 1.656 . S
C373 C117 1.518 . S
C391 C149 1.546 . S
C387 C54 1.536 . S
C405 C73 1.680 . S
C409 C169 1.686 . S
C427 C277 1.548 . S
C423 C74 1.540 . S
C445 C297 1.647 . S
C441 C10 1.650 . S
C463 C329 1.501 . S
C459 C37 1.564 . S
C481 C245 1.553 . S
C477 C65 1.685 . S
C495 C52 1.536 . S
C499 C137 1.539 . S
C513 C87 1.689 . S
C517 C181 1.696 . S
C531 C15 1.566 . S
C535 C213 1.483 . S
C553 C105 1.512 . S
C549 C32 1.638 . S
C567 C29 1.576 . S
C571 C341 1.482 . S
C589 C233 1.564 . S
C585 C59 1.679 . S
C607 C265 1.539 . S
C603 C84 1.530 . S
C621 C8 1.647 . S
C625 C309 1.648 . S
C643 C111 1.615 . S
C639 C7 1.759 . S
C661 C143 1.639 . S
C657 C30 1.625 . S
C675 C62 1.774 . S
C679 C175 1.773 . S
C693 C81 1.615 . S
C697 C207 1.540 . S
C715 C239 1.623 . S
C711 C76 1.774 . S
C729 C18 1.630 . S
C733 C271 1.639 . S
C747 C43 1.758 . S
C751 C303 1.759 . S
C765 C51 1.615 . S
C769 C335 1.540 . S
