# Generated by pormake.
# Topology nom, (4,4)-cn, num edge types: 1
# Building blocks:
#     Node 0, Type 0, BuildingBlock: AZAVOO_clean_linker_0, # of connection points: 4
#     Node 1, Type 0, BuildingBlock: AZAVOO_clean_linker_0, # of connection points: 4
#     Node 2, Type 0, BuildingBlock: AZAVOO_clean_linker_0, # of connection points: 4
#     Node 3, Type 0, BuildingBlock: AZAVOO_clean_linker_0, # of connection points: 4
#     Node 4, Type 0, BuildingBlock: AZAVOO_clean_linker_0, # of connection points: 4
#     Node 5, Type 0, BuildingBlock: AZAVOO_clean_linker_0, # of connection points: 4
#     Node 6, Type 1, BuildingBlock: CEKHIL_clean_sbu_0, # of connection points: 4
#     Node 7, Type 1, BuildingBlock: CEKHIL_clean_sbu_0, # of connection points: 4
#     Node 8, Type 1, BuildingBlock: CEKHIL_clean_sbu_0, # of connection points: 4
#     Node 9, Type 1, BuildingBlock: CEKHIL_clean_sbu_0, # of connection points: 4
#     Node 10, Type 1, BuildingBlock: CEKHIL_clean_sbu_0, # of connection points: 4
#     Node 11, Type 1, BuildingBlock: CEKHIL_clean_sbu_0, # of connection points: 4
#     Edge 12, Type (0, 1), BuildingBlock: XIVTED_clean_linker_0, # of connection points: 2
#     Edge 13, Type (0, 1), BuildingBlock: XIVTED_clean_linker_0, # of connection points: 2
#     Edge 14, Type (0, 1), BuildingBlock: XIVTED_clean_linker_0, # of connection points: 2
#     Edge 15, Type (0, 1), BuildingBlock: XIVTED_clean_linker_0, # of connection points: 2
#     Edge 16, Type (0, 1), BuildingBlock: XIVTED_clean_linker_0, # of connection points: 2
#     Edge 17, Type (0, 1), BuildingBlock: XIVTED_clean_linker_0, # of connection points: 2
#     Edge 18, Type (0, 1), BuildingBlock: XIVTED_clean_linker_0, # of connection points: 2
#     Edge 19, Type (0, 1), BuildingBlock: XIVTED_clean_linker_0, # of connection points: 2
#     Edge 20, Type (0, 1), BuildingBlock: XIVTED_clean_linker_0, # of connection points: 2
#     Edge 21, Type (0, 1), BuildingBlock: XIVTED_clean_linker_0, # of connection points: 2
#     Edge 22, Type (0, 1), BuildingBlock: XIVTED_clean_linker_0, # of connection points: 2
#     Edge 23, Type (0, 1), BuildingBlock: XIVTED_clean_linker_0, # of connection points: 2
#     Edge 24, Type (0, 1), BuildingBlock: XIVTED_clean_linker_0, # of connection points: 2
#     Edge 25, Type (0, 1), BuildingBlock: XIVTED_clean_linker_0, # of connection points: 2
#     Edge 26, Type (0, 1), BuildingBlock: XIVTED_clean_linker_0, # of connection points: 2
#     Edge 27, Type (0, 1), BuildingBlock: XIVTED_clean_linker_0, # of connection points: 2
#     Edge 28, Type (0, 1), BuildingBlock: XIVTED_clean_linker_0, # of connection points: 2
#     Edge 29, Type (0, 1), BuildingBlock: XIVTED_clean_linker_0, # of connection points: 2
#     Edge 30, Type (0, 1), BuildingBlock: XIVTED_clean_linker_0, # of connection points: 2
#     Edge 31, Type (0, 1), BuildingBlock: XIVTED_clean_linker_0, # of connection points: 2
#     Edge 32, Type (0, 1), BuildingBlock: XIVTED_clean_linker_0, # of connection points: 2
#     Edge 33, Type (0, 1), BuildingBlock: XIVTED_clean_linker_0, # of connection points: 2
#     Edge 34, Type (0, 1), BuildingBlock: XIVTED_clean_linker_0, # of connection points: 2
#     Edge 35, Type (0, 1), BuildingBlock: XIVTED_clean_linker_0, # of connection points: 2
# Relax obj value: 0.139
# Max RMSD: 0.225
# Mean RMSD: 0.146
data_MOF--net-nom--node1-CEKHIL_clean_sbu_0--node2-AZAVOO_clean_linker_0--edge1-XIVTED_clean_linker_0
_symmetry_space_group_name_H-M    P1
_symmetry_Int_Tables_number       1
_symmetry_cell_setting            triclinic
loop_
_symmetry_equiv_pos_as_xyz
'x, y, z'
_cell_length_a     49.221365
_cell_length_b     49.201509
_cell_length_c     59.928381
_cell_angle_alpha  90.053995
_cell_angle_beta   90.035886
_cell_angle_gamma 123.38242
loop_
_atom_site_label
_atom_site_type_symbol
_atom_site_fract_x
_atom_site_fract_y
_atom_site_fract_z
_atom_type_partial_charge
H0 H 0.06295 0.58562 0.16705 0.0
H1 H 0.22734 0.71345 0.39875 0.0
H2 H 0.98571 0.54258 0.29236 0.0
H3 H 0.94591 0.513 0.263 0.0
H4 H 0.95574 0.60223 0.24219 0.0
H5 H 0.99692 0.63186 0.27125 0.0
H6 H 0.05385 0.57251 0.26425 0.0
H7 H 0.05729 0.56948 0.22365 0.0
H8 H 0.06439 0.66074 0.21713 0.0
H9 H 0.06103 0.66344 0.25778 0.0
H10 H 0.1157 0.60317 0.29687 0.0
H11 H 0.17167 0.62885 0.2835 0.0
H12 H 0.17672 0.71832 0.27201 0.0
H13 H 0.12058 0.6921 0.2849 0.0
H14 H 0.09644 0.59304 0.34595 0.0
H15 H 0.14234 0.6111 0.37134 0.0
H16 H 0.17203 0.71095 0.36171 0.0
H17 H 0.12573 0.69244 0.33659 0.0
H18 H 0.03045 0.56615 0.36073 0.0
H19 H 0.0472 0.56778 0.39937 0.0
H20 H 0.08205 0.66972 0.40298 0.0
H21 H 0.0644 0.66752 0.36456 0.0
H22 H 0.97672 0.55952 0.3495 0.0
H23 H 0.92524 0.55025 0.36326 0.0
H24 H 0.94441 0.6352 0.32748 0.0
H25 H 0.99619 0.64504 0.31449 0.0
O26 O 0.06184 0.5874 0.18306 0.0
O27 O 0.06519 0.63425 0.18061 0.0
O28 O 0.19239 0.65386 0.39343 0.0
O29 O 0.20922 0.70567 0.38858 0.0
C30 C 0.02353 0.60732 0.29816 0.0
C31 C 0.05421 0.61939 0.28836 0.0
C32 C 0.08186 0.63158 0.30193 0.0
C33 C 0.07873 0.63019 0.32531 0.0
C34 C 0.04815 0.61864 0.33522 0.0
C35 C 0.02074 0.60859 0.32157 0.0
C36 C 0.99408 0.58927 0.28395 0.0
C37 C 0.97856 0.55554 0.28185 0.0
C38 C 0.9557 0.53867 0.265 0.0
C39 C 0.94761 0.55518 0.24998 0.0
C40 C 0.96176 0.58879 0.25313 0.0
C41 C 0.98497 0.60573 0.26991 0.0
C42 C 0.05717 0.61816 0.26383 0.0
C43 C 0.05627 0.59184 0.25399 0.0
C44 C 0.05818 0.59017 0.23081 0.0
C45 C 0.06106 0.61485 0.21713 0.0
C46 C 0.06216 0.64132 0.22717 0.0
C47 C 0.06028 0.64296 0.25035 0.0
C48 C 0.11431 0.64587 0.29179 0.0
C49 C 0.12886 0.62816 0.29114 0.0
C50 C 0.16084 0.64295 0.28368 0.0
C51 C 0.17872 0.6757 0.27684 0.0
C52 C 0.16353 0.69297 0.2769 0.0
C53 C 0.13155 0.67812 0.2843 0.0
C54 C 0.10777 0.64145 0.33956 0.0
C55 C 0.11297 0.6188 0.34932 0.0
C56 C 0.13917 0.62918 0.36381 0.0
C57 C 0.1608 0.66249 0.36862 0.0
C58 C 0.15581 0.68514 0.35842 0.0
C59 C 0.12948 0.67468 0.34401 0.0
C60 C 0.04592 0.61664 0.3599 0.0
C61 C 0.04003 0.58834 0.37028 0.0
C62 C 0.05025 0.5895 0.39222 0.0
C63 C 0.0666 0.61904 0.4041 0.0
C64 C 0.06941 0.64652 0.39438 0.0
C65 C 0.05909 0.64529 0.37244 0.0
C66 C 0.9903 0.60306 0.33109 0.0
C67 C 0.97017 0.57653 0.34507 0.0
C68 C 0.9408 0.57123 0.35285 0.0
C69 C 0.93097 0.59204 0.34638 0.0
C70 C 0.95137 0.61873 0.3326 0.0
C71 C 0.98087 0.62431 0.32518 0.0
C72 C 0.06284 0.61288 0.19251 0.0
C73 C 0.18838 0.67361 0.38428 0.0
H74 H 0.63599 0.13119 0.34187 0.0
H75 H 0.59179 0.22645 0.57216 0.0
H76 H 0.58917 0.02787 0.44663 0.0
H77 H 0.57744 0.98748 0.41785 0.0
H78 H 0.47757 0.96026 0.41546 0.0
H79 H 0.4894 -0.00028 0.44484 0.0
H80 H 0.62552 0.10943 0.43835 0.0
H81 H 0.63973 0.12334 0.39901 0.0
H82 H 0.53755 0.07341 0.38246 0.0
H83 H 0.52374 0.06007 0.42184 0.0
H84 H 0.63223 0.1563 0.4815 0.0
H85 H 0.64803 0.21222 0.47451 0.0
H86 H 0.55877 0.17527 0.43751 0.0
H87 H 0.54236 0.11986 0.44588 0.0
H88 H 0.61147 0.11408 0.5274 0.0
H89 H 0.62653 0.1562 0.55554 0.0
H90 H 0.55592 0.17306 0.52777 0.0
H91 H 0.54068 0.1305 0.5 0.0
H92 H 0.56879 0.03223 0.53011 0.0
H93 H 0.56956 0.03445 0.57077 0.0
H94 H 0.51202 0.07644 0.5687 0.0
H95 H 0.50883 0.07101 0.52831 0.0
H96 H 0.5478 0.98524 0.48904 0.0
H97 H 0.50743 0.92816 0.49879 0.0
H98 H 0.43503 0.95113 0.50764 0.0
H99 H 0.47535 0.00775 0.49814 0.0
O100 O 0.62986 0.12538 0.35732 0.0
O101 O 0.577 0.09912 0.3497 0.0
O102 O 0.62206 0.19986 0.575 0.0
O103 O 0.58641 0.20978 0.56116 0.0
C104 C 0.548 0.04268 0.46403 0.0
C105 C 0.56509 0.07542 0.45683 0.0
C106 C 0.57303 0.10045 0.47228 0.0
C107 C 0.56525 0.09289 0.49508 0.0
C108 C 0.54733 0.06002 0.50215 0.0
C109 C 0.53793 0.03489 0.48648 0.0
C110 C 0.54011 0.01662 0.44776 0.0
C111 C 0.56468 0.01278 0.44005 0.0
C112 C 0.55795 0.98985 0.4235 0.0
C113 C 0.52657 0.97061 0.4142 0.0
C114 C 0.50186 0.97413 0.42245 0.0
C115 C 0.50856 0.99683 0.43915 0.0
C116 C 0.57362 0.08346 0.4329 0.0
C117 C 0.60627 0.1015 0.42618 0.0
C118 C 0.6143 0.10939 0.40371 0.0
C119 C 0.58977 0.0994 0.38757 0.0
C120 C 0.55704 0.08138 0.39443 0.0
C121 C 0.54907 0.07358 0.41689 0.0
C122 C 0.58603 0.13403 0.46435 0.0
C123 C 0.61635 0.16042 0.47167 0.0
C124 C 0.62536 0.19233 0.46758 0.0
C125 C 0.60435 0.19825 0.45584 0.0
C126 C 0.5751 0.17163 0.44719 0.0
C127 C 0.56591 0.13988 0.4516 0.0
C128 C 0.57514 0.11938 0.51159 0.0
C129 C 0.59936 0.12697 0.5274 0.0
C130 C 0.60789 0.15102 0.54345 0.0
C131 C 0.59244 0.16804 0.54389 0.0
C132 C 0.56832 0.16047 0.5279 0.0
C133 C 0.55967 0.13628 0.51195 0.0
C134 C 0.53964 0.05245 0.52625 0.0
C135 C 0.55518 0.04057 0.53853 0.0
C136 C 0.55603 0.0424 0.56181 0.0
C137 C 0.54209 0.057 0.57314 0.0
C138 C 0.52325 0.06523 0.56079 0.0
C139 C 0.52161 0.06244 0.53756 0.0
C140 C 0.51449 0.00059 0.49306 0.0
C141 C 0.52322 0.97782 0.49316 0.0
C142 C 0.50013 0.94529 0.49859 0.0
C143 C 0.4681 0.93521 0.50409 0.0
C144 C 0.45961 0.95821 0.50388 0.0
C145 C 0.48258 0.99055 0.49843 0.0
C146 C 0.59835 0.10788 0.36372 0.0
C147 C 0.60129 0.19349 0.56098 0.0
H148 H 0.44397 0.43279 0.79161 0.0
H149 H 0.53084 0.37135 0.55218 0.0
H150 H 0.44199 0.50558 0.67713 0.0
H151 H 0.41879 0.51563 0.70961 0.0
H152 H 0.33577 0.41636 0.70706 0.0
H153 H 0.35813 0.40697 0.67344 0.0
H154 H 0.47532 0.47081 0.69804 0.0
H155 H 0.47109 0.46319 0.73853 0.0
H156 H 0.3817 0.3688 0.72977 0.0
H157 H 0.38628 0.37683 0.68928 0.0
H158 H 0.51369 0.4433 0.66097 0.0
H159 H 0.53454 0.41055 0.67319 0.0
H160 H 0.43625 0.32564 0.67658 0.0
H161 H 0.41565 0.35844 0.66389 0.0
H162 H 0.51985 0.47487 0.61747 0.0
H163 H 0.55156 0.46396 0.59197 0.0
H164 H 0.46981 0.36413 0.58556 0.0
H165 H 0.43816 0.3756 0.61078 0.0
H166 H 0.49198 0.51218 0.60894 0.0
H167 H 0.5188 0.5271 0.57243 0.0
H168 H 0.44428 0.43233 0.54693 0.0
H169 H 0.41781 0.41788 0.58328 0.0
H170 H 0.44678 0.5216 0.63845 0.0
H171 H 0.41949 0.54778 0.62586 0.0
H172 H 0.34339 0.45694 0.59611 0.0
H173 H 0.37002 0.43058 0.61028 0.0
O174 O 0.44554 0.43495 0.77553 0.0
O175 O 0.4 0.38634 0.77016 0.0
O176 O 0.55983 0.4281 0.56574 0.0
O177 O 0.51891 0.37627 0.56242 0.0
C178 C 0.4196 0.44737 0.65763 0.0
C179 C 0.43296 0.43048 0.66646 0.0
C180 C 0.45066 0.42248 0.6526 0.0
C181 C 0.45689 0.43331 0.63028 0.0
C182 C 0.44446 0.4512 0.62168 0.0
C183 C 0.42511 0.45753 0.63515 0.0
C184 C 0.40151 0.45572 0.67275 0.0
C185 C 0.41787 0.48662 0.68266 0.0
C186 C 0.40472 0.49223 0.70129 0.0
C187 C 0.37554 0.46674 0.71062 0.0
C188 C 0.35813 0.43638 0.69991 0.0
C189 C 0.37083 0.43107 0.68079 0.0
C190 C 0.43122 0.42428 0.6908 0.0
C191 C 0.45504 0.44837 0.70492 0.0
C192 C 0.45248 0.444 0.72803 0.0
C193 C 0.42602 0.4154 0.7374 0.0
C194 C 0.40241 0.39109 0.7231 0.0
C195 C 0.40502 0.39552 0.69998 0.0
C196 C 0.46318 0.40323 0.66153 0.0
C197 C 0.49669 0.41766 0.66442 0.0
C198 C 0.50852 0.39893 0.67134 0.0
C199 C 0.48698 0.36552 0.67576 0.0
C200 C 0.45336 0.35136 0.67349 0.0
C201 C 0.44158 0.37004 0.66626 0.0
C202 C 0.47666 0.42608 0.6158 0.0
C203 C 0.50883 0.45069 0.6105 0.0
C204 C 0.5269 0.44437 0.59596 0.0
C205 C 0.51317 0.41317 0.58666 0.0
C206 C 0.48108 0.38843 0.59238 0.0
C207 C 0.46298 0.39486 0.60682 0.0
C208 C 0.4531 0.46393 0.59867 0.0
C209 C 0.48069 0.49531 0.59513 0.0
C210 C 0.49616 0.50363 0.57438 0.0
C211 C 0.48393 0.48072 0.55694 0.0
C212 C 0.45422 0.45064 0.55995 0.0
C213 C 0.43894 0.4423 0.5807 0.0
C214 C 0.41004 0.47409 0.62566 0.0
C215 C 0.42408 0.50735 0.62937 0.0
C216 C 0.40857 0.52236 0.62184 0.0
C217 C 0.37898 0.50455 0.60994 0.0
C218 C 0.36567 0.47135 0.60559 0.0
C219 C 0.381 0.45627 0.61348 0.0
C220 C 0.42298 0.41121 0.76199 0.0
C221 C 0.53214 0.40643 0.57101 0.0
H222 H 0.07035 0.61089 0.96592 0.0
H223 H 0.20743 0.62056 0.73184 0.0
H224 H 0.988 0.57745 0.86048 0.0
H225 H 0.95214 0.55267 0.8927 0.0
H226 H 0.93267 0.45885 0.87343 0.0
H227 H 0.96952 0.48409 0.84174 0.0
H228 H 0.06746 0.6212 0.8688 0.0
H229 H 0.073 0.62675 0.90943 0.0
H230 H 0.02983 0.52314 0.91519 0.0
H231 H 0.02503 0.51806 0.87458 0.0
H232 H 0.12779 0.63875 0.83212 0.0
H233 H 0.18024 0.65049 0.84621 0.0
H234 H 0.13322 0.54991 0.86617 0.0
H235 H 0.08173 0.53843 0.85187 0.0
H236 H 0.09389 0.63233 0.78298 0.0
H237 H 0.13898 0.65401 0.75648 0.0
H238 H 0.1508 0.57554 0.77301 0.0
H239 H 0.10544 0.55395 0.79929 0.0
H240 H 0.02495 0.59235 0.76624 0.0
H241 H 0.04428 0.60133 0.72766 0.0
H242 H 0.06548 0.52748 0.73528 0.0
H243 H 0.04536 0.51816 0.77344 0.0
H244 H 0.95444 0.54897 0.81092 0.0
H245 H 0.89915 0.5075 0.79884 0.0
H246 H 0.93329 0.44852 0.77447 0.0
H247 H 0.98727 0.4884 0.78853 0.0
O248 O 0.0681 0.60818 0.94988 0.0
O249 O 0.04533 0.55473 0.95194 0.0
O250 O 0.183 0.65285 0.73478 0.0
O251 O 0.19018 0.61306 0.7427 0.0
C252 C 0.01054 0.54893 0.83408 0.0
C253 C 0.0418 0.56604 0.84407 0.0
C254 C 0.06981 0.57876 0.83072 0.0
C255 C 0.06694 0.57683 0.80732 0.0
C256 C 0.03578 0.55905 0.79726 0.0
C257 C 0.00747 0.54445 0.81062 0.0
C258 C 0.98157 0.53264 0.84888 0.0
C259 C 0.97509 0.55136 0.86281 0.0
C260 C 0.95459 0.53714 0.88123 0.0
C261 C 0.94008 0.5039 0.88588 0.0
C262 C 0.94407 0.48465 0.87056 0.0
C263 C 0.96472 0.49893 0.85224 0.0
C264 C 0.04542 0.56919 0.86877 0.0
C265 C 0.05927 0.59976 0.87888 0.0
C266 C 0.06235 0.60284 0.90208 0.0
C267 C 0.0517 0.57536 0.91557 0.0
C268 C 0.03815 0.54478 0.90532 0.0
C269 C 0.03522 0.54178 0.88213 0.0
C270 C 0.10097 0.58782 0.84122 0.0
C271 C 0.12891 0.6195 0.83986 0.0
C272 C 0.15872 0.6261 0.84782 0.0
C273 C 0.16066 0.60116 0.85746 0.0
C274 C 0.13236 0.56979 0.8593 0.0
C275 C 0.10291 0.56317 0.85113 0.0
C276 C 0.09652 0.59168 0.7931 0.0
C277 C 0.10651 0.62009 0.78103 0.0
C278 C 0.13218 0.63234 0.76586 0.0
C279 C 0.1484 0.61641 0.76255 0.0
C280 C 0.1388 0.58836 0.77511 0.0
C281 C 0.11306 0.57609 0.79025 0.0
C282 C 0.034 0.55481 0.77266 0.0
C283 C 0.03207 0.5769 0.75916 0.0
C284 C 0.04359 0.5823 0.73723 0.0
C285 C 0.05728 0.56575 0.72864 0.0
C286 C 0.05511 0.54063 0.74131 0.0
C287 C 0.04346 0.53515 0.76316 0.0
C288 C 0.97501 0.52187 0.80048 0.0
C289 C 0.94987 0.5271 0.80287 0.0
C290 C 0.91831 0.50343 0.79579 0.0
C291 C 0.9115 0.47434 0.78585 0.0
C292 C 0.93725 0.4701 0.78256 0.0
C293 C 0.96845 0.49331 0.79013 0.0
C294 C 0.05479 0.57866 0.94022 0.0
C295 C 0.17491 0.62867 0.74586 0.0
H296 H 0.54788 0.94621 0.83041 0.0
H297 H 0.58655 0.83913 0.05778 0.0
H298 H 0.56988 0.02602 0.93402 0.0
H299 H 0.57737 0.06583 0.90629 0.0
H300 H 0.68053 0.12362 0.92084 0.0
H301 H 0.673 0.08226 0.94718 0.0
H302 H 0.54745 0.95426 0.92777 0.0
H303 H 0.53785 0.94434 0.88765 0.0
H304 H 0.64109 0.00971 0.87568 0.0
H305 H 0.65038 0.01914 0.91588 0.0
H306 H 0.53985 0.91321 0.96824 0.0
H307 H 0.52399 0.85776 0.95955 0.0
H308 H 0.61876 0.89529 0.93084 0.0
H309 H 0.63465 0.95097 0.93987 0.0
H310 H 0.55369 0.94355 0.01567 0.0
H311 H 0.54032 0.89938 0.0415 0.0
H312 H 0.62349 0.89973 0.01781 0.0
H313 H 0.63692 0.94432 0.99234 0.0
H314 H 0.58007 0.01642 0.02316 0.0
H315 H 0.57621 0.00983 0.06357 0.0
H316 H 0.65745 -0.00129 0.06305 0.0
H317 H 0.66086 0.00507 0.02242 0.0
H318 H 0.59573 0.06661 0.98395 0.0
H319 H 0.62176 0.12267 0.99744 0.0
H320 H 0.70989 0.12606 0.01096 0.0
H321 H 0.68355 0.07005 0.99775 0.0
O322 O 0.55227 0.95028 0.84623 0.0
O323 O 0.60556 0.98404 0.84097 0.0
O324 O 0.54939 0.85807 0.05975 0.0
O325 O 0.59136 0.85667 0.04777 0.0
C326 C 0.61645 0.02502 0.95774 0.0
C327 C 0.60526 0.99376 0.94906 0.0
C328 C 0.59957 0.96859 0.96359 0.0
C329 C 0.6045 0.97433 0.98676 0.0
C330 C 0.61662 0.00572 0.99537 0.0
C331 C 0.62298 0.03114 0.98086 0.0
C332 C 0.62091 0.05105 0.94251 0.0
C333 C 0.5941 0.0473 0.93115 0.0
C334 C 0.59841 0.07035 0.91548 0.0
C335 C 0.62963 0.09801 0.9111 0.0
C336 C 0.65623 0.10233 0.92331 0.0
C337 C 0.65196 0.07891 0.93864 0.0
C338 C 0.59961 0.98735 0.92472 0.0
C339 C 0.56797 0.96622 0.91646 0.0
C340 C 0.56255 0.9607 0.89353 0.0
C341 C 0.5887 0.97625 0.87845 0.0
C342 C 0.62041 0.99735 0.88683 0.0
C343 C 0.62579 0.0028 0.90977 0.0
C344 C 0.58841 0.93593 0.95481 0.0
C345 C 0.55701 0.90947 0.95981 0.0
C346 C 0.54814 0.87791 0.95502 0.0
C347 C 0.57044 0.87237 0.94493 0.0
C348 C 0.60124 0.89902 0.9387 0.0
C349 C 0.61025 0.93069 0.94373 0.0
C350 C 0.5963 0.94716 0.00219 0.0
C351 C 0.56905 0.93413 0.01616 0.0
C352 C 0.56144 0.90887 0.03085 0.0
C353 C 0.58085 0.89602 0.03172 0.0
C354 C 0.60804 0.90905 0.01758 0.0
C355 C 0.61574 0.93446 0.00298 0.0
C356 C 0.62052 0.01091 0.01988 0.0
C357 C 0.5978 0.01379 0.03186 0.0
C358 C 0.59566 0.00999 0.055 0.0
C359 C 0.61625 0.00326 0.06652 0.0
C360 C 0.6409 0.00331 0.05462 0.0
C361 C 0.64306 0.0072 0.03146 0.0
C362 C 0.63784 0.06443 0.98985 0.0
C363 C 0.6206 0.07952 0.98992 0.0
C364 C 0.63555 0.11151 0.99752 0.0
C365 C 0.66791 0.1288 0.00521 0.0
C366 C 0.68483 0.11328 0.00543 0.0
C367 C 0.66989 0.08137 0.99783 0.0
C368 C 0.58283 0.97051 0.85409 0.0
C369 C 0.57282 0.86913 0.04728 0.0
H370 H 0.43317 0.39942 0.01529 0.0
H371 H 0.61756 0.42896 0.22404 0.0
H372 H 0.42419 0.46777 0.12327 0.0
H373 H 0.40032 0.48247 0.09365 0.0
H374 H 0.49149 0.57604 0.08744 0.0
H375 H 0.5144 0.56147 0.11746 0.0
H376 H 0.45171 0.41987 0.11177 0.0
H377 H 0.43733 0.40178 0.07299 0.0
H378 H 0.50638 0.50019 0.0506 0.0
H379 H 0.52091 0.5178 0.08939 0.0
H380 H 0.50221 0.41038 0.14339 0.0
H381 H 0.5384 0.39421 0.12973 0.0
H382 H 0.59824 0.48785 0.09755 0.0
H383 H 0.56218 0.50342 0.11101 0.0
H384 H 0.48953 0.43409 0.19487 0.0
H385 H 0.51335 0.41176 0.21841 0.0
H386 H 0.60571 0.47333 0.18505 0.0
H387 H 0.58173 0.49582 0.1619 0.0
H388 H 0.47044 0.491 0.20565 0.0
H389 H 0.48313 0.49934 0.24549 0.0
H390 H 0.5848 0.54188 0.2302 0.0
H391 H 0.57207 0.53577 0.19063 0.0
H392 H 0.44462 0.51861 0.16348 0.0
H393 H 0.44501 0.56695 0.17294 0.0
H394 H 0.54928 0.62041 0.18316 0.0
H395 H 0.54888 0.57313 0.17112 0.0
O396 O 0.43929 0.40706 0.0305 0.0
O397 O 0.47469 0.45817 0.01989 0.0
O398 O 0.55966 0.40664 0.23184 0.0
O399 O 0.60755 0.43746 0.21501 0.0
C400 C 0.48738 0.50211 0.13645 0.0
C401 C 0.49533 0.48099 0.12701 0.0
C402 C 0.51263 0.47124 0.13968 0.0
C403 C 0.51902 0.47976 0.16245 0.0
C404 C 0.51187 0.50159 0.17173 0.0
C405 C 0.4975 0.51409 0.15839 0.0
C406 C 0.471 0.51355 0.12233 0.0
C407 C 0.43851 0.49182 0.11593 0.0
C408 C 0.42506 0.50017 0.09891 0.0
C409 C 0.44409 0.53025 0.08791 0.0
C410 C 0.47589 0.55284 0.09566 0.0
C411 C 0.48918 0.54457 0.11278 0.0
C412 C 0.487 0.4702 0.10339 0.0
C413 C 0.4637 0.43745 0.09845 0.0
C414 C 0.45552 0.42721 0.07629 0.0
C415 C 0.47058 0.44958 0.05869 0.0
C416 C 0.49419 0.48236 0.06374 0.0
C417 C 0.50242 0.49252 0.08589 0.0
C418 C 0.52964 0.45805 0.12818 0.0
C419 C 0.52268 0.42693 0.1329 0.0
C420 C 0.54349 0.41789 0.12523 0.0
C421 C 0.57133 0.43983 0.11267 0.0
C422 C 0.57683 0.47014 0.10686 0.0
C423 C 0.55622 0.47913 0.11457 0.0
C424 C 0.5338 0.46631 0.17655 0.0
C425 C 0.51489 0.4427 0.19268 0.0
C426 C 0.52856 0.42999 0.20609 0.0
C427 C 0.56143 0.44069 0.20356 0.0
C428 C 0.58032 0.46448 0.1874 0.0
C429 C 0.56666 0.47728 0.17408 0.0
C430 C 0.52021 0.5118 0.19536 0.0
C431 C 0.49554 0.50297 0.21098 0.0
C432 C 0.50285 0.50755 0.23373 0.0
C433 C 0.53489 0.52047 0.24119 0.0
C434 C 0.55988 0.53194 0.22526 0.0
C435 C 0.5526 0.52797 0.20256 0.0
C436 C 0.49671 0.54225 0.16648 0.0
C437 C 0.46754 0.54089 0.16759 0.0
C438 C 0.46784 0.56859 0.17335 0.0
C439 C 0.49726 0.59804 0.17883 0.0
C440 C 0.52622 0.59873 0.17852 0.0
C441 C 0.52599 0.57138 0.17205 0.0
C442 C 0.46174 0.43866 0.03518 0.0
C443 C 0.57603 0.42717 0.21769 0.0
Co444 Co 0.6553 0.46254 0.40578 0.0
O445 O 0.68792 0.47146 0.3842 0.0
O446 O 0.69058 0.50804 0.40736 0.0
C447 C 0.64998 0.41709 0.41928 0.0
O448 O 0.62614 0.46172 0.43033 0.0
Co449 Co 0.58654 0.39766 0.4021 0.0
O450 O 0.57842 0.41285 0.43029 0.0
C451 C 0.60387 0.45359 0.37293 0.0
C452 C 0.70411 0.50106 0.3917 0.0
C453 C 0.59746 0.44141 0.43816 0.0
O454 O 0.63134 0.47189 0.38296 0.0
O455 O 0.58432 0.42319 0.37704 0.0
O456 O 0.67324 0.44546 0.42646 0.0
O457 O 0.63277 0.41729 0.40315 0.0
Co458 Co 0.25706 0.65877 0.5644 0.0
O459 O 0.2866 0.65442 0.58252 0.0
O460 O 0.24873 0.61544 0.56089 0.0
C461 C 0.29583 0.7079 0.55051 0.0
O462 O 0.22335 0.65554 0.54256 0.0
Co463 Co 0.24896 0.71655 0.57304 0.0
O464 O 0.22336 0.70125 0.54509 0.0
C465 C 0.21882 0.66015 0.6036 0.0
C466 C 0.27313 0.6253 0.57448 0.0
C467 C 0.21368 0.67388 0.53604 0.0
O468 O 0.22512 0.64391 0.59006 0.0
O469 O 0.22924 0.69015 0.60071 0.0
O470 O 0.29101 0.68151 0.54158 0.0
O471 O 0.27899 0.70369 0.56813 0.0
Co472 Co 0.63668 0.24892 0.73537 0.0
O473 O 0.62622 0.26707 0.71119 0.0
O474 O 0.59272 0.23858 0.73888 0.0
C475 C 0.68573 0.29434 0.74253 0.0
O476 O 0.64024 0.22773 0.76369 0.0
Co477 Co 0.69635 0.24311 0.7313 0.0
O478 O 0.69016 0.23642 0.76389 0.0
C479 C 0.63553 0.19677 0.70713 0.0
C480 C 0.59828 0.25537 0.7207 0.0
C481 C 0.66338 0.22736 0.77352 0.0
O482 O 0.62067 0.20806 0.71727 0.0
O483 O 0.66604 0.20896 0.70936 0.0
O484 O 0.65958 0.291 0.75058 0.0
O485 O 0.68116 0.27175 0.729 0.0
Co486 Co 0.40091 0.59549 0.89516 0.0
O487 O 0.38441 0.61452 0.876 0.0
O488 O 0.35497 0.57436 0.89996 0.0
C489 C 0.44399 0.64286 0.90715 0.0
O490 O 0.409 0.57097 0.91861 0.0
Co491 Co 0.46678 0.60379 0.88867 0.0
O492 O 0.46299 0.59658 0.9214 0.0
C493 C 0.41157 0.55781 0.85997 0.0
C494 C 0.35643 0.59462 0.88533 0.0
C495 C 0.43467 0.57921 0.9298 0.0
O496 O 0.39292 0.56336 0.87122 0.0
O497 O 0.44208 0.5721 0.8638 0.0
O498 O 0.41559 0.63055 0.91621 0.0
O499 O 0.44539 0.6274 0.89012 0.0
Co500 Co 0.79592 0.40902 0.07183 0.0
O501 O 0.76044 0.39719 0.09162 0.0
O502 O 0.78294 0.43931 0.06853 0.0
C503 C 0.77514 0.35867 0.05842 0.0
O504 O 0.83113 0.4275 0.048 0.0
Co505 Co 0.83884 0.38182 0.07825 0.0
O506 O 0.85373 0.39839 0.0475 0.0
C507 C 0.84364 0.43 0.10992 0.0
C508 C 0.76058 0.42155 0.08321 0.0
C509 C 0.84913 0.41918 0.03879 0.0
O510 O 0.82782 0.43637 0.09615 0.0
O511 O 0.848 0.40691 0.10685 0.0
O512 O 0.76599 0.37688 0.05033 0.0
O513 O 0.79441 0.37033 0.07549 0.0
Co514 Co 0.46804 0.82009 0.22843 0.0
O515 O 0.46189 0.79169 0.20428 0.0
O516 O 0.49933 0.80797 0.23067 0.0
C517 C 0.4149 0.79325 0.23705 0.0
O518 O 0.47999 0.8475 0.25678 0.0
Co519 Co 0.43737 0.86059 0.22779 0.0
O520 O 0.4429 0.8603 0.26051 0.0
C521 C 0.49707 0.88272 0.20167 0.0
C522 C 0.48481 0.78984 0.21322 0.0
C523 C 0.46501 0.85723 0.26856 0.0
O524 O 0.49876 0.85945 0.20976 0.0
O525 O 0.47378 0.88636 0.20601 0.0
O526 O 0.43271 0.78328 0.24456 0.0
O527 O 0.42909 0.81765 0.22346 0.0
H528 H 0.22532 0.66993 0.29683 0.0
H529 H 0.37081 0.80581 0.22119 0.0
H530 H 0.21157 0.71972 0.24314 0.0
H531 H 0.3807 0.74417 0.26706 0.0
H532 H 0.31307 0.7771 0.2307 0.0
H533 H 0.28291 0.69883 0.28739 0.0
C534 C 0.23432 0.68668 0.28289 0.0
C535 C 0.21352 0.6923 0.2707 0.0
C536 C 0.32789 0.76988 0.23869 0.0
C537 C 0.27964 0.726 0.2601 0.0
C538 C 0.36084 0.78632 0.23333 0.0
C539 C 0.38047 0.77726 0.24333 0.0
C540 C 0.31459 0.74434 0.25423 0.0
C541 C 0.36638 0.75186 0.25893 0.0
C542 C 0.26728 0.70336 0.27762 0.0
C543 C 0.22677 0.71488 0.25315 0.0
N544 N 0.33427 0.73628 0.26391 0.0
N545 N 0.25901 0.73094 0.24839 0.0
H546 H 0.56188 0.21752 0.45836 0.0
H547 H 0.69283 0.4069 0.44057 0.0
H548 H 0.66378 0.25559 0.44867 0.0
H549 H 0.59317 0.35769 0.41837 0.0
H550 H 0.68262 0.35412 0.45232 0.0
H551 H 0.5734 0.27184 0.45238 0.0
C552 C 0.58668 0.23722 0.45483 0.0
C553 C 0.61178 0.23174 0.45348 0.0
C554 C 0.66304 0.35509 0.44502 0.0
C555 C 0.62517 0.29424 0.44732 0.0
C556 C 0.66875 0.38507 0.43846 0.0
C557 C 0.64381 0.38646 0.42839 0.0
C558 C 0.63203 0.32668 0.44189 0.0
C559 C 0.6131 0.35759 0.4259 0.0
C560 C 0.59322 0.26826 0.45161 0.0
C561 C 0.64365 0.25862 0.4498 0.0
N562 N 0.60805 0.32886 0.43264 0.0
N563 N 0.64945 0.28878 0.44674 0.0
H564 H 0.31282 0.47791 0.60696 0.0
H565 H 0.33268 0.64753 0.59189 0.0
H566 H 0.40591 0.56777 0.59611 0.0
H567 H 0.24613 0.55947 0.56807 0.0
H568 H 0.35758 0.61719 0.59891 0.0
H569 H 0.28585 0.50573 0.59692 0.0
C570 C 0.32769 0.50331 0.60226 0.0
C571 C 0.3619 0.52047 0.60264 0.0
C572 C 0.33315 0.60445 0.59213 0.0
C573 C 0.33093 0.55252 0.59178 0.0
C574 C 0.31877 0.62169 0.58826 0.0
C575 C 0.2872 0.60599 0.5794 0.0
C576 C 0.31576 0.57102 0.58752 0.0
C577 C 0.27052 0.57249 0.5749 0.0
C578 C 0.31217 0.51916 0.59665 0.0
C579 C 0.37961 0.55357 0.59672 0.0
N580 N 0.28493 0.55598 0.57917 0.0
N581 N 0.36395 0.56851 0.59179 0.0
H582 H 0.88351 0.40836 0.78823 0.0
H583 H 0.7034 0.35308 0.76021 0.0
H584 H 0.8616 0.47938 0.77017 0.0
H585 H 0.74245 0.29708 0.73971 0.0
H586 H 0.7585 0.39796 0.77084 0.0
H587 H 0.82868 0.36514 0.77731 0.0
C588 C 0.86743 0.41504 0.78176 0.0
C589 C 0.87764 0.44783 0.77979 0.0
C590 C 0.75485 0.3758 0.76398 0.0
C591 C 0.81423 0.39806 0.76811 0.0
C592 C 0.72354 0.35022 0.75804 0.0
C593 C 0.71849 0.32141 0.74911 0.0
C594 C 0.78094 0.37207 0.76145 0.0
C595 C 0.74533 0.31891 0.7465 0.0
C596 C 0.83601 0.39023 0.77571 0.0
C597 C 0.85492 0.45458 0.77215 0.0
N598 N 0.77541 0.34383 0.75285 0.0
N599 N 0.82417 0.42986 0.76666 0.0
H600 H 0.54372 0.82336 0.9753 0.0
H601 H 0.49857 0.68718 0.88374 0.0
H602 H 0.57705 0.84502 0.90714 0.0
H603 H 0.45276 0.66971 0.94814 0.0
H604 H 0.53881 0.74361 0.89501 0.0
H605 H 0.5219 0.76601 0.96842 0.0
C606 C 0.5466 0.81596 0.9589 0.0
C607 C 0.56141 0.83865 0.94158 0.0
C608 C 0.52029 0.7272 0.90679 0.0
C609 C 0.53651 0.77317 0.93355 0.0
C610 C 0.49748 0.69505 0.90041 0.0
C611 C 0.47204 0.6742 0.9149 0.0
C612 C 0.51755 0.73817 0.92781 0.0
C613 C 0.47166 0.68534 0.93633 0.0
C614 C 0.53429 0.78329 0.955 0.0
C615 C 0.56542 0.82809 0.92084 0.0
N616 N 0.49384 0.7167 0.94205 0.0
N617 N 0.55248 0.79591 0.91725 0.0
H618 H 0.59344 0.41098 0.13955 0.0
H619 H 0.74523 0.46033 0.06156 0.0
H620 H 0.60737 0.45419 0.07439 0.0
H621 H 0.71586 0.39328 0.11662 0.0
H622 H 0.6977 0.46301 0.0682 0.0
H623 H 0.63995 0.40684 0.13282 0.0
C624 C 0.60586 0.41904 0.12366 0.0
C625 C 0.5965 0.43303 0.10753 0.0
C626 C 0.70174 0.44779 0.07885 0.0
C627 C 0.65039 0.42931 0.10004 0.0
C628 C 0.729 0.4465 0.07521 0.0
C629 C 0.7344 0.42652 0.08854 0.0
C630 C 0.67997 0.4292 0.09607 0.0
C631 C 0.71252 0.40893 0.1059 0.0
C632 C 0.63265 0.41699 0.11993 0.0
C633 C 0.61403 0.4437 0.08744 0.0
N634 N 0.68623 0.41066 0.10917 0.0
N635 N 0.64029 0.44187 0.08434 0.0
H636 H 0.4564 0.87893 0.48471 0.0
H637 H 0.30607 0.76487 0.56546 0.0
H638 H 0.42367 0.91362 0.53775 0.0
H639 H 0.34028 0.72598 0.51655 0.0
H640 H 0.34782 0.81958 0.55364 0.0
H641 H 0.41376 0.82279 0.49485 0.0
C642 C 0.4404 0.87473 0.49856 0.0
C643 C 0.44345 0.90099 0.51032 0.0
C644 C 0.34629 0.79919 0.54539 0.0
C645 C 0.39457 0.83709 0.52178 0.0
C646 C 0.32232 0.76785 0.55211 0.0
C647 C 0.31977 0.74083 0.54202 0.0
C648 C 0.3681 0.80375 0.52845 0.0
C649 C 0.34146 0.74621 0.52476 0.0
C650 C 0.41598 0.84274 0.50423 0.0
C651 C 0.42188 0.89419 0.52795 0.0
N652 N 0.36489 0.77715 0.51855 0.0
N653 N 0.39841 0.86299 0.53309 0.0
H654 H 0.46626 0.3199 0.7091 0.0
H655 H 0.60034 0.2811 0.68022 0.0
H656 H 0.53645 0.36494 0.65592 0.0
H657 H 0.54582 0.25024 0.7417 0.0
H658 H 0.56983 0.30404 0.6682 0.0
H659 H 0.48879 0.28755 0.7188 0.0
C660 C 0.48628 0.32282 0.69941 0.0
C661 C 0.49974 0.34533 0.68181 0.0
C662 C 0.56428 0.29206 0.68426 0.0
C663 C 0.52534 0.30838 0.69266 0.0
C664 C 0.58162 0.2788 0.69112 0.0
C665 C 0.57586 0.26406 0.71212 0.0
C666 C 0.54101 0.29079 0.69853 0.0
C667 C 0.55107 0.2615 0.7254 0.0
C668 C 0.49914 0.30445 0.70498 0.0
C669 C 0.5257 0.34828 0.66984 0.0
N670 N 0.53473 0.2751 0.71848 0.0
N671 N 0.53761 0.33006 0.67548 0.0
H672 H 0.17466 0.58045 0.89536 0.0
H673 H 0.35133 0.63212 0.85415 0.0
H674 H 0.21796 0.6332 0.83427 0.0
H675 H 0.2979 0.5628 0.90674 0.0
H676 H 0.30564 0.63819 0.84886 0.0
H677 H 0.22355 0.58067 0.90274 0.0
C678 C 0.19467 0.59241 0.88363 0.0
C679 C 0.19219 0.60651 0.86406 0.0
C680 C 0.30394 0.62162 0.86152 0.0
C681 C 0.24804 0.60668 0.8723 0.0
C682 C 0.32992 0.61805 0.86449 0.0
C683 C 0.32829 0.59681 0.88084 0.0
C684 C 0.27632 0.60402 0.87512 0.0
C685 C 0.30008 0.5793 0.89385 0.0
C686 C 0.22249 0.59244 0.88781 0.0
C687 C 0.21897 0.62216 0.8496 0.0
N688 N 0.27523 0.58336 0.89074 0.0
N689 N 0.24574 0.62155 0.8539 0.0
H690 H 0.66483 0.17747 0.98598 0.0
H691 H 0.78582 0.31313 0.07421 0.0
H692 H 0.70857 0.15832 0.04103 0.0
H693 H 0.7351 0.32945 0.02264 0.0
H694 H 0.76079 0.25728 0.06075 0.0
H695 H 0.69266 0.2341 -0.00194 0.0
C696 C 0.6801 0.18513 0.00071 0.0
C697 C 0.68429 0.16311 0.01256 0.0
C698 C 0.75524 0.27313 0.05234 0.0
C699 C 0.71664 0.22801 0.02629 0.0
C700 C 0.76959 0.30501 0.05997 0.0
C701 C 0.76234 0.32581 0.04959 0.0
C702 C 0.73357 0.26209 0.0342 0.0
C703 C 0.74122 0.31413 0.03119 0.0
C704 C 0.69618 0.21752 0.0075 0.0
C705 C 0.70491 0.17454 0.03127 0.0
N706 N 0.72748 0.283 0.02413 0.0
N707 N 0.72029 0.20621 0.03757 0.0
H708 H 0.54656 0.66244 0.17135 0.0
H709 H 0.44256 0.73511 0.1901 0.0
H710 H 0.44944 0.60283 0.19872 0.0
H711 H 0.53792 0.78591 0.22039 0.0
H712 H 0.44723 0.68917 0.18214 0.0
H713 H 0.54635 0.71087 0.17991 0.0
C714 C 0.5253 0.65927 0.17935 0.0
C715 C 0.49789 0.62803 0.18426 0.0
C716 C 0.46721 0.71055 0.19033 0.0
C717 C 0.49734 0.6836 0.19303 0.0
C718 C 0.46477 0.73688 0.19472 0.0
C719 C 0.48994 0.76436 0.20595 0.0
C720 C 0.49532 0.71199 0.19667 0.0
C721 C 0.51799 0.76512 0.21173 0.0
C722 C 0.52527 0.68705 0.18404 0.0
C723 C 0.47085 0.62601 0.19403 0.0
N724 N 0.52007 0.73925 0.2069 0.0
N725 N 0.47111 0.65336 0.1978 0.0
H726 H 0.8844 0.58774 0.31924 0.0
H727 H 0.75631 0.54622 0.41658 0.0
H728 H 0.90445 0.58038 0.38824 0.0
H729 H 0.7283 0.50653 0.35013 0.0
H730 H 0.81383 0.57466 0.40546 0.0
H731 H 0.82981 0.57306 0.32982 0.0
C732 C 0.87739 0.58342 0.33665 0.0
C733 C 0.89873 0.58501 0.35291 0.0
C734 C 0.79498 0.56022 0.39326 0.0
C735 C 0.83675 0.56868 0.36509 0.0
C736 C 0.76229 0.54433 0.39949 0.0
C737 C 0.73775 0.52401 0.38421 0.0
C738 C 0.80286 0.55617 0.37152 0.0
C739 C 0.74663 0.5219 0.36238 0.0
C740 C 0.84632 0.57502 0.34265 0.0
C741 C 0.88848 0.57903 0.37522 0.0
N742 N 0.77851 0.5377 0.35668 0.0
N743 N 0.85813 0.5711 0.3807 0.0
H744 H 0.10209 0.59298 0.41409 0.0
H745 H 0.17742 0.69831 0.52488 0.0
H746 H 0.07211 0.65344 0.44192 0.0
H747 H 0.19465 0.62453 0.50533 0.0
H748 H 0.13897 0.68185 0.49435 0.0
H749 H 0.13542 0.60317 0.44721 0.0
C750 C 0.10197 0.60788 0.42735 0.0
C751 C 0.08411 0.6223 0.42521 0.0
C752 C 0.15099 0.6691 0.49672 0.0
C753 C 0.12296 0.63469 0.46297 0.0
C754 C 0.17317 0.6786 0.51415 0.0
C755 C 0.18959 0.66295 0.51766 0.0
C756 C 0.14519 0.64388 0.48239 0.0
C757 C 0.18263 0.63733 0.50325 0.0
C758 C 0.12125 0.61389 0.44619 0.0
C759 C 0.08567 0.64207 0.44271 0.0
N760 N 0.16112 0.62874 0.48613 0.0
N761 N 0.10488 0.64781 0.46075 0.0
H762 H 0.60015 0.07819 0.59391 0.0
H763 H 0.57255 0.16824 0.69186 0.0
H764 H 0.50629 0.0633 0.60614 0.0
H765 H 0.65662 0.16226 0.68627 0.0
H766 H 0.54578 0.12696 0.66245 0.0
H767 H 0.61882 0.10501 0.62963 0.0
C768 C 0.58302 0.07971 0.60426 0.0
C769 C 0.55146 0.06838 0.59667 0.0
C770 C 0.56991 0.13443 0.66791 0.0
C771 C 0.5736 0.10083 0.6377 0.0
C772 C 0.58524 0.15802 0.68469 0.0
C773 C 0.61715 0.16921 0.69133 0.0
C774 C 0.5867 0.12213 0.65768 0.0
C775 C 0.63227 0.1549 0.6815 0.0
C776 C 0.59397 0.09552 0.62471 0.0
C777 C 0.53104 0.07221 0.61092 0.0
N778 N 0.61707 0.13245 0.66507 0.0
N779 N 0.54263 0.08857 0.63059 0.0
H780 H 0.35996 0.50892 0.72559 0.0
H781 H 0.43083 0.51991 0.84207 0.0
H782 H 0.37503 0.4347 0.74733 0.0
H783 H 0.36091 0.5461 0.83376 0.0
H784 H 0.41168 0.48907 0.80711 0.0
H785 H 0.35989 0.52365 0.76475 0.0
C786 C 0.36225 0.49516 0.73871 0.0
C787 C 0.36729 0.47053 0.73347 0.0
C788 C 0.40015 0.50107 0.81319 0.0
C789 C 0.36855 0.48788 0.77782 0.0
C790 C 0.41119 0.5188 0.83302 0.0
C791 C 0.39758 0.53572 0.84065 0.0
C792 C 0.37607 0.50113 0.80067 0.0
C793 C 0.37204 0.53337 0.8284 0.0
C794 C 0.36227 0.50353 0.76095 0.0
C795 C 0.37074 0.45363 0.75087 0.0
N796 N 0.36256 0.51698 0.8087 0.0
N797 N 0.37208 0.46313 0.77234 0.0
H798 H 0.89887 0.51478 0.9095 0.0
H799 H 0.88972 0.40896 0.01428 0.0
H800 H 0.94668 0.46307 0.91268 0.0
H801 H 0.84194 0.46084 0.01274 0.0
H802 H 0.91084 0.42905 0.977 0.0
H803 H 0.87728 0.49524 0.94709 0.0
C804 C 0.90467 0.49919 0.91804 0.0
C805 C 0.92439 0.49033 0.90782 0.0
C806 C 0.89582 0.43615 0.98482 0.0
C807 C 0.89995 0.46805 0.95082 0.0
C808 C 0.88379 0.42474 0.00619 0.0
C809 C 0.86397 0.43317 0.01676 0.0
C810 C 0.888 0.45615 0.97378 0.0
C811 C 0.85716 0.45371 0.00531 0.0
C812 C 0.89235 0.48804 0.93948 0.0
C813 C 0.93103 0.46999 0.91965 0.0
N814 N 0.86908 0.46442 0.98442 0.0
N815 N 0.91892 0.45964 0.94048 0.0
H816 H 0.61713 0.95316 0.08549 0.0
H817 H 0.51083 0.94225 0.18857 0.0
H818 H 0.59773 0.02665 0.10096 0.0
H819 H 0.54095 0.87567 0.17842 0.0
H820 H 0.54786 0.97685 0.1591 0.0
H821 H 0.59568 0.92847 0.12187 0.0
C822 C 0.60914 0.96464 0.09675 0.0
C823 C 0.60897 0.99191 0.09003 0.0
C824 C 0.54669 0.95488 0.16346 0.0
C825 C 0.58346 0.96309 0.13155 0.0
C826 C 0.52543 0.93501 0.18026 0.0
C827 C 0.52235 0.9057 0.18575 0.0
C828 C 0.56477 0.94524 0.15179 0.0
C829 C 0.54232 0.8979 0.17463 0.0
C830 C 0.5966 0.95031 0.11749 0.0
C831 C 0.59774 0.00529 0.10525 0.0
N832 N 0.56233 0.91731 0.15795 0.0
N833 N 0.58504 0.9905 0.12515 0.0
H834 H 0.49541 0.4711 0.27003 0.0
H835 H 0.6397 0.51424 0.35328 0.0
H836 H 0.5898 0.56153 0.26644 0.0
H837 H 0.54331 0.42621 0.35517 0.0
H838 H 0.6207 0.53601 0.32487 0.0
H839 H 0.51051 0.45955 0.30541 0.0
C840 C 0.51907 0.48905 0.27687 0.0
C841 C 0.54153 0.51716 0.26488 0.0
C842 C 0.60374 0.51205 0.33169 0.0
C843 C 0.5596 0.50314 0.30528 0.0
C844 C 0.61459 0.49957 0.34782 0.0
C845 C 0.59326 0.4681 0.35633 0.0
C846 C 0.57137 0.49293 0.32417 0.0
C847 C 0.56088 0.45031 0.34883 0.0
C848 C 0.52789 0.48215 0.29707 0.0
C849 C 0.57201 0.53908 0.27473 0.0
N850 N 0.55106 0.4629 0.33314 0.0
N851 N 0.58041 0.53132 0.29417 0.0
H852 H 0.56708 0.97993 0.37926 0.0
H853 H 0.42563 0.84985 0.30285 0.0
H854 H 0.47094 0.91084 0.40513 0.0
H855 H 0.52582 0.88713 0.28736 0.0
H856 H 0.44189 0.872 0.34052 0.0
H857 H 0.55346 0.94644 0.34585 0.0
C858 C 0.54332 0.95745 0.37819 0.0
C859 C 0.51998 0.94851 0.39503 0.0
C860 C 0.46031 0.87498 0.32902 0.0
C861 C 0.50407 0.91052 0.35645 0.0
C862 C 0.45107 0.86248 0.30751 0.0
C863 C 0.4745 0.86701 0.29199 0.0
C864 C 0.49336 0.89284 0.33492 0.0
C865 C 0.50706 0.88322 0.29888 0.0
C866 C 0.53555 0.9384 0.35901 0.0
C867 C 0.48944 0.91926 0.39238 0.0
N868 N 0.51567 0.89615 0.31978 0.0
N869 N 0.48221 0.9016 0.37331 0.0
H870 H 0.46455 0.46617 0.51332 0.0
H871 H 0.63004 0.49073 0.46932 0.0
H872 H 0.54908 0.50511 0.55568 0.0
H873 H 0.53385 0.41769 0.44536 0.0
H874 H 0.60518 0.50823 0.49669 0.0
H875 H 0.49519 0.46226 0.48284 0.0
C876 C 0.48973 0.47446 0.51608 0.0
C877 C 0.50412 0.48555 0.53713 0.0
C878 C 0.58973 0.48846 0.48532 0.0
C879 C 0.53921 0.48098 0.50245 0.0
C880 C 0.60383 0.47842 0.46982 0.0
C881 C 0.58396 0.45238 0.45531 0.0
C882 C 0.55574 0.47283 0.48577 0.0
C883 C 0.55014 0.43746 0.45647 0.0
C884 C 0.50716 0.47215 0.49873 0.0
C885 C 0.53706 0.4965 0.53968 0.0
N886 N 0.53717 0.44795 0.47135 0.0
N887 N 0.55343 0.49353 0.5226 0.0
H888 H 0.10151 0.62913 0.71823 0.0
H889 H 0.17405 0.59437 0.61046 0.0
H890 H 0.06371 0.53164 0.69459 0.0
H891 H 0.21338 0.68871 0.6406 0.0
H892 H 0.13351 0.56978 0.6406 0.0
H893 H 0.14139 0.65053 0.68852 0.0
C894 C 0.10111 0.61217 0.70648 0.0
C895 C 0.07885 0.57851 0.70878 0.0
C896 C 0.15121 0.59582 0.64061 0.0
C897 C 0.1255 0.60299 0.6748 0.0
C898 C 0.17446 0.60982 0.62352 0.0
C899 C 0.19694 0.64369 0.62287 0.0
C900 C 0.15062 0.61592 0.65705 0.0
C901 C 0.19629 0.66256 0.64018 0.0
C902 C 0.1243 0.62443 0.68963 0.0
C903 C 0.08041 0.55778 0.69341 0.0
N904 N 0.17347 0.64847 0.6564 0.0
N905 N 0.10336 0.57036 0.67702 0.0
H906 H 0.5891 0.11758 0.89755 0.0
H907 H 0.70973 0.23184 0.80103 0.0
H908 H 0.68166 0.13099 0.88272 0.0
H909 H 0.60671 0.19223 0.79828 0.0
H910 H 0.70182 0.20416 0.83625 0.0
H911 H 0.59702 0.15261 0.86578 0.0
C912 C 0.61108 0.12784 0.88774 0.0
C913 C 0.63472 0.12112 0.89296 0.0
C914 C 0.68092 0.2016 0.82804 0.0
C915 C 0.64411 0.1618 0.85696 0.0
C916 C 0.68538 0.21746 0.80787 0.0
C917 C 0.65872 0.2139 0.79637 0.0
C918 C 0.64958 0.18195 0.83699 0.0
C919 C 0.6279 0.19542 0.80645 0.0
C920 C 0.61559 0.14796 0.86969 0.0
C921 C 0.66297 0.13577 0.87981 0.0
N922 N 0.62409 0.17982 0.82614 0.0
N923 N 0.66681 0.15532 0.8625 0.0
H924 H 0.45525 0.58805 0.0722 0.0
H925 H 0.38517 0.52403 0.95009 0.0
H926 H 0.40822 0.48652 0.05463 0.0
H927 H 0.47618 0.61486 0.96328 0.0
H928 H 0.38023 0.51133 0.99023 0.0
H929 H 0.44821 0.59958 0.03371 0.0
C930 C 0.443 0.5681 0.06041 0.0
C931 C 0.43301 0.53639 0.06659 0.0
C932 C 0.40113 0.53404 0.98421 0.0
C933 C 0.42435 0.5494 0.02284 0.0
C934 C 0.40404 0.54121 0.96144 0.0
C935 C 0.43142 0.57022 0.95347 0.0
C936 C 0.42526 0.55657 -0.00105 0.0
C937 C 0.45506 0.59192 0.96876 0.0
C938 C 0.43897 0.57472 0.03852 0.0
C939 C 0.41633 0.51134 0.05072 0.0
N940 N 0.45135 0.58472 0.99082 0.0
N941 N 0.41282 0.51845 0.02945 0.0
H942 H 0.89517 0.49161 0.24684 0.0
H943 H 0.86298 0.49344 0.1168 0.0
H944 H 0.95303 0.57881 0.20741 0.0
H945 H 0.8535 0.41088 0.15008 0.0
H946 H 0.8849 0.52507 0.15151 0.0
H947 H 0.86766 0.46157 0.21281 0.0
C948 C 0.90204 0.50457 0.23112 0.0
C949 C 0.92699 0.53781 0.23008 0.0
C950 C 0.87788 0.49999 0.15112 0.0
C951 C 0.89483 0.50354 0.19116 0.0
C952 C 0.86539 0.48196 0.13141 0.0
C953 C 0.85672 0.44961 0.13054 0.0
C954 C 0.88084 0.48521 0.17016 0.0
C955 C 0.86026 0.43587 0.14994 0.0
C956 C 0.88619 0.48737 0.21174 0.0
C957 C 0.9339 0.55334 0.20919 0.0
N958 N 0.87187 0.45368 0.16899 0.0
N959 N 0.91801 0.53604 0.19054 0.0
loop_
_geom_bond_atom_site_label_1
_geom_bond_atom_site_label_2
_geom_bond_distance
_geom_bond_site_symmetry_2
_ccdc_geom_bond_type
H0 O26 0.856 . S
H1 O29 0.854 . S
H2 C37 0.930 . S
H3 C38 0.930 . S
H4 C40 0.930 . S
H5 C41 0.930 . S
H6 C43 0.931 . S
H7 C44 0.930 . S
H8 C46 0.930 . S
H9 C47 0.929 . S
H10 C49 0.930 . S
H11 C50 0.931 . S
H12 C52 0.930 . S
H13 C53 0.929 . S
H14 C55 0.931 . S
H15 C56 0.930 . S
H16 C58 0.930 . S
H17 C59 0.932 . S
H18 C61 0.930 . S
H19 C62 0.929 . S
H20 C64 0.931 . S
H21 C65 0.930 . S
H22 C67 0.929 . S
H23 C68 0.931 . S
H24 C70 0.930 . S
H25 C71 0.929 1_455 S
O26 H0 0.856 . S
O26 C72 1.300 . S
O27 C72 1.209 . S
O28 C73 1.199 . S
O29 H1 0.854 . S
O29 C73 1.297 . S
C30 C31 1.404 . S
C30 C35 1.397 . S
C30 C36 1.492 . S
C31 C30 1.404 . S
C31 C32 1.396 . S
C31 C42 1.492 . S
C32 C31 1.396 . S
C32 C33 1.397 . S
C32 C48 1.509 . S
C33 C32 1.397 . S
C33 C34 1.412 . S
C33 C54 1.485 . S
C34 C33 1.412 . S
C34 C35 1.388 . S
C34 C60 1.490 . S
C35 C30 1.397 . S
C35 C34 1.388 . S
C35 C66 1.519 . S
C36 C30 1.492 . S
C36 C37 1.363 . S
C36 C41 1.390 1_455 S
C37 H2 0.930 . S
C37 C36 1.363 . S
C37 C38 1.372 1_455 S
C38 H3 0.930 . S
C38 C37 1.372 1_655 S
C38 C39 1.383 . S
C39 C38 1.383 . S
C39 C40 1.395 . S
C40 H4 0.930 . S
C40 C39 1.395 . S
C40 C41 1.362 . S
C41 H5 0.930 . S
C41 C36 1.390 1_655 S
C41 C40 1.362 . S
C42 C31 1.492 . S
C42 C43 1.377 . S
C42 C47 1.397 . S
C43 H6 0.931 . S
C43 C42 1.377 . S
C43 C44 1.376 . S
C44 H7 0.930 . S
C44 C43 1.376 . S
C44 C45 1.376 . S
C45 C44 1.376 . S
C45 C46 1.378 . S
C45 C72 1.486 . S
C46 H8 0.930 . S
C46 C45 1.378 . S
C46 C47 1.376 . S
C47 H9 0.929 . S
C47 C42 1.397 . S
C47 C46 1.376 . S
C48 C32 1.509 . S
C48 C49 1.391 . S
C48 C53 1.386 . S
C49 H10 0.930 . S
C49 C48 1.391 . S
C49 C50 1.375 . S
C50 H11 0.931 . S
C50 C49 1.375 . S
C50 C51 1.375 . S
C51 C50 1.375 . S
C51 C52 1.361 . S
C52 H12 0.930 . S
C52 C51 1.361 . S
C52 C53 1.399 . S
C53 H13 0.929 . S
C53 C48 1.386 . S
C53 C52 1.399 . S
C54 C33 1.485 . S
C54 C55 1.394 . S
C54 C59 1.360 . S
C55 H14 0.931 . S
C55 C54 1.394 . S
C55 C56 1.372 . S
C56 H15 0.930 . S
C56 C55 1.372 . S
C56 C57 1.397 . S
C57 C56 1.397 . S
C57 C58 1.390 . S
C57 C73 1.476 . S
C58 H16 0.930 . S
C58 C57 1.390 . S
C58 C59 1.366 . S
C59 H17 0.932 . S
C59 C54 1.360 . S
C59 C58 1.366 . S
C60 C34 1.490 . S
C60 C61 1.380 . S
C60 C65 1.386 . S
C61 H18 0.930 . S
C61 C60 1.380 . S
C61 C62 1.381 . S
C62 H19 0.929 . S
C62 C61 1.381 . S
C62 C63 1.371 . S
C63 C62 1.371 . S
C63 C64 1.380 . S
C64 H20 0.931 . S
C64 C63 1.380 . S
C64 C65 1.387 . S
C65 H21 0.930 . S
C65 C60 1.386 . S
C65 C64 1.387 . S
C66 C35 1.519 . S
C66 C67 1.377 1_455 S
C66 C71 1.361 1_455 S
C67 H22 0.929 . S
C67 C66 1.377 1_655 S
C67 C68 1.386 . S
C68 H23 0.931 . S
C68 C67 1.386 . S
C68 C69 1.363 . S
C69 C68 1.363 . S
C69 C70 1.385 . S
C70 H24 0.930 . S
C70 C69 1.385 . S
C70 C71 1.396 . S
C71 H25 0.929 1_655 S
C71 C66 1.361 1_655 S
C71 C70 1.396 . S
C72 O26 1.300 . S
C72 O27 1.209 . S
C72 C45 1.486 . S
C73 O28 1.199 . S
C73 O29 1.297 . S
C73 C57 1.476 . S
H74 O100 0.856 . S
H75 O103 0.854 . S
H76 C111 0.930 . S
H77 C112 0.930 . S
H78 C114 0.930 . S
H79 C115 0.930 . S
H80 C117 0.931 . S
H81 C118 0.930 . S
H82 C120 0.930 . S
H83 C121 0.929 . S
H84 C123 0.930 . S
H85 C124 0.931 . S
H86 C126 0.930 . S
H87 C127 0.929 . S
H88 C129 0.931 . S
H89 C130 0.930 . S
H90 C132 0.930 . S
H91 C133 0.932 . S
H92 C135 0.930 . S
H93 C136 0.929 . S
H94 C138 0.931 . S
H95 C139 0.930 . S
H96 C141 0.929 . S
H97 C142 0.931 . S
H98 C144 0.930 . S
H99 C145 0.929 . S
O100 H74 0.856 . S
O100 C146 1.300 . S
O101 C146 1.209 . S
O102 C147 1.199 . S
O103 H75 0.854 . S
O103 C147 1.297 . S
C104 C105 1.404 . S
C104 C109 1.397 . S
C104 C110 1.492 . S
C105 C104 1.404 . S
C105 C106 1.396 . S
C105 C116 1.492 . S
C106 C105 1.396 . S
C106 C107 1.397 . S
C106 C122 1.509 . S
C107 C106 1.397 . S
C107 C108 1.412 . S
C107 C128 1.485 . S
C108 C107 1.412 . S
C108 C109 1.388 . S
C108 C134 1.490 . S
C109 C104 1.397 . S
C109 C108 1.388 . S
C109 C140 1.519 . S
C110 C104 1.492 . S
C110 C111 1.363 . S
C110 C115 1.390 . S
C111 H76 0.930 . S
C111 C110 1.363 . S
C111 C112 1.372 . S
C112 H77 0.930 . S
C112 C111 1.372 . S
C112 C113 1.383 1_545 S
C113 C112 1.383 1_565 S
C113 C114 1.395 . S
C114 H78 0.930 . S
C114 C113 1.395 . S
C114 C115 1.362 1_565 S
C115 H79 0.930 . S
C115 C110 1.390 . S
C115 C114 1.362 1_545 S
C116 C105 1.492 . S
C116 C117 1.377 . S
C116 C121 1.397 . S
C117 H80 0.931 . S
C117 C116 1.377 . S
C117 C118 1.376 . S
C118 H81 0.930 . S
C118 C117 1.376 . S
C118 C119 1.376 . S
C119 C118 1.376 . S
C119 C120 1.378 . S
C119 C146 1.486 . S
C120 H82 0.930 . S
C120 C119 1.378 . S
C120 C121 1.376 . S
C121 H83 0.929 . S
C121 C116 1.397 . S
C121 C120 1.376 . S
C122 C106 1.509 . S
C122 C123 1.391 . S
C122 C127 1.386 . S
C123 H84 0.930 . S
C123 C122 1.391 . S
C123 C124 1.375 . S
C124 H85 0.931 . S
C124 C123 1.375 . S
C124 C125 1.375 . S
C125 C124 1.375 . S
C125 C126 1.361 . S
C126 H86 0.930 . S
C126 C125 1.361 . S
C126 C127 1.399 . S
C127 H87 0.929 . S
C127 C122 1.386 . S
C127 C126 1.399 . S
C128 C107 1.485 . S
C128 C129 1.394 . S
C128 C133 1.360 . S
C129 H88 0.931 . S
C129 C128 1.394 . S
C129 C130 1.372 . S
C130 H89 0.930 . S
C130 C129 1.372 . S
C130 C131 1.397 . S
C131 C130 1.397 . S
C131 C132 1.390 . S
C131 C147 1.476 . S
C132 H90 0.930 . S
C132 C131 1.390 . S
C132 C133 1.366 . S
C133 H91 0.932 . S
C133 C128 1.360 . S
C133 C132 1.366 . S
C134 C108 1.490 . S
C134 C135 1.380 . S
C134 C139 1.386 . S
C135 H92 0.930 . S
C135 C134 1.380 . S
C135 C136 1.381 . S
C136 H93 0.929 . S
C136 C135 1.381 . S
C136 C137 1.371 . S
C137 C136 1.371 . S
C137 C138 1.380 . S
C138 H94 0.931 . S
C138 C137 1.380 . S
C138 C139 1.387 . S
C139 H95 0.930 . S
C139 C134 1.386 . S
C139 C138 1.387 . S
C140 C109 1.519 . S
C140 C141 1.377 . S
C140 C145 1.361 . S
C141 H96 0.929 . S
C141 C140 1.377 . S
C141 C142 1.386 1_545 S
C142 H97 0.931 . S
C142 C141 1.386 1_565 S
C142 C143 1.363 . S
C143 C142 1.363 . S
C143 C144 1.385 . S
C144 H98 0.930 . S
C144 C143 1.385 . S
C144 C145 1.396 1_565 S
C145 H99 0.929 . S
C145 C140 1.361 . S
C145 C144 1.396 1_545 S
C146 O100 1.300 . S
C146 O101 1.209 . S
C146 C119 1.486 . S
C147 O102 1.199 . S
C147 O103 1.297 . S
C147 C131 1.476 . S
H148 O174 0.856 . S
H149 O177 0.854 . S
H150 C185 0.930 . S
H151 C186 0.930 . S
H152 C188 0.930 . S
H153 C189 0.930 . S
H154 C191 0.931 . S
H155 C192 0.930 . S
H156 C194 0.930 . S
H157 C195 0.929 . S
H158 C197 0.930 . S
H159 C198 0.931 . S
H160 C200 0.930 . S
H161 C201 0.929 . S
H162 C203 0.931 . S
H163 C204 0.930 . S
H164 C206 0.930 . S
H165 C207 0.932 . S
H166 C209 0.930 . S
H167 C210 0.929 . S
H168 C212 0.931 . S
H169 C213 0.930 . S
H170 C215 0.929 . S
H171 C216 0.931 . S
H172 C218 0.930 . S
H173 C219 0.929 . S
O174 H148 0.856 . S
O174 C220 1.300 . S
O175 C220 1.209 . S
O176 C221 1.199 . S
O177 H149 0.854 . S
O177 C221 1.297 . S
C178 C179 1.404 . S
C178 C183 1.397 . S
C178 C184 1.492 . S
C179 C178 1.404 . S
C179 C180 1.396 . S
C179 C190 1.492 . S
C180 C179 1.396 . S
C180 C181 1.397 . S
C180 C196 1.509 . S
C181 C180 1.397 . S
C181 C182 1.412 . S
C181 C202 1.485 . S
C182 C181 1.412 . S
C182 C183 1.388 . S
C182 C208 1.490 . S
C183 C178 1.397 . S
C183 C182 1.388 . S
C183 C214 1.519 . S
C184 C178 1.492 . S
C184 C185 1.363 . S
C184 C189 1.390 . S
C185 H150 0.930 . S
C185 C184 1.363 . S
C185 C186 1.372 . S
C186 H151 0.930 . S
C186 C185 1.372 . S
C186 C187 1.383 . S
C187 C186 1.383 . S
C187 C188 1.395 . S
C188 H152 0.930 . S
C188 C187 1.395 . S
C188 C189 1.362 . S
C189 H153 0.930 . S
C189 C184 1.390 . S
C189 C188 1.362 . S
C190 C179 1.492 . S
C190 C191 1.377 . S
C190 C195 1.397 . S
C191 H154 0.931 . S
C191 C190 1.377 . S
C191 C192 1.376 . S
C192 H155 0.930 . S
C192 C191 1.376 . S
C192 C193 1.376 . S
C193 C192 1.376 . S
C193 C194 1.378 . S
C193 C220 1.486 . S
C194 H156 0.930 . S
C194 C193 1.378 . S
C194 C195 1.376 . S
C195 H157 0.929 . S
C195 C190 1.397 . S
C195 C194 1.376 . S
C196 C180 1.509 . S
C196 C197 1.391 . S
C196 C201 1.386 . S
C197 H158 0.930 . S
C197 C196 1.391 . S
C197 C198 1.375 . S
C198 H159 0.931 . S
C198 C197 1.375 . S
C198 C199 1.375 . S
C199 C198 1.375 . S
C199 C200 1.361 . S
C200 H160 0.930 . S
C200 C199 1.361 . S
C200 C201 1.399 . S
C201 H161 0.929 . S
C201 C196 1.386 . S
C201 C200 1.399 . S
C202 C181 1.485 . S
C202 C203 1.394 . S
C202 C207 1.360 . S
C203 H162 0.931 . S
C203 C202 1.394 . S
C203 C204 1.372 . S
C204 H163 0.930 . S
C204 C203 1.372 . S
C204 C205 1.397 . S
C205 C204 1.397 . S
C205 C206 1.390 . S
C205 C221 1.476 . S
C206 H164 0.930 . S
C206 C205 1.390 . S
C206 C207 1.366 . S
C207 H165 0.932 . S
C207 C202 1.360 . S
C207 C206 1.366 . S
C208 C182 1.490 . S
C208 C209 1.380 . S
C208 C213 1.386 . S
C209 H166 0.930 . S
C209 C208 1.380 . S
C209 C210 1.381 . S
C210 H167 0.929 . S
C210 C209 1.381 . S
C210 C211 1.371 . S
C211 C210 1.371 . S
C211 C212 1.380 . S
C212 H168 0.931 . S
C212 C211 1.380 . S
C212 C213 1.387 . S
C213 H169 0.930 . S
C213 C208 1.386 . S
C213 C212 1.387 . S
C214 C183 1.519 . S
C214 C215 1.377 . S
C214 C219 1.361 . S
C215 H170 0.929 . S
C215 C214 1.377 . S
C215 C216 1.386 . S
C216 H171 0.931 . S
C216 C215 1.386 . S
C216 C217 1.363 . S
C217 C216 1.363 . S
C217 C218 1.385 . S
C218 H172 0.930 . S
C218 C217 1.385 . S
C218 C219 1.396 . S
C219 H173 0.929 . S
C219 C214 1.361 . S
C219 C218 1.396 . S
C220 O174 1.300 . S
C220 O175 1.209 . S
C220 C193 1.486 . S
C221 O176 1.199 . S
C221 O177 1.297 . S
C221 C205 1.476 . S
H222 O248 0.856 . S
H223 O251 0.854 . S
H224 C259 0.930 1_455 S
H225 C260 0.930 . S
H226 C262 0.930 . S
H227 C263 0.930 . S
H228 C265 0.931 . S
H229 C266 0.930 . S
H230 C268 0.930 . S
H231 C269 0.929 . S
H232 C271 0.930 . S
H233 C272 0.931 . S
H234 C274 0.930 . S
H235 C275 0.929 . S
H236 C277 0.931 . S
H237 C278 0.930 . S
H238 C280 0.930 . S
H239 C281 0.932 . S
H240 C283 0.930 . S
H241 C284 0.929 . S
H242 C286 0.931 . S
H243 C287 0.930 . S
H244 C289 0.929 . S
H245 C290 0.931 . S
H246 C292 0.930 . S
H247 C293 0.929 . S
O248 H222 0.856 . S
O248 C294 1.300 . S
O249 C294 1.209 . S
O250 C295 1.199 . S
O251 H223 0.854 . S
O251 C295 1.297 . S
C252 C253 1.404 . S
C252 C257 1.397 . S
C252 C258 1.492 1_455 S
C253 C252 1.404 . S
C253 C254 1.396 . S
C253 C264 1.492 . S
C254 C253 1.396 . S
C254 C255 1.397 . S
C254 C270 1.509 . S
C255 C254 1.397 . S
C255 C256 1.412 . S
C255 C276 1.485 . S
C256 C255 1.412 . S
C256 C257 1.388 . S
C256 C282 1.490 . S
C257 C252 1.397 . S
C257 C256 1.388 . S
C257 C288 1.519 1_455 S
C258 C252 1.492 1_655 S
C258 C259 1.363 . S
C258 C263 1.390 . S
C259 H224 0.930 1_655 S
C259 C258 1.363 . S
C259 C260 1.372 . S
C260 H225 0.930 . S
C260 C259 1.372 . S
C260 C261 1.383 . S
C261 C260 1.383 . S
C261 C262 1.395 . S
C262 H226 0.930 . S
C262 C261 1.395 . S
C262 C263 1.362 . S
C263 H227 0.930 . S
C263 C258 1.390 . S
C263 C262 1.362 . S
C264 C253 1.492 . S
C264 C265 1.377 . S
C264 C269 1.397 . S
C265 H228 0.931 . S
C265 C264 1.377 . S
C265 C266 1.376 . S
C266 H229 0.930 . S
C266 C265 1.376 . S
C266 C267 1.376 . S
C267 C266 1.376 . S
C267 C268 1.378 . S
C267 C294 1.486 . S
C268 H230 0.930 . S
C268 C267 1.378 . S
C268 C269 1.376 . S
C269 H231 0.929 . S
C269 C264 1.397 . S
C269 C268 1.376 . S
C270 C254 1.509 . S
C270 C271 1.391 . S
C270 C275 1.386 . S
C271 H232 0.930 . S
C271 C270 1.391 . S
C271 C272 1.375 . S
C272 H233 0.931 . S
C272 C271 1.375 . S
C272 C273 1.375 . S
C273 C272 1.375 . S
C273 C274 1.361 . S
C274 H234 0.930 . S
C274 C273 1.361 . S
C274 C275 1.399 . S
C275 H235 0.929 . S
C275 C270 1.386 . S
C275 C274 1.399 . S
C276 C255 1.485 . S
C276 C277 1.394 . S
C276 C281 1.360 . S
C277 H236 0.931 . S
C277 C276 1.394 . S
C277 C278 1.372 . S
C278 H237 0.930 . S
C278 C277 1.372 . S
C278 C279 1.397 . S
C279 C278 1.397 . S
C279 C280 1.390 . S
C279 C295 1.476 . S
C280 H238 0.930 . S
C280 C279 1.390 . S
C280 C281 1.366 . S
C281 H239 0.932 . S
C281 C276 1.360 . S
C281 C280 1.366 . S
C282 C256 1.490 . S
C282 C283 1.380 . S
C282 C287 1.386 . S
C283 H240 0.930 . S
C283 C282 1.380 . S
C283 C284 1.381 . S
C284 H241 0.929 . S
C284 C283 1.381 . S
C284 C285 1.371 . S
C285 C284 1.371 . S
C285 C286 1.380 . S
C286 H242 0.931 . S
C286 C285 1.380 . S
C286 C287 1.387 . S
C287 H243 0.930 . S
C287 C282 1.386 . S
C287 C286 1.387 . S
C288 C257 1.519 1_655 S
C288 C289 1.377 . S
C288 C293 1.361 . S
C289 H244 0.929 . S
C289 C288 1.377 . S
C289 C290 1.386 . S
C290 H245 0.931 . S
C290 C289 1.386 . S
C290 C291 1.363 . S
C291 C290 1.363 . S
C291 C292 1.385 . S
C292 H246 0.930 . S
C292 C291 1.385 . S
C292 C293 1.396 . S
C293 H247 0.929 . S
C293 C288 1.361 . S
C293 C292 1.396 . S
C294 O248 1.300 . S
C294 O249 1.209 . S
C294 C267 1.486 . S
C295 O250 1.199 . S
C295 O251 1.297 . S
C295 C279 1.476 . S
H296 O322 0.856 . S
H297 O325 0.854 . S
H298 C333 0.930 . S
H299 C334 0.930 . S
H300 C336 0.930 . S
H301 C337 0.930 . S
H302 C339 0.931 . S
H303 C340 0.930 . S
H304 C342 0.930 1_545 S
H305 C343 0.929 1_545 S
H306 C345 0.930 . S
H307 C346 0.931 . S
H308 C348 0.930 . S
H309 C349 0.929 . S
H310 C351 0.931 . S
H311 C352 0.930 . S
H312 C354 0.930 . S
H313 C355 0.957 . S
H314 C357 0.930 . S
H315 C358 0.929 . S
H316 C360 0.931 . S
H317 C361 0.930 . S
H318 C363 0.929 . S
H319 C364 0.931 . S
H320 C366 0.930 . S
H321 C367 0.929 . S
O322 H296 0.856 . S
O322 C368 1.300 . S
O323 C368 1.209 . S
O324 C369 1.199 . S
O325 H297 0.854 . S
O325 C369 1.297 . S
C326 C327 1.404 1_545 S
C326 C331 1.397 . S
C326 C332 1.492 . S
C327 C326 1.404 1_565 S
C327 C328 1.396 . S
C327 C338 1.492 . S
C328 C327 1.396 . S
C328 C329 1.397 . S
C328 C344 1.509 . S
C329 C328 1.397 . S
C329 C330 1.412 1_556 S
C329 C350 1.485 1_556 S
C330 C329 1.412 1_554 S
C330 C331 1.388 1_564 S
C330 C356 1.490 . S
C331 C326 1.397 . S
C331 C330 1.388 1_546 S
C331 C362 1.519 . S
C332 C326 1.492 . S
C332 C333 1.363 . S
C332 C337 1.390 . S
C333 H298 0.930 . S
C333 C332 1.363 . S
C333 C334 1.372 . S
C334 H299 0.930 . S
C334 C333 1.372 . S
C334 C335 1.383 . S
C335 C334 1.383 . S
C335 C336 1.395 . S
C336 H300 0.930 . S
C336 C335 1.395 . S
C336 C337 1.362 . S
C337 H301 0.930 . S
C337 C332 1.390 . S
C337 C336 1.362 . S
C338 C327 1.492 . S
C338 C339 1.377 . S
C338 C343 1.397 . S
C339 H302 0.931 . S
C339 C338 1.377 . S
C339 C340 1.376 . S
C340 H303 0.930 . S
C340 C339 1.376 . S
C340 C341 1.376 . S
C341 C340 1.376 . S
C341 C342 1.378 . S
C341 C368 1.486 . S
C342 H304 0.930 1_565 S
C342 C341 1.378 . S
C342 C343 1.376 . S
C343 H305 0.929 1_565 S
C343 C338 1.397 . S
C343 C342 1.376 . S
C344 C328 1.509 . S
C344 C345 1.391 . S
C344 C349 1.386 . S
C345 H306 0.930 . S
C345 C344 1.391 . S
C345 C346 1.375 . S
C346 H307 0.931 . S
C346 C345 1.375 . S
C346 C347 1.375 . S
C347 C346 1.375 . S
C347 C348 1.361 . S
C348 H308 0.930 . S
C348 C347 1.361 . S
C348 C349 1.399 . S
C349 H309 0.929 . S
C349 C344 1.386 . S
C349 C348 1.399 . S
C350 C329 1.485 1_554 S
C350 C351 1.394 . S
C350 C355 1.360 . S
C351 H310 0.931 . S
C351 C350 1.394 . S
C351 C352 1.372 . S
C352 H311 0.930 . S
C352 C351 1.372 . S
C352 C353 1.397 . S
C353 C352 1.397 . S
C353 C354 1.390 . S
C353 C369 1.476 . S
C354 H312 0.930 . S
C354 C353 1.390 . S
C354 C355 1.366 . S
C355 H313 0.957 . S
C355 C350 1.360 . S
C355 C354 1.366 . S
C356 C330 1.490 . S
C356 C357 1.380 1_565 S
C356 C361 1.386 . S
C357 H314 0.930 . S
C357 C356 1.380 1_545 S
C357 C358 1.381 . S
C358 H315 0.929 . S
C358 C357 1.381 . S
C358 C359 1.371 . S
C359 C358 1.371 . S
C359 C360 1.380 1_545 S
C360 H316 0.931 . S
C360 C359 1.380 1_565 S
C360 C361 1.387 . S
C361 H317 0.930 . S
C361 C356 1.386 . S
C361 C360 1.387 . S
C362 C331 1.519 . S
C362 C363 1.377 . S
C362 C367 1.361 1_556 S
C363 H318 0.929 . S
C363 C362 1.377 . S
C363 C364 1.386 1_556 S
C364 H319 0.931 . S
C364 C363 1.386 1_554 S
C364 C365 1.363 . S
C365 C364 1.363 . S
C365 C366 1.385 . S
C366 H320 0.930 . S
C366 C365 1.385 . S
C366 C367 1.396 . S
C367 H321 0.929 . S
C367 C362 1.361 1_554 S
C367 C366 1.396 . S
C368 O322 1.300 . S
C368 O323 1.209 . S
C368 C341 1.486 . S
C369 O324 1.199 . S
C369 O325 1.297 . S
C369 C353 1.476 . S
H370 O396 0.856 . S
H371 O399 0.854 . S
H372 C407 0.930 . S
H373 C408 0.930 . S
H374 C410 0.930 . S
H375 C411 0.930 . S
H376 C413 0.931 . S
H377 C414 0.930 . S
H378 C416 0.930 . S
H379 C417 0.929 . S
H380 C419 0.930 . S
H381 C420 0.931 . S
H382 C422 0.930 . S
H383 C423 0.929 . S
H384 C425 0.931 . S
H385 C426 0.930 . S
H386 C428 0.930 . S
H387 C429 0.932 . S
H388 C431 0.930 . S
H389 C432 0.929 . S
H390 C434 0.931 . S
H391 C435 0.930 . S
H392 C437 0.929 . S
H393 C438 0.931 . S
H394 C440 0.930 . S
H395 C441 0.929 . S
O396 H370 0.856 . S
O396 C442 1.300 . S
O397 C442 1.209 . S
O398 C443 1.199 . S
O399 H371 0.854 . S
O399 C443 1.297 . S
C400 C401 1.404 . S
C400 C405 1.397 . S
C400 C406 1.492 . S
C401 C400 1.404 . S
C401 C402 1.396 . S
C401 C412 1.492 . S
C402 C401 1.396 . S
C402 C403 1.397 . S
C402 C418 1.509 . S
C403 C402 1.397 . S
C403 C404 1.412 . S
C403 C424 1.485 . S
C404 C403 1.412 . S
C404 C405 1.388 . S
C404 C430 1.490 . S
C405 C400 1.397 . S
C405 C404 1.388 . S
C405 C436 1.519 . S
C406 C400 1.492 . S
C406 C407 1.363 . S
C406 C411 1.390 . S
C407 H372 0.930 . S
C407 C406 1.363 . S
C407 C408 1.372 . S
C408 H373 0.930 . S
C408 C407 1.372 . S
C408 C409 1.383 . S
C409 C408 1.383 . S
C409 C410 1.395 . S
C410 H374 0.930 . S
C410 C409 1.395 . S
C410 C411 1.362 . S
C411 H375 0.930 . S
C411 C406 1.390 . S
C411 C410 1.362 . S
C412 C401 1.492 . S
C412 C413 1.377 . S
C412 C417 1.397 . S
C413 H376 0.931 . S
C413 C412 1.377 . S
C413 C414 1.376 . S
C414 H377 0.930 . S
C414 C413 1.376 . S
C414 C415 1.376 . S
C415 C414 1.376 . S
C415 C416 1.378 . S
C415 C442 1.486 . S
C416 H378 0.930 . S
C416 C415 1.378 . S
C416 C417 1.376 . S
C417 H379 0.929 . S
C417 C412 1.397 . S
C417 C416 1.376 . S
C418 C402 1.509 . S
C418 C419 1.391 . S
C418 C423 1.386 . S
C419 H380 0.930 . S
C419 C418 1.391 . S
C419 C420 1.375 . S
C420 H381 0.931 . S
C420 C419 1.375 . S
C420 C421 1.375 . S
C421 C420 1.375 . S
C421 C422 1.361 . S
C422 H382 0.930 . S
C422 C421 1.361 . S
C422 C423 1.399 . S
C423 H383 0.929 . S
C423 C418 1.386 . S
C423 C422 1.399 . S
C424 C403 1.485 . S
C424 C425 1.394 . S
C424 C429 1.360 . S
C425 H384 0.931 . S
C425 C424 1.394 . S
C425 C426 1.372 . S
C426 H385 0.930 . S
C426 C425 1.372 . S
C426 C427 1.397 . S
C427 C426 1.397 . S
C427 C428 1.390 . S
C427 C443 1.476 . S
C428 H386 0.930 . S
C428 C427 1.390 . S
C428 C429 1.366 . S
C429 H387 0.932 . S
C429 C424 1.360 . S
C429 C428 1.366 . S
C430 C404 1.490 . S
C430 C431 1.380 . S
C430 C435 1.386 . S
C431 H388 0.930 . S
C431 C430 1.380 . S
C431 C432 1.381 . S
C432 H389 0.929 . S
C432 C431 1.381 . S
C432 C433 1.371 . S
C433 C432 1.371 . S
C433 C434 1.380 . S
C434 H390 0.931 . S
C434 C433 1.380 . S
C434 C435 1.387 . S
C435 H391 0.930 . S
C435 C430 1.386 . S
C435 C434 1.387 . S
C436 C405 1.519 . S
C436 C437 1.377 . S
C436 C441 1.361 . S
C437 H392 0.929 . S
C437 C436 1.377 . S
C437 C438 1.386 . S
C438 H393 0.931 . S
C438 C437 1.386 . S
C438 C439 1.363 . S
C439 C438 1.363 . S
C439 C440 1.385 . S
C440 H394 0.930 . S
C440 C439 1.385 . S
C440 C441 1.396 . S
C441 H395 0.929 . S
C441 C436 1.361 . S
C441 C440 1.396 . S
C442 O396 1.300 . S
C442 O397 1.209 . S
C442 C415 1.486 . S
C443 O398 1.199 . S
C443 O399 1.297 . S
C443 C427 1.476 . S
Co444 O445 2.216 . S
Co444 O446 2.091 . S
Co444 O448 2.004 . S
Co444 O454 2.021 . S
Co444 O456 2.137 . S
Co444 O457 2.244 . S
O445 Co444 2.216 . S
O445 C452 1.247 . S
O446 Co444 2.091 . S
O446 C452 1.261 . S
C447 O456 1.247 . S
C447 O457 1.272 . S
O448 Co444 2.004 . S
O448 C453 1.259 . S
Co449 O450 2.061 . S
Co449 O455 2.052 . S
Co449 O457 2.135 . S
O450 Co449 2.061 . S
O450 C453 1.235 . S
C451 O454 1.238 . S
C451 O455 1.241 . S
C452 O445 1.247 . S
C452 O446 1.261 . S
C453 O448 1.259 . S
C453 O450 1.235 . S
O454 Co444 2.021 . S
O454 C451 1.238 . S
O455 Co449 2.052 . S
O455 C451 1.241 . S
O456 Co444 2.137 . S
O456 C447 1.247 . S
O457 Co444 2.244 . S
O457 C447 1.272 . S
O457 Co449 2.135 . S
Co458 O459 2.216 . S
Co458 O460 2.091 . S
Co458 O462 2.004 . S
Co458 O468 2.021 . S
Co458 O470 2.137 . S
Co458 O471 2.244 . S
O459 Co458 2.216 . S
O459 C466 1.247 . S
O460 Co458 2.091 . S
O460 C466 1.261 . S
C461 O470 1.247 . S
C461 O471 1.272 . S
O462 Co458 2.004 . S
O462 C467 1.259 . S
Co463 O464 2.061 . S
Co463 O469 2.052 . S
Co463 O471 2.135 . S
O464 Co463 2.061 . S
O464 C467 1.235 . S
C465 O468 1.238 . S
C465 O469 1.241 . S
C466 O459 1.247 . S
C466 O460 1.261 . S
C467 O462 1.259 . S
C467 O464 1.235 . S
O468 Co458 2.021 . S
O468 C465 1.238 . S
O469 Co463 2.052 . S
O469 C465 1.241 . S
O470 Co458 2.137 . S
O470 C461 1.247 . S
O471 Co458 2.244 . S
O471 C461 1.272 . S
O471 Co463 2.135 . S
Co472 O473 2.216 . S
Co472 O474 2.091 . S
Co472 O476 2.004 . S
Co472 O482 2.021 . S
Co472 O484 2.137 . S
Co472 O485 2.244 . S
O473 Co472 2.216 . S
O473 C480 1.247 . S
O474 Co472 2.091 . S
O474 C480 1.261 . S
C475 O484 1.247 . S
C475 O485 1.272 . S
O476 Co472 2.004 . S
O476 C481 1.259 . S
Co477 O478 2.061 . S
Co477 O483 2.052 . S
Co477 O485 2.135 . S
O478 Co477 2.061 . S
O478 C481 1.235 . S
C479 O482 1.238 . S
C479 O483 1.241 . S
C480 O473 1.247 . S
C480 O474 1.261 . S
C481 O476 1.259 . S
C481 O478 1.235 . S
O482 Co472 2.021 . S
O482 C479 1.238 . S
O483 Co477 2.052 . S
O483 C479 1.241 . S
O484 Co472 2.137 . S
O484 C475 1.247 . S
O485 Co472 2.244 . S
O485 C475 1.272 . S
O485 Co477 2.135 . S
Co486 O487 2.216 . S
Co486 O488 2.091 . S
Co486 O490 2.004 . S
Co486 O496 2.021 . S
Co486 O498 2.137 . S
Co486 O499 2.244 . S
O487 Co486 2.216 . S
O487 C494 1.247 . S
O488 Co486 2.091 . S
O488 C494 1.261 . S
C489 O498 1.247 . S
C489 O499 1.272 . S
O490 Co486 2.004 . S
O490 C495 1.259 . S
Co491 O492 2.061 . S
Co491 O497 2.052 . S
Co491 O499 2.135 . S
O492 Co491 2.061 . S
O492 C495 1.235 . S
C493 O496 1.238 . S
C493 O497 1.241 . S
C494 O487 1.247 . S
C494 O488 1.261 . S
C495 O490 1.259 . S
C495 O492 1.235 . S
O496 Co486 2.021 . S
O496 C493 1.238 . S
O497 Co491 2.052 . S
O497 C493 1.241 . S
O498 Co486 2.137 . S
O498 C489 1.247 . S
O499 Co486 2.244 . S
O499 C489 1.272 . S
O499 Co491 2.135 . S
Co500 O501 2.216 . S
Co500 O502 2.091 . S
Co500 O504 2.004 . S
Co500 O510 2.021 . S
Co500 O512 2.137 . S
Co500 O513 2.244 . S
O501 Co500 2.216 . S
O501 C508 1.247 . S
O502 Co500 2.091 . S
O502 C508 1.261 . S
C503 O512 1.247 . S
C503 O513 1.272 . S
O504 Co500 2.004 . S
O504 C509 1.259 . S
Co505 O506 2.061 . S
Co505 O511 2.052 . S
Co505 O513 2.135 . S
O506 Co505 2.061 . S
O506 C509 1.235 . S
C507 O510 1.238 . S
C507 O511 1.241 . S
C508 O501 1.247 . S
C508 O502 1.261 . S
C509 O504 1.259 . S
C509 O506 1.235 . S
O510 Co500 2.021 . S
O510 C507 1.238 . S
O511 Co505 2.052 . S
O511 C507 1.241 . S
O512 Co500 2.137 . S
O512 C503 1.247 . S
O513 Co500 2.244 . S
O513 C503 1.272 . S
O513 Co505 2.135 . S
Co514 O515 2.216 . S
Co514 O516 2.091 . S
Co514 O518 2.004 . S
Co514 O524 2.021 . S
Co514 O526 2.137 . S
Co514 O527 2.244 . S
O515 Co514 2.216 . S
O515 C522 1.247 . S
O516 Co514 2.091 . S
O516 C522 1.261 . S
C517 O526 1.247 . S
C517 O527 1.272 . S
O518 Co514 2.004 . S
O518 C523 1.259 . S
Co519 O520 2.061 . S
Co519 O525 2.052 . S
Co519 O527 2.135 . S
O520 Co519 2.061 . S
O520 C523 1.235 . S
C521 O524 1.238 . S
C521 O525 1.241 . S
C522 O515 1.247 . S
C522 O516 1.261 . S
C523 O518 1.259 . S
C523 O520 1.235 . S
O524 Co514 2.021 . S
O524 C521 1.238 . S
O525 Co519 2.052 . S
O525 C521 1.241 . S
O526 Co514 2.137 . S
O526 C517 1.247 . S
O527 Co514 2.244 . S
O527 C517 1.272 . S
O527 Co519 2.135 . S
H528 C534 0.930 . S
H529 C538 0.930 . S
H530 C543 0.929 . S
H531 C541 0.929 . S
H532 C536 0.929 . S
H533 C542 0.929 . S
C534 H528 0.930 . S
C534 C535 1.367 . S
C534 C542 1.378 . S
C535 C534 1.367 . S
C535 C543 1.433 . S
C536 H532 0.929 . S
C536 C538 1.378 . S
C536 C540 1.350 . S
C537 C540 1.463 . S
C537 C542 1.350 . S
C537 N545 1.427 . S
C538 H529 0.930 . S
C538 C536 1.378 . S
C538 C539 1.367 . S
C539 C538 1.367 . S
C539 C541 1.433 . S
C540 C536 1.350 . S
C540 C537 1.463 . S
C540 N544 1.427 . S
C541 H531 0.929 . S
C541 C539 1.433 . S
C541 N544 1.384 . S
C542 H533 0.929 . S
C542 C534 1.378 . S
C542 C537 1.350 . S
C543 H530 0.929 . S
C543 C535 1.433 . S
C543 N545 1.384 . S
N544 C540 1.427 . S
N544 C541 1.384 . S
N545 C537 1.427 . S
N545 C543 1.384 . S
H546 C552 0.930 . S
H547 C556 0.930 . S
H548 C561 0.929 . S
H549 C559 0.929 . S
H550 C554 0.929 . S
H551 C560 0.929 . S
C552 H546 0.930 . S
C552 C553 1.367 . S
C552 C560 1.378 . S
C553 C552 1.367 . S
C553 C561 1.433 . S
C554 H550 0.929 . S
C554 C556 1.378 . S
C554 C558 1.350 . S
C555 C558 1.463 . S
C555 C560 1.350 . S
C555 N563 1.427 . S
C556 H547 0.930 . S
C556 C554 1.378 . S
C556 C557 1.367 . S
C557 C556 1.367 . S
C557 C559 1.433 . S
C558 C554 1.350 . S
C558 C555 1.463 . S
C558 N562 1.427 . S
C559 H549 0.929 . S
C559 C557 1.433 . S
C559 N562 1.384 . S
C560 H551 0.929 . S
C560 C552 1.378 . S
C560 C555 1.350 . S
C561 H548 0.929 . S
C561 C553 1.433 . S
C561 N563 1.384 . S
N562 C558 1.427 . S
N562 C559 1.384 . S
N563 C555 1.427 . S
N563 C561 1.384 . S
H564 C570 0.930 . S
H565 C574 0.930 . S
H566 C579 0.929 . S
H567 C577 0.929 . S
H568 C572 0.929 . S
H569 C578 0.929 . S
C570 H564 0.930 . S
C570 C571 1.367 . S
C570 C578 1.378 . S
C571 C570 1.367 . S
C571 C579 1.433 . S
C572 H568 0.929 . S
C572 C574 1.378 . S
C572 C576 1.350 . S
C573 C576 1.463 . S
C573 C578 1.350 . S
C573 N581 1.427 . S
C574 H565 0.930 . S
C574 C572 1.378 . S
C574 C575 1.367 . S
C575 C574 1.367 . S
C575 C577 1.433 . S
C576 C572 1.350 . S
C576 C573 1.463 . S
C576 N580 1.427 . S
C577 H567 0.929 . S
C577 C575 1.433 . S
C577 N580 1.384 . S
C578 H569 0.929 . S
C578 C570 1.378 . S
C578 C573 1.350 . S
C579 H566 0.929 . S
C579 C571 1.433 . S
C579 N581 1.384 . S
N580 C576 1.427 . S
N580 C577 1.384 . S
N581 C573 1.427 . S
N581 C579 1.384 . S
H582 C588 0.930 . S
H583 C592 0.930 . S
H584 C597 0.929 . S
H585 C595 0.929 . S
H586 C590 0.929 . S
H587 C596 0.929 . S
C588 H582 0.930 . S
C588 C589 1.367 . S
C588 C596 1.378 . S
C589 C588 1.367 . S
C589 C597 1.433 . S
C590 H586 0.929 . S
C590 C592 1.378 . S
C590 C594 1.350 . S
C591 C594 1.463 . S
C591 C596 1.350 . S
C591 N599 1.427 . S
C592 H583 0.930 . S
C592 C590 1.378 . S
C592 C593 1.367 . S
C593 C592 1.367 . S
C593 C595 1.433 . S
C594 C590 1.350 . S
C594 C591 1.463 . S
C594 N598 1.427 . S
C595 H585 0.929 . S
C595 C593 1.433 . S
C595 N598 1.384 . S
C596 H587 0.929 . S
C596 C588 1.378 . S
C596 C591 1.350 . S
C597 H584 0.929 . S
C597 C589 1.433 . S
C597 N599 1.384 . S
N598 C594 1.427 . S
N598 C595 1.384 . S
N599 C591 1.427 . S
N599 C597 1.384 . S
H600 C606 0.930 . S
H601 C610 0.930 . S
H602 C615 0.929 . S
H603 C613 0.929 . S
H604 C608 0.929 . S
H605 C614 0.929 . S
C606 H600 0.930 . S
C606 C607 1.367 . S
C606 C614 1.378 . S
C607 C606 1.367 . S
C607 C615 1.433 . S
C608 H604 0.929 . S
C608 C610 1.378 . S
C608 C612 1.350 . S
C609 C612 1.463 . S
C609 C614 1.350 . S
C609 N617 1.427 . S
C610 H601 0.930 . S
C610 C608 1.378 . S
C610 C611 1.367 . S
C611 C610 1.367 . S
C611 C613 1.433 . S
C612 C608 1.350 . S
C612 C609 1.463 . S
C612 N616 1.427 . S
C613 H603 0.929 . S
C613 C611 1.433 . S
C613 N616 1.384 . S
C614 H605 0.929 . S
C614 C606 1.378 . S
C614 C609 1.350 . S
C615 H602 0.929 . S
C615 C607 1.433 . S
C615 N617 1.384 . S
N616 C612 1.427 . S
N616 C613 1.384 . S
N617 C609 1.427 . S
N617 C615 1.384 . S
H618 C624 0.930 . S
H619 C628 0.930 . S
H620 C633 0.929 . S
H621 C631 0.929 . S
H622 C626 0.929 . S
H623 C632 0.929 . S
C624 H618 0.930 . S
C624 C625 1.367 . S
C624 C632 1.378 . S
C625 C624 1.367 . S
C625 C633 1.433 . S
C626 H622 0.929 . S
C626 C628 1.378 . S
C626 C630 1.350 . S
C627 C630 1.463 . S
C627 C632 1.350 . S
C627 N635 1.427 . S
C628 H619 0.930 . S
C628 C626 1.378 . S
C628 C629 1.367 . S
C629 C628 1.367 . S
C629 C631 1.433 . S
C630 C626 1.350 . S
C630 C627 1.463 . S
C630 N634 1.427 . S
C631 H621 0.929 . S
C631 C629 1.433 . S
C631 N634 1.384 . S
C632 H623 0.929 . S
C632 C624 1.378 . S
C632 C627 1.350 . S
C633 H620 0.929 . S
C633 C625 1.433 . S
C633 N635 1.384 . S
N634 C630 1.427 . S
N634 C631 1.384 . S
N635 C627 1.427 . S
N635 C633 1.384 . S
H636 C642 0.930 . S
H637 C646 0.930 . S
H638 C651 0.929 . S
H639 C649 0.929 . S
H640 C644 0.929 . S
H641 C650 0.929 . S
C642 H636 0.930 . S
C642 C643 1.367 . S
C642 C650 1.378 . S
C643 C642 1.367 . S
C643 C651 1.433 . S
C644 H640 0.929 . S
C644 C646 1.378 . S
C644 C648 1.350 . S
C645 C648 1.463 . S
C645 C650 1.350 . S
C645 N653 1.427 . S
C646 H637 0.930 . S
C646 C644 1.378 . S
C646 C647 1.367 . S
C647 C646 1.367 . S
C647 C649 1.433 . S
C648 C644 1.350 . S
C648 C645 1.463 . S
C648 N652 1.427 . S
C649 H639 0.929 . S
C649 C647 1.433 . S
C649 N652 1.384 . S
C650 H641 0.929 . S
C650 C642 1.378 . S
C650 C645 1.350 . S
C651 H638 0.929 . S
C651 C643 1.433 . S
C651 N653 1.384 . S
N652 C648 1.427 . S
N652 C649 1.384 . S
N653 C645 1.427 . S
N653 C651 1.384 . S
H654 C660 0.930 . S
H655 C664 0.930 . S
H656 C669 0.929 . S
H657 C667 0.929 . S
H658 C662 0.929 . S
H659 C668 0.929 . S
C660 H654 0.930 . S
C660 C661 1.367 . S
C660 C668 1.378 . S
C661 C660 1.367 . S
C661 C669 1.433 . S
C662 H658 0.929 . S
C662 C664 1.378 . S
C662 C666 1.350 . S
C663 C666 1.463 . S
C663 C668 1.350 . S
C663 N671 1.427 . S
C664 H655 0.930 . S
C664 C662 1.378 . S
C664 C665 1.367 . S
C665 C664 1.367 . S
C665 C667 1.433 . S
C666 C662 1.350 . S
C666 C663 1.463 . S
C666 N670 1.427 . S
C667 H657 0.929 . S
C667 C665 1.433 . S
C667 N670 1.384 . S
C668 H659 0.929 . S
C668 C660 1.378 . S
C668 C663 1.350 . S
C669 H656 0.929 . S
C669 C661 1.433 . S
C669 N671 1.384 . S
N670 C666 1.427 . S
N670 C667 1.384 . S
N671 C663 1.427 . S
N671 C669 1.384 . S
H672 C678 0.930 . S
H673 C682 0.930 . S
H674 C687 0.929 . S
H675 C685 0.929 . S
H676 C680 0.929 . S
H677 C686 0.929 . S
C678 H672 0.930 . S
C678 C679 1.367 . S
C678 C686 1.378 . S
C679 C678 1.367 . S
C679 C687 1.433 . S
C680 H676 0.929 . S
C680 C682 1.378 . S
C680 C684 1.350 . S
C681 C684 1.463 . S
C681 C686 1.350 . S
C681 N689 1.427 . S
C682 H673 0.930 . S
C682 C680 1.378 . S
C682 C683 1.367 . S
C683 C682 1.367 . S
C683 C685 1.433 . S
C684 C680 1.350 . S
C684 C681 1.463 . S
C684 N688 1.427 . S
C685 H675 0.929 . S
C685 C683 1.433 . S
C685 N688 1.384 . S
C686 H677 0.929 . S
C686 C678 1.378 . S
C686 C681 1.350 . S
C687 H674 0.929 . S
C687 C679 1.433 . S
C687 N689 1.384 . S
N688 C684 1.427 . S
N688 C685 1.384 . S
N689 C681 1.427 . S
N689 C687 1.384 . S
H690 C696 0.930 1_556 S
H691 C700 0.930 . S
H692 C705 0.929 . S
H693 C703 0.929 . S
H694 C698 0.929 . S
H695 C704 0.925 . S
C696 H690 0.930 1_554 S
C696 C697 1.367 . S
C696 C704 1.378 . S
C697 C696 1.367 . S
C697 C705 1.433 . S
C698 H694 0.929 . S
C698 C700 1.378 . S
C698 C702 1.350 . S
C699 C702 1.463 . S
C699 C704 1.350 . S
C699 N707 1.427 . S
C700 H691 0.930 . S
C700 C698 1.378 . S
C700 C701 1.367 . S
C701 C700 1.367 . S
C701 C703 1.433 . S
C702 C698 1.350 . S
C702 C699 1.463 . S
C702 N706 1.427 . S
C703 H693 0.929 . S
C703 C701 1.433 . S
C703 N706 1.384 . S
C704 H695 0.925 . S
C704 C696 1.378 . S
C704 C699 1.350 . S
C705 H692 0.929 . S
C705 C697 1.433 . S
C705 N707 1.384 . S
N706 C702 1.427 . S
N706 C703 1.384 . S
N707 C699 1.427 . S
N707 C705 1.384 . S
H708 C714 0.930 . S
H709 C718 0.930 . S
H710 C723 0.929 . S
H711 C721 0.929 . S
H712 C716 0.929 . S
H713 C722 0.929 . S
C714 H708 0.930 . S
C714 C715 1.367 . S
C714 C722 1.378 . S
C715 C714 1.367 . S
C715 C723 1.433 . S
C716 H712 0.929 . S
C716 C718 1.378 . S
C716 C720 1.350 . S
C717 C720 1.463 . S
C717 C722 1.350 . S
C717 N725 1.427 . S
C718 H709 0.930 . S
C718 C716 1.378 . S
C718 C719 1.367 . S
C719 C718 1.367 . S
C719 C721 1.433 . S
C720 C716 1.350 . S
C720 C717 1.463 . S
C720 N724 1.427 . S
C721 H711 0.929 . S
C721 C719 1.433 . S
C721 N724 1.384 . S
C722 H713 0.929 . S
C722 C714 1.378 . S
C722 C717 1.350 . S
C723 H710 0.929 . S
C723 C715 1.433 . S
C723 N725 1.384 . S
N724 C720 1.427 . S
N724 C721 1.384 . S
N725 C717 1.427 . S
N725 C723 1.384 . S
H726 C732 0.930 . S
H727 C736 0.930 . S
H728 C741 0.929 . S
H729 C739 0.929 . S
H730 C734 0.929 . S
H731 C740 0.929 . S
C732 H726 0.930 . S
C732 C733 1.367 . S
C732 C740 1.378 . S
C733 C732 1.367 . S
C733 C741 1.433 . S
C734 H730 0.929 . S
C734 C736 1.378 . S
C734 C738 1.350 . S
C735 C738 1.463 . S
C735 C740 1.350 . S
C735 N743 1.427 . S
C736 H727 0.930 . S
C736 C734 1.378 . S
C736 C737 1.367 . S
C737 C736 1.367 . S
C737 C739 1.433 . S
C738 C734 1.350 . S
C738 C735 1.463 . S
C738 N742 1.427 . S
C739 H729 0.929 . S
C739 C737 1.433 . S
C739 N742 1.384 . S
C740 H731 0.929 . S
C740 C732 1.378 . S
C740 C735 1.350 . S
C741 H728 0.929 . S
C741 C733 1.433 . S
C741 N743 1.384 . S
N742 C738 1.427 . S
N742 C739 1.384 . S
N743 C735 1.427 . S
N743 C741 1.384 . S
H744 C750 0.930 . S
H745 C754 0.930 . S
H746 C759 0.929 . S
H747 C757 0.929 . S
H748 C752 0.929 . S
H749 C758 0.929 . S
C750 H744 0.930 . S
C750 C751 1.367 . S
C750 C758 1.378 . S
C751 C750 1.367 . S
C751 C759 1.433 . S
C752 H748 0.929 . S
C752 C754 1.378 . S
C752 C756 1.350 . S
C753 C756 1.463 . S
C753 C758 1.350 . S
C753 N761 1.427 . S
C754 H745 0.930 . S
C754 C752 1.378 . S
C754 C755 1.367 . S
C755 C754 1.367 . S
C755 C757 1.433 . S
C756 C752 1.350 . S
C756 C753 1.463 . S
C756 N760 1.427 . S
C757 H747 0.929 . S
C757 C755 1.433 . S
C757 N760 1.384 . S
C758 H749 0.929 . S
C758 C750 1.378 . S
C758 C753 1.350 . S
C759 H746 0.929 . S
C759 C751 1.433 . S
C759 N761 1.384 . S
N760 C756 1.427 . S
N760 C757 1.384 . S
N761 C753 1.427 . S
N761 C759 1.384 . S
H762 C768 0.930 . S
H763 C772 0.930 . S
H764 C777 0.929 . S
H765 C775 0.929 . S
H766 C770 0.929 . S
H767 C776 0.929 . S
C768 H762 0.930 . S
C768 C769 1.367 . S
C768 C776 1.378 . S
C769 C768 1.367 . S
C769 C777 1.433 . S
C770 H766 0.929 . S
C770 C772 1.378 . S
C770 C774 1.350 . S
C771 C774 1.463 . S
C771 C776 1.350 . S
C771 N779 1.427 . S
C772 H763 0.930 . S
C772 C770 1.378 . S
C772 C773 1.367 . S
C773 C772 1.367 . S
C773 C775 1.433 . S
C774 C770 1.350 . S
C774 C771 1.463 . S
C774 N778 1.427 . S
C775 H765 0.929 . S
C775 C773 1.433 . S
C775 N778 1.384 . S
C776 H767 0.929 . S
C776 C768 1.378 . S
C776 C771 1.350 . S
C777 H764 0.929 . S
C777 C769 1.433 . S
C777 N779 1.384 . S
N778 C774 1.427 . S
N778 C775 1.384 . S
N779 C771 1.427 . S
N779 C777 1.384 . S
H780 C786 0.930 . S
H781 C790 0.930 . S
H782 C795 0.929 . S
H783 C793 0.929 . S
H784 C788 0.929 . S
H785 C794 0.929 . S
C786 H780 0.930 . S
C786 C787 1.367 . S
C786 C794 1.378 . S
C787 C786 1.367 . S
C787 C795 1.433 . S
C788 H784 0.929 . S
C788 C790 1.378 . S
C788 C792 1.350 . S
C789 C792 1.463 . S
C789 C794 1.350 . S
C789 N797 1.427 . S
C790 H781 0.930 . S
C790 C788 1.378 . S
C790 C791 1.367 . S
C791 C790 1.367 . S
C791 C793 1.433 . S
C792 C788 1.350 . S
C792 C789 1.463 . S
C792 N796 1.427 . S
C793 H783 0.929 . S
C793 C791 1.433 . S
C793 N796 1.384 . S
C794 H785 0.929 . S
C794 C786 1.378 . S
C794 C789 1.350 . S
C795 H782 0.929 . S
C795 C787 1.433 . S
C795 N797 1.384 . S
N796 C792 1.427 . S
N796 C793 1.384 . S
N797 C789 1.427 . S
N797 C795 1.384 . S
H798 C804 0.930 . S
H799 C808 0.930 . S
H800 C813 0.929 . S
H801 C811 0.929 . S
H802 C806 0.929 . S
H803 C812 0.929 . S
C804 H798 0.930 . S
C804 C805 1.367 . S
C804 C812 1.378 . S
C805 C804 1.367 . S
C805 C813 1.433 . S
C806 H802 0.929 . S
C806 C808 1.378 . S
C806 C810 1.350 . S
C807 C810 1.463 . S
C807 C812 1.350 . S
C807 N815 1.427 . S
C808 H799 0.930 . S
C808 C806 1.378 . S
C808 C809 1.367 1_556 S
C809 C808 1.367 1_554 S
C809 C811 1.433 . S
C810 C806 1.350 . S
C810 C807 1.463 . S
C810 N814 1.427 . S
C811 H801 0.929 . S
C811 C809 1.433 . S
C811 N814 1.384 1_554 S
C812 H803 0.929 . S
C812 C804 1.378 . S
C812 C807 1.350 . S
C813 H800 0.929 . S
C813 C805 1.433 . S
C813 N815 1.384 . S
N814 C810 1.427 . S
N814 C811 1.384 1_556 S
N815 C807 1.427 . S
N815 C813 1.384 . S
H816 C822 0.930 . S
H817 C826 0.930 . S
H818 C831 0.929 . S
H819 C829 0.929 . S
H820 C824 0.929 . S
H821 C830 0.929 . S
C822 H816 0.930 . S
C822 C823 1.367 . S
C822 C830 1.378 . S
C823 C822 1.367 . S
C823 C831 1.433 1_565 S
C824 H820 0.929 . S
C824 C826 1.378 . S
C824 C828 1.350 . S
C825 C828 1.463 . S
C825 C830 1.350 . S
C825 N833 1.427 . S
C826 H817 0.930 . S
C826 C824 1.378 . S
C826 C827 1.367 . S
C827 C826 1.367 . S
C827 C829 1.433 . S
C828 C824 1.350 . S
C828 C825 1.463 . S
C828 N832 1.427 . S
C829 H819 0.929 . S
C829 C827 1.433 . S
C829 N832 1.384 . S
C830 H821 0.929 . S
C830 C822 1.378 . S
C830 C825 1.350 . S
C831 H818 0.929 . S
C831 C823 1.433 1_545 S
C831 N833 1.384 1_545 S
N832 C828 1.427 . S
N832 C829 1.384 . S
N833 C825 1.427 . S
N833 C831 1.384 1_565 S
H834 C840 0.930 . S
H835 C844 0.930 . S
H836 C849 0.929 . S
H837 C847 0.929 . S
H838 C842 0.929 . S
H839 C848 0.929 . S
C840 H834 0.930 . S
C840 C841 1.367 . S
C840 C848 1.378 . S
C841 C840 1.367 . S
C841 C849 1.433 . S
C842 H838 0.929 . S
C842 C844 1.378 . S
C842 C846 1.350 . S
C843 C846 1.463 . S
C843 C848 1.350 . S
C843 N851 1.427 . S
C844 H835 0.930 . S
C844 C842 1.378 . S
C844 C845 1.367 . S
C845 C844 1.367 . S
C845 C847 1.433 . S
C846 C842 1.350 . S
C846 C843 1.463 . S
C846 N850 1.427 . S
C847 H837 0.929 . S
C847 C845 1.433 . S
C847 N850 1.384 . S
C848 H839 0.929 . S
C848 C840 1.378 . S
C848 C843 1.350 . S
C849 H836 0.929 . S
C849 C841 1.433 . S
C849 N851 1.384 . S
N850 C846 1.427 . S
N850 C847 1.384 . S
N851 C843 1.427 . S
N851 C849 1.384 . S
H852 C858 0.930 . S
H853 C862 0.930 . S
H854 C867 0.929 . S
H855 C865 0.929 . S
H856 C860 0.929 . S
H857 C866 0.929 . S
C858 H852 0.930 . S
C858 C859 1.367 . S
C858 C866 1.378 . S
C859 C858 1.367 . S
C859 C867 1.433 . S
C860 H856 0.929 . S
C860 C862 1.378 . S
C860 C864 1.350 . S
C861 C864 1.463 . S
C861 C866 1.350 . S
C861 N869 1.427 . S
C862 H853 0.930 . S
C862 C860 1.378 . S
C862 C863 1.367 . S
C863 C862 1.367 . S
C863 C865 1.433 . S
C864 C860 1.350 . S
C864 C861 1.463 . S
C864 N868 1.427 . S
C865 H855 0.929 . S
C865 C863 1.433 . S
C865 N868 1.384 . S
C866 H857 0.929 . S
C866 C858 1.378 . S
C866 C861 1.350 . S
C867 H854 0.929 . S
C867 C859 1.433 . S
C867 N869 1.384 . S
N868 C864 1.427 . S
N868 C865 1.384 . S
N869 C861 1.427 . S
N869 C867 1.384 . S
H870 C876 0.930 . S
H871 C880 0.930 . S
H872 C885 0.929 . S
H873 C883 0.929 . S
H874 C878 0.929 . S
H875 C884 0.929 . S
C876 H870 0.930 . S
C876 C877 1.367 . S
C876 C884 1.378 . S
C877 C876 1.367 . S
C877 C885 1.433 . S
C878 H874 0.929 . S
C878 C880 1.378 . S
C878 C882 1.350 . S
C879 C882 1.463 . S
C879 C884 1.350 . S
C879 N887 1.427 . S
C880 H871 0.930 . S
C880 C878 1.378 . S
C880 C881 1.367 . S
C881 C880 1.367 . S
C881 C883 1.433 . S
C882 C878 1.350 . S
C882 C879 1.463 . S
C882 N886 1.427 . S
C883 H873 0.929 . S
C883 C881 1.433 . S
C883 N886 1.384 . S
C884 H875 0.929 . S
C884 C876 1.378 . S
C884 C879 1.350 . S
C885 H872 0.929 . S
C885 C877 1.433 . S
C885 N887 1.384 . S
N886 C882 1.427 . S
N886 C883 1.384 . S
N887 C879 1.427 . S
N887 C885 1.384 . S
H888 C894 0.930 . S
H889 C898 0.930 . S
H890 C903 0.929 . S
H891 C901 0.929 . S
H892 C896 0.929 . S
H893 C902 0.929 . S
C894 H888 0.930 . S
C894 C895 1.367 . S
C894 C902 1.378 . S
C895 C894 1.367 . S
C895 C903 1.433 . S
C896 H892 0.929 . S
C896 C898 1.378 . S
C896 C900 1.350 . S
C897 C900 1.463 . S
C897 C902 1.350 . S
C897 N905 1.427 . S
C898 H889 0.930 . S
C898 C896 1.378 . S
C898 C899 1.367 . S
C899 C898 1.367 . S
C899 C901 1.433 . S
C900 C896 1.350 . S
C900 C897 1.463 . S
C900 N904 1.427 . S
C901 H891 0.929 . S
C901 C899 1.433 . S
C901 N904 1.384 . S
C902 H893 0.929 . S
C902 C894 1.378 . S
C902 C897 1.350 . S
C903 H890 0.929 . S
C903 C895 1.433 . S
C903 N905 1.384 . S
N904 C900 1.427 . S
N904 C901 1.384 . S
N905 C897 1.427 . S
N905 C903 1.384 . S
H906 C912 0.930 . S
H907 C916 0.930 . S
H908 C921 0.929 . S
H909 C919 0.929 . S
H910 C914 0.929 . S
H911 C920 0.929 . S
C912 H906 0.930 . S
C912 C913 1.367 . S
C912 C920 1.378 . S
C913 C912 1.367 . S
C913 C921 1.433 . S
C914 H910 0.929 . S
C914 C916 1.378 . S
C914 C918 1.350 . S
C915 C918 1.463 . S
C915 C920 1.350 . S
C915 N923 1.427 . S
C916 H907 0.930 . S
C916 C914 1.378 . S
C916 C917 1.367 . S
C917 C916 1.367 . S
C917 C919 1.433 . S
C918 C914 1.350 . S
C918 C915 1.463 . S
C918 N922 1.427 . S
C919 H909 0.929 . S
C919 C917 1.433 . S
C919 N922 1.384 . S
C920 H911 0.929 . S
C920 C912 1.378 . S
C920 C915 1.350 . S
C921 H908 0.929 . S
C921 C913 1.433 . S
C921 N923 1.384 . S
N922 C918 1.427 . S
N922 C919 1.384 . S
N923 C915 1.427 . S
N923 C921 1.384 . S
H924 C930 0.930 . S
H925 C934 0.930 . S
H926 C939 0.929 . S
H927 C937 0.929 . S
H928 C932 0.929 . S
H929 C938 0.929 . S
C930 H924 0.930 . S
C930 C931 1.367 . S
C930 C938 1.378 . S
C931 C930 1.367 . S
C931 C939 1.433 . S
C932 H928 0.929 . S
C932 C934 1.378 . S
C932 C936 1.350 1_556 S
C933 C936 1.463 . S
C933 C938 1.350 . S
C933 N941 1.427 . S
C934 H925 0.930 . S
C934 C932 1.378 . S
C934 C935 1.367 . S
C935 C934 1.367 . S
C935 C937 1.433 . S
C936 C932 1.350 1_554 S
C936 C933 1.463 . S
C936 N940 1.427 1_554 S
C937 H927 0.929 . S
C937 C935 1.433 . S
C937 N940 1.384 . S
C938 H929 0.929 . S
C938 C930 1.378 . S
C938 C933 1.350 . S
C939 H926 0.929 . S
C939 C931 1.433 . S
C939 N941 1.384 . S
N940 C936 1.427 1_556 S
N940 C937 1.384 . S
N941 C933 1.427 . S
N941 C939 1.384 . S
H942 C948 0.930 . S
H943 C952 0.930 . S
H944 C957 0.929 . S
H945 C955 0.929 . S
H946 C950 0.929 . S
H947 C956 0.929 . S
C948 H942 0.930 . S
C948 C949 1.367 . S
C948 C956 1.378 . S
C949 C948 1.367 . S
C949 C957 1.433 . S
C950 H946 0.929 . S
C950 C952 1.378 . S
C950 C954 1.350 . S
C951 C954 1.463 . S
C951 C956 1.350 . S
C951 N959 1.427 . S
C952 H943 0.930 . S
C952 C950 1.378 . S
C952 C953 1.367 . S
C953 C952 1.367 . S
C953 C955 1.433 . S
C954 C950 1.350 . S
C954 C951 1.463 . S
C954 N958 1.427 . S
C955 H945 0.929 . S
C955 C953 1.433 . S
C955 N958 1.384 . S
C956 H947 0.929 . S
C956 C948 1.378 . S
C956 C951 1.350 . S
C957 H944 0.929 . S
C957 C949 1.433 . S
C957 N959 1.384 . S
N958 C954 1.427 . S
N958 C955 1.384 . S
N959 C951 1.427 . S
N959 C957 1.384 . S
C539 C517 1.091 . S
C535 C51 1.072 . S
C553 C125 1.780 . S
C557 C447 1.799 . S
C571 C217 2.322 . S
C575 C466 2.317 . S
C589 C291 2.009 . S
C593 C475 2.050 . S
C611 C489 0.606 . S
C607 C347 0.605 . S
C625 C421 1.190 . S
C629 C508 1.208 . S
C643 C143 2.609 . S
C647 C461 2.639 . S
C661 C199 1.183 . S
C665 C480 1.184 . S
C679 C273 1.002 . S
C683 C494 1.012 . S
C701 C503 1.300 . S
C697 C365 1.293 . S
C719 C522 2.247 . S
C715 C439 2.220 . S
C737 C452 2.025 . S
C733 C69 2.047 . S
C751 C63 1.537 . S
C755 C467 1.607 . S
C769 C137 1.412 . S
C773 C479 1.479 . S
C791 C493 1.441 . S
C787 C187 1.400 . S
C805 C261 1.510 . S
C809 C509 1.582 . S
C827 C521 1.369 . S
C823 C359 1.306 1_565 S
C845 C451 1.329 . S
C841 C433 1.278 . S
C863 C523 1.533 . S
C859 C113 1.515 . S
C877 C211 1.486 . S
C881 C453 1.520 . S
C899 C465 1.588 . S
C895 C285 1.492 . S
C913 C335 1.330 . S
C917 C481 1.335 . S
C931 C409 1.462 . S
C935 C495 1.546 . S
C949 C39 1.739 . S
C953 C507 1.789 . S
