# Generated by pormake.
# Topology zzz, (3,6)-cn, num edge types: 1
# Building blocks:
#     Node 0, Type 0, BuildingBlock: QEWDON_clean_linker_0, # of connection points: 3
#     Node 1, Type 0, BuildingBlock: QEWDON_clean_linker_0, # of connection points: 3
#     Node 2, Type 0, BuildingBlock: QEWDON_clean_linker_0, # of connection points: 3
#     Node 3, Type 0, BuildingBlock: QEWDON_clean_linker_0, # of connection points: 3
#     Node 4, Type 0, BuildingBlock: QEWDON_clean_linker_0, # of connection points: 3
#     Node 5, Type 0, BuildingBlock: QEWDON_clean_linker_0, # of connection points: 3
#     Node 6, Type 0, BuildingBlock: QEWDON_clean_linker_0, # of connection points: 3
#     Node 7, Type 0, BuildingBlock: QEWDON_clean_linker_0, # of connection points: 3
#     Node 8, Type 1, BuildingBlock: GEDQOX_clean_sbu_0, # of connection points: 6
#     Node 9, Type 1, BuildingBlock: GEDQOX_clean_sbu_0, # of connection points: 6
#     Node 10, Type 1, BuildingBlock: GEDQOX_clean_sbu_0, # of connection points: 6
#     Node 11, Type 1, BuildingBlock: GEDQOX_clean_sbu_0, # of connection points: 6
#     Edge 12, Type (0, 1), BuildingBlock: XIVTED_clean_linker_0, # of connection points: 2
#     Edge 13, Type (0, 1), BuildingBlock: XIVTED_clean_linker_0, # of connection points: 2
#     Edge 14, Type (0, 1), BuildingBlock: XIVTED_clean_linker_0, # of connection points: 2
#     Edge 15, Type (0, 1), BuildingBlock: XIVTED_clean_linker_0, # of connection points: 2
#     Edge 16, Type (0, 1), BuildingBlock: XIVTED_clean_linker_0, # of connection points: 2
#     Edge 17, Type (0, 1), BuildingBlock: XIVTED_clean_linker_0, # of connection points: 2
#     Edge 18, Type (0, 1), BuildingBlock: XIVTED_clean_linker_0, # of connection points: 2
#     Edge 19, Type (0, 1), BuildingBlock: XIVTED_clean_linker_0, # of connection points: 2
#     Edge 20, Type (0, 1), BuildingBlock: XIVTED_clean_linker_0, # of connection points: 2
#     Edge 21, Type (0, 1), BuildingBlock: XIVTED_clean_linker_0, # of connection points: 2
#     Edge 22, Type (0, 1), BuildingBlock: XIVTED_clean_linker_0, # of connection points: 2
#     Edge 23, Type (0, 1), BuildingBlock: XIVTED_clean_linker_0, # of connection points: 2
#     Edge 24, Type (0, 1), BuildingBlock: XIVTED_clean_linker_0, # of connection points: 2
#     Edge 25, Type (0, 1), BuildingBlock: XIVTED_clean_linker_0, # of connection points: 2
#     Edge 26, Type (0, 1), BuildingBlock: XIVTED_clean_linker_0, # of connection points: 2
#     Edge 27, Type (0, 1), BuildingBlock: XIVTED_clean_linker_0, # of connection points: 2
#     Edge 28, Type (0, 1), BuildingBlock: XIVTED_clean_linker_0, # of connection points: 2
#     Edge 29, Type (0, 1), BuildingBlock: XIVTED_clean_linker_0, # of connection points: 2
#     Edge 30, Type (0, 1), BuildingBlock: XIVTED_clean_linker_0, # of connection points: 2
#     Edge 31, Type (0, 1), BuildingBlock: XIVTED_clean_linker_0, # of connection points: 2
#     Edge 32, Type (0, 1), BuildingBlock: XIVTED_clean_linker_0, # of connection points: 2
#     Edge 33, Type (0, 1), BuildingBlock: XIVTED_clean_linker_0, # of connection points: 2
#     Edge 34, Type (0, 1), BuildingBlock: XIVTED_clean_linker_0, # of connection points: 2
#     Edge 35, Type (0, 1), BuildingBlock: XIVTED_clean_linker_0, # of connection points: 2
# Relax obj value: 0.067
# Max RMSD: 0.161
# Mean RMSD: 0.050
data_MOF--net-zzz--node1-GEDQOX_clean_sbu_0--node2-QEWDON_clean_linker_0--edge1-XIVTED_clean_linker_0
_symmetry_space_group_name_H-M    P1
_symmetry_Int_Tables_number       1
_symmetry_cell_setting            triclinic
loop_
_symmetry_equiv_pos_as_xyz
'x, y, z'
_cell_length_a     58.383974
_cell_length_b     57.36584
_cell_length_c     17.080648
_cell_angle_alpha  80.193799
_cell_angle_beta   89.406768
_cell_angle_gamma 98.982747
loop_
_atom_site_label
_atom_site_type_symbol
_atom_site_fract_x
_atom_site_fract_y
_atom_site_fract_z
_atom_type_partial_charge
H0 H 0.8056 0.54115 0.03207 0.0
C1 C 0.80943 0.54272 0.09309 0.0
C2 C 0.82812 0.53274 0.12906 0.0
C3 C 0.79683 0.55636 0.13362 0.0
H4 H 0.8484 0.52926 0.23393 0.0
C5 C 0.83335 0.53581 0.20699 0.0
C6 C 0.82161 0.55004 0.24691 0.0
C7 C 0.80337 0.56042 0.20994 0.0
C8 C 0.78025 0.57038 0.09017 0.0
H9 H 0.79496 0.57241 0.23892 0.0
C10 C 0.75697 0.56031 0.0811 0.0
C11 C 0.74181 0.5743 0.03799 0.0
C12 C 0.7882 0.59438 0.05656 0.0
H13 H 0.80602 0.60237 0.06299 0.0
C14 C 0.77335 0.60821 0.01414 0.0
H15 H 0.7508 0.54176 0.10691 0.0
C16 C 0.75038 0.59833 0.00484 0.0
H17 H 0.73917 0.60969 0.97271 0.0
H18 H 0.77965 0.62674 0.98855 0.0
H19 H 0.03672 0.79556 0.14068 0.0
C20 C 0.03596 0.7994 0.20054 0.0
C21 C 0.04491 0.82255 0.21469 0.0
C22 C 0.02431 0.78186 0.26237 0.0
H23 H 0.04884 0.84579 0.30182 0.0
C24 C 0.0429 0.82771 0.29143 0.0
C25 C 0.03052 0.81124 0.35263 0.0
C26 C 0.02117 0.78826 0.33817 0.0
C27 C 0.01183 0.75858 0.24435 0.0
H28 H 0.01095 0.77568 0.38492 0.0
C29 C 0.02284 0.7428 0.20623 0.0
C30 C 0.00977 0.72152 0.1874 0.0
C31 C 0.98792 0.7526 0.26335 0.0
H32 H 0.97895 0.76433 0.29148 0.0
C33 C 0.97513 0.7318 0.24468 0.0
H34 H 0.04126 0.74706 0.19128 0.0
C35 C 0.98587 0.71647 0.20694 0.0
H36 H 0.97545 0.70032 0.19398 0.0
H37 H 0.9567 0.72756 0.25945 0.0
H38 H 0.75796 0.02493 0.01289 0.0
C39 C 0.75386 0.0219 0.07623 0.0
C40 C 0.73526 0.03137 0.10486 0.0
C41 C 0.76639 1.00731 0.12846 0.0
H42 H 0.71493 0.0329 0.20946 0.0
C43 C 0.72988 0.02667 0.18683 0.0
C44 C 0.74175 0.01168 0.23938 0.0
C45 C 0.76002 1.00189 0.21006 0.0
C46 C 0.78322 0.99456 0.09492 0.0
H47 H 0.76858 0.98942 0.24979 0.0
C48 C 0.80723 1.00335 0.0894 0.0
C49 C 0.82255 0.99185 0.0506 0.0
C50 C 0.77474 0.97402 0.06325 0.0
H51 H 0.75632 0.96711 0.06667 0.0
C52 C 0.78986 0.96242 0.02601 0.0
H53 H 0.81381 0.01938 0.113 0.0
C54 C 0.81357 0.97131 0.01926 0.0
H55 H 0.82495 0.96197 0.99002 0.0
H56 H 0.78316 0.94658 0.00172 0.0
H57 H 0.5264 0.79911 0.32263 0.0
C58 C 0.52835 0.78627 0.37536 0.0
C59 C 0.51861 0.76228 0.37673 0.0
C60 C 0.54074 0.79333 0.44051 0.0
H61 H 0.51588 0.7261 0.44 0.0
C62 C 0.52239 0.74484 0.44091 0.0
C63 C 0.5354 0.75096 0.50447 0.0
C64 C 0.54384 0.77521 0.50584 0.0
C65 C 0.55106 0.81922 0.43857 0.0
H66 H 0.55313 0.77957 0.5572 0.0
C67 C 0.54212 0.83812 0.38996 0.0
C68 C 0.55231 0.86221 0.38681 0.0
C69 C 0.57046 0.82537 0.48387 0.0
H70 H 0.57874 0.81185 0.51948 0.0
C71 C 0.58008 0.84929 0.48265 0.0
H72 H 0.52709 0.83446 0.3549 0.0
C73 C 0.57107 0.86761 0.43468 0.0
H74 H 0.57922 0.88601 0.43317 0.0
H75 H 0.59491 0.85363 0.51803 0.0
H76 H 0.26943 0.56857 0.73584 0.0
C77 C 0.26249 0.55651 0.69632 0.0
C78 C 0.2388 0.54693 0.70191 0.0
C79 C 0.277 0.55142 0.63715 0.0
H80 H 0.21121 0.52561 0.65155 0.0
C81 C 0.22974 0.53212 0.64886 0.0
C82 C 0.24359 0.52778 0.58718 0.0
C83 C 0.26735 0.53753 0.58133 0.0
C84 C 0.30124 0.56398 0.62601 0.0
H85 H 0.2781 0.53495 0.53238 0.0
C86 C 0.31957 0.55459 0.66709 0.0
C87 C 0.34221 0.56795 0.65924 0.0
C88 C 0.30576 0.58642 0.57625 0.0
H89 H 0.29186 0.5939 0.54452 0.0
C90 C 0.32811 0.59954 0.56794 0.0
H91 H 0.31615 0.53731 0.70595 0.0
C92 C 0.34618 0.59048 0.60937 0.0
H93 H 0.3634 0.60102 0.60172 0.0
H94 H 0.33142 0.61688 0.52955 0.0
H95 H 0.02836 0.28136 0.68889 0.0
C96 C 0.03285 0.27787 0.63073 0.0
C97 C 0.04091 0.25632 0.62424 0.0
C98 C 0.0292 0.29415 0.56159 0.0
H99 H 0.05099 0.23442 0.54347 0.0
C100 C 0.04569 0.25142 0.54882 0.0
C101 C 0.04144 0.26659 0.47969 0.0
C102 C 0.03316 0.28801 0.48583 0.0
C103 C 0.01781 0.31547 0.56799 0.0
H104 H 0.02931 0.29955 0.43212 0.0
C105 C 0.02602 0.33259 0.61683 0.0
C106 C 0.01386 0.35189 0.62281 0.0
C107 C 0.9976 0.31817 0.52566 0.0
H108 H 0.9907 0.30533 0.48871 0.0
C109 C 0.98566 0.33703 0.53171 0.0
H110 H 0.0416 0.33088 0.64979 0.0
C111 C 0.99362 0.35366 0.57986 0.0
H112 H 0.98404 0.36824 0.58276 0.0
H113 H 0.97007 0.33875 0.49893 0.0
H114 H 0.30005 0.02 0.74596 0.0
C115 C 0.30882 0.03218 0.6952 0.0
C116 C 0.33292 0.03937 0.69473 0.0
C117 C 0.29635 0.03948 0.62765 0.0
H118 H 0.3631 0.0591 0.62759 0.0
C119 C 0.34435 0.05437 0.62805 0.0
C120 C 0.3324 0.06141 0.55964 0.0
C121 C 0.3083 0.05376 0.55951 0.0
C122 C 0.2716 0.02919 0.62381 0.0
H123 H 0.29894 0.05844 0.50611 0.0
C124 C 0.2542 0.0351 0.67141 0.0
C125 C 0.23091 0.02418 0.66833 0.0
C126 C 0.26549 0.01261 0.57293 0.0
H127 H 0.27862 1.00784 0.53602 0.0
C128 C 0.24251 1.00169 0.57033 0.0
H129 H 0.25874 0.04801 0.71049 0.0
C130 C 0.22533 1.00733 0.61792 0.0
H131 H 0.20754 0.99879 0.61445 0.0
H132 H 0.23798 0.98881 0.53129 0.0
H133 H 0.54182 0.27753 0.47067 0.0
C134 C 0.53744 0.29127 0.42415 0.0
C135 C 0.53293 0.31258 0.44519 0.0
C136 C 0.53682 0.28802 0.34399 0.0
H137 H 0.52595 0.34801 0.40382 0.0
C138 C 0.52895 0.33138 0.38635 0.0
C139 C 0.53051 0.32986 0.30566 0.0
C140 C 0.53349 0.30774 0.2845 0.0
C141 C 0.54088 0.26447 0.32394 0.0
H142 H 0.53375 0.30625 0.22223 0.0
C143 C 0.53513 0.24299 0.37996 0.0
C144 C 0.54062 0.22111 0.36473 0.0
C145 C 0.55151 0.26324 0.25068 0.0
H146 H 0.5568 0.27916 0.20659 0.0
C147 C 0.5562 0.2414 0.23408 0.0
H148 H 0.52625 0.24307 0.43583 0.0
C149 C 0.55093 0.2205 0.29063 0.0
H150 H 0.55549 0.20399 0.27712 0.0
H151 H 0.56448 0.24077 0.17765 0.0
Nd152 Nd 0.02865 0.03177 0.84404 0.0
Nd153 Nd 0.04328 0.04491 -0.0004 0.0
C154 C 0.0102 1.00812 0.73293 0.0
C155 C 0.01125 0.98469 0.70735 0.0
C156 C 0.99088 0.96797 0.70783 0.0
C157 C 0.9914 0.94604 0.68229 0.0
C158 C 0.01232 0.94022 0.65506 0.0
C159 C 0.03275 0.95697 0.6553 0.0
C160 C 0.03223 0.97884 0.68119 0.0
C161 C 0.07577 0.047 0.84817 0.0
C162 C 0.04337 0.99027 0.98515 0.0
C163 C 0.0616 0.0684 0.11118 0.0
C164 C 0.05881 0.09122 0.13715 0.0
C165 C 0.07453 0.10096 0.18904 0.0
C166 C 0.07229 0.12276 0.21288 0.0
C167 C 0.05428 0.13544 0.18516 0.0
C168 C 0.03855 0.12553 0.13293 0.0
C169 C 0.04079 0.10369 0.10928 0.0
C170 C 0.9964 0.02907 0.99609 0.0
C171 C 0.02962 0.0867 0.85633 0.0
O172 O 0.99969 1.00745 0.80148 0.0
O173 O 0.02878 0.02446 0.72049 0.0
O174 O 0.06322 0.05298 0.78809 0.0
O175 O 0.0634 0.03319 0.90355 0.0
O176 O 0.03042 0.9954 0.92373 0.0
O177 O 0.05371 1.00738 0.02161 0.0
O178 O 0.07141 0.07033 0.04069 0.0
O179 O 0.04382 0.0511 0.12459 0.0
O180 O 0.00894 0.02369 0.05678 0.0
O181 O 0.00847 0.04309 0.94033 0.0
O182 O 0.04062 0.08135 0.92232 0.0
O183 O 0.02057 0.07008 0.81583 0.0
H184 H 0.97446 0.9719 0.7278 0.0
H185 H 0.97534 0.93359 0.68437 0.0
H186 H 0.04916 0.95348 0.63379 0.0
H187 H 0.0483 0.99125 0.67994 0.0
H188 H 0.08856 0.09167 0.21133 0.0
H189 H 0.08454 0.12949 0.25409 0.0
H190 H 0.02463 0.13478 0.10941 0.0
H191 H 0.02848 0.09653 0.06901 0.0
Nd192 Nd 0.53756 0.02432 0.83404 0.0
Nd193 Nd 0.53064 0.05752 0.94677 0.0
C194 C 0.55284 0.99394 0.75299 0.0
C195 C 0.57597 0.99188 0.72153 0.0
C196 C 0.58155 0.96943 0.71422 0.0
C197 C 0.60304 0.96768 0.68003 0.0
C198 C 0.61932 0.98841 0.65221 0.0
C199 C 0.61376 1.01081 0.66173 0.0
C200 C 0.59242 0.0125 0.69619 0.0
C201 C 0.52785 0.06802 0.76047 0.0
C202 C 0.58393 0.05493 0.89893 0.0
C203 C 0.52216 0.09149 0.02432 0.0
C204 C 0.50133 0.09288 0.07152 0.0
C205 C 0.49898 0.11361 0.10194 0.0
C206 C 0.47865 0.11478 0.14462 0.0
C207 C 0.46031 0.09522 0.15724 0.0
C208 C 0.4629 0.0745 0.12639 0.0
C209 C 0.48313 0.07339 0.08391 0.0
C210 C 0.52508 1.00987 0.01821 0.0
C211 C 0.48545 0.02692 0.88444 0.0
O212 O 0.54946 0.98938 0.83021 0.0
O213 O 0.54424 0.01276 0.72008 0.0
O214 O 0.51868 0.04765 0.74225 0.0
O215 O 0.54159 0.065 0.81675 0.0
O216 O 0.57541 0.04021 0.85103 0.0
O217 O 0.57037 0.06435 0.94281 0.0
O218 O 0.51903 0.09241 0.94811 0.0
O219 O 0.53412 0.07474 0.05385 0.0
O220 O 0.51223 0.02491 0.03533 0.0
O221 O 0.54058 0.02032 0.9667 0.0
O222 O 0.49455 0.04813 0.89954 0.0
O223 O 0.49885 0.01156 0.86901 0.0
H224 H 0.56917 0.95328 0.73388 0.0
H225 H 0.60678 0.9501 0.67491 0.0
H226 H 0.62554 0.02724 0.64005 0.0
H227 H 0.58857 0.03007 0.70131 0.0
H228 H 0.51278 0.12891 0.09233 0.0
H229 H 0.47719 0.13108 0.16689 0.0
H230 H 0.44944 0.05891 0.13608 0.0
H231 H 0.48456 0.05725 0.06055 0.0
Nd232 Nd 0.52308 0.54823 0.98554 0.0
Nd233 Nd 0.54509 0.53366 0.83177 0.0
C234 C 0.49919 0.56795 0.08051 0.0
C235 C 0.49414 0.59243 0.07803 0.0
C236 C 0.47136 0.59614 0.09129 0.0
C237 C 0.46664 0.61924 0.09275 0.0
C238 C 0.48471 0.63903 0.08187 0.0
C239 C 0.50735 0.63524 0.06491 0.0
C240 C 0.51197 0.61226 0.06243 0.0
C241 C 0.56932 0.54414 0.98912 0.0
C242 C 0.54143 0.58991 0.82565 0.0
C243 C 0.57248 0.51533 0.745 0.0
C244 C 0.56832 0.49063 0.73029 0.0
C245 C 0.58514 0.48086 0.69325 0.0
C246 C 0.58102 0.45659 0.68597 0.0
C247 C 0.56019 0.44175 0.71704 0.0
C248 C 0.54364 0.45183 0.75484 0.0
C249 C 0.54752 0.47601 0.76022 0.0
C250 C 0.49721 0.52936 0.8232 0.0
C251 C 0.52401 0.49204 0.98795 0.0
O252 O 0.48944 0.55625 0.02693 0.0
O253 O 0.52079 0.56499 0.09184 0.0
O254 O 0.55526 0.538 0.05141 0.0
O255 O 0.55903 0.55312 0.92938 0.0
O256 O 0.52941 0.58365 0.89444 0.0
O257 O 0.55106 0.57443 0.79192 0.0
O258 O 0.57626 0.51693 0.81959 0.0
O259 O 0.55763 0.52891 0.71345 0.0
O260 O 0.5104 0.52473 0.76801 0.0
O261 O 0.50989 0.5353 0.87773 0.0
O262 O 0.53788 0.49855 0.92358 0.0
O263 O 0.51385 0.50745 0.01988 0.0
H264 H 0.45727 0.58112 0.10193 0.0
H265 H 0.44892 0.62148 0.10432 0.0
H266 H 0.52185 0.6498 0.05731 0.0
H267 H 0.52968 0.60999 0.05043 0.0
H268 H 0.60137 0.4919 0.67029 0.0
H269 H 0.59401 0.4496 0.65518 0.0
H270 H 0.52764 0.44106 0.78106 0.0
H271 H 0.53432 0.48325 0.7891 0.0
Nd272 Nd 0.03082 0.55318 0.83604 0.0
Nd273 Nd 0.03874 0.52206 -0.00051 0.0
C274 C 0.01404 0.58167 0.71985 0.0
C275 C 0.99146 0.58066 0.68152 0.0
C276 C 0.98296 0.60187 0.65207 0.0
C277 C 0.96138 0.60102 0.61665 0.0
C278 C 0.94788 0.57889 0.60974 0.0
C279 C 0.95648 0.55767 0.64025 0.0
C280 C 0.97793 0.55855 0.67615 0.0
C281 C 0.03777 0.507 0.82884 0.0
C282 C 0.98536 0.52374 0.95193 0.0
C283 C 0.05374 0.48838 0.10161 0.0
C284 C 0.07546 0.4876 0.14577 0.0
C285 C 0.09718 0.49123 0.10512 0.0
C286 C 0.1177 0.49212 0.14678 0.0
C287 C 0.11708 0.4893 0.2302 0.0
C288 C 0.09532 0.48503 0.27096 0.0
C289 C 0.07476 0.4842 0.22917 0.0
C290 C 0.04057 0.56944 0.02102 0.0
C291 C 0.08323 0.55445 0.88922 0.0
O292 O 0.01392 0.58491 0.79375 0.0
O293 O 0.02663 0.56556 0.70762 0.0
O294 O 0.04634 0.52571 0.77694 0.0
O295 O 0.02561 0.51302 0.88179 0.0
O296 O 0.99365 0.53905 0.88725 0.0
O297 O 0.99901 0.51348 0.0039 0.0
O298 O 0.05571 0.4899 0.0243 0.0
O299 O 0.03953 0.50201 0.12282 0.0
O300 O 0.04301 0.55188 0.07751 0.0
O301 O 0.03735 0.56123 0.95728 0.0
O302 O 0.07509 0.53485 0.94048 0.0
O303 O 0.0693 0.56746 0.84746 0.0
H304 H 0.99301 0.61911 0.65663 0.0
H305 H 0.95523 0.61772 0.59519 0.0
H306 H 0.94688 0.54029 0.6351 0.0
H307 H 0.98402 0.54191 0.69934 0.0
H308 H 0.09843 0.49372 0.04086 0.0
H309 H 0.13408 0.49507 0.11346 0.0
H310 H 0.09417 0.48303 0.33514 0.0
H311 H 0.0583 0.48136 0.26204 0.0
H312 H 0.20218 0.9947 0.78274 0.0
H313 H 0.10568 0.07759 0.73967 0.0
H314 H 0.21576 0.06736 0.65608 0.0
H315 H 0.10336 0.01777 0.932 0.0
H316 H 0.14625 0.07491 0.70999 0.0
H317 H 0.16642 1.00307 0.84098 0.0
C318 C 0.19781 0.01258 0.76865 0.0
C319 C 0.2119 0.03042 0.71498 0.0
C320 C 0.137 0.06261 0.7595 0.0
C321 C 0.17072 0.03997 0.77929 0.0
C322 C 0.11385 0.06412 0.77638 0.0
C323 C 0.10112 0.0478 0.83804 0.0
C324 C 0.14739 0.04432 0.80355 0.0
C325 C 0.11254 0.03071 0.88386 0.0
C326 C 0.17741 0.01735 0.80171 0.0
C327 C 0.20541 0.05322 0.69782 0.0
N328 N 0.1349 0.02915 0.86485 0.0
N329 N 0.18508 0.05725 0.72881 0.0
H330 H 0.54997 0.21706 0.52317 0.0
H331 H 0.50544 0.0755 0.62164 0.0
H332 H 0.52236 0.1751 0.34869 0.0
H333 H 0.54892 0.11319 0.7776 0.0
H334 H 0.50684 0.11304 0.52819 0.0
H335 H 0.54518 0.18044 0.62357 0.0
C336 C 0.54267 0.20018 0.50616 0.0
C337 C 0.53658 0.19917 0.42725 0.0
C338 C 0.51603 0.11317 0.58292 0.0
C339 C 0.53113 0.15716 0.54194 0.0
C340 C 0.51517 0.09174 0.63652 0.0
C341 C 0.52723 0.09118 0.7073 0.0
C342 C 0.52889 0.13436 0.60023 0.0
C343 C 0.53947 0.11281 0.7235 0.0
C344 C 0.54009 0.17927 0.5634 0.0
C345 C 0.52749 0.17673 0.4085 0.0
N346 N 0.54004 0.13353 0.67027 0.0
N347 N 0.52502 0.15667 0.46533 0.0
H348 H 0.3722 0.59054 0.75422 0.0
H349 H 0.46643 0.50559 0.73435 0.0
H350 H 0.35785 0.52526 0.65807 0.0
H351 H 0.47174 0.55806 0.88878 0.0
H352 H 0.42649 0.51188 0.70741 0.0
H353 H 0.40822 0.57845 0.80685 0.0
C354 C 0.37653 0.57347 0.74519 0.0
C355 C 0.36207 0.55889 0.70156 0.0
C356 C 0.43622 0.52174 0.74829 0.0
C357 C 0.40355 0.5451 0.76038 0.0
C358 C 0.45902 0.51818 0.76361 0.0
C359 C 0.4723 0.53114 0.81463 0.0
C360 C 0.42674 0.53882 0.78286 0.0
C361 C 0.46195 0.54734 0.85051 0.0
C362 C 0.39708 0.56657 0.77526 0.0
C363 C 0.36846 0.53695 0.69169 0.0
N364 N 0.4399 0.55095 0.8332 0.0
N365 N 0.3889 0.53088 0.7198 0.0
H366 H 0.05473 0.38388 0.6085 0.0
H367 H 0.00916 0.46548 0.89896 0.0
H368 H 0.9898 0.36438 0.74325 0.0
H369 H 0.06438 0.49161 0.72149 0.0
H370 H 1.00589 0.42566 0.86066 0.0
H371 H 0.06283 0.42037 0.66816 0.0
C372 C 0.04251 0.38692 0.65235 0.0
C373 C 0.02163 0.37094 0.67124 0.0
C374 C 0.01887 0.44006 0.83055 0.0
C375 C 0.03053 0.41294 0.73892 0.0
C376 C 0.02079 0.46279 0.85266 0.0
C377 C 0.03697 0.48203 0.8131 0.0
C378 C 0.0334 0.43635 0.7689 0.0
C379 C 0.05155 0.4774 0.75336 0.0
C380 C 0.04698 0.4079 0.68574 0.0
C381 C 1.00616 0.37613 0.72724 0.0
N382 N 0.04939 0.45517 0.73304 0.0
N383 N 0.01084 0.39661 0.75866 0.0
H384 H 0.85254 1.00316 0.16606 0.0
H385 H 0.96611 0.03638 0.87581 0.0
H386 H 0.85025 1.00056 0.91546 0.0
H387 H 0.96825 0.01247 0.12869 0.0
H388 H 0.92348 0.02966 0.88784 0.0
H389 H 0.89501 0.0137 0.15204 0.0
C390 C 0.86096 1.00515 0.10796 0.0
C391 C 0.84791 1.00086 0.04194 0.0
C392 C 0.93333 0.02592 0.94062 0.0
C393 C 0.89636 0.01285 0.02538 0.0
C394 C 0.95761 0.02975 0.93376 0.0
C395 C 0.97071 0.02488 0.00127 0.0
C396 C 0.92211 0.01756 0.01572 0.0
C397 C 0.95883 0.01635 0.07502 0.0
C398 C 0.88517 1.01096 0.10006 0.0
C399 C 0.85971 1.0035 0.96802 0.0
N400 N 0.93525 0.01307 0.08034 0.0
N401 N 0.88324 1.00932 0.9617 0.0
H402 H 0.54974 0.86679 0.22549 0.0
H403 H 0.50343 0.99225 0.16353 0.0
H404 H 0.53762 0.90252 0.42085 0.0
H405 H 0.54905 0.97442 0.99045 0.0
H406 H 0.50746 0.95487 0.25243 0.0
H407 H 0.54099 0.9017 0.13224 0.0
C408 C 0.54483 0.88182 0.24866 0.0
C409 C 0.54437 0.88184 0.33079 0.0
C410 C 0.51643 0.95909 0.19471 0.0
C411 C 0.53427 0.92158 0.22504 0.0
C412 C 0.51409 0.98035 0.14383 0.0
C413 C 0.52601 0.98648 0.06956 0.0
C414 C 0.5304 0.9436 0.17054 0.0
C415 C 0.5396 0.97039 0.0472 0.0
C416 C 0.54004 0.90175 0.19557 0.0
C417 C 0.5382 0.90186 0.35789 0.0
N418 N 0.54139 0.94963 0.09739 0.0
N419 N 0.53331 0.92091 0.30518 0.0
H420 H 0.71008 0.54675 0.15044 0.0
H421 H 0.60211 0.56109 0.86854 0.0
H422 H 0.71666 0.58021 0.90351 0.0
H423 H 0.59454 0.52884 0.11649 0.0
H424 H 0.64431 0.56467 0.87744 0.0
H425 H 0.66812 0.53606 0.13638 0.0
C426 C 0.70278 0.55151 0.09299 0.0
C427 C 0.71692 0.56465 0.02835 0.0
C428 C 0.63345 0.55666 0.92988 0.0
C429 C 0.66884 0.55275 0.01196 0.0
C430 C 0.60934 0.55459 0.92473 0.0
C431 C 0.5948 0.54479 0.99199 0.0
C432 C 0.64318 0.54894 0.00294 0.0
C433 C 0.60512 0.53663 0.06325 0.0
C434 C 0.67878 0.54557 0.0851 0.0
C435 C 0.70641 0.57047 0.95541 0.0
N436 N 0.62865 0.53902 0.06701 0.0
N437 N 0.68308 0.56466 0.94941 0.0
H438 H 0.04483 0.69651 0.24075 0.0
H439 H 0.02384 0.60645 0.9239 0.0
H440 H 0.99716 0.70458 0.05099 0.0
H441 H 0.05504 0.58925 0.14955 0.0
H442 H 0.01988 0.64602 0.95557 0.0
H443 H 0.05522 0.66118 0.19329 0.0
C444 C 0.03704 0.69126 0.18782 0.0
C445 C 0.02017 0.70363 0.14968 0.0
C446 C 0.02778 0.63364 0.99783 0.0
C447 C 0.03168 0.66289 0.09547 0.0
C448 C 0.03011 0.61108 0.97955 0.0
C449 C 0.0397 0.5944 0.03419 0.0
C450 C 0.03538 0.63977 0.07087 0.0
C451 C 0.04743 0.60143 0.10571 0.0
C452 C 0.04275 0.67091 0.16122 0.0
C453 C 0.01029 0.69564 0.08214 0.0
N454 N 0.04511 0.62344 0.1219 0.0
N455 N 0.01608 0.67583 0.05751 0.0
H456 H 1.00507 0.23405 0.72873 0.0
H457 H 0.04199 0.11291 0.70944 0.0
H458 H 0.07639 0.23179 0.66733 0.0
H459 H 0.01558 0.11841 0.94103 0.0
H460 H 0.04596 0.15678 0.67148 0.0
H461 H 1.00103 0.19197 0.79614 0.0
C462 C 0.02015 0.22509 0.73259 0.0
C463 C 0.04107 0.23634 0.69198 0.0
C464 C 0.03906 0.14823 0.73029 0.0
C465 C 0.03614 0.18828 0.76431 0.0
C466 C 0.03653 0.12332 0.75146 0.0
C467 C 0.02836 0.11219 0.82813 0.0
C468 C 0.03279 0.16191 0.7855 0.0
C469 C 0.02194 0.12647 0.88127 0.0
C470 C 0.0177 0.20103 0.76979 0.0
C471 C 0.05994 0.2237 0.69756 0.0
N472 N 0.02409 0.15068 0.85882 0.0
N473 N 0.05682 0.20011 0.73044 0.0
H474 H 0.3498 0.05901 0.82066 0.0
H475 H 0.4588 0.99253 0.81443 0.0
H476 H 0.35099 0.9984 0.70372 0.0
H477 H 0.45376 0.0493 0.94712 0.0
H478 H 0.41692 0.98898 0.79371 0.0
H479 H 0.38457 0.04999 0.89069 0.0
C480 C 0.35688 0.04318 0.81253 0.0
C481 C 0.34752 0.02925 0.75737 0.0
C482 C 0.42495 1.00194 0.82847 0.0
C483 C 0.38796 0.0195 0.83337 0.0
C484 C 0.44885 1.00395 0.84029 0.0
C485 C 0.45988 0.02158 0.88098 0.0
C486 C 0.4121 0.0177 0.85758 0.0
C487 C 0.44611 0.03581 0.91371 0.0
C488 C 0.37691 0.03817 0.85156 0.0
C489 C 0.35764 1.00932 0.74684 0.0
N490 N 0.42308 0.03376 0.90044 0.0
N491 N 0.37762 1.00531 0.78319 0.0
H492 H 0.5725 0.31862 0.52616 0.0
H493 H 0.51796 0.41561 0.6945 0.0
H494 H 0.49908 0.31963 0.54435 0.0
H495 H 0.5905 0.4092 0.71697 0.0
H496 H 0.50997 0.37511 0.66887 0.0
H497 H 0.57868 0.34443 0.62672 0.0
C498 C 0.55758 0.3233 0.55454 0.0
C499 C 0.5353 0.31741 0.52671 0.0
C500 C 0.52762 0.38233 0.68059 0.0
C501 C 0.54221 0.34755 0.63851 0.0
C502 C 0.53225 0.40562 0.69568 0.0
C503 C 0.55507 0.41619 0.70718 0.0
C504 C 0.54598 0.36954 0.67438 0.0
C505 C 0.57275 0.40216 0.70612 0.0
C506 C 0.56111 0.33829 0.61115 0.0
C507 C 0.51652 0.32405 0.56421 0.0
N508 N 0.5679 0.37971 0.68845 0.0
N509 N 0.52045 0.33932 0.61683 0.0
H510 H 0.22566 0.59083 0.68891 0.0
H511 H 0.10827 0.5871 0.7692 0.0
H512 H 0.2128 0.51966 0.82737 0.0
H513 H 0.11653 0.53505 0.97708 0.0
H514 H 0.14984 0.59135 0.73754 0.0
H515 H 0.18963 0.5992 0.74569 0.0
C516 C 0.2156 0.57728 0.73345 0.0
C517 C 0.22212 0.55457 0.75397 0.0
C518 C 0.14271 0.57951 0.79132 0.0
C519 C 0.18053 0.56349 0.81614 0.0
C520 C 0.11887 0.57695 0.8091 0.0
C521 C 0.10876 0.56037 0.87508 0.0
C522 C 0.15646 0.56531 0.83991 0.0
C523 C 0.1234 0.54768 0.92462 0.0
C524 C 0.19482 0.58187 0.76454 0.0
C525 C 0.20837 0.53743 0.8106 0.0
N526 N 0.14636 0.5501 0.90526 0.0
N527 N 0.18811 0.54217 0.83921 0.0
H528 H 0.02059 0.8366 0.08425 0.0
H529 H 0.07402 0.97194 0.09152 0.0
H530 H 0.08358 0.85699 0.20226 0.0
H531 H 0.02133 0.95095 0.9303 0.0
H532 H 0.07947 0.92993 0.12656 0.0
H533 H 0.02335 0.87791 0.01453 0.0
C534 C 0.03557 0.84953 0.09285 0.0
C535 C 0.05174 0.8434 0.1498 0.0
C536 C 0.06685 0.93459 0.08303 0.0
C537 C 0.05443 0.891 0.07326 0.0
C538 C 0.06359 0.95855 0.0636 0.0
C539 C 0.04702 0.96502 0.00861 0.0
C540 C 0.05329 0.91693 0.04777 0.0
C541 C 0.0342 0.94687 0.97353 0.0
C542 C 0.03693 0.87327 0.05409 0.0
C543 C 0.07062 0.86106 0.15932 0.0
N544 N 0.03746 0.92372 0.99418 0.0
N545 N 0.07112 0.88417 0.12321 0.0
H546 H 0.71828 0.01773 0.96764 0.0
H547 H 0.60895 0.08249 0.9954 0.0
H548 H 0.71407 0.07012 0.11885 0.0
H549 H 0.61709 0.03629 0.82556 0.0
H550 H 0.64979 0.08325 0.02648 0.0
H551 H 0.6845 0.02971 0.89864 0.0
C552 C 0.7107 0.03225 0.98492 0.0
C553 C 0.71884 0.04265 0.05014 0.0
C554 C 0.64273 0.07325 0.98148 0.0
C555 C 0.67959 0.05595 0.9728 0.0
C556 C 0.61937 0.07282 0.96367 0.0
C557 C 0.60939 0.05899 0.9087 0.0
C558 C 0.65619 0.05959 0.94461 0.0
C559 C 0.62387 0.04698 0.86909 0.0
C560 C 0.6912 0.03893 0.94592 0.0
C561 C 0.70806 0.06122 0.0701 0.0
N562 N 0.6464 0.04727 0.88869 0.0
N563 N 0.68875 0.06696 0.03266 0.0
H564 H 0.53409 0.76838 0.22194 0.0
H565 H 0.45433 0.64857 0.19163 0.0
H566 H 0.4751 0.7371 0.37952 0.0
H567 H 0.50619 0.68415 0.01007 0.0
H568 H 0.45493 0.686 0.23958 0.0
H569 H 0.51824 0.74402 0.12442 0.0
C570 C 0.51735 0.75703 0.23457 0.0
C571 C 0.50603 0.75429 0.30905 0.0
C572 C 0.46591 0.68582 0.18827 0.0
C573 C 0.48812 0.72603 0.19948 0.0
C574 C 0.46544 0.66434 0.1602 0.0
C575 C 0.4808 0.66284 0.09806 0.0
C576 C 0.48223 0.70587 0.1554 0.0
C577 C 0.49477 0.68412 0.06038 0.0
C578 C 0.50836 0.743 0.17924 0.0
C579 C 0.48448 0.73934 0.32301 0.0
N580 N 0.49561 0.7046 0.09097 0.0
N581 N 0.47646 0.72537 0.26948 0.0
H582 H 0.84677 0.55153 0.97958 0.0
H583 H 0.96001 0.49399 0.07744 0.0
H584 H 0.8497 0.49356 0.17469 0.0
H585 H 0.95222 0.54228 0.85947 0.0
H586 H 0.91828 0.48988 0.10608 0.0
H587 H 0.88303 0.544 0.92397 0.0
C588 C 0.85459 0.53667 0.0094 0.0
C589 C 0.84534 0.52343 0.08271 0.0
C590 C 0.92567 0.50112 0.05146 0.0
C591 C 0.88743 0.51528 0.02087 0.0
C592 C 0.94955 0.50353 0.03519 0.0
C593 C 0.9598 0.5188 0.96661 0.0
C594 C 0.91196 0.51425 -0.00083 0.0
C595 C 0.94524 0.53054 0.91372 0.0
C596 C 0.87552 0.53255 0.97809 0.0
C597 C 0.85648 0.50454 0.11886 0.0
N598 N 0.92218 0.52827 0.93164 0.0
N599 N 0.87718 0.50138 0.0886 0.0
H600 H 0.08072 0.2629 0.39854 0.0
H601 H 0.01417 0.15238 0.21927 0.0
H602 H 1.0063 0.2458 0.39832 0.0
H603 H 0.08872 0.17178 0.21169 0.0
H604 H 0.01072 0.18928 0.26894 0.0
H605 H 0.08381 0.23362 0.31161 0.0
C606 C 0.06501 0.25375 0.37703 0.0
C607 C 0.04322 0.25716 0.40437 0.0
C608 C 0.02784 0.18557 0.25581 0.0
C609 C 0.04654 0.22249 0.30824 0.0
C610 C 0.02985 0.16447 0.22705 0.0
C611 C 0.05181 0.15863 0.21166 0.0
C612 C 0.04792 0.20114 0.26964 0.0
C613 C 0.07142 0.17509 0.22413 0.0
C614 C 0.06675 0.23668 0.32854 0.0
C615 C 0.02341 0.24412 0.37713 0.0
N616 N 0.069 0.19539 0.25271 0.0
N617 N 0.02553 0.22711 0.33175 0.0
H618 H 0.36678 0.10032 0.54481 0.0
H619 H 0.41522 0.07671 0.13093 0.0
H620 H 0.33021 0.05016 0.4099 0.0
H621 H 0.45622 0.11516 0.29129 0.0
H622 H 0.38097 0.07378 0.21766 0.0
H623 H 0.39599 0.11352 0.43622 0.0
C624 C 0.36463 0.09249 0.49141 0.0
C625 C 0.3462 0.0739 0.48674 0.0
C626 C 0.39741 0.08307 0.23338 0.0
C627 C 0.37976 0.08868 0.36262 0.0
C628 C 0.41705 0.08463 0.18417 0.0
C629 C 0.43883 0.09586 0.20434 0.0
C630 C 0.39944 0.09288 0.30333 0.0
C631 C 0.43988 0.10638 0.27298 0.0
C632 C 0.38138 0.09993 0.42965 0.0
C633 C 0.34412 0.06454 0.41594 0.0
N634 N 0.42054 0.10443 0.3203 0.0
N635 N 0.36092 0.07176 0.35713 0.0
H636 H 0.55448 0.37386 0.31402 0.0
H637 H 0.52423 0.45186 0.92118 0.0
H638 H 0.50769 0.33765 0.16299 0.0
H639 H 0.51887 0.47474 0.14738 0.0
H640 H 0.52504 0.41074 0.99123 0.0
H641 H 0.55024 0.41217 0.23399 0.0
C642 C 0.54332 0.37392 0.26371 0.0
C643 C 0.53083 0.35243 0.24684 0.0
C644 C 0.52336 0.42476 0.02513 0.0
C645 C 0.52653 0.39655 0.15332 0.0
C646 C 0.52299 0.44818 0.98546 0.0
C647 C 0.52152 0.46674 0.02861 0.0
C648 C 0.523 0.42013 0.10841 0.0
C649 C 0.51989 0.461 0.11179 0.0
C650 C 0.54095 0.39585 0.21821 0.0
C651 C 0.51743 0.35374 0.1787 0.0
N652 N 0.52111 0.43831 0.14895 0.0
N653 N 0.51556 0.37554 0.13423 0.0
H654 H 0.21479 0.4848 0.60479 0.0
H655 H 0.15729 0.52132 0.18905 0.0
H656 H 0.24399 0.54532 0.42788 0.0
H657 H 0.12705 0.46274 0.37198 0.0
H658 H 0.19223 0.52647 0.26584 0.0
H659 H 0.18645 0.47208 0.50989 0.0
C660 C 0.21565 0.49499 0.54498 0.0
C661 C 0.23169 0.51616 0.52413 0.0
C662 C 0.17805 0.51234 0.28887 0.0
C663 C 0.19885 0.50217 0.4158 0.0
C664 C 0.15807 0.50931 0.24486 0.0
C665 C 0.13903 0.49165 0.27424 0.0
C666 C 0.17909 0.49765 0.36304 0.0
C667 C 0.14107 0.47687 0.34753 0.0
C668 C 0.19933 0.48787 0.49103 0.0
C669 C 0.232 0.5288 0.44611 0.0
N670 N 0.16062 0.48029 0.3895 0.0
N671 N 0.21555 0.52185 0.39516 0.0
H672 H 0.06003 0.82496 0.46508 0.0
H673 H 0.97917 0.91586 0.57118 0.0
H674 H 0.98897 0.82194 0.39741 0.0
H675 H 0.04657 0.91156 0.66903 0.0
H676 H 0.98114 0.87946 0.51696 0.0
H677 H 0.05405 0.85352 0.55195 0.0
C678 C 0.04287 0.82956 0.47126 0.0
C679 C 0.02485 0.8207 0.42514 0.0
C680 C 0.99543 0.88635 0.55087 0.0
C681 C 0.01812 0.85447 0.52131 0.0
C682 C 0.99429 0.90719 0.58234 0.0
C683 C 0.01279 0.91715 0.62474 0.0
C684 C 0.01529 0.87526 0.56107 0.0
C685 C 0.03204 0.90504 0.63554 0.0
C686 C 0.03953 0.84617 0.51991 0.0
C687 C 1.00317 0.82792 0.43325 0.0
N688 N 0.03284 0.88495 0.60354 0.0
N689 N 1.00052 0.84466 0.47917 0.0
H690 H 0.74112 0.03855 0.35605 0.0
H691 H 0.62678 0.95775 0.55004 0.0
H692 H 0.71815 0.9679 0.30467 0.0
H693 H 0.66236 0.01612 0.65458 0.0
H694 H 0.66145 0.95929 0.46732 0.0
H695 H 0.71465 0.0292 0.47335 0.0
C696 C 0.73109 0.02074 0.37142 0.0
C697 C 0.73194 1.00385 0.32151 0.0
C698 C 0.66179 0.97154 0.5092 0.0
C699 C 0.70083 0.99336 0.45309 0.0
C700 C 0.64196 0.97061 0.55693 0.0
C701 C 0.64135 0.98707 0.60894 0.0
C702 C 0.68114 0.98926 0.5124 0.0
C703 C 0.66166 1.0035 0.61391 0.0
C704 C 0.71582 0.01546 0.43788 0.0
C705 C 0.71819 0.98124 0.34254 0.0
N706 N 0.68053 1.00442 0.56546 0.0
N707 N 0.70284 0.9768 0.40587 0.0
H708 H 0.51883 0.73617 0.65913 0.0
H709 H 0.56632 0.61127 0.68771 0.0
H710 H 0.56432 0.71996 0.48289 0.0
H711 H 0.52212 0.6267 0.87021 0.0
H712 H 0.56847 0.65246 0.61834 0.0
H713 H 0.52289 0.69801 0.74489 0.0
C714 C 0.53017 0.72486 0.63966 0.0
C715 C 0.54142 0.73119 0.56443 0.0
C716 C 0.55839 0.64691 0.67381 0.0
C717 C 0.5457 0.68741 0.66048 0.0
C718 C 0.55713 0.6233 0.7135 0.0
C719 C 0.54388 0.61531 0.78479 0.0
C720 C 0.54623 0.66278 0.70513 0.0
C721 C 0.53247 0.63193 0.81527 0.0
C722 C 0.53233 0.70301 0.68807 0.0
C723 C 0.55551 0.71573 0.54089 0.0
N724 N 0.53378 0.65477 0.77506 0.0
N725 N 0.5571 0.69453 0.58832 0.0
H726 H 0.82657 0.52115 0.38782 0.0
H727 H 0.93608 0.60972 0.47989 0.0
H728 H 0.84196 0.59444 0.26758 0.0
H729 H 0.90803 0.5456 0.64506 0.0
H730 H 0.90043 0.60568 0.40687 0.0
H731 H 0.85411 0.53068 0.48935 0.0
C732 C 0.83517 0.53946 0.38461 0.0
C733 C 0.83191 0.5571 0.31987 0.0
C734 C 0.90195 0.59265 0.45969 0.0
C735 C 0.86419 0.56794 0.43347 0.0
C736 C 0.92235 0.59499 0.50179 0.0
C737 C 0.92536 0.57782 0.5686 0.0
C738 C 0.88446 0.57285 0.48365 0.0
C739 C 0.90688 0.55895 0.59285 0.0
C740 C 0.85104 0.54488 0.44206 0.0
C741 C 0.8438 0.58045 0.31725 0.0
N742 N 0.88741 0.5568 0.54989 0.0
N743 N 0.85978 0.5851 0.37232 0.0
loop_
_geom_bond_atom_site_label_1
_geom_bond_atom_site_label_2
_geom_bond_distance
_geom_bond_site_symmetry_2
_ccdc_geom_bond_type
H0 C1 0.949 . S
C1 H0 0.949 . S
C1 C2 1.395 . S
C1 C3 1.391 1_556 S
C2 C1 1.395 . S
C2 C5 1.390 1_556 S
C3 C1 1.391 1_554 S
C3 C7 1.387 . S
C3 C8 1.491 . S
H4 C5 0.950 . S
C5 C2 1.390 1_554 S
C5 H4 0.950 . S
C5 C6 1.378 . S
C6 C5 1.378 . S
C6 C7 1.409 . S
C7 C3 1.387 . S
C7 C6 1.409 . S
C7 H9 0.951 . S
C8 C3 1.491 . S
C8 C10 1.382 1_554 S
C8 C12 1.404 . S
H9 C7 0.951 . S
C10 C8 1.382 1_556 S
C10 C11 1.390 . S
C10 H15 0.949 . S
C11 C10 1.390 . S
C11 C16 1.402 . S
C12 C8 1.404 . S
C12 H13 0.950 . S
C12 C14 1.375 . S
H13 C12 0.950 . S
C14 C12 1.375 . S
C14 C16 1.379 1_554 S
C14 H18 0.950 . S
H15 C10 0.949 . S
C16 C11 1.402 . S
C16 C14 1.379 1_556 S
C16 H17 0.952 . S
H17 C16 0.952 . S
H18 C14 0.950 . S
H19 C20 0.949 . S
C20 H19 0.949 . S
C20 C21 1.395 . S
C20 C22 1.391 . S
C21 C20 1.395 . S
C21 C24 1.390 . S
C22 C20 1.391 . S
C22 C26 1.387 . S
C22 C27 1.491 . S
H23 C24 0.950 . S
C24 C21 1.390 . S
C24 H23 0.950 . S
C24 C25 1.378 . S
C25 C24 1.378 . S
C25 C26 1.409 . S
C26 C22 1.387 . S
C26 C25 1.409 . S
C26 H28 0.951 . S
C27 C22 1.491 . S
C27 C29 1.382 . S
C27 C31 1.404 . S
H28 C26 0.951 . S
C29 C27 1.382 . S
C29 C30 1.390 . S
C29 H34 0.950 . S
C30 C29 1.390 . S
C30 C35 1.399 . S
C31 C27 1.404 . S
C31 H32 0.950 . S
C31 C33 1.375 . S
H32 C31 0.950 . S
C33 C31 1.375 . S
C33 C35 1.382 . S
C33 H37 0.950 . S
H34 C29 0.950 . S
C35 C30 1.399 . S
C35 C33 1.382 . S
C35 H36 0.952 . S
H36 C35 0.952 . S
H37 C33 0.950 . S
H38 C39 0.949 1_556 S
C39 H38 0.949 1_554 S
C39 C40 1.395 . S
C39 C41 1.391 . S
C40 C39 1.395 . S
C40 C43 1.390 . S
C41 C39 1.391 . S
C41 C45 1.387 . S
C41 C46 1.491 . S
H42 C43 0.950 . S
C43 C40 1.390 . S
C43 H42 0.950 . S
C43 C44 1.378 . S
C44 C43 1.378 . S
C44 C45 1.409 . S
C45 C41 1.387 . S
C45 C44 1.409 . S
C45 H47 0.951 . S
C46 C41 1.491 . S
C46 C48 1.382 . S
C46 C50 1.404 . S
H47 C45 0.951 . S
C48 C46 1.382 . S
C48 C49 1.390 . S
C48 H53 0.949 1_554 S
C49 C48 1.390 . S
C49 C54 1.399 . S
C50 C46 1.404 . S
C50 H51 0.950 . S
C50 C52 1.375 . S
H51 C50 0.950 . S
C52 C50 1.375 . S
C52 C54 1.382 . S
C52 H56 0.950 . S
H53 C48 0.949 1_556 S
C54 C49 1.399 . S
C54 C52 1.382 . S
C54 H55 0.952 . S
H55 C54 0.952 . S
H56 C52 0.950 . S
H57 C58 0.949 . S
C58 H57 0.949 . S
C58 C59 1.395 . S
C58 C60 1.391 . S
C59 C58 1.395 . S
C59 C62 1.390 . S
C60 C58 1.391 . S
C60 C64 1.387 . S
C60 C65 1.491 . S
H61 C62 0.950 . S
C62 C59 1.390 . S
C62 H61 0.950 . S
C62 C63 1.378 . S
C63 C62 1.378 . S
C63 C64 1.409 . S
C64 C60 1.387 . S
C64 C63 1.409 . S
C64 H66 0.951 . S
C65 C60 1.491 . S
C65 C67 1.382 . S
C65 C69 1.404 . S
H66 C64 0.951 . S
C67 C65 1.382 . S
C67 C68 1.390 . S
C67 H72 0.949 . S
C68 C67 1.390 . S
C68 C73 1.399 . S
C69 C65 1.404 . S
C69 H70 0.950 . S
C69 C71 1.375 . S
H70 C69 0.950 . S
C71 C69 1.375 . S
C71 C73 1.382 . S
C71 H75 0.950 . S
H72 C67 0.949 . S
C73 C68 1.399 . S
C73 C71 1.382 . S
C73 H74 0.952 . S
H74 C73 0.952 . S
H75 C71 0.950 . S
H76 C77 0.949 . S
C77 H76 0.949 . S
C77 C78 1.395 . S
C77 C79 1.391 . S
C78 C77 1.395 . S
C78 C81 1.390 . S
C79 C77 1.391 . S
C79 C83 1.387 . S
C79 C84 1.491 . S
H80 C81 0.950 . S
C81 C78 1.390 . S
C81 H80 0.950 . S
C81 C82 1.378 . S
C82 C81 1.378 . S
C82 C83 1.409 . S
C83 C79 1.387 . S
C83 C82 1.409 . S
C83 H85 0.951 . S
C84 C79 1.491 . S
C84 C86 1.382 . S
C84 C88 1.404 . S
H85 C83 0.951 . S
C86 C84 1.382 . S
C86 C87 1.390 . S
C86 H91 0.949 . S
C87 C86 1.390 . S
C87 C92 1.399 . S
C88 C84 1.404 . S
C88 H89 0.950 . S
C88 C90 1.375 . S
H89 C88 0.950 . S
C90 C88 1.375 . S
C90 C92 1.382 . S
C90 H94 0.950 . S
H91 C86 0.949 . S
C92 C87 1.399 . S
C92 C90 1.382 . S
C92 H93 0.952 . S
H93 C92 0.952 . S
H94 C90 0.950 . S
H95 C96 0.949 . S
C96 H95 0.949 . S
C96 C97 1.395 . S
C96 C98 1.391 . S
C97 C96 1.395 . S
C97 C100 1.390 . S
C98 C96 1.391 . S
C98 C102 1.387 . S
C98 C103 1.491 . S
H99 C100 0.950 . S
C100 C97 1.390 . S
C100 H99 0.950 . S
C100 C101 1.378 . S
C101 C100 1.378 . S
C101 C102 1.409 . S
C102 C98 1.387 . S
C102 C101 1.409 . S
C102 H104 0.951 . S
C103 C98 1.491 . S
C103 C105 1.382 . S
C103 C107 1.404 . S
H104 C102 0.951 . S
C105 C103 1.382 . S
C105 C106 1.390 . S
C105 H110 0.949 . S
C106 C105 1.390 . S
C106 C111 1.399 . S
C107 C103 1.404 . S
C107 H108 0.950 . S
C107 C109 1.375 . S
H108 C107 0.950 . S
C109 C107 1.375 . S
C109 C111 1.382 . S
C109 H113 0.950 . S
H110 C105 0.949 . S
C111 C106 1.399 . S
C111 C109 1.382 . S
C111 H112 0.952 . S
H112 C111 0.952 . S
H113 C109 0.950 . S
H114 C115 0.949 . S
C115 H114 0.949 . S
C115 C116 1.395 . S
C115 C117 1.391 . S
C116 C115 1.395 . S
C116 C119 1.390 . S
C117 C115 1.391 . S
C117 C121 1.387 . S
C117 C122 1.491 . S
H118 C119 0.950 . S
C119 C116 1.390 . S
C119 H118 0.950 . S
C119 C120 1.378 . S
C120 C119 1.378 . S
C120 C121 1.409 . S
C121 C117 1.387 . S
C121 C120 1.409 . S
C121 H123 0.951 . S
C122 C117 1.491 . S
C122 C124 1.382 . S
C122 C126 1.404 . S
H123 C121 0.951 . S
C124 C122 1.382 . S
C124 C125 1.390 . S
C124 H129 0.949 . S
C125 C124 1.390 . S
C125 C130 1.399 . S
C126 C122 1.404 . S
C126 H127 0.950 . S
C126 C128 1.375 . S
H127 C126 0.950 . S
C128 C126 1.375 . S
C128 C130 1.382 . S
C128 H132 0.950 . S
H129 C124 0.949 . S
C130 C125 1.399 . S
C130 C128 1.382 . S
C130 H131 0.952 . S
H131 C130 0.952 . S
H132 C128 0.950 . S
H133 C134 0.949 . S
C134 H133 0.949 . S
C134 C135 1.395 . S
C134 C136 1.391 . S
C135 C134 1.395 . S
C135 C138 1.390 . S
C136 C134 1.391 . S
C136 C140 1.387 . S
C136 C141 1.491 . S
H137 C138 0.950 . S
C138 C135 1.390 . S
C138 H137 0.950 . S
C138 C139 1.378 . S
C139 C138 1.378 . S
C139 C140 1.409 . S
C140 C136 1.387 . S
C140 C139 1.409 . S
C140 H142 0.951 . S
C141 C136 1.491 . S
C141 C143 1.382 . S
C141 C145 1.404 . S
H142 C140 0.951 . S
C143 C141 1.382 . S
C143 C144 1.390 . S
C143 H148 0.949 . S
C144 C143 1.390 . S
C144 C149 1.399 . S
C145 C141 1.404 . S
C145 H146 0.950 . S
C145 C147 1.375 . S
H146 C145 0.950 . S
C147 C145 1.375 . S
C147 C149 1.382 . S
C147 H151 0.950 . S
H148 C143 0.949 . S
C149 C144 1.399 . S
C149 C147 1.382 . S
C149 H150 0.952 . S
H150 C149 0.952 . S
H151 C147 0.950 . S
Nd152 C154 2.836 1_545 S
Nd152 O172 2.517 1_545 S
Nd152 O173 2.473 1_545 S
Nd152 O174 2.487 . S
Nd152 O175 2.682 . S
Nd152 O176 2.410 1_545 S
Nd152 O181 2.384 1_455 S
Nd152 O183 2.424 . S
Nd153 C163 2.836 . S
Nd153 O175 2.414 1_554 S
Nd153 O177 2.424 1_545 S
Nd153 O178 2.500 . S
Nd153 O179 2.492 . S
Nd153 O180 2.487 1_455 S
Nd153 O181 2.656 1_454 S
Nd153 O182 2.410 1_554 S
C154 Nd152 2.836 1_565 S
C154 C155 1.498 . S
C154 O172 1.286 . S
C154 O173 1.248 . S
C155 C154 1.498 . S
C155 C156 1.366 1_455 S
C155 C160 1.407 . S
C156 C155 1.366 1_655 S
C156 C157 1.392 . S
C156 H184 0.930 . S
C157 C156 1.392 . S
C157 C158 1.398 1_655 S
C157 H185 0.929 . S
C158 C157 1.398 1_455 S
C158 C159 1.352 . S
C159 C158 1.352 . S
C159 C160 1.384 . S
C159 H186 0.930 . S
C160 C155 1.407 . S
C160 C159 1.384 . S
C160 H187 0.929 . S
C161 O174 1.241 . S
C161 O175 1.273 . S
C162 O176 1.251 . S
C162 O177 1.268 1_556 S
C163 Nd153 2.836 . S
C163 C164 1.498 . S
C163 O178 1.258 . S
C163 O179 1.239 . S
C164 C163 1.498 . S
C164 C165 1.366 . S
C164 C169 1.407 . S
C165 C164 1.366 . S
C165 C166 1.392 . S
C165 H188 0.930 . S
C166 C165 1.392 . S
C166 C167 1.398 . S
C166 H189 0.929 . S
C167 C166 1.398 . S
C167 C168 1.352 . S
C168 C167 1.352 . S
C168 C169 1.384 . S
C168 H190 0.930 . S
C169 C164 1.407 . S
C169 C168 1.384 . S
C169 H191 0.929 . S
C170 O180 1.241 1_556 S
C170 O181 1.312 . S
C171 O182 1.251 . S
C171 O183 1.268 . S
O172 Nd152 2.517 1_565 S
O172 C154 1.286 . S
O173 Nd152 2.473 1_565 S
O173 C154 1.248 . S
O174 Nd152 2.487 . S
O174 C161 1.241 . S
O175 Nd152 2.682 . S
O175 Nd153 2.414 1_556 S
O175 C161 1.273 . S
O176 Nd152 2.410 1_565 S
O176 C162 1.251 . S
O177 Nd153 2.424 1_565 S
O177 C162 1.268 1_554 S
O178 Nd153 2.500 . S
O178 C163 1.258 . S
O179 Nd153 2.492 . S
O179 C163 1.239 . S
O180 Nd153 2.487 1_655 S
O180 C170 1.241 1_554 S
O181 Nd152 2.384 1_655 S
O181 Nd153 2.656 1_656 S
O181 C170 1.312 . S
O182 Nd153 2.410 1_556 S
O182 C171 1.251 . S
O183 Nd152 2.424 . S
O183 C171 1.268 . S
H184 C156 0.930 . S
H185 C157 0.929 . S
H186 C159 0.930 . S
H187 C160 0.929 . S
H188 C165 0.930 . S
H189 C166 0.929 . S
H190 C168 0.930 . S
H191 C169 0.929 . S
Nd192 C194 2.836 . S
Nd192 O212 2.500 1_545 S
Nd192 O213 2.492 . S
Nd192 O214 2.487 . S
Nd192 O215 2.682 . S
Nd192 O216 2.410 . S
Nd192 O221 2.419 . S
Nd192 O223 2.424 . S
Nd193 C203 2.836 . S
Nd193 O215 2.414 1_554 S
Nd193 O217 2.424 1_554 S
Nd193 O218 2.500 . S
Nd193 O219 2.492 . S
Nd193 O220 2.487 1_545 S
Nd193 O221 2.697 1_554 S
Nd193 O222 2.410 1_554 S
C194 Nd192 2.836 . S
C194 C195 1.498 1_545 S
C194 O212 1.258 1_545 S
C194 O213 1.239 . S
C195 C194 1.498 1_565 S
C195 C196 1.366 . S
C195 C200 1.407 1_565 S
C196 C195 1.366 . S
C196 C197 1.392 . S
C196 H224 0.930 . S
C197 C196 1.392 . S
C197 C198 1.398 . S
C197 H225 0.929 . S
C198 C197 1.398 . S
C198 C199 1.352 1_565 S
C199 C198 1.352 1_545 S
C199 C200 1.384 . S
C199 H226 0.930 . S
C200 C195 1.407 1_545 S
C200 C199 1.384 . S
C200 H227 0.929 . S
C201 O214 1.241 . S
C201 O215 1.273 . S
C202 O216 1.251 . S
C202 O217 1.268 . S
C203 Nd193 2.836 . S
C203 C204 1.498 . S
C203 O218 1.258 . S
C203 O219 1.239 . S
C204 C203 1.498 . S
C204 C205 1.366 . S
C204 C209 1.407 . S
C205 C204 1.366 . S
C205 C206 1.392 . S
C205 H228 0.930 . S
C206 C205 1.392 . S
C206 C207 1.398 . S
C206 H229 0.929 . S
C207 C206 1.398 . S
C207 C208 1.352 . S
C208 C207 1.352 . S
C208 C209 1.384 . S
C208 H230 0.930 . S
C209 C204 1.407 . S
C209 C208 1.384 . S
C209 H231 0.929 . S
C210 O220 1.241 1_556 S
C210 O221 1.265 1_565 S
C211 O222 1.251 . S
C211 O223 1.268 . S
O212 Nd192 2.500 1_565 S
O212 C194 1.258 1_565 S
O213 Nd192 2.492 . S
O213 C194 1.239 . S
O214 Nd192 2.487 . S
O214 C201 1.241 . S
O215 Nd192 2.682 . S
O215 Nd193 2.414 1_556 S
O215 C201 1.273 . S
O216 Nd192 2.410 . S
O216 C202 1.251 . S
O217 Nd193 2.424 1_556 S
O217 C202 1.268 . S
O218 Nd193 2.500 . S
O218 C203 1.258 . S
O219 Nd193 2.492 . S
O219 C203 1.239 . S
O220 Nd193 2.487 1_565 S
O220 C210 1.241 1_554 S
O221 Nd192 2.419 . S
O221 Nd193 2.697 1_556 S
O221 C210 1.265 1_545 S
O222 Nd193 2.410 1_556 S
O222 C211 1.251 . S
O223 Nd192 2.424 . S
O223 C211 1.268 . S
H224 C196 0.930 . S
H225 C197 0.929 . S
H226 C199 0.930 . S
H227 C200 0.929 . S
H228 C205 0.930 . S
H229 C206 0.929 . S
H230 C208 0.930 . S
H231 C209 0.929 . S
Nd232 C234 2.836 . S
Nd232 O252 2.500 . S
Nd232 O253 2.492 . S
Nd232 O254 2.487 1_554 S
Nd232 O255 2.682 1_554 S
Nd232 O256 2.410 1_554 S
Nd232 O261 2.414 1_554 S
Nd232 O263 2.424 . S
Nd233 C243 2.836 . S
Nd233 O255 2.414 . S
Nd233 O257 2.424 . S
Nd233 O258 2.500 . S
Nd233 O259 2.492 . S
Nd233 O260 2.487 . S
Nd233 O261 2.682 . S
Nd233 O262 2.410 . S
C234 Nd232 2.836 . S
C234 C235 1.498 . S
C234 O252 1.258 . S
C234 O253 1.239 . S
C235 C234 1.498 . S
C235 C236 1.366 . S
C235 C240 1.407 . S
C236 C235 1.366 . S
C236 C237 1.392 . S
C236 H264 0.930 . S
C237 C236 1.392 . S
C237 C238 1.398 . S
C237 H265 0.929 . S
C238 C237 1.398 . S
C238 C239 1.352 . S
C239 C238 1.352 . S
C239 C240 1.384 . S
C239 H266 0.930 . S
C240 C235 1.407 . S
C240 C239 1.384 . S
C240 H267 0.929 . S
C241 O254 1.241 . S
C241 O255 1.273 . S
C242 O256 1.251 . S
C242 O257 1.268 . S
C243 Nd233 2.836 . S
C243 C244 1.498 . S
C243 O258 1.258 . S
C243 O259 1.239 . S
C244 C243 1.498 . S
C244 C245 1.366 . S
C244 C249 1.407 . S
C245 C244 1.366 . S
C245 C246 1.392 . S
C245 H268 0.930 . S
C246 C245 1.392 . S
C246 C247 1.398 . S
C246 H269 0.929 . S
C247 C246 1.398 . S
C247 C248 1.352 . S
C248 C247 1.352 . S
C248 C249 1.384 . S
C248 H270 0.930 . S
C249 C244 1.407 . S
C249 C248 1.384 . S
C249 H271 0.929 . S
C250 O260 1.241 . S
C250 O261 1.273 . S
C251 O262 1.251 . S
C251 O263 1.268 1_556 S
O252 Nd232 2.500 . S
O252 C234 1.258 . S
O253 Nd232 2.492 . S
O253 C234 1.239 . S
O254 Nd232 2.487 1_556 S
O254 C241 1.241 . S
O255 Nd232 2.682 1_556 S
O255 Nd233 2.414 . S
O255 C241 1.273 . S
O256 Nd232 2.410 1_556 S
O256 C242 1.251 . S
O257 Nd233 2.424 . S
O257 C242 1.268 . S
O258 Nd233 2.500 . S
O258 C243 1.258 . S
O259 Nd233 2.492 . S
O259 C243 1.239 . S
O260 Nd233 2.487 . S
O260 C250 1.241 . S
O261 Nd232 2.414 1_556 S
O261 Nd233 2.682 . S
O261 C250 1.273 . S
O262 Nd233 2.410 . S
O262 C251 1.251 . S
O263 Nd232 2.424 . S
O263 C251 1.268 1_554 S
H264 C236 0.930 . S
H265 C237 0.929 . S
H266 C239 0.930 . S
H267 C240 0.929 . S
H268 C245 0.930 . S
H269 C246 0.929 . S
H270 C248 0.930 . S
H271 C249 0.929 . S
Nd272 C274 2.836 1_455 S
Nd272 O292 2.500 1_455 S
Nd272 O293 2.492 1_455 S
Nd272 O294 2.487 . S
Nd272 O295 2.682 . S
Nd272 O296 2.410 1_455 S
Nd272 O301 2.414 . S
Nd272 O303 2.424 . S
Nd273 C283 2.836 . S
Nd273 O295 2.414 1_554 S
Nd273 O297 2.424 1_454 S
Nd273 O298 2.500 . S
Nd273 O299 2.492 . S
Nd273 O300 2.487 . S
Nd273 O301 2.682 1_554 S
Nd273 O302 2.410 1_554 S
C274 Nd272 2.836 1_655 S
C274 C275 1.498 . S
C274 O292 1.258 . S
C274 O293 1.239 . S
C275 C274 1.498 . S
C275 C276 1.366 . S
C275 C280 1.407 . S
C276 C275 1.366 . S
C276 C277 1.392 . S
C276 H304 0.930 . S
C277 C276 1.392 . S
C277 C278 1.398 . S
C277 H305 0.929 . S
C278 C277 1.398 . S
C278 C279 1.352 . S
C279 C278 1.352 . S
C279 C280 1.384 . S
C279 H306 0.930 . S
C280 C275 1.407 . S
C280 C279 1.384 . S
C280 H307 0.929 . S
C281 O294 1.241 . S
C281 O295 1.273 . S
C282 O296 1.251 . S
C282 O297 1.268 . S
C283 Nd273 2.836 . S
C283 C284 1.498 . S
C283 O298 1.258 . S
C283 O299 1.239 . S
C284 C283 1.498 . S
C284 C285 1.366 . S
C284 C289 1.407 . S
C285 C284 1.366 . S
C285 C286 1.392 . S
C285 H308 0.930 . S
C286 C285 1.392 . S
C286 C287 1.398 . S
C286 H309 0.929 . S
C287 C286 1.398 . S
C287 C288 1.352 . S
C288 C287 1.352 . S
C288 C289 1.384 . S
C288 H310 0.930 . S
C289 C284 1.407 . S
C289 C288 1.384 . S
C289 H311 0.929 . S
C290 O300 1.241 1_556 S
C290 O301 1.273 . S
C291 O302 1.251 . S
C291 O303 1.268 . S
O292 Nd272 2.500 1_655 S
O292 C274 1.258 . S
O293 Nd272 2.492 1_655 S
O293 C274 1.239 . S
O294 Nd272 2.487 . S
O294 C281 1.241 . S
O295 Nd272 2.682 . S
O295 Nd273 2.414 1_556 S
O295 C281 1.273 . S
O296 Nd272 2.410 1_655 S
O296 C282 1.251 . S
O297 Nd273 2.424 1_656 S
O297 C282 1.268 . S
O298 Nd273 2.500 . S
O298 C283 1.258 . S
O299 Nd273 2.492 . S
O299 C283 1.239 . S
O300 Nd273 2.487 . S
O300 C290 1.241 1_554 S
O301 Nd272 2.414 . S
O301 Nd273 2.682 1_556 S
O301 C290 1.273 . S
O302 Nd273 2.410 1_556 S
O302 C291 1.251 . S
O303 Nd272 2.424 . S
O303 C291 1.268 . S
H304 C276 0.930 . S
H305 C277 0.929 . S
H306 C279 0.930 . S
H307 C280 0.929 . S
H308 C285 0.930 . S
H309 C286 0.929 . S
H310 C288 0.930 . S
H311 C289 0.929 . S
H312 C318 0.930 . S
H313 C322 0.930 . S
H314 C327 0.929 . S
H315 C325 0.929 . S
H316 C320 0.929 . S
H317 C326 0.929 . S
C318 H312 0.930 . S
C318 C319 1.367 . S
C318 C326 1.378 . S
C319 C318 1.367 . S
C319 C327 1.433 . S
C320 H316 0.929 . S
C320 C322 1.378 . S
C320 C324 1.350 . S
C321 C324 1.463 . S
C321 C326 1.350 . S
C321 N329 1.427 . S
C322 H313 0.930 . S
C322 C320 1.378 . S
C322 C323 1.367 . S
C323 C322 1.367 . S
C323 C325 1.433 . S
C324 C320 1.350 . S
C324 C321 1.463 . S
C324 N328 1.427 . S
C325 H315 0.929 . S
C325 C323 1.433 . S
C325 N328 1.384 . S
C326 H317 0.929 . S
C326 C318 1.378 . S
C326 C321 1.350 . S
C327 H314 0.929 . S
C327 C319 1.433 . S
C327 N329 1.384 . S
N328 C324 1.427 . S
N328 C325 1.384 . S
N329 C321 1.427 . S
N329 C327 1.384 . S
H330 C336 0.930 . S
H331 C340 0.930 . S
H332 C345 0.929 . S
H333 C343 0.929 . S
H334 C338 0.929 . S
H335 C344 0.929 . S
C336 H330 0.930 . S
C336 C337 1.367 . S
C336 C344 1.378 . S
C337 C336 1.367 . S
C337 C345 1.433 . S
C338 H334 0.929 . S
C338 C340 1.378 . S
C338 C342 1.350 . S
C339 C342 1.463 . S
C339 C344 1.350 . S
C339 N347 1.427 . S
C340 H331 0.930 . S
C340 C338 1.378 . S
C340 C341 1.367 . S
C341 C340 1.367 . S
C341 C343 1.433 . S
C342 C338 1.350 . S
C342 C339 1.463 . S
C342 N346 1.427 . S
C343 H333 0.929 . S
C343 C341 1.433 . S
C343 N346 1.384 . S
C344 H335 0.929 . S
C344 C336 1.378 . S
C344 C339 1.350 . S
C345 H332 0.929 . S
C345 C337 1.433 . S
C345 N347 1.384 . S
N346 C342 1.427 . S
N346 C343 1.384 . S
N347 C339 1.427 . S
N347 C345 1.384 . S
H348 C354 0.930 . S
H349 C358 0.930 . S
H350 C363 0.929 . S
H351 C361 0.929 . S
H352 C356 0.929 . S
H353 C362 0.929 . S
C354 H348 0.930 . S
C354 C355 1.367 . S
C354 C362 1.378 . S
C355 C354 1.367 . S
C355 C363 1.433 . S
C356 H352 0.929 . S
C356 C358 1.378 . S
C356 C360 1.350 . S
C357 C360 1.463 . S
C357 C362 1.350 . S
C357 N365 1.427 . S
C358 H349 0.930 . S
C358 C356 1.378 . S
C358 C359 1.367 . S
C359 C358 1.367 . S
C359 C361 1.433 . S
C360 C356 1.350 . S
C360 C357 1.463 . S
C360 N364 1.427 . S
C361 H351 0.929 . S
C361 C359 1.433 . S
C361 N364 1.384 . S
C362 H353 0.929 . S
C362 C354 1.378 . S
C362 C357 1.350 . S
C363 H350 0.929 . S
C363 C355 1.433 . S
C363 N365 1.384 . S
N364 C360 1.427 . S
N364 C361 1.384 . S
N365 C357 1.427 . S
N365 C363 1.384 . S
H366 C372 0.930 . S
H367 C376 0.930 . S
H368 C381 0.929 . S
H369 C379 0.929 . S
H370 C374 0.929 . S
H371 C380 0.929 . S
C372 H366 0.930 . S
C372 C373 1.367 . S
C372 C380 1.378 . S
C373 C372 1.367 . S
C373 C381 1.433 . S
C374 H370 0.929 . S
C374 C376 1.378 . S
C374 C378 1.350 . S
C375 C378 1.463 . S
C375 C380 1.350 . S
C375 N383 1.427 . S
C376 H367 0.930 . S
C376 C374 1.378 . S
C376 C377 1.367 . S
C377 C376 1.367 . S
C377 C379 1.433 . S
C378 C374 1.350 . S
C378 C375 1.463 . S
C378 N382 1.427 . S
C379 H369 0.929 . S
C379 C377 1.433 . S
C379 N382 1.384 . S
C380 H371 0.929 . S
C380 C372 1.378 . S
C380 C375 1.350 . S
C381 H368 0.929 . S
C381 C373 1.433 . S
C381 N383 1.384 . S
N382 C378 1.427 . S
N382 C379 1.384 . S
N383 C375 1.427 . S
N383 C381 1.384 . S
H384 C390 0.930 . S
H385 C394 0.930 . S
H386 C399 0.929 . S
H387 C397 0.929 . S
H388 C392 0.929 . S
H389 C398 0.929 . S
C390 H384 0.930 . S
C390 C391 1.367 1_554 S
C390 C398 1.378 . S
C391 C390 1.367 1_556 S
C391 C399 1.433 . S
C392 H388 0.929 . S
C392 C394 1.378 . S
C392 C396 1.350 1_545 S
C393 C396 1.463 . S
C393 C398 1.350 1_556 S
C393 N401 1.427 . S
C394 H385 0.930 . S
C394 C392 1.378 . S
C394 C395 1.367 . S
C395 C394 1.367 . S
C395 C397 1.433 1_556 S
C396 C392 1.350 1_565 S
C396 C393 1.463 . S
C396 N400 1.427 1_556 S
C397 H387 0.929 . S
C397 C395 1.433 1_554 S
C397 N400 1.384 1_545 S
C398 H389 0.929 . S
C398 C390 1.378 . S
C398 C393 1.350 1_554 S
C399 H386 0.929 . S
C399 C391 1.433 . S
C399 N401 1.384 . S
N400 C396 1.427 1_554 S
N400 C397 1.384 1_565 S
N401 C393 1.427 . S
N401 C399 1.384 . S
H402 C408 0.930 . S
H403 C412 0.930 . S
H404 C417 0.929 . S
H405 C415 0.929 1_556 S
H406 C410 0.929 . S
H407 C416 0.929 . S
C408 H402 0.930 . S
C408 C409 1.367 . S
C408 C416 1.378 . S
C409 C408 1.367 . S
C409 C417 1.433 . S
C410 H406 0.929 . S
C410 C412 1.378 . S
C410 C414 1.350 . S
C411 C414 1.463 . S
C411 C416 1.350 . S
C411 N419 1.427 . S
C412 H403 0.930 . S
C412 C410 1.378 . S
C412 C413 1.367 . S
C413 C412 1.367 . S
C413 C415 1.433 . S
C414 C410 1.350 . S
C414 C411 1.463 . S
C414 N418 1.427 . S
C415 H405 0.929 1_554 S
C415 C413 1.433 . S
C415 N418 1.384 . S
C416 H407 0.929 . S
C416 C408 1.378 . S
C416 C411 1.350 . S
C417 H404 0.929 . S
C417 C409 1.433 . S
C417 N419 1.384 . S
N418 C414 1.427 . S
N418 C415 1.384 . S
N419 C411 1.427 . S
N419 C417 1.384 . S
H420 C426 0.930 . S
H421 C430 0.930 . S
H422 C435 0.929 . S
H423 C433 0.929 . S
H424 C428 0.929 . S
H425 C434 0.929 . S
C426 H420 0.930 . S
C426 C427 1.367 . S
C426 C434 1.378 . S
C427 C426 1.367 . S
C427 C435 1.433 . S
C428 H424 0.929 . S
C428 C430 1.378 . S
C428 C432 1.350 . S
C429 C432 1.463 . S
C429 C434 1.350 . S
C429 N437 1.427 . S
C430 H421 0.930 . S
C430 C428 1.378 . S
C430 C431 1.367 . S
C431 C430 1.367 . S
C431 C433 1.433 . S
C432 C428 1.350 . S
C432 C429 1.463 . S
C432 N436 1.427 . S
C433 H423 0.929 . S
C433 C431 1.433 . S
C433 N436 1.384 . S
C434 H425 0.929 . S
C434 C426 1.378 . S
C434 C429 1.350 . S
C435 H422 0.929 . S
C435 C427 1.433 . S
C435 N437 1.384 . S
N436 C432 1.427 . S
N436 C433 1.384 . S
N437 C429 1.427 . S
N437 C435 1.384 . S
H438 C444 0.930 . S
H439 C448 0.929 . S
H440 C453 0.929 . S
H441 C451 0.929 . S
H442 C446 0.906 1_655 S
H443 C452 0.929 . S
C444 H438 0.930 . S
C444 C445 1.367 1_455 S
C444 C452 1.378 . S
C445 C444 1.367 1_655 S
C445 C453 1.433 1_554 S
C446 H442 0.906 1_455 S
C446 C448 1.390 . S
C446 C450 1.361 . S
C447 C450 1.463 . S
C447 C452 1.350 1_556 S
C447 N455 1.427 1_455 S
C448 H439 0.929 . S
C448 C446 1.390 . S
C448 C449 1.367 . S
C449 C448 1.367 . S
C449 C451 1.433 1_556 S
C450 C446 1.361 . S
C450 C447 1.463 . S
C450 N454 1.427 1_556 S
C451 H441 0.929 . S
C451 C449 1.433 1_554 S
C451 N454 1.384 . S
C452 H443 0.929 . S
C452 C444 1.378 . S
C452 C447 1.350 1_554 S
C453 H440 0.929 . S
C453 C445 1.433 1_556 S
C453 N455 1.384 . S
N454 C450 1.427 1_554 S
N454 C451 1.384 . S
N455 C447 1.427 1_655 S
N455 C453 1.384 . S
H456 C462 0.930 . S
H457 C466 0.930 . S
H458 C471 0.929 . S
H459 C469 0.929 . S
H460 C464 0.929 . S
H461 C470 0.929 . S
C462 H456 0.930 . S
C462 C463 1.367 . S
C462 C470 1.378 . S
C463 C462 1.367 . S
C463 C471 1.433 . S
C464 H460 0.929 . S
C464 C466 1.378 . S
C464 C468 1.350 . S
C465 C468 1.463 . S
C465 C470 1.350 . S
C465 N473 1.427 . S
C466 H457 0.930 . S
C466 C464 1.378 . S
C466 C467 1.367 . S
C467 C466 1.367 . S
C467 C469 1.433 . S
C468 C464 1.350 . S
C468 C465 1.463 . S
C468 N472 1.427 . S
C469 H459 0.929 . S
C469 C467 1.433 . S
C469 N472 1.384 . S
C470 H461 0.929 . S
C470 C462 1.378 . S
C470 C465 1.350 . S
C471 H458 0.929 . S
C471 C463 1.433 . S
C471 N473 1.384 . S
N472 C468 1.427 . S
N472 C469 1.384 . S
N473 C465 1.427 . S
N473 C471 1.384 . S
H474 C480 0.930 . S
H475 C484 0.930 . S
H476 C489 0.929 . S
H477 C487 0.929 . S
H478 C482 0.929 . S
H479 C488 0.929 . S
C480 H474 0.930 . S
C480 C481 1.367 . S
C480 C488 1.378 . S
C481 C480 1.367 . S
C481 C489 1.433 . S
C482 H478 0.929 . S
C482 C484 1.378 . S
C482 C486 1.350 . S
C483 C486 1.463 . S
C483 C488 1.350 . S
C483 N491 1.427 . S
C484 H475 0.930 . S
C484 C482 1.378 . S
C484 C485 1.367 . S
C485 C484 1.367 . S
C485 C487 1.433 . S
C486 C482 1.350 . S
C486 C483 1.463 . S
C486 N490 1.427 . S
C487 H477 0.929 . S
C487 C485 1.433 . S
C487 N490 1.384 . S
C488 H479 0.929 . S
C488 C480 1.378 . S
C488 C483 1.350 . S
C489 H476 0.929 . S
C489 C481 1.433 . S
C489 N491 1.384 . S
N490 C486 1.427 . S
N490 C487 1.384 . S
N491 C483 1.427 . S
N491 C489 1.384 . S
H492 C498 0.930 . S
H493 C502 0.930 . S
H494 C507 0.929 . S
H495 C505 0.929 . S
H496 C500 0.929 . S
H497 C506 0.929 . S
C498 H492 0.930 . S
C498 C499 1.367 . S
C498 C506 1.378 . S
C499 C498 1.367 . S
C499 C507 1.433 . S
C500 H496 0.929 . S
C500 C502 1.378 . S
C500 C504 1.350 . S
C501 C504 1.463 . S
C501 C506 1.350 . S
C501 N509 1.427 . S
C502 H493 0.930 . S
C502 C500 1.378 . S
C502 C503 1.367 . S
C503 C502 1.367 . S
C503 C505 1.433 . S
C504 C500 1.350 . S
C504 C501 1.463 . S
C504 N508 1.427 . S
C505 H495 0.929 . S
C505 C503 1.433 . S
C505 N508 1.384 . S
C506 H497 0.929 . S
C506 C498 1.378 . S
C506 C501 1.350 . S
C507 H494 0.929 . S
C507 C499 1.433 . S
C507 N509 1.384 . S
N508 C504 1.427 . S
N508 C505 1.384 . S
N509 C501 1.427 . S
N509 C507 1.384 . S
H510 C516 0.930 . S
H511 C520 0.930 . S
H512 C525 0.929 . S
H513 C523 0.929 . S
H514 C518 0.929 . S
H515 C524 0.929 . S
C516 H510 0.930 . S
C516 C517 1.367 . S
C516 C524 1.378 . S
C517 C516 1.367 . S
C517 C525 1.433 . S
C518 H514 0.929 . S
C518 C520 1.378 . S
C518 C522 1.350 . S
C519 C522 1.463 . S
C519 C524 1.350 . S
C519 N527 1.427 . S
C520 H511 0.930 . S
C520 C518 1.378 . S
C520 C521 1.367 . S
C521 C520 1.367 . S
C521 C523 1.433 . S
C522 C518 1.350 . S
C522 C519 1.463 . S
C522 N526 1.427 . S
C523 H513 0.929 . S
C523 C521 1.433 . S
C523 N526 1.384 . S
C524 H515 0.929 . S
C524 C516 1.378 . S
C524 C519 1.350 . S
C525 H512 0.929 . S
C525 C517 1.433 . S
C525 N527 1.384 . S
N526 C522 1.427 . S
N526 C523 1.384 . S
N527 C519 1.427 . S
N527 C525 1.384 . S
H528 C534 0.930 . S
H529 C538 0.930 . S
H530 C543 0.929 . S
H531 C541 0.929 1_655 S
H532 C536 0.929 . S
H533 C542 0.929 . S
C534 H528 0.930 . S
C534 C535 1.367 . S
C534 C542 1.378 . S
C535 C534 1.367 . S
C535 C543 1.433 1_654 S
C536 H532 0.929 . S
C536 C538 1.378 . S
C536 C540 1.350 . S
C537 C540 1.463 . S
C537 C542 1.350 1_456 S
C537 N545 1.427 . S
C538 H529 0.930 . S
C538 C536 1.378 . S
C538 C539 1.367 . S
C539 C538 1.367 . S
C539 C541 1.433 1_556 S
C540 C536 1.350 . S
C540 C537 1.463 . S
C540 N544 1.427 1_456 S
C541 H531 0.929 1_455 S
C541 C539 1.433 1_554 S
C541 N544 1.384 1_455 S
C542 H533 0.929 . S
C542 C534 1.378 . S
C542 C537 1.350 1_654 S
C543 H530 0.929 . S
C543 C535 1.433 1_456 S
C543 N545 1.384 . S
N544 C540 1.427 1_654 S
N544 C541 1.384 1_655 S
N545 C537 1.427 . S
N545 C543 1.384 . S
H546 C552 0.930 . S
H547 C556 0.930 . S
H548 C561 0.929 1_544 S
H549 C559 0.929 . S
H550 C554 0.929 . S
H551 C560 0.929 . S
C552 H546 0.930 . S
C552 C553 1.367 . S
C552 C560 1.378 . S
C553 C552 1.367 . S
C553 C561 1.433 . S
C554 H550 0.929 . S
C554 C556 1.378 . S
C554 C558 1.350 . S
C555 C558 1.463 1_565 S
C555 C560 1.350 . S
C555 N563 1.427 1_565 S
C556 H547 0.930 . S
C556 C554 1.378 . S
C556 C557 1.367 . S
C557 C556 1.367 . S
C557 C559 1.433 1_545 S
C558 C554 1.350 . S
C558 C555 1.463 1_545 S
C558 N562 1.427 1_545 S
C559 H549 0.929 . S
C559 C557 1.433 1_565 S
C559 N562 1.384 . S
C560 H551 0.929 . S
C560 C552 1.378 . S
C560 C555 1.350 . S
C561 H548 0.929 1_566 S
C561 C553 1.433 . S
C561 N563 1.384 1_565 S
N562 C558 1.427 1_565 S
N562 C559 1.384 . S
N563 C555 1.427 1_545 S
N563 C561 1.384 1_545 S
H564 C570 0.930 . S
H565 C574 0.930 . S
H566 C579 0.929 . S
H567 C577 0.929 . S
H568 C572 0.929 . S
H569 C578 0.929 . S
C570 H564 0.930 . S
C570 C571 1.367 . S
C570 C578 1.378 . S
C571 C570 1.367 . S
C571 C579 1.433 . S
C572 H568 0.929 . S
C572 C574 1.378 . S
C572 C576 1.350 . S
C573 C576 1.463 . S
C573 C578 1.350 . S
C573 N581 1.427 . S
C574 H565 0.930 . S
C574 C572 1.378 . S
C574 C575 1.367 . S
C575 C574 1.367 . S
C575 C577 1.433 . S
C576 C572 1.350 . S
C576 C573 1.463 . S
C576 N580 1.427 . S
C577 H567 0.929 . S
C577 C575 1.433 . S
C577 N580 1.384 . S
C578 H569 0.929 . S
C578 C570 1.378 . S
C578 C573 1.350 . S
C579 H566 0.929 . S
C579 C571 1.433 . S
C579 N581 1.384 . S
N580 C576 1.427 . S
N580 C577 1.384 . S
N581 C573 1.427 . S
N581 C579 1.384 . S
H582 C588 0.930 . S
H583 C592 0.924 1_554 S
H584 C597 0.924 1_554 S
H585 C595 0.929 . S
H586 C590 0.918 1_554 S
H587 C596 0.929 . S
C588 H582 0.930 . S
C588 C589 1.367 . S
C588 C596 1.378 . S
C589 C588 1.367 . S
C589 C597 1.438 . S
C590 H586 0.918 1_556 S
C590 C592 1.378 . S
C590 C594 1.360 . S
C591 C594 1.463 . S
C591 C596 1.350 . S
C591 N599 1.427 . S
C592 H583 0.924 1_556 S
C592 C590 1.378 . S
C592 C593 1.374 . S
C593 C592 1.374 . S
C593 C595 1.433 . S
C594 C590 1.360 . S
C594 C591 1.463 . S
C594 N598 1.427 . S
C595 H585 0.929 . S
C595 C593 1.433 . S
C595 N598 1.384 . S
C596 H587 0.929 . S
C596 C588 1.378 . S
C596 C591 1.350 . S
C597 H584 0.924 1_556 S
C597 C589 1.438 . S
C597 N599 1.384 . S
N598 C594 1.427 . S
N598 C595 1.384 . S
N599 C591 1.427 . S
N599 C597 1.384 . S
H600 C606 0.930 . S
H601 C610 0.930 . S
H602 C615 0.929 . S
H603 C613 0.929 . S
H604 C608 0.929 . S
H605 C614 0.929 . S
C606 H600 0.930 . S
C606 C607 1.367 . S
C606 C614 1.378 . S
C607 C606 1.367 . S
C607 C615 1.433 . S
C608 H604 0.929 . S
C608 C610 1.378 . S
C608 C612 1.350 . S
C609 C612 1.463 . S
C609 C614 1.350 . S
C609 N617 1.427 . S
C610 H601 0.930 . S
C610 C608 1.378 . S
C610 C611 1.367 . S
C611 C610 1.367 . S
C611 C613 1.433 . S
C612 C608 1.350 . S
C612 C609 1.463 . S
C612 N616 1.427 . S
C613 H603 0.929 . S
C613 C611 1.433 . S
C613 N616 1.384 . S
C614 H605 0.929 . S
C614 C606 1.378 . S
C614 C609 1.350 . S
C615 H602 0.929 . S
C615 C607 1.433 . S
C615 N617 1.384 . S
N616 C612 1.427 . S
N616 C613 1.384 . S
N617 C609 1.427 . S
N617 C615 1.384 . S
H618 C624 0.930 . S
H619 C628 0.930 . S
H620 C633 0.929 . S
H621 C631 0.929 . S
H622 C626 0.929 . S
H623 C632 0.929 . S
C624 H618 0.930 . S
C624 C625 1.367 . S
C624 C632 1.378 . S
C625 C624 1.367 . S
C625 C633 1.433 . S
C626 H622 0.929 . S
C626 C628 1.378 . S
C626 C630 1.350 . S
C627 C630 1.463 . S
C627 C632 1.350 . S
C627 N635 1.427 . S
C628 H619 0.930 . S
C628 C626 1.378 . S
C628 C629 1.367 . S
C629 C628 1.367 . S
C629 C631 1.433 . S
C630 C626 1.350 . S
C630 C627 1.463 . S
C630 N634 1.427 . S
C631 H621 0.929 . S
C631 C629 1.433 . S
C631 N634 1.384 . S
C632 H623 0.929 . S
C632 C624 1.378 . S
C632 C627 1.350 . S
C633 H620 0.929 . S
C633 C625 1.433 . S
C633 N635 1.384 . S
N634 C630 1.427 . S
N634 C631 1.384 . S
N635 C627 1.427 . S
N635 C633 1.384 . S
H636 C642 0.930 . S
H637 C646 0.930 . S
H638 C651 0.929 . S
H639 C649 0.929 . S
H640 C644 0.929 1_556 S
H641 C650 0.929 . S
C642 H636 0.930 . S
C642 C643 1.367 . S
C642 C650 1.378 . S
C643 C642 1.367 . S
C643 C651 1.433 . S
C644 H640 0.929 1_554 S
C644 C646 1.378 1_554 S
C644 C648 1.350 . S
C645 C648 1.463 . S
C645 C650 1.350 . S
C645 N653 1.427 . S
C646 H637 0.930 . S
C646 C644 1.378 1_556 S
C646 C647 1.367 1_556 S
C647 C646 1.367 1_554 S
C647 C649 1.433 . S
C648 C644 1.350 . S
C648 C645 1.463 . S
C648 N652 1.427 . S
C649 H639 0.929 . S
C649 C647 1.433 . S
C649 N652 1.384 . S
C650 H641 0.929 . S
C650 C642 1.378 . S
C650 C645 1.350 . S
C651 H638 0.929 . S
C651 C643 1.433 . S
C651 N653 1.384 . S
N652 C648 1.427 . S
N652 C649 1.384 . S
N653 C645 1.427 . S
N653 C651 1.384 . S
H654 C660 0.930 . S
H655 C664 0.930 . S
H656 C669 0.929 . S
H657 C667 0.929 . S
H658 C662 0.929 . S
H659 C668 0.929 . S
C660 H654 0.930 . S
C660 C661 1.367 . S
C660 C668 1.378 . S
C661 C660 1.367 . S
C661 C669 1.433 . S
C662 H658 0.929 . S
C662 C664 1.378 . S
C662 C666 1.350 . S
C663 C666 1.463 . S
C663 C668 1.350 . S
C663 N671 1.427 . S
C664 H655 0.930 . S
C664 C662 1.378 . S
C664 C665 1.367 . S
C665 C664 1.367 . S
C665 C667 1.433 . S
C666 C662 1.350 . S
C666 C663 1.463 . S
C666 N670 1.427 . S
C667 H657 0.929 . S
C667 C665 1.433 . S
C667 N670 1.384 . S
C668 H659 0.929 . S
C668 C660 1.378 . S
C668 C663 1.350 . S
C669 H656 0.929 . S
C669 C661 1.433 . S
C669 N671 1.384 . S
N670 C666 1.427 . S
N670 C667 1.384 . S
N671 C663 1.427 . S
N671 C669 1.384 . S
H672 C678 0.930 . S
H673 C682 0.930 . S
H674 C687 0.929 . S
H675 C685 0.929 . S
H676 C680 0.929 . S
H677 C686 0.929 . S
C678 H672 0.930 . S
C678 C679 1.367 1_455 S
C678 C686 1.378 . S
C679 C678 1.367 1_655 S
C679 C687 1.433 . S
C680 H676 0.929 . S
C680 C682 1.378 . S
C680 C684 1.350 . S
C681 C684 1.463 . S
C681 C686 1.350 1_655 S
C681 N689 1.427 . S
C682 H673 0.930 . S
C682 C680 1.378 . S
C682 C683 1.367 1_655 S
C683 C682 1.367 1_455 S
C683 C685 1.433 . S
C684 C680 1.350 . S
C684 C681 1.463 . S
C684 N688 1.427 1_655 S
C685 H675 0.929 . S
C685 C683 1.433 . S
C685 N688 1.384 . S
C686 H677 0.929 . S
C686 C678 1.378 . S
C686 C681 1.350 1_455 S
C687 H674 0.929 . S
C687 C679 1.433 . S
C687 N689 1.384 . S
N688 C684 1.427 1_455 S
N688 C685 1.384 . S
N689 C681 1.427 . S
N689 C687 1.384 . S
H690 C696 0.930 1_545 S
H691 C700 0.930 . S
H692 C705 0.929 . S
H693 C703 0.929 1_545 S
H694 C698 0.929 . S
H695 C704 0.929 1_545 S
C696 H690 0.930 1_565 S
C696 C697 1.367 . S
C696 C704 1.378 . S
C697 C696 1.367 . S
C697 C705 1.433 . S
C698 H694 0.929 . S
C698 C700 1.378 . S
C698 C702 1.350 . S
C699 C702 1.463 . S
C699 C704 1.350 . S
C699 N707 1.427 . S
C700 H691 0.930 . S
C700 C698 1.378 . S
C700 C701 1.367 . S
C701 C700 1.367 . S
C701 C703 1.433 . S
C702 C698 1.350 . S
C702 C699 1.463 . S
C702 N706 1.427 . S
C703 H693 0.929 1_565 S
C703 C701 1.433 . S
C703 N706 1.384 . S
C704 H695 0.929 1_565 S
C704 C696 1.378 . S
C704 C699 1.350 . S
C705 H692 0.929 . S
C705 C697 1.433 . S
C705 N707 1.384 . S
N706 C702 1.427 . S
N706 C703 1.384 . S
N707 C699 1.427 . S
N707 C705 1.384 . S
H708 C714 0.930 . S
H709 C718 0.930 . S
H710 C723 0.929 . S
H711 C721 0.929 . S
H712 C716 0.929 . S
H713 C722 0.929 . S
C714 H708 0.930 . S
C714 C715 1.367 . S
C714 C722 1.378 . S
C715 C714 1.367 . S
C715 C723 1.433 . S
C716 H712 0.929 . S
C716 C718 1.378 . S
C716 C720 1.350 . S
C717 C720 1.463 . S
C717 C722 1.350 . S
C717 N725 1.427 . S
C718 H709 0.930 . S
C718 C716 1.378 . S
C718 C719 1.367 . S
C719 C718 1.367 . S
C719 C721 1.433 . S
C720 C716 1.350 . S
C720 C717 1.463 . S
C720 N724 1.427 . S
C721 H711 0.929 . S
C721 C719 1.433 . S
C721 N724 1.384 . S
C722 H713 0.929 . S
C722 C714 1.378 . S
C722 C717 1.350 . S
C723 H710 0.929 . S
C723 C715 1.433 . S
C723 N725 1.384 . S
N724 C720 1.427 . S
N724 C721 1.384 . S
N725 C717 1.427 . S
N725 C723 1.384 . S
H726 C732 0.930 . S
H727 C736 0.930 . S
H728 C741 0.929 . S
H729 C739 0.929 . S
H730 C734 0.929 . S
H731 C740 0.929 . S
C732 H726 0.930 . S
C732 C733 1.367 . S
C732 C740 1.378 . S
C733 C732 1.367 . S
C733 C741 1.433 . S
C734 H730 0.929 . S
C734 C736 1.378 . S
C734 C738 1.350 . S
C735 C738 1.463 . S
C735 C740 1.350 . S
C735 N743 1.427 . S
C736 H727 0.930 . S
C736 C734 1.378 . S
C736 C737 1.367 . S
C737 C736 1.367 . S
C737 C739 1.433 . S
C738 C734 1.350 . S
C738 C735 1.463 . S
C738 N742 1.427 . S
C739 H729 0.929 . S
C739 C737 1.433 . S
C739 N742 1.384 . S
C740 H731 0.929 . S
C740 C732 1.378 . S
C740 C735 1.350 . S
C741 H728 0.929 . S
C741 C733 1.433 . S
C741 N743 1.384 . S
N742 C738 1.427 . S
N742 C739 1.384 . S
N743 C735 1.427 . S
N743 C741 1.384 . S
C319 C125 1.425 . S
C323 C161 1.648 . S
C341 C201 1.276 . S
C337 C144 1.368 . S
C359 C250 1.405 . S
C355 C87 1.292 . S
C377 C281 1.789 . S
C373 C106 1.681 . S
C395 C170 1.654 . S
C391 C49 1.558 1_556 S
C409 C68 1.365 . S
C413 C210 1.274 1_554 S
C427 C11 1.310 . S
C431 C241 1.409 . S
C445 C30 1.780 . S
C449 C290 1.788 . S
C467 C171 1.153 . S
C463 C97 1.049 . S
C485 C211 1.562 . S
C481 C116 1.382 . S
C503 C247 0.839 . S
C499 C135 0.847 . S
C517 C78 1.185 . S
C521 C291 1.329 . S
C535 C21 1.027 . S
C539 C162 1.151 . S
C557 C202 1.563 . S
C553 C40 1.382 1_556 S
C575 C238 0.840 . S
C571 C59 0.849 . S
C589 C2 1.189 . S
C593 C282 1.330 . S
C607 C101 1.634 . S
C611 C167 1.657 . S
C625 C120 1.393 . S
C629 C207 1.382 . S
C647 C251 1.924 1_554 S
C643 C139 1.791 . S
C665 C287 1.383 . S
C661 C82 1.385 . S
C679 C25 1.633 . S
C683 C158 1.659 . S
C701 C198 1.390 . S
C697 C44 1.389 . S
C719 C242 1.922 . S
C715 C63 1.798 . S
C733 C6 1.386 . S
C737 C278 1.385 . S
