# Generated by pormake.
# Topology nom, (4,4)-cn, num edge types: 1
# Building blocks:
#     Node 0, Type 0, BuildingBlock: NAWXER_clean_linker_0, # of connection points: 4
#     Node 1, Type 0, BuildingBlock: NAWXER_clean_linker_0, # of connection points: 4
#     Node 2, Type 0, BuildingBlock: NAWXER_clean_linker_0, # of connection points: 4
#     Node 3, Type 0, BuildingBlock: NAWXER_clean_linker_0, # of connection points: 4
#     Node 4, Type 0, BuildingBlock: NAWXER_clean_linker_0, # of connection points: 4
#     Node 5, Type 0, BuildingBlock: NAWXER_clean_linker_0, # of connection points: 4
#     Node 6, Type 1, BuildingBlock: KUFVIS_clean_sbu_0, # of connection points: 4
#     Node 7, Type 1, BuildingBlock: KUFVIS_clean_sbu_0, # of connection points: 4
#     Node 8, Type 1, BuildingBlock: KUFVIS_clean_sbu_0, # of connection points: 4
#     Node 9, Type 1, BuildingBlock: KUFVIS_clean_sbu_0, # of connection points: 4
#     Node 10, Type 1, BuildingBlock: KUFVIS_clean_sbu_0, # of connection points: 4
#     Node 11, Type 1, BuildingBlock: KUFVIS_clean_sbu_0, # of connection points: 4
#     Edge 12, Type (0, 1), BuildingBlock: CIFDUS_clean_linker_0, # of connection points: 2
#     Edge 13, Type (0, 1), BuildingBlock: CIFDUS_clean_linker_0, # of connection points: 2
#     Edge 14, Type (0, 1), BuildingBlock: CIFDUS_clean_linker_0, # of connection points: 2
#     Edge 15, Type (0, 1), BuildingBlock: CIFDUS_clean_linker_0, # of connection points: 2
#     Edge 16, Type (0, 1), BuildingBlock: CIFDUS_clean_linker_0, # of connection points: 2
#     Edge 17, Type (0, 1), BuildingBlock: CIFDUS_clean_linker_0, # of connection points: 2
#     Edge 18, Type (0, 1), BuildingBlock: CIFDUS_clean_linker_0, # of connection points: 2
#     Edge 19, Type (0, 1), BuildingBlock: CIFDUS_clean_linker_0, # of connection points: 2
#     Edge 20, Type (0, 1), BuildingBlock: CIFDUS_clean_linker_0, # of connection points: 2
#     Edge 21, Type (0, 1), BuildingBlock: CIFDUS_clean_linker_0, # of connection points: 2
#     Edge 22, Type (0, 1), BuildingBlock: CIFDUS_clean_linker_0, # of connection points: 2
#     Edge 23, Type (0, 1), BuildingBlock: CIFDUS_clean_linker_0, # of connection points: 2
#     Edge 24, Type (0, 1), BuildingBlock: CIFDUS_clean_linker_0, # of connection points: 2
#     Edge 25, Type (0, 1), BuildingBlock: CIFDUS_clean_linker_0, # of connection points: 2
#     Edge 26, Type (0, 1), BuildingBlock: CIFDUS_clean_linker_0, # of connection points: 2
#     Edge 27, Type (0, 1), BuildingBlock: CIFDUS_clean_linker_0, # of connection points: 2
#     Edge 28, Type (0, 1), BuildingBlock: CIFDUS_clean_linker_0, # of connection points: 2
#     Edge 29, Type (0, 1), BuildingBlock: CIFDUS_clean_linker_0, # of connection points: 2
#     Edge 30, Type (0, 1), BuildingBlock: CIFDUS_clean_linker_0, # of connection points: 2
#     Edge 31, Type (0, 1), BuildingBlock: CIFDUS_clean_linker_0, # of connection points: 2
#     Edge 32, Type (0, 1), BuildingBlock: CIFDUS_clean_linker_0, # of connection points: 2
#     Edge 33, Type (0, 1), BuildingBlock: CIFDUS_clean_linker_0, # of connection points: 2
#     Edge 34, Type (0, 1), BuildingBlock: CIFDUS_clean_linker_0, # of connection points: 2
#     Edge 35, Type (0, 1), BuildingBlock: CIFDUS_clean_linker_0, # of connection points: 2
# Relax obj value: 0.005
# Max RMSD: 0.110
# Mean RMSD: 0.070
data_MOF--net-nom--node1-KUFVIS_clean_sbu_0--node2-NAWXER_clean_linker_0--edge1-CIFDUS_clean_linker_0
_symmetry_space_group_name_H-M    P1
_symmetry_Int_Tables_number       1
_symmetry_cell_setting            triclinic
loop_
_symmetry_equiv_pos_as_xyz
'x, y, z'
_cell_length_a     46.290582
_cell_length_b     46.861974
_cell_length_c     51.500815
_cell_angle_alpha  90.510432
_cell_angle_beta   90.574635
_cell_angle_gamma 120.01236
loop_
_atom_site_label
_atom_site_type_symbol
_atom_site_fract_x
_atom_site_fract_y
_atom_site_fract_z
_atom_type_partial_charge
C0 C 0.89116 0.50912 0.33109 0.0
C1 C 0.88032 0.48687 0.35166 0.0
C2 C 0.92388 0.52283 0.32223 0.0
C3 C 0.94601 0.51382 0.33339 0.0
C4 C 0.90199 0.47722 0.36238 0.0
C5 C 0.93444 0.49041 0.35323 0.0
C6 C 0.98218 0.53162 0.32743 0.0
C7 C 0.93299 0.48958 0.24948 0.0
C8 C 0.93747 0.51372 0.23134 0.0
C9 C 0.95128 0.49847 0.27282 0.0
C10 C 0.97445 0.53163 0.27843 0.0
C11 C 0.9607 0.54693 0.23714 0.0
C12 C 0.97922 0.55573 0.26034 0.0
C13 C 0.99527 0.54125 0.30232 0.0
C14 C 0.1426 0.59352 0.31834 0.0
C15 C 0.15525 0.62067 0.30167 0.0
C16 C 0.10873 0.57642 0.32454 0.0
C17 C 0.08689 0.58639 0.31446 0.0
C18 C 0.13316 0.63018 0.2913 0.0
C19 C 0.09937 0.61312 0.29752 0.0
C20 C 0.05075 0.56819 0.32017 0.0
C21 C 0.10224 0.60953 0.39774 0.0
C22 C 0.09242 0.58672 0.41787 0.0
C23 C 0.08483 0.60067 0.37397 0.0
C24 C 0.05811 0.56842 0.36967 0.0
C25 C 0.06545 0.55479 0.41386 0.0
C26 C 0.04854 0.54569 0.38995 0.0
C27 C 0.03769 0.55877 0.34537 0.0
H28 H 0.87497 0.51739 0.32298 0.0
H29 H 0.93225 0.54177 0.30771 0.0
H30 H 0.89417 0.46035 0.37847 0.0
H31 H 0.95096 0.48322 0.36239 0.0
H32 H 0.91587 0.46371 0.24544 0.0
H33 H 0.94782 0.47938 0.28624 0.0
H34 H 0.96449 0.56622 0.22382 0.0
H35 H 0.99714 0.58146 0.26427 0.0
H36 H 0.1588 0.58521 0.32633 0.0
H37 H 0.09956 0.55524 0.337 0.0
H38 H 0.14208 0.6512 0.27868 0.0
H39 H 0.08298 0.6211 0.28931 0.0
H40 H 0.12288 0.63441 0.40064 0.0
H41 H 0.09187 0.61925 0.35927 0.0
H42 H 0.05763 0.53685 0.42919 0.0
H43 H 0.02776 0.52083 0.38735 0.0
N44 N 1.00402 0.54079 0.34781 0.0
N45 N 0.02894 0.55922 0.29974 0.0
C46 C 0.40566 0.89461 0.50529 0.0
C47 C 0.41857 0.88608 0.5268 0.0
C48 C 0.42186 0.92696 0.49623 0.0
C49 C 0.45184 0.95119 0.50804 0.0
C50 C 0.44848 0.9102 0.53856 0.0
C51 C 0.46498 0.94233 0.52922 0.0
C52 C 0.46789 0.98647 0.50083 0.0
C53 C 0.46504 0.93692 0.42331 0.0
C54 C 0.44506 0.94063 0.40432 0.0
C55 C 0.47292 0.95464 0.44683 0.0
C56 C 0.46102 0.97641 0.45174 0.0
C57 C 0.43273 0.96202 0.40966 0.0
C58 C 0.44091 0.97993 0.43299 0.0
C59 C 0.47168 0.99793 0.47513 0.0
C60 C 0.55937 0.1464 0.48969 0.0
C61 C 0.54939 0.1556 0.46674 0.0
C62 C 0.5433 0.11353 0.49755 0.0
C63 C 0.51543 0.08914 0.48362 0.0
C64 C 0.52257 0.13064 0.45215 0.0
C65 C 0.50562 0.09816 0.46067 0.0
C66 C 0.49789 0.05373 0.49104 0.0
C67 C 0.49901 0.10654 0.56556 0.0
C68 C 0.51338 0.0998 0.58704 0.0
C69 C 0.49223 0.08795 0.54256 0.0
C70 C 0.50092 0.06323 0.54049 0.0
C71 C 0.5213 0.07467 0.58523 0.0
C72 C 0.5152 0.0566 0.56215 0.0
C73 C 0.49289 0.04214 0.51686 0.0
H74 H 0.3823 0.87656 0.49616 0.0
H75 H 0.41015 0.93314 0.4807 0.0
H76 H 0.45899 0.90424 0.55511 0.0
H77 H 0.48783 0.96051 0.53891 0.0
H78 H 0.47543 0.92109 0.41972 0.0
H79 H 0.48908 0.95209 0.46083 0.0
H80 H 0.41679 0.96507 0.39577 0.0
H81 H 0.4316 0.99674 0.43637 0.0
H82 H 0.57957 0.16443 0.50185 0.0
H83 H 0.55303 0.1074 0.51446 0.0
H84 H 0.51462 0.13578 0.43384 0.0
H85 H 0.48484 0.07992 0.44898 0.0
H86 H 0.4926 0.1258 0.56673 0.0
H87 H 0.48004 0.09276 0.52653 0.0
H88 H 0.53254 0.06926 0.60163 0.0
H89 H 0.52169 0.03738 0.56122 0.0
N90 N 0.47858 0.00913 0.52052 0.0
N91 N 0.48659 0.03094 0.47139 0.0
C92 C 0.55956 0.48158 0.58738 0.0
C93 C 0.5354 0.46285 0.56813 0.0
C94 C 0.55029 0.48996 0.61074 0.0
C95 C 0.51668 0.4798 0.61534 0.0
C96 C 0.50173 0.45251 0.57299 0.0
C97 C 0.49255 0.46116 0.59622 0.0
C98 C 0.50669 0.49043 0.63911 0.0
C99 C 0.53806 0.41917 0.66515 0.0
C100 C 0.56316 0.43037 0.68445 0.0
C101 C 0.52316 0.43776 0.65865 0.0
C102 C 0.53379 0.46858 0.67068 0.0
C103 C 0.57311 0.4606 0.69716 0.0
C104 C 0.55861 0.47958 0.69028 0.0
C105 C 0.51715 0.48793 0.66452 0.0
C106 C 0.44029 0.53044 0.73235 0.0
C107 C 0.4656 0.55366 0.74896 0.0
C108 C 0.44827 0.51825 0.7104 0.0
C109 C 0.48174 0.5292 0.70452 0.0
C110 C 0.49909 0.56432 0.74317 0.0
C111 C 0.50705 0.55199 0.72124 0.0
C112 C 0.49041 0.51638 0.68135 0.0
C113 C 0.44611 0.5769 0.64956 0.0
C114 C 0.4147 0.55664 0.63758 0.0
C115 C 0.46683 0.56413 0.65613 0.0
C116 C 0.45662 0.53098 0.65065 0.0
C117 C 0.40444 0.52321 0.63282 0.0
C118 C 0.42535 0.51071 0.63894 0.0
C119 C 0.47856 0.51721 0.65621 0.0
H120 H 0.58577 0.49048 0.58416 0.0
H121 H 0.56947 0.50505 0.62496 0.0
H122 H 0.48236 0.4376 0.55887 0.0
H123 H 0.46649 0.45316 0.59931 0.0
H124 H 0.52939 0.39558 0.65548 0.0
H125 H 0.50283 0.42756 0.64457 0.0
H126 H 0.59234 0.4697 0.71218 0.0
H127 H 0.56683 0.5029 0.70027 0.0
H128 H 0.41427 0.52185 0.73622 0.0
H129 H 0.42827 0.50008 0.6981 0.0
H130 H 0.5191 0.58182 0.75582 0.0
H131 H 0.53301 0.56048 0.71719 0.0
H132 H 0.45506 0.60278 0.6533 0.0
H133 H 0.49108 0.58026 0.66497 0.0
H134 H 0.38013 0.50652 0.62435 0.0
H135 H 0.41695 0.485 0.63472 0.0
N136 N 0.48731 0.50441 0.63607 0.0
N137 N 0.50909 0.50161 0.68461 0.0
C138 C 0.88888 0.41282 0.815 0.0
C139 C 0.87357 0.42338 0.7968 0.0
C140 C 0.92226 0.43301 0.82217 0.0
C141 C 0.94109 0.46462 0.81177 0.0
C142 C 0.89235 0.45506 0.78633 0.0
C143 C 0.92597 0.47542 0.79361 0.0
C144 C 0.97697 0.48503 0.81881 0.0
C145 C 0.92404 0.48441 0.89196 0.0
C146 C 0.92365 0.46239 0.91062 0.0
C147 C 0.9447 0.49262 0.87038 0.0
C148 C 0.96585 0.47949 0.8672 0.0
C149 C 0.94466 0.44897 0.907 0.0
C150 C 0.96588 0.45786 0.88578 0.0
C151 C 0.98842 0.48875 0.8448 0.0
C152 C 0.13678 0.56589 0.84448 0.0
C153 C 0.14367 0.54404 0.85824 0.0
C154 C 0.10473 0.5552 0.83423 0.0
C155 C 0.07913 0.52262 0.83777 0.0
C156 C 0.1181 0.51105 0.86057 0.0
C157 C 0.08614 0.50063 0.85077 0.0
C158 C 0.04425 0.51161 0.83028 0.0
C159 C 0.09618 0.51365 0.75593 0.0
C160 C 0.0961 0.53552 0.73743 0.0
C161 C 0.07634 0.50587 0.77795 0.0
C162 C 0.05601 0.51982 0.78199 0.0
C163 C 0.07598 0.54972 0.74164 0.0
C164 C 0.05589 0.54168 0.76359 0.0
C165 C 0.03323 0.51003 0.80435 0.0
H166 H 0.87511 0.3887 0.8236 0.0
H167 H 0.93352 0.42353 0.83553 0.0
H168 H 0.88133 0.46373 0.77202 0.0
H169 H 0.94015 0.49951 0.78504 0.0
H170 H 0.90888 0.49586 0.89416 0.0
H171 H 0.94462 0.50972 0.8564 0.0
H172 H 0.94462 0.4313 0.92041 0.0
H173 H 0.9819 0.44731 0.88359 0.0
H174 H 0.15574 0.5915 0.84243 0.0
H175 H 0.09962 0.57261 0.82443 0.0
H176 H 0.1226 0.49321 0.87028 0.0
H177 H 0.06669 0.47533 0.85358 0.0
H178 H 0.11147 0.50237 0.75327 0.0
H179 H 0.07628 0.48829 0.79149 0.0
H180 H 0.07503 0.5663 0.72759 0.0
H181 H 0.04011 0.55243 0.76614 0.0
N182 N 0.99985 0.49643 0.79954 0.0
N183 N 0.02149 0.50125 0.84951 0.0
C184 C 0.4976 0.90071 0.98747 0.0
C185 C 0.47303 0.88589 0.96787 0.0
C186 C 0.51091 0.93394 0.99395 0.0
C187 C 0.4992 0.9529 0.98154 0.0
C188 C 0.46242 0.90513 0.9545 0.0
C189 C 0.4754 0.9384 0.96132 0.0
C190 C 0.51304 0.98811 0.98886 0.0
C191 C 0.46259 0.93075 0.06051 0.0
C192 C 0.48295 0.93847 0.08296 0.0
C193 C 0.47408 0.95041 0.03844 0.0
C194 C 0.50657 0.97779 0.03798 0.0
C195 C 0.51512 0.96642 0.08261 0.0
C196 C 0.52675 0.9857 0.06045 0.0
C197 C 0.51926 0.99958 0.01499 0.0
C198 C 0.58728 0.1465 0.01439 0.0
C199 C 0.61741 0.15369 0.02701 0.0
C200 C 0.56526 0.11455 1.00492 0.0
C201 C 0.57311 0.08947 0.00804 0.0
C202 C 0.62533 0.12848 0.02925 0.0
C203 C 0.60325 0.09671 0.02019 0.0
C204 C 0.5498 0.05502 1.00026 0.0
C205 C 0.59168 0.11407 0.92765 0.0
C206 C 0.56792 0.1077 0.90799 0.0
C207 C 0.58349 0.09322 0.94896 0.0
C208 C 0.55093 0.06631 0.95157 0.0
C209 C 0.53583 0.0802 0.90997 0.0
C210 C 0.52738 0.05982 0.9316 0.0
C211 C 0.54116 0.04389 0.9742 0.0
H212 H 0.50675 0.88659 0.99766 0.0
H213 H 0.53041 0.9448 0.00873 0.0
H214 H 0.44362 0.89425 0.93921 0.0
H215 H 0.4665 0.95268 0.95108 0.0
H216 H 0.43776 0.9094 0.05986 0.0
H217 H 0.45738 0.94426 0.02183 0.0
H218 H 0.53132 0.97385 0.09963 0.0
H219 H 0.5517 0.00694 0.06092 0.0
H220 H 0.58029 0.16525 0.01248 0.0
H221 H 0.54191 0.10925 0.99574 0.0
H222 H 0.64864 0.1332 0.03814 0.0
H223 H 0.60976 0.07765 0.02264 0.0
H224 H 0.61682 0.13473 0.92618 0.0
H225 H 0.60291 0.09794 0.96305 0.0
H226 H 0.51722 0.07467 0.89487 0.0
H227 H 0.50228 0.03901 0.93279 0.0
N228 N 0.52334 0.01072 0.96957 0.0
N229 N 0.53814 0.03253 0.01948 0.0
C230 C 0.49092 0.62212 0.16873 0.0
C231 C 0.46516 0.61209 0.18678 0.0
C232 C 0.5031 0.60131 0.1618 0.0
C233 C 0.48949 0.56977 0.17245 0.0
C234 C 0.45127 0.58038 0.19726 0.0
C235 C 0.46354 0.5595 0.1903 0.0
C236 C 0.5039 0.54859 0.16621 0.0
C237 C 0.45422 0.55515 0.0936 0.0
C238 C 0.47705 0.57551 0.0749 0.0
C239 C 0.4649 0.54418 0.11476 0.0
C240 C 0.49859 0.55315 0.11761 0.0
C241 C 0.5107 0.58386 0.07759 0.0
C242 C 0.52127 0.57251 0.09862 0.0
C243 C 0.51028 0.54277 0.14054 0.0
C244 C 0.57346 0.46822 0.12183 0.0
C245 C 0.60295 0.47745 0.13605 0.0
C246 C 0.55261 0.48053 0.12885 0.0
C247 C 0.56088 0.50232 0.15017 0.0
C248 C 0.61153 0.49969 0.15708 0.0
C249 C 0.59095 0.51237 0.16384 0.0
C250 C 0.53915 0.51616 0.15667 0.0
C251 C 0.5602 0.51597 0.25042 0.0
C252 C 0.5568 0.48441 0.25076 0.0
C253 C 0.55177 0.52727 0.22818 0.0
C254 C 0.53973 0.50736 0.20569 0.0
C255 C 0.54415 0.46424 0.22832 0.0
C256 C 0.53537 0.47545 0.20615 0.0
C257 C 0.53072 0.51993 0.18239 0.0
H258 H 0.50202 0.64633 0.16022 0.0
H259 H 0.52375 0.61024 0.14854 0.0
H260 H 0.43168 0.57214 0.21144 0.0
H261 H 0.45295 0.53542 0.19898 0.0
H262 H 0.42799 0.54749 0.09184 0.0
H263 H 0.44685 0.5287 0.12895 0.0
H264 H 0.52907 0.59976 0.06378 0.0
H265 H 0.54738 0.57967 0.10047 0.0
H266 H 0.56629 0.4511 0.10554 0.0
H267 H 0.52985 0.47284 0.1177 0.0
H268 H 0.63448 0.5077 0.16805 0.0
H269 H 0.59878 0.53028 0.1796 0.0
H270 H 0.56906 0.53194 0.26746 0.0
H271 H 0.5549 0.55178 0.22853 0.0
H272 H 0.5413 0.43986 0.22775 0.0
H273 H 0.52514 0.45911 0.18939 0.0
N274 N 0.51388 0.53651 0.1861 0.0
N275 N 0.52807 0.52726 0.13676 0.0
Mn276 Mn 0.62445 0.3928 0.4125 0.0
Mn277 Mn 0.67194 0.47244 0.43109 0.0
C278 C 0.60739 0.41393 0.44597 0.0
C279 C 0.61031 0.3378 0.41602 0.0
C280 C 0.62956 0.4502 0.38149 0.0
O281 O 0.66949 0.40642 0.39608 0.0
O282 O 0.70036 0.45734 0.41396 0.0
C283 C 0.71367 0.46522 0.4715 0.0
N284 N 0.69192 0.47543 0.46441 0.0
C285 C 0.69227 0.49521 0.50776 0.0
C286 C 0.71499 0.48525 0.51545 0.0
C287 C 0.72565 0.47011 0.49725 0.0
C288 C 0.68134 0.48986 0.4818 0.0
H289 H 0.72168 0.45329 0.45763 0.0
C290 C 0.6973 0.43294 0.40026 0.0
O291 O 0.60264 0.34845 0.39536 0.0
O292 O 0.62748 0.35933 0.43408 0.0
N293 N 0.64741 0.48989 0.44817 0.0
C294 C 0.62416 0.49652 0.43794 0.0
C295 C 0.61024 0.5109 0.45381 0.0
C296 C 0.62049 0.5185 0.47994 0.0
C297 C 0.6447 0.51177 0.48995 0.0
C298 C 0.65792 0.49771 0.47315 0.0
H299 H 0.61617 0.49073 0.41788 0.0
O300 O 0.58593 0.38734 0.4336 0.0
O301 O 0.63809 0.42706 0.43852 0.0
O302 O 0.61554 0.41931 0.38546 0.0
O303 O 0.65176 0.4719 0.39681 0.0
C304 C 0.65578 0.51792 0.51606 0.0
C305 C 0.67951 0.50959 0.52497 0.0
H306 H 0.72412 0.48878 0.53534 0.0
H307 H 0.74297 0.46211 0.50309 0.0
H308 H 0.59152 0.51596 0.44595 0.0
H309 H 0.6094 0.52922 0.4922 0.0
H310 H 0.64585 0.52859 0.52954 0.0
H311 H 0.68747 0.51399 0.54517 0.0
Mn312 Mn 0.25594 0.64606 0.57066 0.0
Mn313 Mn 0.20635 0.56516 0.55746 0.0
C314 C 0.21133 0.62823 0.54169 0.0
C315 C 0.30268 0.69625 0.56021 0.0
C316 C 0.20459 0.598 0.6083 0.0
O317 O 0.28368 0.62588 0.58362 0.0
O318 O 0.25109 0.5735 0.5689 0.0
C319 C 0.2412 0.5595 0.5115 0.0
N320 N 0.21287 0.55563 0.52253 0.0
C321 C 0.18231 0.53595 0.48207 0.0
C322 C 0.21101 0.53914 0.47042 0.0
C323 C 0.24061 0.5511 0.48518 0.0
C324 C 0.18435 0.54452 0.50842 0.0
H325 H 0.26415 0.56927 0.52263 0.0
C326 C 0.27807 0.59655 0.57945 0.0
O327 O 0.28987 0.69139 0.58321 0.0
O328 O 0.28945 0.67149 0.54405 0.0
N329 N 0.16259 0.55442 0.54574 0.0
C330 C 0.1378 0.55497 0.55939 0.0
C331 C 0.10681 0.54478 0.54718 0.0
C332 C 0.10159 0.53406 0.52111 0.0
C333 C 0.12743 0.5336 0.50749 0.0
C334 C 0.15766 0.54368 0.52076 0.0
H335 H 0.14162 0.56318 0.57942 0.0
O336 O 0.22389 0.65701 0.55281 0.0
O337 O 0.22504 0.61108 0.54824 0.0
O338 O 0.22526 0.62759 0.60196 0.0
O339 O 0.19718 0.57301 0.5936 0.0
C340 C 0.1246 0.52424 0.4811 0.0
C341 C 0.15205 0.52549 0.46838 0.0
H342 H 0.21074 0.53296 0.45007 0.0
H343 H 0.26299 0.55405 0.47624 0.0
H344 H 0.08703 0.54532 0.5578 0.0
H345 H 0.07779 0.52661 0.51167 0.0
H346 H 0.10163 0.51661 0.47028 0.0
H347 H 0.14978 0.51881 0.44797 0.0
Mn348 Mn 0.62256 0.25773 0.74156 0.0
Mn349 Mn 0.65436 0.21083 0.72055 0.0
C350 C 0.59523 0.21799 0.70941 0.0
C351 C 0.61778 0.30487 0.73753 0.0
C352 C 0.61828 0.19931 0.77162 0.0
O353 O 0.67088 0.2841 0.75415 0.0
O354 O 0.68947 0.25099 0.739 0.0
C355 C 0.70026 0.25689 0.68161 0.0
N356 N 0.6744 0.22663 0.68759 0.0
C357 C 0.66927 0.20763 0.6433 0.0
C358 C 0.69597 0.23852 0.63671 0.0
C359 C 0.71147 0.26327 0.65594 0.0
C360 C 0.6592 0.2027 0.66921 0.0
H361 H 0.7122 0.27603 0.69629 0.0
C362 C 0.69397 0.27711 0.75089 0.0
O363 O 0.61084 0.28884 0.75918 0.0
O364 O 0.62863 0.29422 0.71888 0.0
N365 N 0.62334 0.17145 0.70197 0.0
C366 C 0.59699 0.14349 0.71124 0.0
C367 C 0.57863 0.11638 0.69441 0.0
C368 C 0.58754 0.11827 0.66823 0.0
C369 C 0.61477 0.14727 0.65912 0.0
C370 C 0.63239 0.17335 0.67688 0.0
H371 H 0.58978 0.14203 0.73122 0.0
O372 O 0.57887 0.22814 0.72336 0.0
O373 O 0.62675 0.23096 0.715 0.0
O374 O 0.61253 0.22327 0.76995 0.0
O375 O 0.63336 0.19239 0.75416 0.0
C376 C 0.62478 0.15151 0.63303 0.0
C377 C 0.65194 0.18171 0.62511 0.0
H378 H 0.70464 0.24358 0.61692 0.0
H379 H 0.732 0.28722 0.65098 0.0
H380 H 0.55748 0.09418 0.70154 0.0
H381 H 0.57304 0.09748 0.65522 0.0
H382 H 0.61147 0.13187 0.61883 0.0
H383 H 0.65914 0.18482 0.60493 0.0
Mn384 Mn 0.40569 0.64959 0.9126 0.0
Mn385 Mn 0.36238 0.57024 0.93108 0.0
C386 C 0.4286 0.63037 0.94303 0.0
C387 C 0.41685 0.7037 0.91765 0.0
C388 C 0.39857 0.59187 0.87978 0.0
O389 O 0.35861 0.63424 0.89903 0.0
O390 O 0.33116 0.58371 0.91647 0.0
C391 C 0.32525 0.57809 0.9744 0.0
N392 N 0.34629 0.56796 0.96546 0.0
C393 C 0.34999 0.54801 0.00755 0.0
C394 C 0.32815 0.55801 0.01717 0.0
C395 C 0.31584 0.57323 1.00054 0.0
C396 C 0.35859 0.55364 0.98136 0.0
H397 H 0.31578 0.58983 0.96167 0.0
C398 C 0.33185 0.6074 0.90373 0.0
O399 O 0.42268 0.69334 0.89592 0.0
O400 O 0.40405 0.68248 0.93609 0.0
N401 N 0.3891 0.55359 0.94574 0.0
C402 C 0.41074 0.54635 0.93361 0.0
C403 C 0.42579 0.53155 0.94768 0.0
C404 C 0.41813 0.52397 0.97394 0.0
C405 C 0.39533 0.53111 0.98587 0.0
C406 C 0.38101 0.54573 0.97084 0.0
H407 H 0.41656 0.55189 0.91339 0.0
O408 O 0.44752 0.65718 0.93058 0.0
O409 O 0.39682 0.61614 0.9378 0.0
O410 O 0.41191 0.6229 0.88375 0.0
O411 O 0.3788 0.57034 0.89574 0.0
C412 C 0.38655 0.52464 0.01216 0.0
C413 C 0.36393 0.53313 0.02301 0.0
H414 H 0.32086 0.55434 0.03733 0.0
H415 H 0.29912 0.58117 0.00786 0.0
H416 H 0.44328 0.52602 0.9383 0.0
H417 H 0.42997 0.51279 0.98477 0.0
H418 H 0.3974 0.51356 0.02432 0.0
H419 H 0.35778 0.5285 0.04334 0.0
Mn420 Mn 0.77346 0.4132 0.07692 0.0
Mn421 Mn 0.81295 0.37309 0.09696 0.0
C422 C 0.81393 0.43577 0.10939 0.0
C423 C 0.72878 0.42258 0.0815 0.0
C424 C 0.82835 0.41055 0.0463 0.0
O425 O 0.74354 0.36679 0.06253 0.0
O426 O 0.76978 0.34148 0.07957 0.0
C427 C 0.76526 0.3322 0.13719 0.0
N428 N 0.7969 0.35473 0.13032 0.0
C429 C 0.81735 0.35808 0.17404 0.0
C430 C 0.78507 0.33457 0.1815 0.0
C431 C 0.7589 0.32167 0.16301 0.0
C432 C 0.82221 0.36752 0.148 0.0
H433 H 0.74502 0.32249 0.12312 0.0
C434 C 0.74577 0.34114 0.06664 0.0
O435 O 0.7453 0.42943 0.05999 0.0
O436 O 0.73758 0.40942 0.09965 0.0
N437 N 0.85477 0.40059 0.1145 0.0
C438 C 0.88397 0.42459 0.10457 0.0
C439 C 0.91249 0.44059 0.12071 0.0
C440 C 0.91072 0.43176 0.14688 0.0
C441 C 0.88042 0.40697 0.15666 0.0
C442 C 0.85293 0.3916 0.13957 0.0
H443 H 0.8854 0.43177 0.08459 0.0
O444 O 0.80601 0.45443 0.09627 0.0
O445 O 0.79799 0.40472 0.10306 0.0
O446 O 0.80789 0.42116 0.0489 0.0
O447 O 0.83169 0.39215 0.06286 0.0
C448 C 0.87626 0.39738 0.18284 0.0
C449 C 0.84473 0.37301 0.19153 0.0
H450 H 0.78001 0.32653 0.20142 0.0
H451 H 0.73386 0.30375 0.16866 0.0
H452 H 0.93571 0.45989 0.11306 0.0
H453 H 0.93264 0.44448 0.15936 0.0
H454 H 0.89702 0.40899 0.19654 0.0
H455 H 0.84171 0.36623 0.21179 0.0
Mn456 Mn 0.3935 0.78462 0.24742 0.0
Mn457 Mn 0.47391 0.8277 0.26769 0.0
C458 C 0.40981 0.82493 0.2795 0.0
C459 C 0.33972 0.73948 0.25132 0.0
C460 C 0.44938 0.83935 0.21608 0.0
O461 O 0.41265 0.75622 0.23443 0.0
O462 O 0.46491 0.78554 0.25122 0.0
C463 C 0.47173 0.78334 0.30912 0.0
N464 N 0.47805 0.81368 0.30157 0.0
C465 C 0.49431 0.83556 0.34507 0.0
C466 C 0.48816 0.8046 0.3533 0.0
C467 C 0.47676 0.77836 0.33525 0.0
C468 C 0.48893 0.83906 0.31878 0.0
H469 H 0.46284 0.76309 0.29532 0.0
C470 C 0.44192 0.76065 0.23862 0.0
O471 O 0.34948 0.75565 0.22981 0.0
O472 O 0.36164 0.74868 0.27004 0.0
N473 N 0.4857 0.86898 0.28417 0.0
C474 C 0.48905 0.89687 0.27331 0.0
C475 C 0.49971 0.92528 0.28886 0.0
C476 C 0.507 0.92478 0.31534 0.0
C477 C 0.50364 0.89588 0.32603 0.0
C478 C 0.49322 0.86843 0.30953 0.0
H479 H 0.48349 0.89738 0.25297 0.0
O480 O 0.38275 0.81595 0.26596 0.0
O481 O 0.42646 0.81037 0.2736 0.0
O482 O 0.41847 0.81852 0.21903 0.0
O483 O 0.47194 0.84424 0.23293 0.0
C484 C 0.5097 0.89307 0.35249 0.0
C485 C 0.50496 0.86291 0.36202 0.0
H486 H 0.49186 0.80061 0.37345 0.0
H487 H 0.4718 0.75435 0.34147 0.0
H488 H 0.50216 0.94746 0.28048 0.0
H489 H 0.51484 0.94663 0.32733 0.0
H490 H 0.51754 0.91382 0.36575 0.0
H491 H 0.50925 0.86093 0.38247 0.0
H492 H 0.18365 0.64535 0.25487 0.0
H493 H 0.20832 0.63862 0.33479 0.0
H494 H 0.26762 0.67228 0.3256 0.0
H495 H 0.31226 0.70668 0.29572 0.0
H496 H 0.28778 0.71535 0.21619 0.0
H497 H 0.22866 0.67794 0.22441 0.0
C498 C 0.20199 0.65131 0.2703 0.0
C499 C 0.19143 0.63956 0.29553 0.0
C500 C 0.2361 0.67111 0.26498 0.0
C501 C 0.21564 0.64702 0.31515 0.0
C502 C 0.2496 0.66647 0.30996 0.0
C503 C 0.29407 0.70011 0.28007 0.0
C504 C 0.30446 0.71392 0.25538 0.0
C505 C 0.26009 0.67901 0.28504 0.0
C506 C 0.2805 0.70513 0.23537 0.0
C507 C 0.24665 0.68382 0.24009 0.0
H508 H 0.52399 0.18651 0.43655 0.0
H509 H 0.61453 0.2052 0.47679 0.0
H510 H 0.64104 0.26275 0.46491 0.0
H511 H 0.63842 0.30856 0.44375 0.0
H512 H 0.55095 0.28765 0.3985 0.0
H513 H 0.52409 0.22975 0.41064 0.0
C514 C 0.54982 0.20255 0.44227 0.0
C515 C 0.56666 0.1908 0.45806 0.0
C516 C 0.56577 0.23543 0.43419 0.0
C517 C 0.60004 0.2131 0.4655 0.0
C518 C 0.6156 0.2462 0.45838 0.0
C519 C 0.61366 0.29115 0.4363 0.0
C520 C 0.59659 0.30227 0.42037 0.0
C521 C 0.59862 0.2577 0.44291 0.0
C522 C 0.56465 0.27957 0.41065 0.0
C523 C 0.54919 0.24653 0.41776 0.0
H524 H 0.37482 0.54 0.59447 0.0
H525 H 0.40544 0.60396 0.66224 0.0
H526 H 0.36802 0.62418 0.6492 0.0
H527 H 0.32393 0.62131 0.61955 0.0
H528 H 0.29029 0.55257 0.55472 0.0
H529 H 0.33101 0.53626 0.56593 0.0
C530 C 0.37308 0.55799 0.60672 0.0
C531 C 0.39282 0.57007 0.62949 0.0
C532 C 0.35075 0.56865 0.59964 0.0
C533 C 0.39084 0.59431 0.64448 0.0
C534 C 0.36921 0.60574 0.63714 0.0
C535 C 0.32578 0.60297 0.60782 0.0
C536 C 0.30415 0.58829 0.58627 0.0
C537 C 0.34873 0.59281 0.61487 0.0
C538 C 0.30654 0.56426 0.57141 0.0
C539 C 0.32986 0.55487 0.5778 0.0
H540 H 0.84552 0.35846 0.78484 0.0
H541 H 0.82304 0.43724 0.78928 0.0
H542 H 0.76504 0.39882 0.77623 0.0
H543 H 0.72069 0.3425 0.76365 0.0
H544 H 0.74456 0.26448 0.75934 0.0
H545 H 0.80183 0.30287 0.77279 0.0
C546 C 0.82787 0.36721 0.78323 0.0
C547 C 0.83854 0.40061 0.78822 0.0
C548 C 0.79473 0.34505 0.77588 0.0
C549 C 0.81552 0.41168 0.7854 0.0
C550 C 0.78232 0.38968 0.77811 0.0
C551 C 0.73836 0.33386 0.76587 0.0
C552 C 0.72822 0.30058 0.76051 0.0
C553 C 0.7716 0.35624 0.77336 0.0
C554 C 0.7516 0.28992 0.76323 0.0
C555 C 0.78443 0.31187 0.77092 0.0
H556 H 0.46701 0.85656 0.92062 0.0
H557 H 0.44685 0.8357 1.00192 0.0
H558 H 0.42599 0.77722 0.99323 0.0
H559 H 0.4159 0.73259 0.96306 0.0
H560 H 0.4382 0.75294 0.88191 0.0
H561 H 0.45563 0.81099 0.88992 0.0
C562 C 0.45768 0.83905 0.93631 0.0
C563 C 0.45848 0.8503 0.96186 0.0
C564 C 0.44628 0.80549 0.93122 0.0
C565 C 0.44668 0.82755 0.98213 0.0
C566 C 0.43473 0.79416 0.97717 0.0
C567 C 0.42433 0.74963 0.94705 0.0
C568 C 0.42576 0.73846 0.92193 0.0
C569 C 0.43481 0.78293 0.95187 0.0
C570 C 0.43692 0.76094 0.90145 0.0
C571 C 0.4469 0.79413 0.90602 0.0
H572 H 0.62632 0.47437 0.08832 0.0
H573 H 0.62835 0.45006 0.16865 0.0
H574 H 0.66583 0.42915 0.15835 0.0
H575 H 0.69943 0.4197 0.12712 0.0
H576 H 0.70021 0.44597 0.04694 0.0
H577 H 0.65986 0.46389 0.05647 0.0
C578 C 0.6348 0.4642 0.10345 0.0
C579 C 0.62473 0.46381 0.12922 0.0
C580 C 0.65677 0.45263 0.09743 0.0
C581 C 0.63608 0.45091 0.14875 0.0
C582 C 0.65738 0.43886 0.14286 0.0
C583 C 0.69061 0.42907 0.11161 0.0
C584 C 0.70276 0.43144 0.08633 0.0
C585 C 0.66811 0.43989 0.11735 0.0
C586 C 0.69121 0.44388 0.06655 0.0
C587 C 0.66821 0.45418 0.07202 0.0
H588 H 0.39484 0.82765 0.50105 0.0
H589 H 0.40086 0.86962 0.57708 0.0
H590 H 0.36743 0.81441 0.59488 0.0
H591 H 0.33358 0.75416 0.58815 0.0
H592 H 0.32898 0.7126 0.51202 0.0
H593 H 0.36495 0.76745 0.49511 0.0
C594 C 0.38888 0.8246 0.52152 0.0
C595 C 0.40002 0.85254 0.5377 0.0
C596 C 0.36993 0.79283 0.53164 0.0
C597 C 0.39258 0.84838 0.56427 0.0
C598 C 0.37341 0.81685 0.57444 0.0
C599 C 0.34085 0.75709 0.56796 0.0
C600 C 0.32836 0.72927 0.55139 0.0
C601 C 0.36159 0.78887 0.55824 0.0
C602 C 0.33811 0.73354 0.52526 0.0
C603 C 0.3586 0.76495 0.51548 0.0
H604 H 0.56998 0.40982 0.73235 0.0
H605 H 0.59024 0.40528 0.65134 0.0
H606 H 0.6116 0.36824 0.66113 0.0
H607 H 0.62111 0.33455 0.69203 0.0
H608 H 0.59813 0.33585 0.77286 0.0
H609 H 0.58158 0.37704 0.76395 0.0
C610 C 0.57951 0.40101 0.71697 0.0
C611 C 0.57852 0.41015 0.69115 0.0
C612 C 0.59111 0.37909 0.7227 0.0
C613 C 0.59057 0.39834 0.67131 0.0
C614 C 0.60279 0.37722 0.6769 0.0
C615 C 0.61286 0.34406 0.70782 0.0
C616 C 0.61085 0.3321 0.73309 0.0
C617 C 0.60267 0.36702 0.70244 0.0
C618 C 0.5999 0.34463 0.75323 0.0
C619 C 0.59036 0.36811 0.74813 0.0
H620 H 0.20583 0.58895 0.84067 0.0
H621 H 0.15617 0.52526 0.90512 0.0
H622 H 0.20975 0.53984 0.9249 0.0
H623 H 0.27053 0.56864 0.92328 0.0
H624 H 0.32117 0.63501 0.86067 0.0
H625 H 0.26738 0.62211 0.84122 0.0
C626 C 0.20667 0.57862 0.85921 0.0
C627 C 0.1768 0.55538 0.87097 0.0
C628 C 0.23776 0.58764 0.87091 0.0
C629 C 0.1786 0.54231 0.89507 0.0
C630 C 0.20928 0.55087 0.9066 0.0
C631 C 0.26983 0.58045 0.90545 0.0
C632 C 0.29975 0.60248 0.8933 0.0
C633 C 0.23898 0.57308 0.89451 0.0
C634 C 0.29845 0.61797 0.87042 0.0
C635 C 0.26771 0.61047 0.85923 0.0
H636 H 0.63371 0.2143 0.00768 0.0
H637 H 0.65256 0.16789 0.0727 0.0
H638 H 0.69396 0.22147 0.09016 0.0
H639 H 0.72613 0.2812 0.08657 0.0
H640 H 0.70534 0.32897 0.02383 0.0
H641 H 0.66299 0.27517 0.00613 0.0
C642 C 0.64651 0.2159 0.02585 0.0
C643 C 0.64045 0.1869 0.03847 0.0
C644 C 0.67 0.24703 0.0362 0.0
C645 C 0.65738 0.18962 0.06204 0.0
C646 C 0.68094 0.22031 0.07222 0.0
C647 C 0.71232 0.2799 0.06904 0.0
C648 C 0.71909 0.30898 0.05639 0.0
C649 C 0.68777 0.2491 0.05929 0.0
C650 C 0.70059 0.30688 0.03391 0.0
C651 C 0.67644 0.27614 0.02377 0.0
H652 H 0.50496 0.67604 0.20043 0.0
H653 H 0.40143 0.60061 0.19357 0.0
H654 H 0.38463 0.64 0.20841 0.0
H655 H 0.39981 0.69626 0.22357 0.0
H656 H 0.50408 0.77049 0.23065 0.0
H657 H 0.51999 0.73131 0.21515 0.0
C658 C 0.47868 0.66828 0.20188 0.0
C659 C 0.45449 0.63557 0.1957 0.0
C660 C 0.46931 0.69089 0.21046 0.0
C661 C 0.42055 0.62568 0.19831 0.0
C662 C 0.41095 0.64821 0.20668 0.0
C663 C 0.42598 0.70385 0.22157 0.0
C664 C 0.45065 0.73632 0.22834 0.0
C665 C 0.43516 0.68095 0.21283 0.0
C666 C 0.48448 0.74566 0.2258 0.0
C667 C 0.4937 0.72327 0.21687 0.0
H668 H 0.8171 0.44655 0.33282 0.0
H669 H 0.87273 0.50655 0.399 0.0
H670 H 0.8209 0.49434 0.42029 0.0
H671 H 0.76021 0.46847 0.41939 0.0
H672 H 0.70328 0.40579 0.35465 0.0
H673 H 0.75503 0.41671 0.33355 0.0
C674 C 0.81762 0.45668 0.35194 0.0
C675 C 0.84843 0.47749 0.3644 0.0
C676 C 0.78761 0.44905 0.36427 0.0
C677 C 0.84914 0.49044 0.3892 0.0
C678 C 0.81959 0.48351 0.40132 0.0
C679 C 0.75906 0.45701 0.40073 0.0
C680 C 0.72799 0.43658 0.3885 0.0
C681 C 0.78874 0.46311 0.38894 0.0
C682 C 0.72692 0.42156 0.36448 0.0
C683 C 0.7565 0.42795 0.35236 0.0
H684 H 0.1554 0.60054 0.42699 0.0
H685 H 0.06918 0.59264 0.46469 0.0
H686 H 0.09901 0.60695 0.50673 0.0
H687 H 0.1497 0.6205 0.53284 0.0
H688 H 0.23358 0.6231 0.49509 0.0
H689 H 0.20507 0.61257 0.45294 0.0
C690 C 0.1434 0.60226 0.44445 0.0
C691 C 0.11051 0.59599 0.44299 0.0
C692 C 0.16034 0.6096 0.46845 0.0
C693 C 0.09468 0.59761 0.4656 0.0
C694 C 0.11171 0.60581 0.48952 0.0
C695 C 0.16151 0.61875 0.51529 0.0
C696 C 0.19324 0.62193 0.51685 0.0
C697 C 0.14452 0.61171 0.49122 0.0
C698 C 0.2088 0.62009 0.49417 0.0
C699 C 0.1926 0.61419 0.47013 0.0
H700 H 0.56127 0.16296 0.59476 0.0
H701 H 0.48314 0.07927 0.63346 0.0
H702 H 0.49934 0.10987 0.67494 0.0
H703 H 0.5388 0.15924 0.70068 0.0
H704 H 0.62017 0.24051 0.66224 0.0
H705 H 0.59956 0.21267 0.62013 0.0
C706 C 0.54754 0.15181 0.61227 0.0
C707 C 0.52097 0.11927 0.6113 0.0
C708 C 0.5577 0.16914 0.63603 0.0
C709 C 0.50358 0.1045 0.63398 0.0
C710 C 0.51284 0.12194 0.65761 0.0
C711 C 0.55171 0.17074 0.68298 0.0
C712 C 0.5813 0.20127 0.68436 0.0
C713 C 0.54029 0.15407 0.65896 0.0
C714 C 0.59774 0.21652 0.66147 0.0
C715 C 0.58592 0.2007 0.63745 0.0
H716 H 0.41734 0.51837 0.7837 0.0
H717 H 0.49481 0.61732 0.76696 0.0
H718 H 0.4807 0.63805 0.80572 0.0
H719 H 0.44638 0.62795 0.8444 0.0
H720 H 0.3692 0.52858 0.86105 0.0
H721 H 0.38298 0.5083 0.82213 0.0
C722 C 0.43092 0.54452 0.78841 0.0
C723 C 0.45701 0.56627 0.77245 0.0
C724 C 0.42272 0.55622 0.81069 0.0
C725 C 0.4748 0.60002 0.77906 0.0
C726 C 0.46664 0.6119 0.80115 0.0
C727 C 0.43244 0.60187 0.83949 0.0
C728 C 0.40672 0.57991 0.85571 0.0
C729 C 0.44065 0.59021 0.81712 0.0
C730 C 0.38915 0.54614 0.84904 0.0
C731 C 0.39699 0.53444 0.82674 0.0
H732 H 0.93614 0.44845 0.95957 0.0
H733 H 0.86155 0.45671 0.91439 0.0
H734 H 0.82667 0.4436 0.95253 0.0
H735 H 0.81648 0.42829 0.99868 0.0
H736 H 0.88854 0.41386 0.04176 0.0
H737 H 0.92466 0.43004 1.0043 0.0
C738 C 0.91202 0.44683 0.95772 0.0
C739 C 0.90183 0.45375 0.93387 0.0
C740 C 0.89142 0.43805 0.97948 0.0
C741 C 0.87067 0.45226 0.93246 0.0
C742 C 0.85043 0.44443 0.95427 0.0
C743 C 0.84015 0.42883 0.99988 0.0
C744 C 0.8499 0.42027 0.02317 0.0
C745 C 0.86052 0.43721 0.97789 0.0
C746 C 0.88042 0.42055 0.02422 0.0
C747 C 0.90115 0.42977 1.00275 0.0
H748 H 0.51892 0.92378 0.11725 0.0
H749 H 0.41937 0.90646 0.10252 0.0
H750 H 0.39989 0.87337 0.14155 0.0
H751 H 0.41139 0.8504 0.18077 0.0
H752 H 0.51204 0.87142 0.19649 0.0
H753 H 0.53075 0.9026 0.15664 0.0
C754 C 0.49303 0.91324 0.12265 0.0
C755 C 0.47079 0.91783 0.10673 0.0
C756 C 0.48212 0.89495 0.14553 0.0
C757 C 0.43712 0.90307 0.11398 0.0
C758 C 0.42594 0.88431 0.13651 0.0
C759 C 0.4374 0.86176 0.17545 0.0
C760 C 0.4602 0.85847 0.19172 0.0
C761 C 0.44825 0.88017 0.15252 0.0
C762 C 0.49388 0.87361 0.18453 0.0
C763 C 0.50466 0.89142 0.16164 0.0
H764 H 0.6093 0.51998 0.28418 0.0
H765 H 0.52543 0.42214 0.27089 0.0
H766 H 0.54086 0.40288 0.30962 0.0
H767 H 0.57764 0.41388 0.34767 0.0
H768 H 0.65992 0.51245 0.36189 0.0
H769 H 0.64505 0.53134 0.32274 0.0
C770 C 0.59407 0.49452 0.28987 0.0
C771 C 0.56622 0.47262 0.27447 0.0
C772 C 0.60269 0.48369 0.31246 0.0
C773 C 0.54731 0.43953 0.28201 0.0
C774 C 0.55596 0.4285 0.30432 0.0
C775 C 0.59238 0.43951 0.34224 0.0
C776 C 0.61995 0.46162 0.35781 0.0
C777 C 0.58358 0.45037 0.31972 0.0
C778 C 0.63855 0.49479 0.35042 0.0
C779 C 0.63011 0.50567 0.32796 0.0
H780 H 0.43195 0.87785 0.39472 0.0
H781 H 0.44185 0.96374 0.35628 0.0
H782 H 0.42945 0.93486 0.31448 0.0
H783 H 0.41742 0.88552 0.28839 0.0
H784 H 0.41179 0.80156 0.32658 0.0
H785 H 0.42079 0.8292 0.36885 0.0
C786 C 0.43168 0.89041 0.37722 0.0
C787 C 0.43766 0.92291 0.37881 0.0
C788 C 0.42517 0.87391 0.35313 0.0
C789 C 0.43672 0.93852 0.35582 0.0
C790 C 0.4298 0.92209 0.33183 0.0
C791 C 0.41817 0.87346 0.30605 0.0
C792 C 0.41483 0.84208 0.30457 0.0
C793 C 0.4241 0.88982 0.33021 0.0
C794 C 0.41515 0.82615 0.32742 0.0
C795 C 0.42016 0.84187 0.35154 0.0
H796 H 0.58317 0.44596 0.55982 0.0
H797 H 0.50982 0.4612 0.51957 0.0
H798 H 0.5247 0.44627 0.47841 0.0
H799 H 0.55887 0.42908 0.45357 0.0
H800 H 0.63423 0.41706 0.49338 0.0
H801 H 0.61839 0.43057 0.53497 0.0
C802 C 0.57064 0.44638 0.54205 0.0
C803 C 0.54518 0.45446 0.54296 0.0
C804 C 0.57966 0.43826 0.51834 0.0
C805 C 0.52901 0.45442 0.51964 0.0
C806 C 0.53762 0.44606 0.49602 0.0
C807 C 0.5718 0.42962 0.47142 0.0
C808 C 0.59818 0.42306 0.47058 0.0
C809 C 0.56284 0.43787 0.49513 0.0
C810 C 0.61441 0.42298 0.49369 0.0
C811 C 0.60525 0.43052 0.51741 0.0
H812 H 0.13561 0.59496 0.7148 0.0
H813 H 0.10046 0.49101 0.70571 0.0
H814 H 0.13129 0.5012 0.66544 0.0
H815 H 0.16717 0.53929 0.63232 0.0
H816 H 0.20323 0.64351 0.64141 0.0
H817 H 0.17312 0.6335 0.68205 0.0
C818 C 0.13466 0.57456 0.70394 0.0
C819 C 0.11574 0.54227 0.71327 0.0
C820 C 0.1526 0.58061 0.68077 0.0
C821 C 0.11509 0.51614 0.69914 0.0
C822 C 0.13259 0.52192 0.67602 0.0
C823 C 0.16856 0.5599 0.64315 0.0
C824 C 0.18744 0.59212 0.63363 0.0
C825 C 0.15131 0.55402 0.6666 0.0
C826 C 0.18901 0.61845 0.64818 0.0
C827 C 0.1717 0.61275 0.67144 0.0
H828 H 0.57142 0.0909 0.85835 0.0
H829 H 0.585 0.17236 0.90654 0.0
H830 H 0.59998 0.20782 0.86839 0.0
H831 H 0.61018 0.21567 0.82116 0.0
H832 H 0.60155 0.13486 0.7743 0.0
H833 H 0.58357 0.09923 0.81181 0.0
C834 C 0.57756 0.1164 0.86037 0.0
C835 C 0.57693 0.12908 0.885 0.0
C836 C 0.58698 0.13673 0.83853 0.0
C837 C 0.58533 0.16221 0.88763 0.0
C838 C 0.59384 0.1824 0.86586 0.0
C839 C 0.60412 0.1902 0.81916 0.0
C840 C 0.6068 0.17793 0.79477 0.0
C841 C 0.59485 0.16996 0.84116 0.0
C842 C 0.59947 0.145 0.79267 0.0
C843 C 0.58924 0.12453 0.81418 0.0
H844 H 0.49787 0.584 0.0246 0.0
H845 H 0.431 0.5959 0.07564 0.0
H846 H 0.41058 0.61432 0.03938 0.0
H847 H 0.41029 0.62538 0.99283 0.0
H848 H 0.47912 0.61679 0.94225 0.0
H849 H 0.50102 0.59968 0.97885 0.0
C850 C 0.47923 0.59111 0.02796 0.0
C851 C 0.46577 0.58812 0.05286 0.0
C852 C 0.468 0.60233 0.0071 0.0
C853 C 0.44131 0.59716 0.05662 0.0
C854 C 0.42984 0.60807 0.03595 0.0
C855 C 0.43003 0.61963 0.98995 0.0
C856 C 0.44234 0.62096 0.96497 0.0
C857 C 0.44265 0.61029 0.01107 0.0
C858 C 0.46884 0.61499 0.96137 0.0
C859 C 0.48131 0.60528 0.98224 0.0
H860 H 0.87247 0.46662 0.22317 0.0
H861 H 0.95941 0.53949 0.18317 0.0
H862 H 0.92811 0.52359 0.14214 0.0
H863 H 0.87648 0.48725 0.11713 0.0
H864 H 0.79137 0.41184 0.1568 0.0
H865 H 0.82137 0.43042 0.19844 0.0
C866 C 0.88472 0.47889 0.20549 0.0
C867 C 0.91827 0.50425 0.20637 0.0
C868 C 0.86684 0.46918 0.18187 0.0
C869 C 0.93347 0.52023 0.18322 0.0
C870 C 0.91565 0.51106 0.15968 0.0
C871 C 0.8647 0.47506 0.13499 0.0
C872 C 0.83234 0.44777 0.1341 0.0
C873 C 0.8824 0.48541 0.15873 0.0
C874 C 0.81673 0.4324 0.15718 0.0
C875 C 0.83379 0.44308 0.18093 0.0
loop_
_geom_bond_atom_site_label_1
_geom_bond_atom_site_label_2
_geom_bond_distance
_geom_bond_site_symmetry_2
_ccdc_geom_bond_type
C0 C1 1.384 . S
C0 C2 1.384 . S
C0 H28 0.931 . S
C1 C0 1.384 . S
C1 C4 1.382 . S
C2 C0 1.384 . S
C2 C3 1.381 . S
C2 H29 0.930 . S
C3 C2 1.381 . S
C3 C5 1.381 . S
C3 C6 1.487 . S
C4 C1 1.382 . S
C4 C5 1.387 . S
C4 H30 0.930 . S
C5 C3 1.381 . S
C5 C4 1.387 . S
C5 H31 0.931 . S
C6 C3 1.487 . S
C6 C13 1.399 . S
C6 N44 1.343 . S
C7 C8 1.384 . S
C7 C9 1.384 . S
C7 H32 0.931 . S
C8 C7 1.384 . S
C8 C11 1.382 . S
C9 C7 1.384 . S
C9 C10 1.381 . S
C9 H33 0.930 . S
C10 C9 1.381 . S
C10 C12 1.381 . S
C10 C13 1.487 . S
C11 C8 1.382 . S
C11 C12 1.387 . S
C11 H34 0.930 . S
C12 C10 1.381 . S
C12 C11 1.387 . S
C12 H35 0.931 . S
C13 C6 1.399 . S
C13 C10 1.487 . S
C13 N45 1.343 1_655 S
C14 C15 1.384 . S
C14 C16 1.384 . S
C14 H36 0.931 . S
C15 C14 1.384 . S
C15 C18 1.382 . S
C16 C14 1.384 . S
C16 C17 1.381 . S
C16 H37 0.930 . S
C17 C16 1.381 . S
C17 C19 1.381 . S
C17 C20 1.487 . S
C18 C15 1.382 . S
C18 C19 1.387 . S
C18 H38 0.930 . S
C19 C17 1.381 . S
C19 C18 1.387 . S
C19 H39 0.931 . S
C20 C17 1.487 . S
C20 C27 1.399 . S
C20 N45 1.343 . S
C21 C22 1.384 . S
C21 C23 1.384 . S
C21 H40 0.931 . S
C22 C21 1.384 . S
C22 C25 1.382 . S
C23 C21 1.384 . S
C23 C24 1.381 . S
C23 H41 0.930 . S
C24 C23 1.381 . S
C24 C26 1.381 . S
C24 C27 1.487 . S
C25 C22 1.382 . S
C25 C26 1.387 . S
C25 H42 0.930 . S
C26 C24 1.381 . S
C26 C25 1.387 . S
C26 H43 0.931 . S
C27 C20 1.399 . S
C27 C24 1.487 . S
C27 N44 1.343 1_455 S
H28 C0 0.931 . S
H29 C2 0.930 . S
H30 C4 0.930 . S
H31 C5 0.931 . S
H32 C7 0.931 . S
H33 C9 0.930 . S
H34 C11 0.930 . S
H35 C12 0.931 . S
H36 C14 0.931 . S
H37 C16 0.930 . S
H38 C18 0.930 . S
H39 C19 0.931 . S
H40 C21 0.931 . S
H41 C23 0.930 . S
H42 C25 0.930 . S
H43 C26 0.931 . S
N44 C6 1.343 . S
N44 C27 1.343 1_655 S
N45 C13 1.343 1_455 S
N45 C20 1.343 . S
C46 C47 1.384 . S
C46 C48 1.384 . S
C46 H74 0.931 . S
C47 C46 1.384 . S
C47 C50 1.382 . S
C48 C46 1.384 . S
C48 C49 1.381 . S
C48 H75 0.930 . S
C49 C48 1.381 . S
C49 C51 1.381 . S
C49 C52 1.487 . S
C50 C47 1.382 . S
C50 C51 1.387 . S
C50 H76 0.930 . S
C51 C49 1.381 . S
C51 C50 1.387 . S
C51 H77 0.931 . S
C52 C49 1.487 . S
C52 C59 1.399 . S
C52 N90 1.343 1_565 S
C53 C54 1.384 . S
C53 C55 1.384 . S
C53 H78 0.931 . S
C54 C53 1.384 . S
C54 C57 1.382 . S
C55 C53 1.384 . S
C55 C56 1.381 . S
C55 H79 0.930 . S
C56 C55 1.381 . S
C56 C58 1.381 . S
C56 C59 1.487 . S
C57 C54 1.382 . S
C57 C58 1.387 . S
C57 H80 0.930 . S
C58 C56 1.381 . S
C58 C57 1.387 . S
C58 H81 0.931 . S
C59 C52 1.399 . S
C59 C56 1.487 . S
C59 N91 1.343 1_565 S
C60 C61 1.384 . S
C60 C62 1.384 . S
C60 H82 0.931 . S
C61 C60 1.384 . S
C61 C64 1.382 . S
C62 C60 1.384 . S
C62 C63 1.381 . S
C62 H83 0.930 . S
C63 C62 1.381 . S
C63 C65 1.381 . S
C63 C66 1.487 . S
C64 C61 1.382 . S
C64 C65 1.387 . S
C64 H84 0.930 . S
C65 C63 1.381 . S
C65 C64 1.387 . S
C65 H85 0.931 . S
C66 C63 1.487 . S
C66 C73 1.399 . S
C66 N91 1.343 . S
C67 C68 1.384 . S
C67 C69 1.384 . S
C67 H86 0.931 . S
C68 C67 1.384 . S
C68 C71 1.382 . S
C69 C67 1.384 . S
C69 C70 1.381 . S
C69 H87 0.930 . S
C70 C69 1.381 . S
C70 C72 1.381 . S
C70 C73 1.487 . S
C71 C68 1.382 . S
C71 C72 1.387 . S
C71 H88 0.930 . S
C72 C70 1.381 . S
C72 C71 1.387 . S
C72 H89 0.931 . S
C73 C66 1.399 . S
C73 C70 1.487 . S
C73 N90 1.343 . S
H74 C46 0.931 . S
H75 C48 0.930 . S
H76 C50 0.930 . S
H77 C51 0.931 . S
H78 C53 0.931 . S
H79 C55 0.930 . S
H80 C57 0.930 . S
H81 C58 0.931 . S
H82 C60 0.931 . S
H83 C62 0.930 . S
H84 C64 0.930 . S
H85 C65 0.931 . S
H86 C67 0.931 . S
H87 C69 0.930 . S
H88 C71 0.930 . S
H89 C72 0.931 . S
N90 C52 1.343 1_545 S
N90 C73 1.343 . S
N91 C59 1.343 1_545 S
N91 C66 1.343 . S
C92 C93 1.384 . S
C92 C94 1.384 . S
C92 H120 0.931 . S
C93 C92 1.384 . S
C93 C96 1.382 . S
C94 C92 1.384 . S
C94 C95 1.381 . S
C94 H121 0.930 . S
C95 C94 1.381 . S
C95 C97 1.381 . S
C95 C98 1.487 . S
C96 C93 1.382 . S
C96 C97 1.387 . S
C96 H122 0.930 . S
C97 C95 1.381 . S
C97 C96 1.387 . S
C97 H123 0.931 . S
C98 C95 1.487 . S
C98 C105 1.399 . S
C98 N136 1.343 . S
C99 C100 1.384 . S
C99 C101 1.384 . S
C99 H124 0.931 . S
C100 C99 1.384 . S
C100 C103 1.382 . S
C101 C99 1.384 . S
C101 C102 1.381 . S
C101 H125 0.930 . S
C102 C101 1.381 . S
C102 C104 1.381 . S
C102 C105 1.487 . S
C103 C100 1.382 . S
C103 C104 1.387 . S
C103 H126 0.930 . S
C104 C102 1.381 . S
C104 C103 1.387 . S
C104 H127 0.931 . S
C105 C98 1.399 . S
C105 C102 1.487 . S
C105 N137 1.343 . S
C106 C107 1.384 . S
C106 C108 1.384 . S
C106 H128 0.931 . S
C107 C106 1.384 . S
C107 C110 1.382 . S
C108 C106 1.384 . S
C108 C109 1.381 . S
C108 H129 0.930 . S
C109 C108 1.381 . S
C109 C111 1.381 . S
C109 C112 1.487 . S
C110 C107 1.382 . S
C110 C111 1.387 . S
C110 H130 0.930 . S
C111 C109 1.381 . S
C111 C110 1.387 . S
C111 H131 0.931 . S
C112 C109 1.487 . S
C112 C119 1.399 . S
C112 N137 1.343 . S
C113 C114 1.384 . S
C113 C115 1.384 . S
C113 H132 0.931 . S
C114 C113 1.384 . S
C114 C117 1.382 . S
C115 C113 1.384 . S
C115 C116 1.381 . S
C115 H133 0.930 . S
C116 C115 1.381 . S
C116 C118 1.381 . S
C116 C119 1.487 . S
C117 C114 1.382 . S
C117 C118 1.387 . S
C117 H134 0.930 . S
C118 C116 1.381 . S
C118 C117 1.387 . S
C118 H135 0.931 . S
C119 C112 1.399 . S
C119 C116 1.487 . S
C119 N136 1.343 . S
H120 C92 0.931 . S
H121 C94 0.930 . S
H122 C96 0.930 . S
H123 C97 0.931 . S
H124 C99 0.931 . S
H125 C101 0.930 . S
H126 C103 0.930 . S
H127 C104 0.931 . S
H128 C106 0.931 . S
H129 C108 0.930 . S
H130 C110 0.930 . S
H131 C111 0.931 . S
H132 C113 0.931 . S
H133 C115 0.930 . S
H134 C117 0.930 . S
H135 C118 0.931 . S
N136 C98 1.343 . S
N136 C119 1.343 . S
N137 C105 1.343 . S
N137 C112 1.343 . S
C138 C139 1.384 . S
C138 C140 1.384 . S
C138 H166 0.931 . S
C139 C138 1.384 . S
C139 C142 1.382 . S
C140 C138 1.384 . S
C140 C141 1.381 . S
C140 H167 0.930 . S
C141 C140 1.381 . S
C141 C143 1.381 . S
C141 C144 1.487 . S
C142 C139 1.382 . S
C142 C143 1.387 . S
C142 H168 0.930 . S
C143 C141 1.381 . S
C143 C142 1.387 . S
C143 H169 0.931 . S
C144 C141 1.487 . S
C144 C151 1.399 . S
C144 N182 1.343 . S
C145 C146 1.384 . S
C145 C147 1.384 . S
C145 H170 0.931 . S
C146 C145 1.384 . S
C146 C149 1.382 . S
C147 C145 1.384 . S
C147 C148 1.381 . S
C147 H171 0.930 . S
C148 C147 1.381 . S
C148 C150 1.381 . S
C148 C151 1.487 . S
C149 C146 1.382 . S
C149 C150 1.387 . S
C149 H172 0.930 . S
C150 C148 1.381 . S
C150 C149 1.387 . S
C150 H173 0.931 . S
C151 C144 1.399 . S
C151 C148 1.487 . S
C151 N183 1.343 1_655 S
C152 C153 1.384 . S
C152 C154 1.384 . S
C152 H174 0.931 . S
C153 C152 1.384 . S
C153 C156 1.382 . S
C154 C152 1.384 . S
C154 C155 1.381 . S
C154 H175 0.930 . S
C155 C154 1.381 . S
C155 C157 1.381 . S
C155 C158 1.487 . S
C156 C153 1.382 . S
C156 C157 1.387 . S
C156 H176 0.930 . S
C157 C155 1.381 . S
C157 C156 1.387 . S
C157 H177 0.931 . S
C158 C155 1.487 . S
C158 C165 1.399 . S
C158 N183 1.343 . S
C159 C160 1.384 . S
C159 C161 1.384 . S
C159 H178 0.931 . S
C160 C159 1.384 . S
C160 C163 1.382 . S
C161 C159 1.384 . S
C161 C162 1.381 . S
C161 H179 0.930 . S
C162 C161 1.381 . S
C162 C164 1.381 . S
C162 C165 1.487 . S
C163 C160 1.382 . S
C163 C164 1.387 . S
C163 H180 0.930 . S
C164 C162 1.381 . S
C164 C163 1.387 . S
C164 H181 0.931 . S
C165 C158 1.399 . S
C165 C162 1.487 . S
C165 N182 1.343 1_455 S
H166 C138 0.931 . S
H167 C140 0.930 . S
H168 C142 0.930 . S
H169 C143 0.931 . S
H170 C145 0.931 . S
H171 C147 0.930 . S
H172 C149 0.930 . S
H173 C150 0.931 . S
H174 C152 0.931 . S
H175 C154 0.930 . S
H176 C156 0.930 . S
H177 C157 0.931 . S
H178 C159 0.931 . S
H179 C161 0.930 . S
H180 C163 0.930 . S
H181 C164 0.931 . S
N182 C144 1.343 . S
N182 C165 1.343 1_655 S
N183 C151 1.343 1_455 S
N183 C158 1.343 . S
C184 C185 1.384 . S
C184 C186 1.384 . S
C184 H212 0.931 . S
C185 C184 1.384 . S
C185 C188 1.382 . S
C186 C184 1.384 . S
C186 C187 1.381 . S
C186 H213 0.930 1_556 S
C187 C186 1.381 . S
C187 C189 1.381 . S
C187 C190 1.487 . S
C188 C185 1.382 . S
C188 C189 1.387 . S
C188 H214 0.930 . S
C189 C187 1.381 . S
C189 C188 1.387 . S
C189 H215 0.931 . S
C190 C187 1.487 . S
C190 C197 1.401 1_556 S
C190 N228 1.343 1_565 S
C191 C192 1.384 . S
C191 C193 1.384 . S
C191 H216 0.931 . S
C192 C191 1.384 . S
C192 C195 1.382 . S
C193 C191 1.384 . S
C193 C194 1.381 . S
C193 H217 0.930 . S
C194 C193 1.381 . S
C194 C196 1.381 . S
C194 C197 1.492 . S
C195 C192 1.382 . S
C195 C196 1.387 . S
C195 H218 0.930 . S
C196 C194 1.381 . S
C196 C195 1.387 . S
C196 H219 0.931 1_565 S
C197 C190 1.401 1_554 S
C197 C194 1.492 . S
C197 N229 1.335 1_565 S
C198 C199 1.384 . S
C198 C200 1.384 1_554 S
C198 H220 0.931 . S
C199 C198 1.384 . S
C199 C202 1.382 . S
C200 C198 1.384 1_556 S
C200 C201 1.381 1_556 S
C200 H221 0.930 . S
C201 C200 1.381 1_554 S
C201 C203 1.381 . S
C201 C204 1.487 1_554 S
C202 C199 1.382 . S
C202 C203 1.387 . S
C202 H222 0.930 . S
C203 C201 1.381 . S
C203 C202 1.387 . S
C203 H223 0.931 . S
C204 C201 1.487 1_556 S
C204 C211 1.399 . S
C204 N229 1.343 1_556 S
C205 C206 1.384 . S
C205 C207 1.384 . S
C205 H224 0.931 . S
C206 C205 1.384 . S
C206 C209 1.382 . S
C207 C205 1.384 . S
C207 C208 1.381 . S
C207 H225 0.930 . S
C208 C207 1.381 . S
C208 C210 1.381 . S
C208 C211 1.487 . S
C209 C206 1.382 . S
C209 C210 1.387 . S
C209 H226 0.930 . S
C210 C208 1.381 . S
C210 C209 1.387 . S
C210 H227 0.931 . S
C211 C204 1.399 . S
C211 C208 1.487 . S
C211 N228 1.343 . S
H212 C184 0.931 . S
H213 C186 0.930 1_554 S
H214 C188 0.930 . S
H215 C189 0.931 . S
H216 C191 0.931 . S
H217 C193 0.930 . S
H218 C195 0.930 . S
H219 C196 0.931 1_545 S
H220 C198 0.931 . S
H221 C200 0.930 . S
H222 C202 0.930 . S
H223 C203 0.931 . S
H224 C205 0.931 . S
H225 C207 0.930 . S
H226 C209 0.930 . S
H227 C210 0.931 . S
N228 C190 1.343 1_545 S
N228 C211 1.343 . S
N229 C197 1.335 1_545 S
N229 C204 1.343 1_554 S
C230 C231 1.384 . S
C230 C232 1.384 . S
C230 H258 0.931 . S
C231 C230 1.384 . S
C231 C234 1.382 . S
C232 C230 1.384 . S
C232 C233 1.381 . S
C232 H259 0.930 . S
C233 C232 1.381 . S
C233 C235 1.381 . S
C233 C236 1.487 . S
C234 C231 1.382 . S
C234 C235 1.387 . S
C234 H260 0.930 . S
C235 C233 1.381 . S
C235 C234 1.387 . S
C235 H261 0.931 . S
C236 C233 1.487 . S
C236 C243 1.399 . S
C236 N274 1.343 . S
C237 C238 1.384 . S
C237 C239 1.384 . S
C237 H262 0.931 . S
C238 C237 1.384 . S
C238 C241 1.382 . S
C239 C237 1.384 . S
C239 C240 1.381 . S
C239 H263 0.930 . S
C240 C239 1.381 . S
C240 C242 1.381 . S
C240 C243 1.487 . S
C241 C238 1.382 . S
C241 C242 1.387 . S
C241 H264 0.930 . S
C242 C240 1.381 . S
C242 C241 1.387 . S
C242 H265 0.931 . S
C243 C236 1.399 . S
C243 C240 1.487 . S
C243 N275 1.343 . S
C244 C245 1.384 . S
C244 C246 1.384 . S
C244 H266 0.931 . S
C245 C244 1.384 . S
C245 C248 1.382 . S
C246 C244 1.384 . S
C246 C247 1.381 . S
C246 H267 0.930 . S
C247 C246 1.381 . S
C247 C249 1.381 . S
C247 C250 1.487 . S
C248 C245 1.382 . S
C248 C249 1.387 . S
C248 H268 0.930 . S
C249 C247 1.381 . S
C249 C248 1.387 . S
C249 H269 0.931 . S
C250 C247 1.487 . S
C250 C257 1.399 . S
C250 N275 1.343 . S
C251 C252 1.384 . S
C251 C253 1.384 . S
C251 H270 0.931 . S
C252 C251 1.384 . S
C252 C255 1.382 . S
C253 C251 1.384 . S
C253 C254 1.381 . S
C253 H271 0.930 . S
C254 C253 1.381 . S
C254 C256 1.381 . S
C254 C257 1.487 . S
C255 C252 1.382 . S
C255 C256 1.387 . S
C255 H272 0.930 . S
C256 C254 1.381 . S
C256 C255 1.387 . S
C256 H273 0.931 . S
C257 C250 1.399 . S
C257 C254 1.487 . S
C257 N274 1.343 . S
H258 C230 0.931 . S
H259 C232 0.930 . S
H260 C234 0.930 . S
H261 C235 0.931 . S
H262 C237 0.931 . S
H263 C239 0.930 . S
H264 C241 0.930 . S
H265 C242 0.931 . S
H266 C244 0.931 . S
H267 C246 0.930 . S
H268 C248 0.930 . S
H269 C249 0.931 . S
H270 C251 0.931 . S
H271 C253 0.930 . S
H272 C255 0.930 . S
H273 C256 0.931 . S
N274 C236 1.343 . S
N274 C257 1.343 . S
N275 C243 1.343 . S
N275 C250 1.343 . S
Mn276 O281 2.095 . S
Mn276 O291 2.162 . S
Mn276 O292 2.297 . S
Mn276 O300 2.385 . S
Mn276 O301 2.209 . S
Mn276 O302 2.094 . S
Mn277 O282 2.121 . S
Mn277 N284 2.257 . S
Mn277 N293 2.282 . S
Mn277 O301 2.215 . S
Mn277 O303 2.117 . S
C278 O300 1.234 . S
C278 O301 1.283 . S
C279 O291 1.281 . S
C279 O292 1.236 . S
C280 O302 1.240 . S
C280 O303 1.264 . S
O281 Mn276 2.095 . S
O281 C290 1.250 . S
O282 Mn277 2.121 . S
O282 C290 1.258 . S
C283 N284 1.326 . S
C283 C287 1.460 . S
C283 H289 0.929 . S
N284 Mn277 2.257 . S
N284 C283 1.326 . S
N284 C288 1.362 . S
C285 C286 1.258 . S
C285 C288 1.431 . S
C285 C305 1.449 . S
C286 C285 1.258 . S
C286 C287 1.477 . S
C286 H306 0.931 . S
C287 C283 1.460 . S
C287 C286 1.477 . S
C287 H307 0.930 . S
C288 N284 1.362 . S
C288 C285 1.431 . S
C288 C298 1.476 . S
H289 C283 0.929 . S
C290 O281 1.250 . S
C290 O282 1.258 . S
O291 Mn276 2.162 . S
O291 C279 1.281 . S
O292 Mn276 2.297 . S
O292 C279 1.236 . S
N293 Mn277 2.282 . S
N293 C294 1.328 . S
N293 C298 1.318 . S
C294 N293 1.328 . S
C294 C295 1.457 . S
C294 H299 0.929 . S
C295 C294 1.457 . S
C295 C296 1.291 . S
C295 H308 0.931 . S
C296 C295 1.291 . S
C296 C297 1.373 . S
C296 H309 0.929 . S
C297 C296 1.373 . S
C297 C298 1.396 . S
C297 C304 1.403 . S
C298 C288 1.476 . S
C298 N293 1.318 . S
C298 C297 1.396 . S
H299 C294 0.929 . S
O300 Mn276 2.385 . S
O300 C278 1.234 . S
O301 Mn276 2.209 . S
O301 Mn277 2.215 . S
O301 C278 1.283 . S
O302 Mn276 2.094 . S
O302 C280 1.240 . S
O303 Mn277 2.117 . S
O303 C280 1.264 . S
C304 C297 1.403 . S
C304 C305 1.399 . S
C304 H310 0.929 . S
C305 C285 1.449 . S
C305 C304 1.399 . S
C305 H311 0.930 . S
H306 C286 0.931 . S
H307 C287 0.930 . S
H308 C295 0.931 . S
H309 C296 0.929 . S
H310 C304 0.929 . S
H311 C305 0.930 . S
Mn312 O317 2.095 . S
Mn312 O327 2.162 . S
Mn312 O328 2.297 . S
Mn312 O336 2.385 . S
Mn312 O337 2.209 . S
Mn312 O338 2.094 . S
Mn313 O318 2.121 . S
Mn313 N320 2.257 . S
Mn313 N329 2.282 . S
Mn313 O337 2.215 . S
Mn313 O339 2.117 . S
C314 O336 1.234 . S
C314 O337 1.283 . S
C315 O327 1.281 . S
C315 O328 1.236 . S
C316 O338 1.240 . S
C316 O339 1.264 . S
O317 Mn312 2.095 . S
O317 C326 1.250 . S
O318 Mn313 2.121 . S
O318 C326 1.258 . S
C319 N320 1.326 . S
C319 C323 1.460 . S
C319 H325 0.929 . S
N320 Mn313 2.257 . S
N320 C319 1.326 . S
N320 C324 1.362 . S
C321 C322 1.258 . S
C321 C324 1.431 . S
C321 C341 1.449 . S
C322 C321 1.258 . S
C322 C323 1.477 . S
C322 H342 0.931 . S
C323 C319 1.460 . S
C323 C322 1.477 . S
C323 H343 0.930 . S
C324 N320 1.362 . S
C324 C321 1.431 . S
C324 C334 1.476 . S
H325 C319 0.929 . S
C326 O317 1.250 . S
C326 O318 1.258 . S
O327 Mn312 2.162 . S
O327 C315 1.281 . S
O328 Mn312 2.297 . S
O328 C315 1.236 . S
N329 Mn313 2.282 . S
N329 C330 1.328 . S
N329 C334 1.318 . S
C330 N329 1.328 . S
C330 C331 1.457 . S
C330 H335 0.929 . S
C331 C330 1.457 . S
C331 C332 1.291 . S
C331 H344 0.931 . S
C332 C331 1.291 . S
C332 C333 1.373 . S
C332 H345 0.929 . S
C333 C332 1.373 . S
C333 C334 1.396 . S
C333 C340 1.403 . S
C334 C324 1.476 . S
C334 N329 1.318 . S
C334 C333 1.396 . S
H335 C330 0.929 . S
O336 Mn312 2.385 . S
O336 C314 1.234 . S
O337 Mn312 2.209 . S
O337 Mn313 2.215 . S
O337 C314 1.283 . S
O338 Mn312 2.094 . S
O338 C316 1.240 . S
O339 Mn313 2.117 . S
O339 C316 1.264 . S
C340 C333 1.403 . S
C340 C341 1.399 . S
C340 H346 0.929 . S
C341 C321 1.449 . S
C341 C340 1.399 . S
C341 H347 0.930 . S
H342 C322 0.931 . S
H343 C323 0.930 . S
H344 C331 0.931 . S
H345 C332 0.929 . S
H346 C340 0.929 . S
H347 C341 0.930 . S
Mn348 O353 2.095 . S
Mn348 O363 2.162 . S
Mn348 O364 2.297 . S
Mn348 O372 2.385 . S
Mn348 O373 2.209 . S
Mn348 O374 2.094 . S
Mn349 O354 2.121 . S
Mn349 N356 2.257 . S
Mn349 N365 2.282 . S
Mn349 O373 2.215 . S
Mn349 O375 2.117 . S
C350 O372 1.234 . S
C350 O373 1.283 . S
C351 O363 1.281 . S
C351 O364 1.236 . S
C352 O374 1.240 . S
C352 O375 1.264 . S
O353 Mn348 2.095 . S
O353 C362 1.250 . S
O354 Mn349 2.121 . S
O354 C362 1.258 . S
C355 N356 1.326 . S
C355 C359 1.460 . S
C355 H361 0.929 . S
N356 Mn349 2.257 . S
N356 C355 1.326 . S
N356 C360 1.362 . S
C357 C358 1.258 . S
C357 C360 1.431 . S
C357 C377 1.449 . S
C358 C357 1.258 . S
C358 C359 1.477 . S
C358 H378 0.931 . S
C359 C355 1.460 . S
C359 C358 1.477 . S
C359 H379 0.930 . S
C360 N356 1.362 . S
C360 C357 1.431 . S
C360 C370 1.476 . S
H361 C355 0.929 . S
C362 O353 1.250 . S
C362 O354 1.258 . S
O363 Mn348 2.162 . S
O363 C351 1.281 . S
O364 Mn348 2.297 . S
O364 C351 1.236 . S
N365 Mn349 2.282 . S
N365 C366 1.328 . S
N365 C370 1.318 . S
C366 N365 1.328 . S
C366 C367 1.457 . S
C366 H371 0.929 . S
C367 C366 1.457 . S
C367 C368 1.291 . S
C367 H380 0.931 . S
C368 C367 1.291 . S
C368 C369 1.373 . S
C368 H381 0.929 . S
C369 C368 1.373 . S
C369 C370 1.396 . S
C369 C376 1.403 . S
C370 C360 1.476 . S
C370 N365 1.318 . S
C370 C369 1.396 . S
H371 C366 0.929 . S
O372 Mn348 2.385 . S
O372 C350 1.234 . S
O373 Mn348 2.209 . S
O373 Mn349 2.215 . S
O373 C350 1.283 . S
O374 Mn348 2.094 . S
O374 C352 1.240 . S
O375 Mn349 2.117 . S
O375 C352 1.264 . S
C376 C369 1.403 . S
C376 C377 1.399 . S
C376 H382 0.929 . S
C377 C357 1.449 . S
C377 C376 1.399 . S
C377 H383 0.930 . S
H378 C358 0.931 . S
H379 C359 0.930 . S
H380 C367 0.931 . S
H381 C368 0.929 . S
H382 C376 0.929 . S
H383 C377 0.930 . S
Mn384 O389 2.095 . S
Mn384 O399 2.162 . S
Mn384 O400 2.297 . S
Mn384 O408 2.385 . S
Mn384 O409 2.209 . S
Mn384 O410 2.094 . S
Mn385 O390 2.121 . S
Mn385 N392 2.257 . S
Mn385 N401 2.282 . S
Mn385 O409 2.215 . S
Mn385 O411 2.117 . S
C386 O408 1.234 . S
C386 O409 1.283 . S
C387 O399 1.281 . S
C387 O400 1.236 . S
C388 O410 1.240 . S
C388 O411 1.264 . S
O389 Mn384 2.095 . S
O389 C398 1.250 . S
O390 Mn385 2.121 . S
O390 C398 1.258 . S
C391 N392 1.326 . S
C391 C395 1.460 . S
C391 H397 0.929 . S
N392 Mn385 2.257 . S
N392 C391 1.326 . S
N392 C396 1.362 . S
C393 C394 1.258 . S
C393 C396 1.431 . S
C393 C413 1.449 . S
C394 C393 1.258 . S
C394 C395 1.477 . S
C394 H414 0.931 . S
C395 C391 1.460 . S
C395 C394 1.477 . S
C395 H415 0.930 . S
C396 N392 1.362 . S
C396 C393 1.431 . S
C396 C406 1.476 . S
H397 C391 0.929 . S
C398 O389 1.250 . S
C398 O390 1.258 . S
O399 Mn384 2.162 . S
O399 C387 1.281 . S
O400 Mn384 2.297 . S
O400 C387 1.236 . S
N401 Mn385 2.282 . S
N401 C402 1.328 . S
N401 C406 1.318 . S
C402 N401 1.328 . S
C402 C403 1.457 . S
C402 H407 0.929 . S
C403 C402 1.457 . S
C403 C404 1.291 . S
C403 H416 0.931 . S
C404 C403 1.291 . S
C404 C405 1.373 . S
C404 H417 0.929 . S
C405 C404 1.373 . S
C405 C406 1.396 . S
C405 C412 1.403 . S
C406 C396 1.476 . S
C406 N401 1.318 . S
C406 C405 1.396 . S
H407 C402 0.929 . S
O408 Mn384 2.385 . S
O408 C386 1.234 . S
O409 Mn384 2.209 . S
O409 Mn385 2.215 . S
O409 C386 1.283 . S
O410 Mn384 2.094 . S
O410 C388 1.240 . S
O411 Mn385 2.117 . S
O411 C388 1.264 . S
C412 C405 1.403 . S
C412 C413 1.399 . S
C412 H418 0.929 . S
C413 C393 1.449 . S
C413 C412 1.399 . S
C413 H419 0.930 . S
H414 C394 0.931 . S
H415 C395 0.930 . S
H416 C403 0.931 . S
H417 C404 0.929 . S
H418 C412 0.929 . S
H419 C413 0.930 . S
Mn420 O425 2.095 . S
Mn420 O435 2.162 . S
Mn420 O436 2.297 . S
Mn420 O444 2.385 . S
Mn420 O445 2.209 . S
Mn420 O446 2.094 . S
Mn421 O426 2.121 . S
Mn421 N428 2.257 . S
Mn421 N437 2.282 . S
Mn421 O445 2.215 . S
Mn421 O447 2.117 . S
C422 O444 1.234 . S
C422 O445 1.283 . S
C423 O435 1.281 . S
C423 O436 1.236 . S
C424 O446 1.240 . S
C424 O447 1.264 . S
O425 Mn420 2.095 . S
O425 C434 1.250 . S
O426 Mn421 2.121 . S
O426 C434 1.258 . S
C427 N428 1.326 . S
C427 C431 1.460 . S
C427 H433 0.929 . S
N428 Mn421 2.257 . S
N428 C427 1.326 . S
N428 C432 1.362 . S
C429 C430 1.258 . S
C429 C432 1.431 . S
C429 C449 1.449 . S
C430 C429 1.258 . S
C430 C431 1.477 . S
C430 H450 0.931 . S
C431 C427 1.460 . S
C431 C430 1.477 . S
C431 H451 0.930 . S
C432 N428 1.362 . S
C432 C429 1.431 . S
C432 C442 1.476 . S
H433 C427 0.929 . S
C434 O425 1.250 . S
C434 O426 1.258 . S
O435 Mn420 2.162 . S
O435 C423 1.281 . S
O436 Mn420 2.297 . S
O436 C423 1.236 . S
N437 Mn421 2.282 . S
N437 C438 1.328 . S
N437 C442 1.318 . S
C438 N437 1.328 . S
C438 C439 1.457 . S
C438 H443 0.929 . S
C439 C438 1.457 . S
C439 C440 1.291 . S
C439 H452 0.931 . S
C440 C439 1.291 . S
C440 C441 1.373 . S
C440 H453 0.929 . S
C441 C440 1.373 . S
C441 C442 1.396 . S
C441 C448 1.403 . S
C442 C432 1.476 . S
C442 N437 1.318 . S
C442 C441 1.396 . S
H443 C438 0.929 . S
O444 Mn420 2.385 . S
O444 C422 1.234 . S
O445 Mn420 2.209 . S
O445 Mn421 2.215 . S
O445 C422 1.283 . S
O446 Mn420 2.094 . S
O446 C424 1.240 . S
O447 Mn421 2.117 . S
O447 C424 1.264 . S
C448 C441 1.403 . S
C448 C449 1.399 . S
C448 H454 0.929 . S
C449 C429 1.449 . S
C449 C448 1.399 . S
C449 H455 0.930 . S
H450 C430 0.931 . S
H451 C431 0.930 . S
H452 C439 0.931 . S
H453 C440 0.929 . S
H454 C448 0.929 . S
H455 C449 0.930 . S
Mn456 O461 2.095 . S
Mn456 O471 2.162 . S
Mn456 O472 2.297 . S
Mn456 O480 2.385 . S
Mn456 O481 2.209 . S
Mn456 O482 2.094 . S
Mn457 O462 2.121 . S
Mn457 N464 2.257 . S
Mn457 N473 2.282 . S
Mn457 O481 2.215 . S
Mn457 O483 2.117 . S
C458 O480 1.234 . S
C458 O481 1.283 . S
C459 O471 1.281 . S
C459 O472 1.236 . S
C460 O482 1.240 . S
C460 O483 1.264 . S
O461 Mn456 2.095 . S
O461 C470 1.250 . S
O462 Mn457 2.121 . S
O462 C470 1.258 . S
C463 N464 1.326 . S
C463 C467 1.460 . S
C463 H469 0.929 . S
N464 Mn457 2.257 . S
N464 C463 1.326 . S
N464 C468 1.362 . S
C465 C466 1.258 . S
C465 C468 1.431 . S
C465 C485 1.449 . S
C466 C465 1.258 . S
C466 C467 1.477 . S
C466 H486 0.931 . S
C467 C463 1.460 . S
C467 C466 1.477 . S
C467 H487 0.930 . S
C468 N464 1.362 . S
C468 C465 1.431 . S
C468 C478 1.476 . S
H469 C463 0.929 . S
C470 O461 1.250 . S
C470 O462 1.258 . S
O471 Mn456 2.162 . S
O471 C459 1.281 . S
O472 Mn456 2.297 . S
O472 C459 1.236 . S
N473 Mn457 2.282 . S
N473 C474 1.328 . S
N473 C478 1.318 . S
C474 N473 1.328 . S
C474 C475 1.457 . S
C474 H479 0.929 . S
C475 C474 1.457 . S
C475 C476 1.291 . S
C475 H488 0.931 . S
C476 C475 1.291 . S
C476 C477 1.373 . S
C476 H489 0.929 . S
C477 C476 1.373 . S
C477 C478 1.396 . S
C477 C484 1.403 . S
C478 C468 1.476 . S
C478 N473 1.318 . S
C478 C477 1.396 . S
H479 C474 0.929 . S
O480 Mn456 2.385 . S
O480 C458 1.234 . S
O481 Mn456 2.209 . S
O481 Mn457 2.215 . S
O481 C458 1.283 . S
O482 Mn456 2.094 . S
O482 C460 1.240 . S
O483 Mn457 2.117 . S
O483 C460 1.264 . S
C484 C477 1.403 . S
C484 C485 1.399 . S
C484 H490 0.929 . S
C485 C465 1.449 . S
C485 C484 1.399 . S
C485 H491 0.930 . S
H486 C466 0.931 . S
H487 C467 0.930 . S
H488 C475 0.931 . S
H489 C476 0.929 . S
H490 C484 0.929 . S
H491 C485 0.930 . S
H492 C498 0.930 . S
H493 C501 0.930 . S
H494 C502 0.930 . S
H495 C503 0.930 . S
H496 C506 0.930 . S
H497 C507 0.930 . S
C498 H492 0.930 . S
C498 C499 1.355 . S
C498 C500 1.415 . S
C499 C498 1.355 . S
C499 C501 1.419 . S
C500 C498 1.415 . S
C500 C505 1.425 . S
C500 C507 1.409 . S
C501 H493 0.930 . S
C501 C499 1.419 . S
C501 C502 1.362 . S
C502 H494 0.930 . S
C502 C501 1.362 . S
C502 C505 1.409 . S
C503 H495 0.930 . S
C503 C504 1.355 . S
C503 C505 1.415 . S
C504 C503 1.355 . S
C504 C506 1.419 . S
C505 C500 1.425 . S
C505 C502 1.409 . S
C505 C503 1.415 . S
C506 H496 0.930 . S
C506 C504 1.419 . S
C506 C507 1.362 . S
C507 H497 0.930 . S
C507 C500 1.409 . S
C507 C506 1.362 . S
H508 C514 0.930 . S
H509 C517 0.930 . S
H510 C518 0.930 . S
H511 C519 0.930 . S
H512 C522 0.930 . S
H513 C523 0.930 . S
C514 H508 0.930 . S
C514 C515 1.355 . S
C514 C516 1.415 . S
C515 C514 1.355 . S
C515 C517 1.419 . S
C516 C514 1.415 . S
C516 C521 1.425 . S
C516 C523 1.409 . S
C517 H509 0.930 . S
C517 C515 1.419 . S
C517 C518 1.362 . S
C518 H510 0.930 . S
C518 C517 1.362 . S
C518 C521 1.409 . S
C519 H511 0.930 . S
C519 C520 1.355 . S
C519 C521 1.415 . S
C520 C519 1.355 . S
C520 C522 1.419 . S
C521 C516 1.425 . S
C521 C518 1.409 . S
C521 C519 1.415 . S
C522 H512 0.930 . S
C522 C520 1.419 . S
C522 C523 1.362 . S
C523 H513 0.930 . S
C523 C516 1.409 . S
C523 C522 1.362 . S
H524 C530 0.930 . S
H525 C533 0.930 . S
H526 C534 0.930 . S
H527 C535 0.930 . S
H528 C538 0.930 . S
H529 C539 0.930 . S
C530 H524 0.930 . S
C530 C531 1.355 . S
C530 C532 1.415 . S
C531 C530 1.355 . S
C531 C533 1.419 . S
C532 C530 1.415 . S
C532 C537 1.425 . S
C532 C539 1.409 . S
C533 H525 0.930 . S
C533 C531 1.419 . S
C533 C534 1.362 . S
C534 H526 0.930 . S
C534 C533 1.362 . S
C534 C537 1.409 . S
C535 H527 0.930 . S
C535 C536 1.355 . S
C535 C537 1.415 . S
C536 C535 1.355 . S
C536 C538 1.419 . S
C537 C532 1.425 . S
C537 C534 1.409 . S
C537 C535 1.415 . S
C538 H528 0.930 . S
C538 C536 1.419 . S
C538 C539 1.362 . S
C539 H529 0.930 . S
C539 C532 1.409 . S
C539 C538 1.362 . S
H540 C546 0.930 . S
H541 C549 0.930 . S
H542 C550 0.930 . S
H543 C551 0.930 . S
H544 C554 0.930 . S
H545 C555 0.930 . S
C546 H540 0.930 . S
C546 C547 1.355 . S
C546 C548 1.415 . S
C547 C546 1.355 . S
C547 C549 1.419 . S
C548 C546 1.415 . S
C548 C553 1.425 . S
C548 C555 1.409 . S
C549 H541 0.930 . S
C549 C547 1.419 . S
C549 C550 1.362 . S
C550 H542 0.930 . S
C550 C549 1.362 . S
C550 C553 1.409 . S
C551 H543 0.930 . S
C551 C552 1.355 . S
C551 C553 1.415 . S
C552 C551 1.355 . S
C552 C554 1.419 . S
C553 C548 1.425 . S
C553 C550 1.409 . S
C553 C551 1.415 . S
C554 H544 0.930 . S
C554 C552 1.419 . S
C554 C555 1.362 . S
C555 H545 0.930 . S
C555 C548 1.409 . S
C555 C554 1.362 . S
H556 C562 0.930 . S
H557 C565 0.930 . S
H558 C566 0.930 . S
H559 C567 0.930 . S
H560 C570 0.930 . S
H561 C571 0.930 . S
C562 H556 0.930 . S
C562 C563 1.355 . S
C562 C564 1.415 . S
C563 C562 1.355 . S
C563 C565 1.419 . S
C564 C562 1.415 . S
C564 C569 1.425 . S
C564 C571 1.409 . S
C565 H557 0.930 . S
C565 C563 1.419 . S
C565 C566 1.362 . S
C566 H558 0.930 . S
C566 C565 1.362 . S
C566 C569 1.409 . S
C567 H559 0.930 . S
C567 C568 1.355 . S
C567 C569 1.415 . S
C568 C567 1.355 . S
C568 C570 1.419 . S
C569 C564 1.425 . S
C569 C566 1.409 . S
C569 C567 1.415 . S
C570 H560 0.930 . S
C570 C568 1.419 . S
C570 C571 1.362 . S
C571 H561 0.930 . S
C571 C564 1.409 . S
C571 C570 1.362 . S
H572 C578 0.930 . S
H573 C581 0.930 . S
H574 C582 0.930 . S
H575 C583 0.930 . S
H576 C586 0.930 . S
H577 C587 0.930 . S
C578 H572 0.930 . S
C578 C579 1.355 . S
C578 C580 1.415 . S
C579 C578 1.355 . S
C579 C581 1.419 . S
C580 C578 1.415 . S
C580 C585 1.425 . S
C580 C587 1.409 . S
C581 H573 0.930 . S
C581 C579 1.419 . S
C581 C582 1.362 . S
C582 H574 0.930 . S
C582 C581 1.362 . S
C582 C585 1.409 . S
C583 H575 0.930 . S
C583 C584 1.355 . S
C583 C585 1.415 . S
C584 C583 1.355 . S
C584 C586 1.419 . S
C585 C580 1.425 . S
C585 C582 1.409 . S
C585 C583 1.415 . S
C586 H576 0.930 . S
C586 C584 1.419 . S
C586 C587 1.362 . S
C587 H577 0.930 . S
C587 C580 1.409 . S
C587 C586 1.362 . S
H588 C594 0.930 . S
H589 C597 0.930 . S
H590 C598 0.930 . S
H591 C599 0.930 . S
H592 C602 0.930 . S
H593 C603 0.930 . S
C594 H588 0.930 . S
C594 C595 1.355 . S
C594 C596 1.415 . S
C595 C594 1.355 . S
C595 C597 1.419 . S
C596 C594 1.415 . S
C596 C601 1.425 . S
C596 C603 1.409 . S
C597 H589 0.930 . S
C597 C595 1.419 . S
C597 C598 1.362 . S
C598 H590 0.930 . S
C598 C597 1.362 . S
C598 C601 1.409 . S
C599 H591 0.930 . S
C599 C600 1.355 . S
C599 C601 1.415 . S
C600 C599 1.355 . S
C600 C602 1.419 . S
C601 C596 1.425 . S
C601 C598 1.409 . S
C601 C599 1.415 . S
C602 H592 0.930 . S
C602 C600 1.419 . S
C602 C603 1.362 . S
C603 H593 0.930 . S
C603 C596 1.409 . S
C603 C602 1.362 . S
H604 C610 0.930 . S
H605 C613 0.930 . S
H606 C614 0.930 . S
H607 C615 0.930 . S
H608 C618 0.930 . S
H609 C619 0.930 . S
C610 H604 0.930 . S
C610 C611 1.355 . S
C610 C612 1.415 . S
C611 C610 1.355 . S
C611 C613 1.419 . S
C612 C610 1.415 . S
C612 C617 1.425 . S
C612 C619 1.409 . S
C613 H605 0.930 . S
C613 C611 1.419 . S
C613 C614 1.362 . S
C614 H606 0.930 . S
C614 C613 1.362 . S
C614 C617 1.409 . S
C615 H607 0.930 . S
C615 C616 1.355 . S
C615 C617 1.415 . S
C616 C615 1.355 . S
C616 C618 1.419 . S
C617 C612 1.425 . S
C617 C614 1.409 . S
C617 C615 1.415 . S
C618 H608 0.930 . S
C618 C616 1.419 . S
C618 C619 1.362 . S
C619 H609 0.930 . S
C619 C612 1.409 . S
C619 C618 1.362 . S
H620 C626 0.930 . S
H621 C629 0.930 . S
H622 C630 0.930 . S
H623 C631 0.930 . S
H624 C634 0.930 . S
H625 C635 0.930 . S
C626 H620 0.930 . S
C626 C627 1.355 . S
C626 C628 1.415 . S
C627 C626 1.355 . S
C627 C629 1.419 . S
C628 C626 1.415 . S
C628 C633 1.425 . S
C628 C635 1.409 . S
C629 H621 0.930 . S
C629 C627 1.419 . S
C629 C630 1.362 . S
C630 H622 0.930 . S
C630 C629 1.362 . S
C630 C633 1.409 . S
C631 H623 0.930 . S
C631 C632 1.355 . S
C631 C633 1.415 . S
C632 C631 1.355 . S
C632 C634 1.419 . S
C633 C628 1.425 . S
C633 C630 1.409 . S
C633 C631 1.415 . S
C634 H624 0.930 . S
C634 C632 1.419 . S
C634 C635 1.362 . S
C635 H625 0.930 . S
C635 C628 1.409 . S
C635 C634 1.362 . S
H636 C642 0.930 . S
H637 C645 0.930 . S
H638 C646 0.930 . S
H639 C647 0.930 . S
H640 C650 0.930 . S
H641 C651 0.930 1_556 S
C642 H636 0.930 . S
C642 C643 1.355 . S
C642 C644 1.415 . S
C643 C642 1.355 . S
C643 C645 1.419 . S
C644 C642 1.415 . S
C644 C649 1.425 . S
C644 C651 1.409 . S
C645 H637 0.930 . S
C645 C643 1.419 . S
C645 C646 1.362 . S
C646 H638 0.930 . S
C646 C645 1.362 . S
C646 C649 1.409 . S
C647 H639 0.930 . S
C647 C648 1.355 . S
C647 C649 1.415 . S
C648 C647 1.355 . S
C648 C650 1.419 . S
C649 C644 1.425 . S
C649 C646 1.409 . S
C649 C647 1.415 . S
C650 H640 0.930 . S
C650 C648 1.419 . S
C650 C651 1.362 . S
C651 H641 0.930 1_554 S
C651 C644 1.409 . S
C651 C650 1.362 . S
H652 C658 0.930 . S
H653 C661 0.930 . S
H654 C662 0.930 . S
H655 C663 0.930 . S
H656 C666 0.930 . S
H657 C667 0.930 . S
C658 H652 0.930 . S
C658 C659 1.355 . S
C658 C660 1.415 . S
C659 C658 1.355 . S
C659 C661 1.419 . S
C660 C658 1.415 . S
C660 C665 1.425 . S
C660 C667 1.409 . S
C661 H653 0.930 . S
C661 C659 1.419 . S
C661 C662 1.362 . S
C662 H654 0.930 . S
C662 C661 1.362 . S
C662 C665 1.409 . S
C663 H655 0.930 . S
C663 C664 1.355 . S
C663 C665 1.415 . S
C664 C663 1.355 . S
C664 C666 1.419 . S
C665 C660 1.425 . S
C665 C662 1.409 . S
C665 C663 1.415 . S
C666 H656 0.930 . S
C666 C664 1.419 . S
C666 C667 1.362 . S
C667 H657 0.930 . S
C667 C660 1.409 . S
C667 C666 1.362 . S
H668 C674 0.930 . S
H669 C677 0.930 . S
H670 C678 0.930 . S
H671 C679 0.930 . S
H672 C682 0.930 . S
H673 C683 0.930 . S
C674 H668 0.930 . S
C674 C675 1.355 . S
C674 C676 1.415 . S
C675 C674 1.355 . S
C675 C677 1.419 . S
C676 C674 1.415 . S
C676 C681 1.425 . S
C676 C683 1.409 . S
C677 H669 0.930 . S
C677 C675 1.419 . S
C677 C678 1.362 . S
C678 H670 0.930 . S
C678 C677 1.362 . S
C678 C681 1.409 . S
C679 H671 0.930 . S
C679 C680 1.355 . S
C679 C681 1.415 . S
C680 C679 1.355 . S
C680 C682 1.419 . S
C681 C676 1.425 . S
C681 C678 1.409 . S
C681 C679 1.415 . S
C682 H672 0.930 . S
C682 C680 1.419 . S
C682 C683 1.362 . S
C683 H673 0.930 . S
C683 C676 1.409 . S
C683 C682 1.362 . S
H684 C690 0.930 . S
H685 C693 0.930 . S
H686 C694 0.930 . S
H687 C695 0.930 . S
H688 C698 0.930 . S
H689 C699 0.930 . S
C690 H684 0.930 . S
C690 C691 1.355 . S
C690 C692 1.415 . S
C691 C690 1.355 . S
C691 C693 1.419 . S
C692 C690 1.415 . S
C692 C697 1.425 . S
C692 C699 1.409 . S
C693 H685 0.930 . S
C693 C691 1.419 . S
C693 C694 1.362 . S
C694 H686 0.930 . S
C694 C693 1.362 . S
C694 C697 1.409 . S
C695 H687 0.930 . S
C695 C696 1.355 . S
C695 C697 1.415 . S
C696 C695 1.355 . S
C696 C698 1.419 . S
C697 C692 1.425 . S
C697 C694 1.409 . S
C697 C695 1.415 . S
C698 H688 0.930 . S
C698 C696 1.419 . S
C698 C699 1.362 . S
C699 H689 0.930 . S
C699 C692 1.409 . S
C699 C698 1.362 . S
H700 C706 0.930 . S
H701 C709 0.930 . S
H702 C710 0.930 . S
H703 C711 0.930 . S
H704 C714 0.930 . S
H705 C715 0.930 . S
C706 H700 0.930 . S
C706 C707 1.355 . S
C706 C708 1.415 . S
C707 C706 1.355 . S
C707 C709 1.419 . S
C708 C706 1.415 . S
C708 C713 1.425 . S
C708 C715 1.409 . S
C709 H701 0.930 . S
C709 C707 1.419 . S
C709 C710 1.362 . S
C710 H702 0.930 . S
C710 C709 1.362 . S
C710 C713 1.409 . S
C711 H703 0.930 . S
C711 C712 1.355 . S
C711 C713 1.415 . S
C712 C711 1.355 . S
C712 C714 1.419 . S
C713 C708 1.425 . S
C713 C710 1.409 . S
C713 C711 1.415 . S
C714 H704 0.930 . S
C714 C712 1.419 . S
C714 C715 1.362 . S
C715 H705 0.930 . S
C715 C708 1.409 . S
C715 C714 1.362 . S
H716 C722 0.930 . S
H717 C725 0.930 . S
H718 C726 0.930 . S
H719 C727 0.930 . S
H720 C730 0.930 . S
H721 C731 0.930 . S
C722 H716 0.930 . S
C722 C723 1.355 . S
C722 C724 1.415 . S
C723 C722 1.355 . S
C723 C725 1.419 . S
C724 C722 1.415 . S
C724 C729 1.425 . S
C724 C731 1.409 . S
C725 H717 0.930 . S
C725 C723 1.419 . S
C725 C726 1.362 . S
C726 H718 0.930 . S
C726 C725 1.362 . S
C726 C729 1.409 . S
C727 H719 0.930 . S
C727 C728 1.355 . S
C727 C729 1.415 . S
C728 C727 1.355 . S
C728 C730 1.419 . S
C729 C724 1.425 . S
C729 C726 1.409 . S
C729 C727 1.415 . S
C730 H720 0.930 . S
C730 C728 1.419 . S
C730 C731 1.362 . S
C731 H721 0.930 . S
C731 C724 1.409 . S
C731 C730 1.362 . S
H732 C738 0.930 . S
H733 C741 0.930 . S
H734 C742 0.930 . S
H735 C743 0.930 . S
H736 C746 0.930 . S
H737 C747 0.930 . S
C738 H732 0.930 . S
C738 C739 1.355 . S
C738 C740 1.415 . S
C739 C738 1.355 . S
C739 C741 1.419 . S
C740 C738 1.415 . S
C740 C745 1.425 . S
C740 C747 1.409 1_556 S
C741 H733 0.930 . S
C741 C739 1.419 . S
C741 C742 1.362 . S
C742 H734 0.930 . S
C742 C741 1.362 . S
C742 C745 1.409 . S
C743 H735 0.930 . S
C743 C744 1.355 1_556 S
C743 C745 1.415 . S
C744 C743 1.355 1_554 S
C744 C746 1.419 . S
C745 C740 1.425 . S
C745 C742 1.409 . S
C745 C743 1.415 . S
C746 H736 0.930 . S
C746 C744 1.419 . S
C746 C747 1.362 . S
C747 H737 0.930 . S
C747 C740 1.409 1_554 S
C747 C746 1.362 . S
H748 C754 0.930 . S
H749 C757 0.930 . S
H750 C758 0.930 . S
H751 C759 0.930 . S
H752 C762 0.930 . S
H753 C763 0.930 . S
C754 H748 0.930 . S
C754 C755 1.355 . S
C754 C756 1.415 . S
C755 C754 1.355 . S
C755 C757 1.419 . S
C756 C754 1.415 . S
C756 C761 1.425 . S
C756 C763 1.409 . S
C757 H749 0.930 . S
C757 C755 1.419 . S
C757 C758 1.362 . S
C758 H750 0.930 . S
C758 C757 1.362 . S
C758 C761 1.409 . S
C759 H751 0.930 . S
C759 C760 1.355 . S
C759 C761 1.415 . S
C760 C759 1.355 . S
C760 C762 1.419 . S
C761 C756 1.425 . S
C761 C758 1.409 . S
C761 C759 1.415 . S
C762 H752 0.930 . S
C762 C760 1.419 . S
C762 C763 1.362 . S
C763 H753 0.930 . S
C763 C756 1.409 . S
C763 C762 1.362 . S
H764 C770 0.930 . S
H765 C773 0.930 . S
H766 C774 0.930 . S
H767 C775 0.930 . S
H768 C778 0.930 . S
H769 C779 0.930 . S
C770 H764 0.930 . S
C770 C771 1.355 . S
C770 C772 1.415 . S
C771 C770 1.355 . S
C771 C773 1.419 . S
C772 C770 1.415 . S
C772 C777 1.425 . S
C772 C779 1.409 . S
C773 H765 0.930 . S
C773 C771 1.419 . S
C773 C774 1.362 . S
C774 H766 0.930 . S
C774 C773 1.362 . S
C774 C777 1.409 . S
C775 H767 0.930 . S
C775 C776 1.355 . S
C775 C777 1.415 . S
C776 C775 1.355 . S
C776 C778 1.419 . S
C777 C772 1.425 . S
C777 C774 1.409 . S
C777 C775 1.415 . S
C778 H768 0.930 . S
C778 C776 1.419 . S
C778 C779 1.362 . S
C779 H769 0.930 . S
C779 C772 1.409 . S
C779 C778 1.362 . S
H780 C786 0.930 . S
H781 C789 0.930 . S
H782 C790 0.930 . S
H783 C791 0.930 . S
H784 C794 0.930 . S
H785 C795 0.930 . S
C786 H780 0.930 . S
C786 C787 1.355 . S
C786 C788 1.415 . S
C787 C786 1.355 . S
C787 C789 1.419 . S
C788 C786 1.415 . S
C788 C793 1.425 . S
C788 C795 1.409 . S
C789 H781 0.930 . S
C789 C787 1.419 . S
C789 C790 1.362 . S
C790 H782 0.930 . S
C790 C789 1.362 . S
C790 C793 1.409 . S
C791 H783 0.930 . S
C791 C792 1.355 . S
C791 C793 1.415 . S
C792 C791 1.355 . S
C792 C794 1.419 . S
C793 C788 1.425 . S
C793 C790 1.409 . S
C793 C791 1.415 . S
C794 H784 0.930 . S
C794 C792 1.419 . S
C794 C795 1.362 . S
C795 H785 0.930 . S
C795 C788 1.409 . S
C795 C794 1.362 . S
H796 C802 0.930 . S
H797 C805 0.930 . S
H798 C806 0.930 . S
H799 C807 0.930 . S
H800 C810 0.930 . S
H801 C811 0.930 . S
C802 H796 0.930 . S
C802 C803 1.355 . S
C802 C804 1.415 . S
C803 C802 1.355 . S
C803 C805 1.419 . S
C804 C802 1.415 . S
C804 C809 1.425 . S
C804 C811 1.409 . S
C805 H797 0.930 . S
C805 C803 1.419 . S
C805 C806 1.362 . S
C806 H798 0.930 . S
C806 C805 1.362 . S
C806 C809 1.409 . S
C807 H799 0.930 . S
C807 C808 1.355 . S
C807 C809 1.415 . S
C808 C807 1.355 . S
C808 C810 1.419 . S
C809 C804 1.425 . S
C809 C806 1.409 . S
C809 C807 1.415 . S
C810 H800 0.930 . S
C810 C808 1.419 . S
C810 C811 1.362 . S
C811 H801 0.930 . S
C811 C804 1.409 . S
C811 C810 1.362 . S
H812 C818 0.930 . S
H813 C821 0.930 . S
H814 C822 0.930 . S
H815 C823 0.930 . S
H816 C826 0.930 . S
H817 C827 0.930 . S
C818 H812 0.930 . S
C818 C819 1.355 . S
C818 C820 1.415 . S
C819 C818 1.355 . S
C819 C821 1.419 . S
C820 C818 1.415 . S
C820 C825 1.425 . S
C820 C827 1.409 . S
C821 H813 0.930 . S
C821 C819 1.419 . S
C821 C822 1.362 . S
C822 H814 0.930 . S
C822 C821 1.362 . S
C822 C825 1.409 . S
C823 H815 0.930 . S
C823 C824 1.355 . S
C823 C825 1.415 . S
C824 C823 1.355 . S
C824 C826 1.419 . S
C825 C820 1.425 . S
C825 C822 1.409 . S
C825 C823 1.415 . S
C826 H816 0.930 . S
C826 C824 1.419 . S
C826 C827 1.362 . S
C827 H817 0.930 . S
C827 C820 1.409 . S
C827 C826 1.362 . S
H828 C834 0.930 . S
H829 C837 0.930 . S
H830 C838 0.930 . S
H831 C839 0.930 . S
H832 C842 0.930 . S
H833 C843 0.930 . S
C834 H828 0.930 . S
C834 C835 1.355 . S
C834 C836 1.415 . S
C835 C834 1.355 . S
C835 C837 1.419 . S
C836 C834 1.415 . S
C836 C841 1.425 . S
C836 C843 1.409 . S
C837 H829 0.930 . S
C837 C835 1.419 . S
C837 C838 1.362 . S
C838 H830 0.930 . S
C838 C837 1.362 . S
C838 C841 1.409 . S
C839 H831 0.930 . S
C839 C840 1.355 . S
C839 C841 1.415 . S
C840 C839 1.355 . S
C840 C842 1.419 . S
C841 C836 1.425 . S
C841 C838 1.409 . S
C841 C839 1.415 . S
C842 H832 0.930 . S
C842 C840 1.419 . S
C842 C843 1.362 . S
C843 H833 0.930 . S
C843 C836 1.409 . S
C843 C842 1.362 . S
H844 C850 0.930 . S
H845 C853 0.930 . S
H846 C854 0.930 . S
H847 C855 0.930 . S
H848 C858 0.930 . S
H849 C859 0.930 . S
C850 H844 0.930 . S
C850 C851 1.355 . S
C850 C852 1.432 . S
C851 C850 1.355 . S
C851 C853 1.419 . S
C852 C850 1.432 . S
C852 C857 1.432 . S
C852 C859 1.386 1_554 S
C853 H845 0.930 . S
C853 C851 1.419 . S
C853 C854 1.362 . S
C854 H846 0.930 . S
C854 C853 1.362 . S
C854 C857 1.409 . S
C855 H847 0.930 . S
C855 C856 1.355 . S
C855 C857 1.415 1_556 S
C856 C855 1.355 . S
C856 C858 1.419 . S
C857 C852 1.432 . S
C857 C854 1.409 . S
C857 C855 1.415 1_554 S
C858 H848 0.930 . S
C858 C856 1.419 . S
C858 C859 1.362 . S
C859 H849 0.930 . S
C859 C852 1.386 1_556 S
C859 C858 1.362 . S
H860 C866 0.930 . S
H861 C869 0.930 . S
H862 C870 0.930 . S
H863 C871 0.930 . S
H864 C874 0.930 . S
H865 C875 0.930 . S
C866 H860 0.930 . S
C866 C867 1.355 . S
C866 C868 1.415 . S
C867 C866 1.355 . S
C867 C869 1.419 . S
C868 C866 1.415 . S
C868 C873 1.425 . S
C868 C875 1.409 . S
C869 H861 0.930 . S
C869 C867 1.419 . S
C869 C870 1.362 . S
C870 H862 0.930 . S
C870 C869 1.362 . S
C870 C873 1.409 . S
C871 H863 0.930 . S
C871 C872 1.355 . S
C871 C873 1.415 . S
C872 C871 1.355 . S
C872 C874 1.419 . S
C873 C868 1.425 . S
C873 C870 1.409 . S
C873 C871 1.415 . S
C874 H864 0.930 . S
C874 C872 1.419 . S
C874 C875 1.362 . S
C875 H865 0.930 . S
C875 C868 1.409 . S
C875 C874 1.362 . S
C504 C459 1.605 . S
C499 C15 1.587 . S
C515 C61 1.635 . S
C520 C279 1.653 . S
C531 C114 1.587 . S
C536 C326 1.610 . S
C547 C139 1.565 . S
C552 C362 1.529 . S
C568 C387 1.596 . S
C563 C185 1.591 . S
C579 C245 1.558 . S
C584 C423 1.580 . S
C595 C47 1.613 . S
C600 C315 1.628 . S
C611 C100 1.583 . S
C616 C351 1.589 . S
C627 C153 1.521 . S
C632 C398 1.546 . S
C648 C434 1.593 . S
C643 C199 1.570 . S
C664 C470 1.582 . S
C659 C231 1.613 . S
C680 C290 1.604 . S
C675 C1 1.620 . S
C691 C22 1.476 . S
C696 C314 1.460 . S
C707 C68 1.489 . S
C712 C350 1.474 . S
C728 C388 1.472 . S
C723 C107 1.480 . S
C739 C146 1.480 . S
C744 C424 1.477 . S
C760 C460 1.440 . S
C755 C192 1.456 . S
C776 C280 1.433 . S
C771 C252 1.443 . S
C792 C458 1.464 . S
C787 C54 1.475 . S
C803 C93 1.469 . S
C808 C278 1.440 . S
C824 C316 1.479 . S
C819 C160 1.479 . S
C835 C206 1.483 . S
C840 C352 1.484 . S
C851 C238 1.505 . S
C856 C386 1.499 . S
C867 C8 1.498 . S
C872 C422 1.472 . S
