# Generated by pormake.
# Topology anh, (6,3)-cn, num edge types: 1
# Building blocks:
#     Node 0, Type 0, BuildingBlock: MIFKUJ_clean_sbu_0, # of connection points: 6
#     Node 1, Type 0, BuildingBlock: MIFKUJ_clean_sbu_0, # of connection points: 6
#     Node 2, Type 0, BuildingBlock: MIFKUJ_clean_sbu_0, # of connection points: 6
#     Node 3, Type 1, BuildingBlock: INOVEN_clean_linker_0, # of connection points: 3
#     Node 4, Type 1, BuildingBlock: INOVEN_clean_linker_0, # of connection points: 3
#     Node 5, Type 1, BuildingBlock: INOVEN_clean_linker_0, # of connection points: 3
#     Node 6, Type 1, BuildingBlock: INOVEN_clean_linker_0, # of connection points: 3
#     Node 7, Type 1, BuildingBlock: INOVEN_clean_linker_0, # of connection points: 3
#     Node 8, Type 1, BuildingBlock: INOVEN_clean_linker_0, # of connection points: 3
#     Edge 9, Type (0, 1), BuildingBlock: FUNLAD_clean_linker_1, # of connection points: 2
#     Edge 10, Type (0, 1), BuildingBlock: FUNLAD_clean_linker_1, # of connection points: 2
#     Edge 11, Type (0, 1), BuildingBlock: FUNLAD_clean_linker_1, # of connection points: 2
#     Edge 12, Type (0, 1), BuildingBlock: FUNLAD_clean_linker_1, # of connection points: 2
#     Edge 13, Type (0, 1), BuildingBlock: FUNLAD_clean_linker_1, # of connection points: 2
#     Edge 14, Type (0, 1), BuildingBlock: FUNLAD_clean_linker_1, # of connection points: 2
#     Edge 15, Type (0, 1), BuildingBlock: FUNLAD_clean_linker_1, # of connection points: 2
#     Edge 16, Type (0, 1), BuildingBlock: FUNLAD_clean_linker_1, # of connection points: 2
#     Edge 17, Type (0, 1), BuildingBlock: FUNLAD_clean_linker_1, # of connection points: 2
#     Edge 18, Type (0, 1), BuildingBlock: FUNLAD_clean_linker_1, # of connection points: 2
#     Edge 19, Type (0, 1), BuildingBlock: FUNLAD_clean_linker_1, # of connection points: 2
#     Edge 20, Type (0, 1), BuildingBlock: FUNLAD_clean_linker_1, # of connection points: 2
#     Edge 21, Type (0, 1), BuildingBlock: FUNLAD_clean_linker_1, # of connection points: 2
#     Edge 22, Type (0, 1), BuildingBlock: FUNLAD_clean_linker_1, # of connection points: 2
#     Edge 23, Type (0, 1), BuildingBlock: FUNLAD_clean_linker_1, # of connection points: 2
#     Edge 24, Type (0, 1), BuildingBlock: FUNLAD_clean_linker_1, # of connection points: 2
#     Edge 25, Type (0, 1), BuildingBlock: FUNLAD_clean_linker_1, # of connection points: 2
#     Edge 26, Type (0, 1), BuildingBlock: FUNLAD_clean_linker_1, # of connection points: 2
# Relax obj value: 0.067
# Max RMSD: 0.134
# Mean RMSD: 0.093
data_MOF--net-anh--node1-MIFKUJ_clean_sbu_0--node2-INOVEN_clean_linker_0--edge1-FUNLAD_clean_linker_1
_symmetry_space_group_name_H-M    P1
_symmetry_Int_Tables_number       1
_symmetry_cell_setting            triclinic
loop_
_symmetry_equiv_pos_as_xyz
'x, y, z'
_cell_length_a     33.002174
_cell_length_b     33.168463
_cell_length_c     48.803298
_cell_angle_alpha  96.544616
_cell_angle_beta   93.116543
_cell_angle_gamma 120.15192
loop_
_atom_site_label
_atom_site_type_symbol
_atom_site_fract_x
_atom_site_fract_y
_atom_site_fract_z
_atom_type_partial_charge
Zn0 Zn 0.07516 0.60425 0.16757 0.0
Zn1 Zn 0.95787 0.5143 0.16551 0.0
C2 C 0.1461 0.5795 0.17815 0.0
O3 O 0.16363 0.6179 0.19685 0.0
C4 C 0.88412 0.53494 0.15435 0.0
O5 O 0.87009 0.49822 0.13482 0.0
O6 O 0.12885 0.6695 0.16737 0.0
O7 O 0.03539 0.59173 0.13175 0.0
O8 O 0.97965 0.51649 0.12796 0.0
C9 C 0.15356 0.67493 0.14748 0.0
O10 O 0.14325 0.63836 0.12877 0.0
O11 O 0.1058 0.56376 0.16429 0.0
C12 C 0.87572 0.4349 0.1786 0.0
O13 O 0.87416 0.46768 0.19558 0.0
O14 O 0.90899 0.44641 0.16377 0.0
O15 O 0.00243 0.52806 0.20004 0.0
O16 O 0.04924 0.60529 0.204 0.0
O17 O 0.92291 0.55085 0.17003 0.0
C18 C 0.0064 0.55206 0.11706 0.0
C19 C 0.02759 0.56845 0.215 0.0
Zn20 Zn 0.54021 0.09071 0.49639 0.0
Zn21 Zn 0.51818 0.97737 0.49757 0.0
C22 C 0.63765 0.1633 0.50836 0.0
O23 O 0.61855 0.18201 0.52436 0.0
C24 C 0.42139 0.89815 0.48422 0.0
O25 O 0.443 0.87675 0.47407 0.0
O26 O 0.52695 0.14251 0.49159 0.0
O27 O 0.5026 0.04042 0.46311 0.0
O28 O 0.54369 0.00518 0.46352 0.0
C29 C 0.54819 0.16908 0.47405 0.0
O30 O 0.57569 0.16044 0.45914 0.0
O31 O 0.61146 0.12148 0.49496 0.0
C32 C 0.52427 0.90612 0.52046 0.0
O33 O 0.50235 0.91649 0.53915 0.0
O34 O 0.53571 0.92832 0.5 0.0
O35 O 0.54485 0.01881 0.53495 0.0
O36 O 0.52693 0.07493 0.53476 0.0
O37 O 0.4456 0.9422 0.49395 0.0
C38 C 0.52457 0.02344 0.45044 0.0
C39 C 0.53873 0.05053 0.54772 0.0
Zn40 Zn 0.60079 0.48712 0.8384 0.0
Zn41 Zn 0.51195 0.54234 0.83238 0.0
C42 C 0.59346 0.40621 0.853 0.0
O43 O 0.62506 0.43913 0.87284 0.0
C44 C 0.52138 0.63061 0.83269 0.0
O45 O 0.48268 0.60413 0.81501 0.0
O46 O 0.66907 0.51568 0.83455 0.0
O47 O 0.5705 0.50436 0.80703 0.0
O48 O 0.52427 0.53059 0.79342 0.0
C49 C 0.67872 0.50172 0.81183 0.0
O50 O 0.64422 0.47221 0.79217 0.0
O51 O 0.57525 0.41776 0.83403 0.0
C52 C 0.42876 0.52432 0.85514 0.0
O53 O 0.45994 0.55336 0.87634 0.0
O54 O 0.44248 0.51092 0.83406 0.0
O55 O 0.5473 0.52226 0.85455 0.0
O56 O 0.59211 0.50586 0.87811 0.0
O57 O 0.54165 0.61161 0.84376 0.0
C58 C 0.5517 0.51506 0.78776 0.0
C59 C 0.56305 0.52004 0.87803 0.0
H60 H 0.45931 0.03541 0.16406 0.0
H61 H 0.40798 0.9941 0.24128 0.0
H62 H 0.55224 0.10335 0.24112 0.0
N63 N 0.5453 0.10398 0.18631 0.0
N64 N 0.58783 0.12101 0.19477 0.0
C65 C 0.46534 0.03923 0.18651 0.0
C66 C 0.42877 0.01076 0.20114 0.0
C67 C 0.50988 0.07251 0.2009 0.0
C68 C 0.51798 0.07681 0.23001 0.0
C69 C 0.48118 0.04869 0.24472 0.0
C70 C 0.43647 0.01654 0.23013 0.0
H71 H 0.57285 0.51801 0.49649 0.0
H72 H 0.57253 0.46748 0.57401 0.0
H73 H 0.57695 0.59869 0.57321 0.0
N74 N 0.57486 0.59604 0.51779 0.0
N75 N 0.55982 0.62162 0.52752 0.0
C76 C 0.57471 0.52288 0.51897 0.0
C77 C 0.57395 0.48853 0.53358 0.0
C78 C 0.57575 0.56256 0.53307 0.0
C79 C 0.57655 0.5682 0.56215 0.0
C80 C 0.57692 0.53482 0.57714 0.0
C81 C 0.57561 0.49496 0.56274 0.0
H82 H 0.03341 0.55454 0.82832 0.0
H83 H 0.99654 0.58541 0.90791 0.0
H84 H 0.10881 0.55593 0.90372 0.0
N85 N 0.1042 0.54492 0.8476 0.0
N86 N 0.1364 0.54088 0.85892 0.0
C87 C 0.03902 0.55921 0.85082 0.0
C88 C 0.01088 0.57045 0.86678 0.0
C89 C 0.07499 0.55472 0.86397 0.0
C90 C 0.08166 0.56011 0.89324 0.0
C91 C 0.0527 0.56984 0.90916 0.0
C92 C 0.01834 0.57646 0.8958 0.0
H93 H 0.05965 0.57408 0.50523 0.0
H94 H 0.11926 0.60903 0.42898 0.0
H95 H 0.9819 0.48649 0.42663 0.0
N96 N 0.97879 0.49558 0.48178 0.0
N97 N 0.95426 0.45226 0.47282 0.0
C98 C 0.05699 0.56643 0.4828 0.0
C99 C 0.09412 0.59653 0.46877 0.0
C100 C 0.01659 0.52595 0.46773 0.0
C101 C 0.01325 0.51679 0.43854 0.0
C102 C 0.05015 0.5469 0.42464 0.0
C103 C 0.09058 0.58604 0.43982 0.0
H104 H 0.5381 0.04159 0.83705 0.0
H105 H 0.56056 0.10468 0.76304 0.0
H106 H 0.57111 0.98109 0.7651 0.0
N107 N 0.5531 0.97251 0.81762 0.0
N108 N 0.57878 0.95561 0.81306 0.0
C109 C 0.54625 0.04201 0.81583 0.0
C110 C 0.54923 0.07746 0.8015 0.0
C111 C 0.55581 0.0082 0.80308 0.0
C112 C 0.56555 0.00836 0.77535 0.0
C113 C 0.56538 0.04179 0.76029 0.0
C114 C 0.55873 0.07721 0.77388 0.0
H115 H 0.53929 0.5409 0.1661 0.0
H116 H 0.60675 0.54763 0.09256 0.0
H117 H 0.48108 0.55678 0.08964 0.0
N118 N 0.46914 0.54954 0.14354 0.0
N119 N 0.43492 0.54893 0.13079 0.0
C120 C 0.54068 0.54438 0.14431 0.0
C121 C 0.57726 0.54418 0.13093 0.0
C122 C 0.50557 0.54869 0.12945 0.0
C123 C 0.50751 0.55267 0.10096 0.0
C124 C 0.54401 0.55228 0.08746 0.0
C125 C 0.57861 0.54828 0.10276 0.0
H126 H 0.16229 0.53125 0.15221 0.0
C127 C 0.17639 0.56036 0.1695 0.0
H128 H 0.23708 0.61239 0.19652 0.0
H129 H 0.31817 0.47327 0.15225 0.0
H130 H 0.26183 0.41683 0.1783 0.0
H131 H 0.20313 0.43095 0.19971 0.0
H132 H 0.20003 0.50147 0.19492 0.0
C133 C 0.22228 0.58183 0.18014 0.0
C134 C 0.25656 0.57173 0.16669 0.0
C135 C 0.25862 0.53088 0.17011 0.0
C136 C 0.29346 0.52339 0.15836 0.0
C137 C 0.29349 0.48146 0.16135 0.0
C138 C 0.26116 0.44862 0.17614 0.0
C139 C 0.22803 0.45653 0.18816 0.0
C140 C 0.2266 0.4971 0.18523 0.0
H141 H 0.40274 0.55575 0.16756 0.0
C142 C 0.39943 0.55122 0.14496 0.0
H143 H 0.36118 0.54656 0.10784 0.0
H144 H 0.26126 0.65276 0.15517 0.0
H145 H 0.31786 0.70962 0.12953 0.0
H146 H 0.37948 0.69791 0.1103 0.0
H147 H 0.38479 0.62919 0.11653 0.0
C148 C 0.36274 0.5495 0.13033 0.0
C149 C 0.32685 0.55727 0.14363 0.0
C150 C 0.32441 0.59793 0.14004 0.0
C151 C 0.2893 0.60509 0.15151 0.0
C152 C 0.28756 0.64582 0.14729 0.0
C153 C 0.31977 0.67874 0.13252 0.0
C154 C 0.35439 0.67209 0.12166 0.0
C155 C 0.35691 0.63233 0.12533 0.0
H156 H 0.70503 0.17582 0.49386 0.0
C157 C 0.687 0.19299 0.5028 0.0
H158 H 0.68946 0.25733 0.51498 0.0
H159 H 0.90806 0.39751 0.53421 0.0
H160 H 0.88752 0.40165 0.58084 0.0
H161 H 0.80724 0.34699 0.59104 0.0
H162 H 0.74734 0.28734 0.55471 0.0
C163 C 0.70803 0.24052 0.50634 0.0
C164 C 0.75682 0.27263 0.49969 0.0
C165 C 0.7915 0.30813 0.52103 0.0
C166 C 0.83746 0.3409 0.51494 0.0
C167 C 0.87192 0.37367 0.53717 0.0
C168 C 0.86079 0.37599 0.56421 0.0
C169 C 0.81564 0.34515 0.56996 0.0
C170 C 0.78147 0.31122 0.54881 0.0
H171 H 0.89602 0.4368 0.49689 0.0
C172 C 0.91366 0.42199 0.48489 0.0
H173 H 0.91441 0.36181 0.46768 0.0
H174 H 0.69767 0.21265 0.45289 0.0
H175 H 0.71797 0.20856 0.40633 0.0
H176 H 0.79762 0.26433 0.39582 0.0
H177 H 0.8571 0.32474 0.43176 0.0
C178 C 0.89561 0.37497 0.47984 0.0
C179 C 0.84832 0.33955 0.48718 0.0
C180 C 0.81376 0.30357 0.46586 0.0
C181 C 0.76793 0.27053 0.47203 0.0
C182 C 0.73361 0.23709 0.4499 0.0
C183 C 0.74459 0.23469 0.42286 0.0
C184 C 0.78938 0.26612 0.41694 0.0
C185 C 0.82343 0.30053 0.43796 0.0
H186 H 0.57834 0.70314 0.8501 0.0
C187 C 0.54366 0.68218 0.83785 0.0
H188 H 0.48964 0.68299 0.81319 0.0
H189 H 0.60342 0.90495 0.87526 0.0
H190 H 0.57831 0.87456 0.91815 0.0
H191 H 0.53897 0.789 0.91945 0.0
H192 H 0.52505 0.73343 0.87804 0.0
C193 C 0.52353 0.70359 0.8263 0.0
C194 C 0.55011 0.75524 0.82674 0.0
C195 C 0.55679 0.78683 0.85099 0.0
C196 C 0.57791 0.83588 0.84999 0.0
C197 C 0.58589 0.86712 0.87469 0.0
C198 C 0.57199 0.85018 0.89945 0.0
C199 C 0.54995 0.80202 0.9002 0.0
C200 C 0.54224 0.77051 0.87629 0.0
H201 H 0.53998 0.89469 0.83325 0.0
C202 C 0.57255 0.91613 0.8247 0.0
H203 H 0.63528 0.92341 0.81236 0.0
H204 H 0.55056 0.70466 0.77844 0.0
H205 H 0.57807 0.735 0.73606 0.0
H206 H 0.61037 0.81931 0.73324 0.0
H207 H 0.61627 0.8738 0.77281 0.0
C208 C 0.60352 0.9017 0.82146 0.0
C209 C 0.59054 0.85269 0.82448 0.0
C210 C 0.58706 0.8214 0.80081 0.0
C211 C 0.56719 0.77262 0.8021 0.0
C212 C 0.5645 0.74196 0.77839 0.0
C213 C 0.58027 0.7589 0.75393 0.0
C214 C 0.59855 0.80636 0.75239 0.0
C215 C 0.60182 0.83735 0.7754 0.0
H216 H 0.86641 0.58664 0.17469 0.0
C217 C 0.85308 0.55465 0.15958 0.0
H218 H 0.79417 0.49957 0.13251 0.0
H219 H 0.64298 0.5245 0.19479 0.0
H220 H 0.64853 0.47021 0.22206 0.0
H221 H 0.71151 0.45129 0.21765 0.0
H222 H 0.76984 0.48714 0.18629 0.0
C223 C 0.80821 0.53245 0.14691 0.0
C224 C 0.77473 0.54933 0.15264 0.0
C225 C 0.74048 0.52773 0.17073 0.0
C226 C 0.7033 0.53765 0.17268 0.0
C227 C 0.67078 0.51684 0.19173 0.0
C228 C 0.67383 0.48593 0.20767 0.0
C229 C 0.70934 0.47533 0.20522 0.0
C230 C 0.74246 0.49599 0.18707 0.0
H231 H 0.60781 0.50144 0.14125 0.0
C232 C 0.61343 0.53693 0.14497 0.0
H233 H 0.66275 0.60925 0.15634 0.0
H234 H 0.83711 0.60012 0.11816 0.0
H235 H 0.83215 0.65458 0.09086 0.0
H236 H 0.76619 0.66949 0.09251 0.0
H237 H 0.70517 0.63057 0.12142 0.0
C238 C 0.65708 0.57376 0.15443 0.0
C239 C 0.69941 0.56802 0.15579 0.0
C240 C 0.73518 0.59147 0.1387 0.0
C241 C 0.77296 0.58234 0.13733 0.0
C242 C 0.80765 0.60565 0.11984 0.0
C243 C 0.80523 0.63699 0.10406 0.0
C244 C 0.76815 0.64544 0.10503 0.0
C245 C 0.73335 0.62291 0.12194 0.0
H246 H 0.35152 0.88921 0.49134 0.0
C247 C 0.36988 0.87053 0.4858 0.0
H248 H 0.36456 0.80406 0.47683 0.0
H249 H 0.17877 0.69477 0.53329 0.0
H250 H 0.23583 0.71891 0.57424 0.0
H251 H 0.32019 0.77691 0.5738 0.0
H252 H 0.34791 0.81175 0.5325 0.0
C253 C 0.34602 0.82289 0.48138 0.0
C254 C 0.29436 0.79334 0.48303 0.0
C255 C 0.27869 0.77259 0.50707 0.0
C256 C 0.23018 0.738 0.50704 0.0
C257 C 0.21542 0.7196 0.53179 0.0
C258 C 0.24775 0.73351 0.55552 0.0
C259 C 0.29525 0.76623 0.55529 0.0
C260 C 0.31072 0.78579 0.53144 0.0
H261 H 0.16642 0.63289 0.49085 0.0
C262 C 0.13821 0.63841 0.48345 0.0
H263 H 0.11929 0.68633 0.47214 0.0
H264 H 0.31182 0.82975 0.43469 0.0
H265 H 0.25514 0.80667 0.39378 0.0
H266 H 0.17183 0.74452 0.39269 0.0
H267 H 0.14467 0.70497 0.43214 0.0
C268 C 0.14786 0.68221 0.48067 0.0
C269 C 0.19759 0.72282 0.48255 0.0
C270 C 0.21295 0.74547 0.45892 0.0
C271 C 0.26124 0.78098 0.45932 0.0
C272 C 0.27566 0.80254 0.43543 0.0
C273 C 0.24351 0.78963 0.4118 0.0
C274 C 0.19662 0.75465 0.41119 0.0
C275 C 0.18141 0.73244 0.43424 0.0
H276 H 0.60604 0.35184 0.86596 0.0
C277 C 0.58424 0.35786 0.85141 0.0
H278 H 0.5323 0.32836 0.81622 0.0
H279 H 0.60263 0.19036 0.77196 0.0
H280 H 0.6227 0.24153 0.73729 0.0
H281 H 0.61232 0.31052 0.74312 0.0
H282 H 0.58109 0.3281 0.78352 0.0
C283 C 0.55329 0.32252 0.83145 0.0
C284 C 0.55408 0.27797 0.82678 0.0
C285 C 0.5724 0.26822 0.803 0.0
C286 C 0.57937 0.22914 0.80001 0.0
C287 C 0.59728 0.21996 0.77577 0.0
C288 C 0.60891 0.24908 0.75556 0.0
C289 C 0.60301 0.28784 0.75882 0.0
C290 C 0.58499 0.29748 0.78218 0.0
H291 H 0.50679 0.1064 0.8186 0.0
C292 C 0.54219 0.1152 0.81472 0.0
H293 H 0.6122 0.1679 0.81304 0.0
H294 H 0.51174 0.28309 0.8726 0.0
H295 H 0.49428 0.23391 0.90863 0.0
H296 H 0.51293 0.17035 0.9057 0.0
H297 H 0.54811 0.15491 0.86655 0.0
C298 C 0.57743 0.16036 0.81767 0.0
C299 C 0.56855 0.20024 0.82104 0.0
C300 C 0.54977 0.20981 0.84474 0.0
C301 C 0.54132 0.24799 0.84719 0.0
C302 C 0.52047 0.2556 0.87031 0.0
C303 C 0.51006 0.22751 0.89103 0.0
C304 C 0.52038 0.1916 0.88932 0.0
C305 C 0.54018 0.18282 0.86657 0.0
H306 H 0.52049 0.84816 0.54004 0.0
C307 C 0.53263 0.86709 0.52262 0.0
H308 H 0.56448 0.87115 0.48575 0.0
H309 H 0.60456 0.73803 0.565 0.0
H310 H 0.65467 0.81137 0.59681 0.0
H311 H 0.66288 0.88626 0.58687 0.0
H312 H 0.62053 0.88798 0.54515 0.0
C313 C 0.55342 0.8536 0.50374 0.0
C314 C 0.55807 0.81188 0.50615 0.0
C315 C 0.58451 0.81189 0.53001 0.0
C316 C 0.58046 0.76901 0.53543 0.0
C317 C 0.60614 0.76965 0.55988 0.0
C318 C 0.63524 0.81155 0.57826 0.0
C319 C 0.63982 0.85368 0.57269 0.0
C320 C 0.61501 0.85411 0.54882 0.0
H321 H 0.5803 0.66731 0.49601 0.0
C322 C 0.56106 0.65738 0.51383 0.0
H323 H 0.52442 0.67164 0.54334 0.0
H324 H 0.50973 0.80196 0.45601 0.0
H325 H 0.46354 0.72965 0.42268 0.0
H326 H 0.45648 0.65496 0.432 0.0
H327 H 0.49565 0.65215 0.47471 0.0
C328 C 0.54169 0.68138 0.52483 0.0
C329 C 0.55105 0.72657 0.51655 0.0
C330 C 0.52829 0.72741 0.49132 0.0
C331 C 0.53206 0.77038 0.48604 0.0
C332 C 0.5081 0.7703 0.46105 0.0
C333 C 0.48145 0.72903 0.44175 0.0
C334 C 0.4775 0.68698 0.44699 0.0
C335 C 0.5003 0.68589 0.47155 0.0
H336 H 0.73231 0.49365 0.79102 0.0
C337 C 0.72694 0.51205 0.80906 0.0
H338 H 0.75731 0.55622 0.84804 0.0
H339 H 0.89995 0.48789 0.87152 0.0
H340 H 0.84503 0.45283 0.90466 0.0
H341 H 0.77167 0.45566 0.9037 0.0
H342 H 0.75297 0.4937 0.86975 0.0
C343 C 0.76276 0.53909 0.82944 0.0
C344 C 0.8072 0.53821 0.82983 0.0
C345 C 0.81721 0.51542 0.84977 0.0
C346 C 0.85928 0.51365 0.85029 0.0
C347 C 0.8686 0.49065 0.87037 0.0
C348 C 0.83729 0.47018 0.88945 0.0
C349 C 0.79601 0.47177 0.88891 0.0
C350 C 0.7858 0.49389 0.86931 0.0
H351 H 0.96482 0.6003 0.86465 0.0
C352 C 0.97167 0.57402 0.85405 0.0
H353 H 0.94192 0.51024 0.82552 0.0
H354 H 0.7994 0.58625 0.78965 0.0
H355 H 0.85422 0.62048 0.75627 0.0
H356 H 0.92639 0.6155 0.75658 0.0
H357 H 0.94425 0.57636 0.79047 0.0
C358 C 0.93826 0.53948 0.8347 0.0
C359 C 0.89137 0.53512 0.83108 0.0
C360 C 0.88091 0.55687 0.81078 0.0
C361 C 0.83888 0.55885 0.81027 0.0
C362 C 0.83017 0.58256 0.79048 0.0
C363 C 0.86151 0.60263 0.77132 0.0
C364 C 0.9022 0.59992 0.77154 0.0
C365 C 0.91208 0.57748 0.79107 0.0
H366 H 0.21702 0.72311 0.12971 0.0
C367 C 0.195 0.72099 0.14592 0.0
H368 H 0.1863 0.75772 0.18124 0.0
H369 H 0.40522 0.9048 0.20839 0.0
H370 H 0.39461 0.85487 0.24326 0.0
H371 H 0.31887 0.78064 0.2423 0.0
H372 H 0.25331 0.75607 0.20656 0.0
C373 C 0.20701 0.75954 0.16435 0.0
C374 C 0.25226 0.80391 0.16447 0.0
C375 C 0.29014 0.81741 0.18544 0.0
C376 C 0.33364 0.86003 0.18597 0.0
C377 C 0.37114 0.87288 0.20713 0.0
C378 C 0.36562 0.84445 0.22723 0.0
C379 C 0.32299 0.80268 0.22669 0.0
C380 C 0.28561 0.78905 0.20606 0.0
H381 H 0.35151 0.96568 0.19577 0.0
C382 C 0.38321 0.9717 0.18682 0.0
H383 H 0.4135 0.93991 0.16215 0.0
H384 H 0.18614 0.78822 0.12158 0.0
H385 H 0.19732 0.83803 0.0865 0.0
H386 H 0.27358 0.91164 0.0872 0.0
H387 H 0.33914 0.93592 0.12313 0.0
C388 C 0.38145 0.93672 0.16914 0.0
C389 C 0.33872 0.88921 0.16576 0.0
C390 C 0.30139 0.87517 0.14439 0.0
C391 C 0.25782 0.83245 0.14379 0.0
C392 C 0.22038 0.81986 0.12271 0.0
C393 C 0.22626 0.84825 0.10252 0.0
C394 C 0.26917 0.88975 0.10295 0.0
C395 C 0.30642 0.90332 0.12366 0.0
H396 H 0.58593 0.24479 0.47249 0.0
C397 C 0.55215 0.21529 0.47565 0.0
H398 H 0.48415 0.19266 0.4864 0.0
H399 H 0.53982 0.37889 0.56767 0.0
H400 H 0.49843 0.31735 0.5951 0.0
H401 H 0.47119 0.23421 0.5767 0.0
H402 H 0.48438 0.21208 0.53071 0.0
C403 C 0.5178 0.22266 0.48359 0.0
C404 C 0.52792 0.27156 0.493 0.0
C405 C 0.52061 0.28381 0.52036 0.0
C406 C 0.53759 0.33191 0.53133 0.0
C407 C 0.52874 0.34311 0.55845 0.0
C408 C 0.50486 0.30809 0.57447 0.0
C409 C 0.48946 0.2613 0.56409 0.0
C410 C 0.49727 0.2491 0.53747 0.0
H411 H 0.54213 0.42976 0.49812 0.0
C412 C 0.56514 0.44346 0.51783 0.0
H413 H 0.60534 0.43139 0.54729 0.0
H414 H 0.53489 0.25898 0.43736 0.0
H415 H 0.57827 0.32076 0.41008 0.0
H416 H 0.61794 0.40488 0.43125 0.0
H417 H 0.61284 0.42764 0.47939 0.0
C418 C 0.58199 0.41788 0.52774 0.0
C419 C 0.56297 0.36775 0.51527 0.0
C420 C 0.56898 0.35539 0.48763 0.0
C421 C 0.54938 0.30705 0.47607 0.0
C422 C 0.5519 0.29531 0.44764 0.0
C423 C 0.57625 0.33038 0.4317 0.0
C424 C 0.59835 0.37772 0.44358 0.0
C425 C 0.59485 0.3903 0.4712 0.0
H426 H 0.36964 0.52525 0.87299 0.0
C427 C 0.38057 0.51582 0.85385 0.0
H428 H 0.36393 0.497 0.80992 0.0
H429 H 0.15455 0.43794 0.84548 0.0
H430 H 0.14426 0.35941 0.83686 0.0
H431 H 0.21007 0.34867 0.82421 0.0
H432 H 0.28673 0.41653 0.82023 0.0
C433 C 0.35317 0.50452 0.82958 0.0
C434 C 0.31076 0.50897 0.8293 0.0
C435 C 0.26623 0.46907 0.8307 0.0
C436 C 0.2284 0.4753 0.83785 0.0
C437 C 0.1845 0.43505 0.84012 0.0
C438 C 0.17814 0.38988 0.83518 0.0
C439 C 0.21521 0.38383 0.82806 0.0
C440 C 0.25894 0.42291 0.82592 0.0
H441 H 0.1627 0.5283 0.82085 0.0
C442 C 0.16665 0.53191 0.84342 0.0
H443 H 0.204 0.53279 0.87985 0.0
H444 H 0.38897 0.59113 0.8219 0.0
H445 H 0.39839 0.66937 0.82815 0.0
H446 H 0.33307 0.68056 0.84133 0.0
H447 H 0.25797 0.61366 0.84818 0.0
C448 C 0.20079 0.52902 0.85729 0.0
C449 C 0.23548 0.52139 0.84326 0.0
C450 C 0.27859 0.56081 0.83895 0.0
C451 C 0.31629 0.55448 0.8317 0.0
C452 C 0.35943 0.59432 0.82782 0.0
C453 C 0.36519 0.63927 0.83123 0.0
C454 C 0.3284 0.64556 0.83863 0.0
C455 C 0.28553 0.60692 0.84253 0.0
H456 H 0.84757 0.35858 0.16752 0.0
C457 C 0.83986 0.38493 0.17689 0.0
H458 H 0.79048 0.39741 0.19599 0.0
H459 H 0.67376 0.16824 0.1387 0.0
H460 H 0.68666 0.19549 0.09408 0.0
H461 H 0.73389 0.28062 0.09167 0.0
H462 H 0.76928 0.33883 0.1338 0.0
C463 C 0.79839 0.37133 0.18645 0.0
C464 C 0.76502 0.32079 0.1874 0.0
C465 C 0.74315 0.28756 0.1625 0.0
C466 C 0.71393 0.23878 0.16386 0.0
C467 C 0.69459 0.20593 0.13878 0.0
C468 C 0.702 0.22107 0.11306 0.0
C469 C 0.72874 0.26897 0.1117 0.0
C470 C 0.74916 0.302 0.13606 0.0
H471 H 0.61323 0.17704 0.17008 0.0
C472 C 0.62311 0.15782 0.18295 0.0
H473 H 0.67729 0.15526 0.20543 0.0
H474 H 0.80155 0.37576 0.23893 0.0
H475 H 0.78561 0.34906 0.28341 0.0
H476 H 0.73209 0.26489 0.28586 0.0
H477 H 0.69435 0.20705 0.24403 0.0
C478 C 0.66847 0.17438 0.19193 0.0
C479 C 0.70461 0.22381 0.19007 0.0
C480 C 0.72629 0.25717 0.21496 0.0
C481 C 0.7566 0.30573 0.21359 0.0
C482 C 0.77796 0.3384 0.23872 0.0
C483 C 0.76915 0.3236 0.26444 0.0
C484 C 0.73903 0.27623 0.26582 0.0
C485 C 0.71765 0.2433 0.2415 0.0
H486 H 0.97123 0.51928 0.07414 0.0
C487 C 0.0038 0.54701 0.08665 0.0
H488 H 0.07422 0.60155 0.08696 0.0
H489 H 0.002 0.47506 0.95809 0.0
H490 H 0.991 0.40829 0.97958 0.0
H491 H 0.00469 0.41587 0.0306 0.0
H492 H 0.02854 0.48982 0.0604 0.0
C493 C 0.04155 0.57431 0.07439 0.0
C494 C 0.03932 0.57073 0.0437 0.0
C495 C 0.02727 0.52762 0.02664 0.0
C496 C 0.02121 0.52375 0.99724 0.0
C497 C 0.00758 0.47999 0.98057 0.0
C498 C 0.00126 0.44144 0.99262 0.0
C499 C 0.00884 0.44567 0.02134 0.0
C500 C 0.02198 0.48822 0.03824 0.0
H501 H 0.09388 0.58521 0.95029 0.0
C502 C 0.05886 0.57297 0.93971 0.0
H503 H 0.98637 0.54374 0.94436 0.0
H504 H 0.06667 0.65984 0.07043 0.0
H505 H 0.08271 0.72755 0.0487 0.0
H506 H 0.07414 0.72109 0.9976 0.0
H507 H 0.04952 0.64674 0.96796 0.0
C508 C 0.02228 0.55926 0.95448 0.0
C509 C 0.02944 0.56352 0.98508 0.0
C510 C 0.04402 0.60728 0.00205 0.0
C511 C 0.04898 0.61093 0.03145 0.0
C512 C 0.06278 0.65494 0.04796 0.0
C513 C 0.07198 0.69418 0.03575 0.0
C514 C 0.06717 0.69055 0.00699 0.0
C515 C 0.05313 0.64766 0.99023 0.0
H516 H 0.55601 0.01968 0.41224 0.0
C517 C 0.5306 0.02738 0.42104 0.0
H518 H 0.48074 0.04825 0.41385 0.0
H519 H 0.55926 0.15038 0.31212 0.0
H520 H 0.5714 0.21528 0.34697 0.0
H521 H 0.55728 0.20356 0.39537 0.0
H522 H 0.53093 0.12711 0.40911 0.0
C523 C 0.5057 0.03987 0.40505 0.0
C524 C 0.51396 0.0464 0.37579 0.0
C525 C 0.52918 0.09142 0.3681 0.0
C526 C 0.53708 0.09822 0.34024 0.0
C527 C 0.55239 0.14341 0.33303 0.0
C528 C 0.55962 0.18093 0.35282 0.0
C529 C 0.55174 0.17435 0.38006 0.0
C530 C 0.5367 0.13024 0.38771 0.0
H531 H 0.45603 0.03894 0.2857 0.0
C532 C 0.48753 0.05159 0.27524 0.0
H533 H 0.56084 0.07509 0.28083 0.0
H534 H 0.4788 0.95361 0.38223 0.0
H535 H 0.4689 0.8901 0.34745 0.0
H536 H 0.48769 0.90377 0.29991 0.0
H537 H 0.51592 0.98119 0.28687 0.0
C538 C 0.52868 0.06452 0.29026 0.0
C539 C 0.52914 0.05997 0.32011 0.0
C540 C 0.51524 0.01538 0.32782 0.0
C541 C 0.50645 0.00814 0.35554 0.0
C542 C 0.48865 0.96203 0.36198 0.0
C543 C 0.48221 0.92499 0.34207 0.0
C544 C 0.49261 0.93262 0.31528 0.0
C545 C 0.50868 0.97715 0.30807 0.0
H546 H 0.58849 0.50003 0.75511 0.0
C547 C 0.56357 0.51163 0.75917 0.0
H548 H 0.52171 0.53688 0.74255 0.0
H549 H 0.63723 0.616 0.64382 0.0
H550 H 0.65625 0.68837 0.67373 0.0
H551 H 0.63146 0.68659 0.72058 0.0
H552 H 0.58818 0.61251 0.73792 0.0
C553 C 0.5454 0.52373 0.73844 0.0
C554 C 0.56003 0.52417 0.71008 0.0
C555 C 0.5847 0.56776 0.70007 0.0
C556 C 0.59785 0.5687 0.67276 0.0
C557 C 0.62453 0.61299 0.66388 0.0
C558 C 0.63615 0.6549 0.68097 0.0
C559 C 0.62229 0.65391 0.70736 0.0
C560 C 0.59723 0.61104 0.717 0.0
H561 H 0.55421 0.55631 0.61505 0.0
C562 C 0.5738 0.53997 0.60739 0.0
H563 H 0.6143 0.50985 0.61829 0.0
H564 H 0.50991 0.43406 0.72192 0.0
H565 H 0.49043 0.36181 0.6919 0.0
H566 H 0.51379 0.36345 0.64473 0.0
H567 H 0.55647 0.43729 0.62724 0.0
C568 C 0.59395 0.52551 0.62551 0.0
C569 C 0.58482 0.52581 0.65511 0.0
C570 C 0.56089 0.4823 0.66529 0.0
C571 C 0.54808 0.4814 0.69269 0.0
C572 C 0.52201 0.43716 0.70172 0.0
C573 C 0.51017 0.39525 0.68457 0.0
C574 C 0.52326 0.39616 0.658 0.0
C575 C 0.54798 0.43896 0.64828 0.0
H576 H 0.53694 0.08415 0.58907 0.0
C577 C 0.54408 0.05823 0.57836 0.0
H578 H 0.56201 0.00613 0.58271 0.0
H579 H 0.62624 0.13246 0.71003 0.0
H580 H 0.68786 0.19537 0.68973 0.0
H581 H 0.69104 0.18634 0.63913 0.0
H582 H 0.63238 0.11462 0.60849 0.0
C583 C 0.55617 0.03318 0.59314 0.0
C584 C 0.55693 0.03776 0.62379 0.0
C585 C 0.59207 0.07963 0.64136 0.0
C586 C 0.59083 0.08447 0.67056 0.0
C587 C 0.62576 0.1269 0.6877 0.0
C588 C 0.66134 0.16323 0.67633 0.0
C589 C 0.66308 0.15817 0.64783 0.0
C590 C 0.62902 0.11691 0.63046 0.0
H591 H 0.58867 0.01996 0.72249 0.0
C592 C 0.571 0.03829 0.73031 0.0
H593 H 0.53149 0.06962 0.71886 0.0
H594 H 0.48582 0.95182 0.59601 0.0
H595 H 0.42588 0.88818 0.61658 0.0
H596 H 0.42428 0.89648 0.66735 0.0
H597 H 0.4827 0.96851 0.69784 0.0
C598 C 0.55175 0.05359 0.7122 0.0
C599 C 0.55511 0.04712 0.68207 0.0
C600 C 0.52098 0.00463 0.66464 0.0
C601 C 0.52196 -0.00013 0.63543 0.0
C602 C 0.48699 0.95729 0.61839 0.0
C603 C 0.45229 0.92047 0.62992 0.0
C604 C 0.45138 0.92515 0.6585 0.0
C605 C 0.48515 0.96668 0.67576 0.0
H606 H 0.52159 0.54281 0.90258 0.0
C607 C 0.54921 0.53424 0.90395 0.0
H608 H 0.59514 0.52476 0.93073 0.0
H609 H 0.56955 0.63846 0.03644 0.0
H610 H 0.63273 0.70687 0.02065 0.0
H611 H 0.65768 0.69945 0.97449 0.0
H612 H 0.61942 0.62358 0.94376 0.0
C613 C 0.56751 0.53339 0.92895 0.0
C614 C 0.54814 0.53977 0.95478 0.0
C615 C 0.57076 0.58421 0.97236 0.0
C616 C 0.55687 0.58833 -0.00088 0.0
C617 C 0.57963 0.63324 0.0162 0.0
C618 C 0.61567 0.67278 0.00731 0.0
C619 C 0.62968 0.66861 0.9813 0.0
C620 C 0.60758 0.62491 0.96391 0.0
H621 H 0.58123 0.56203 0.0504 0.0
C622 C 0.54821 0.55595 0.05752 0.0
H623 H 0.479 0.54029 0.04368 0.0
H624 H 0.49401 0.45065 0.92477 0.0
H625 H 0.42938 0.38298 0.93995 0.0
H626 H 0.40568 0.38988 0.98653 0.0
H627 H 0.44643 0.46455 0.01819 0.0
C628 C 0.51368 0.54929 0.03831 0.0
C629 C 0.52103 0.54775 0.00841 0.0
C630 C 0.49588 0.50415 0.98992 0.0
C631 C 0.50959 0.50012 0.96308 0.0
C632 C 0.48501 0.45576 0.94535 0.0
C633 C 0.44784 0.41659 0.9538 0.0
C634 C 0.43449 0.42048 0.98003 0.0
C635 C 0.4582 0.46359 0.998 0.0
H636 H 0.04023 0.60659 0.25759 0.0
C637 C 0.03095 0.5728 0.24553 0.0
H638 H 0.0139 0.5027 0.24627 0.0
H639 H 0.09446 0.62146 0.37767 0.0
H640 H 0.16655 0.67531 0.36031 0.0
H641 H 0.17473 0.66524 0.31046 0.0
H642 H 0.1103 0.60215 0.27762 0.0
C643 C 0.02297 0.5363 0.2585 0.0
C644 C 0.02171 0.53859 0.28913 0.0
C645 C 0.06126 0.57345 0.30827 0.0
C646 C 0.05809 0.57672 0.33731 0.0
C647 C 0.09614 0.61508 0.35566 0.0
C648 C 0.13758 0.6467 0.34593 0.0
C649 C 0.14209 0.64117 0.31785 0.0
C650 C 0.10455 0.60504 0.29916 0.0
H651 H 0.07563 0.5366 0.38514 0.0
C652 C 0.04723 0.5388 0.39412 0.0
H653 H 0.9878 0.54596 0.38692 0.0
H654 H 0.93874 0.46797 0.25834 0.0
H655 H 0.86973 0.41002 0.27609 0.0
H656 H 0.86708 0.41108 0.32655 0.0
H657 H 0.93385 0.47066 0.35963 0.0
C658 C 0.01545 0.54241 0.37786 0.0
C659 C 0.0173 0.5421 0.34739 0.0
C660 C 0.97827 0.50659 0.32833 0.0
C661 C 0.9802 0.50522 0.2992 0.0
C662 C 0.93997 0.47017 0.28068 0.0
C663 C 0.89982 0.4367 0.29059 0.0
C664 C 0.89837 0.43734 0.31899 0.0
C665 C 0.93697 0.47181 0.33775 0.0
loop_
_geom_bond_atom_site_label_1
_geom_bond_atom_site_label_2
_geom_bond_distance
_geom_bond_site_symmetry_2
_ccdc_geom_bond_type
Zn0 O6 1.969 . S
Zn0 O7 1.965 . S
Zn0 O11 2.024 . S
Zn0 O16 1.969 . S
Zn1 O8 1.969 . S
Zn1 O14 1.969 . S
Zn1 O15 1.965 . S
Zn1 O17 2.024 . S
C2 O3 1.229 . S
C2 O11 1.058 . S
O3 C2 1.229 . S
C4 O5 1.229 . S
C4 O17 1.058 . S
O5 C4 1.229 . S
O6 Zn0 1.969 . S
O6 C9 1.267 . S
O7 Zn0 1.965 . S
O7 C18 1.260 . S
O8 Zn1 1.969 . S
O8 C18 1.258 1_655 S
C9 O6 1.267 . S
C9 O10 1.228 . S
O10 C9 1.228 . S
O11 Zn0 2.024 . S
O11 C2 1.058 . S
C12 O13 1.228 . S
C12 O14 1.267 . S
O13 C12 1.228 . S
O14 Zn1 1.969 . S
O14 C12 1.267 . S
O15 Zn1 1.965 . S
O15 C19 1.260 1_655 S
O16 Zn0 1.969 . S
O16 C19 1.258 . S
O17 Zn1 2.024 . S
O17 C4 1.058 . S
C18 O7 1.260 . S
C18 O8 1.258 1_455 S
C19 O15 1.260 1_455 S
C19 O16 1.258 . S
Zn20 O26 1.969 . S
Zn20 O27 1.965 . S
Zn20 O31 2.024 . S
Zn20 O36 1.969 . S
Zn21 O28 1.969 . S
Zn21 O34 1.969 . S
Zn21 O35 1.965 1_565 S
Zn21 O37 2.024 . S
C22 O23 1.229 . S
C22 O31 1.058 . S
O23 C22 1.229 . S
C24 O25 1.229 . S
C24 O37 1.058 . S
O25 C24 1.229 . S
O26 Zn20 1.969 . S
O26 C29 1.267 . S
O27 Zn20 1.965 . S
O27 C38 1.260 . S
O28 Zn21 1.969 . S
O28 C38 1.258 1_565 S
C29 O26 1.267 . S
C29 O30 1.228 . S
O30 C29 1.228 . S
O31 Zn20 2.024 . S
O31 C22 1.058 . S
C32 O33 1.228 . S
C32 O34 1.267 . S
O33 C32 1.228 . S
O34 Zn21 1.969 . S
O34 C32 1.267 . S
O35 Zn21 1.965 1_545 S
O35 C39 1.260 . S
O36 Zn20 1.969 . S
O36 C39 1.258 . S
O37 Zn21 2.024 . S
O37 C24 1.058 . S
C38 O27 1.260 . S
C38 O28 1.258 1_545 S
C39 O35 1.260 . S
C39 O36 1.258 . S
Zn40 O46 1.969 . S
Zn40 O47 1.965 . S
Zn40 O51 2.024 . S
Zn40 O56 1.969 . S
Zn41 O48 1.969 . S
Zn41 O54 1.969 . S
Zn41 O55 1.965 . S
Zn41 O57 2.024 . S
C42 O43 1.229 . S
C42 O51 1.058 . S
O43 C42 1.229 . S
C44 O45 1.229 . S
C44 O57 1.058 . S
O45 C44 1.229 . S
O46 Zn40 1.969 . S
O46 C49 1.267 . S
O47 Zn40 1.965 . S
O47 C58 1.260 . S
O48 Zn41 1.969 . S
O48 C58 1.258 . S
C49 O46 1.267 . S
C49 O50 1.228 . S
O50 C49 1.228 . S
O51 Zn40 2.024 . S
O51 C42 1.058 . S
C52 O53 1.228 . S
C52 O54 1.267 . S
O53 C52 1.228 . S
O54 Zn41 1.969 . S
O54 C52 1.267 . S
O55 Zn41 1.965 . S
O55 C59 1.260 . S
O56 Zn40 1.969 . S
O56 C59 1.258 . S
O57 Zn41 2.024 . S
O57 C44 1.058 . S
C58 O47 1.260 . S
C58 O48 1.258 . S
C59 O55 1.260 . S
C59 O56 1.258 . S
H60 C65 0.929 . S
H61 C70 0.931 1_565 S
H62 C68 0.930 . S
N63 N64 1.234 . S
N63 C67 1.453 . S
N64 N63 1.234 . S
C65 H60 0.929 . S
C65 C66 1.373 1_545 S
C65 C67 1.368 . S
C66 C65 1.373 1_565 S
C66 C70 1.397 1_565 S
C67 N63 1.453 . S
C67 C65 1.368 . S
C67 C68 1.373 . S
C68 H62 0.930 . S
C68 C67 1.373 . S
C68 C69 1.371 . S
C69 C68 1.371 . S
C69 C70 1.383 . S
C70 H61 0.931 1_545 S
C70 C66 1.397 1_545 S
C70 C69 1.383 . S
H71 C76 0.929 . S
H72 C81 0.931 . S
H73 C79 0.930 . S
N74 N75 1.234 . S
N74 C78 1.453 . S
N75 N74 1.234 . S
C76 H71 0.929 . S
C76 C77 1.373 . S
C76 C78 1.368 . S
C77 C76 1.373 . S
C77 C81 1.397 . S
C78 N74 1.453 . S
C78 C76 1.368 . S
C78 C79 1.373 . S
C79 H73 0.930 . S
C79 C78 1.373 . S
C79 C80 1.371 . S
C80 C79 1.371 . S
C80 C81 1.383 . S
C81 H72 0.931 . S
C81 C77 1.397 . S
C81 C80 1.383 . S
H82 C87 0.929 . S
H83 C92 0.931 1_655 S
H84 C90 0.930 . S
N85 N86 1.234 . S
N85 C89 1.453 . S
N86 N85 1.234 . S
C87 H82 0.929 . S
C87 C88 1.373 1_455 S
C87 C89 1.368 . S
C88 C87 1.373 1_655 S
C88 C92 1.397 1_655 S
C89 N85 1.453 . S
C89 C87 1.368 . S
C89 C90 1.373 . S
C90 H84 0.930 . S
C90 C89 1.373 . S
C90 C91 1.371 . S
C91 C90 1.371 . S
C91 C92 1.383 . S
C92 H83 0.931 1_455 S
C92 C88 1.397 1_455 S
C92 C91 1.383 . S
H93 C98 0.929 . S
H94 C103 0.931 . S
H95 C101 0.930 1_655 S
N96 N97 1.234 . S
N96 C100 1.453 1_655 S
N97 N96 1.234 . S
C98 H93 0.929 . S
C98 C99 1.373 . S
C98 C100 1.368 . S
C99 C98 1.373 . S
C99 C103 1.397 . S
C100 N96 1.453 1_455 S
C100 C98 1.368 . S
C100 C101 1.373 . S
C101 H95 0.930 1_455 S
C101 C100 1.373 . S
C101 C102 1.371 . S
C102 C101 1.371 . S
C102 C103 1.383 . S
C103 H94 0.931 . S
C103 C99 1.397 . S
C103 C102 1.383 . S
H104 C109 0.929 . S
H105 C114 0.931 . S
H106 C112 0.930 1_565 S
N107 N108 1.234 . S
N107 C111 1.453 1_565 S
N108 N107 1.234 . S
C109 H104 0.929 . S
C109 C110 1.373 . S
C109 C111 1.368 . S
C110 C109 1.373 . S
C110 C114 1.397 . S
C111 N107 1.453 1_545 S
C111 C109 1.368 . S
C111 C112 1.373 . S
C112 H106 0.930 1_545 S
C112 C111 1.373 . S
C112 C113 1.371 . S
C113 C112 1.371 . S
C113 C114 1.383 . S
C114 H105 0.931 . S
C114 C110 1.397 . S
C114 C113 1.383 . S
H115 C120 0.929 . S
H116 C125 0.931 . S
H117 C123 0.930 . S
N118 N119 1.234 . S
N118 C122 1.453 . S
N119 N118 1.234 . S
C120 H115 0.929 . S
C120 C121 1.373 . S
C120 C122 1.368 . S
C121 C120 1.373 . S
C121 C125 1.397 . S
C122 N118 1.453 . S
C122 C120 1.368 . S
C122 C123 1.373 . S
C123 H117 0.930 . S
C123 C122 1.373 . S
C123 C124 1.371 . S
C124 C123 1.371 . S
C124 C125 1.383 . S
C125 H116 0.931 . S
C125 C121 1.397 . S
C125 C124 1.383 . S
H126 C127 0.951 . S
C127 H126 0.951 . S
C127 C133 1.265 . S
H128 C133 0.950 . S
H129 C137 0.949 . S
H130 C138 0.950 . S
H131 C139 0.951 . S
H132 C140 0.951 . S
C133 C127 1.265 . S
C133 H128 0.950 . S
C133 C134 1.478 . S
C134 C133 1.478 . S
C134 C135 1.397 . S
C134 C151 1.394 . S
C135 C134 1.397 . S
C135 C136 1.438 . S
C135 C140 1.429 . S
C136 C135 1.438 . S
C136 C137 1.428 . S
C136 C149 1.394 . S
C137 H129 0.949 . S
C137 C136 1.428 . S
C137 C138 1.345 . S
C138 H130 0.950 . S
C138 C137 1.345 . S
C138 C139 1.424 . S
C139 H131 0.951 . S
C139 C138 1.424 . S
C139 C140 1.347 . S
C140 H132 0.951 . S
C140 C135 1.429 . S
C140 C139 1.347 . S
H141 C142 0.951 . S
C142 H141 0.951 . S
C142 C148 1.265 . S
H143 C148 0.950 . S
H144 C152 0.949 . S
H145 C153 0.950 . S
H146 C154 0.951 . S
H147 C155 0.951 . S
C148 C142 1.265 . S
C148 H143 0.950 . S
C148 C149 1.478 . S
C149 C136 1.394 . S
C149 C148 1.478 . S
C149 C150 1.397 . S
C150 C149 1.397 . S
C150 C151 1.438 . S
C150 C155 1.429 . S
C151 C134 1.394 . S
C151 C150 1.438 . S
C151 C152 1.428 . S
C152 H144 0.949 . S
C152 C151 1.428 . S
C152 C153 1.345 . S
C153 H145 0.950 . S
C153 C152 1.345 . S
C153 C154 1.424 . S
C154 H146 0.951 . S
C154 C153 1.424 . S
C154 C155 1.347 . S
C155 H147 0.951 . S
C155 C150 1.429 . S
C155 C154 1.347 . S
H156 C157 0.951 . S
C157 H156 0.951 . S
C157 C163 1.265 . S
H158 C163 0.950 . S
H159 C167 0.949 . S
H160 C168 0.950 . S
H161 C169 0.951 . S
H162 C170 0.951 . S
C163 C157 1.265 . S
C163 H158 0.950 . S
C163 C164 1.478 . S
C164 C163 1.478 . S
C164 C165 1.397 . S
C164 C181 1.394 . S
C165 C164 1.397 . S
C165 C166 1.438 . S
C165 C170 1.429 . S
C166 C165 1.438 . S
C166 C167 1.428 . S
C166 C179 1.394 . S
C167 H159 0.949 . S
C167 C166 1.428 . S
C167 C168 1.345 . S
C168 H160 0.950 . S
C168 C167 1.345 . S
C168 C169 1.424 . S
C169 H161 0.951 . S
C169 C168 1.424 . S
C169 C170 1.347 . S
C170 H162 0.951 . S
C170 C165 1.429 . S
C170 C169 1.347 . S
H171 C172 0.951 . S
C172 H171 0.951 . S
C172 C178 1.265 . S
H173 C178 0.950 . S
H174 C182 0.949 . S
H175 C183 0.950 . S
H176 C184 0.951 . S
H177 C185 0.951 . S
C178 C172 1.265 . S
C178 H173 0.950 . S
C178 C179 1.478 . S
C179 C166 1.394 . S
C179 C178 1.478 . S
C179 C180 1.397 . S
C180 C179 1.397 . S
C180 C181 1.438 . S
C180 C185 1.429 . S
C181 C164 1.394 . S
C181 C180 1.438 . S
C181 C182 1.428 . S
C182 H174 0.949 . S
C182 C181 1.428 . S
C182 C183 1.345 . S
C183 H175 0.950 . S
C183 C182 1.345 . S
C183 C184 1.424 . S
C184 H176 0.951 . S
C184 C183 1.424 . S
C184 C185 1.347 . S
C185 H177 0.951 . S
C185 C180 1.429 . S
C185 C184 1.347 . S
H186 C187 0.951 . S
C187 H186 0.951 . S
C187 C193 1.265 . S
H188 C193 0.950 . S
H189 C197 0.949 . S
H190 C198 0.950 . S
H191 C199 0.951 . S
H192 C200 0.951 . S
C193 C187 1.265 . S
C193 H188 0.950 . S
C193 C194 1.478 . S
C194 C193 1.478 . S
C194 C195 1.397 . S
C194 C211 1.394 . S
C195 C194 1.397 . S
C195 C196 1.438 . S
C195 C200 1.429 . S
C196 C195 1.438 . S
C196 C197 1.428 . S
C196 C209 1.394 . S
C197 H189 0.949 . S
C197 C196 1.428 . S
C197 C198 1.345 . S
C198 H190 0.950 . S
C198 C197 1.345 . S
C198 C199 1.424 . S
C199 H191 0.951 . S
C199 C198 1.424 . S
C199 C200 1.347 . S
C200 H192 0.951 . S
C200 C195 1.429 . S
C200 C199 1.347 . S
H201 C202 0.951 . S
C202 H201 0.951 . S
C202 C208 1.265 . S
H203 C208 0.950 . S
H204 C212 0.949 . S
H205 C213 0.950 . S
H206 C214 0.951 . S
H207 C215 0.951 . S
C208 C202 1.265 . S
C208 H203 0.950 . S
C208 C209 1.478 . S
C209 C196 1.394 . S
C209 C208 1.478 . S
C209 C210 1.397 . S
C210 C209 1.397 . S
C210 C211 1.438 . S
C210 C215 1.429 . S
C211 C194 1.394 . S
C211 C210 1.438 . S
C211 C212 1.428 . S
C212 H204 0.949 . S
C212 C211 1.428 . S
C212 C213 1.345 . S
C213 H205 0.950 . S
C213 C212 1.345 . S
C213 C214 1.424 . S
C214 H206 0.951 . S
C214 C213 1.424 . S
C214 C215 1.347 . S
C215 H207 0.951 . S
C215 C210 1.429 . S
C215 C214 1.347 . S
H216 C217 0.951 . S
C217 H216 0.951 . S
C217 C223 1.265 . S
H218 C223 0.950 . S
H219 C227 0.949 . S
H220 C228 0.950 . S
H221 C229 0.951 . S
H222 C230 0.951 . S
C223 C217 1.265 . S
C223 H218 0.950 . S
C223 C224 1.478 . S
C224 C223 1.478 . S
C224 C225 1.397 . S
C224 C241 1.394 . S
C225 C224 1.397 . S
C225 C226 1.438 . S
C225 C230 1.429 . S
C226 C225 1.438 . S
C226 C227 1.428 . S
C226 C239 1.394 . S
C227 H219 0.949 . S
C227 C226 1.428 . S
C227 C228 1.345 . S
C228 H220 0.950 . S
C228 C227 1.345 . S
C228 C229 1.424 . S
C229 H221 0.951 . S
C229 C228 1.424 . S
C229 C230 1.347 . S
C230 H222 0.951 . S
C230 C225 1.429 . S
C230 C229 1.347 . S
H231 C232 0.951 . S
C232 H231 0.951 . S
C232 C238 1.265 . S
H233 C238 0.950 . S
H234 C242 0.949 . S
H235 C243 0.950 . S
H236 C244 0.951 . S
H237 C245 0.951 . S
C238 C232 1.265 . S
C238 H233 0.950 . S
C238 C239 1.478 . S
C239 C226 1.394 . S
C239 C238 1.478 . S
C239 C240 1.397 . S
C240 C239 1.397 . S
C240 C241 1.438 . S
C240 C245 1.429 . S
C241 C224 1.394 . S
C241 C240 1.438 . S
C241 C242 1.428 . S
C242 H234 0.949 . S
C242 C241 1.428 . S
C242 C243 1.345 . S
C243 H235 0.950 . S
C243 C242 1.345 . S
C243 C244 1.424 . S
C244 H236 0.951 . S
C244 C243 1.424 . S
C244 C245 1.347 . S
C245 H237 0.951 . S
C245 C240 1.429 . S
C245 C244 1.347 . S
H246 C247 0.951 . S
C247 H246 0.951 . S
C247 C253 1.265 . S
H248 C253 0.950 . S
H249 C257 0.949 . S
H250 C258 0.950 . S
H251 C259 0.951 . S
H252 C260 0.951 . S
C253 C247 1.265 . S
C253 H248 0.950 . S
C253 C254 1.478 . S
C254 C253 1.478 . S
C254 C255 1.397 . S
C254 C271 1.394 . S
C255 C254 1.397 . S
C255 C256 1.438 . S
C255 C260 1.429 . S
C256 C255 1.438 . S
C256 C257 1.428 . S
C256 C269 1.394 . S
C257 H249 0.949 . S
C257 C256 1.428 . S
C257 C258 1.345 . S
C258 H250 0.950 . S
C258 C257 1.345 . S
C258 C259 1.424 . S
C259 H251 0.951 . S
C259 C258 1.424 . S
C259 C260 1.347 . S
C260 H252 0.951 . S
C260 C255 1.429 . S
C260 C259 1.347 . S
H261 C262 0.951 . S
C262 H261 0.951 . S
C262 C268 1.265 . S
H263 C268 0.950 . S
H264 C272 0.949 . S
H265 C273 0.950 . S
H266 C274 0.951 . S
H267 C275 0.951 . S
C268 C262 1.265 . S
C268 H263 0.950 . S
C268 C269 1.478 . S
C269 C256 1.394 . S
C269 C268 1.478 . S
C269 C270 1.397 . S
C270 C269 1.397 . S
C270 C271 1.438 . S
C270 C275 1.429 . S
C271 C254 1.394 . S
C271 C270 1.438 . S
C271 C272 1.428 . S
C272 H264 0.949 . S
C272 C271 1.428 . S
C272 C273 1.345 . S
C273 H265 0.950 . S
C273 C272 1.345 . S
C273 C274 1.424 . S
C274 H266 0.951 . S
C274 C273 1.424 . S
C274 C275 1.347 . S
C275 H267 0.951 . S
C275 C270 1.429 . S
C275 C274 1.347 . S
H276 C277 0.951 . S
C277 H276 0.951 . S
C277 C283 1.265 . S
H278 C283 0.950 . S
H279 C287 0.949 . S
H280 C288 0.950 . S
H281 C289 0.951 . S
H282 C290 0.951 . S
C283 C277 1.265 . S
C283 H278 0.950 . S
C283 C284 1.478 . S
C284 C283 1.478 . S
C284 C285 1.397 . S
C284 C301 1.394 . S
C285 C284 1.397 . S
C285 C286 1.438 . S
C285 C290 1.429 . S
C286 C285 1.438 . S
C286 C287 1.428 . S
C286 C299 1.394 . S
C287 H279 0.949 . S
C287 C286 1.428 . S
C287 C288 1.345 . S
C288 H280 0.950 . S
C288 C287 1.345 . S
C288 C289 1.424 . S
C289 H281 0.951 . S
C289 C288 1.424 . S
C289 C290 1.347 . S
C290 H282 0.951 . S
C290 C285 1.429 . S
C290 C289 1.347 . S
H291 C292 0.951 . S
C292 H291 0.951 . S
C292 C298 1.265 . S
H293 C298 0.950 . S
H294 C302 0.949 . S
H295 C303 0.950 . S
H296 C304 0.951 . S
H297 C305 0.951 . S
C298 C292 1.265 . S
C298 H293 0.950 . S
C298 C299 1.478 . S
C299 C286 1.394 . S
C299 C298 1.478 . S
C299 C300 1.397 . S
C300 C299 1.397 . S
C300 C301 1.438 . S
C300 C305 1.429 . S
C301 C284 1.394 . S
C301 C300 1.438 . S
C301 C302 1.428 . S
C302 H294 0.949 . S
C302 C301 1.428 . S
C302 C303 1.345 . S
C303 H295 0.950 . S
C303 C302 1.345 . S
C303 C304 1.424 . S
C304 H296 0.951 . S
C304 C303 1.424 . S
C304 C305 1.347 . S
C305 H297 0.951 . S
C305 C300 1.429 . S
C305 C304 1.347 . S
H306 C307 0.951 . S
C307 H306 0.951 . S
C307 C313 1.265 . S
H308 C313 0.950 . S
H309 C317 0.949 . S
H310 C318 0.950 . S
H311 C319 0.951 . S
H312 C320 0.951 . S
C313 C307 1.265 . S
C313 H308 0.950 . S
C313 C314 1.478 . S
C314 C313 1.478 . S
C314 C315 1.397 . S
C314 C331 1.394 . S
C315 C314 1.397 . S
C315 C316 1.438 . S
C315 C320 1.429 . S
C316 C315 1.438 . S
C316 C317 1.428 . S
C316 C329 1.394 . S
C317 H309 0.949 . S
C317 C316 1.428 . S
C317 C318 1.345 . S
C318 H310 0.950 . S
C318 C317 1.345 . S
C318 C319 1.424 . S
C319 H311 0.951 . S
C319 C318 1.424 . S
C319 C320 1.347 . S
C320 H312 0.951 . S
C320 C315 1.429 . S
C320 C319 1.347 . S
H321 C322 0.951 . S
C322 H321 0.951 . S
C322 C328 1.265 . S
H323 C328 0.950 . S
H324 C332 0.949 . S
H325 C333 0.950 . S
H326 C334 0.951 . S
H327 C335 0.951 . S
C328 C322 1.265 . S
C328 H323 0.950 . S
C328 C329 1.478 . S
C329 C316 1.394 . S
C329 C328 1.478 . S
C329 C330 1.397 . S
C330 C329 1.397 . S
C330 C331 1.438 . S
C330 C335 1.429 . S
C331 C314 1.394 . S
C331 C330 1.438 . S
C331 C332 1.428 . S
C332 H324 0.949 . S
C332 C331 1.428 . S
C332 C333 1.345 . S
C333 H325 0.950 . S
C333 C332 1.345 . S
C333 C334 1.424 . S
C334 H326 0.951 . S
C334 C333 1.424 . S
C334 C335 1.347 . S
C335 H327 0.951 . S
C335 C330 1.429 . S
C335 C334 1.347 . S
H336 C337 0.951 . S
C337 H336 0.951 . S
C337 C343 1.265 . S
H338 C343 0.950 . S
H339 C347 0.949 . S
H340 C348 0.950 . S
H341 C349 0.951 . S
H342 C350 0.951 . S
C343 C337 1.265 . S
C343 H338 0.950 . S
C343 C344 1.478 . S
C344 C343 1.478 . S
C344 C345 1.397 . S
C344 C361 1.394 . S
C345 C344 1.397 . S
C345 C346 1.438 . S
C345 C350 1.429 . S
C346 C345 1.438 . S
C346 C347 1.428 . S
C346 C359 1.394 . S
C347 H339 0.949 . S
C347 C346 1.428 . S
C347 C348 1.345 . S
C348 H340 0.950 . S
C348 C347 1.345 . S
C348 C349 1.424 . S
C349 H341 0.951 . S
C349 C348 1.424 . S
C349 C350 1.347 . S
C350 H342 0.951 . S
C350 C345 1.429 . S
C350 C349 1.347 . S
H351 C352 0.951 . S
C352 H351 0.951 . S
C352 C358 1.265 . S
H353 C358 0.950 . S
H354 C362 0.949 . S
H355 C363 0.950 . S
H356 C364 0.951 . S
H357 C365 0.951 . S
C358 C352 1.265 . S
C358 H353 0.950 . S
C358 C359 1.478 . S
C359 C346 1.394 . S
C359 C358 1.478 . S
C359 C360 1.397 . S
C360 C359 1.397 . S
C360 C361 1.438 . S
C360 C365 1.429 . S
C361 C344 1.394 . S
C361 C360 1.438 . S
C361 C362 1.428 . S
C362 H354 0.949 . S
C362 C361 1.428 . S
C362 C363 1.345 . S
C363 H355 0.950 . S
C363 C362 1.345 . S
C363 C364 1.424 . S
C364 H356 0.951 . S
C364 C363 1.424 . S
C364 C365 1.347 . S
C365 H357 0.951 . S
C365 C360 1.429 . S
C365 C364 1.347 . S
H366 C367 0.951 . S
C367 H366 0.951 . S
C367 C373 1.265 . S
H368 C373 0.950 . S
H369 C377 0.949 . S
H370 C378 0.950 . S
H371 C379 0.951 . S
H372 C380 0.951 . S
C373 C367 1.265 . S
C373 H368 0.950 . S
C373 C374 1.478 . S
C374 C373 1.478 . S
C374 C375 1.397 . S
C374 C391 1.394 . S
C375 C374 1.397 . S
C375 C376 1.438 . S
C375 C380 1.429 . S
C376 C375 1.438 . S
C376 C377 1.428 . S
C376 C389 1.394 . S
C377 H369 0.949 . S
C377 C376 1.428 . S
C377 C378 1.345 . S
C378 H370 0.950 . S
C378 C377 1.345 . S
C378 C379 1.424 . S
C379 H371 0.951 . S
C379 C378 1.424 . S
C379 C380 1.347 . S
C380 H372 0.951 . S
C380 C375 1.429 . S
C380 C379 1.347 . S
H381 C382 0.951 . S
C382 H381 0.951 . S
C382 C388 1.265 . S
H383 C388 0.950 . S
H384 C392 0.949 . S
H385 C393 0.950 . S
H386 C394 0.951 . S
H387 C395 0.951 . S
C388 C382 1.265 . S
C388 H383 0.950 . S
C388 C389 1.478 . S
C389 C376 1.394 . S
C389 C388 1.478 . S
C389 C390 1.397 . S
C390 C389 1.397 . S
C390 C391 1.438 . S
C390 C395 1.429 . S
C391 C374 1.394 . S
C391 C390 1.438 . S
C391 C392 1.428 . S
C392 H384 0.949 . S
C392 C391 1.428 . S
C392 C393 1.345 . S
C393 H385 0.950 . S
C393 C392 1.345 . S
C393 C394 1.424 . S
C394 H386 0.951 . S
C394 C393 1.424 . S
C394 C395 1.347 . S
C395 H387 0.951 . S
C395 C390 1.429 . S
C395 C394 1.347 . S
H396 C397 0.951 . S
C397 H396 0.951 . S
C397 C403 1.265 . S
H398 C403 0.950 . S
H399 C407 0.949 . S
H400 C408 0.950 . S
H401 C409 0.951 . S
H402 C410 0.951 . S
C403 C397 1.265 . S
C403 H398 0.950 . S
C403 C404 1.478 . S
C404 C403 1.478 . S
C404 C405 1.397 . S
C404 C421 1.394 . S
C405 C404 1.397 . S
C405 C406 1.438 . S
C405 C410 1.429 . S
C406 C405 1.438 . S
C406 C407 1.428 . S
C406 C419 1.394 . S
C407 H399 0.949 . S
C407 C406 1.428 . S
C407 C408 1.345 . S
C408 H400 0.950 . S
C408 C407 1.345 . S
C408 C409 1.424 . S
C409 H401 0.951 . S
C409 C408 1.424 . S
C409 C410 1.347 . S
C410 H402 0.951 . S
C410 C405 1.429 . S
C410 C409 1.347 . S
H411 C412 0.951 . S
C412 H411 0.951 . S
C412 C418 1.265 . S
H413 C418 0.950 . S
H414 C422 0.949 . S
H415 C423 0.950 . S
H416 C424 0.951 . S
H417 C425 0.951 . S
C418 C412 1.265 . S
C418 H413 0.950 . S
C418 C419 1.478 . S
C419 C406 1.394 . S
C419 C418 1.478 . S
C419 C420 1.397 . S
C420 C419 1.397 . S
C420 C421 1.438 . S
C420 C425 1.429 . S
C421 C404 1.394 . S
C421 C420 1.438 . S
C421 C422 1.428 . S
C422 H414 0.949 . S
C422 C421 1.428 . S
C422 C423 1.345 . S
C423 H415 0.950 . S
C423 C422 1.345 . S
C423 C424 1.424 . S
C424 H416 0.951 . S
C424 C423 1.424 . S
C424 C425 1.347 . S
C425 H417 0.951 . S
C425 C420 1.429 . S
C425 C424 1.347 . S
H426 C427 0.951 . S
C427 H426 0.951 . S
C427 C433 1.265 . S
H428 C433 0.950 . S
H429 C437 0.949 . S
H430 C438 0.950 . S
H431 C439 0.951 . S
H432 C440 0.951 . S
C433 C427 1.265 . S
C433 H428 0.950 . S
C433 C434 1.478 . S
C434 C433 1.478 . S
C434 C435 1.397 . S
C434 C451 1.394 . S
C435 C434 1.397 . S
C435 C436 1.438 . S
C435 C440 1.429 . S
C436 C435 1.438 . S
C436 C437 1.428 . S
C436 C449 1.394 . S
C437 H429 0.949 . S
C437 C436 1.428 . S
C437 C438 1.345 . S
C438 H430 0.950 . S
C438 C437 1.345 . S
C438 C439 1.424 . S
C439 H431 0.951 . S
C439 C438 1.424 . S
C439 C440 1.347 . S
C440 H432 0.951 . S
C440 C435 1.429 . S
C440 C439 1.347 . S
H441 C442 0.951 . S
C442 H441 0.951 . S
C442 C448 1.265 . S
H443 C448 0.950 . S
H444 C452 0.949 . S
H445 C453 0.950 . S
H446 C454 0.951 . S
H447 C455 0.951 . S
C448 C442 1.265 . S
C448 H443 0.950 . S
C448 C449 1.478 . S
C449 C436 1.394 . S
C449 C448 1.478 . S
C449 C450 1.397 . S
C450 C449 1.397 . S
C450 C451 1.438 . S
C450 C455 1.429 . S
C451 C434 1.394 . S
C451 C450 1.438 . S
C451 C452 1.428 . S
C452 H444 0.949 . S
C452 C451 1.428 . S
C452 C453 1.345 . S
C453 H445 0.950 . S
C453 C452 1.345 . S
C453 C454 1.424 . S
C454 H446 0.951 . S
C454 C453 1.424 . S
C454 C455 1.347 . S
C455 H447 0.951 . S
C455 C450 1.429 . S
C455 C454 1.347 . S
H456 C457 0.951 . S
C457 H456 0.951 . S
C457 C463 1.265 . S
H458 C463 0.950 . S
H459 C467 0.949 . S
H460 C468 0.950 . S
H461 C469 0.951 . S
H462 C470 0.951 . S
C463 C457 1.265 . S
C463 H458 0.950 . S
C463 C464 1.478 . S
C464 C463 1.478 . S
C464 C465 1.397 . S
C464 C481 1.394 . S
C465 C464 1.397 . S
C465 C466 1.438 . S
C465 C470 1.429 . S
C466 C465 1.438 . S
C466 C467 1.428 . S
C466 C479 1.394 . S
C467 H459 0.949 . S
C467 C466 1.428 . S
C467 C468 1.345 . S
C468 H460 0.950 . S
C468 C467 1.345 . S
C468 C469 1.424 . S
C469 H461 0.951 . S
C469 C468 1.424 . S
C469 C470 1.347 . S
C470 H462 0.951 . S
C470 C465 1.429 . S
C470 C469 1.347 . S
H471 C472 0.951 . S
C472 H471 0.951 . S
C472 C478 1.265 . S
H473 C478 0.950 . S
H474 C482 0.949 . S
H475 C483 0.950 . S
H476 C484 0.951 . S
H477 C485 0.951 . S
C478 C472 1.265 . S
C478 H473 0.950 . S
C478 C479 1.478 . S
C479 C466 1.394 . S
C479 C478 1.478 . S
C479 C480 1.397 . S
C480 C479 1.397 . S
C480 C481 1.438 . S
C480 C485 1.429 . S
C481 C464 1.394 . S
C481 C480 1.438 . S
C481 C482 1.428 . S
C482 H474 0.949 . S
C482 C481 1.428 . S
C482 C483 1.345 . S
C483 H475 0.950 . S
C483 C482 1.345 . S
C483 C484 1.424 . S
C484 H476 0.951 . S
C484 C483 1.424 . S
C484 C485 1.347 . S
C485 H477 0.951 . S
C485 C480 1.429 . S
C485 C484 1.347 . S
H486 C487 0.951 1_655 S
C487 H486 0.951 1_455 S
C487 C493 1.265 . S
H488 C493 0.950 . S
H489 C497 0.949 . S
H490 C498 0.948 . S
H491 C499 0.951 1_655 S
H492 C500 0.951 . S
C493 C487 1.265 . S
C493 H488 0.950 . S
C493 C494 1.478 . S
C494 C493 1.478 . S
C494 C495 1.397 . S
C494 C511 1.394 . S
C495 C494 1.397 . S
C495 C496 1.438 . S
C495 C500 1.429 . S
C496 C495 1.438 . S
C496 C497 1.428 1_554 S
C496 C509 1.394 1_554 S
C497 H489 0.949 . S
C497 C496 1.428 1_556 S
C497 C498 1.347 1_455 S
C498 H490 0.948 . S
C498 C497 1.347 1_655 S
C498 C499 1.424 1_656 S
C499 H491 0.951 1_455 S
C499 C498 1.424 1_454 S
C499 C500 1.347 . S
C500 H492 0.951 . S
C500 C495 1.429 . S
C500 C499 1.347 . S
H501 C502 0.951 . S
C502 H501 0.951 . S
C502 C508 1.265 . S
H503 C508 0.965 . S
H504 C512 0.949 . S
H505 C513 0.950 . S
H506 C514 0.951 . S
H507 C515 0.951 . S
C508 C502 1.265 . S
C508 H503 0.965 . S
C508 C509 1.478 . S
C509 C496 1.394 1_556 S
C509 C508 1.478 . S
C509 C510 1.397 1_556 S
C510 C509 1.397 1_554 S
C510 C511 1.438 . S
C510 C515 1.429 1_554 S
C511 C494 1.394 . S
C511 C510 1.438 . S
C511 C512 1.428 . S
C512 H504 0.949 . S
C512 C511 1.428 . S
C512 C513 1.345 . S
C513 H505 0.950 . S
C513 C512 1.345 . S
C513 C514 1.424 . S
C514 H506 0.951 . S
C514 C513 1.424 . S
C514 C515 1.347 1_554 S
C515 H507 0.951 . S
C515 C510 1.429 1_556 S
C515 C514 1.347 1_556 S
H516 C517 0.951 . S
C517 H516 0.951 . S
C517 C523 1.265 . S
H518 C523 0.950 . S
H519 C527 0.949 . S
H520 C528 0.950 . S
H521 C529 0.951 . S
H522 C530 0.951 . S
C523 C517 1.265 . S
C523 H518 0.950 . S
C523 C524 1.478 . S
C524 C523 1.478 . S
C524 C525 1.397 . S
C524 C541 1.394 . S
C525 C524 1.397 . S
C525 C526 1.438 . S
C525 C530 1.429 . S
C526 C525 1.438 . S
C526 C527 1.428 . S
C526 C539 1.394 . S
C527 H519 0.949 . S
C527 C526 1.428 . S
C527 C528 1.345 . S
C528 H520 0.950 . S
C528 C527 1.345 . S
C528 C529 1.424 . S
C529 H521 0.951 . S
C529 C528 1.424 . S
C529 C530 1.347 . S
C530 H522 0.951 . S
C530 C525 1.429 . S
C530 C529 1.347 . S
H531 C532 0.951 . S
C532 H531 0.951 . S
C532 C538 1.265 . S
H533 C538 0.950 . S
H534 C542 0.949 . S
H535 C543 0.950 . S
H536 C544 0.951 . S
H537 C545 0.951 . S
C538 C532 1.265 . S
C538 H533 0.950 . S
C538 C539 1.478 . S
C539 C526 1.394 . S
C539 C538 1.478 . S
C539 C540 1.397 . S
C540 C539 1.397 . S
C540 C541 1.438 . S
C540 C545 1.429 1_545 S
C541 C524 1.394 . S
C541 C540 1.438 . S
C541 C542 1.428 1_545 S
C542 H534 0.949 . S
C542 C541 1.428 1_565 S
C542 C543 1.345 . S
C543 H535 0.950 . S
C543 C542 1.345 . S
C543 C544 1.424 . S
C544 H536 0.951 . S
C544 C543 1.424 . S
C544 C545 1.347 . S
C545 H537 0.951 . S
C545 C540 1.429 1_565 S
C545 C544 1.347 . S
H546 C547 0.951 . S
C547 H546 0.951 . S
C547 C553 1.265 . S
H548 C553 0.950 . S
H549 C557 0.949 . S
H550 C558 0.950 . S
H551 C559 0.951 . S
H552 C560 0.951 . S
C553 C547 1.265 . S
C553 H548 0.950 . S
C553 C554 1.478 . S
C554 C553 1.478 . S
C554 C555 1.397 . S
C554 C571 1.394 . S
C555 C554 1.397 . S
C555 C556 1.438 . S
C555 C560 1.429 . S
C556 C555 1.438 . S
C556 C557 1.428 . S
C556 C569 1.394 . S
C557 H549 0.949 . S
C557 C556 1.428 . S
C557 C558 1.345 . S
C558 H550 0.950 . S
C558 C557 1.345 . S
C558 C559 1.424 . S
C559 H551 0.951 . S
C559 C558 1.424 . S
C559 C560 1.347 . S
C560 H552 0.951 . S
C560 C555 1.429 . S
C560 C559 1.347 . S
H561 C562 0.951 . S
C562 H561 0.951 . S
C562 C568 1.265 . S
H563 C568 0.950 . S
H564 C572 0.949 . S
H565 C573 0.950 . S
H566 C574 0.951 . S
H567 C575 0.951 . S
C568 C562 1.265 . S
C568 H563 0.950 . S
C568 C569 1.478 . S
C569 C556 1.394 . S
C569 C568 1.478 . S
C569 C570 1.397 . S
C570 C569 1.397 . S
C570 C571 1.438 . S
C570 C575 1.429 . S
C571 C554 1.394 . S
C571 C570 1.438 . S
C571 C572 1.428 . S
C572 H564 0.949 . S
C572 C571 1.428 . S
C572 C573 1.345 . S
C573 H565 0.950 . S
C573 C572 1.345 . S
C573 C574 1.424 . S
C574 H566 0.951 . S
C574 C573 1.424 . S
C574 C575 1.347 . S
C575 H567 0.951 . S
C575 C570 1.429 . S
C575 C574 1.347 . S
H576 C577 0.951 . S
C577 H576 0.951 . S
C577 C583 1.265 . S
H578 C583 0.950 . S
H579 C587 0.949 . S
H580 C588 0.950 . S
H581 C589 0.951 . S
H582 C590 0.951 . S
C583 C577 1.265 . S
C583 H578 0.950 . S
C583 C584 1.478 . S
C584 C583 1.478 . S
C584 C585 1.397 . S
C584 C601 1.394 . S
C585 C584 1.397 . S
C585 C586 1.438 . S
C585 C590 1.429 . S
C586 C585 1.438 . S
C586 C587 1.428 . S
C586 C599 1.394 . S
C587 H579 0.949 . S
C587 C586 1.428 . S
C587 C588 1.345 . S
C588 H580 0.950 . S
C588 C587 1.345 . S
C588 C589 1.424 . S
C589 H581 0.951 . S
C589 C588 1.424 . S
C589 C590 1.347 . S
C590 H582 0.951 . S
C590 C585 1.429 . S
C590 C589 1.347 . S
H591 C592 0.951 . S
C592 H591 0.951 . S
C592 C598 1.265 . S
H593 C598 0.950 . S
H594 C602 0.949 . S
H595 C603 0.950 . S
H596 C604 0.951 . S
H597 C605 0.951 . S
C598 C592 1.265 . S
C598 H593 0.950 . S
C598 C599 1.478 . S
C599 C586 1.394 . S
C599 C598 1.478 . S
C599 C600 1.397 . S
C600 C599 1.397 . S
C600 C601 1.438 . S
C600 C605 1.429 1_545 S
C601 C584 1.394 . S
C601 C600 1.438 . S
C601 C602 1.428 1_545 S
C602 H594 0.949 . S
C602 C601 1.428 1_565 S
C602 C603 1.345 . S
C603 H595 0.950 . S
C603 C602 1.345 . S
C603 C604 1.424 . S
C604 H596 0.951 . S
C604 C603 1.424 . S
C604 C605 1.347 . S
C605 H597 0.951 . S
C605 C600 1.429 1_565 S
C605 C604 1.347 . S
H606 C607 0.951 . S
C607 H606 0.951 . S
C607 C613 1.265 . S
H608 C613 0.950 . S
H609 C617 0.949 . S
H610 C618 0.950 . S
H611 C619 0.951 . S
H612 C620 0.951 . S
C613 C607 1.265 . S
C613 H608 0.950 . S
C613 C614 1.478 . S
C614 C613 1.478 . S
C614 C615 1.397 . S
C614 C631 1.394 . S
C615 C614 1.397 . S
C615 C616 1.438 1_556 S
C615 C620 1.429 . S
C616 C615 1.438 1_554 S
C616 C617 1.428 . S
C616 C629 1.394 . S
C617 H609 0.949 . S
C617 C616 1.428 . S
C617 C618 1.345 . S
C618 H610 0.950 . S
C618 C617 1.345 . S
C618 C619 1.424 1_554 S
C619 H611 0.951 . S
C619 C618 1.424 1_556 S
C619 C620 1.347 . S
C620 H612 0.951 . S
C620 C615 1.429 . S
C620 C619 1.347 . S
H621 C622 0.951 . S
C622 H621 0.951 . S
C622 C628 1.265 . S
H623 C628 0.950 . S
H624 C632 0.949 . S
H625 C633 0.950 . S
H626 C634 0.951 . S
H627 C635 0.951 1_554 S
C628 C622 1.265 . S
C628 H623 0.950 . S
C628 C629 1.478 . S
C629 C616 1.394 . S
C629 C628 1.478 . S
C629 C630 1.397 1_554 S
C630 C629 1.397 1_556 S
C630 C631 1.438 . S
C630 C635 1.429 . S
C631 C614 1.394 . S
C631 C630 1.438 . S
C631 C632 1.428 . S
C632 H624 0.949 . S
C632 C631 1.428 . S
C632 C633 1.345 . S
C633 H625 0.950 . S
C633 C632 1.345 . S
C633 C634 1.424 . S
C634 H626 0.951 . S
C634 C633 1.424 . S
C634 C635 1.347 . S
C635 H627 0.951 1_556 S
C635 C630 1.429 . S
C635 C634 1.347 . S
H636 C637 0.951 1_655 S
C637 H636 0.951 1_455 S
C637 C643 1.265 . S
H638 C643 0.950 . S
H639 C647 0.949 . S
H640 C648 0.950 . S
H641 C649 0.951 . S
H642 C650 0.951 . S
C643 C637 1.265 . S
C643 H638 0.950 . S
C643 C644 1.478 . S
C644 C643 1.478 . S
C644 C645 1.397 . S
C644 C661 1.394 1_455 S
C645 C644 1.397 . S
C645 C646 1.438 . S
C645 C650 1.429 . S
C646 C645 1.438 . S
C646 C647 1.428 . S
C646 C659 1.394 . S
C647 H639 0.949 . S
C647 C646 1.428 . S
C647 C648 1.345 . S
C648 H640 0.950 . S
C648 C647 1.345 . S
C648 C649 1.424 . S
C649 H641 0.951 . S
C649 C648 1.424 . S
C649 C650 1.347 . S
C650 H642 0.951 . S
C650 C645 1.429 . S
C650 C649 1.347 . S
H651 C652 0.951 . S
C652 H651 0.951 . S
C652 C658 1.265 . S
H653 C658 0.950 1_655 S
H654 C662 0.949 . S
H655 C663 0.950 . S
H656 C664 0.951 . S
H657 C665 0.951 . S
C658 C652 1.265 . S
C658 H653 0.950 1_455 S
C658 C659 1.478 . S
C659 C646 1.394 . S
C659 C658 1.478 . S
C659 C660 1.397 1_455 S
C660 C659 1.397 1_655 S
C660 C661 1.438 . S
C660 C665 1.429 . S
C661 C644 1.394 1_655 S
C661 C660 1.438 . S
C661 C662 1.428 . S
C662 H654 0.949 . S
C662 C661 1.428 . S
C662 C663 1.345 . S
C663 H655 0.950 . S
C663 C662 1.345 . S
C663 C664 1.424 . S
C664 H656 0.951 . S
C664 C663 1.424 . S
C664 C665 1.347 . S
C665 H657 0.951 . S
C665 C660 1.429 . S
C665 C664 1.347 . S
C127 C2 1.436 . S
C142 N119 1.519 . S
C157 C22 1.485 . S
C172 N97 1.471 . S
C187 C44 1.487 . S
C202 N108 1.491 . S
C217 C4 1.478 . S
C232 C121 1.492 . S
C262 C99 1.511 . S
C247 C24 1.488 . S
C292 C110 1.456 . S
C277 C42 1.346 . S
C307 C32 1.352 . S
C322 N75 1.389 . S
C337 C49 1.125 . S
C352 C88 1.149 . S
C367 C9 1.103 . S
C382 C66 1.137 . S
C412 C77 1.174 . S
C397 C29 1.067 . S
C442 N86 1.351 . S
C427 C52 1.244 . S
C457 C12 1.337 . S
C472 N64 1.328 . S
C502 C91 1.501 . S
C487 C18 1.471 . S
C517 C38 1.467 . S
C532 C69 1.448 . S
C547 C58 1.481 . S
C562 C80 1.492 . S
C592 C113 1.511 . S
C577 C39 1.506 . S
C622 C124 1.491 . S
C607 C59 1.511 . S
C637 C19 1.534 . S
C652 C102 1.514 . S
