# Generated by pormake.
# Topology anh, (6,3)-cn, num edge types: 1
# Building blocks:
#     Node 0, Type 0, BuildingBlock: INOVEN_clean_sbu_0, # of connection points: 6
#     Node 1, Type 0, BuildingBlock: INOVEN_clean_sbu_0, # of connection points: 6
#     Node 2, Type 0, BuildingBlock: INOVEN_clean_sbu_0, # of connection points: 6
#     Node 3, Type 1, BuildingBlock: QEWDON_clean_linker_0, # of connection points: 3
#     Node 4, Type 1, BuildingBlock: QEWDON_clean_linker_0, # of connection points: 3
#     Node 5, Type 1, BuildingBlock: QEWDON_clean_linker_0, # of connection points: 3
#     Node 6, Type 1, BuildingBlock: QEWDON_clean_linker_0, # of connection points: 3
#     Node 7, Type 1, BuildingBlock: QEWDON_clean_linker_0, # of connection points: 3
#     Node 8, Type 1, BuildingBlock: QEWDON_clean_linker_0, # of connection points: 3
#     Edge 9, Type (0, 1), BuildingBlock: OJICUG_clean_linker_0, # of connection points: 2
#     Edge 10, Type (0, 1), BuildingBlock: OJICUG_clean_linker_0, # of connection points: 2
#     Edge 11, Type (0, 1), BuildingBlock: OJICUG_clean_linker_0, # of connection points: 2
#     Edge 12, Type (0, 1), BuildingBlock: OJICUG_clean_linker_0, # of connection points: 2
#     Edge 13, Type (0, 1), BuildingBlock: OJICUG_clean_linker_0, # of connection points: 2
#     Edge 14, Type (0, 1), BuildingBlock: OJICUG_clean_linker_0, # of connection points: 2
#     Edge 15, Type (0, 1), BuildingBlock: OJICUG_clean_linker_0, # of connection points: 2
#     Edge 16, Type (0, 1), BuildingBlock: OJICUG_clean_linker_0, # of connection points: 2
#     Edge 17, Type (0, 1), BuildingBlock: OJICUG_clean_linker_0, # of connection points: 2
#     Edge 18, Type (0, 1), BuildingBlock: OJICUG_clean_linker_0, # of connection points: 2
#     Edge 19, Type (0, 1), BuildingBlock: OJICUG_clean_linker_0, # of connection points: 2
#     Edge 20, Type (0, 1), BuildingBlock: OJICUG_clean_linker_0, # of connection points: 2
#     Edge 21, Type (0, 1), BuildingBlock: OJICUG_clean_linker_0, # of connection points: 2
#     Edge 22, Type (0, 1), BuildingBlock: OJICUG_clean_linker_0, # of connection points: 2
#     Edge 23, Type (0, 1), BuildingBlock: OJICUG_clean_linker_0, # of connection points: 2
#     Edge 24, Type (0, 1), BuildingBlock: OJICUG_clean_linker_0, # of connection points: 2
#     Edge 25, Type (0, 1), BuildingBlock: OJICUG_clean_linker_0, # of connection points: 2
#     Edge 26, Type (0, 1), BuildingBlock: OJICUG_clean_linker_0, # of connection points: 2
# Relax obj value: 0.182
# Max RMSD: 0.205
# Mean RMSD: 0.127
data_MOF--net-anh--node1-INOVEN_clean_sbu_0--node2-QEWDON_clean_linker_0--edge1-OJICUG_clean_linker_0
_symmetry_space_group_name_H-M    P1
_symmetry_Int_Tables_number       1
_symmetry_cell_setting            triclinic
loop_
_symmetry_equiv_pos_as_xyz
'x, y, z'
_cell_length_a     25.366778
_cell_length_b     31.08977
_cell_length_c     35.268509
_cell_angle_alpha  96.448617
_cell_angle_beta   92.524902
_cell_angle_gamma 132.15155
loop_
_atom_site_label
_atom_site_type_symbol
_atom_site_fract_x
_atom_site_fract_y
_atom_site_fract_z
_atom_type_partial_charge
Gd0 Gd 0.16578 0.53792 0.14315 0.0
Gd1 Gd 1.07418 0.56198 0.16534 0.0
C2 C 0.23995 0.67672 0.16046 0.0
C3 C 0.26531 0.54541 0.11902 0.0
C4 C 0.34293 0.59776 0.12864 0.0
C5 C 0.36976 0.63864 0.16313 0.0
C6 C 0.39046 0.60789 0.10398 0.0
C7 C 0.49179 0.6968 0.14998 0.0
C8 C 0.46449 0.65692 0.11465 0.0
C9 C 0.44322 0.68797 0.17345 0.0
C10 C 0.15551 0.54647 0.21919 0.0
C11 C 1.0027 0.4263 0.14758 0.0
C12 C 1.00541 0.58106 0.20332 0.0
C13 C 0.92894 0.54321 0.20597 0.0
C14 C 0.90392 0.56767 0.22367 0.0
C15 C 0.87985 0.48317 0.18841 0.0
C16 C 0.7804 0.47607 0.19836 0.0
C17 C 0.80588 0.44957 0.18494 0.0
C18 C 0.83007 0.53423 0.22016 0.0
C19 C 1.05666 0.52744 0.08764 0.0
O20 O 0.24819 0.63898 0.15229 0.0
O21 O 0.17669 0.65768 0.16687 0.0
O22 O 0.23501 0.52058 0.14828 0.0
O23 O 0.22757 0.55092 0.09747 0.0
O24 O 0.15437 0.50749 0.20053 0.0
O25 O 0.16354 0.57871 0.1971 0.0
O26 O 1.00637 0.46555 0.17016 0.0
O27 O 1.05467 0.44467 0.12685 0.0
O28 O 1.02299 0.59631 0.16963 0.0
O29 O 1.03592 0.5643 0.21816 0.0
O30 O 1.00452 0.51241 0.10579 0.0
O31 O 0.11442 0.56134 0.11134 0.0
H32 H 0.33408 0.63168 0.18278 0.0
H33 H 0.37067 0.57706 0.07717 0.0
H34 H 0.50048 0.66169 0.09617 0.0
H35 H 0.46223 0.71795 0.2006 0.0
H36 H 0.94135 0.61373 0.23785 0.0
H37 H 0.89861 0.46339 0.17511 0.0
H38 H 0.76904 0.40488 0.1683 0.0
H39 H 0.81276 0.55645 0.23074 0.0
Gd40 Gd 0.70018 0.06476 0.48177 0.0
Gd41 Gd 0.60183 0.08199 0.46489 0.0
C42 C 0.52564 0.94922 0.46496 0.0
C43 C 0.76396 0.03302 0.50839 0.0
C44 C 0.7415 0.97612 0.51202 0.0
C45 C 0.78075 0.9628 0.49775 0.0
C46 C 0.67933 0.93363 0.52761 0.0
C47 C 0.6944 0.8644 0.5129 0.0
C48 C 0.65622 0.87836 0.52821 0.0
C49 C 0.75729 0.90737 0.49803 0.0
C50 C 0.67103 0.06124 0.40607 0.0
C51 C 0.77784 0.1972 0.47821 0.0
C52 C 0.53544 0.11286 0.44116 0.0
C53 C 0.54637 0.16584 0.4515 0.0
C54 C 0.4872 0.15891 0.45815 0.0
C55 C 0.6157 0.22288 0.45848 0.0
C56 C 0.56676 0.26489 0.48106 0.0
C57 C 0.62574 0.2721 0.4729 0.0
C58 C 0.49727 0.20796 0.4729 0.0
C59 C 0.62703 0.08305 0.54027 0.0
O60 O 0.58933 0.97339 0.48328 0.0
O61 O 0.51971 0.98231 0.44849 0.0
O62 O 0.76349 0.04193 0.4731 0.0
O63 O 0.73867 0.05037 0.53027 0.0
O64 O 0.73428 0.08625 0.42328 0.0
O65 O 0.62622 0.03742 0.42899 0.0
O66 O 0.7123 0.1737 0.46397 0.0
O67 O 0.7868 0.16436 0.4921 0.0
O68 O 0.51682 0.08191 0.46833 0.0
O69 O 0.58328 0.11849 0.42316 0.0
O70 O 0.56495 0.05826 0.5218 0.0
O71 O 0.67449 0.10888 0.5187 0.0
H72 H 0.82879 0.99491 0.48561 0.0
H73 H 0.64765 0.94253 0.53856 0.0
H74 H 0.60708 0.8458 0.53939 0.0
H75 H 0.78796 0.89786 0.48628 0.0
H76 H 0.43338 0.11528 0.4531 0.0
H77 H 0.66234 0.22934 0.45396 0.0
H78 H 0.67989 0.31545 0.47917 0.0
H79 H 0.4508 0.2013 0.47851 0.0
Gd80 Gd 0.69466 0.6232 0.83987 0.0
Gd81 Gd 0.58972 0.50044 0.84514 0.0
C82 C 0.5211 0.5611 0.84721 0.0
C83 C 0.7603 0.72277 0.81778 0.0
C84 C 0.74537 0.76047 0.81286 0.0
C85 C 0.79536 0.82003 0.83147 0.0
C86 C 0.68126 0.73764 0.7906 0.0
C87 C 0.7166 0.833 0.80669 0.0
C88 C 0.66724 0.77369 0.78739 0.0
C89 C 0.78096 0.8559 0.8286 0.0
C90 C 0.69081 0.60589 0.91255 0.0
C91 C 0.76488 0.56371 0.84488 0.0
C92 C 0.52826 0.39759 0.85908 0.0
C93 C 0.54499 0.36165 0.84629 0.0
C94 C 0.57665 0.36974 0.8129 0.0
C95 C 0.53344 0.32174 0.86806 0.0
C96 C 0.58287 0.2968 0.82232 0.0
C97 C 0.55224 0.28959 0.85621 0.0
C98 C 0.59501 0.3375 0.80094 0.0
C99 C 0.59757 0.51961 0.77209 0.0
O100 O 0.58646 0.60567 0.83815 0.0
O101 O 0.51088 0.51495 0.85523 0.0
O102 O 0.77127 0.71905 0.85334 0.0
O103 O 0.72088 0.67201 0.79376 0.0
O104 O 0.74993 0.64535 0.89953 0.0
O105 O 0.63607 0.57915 0.88726 0.0
O106 O 0.69729 0.51779 0.85019 0.0
O107 O 0.77719 0.611 0.83746 0.0
O108 O 0.50089 0.40544 0.83148 0.0
O109 O 0.57874 0.44634 0.88413 0.0
O110 O 0.5376 0.48145 0.78462 0.0
O111 O 0.6503 0.54446 0.79825 0.0
H112 H 0.84519 0.83862 0.8487 0.0
H113 H 0.64138 0.69175 0.77612 0.0
H114 H 0.61671 0.75465 0.77079 0.0
H115 H 0.82001 0.90152 0.84367 0.0
H116 H 0.58715 0.40106 0.79593 0.0
H117 H 0.51031 0.3157 0.89428 0.0
H118 H 0.54325 0.25942 0.87379 0.0
H119 H 0.6175 0.34379 0.77448 0.0
H120 H 0.6666 0.09791 0.22776 0.0
C121 C 0.62121 0.05179 0.21558 0.0
C122 C 0.58408 1.01216 0.24118 0.0
C123 C 0.59825 0.03267 0.17511 0.0
H124 H 0.49381 0.92217 0.24621 0.0
C125 C 0.52231 0.95263 0.22648 0.0
C126 C 0.49737 0.93096 0.1868 0.0
C127 C 0.53656 0.97073 0.16114 0.0
C128 C 0.63582 0.07739 0.14802 0.0
H129 H 0.51779 0.9528 0.13053 0.0
C130 C 0.70735 0.13547 0.15832 0.0
C131 C 0.73898 0.17546 0.13183 0.0
C132 C 0.59784 0.06257 0.11115 0.0
H133 H 0.54268 0.02133 0.10196 0.0
C134 C 0.62902 0.10125 0.08525 0.0
H135 H 0.73917 0.14964 0.18619 0.0
C136 C 0.69855 0.15664 0.09527 0.0
H137 H 0.72029 0.18573 0.07448 0.0
H138 H 0.59838 0.08838 0.05714 0.0
H139 H 0.57821 0.56679 0.59773 0.0
C140 C 0.58589 0.53826 0.58506 0.0
C141 C 0.60327 0.51501 0.60923 0.0
C142 C 0.57571 0.5228 0.54459 0.0
H143 H 0.62111 0.45658 0.61142 0.0
C144 C 0.61005 0.47602 0.59279 0.0
C145 C 0.5987 0.45933 0.55254 0.0
C146 C 0.58317 0.48389 0.52868 0.0
C147 C 0.55275 0.54381 0.51857 0.0
H148 H 0.57402 0.47078 0.49756 0.0
C149 C 0.58686 0.60357 0.52448 0.0
C150 C 0.56732 0.62339 0.49819 0.0
C151 C 0.49726 0.50387 0.48681 0.0
H152 H 0.46908 0.45743 0.48193 0.0
C153 C 0.47722 0.52329 0.46105 0.0
H154 H 0.6302 0.63493 0.54859 0.0
C155 C 0.51226 0.58271 0.46649 0.0
H156 H 0.49583 0.59684 0.4461 0.0
H157 H 0.43449 0.49218 0.43671 0.0
H158 H 0.13948 0.54263 0.9165 0.0
C159 C 0.10473 0.547 0.9028 0.0
C160 C 1.05492 0.54159 0.92409 0.0
C161 C 0.11049 0.5573 0.86467 0.0
H162 H 0.97054 0.54221 0.92471 0.0
C163 C 1.00665 0.5453 0.90721 0.0
C164 C 1.00449 0.55491 0.86935 0.0
C165 C 1.05854 0.5616 0.84823 0.0
C166 C 0.17043 0.56295 0.84386 0.0
H167 H 1.05875 0.56921 0.81912 0.0
C168 C 0.22402 0.55955 0.85936 0.0
C169 C 0.27761 0.56673 0.83681 0.0
C170 C 0.17426 0.57261 0.80576 0.0
H171 H 0.13866 0.57561 0.79144 0.0
C172 C 0.22345 0.57877 0.78441 0.0
H173 H 0.22516 0.55245 0.88855 0.0
C174 C 0.27304 0.57612 0.79926 0.0
H175 H 0.30878 0.5813 0.78035 0.0
H176 H 0.22325 0.58605 0.75511 0.0
H177 H 0.10535 0.52694 0.39824 0.0
C178 C 0.15341 0.5722 0.41051 0.0
C179 C 0.19536 0.6102 0.38493 0.0
C180 C 0.171 0.59306 0.45095 0.0
H181 H 0.28761 0.69927 0.3797 0.0
C182 C 0.25547 0.67011 0.39955 0.0
C183 C 0.27536 0.69351 0.43915 0.0
C184 C 0.23428 0.65452 0.4649 0.0
C185 C 0.12094 0.55187 0.47778 0.0
H186 H 0.25152 0.67299 0.49548 0.0
C187 C 1.06866 0.48837 0.46704 0.0
C188 C 1.02147 0.45206 0.49267 0.0
C189 C 0.12279 0.57642 0.51457 0.0
H190 H 0.15796 0.62357 0.52414 0.0
C191 C 1.07757 0.54077 0.53984 0.0
H192 H 1.06457 0.46668 0.43937 0.0
C193 C 1.02774 0.47947 0.52914 0.0
H194 H 0.99278 0.45314 0.54932 0.0
H195 H 1.08049 0.561 0.56791 0.0
H196 H 0.63045 0.0278 0.71213 0.0
C197 C 0.63508 0.06318 0.72643 0.0
C198 C 0.64859 0.10487 0.70547 0.0
C199 C 0.62369 0.06522 0.76502 0.0
H200 H 0.65652 0.17863 0.70668 0.0
C201 C 0.65044 0.14874 0.72342 0.0
C202 C 0.6375 0.15045 0.76164 0.0
C203 C 0.62677 0.10993 0.78246 0.0
C204 C 0.60244 0.01832 0.78653 0.0
H205 H 0.61864 0.11231 0.81227 0.0
C206 C 0.63572 0.99585 0.78465 0.0
C207 C 0.61708 0.9538 0.80698 0.0
C208 C 0.54844 0.99623 0.80983 0.0
H209 H 0.52012 1.01106 0.81107 0.0
C210 C 0.52978 0.95442 0.83169 0.0
H211 H 0.67738 1.0122 0.76692 0.0
C212 C 0.56419 0.93363 0.83056 0.0
H213 H 0.54863 0.90093 0.84768 0.0
H214 H 0.48839 0.93803 0.84957 0.0
H215 H 0.74337 0.6821 0.08868 0.0
C216 C 0.72117 0.6423 0.09934 0.0
C217 C 0.68493 0.58947 0.07311 0.0
C218 C 0.72953 0.64455 0.13913 0.0
H219 H 0.62715 0.49716 0.06627 0.0
C220 C 0.65472 0.53773 0.08687 0.0
C221 C 0.66548 0.53957 0.12678 0.0
C222 C 0.70258 0.59353 0.15271 0.0
C223 C 0.76149 0.69933 0.1662 0.0
H224 H 0.71247 0.59678 0.18353 0.0
C225 C 0.73312 0.72462 0.16123 0.0
C226 C 0.75496 0.77252 0.18825 0.0
C227 C 0.81531 0.72413 0.19796 0.0
H228 H 0.83809 0.70521 0.20238 0.0
C229 C 0.83939 0.77342 0.22445 0.0
H230 H 0.68903 0.7035 0.13774 0.0
C231 C 0.80842 0.79699 0.22008 0.0
H232 H 0.82448 0.83287 0.24192 0.0
H233 H 0.88044 0.79216 0.24909 0.0
C234 C 0.6207 0.76879 0.13978 0.0
C235 C 0.57019 0.74064 0.16505 0.0
H236 H 0.72484 0.80556 0.12872 0.0
C237 C 0.59407 0.7452 0.20337 0.0
H238 H 0.60449 0.76768 0.11048 0.0
C239 C 0.66338 0.76799 0.21398 0.0
C240 C 0.70891 0.78557 0.18625 0.0
H241 H 0.55692 0.72449 0.22381 0.0
H242 H 0.67674 0.76306 0.2418 0.0
C243 C 0.69005 0.79155 0.15045 0.0
C244 C 0.83722 0.29568 0.45841 0.0
C245 C 0.84235 0.26175 0.47885 0.0
H246 H 0.89006 0.38165 0.44567 0.0
C247 C 0.91002 0.29059 0.50029 0.0
H248 H 0.78656 0.27541 0.44131 0.0
C249 C 0.96937 0.35153 0.5026 0.0
C250 C 0.96375 0.38559 0.48288 0.0
H251 H 0.91669 0.26649 0.51645 0.0
H252 H 1.01933 0.37264 0.521 0.0
C253 C 0.89699 0.3566 0.46037 0.0
C254 C 0.7055 0.90109 0.84061 0.0
C255 C 0.6987 0.86958 0.80589 0.0
H256 H 0.68497 0.95265 0.86798 0.0
C257 C 0.67069 0.87049 0.77099 0.0
H258 H 0.72639 0.90081 0.86795 0.0
C259 C 0.64781 0.90083 0.77099 0.0
C260 C 0.65146 0.92981 0.80596 0.0
H261 H 0.66532 0.84686 0.7438 0.0
H262 H 0.62427 0.89938 0.74392 0.0
C263 C 0.68163 0.93054 0.84066 0.0
C264 C 0.67472 0.46652 0.19927 0.0
C265 C 0.71057 0.45339 0.17944 0.0
H266 H 0.62702 0.50261 0.19672 0.0
C267 C 0.6982 0.44231 0.13881 0.0
H268 H 0.68026 0.47249 0.23052 0.0
C269 C 0.67042 0.46167 0.11961 0.0
C270 C 0.65284 0.49041 0.14099 0.0
H271 H 0.72243 0.42976 0.12225 0.0
H272 H 0.67441 0.46261 0.08926 0.0
C273 C 0.64528 0.4847 0.17991 0.0
C274 C 0.3942 0.85833 0.44021 0.0
C275 C 0.46049 0.88411 0.46163 0.0
H276 H 0.28472 0.7792 0.41723 0.0
C277 C 0.46316 0.84668 0.4791 0.0
H278 H 0.38915 0.88508 0.42644 0.0
C279 C 0.40209 0.78525 0.47414 0.0
C280 C 0.33679 0.75955 0.45147 0.0
H281 H 0.51289 0.86459 0.49597 0.0
H282 H 0.40689 0.75753 0.48663 0.0
C283 C 0.33379 0.79734 0.43512 0.0
C284 C 0.5534 0.20096 0.81193 0.0
C285 C 0.59969 0.26062 0.80844 0.0
H286 H 0.52879 0.11977 0.79968 0.0
C287 C 0.66021 0.28443 0.79017 0.0
H288 H 0.50551 0.18064 0.82502 0.0
C289 C 0.67316 0.24909 0.77516 0.0
C290 C 0.62641 0.18942 0.77853 0.0
H291 H 0.69772 0.33044 0.78747 0.0
H292 H 0.71985 0.26847 0.76109 0.0
C293 C 0.56667 0.16593 0.79727 0.0
C294 C 0.66089 0.77394 0.47529 0.0
C295 C 0.66627 0.80405 0.51029 0.0
H296 H 0.62536 0.69313 0.44417 0.0
C297 C 0.64192 0.77524 0.54199 0.0
H298 H 0.67865 0.79488 0.45031 0.0
C299 C 0.61182 0.71705 0.53853 0.0
C300 C 0.6045 0.68647 0.50314 0.0
H301 H 0.64582 0.79762 0.56935 0.0
H302 H 0.59229 0.69536 0.56313 0.0
C303 C 0.62996 0.71565 0.4717 0.0
C304 C 0.8997 0.60719 0.84148 0.0
C305 C 0.82675 0.56124 0.84771 0.0
H306 H 1.00913 0.64258 0.84164 0.0
C307 C 0.81461 0.51216 0.8576 0.0
H308 H 0.91501 0.64668 0.83394 0.0
C309 C 0.86977 0.50974 0.8619 0.0
C310 C 0.94291 0.55552 0.85611 0.0
H311 H 0.76146 0.47484 0.86298 0.0
H312 H 0.85472 0.47105 0.87087 0.0
C313 C 0.95518 0.60452 0.84552 0.0
C314 C 0.30254 0.78464 0.18001 0.0
C315 C 0.3043 0.74217 0.16371 0.0
H316 H 0.3613 0.87672 0.19963 0.0
C317 C 0.36919 0.76325 0.1515 0.0
H318 H 0.25418 0.77077 0.18986 0.0
C319 C 0.43055 0.82449 0.15645 0.0
C320 C 0.42919 0.86665 0.17398 0.0
H321 H 0.3731 0.73237 0.13862 0.0
H322 H 0.48004 0.83879 0.1481 0.0
C323 C 0.36403 0.84566 0.18538 0.0
C324 C 0.62101 0.36929 0.48617 0.0
C325 C 0.57771 0.31593 0.49991 0.0
H326 H 0.6617 0.45692 0.49216 0.0
C327 C 0.54439 0.31123 0.53199 0.0
H328 H 0.64722 0.37398 0.46145 0.0
C329 C 0.55313 0.35852 0.54965 0.0
C330 C 0.59497 0.41143 0.53544 0.0
H331 H 0.51148 0.27086 0.54347 0.0
H332 H 0.52545 0.35307 0.57382 0.0
C333 C 0.62909 0.41653 0.50362 0.0
C334 C 0.38798 0.51708 0.85688 0.0
C335 C 0.45904 0.56329 0.84831 0.0
H336 H 0.27904 0.48048 0.8614 0.0
C337 C 0.46859 0.61189 0.84005 0.0
H338 H 0.37463 0.47784 0.86341 0.0
C339 C 0.41275 0.6137 0.83949 0.0
C340 C 0.34126 0.56751 0.84746 0.0
H341 H 0.52005 0.6493 0.83307 0.0
H342 H 0.42569 0.6521 0.83143 0.0
C343 C 0.33167 0.51892 0.8563 0.0
C344 C 0.88985 0.34177 0.17252 0.0
C345 C 0.93904 0.36109 0.14614 0.0
H346 H 0.79007 0.26864 0.18969 0.0
C347 C 0.92513 0.31733 0.11799 0.0
H348 H 0.89829 0.37369 0.1948 0.0
C349 C 0.86278 0.25695 0.11516 0.0
C350 C 0.81251 0.23779 0.14075 0.0
H351 H 0.96117 0.32982 0.09717 0.0
H352 H 0.85247 0.22508 0.0919 0.0
C353 C 0.82791 0.28119 0.16999 0.0
C354 C 0.11953 0.56084 0.02994 0.0
C355 C 1.05483 0.52618 0.04523 0.0
H356 H 0.17064 0.59393 0.98058 0.0
C357 C 0.98967 0.49377 0.02001 0.0
H358 H 0.17081 0.58662 0.04858 0.0
C359 C 0.98941 0.49721 0.98061 0.0
C360 C 1.05442 0.53369 0.96546 0.0
H361 H 0.9389 0.46642 0.03082 0.0
H362 H 0.9381 0.4716 0.96209 0.0
C363 C 0.11939 0.56479 -0.00927 0.0
C364 C 0.57977 0.02365 0.34891 0.0
C365 C 0.65127 0.05423 0.36429 0.0
H366 H 0.503 0.98771 0.29809 0.0
C367 C 0.70235 0.07599 0.33924 0.0
H368 H 0.53938 1.007 0.36755 0.0
C369 C 0.68144 0.06491 0.29926 0.0
C370 C 0.60906 0.03177 0.28372 0.0
H371 H 0.75798 0.10007 0.3504 0.0
H372 H 0.72118 0.08003 0.2804 0.0
C373 C 0.55893 1.01258 0.30912 0.0
C374 C 0.54272 0.50551 0.70613 0.0
C375 C 0.60265 0.52543 0.73122 0.0
H376 H 0.49702 0.4883 0.64757 0.0
C377 C 0.66569 0.54792 0.71647 0.0
H378 H 0.49375 0.48838 0.71689 0.0
C379 C 0.66721 0.54709 0.6768 0.0
C380 C 0.60635 0.52527 0.65153 0.0
H381 H 0.71269 0.56365 0.73532 0.0
H382 H 0.71501 0.56185 0.66566 0.0
C383 C 0.54483 0.50596 0.66663 0.0
C384 C 0.70122 0.13912 0.6064 0.0
C385 C 0.63957 0.08693 0.58223 0.0
H386 H 0.75198 0.18623 0.66504 0.0
C387 C 0.5848 0.03932 0.59883 0.0
H388 H 0.74384 0.17656 0.59419 0.0
C389 C 0.59016 0.04424 0.63892 0.0
C390 C 0.64963 0.09746 0.6633 0.0
H391 H 0.53673 0.99863 0.58071 0.0
H392 H 0.54592 1.00743 0.6509 0.0
C393 C 0.7057 0.14468 0.64675 0.0
C394 C 0.62268 0.55525 0.96556 0.0
C395 C 0.68828 0.59903 0.95308 0.0
H396 H 0.57014 0.5175 0.01397 0.0
C397 C 0.75234 0.6373 0.97981 0.0
H398 H 0.57265 0.52496 0.94529 0.0
C399 C 0.75079 0.63322 0.01866 0.0
C400 C 0.68522 0.59055 0.03147 0.0
H401 H 0.80369 0.67107 0.97086 0.0
H402 H 0.80098 0.66372 0.03883 0.0
C403 C 0.62121 0.5508 0.00461 0.0
C404 C 0.16933 0.60738 0.27803 0.0
C405 C 0.15859 0.55836 0.26135 0.0
H406 H 0.18724 0.661 0.32994 0.0
C407 C 0.15383 0.52313 0.28542 0.0
H408 H 0.17308 0.63532 0.26025 0.0
C409 C 0.16246 0.53819 0.3257 0.0
C410 C 0.17628 0.5888 0.34238 0.0
H411 H 0.14529 0.48495 0.27322 0.0
H412 H 0.16128 0.51173 0.34383 0.0
C413 C 0.17777 0.62227 0.31799 0.0
loop_
_geom_bond_atom_site_label_1
_geom_bond_atom_site_label_2
_geom_bond_distance
_geom_bond_site_symmetry_2
_ccdc_geom_bond_type
Gd0 C3 2.818 . S
Gd0 O20 2.377 . S
Gd0 O22 2.448 . S
Gd0 O23 2.506 . S
Gd0 O24 2.435 . S
Gd0 O25 2.717 . S
Gd0 O27 2.395 1_455 S
Gd0 O31 2.327 . S
Gd1 C12 2.818 1_455 S
Gd1 O21 2.395 . S
Gd1 O25 2.327 . S
Gd1 O26 2.377 1_455 S
Gd1 O28 2.448 1_455 S
Gd1 O29 2.506 1_455 S
Gd1 O30 2.435 . S
Gd1 O31 2.717 . S
C2 O20 1.240 . S
C2 O21 1.240 . S
C3 Gd0 2.818 . S
C3 C4 1.510 . S
C3 O22 1.249 . S
C3 O23 1.252 . S
C4 C3 1.510 . S
C4 C5 1.404 . S
C4 C6 1.352 . S
C5 C4 1.404 . S
C5 C9 1.389 . S
C5 H32 0.930 . S
C6 C4 1.352 . S
C6 C8 1.374 . S
C6 H33 0.931 . S
C7 C8 1.359 . S
C7 C9 1.364 . S
C8 C6 1.374 . S
C8 C7 1.359 . S
C8 H34 0.931 . S
C9 C5 1.389 . S
C9 C7 1.364 . S
C9 H35 0.931 . S
C10 O24 1.256 . S
C10 O25 1.257 . S
C11 O26 1.240 . S
C11 O27 1.240 . S
C12 Gd1 2.818 1_655 S
C12 C13 1.510 . S
C12 O28 1.249 . S
C12 O29 1.252 . S
C13 C12 1.510 . S
C13 C14 1.404 . S
C13 C15 1.352 . S
C14 C13 1.404 . S
C14 C18 1.389 . S
C14 H36 0.930 . S
C15 C13 1.352 . S
C15 C17 1.374 . S
C15 H37 0.931 . S
C16 C17 1.359 . S
C16 C18 1.364 . S
C17 C15 1.374 . S
C17 C16 1.359 . S
C17 H38 0.931 . S
C18 C14 1.389 . S
C18 C16 1.364 . S
C18 H39 0.931 . S
C19 O30 1.256 . S
C19 O31 1.257 . S
O20 Gd0 2.377 . S
O20 C2 1.240 . S
O21 Gd1 2.395 . S
O21 C2 1.240 . S
O22 Gd0 2.448 . S
O22 C3 1.249 . S
O23 Gd0 2.506 . S
O23 C3 1.252 . S
O24 Gd0 2.435 . S
O24 C10 1.256 . S
O25 Gd0 2.717 . S
O25 Gd1 2.327 . S
O25 C10 1.257 . S
O26 Gd1 2.377 1_655 S
O26 C11 1.240 . S
O27 Gd0 2.395 1_655 S
O27 C11 1.240 . S
O28 Gd1 2.448 1_655 S
O28 C12 1.249 . S
O29 Gd1 2.506 1_655 S
O29 C12 1.252 . S
O30 Gd1 2.435 . S
O30 C19 1.256 . S
O31 Gd0 2.327 . S
O31 Gd1 2.717 . S
O31 C19 1.257 . S
H32 C5 0.930 . S
H33 C6 0.931 . S
H34 C8 0.931 . S
H35 C9 0.931 . S
H36 C14 0.930 . S
H37 C15 0.931 . S
H38 C17 0.931 . S
H39 C18 0.931 . S
Gd40 C43 2.818 1_545 S
Gd40 O60 2.377 1_545 S
Gd40 O62 2.448 1_545 S
Gd40 O63 2.506 1_545 S
Gd40 O64 2.435 . S
Gd40 O65 2.717 . S
Gd40 O67 2.395 . S
Gd40 O71 2.327 . S
Gd41 C52 2.818 . S
Gd41 O61 2.395 1_545 S
Gd41 O65 2.327 . S
Gd41 O66 2.377 . S
Gd41 O68 2.448 . S
Gd41 O69 2.506 . S
Gd41 O70 2.435 . S
Gd41 O71 2.717 . S
C42 O60 1.240 . S
C42 O61 1.240 . S
C43 Gd40 2.818 1_565 S
C43 C44 1.510 . S
C43 O62 1.249 . S
C43 O63 1.252 . S
C44 C43 1.510 . S
C44 C45 1.404 . S
C44 C46 1.352 . S
C45 C44 1.404 . S
C45 C49 1.389 . S
C45 H72 0.930 . S
C46 C44 1.352 . S
C46 C48 1.374 . S
C46 H73 0.931 . S
C47 C48 1.359 . S
C47 C49 1.364 . S
C48 C46 1.374 . S
C48 C47 1.359 . S
C48 H74 0.931 . S
C49 C45 1.389 . S
C49 C47 1.364 . S
C49 H75 0.931 . S
C50 O64 1.256 . S
C50 O65 1.257 . S
C51 O66 1.240 . S
C51 O67 1.240 . S
C52 Gd41 2.818 . S
C52 C53 1.510 . S
C52 O68 1.249 . S
C52 O69 1.252 . S
C53 C52 1.510 . S
C53 C54 1.404 . S
C53 C55 1.352 . S
C54 C53 1.404 . S
C54 C58 1.389 . S
C54 H76 0.930 . S
C55 C53 1.352 . S
C55 C57 1.374 . S
C55 H77 0.931 . S
C56 C57 1.359 . S
C56 C58 1.364 . S
C57 C55 1.374 . S
C57 C56 1.359 . S
C57 H78 0.931 . S
C58 C54 1.389 . S
C58 C56 1.364 . S
C58 H79 0.931 . S
C59 O70 1.256 . S
C59 O71 1.257 . S
O60 Gd40 2.377 1_565 S
O60 C42 1.240 . S
O61 Gd41 2.395 1_565 S
O61 C42 1.240 . S
O62 Gd40 2.448 1_565 S
O62 C43 1.249 . S
O63 Gd40 2.506 1_565 S
O63 C43 1.252 . S
O64 Gd40 2.435 . S
O64 C50 1.256 . S
O65 Gd40 2.717 . S
O65 Gd41 2.327 . S
O65 C50 1.257 . S
O66 Gd41 2.377 . S
O66 C51 1.240 . S
O67 Gd40 2.395 . S
O67 C51 1.240 . S
O68 Gd41 2.448 . S
O68 C52 1.249 . S
O69 Gd41 2.506 . S
O69 C52 1.252 . S
O70 Gd41 2.435 . S
O70 C59 1.256 . S
O71 Gd40 2.327 . S
O71 Gd41 2.717 . S
O71 C59 1.257 . S
H72 C45 0.930 . S
H73 C46 0.931 . S
H74 C48 0.931 . S
H75 C49 0.931 . S
H76 C54 0.930 . S
H77 C55 0.931 . S
H78 C57 0.931 . S
H79 C58 0.931 . S
Gd80 C83 2.818 . S
Gd80 O100 2.377 . S
Gd80 O102 2.448 . S
Gd80 O103 2.506 . S
Gd80 O104 2.435 . S
Gd80 O105 2.717 . S
Gd80 O107 2.395 . S
Gd80 O111 2.327 . S
Gd81 C92 2.818 . S
Gd81 O101 2.395 . S
Gd81 O105 2.327 . S
Gd81 O106 2.377 . S
Gd81 O108 2.448 . S
Gd81 O109 2.506 . S
Gd81 O110 2.435 . S
Gd81 O111 2.717 . S
C82 O100 1.240 . S
C82 O101 1.240 . S
C83 Gd80 2.818 . S
C83 C84 1.510 . S
C83 O102 1.249 . S
C83 O103 1.252 . S
C84 C83 1.510 . S
C84 C85 1.404 . S
C84 C86 1.352 . S
C85 C84 1.404 . S
C85 C89 1.389 . S
C85 H112 0.930 . S
C86 C84 1.352 . S
C86 C88 1.374 . S
C86 H113 0.931 . S
C87 C88 1.359 . S
C87 C89 1.364 . S
C88 C86 1.374 . S
C88 C87 1.359 . S
C88 H114 0.931 . S
C89 C85 1.389 . S
C89 C87 1.364 . S
C89 H115 0.931 . S
C90 O104 1.256 . S
C90 O105 1.257 . S
C91 O106 1.240 . S
C91 O107 1.240 . S
C92 Gd81 2.818 . S
C92 C93 1.510 . S
C92 O108 1.249 . S
C92 O109 1.252 . S
C93 C92 1.510 . S
C93 C94 1.404 . S
C93 C95 1.352 . S
C94 C93 1.404 . S
C94 C98 1.389 . S
C94 H116 0.930 . S
C95 C93 1.352 . S
C95 C97 1.374 . S
C95 H117 0.931 . S
C96 C97 1.359 . S
C96 C98 1.364 . S
C97 C95 1.374 . S
C97 C96 1.359 . S
C97 H118 0.931 . S
C98 C94 1.389 . S
C98 C96 1.364 . S
C98 H119 0.931 . S
C99 O110 1.256 . S
C99 O111 1.257 . S
O100 Gd80 2.377 . S
O100 C82 1.240 . S
O101 Gd81 2.395 . S
O101 C82 1.240 . S
O102 Gd80 2.448 . S
O102 C83 1.249 . S
O103 Gd80 2.506 . S
O103 C83 1.252 . S
O104 Gd80 2.435 . S
O104 C90 1.256 . S
O105 Gd80 2.717 . S
O105 Gd81 2.327 . S
O105 C90 1.257 . S
O106 Gd81 2.377 . S
O106 C91 1.240 . S
O107 Gd80 2.395 . S
O107 C91 1.240 . S
O108 Gd81 2.448 . S
O108 C92 1.249 . S
O109 Gd81 2.506 . S
O109 C92 1.252 . S
O110 Gd81 2.435 . S
O110 C99 1.256 . S
O111 Gd80 2.327 . S
O111 Gd81 2.717 . S
O111 C99 1.257 . S
H112 C85 0.930 . S
H113 C86 0.931 . S
H114 C88 0.931 . S
H115 C89 0.931 . S
H116 C94 0.930 . S
H117 C95 0.931 . S
H118 C97 0.931 . S
H119 C98 0.931 . S
H120 C121 0.949 . S
C121 H120 0.949 . S
C121 C122 1.395 . S
C121 C123 1.391 . S
C122 C121 1.395 . S
C122 C125 1.390 1_545 S
C123 C121 1.391 . S
C123 C127 1.387 . S
C123 C128 1.491 . S
H124 C125 0.950 . S
C125 C122 1.390 1_565 S
C125 H124 0.950 . S
C125 C126 1.378 . S
C126 C125 1.378 . S
C126 C127 1.409 1_565 S
C127 C123 1.387 . S
C127 C126 1.409 1_545 S
C127 H129 0.951 1_545 S
C128 C123 1.491 . S
C128 C130 1.382 . S
C128 C132 1.404 . S
H129 C127 0.951 1_565 S
C130 C128 1.382 . S
C130 C131 1.390 . S
C130 H135 0.949 . S
C131 C130 1.390 . S
C131 C136 1.399 . S
C132 C128 1.404 . S
C132 H133 0.950 . S
C132 C134 1.375 . S
H133 C132 0.950 . S
C134 C132 1.375 . S
C134 C136 1.382 . S
C134 H138 0.950 . S
H135 C130 0.949 . S
C136 C131 1.399 . S
C136 C134 1.382 . S
C136 H137 0.952 . S
H137 C136 0.952 . S
H138 C134 0.950 . S
H139 C140 0.949 . S
C140 H139 0.949 . S
C140 C141 1.395 . S
C140 C142 1.391 . S
C141 C140 1.395 . S
C141 C144 1.390 . S
C142 C140 1.391 . S
C142 C146 1.387 . S
C142 C147 1.491 . S
H143 C144 0.950 . S
C144 C141 1.390 . S
C144 H143 0.950 . S
C144 C145 1.378 . S
C145 C144 1.378 . S
C145 C146 1.409 . S
C146 C142 1.387 . S
C146 C145 1.409 . S
C146 H148 0.951 . S
C147 C142 1.491 . S
C147 C149 1.382 . S
C147 C151 1.404 . S
H148 C146 0.951 . S
C149 C147 1.382 . S
C149 C150 1.390 . S
C149 H154 0.949 . S
C150 C149 1.390 . S
C150 C155 1.399 . S
C151 C147 1.404 . S
C151 H152 0.950 . S
C151 C153 1.375 . S
H152 C151 0.950 . S
C153 C151 1.375 . S
C153 C155 1.382 . S
C153 H157 0.950 . S
H154 C149 0.949 . S
C155 C150 1.399 . S
C155 C153 1.382 . S
C155 H156 0.952 . S
H156 C155 0.952 . S
H157 C153 0.950 . S
H158 C159 0.949 . S
C159 H158 0.949 . S
C159 C160 1.395 . S
C159 C161 1.391 . S
C160 C159 1.395 . S
C160 C163 1.390 . S
C161 C159 1.391 . S
C161 C165 1.387 . S
C161 C166 1.491 . S
H162 C163 0.950 1_655 S
C163 C160 1.390 . S
C163 H162 0.950 1_455 S
C163 C164 1.380 . S
C164 C163 1.380 . S
C164 C165 1.430 . S
C165 C161 1.387 . S
C165 C164 1.430 . S
C165 H167 0.951 . S
C166 C161 1.491 . S
C166 C168 1.382 . S
C166 C170 1.404 . S
H167 C165 0.951 . S
C168 C166 1.382 . S
C168 C169 1.390 . S
C168 H173 0.949 . S
C169 C168 1.390 . S
C169 C174 1.399 . S
C170 C166 1.404 . S
C170 H171 0.950 . S
C170 C172 1.375 . S
H171 C170 0.950 . S
C172 C170 1.375 . S
C172 C174 1.382 . S
C172 H176 0.950 . S
H173 C168 0.949 . S
C174 C169 1.399 . S
C174 C172 1.382 . S
C174 H175 0.952 . S
H175 C174 0.952 . S
H176 C172 0.950 . S
H177 C178 0.949 1_655 S
C178 H177 0.949 1_455 S
C178 C179 1.395 . S
C178 C180 1.391 . S
C179 C178 1.395 . S
C179 C182 1.390 . S
C180 C178 1.391 . S
C180 C184 1.387 . S
C180 C185 1.491 1_455 S
H181 C182 0.950 . S
C182 C179 1.390 . S
C182 H181 0.950 . S
C182 C183 1.378 . S
C183 C182 1.378 . S
C183 C184 1.409 . S
C184 C180 1.387 . S
C184 C183 1.409 . S
C184 H186 0.951 . S
C185 C180 1.491 1_655 S
C185 C187 1.382 . S
C185 C189 1.404 . S
H186 C184 0.951 . S
C187 C185 1.382 . S
C187 C188 1.390 . S
C187 H192 0.949 . S
C188 C187 1.390 . S
C188 C193 1.399 . S
C189 C185 1.404 . S
C189 H190 0.950 . S
C189 C191 1.375 . S
H190 C189 0.950 . S
C191 C189 1.375 . S
C191 C193 1.382 . S
C191 H195 0.950 . S
H192 C187 0.949 . S
C193 C188 1.399 . S
C193 C191 1.382 . S
C193 H194 0.952 . S
H194 C193 0.952 . S
H195 C191 0.950 . S
H196 C197 0.963 . S
C197 H196 0.963 . S
C197 C198 1.395 . S
C197 C199 1.391 . S
C198 C197 1.395 . S
C198 C201 1.390 . S
C199 C197 1.391 . S
C199 C203 1.387 . S
C199 C204 1.491 . S
H200 C201 0.950 . S
C201 C198 1.390 . S
C201 H200 0.950 . S
C201 C202 1.378 . S
C202 C201 1.378 . S
C202 C203 1.409 . S
C203 C199 1.387 . S
C203 C202 1.409 . S
C203 H205 0.951 . S
C204 C199 1.491 . S
C204 C206 1.382 1_545 S
C204 C208 1.404 1_545 S
H205 C203 0.951 . S
C206 C204 1.382 1_565 S
C206 C207 1.390 . S
C206 H211 0.949 . S
C207 C206 1.390 . S
C207 C212 1.399 . S
C208 C204 1.404 1_565 S
C208 H209 0.957 . S
C208 C210 1.375 . S
H209 C208 0.957 . S
C210 C208 1.375 . S
C210 C212 1.382 . S
C210 H214 0.950 . S
H211 C206 0.949 . S
C212 C207 1.399 . S
C212 C210 1.382 . S
C212 H213 0.952 . S
H213 C212 0.952 . S
H214 C210 0.950 . S
H215 C216 0.949 . S
C216 H215 0.949 . S
C216 C217 1.395 . S
C216 C218 1.391 . S
C217 C216 1.395 . S
C217 C220 1.390 . S
C218 C216 1.391 . S
C218 C222 1.387 . S
C218 C223 1.491 . S
H219 C220 0.950 . S
C220 C217 1.390 . S
C220 H219 0.950 . S
C220 C221 1.378 . S
C221 C220 1.378 . S
C221 C222 1.409 . S
C222 C218 1.387 . S
C222 C221 1.409 . S
C222 H224 0.951 . S
C223 C218 1.491 . S
C223 C225 1.382 . S
C223 C227 1.404 . S
H224 C222 0.951 . S
C225 C223 1.382 . S
C225 C226 1.390 . S
C225 H230 0.949 . S
C226 C225 1.390 . S
C226 C231 1.399 . S
C227 C223 1.404 . S
C227 H228 0.950 . S
C227 C229 1.375 . S
H228 C227 0.950 . S
C229 C227 1.375 . S
C229 C231 1.382 . S
C229 H233 0.950 . S
H230 C225 0.949 . S
C231 C226 1.399 . S
C231 C229 1.382 . S
C231 H232 0.952 . S
H232 C231 0.952 . S
H233 C229 0.950 . S
C234 C235 1.387 . S
C234 H238 0.950 . S
C234 C243 1.390 . S
C235 C234 1.387 . S
C235 C237 1.387 . S
H236 C243 0.950 . S
C237 C235 1.387 . S
C237 C239 1.390 . S
C237 H241 0.950 . S
H238 C234 0.950 . S
C239 C237 1.390 . S
C239 C240 1.387 . S
C239 H242 0.950 . S
C240 C239 1.387 . S
C240 C243 1.387 . S
H241 C237 0.950 . S
H242 C239 0.950 . S
C243 C234 1.390 . S
C243 H236 0.950 . S
C243 C240 1.387 . S
C244 C245 1.387 . S
C244 H248 0.950 . S
C244 C253 1.390 . S
C245 C244 1.387 . S
C245 C247 1.387 . S
H246 C253 0.950 . S
C247 C245 1.387 . S
C247 C249 1.390 . S
C247 H251 0.950 . S
H248 C244 0.950 . S
C249 C247 1.390 . S
C249 C250 1.387 . S
C249 H252 0.950 . S
C250 C249 1.387 . S
C250 C253 1.387 . S
H251 C247 0.950 . S
H252 C249 0.950 . S
C253 C244 1.390 . S
C253 H246 0.950 . S
C253 C250 1.387 . S
C254 C255 1.387 . S
C254 H258 0.950 . S
C254 C263 1.390 . S
C255 C254 1.387 . S
C255 C257 1.387 . S
H256 C263 0.950 . S
C257 C255 1.387 . S
C257 C259 1.390 . S
C257 H261 0.950 . S
H258 C254 0.950 . S
C259 C257 1.390 . S
C259 C260 1.387 . S
C259 H262 0.950 . S
C260 C259 1.387 . S
C260 C263 1.387 . S
H261 C257 0.950 . S
H262 C259 0.950 . S
C263 C254 1.390 . S
C263 H256 0.950 . S
C263 C260 1.387 . S
C264 C265 1.387 . S
C264 H268 0.950 . S
C264 C273 1.390 . S
C265 C264 1.387 . S
C265 C267 1.387 . S
H266 C273 0.950 . S
C267 C265 1.387 . S
C267 C269 1.390 . S
C267 H271 0.950 . S
H268 C264 0.950 . S
C269 C267 1.390 . S
C269 C270 1.387 . S
C269 H272 0.950 . S
C270 C269 1.387 . S
C270 C273 1.387 . S
H271 C267 0.950 . S
H272 C269 0.950 . S
C273 C264 1.390 . S
C273 H266 0.950 . S
C273 C270 1.387 . S
C274 C275 1.387 . S
C274 H278 0.950 . S
C274 C283 1.390 . S
C275 C274 1.387 . S
C275 C277 1.387 . S
H276 C283 0.950 . S
C277 C275 1.387 . S
C277 C279 1.390 . S
C277 H281 0.950 . S
H278 C274 0.950 . S
C279 C277 1.390 . S
C279 C280 1.387 . S
C279 H282 0.950 . S
C280 C279 1.387 . S
C280 C283 1.387 . S
H281 C277 0.950 . S
H282 C279 0.950 . S
C283 C274 1.390 . S
C283 H276 0.950 . S
C283 C280 1.387 . S
C284 C285 1.387 . S
C284 H288 0.950 . S
C284 C293 1.390 . S
C285 C284 1.387 . S
C285 C287 1.387 . S
H286 C293 0.950 . S
C287 C285 1.387 . S
C287 C289 1.390 . S
C287 H291 0.950 . S
H288 C284 0.950 . S
C289 C287 1.390 . S
C289 C290 1.387 . S
C289 H292 0.950 . S
C290 C289 1.387 . S
C290 C293 1.387 . S
H291 C287 0.950 . S
H292 C289 0.950 . S
C293 C284 1.390 . S
C293 H286 0.950 . S
C293 C290 1.387 . S
C294 C295 1.387 . S
C294 H298 0.950 . S
C294 C303 1.390 . S
C295 C294 1.387 . S
C295 C297 1.387 . S
H296 C303 0.950 . S
C297 C295 1.387 . S
C297 C299 1.390 . S
C297 H301 0.950 . S
H298 C294 0.950 . S
C299 C297 1.390 . S
C299 C300 1.387 . S
C299 H302 0.950 . S
C300 C299 1.387 . S
C300 C303 1.387 . S
H301 C297 0.950 . S
H302 C299 0.950 . S
C303 C294 1.390 . S
C303 H296 0.950 . S
C303 C300 1.387 . S
C304 C305 1.387 . S
C304 H308 0.950 . S
C304 C313 1.390 . S
C305 C304 1.387 . S
C305 C307 1.387 . S
H306 C313 0.950 . S
C307 C305 1.387 . S
C307 C309 1.390 . S
C307 H311 0.950 . S
H308 C304 0.950 . S
C309 C307 1.390 . S
C309 C310 1.387 . S
C309 H312 0.950 . S
C310 C309 1.387 . S
C310 C313 1.387 . S
H311 C307 0.950 . S
H312 C309 0.950 . S
C313 C304 1.390 . S
C313 H306 0.950 . S
C313 C310 1.387 . S
C314 C315 1.387 . S
C314 H318 0.950 . S
C314 C323 1.390 . S
C315 C314 1.387 . S
C315 C317 1.387 . S
H316 C323 0.950 . S
C317 C315 1.387 . S
C317 C319 1.390 . S
C317 H321 0.950 . S
H318 C314 0.950 . S
C319 C317 1.390 . S
C319 C320 1.387 . S
C319 H322 0.950 . S
C320 C319 1.387 . S
C320 C323 1.387 . S
H321 C317 0.950 . S
H322 C319 0.950 . S
C323 C314 1.390 . S
C323 H316 0.950 . S
C323 C320 1.387 . S
C324 C325 1.387 . S
C324 H328 0.950 . S
C324 C333 1.390 . S
C325 C324 1.387 . S
C325 C327 1.387 . S
H326 C333 0.950 . S
C327 C325 1.387 . S
C327 C329 1.390 . S
C327 H331 0.950 . S
H328 C324 0.950 . S
C329 C327 1.390 . S
C329 C330 1.387 . S
C329 H332 0.950 . S
C330 C329 1.387 . S
C330 C333 1.387 . S
H331 C327 0.950 . S
H332 C329 0.950 . S
C333 C324 1.390 . S
C333 H326 0.950 . S
C333 C330 1.387 . S
C334 C335 1.387 . S
C334 H338 0.950 . S
C334 C343 1.390 . S
C335 C334 1.387 . S
C335 C337 1.387 . S
H336 C343 0.950 . S
C337 C335 1.387 . S
C337 C339 1.390 . S
C337 H341 0.950 . S
H338 C334 0.950 . S
C339 C337 1.390 . S
C339 C340 1.387 . S
C339 H342 0.950 . S
C340 C339 1.387 . S
C340 C343 1.387 . S
H341 C337 0.950 . S
H342 C339 0.950 . S
C343 C334 1.390 . S
C343 H336 0.950 . S
C343 C340 1.387 . S
C344 C345 1.387 . S
C344 H348 0.950 . S
C344 C353 1.390 . S
C345 C344 1.387 . S
C345 C347 1.387 . S
H346 C353 0.950 . S
C347 C345 1.387 . S
C347 C349 1.390 . S
C347 H351 0.950 . S
H348 C344 0.950 . S
C349 C347 1.390 . S
C349 C350 1.387 . S
C349 H352 0.950 . S
C350 C349 1.387 . S
C350 C353 1.387 . S
H351 C347 0.950 . S
H352 C349 0.950 . S
C353 C344 1.390 . S
C353 H346 0.950 . S
C353 C350 1.387 . S
C354 C355 1.387 . S
C354 H358 0.950 . S
C354 C363 1.390 . S
C355 C354 1.387 . S
C355 C357 1.387 . S
H356 C363 0.950 1_556 S
C357 C355 1.387 . S
C357 C359 1.390 1_554 S
C357 H361 0.950 . S
H358 C354 0.950 . S
C359 C357 1.390 1_556 S
C359 C360 1.387 . S
C359 H362 0.950 . S
C360 C359 1.387 . S
C360 C363 1.387 1_556 S
H361 C357 0.950 . S
H362 C359 0.950 . S
C363 C354 1.390 . S
C363 H356 0.950 1_554 S
C363 C360 1.387 1_554 S
C364 C365 1.387 . S
C364 H368 0.950 . S
C364 C373 1.390 . S
C365 C364 1.387 . S
C365 C367 1.387 1_545 S
H366 C373 0.950 . S
C367 C365 1.387 1_565 S
C367 C369 1.390 . S
C367 H371 0.950 . S
H368 C364 0.950 . S
C369 C367 1.390 . S
C369 C370 1.387 1_565 S
C369 H372 0.950 . S
C370 C369 1.387 1_545 S
C370 C373 1.387 . S
H371 C367 0.950 . S
H372 C369 0.950 . S
C373 C364 1.390 . S
C373 H366 0.950 . S
C373 C370 1.387 . S
C374 C375 1.387 . S
C374 H378 0.950 . S
C374 C383 1.390 . S
C375 C374 1.387 . S
C375 C377 1.387 . S
H376 C383 0.950 . S
C377 C375 1.387 . S
C377 C379 1.390 . S
C377 H381 0.950 . S
H378 C374 0.950 . S
C379 C377 1.390 . S
C379 C380 1.387 . S
C379 H382 0.950 . S
C380 C379 1.387 . S
C380 C383 1.387 . S
H381 C377 0.950 . S
H382 C379 0.950 . S
C383 C374 1.390 . S
C383 H376 0.950 . S
C383 C380 1.387 . S
C384 C385 1.387 . S
C384 H388 0.950 . S
C384 C393 1.390 . S
C385 C384 1.387 . S
C385 C387 1.387 . S
H386 C393 0.950 . S
C387 C385 1.387 . S
C387 C389 1.390 . S
C387 H391 0.950 1_545 S
H388 C384 0.950 . S
C389 C387 1.390 . S
C389 C390 1.387 . S
C389 H392 0.950 1_545 S
C390 C389 1.387 . S
C390 C393 1.387 . S
H391 C387 0.950 1_565 S
H392 C389 0.950 1_565 S
C393 C384 1.390 . S
C393 H386 0.950 . S
C393 C390 1.387 . S
C394 C395 1.387 . S
C394 H398 0.950 . S
C394 C403 1.390 . S
C395 C394 1.387 . S
C395 C397 1.387 . S
H396 C403 0.950 . S
C397 C395 1.387 . S
C397 C399 1.390 1_556 S
C397 H401 0.950 . S
H398 C394 0.950 . S
C399 C397 1.390 1_554 S
C399 C400 1.387 . S
C399 H402 0.950 . S
C400 C399 1.387 . S
C400 C403 1.387 1_554 S
H401 C397 0.950 . S
H402 C399 0.950 . S
C403 C394 1.390 . S
C403 H396 0.950 . S
C403 C400 1.387 1_556 S
C404 C405 1.387 . S
C404 H408 0.950 . S
C404 C413 1.390 . S
C405 C404 1.387 . S
C405 C407 1.387 . S
H406 C413 0.950 . S
C407 C405 1.387 . S
C407 C409 1.391 . S
C407 H411 0.950 1_455 S
H408 C404 0.950 . S
C409 C407 1.391 . S
C409 C410 1.388 . S
C409 H412 0.949 1_455 S
C410 C409 1.388 . S
C410 C413 1.387 . S
H411 C407 0.950 1_655 S
H412 C409 0.949 1_655 S
C413 C404 1.390 . S
C413 H406 0.950 . S
C413 C410 1.387 . S
C235 C7 1.159 . S
C240 C226 1.033 . S
C245 C51 2.001 . S
C250 C188 1.943 . S
C255 C87 1.356 . S
C260 C207 1.312 . S
C265 C16 0.599 . S
C270 C221 0.480 . S
C280 C183 1.895 . S
C275 C42 1.948 . S
C290 C202 1.193 . S
C285 C96 1.201 . S
C295 C47 1.372 . S
C300 C150 1.270 . S
C305 C91 3.112 . S
C310 C164 3.043 1_655 S
C315 C2 1.979 . S
C320 C126 1.954 . S
C330 C145 1.185 . S
C325 C56 1.181 . S
C340 C169 3.057 . S
C335 C82 3.120 . S
C345 C11 2.017 . S
C350 C131 1.966 . S
C360 C160 1.742 . S
C355 C19 1.718 . S
C365 C50 1.444 . S
C370 C122 1.510 . S
C375 C99 1.540 . S
C380 C141 1.555 . S
C390 C198 1.529 . S
C385 C59 1.546 . S
C400 C217 1.313 . S
C395 C90 1.320 . S
C405 C10 1.415 . S
C410 C179 1.454 . S
