# Generated by pormake.
# Topology pts, (4,4)-cn, num edge types: 1
# Building blocks:
#     Node 0, Type 0, BuildingBlock: MUDLON_clean_linker_0, # of connection points: 4
#     Node 1, Type 0, BuildingBlock: MUDLON_clean_linker_0, # of connection points: 4
#     Node 2, Type 1, BuildingBlock: UXUYUI_clean_sbu_0, # of connection points: 4
#     Node 3, Type 1, BuildingBlock: UXUYUI_clean_sbu_0, # of connection points: 4
#     Edge 4, Type (0, 1), BuildingBlock: OJICUG_clean_linker_0, # of connection points: 2
#     Edge 5, Type (0, 1), BuildingBlock: OJICUG_clean_linker_0, # of connection points: 2
#     Edge 6, Type (0, 1), BuildingBlock: OJICUG_clean_linker_0, # of connection points: 2
#     Edge 7, Type (0, 1), BuildingBlock: OJICUG_clean_linker_0, # of connection points: 2
#     Edge 8, Type (0, 1), BuildingBlock: OJICUG_clean_linker_0, # of connection points: 2
#     Edge 9, Type (0, 1), BuildingBlock: OJICUG_clean_linker_0, # of connection points: 2
#     Edge 10, Type (0, 1), BuildingBlock: OJICUG_clean_linker_0, # of connection points: 2
#     Edge 11, Type (0, 1), BuildingBlock: OJICUG_clean_linker_0, # of connection points: 2
# Relax obj value: 0.014
# Max RMSD: 0.056
# Mean RMSD: 0.052
data_MOF--net-pts--node1-UXUYUI_clean_sbu_0--node2-MUDLON_clean_linker_0--edge1-OJICUG_clean_linker_0
_symmetry_space_group_name_H-M    P1
_symmetry_Int_Tables_number       1
_symmetry_cell_setting            triclinic
loop_
_symmetry_equiv_pos_as_xyz
'x, y, z'
_cell_length_a     33.470084
_cell_length_b     33.479517
_cell_length_c     43.07614
_cell_angle_alpha  89.913671
_cell_angle_beta   90.078311
_cell_angle_gamma 89.945118
loop_
_atom_site_label
_atom_site_type_symbol
_atom_site_fract_x
_atom_site_fract_y
_atom_site_fract_z
_atom_type_partial_charge
H0 H 0.66147 0.09948 0.05184 0.0
N1 N 0.64671 0.05187 0.00388 0.0
H2 H 0.70951 0.0883 0.09391 0.0
H3 H 0.68521 0.98133 0.01675 0.0
H4 H 0.73204 0.96946 0.05899 0.0
H5 H 0.65569 0.98822 0.96447 0.0
H6 H 0.70402 0.98346 0.92211 0.0
H7 H 0.68996 0.11059 0.98004 0.0
H8 H 0.73784 0.10643 0.93728 0.0
H9 H 0.58484 0.09688 0.98791 0.0
H10 H 0.61573 0.97713 0.01596 0.0
H11 H 0.51447 0.07769 0.98478 0.0
H12 H 0.54572 0.95818 0.01436 0.0
H13 H 0.31834 0.03676 0.01509 0.0
H14 H 0.27258 0.04344 0.05866 0.0
H15 H 0.29973 0.92259 0.08706 0.0
H16 H 0.34548 0.91602 0.04292 0.0
H17 H 0.31718 0.91257 0.9694 0.0
H18 H 0.27166 0.9205 0.92544 0.0
H19 H 0.30433 0.0451 0.91873 0.0
H20 H 0.34935 0.03687 0.96311 0.0
H21 H 0.38877 0.04229 0.01475 0.0
H22 H 0.45883 0.06144 0.01603 0.0
H23 H 0.49157 0.94512 0.98068 0.0
N24 N 0.35865 0.96889 0.99802 0.0
H25 H 0.42118 0.92562 0.98092 0.0
C26 C 0.6695 0.04142 0.03119 0.0
C27 C 0.67616 0.07074 0.05376 0.0
C28 C 0.70359 0.06423 0.07778 0.0
C29 C 0.72496 0.02809 0.07965 0.0
C30 C 0.71662 0.99789 0.05793 0.0
C31 C 0.68936 0.0045 0.03389 0.0
C32 C 0.66934 0.0499 0.97548 0.0
C33 C 0.67292 0.01437 0.9583 0.0
C34 C 0.70055 0.01171 0.93402 0.0
C35 C 0.72512 0.04444 0.92658 0.0
C36 C 0.71987 0.08048 0.94278 0.0
C37 C 0.6923 0.08308 0.96697 0.0
C38 C 0.60565 0.03883 0.00245 0.0
C39 C 0.57636 0.06654 0.99362 0.0
C40 C 0.53613 0.05553 0.99208 0.0
C41 C 0.52417 0.01639 0.99952 0.0
C42 C 0.55372 0.98846 0.0081 0.0
C43 C 0.59402 0.99944 0.00935 0.0
C44 C 0.33553 0.97574 0.02576 0.0
C45 C 0.31519 0.01192 0.03095 0.0
C46 C 0.28898 0.01575 0.05599 0.0
C47 C 0.28234 0.98347 0.07626 0.0
C48 C 0.30382 0.94784 0.07165 0.0
C49 C 0.33017 0.94412 0.04665 0.0
C50 C 0.33663 0.97392 0.9695 0.0
C51 C 0.31501 0.94136 0.95801 0.0
C52 C 0.28913 0.94599 0.93283 0.0
C53 C 0.28424 0.9835 0.91856 0.0
C54 C 0.30704 0.01593 0.92943 0.0
C55 C 0.33303 0.01121 0.95467 0.0
C56 C 0.39967 0.98212 0.99811 0.0
C57 C 0.41087 0.02075 0.00745 0.0
C58 C 0.45116 0.03185 0.00787 0.0
C59 C 0.48112 0.00482 0.99858 0.0
C60 C 0.46958 0.9665 0.98862 0.0
C61 C 0.42934 0.95535 0.9885 0.0
H62 H 0.90293 0.69949 0.51935 0.0
N63 N 0.95886 0.65136 0.49737 0.0
H64 H 0.90874 0.74722 0.5617 0.0
H65 H 0.02187 0.65656 0.53862 0.0
H66 H 0.02701 0.70197 0.58221 0.0
H67 H 0.0295 0.6864 0.48063 0.0
H68 H 0.0392 0.73315 0.43759 0.0
H69 H 0.90674 0.66991 0.45325 0.0
H70 H 0.91591 0.71794 0.41072 0.0
H71 H 0.91057 0.58876 0.5005 0.0
H72 H 0.03498 0.62051 0.49416 0.0
H73 H 0.92856 0.51802 0.50022 0.0
H74 H 0.05355 0.55062 0.49635 0.0
H75 H 0.97367 0.32158 0.51892 0.0
H76 H 0.96653 0.27546 0.56225 0.0
H77 H 0.08486 0.30692 0.59426 0.0
H78 H 0.09228 0.35203 0.5498 0.0
H79 H 0.09753 0.31881 0.47623 0.0
H80 H 0.09005 0.27341 0.43223 0.0
H81 H 0.9666 0.30953 0.42262 0.0
H82 H 0.97439 0.35447 0.46709 0.0
H83 H 0.97418 0.39604 0.52989 0.0
H84 H 0.95509 0.46592 0.52869 0.0
H85 H 0.05613 0.49163 0.46939 0.0
N86 N 0.0414 0.3627 0.50301 0.0
H87 H 0.0767 0.42193 0.47279 0.0
C88 C 0.96158 0.67409 0.52574 0.0
C89 C 0.92983 0.69953 0.53335 0.0
C90 C 0.93324 0.72674 0.55774 0.0
C91 C 0.96847 0.72879 0.57556 0.0
C92 C 0.99972 0.702 0.56871 0.0
C93 C 0.99656 0.67534 0.54385 0.0
C94 C 0.96744 0.67404 0.46976 0.0
C95 C 0.00501 0.69174 0.46478 0.0
C96 C 0.01046 0.71871 0.44031 0.0
C97 C 0.97826 0.72908 0.42096 0.0
C98 C 0.94115 0.71042 0.42538 0.0
C99 C 0.93594 0.68292 0.44945 0.0
C100 C 0.9712 0.61006 0.49778 0.0
C101 C 0.94181 0.58042 0.4995 0.0
C102 C 0.95227 0.53995 0.49961 0.0
C103 C 0.99266 0.52816 0.49845 0.0
C104 C 0.02211 0.55815 0.49673 0.0
C105 C 0.01151 0.59854 0.49595 0.0
C106 C 0.03383 0.34005 0.53095 0.0
C107 C 0.99796 0.3189 0.53537 0.0
C108 C 0.99379 0.29267 0.56041 0.0
C109 C 0.02526 0.28711 0.58169 0.0
C110 C 0.06031 0.30986 0.57802 0.0
C111 C 0.0645 0.33595 0.55285 0.0
C112 C 0.0367 0.33993 0.47486 0.0
C113 C 0.06909 0.31731 0.46426 0.0
C114 C 0.06473 0.29153 0.43905 0.0
C115 C 0.02768 0.28779 0.42388 0.0
C116 C 0.9954 0.3114 0.43401 0.0
C117 C 0.99985 0.33728 0.45927 0.0
C118 C 0.02756 0.40361 0.50181 0.0
C119 C 0.99257 0.41657 0.51685 0.0
C120 C 0.98132 0.45684 0.51583 0.0
C121 C 1.00411 0.48496 0.49911 0.0
C122 C 0.03831 0.47143 0.48326 0.0
C123 C 0.04998 0.43142 0.48488 0.0
Li124 Li 0.00896 0.04639 0.27072 0.0
Li125 Li 1.00398 0.97329 0.2712 0.0
Li126 Li 0.04253 0.0085 0.23122 0.0
Li127 Li 0.96931 0.01089 0.23168 0.0
C128 C 0.09187 0.99866 0.27782 0.0
N129 N 0.17246 0.98072 0.27713 0.0
C130 C 0.10492 0.96007 0.28501 0.0
C131 C 0.11982 0.02819 0.27044 0.0
C132 C 0.1458 0.9516 0.28452 0.0
C133 C 0.16042 0.0185 0.27014 0.0
C134 C 0.93942 0.99855 0.30117 0.0
C135 C 0.89586 0.94868 0.32323 0.0
N136 N 0.89931 0.96658 0.35142 0.0
C137 C 0.94246 0.01652 0.33035 0.0
C138 C 0.91581 0.96445 0.29752 0.0
C139 C 0.92195 0.99989 0.35547 0.0
C140 C 0.97783 0.11572 0.29982 0.0
N141 N 0.01111 0.09287 0.29623 0.0
C142 C 0.04833 0.13586 0.32969 0.0
C143 C 0.04593 0.10218 0.31074 0.0
C144 C 0.01445 0.16007 0.33394 0.0
C145 C 0.97883 0.14965 0.31868 0.0
H146 H 0.95045 0.10744 0.28813 0.0
H147 H 0.07176 0.08322 0.30786 0.0
C148 C 0.99922 0.89021 0.28463 0.0
N149 N 1.00237 0.92727 0.29729 0.0
C150 C 0.9966 0.85656 0.30379 0.0
C151 C 1.0008 0.89992 0.34852 0.0
C152 C 1.00424 0.93256 0.32854 0.0
C153 C 0.99669 0.86142 0.33613 0.0
H154 H 0.99849 0.8868 0.25969 0.0
H155 H 0.00781 0.96227 0.33794 0.0
C156 C 1.00401 0.09566 0.2241 0.0
N157 N 0.99568 0.17775 0.22529 0.0
C158 C 0.96651 0.11309 0.21945 0.0
C159 C 0.0373 0.11997 0.22925 0.0
C160 C 0.96292 0.15466 0.22013 0.0
C161 C 0.03245 0.16141 0.22983 0.0
C162 C 0.98716 0.94553 0.20143 0.0
C163 C 1.00226 0.9519 0.1716 0.0
C164 C 0.95302 0.92207 0.20544 0.0
C165 C 0.98272 0.93486 0.14618 0.0
C166 C 0.93431 0.90563 0.17942 0.0
N167 N 0.94941 0.91233 0.15059 0.0
C168 C 0.10793 0.96916 0.20347 0.0
C169 C 0.1 0.0366 0.18782 0.0
C170 C 0.14121 0.96491 0.18424 0.0
N171 N 0.08825 0.00464 0.20499 0.0
C172 C 0.13305 0.03365 0.16818 0.0
C173 C 0.15412 0.99738 0.16611 0.0
H174 H 0.09763 0.94412 0.21717 0.0
H175 H 0.0834 0.06423 0.18904 0.0
C176 C 0.88615 0.00589 0.2171 0.0
N177 N 0.92323 0.01338 0.20564 0.0
C178 C 0.85282 0.00718 0.19754 0.0
C179 C 0.89643 0.02448 0.15493 0.0
C180 C 0.92885 0.02294 0.1753 0.0
C181 C 0.85775 0.01638 0.16593 0.0
H182 H 0.88242 0.99885 0.24138 0.0
H183 H 0.95863 0.02932 0.16694 0.0
O184 O 0.05193 0.00738 0.27763 0.0
O185 O 0.95971 0.01408 0.27639 0.0
O186 O 0.00799 0.055 0.22423 0.0
O187 O 0.00523 0.96278 0.22653 0.0
H188 H 0.08375 0.93681 0.29068 0.0
H189 H 0.11022 0.05809 0.26444 0.0
H190 H 0.15632 0.92182 0.28993 0.0
H191 H 0.18234 0.04096 0.26422 0.0
H192 H 0.87776 0.92211 0.32078 0.0
H193 H 0.96077 0.04276 0.33368 0.0
H194 H 0.91347 0.9499 0.2752 0.0
H195 H 0.92416 0.01338 0.37821 0.0
H196 H 0.07619 0.14233 0.34145 0.0
H197 H 0.95209 0.16758 0.32118 0.0
H198 H 0.99353 0.82722 0.2935 0.0
H199 H 1.00145 0.90465 0.37339 0.0
H200 H 0.94037 0.09474 0.2157 0.0
H201 H 0.06645 0.10695 0.23329 0.0
H202 H 0.93406 0.16856 0.21668 0.0
H203 H 0.05789 0.18057 0.23403 0.0
H204 H 0.02849 0.97019 0.16805 0.0
H205 H 0.94085 0.917 0.22836 0.0
H206 H 0.99395 0.93971 0.12294 0.0
H207 H 0.90771 0.88764 0.18216 0.0
H208 H 0.15669 0.93651 0.18365 0.0
H209 H 0.14138 0.05923 0.15422 0.0
H210 H 0.8236 1.00052 0.20698 0.0
H211 H 0.90158 0.03244 0.13089 0.0
Li212 Li 0.96382 0.00685 0.77223 0.0
Li213 Li 0.03758 1.00083 0.76981 0.0
Li214 Li 1.0036 0.04079 0.73055 0.0
Li215 Li 0.99721 0.96777 0.73301 0.0
C216 C 0.98851 0.0855 0.78408 0.0
N217 N 0.95382 0.15739 0.80031 0.0
C218 C 0.00585 0.10924 0.80707 0.0
C219 C 0.95355 0.09832 0.76929 0.0
C220 C 0.98785 0.1455 0.81496 0.0
C221 C 0.93647 0.13475 0.77785 0.0
C222 C 0.98637 0.92019 0.78379 0.0
C223 C 1.00175 0.84973 0.78449 0.0
N224 N 0.9639 0.84182 0.79413 0.0
C225 C 0.94764 0.91131 0.79381 0.0
C226 C 0.01371 0.88913 0.77922 0.0
C227 C 0.93687 0.87153 0.79889 0.0
C228 C 0.88294 0.02394 0.78751 0.0
N229 N 0.9194 0.01393 0.79912 0.0
C230 C 0.89389 0.0145 0.85087 0.0
C231 C 0.92547 0.00939 0.83011 0.0
C232 C 0.85573 0.02449 0.83959 0.0
C233 C 0.85045 0.02919 0.80743 0.0
H234 H 0.87917 0.0282 0.76279 0.0
H235 H 0.95489 1.0016 0.83863 0.0
C236 C 0.1069 0.03292 0.79821 0.0
N237 N 0.08488 0.99912 0.79457 0.0
C238 C 0.14158 0.03237 0.81635 0.0
C239 C 0.13027 0.96226 0.82648 0.0
C240 C 0.09578 0.96423 0.80832 0.0
C241 C 0.15366 0.99665 0.83079 0.0
H242 H 0.09747 0.06028 0.78697 0.0
H243 H 0.07754 0.93797 0.80539 0.0
C244 C 0.93185 0.98964 0.70486 0.0
N245 N 0.88991 0.94857 0.65979 0.0
C246 C 0.94364 0.9919 0.67379 0.0
C247 C 0.89877 0.96645 0.71303 0.0
C248 C 0.92205 0.9709 0.65135 0.0
C249 C 0.87792 0.94597 0.68988 0.0
C250 C 0.08517 0.99108 0.72329 0.0
C251 C 0.11326 0.02152 0.71934 0.0
C252 C 0.09816 0.95178 0.7276 0.0
C253 C 0.15394 0.01218 0.72022 0.0
C254 C 0.13909 0.94364 0.72834 0.0
N255 N 0.16591 0.97377 0.72471 0.0
C256 C 0.03826 0.11277 0.7096 0.0
C257 C 0.97645 0.09693 0.68575 0.0
C258 C 0.04176 0.14721 0.69145 0.0
N259 N 0.00642 0.08805 0.70595 0.0
C260 C 0.97858 0.13119 0.66729 0.0
C261 C 0.01183 0.15659 0.66972 0.0
H262 H 0.06092 0.10574 0.72666 0.0
H263 H 0.95089 0.07739 0.68393 0.0
C264 C 0.96479 0.8923 0.71225 0.0
N265 N 0.99227 0.92133 0.70664 0.0
C266 C 0.96133 0.85957 0.6924 0.0
C267 C 0.01297 0.88805 0.66022 0.0
C268 C 0.01596 0.91985 0.68105 0.0
C269 C 0.9855 0.85707 0.6658 0.0
H270 H 0.94496 0.89469 0.73183 0.0
H271 H 0.03668 0.94387 0.67643 0.0
O272 O 0.00586 0.04994 0.77618 0.0
O273 O 0.99762 0.95906 0.7791 0.0
O274 O 0.95328 0.0091 0.72726 0.0
O275 O 0.04519 0.99975 0.72355 0.0
H276 H 0.03294 0.09971 0.8187 0.0
H277 H 0.93972 0.08041 0.75141 0.0
H278 H 1.00094 0.16418 0.83273 0.0
H279 H 0.90941 0.14502 0.76662 0.0
H280 H 0.02255 0.82544 0.78086 0.0
H281 H 0.92592 0.93471 0.79732 0.0
H282 H 0.04372 0.8952 0.77139 0.0
H283 H 0.90695 0.86426 0.80651 0.0
H284 H 0.89921 0.01023 0.87546 0.0
H285 H 0.8217 0.0375 0.79781 0.0
H286 H 0.15886 0.0595 0.81891 0.0
H287 H 0.13803 0.93428 0.83762 0.0
H288 H 0.96964 0.00908 0.66715 0.0
H289 H 0.88973 0.96367 0.73703 0.0
H290 H 0.93099 0.97217 0.62724 0.0
H291 H 0.85239 0.92775 0.69588 0.0
H292 H 0.10383 0.05205 0.71583 0.0
H293 H 0.07686 0.92785 0.73054 0.0
H294 H 0.176 0.03549 0.71739 0.0
H295 H 0.14953 0.91338 0.73186 0.0
H296 H 0.06751 0.16639 0.6945 0.0
H297 H 0.95488 0.13722 0.65079 0.0
H298 H 0.93985 0.83652 0.698 0.0
H299 H 0.03148 0.88834 0.63965 0.0
C300 C 0.2467 0.0212 0.11846 0.0
C301 C 0.25126 0.98621 0.1008 0.0
H302 H 0.2131 0.05189 0.15334 0.0
C303 C 0.22454 0.95444 0.10563 0.0
H304 H 0.26709 0.04602 0.11556 0.0
C305 C 0.19349 0.95786 0.12711 0.0
C306 C 0.18843 0.99311 0.1444 0.0
H307 H 0.22678 0.92735 0.09203 0.0
H308 H 0.17271 0.93327 0.12945 0.0
C309 C 0.2157 0.02458 0.14005 0.0
C310 C 0.05573 0.23174 0.61334 0.0
C311 C 0.02246 0.25582 0.60623 0.0
H312 H 0.07836 0.18155 0.63871 0.0
C313 C 0.98608 0.24814 0.62145 0.0
H314 H 0.08403 0.23622 0.6017 0.0
C315 C 0.98278 0.21646 0.64249 0.0
C316 C 0.01583 0.19187 0.64898 0.0
H317 H 0.96002 0.26646 0.61695 0.0
H318 H 0.95428 0.21112 0.65364 0.0
C319 C 0.05248 0.20025 0.63451 0.0
C320 C 0.75442 0.03777 0.133 0.0
C321 C 0.75792 0.02308 0.10256 0.0
H322 H 0.78315 0.04741 0.17683 0.0
C323 C 0.79408 0.00508 0.09355 0.0
H324 H 0.7269 0.05154 0.14077 0.0
C325 C 0.82611 1.0024 0.11424 0.0
C326 C 0.82291 0.01773 0.14449 0.0
H327 H 0.79808 0.99393 0.07017 0.0
H328 H 0.8535 0.98838 0.10647 0.0
C329 C 0.78653 0.03506 0.15376 0.0
C330 C 0.94019 0.77354 0.61723 0.0
C331 C 0.97325 0.76006 0.6 0.0
H332 H 0.91761 0.81511 0.65036 0.0
C333 C 0.01063 0.778 0.6054 0.0
H334 H 0.91102 0.76015 0.61423 0.0
C335 C 0.01474 0.80873 0.6271 0.0
C336 C 0.98146 0.82299 0.64367 0.0
H337 H 0.03677 0.76906 0.59237 0.0
H338 H 0.04414 0.82131 0.63077 0.0
C339 C 0.94415 0.80479 0.63849 0.0
C340 C 0.22851 0.02275 0.89386 0.0
C341 C 0.25357 0.98898 0.89386 0.0
H342 H 0.17721 0.05151 0.87415 0.0
C343 C 0.24717 0.95919 0.87142 0.0
H344 H 0.23223 0.04601 0.91106 0.0
C345 C 0.21551 0.96227 0.85036 0.0
C346 C 0.18953 0.99527 0.85116 0.0
H347 H 0.26634 0.93314 0.87039 0.0
H348 H 0.21109 0.93855 0.83364 0.0
C349 C 0.19689 0.02588 0.87272 0.0
C350 C 0.05295 0.25108 0.37697 0.0
C351 C 0.02249 0.25769 0.39883 0.0
H352 H 0.07403 0.21556 0.33908 0.0
C353 C 0.98816 0.23354 0.39779 0.0
H354 H 0.07947 0.26959 0.37676 0.0
C355 C 0.98501 0.2026 0.37614 0.0
C356 C 0.01617 0.19507 0.35508 0.0
H357 H 0.96437 0.23745 0.41453 0.0
H358 H 0.95885 0.1836 0.37673 0.0
C359 C 0.04985 0.22012 0.35539 0.0
C360 C 0.75216 0.01963 0.87556 0.0
C361 C 0.75795 0.0403 0.90359 0.0
H362 H 0.7785 0.99838 0.83335 0.0
C363 C 0.79594 0.05613 0.91013 0.0
H364 H 0.7232 0.00726 0.8698 0.0
C365 C 0.82747 0.05118 0.88929 0.0
C366 C 0.82181 0.03034 0.86135 0.0
H367 H 0.80159 0.07173 0.9317 0.0
H368 H 0.8563 0.06385 0.89504 0.0
C369 C 0.78372 0.01485 0.8546 0.0
C370 C 0.01309 0.76173 0.37601 0.0
C371 C 0.98233 0.76192 0.39816 0.0
H372 H 0.04129 0.7931 0.33841 0.0
C373 C 0.95604 0.79461 0.39937 0.0
H374 H 0.03371 0.73682 0.37471 0.0
C375 C 0.96083 0.82689 0.37917 0.0
C376 C 0.99151 0.82674 0.357 0.0
H377 H 0.93234 0.79559 0.41645 0.0
H378 H 0.94047 0.85198 0.38079 0.0
C379 C 0.01734 0.79371 0.35529 0.0
loop_
_geom_bond_atom_site_label_1
_geom_bond_atom_site_label_2
_geom_bond_distance
_geom_bond_site_symmetry_2
_ccdc_geom_bond_type
H0 C27 0.929 . S
N1 C26 1.433 1_556 S
N1 C32 1.435 . S
N1 C38 1.423 . S
H2 C28 0.930 . S
H3 C31 0.931 . S
H4 C30 0.929 . S
H5 C33 0.930 . S
H6 C34 0.932 . S
H7 C37 0.929 . S
H8 C36 0.931 . S
H9 C39 0.929 . S
H10 C43 0.932 1_565 S
H11 C40 0.931 . S
H12 C42 0.929 1_565 S
H13 C45 0.929 . S
H14 C46 0.930 . S
H15 C48 0.929 . S
H16 C49 0.931 . S
H17 C51 0.930 . S
H18 C52 0.932 . S
H19 C54 0.931 . S
H20 C55 0.929 . S
H21 C57 0.929 . S
H22 C58 0.931 . S
H23 C60 0.929 1_565 S
N24 C44 1.433 1_556 S
N24 C50 1.435 . S
N24 C56 1.423 . S
H25 C61 0.932 1_565 S
C26 N1 1.433 1_554 S
C26 C27 1.363 . S
C26 C31 1.370 1_545 S
C27 H0 0.929 . S
C27 C26 1.363 . S
C27 C28 1.385 . S
C28 H2 0.930 . S
C28 C27 1.385 . S
C28 C29 1.357 . S
C29 C28 1.357 . S
C29 C30 1.406 1_545 S
C30 H4 0.929 . S
C30 C29 1.406 1_565 S
C30 C31 1.391 . S
C31 H3 0.931 . S
C31 C26 1.370 1_565 S
C31 C30 1.391 . S
C32 N1 1.435 . S
C32 C33 1.358 1_545 S
C32 C37 1.371 . S
C33 H5 0.930 . S
C33 C32 1.358 1_565 S
C33 C34 1.405 . S
C34 H6 0.932 . S
C34 C33 1.405 . S
C34 C35 1.383 1_565 S
C35 C34 1.383 1_545 S
C35 C36 1.393 . S
C36 H8 0.931 . S
C36 C35 1.393 . S
C36 C37 1.382 . S
C37 H7 0.929 . S
C37 C32 1.371 . S
C37 C36 1.382 . S
C38 N1 1.423 . S
C38 C39 1.362 1_556 S
C38 C43 1.388 . S
C39 H9 0.929 . S
C39 C38 1.362 1_554 S
C39 C40 1.376 . S
C40 H11 0.931 . S
C40 C39 1.376 . S
C40 C41 1.396 1_554 S
C41 C40 1.396 1_556 S
C41 C42 1.348 . S
C41 C59 1.472 . S
C42 H12 0.929 1_545 S
C42 C41 1.348 . S
C42 C43 1.443 . S
C43 H10 0.932 1_545 S
C43 C38 1.388 . S
C43 C42 1.443 . S
C44 N24 1.433 1_554 S
C44 C45 1.363 . S
C44 C49 1.370 1_545 S
C45 H13 0.929 . S
C45 C44 1.363 . S
C45 C46 1.385 . S
C46 H14 0.930 . S
C46 C45 1.385 . S
C46 C47 1.357 . S
C47 C46 1.357 . S
C47 C48 1.406 1_545 S
C48 H15 0.929 . S
C48 C47 1.406 1_565 S
C48 C49 1.391 . S
C49 H16 0.931 . S
C49 C44 1.370 1_565 S
C49 C48 1.391 . S
C50 N24 1.435 . S
C50 C51 1.358 1_545 S
C50 C55 1.371 . S
C51 H17 0.930 . S
C51 C50 1.358 1_565 S
C51 C52 1.405 . S
C52 H18 0.932 . S
C52 C51 1.405 . S
C52 C53 1.383 1_565 S
C53 C52 1.383 1_545 S
C53 C54 1.393 . S
C54 H19 0.931 . S
C54 C53 1.393 . S
C54 C55 1.382 . S
C55 H20 0.929 . S
C55 C50 1.371 . S
C55 C54 1.382 . S
C56 N24 1.423 . S
C56 C57 1.362 1_556 S
C56 C61 1.388 . S
C57 H21 0.929 . S
C57 C56 1.362 1_554 S
C57 C58 1.376 . S
C58 H22 0.931 . S
C58 C57 1.376 . S
C58 C59 1.396 1_554 S
C59 C41 1.472 . S
C59 C58 1.396 1_556 S
C59 C60 1.348 . S
C60 H23 0.929 1_545 S
C60 C59 1.348 . S
C60 C61 1.443 . S
C61 H25 0.932 1_545 S
C61 C56 1.388 . S
C61 C60 1.443 . S
H62 C89 0.929 . S
N63 C88 1.433 . S
N63 C94 1.435 . S
N63 C100 1.423 . S
H64 C90 0.930 . S
H65 C93 0.931 . S
H66 C92 0.929 . S
H67 C95 0.930 . S
H68 C96 0.932 . S
H69 C99 0.929 . S
H70 C98 0.931 . S
H71 C101 0.929 . S
H72 C105 0.932 1_455 S
H73 C102 0.931 . S
H74 C104 0.929 1_455 S
H75 C107 0.929 . S
H76 C108 0.930 . S
H77 C110 0.929 . S
H78 C111 0.931 . S
H79 C113 0.930 . S
H80 C114 0.932 . S
H81 C116 0.931 . S
H82 C117 0.929 . S
H83 C119 0.929 . S
H84 C120 0.931 . S
H85 C122 0.929 1_455 S
N86 C106 1.433 . S
N86 C112 1.435 . S
N86 C118 1.423 . S
H87 C123 0.932 1_455 S
C88 N63 1.433 . S
C88 C89 1.363 . S
C88 C93 1.370 1_655 S
C89 H62 0.929 . S
C89 C88 1.363 . S
C89 C90 1.385 . S
C90 H64 0.930 . S
C90 C89 1.385 . S
C90 C91 1.357 . S
C91 C90 1.357 . S
C91 C92 1.406 1_655 S
C92 H66 0.929 . S
C92 C91 1.406 1_455 S
C92 C93 1.391 . S
C93 H65 0.931 . S
C93 C88 1.370 1_455 S
C93 C92 1.391 . S
C94 N63 1.435 . S
C94 C95 1.358 1_655 S
C94 C99 1.371 . S
C95 H67 0.930 . S
C95 C94 1.358 1_455 S
C95 C96 1.405 . S
C96 H68 0.932 . S
C96 C95 1.405 . S
C96 C97 1.383 1_455 S
C97 C96 1.383 1_655 S
C97 C98 1.393 . S
C98 H70 0.931 . S
C98 C97 1.393 . S
C98 C99 1.382 . S
C99 H69 0.929 . S
C99 C94 1.371 . S
C99 C98 1.382 . S
C100 N63 1.423 . S
C100 C101 1.362 . S
C100 C105 1.388 . S
C101 H71 0.929 . S
C101 C100 1.362 . S
C101 C102 1.376 . S
C102 H73 0.931 . S
C102 C101 1.376 . S
C102 C103 1.396 . S
C103 C102 1.396 . S
C103 C104 1.348 . S
C103 C121 1.472 . S
C104 H74 0.929 1_655 S
C104 C103 1.348 . S
C104 C105 1.443 . S
C105 H72 0.932 1_655 S
C105 C100 1.388 . S
C105 C104 1.443 . S
C106 N86 1.433 . S
C106 C107 1.363 . S
C106 C111 1.370 1_655 S
C107 H75 0.929 . S
C107 C106 1.363 . S
C107 C108 1.385 . S
C108 H76 0.930 . S
C108 C107 1.385 . S
C108 C109 1.357 . S
C109 C108 1.357 . S
C109 C110 1.406 1_655 S
C110 H77 0.929 . S
C110 C109 1.406 1_455 S
C110 C111 1.391 . S
C111 H78 0.931 . S
C111 C106 1.370 1_455 S
C111 C110 1.391 . S
C112 N86 1.435 . S
C112 C113 1.358 1_655 S
C112 C117 1.371 . S
C113 H79 0.930 . S
C113 C112 1.358 1_455 S
C113 C114 1.405 . S
C114 H80 0.932 . S
C114 C113 1.405 . S
C114 C115 1.383 1_455 S
C115 C114 1.383 1_655 S
C115 C116 1.393 . S
C116 H81 0.931 . S
C116 C115 1.393 . S
C116 C117 1.382 . S
C117 H82 0.929 . S
C117 C112 1.371 . S
C117 C116 1.382 . S
C118 N86 1.423 . S
C118 C119 1.362 . S
C118 C123 1.388 . S
C119 H83 0.929 . S
C119 C118 1.362 . S
C119 C120 1.376 . S
C120 H84 0.931 . S
C120 C119 1.376 . S
C120 C121 1.396 . S
C121 C103 1.472 . S
C121 C120 1.396 . S
C121 C122 1.348 . S
C122 H85 0.929 1_655 S
C122 C121 1.348 . S
C122 C123 1.443 . S
C123 H87 0.932 1_655 S
C123 C118 1.388 . S
C123 C122 1.443 . S
Li124 N141 1.990 . S
Li124 O184 1.956 1_545 S
Li124 O185 1.970 1_455 S
Li124 O186 1.961 1_455 S
Li125 N149 1.990 . S
Li125 O184 1.970 1_655 S
Li125 O185 1.956 1_565 S
Li125 O187 1.961 1_655 S
Li126 N171 1.990 . S
Li126 O184 1.961 1_545 S
Li126 O186 1.956 1_455 S
Li126 O187 1.970 1_545 S
Li127 N177 1.990 . S
Li127 O185 1.961 1_565 S
Li127 O186 1.970 1_565 S
Li127 O187 1.956 1_655 S
C128 C130 1.348 1_545 S
C128 C131 1.356 . S
C128 O184 1.325 1_545 S
N129 C132 1.314 1_545 S
N129 C133 1.279 . S
C130 C128 1.348 1_565 S
C130 C132 1.353 . S
C130 H188 0.929 . S
C131 C128 1.356 . S
C131 C133 1.358 . S
C131 H189 0.930 . S
C132 N129 1.314 1_565 S
C132 C130 1.353 . S
C132 H190 0.930 . S
C133 N129 1.279 . S
C133 C131 1.358 . S
C133 H191 0.930 . S
C134 C137 1.348 . S
C134 C138 1.356 1_545 S
C134 O185 1.325 . S
C135 N136 1.279 . S
C135 C138 1.358 . S
C135 H192 0.930 . S
N136 C135 1.279 . S
N136 C139 1.314 1_565 S
C137 C134 1.348 . S
C137 C139 1.353 . S
C137 H193 0.929 . S
C138 C134 1.356 1_565 S
C138 C135 1.358 . S
C138 H194 0.930 . S
C139 N136 1.314 1_545 S
C139 C137 1.353 . S
C139 H195 0.930 . S
C140 N141 1.314 1_655 S
C140 C145 1.353 . S
C140 H146 0.930 . S
N141 Li124 1.990 . S
N141 C140 1.314 1_455 S
N141 C143 1.279 . S
C142 C143 1.358 . S
C142 C144 1.356 . S
C142 H196 0.930 . S
C143 N141 1.279 . S
C143 C142 1.358 . S
C143 H147 0.930 . S
C144 C142 1.356 . S
C144 C145 1.348 1_455 S
C145 C140 1.353 . S
C145 C144 1.348 1_655 S
C145 H197 0.929 . S
H146 C140 0.930 . S
H147 C143 0.930 . S
C148 N149 1.314 1_455 S
C148 C150 1.353 . S
C148 H154 0.930 . S
N149 Li125 1.990 . S
N149 C148 1.314 1_655 S
N149 C152 1.279 . S
C150 C148 1.353 . S
C150 C153 1.348 . S
C150 H198 0.929 . S
C151 C152 1.358 . S
C151 C153 1.356 1_655 S
C151 H199 0.930 . S
C152 N149 1.279 . S
C152 C151 1.358 . S
C152 H155 0.930 . S
C153 C150 1.348 . S
C153 C151 1.356 1_455 S
H154 C148 0.930 . S
H155 C152 0.930 . S
C156 C158 1.348 1_455 S
C156 C159 1.356 . S
C156 O186 1.325 1_455 S
N157 C160 1.314 1_455 S
N157 C161 1.279 . S
C158 C156 1.348 1_655 S
C158 C160 1.353 . S
C158 H200 0.929 . S
C159 C156 1.356 . S
C159 C161 1.358 . S
C159 H201 0.930 . S
C160 N157 1.314 1_655 S
C160 C158 1.353 . S
C160 H202 0.930 . S
C161 N157 1.279 . S
C161 C159 1.358 . S
C161 H203 0.930 . S
C162 C163 1.348 . S
C162 C164 1.356 1_455 S
C162 O187 1.325 . S
C163 C162 1.348 . S
C163 C165 1.353 . S
C163 H204 0.929 . S
C164 C162 1.356 1_655 S
C164 C166 1.358 . S
C164 H205 0.930 . S
C165 C163 1.353 . S
C165 N167 1.314 1_455 S
C165 H206 0.930 . S
C166 C164 1.358 . S
C166 N167 1.279 . S
C166 H207 0.930 . S
N167 C165 1.314 1_655 S
N167 C166 1.279 . S
C168 C170 1.353 . S
C168 N171 1.314 1_565 S
C168 H174 0.930 . S
C169 N171 1.279 . S
C169 C172 1.358 . S
C169 H175 0.930 . S
C170 C168 1.353 . S
C170 C173 1.348 1_565 S
C170 H208 0.929 . S
N171 Li126 1.990 . S
N171 C168 1.314 1_545 S
N171 C169 1.279 . S
C172 C169 1.358 . S
C172 C173 1.356 . S
C172 H209 0.930 . S
C173 C170 1.348 1_545 S
C173 C172 1.356 . S
H174 C168 0.930 . S
H175 C169 0.930 . S
C176 N177 1.314 1_545 S
C176 C178 1.353 . S
C176 H182 0.930 . S
N177 Li127 1.990 . S
N177 C176 1.314 1_565 S
N177 C180 1.279 . S
C178 C176 1.353 . S
C178 C181 1.348 . S
C178 H210 0.929 . S
C179 C180 1.358 . S
C179 C181 1.356 1_565 S
C179 H211 0.930 . S
C180 N177 1.279 . S
C180 C179 1.358 . S
C180 H183 0.930 . S
C181 C178 1.348 . S
C181 C179 1.356 1_545 S
H182 C176 0.930 . S
H183 C180 0.930 . S
O184 Li124 1.956 1_565 S
O184 Li125 1.970 1_455 S
O184 Li126 1.961 1_565 S
O184 C128 1.325 1_565 S
O185 Li124 1.970 1_655 S
O185 Li125 1.956 1_545 S
O185 Li127 1.961 1_545 S
O185 C134 1.325 . S
O186 Li124 1.961 1_655 S
O186 Li126 1.956 1_655 S
O186 Li127 1.970 1_545 S
O186 C156 1.325 1_655 S
O187 Li125 1.961 1_455 S
O187 Li126 1.970 1_565 S
O187 Li127 1.956 1_455 S
O187 C162 1.325 . S
H188 C130 0.929 . S
H189 C131 0.930 . S
H190 C132 0.930 . S
H191 C133 0.930 . S
H192 C135 0.930 . S
H193 C137 0.929 . S
H194 C138 0.930 . S
H195 C139 0.930 . S
H196 C142 0.930 . S
H197 C145 0.929 . S
H198 C150 0.929 . S
H199 C151 0.930 . S
H200 C158 0.929 . S
H201 C159 0.930 . S
H202 C160 0.930 . S
H203 C161 0.930 . S
H204 C163 0.929 . S
H205 C164 0.930 . S
H206 C165 0.930 . S
H207 C166 0.930 . S
H208 C170 0.929 . S
H209 C172 0.930 . S
H210 C178 0.929 . S
H211 C179 0.930 . S
Li212 N229 1.990 . S
Li212 O272 1.956 1_655 S
Li212 O273 1.970 1_545 S
Li212 O274 1.961 1_545 S
Li213 N237 1.990 . S
Li213 O272 1.970 1_565 S
Li213 O273 1.956 1_455 S
Li213 O275 1.961 1_565 S
Li214 N259 1.990 . S
Li214 O272 1.961 1_655 S
Li214 O274 1.956 1_545 S
Li214 O275 1.970 1_655 S
Li215 N265 1.990 . S
Li215 O273 1.961 1_455 S
Li215 O274 1.970 1_455 S
Li215 O275 1.956 1_565 S
C216 C218 1.348 . S
C216 C219 1.356 1_455 S
C216 O272 1.325 . S
N217 C220 1.314 1_655 S
N217 C221 1.279 . S
C218 C216 1.348 . S
C218 C220 1.353 . S
C218 H276 0.929 . S
C219 C216 1.356 1_655 S
C219 C221 1.358 . S
C219 H277 0.930 . S
C220 N217 1.314 1_455 S
C220 C218 1.353 . S
C220 H278 0.930 . S
C221 N217 1.279 . S
C221 C219 1.358 . S
C221 H279 0.930 . S
C222 C225 1.348 1_455 S
C222 C226 1.356 . S
C222 O273 1.325 1_455 S
C223 N224 1.279 . S
C223 C226 1.358 . S
C223 H280 0.930 . S
N224 C223 1.279 . S
N224 C227 1.314 1_455 S
C225 C222 1.348 1_655 S
C225 C227 1.353 . S
C225 H281 0.929 . S
C226 C222 1.356 . S
C226 C223 1.358 . S
C226 H282 0.930 . S
C227 N224 1.314 1_655 S
C227 C225 1.353 . S
C227 H283 0.930 . S
C228 N229 1.314 1_565 S
C228 C233 1.353 . S
C228 H234 0.930 . S
N229 Li212 1.990 . S
N229 C228 1.314 1_545 S
N229 C231 1.279 . S
C230 C231 1.358 . S
C230 C232 1.356 . S
C230 H284 0.930 . S
C231 N229 1.279 . S
C231 C230 1.358 . S
C231 H235 0.930 . S
C232 C230 1.356 . S
C232 C233 1.348 1_545 S
C233 C228 1.353 . S
C233 C232 1.348 1_565 S
C233 H285 0.929 . S
H234 C228 0.930 . S
H235 C231 0.930 . S
C236 N237 1.314 1_545 S
C236 C238 1.353 . S
C236 H242 0.930 . S
N237 Li213 1.990 . S
N237 C236 1.314 1_565 S
N237 C240 1.279 . S
C238 C236 1.353 . S
C238 C241 1.348 . S
C238 H286 0.929 . S
C239 C240 1.358 . S
C239 C241 1.356 1_565 S
C239 H287 0.930 . S
C240 N237 1.279 . S
C240 C239 1.358 . S
C240 H243 0.930 . S
C241 C238 1.348 . S
C241 C239 1.356 1_545 S
H242 C236 0.930 . S
H243 C240 0.930 . S
C244 C246 1.348 1_545 S
C244 C247 1.356 . S
C244 O274 1.325 1_545 S
N245 C248 1.314 1_545 S
N245 C249 1.279 . S
C246 C244 1.348 1_565 S
C246 C248 1.353 . S
C246 H288 0.929 . S
C247 C244 1.356 . S
C247 C249 1.358 . S
C247 H289 0.930 . S
C248 N245 1.314 1_565 S
C248 C246 1.353 . S
C248 H290 0.930 . S
C249 N245 1.279 . S
C249 C247 1.358 . S
C249 H291 0.930 . S
C250 C251 1.348 . S
C250 C252 1.356 1_545 S
C250 O275 1.325 . S
C251 C250 1.348 . S
C251 C253 1.353 . S
C251 H292 0.929 . S
C252 C250 1.356 1_565 S
C252 C254 1.358 . S
C252 H293 0.930 . S
C253 C251 1.353 . S
C253 N255 1.314 1_545 S
C253 H294 0.930 . S
C254 C252 1.358 . S
C254 N255 1.279 . S
C254 H295 0.930 . S
N255 C253 1.314 1_565 S
N255 C254 1.279 . S
C256 C258 1.353 . S
C256 N259 1.314 1_455 S
C256 H262 0.930 . S
C257 N259 1.279 . S
C257 C260 1.358 . S
C257 H263 0.930 . S
C258 C256 1.353 . S
C258 C261 1.348 . S
C258 H296 0.929 . S
N259 Li214 1.990 . S
N259 C256 1.314 1_655 S
N259 C257 1.279 . S
C260 C257 1.358 . S
C260 C261 1.356 1_655 S
C260 H297 0.930 . S
C261 C258 1.348 . S
C261 C260 1.356 1_455 S
H262 C256 0.930 . S
H263 C257 0.930 . S
C264 N265 1.314 1_655 S
C264 C266 1.353 . S
C264 H270 0.930 . S
N265 Li215 1.990 . S
N265 C264 1.314 1_455 S
N265 C268 1.279 . S
C266 C264 1.353 . S
C266 C269 1.348 1_655 S
C266 H298 0.929 . S
C267 C268 1.358 . S
C267 C269 1.356 . S
C267 H299 0.930 . S
C268 N265 1.279 . S
C268 C267 1.358 . S
C268 H271 0.930 . S
C269 C266 1.348 1_455 S
C269 C267 1.356 . S
H270 C264 0.930 . S
H271 C268 0.930 . S
O272 Li212 1.956 1_455 S
O272 Li213 1.970 1_545 S
O272 Li214 1.961 1_455 S
O272 C216 1.325 . S
O273 Li212 1.970 1_565 S
O273 Li213 1.956 1_655 S
O273 Li215 1.961 1_655 S
O273 C222 1.325 1_655 S
O274 Li212 1.961 1_565 S
O274 Li214 1.956 1_565 S
O274 Li215 1.970 1_655 S
O274 C244 1.325 1_565 S
O275 Li213 1.961 1_545 S
O275 Li214 1.970 1_455 S
O275 Li215 1.956 1_545 S
O275 C250 1.325 . S
H276 C218 0.929 . S
H277 C219 0.930 . S
H278 C220 0.930 . S
H279 C221 0.930 . S
H280 C223 0.930 . S
H281 C225 0.929 . S
H282 C226 0.930 . S
H283 C227 0.930 . S
H284 C230 0.930 . S
H285 C233 0.929 . S
H286 C238 0.929 . S
H287 C239 0.930 . S
H288 C246 0.929 . S
H289 C247 0.930 . S
H290 C248 0.930 . S
H291 C249 0.930 . S
H292 C251 0.929 . S
H293 C252 0.930 . S
H294 C253 0.930 . S
H295 C254 0.930 . S
H296 C258 0.929 . S
H297 C260 0.930 . S
H298 C266 0.929 . S
H299 C267 0.930 . S
C300 C301 1.388 1_545 S
C300 H304 0.950 . S
C300 C309 1.390 . S
C301 C300 1.388 1_565 S
C301 C303 1.387 . S
H302 C309 0.950 . S
C303 C301 1.387 . S
C303 C305 1.390 . S
C303 H307 0.950 . S
H304 C300 0.950 . S
C305 C303 1.390 . S
C305 C306 1.403 . S
C305 H308 0.950 . S
C306 C305 1.403 . S
C306 C309 1.372 1_565 S
H307 C303 0.950 . S
H308 C305 0.950 . S
C309 C300 1.390 . S
C309 H302 0.950 . S
C309 C306 1.372 1_545 S
C310 C311 1.394 . S
C310 H314 0.950 . S
C310 C319 1.390 . S
C311 C310 1.394 . S
C311 C313 1.382 1_455 S
H312 C319 0.950 . S
C313 C311 1.382 1_655 S
C313 C315 1.390 . S
C313 H317 0.950 . S
H314 C310 0.950 . S
C315 C313 1.390 . S
C315 C316 1.367 1_655 S
C315 H318 0.950 . S
C316 C315 1.367 1_455 S
C316 C319 1.408 . S
H317 C313 0.950 . S
H318 C315 0.950 . S
C319 C310 1.390 . S
C319 H312 0.950 . S
C319 C316 1.408 . S
C320 C321 1.393 . S
C320 H324 0.950 . S
C320 C329 1.390 . S
C321 C320 1.393 . S
C321 C323 1.382 1_545 S
H322 C329 0.950 . S
C323 C321 1.382 1_565 S
C323 C325 1.390 . S
C323 H327 0.950 . S
H324 C320 0.950 . S
C325 C323 1.390 . S
C325 C326 1.366 1_565 S
C325 H328 0.950 . S
C326 C325 1.366 1_545 S
C326 C329 1.409 . S
H327 C323 0.950 . S
H328 C325 0.950 . S
C329 C320 1.390 . S
C329 H322 0.950 . S
C329 C326 1.409 . S
C330 C331 1.388 . S
C330 H334 0.950 . S
C330 C339 1.390 . S
C331 C330 1.388 . S
C331 C333 1.387 1_655 S
H332 C339 0.950 . S
C333 C331 1.387 1_455 S
C333 C335 1.390 . S
C333 H337 0.950 . S
H334 C330 0.950 . S
C335 C333 1.390 . S
C335 C336 1.373 1_455 S
C335 H338 0.950 . S
C336 C335 1.373 1_655 S
C336 C339 1.402 . S
H337 C333 0.950 . S
H338 C335 0.950 . S
C339 C330 1.390 . S
C339 H332 0.950 . S
C339 C336 1.402 . S
C340 C341 1.392 . S
C340 H344 0.950 . S
C340 C349 1.390 . S
C341 C340 1.392 . S
C341 C343 1.383 1_545 S
H342 C349 0.950 . S
C343 C341 1.383 1_565 S
C343 C345 1.390 . S
C343 H347 0.950 . S
H344 C340 0.950 . S
C345 C343 1.390 . S
C345 C346 1.365 1_565 S
C345 H348 0.950 . S
C346 C345 1.365 1_545 S
C346 C349 1.410 . S
H347 C343 0.950 . S
H348 C345 0.950 . S
C349 C340 1.390 . S
C349 H342 0.950 . S
C349 C346 1.410 . S
C350 C351 1.389 1_455 S
C350 H354 0.950 . S
C350 C359 1.390 . S
C351 C350 1.389 1_655 S
C351 C353 1.386 . S
H352 C359 0.950 . S
C353 C351 1.386 . S
C353 C355 1.390 . S
C353 H357 0.950 . S
H354 C350 0.950 . S
C355 C353 1.390 . S
C355 C356 1.404 . S
C355 H358 0.950 . S
C356 C355 1.404 . S
C356 C359 1.371 1_655 S
H357 C353 0.950 . S
H358 C355 0.950 . S
C359 C350 1.390 . S
C359 H352 0.950 . S
C359 C356 1.371 1_455 S
C360 C361 1.386 . S
C360 H364 0.950 . S
C360 C369 1.390 . S
C361 C360 1.386 . S
C361 C363 1.389 1_565 S
H362 C369 0.950 . S
C363 C361 1.389 1_545 S
C363 C365 1.390 . S
C363 H367 0.950 . S
H364 C360 0.950 . S
C365 C363 1.390 . S
C365 C366 1.371 1_545 S
C365 H368 0.950 . S
C366 C365 1.371 1_565 S
C366 C369 1.404 . S
H367 C363 0.950 . S
H368 C365 0.950 . S
C369 C360 1.390 . S
C369 H362 0.950 . S
C369 C366 1.404 . S
C370 C371 1.392 . S
C370 H374 0.950 . S
C370 C379 1.390 . S
C371 C370 1.392 . S
C371 C373 1.383 1_455 S
H372 C379 0.950 . S
C373 C371 1.383 1_655 S
C373 C375 1.390 . S
C373 H377 0.950 . S
H374 C370 0.950 . S
C375 C373 1.390 . S
C375 C376 1.365 1_655 S
C375 H378 0.950 . S
C376 C375 1.365 1_455 S
C376 C379 1.410 . S
H377 C373 0.950 . S
H378 C375 0.950 . S
C379 C370 1.390 . S
C379 H372 0.950 . S
C379 C376 1.410 . S
C306 C173 1.749 1_565 S
C301 C47 1.606 1_565 S
C316 C261 1.748 . S
C311 C109 1.601 1_455 S
C326 C181 1.748 . S
C321 C29 1.606 . S
C336 C269 1.748 1_655 S
C331 C91 1.605 . S
C346 C241 1.393 . S
C341 C53 1.383 . S
C356 C144 1.392 1_655 S
C351 C115 1.384 . S
C366 C232 1.393 1_565 S
C361 C35 1.388 1_565 S
C371 C97 1.385 1_455 S
C376 C153 1.396 . S
