# Generated by pormake.
# Topology ctn, (3,4)-cn, num edge types: 1
# Building blocks:
#     Node 0, Type 0, BuildingBlock: VETTIZ_charged_linker_0, # of connection points: 3
#     Node 1, Type 0, BuildingBlock: VETTIZ_charged_linker_0, # of connection points: 3
#     Node 2, Type 0, BuildingBlock: VETTIZ_charged_linker_0, # of connection points: 3
#     Node 3, Type 0, BuildingBlock: VETTIZ_charged_linker_0, # of connection points: 3
#     Node 4, Type 0, BuildingBlock: VETTIZ_charged_linker_0, # of connection points: 3
#     Node 5, Type 0, BuildingBlock: VETTIZ_charged_linker_0, # of connection points: 3
#     Node 6, Type 0, BuildingBlock: VETTIZ_charged_linker_0, # of connection points: 3
#     Node 7, Type 0, BuildingBlock: VETTIZ_charged_linker_0, # of connection points: 3
#     Node 8, Type 0, BuildingBlock: VETTIZ_charged_linker_0, # of connection points: 3
#     Node 9, Type 0, BuildingBlock: VETTIZ_charged_linker_0, # of connection points: 3
#     Node 10, Type 0, BuildingBlock: VETTIZ_charged_linker_0, # of connection points: 3
#     Node 11, Type 0, BuildingBlock: VETTIZ_charged_linker_0, # of connection points: 3
#     Node 12, Type 0, BuildingBlock: VETTIZ_charged_linker_0, # of connection points: 3
#     Node 13, Type 0, BuildingBlock: VETTIZ_charged_linker_0, # of connection points: 3
#     Node 14, Type 0, BuildingBlock: VETTIZ_charged_linker_0, # of connection points: 3
#     Node 15, Type 0, BuildingBlock: VETTIZ_charged_linker_0, # of connection points: 3
#     Node 16, Type 1, BuildingBlock: NAHDIM_clean_sbu_0, # of connection points: 4
#     Node 17, Type 1, BuildingBlock: NAHDIM_clean_sbu_0, # of connection points: 4
#     Node 18, Type 1, BuildingBlock: NAHDIM_clean_sbu_0, # of connection points: 4
#     Node 19, Type 1, BuildingBlock: NAHDIM_clean_sbu_0, # of connection points: 4
#     Node 20, Type 1, BuildingBlock: NAHDIM_clean_sbu_0, # of connection points: 4
#     Node 21, Type 1, BuildingBlock: NAHDIM_clean_sbu_0, # of connection points: 4
#     Node 22, Type 1, BuildingBlock: NAHDIM_clean_sbu_0, # of connection points: 4
#     Node 23, Type 1, BuildingBlock: NAHDIM_clean_sbu_0, # of connection points: 4
#     Node 24, Type 1, BuildingBlock: NAHDIM_clean_sbu_0, # of connection points: 4
#     Node 25, Type 1, BuildingBlock: NAHDIM_clean_sbu_0, # of connection points: 4
#     Node 26, Type 1, BuildingBlock: NAHDIM_clean_sbu_0, # of connection points: 4
#     Node 27, Type 1, BuildingBlock: NAHDIM_clean_sbu_0, # of connection points: 4
#     Edge 28, Type (0, 1), BuildingBlock: AJUNOK_clean_linker_0, # of connection points: 2
#     Edge 29, Type (0, 1), BuildingBlock: AJUNOK_clean_linker_0, # of connection points: 2
#     Edge 30, Type (0, 1), BuildingBlock: AJUNOK_clean_linker_0, # of connection points: 2
#     Edge 31, Type (0, 1), BuildingBlock: AJUNOK_clean_linker_0, # of connection points: 2
#     Edge 32, Type (0, 1), BuildingBlock: AJUNOK_clean_linker_0, # of connection points: 2
#     Edge 33, Type (0, 1), BuildingBlock: AJUNOK_clean_linker_0, # of connection points: 2
#     Edge 34, Type (0, 1), BuildingBlock: AJUNOK_clean_linker_0, # of connection points: 2
#     Edge 35, Type (0, 1), BuildingBlock: AJUNOK_clean_linker_0, # of connection points: 2
#     Edge 36, Type (0, 1), BuildingBlock: AJUNOK_clean_linker_0, # of connection points: 2
#     Edge 37, Type (0, 1), BuildingBlock: AJUNOK_clean_linker_0, # of connection points: 2
#     Edge 38, Type (0, 1), BuildingBlock: AJUNOK_clean_linker_0, # of connection points: 2
#     Edge 39, Type (0, 1), BuildingBlock: AJUNOK_clean_linker_0, # of connection points: 2
#     Edge 40, Type (0, 1), BuildingBlock: AJUNOK_clean_linker_0, # of connection points: 2
#     Edge 41, Type (0, 1), BuildingBlock: AJUNOK_clean_linker_0, # of connection points: 2
#     Edge 42, Type (0, 1), BuildingBlock: AJUNOK_clean_linker_0, # of connection points: 2
#     Edge 43, Type (0, 1), BuildingBlock: AJUNOK_clean_linker_0, # of connection points: 2
#     Edge 44, Type (0, 1), BuildingBlock: AJUNOK_clean_linker_0, # of connection points: 2
#     Edge 45, Type (0, 1), BuildingBlock: AJUNOK_clean_linker_0, # of connection points: 2
#     Edge 46, Type (0, 1), BuildingBlock: AJUNOK_clean_linker_0, # of connection points: 2
#     Edge 47, Type (0, 1), BuildingBlock: AJUNOK_clean_linker_0, # of connection points: 2
#     Edge 48, Type (0, 1), BuildingBlock: AJUNOK_clean_linker_0, # of connection points: 2
#     Edge 49, Type (0, 1), BuildingBlock: AJUNOK_clean_linker_0, # of connection points: 2
#     Edge 50, Type (0, 1), BuildingBlock: AJUNOK_clean_linker_0, # of connection points: 2
#     Edge 51, Type (0, 1), BuildingBlock: AJUNOK_clean_linker_0, # of connection points: 2
#     Edge 52, Type (0, 1), BuildingBlock: AJUNOK_clean_linker_0, # of connection points: 2
#     Edge 53, Type (0, 1), BuildingBlock: AJUNOK_clean_linker_0, # of connection points: 2
#     Edge 54, Type (0, 1), BuildingBlock: AJUNOK_clean_linker_0, # of connection points: 2
#     Edge 55, Type (0, 1), BuildingBlock: AJUNOK_clean_linker_0, # of connection points: 2
#     Edge 56, Type (0, 1), BuildingBlock: AJUNOK_clean_linker_0, # of connection points: 2
#     Edge 57, Type (0, 1), BuildingBlock: AJUNOK_clean_linker_0, # of connection points: 2
#     Edge 58, Type (0, 1), BuildingBlock: AJUNOK_clean_linker_0, # of connection points: 2
#     Edge 59, Type (0, 1), BuildingBlock: AJUNOK_clean_linker_0, # of connection points: 2
#     Edge 60, Type (0, 1), BuildingBlock: AJUNOK_clean_linker_0, # of connection points: 2
#     Edge 61, Type (0, 1), BuildingBlock: AJUNOK_clean_linker_0, # of connection points: 2
#     Edge 62, Type (0, 1), BuildingBlock: AJUNOK_clean_linker_0, # of connection points: 2
#     Edge 63, Type (0, 1), BuildingBlock: AJUNOK_clean_linker_0, # of connection points: 2
#     Edge 64, Type (0, 1), BuildingBlock: AJUNOK_clean_linker_0, # of connection points: 2
#     Edge 65, Type (0, 1), BuildingBlock: AJUNOK_clean_linker_0, # of connection points: 2
#     Edge 66, Type (0, 1), BuildingBlock: AJUNOK_clean_linker_0, # of connection points: 2
#     Edge 67, Type (0, 1), BuildingBlock: AJUNOK_clean_linker_0, # of connection points: 2
#     Edge 68, Type (0, 1), BuildingBlock: AJUNOK_clean_linker_0, # of connection points: 2
#     Edge 69, Type (0, 1), BuildingBlock: AJUNOK_clean_linker_0, # of connection points: 2
#     Edge 70, Type (0, 1), BuildingBlock: AJUNOK_clean_linker_0, # of connection points: 2
#     Edge 71, Type (0, 1), BuildingBlock: AJUNOK_clean_linker_0, # of connection points: 2
#     Edge 72, Type (0, 1), BuildingBlock: AJUNOK_clean_linker_0, # of connection points: 2
#     Edge 73, Type (0, 1), BuildingBlock: AJUNOK_clean_linker_0, # of connection points: 2
#     Edge 74, Type (0, 1), BuildingBlock: AJUNOK_clean_linker_0, # of connection points: 2
#     Edge 75, Type (0, 1), BuildingBlock: AJUNOK_clean_linker_0, # of connection points: 2
# Relax obj value: 0.002
# Max RMSD: 0.033
# Mean RMSD: 0.017
data_MOF--net-ctn--node1-NAHDIM_clean_sbu_0--node2-VETTIZ_charged_linker_0--edge1-AJUNOK_clean_linker_0
_symmetry_space_group_name_H-M    P1
_symmetry_Int_Tables_number       1
_symmetry_cell_setting            triclinic
loop_
_symmetry_equiv_pos_as_xyz
'x, y, z'
_cell_length_a     52.333323
_cell_length_b     52.570681
_cell_length_c     52.075737
_cell_angle_alpha  91.193631
_cell_angle_beta   89.981516
_cell_angle_gamma 92.258792
loop_
_atom_site_label
_atom_site_type_symbol
_atom_site_fract_x
_atom_site_fract_y
_atom_site_fract_z
_atom_type_partial_charge
C0 C 0.0378 0.10894 0.97633 0.0
C1 C 0.01776 0.12587 0.97913 0.0
C2 C 1.00087 0.12311 1.00007 0.0
C3 C 0.02415 0.08735 0.01511 0.0
C4 C 0.04065 0.08993 0.99452 0.0
C5 C 0.06101 0.07046 0.99459 0.0
H6 H 0.1161 0.97279 0.05378 0.0
C7 C 0.03236 0.06581 0.03052 0.0
C8 C 0.05397 0.05579 0.0186 0.0
H9 H 0.13909 0.00829 0.98282 0.0
H10 H 0.10375 0.03635 0.98614 0.0
H11 H 0.10176 0.02403 0.08442 0.0
H12 H 0.05691 0.96857 0.04015 0.0
H13 H 0.03755 0.9781 0.06582 0.0
H14 H 0.067 0.96263 0.07231 0.0
H15 H 0.09499 0.99213 0.09485 0.0
H16 H 0.07338 0.01727 0.1015 0.0
C17 C 0.08733 0.08481 0.99723 0.0
C18 C 0.05793 0.05362 0.96994 0.0
C19 C 0.98359 0.04199 0.11164 0.0
C20 C 0.9865 0.02282 0.12973 0.0
C21 C 0.00651 0.00584 0.12646 0.0
C22 C 0.02333 0.00792 0.10561 0.0
C23 C 0.0202 0.02719 0.08771 0.0
C24 C 1.00048 0.04371 0.09079 0.0
C25 C 0.9999 0.06279 0.06968 0.0
C26 C 0.02255 0.05501 0.05347 0.0
C27 C 0.03444 0.03426 0.06422 0.0
C28 C 0.00426 0.08974 0.08192 0.0
C29 C 0.97424 0.05865 0.05505 0.0
C30 C 0.11332 0.98632 0.03873 0.0
C31 C 0.13038 0.98818 0.01792 0.0
C32 C 0.12634 0.00656 0.99913 0.0
C33 C 0.10575 0.0228 1.00105 0.0
C34 C 0.08892 0.02074 0.02202 0.0
C35 C 0.09276 0.00256 0.04029 0.0
C36 C 0.07273 0.00275 0.06099 0.0
C37 C 0.05643 0.02424 0.05235 0.0
C38 C 0.06607 0.03484 0.02959 0.0
C39 C 0.08624 0.0092 0.08692 0.0
C40 C 0.05777 0.97668 0.06006 0.0
H41 H 0.99052 0.10304 0.03357 0.0
H42 H 0.05082 0.11027 0.9602 0.0
H43 H 0.03741 0.05063 0.9647 0.0
H44 H 0.06495 0.03427 0.97228 0.0
H45 H 0.06788 0.06263 0.9534 0.0
H46 H 0.08613 0.10142 0.01072 0.0
H47 H 0.09401 0.09208 0.97841 0.0
H48 H 0.10222 0.07307 0.00537 0.0
H49 H 0.96875 0.05565 0.11383 0.0
H50 H 0.00907 0.99082 0.14005 0.0
H51 H 0.03816 0.99444 0.10428 0.0
H52 H 0.01805 0.08941 0.09815 0.0
H53 H 0.98611 0.09713 0.08957 0.0
H54 H 0.01283 0.10363 0.0685 0.0
H55 H 0.96815 0.03813 0.05425 0.0
H56 H 0.9755 0.06425 0.03475 0.0
H57 H 0.95875 0.06914 0.06464 0.0
H58 H 0.98538 0.13599 0.0027 0.0
C59 C 0.00396 0.10401 0.01803 0.0
C60 C 0.23947 0.63113 0.23628 0.0
C61 C 0.21924 0.62389 0.21958 0.0
C62 C 0.21411 0.63941 0.19859 0.0
C63 C 0.24894 0.66884 0.21122 0.0
C64 C 0.25398 0.65358 0.23177 0.0
C65 C 0.27625 0.66388 0.24757 0.0
H66 H 0.37232 0.75255 0.2657 0.0
C67 C 0.26771 0.69066 0.21186 0.0
C68 C 0.28374 0.68786 0.23315 0.0
H69 H 0.35308 0.68746 0.3122 0.0
H70 H 0.31713 0.6762 0.28456 0.0
H71 H 0.3158 0.77006 0.25988 0.0
H72 H 0.36151 0.72422 0.20975 0.0
H73 H 0.34618 0.74658 0.19103 0.0
H74 H 0.36815 0.75757 0.21583 0.0
H75 H 0.34011 0.78398 0.23968 0.0
H76 H 0.30779 0.77781 0.22836 0.0
C77 C 0.26648 0.67001 0.27503 0.0
C78 C 0.29746 0.64413 0.24635 0.0
C79 C 0.26615 0.75724 0.14243 0.0
C80 C 0.28125 0.7794 0.13784 0.0
C81 C 0.30084 0.78675 0.15533 0.0
C82 C 0.30578 0.77189 0.1767 0.0
C83 C 0.29089 0.74947 0.18074 0.0
C84 C 0.27126 0.74265 0.16391 0.0
C85 C 0.25715 0.71846 0.17147 0.0
C86 C 0.27162 0.71179 0.19553 0.0
C87 C 0.29147 0.72993 0.20076 0.0
C88 C 0.22906 0.72475 0.17741 0.0
C89 C 0.26032 0.6984 0.14958 0.0
C90 C 0.36046 0.73573 0.26968 0.0
C91 C 0.36562 0.72062 0.29087 0.0
C92 C 0.34943 0.69928 0.29591 0.0
C93 C 0.32863 0.69278 0.2798 0.0
C94 C 0.32384 0.70787 0.25848 0.0
C95 C 0.33948 0.72909 0.25386 0.0
C96 C 0.33096 0.74334 0.23082 0.0
C97 C 0.30789 0.72695 0.22213 0.0
C98 C 0.30392 0.70611 0.23831 0.0
C99 C 0.3234 0.77029 0.23992 0.0
C100 C 0.35278 0.74317 0.21073 0.0
H101 H 0.22386 0.67282 0.17807 0.0
H102 H 0.2442 0.61937 0.25229 0.0
H103 H 0.29851 0.63523 0.22682 0.0
H104 H 0.31678 0.65261 0.24995 0.0
H105 H 0.29363 0.62865 0.26019 0.0
H106 H 0.24646 0.67637 0.27458 0.0
H107 H 0.26679 0.653 0.28732 0.0
H108 H 0.27747 0.68592 0.28455 0.0
H109 H 0.25066 0.75138 0.12954 0.0
H110 H 0.31269 0.80375 0.15213 0.0
H111 H 0.32117 0.77832 0.18911 0.0
H112 H 0.22799 0.74395 0.18667 0.0
H113 H 0.21742 0.72467 0.15957 0.0
H114 H 0.21984 0.71163 0.19121 0.0
H115 H 0.27974 0.70024 0.14094 0.0
H116 H 0.25866 0.67862 0.15628 0.0
H117 H 0.24618 0.70084 0.13401 0.0
H118 H 0.19858 0.63423 0.18551 0.0
C119 C 0.22877 0.66184 0.19436 0.0
C120 C 0.99192 0.39653 0.98409 0.0
C121 C 0.97859 0.39211 0.96085 0.0
C122 C 0.95866 0.40814 0.95455 0.0
C123 C 0.96615 0.43298 0.99375 0.0
C124 C 0.98545 0.41705 1.00014 0.0
C125 C 0.99782 0.42468 0.02541 0.0
H126 H 0.00509 0.50576 0.12843 0.0
C127 C 0.96443 0.45269 0.01427 0.0
C128 C 0.98299 0.44798 0.03289 0.0
H129 H 0.04889 0.43891 0.11421 0.0
H130 H 0.02715 0.43139 0.07363 0.0
H131 H 0.95128 0.47972 0.11038 0.0
H132 H 0.00771 0.52672 0.07171 0.0
H133 H 0.97769 0.53635 0.06147 0.0
H134 H 0.9862 0.53954 0.09502 0.0
H135 H 0.95641 0.51304 0.11769 0.0
H136 H 0.93482 0.50188 0.09257 0.0
C137 C 0.99306 0.40264 0.04434 0.0
C138 C 0.02641 0.43155 0.0204 0.0
C139 C 0.89792 0.52032 0.00821 0.0
C140 C 0.89194 0.5412 0.02412 0.0
C141 C 0.90683 0.54658 0.04627 0.0
C142 C 0.92686 0.53104 0.05286 0.0
C143 C 0.93221 0.50988 0.03711 0.0
C144 C 0.91805 0.505 0.01504 0.0
C145 C 0.92688 0.48204 1.00031 0.0
C146 C 0.94841 0.47373 0.01739 0.0
C147 C 0.95135 0.49004 0.03895 0.0
C148 C 0.90441 0.46195 0.99906 0.0
C149 C 0.93677 0.49091 0.97376 0.0
C150 C 0.00979 0.48932 0.11673 0.0
C151 C 0.02849 0.47271 0.12469 0.0
C152 C 0.03455 0.45198 0.10849 0.0
C153 C 0.0218 0.44758 0.085 0.0
C154 C 0.00277 0.46409 0.07757 0.0
C155 C 0.99712 0.48457 0.09335 0.0
C156 C 0.97615 0.49995 0.08263 0.0
C157 C 0.97002 0.48528 0.05785 0.0
C158 C 0.98572 0.46434 0.0549 0.0
C159 C 0.95343 0.49887 0.10175 0.0
C160 C 0.98727 0.52715 0.07754 0.0
H161 H 0.93709 0.44001 0.96485 0.0
H162 H 0.00727 0.38448 0.98947 0.0
H163 H 0.02879 0.44201 0.00214 0.0
H164 H 0.03504 0.4444 0.03531 0.0
H165 H 0.03772 0.41415 0.01881 0.0
H166 H 0.97398 0.39304 0.04097 0.0
H167 H 0.00769 0.38802 0.04201 0.0
H168 H 0.99265 0.4092 0.06461 0.0
H169 H 0.88689 0.51575 0.991 0.0
H170 H 0.90306 0.56295 0.05846 0.0
H171 H 0.93735 0.5361 0.07003 0.0
H172 H 0.89339 0.46196 0.01734 0.0
H173 H 0.89096 0.46598 0.9833 0.0
H174 H 0.91077 0.44227 0.99665 0.0
H175 H 0.94576 0.51043 0.97517 0.0
H176 H 0.95196 0.47899 0.96591 0.0
H177 H 0.92092 0.49133 0.95961 0.0
H178 H 0.94772 0.40475 0.93708 0.0
C179 C 0.95242 0.42853 0.9708 0.0
C180 C 0.64075 0.79923 0.27048 0.0
C181 C 0.62235 0.77922 0.26707 0.0
C182 C 0.62487 0.76193 0.24628 0.0
C183 C 0.66356 0.78463 0.23263 0.0
C184 C 0.66109 0.8016 0.25303 0.0
C185 C 0.68188 0.82223 0.25331 0.0
H186 H 0.78617 0.87707 0.19643 0.0
C187 C 0.68639 0.79275 0.21772 0.0
C188 C 0.69719 0.81484 0.2297 0.0
H189 H 0.74806 0.90209 0.26554 0.0
H190 H 0.71815 0.86589 0.26222 0.0
H191 H 0.73583 0.86247 0.1646 0.0
H192 H 0.78512 0.818 0.21026 0.0
H193 H 0.77636 0.79904 0.18331 0.0
H194 H 0.79403 0.82882 0.17894 0.0
H195 H 0.76703 0.85388 0.15403 0.0
H196 H 0.73913 0.83336 0.14804 0.0
C197 C 0.66922 0.84815 0.25022 0.0
C198 C 0.69754 0.82007 0.27834 0.0
C199 C 0.71176 0.74203 0.138 0.0
C200 C 0.73163 0.74541 0.12006 0.0
C201 C 0.74903 0.76638 0.12305 0.0
C202 C 0.74684 0.78367 0.14367 0.0
C203 C 0.72692 0.78008 0.16149 0.0
C204 C 0.70978 0.75956 0.1585 0.0
C205 C 0.6896 0.75911 0.17911 0.0
C206 C 0.69766 0.78258 0.1951 0.0
C207 C 0.71951 0.79474 0.18465 0.0
C208 C 0.66323 0.76193 0.16612 0.0
C209 C 0.69199 0.73432 0.19433 0.0
C210 C 0.77133 0.87472 0.2108 0.0
C211 C 0.76946 0.89232 0.2313 0.0
C212 C 0.75004 0.88856 0.24976 0.0
C213 C 0.73261 0.86763 0.24768 0.0
C214 C 0.73458 0.85029 0.2269 0.0
C215 C 0.75386 0.85392 0.20904 0.0
C216 C 0.7533 0.83352 0.1884 0.0
C217 C 0.73034 0.81716 0.1966 0.0
C218 C 0.71935 0.82708 0.2191 0.0
C219 C 0.74877 0.84628 0.16229 0.0
C220 C 0.77851 0.81909 0.19002 0.0
H221 H 0.64621 0.75067 0.2137 0.0
H222 H 0.63905 0.81305 0.28604 0.0
H223 H 0.69942 0.79978 0.28346 0.0
H224 H 0.71739 0.82776 0.27658 0.0
H225 H 0.68814 0.82983 0.29472 0.0
H226 H 0.6527 0.84624 0.23677 0.0
H227 H 0.66201 0.85544 0.26893 0.0
H228 H 0.68215 0.8628 0.24178 0.0
H229 H 0.69784 0.72632 0.13591 0.0
H230 H 0.76451 0.76928 0.10947 0.0
H231 H 0.76074 0.79919 0.14487 0.0
H232 H 0.665 0.77389 0.14878 0.0
H233 H 0.65469 0.74311 0.15996 0.0
H234 H 0.64951 0.77181 0.17857 0.0
H235 H 0.71244 0.73001 0.19713 0.0
H236 H 0.68394 0.73561 0.21388 0.0
H237 H 0.68262 0.71782 0.18392 0.0
H238 H 0.61091 0.74636 0.24337 0.0
C239 C 0.64539 0.76446 0.22912 0.0
C240 C 0.0348 0.90616 0.52561 0.0
C241 C 0.0131 0.8895 0.52447 0.0
C242 C 0.99527 0.89193 0.50449 0.0
C243 C 0.01964 0.92833 0.48843 0.0
C244 C 0.03764 0.92545 0.50747 0.0
C245 C 0.05918 0.94526 0.50611 0.0
H246 H 0.10844 0.05322 0.45308 0.0
C247 C 0.02745 0.95089 0.47348 0.0
C248 C 0.05061 0.96096 0.48371 0.0
H249 H 0.14258 0.00762 0.51109 0.0
H250 H 0.10623 0.97796 0.50919 0.0
H251 H 0.05043 0.04845 0.47308 0.0
H252 H 0.09206 0.00534 0.41693 0.0
H253 H 0.06139 0.00934 0.40436 0.0
H254 H 0.08202 0.03696 0.41114 0.0
H255 H 0.05932 0.06093 0.44239 0.0
H256 H 0.03 0.04232 0.44672 0.0
C257 C 0.05978 0.96085 0.53165 0.0
C258 C 0.08424 0.93156 0.50003 0.0
C259 C 0.97038 0.97905 0.4014 0.0
C260 C 0.97137 1.00018 0.38527 0.0
C261 C 0.99196 0.01818 0.38781 0.0
C262 C 0.01115 0.01524 0.40618 0.0
C263 C 0.00981 0.99405 0.42224 0.0
C264 C 0.98956 0.97651 0.41978 0.0
C265 C 0.99081 0.95558 0.43891 0.0
C266 C 0.01542 0.96319 0.45298 0.0
C267 C 0.02652 0.98565 0.44308 0.0
C268 C 0.96704 0.957 0.45663 0.0
C269 C 0.99297 0.92998 0.42391 0.0
C270 C 0.10813 0.03684 0.46536 0.0
C271 C 0.12821 0.03315 0.48267 0.0
C272 C 0.12703 0.01143 0.49818 0.0
C273 C 0.10602 0.99404 0.49686 0.0
C274 C 0.08601 0.99818 0.47963 0.0
C275 C 0.08747 0.01912 0.46402 0.0
C276 C 0.06514 0.01978 0.44591 0.0
C277 C 0.04997 0.99587 0.45332 0.0
C278 C 0.06211 0.98342 0.4733 0.0
C279 C 0.05042 0.04417 0.45206 0.0
C280 C 0.07549 0.01795 0.41806 0.0
H281 H 0.98401 0.91215 0.47196 0.0
H282 H 0.04893 0.90457 0.54063 0.0
H283 H 0.08038 0.91367 0.48865 0.0
H284 H 0.09753 0.94302 0.48798 0.0
H285 H 0.0942 0.92643 0.51792 0.0
H286 H 0.04007 0.96563 0.53756 0.0
H287 H 0.06821 0.94987 0.54732 0.0
H288 H 0.07049 0.97926 0.5303 0.0
H289 H 0.95514 0.96457 0.39962 0.0
H290 H 0.9931 0.03467 0.37567 0.0
H291 H 0.02627 0.02962 0.40719 0.0
H292 H 0.96102 0.97697 0.45916 0.0
H293 H 0.95053 0.94563 0.44848 0.0
H294 H 0.97073 0.95073 0.47635 0.0
H295 H 0.00509 0.93247 0.40651 0.0
H296 H 0.00236 0.91535 0.43508 0.0
H297 H 0.97387 0.92235 0.41749 0.0
H298 H 0.97881 0.87885 0.50278 0.0
C299 C 0.9984 0.91122 0.48653 0.0
C300 C 0.2711 0.65449 0.79506 0.0
C301 C 0.26696 0.63523 0.77624 0.0
C302 C 0.24648 0.63694 0.75891 0.0
C303 C 0.2341 0.67625 0.77973 0.0
C304 C 0.25437 0.67466 0.79658 0.0
C305 C 0.25526 0.69612 0.81618 0.0
H306 H 0.20298 0.80237 0.86583 0.0
C307 C 0.21992 0.69911 0.78693 0.0
C308 C 0.23219 0.7108 0.80835 0.0
H309 H 0.27024 0.76544 0.89199 0.0
H310 H 0.26512 0.73363 0.85802 0.0
H311 H 0.16917 0.75225 0.85605 0.0
H312 H 0.21609 0.79739 0.80511 0.0
H313 H 0.18776 0.7887 0.78851 0.0
H314 H 0.1862 0.80778 0.81762 0.0
H315 H 0.15928 0.78213 0.84422 0.0
H316 H 0.15276 0.75259 0.8267 0.0
C317 C 0.25187 0.68454 0.84316 0.0
C318 C 0.28061 0.71183 0.81253 0.0
C319 C 0.14123 0.72157 0.73595 0.0
C320 C 0.12378 0.74109 0.73877 0.0
C321 C 0.12718 0.75915 0.75895 0.0
C322 C 0.14777 0.75797 0.77599 0.0
C323 C 0.16512 0.73838 0.77298 0.0
C324 C 0.16165 0.72054 0.75328 0.0
C325 C 0.18159 0.70067 0.75357 0.0
C326 C 0.19773 0.70973 0.77648 0.0
C327 C 0.188 0.73184 0.7877 0.0
C328 C 0.16791 0.67445 0.75817 0.0
C329 C 0.1968 0.70225 0.7281 0.0
C330 C 0.21666 0.78749 0.8641 0.0
C331 C 0.23688 0.78622 0.8817 0.0
C332 C 0.25425 0.76652 0.87891 0.0
C333 C 0.25131 0.74816 0.85909 0.0
C334 C 0.23077 0.74947 0.84182 0.0
C335 C 0.21394 0.76897 0.84447 0.0
C336 C 0.19319 0.76733 0.82448 0.0
C337 C 0.20033 0.74366 0.80938 0.0
C338 C 0.22234 0.73325 0.81961 0.0
C339 C 0.16714 0.76356 0.83839 0.0
C340 C 0.19564 0.79156 0.80807 0.0
H341 H 0.21478 0.65751 0.74681 0.0
H342 H 0.28663 0.65352 0.80871 0.0
H343 H 0.28564 0.71303 0.79182 0.0
H344 H 0.27949 0.73181 0.81927 0.0
H345 H 0.29669 0.70297 0.82247 0.0
H346 H 0.23834 0.66767 0.84244 0.0
H347 H 0.27037 0.67823 0.85074 0.0
H348 H 0.24345 0.69775 0.85726 0.0
H349 H 0.13878 0.70717 0.72087 0.0
H350 H 0.11393 0.77434 0.76141 0.0
H351 H 0.14932 0.77233 0.79089 0.0
H352 H 0.1507 0.6765 0.77048 0.0
H353 H 0.16155 0.66519 0.73978 0.0
H354 H 0.17991 0.66132 0.76868 0.0
H355 H 0.20024 0.72243 0.72257 0.0
H356 H 0.216 0.69441 0.72946 0.0
H357 H 0.18613 0.69227 0.71217 0.0
H358 H 0.24316 0.6224 0.7441 0.0
C359 C 0.23007 0.65735 0.76051 0.0
C360 C 0.89343 0.49573 0.49972 0.0
C361 C 0.88651 0.47315 0.4861 0.0
C362 C 0.90207 0.46523 0.46554 0.0
C363 C 0.93046 0.50244 0.47215 0.0
C364 C 0.91531 0.50998 0.49247 0.0
C365 C 0.92521 0.53437 0.50509 0.0
H366 H 0.01319 0.63213 0.51053 0.0
C367 C 0.95167 0.52172 0.46954 0.0
C368 C 0.94863 0.54045 0.48884 0.0
H369 H 0.94889 0.618 0.56106 0.0
H370 H 0.93675 0.57996 0.5366 0.0
H371 H 0.98424 0.61817 0.45869 0.0
H372 H 0.03032 0.5738 0.50773 0.0
H373 H 0.039 0.56654 0.47591 0.0
H374 H 0.04341 0.59876 0.48809 0.0
H375 H 0.01849 0.62136 0.45876 0.0
H376 H 0.00156 0.59823 0.43828 0.0
C377 C 0.90461 0.55452 0.50226 0.0
C378 C 0.93237 0.5287 0.53324 0.0
C379 C 0.0188 0.51221 0.39927 0.0
C380 C 0.04005 0.5277 0.39194 0.0
C381 C 0.04539 0.55071 0.40564 0.0
C382 C 0.03008 0.55815 0.42628 0.0
C383 C 0.00904 0.54249 0.43345 0.0
C384 C 0.00351 0.52006 0.41992 0.0
C385 C 0.97992 0.50626 0.43004 0.0
C386 C 0.97246 0.524 0.452 0.0
C387 C 0.98972 0.5451 0.45393 0.0
C388 C 0.95958 0.50481 0.40841 0.0
C389 C 0.98769 0.48003 0.43976 0.0
C390 C 0.99654 0.62076 0.51632 0.0
C391 C 0.9818 0.62821 0.53755 0.0
C392 C 0.96024 0.61294 0.54446 0.0
C393 C 0.95335 0.59074 0.53034 0.0
C394 C 0.96823 0.58357 0.5091 0.0
C395 C 0.98943 0.59849 0.50244 0.0
C396 C 0.00311 0.58781 0.47947 0.0
C397 C 0.98671 0.56393 0.47354 0.0
C398 C 0.96631 0.56158 0.49091 0.0
C399 C 0.00207 0.60734 0.45761 0.0
C400 C 0.03048 0.58148 0.48797 0.0
H401 H 0.93502 0.47271 0.44269 0.0
H402 H 0.88188 0.50234 0.51559 0.0
H403 H 0.93929 0.50905 0.53488 0.0
H404 H 0.94831 0.54115 0.54067 0.0
H405 H 0.91562 0.53037 0.54618 0.0
H406 H 0.89509 0.55255 0.48318 0.0
H407 H 0.88958 0.55229 0.5172 0.0
H408 H 0.91259 0.57427 0.50312 0.0
H409 H 0.01433 0.49426 0.38941 0.0
H410 H 0.0614 0.56315 0.40022 0.0
H411 H 0.03527 0.57586 0.43584 0.0
H412 H 0.96026 0.52259 0.39715 0.0
H413 H 0.96288 0.48867 0.39487 0.0
H414 H 0.93982 0.5031 0.41576 0.0
H415 H 0.00667 0.48161 0.4494 0.0
H416 H 0.97446 0.47219 0.45437 0.0
H417 H 0.98903 0.46601 0.42361 0.0
H418 H 0.89746 0.44762 0.45509 0.0
C419 C 0.92396 0.47975 0.45847 0.0
C420 C 0.78897 0.73041 0.85768 0.0
C421 C 0.7693 0.73213 0.87594 0.0
C422 C 0.75276 0.7526 0.87492 0.0
C423 C 0.77573 0.76934 0.83811 0.0
C424 C 0.79182 0.74915 0.83904 0.0
C425 C 0.81162 0.75007 0.81811 0.0
H426 H 0.86276 0.80822 0.71419 0.0
C427 C 0.78378 0.78536 0.81631 0.0
C428 C 0.80477 0.77414 0.80449 0.0
H429 H 0.88627 0.73946 0.74998 0.0
H430 H 0.85297 0.74316 0.78164 0.0
H431 H 0.85371 0.83988 0.7679 0.0
H432 H 0.8026 0.79575 0.71794 0.0
H433 H 0.78676 0.82309 0.72792 0.0
H434 H 0.81576 0.82646 0.70935 0.0
H435 H 0.84471 0.8505 0.73676 0.0
H436 H 0.8255 0.85663 0.7648 0.0
C437 C 0.83835 0.75277 0.83093 0.0
C438 C 0.80745 0.72598 0.80069 0.0
C439 C 0.7364 0.86547 0.7977 0.0
C440 C 0.73936 0.88418 0.77893 0.0
C441 C 0.75861 0.88173 0.7602 0.0
C442 C 0.77495 0.8612 0.76044 0.0
C443 C 0.77195 0.8428 0.77954 0.0
C444 C 0.75283 0.84508 0.79767 0.0
C445 C 0.75223 0.82364 0.81635 0.0
C446 C 0.77427 0.8082 0.80659 0.0
C447 C 0.78579 0.8195 0.78504 0.0
C448 C 0.75753 0.83512 0.84357 0.0
C449 C 0.72618 0.80877 0.81347 0.0
C450 C 0.86087 0.79417 0.72907 0.0
C451 C 0.87722 0.77358 0.72971 0.0
C452 C 0.87382 0.7554 0.74904 0.0
C453 C 0.85451 0.75763 0.76746 0.0
C454 C 0.83827 0.77825 0.76659 0.0
C455 C 0.84161 0.79613 0.74766 0.0
C456 C 0.8224 0.81667 0.74976 0.0
C457 C 0.80702 0.80811 0.77302 0.0
C458 C 0.81644 0.78559 0.78275 0.0
C459 C 0.83716 0.84239 0.75491 0.0
C460 C 0.80603 0.81573 0.72496 0.0
H461 H 0.74272 0.78635 0.8565 0.0
H462 H 0.80168 0.71464 0.85768 0.0
H463 H 0.78677 0.72034 0.79921 0.0
H464 H 0.8136 0.72897 0.78066 0.0
H465 H 0.81749 0.70959 0.80847 0.0
H466 H 0.83773 0.76489 0.84868 0.0
H467 H 0.84524 0.73392 0.83642 0.0
H468 H 0.85285 0.76235 0.81869 0.0
H469 H 0.72143 0.86654 0.81201 0.0
H470 H 0.76122 0.89592 0.74555 0.0
H471 H 0.78931 0.86048 0.74576 0.0
H472 H 0.77202 0.85116 0.84282 0.0
H473 H 0.73986 0.84262 0.8522 0.0
H474 H 0.76566 0.82144 0.8568 0.0
H475 H 0.71938 0.80869 0.79322 0.0
H476 H 0.72724 0.78844 0.81814 0.0
H477 H 0.71127 0.81751 0.8256 0.0
H478 H 0.7375 0.75432 0.88884 0.0
C479 C 0.75588 0.77121 0.85617 0.0
C480 C 0.29668 0.22248 0.35528 0.0
C481 C 0.27776 0.22231 0.37443 0.0
C482 C 0.26015 0.24194 0.37516 0.0
C483 C 0.27998 0.26092 0.33763 0.0
C484 C 0.29738 0.24179 0.33714 0.0
C485 C 0.31611 0.24449 0.3154 0.0
H486 H 0.358 0.30776 0.21065 0.0
C487 C 0.28589 0.2779 0.31591 0.0
C488 C 0.30707 0.26832 0.30284 0.0
H489 H 0.38829 0.24035 0.24341 0.0
H490 H 0.3567 0.24137 0.27715 0.0
H491 H 0.35042 0.33749 0.26365 0.0
H492 H 0.29861 0.29059 0.21726 0.0
H493 H 0.28167 0.31685 0.22825 0.0
H494 H 0.30943 0.32195 0.2082 0.0
H495 H 0.33682 0.34855 0.2345 0.0
H496 H 0.32073 0.35185 0.26498 0.0
C497 C 0.34329 0.24856 0.32698 0.0
C498 C 0.31263 0.22066 0.2975 0.0
C499 C 0.23142 0.35422 0.29967 0.0
C500 C 0.23216 0.3728 0.2806 0.0
C501 C 0.25154 0.3723 0.26184 0.0
C502 C 0.26961 0.35335 0.2617 0.0
C503 C 0.2684 0.33463 0.28058 0.0
C504 C 0.24963 0.33531 0.29924 0.0
C505 C 0.25143 0.3138 0.31775 0.0
C506 C 0.27432 0.30014 0.30707 0.0
C507 C 0.28413 0.31246 0.28529 0.0
C508 C 0.25683 0.32542 0.34487 0.0
C509 C 0.22645 0.29707 0.31569 0.0
C510 C 0.3576 0.29308 0.22496 0.0
C511 C 0.37544 0.27378 0.22427 0.0
C512 C 0.37473 0.2554 0.24359 0.0
C513 C 0.35631 0.25599 0.2631 0.0
C514 C 0.33837 0.2752 0.26338 0.0
C515 C 0.3393 0.2934 0.2446 0.0
C516 C 0.3189 0.31253 0.24813 0.0
C517 C 0.30548 0.30272 0.27203 0.0
C518 C 0.31693 0.28083 0.28083 0.0
C519 C 0.3322 0.33909 0.2529 0.0
C520 C 0.30121 0.31068 0.22423 0.0
H521 H 0.24712 0.27552 0.35839 0.0
H522 H 0.31084 0.208 0.35453 0.0
H523 H 0.29213 0.21429 0.29621 0.0
H524 H 0.31842 0.22426 0.27748 0.0
H525 H 0.32342 0.20453 0.3048 0.0
H526 H 0.34273 0.25967 0.34538 0.0
H527 H 0.35191 0.23009 0.33101 0.0
H528 H 0.35637 0.25984 0.31459 0.0
H529 H 0.21676 0.35418 0.31437 0.0
H530 H 0.25284 0.38675 0.24731 0.0
H531 H 0.2838 0.35403 0.24685 0.0
H532 H 0.26997 0.34253 0.34378 0.0
H533 H 0.23889 0.33139 0.35424 0.0
H534 H 0.26658 0.31235 0.35759 0.0
H535 H 0.21958 0.29568 0.29547 0.0
H536 H 0.22897 0.27719 0.32129 0.0
H537 H 0.21101 0.30523 0.32753 0.0
H538 H 0.24539 0.24221 0.38975 0.0
C539 C 0.26114 0.2612 0.35688 0.0
C540 C 0.49707 0.89555 0.48845 0.0
C541 C 0.48321 0.89015 0.46575 0.0
C542 C 0.46349 0.90622 0.45892 0.0
C543 C 0.47121 0.93206 0.49752 0.0
C544 C 0.49073 0.91641 0.50399 0.0
C545 C 0.50334 0.9244 0.52896 0.0
H546 H 0.50809 1.00145 0.63465 0.0
C547 C 0.46922 0.95171 0.51815 0.0
C548 C 0.48798 0.94723 0.53662 0.0
H549 H 0.5578 0.94052 0.61441 0.0
H550 H 0.53484 0.93285 0.57461 0.0
H551 H 0.45491 0.97346 0.61473 0.0
H552 H 0.50888 0.0256 0.57912 0.0
H553 H 0.47833 0.03408 0.56941 0.0
H554 H 0.48665 0.0359 0.60305 0.0
H555 H 0.45858 0.0064 0.62431 0.0
H556 H 0.43744 0.99607 0.59849 0.0
C557 C 0.49942 0.90229 0.54797 0.0
C558 C 0.53172 0.93201 0.52343 0.0
C559 C 0.40205 0.0189 0.5128 0.0
C560 C 0.39515 0.03881 0.52953 0.0
C561 C 0.40853 0.04274 0.55284 0.0
C562 C 0.42838 0.027 0.5595 0.0
C563 C 0.435 0.00706 0.54269 0.0
C564 C 0.42187 0.00322 0.5198 0.0
C565 C 0.43128 0.9808 0.50457 0.0
C566 C 0.4525 0.97214 0.52185 0.0
C567 C 0.45457 0.9876 0.54415 0.0
C568 C 0.40902 0.96058 0.50209 0.0
C569 C 0.44175 0.99054 0.4786 0.0
C570 C 0.51378 0.98634 0.62165 0.0
C571 C 0.53451 0.97133 0.62764 0.0
C572 C 0.54183 0.95223 0.61011 0.0
C573 C 0.52844 0.9478 0.58706 0.0
C574 C 0.50759 0.96278 0.58135 0.0
C575 C 0.50075 0.98187 0.59837 0.0
C576 C 0.47883 0.99658 0.58849 0.0
C577 C 0.47342 0.98292 0.56294 0.0
C578 C 0.49018 0.96302 0.55902 0.0
C579 C 0.45619 0.99323 0.60745 0.0
C580 C 0.48841 0.02457 0.58493 0.0
H581 H 0.44219 0.93862 0.46844 0.0
H582 H 0.51229 0.88351 0.49423 0.0
H583 H 0.53411 0.93965 0.50376 0.0
H584 H 0.53923 0.94754 0.5363 0.0
H585 H 0.54408 0.91541 0.52487 0.0
H586 H 0.47988 0.89332 0.54595 0.0
H587 H 0.51337 0.88725 0.54429 0.0
H588 H 0.50086 0.90854 0.56829 0.0
H589 H 0.39199 0.01539 0.49482 0.0
H590 H 0.40377 0.0582 0.56584 0.0
H591 H 0.43781 0.031 0.5775 0.0
H592 H 0.39698 0.96044 0.51972 0.0
H593 H 0.39643 0.96453 0.48559 0.0
H594 H 0.41565 0.94096 0.50011 0.0
H595 H 0.45223 0.00924 0.48128 0.0
H596 H 0.45576 0.97788 0.46976 0.0
H597 H 0.42597 0.99313 0.46475 0.0
H598 H 0.45286 0.90271 0.44126 0.0
C599 C 0.45741 0.92713 0.47466 0.0
C600 C 0.14446 0.30068 0.76944 0.0
C601 C 0.12672 0.28006 0.76648 0.0
C602 C 0.13044 0.26175 0.74685 0.0
C603 C 0.16845 0.28525 0.7327 0.0
C604 C 0.16504 0.303 0.75226 0.0
C605 C 0.18505 0.32436 0.75179 0.0
H606 H 0.28754 0.38075 0.6931 0.0
C607 C 0.19102 0.29366 0.71758 0.0
C608 C 0.20082 0.31663 0.7286 0.0
H609 H 0.24881 0.40648 0.76157 0.0
H610 H 0.21999 0.36934 0.75933 0.0
H611 H 0.23744 0.36347 0.66168 0.0
H612 H 0.28834 0.32214 0.70874 0.0
H613 H 0.28066 0.3026 0.68188 0.0
H614 H 0.29707 0.333 0.67738 0.0
H615 H 0.26881 0.35544 0.65116 0.0
H616 H 0.24145 0.33392 0.64621 0.0
C617 C 0.17141 0.34955 0.7475 0.0
C618 C 0.20066 0.32388 0.77704 0.0
C619 C 0.21823 0.241 0.63993 0.0
C620 C 0.2376 0.24464 0.62152 0.0
C621 C 0.25397 0.26651 0.62334 0.0
C622 C 0.25127 0.28443 0.64334 0.0
C623 C 0.23183 0.28058 0.66165 0.0
C624 C 0.21566 0.25919 0.65972 0.0
C625 C 0.19561 0.2587 0.68044 0.0
C626 C 0.20268 0.28311 0.69535 0.0
C627 C 0.22391 0.2958 0.68427 0.0
C628 C 0.16901 0.25972 0.66745 0.0
C629 C 0.19928 0.2348 0.69674 0.0
C630 C 0.27266 0.37848 0.70744 0.0
C631 C 0.27014 0.39666 0.72732 0.0
C632 C 0.25102 0.3927 0.74604 0.0
C633 C 0.23428 0.37119 0.74464 0.0
C634 C 0.23676 0.35336 0.72436 0.0
C635 C 0.25588 0.35709 0.70634 0.0
C636 C 0.25605 0.33602 0.68641 0.0
C637 C 0.23379 0.31907 0.6953 0.0
C638 C 0.22245 0.32935 0.71745 0.0
C639 C 0.25086 0.34763 0.65987 0.0
C640 C 0.28187 0.32272 0.68841 0.0
H641 H 0.15286 0.2497 0.71536 0.0
H642 H 0.14197 0.31504 0.78436 0.0
H643 H 0.20289 0.30398 0.78333 0.0
H644 H 0.2204 0.33177 0.77492 0.0
H645 H 0.19102 0.33434 0.7928 0.0
H646 H 0.15539 0.34654 0.73358 0.0
H647 H 0.1633 0.357 0.76575 0.0
H648 H 0.18399 0.3645 0.73908 0.0
H649 H 0.20507 0.22459 0.63867 0.0
H650 H 0.26899 0.26963 0.6093 0.0
H651 H 0.26438 0.30064 0.64368 0.0
H652 H 0.17016 0.27066 0.64938 0.0
H653 H 0.16116 0.24031 0.66246 0.0
H654 H 0.15497 0.26975 0.67938 0.0
H655 H 0.21996 0.23155 0.69956 0.0
H656 H 0.19135 0.2366 0.71631 0.0
H657 H 0.19056 0.2175 0.68714 0.0
H658 H 0.11716 0.24553 0.74451 0.0
C659 C 0.1512 0.2642 0.73 0.0
C660 C 0.73937 0.14971 0.73837 0.0
C661 C 0.7185 0.14386 0.72202 0.0
C662 C 0.71504 0.1588 0.70022 0.0
C663 C 0.75254 0.18519 0.7116 0.0
C664 C 0.75606 0.17037 0.73283 0.0
C665 C 0.77917 0.17919 0.74825 0.0
H666 H 0.88195 0.2604 0.76401 0.0
C667 C 0.7733 0.20513 0.71132 0.0
C668 C 0.78899 0.20167 0.73272 0.0
H669 H 0.85668 0.19898 0.81291 0.0
H670 H 0.82077 0.18921 0.78483 0.0
H671 H 0.82627 0.2817 0.75532 0.0
H672 H 0.87057 0.23043 0.70946 0.0
H673 H 0.85653 0.25182 0.68868 0.0
H674 H 0.87883 0.2638 0.71283 0.0
H675 H 0.85356 0.29253 0.7371 0.0
H676 H 0.82207 0.2895 0.72302 0.0
C677 C 0.77008 0.18754 0.77538 0.0
C678 C 0.79823 0.15736 0.74806 0.0
C679 C 0.77631 0.27015 0.64033 0.0
C680 C 0.79344 0.2905 0.63459 0.0
C681 C 0.81465 0.2957 0.65081 0.0
C682 C 0.81883 0.28078 0.67232 0.0
C683 C 0.80161 0.26039 0.67776 0.0
C684 C 0.7808 0.25536 0.66184 0.0
C685 C 0.7647 0.23274 0.67034 0.0
C686 C 0.77906 0.22523 0.69417 0.0
C687 C 0.80066 0.24149 0.69847 0.0
C688 C 0.73765 0.24192 0.6769 0.0
C689 C 0.76528 0.2119 0.64886 0.0
C690 C 0.86878 0.24469 0.76844 0.0
C691 C 0.87221 0.23024 0.79051 0.0
C692 C 0.85437 0.21033 0.796 0.0
C693 C 0.83359 0.20467 0.77963 0.0
C694 C 0.83043 0.21917 0.75755 0.0
C695 C 0.84777 0.23891 0.75234 0.0
C696 C 0.84088 0.25272 0.72842 0.0
C697 C 0.81668 0.23789 0.72004 0.0
C698 C 0.81076 0.21819 0.73713 0.0
C699 C 0.83554 0.28065 0.73612 0.0
C700 C 0.86281 0.24981 0.70873 0.0
H701 H 0.72817 0.19005 0.67809 0.0
H702 H 0.74252 0.13858 0.75528 0.0
H703 H 0.79845 0.14754 0.72893 0.0
H704 H 0.8182 0.16409 0.75146 0.0
H705 H 0.79282 0.14289 0.76254 0.0
H706 H 0.75075 0.1956 0.77458 0.0
H707 H 0.76895 0.17119 0.78855 0.0
H708 H 0.78239 0.20295 0.78409 0.0
H709 H 0.75994 0.26561 0.62812 0.0
H710 H 0.8279 0.31152 0.64696 0.0
H711 H 0.83532 0.28571 0.6839 0.0
H712 H 0.73884 0.261 0.68659 0.0
H713 H 0.72595 0.24352 0.65925 0.0
H714 H 0.7272 0.22949 0.69049 0.0
H715 H 0.78397 0.2125 0.63865 0.0
H716 H 0.76335 0.1924 0.65632 0.0
H717 H 0.75011 0.21451 0.63435 0.0
H718 H 0.69944 0.15432 0.68701 0.0
C719 C 0.73188 0.17944 0.69497 0.0
C720 C 0.53373 0.61134 0.47962 0.0
C721 C 0.51329 0.62782 0.48214 0.0
C722 C 0.49661 0.62517 0.50325 0.0
C723 C 0.52113 0.59064 0.51922 0.0
C724 C 0.53728 0.59299 0.49832 0.0
C725 C 0.55813 0.57408 0.49868 0.0
H726 H 0.61792 0.4806 0.55982 0.0
C727 C 0.53033 0.57002 0.53532 0.0
C728 C 0.55199 0.5602 0.52337 0.0
H729 H 0.6369 0.51368 0.48661 0.0
H730 H 0.60082 0.54063 0.49006 0.0
H731 H 0.60366 0.53248 0.58888 0.0
H732 H 0.55683 0.47532 0.54879 0.0
H733 H 0.54014 0.4845 0.57653 0.0
H734 H 0.57061 0.46994 0.57966 0.0
H735 H 0.59702 0.50142 0.60156 0.0
H736 H 0.57575 0.52713 0.60706 0.0
C737 C 0.58415 0.58915 0.50025 0.0
C738 C 0.55494 0.55628 0.47468 0.0
C739 C 0.4848 0.54931 0.61904 0.0
C740 C 0.48957 0.53216 0.63865 0.0
C741 C 0.51015 0.5158 0.63594 0.0
C742 C 0.52601 0.5168 0.61424 0.0
C743 C 0.52131 0.53438 0.59498 0.0
C744 C 0.50091 0.55017 0.59754 0.0
C745 C 0.499 0.56789 0.57538 0.0
C746 C 0.52155 0.5601 0.55906 0.0
C747 C 0.53456 0.54046 0.57062 0.0
C748 C 0.50251 0.59559 0.58597 0.0
C749 C 0.47315 0.56192 0.56159 0.0
C750 C 0.6142 0.49361 0.54452 0.0
C751 C 0.63062 0.4954 0.52318 0.0
C752 C 0.625 0.51245 0.50359 0.0
C753 C 0.60391 0.52798 0.50555 0.0
C754 C 0.58804 0.52645 0.52727 0.0
C755 C 0.59311 0.50925 0.54616 0.0
C756 C 0.57384 0.50995 0.56762 0.0
C757 C 0.55654 0.53052 0.55857 0.0
C758 C 0.56506 0.54021 0.53499 0.0
C759 C 0.58814 0.51798 0.59273 0.0
C760 C 0.55962 0.48358 0.56849 0.0
H761 H 0.48712 0.60582 0.53743 0.0
H762 H 0.54656 0.61255 0.46333 0.0
H763 H 0.53444 0.55351 0.46922 0.0
H764 H 0.5614 0.53686 0.47802 0.0
H765 H 0.5653 0.56431 0.4579 0.0
H766 H 0.58288 0.60598 0.51345 0.0
H767 H 0.59005 0.59619 0.48109 0.0
H768 H 0.59964 0.57801 0.50814 0.0
H769 H 0.46918 0.56217 0.62066 0.0
H770 H 0.51391 0.50215 0.65064 0.0
H771 H 0.54141 0.50393 0.61337 0.0
H772 H 0.51641 0.59671 0.60217 0.0
H773 H 0.48414 0.60282 0.59323 0.0
H774 H 0.51059 0.6089 0.5717 0.0
H775 H 0.46815 0.54115 0.56171 0.0
H776 H 0.47356 0.56681 0.54107 0.0
H777 H 0.45737 0.57193 0.57123 0.0
H778 H 0.48076 0.63766 0.5056 0.0
C779 C 0.50041 0.60672 0.52176 0.0
C780 C 0.53649 0.40576 0.03124 0.0
C781 C 0.5163 0.38738 0.02951 0.0
C782 C 0.4982 0.38892 0.00961 0.0
C783 C 0.52069 0.42655 0.99349 0.0
C784 C 0.53833 0.42504 0.0131 0.0
C785 C 0.55872 0.44595 0.01218 0.0
H786 H 0.60821 0.5519 0.95601 0.0
C787 C 0.52808 0.44894 0.97799 0.0
C788 C 0.55034 0.46039 0.9889 0.0
H789 H 0.63729 0.51307 0.02153 0.0
H790 H 0.60249 0.48163 0.01829 0.0
H791 H 0.54858 0.54698 0.97183 0.0
H792 H 0.59532 0.50137 0.92254 0.0
H793 H 0.56551 0.50314 0.90741 0.0
H794 H 0.58471 0.53192 0.91333 0.0
H795 H 0.55953 0.55743 0.94098 0.0
H796 H 0.5303 0.53845 0.94446 0.0
C797 C 0.55706 0.4622 0.03725 0.0
C798 C 0.58484 0.4336 0.00778 0.0
C799 C 0.4753 0.47057 0.89994 0.0
C800 C 0.47764 0.49005 0.88188 0.0
C801 C 0.4975 0.50877 0.88475 0.0
C802 C 0.51508 0.50786 0.90497 0.0
C803 C 0.5128 0.48802 0.92261 0.0
C804 C 0.49306 0.4699 0.92003 0.0
C805 C 0.49354 0.45034 0.94071 0.0
C806 C 0.51699 0.45954 0.95593 0.0
C807 C 0.52819 0.48161 0.94521 0.0
C808 C 0.46868 0.45216 0.95671 0.0
C809 C 0.49721 0.42396 0.92771 0.0
C810 C 0.60692 0.53664 0.96967 0.0
C811 C 0.62548 0.53478 0.98895 0.0
C812 C 0.62335 0.51462 0.00632 0.0
C813 C 0.60306 0.49648 0.00447 0.0
C814 C 0.58468 0.49846 0.98501 0.0
C815 C 0.58685 0.51823 0.96795 0.0
C816 C 0.56587 0.51692 0.94816 0.0
C817 C 0.55066 0.49324 0.95629 0.0
C818 C 0.56171 0.4826 0.97794 0.0
C819 C 0.55023 0.54122 0.95123 0.0
C820 C 0.5783 0.51333 0.92136 0.0
H821 H 0.48592 0.40852 0.97693 0.0
H822 H 0.55073 0.405 0.04627 0.0
H823 H 0.58259 0.41591 0.99576 0.0
H824 H 0.59854 0.44589 0.99708 0.0
H825 H 0.59362 0.42843 0.02628 0.0
H826 H 0.53679 0.46422 0.04317 0.0
H827 H 0.56716 0.45324 0.05327 0.0
H828 H 0.56475 0.4819 0.03517 0.0
H829 H 0.45993 0.4562 0.89852 0.0
H830 H 0.49968 0.52393 0.87104 0.0
H831 H 0.52987 0.52256 0.90596 0.0
H832 H 0.46266 0.4722 0.95831 0.0
H833 H 0.45271 0.44066 0.94767 0.0
H834 H 0.47101 0.44621 0.97675 0.0
H835 H 0.51071 0.4256 0.91126 0.0
H836 H 0.50574 0.41024 0.94061 0.0
H837 H 0.47878 0.41566 0.92019 0.0
H838 H 0.48222 0.37523 0.00817 0.0
C839 C 0.5003 0.40837 0.9916 0.0
C840 C 0.7683 0.1486 0.29911 0.0
C841 C 0.76655 0.13066 0.27876 0.0
C842 C 0.74802 0.13334 0.25951 0.0
C843 C 0.7329 0.17106 0.28139 0.0
C844 C 0.75141 0.16859 0.29999 0.0
C845 C 0.75105 0.18952 0.32007 0.0
H846 H 0.70064 0.29792 0.36598 0.0
C847 C 0.71849 0.19395 0.28802 0.0
C848 C 0.72916 0.20492 0.31056 0.0
H849 H 0.76365 0.25711 0.39641 0.0
H850 H 0.75865 0.22542 0.36257 0.0
H851 H 0.66419 0.24668 0.35297 0.0
H852 H 0.7162 0.29221 0.30702 0.0
H853 H 0.68903 0.28433 0.28823 0.0
H854 H 0.68574 0.3033 0.31722 0.0
H855 H 0.65736 0.27833 0.34348 0.0
H856 H 0.64972 0.25101 0.32301 0.0
C857 C 0.74489 0.17728 0.34629 0.0
C858 C 0.77704 0.20473 0.31907 0.0
C859 C 0.6433 0.21719 0.23276 0.0
C860 C 0.62637 0.23725 0.23389 0.0
C861 C 0.62939 0.256 0.25352 0.0
C862 C 0.6489 0.25468 0.27186 0.0
C863 C 0.66561 0.23439 0.27059 0.0
C864 C 0.66275 0.21619 0.25113 0.0
C865 C 0.68247 0.19623 0.25246 0.0
C866 C 0.69738 0.20517 0.27617 0.0
C867 C 0.6874 0.22748 0.28679 0.0
C868 C 0.66838 0.17014 0.25642 0.0
C869 C 0.69904 0.19766 0.2278 0.0
C870 C 0.7131 0.28195 0.36547 0.0
C871 C 0.73254 0.27994 0.3839 0.0
C872 C 0.74867 0.25913 0.38232 0.0
C873 C 0.74569 0.24071 0.36267 0.0
C874 C 0.7264 0.24306 0.34423 0.0
C875 C 0.71039 0.26332 0.34584 0.0
C876 C 0.69107 0.26261 0.32436 0.0
C877 C 0.69835 0.23874 0.30952 0.0
C878 C 0.71904 0.22742 0.32133 0.0
C879 C 0.66408 0.25968 0.33638 0.0
C880 C 0.69545 0.2869 0.30834 0.0
H881 H 0.71729 0.15429 0.24563 0.0
H882 H 0.78272 0.14726 0.3139 0.0
H883 H 0.78484 0.20497 0.29919 0.0
H884 H 0.77547 0.22504 0.3245 0.0
H885 H 0.79147 0.19619 0.33155 0.0
H886 H 0.73089 0.16091 0.34392 0.0
H887 H 0.76238 0.17004 0.35522 0.0
H888 H 0.73577 0.1904 0.36001 0.0
H889 H 0.6415 0.20261 0.21778 0.0
H890 H 0.61633 0.27145 0.25493 0.0
H891 H 0.65012 0.26943 0.28641 0.0
H892 H 0.65224 0.17206 0.27015 0.0
H893 H 0.66037 0.16229 0.23802 0.0
H894 H 0.68065 0.15591 0.26487 0.0
H895 H 0.70054 0.21742 0.22054 0.0
H896 H 0.71905 0.19258 0.23112 0.0
H897 H 0.69069 0.18524 0.21219 0.0
H898 H 0.74642 0.11969 0.24366 0.0
C899 C 0.73112 0.15338 0.26076 0.0
C900 C 0.39849 0.98623 0.99309 0.0
C901 C 0.3909 0.96555 0.9769 0.0
C902 C 0.40508 0.96083 0.95439 0.0
C903 C 0.43354 0.99725 0.96426 0.0
C904 C 0.41968 0.00181 0.98637 0.0
C905 C 0.43006 0.02474 0.00131 0.0
H906 H 0.51564 0.12452 0.01129 0.0
C907 C 0.4545 0.01691 0.96296 0.0
C908 C 0.45257 0.03306 0.98466 0.0
H909 H 0.45432 0.10413 0.0635 0.0
H910 H 0.44286 0.06718 0.03707 0.0
H911 H 0.48458 0.1113 0.95857 0.0
H912 H 0.53545 0.06882 0.00453 0.0
H913 H 0.54118 0.05973 0.9725 0.0
H914 H 0.54721 0.09248 0.98269 0.0
H915 H 0.51818 0.11904 0.96164 0.0
H916 H 0.50616 0.09636 0.93779 0.0
C917 C 0.40912 0.04477 0.0022 0.0
C918 C 0.43879 0.01592 0.02802 0.0
C919 C 0.51663 0.01679 0.88769 0.0
C920 C 0.53847 0.03202 0.88194 0.0
C921 C 0.54613 0.05206 0.89894 0.0
C922 C 0.53217 0.05698 0.92134 0.0
C923 C 0.51033 0.04165 0.92689 0.0
C924 C 0.50303 0.02178 0.91034 0.0
C925 C 0.47986 0.00695 0.91989 0.0
C926 C 0.47433 0.02136 0.94475 0.0
C927 C 0.49211 0.0418 0.94859 0.0
C928 C 0.45812 0.00914 0.89998 0.0
C929 C 0.48763 0.97932 0.92479 0.0
C930 C 0.49982 0.11201 0.01707 0.0
C931 C 0.48557 0.11751 0.03925 0.0
C932 C 0.46518 0.10069 0.04615 0.0
C933 C 0.45865 0.07915 0.03084 0.0
C934 C 0.47272 0.07423 0.0084 0.0
C935 C 0.49309 0.09039 0.002 0.0
C936 C 0.50616 0.08195 0.97773 0.0
C937 C 0.49 0.05831 0.97036 0.0
C938 C 0.47039 0.05391 0.98834 0.0
C939 C 0.50391 0.10322 0.95779 0.0
C940 C 0.53402 0.07554 0.98447 0.0
H941 H 0.4362 0.97199 0.93055 0.0
H942 H 0.38831 0.99008 0.01077 0.0
H943 H 0.44684 0.99666 0.02662 0.0
H944 H 0.45435 0.02825 0.0364 0.0
H945 H 0.42253 0.01491 0.04172 0.0
H946 H 0.39838 0.04472 0.98375 0.0
H947 H 0.3951 0.04069 0.01774 0.0
H948 H 0.41692 0.06447 0.0047 0.0
H949 H 0.51047 1.00115 0.87499 0.0
H950 H 0.56278 0.06414 0.89468 0.0
H951 H 0.5389 0.07261 0.93342 0.0
H952 H 0.45827 0.02862 0.89199 0.0
H953 H 0.46036 0.99545 0.88367 0.0
H954 H 0.43888 0.00618 0.90833 0.0
H955 H 0.50775 0.97896 0.93164 0.0
H956 H 0.47623 0.97006 0.94008 0.0
H957 H 0.4861 0.9674 0.90695 0.0
H958 H 0.39955 0.94507 0.94158 0.0
C959 C 0.4263 0.97655 0.94798 0.0
C960 C 0.21995 0.92558 0.01093 0.0
O961 O 0.24056 0.93515 0.99975 0.0
O962 O 0.24725 0.85731 0.98712 0.0
Zn963 Zn 0.25207 0.88238 0.01673 0.0
O964 O 0.28301 0.90562 0.01019 0.0
C965 C 0.26655 0.84028 0.04709 0.0
O966 O 0.27306 0.83172 0.02425 0.0
O967 O 0.22038 0.90328 0.01995 0.0
C968 C 0.30389 0.89746 0.00143 0.0
O969 O 0.30575 0.8729 0.99705 0.0
C970 C 0.24739 0.86326 0.96361 0.0
O971 O 0.2502 0.88737 0.95765 0.0
O972 O 0.25737 0.86231 0.04913 0.0
C973 C 0.1607 0.4552 0.27978 0.0
O974 O 0.15746 0.4688 0.30088 0.0
O975 O 0.1023 0.4937 0.28672 0.0
Zn976 Zn 0.12621 0.49104 0.25621 0.0
O977 O 0.14768 0.52369 0.25342 0.0
C978 C 0.08212 0.49063 0.22203 0.0
O979 O 0.07074 0.50014 0.24235 0.0
O980 O 0.14932 0.46129 0.25936 0.0
C981 C 0.15918 0.5291 0.23262 0.0
O982 O 0.15702 0.51297 0.21305 0.0
C983 C 0.10895 0.50635 0.30686 0.0
O984 O 0.13204 0.51707 0.30805 0.0
O985 O 0.10562 0.48555 0.22354 0.0
C986 C 0.80672 0.60348 0.99642 0.0
O987 O 0.80272 0.60803 0.97206 0.0
O988 O 0.76831 0.65334 0.97277 0.0
Zn989 Zn 0.76064 0.63187 0.00394 0.0
O990 O 0.73143 0.60638 0.99732 0.0
C991 C 0.74604 0.67757 0.03187 0.0
O992 O 0.74481 0.68688 0.00871 0.0
O993 O 0.7915 0.61219 0.01315 0.0
C994 C 0.70819 0.61136 0.00137 0.0
O995 O 0.70262 0.63435 0.00938 0.0
C996 C 0.75159 0.65743 0.95579 0.0
O997 O 0.72862 0.64673 0.95803 0.0
O998 O 0.75224 0.65461 0.03437 0.0
C999 C 0.8365 0.04739 0.27272 0.0
O1000 O 0.83408 0.02784 0.28792 0.0
O1001 O 0.9009 0.01822 0.2839 0.0
Zn1002 Zn 0.87725 0.0179 0.25322 0.0
O1003 O 0.8553 0.98559 0.25262 0.0
C1004 C 0.92163 0.01447 0.22052 0.0
O1005 O 0.93197 0.00703 0.24194 0.0
O1006 O 0.85406 0.04761 0.25583 0.0
C1007 C 0.83926 0.98142 0.23458 0.0
O1008 O 0.83809 0.998 0.21612 0.0
C1009 C 0.89498 0.00717 0.30468 0.0
O1010 O 0.87254 0.99529 0.30659 0.0
O1011 O 0.89822 0.02011 0.22059 0.0
C1012 C 0.31463 0.1068 0.50183 0.0
O1013 O 0.31853 0.12239 0.48272 0.0
O1014 O 0.26888 0.15131 0.47574 0.0
Zn1015 Zn 0.26345 0.12903 0.50682 0.0
O1016 O 0.23151 0.10613 0.50368 0.0
C1017 C 0.24924 0.17391 0.53523 0.0
O1018 O 0.24255 0.18104 0.51223 0.0
O1019 O 0.29342 0.10685 0.51376 0.0
C1020 C 0.2159 0.10514 0.48496 0.0
O1021 O 0.22007 0.1199 0.46525 0.0
C1022 C 0.27241 0.1442 0.45256 0.0
O1023 O 0.27342 0.11977 0.44703 0.0
O1024 O 0.2588 0.15223 0.53773 0.0
C1025 C 0.33314 0.54875 0.77103 0.0
O1026 O 0.32563 0.52649 0.77994 0.0
O1027 O 0.39822 0.51718 0.79017 0.0
Zn1028 Zn 0.37719 0.52036 0.75797 0.0
O1029 O 0.35414 0.48885 0.75376 0.0
C1030 C 0.4241 0.53002 0.72936 0.0
O1031 O 0.43299 0.53624 0.75231 0.0
O1032 O 0.35524 0.5512 0.76097 0.0
C1033 C 0.34005 0.48565 0.73399 0.0
O1034 O 0.34112 0.50299 0.71618 0.0
C1035 C 0.40924 0.49648 0.79406 0.0
O1036 O 0.40624 0.47778 0.77707 0.0
O1037 O 0.40062 0.52312 0.72699 0.0
C1038 C 0.71854 0.43123 0.51116 0.0
O1039 O 0.73873 0.43924 0.49821 0.0
O1040 O 0.73712 0.36085 0.48288 0.0
Zn1041 Zn 0.74695 0.38505 0.51237 0.0
O1042 O 0.77887 0.40564 0.50241 0.0
C1043 C 0.77429 0.35176 0.5449 0.0
O1044 O 0.79009 0.35245 0.52531 0.0
O1045 O 0.71766 0.40854 0.51928 0.0
C1046 C 0.79475 0.4157 0.51845 0.0
O1047 O 0.79043 0.41302 0.54312 0.0
C1048 C 0.75382 0.35422 0.46657 0.0
O1049 O 0.77743 0.36333 0.46923 0.0
O1050 O 0.75407 0.36439 0.54387 0.0
C1051 C 0.67198 0.96991 0.77598 0.0
O1052 O 0.67007 0.98615 0.79534 0.0
O1053 O 0.61627 0.00784 0.78565 0.0
Zn1054 Zn 0.63687 0.00372 0.75293 0.0
O1055 O 0.65957 0.03519 0.748 0.0
C1056 C 0.59317 0.98523 0.72202 0.0
O1057 O 0.58588 0.97406 0.74328 0.0
O1058 O 0.65926 0.97348 0.75566 0.0
C1059 C 0.65016 0.05592 0.74113 0.0
O1060 O 0.62538 0.05648 0.73735 0.0
C1061 C 0.59478 0.01831 0.78658 0.0
O1062 O 0.58492 0.02678 0.76535 0.0
O1063 O 0.61402 0.99848 0.72181 0.0
C1064 C 0.99961 0.20803 0.90846 0.0
O1065 O 0.97607 0.21117 0.90077 0.0
O1066 O 0.97953 0.24613 0.85598 0.0
Zn1067 Zn 0.01018 0.25391 0.8791 0.0
O1068 O 0.00382 0.28455 0.90206 0.0
C1069 C 0.03811 0.26816 0.8335 0.0
O1070 O 0.01484 0.27139 0.8251 0.0
O1071 O 0.01717 0.22378 0.90141 0.0
C1072 C 1.00112 0.30639 0.89263 0.0
O1073 O 0.00243 0.30873 0.86761 0.0
C1074 C 0.95672 0.25158 0.86161 0.0
O1075 O 0.95201 0.26194 0.88421 0.0
O1076 O 0.04113 0.26121 0.85653 0.0
C1077 C 0.49346 0.70666 0.40823 0.0
O1078 O 0.47045 0.70735 0.39829 0.0
O1079 O 0.47372 0.74221 0.35381 0.0
Zn1080 Zn 0.50319 0.75212 0.37762 0.0
O1081 O 0.49416 0.78369 0.39791 0.0
C1082 C 0.53321 0.76693 0.33336 0.0
O1083 O 0.51046 0.77042 0.3237 0.0
O1084 O 0.51022 0.72365 0.40211 0.0
C1085 C 0.51059 0.80099 0.40467 0.0
O1086 O 0.53467 0.7983 0.39841 0.0
C1087 C 0.45069 0.74634 0.35986 0.0
O1088 O 0.44582 0.75639 0.38256 0.0
O1089 O 0.5349 0.75928 0.35628 0.0
C1090 C 0.99534 0.80805 0.59734 0.0
O1091 O 0.97201 0.80109 0.60431 0.0
O1092 O 0.97675 0.77341 0.65172 0.0
Zn1093 Zn 0.00645 0.76552 0.62818 0.0
O1094 O 0.99696 0.73474 0.60588 0.0
C1095 C 0.03552 0.75055 0.67217 0.0
O1096 O 0.01255 0.74591 0.68156 0.0
O1097 O 0.01388 0.79542 0.60526 0.0
C1098 C 0.01287 0.71842 0.59864 0.0
O1099 O 0.03689 0.72161 0.60572 0.0
C1100 C 0.95877 0.75698 0.65568 0.0
O1101 O 0.95963 0.73454 0.6442 0.0
O1102 O 0.03772 0.759 0.64955 0.0
C1103 C 0.50879 0.30835 0.10646 0.0
O1104 O 0.50899 0.31506 0.13091 0.0
O1105 O 0.4767 0.2643 0.15199 0.0
Zn1106 Zn 0.50483 0.25739 0.1268 0.0
O1107 O 0.49642 0.22389 0.10858 0.0
C1108 C 0.54034 0.23893 0.16305 0.0
O1109 O 0.52202 0.22129 0.16521 0.0
O1110 O 0.50726 0.28482 0.10036 0.0
C1111 C 0.51317 0.20987 0.09864 0.0
O1112 O 0.53744 0.21696 0.10081 0.0
C1113 C 0.45357 0.26599 0.14502 0.0
O1114 O 0.44797 0.26377 0.12047 0.0
O1115 O 0.53772 0.25641 0.14688 0.0
C1116 C 0.23955 0.83154 0.8976 0.0
C1117 C 0.23977 0.80543 0.90289 0.0
C1118 C 0.24211 0.85005 0.91731 0.0
C1119 C 0.24472 0.84318 0.94315 0.0
H1120 H 0.23764 0.83772 0.87799 0.0
H1121 H 0.24193 0.8699 0.91219 0.0
S1122 S 0.24548 0.77708 0.96715 0.0
N1123 N 0.24216 0.7735 0.93575 0.0
N1124 N 0.24699 0.8081 0.97286 0.0
C1125 C 0.24476 0.81702 0.94868 0.0
C1126 C 0.24231 0.79821 0.92856 0.0
C1127 C 0.08372 0.52293 0.3732 0.0
C1128 C 0.057 0.52021 0.37032 0.0
C1129 C 0.10026 0.51795 0.35271 0.0
C1130 C 0.09083 0.50982 0.32849 0.0
H1131 H 0.09197 0.52919 0.39144 0.0
H1132 H 0.12065 0.52068 0.35591 0.0
S1133 S 0.0224 0.49966 0.31076 0.0
N1134 N 0.02182 0.50894 0.34123 0.0
N1135 N 0.05292 0.49897 0.30285 0.0
C1136 C 0.06416 0.50639 0.32545 0.0
C1137 C 0.04726 0.5117 0.34632 0.0
C1138 C 0.74132 0.70098 0.89971 0.0
C1139 C 0.76565 0.71252 0.89584 0.0
C1140 C 0.73716 0.68284 0.91875 0.0
C1141 C 0.75713 0.67563 0.93486 0.0
H1142 H 0.72533 0.70599 0.88787 0.0
H1143 H 0.71798 0.6747 0.92103 0.0
S1144 S 0.82457 0.70041 0.93244 0.0
N1145 N 0.81005 0.7156 0.90953 0.0
N1146 N 0.8024 0.68144 0.94531 0.0
C1147 C 0.78169 0.6869 0.93099 0.0
C1148 C 0.78591 0.70532 0.91148 0.0
C1149 C 0.95844 0.00915 0.34013 0.0
C1150 C 0.95136 0.00311 0.36541 0.0
C1151 C 0.94004 0.01089 0.32076 0.0
C1152 C 0.91384 0.00647 0.32586 0.0
H1153 H 0.97842 0.012 0.33511 0.0
H1154 H 0.94651 0.01515 0.3015 0.0
S1155 S 0.8851 0.99255 0.38946 0.0
N1156 N 0.91618 0.99471 0.39496 0.0
N1157 N 0.88163 0.99737 0.35845 0.0
C1158 C 0.90644 1.001 0.35119 0.0
C1159 C 0.92517 0.99946 0.37097 0.0
C1160 C 0.24041 0.23453 0.57456 0.0
C1161 C 0.24042 0.22611 0.59999 0.0
C1162 C 0.24305 0.21744 0.55381 0.0
C1163 C 0.24617 0.19132 0.5577 0.0
H1164 H 0.23812 0.25448 0.57067 0.0
H1165 H 0.2429 0.22488 0.53457 0.0
S1166 S 0.24775 0.1598 0.62082 0.0
N1167 N 0.24383 0.19012 0.6281 0.0
N1168 N 0.24904 0.15791 0.58915 0.0
C1169 C 0.2463 0.18268 0.58312 0.0
C1170 C 0.24331 0.20008 0.60424 0.0
C1171 C 0.44653 0.52917 0.65977 0.0
C1172 C 0.47329 0.53158 0.66201 0.0
C1173 C 0.4308 0.52857 0.68161 0.0
C1174 C 0.44122 0.53071 0.70655 0.0
H1175 H 0.43768 0.52745 0.64098 0.0
H1176 H 0.4103 0.52655 0.67887 0.0
S1177 S 0.51035 0.53826 0.72261 0.0
N1178 N 0.50959 0.5367 0.69093 0.0
N1179 N 0.48025 0.53563 0.73199 0.0
C1180 C 0.46804 0.53337 0.70898 0.0
C1181 C 0.484 0.53376 0.68672 0.0
C1182 C 0.76524 0.31689 0.60784 0.0
C1183 C 0.78913 0.30623 0.61174 0.0
C1184 C 0.76071 0.33176 0.58636 0.0
C1185 C 0.7798 0.33632 0.56774 0.0
H1186 H 0.74998 0.31387 0.62164 0.0
H1187 H 0.74199 0.33955 0.58426 0.0
S1188 S 0.84555 0.31204 0.56886 0.0
N1189 N 0.83198 0.30082 0.59514 0.0
N1190 N 0.82363 0.32869 0.55478 0.0
C1191 C 0.80379 0.32563 0.57142 0.0
C1192 C 0.80842 0.31065 0.59341 0.0
C1193 C 0.57532 0.98095 0.65139 0.0
C1194 C 0.54882 0.97558 0.65196 0.0
C1195 C 0.58942 0.98444 0.67416 0.0
C1196 C 0.5776 0.98215 0.69834 0.0
H1197 H 0.58521 0.98254 0.63317 0.0
H1198 H 0.60982 0.9885 0.67278 0.0
S1199 S 0.5085 0.96848 0.71007 0.0
N1200 N 0.51114 0.96847 0.67847 0.0
N1201 N 0.53764 0.97456 0.72137 0.0
C1202 C 0.55104 0.97682 0.69913 0.0
C1203 C 0.53664 0.97369 0.67591 0.0
C1204 C 0.88973 0.24006 0.83448 0.0
C1205 C 0.89408 0.23595 0.8081 0.0
C1206 C 0.91007 0.24527 0.85156 0.0
C1207 C 0.93561 0.24618 0.84299 0.0
H1208 H 0.87039 0.23944 0.84195 0.0
H1209 H 0.90572 0.24835 0.8717 0.0
S1210 S 0.95714 0.23642 0.77562 0.0
N1211 N 0.92567 0.23301 0.77412 0.0
N1212 N 0.964 0.24254 0.80612 0.0
C1213 C 0.9402 0.24199 0.81659 0.0
C1214 C 0.91942 0.23699 0.79917 0.0
C1215 C 0.51497 0.86366 0.44255 0.0
C1216 C 0.48944 0.86772 0.44943 0.0
C1217 C 0.52152 0.84221 0.42791 0.0
C1218 C 0.50283 0.82381 0.41968 0.0
H1219 H 0.53004 0.87725 0.44849 0.0
H1220 H 0.54148 0.84001 0.4232 0.0
S1221 S 0.43314 0.82539 0.4332 0.0
N1222 N 0.44538 0.85149 0.44734 0.0
N1223 N 0.4575 0.81122 0.41971 0.0
C1224 C 0.47715 0.82772 0.4264 0.0
C1225 C 0.4705 0.84965 0.44126 0.0
C1226 C 0.10676 0.2774 0.81016 0.0
C1227 C 0.10395 0.27784 0.78333 0.0
C1228 C 0.08539 0.27428 0.82627 0.0
C1229 C 0.06042 0.27189 0.81614 0.0
H1230 H 0.12564 0.279 0.8187 0.0
H1231 H 0.08849 0.27377 0.84682 0.0
S1232 S 0.04299 0.27308 0.747 0.0
N1233 N 0.07448 0.27646 0.7473 0.0
N1234 N 0.0343 0.27078 0.77737 0.0
C1235 C 0.05742 0.27281 0.78929 0.0
C1236 C 0.07918 0.27572 0.77294 0.0
C1237 C 0.48464 0.65014 0.45223 0.0
C1238 C 0.50909 0.64768 0.46285 0.0
C1239 C 0.47993 0.66907 0.43447 0.0
C1240 C 0.49944 0.68648 0.42669 0.0
H1241 H 0.469 0.63722 0.45762 0.0
H1242 H 0.46072 0.67009 0.42695 0.0
S1243 S 0.56685 0.68835 0.44934 0.0
N1244 N 0.55302 0.66435 0.46469 0.0
N1245 N 0.54434 0.6999 0.43123 0.0
C1246 C 0.52407 0.68416 0.43716 0.0
C1247 C 0.52885 0.66477 0.45521 0.0
C1248 C 0.89986 0.74682 0.6974 0.0
C1249 C 0.89754 0.77047 0.71011 0.0
C1250 C 0.91944 0.74288 0.6796 0.0
C1251 C 0.93766 0.76237 0.67386 0.0
H1252 H 0.8864 0.73118 0.70125 0.0
H1253 H 0.9204 0.72421 0.67052 0.0
S1254 S 0.93987 0.82797 0.70198 0.0
N1255 N 0.91493 0.81374 0.7158 0.0
N1256 N 0.95176 0.80649 0.68223 0.0
C1257 C 0.93536 0.78628 0.68625 0.0
C1258 C 0.91529 0.79029 0.70435 0.0
C1259 C 0.0281 0.85306 0.55015 0.0
C1260 C 0.00871 0.86971 0.5441 0.0
C1261 C 0.02375 0.83341 0.56767 0.0
C1262 C 0.99984 0.82969 0.57979 0.0
H1263 H 0.04657 0.85486 0.54083 0.0
H1264 H 0.03912 0.82077 0.57133 0.0
S1265 S 0.9437 0.87006 0.57251 0.0
N1266 N 0.96547 0.88258 0.55307 0.0
N1267 N 0.95713 0.84563 0.58572 0.0
C1268 C 0.98057 0.84677 0.57444 0.0
C1269 C 0.98504 0.86676 0.55668 0.0
C1270 C 0.07683 0.74373 0.73133 0.0
C1271 C 0.10165 0.74251 0.72119 0.0
C1272 C 0.0556 0.74585 0.71526 0.0
C1273 C 0.05838 0.74722 0.68842 0.0
H1274 H 0.07381 0.743 0.75189 0.0
H1275 H 0.03689 0.74688 0.72405 0.0
S1276 S 0.11948 0.74457 0.65235 0.0
N1277 N 0.12795 0.74251 0.68276 0.0
N1278 N 0.08808 0.74672 0.65242 0.0
C1279 C 0.08315 0.74584 0.67802 0.0
C1280 C 0.10476 0.74338 0.69442 0.0
C1281 C 0.0146 0.65565 0.56114 0.0
C1282 C 0.98922 0.65156 0.55274 0.0
C1283 C 0.02204 0.67731 0.57587 0.0
C1284 C 0.00439 0.69584 0.58272 0.0
H1285 H 0.02881 0.64178 0.55661 0.0
H1286 H 0.04178 0.67942 0.58201 0.0
S1287 S 0.93575 0.69465 0.56415 0.0
N1288 N 0.94661 0.66822 0.55132 0.0
N1289 N 0.96036 0.70885 0.57914 0.0
C1290 C 0.97894 0.69208 0.57413 0.0
C1291 C 0.97141 0.66998 0.55914 0.0
C1292 C 0.79076 0.93042 0.21137 0.0
C1293 C 0.78734 0.91489 0.23285 0.0
C1294 C 0.80754 0.95185 0.21218 0.0
C1295 C 0.82181 0.95845 0.23442 0.0
H1296 H 0.78015 0.92611 0.19385 0.0
H1297 H 0.8094 0.96323 0.19513 0.0
S1298 S 0.82013 0.92346 0.29571 0.0
N1299 N 0.79977 0.90718 0.27685 0.0
N1300 N 0.8314 0.94743 0.27851 0.0
C1301 C 0.81866 0.94293 0.25603 0.0
C1302 C 0.80138 0.9212 0.25523 0.0
C1303 C 0.799 0.10513 0.25553 0.0
C1304 C 0.78411 0.10926 0.27758 0.0
C1305 C 0.81611 0.08527 0.25424 0.0
C1306 C 0.81865 0.06856 0.27481 0.0
H1307 H 0.79764 0.11756 0.23929 0.0
H1308 H 0.82722 0.08285 0.23687 0.0
S1309 S 0.78339 0.07115 0.33668 0.0
N1310 N 0.77265 0.09505 0.32027 0.0
N1311 N 0.80459 0.0576 0.31792 0.0
C1312 C 0.80366 0.07245 0.29691 0.0
C1313 C 0.78647 0.09283 0.29829 0.0
C1314 C 0.37039 0.92211 0.98236 0.0
C1315 C 0.36845 0.94871 0.98347 0.0
C1316 C 0.3495 0.90578 0.98834 0.0
C1317 C 0.32576 0.91538 0.99567 0.0
H1318 H 0.38831 0.91381 0.97702 0.0
H1319 H 0.35207 0.88545 0.98722 0.0
S1320 S 0.31041 0.98375 1.00039 0.0
N1321 N 0.34071 0.984 0.99156 0.0
N1322 N 0.3015 0.95346 0.00312 0.0
C1323 C 0.32355 0.94202 0.99678 0.0
C1324 C 0.34486 0.95863 0.99063 0.0
C1325 C 0.20835 0.40756 0.3025 0.0
C1326 C 0.21298 0.39287 0.28025 0.0
C1327 C 0.19128 0.42748 0.3022 0.0
C1328 C 0.17804 0.43341 0.27966 0.0
H1329 H 0.21844 0.404 0.32016 0.0
H1330 H 0.18869 0.43846 0.31977 0.0
S1331 S 0.18205 0.39907 0.21674 0.0
N1332 N 0.20197 0.38448 0.23549 0.0
N1333 N 0.16999 0.42187 0.23473 0.0
C1334 C 0.18208 0.41836 0.25741 0.0
C1335 C 0.19951 0.39814 0.25775 0.0
C1336 C 0.16155 0.06088 0.46112 0.0
C1337 C 0.15055 0.05158 0.48394 0.0
C1338 C 0.18249 0.07835 0.46167 0.0
C1339 C 0.1935 0.08699 0.48505 0.0
H1340 H 0.1541 0.0544 0.44261 0.0
H1341 H 0.19035 0.0848 0.44358 0.0
S1342 S 0.17091 0.06997 0.55027 0.0
N1343 N 0.15138 0.05359 0.53065 0.0
N1344 N 0.19125 0.08577 0.53166 0.0
C1345 C 0.18265 0.078 0.50803 0.0
C1346 C 0.1611 0.06045 0.50748 0.0
C1347 C 0.71028 0.09806 0.73293 0.0
C1348 C 0.70065 0.12194 0.72742 0.0
C1349 C 0.69384 0.07693 0.7375 0.0
C1350 C 0.66706 0.07883 0.7368 0.0
H1351 H 0.73073 0.09556 0.73328 0.0
H1352 H 0.70226 0.05891 0.74136 0.0
S1353 S 0.63225 0.13778 0.72513 0.0
N1354 N 0.66275 0.14671 0.72293 0.0
N1355 N 0.63176 0.10708 0.73127 0.0
C1356 C 0.6572 0.10279 0.73175 0.0
C1357 C 0.67399 0.12429 0.72711 0.0
C1358 C 0.37455 0.06806 0.49905 0.0
C1359 C 0.37416 0.05562 0.52269 0.0
C1360 C 0.35531 0.08465 0.49255 0.0
C1361 C 0.33474 0.08915 0.50929 0.0
H1362 H 0.39008 0.06526 0.48565 0.0
H1363 H 0.35656 0.0939 0.47418 0.0
S1364 S 0.32454 0.0603 0.57322 0.0
N1365 N 0.35136 0.04832 0.56264 0.0
N1366 N 0.31512 0.07931 0.55053 0.0
C1367 C 0.33401 0.07649 0.5329 0.0
C1368 C 0.35374 0.05981 0.53957 0.0
C1369 C 0.65141 0.45322 0.52552 0.0
C1370 C 0.65351 0.47955 0.52118 0.0
C1371 C 0.67259 0.4378 0.52266 0.0
C1372 C 0.69669 0.4481 0.5153 0.0
H1373 H 0.63313 0.44435 0.53062 0.0
H1374 H 0.66988 0.41756 0.52576 0.0
S1375 S 0.71284 0.51648 0.50437 0.0
N1376 N 0.68203 0.51559 0.5112 0.0
N1377 N 0.72168 0.48673 0.50548 0.0
C1378 C 0.69917 0.47456 0.51161 0.0
C1379 C 0.67764 0.49023 0.51462 0.0
C1380 C 0.76165 0.31022 0.4086 0.0
C1381 C 0.73686 0.29969 0.40439 0.0
C1382 C 0.76673 0.32801 0.42849 0.0
C1383 C 0.74727 0.33597 0.44515 0.0
H1384 H 0.77732 0.30461 0.39639 0.0
H1385 H 0.78623 0.33535 0.4309 0.0
S1386 S 0.67892 0.31409 0.44214 0.0
N1387 N 0.69254 0.29845 0.41831 0.0
N1388 N 0.70195 0.33202 0.45576 0.0
C1389 C 0.72225 0.32579 0.44095 0.0
C1390 C 0.71708 0.30768 0.42055 0.0
C1391 C 0.54073 0.02808 0.83409 0.0
C1392 C 0.55305 0.02742 0.85801 0.0
C1393 C 0.5544 0.02509 0.81112 0.0
C1394 C 0.58082 0.02091 0.81125 0.0
H1395 H 0.52046 0.03146 0.83311 0.0
H1396 H 0.54412 0.02602 0.79313 0.0
S1397 S 0.62164 0.01648 0.86919 0.0
N1398 N 0.59286 0.0217 0.88068 0.0
N1399 N 0.61861 0.01569 0.83761 0.0
C1400 C 0.59323 0.01968 0.83516 0.0
C1401 C 0.57934 0.02307 0.85851 0.0
C1402 C 0.27468 0.20843 0.42009 0.0
C1403 C 0.27654 0.20196 0.39385 0.0
C1404 C 0.27362 0.18965 0.43881 0.0
C1405 C 0.27428 0.16355 0.4321 0.0
H1406 H 0.27429 0.22823 0.42624 0.0
H1407 H 0.27222 0.19574 0.45874 0.0
S1408 S 0.27805 0.1366 0.36574 0.0
N1409 N 0.27825 0.1677 0.36192 0.0
N1410 N 0.27647 0.13233 0.39703 0.0
C1411 C 0.27607 0.15683 0.40584 0.0
C1412 C 0.27717 0.17602 0.38677 0.0
C1413 C 0.44776 0.51367 0.85432 0.0
C1414 C 0.45963 0.49091 0.85991 0.0
C1415 C 0.43124 0.51516 0.83326 0.0
C1416 C 0.42608 0.49397 0.81679 0.0
H1417 H 0.45122 0.5305 0.8664 0.0
H1418 H 0.4227 0.53319 0.82976 0.0
S1419 S 0.45286 0.42993 0.82297 0.0
N1420 N 0.46545 0.44679 0.84724 0.0
N1421 N 0.43434 0.44938 0.80775 0.0
C1422 C 0.43779 0.47101 0.82229 0.0
C1423 C 0.45455 0.46952 0.84382 0.0
C1424 C 0.7365 0.73694 0.07297 0.0
C1425 C 0.7342 0.72748 0.09794 0.0
C1426 C 0.73986 0.72059 0.05177 0.0
C1427 C 0.74134 0.69411 0.05471 0.0
H1428 H 0.73568 0.7572 0.06978 0.0
H1429 H 0.7417 0.7289 0.03297 0.0
S1430 S 0.73625 0.65984 0.1163 0.0
N1431 N 0.73346 0.69009 0.12457 0.0
N1432 N 0.7398 0.6592 0.08478 0.0
C1433 C 0.73882 0.68438 0.07964 0.0
C1434 C 0.73521 0.70108 0.10122 0.0
C1435 C 0.97982 0.0178 0.17697 0.0
C1436 C 0.96932 0.0208 0.15241 0.0
C1437 C 0.96422 0.01575 0.19874 0.0
C1438 C 0.93743 0.01671 0.19692 0.0
H1439 H 1.00035 0.01728 0.17946 0.0
H1440 H 0.97334 0.01359 0.21719 0.0
S1441 S 0.90028 0.0231 0.13679 0.0
N1442 N 0.93041 0.02364 0.12733 0.0
N1443 N 0.90102 0.02023 0.1683 0.0
C1444 C 0.92663 0.01963 0.17243 0.0
C1445 C 0.94257 0.0216 0.1502 0.0
C1446 C 0.27379 0.82093 0.1167 0.0
C1447 C 0.27706 0.79453 0.11457 0.0
C1448 C 0.27005 0.83555 0.09485 0.0
C1449 C 0.26988 0.82438 0.07002 0.0
H1450 H 0.27393 0.8303 0.13543 0.0
H1451 H 0.26763 0.85581 0.09744 0.0
S1452 S 0.27795 0.75589 0.05422 0.0
N1453 N 0.28007 0.75781 0.08583 0.0
N1454 N 0.27317 0.78511 0.04478 0.0
C1455 C 0.27318 0.79795 0.06771 0.0
C1456 C 0.27672 0.78308 0.08996 0.0
C1457 C 0.06844 0.47617 0.15135 0.0
C1458 C 0.04166 0.47698 0.14981 0.0
C1459 C 0.08131 0.48055 0.17475 0.0
C1460 C 0.0679 0.48595 0.19757 0.0
H1461 H 0.07961 0.47248 0.13425 0.0
H1462 H 0.10197 0.47993 0.17484 0.0
S1463 S 0.99734 0.48843 0.20411 0.0
N1464 N 0.00201 0.48218 0.17331 0.0
N1465 N 0.02609 0.49079 0.2172 0.0
C1466 C 0.04104 0.4865 0.19632 0.0
C1467 C 0.02796 0.48194 0.1725 0.0
C1468 C 0.38378 0.73041 0.33453 0.0
C1469 C 0.38763 0.72718 0.30797 0.0
C1470 C 0.40428 0.73674 0.35109 0.0
C1471 C 0.42946 0.73964 0.34178 0.0
H1472 H 0.36472 0.72831 0.34251 0.0
H1473 H 0.40033 0.73914 0.3714 0.0
S1474 S 0.44963 0.73269 0.27368 0.0
N1475 N 0.41836 0.7271 0.27302 0.0
N1476 N 0.45701 0.73869 0.30409 0.0
C1477 C 0.43357 0.73624 0.31521 0.0
C1478 C 0.41262 0.73013 0.29832 0.0
C1479 C 0.98725 0.34606 0.95271 0.0
C1480 C 0.98521 0.37075 0.94326 0.0
C1481 C 0.99252 0.32545 0.93625 0.0
C1482 C 0.99608 0.32872 0.90967 0.0
H1483 H 0.98425 0.34254 0.97294 0.0
H1484 H 0.99357 0.30676 0.94447 0.0
S1485 S 0.99464 0.39016 0.87573 0.0
N1486 N 0.98856 0.39769 0.90599 0.0
N1487 N 0.99829 0.35911 0.87496 0.0
C1488 C 0.99459 0.3535 0.90009 0.0
C1489 C 0.9892 0.37445 0.91688 0.0
C1490 C 0.5752 0.77481 0.27434 0.0
C1491 C 0.60007 0.77668 0.28457 0.0
C1492 C 0.55377 0.77206 0.29033 0.0
C1493 C 0.55636 0.77073 0.31718 0.0
H1494 H 0.57228 0.77561 0.25379 0.0
H1495 H 0.53504 0.7706 0.28145 0.0
S1496 S 0.61754 0.7747 0.35347 0.0
N1497 N 0.62623 0.77711 0.3231 0.0
N1498 N 0.586 0.77178 0.35327 0.0
C1499 C 0.5812 0.77266 0.32767 0.0
C1500 C 0.60302 0.77572 0.31135 0.0
C1501 C 0.98966 0.14988 0.95009 0.0
C1502 C 0.01409 0.14633 0.96033 0.0
C1503 C 0.98534 0.16962 0.93314 0.0
C1504 C 0.00526 0.18674 0.92574 0.0
H1505 H 0.97369 0.13726 0.95523 0.0
H1506 H 0.9661 0.17151 0.92595 0.0
S1507 S 0.07285 0.18577 0.94748 0.0
N1508 N 0.05848 0.16161 0.96213 0.0
N1509 N 0.05055 0.19862 0.9301 0.0
C1510 C 0.0299 0.18324 0.93569 0.0
C1511 C 0.03427 0.16306 0.95298 0.0
C1512 C 0.42082 0.27031 0.21002 0.0
C1513 C 0.39496 0.27276 0.20364 0.0
C1514 C 0.43958 0.26859 0.19095 0.0
C1515 C 0.43324 0.26906 0.16466 0.0
H1516 H 0.42662 0.26976 0.22997 0.0
H1517 H 0.4592 0.26658 0.19696 0.0
S1518 S 0.36797 0.27503 0.13793 0.0
N1519 N 0.36379 0.27547 0.16935 0.0
N1520 N 0.39899 0.27235 0.13338 0.0
C1521 C 0.40739 0.27171 0.15804 0.0
C1522 C 0.38829 0.27356 0.17754 0.0
C1523 C 0.51548 0.37295 0.07503 0.0
C1524 C 0.51406 0.36685 0.04864 0.0
C1525 C 0.51363 0.35394 0.0935 0.0
C1526 C 0.51046 0.32802 0.08633 0.0
H1527 H 0.51783 0.39263 0.08148 0.0
H1528 H 0.51478 0.35969 0.11357 0.0
S1529 S 0.50653 0.30205 0.01943 0.0
N1530 N 0.50995 0.33316 0.01611 0.0
N1531 N 0.50633 0.29735 0.05068 0.0
C1532 C 0.50912 0.32168 0.0599 0.0
C1533 C 0.51093 0.34109 0.04111 0.0
C1534 C 0.58845 0.21668 0.21151 0.0
C1535 C 0.60512 0.23808 0.21513 0.0
C1536 C 0.56776 0.21711 0.19446 0.0
C1537 C 0.56309 0.23886 0.18011 0.0
H1538 H 0.59115 0.1996 0.22231 0.0
H1539 H 0.5553 0.20023 0.19262 0.0
S1540 S 0.60208 0.2995 0.1818 0.0
N1541 N 0.61625 0.2813 0.20249 0.0
N1542 N 0.57748 0.28222 0.17029 0.0
C1543 C 0.57999 0.26026 0.18321 0.0
C1544 C 0.60092 0.25986 0.20079 0.0
C1545 C 0.5175 0.1469 0.06187 0.0
C1546 C 0.49196 0.1408 0.05501 0.0
C1547 C 0.5241 0.1691 0.07615 0.0
C1548 C 0.50543 0.18613 0.08416 0.0
H1549 H 0.53253 0.13433 0.05625 0.0
H1550 H 0.54405 0.1729 0.08091 0.0
S1551 S 0.43582 0.17939 0.07014 0.0
N1552 N 0.44797 0.15394 0.05652 0.0
N1553 N 0.46019 0.19545 0.08363 0.0
C1554 C 0.47975 0.18021 0.07743 0.0
C1555 C 0.47307 0.15762 0.06282 0.0
C1556 C 0.30098 0.42592 0.75138 0.0
C1557 C 0.28754 0.41961 0.72863 0.0
C1558 C 0.31802 0.44717 0.75284 0.0
C1559 C 0.32209 0.46311 0.73167 0.0
H1560 H 0.29858 0.41412 0.76809 0.0
H1561 H 0.32798 0.45114 0.7708 0.0
S1562 S 0.29061 0.45519 0.66789 0.0
N1563 N 0.27878 0.43119 0.68469 0.0
N1564 N 0.31074 0.47112 0.68728 0.0
C1565 C 0.3085 0.45709 0.70885 0.0
C1566 C 0.29128 0.43535 0.70736 0.0
C1567 C 0.31017 0.61657 0.7724 0.0
C1568 C 0.28354 0.61302 0.77506 0.0
C1569 C 0.32608 0.59569 0.77088 0.0
C1570 C 0.31596 0.57054 0.77246 0.0
H1571 H 0.31871 0.63562 0.77117 0.0
H1572 H 0.34648 0.59932 0.7687 0.0
S1573 S 0.24735 0.55129 0.7801 0.0
N1574 N 0.24772 0.58269 0.77954 0.0
N1575 N 0.27745 0.54345 0.77698 0.0
C1576 C 0.28932 0.56683 0.77539 0.0
C1577 C 0.27316 0.58807 0.77659 0.0
C1578 C 0.85883 0.45246 0.51961 0.0
C1579 C 0.86323 0.45796 0.49362 0.0
C1580 C 0.83672 0.43878 0.52738 0.0
C1581 C 0.81804 0.43004 0.50948 0.0
H1582 H 0.87269 0.45869 0.5341 0.0
H1583 H 0.83435 0.43503 0.54763 0.0
S1584 S 0.82005 0.4403 0.43909 0.0
N1585 N 0.8468 0.45427 0.45002 0.0
N1586 N 0.80537 0.42833 0.46444 0.0
C1587 C 0.82222 0.43543 0.48336 0.0
C1588 C 0.84477 0.4494 0.47549 0.0
C1589 C 0.70975 0.91234 0.75599 0.0
C1590 C 0.72234 0.90612 0.77872 0.0
C1591 C 0.69339 0.93282 0.75538 0.0
C1592 C 0.68913 0.94807 0.77743 0.0
H1593 H 0.71235 0.9011 0.73857 0.0
H1594 H 0.68413 0.93676 0.73737 0.0
S1595 S 0.71834 0.94004 0.84166 0.0
N1596 N 0.73001 0.91703 0.82368 0.0
N1597 N 0.69927 0.95547 0.8227 0.0
C1598 C 0.70178 0.94207 0.8003 0.0
C1599 C 0.71834 0.92112 0.8009 0.0
C1600 C 0.64191 0.57996 0.99341 0.0
C1601 C 0.64691 0.55395 0.99119 0.0
C1602 C 0.66185 0.59837 0.99661 0.0
C1603 C 0.68757 0.59146 0.99735 0.0
H1604 H 0.62238 0.58609 0.99317 0.0
H1605 H 0.657 0.61816 0.99852 0.0
S1606 S 0.71069 0.52568 0.99106 0.0
N1607 N 0.67926 0.52213 0.98907 0.0
N1608 N 0.71685 0.55657 0.99489 0.0
C1609 C 0.6928 0.56545 0.99462 0.0
C1610 C 0.67245 0.54674 0.99162 0.0
C1611 C 0.19975 0.5825 0.20302 0.0
C1612 C 0.20384 0.59994 0.22358 0.0
C1613 C 0.18545 0.55967 0.20623 0.0
C1614 C 0.17449 0.55339 0.23011 0.0
H1615 H 0.20791 0.58639 0.18432 0.0
H1616 H 0.18295 0.54691 0.18975 0.0
S1617 S 0.17897 0.59319 0.28989 0.0
N1618 N 0.19538 0.60981 0.26848 0.0
N1619 N 0.16857 0.56692 0.27468 0.0
C1620 C 0.17836 0.57079 0.25084 0.0
C1621 C 0.19303 0.59402 0.24754 0.0
C1622 C 0.86749 0.56618 0.99255 0.0
C1623 C 0.8702 0.55726 0.01764 0.0
C1624 C 0.84703 0.5812 0.98595 0.0
C1625 C 0.82843 0.58791 0.00417 0.0
H1626 H 0.88142 0.56168 0.97793 0.0
H1627 H 0.84586 0.58763 0.96637 0.0
S1628 S 0.82616 0.56815 0.07228 0.0
N1629 N 0.85208 0.55529 0.06055 0.0
N1630 N 0.81383 0.58376 0.04837 0.0
C1631 C 0.8309 0.57899 0.02936 0.0
C1632 C 0.85171 0.56363 0.03603 0.0
C1633 C 0.17707 0.98225 0.01022 0.0
C1634 C 0.15275 0.97158 0.01609 0.0
C1635 C 0.19857 0.96721 0.00863 0.0
C1636 C 0.1967 0.94085 0.01297 0.0
H1637 H 0.17962 0.00251 0.00714 0.0
H1638 H 0.21685 0.97645 0.00419 0.0
S1639 S 0.13706 0.90326 0.02747 0.0
N1640 N 0.1278 0.93277 0.02504 0.0
N1641 N 0.16826 0.90455 0.02258 0.0
C1642 C 0.17245 0.92986 0.01872 0.0
C1643 C 0.15049 0.9452 0.02016 0.0
loop_
_geom_bond_atom_site_label_1
_geom_bond_atom_site_label_2
_geom_bond_distance
_geom_bond_site_symmetry_2
_ccdc_geom_bond_type
C0 C1 1.391 . S
C0 C4 1.391 . S
C0 H42 0.948 . S
C1 C0 1.391 . S
C1 C2 1.391 . S
C2 C1 1.391 . S
C2 H58 0.947 1_455 S
C2 C59 1.392 1_556 S
C3 C4 1.391 1_554 S
C3 C7 1.397 . S
C3 C59 1.419 . S
C4 C0 1.391 . S
C4 C3 1.391 1_556 S
C4 C5 1.399 . S
C5 C4 1.399 . S
C5 C8 1.396 1_556 S
C5 C17 1.453 . S
C5 C18 1.684 . S
H6 C30 0.948 . S
C7 C3 1.397 . S
C7 C8 1.394 . S
C7 C26 1.723 . S
C8 C5 1.396 1_554 S
C8 C7 1.394 . S
C8 C38 1.723 . S
H9 C32 0.948 1_556 S
H10 C33 0.948 1_556 S
H11 C39 0.982 . S
H12 C40 0.979 . S
H13 C40 0.980 . S
H14 C40 0.983 . S
H15 C39 0.979 1_565 S
H16 C39 0.977 . S
C17 C5 1.453 . S
C17 H46 0.982 1_556 S
C17 H47 0.979 . S
C17 H48 0.977 . S
C18 C5 1.684 . S
C18 H43 0.979 . S
C18 H44 0.980 . S
C18 H45 0.983 . S
C19 C20 1.391 . S
C19 C24 1.391 . S
C19 H49 0.948 . S
C20 C19 1.391 . S
C20 C21 1.391 . S
C21 C20 1.391 . S
C21 C22 1.392 1_655 S
C21 H50 0.947 1_545 S
C22 C21 1.392 1_455 S
C22 C23 1.419 . S
C22 H51 0.948 1_545 S
C23 C22 1.419 . S
C23 C24 1.391 1_455 S
C23 C27 1.397 . S
C24 C19 1.391 . S
C24 C23 1.391 1_655 S
C24 C25 1.399 . S
C25 C24 1.399 . S
C25 C26 1.396 1_655 S
C25 C28 1.453 . S
C25 C29 1.684 . S
C26 C7 1.723 . S
C26 C25 1.396 1_455 S
C26 C27 1.394 . S
C27 C23 1.397 . S
C27 C26 1.394 . S
C27 C37 1.723 . S
C28 C25 1.453 . S
C28 H52 0.982 1_655 S
C28 H53 0.979 . S
C28 H54 0.977 . S
C29 C25 1.684 . S
C29 H55 0.979 . S
C29 H56 0.980 . S
C29 H57 0.983 . S
C30 H6 0.948 . S
C30 C31 1.391 . S
C30 C35 1.391 . S
C31 C30 1.391 . S
C31 C32 1.379 1_565 S
C32 H9 0.948 1_554 S
C32 C31 1.379 1_545 S
C32 C33 1.403 . S
C33 H10 0.948 1_554 S
C33 C32 1.403 . S
C33 C34 1.419 . S
C34 C33 1.419 . S
C34 C35 1.391 1_545 S
C34 C38 1.397 . S
C35 C30 1.391 . S
C35 C34 1.391 1_565 S
C35 C36 1.399 . S
C36 C35 1.399 . S
C36 C37 1.396 1_565 S
C36 C39 1.453 1_565 S
C36 C40 1.684 . S
C37 C27 1.723 . S
C37 C36 1.396 1_545 S
C37 C38 1.394 . S
C38 C8 1.723 . S
C38 C34 1.397 . S
C38 C37 1.394 . S
C39 H11 0.982 . S
C39 H15 0.979 1_545 S
C39 H16 0.977 . S
C39 C36 1.453 1_545 S
C40 H12 0.979 . S
C40 H13 0.980 . S
C40 H14 0.983 . S
C40 C36 1.684 . S
H41 C59 0.948 1_655 S
H42 C0 0.948 . S
H43 C18 0.979 . S
H44 C18 0.980 . S
H45 C18 0.983 . S
H46 C17 0.982 1_554 S
H47 C17 0.979 . S
H48 C17 0.977 . S
H49 C19 0.948 . S
H50 C21 0.947 1_565 S
H51 C22 0.948 1_565 S
H52 C28 0.982 1_455 S
H53 C28 0.979 . S
H54 C28 0.977 . S
H55 C29 0.979 . S
H56 C29 0.980 . S
H57 C29 0.983 . S
H58 C2 0.947 1_655 S
C59 C2 1.392 1_554 S
C59 C3 1.419 . S
C59 H41 0.948 1_455 S
C60 C61 1.391 . S
C60 C64 1.391 . S
C60 H102 0.948 . S
C61 C60 1.391 . S
C61 C62 1.391 . S
C62 C61 1.391 . S
C62 H118 0.947 . S
C62 C119 1.392 . S
C63 C64 1.391 . S
C63 C67 1.397 . S
C63 C119 1.419 . S
C64 C60 1.391 . S
C64 C63 1.391 . S
C64 C65 1.399 . S
C65 C64 1.399 . S
C65 C68 1.396 . S
C65 C77 1.453 . S
C65 C78 1.684 . S
H66 C90 0.948 . S
C67 C63 1.397 . S
C67 C68 1.394 . S
C67 C86 1.723 . S
C68 C65 1.396 . S
C68 C67 1.394 . S
C68 C98 1.723 . S
H69 C92 0.947 . S
H70 C93 0.948 . S
H71 C99 0.982 . S
H72 C100 0.979 . S
H73 C100 0.980 . S
H74 C100 0.983 . S
H75 C99 0.979 . S
H76 C99 0.977 . S
C77 C65 1.453 . S
C77 H106 0.982 . S
C77 H107 0.979 . S
C77 H108 0.977 . S
C78 C65 1.684 . S
C78 H103 0.979 . S
C78 H104 0.980 . S
C78 H105 0.983 . S
C79 C80 1.391 . S
C79 C84 1.391 . S
C79 H109 0.948 . S
C80 C79 1.391 . S
C80 C81 1.391 . S
C81 C80 1.391 . S
C81 C82 1.392 . S
C81 H110 0.947 . S
C82 C81 1.392 . S
C82 C83 1.419 . S
C82 H111 0.948 . S
C83 C82 1.419 . S
C83 C84 1.391 . S
C83 C87 1.397 . S
C84 C79 1.391 . S
C84 C83 1.391 . S
C84 C85 1.399 . S
C85 C84 1.399 . S
C85 C86 1.396 . S
C85 C88 1.453 . S
C85 C89 1.684 . S
C86 C67 1.723 . S
C86 C85 1.396 . S
C86 C87 1.394 . S
C87 C83 1.397 . S
C87 C86 1.394 . S
C87 C97 1.723 . S
C88 C85 1.453 . S
C88 H112 0.982 . S
C88 H113 0.979 . S
C88 H114 0.977 . S
C89 C85 1.684 . S
C89 H115 0.979 . S
C89 H116 0.980 . S
C89 H117 0.983 . S
C90 H66 0.948 . S
C90 C91 1.391 . S
C90 C95 1.391 . S
C91 C90 1.391 . S
C91 C92 1.391 . S
C92 H69 0.947 . S
C92 C91 1.391 . S
C92 C93 1.392 . S
C93 H70 0.948 . S
C93 C92 1.392 . S
C93 C94 1.419 . S
C94 C93 1.419 . S
C94 C95 1.391 . S
C94 C98 1.397 . S
C95 C90 1.391 . S
C95 C94 1.391 . S
C95 C96 1.399 . S
C96 C95 1.399 . S
C96 C97 1.396 . S
C96 C99 1.453 . S
C96 C100 1.684 . S
C97 C87 1.723 . S
C97 C96 1.396 . S
C97 C98 1.394 . S
C98 C68 1.723 . S
C98 C94 1.397 . S
C98 C97 1.394 . S
C99 H71 0.982 . S
C99 H75 0.979 . S
C99 H76 0.977 . S
C99 C96 1.453 . S
C100 H72 0.979 . S
C100 H73 0.980 . S
C100 H74 0.983 . S
C100 C96 1.684 . S
H101 C119 0.948 . S
H102 C60 0.948 . S
H103 C78 0.979 . S
H104 C78 0.980 . S
H105 C78 0.983 . S
H106 C77 0.982 . S
H107 C77 0.979 . S
H108 C77 0.977 . S
H109 C79 0.948 . S
H110 C81 0.947 . S
H111 C82 0.948 . S
H112 C88 0.982 . S
H113 C88 0.979 . S
H114 C88 0.977 . S
H115 C89 0.979 . S
H116 C89 0.980 . S
H117 C89 0.983 . S
H118 C62 0.947 . S
C119 C62 1.392 . S
C119 C63 1.419 . S
C119 H101 0.948 . S
C120 C121 1.391 . S
C120 C124 1.366 1_556 S
C120 H162 0.948 1_655 S
C121 C120 1.391 . S
C121 C122 1.391 . S
C122 C121 1.391 . S
C122 H178 0.947 . S
C122 C179 1.392 . S
C123 C124 1.384 1_556 S
C123 C127 1.397 1_556 S
C123 C179 1.419 . S
C124 C120 1.366 1_554 S
C124 C123 1.384 1_554 S
C124 C125 1.438 1_655 S
C125 C124 1.438 1_455 S
C125 C128 1.396 1_455 S
C125 C137 1.453 . S
C125 C138 1.684 . S
H126 C150 0.948 . S
C127 C123 1.397 1_554 S
C127 C128 1.394 . S
C127 C146 1.723 . S
C128 C125 1.396 1_655 S
C128 C127 1.394 . S
C128 C158 1.723 . S
H129 C152 0.947 . S
H130 C153 0.948 . S
H131 C159 0.982 . S
H132 C160 0.979 . S
H133 C160 0.980 . S
H134 C160 0.983 . S
H135 C159 0.979 . S
H136 C159 0.977 . S
C137 C125 1.453 . S
C137 H166 0.982 1_455 S
C137 H167 0.979 . S
C137 H168 0.977 . S
C138 C125 1.684 . S
C138 H163 0.979 . S
C138 H164 0.980 . S
C138 H165 0.983 . S
C139 C140 1.391 . S
C139 C144 1.391 . S
C139 H169 0.948 1_554 S
C140 C139 1.391 . S
C140 C141 1.391 . S
C141 C140 1.391 . S
C141 C142 1.392 . S
C141 H170 0.947 . S
C142 C141 1.392 . S
C142 C143 1.419 . S
C142 H171 0.948 . S
C143 C142 1.419 . S
C143 C144 1.391 . S
C143 C147 1.397 . S
C144 C139 1.391 . S
C144 C143 1.391 . S
C144 C145 1.390 1_554 S
C145 C144 1.390 1_556 S
C145 C146 1.382 1_556 S
C145 C148 1.456 . S
C145 C149 1.707 . S
C146 C127 1.723 . S
C146 C145 1.382 1_554 S
C146 C147 1.394 . S
C147 C143 1.397 . S
C147 C146 1.394 . S
C147 C157 1.723 . S
C148 C145 1.456 . S
C148 H172 0.982 1_556 S
C148 H173 0.979 . S
C148 H174 0.977 . S
C149 C145 1.707 . S
C149 H175 0.979 . S
C149 H176 0.980 . S
C149 H177 0.983 . S
C150 H126 0.948 . S
C150 C151 1.391 . S
C150 C155 1.391 . S
C151 C150 1.391 . S
C151 C152 1.391 . S
C152 H129 0.947 . S
C152 C151 1.391 . S
C152 C153 1.392 . S
C153 H130 0.948 . S
C153 C152 1.392 . S
C153 C154 1.419 . S
C154 C153 1.419 . S
C154 C155 1.391 . S
C154 C158 1.397 1_455 S
C155 C150 1.391 . S
C155 C154 1.391 . S
C155 C156 1.399 1_455 S
C156 C155 1.399 1_655 S
C156 C157 1.396 . S
C156 C159 1.453 . S
C156 C160 1.684 . S
C157 C147 1.723 . S
C157 C156 1.396 . S
C157 C158 1.394 . S
C158 C128 1.723 . S
C158 C154 1.397 1_655 S
C158 C157 1.394 . S
C159 H131 0.982 . S
C159 H135 0.979 . S
C159 H136 0.977 . S
C159 C156 1.453 . S
C160 H132 0.979 . S
C160 H133 0.980 . S
C160 H134 0.983 . S
C160 C156 1.684 . S
H161 C179 0.948 . S
H162 C120 0.948 1_455 S
H163 C138 0.979 . S
H164 C138 0.980 . S
H165 C138 0.983 . S
H166 C137 0.982 1_655 S
H167 C137 0.979 . S
H168 C137 0.977 . S
H169 C139 0.948 1_556 S
H170 C141 0.947 . S
H171 C142 0.948 . S
H172 C148 0.982 1_554 S
H173 C148 0.979 . S
H174 C148 0.977 . S
H175 C149 0.979 . S
H176 C149 0.980 . S
H177 C149 0.983 . S
H178 C122 0.947 . S
C179 C122 1.392 . S
C179 C123 1.419 . S
C179 H161 0.948 . S
C180 C181 1.391 . S
C180 C184 1.391 . S
C180 H222 0.948 . S
C181 C180 1.391 . S
C181 C182 1.391 . S
C182 C181 1.391 . S
C182 H238 0.947 . S
C182 C239 1.392 . S
C183 C184 1.391 . S
C183 C187 1.397 . S
C183 C239 1.419 . S
C184 C180 1.391 . S
C184 C183 1.391 . S
C184 C185 1.399 . S
C185 C184 1.399 . S
C185 C188 1.396 . S
C185 C197 1.453 . S
C185 C198 1.684 . S
H186 C210 0.948 . S
C187 C183 1.397 . S
C187 C188 1.394 . S
C187 C206 1.723 . S
C188 C185 1.396 . S
C188 C187 1.394 . S
C188 C218 1.723 . S
H189 C212 0.947 . S
H190 C213 0.948 . S
H191 C219 0.982 . S
H192 C220 0.979 . S
H193 C220 0.980 . S
H194 C220 0.983 . S
H195 C219 0.979 . S
H196 C219 0.977 . S
C197 C185 1.453 . S
C197 H226 0.982 . S
C197 H227 0.979 . S
C197 H228 0.977 . S
C198 C185 1.684 . S
C198 H223 0.979 . S
C198 H224 0.980 . S
C198 H225 0.983 . S
C199 C200 1.391 . S
C199 C204 1.391 . S
C199 H229 0.948 . S
C200 C199 1.391 . S
C200 C201 1.391 . S
C201 C200 1.391 . S
C201 C202 1.392 . S
C201 H230 0.947 . S
C202 C201 1.392 . S
C202 C203 1.419 . S
C202 H231 0.948 . S
C203 C202 1.419 . S
C203 C204 1.391 . S
C203 C207 1.397 . S
C204 C199 1.391 . S
C204 C203 1.391 . S
C204 C205 1.399 . S
C205 C204 1.399 . S
C205 C206 1.396 . S
C205 C208 1.453 . S
C205 C209 1.684 . S
C206 C187 1.723 . S
C206 C205 1.396 . S
C206 C207 1.394 . S
C207 C203 1.397 . S
C207 C206 1.394 . S
C207 C217 1.723 . S
C208 C205 1.453 . S
C208 H232 0.982 . S
C208 H233 0.979 . S
C208 H234 0.977 . S
C209 C205 1.684 . S
C209 H235 0.979 . S
C209 H236 0.980 . S
C209 H237 0.983 . S
C210 H186 0.948 . S
C210 C211 1.391 . S
C210 C215 1.391 . S
C211 C210 1.391 . S
C211 C212 1.391 . S
C212 H189 0.947 . S
C212 C211 1.391 . S
C212 C213 1.392 . S
C213 H190 0.948 . S
C213 C212 1.392 . S
C213 C214 1.419 . S
C214 C213 1.419 . S
C214 C215 1.391 . S
C214 C218 1.397 . S
C215 C210 1.391 . S
C215 C214 1.391 . S
C215 C216 1.399 . S
C216 C215 1.399 . S
C216 C217 1.396 . S
C216 C219 1.453 . S
C216 C220 1.684 . S
C217 C207 1.723 . S
C217 C216 1.396 . S
C217 C218 1.394 . S
C218 C188 1.723 . S
C218 C214 1.397 . S
C218 C217 1.394 . S
C219 H191 0.982 . S
C219 H195 0.979 . S
C219 H196 0.977 . S
C219 C216 1.453 . S
C220 H192 0.979 . S
C220 H193 0.980 . S
C220 H194 0.983 . S
C220 C216 1.684 . S
H221 C239 0.948 . S
H222 C180 0.948 . S
H223 C198 0.979 . S
H224 C198 0.980 . S
H225 C198 0.983 . S
H226 C197 0.982 . S
H227 C197 0.979 . S
H228 C197 0.977 . S
H229 C199 0.948 . S
H230 C201 0.947 . S
H231 C202 0.948 . S
H232 C208 0.982 . S
H233 C208 0.979 . S
H234 C208 0.977 . S
H235 C209 0.979 . S
H236 C209 0.980 . S
H237 C209 0.983 . S
H238 C182 0.947 . S
C239 C182 1.392 . S
C239 C183 1.419 . S
C239 H221 0.948 . S
C240 C241 1.391 . S
C240 C244 1.391 . S
C240 H282 0.948 . S
C241 C240 1.391 . S
C241 C242 1.391 . S
C242 C241 1.391 . S
C242 H298 0.947 1_455 S
C242 C299 1.392 . S
C243 C244 1.391 . S
C243 C247 1.397 . S
C243 C299 1.419 . S
C244 C240 1.391 . S
C244 C243 1.391 . S
C244 C245 1.399 . S
C245 C244 1.399 . S
C245 C248 1.396 . S
C245 C257 1.453 . S
C245 C258 1.684 . S
H246 C270 0.948 . S
C247 C243 1.397 . S
C247 C248 1.394 . S
C247 C266 1.723 . S
C248 C245 1.396 . S
C248 C247 1.394 . S
C248 C278 1.723 . S
H249 C272 0.947 . S
H250 C273 0.948 . S
H251 C279 0.982 . S
H252 C280 0.979 . S
H253 C280 0.980 . S
H254 C280 0.983 . S
H255 C279 0.979 . S
H256 C279 0.977 . S
C257 C245 1.453 . S
C257 H286 0.982 . S
C257 H287 0.979 . S
C257 H288 0.977 . S
C258 C245 1.684 . S
C258 H283 0.979 . S
C258 H284 0.980 . S
C258 H285 0.983 . S
C259 C260 1.391 . S
C259 C264 1.391 . S
C259 H289 0.948 . S
C260 C259 1.391 . S
C260 C261 1.391 1_565 S
C261 C260 1.391 1_545 S
C261 C262 1.392 1_655 S
C261 H290 0.947 . S
C262 C261 1.392 1_455 S
C262 C263 1.419 1_545 S
C262 H291 0.948 . S
C263 C262 1.419 1_565 S
C263 C264 1.391 1_455 S
C263 C267 1.397 . S
C264 C259 1.391 . S
C264 C263 1.391 1_655 S
C264 C265 1.399 . S
C265 C264 1.399 . S
C265 C266 1.396 1_655 S
C265 C268 1.453 . S
C265 C269 1.684 . S
C266 C247 1.723 . S
C266 C265 1.396 1_455 S
C266 C267 1.394 . S
C267 C263 1.397 . S
C267 C266 1.394 . S
C267 C277 1.723 . S
C268 C265 1.453 . S
C268 H292 0.982 . S
C268 H293 0.979 . S
C268 H294 0.977 . S
C269 C265 1.684 . S
C269 H295 0.956 1_655 S
C269 H296 0.980 . S
C269 H297 0.983 . S
C270 H246 0.948 . S
C270 C271 1.391 . S
C270 C275 1.391 . S
C271 C270 1.391 . S
C271 C272 1.391 . S
C272 H249 0.947 . S
C272 C271 1.391 . S
C272 C273 1.392 1_545 S
C273 H250 0.948 . S
C273 C272 1.392 1_565 S
C273 C274 1.415 1_565 S
C274 C273 1.415 1_545 S
C274 C275 1.404 . S
C274 C278 1.388 1_545 S
C275 C270 1.391 . S
C275 C274 1.404 . S
C275 C276 1.399 . S
C276 C275 1.399 . S
C276 C277 1.396 1_545 S
C276 C279 1.453 . S
C276 C280 1.684 . S
C277 C267 1.723 . S
C277 C276 1.396 1_565 S
C277 C278 1.394 . S
C278 C248 1.723 . S
C278 C274 1.388 1_565 S
C278 C277 1.394 . S
C279 H251 0.982 . S
C279 H255 0.979 . S
C279 H256 0.977 . S
C279 C276 1.453 . S
C280 H252 0.979 . S
C280 H253 0.980 . S
C280 H254 0.983 . S
C280 C276 1.684 . S
H281 C299 0.948 1_655 S
H282 C240 0.948 . S
H283 C258 0.979 . S
H284 C258 0.980 . S
H285 C258 0.983 . S
H286 C257 0.982 . S
H287 C257 0.979 . S
H288 C257 0.977 . S
H289 C259 0.948 . S
H290 C261 0.947 . S
H291 C262 0.948 . S
H292 C268 0.982 . S
H293 C268 0.979 . S
H294 C268 0.977 . S
H295 C269 0.956 1_455 S
H296 C269 0.980 . S
H297 C269 0.983 . S
H298 C242 0.947 1_655 S
C299 C242 1.392 . S
C299 C243 1.419 . S
C299 H281 0.948 1_455 S
C300 C301 1.391 . S
C300 C304 1.391 . S
C300 H342 0.948 . S
C301 C300 1.391 . S
C301 C302 1.391 . S
C302 C301 1.391 . S
C302 H358 0.947 . S
C302 C359 1.392 . S
C303 C304 1.391 . S
C303 C307 1.397 . S
C303 C359 1.419 . S
C304 C300 1.391 . S
C304 C303 1.391 . S
C304 C305 1.399 . S
C305 C304 1.399 . S
C305 C308 1.396 . S
C305 C317 1.453 . S
C305 C318 1.684 . S
H306 C330 0.948 . S
C307 C303 1.397 . S
C307 C308 1.394 . S
C307 C326 1.723 . S
C308 C305 1.396 . S
C308 C307 1.394 . S
C308 C338 1.723 . S
H309 C332 0.947 . S
H310 C333 0.948 . S
H311 C339 0.982 . S
H312 C340 0.979 . S
H313 C340 0.980 . S
H314 C340 0.983 . S
H315 C339 0.979 . S
H316 C339 0.977 . S
C317 C305 1.453 . S
C317 H346 0.982 . S
C317 H347 0.979 . S
C317 H348 0.977 . S
C318 C305 1.684 . S
C318 H343 0.979 . S
C318 H344 0.980 . S
C318 H345 0.983 . S
C319 C320 1.391 . S
C319 C324 1.391 . S
C319 H349 0.948 . S
C320 C319 1.391 . S
C320 C321 1.391 . S
C321 C320 1.391 . S
C321 C322 1.392 . S
C321 H350 0.947 . S
C322 C321 1.392 . S
C322 C323 1.419 . S
C322 H351 0.948 . S
C323 C322 1.419 . S
C323 C324 1.391 . S
C323 C327 1.397 . S
C324 C319 1.391 . S
C324 C323 1.391 . S
C324 C325 1.399 . S
C325 C324 1.399 . S
C325 C326 1.396 . S
C325 C328 1.453 . S
C325 C329 1.684 . S
C326 C307 1.723 . S
C326 C325 1.396 . S
C326 C327 1.394 . S
C327 C323 1.397 . S
C327 C326 1.394 . S
C327 C337 1.723 . S
C328 C325 1.453 . S
C328 H352 0.982 . S
C328 H353 0.979 . S
C328 H354 0.977 . S
C329 C325 1.684 . S
C329 H355 0.979 . S
C329 H356 0.980 . S
C329 H357 0.983 . S
C330 H306 0.948 . S
C330 C331 1.391 . S
C330 C335 1.391 . S
C331 C330 1.391 . S
C331 C332 1.391 . S
C332 H309 0.947 . S
C332 C331 1.391 . S
C332 C333 1.392 . S
C333 H310 0.948 . S
C333 C332 1.392 . S
C333 C334 1.419 . S
C334 C333 1.419 . S
C334 C335 1.391 . S
C334 C338 1.397 . S
C335 C330 1.391 . S
C335 C334 1.391 . S
C335 C336 1.399 . S
C336 C335 1.399 . S
C336 C337 1.396 . S
C336 C339 1.453 . S
C336 C340 1.684 . S
C337 C327 1.723 . S
C337 C336 1.396 . S
C337 C338 1.394 . S
C338 C308 1.723 . S
C338 C334 1.397 . S
C338 C337 1.394 . S
C339 H311 0.982 . S
C339 H315 0.979 . S
C339 H316 0.977 . S
C339 C336 1.453 . S
C340 H312 0.979 . S
C340 H313 0.980 . S
C340 H314 0.983 . S
C340 C336 1.684 . S
H341 C359 0.948 . S
H342 C300 0.948 . S
H343 C318 0.979 . S
H344 C318 0.980 . S
H345 C318 0.983 . S
H346 C317 0.982 . S
H347 C317 0.979 . S
H348 C317 0.977 . S
H349 C319 0.948 . S
H350 C321 0.947 . S
H351 C322 0.948 . S
H352 C328 0.982 . S
H353 C328 0.979 . S
H354 C328 0.977 . S
H355 C329 0.979 . S
H356 C329 0.980 . S
H357 C329 0.983 . S
H358 C302 0.947 . S
C359 C302 1.392 . S
C359 C303 1.419 . S
C359 H341 0.948 . S
C360 C361 1.391 . S
C360 C364 1.391 . S
C360 H402 0.948 . S
C361 C360 1.391 . S
C361 C362 1.391 . S
C362 C361 1.391 . S
C362 H418 0.947 . S
C362 C419 1.392 . S
C363 C364 1.391 . S
C363 C367 1.397 . S
C363 C419 1.419 . S
C364 C360 1.391 . S
C364 C363 1.391 . S
C364 C365 1.399 . S
C365 C364 1.399 . S
C365 C368 1.396 . S
C365 C377 1.453 . S
C365 C378 1.684 . S
H366 C390 0.948 1_455 S
C367 C363 1.397 . S
C367 C368 1.394 . S
C367 C386 1.723 . S
C368 C365 1.396 . S
C368 C367 1.394 . S
C368 C398 1.723 . S
H369 C392 0.947 . S
H370 C393 0.948 . S
H371 C399 0.982 1_655 S
H372 C400 0.979 . S
H373 C400 0.980 . S
H374 C400 0.983 . S
H375 C399 0.979 . S
H376 C399 0.977 . S
C377 C365 1.453 . S
C377 H406 0.982 . S
C377 H407 0.979 . S
C377 H408 0.977 . S
C378 C365 1.684 . S
C378 H403 0.979 . S
C378 H404 0.980 . S
C378 H405 0.983 . S
C379 C380 1.391 . S
C379 C384 1.374 1_455 S
C379 H409 0.948 . S
C380 C379 1.391 . S
C380 C381 1.391 . S
C381 C380 1.391 . S
C381 C382 1.392 . S
C381 H410 0.947 . S
C382 C381 1.392 . S
C382 C383 1.419 . S
C382 H411 0.948 . S
C383 C382 1.419 . S
C383 C384 1.388 1_455 S
C383 C387 1.397 1_455 S
C384 C379 1.374 1_655 S
C384 C383 1.388 1_655 S
C384 C385 1.424 . S
C385 C384 1.424 . S
C385 C386 1.396 . S
C385 C388 1.453 . S
C385 C389 1.684 . S
C386 C367 1.723 . S
C386 C385 1.396 . S
C386 C387 1.394 . S
C387 C383 1.397 1_655 S
C387 C386 1.394 . S
C387 C397 1.723 . S
C388 C385 1.453 . S
C388 H412 0.982 . S
C388 H413 0.979 . S
C388 H414 0.977 . S
C389 C385 1.684 . S
C389 H415 0.979 . S
C389 H416 0.980 . S
C389 H417 0.983 . S
C390 H366 0.948 1_655 S
C390 C391 1.391 . S
C390 C395 1.391 . S
C391 C390 1.391 . S
C391 C392 1.391 . S
C392 H369 0.947 . S
C392 C391 1.391 . S
C392 C393 1.392 . S
C393 H370 0.948 . S
C393 C392 1.392 . S
C393 C394 1.419 . S
C394 C393 1.419 . S
C394 C395 1.391 . S
C394 C398 1.397 . S
C395 C390 1.391 . S
C395 C394 1.391 . S
C395 C396 1.399 1_655 S
C396 C395 1.399 1_455 S
C396 C397 1.396 1_455 S
C396 C399 1.453 . S
C396 C400 1.684 . S
C397 C387 1.723 . S
C397 C396 1.396 1_655 S
C397 C398 1.394 . S
C398 C368 1.723 . S
C398 C394 1.397 . S
C398 C397 1.394 . S
C399 H371 0.982 1_455 S
C399 H375 0.979 . S
C399 H376 0.977 . S
C399 C396 1.453 . S
C400 H372 0.979 . S
C400 H373 0.980 . S
C400 H374 0.983 . S
C400 C396 1.684 . S
H401 C419 0.948 . S
H402 C360 0.948 . S
H403 C378 0.979 . S
H404 C378 0.980 . S
H405 C378 0.983 . S
H406 C377 0.982 . S
H407 C377 0.979 . S
H408 C377 0.977 . S
H409 C379 0.948 . S
H410 C381 0.947 . S
H411 C382 0.948 . S
H412 C388 0.982 . S
H413 C388 0.979 . S
H414 C388 0.977 . S
H415 C389 0.979 . S
H416 C389 0.980 . S
H417 C389 0.983 . S
H418 C362 0.947 . S
C419 C362 1.392 . S
C419 C363 1.419 . S
C419 H401 0.948 . S
C420 C421 1.391 . S
C420 C424 1.391 . S
C420 H462 0.948 . S
C421 C420 1.391 . S
C421 C422 1.391 . S
C422 C421 1.391 . S
C422 H478 0.947 . S
C422 C479 1.392 . S
C423 C424 1.391 . S
C423 C427 1.397 . S
C423 C479 1.419 . S
C424 C420 1.391 . S
C424 C423 1.391 . S
C424 C425 1.399 . S
C425 C424 1.399 . S
C425 C428 1.396 . S
C425 C437 1.453 . S
C425 C438 1.684 . S
H426 C450 0.948 . S
C427 C423 1.397 . S
C427 C428 1.394 . S
C427 C446 1.723 . S
C428 C425 1.396 . S
C428 C427 1.394 . S
C428 C458 1.723 . S
H429 C452 0.947 . S
H430 C453 0.948 . S
H431 C459 0.982 . S
H432 C460 0.979 . S
H433 C460 0.980 . S
H434 C460 0.983 . S
H435 C459 0.979 . S
H436 C459 0.977 . S
C437 C425 1.453 . S
C437 H466 0.982 . S
C437 H467 0.979 . S
C437 H468 0.977 . S
C438 C425 1.684 . S
C438 H463 0.979 . S
C438 H464 0.980 . S
C438 H465 0.983 . S
C439 C440 1.391 . S
C439 C444 1.391 . S
C439 H469 0.948 . S
C440 C439 1.391 . S
C440 C441 1.391 . S
C441 C440 1.391 . S
C441 C442 1.392 . S
C441 H470 0.947 . S
C442 C441 1.392 . S
C442 C443 1.419 . S
C442 H471 0.948 . S
C443 C442 1.419 . S
C443 C444 1.391 . S
C443 C447 1.397 . S
C444 C439 1.391 . S
C444 C443 1.391 . S
C444 C445 1.399 . S
C445 C444 1.399 . S
C445 C446 1.396 . S
C445 C448 1.453 . S
C445 C449 1.684 . S
C446 C427 1.723 . S
C446 C445 1.396 . S
C446 C447 1.394 . S
C447 C443 1.397 . S
C447 C446 1.394 . S
C447 C457 1.723 . S
C448 C445 1.453 . S
C448 H472 0.982 . S
C448 H473 0.979 . S
C448 H474 0.977 . S
C449 C445 1.684 . S
C449 H475 0.979 . S
C449 H476 0.980 . S
C449 H477 0.983 . S
C450 H426 0.948 . S
C450 C451 1.391 . S
C450 C455 1.391 . S
C451 C450 1.391 . S
C451 C452 1.391 . S
C452 H429 0.947 . S
C452 C451 1.391 . S
C452 C453 1.392 . S
C453 H430 0.948 . S
C453 C452 1.392 . S
C453 C454 1.419 . S
C454 C453 1.419 . S
C454 C455 1.391 . S
C454 C458 1.397 . S
C455 C450 1.391 . S
C455 C454 1.391 . S
C455 C456 1.399 . S
C456 C455 1.399 . S
C456 C457 1.396 . S
C456 C459 1.453 . S
C456 C460 1.684 . S
C457 C447 1.723 . S
C457 C456 1.396 . S
C457 C458 1.394 . S
C458 C428 1.723 . S
C458 C454 1.397 . S
C458 C457 1.394 . S
C459 H431 0.982 . S
C459 H435 0.979 . S
C459 H436 0.977 . S
C459 C456 1.453 . S
C460 H432 0.979 . S
C460 H433 0.980 . S
C460 H434 0.983 . S
C460 C456 1.684 . S
H461 C479 0.948 . S
H462 C420 0.948 . S
H463 C438 0.979 . S
H464 C438 0.980 . S
H465 C438 0.983 . S
H466 C437 0.982 . S
H467 C437 0.979 . S
H468 C437 0.977 . S
H469 C439 0.948 . S
H470 C441 0.947 . S
H471 C442 0.948 . S
H472 C448 0.982 . S
H473 C448 0.979 . S
H474 C448 0.977 . S
H475 C449 0.979 . S
H476 C449 0.980 . S
H477 C449 0.983 . S
H478 C422 0.947 . S
C479 C422 1.392 . S
C479 C423 1.419 . S
C479 H461 0.948 . S
C480 C481 1.391 . S
C480 C484 1.391 . S
C480 H522 0.948 . S
C481 C480 1.391 . S
C481 C482 1.391 . S
C482 C481 1.391 . S
C482 H538 0.947 . S
C482 C539 1.392 . S
C483 C484 1.391 . S
C483 C487 1.397 . S
C483 C539 1.419 . S
C484 C480 1.391 . S
C484 C483 1.391 . S
C484 C485 1.399 . S
C485 C484 1.399 . S
C485 C488 1.396 . S
C485 C497 1.453 . S
C485 C498 1.684 . S
H486 C510 0.948 . S
C487 C483 1.397 . S
C487 C488 1.394 . S
C487 C506 1.723 . S
C488 C485 1.396 . S
C488 C487 1.394 . S
C488 C518 1.723 . S
H489 C512 0.947 . S
H490 C513 0.948 . S
H491 C519 0.982 . S
H492 C520 0.979 . S
H493 C520 0.980 . S
H494 C520 0.983 . S
H495 C519 0.979 . S
H496 C519 0.977 . S
C497 C485 1.453 . S
C497 H526 0.982 . S
C497 H527 0.979 . S
C497 H528 0.977 . S
C498 C485 1.684 . S
C498 H523 0.979 . S
C498 H524 0.980 . S
C498 H525 0.983 . S
C499 C500 1.391 . S
C499 C504 1.391 . S
C499 H529 0.948 . S
C500 C499 1.391 . S
C500 C501 1.391 . S
C501 C500 1.391 . S
C501 C502 1.392 . S
C501 H530 0.947 . S
C502 C501 1.392 . S
C502 C503 1.419 . S
C502 H531 0.948 . S
C503 C502 1.419 . S
C503 C504 1.391 . S
C503 C507 1.397 . S
C504 C499 1.391 . S
C504 C503 1.391 . S
C504 C505 1.399 . S
C505 C504 1.399 . S
C505 C506 1.396 . S
C505 C508 1.453 . S
C505 C509 1.684 . S
C506 C487 1.723 . S
C506 C505 1.396 . S
C506 C507 1.394 . S
C507 C503 1.397 . S
C507 C506 1.394 . S
C507 C517 1.723 . S
C508 C505 1.453 . S
C508 H532 0.982 . S
C508 H533 0.979 . S
C508 H534 0.977 . S
C509 C505 1.684 . S
C509 H535 0.979 . S
C509 H536 0.980 . S
C509 H537 0.983 . S
C510 H486 0.948 . S
C510 C511 1.391 . S
C510 C515 1.391 . S
C511 C510 1.391 . S
C511 C512 1.391 . S
C512 H489 0.947 . S
C512 C511 1.391 . S
C512 C513 1.392 . S
C513 H490 0.948 . S
C513 C512 1.392 . S
C513 C514 1.419 . S
C514 C513 1.419 . S
C514 C515 1.391 . S
C514 C518 1.397 . S
C515 C510 1.391 . S
C515 C514 1.391 . S
C515 C516 1.399 . S
C516 C515 1.399 . S
C516 C517 1.396 . S
C516 C519 1.453 . S
C516 C520 1.684 . S
C517 C507 1.723 . S
C517 C516 1.396 . S
C517 C518 1.394 . S
C518 C488 1.723 . S
C518 C514 1.397 . S
C518 C517 1.394 . S
C519 H491 0.982 . S
C519 H495 0.979 . S
C519 H496 0.977 . S
C519 C516 1.453 . S
C520 H492 0.979 . S
C520 H493 0.980 . S
C520 H494 0.983 . S
C520 C516 1.684 . S
H521 C539 0.948 . S
H522 C480 0.948 . S
H523 C498 0.979 . S
H524 C498 0.980 . S
H525 C498 0.983 . S
H526 C497 0.982 . S
H527 C497 0.979 . S
H528 C497 0.977 . S
H529 C499 0.948 . S
H530 C501 0.947 . S
H531 C502 0.948 . S
H532 C508 0.982 . S
H533 C508 0.979 . S
H534 C508 0.977 . S
H535 C509 0.979 . S
H536 C509 0.980 . S
H537 C509 0.983 . S
H538 C482 0.947 . S
C539 C482 1.392 . S
C539 C483 1.419 . S
C539 H521 0.948 . S
C540 C541 1.391 . S
C540 C544 1.391 . S
C540 H582 0.948 . S
C541 C540 1.391 . S
C541 C542 1.391 . S
C542 C541 1.391 . S
C542 H598 0.947 . S
C542 C599 1.392 . S
C543 C544 1.391 . S
C543 C547 1.397 . S
C543 C599 1.419 . S
C544 C540 1.391 . S
C544 C543 1.391 . S
C544 C545 1.399 . S
C545 C544 1.399 . S
C545 C548 1.396 . S
C545 C557 1.453 . S
C545 C558 1.684 . S
H546 C570 0.948 1_545 S
C547 C543 1.397 . S
C547 C548 1.394 . S
C547 C566 1.723 . S
C548 C545 1.396 . S
C548 C547 1.394 . S
C548 C578 1.723 . S
H549 C572 0.947 . S
H550 C573 0.948 . S
H551 C579 0.982 1_565 S
H552 C580 0.979 . S
H553 C580 0.980 . S
H554 C580 0.983 . S
H555 C579 0.979 . S
H556 C579 0.977 . S
C557 C545 1.453 . S
C557 H586 0.982 . S
C557 H587 0.979 . S
C557 H588 0.977 . S
C558 C545 1.684 . S
C558 H583 0.979 . S
C558 H584 0.980 . S
C558 H585 0.983 . S
C559 C560 1.391 . S
C559 C564 1.420 . S
C559 H589 0.948 . S
C560 C559 1.391 . S
C560 C561 1.391 . S
C561 C560 1.391 . S
C561 C562 1.392 . S
C561 H590 0.947 . S
C562 C561 1.392 . S
C562 C563 1.419 . S
C562 H591 0.948 . S
C563 C562 1.419 . S
C563 C564 1.398 . S
C563 C567 1.397 1_545 S
C564 C559 1.420 . S
C564 C563 1.398 . S
C564 C565 1.360 1_545 S
C565 C564 1.360 1_565 S
C565 C566 1.396 . S
C565 C568 1.453 . S
C565 C569 1.684 . S
C566 C547 1.723 . S
C566 C565 1.396 . S
C566 C567 1.394 . S
C567 C563 1.397 1_565 S
C567 C566 1.394 . S
C567 C577 1.723 . S
C568 C565 1.453 . S
C568 H592 0.982 . S
C568 H593 0.979 . S
C568 H594 0.977 . S
C569 C565 1.684 . S
C569 H595 0.979 . S
C569 H596 0.980 . S
C569 H597 0.983 . S
C570 H546 0.948 1_565 S
C570 C571 1.391 . S
C570 C575 1.391 . S
C571 C570 1.391 . S
C571 C572 1.391 . S
C572 H549 0.947 . S
C572 C571 1.391 . S
C572 C573 1.392 . S
C573 H550 0.948 . S
C573 C572 1.392 . S
C573 C574 1.419 . S
C574 C573 1.419 . S
C574 C575 1.391 . S
C574 C578 1.397 . S
C575 C570 1.391 . S
C575 C574 1.391 . S
C575 C576 1.399 1_565 S
C576 C575 1.399 1_545 S
C576 C577 1.396 1_545 S
C576 C579 1.453 . S
C576 C580 1.684 . S
C577 C567 1.723 . S
C577 C576 1.396 1_565 S
C577 C578 1.394 . S
C578 C548 1.723 . S
C578 C574 1.397 . S
C578 C577 1.394 . S
C579 H551 0.982 1_545 S
C579 H555 0.979 . S
C579 H556 0.977 . S
C579 C576 1.453 . S
C580 H552 0.979 . S
C580 H553 0.980 . S
C580 H554 0.983 . S
C580 C576 1.684 . S
H581 C599 0.948 . S
H582 C540 0.948 . S
H583 C558 0.979 . S
H584 C558 0.980 . S
H585 C558 0.983 . S
H586 C557 0.982 . S
H587 C557 0.979 . S
H588 C557 0.977 . S
H589 C559 0.948 . S
H590 C561 0.947 . S
H591 C562 0.948 . S
H592 C568 0.982 . S
H593 C568 0.979 . S
H594 C568 0.977 . S
H595 C569 0.979 . S
H596 C569 0.980 . S
H597 C569 0.983 . S
H598 C542 0.947 . S
C599 C542 1.392 . S
C599 C543 1.419 . S
C599 H581 0.948 . S
C600 C601 1.391 . S
C600 C604 1.391 . S
C600 H642 0.948 . S
C601 C600 1.391 . S
C601 C602 1.391 . S
C602 C601 1.391 . S
C602 H658 0.947 . S
C602 C659 1.392 . S
C603 C604 1.391 . S
C603 C607 1.397 . S
C603 C659 1.419 . S
C604 C600 1.391 . S
C604 C603 1.391 . S
C604 C605 1.399 . S
C605 C604 1.399 . S
C605 C608 1.396 . S
C605 C617 1.453 . S
C605 C618 1.684 . S
H606 C630 0.948 . S
C607 C603 1.397 . S
C607 C608 1.394 . S
C607 C626 1.723 . S
C608 C605 1.396 . S
C608 C607 1.394 . S
C608 C638 1.723 . S
H609 C632 0.947 . S
H610 C633 0.948 . S
H611 C639 0.982 . S
H612 C640 0.979 . S
H613 C640 0.980 . S
H614 C640 0.983 . S
H615 C639 0.979 . S
H616 C639 0.977 . S
C617 C605 1.453 . S
C617 H646 0.982 . S
C617 H647 0.979 . S
C617 H648 0.977 . S
C618 C605 1.684 . S
C618 H643 0.979 . S
C618 H644 0.980 . S
C618 H645 0.983 . S
C619 C620 1.391 . S
C619 C624 1.391 . S
C619 H649 0.948 . S
C620 C619 1.391 . S
C620 C621 1.391 . S
C621 C620 1.391 . S
C621 C622 1.392 . S
C621 H650 0.947 . S
C622 C621 1.392 . S
C622 C623 1.419 . S
C622 H651 0.948 . S
C623 C622 1.419 . S
C623 C624 1.391 . S
C623 C627 1.397 . S
C624 C619 1.391 . S
C624 C623 1.391 . S
C624 C625 1.399 . S
C625 C624 1.399 . S
C625 C626 1.396 . S
C625 C628 1.453 . S
C625 C629 1.684 . S
C626 C607 1.723 . S
C626 C625 1.396 . S
C626 C627 1.394 . S
C627 C623 1.397 . S
C627 C626 1.394 . S
C627 C637 1.723 . S
C628 C625 1.453 . S
C628 H652 0.982 . S
C628 H653 0.979 . S
C628 H654 0.977 . S
C629 C625 1.684 . S
C629 H655 0.979 . S
C629 H656 0.980 . S
C629 H657 0.983 . S
C630 H606 0.948 . S
C630 C631 1.391 . S
C630 C635 1.391 . S
C631 C630 1.391 . S
C631 C632 1.391 . S
C632 H609 0.947 . S
C632 C631 1.391 . S
C632 C633 1.392 . S
C633 H610 0.948 . S
C633 C632 1.392 . S
C633 C634 1.419 . S
C634 C633 1.419 . S
C634 C635 1.391 . S
C634 C638 1.397 . S
C635 C630 1.391 . S
C635 C634 1.391 . S
C635 C636 1.399 . S
C636 C635 1.399 . S
C636 C637 1.396 . S
C636 C639 1.453 . S
C636 C640 1.684 . S
C637 C627 1.723 . S
C637 C636 1.396 . S
C637 C638 1.394 . S
C638 C608 1.723 . S
C638 C634 1.397 . S
C638 C637 1.394 . S
C639 H611 0.982 . S
C639 H615 0.979 . S
C639 H616 0.977 . S
C639 C636 1.453 . S
C640 H612 0.979 . S
C640 H613 0.980 . S
C640 H614 0.983 . S
C640 C636 1.684 . S
H641 C659 0.948 . S
H642 C600 0.948 . S
H643 C618 0.979 . S
H644 C618 0.980 . S
H645 C618 0.983 . S
H646 C617 0.982 . S
H647 C617 0.979 . S
H648 C617 0.977 . S
H649 C619 0.948 . S
H650 C621 0.947 . S
H651 C622 0.948 . S
H652 C628 0.982 . S
H653 C628 0.979 . S
H654 C628 0.977 . S
H655 C629 0.979 . S
H656 C629 0.980 . S
H657 C629 0.983 . S
H658 C602 0.947 . S
C659 C602 1.392 . S
C659 C603 1.419 . S
C659 H641 0.948 . S
C660 C661 1.391 . S
C660 C664 1.391 . S
C660 H702 0.948 . S
C661 C660 1.391 . S
C661 C662 1.391 . S
C662 C661 1.391 . S
C662 H718 0.947 . S
C662 C719 1.392 . S
C663 C664 1.391 . S
C663 C667 1.397 . S
C663 C719 1.419 . S
C664 C660 1.391 . S
C664 C663 1.391 . S
C664 C665 1.399 . S
C665 C664 1.399 . S
C665 C668 1.396 . S
C665 C677 1.453 . S
C665 C678 1.684 . S
H666 C690 0.948 . S
C667 C663 1.397 . S
C667 C668 1.394 . S
C667 C686 1.723 . S
C668 C665 1.396 . S
C668 C667 1.394 . S
C668 C698 1.723 . S
H669 C692 0.947 . S
H670 C693 0.948 . S
H671 C699 0.982 . S
H672 C700 0.979 . S
H673 C700 0.980 . S
H674 C700 0.983 . S
H675 C699 0.979 . S
H676 C699 0.977 . S
C677 C665 1.453 . S
C677 H706 0.982 . S
C677 H707 0.979 . S
C677 H708 0.977 . S
C678 C665 1.684 . S
C678 H703 0.979 . S
C678 H704 0.980 . S
C678 H705 0.983 . S
C679 C680 1.391 . S
C679 C684 1.391 . S
C679 H709 0.948 . S
C680 C679 1.391 . S
C680 C681 1.391 . S
C681 C680 1.391 . S
C681 C682 1.392 . S
C681 H710 0.947 . S
C682 C681 1.392 . S
C682 C683 1.419 . S
C682 H711 0.948 . S
C683 C682 1.419 . S
C683 C684 1.391 . S
C683 C687 1.397 . S
C684 C679 1.391 . S
C684 C683 1.391 . S
C684 C685 1.399 . S
C685 C684 1.399 . S
C685 C686 1.396 . S
C685 C688 1.453 . S
C685 C689 1.684 . S
C686 C667 1.723 . S
C686 C685 1.396 . S
C686 C687 1.394 . S
C687 C683 1.397 . S
C687 C686 1.394 . S
C687 C697 1.723 . S
C688 C685 1.453 . S
C688 H712 0.982 . S
C688 H713 0.979 . S
C688 H714 0.977 . S
C689 C685 1.684 . S
C689 H715 0.979 . S
C689 H716 0.980 . S
C689 H717 0.983 . S
C690 H666 0.948 . S
C690 C691 1.391 . S
C690 C695 1.391 . S
C691 C690 1.391 . S
C691 C692 1.391 . S
C692 H669 0.947 . S
C692 C691 1.391 . S
C692 C693 1.392 . S
C693 H670 0.948 . S
C693 C692 1.392 . S
C693 C694 1.419 . S
C694 C693 1.419 . S
C694 C695 1.391 . S
C694 C698 1.397 . S
C695 C690 1.391 . S
C695 C694 1.391 . S
C695 C696 1.399 . S
C696 C695 1.399 . S
C696 C697 1.396 . S
C696 C699 1.453 . S
C696 C700 1.684 . S
C697 C687 1.723 . S
C697 C696 1.396 . S
C697 C698 1.394 . S
C698 C668 1.723 . S
C698 C694 1.397 . S
C698 C697 1.394 . S
C699 H671 0.982 . S
C699 H675 0.979 . S
C699 H676 0.977 . S
C699 C696 1.453 . S
C700 H672 0.979 . S
C700 H673 0.980 . S
C700 H674 0.983 . S
C700 C696 1.684 . S
H701 C719 0.948 . S
H702 C660 0.948 . S
H703 C678 0.979 . S
H704 C678 0.980 . S
H705 C678 0.983 . S
H706 C677 0.982 . S
H707 C677 0.979 . S
H708 C677 0.977 . S
H709 C679 0.948 . S
H710 C681 0.947 . S
H711 C682 0.948 . S
H712 C688 0.982 . S
H713 C688 0.979 . S
H714 C688 0.977 . S
H715 C689 0.979 . S
H716 C689 0.980 . S
H717 C689 0.983 . S
H718 C662 0.947 . S
C719 C662 1.392 . S
C719 C663 1.419 . S
C719 H701 0.948 . S
C720 C721 1.391 . S
C720 C724 1.391 . S
C720 H762 0.948 . S
C721 C720 1.391 . S
C721 C722 1.391 . S
C722 C721 1.391 . S
C722 H778 0.947 . S
C722 C779 1.392 . S
C723 C724 1.391 . S
C723 C727 1.397 . S
C723 C779 1.419 . S
C724 C720 1.391 . S
C724 C723 1.391 . S
C724 C725 1.399 . S
C725 C724 1.399 . S
C725 C728 1.396 . S
C725 C737 1.453 . S
C725 C738 1.684 . S
H726 C750 0.948 . S
C727 C723 1.397 . S
C727 C728 1.394 . S
C727 C746 1.723 . S
C728 C725 1.396 . S
C728 C727 1.394 . S
C728 C758 1.723 . S
H729 C752 0.947 . S
H730 C753 0.948 . S
H731 C759 0.982 . S
H732 C760 0.979 . S
H733 C760 0.980 . S
H734 C760 0.983 . S
H735 C759 0.979 . S
H736 C759 0.977 . S
C737 C725 1.453 . S
C737 H766 0.982 . S
C737 H767 0.979 . S
C737 H768 0.977 . S
C738 C725 1.684 . S
C738 H763 0.979 . S
C738 H764 0.980 . S
C738 H765 0.983 . S
C739 C740 1.391 . S
C739 C744 1.391 . S
C739 H769 0.948 . S
C740 C739 1.391 . S
C740 C741 1.391 . S
C741 C740 1.391 . S
C741 C742 1.392 . S
C741 H770 0.947 . S
C742 C741 1.392 . S
C742 C743 1.419 . S
C742 H771 0.948 . S
C743 C742 1.419 . S
C743 C744 1.391 . S
C743 C747 1.397 . S
C744 C739 1.391 . S
C744 C743 1.391 . S
C744 C745 1.399 . S
C745 C744 1.399 . S
C745 C746 1.396 . S
C745 C748 1.453 . S
C745 C749 1.684 . S
C746 C727 1.723 . S
C746 C745 1.396 . S
C746 C747 1.394 . S
C747 C743 1.397 . S
C747 C746 1.394 . S
C747 C757 1.723 . S
C748 C745 1.453 . S
C748 H772 0.982 . S
C748 H773 0.979 . S
C748 H774 0.977 . S
C749 C745 1.684 . S
C749 H775 0.979 . S
C749 H776 0.980 . S
C749 H777 0.983 . S
C750 H726 0.948 . S
C750 C751 1.391 . S
C750 C755 1.391 . S
C751 C750 1.391 . S
C751 C752 1.391 . S
C752 H729 0.947 . S
C752 C751 1.391 . S
C752 C753 1.392 . S
C753 H730 0.948 . S
C753 C752 1.392 . S
C753 C754 1.419 . S
C754 C753 1.419 . S
C754 C755 1.391 . S
C754 C758 1.397 . S
C755 C750 1.391 . S
C755 C754 1.391 . S
C755 C756 1.399 . S
C756 C755 1.399 . S
C756 C757 1.396 . S
C756 C759 1.453 . S
C756 C760 1.684 . S
C757 C747 1.723 . S
C757 C756 1.396 . S
C757 C758 1.394 . S
C758 C728 1.723 . S
C758 C754 1.397 . S
C758 C757 1.394 . S
C759 H731 0.982 . S
C759 H735 0.979 . S
C759 H736 0.977 . S
C759 C756 1.453 . S
C760 H732 0.979 . S
C760 H733 0.980 . S
C760 H734 0.983 . S
C760 C756 1.684 . S
H761 C779 0.948 . S
H762 C720 0.948 . S
H763 C738 0.979 . S
H764 C738 0.980 . S
H765 C738 0.983 . S
H766 C737 0.982 . S
H767 C737 0.979 . S
H768 C737 0.977 . S
H769 C739 0.948 . S
H770 C741 0.947 . S
H771 C742 0.948 . S
H772 C748 0.982 . S
H773 C748 0.979 . S
H774 C748 0.977 . S
H775 C749 0.979 . S
H776 C749 0.980 . S
H777 C749 0.983 . S
H778 C722 0.947 . S
C779 C722 1.392 . S
C779 C723 1.419 . S
C779 H761 0.948 . S
C780 C781 1.391 . S
C780 C784 1.391 . S
C780 H822 0.948 . S
C781 C780 1.391 . S
C781 C782 1.391 . S
C782 C781 1.391 . S
C782 H838 0.948 . S
C782 C839 1.392 1_554 S
C783 C784 1.391 1_556 S
C783 C787 1.397 . S
C783 C839 1.419 . S
C784 C780 1.391 . S
C784 C783 1.391 1_554 S
C784 C785 1.399 . S
C785 C784 1.399 . S
C785 C788 1.396 1_554 S
C785 C797 1.453 . S
C785 C798 1.684 . S
H786 C810 0.948 . S
C787 C783 1.397 . S
C787 C788 1.394 . S
C787 C806 1.723 . S
C788 C785 1.396 1_556 S
C788 C787 1.394 . S
C788 C818 1.723 . S
H789 C812 0.947 1_554 S
H790 C813 0.948 1_554 S
H791 C819 0.982 . S
H792 C820 0.979 . S
H793 C820 0.980 . S
H794 C820 0.983 . S
H795 C819 0.979 . S
H796 C819 0.977 . S
C797 C785 1.453 . S
C797 H826 0.982 . S
C797 H827 0.979 . S
C797 H828 0.977 . S
C798 C785 1.684 . S
C798 H823 0.979 1_554 S
C798 H824 0.980 . S
C798 H825 0.983 . S
C799 C800 1.391 . S
C799 C804 1.391 . S
C799 H829 0.948 . S
C800 C799 1.391 . S
C800 C801 1.391 . S
C801 C800 1.391 . S
C801 C802 1.392 . S
C801 H830 0.947 . S
C802 C801 1.392 . S
C802 C803 1.419 . S
C802 H831 0.948 . S
C803 C802 1.419 . S
C803 C804 1.391 . S
C803 C807 1.397 . S
C804 C799 1.391 . S
C804 C803 1.391 . S
C804 C805 1.399 . S
C805 C804 1.399 . S
C805 C806 1.396 . S
C805 C808 1.453 . S
C805 C809 1.684 . S
C806 C787 1.723 . S
C806 C805 1.396 . S
C806 C807 1.394 . S
C807 C803 1.397 . S
C807 C806 1.394 . S
C807 C817 1.723 . S
C808 C805 1.453 . S
C808 H832 0.982 . S
C808 H833 0.979 . S
C808 H834 0.977 . S
C809 C805 1.684 . S
C809 H835 0.979 . S
C809 H836 0.980 . S
C809 H837 0.983 . S
C810 H786 0.948 . S
C810 C811 1.391 . S
C810 C815 1.391 . S
C811 C810 1.391 . S
C811 C812 1.391 . S
C812 H789 0.947 1_556 S
C812 C811 1.391 . S
C812 C813 1.392 . S
C813 H790 0.948 1_556 S
C813 C812 1.392 . S
C813 C814 1.419 . S
C814 C813 1.419 . S
C814 C815 1.391 . S
C814 C818 1.397 . S
C815 C810 1.391 . S
C815 C814 1.391 . S
C815 C816 1.399 . S
C816 C815 1.399 . S
C816 C817 1.396 . S
C816 C819 1.453 . S
C816 C820 1.684 . S
C817 C807 1.723 . S
C817 C816 1.396 . S
C817 C818 1.394 . S
C818 C788 1.723 . S
C818 C814 1.397 . S
C818 C817 1.394 . S
C819 H791 0.982 . S
C819 H795 0.979 . S
C819 H796 0.977 . S
C819 C816 1.453 . S
C820 H792 0.979 . S
C820 H793 0.980 . S
C820 H794 0.983 . S
C820 C816 1.684 . S
H821 C839 0.948 . S
H822 C780 0.948 . S
H823 C798 0.979 1_556 S
H824 C798 0.980 . S
H825 C798 0.983 . S
H826 C797 0.982 . S
H827 C797 0.979 . S
H828 C797 0.977 . S
H829 C799 0.948 . S
H830 C801 0.947 . S
H831 C802 0.948 . S
H832 C808 0.982 . S
H833 C808 0.979 . S
H834 C808 0.977 . S
H835 C809 0.979 . S
H836 C809 0.980 . S
H837 C809 0.983 . S
H838 C782 0.948 . S
C839 C782 1.392 1_556 S
C839 C783 1.419 . S
C839 H821 0.948 . S
C840 C841 1.391 . S
C840 C844 1.391 . S
C840 H882 0.948 . S
C841 C840 1.391 . S
C841 C842 1.391 . S
C842 C841 1.391 . S
C842 H898 0.947 . S
C842 C899 1.392 . S
C843 C844 1.391 . S
C843 C847 1.397 . S
C843 C899 1.419 . S
C844 C840 1.391 . S
C844 C843 1.391 . S
C844 C845 1.399 . S
C845 C844 1.399 . S
C845 C848 1.396 . S
C845 C857 1.453 . S
C845 C858 1.684 . S
H846 C870 0.948 . S
C847 C843 1.397 . S
C847 C848 1.394 . S
C847 C866 1.723 . S
C848 C845 1.396 . S
C848 C847 1.394 . S
C848 C878 1.723 . S
H849 C872 0.947 . S
H850 C873 0.948 . S
H851 C879 0.982 . S
H852 C880 0.979 . S
H853 C880 0.980 . S
H854 C880 0.983 . S
H855 C879 0.979 . S
H856 C879 0.977 . S
C857 C845 1.453 . S
C857 H886 0.982 . S
C857 H887 0.979 . S
C857 H888 0.977 . S
C858 C845 1.684 . S
C858 H883 0.979 . S
C858 H884 0.980 . S
C858 H885 0.983 . S
C859 C860 1.391 . S
C859 C864 1.391 . S
C859 H889 0.948 . S
C860 C859 1.391 . S
C860 C861 1.391 . S
C861 C860 1.391 . S
C861 C862 1.392 . S
C861 H890 0.947 . S
C862 C861 1.392 . S
C862 C863 1.419 . S
C862 H891 0.948 . S
C863 C862 1.419 . S
C863 C864 1.391 . S
C863 C867 1.397 . S
C864 C859 1.391 . S
C864 C863 1.391 . S
C864 C865 1.399 . S
C865 C864 1.399 . S
C865 C866 1.396 . S
C865 C868 1.453 . S
C865 C869 1.684 . S
C866 C847 1.723 . S
C866 C865 1.396 . S
C866 C867 1.394 . S
C867 C863 1.397 . S
C867 C866 1.394 . S
C867 C877 1.723 . S
C868 C865 1.453 . S
C868 H892 0.982 . S
C868 H893 0.979 . S
C868 H894 0.977 . S
C869 C865 1.684 . S
C869 H895 0.979 . S
C869 H896 0.980 . S
C869 H897 0.983 . S
C870 H846 0.948 . S
C870 C871 1.391 . S
C870 C875 1.391 . S
C871 C870 1.391 . S
C871 C872 1.391 . S
C872 H849 0.947 . S
C872 C871 1.391 . S
C872 C873 1.392 . S
C873 H850 0.948 . S
C873 C872 1.392 . S
C873 C874 1.419 . S
C874 C873 1.419 . S
C874 C875 1.391 . S
C874 C878 1.397 . S
C875 C870 1.391 . S
C875 C874 1.391 . S
C875 C876 1.399 . S
C876 C875 1.399 . S
C876 C877 1.396 . S
C876 C879 1.453 . S
C876 C880 1.684 . S
C877 C867 1.723 . S
C877 C876 1.396 . S
C877 C878 1.394 . S
C878 C848 1.723 . S
C878 C874 1.397 . S
C878 C877 1.394 . S
C879 H851 0.982 . S
C879 H855 0.979 . S
C879 H856 0.977 . S
C879 C876 1.453 . S
C880 H852 0.979 . S
C880 H853 0.980 . S
C880 H854 0.983 . S
C880 C876 1.684 . S
H881 C899 0.948 . S
H882 C840 0.948 . S
H883 C858 0.979 . S
H884 C858 0.980 . S
H885 C858 0.983 . S
H886 C857 0.982 . S
H887 C857 0.979 . S
H888 C857 0.977 . S
H889 C859 0.948 . S
H890 C861 0.947 . S
H891 C862 0.948 . S
H892 C868 0.982 . S
H893 C868 0.979 . S
H894 C868 0.977 . S
H895 C869 0.979 . S
H896 C869 0.980 . S
H897 C869 0.983 . S
H898 C842 0.947 . S
C899 C842 1.392 . S
C899 C843 1.419 . S
C899 H881 0.948 . S
C900 C901 1.391 . S
C900 C904 1.391 1_565 S
C900 H942 0.948 1_556 S
C901 C900 1.391 . S
C901 C902 1.391 . S
C902 C901 1.391 . S
C902 H958 0.947 . S
C902 C959 1.392 . S
C903 C904 1.391 . S
C903 C907 1.397 . S
C903 C959 1.419 1_545 S
C904 C900 1.391 1_545 S
C904 C903 1.391 . S
C904 C905 1.399 1_556 S
C905 C904 1.399 1_554 S
C905 C908 1.396 1_554 S
C905 C917 1.453 . S
C905 C918 1.684 . S
H906 C930 0.948 . S
C907 C903 1.397 . S
C907 C908 1.394 . S
C907 C926 1.723 . S
C908 C905 1.396 1_556 S
C908 C907 1.394 . S
C908 C938 1.723 . S
H909 C932 0.947 . S
H910 C933 0.948 . S
H911 C939 0.982 . S
H912 C940 0.979 . S
H913 C940 0.980 . S
H914 C940 0.983 . S
H915 C939 0.979 . S
H916 C939 0.977 . S
C917 C905 1.453 . S
C917 H946 0.982 1_554 S
C917 H947 0.979 . S
C917 H948 0.977 . S
C918 C905 1.684 . S
C918 H943 0.979 . S
C918 H944 0.980 . S
C918 H945 0.983 . S
C919 C920 1.391 . S
C919 C924 1.391 . S
C919 H949 0.948 1_545 S
C920 C919 1.391 . S
C920 C921 1.391 . S
C921 C920 1.391 . S
C921 C922 1.392 . S
C921 H950 0.947 . S
C922 C921 1.392 . S
C922 C923 1.419 . S
C922 H951 0.948 . S
C923 C922 1.419 . S
C923 C924 1.391 . S
C923 C927 1.397 . S
C924 C919 1.391 . S
C924 C923 1.391 . S
C924 C925 1.399 . S
C925 C924 1.399 . S
C925 C926 1.396 . S
C925 C928 1.452 1_545 S
C925 C929 1.684 1_545 S
C926 C907 1.723 . S
C926 C925 1.396 . S
C926 C927 1.394 . S
C927 C923 1.397 . S
C927 C926 1.394 . S
C927 C937 1.723 . S
C928 C925 1.452 1_565 S
C928 H952 0.976 1_565 S
C928 H953 0.983 . S
C928 H954 0.979 . S
C929 C925 1.684 1_565 S
C929 H955 0.979 . S
C929 H956 0.980 . S
C929 H957 0.983 . S
C930 H906 0.948 . S
C930 C931 1.391 . S
C930 C935 1.391 . S
C931 C930 1.391 . S
C931 C932 1.391 . S
C932 H909 0.947 . S
C932 C931 1.391 . S
C932 C933 1.392 . S
C933 H910 0.948 . S
C933 C932 1.392 . S
C933 C934 1.419 . S
C934 C933 1.419 . S
C934 C935 1.391 . S
C934 C938 1.397 1_554 S
C935 C930 1.391 . S
C935 C934 1.391 . S
C935 C936 1.399 1_554 S
C936 C935 1.399 1_556 S
C936 C937 1.396 . S
C936 C939 1.453 . S
C936 C940 1.684 . S
C937 C927 1.723 . S
C937 C936 1.396 . S
C937 C938 1.394 . S
C938 C908 1.723 . S
C938 C934 1.397 1_556 S
C938 C937 1.394 . S
C939 H911 0.982 . S
C939 H915 0.979 . S
C939 H916 0.977 . S
C939 C936 1.453 . S
C940 H912 0.979 . S
C940 H913 0.980 . S
C940 H914 0.983 . S
C940 C936 1.684 . S
H941 C959 0.948 . S
H942 C900 0.948 1_554 S
H943 C918 0.979 . S
H944 C918 0.980 . S
H945 C918 0.983 . S
H946 C917 0.982 1_556 S
H947 C917 0.979 . S
H948 C917 0.977 . S
H949 C919 0.948 1_565 S
H950 C921 0.947 . S
H951 C922 0.948 . S
H952 C928 0.976 1_545 S
H953 C928 0.983 . S
H954 C928 0.979 . S
H955 C929 0.979 . S
H956 C929 0.980 . S
H957 C929 0.983 . S
H958 C902 0.947 . S
C959 C902 1.392 . S
C959 C903 1.419 1_565 S
C959 H941 0.948 . S
C960 O961 1.160 1_554 S
C960 O967 1.185 . S
O961 C960 1.160 1_556 S
O962 Zn963 1.899 1_556 S
O962 C970 1.284 . S
Zn963 O962 1.899 1_554 S
Zn963 O964 2.032 . S
Zn963 O967 2.086 . S
Zn963 O972 1.977 . S
O964 Zn963 2.032 . S
O964 C968 1.278 . S
C965 O966 1.203 . S
C965 O972 1.267 . S
O966 C965 1.203 . S
O967 C960 1.185 . S
O967 Zn963 2.086 . S
C968 O964 1.278 . S
C968 O969 1.211 . S
O969 C968 1.211 . S
C970 O962 1.284 . S
C970 O971 1.273 . S
O971 C970 1.273 . S
O972 Zn963 1.977 . S
O972 C965 1.267 . S
C973 O974 1.160 . S
C973 O980 1.185 . S
O974 C973 1.160 . S
O975 Zn976 1.899 . S
O975 C983 1.284 . S
Zn976 O975 1.899 . S
Zn976 O977 2.032 . S
Zn976 O980 2.086 . S
Zn976 O985 1.977 . S
O977 Zn976 2.032 . S
O977 C981 1.278 . S
C978 O979 1.203 . S
C978 O985 1.267 . S
O979 C978 1.203 . S
O980 C973 1.185 . S
O980 Zn976 2.086 . S
C981 O977 1.278 . S
C981 O982 1.211 . S
O982 C981 1.211 . S
C983 O975 1.284 . S
C983 O984 1.273 . S
O984 C983 1.273 . S
O985 Zn976 1.977 . S
O985 C978 1.267 . S
C986 O987 1.160 1_554 S
C986 O993 1.185 . S
O987 C986 1.160 1_556 S
O988 Zn989 1.899 1_556 S
O988 C996 1.284 . S
Zn989 O988 1.899 1_554 S
Zn989 O990 2.032 1_554 S
Zn989 O993 2.086 . S
Zn989 O998 1.977 . S
O990 Zn989 2.032 1_556 S
O990 C994 1.278 . S
C991 O992 1.203 . S
C991 O998 1.267 . S
O992 C991 1.203 . S
O993 C986 1.185 . S
O993 Zn989 2.086 . S
C994 O990 1.278 . S
C994 O995 1.211 1_556 S
O995 C994 1.211 1_554 S
C996 O988 1.284 . S
C996 O997 1.273 . S
O997 C996 1.273 . S
O998 Zn989 1.977 . S
O998 C991 1.267 . S
C999 O1000 1.160 . S
C999 O1006 1.185 . S
O1000 C999 1.160 . S
O1001 Zn1002 1.899 . S
O1001 C1009 1.284 . S
Zn1002 O1001 1.899 . S
Zn1002 O1003 2.032 1_545 S
Zn1002 O1006 2.086 . S
Zn1002 O1011 1.977 . S
O1003 Zn1002 2.032 1_565 S
O1003 C1007 1.278 . S
C1004 O1005 1.203 . S
C1004 O1011 1.267 . S
O1005 C1004 1.203 . S
O1006 C999 1.185 . S
O1006 Zn1002 2.086 . S
C1007 O1003 1.278 . S
C1007 O1008 1.211 . S
O1008 C1007 1.211 . S
C1009 O1001 1.284 . S
C1009 O1010 1.273 1_545 S
O1010 C1009 1.273 1_565 S
O1011 Zn1002 1.977 . S
O1011 C1004 1.267 . S
C1012 O1013 1.160 . S
C1012 O1019 1.185 . S
O1013 C1012 1.160 . S
O1014 Zn1015 1.899 . S
O1014 C1022 1.284 . S
Zn1015 O1014 1.899 . S
Zn1015 O1016 2.032 . S
Zn1015 O1019 2.086 . S
Zn1015 O1024 1.977 . S
O1016 Zn1015 2.032 . S
O1016 C1020 1.278 . S
C1017 O1018 1.203 . S
C1017 O1024 1.267 . S
O1018 C1017 1.203 . S
O1019 C1012 1.185 . S
O1019 Zn1015 2.086 . S
C1020 O1016 1.278 . S
C1020 O1021 1.211 . S
O1021 C1020 1.211 . S
C1022 O1014 1.284 . S
C1022 O1023 1.273 . S
O1023 C1022 1.273 . S
O1024 Zn1015 1.977 . S
O1024 C1017 1.267 . S
C1025 O1026 1.160 . S
C1025 O1032 1.185 . S
O1026 C1025 1.160 . S
O1027 Zn1028 1.899 . S
O1027 C1035 1.284 . S
Zn1028 O1027 1.899 . S
Zn1028 O1029 2.032 . S
Zn1028 O1032 2.086 . S
Zn1028 O1037 1.977 . S
O1029 Zn1028 2.032 . S
O1029 C1033 1.278 . S
C1030 O1031 1.203 . S
C1030 O1037 1.267 . S
O1031 C1030 1.203 . S
O1032 C1025 1.185 . S
O1032 Zn1028 2.086 . S
C1033 O1029 1.278 . S
C1033 O1034 1.211 . S
O1034 C1033 1.211 . S
C1035 O1027 1.284 . S
C1035 O1036 1.273 . S
O1036 C1035 1.273 . S
O1037 Zn1028 1.977 . S
O1037 C1030 1.267 . S
C1038 O1039 1.160 . S
C1038 O1045 1.185 . S
O1039 C1038 1.160 . S
O1040 Zn1041 1.899 . S
O1040 C1048 1.284 . S
Zn1041 O1040 1.899 . S
Zn1041 O1042 2.032 . S
Zn1041 O1045 2.086 . S
Zn1041 O1050 1.977 . S
O1042 Zn1041 2.032 . S
O1042 C1046 1.278 . S
C1043 O1044 1.203 . S
C1043 O1050 1.267 . S
O1044 C1043 1.203 . S
O1045 C1038 1.185 . S
O1045 Zn1041 2.086 . S
C1046 O1042 1.278 . S
C1046 O1047 1.211 . S
O1047 C1046 1.211 . S
C1048 O1040 1.284 . S
C1048 O1049 1.273 . S
O1049 C1048 1.273 . S
O1050 Zn1041 1.977 . S
O1050 C1043 1.267 . S
C1051 O1052 1.160 . S
C1051 O1058 1.185 . S
O1052 C1051 1.160 . S
O1053 Zn1054 1.899 . S
O1053 C1061 1.284 1_565 S
Zn1054 O1053 1.899 . S
Zn1054 O1055 2.032 1_565 S
Zn1054 O1058 2.086 . S
Zn1054 O1063 1.977 . S
O1055 Zn1054 2.032 1_545 S
O1055 C1059 1.278 . S
C1056 O1057 1.203 1_565 S
C1056 O1063 1.267 . S
O1057 C1056 1.203 1_545 S
O1058 C1051 1.185 . S
O1058 Zn1054 2.086 . S
C1059 O1055 1.278 . S
C1059 O1060 1.211 . S
O1060 C1059 1.211 . S
C1061 O1053 1.284 1_545 S
C1061 O1062 1.273 . S
O1062 C1061 1.273 . S
O1063 Zn1054 1.977 . S
O1063 C1056 1.267 . S
C1064 O1065 1.160 1_455 S
C1064 O1071 1.185 . S
O1065 C1064 1.160 1_655 S
O1066 Zn1067 1.899 1_655 S
O1066 C1074 1.284 . S
Zn1067 O1066 1.899 1_455 S
Zn1067 O1068 2.032 1_455 S
Zn1067 O1071 2.086 . S
Zn1067 O1076 1.977 . S
O1068 Zn1067 2.032 1_655 S
O1068 C1072 1.276 1_655 S
C1069 O1070 1.203 . S
C1069 O1076 1.267 . S
O1070 C1069 1.203 . S
O1071 C1064 1.185 . S
O1071 Zn1067 2.086 . S
C1072 O1068 1.276 1_455 S
C1072 O1073 1.219 . S
O1073 C1072 1.219 . S
C1074 O1066 1.284 . S
C1074 O1075 1.273 . S
O1075 C1074 1.273 . S
O1076 Zn1067 1.977 . S
O1076 C1069 1.267 . S
C1077 O1078 1.160 . S
C1077 O1084 1.185 . S
O1078 C1077 1.160 . S
O1079 Zn1080 1.899 . S
O1079 C1087 1.284 . S
Zn1080 O1079 1.899 . S
Zn1080 O1081 2.032 . S
Zn1080 O1084 2.086 . S
Zn1080 O1089 1.977 . S
O1081 Zn1080 2.032 . S
O1081 C1085 1.278 . S
C1082 O1083 1.203 . S
C1082 O1089 1.267 . S
O1083 C1082 1.203 . S
O1084 C1077 1.185 . S
O1084 Zn1080 2.086 . S
C1085 O1081 1.278 . S
C1085 O1086 1.211 . S
O1086 C1085 1.211 . S
C1087 O1079 1.284 . S
C1087 O1088 1.273 . S
O1088 C1087 1.273 . S
O1089 Zn1080 1.977 . S
O1089 C1082 1.267 . S
C1090 O1091 1.160 1_455 S
C1090 O1097 1.185 . S
O1091 C1090 1.160 1_655 S
O1092 Zn1093 1.899 1_655 S
O1092 C1100 1.284 . S
Zn1093 O1092 1.899 1_455 S
Zn1093 O1094 2.032 1_455 S
Zn1093 O1097 2.086 . S
Zn1093 O1102 1.977 . S
O1094 Zn1093 2.032 1_655 S
O1094 C1098 1.280 . S
C1095 O1096 1.203 . S
C1095 O1102 1.267 . S
O1096 C1095 1.203 . S
O1097 C1090 1.185 . S
O1097 Zn1093 2.086 . S
C1098 O1094 1.280 . S
C1098 O1099 1.206 1_655 S
O1099 C1098 1.206 1_455 S
C1100 O1092 1.284 . S
C1100 O1101 1.273 . S
O1101 C1100 1.273 . S
O1102 Zn1093 1.977 . S
O1102 C1095 1.267 . S
C1103 O1104 1.160 . S
C1103 O1110 1.185 . S
O1104 C1103 1.160 . S
O1105 Zn1106 1.899 . S
O1105 C1113 1.284 . S
Zn1106 O1105 1.899 . S
Zn1106 O1107 2.032 . S
Zn1106 O1110 2.086 . S
Zn1106 O1115 1.977 . S
O1107 Zn1106 2.032 . S
O1107 C1111 1.278 . S
C1108 O1109 1.203 . S
C1108 O1115 1.267 . S
O1109 C1108 1.203 . S
O1110 C1103 1.185 . S
O1110 Zn1106 2.086 . S
C1111 O1107 1.278 . S
C1111 O1112 1.211 . S
O1112 C1111 1.211 . S
C1113 O1105 1.284 . S
C1113 O1114 1.273 . S
O1114 C1113 1.273 . S
O1115 Zn1106 1.977 . S
O1115 C1108 1.267 . S
C1116 C1117 1.369 . S
C1116 C1118 1.419 . S
C1116 H1120 0.930 . S
C1117 C1116 1.369 . S
C1117 C1126 1.429 . S
C1118 C1116 1.419 . S
C1118 C1119 1.363 . S
C1118 H1121 0.929 . S
C1119 C1118 1.363 . S
C1119 C1125 1.428 . S
H1120 C1116 0.930 . S
H1121 C1118 0.929 . S
S1122 N1123 1.613 . S
S1122 N1124 1.610 . S
N1123 S1122 1.613 . S
N1123 C1126 1.350 . S
N1124 S1122 1.610 . S
N1124 C1125 1.351 . S
C1125 C1119 1.428 . S
C1125 N1124 1.351 . S
C1125 C1126 1.434 . S
C1126 C1117 1.429 . S
C1126 N1123 1.350 . S
C1126 C1125 1.434 . S
C1127 C1128 1.369 . S
C1127 C1129 1.419 . S
C1127 H1131 0.930 . S
C1128 C1127 1.369 . S
C1128 C1137 1.429 . S
C1129 C1127 1.419 . S
C1129 C1130 1.363 . S
C1129 H1132 0.929 . S
C1130 C1129 1.363 . S
C1130 C1136 1.428 . S
H1131 C1127 0.930 . S
H1132 C1129 0.929 . S
S1133 N1134 1.613 . S
S1133 N1135 1.610 . S
N1134 S1133 1.613 . S
N1134 C1137 1.350 . S
N1135 S1133 1.610 . S
N1135 C1136 1.351 . S
C1136 C1130 1.428 . S
C1136 N1135 1.351 . S
C1136 C1137 1.434 . S
C1137 C1128 1.429 . S
C1137 N1134 1.350 . S
C1137 C1136 1.434 . S
C1138 C1139 1.369 . S
C1138 C1140 1.419 . S
C1138 H1142 0.930 . S
C1139 C1138 1.369 . S
C1139 C1148 1.429 . S
C1140 C1138 1.419 . S
C1140 C1141 1.363 . S
C1140 H1143 0.929 . S
C1141 C1140 1.363 . S
C1141 C1147 1.428 . S
H1142 C1138 0.930 . S
H1143 C1140 0.929 . S
S1144 N1145 1.613 . S
S1144 N1146 1.610 . S
N1145 S1144 1.613 . S
N1145 C1148 1.350 . S
N1146 S1144 1.610 . S
N1146 C1147 1.351 . S
C1147 C1141 1.428 . S
C1147 N1146 1.351 . S
C1147 C1148 1.434 . S
C1148 C1139 1.429 . S
C1148 N1145 1.350 . S
C1148 C1147 1.434 . S
C1149 C1150 1.369 1_545 S
C1149 C1151 1.419 . S
C1149 H1153 0.930 . S
C1150 C1149 1.369 1_565 S
C1150 C1159 1.429 . S
C1151 C1149 1.419 . S
C1151 C1152 1.376 . S
C1151 H1154 0.929 . S
C1152 C1151 1.376 . S
C1152 C1158 1.406 1_545 S
H1153 C1149 0.930 . S
H1154 C1151 0.929 . S
S1155 N1156 1.613 . S
S1155 N1157 1.610 . S
N1156 S1155 1.613 . S
N1156 C1159 1.350 . S
N1157 S1155 1.610 . S
N1157 C1158 1.351 . S
C1158 C1152 1.406 1_565 S
C1158 N1157 1.351 . S
C1158 C1159 1.434 . S
C1159 C1150 1.429 . S
C1159 N1156 1.350 . S
C1159 C1158 1.434 . S
C1160 C1161 1.369 . S
C1160 C1162 1.419 . S
C1160 H1164 0.930 . S
C1161 C1160 1.369 . S
C1161 C1170 1.429 . S
C1162 C1160 1.419 . S
C1162 C1163 1.363 . S
C1162 H1165 0.929 . S
C1163 C1162 1.363 . S
C1163 C1169 1.428 . S
H1164 C1160 0.930 . S
H1165 C1162 0.929 . S
S1166 N1167 1.613 . S
S1166 N1168 1.610 . S
N1167 S1166 1.613 . S
N1167 C1170 1.350 . S
N1168 S1166 1.610 . S
N1168 C1169 1.351 . S
C1169 C1163 1.428 . S
C1169 N1168 1.351 . S
C1169 C1170 1.434 . S
C1170 C1161 1.429 . S
C1170 N1167 1.350 . S
C1170 C1169 1.434 . S
C1171 C1172 1.369 . S
C1171 C1173 1.419 . S
C1171 H1175 0.930 . S
C1172 C1171 1.369 . S
C1172 C1181 1.429 . S
C1173 C1171 1.419 . S
C1173 C1174 1.363 . S
C1173 H1176 0.929 . S
C1174 C1173 1.363 . S
C1174 C1180 1.428 . S
H1175 C1171 0.930 . S
H1176 C1173 0.929 . S
S1177 N1178 1.613 . S
S1177 N1179 1.610 . S
N1178 S1177 1.613 . S
N1178 C1181 1.350 . S
N1179 S1177 1.610 . S
N1179 C1180 1.351 . S
C1180 C1174 1.428 . S
C1180 N1179 1.351 . S
C1180 C1181 1.434 . S
C1181 C1172 1.429 . S
C1181 N1178 1.350 . S
C1181 C1180 1.434 . S
C1182 C1183 1.369 . S
C1182 C1184 1.419 . S
C1182 H1186 0.930 . S
C1183 C1182 1.369 . S
C1183 C1192 1.429 . S
C1184 C1182 1.419 . S
C1184 C1185 1.363 . S
C1184 H1187 0.929 . S
C1185 C1184 1.363 . S
C1185 C1191 1.428 . S
H1186 C1182 0.930 . S
H1187 C1184 0.929 . S
S1188 N1189 1.613 . S
S1188 N1190 1.610 . S
N1189 S1188 1.613 . S
N1189 C1192 1.350 . S
N1190 S1188 1.610 . S
N1190 C1191 1.351 . S
C1191 C1185 1.428 . S
C1191 N1190 1.351 . S
C1191 C1192 1.434 . S
C1192 C1183 1.429 . S
C1192 N1189 1.350 . S
C1192 C1191 1.434 . S
C1193 C1194 1.369 . S
C1193 C1195 1.417 1_565 S
C1193 H1197 0.930 1_565 S
C1194 C1193 1.369 . S
C1194 C1203 1.429 . S
C1195 C1193 1.417 1_545 S
C1195 C1196 1.355 1_545 S
C1195 H1198 0.940 . S
C1196 C1195 1.355 1_565 S
C1196 C1202 1.428 . S
H1197 C1193 0.930 1_545 S
H1198 C1195 0.940 . S
S1199 N1200 1.613 . S
S1199 N1201 1.610 . S
N1200 S1199 1.613 . S
N1200 C1203 1.350 . S
N1201 S1199 1.610 . S
N1201 C1202 1.351 . S
C1202 C1196 1.428 . S
C1202 N1201 1.351 . S
C1202 C1203 1.434 . S
C1203 C1194 1.429 . S
C1203 N1200 1.350 . S
C1203 C1202 1.434 . S
C1204 C1205 1.369 . S
C1204 C1206 1.419 . S
C1204 H1208 0.930 . S
C1205 C1204 1.369 . S
C1205 C1214 1.429 . S
C1206 C1204 1.419 . S
C1206 C1207 1.363 . S
C1206 H1209 0.929 . S
C1207 C1206 1.363 . S
C1207 C1213 1.428 . S
H1208 C1204 0.930 . S
H1209 C1206 0.929 . S
S1210 N1211 1.613 . S
S1210 N1212 1.610 . S
N1211 S1210 1.613 . S
N1211 C1214 1.350 . S
N1212 S1210 1.610 . S
N1212 C1213 1.351 . S
C1213 C1207 1.428 . S
C1213 N1212 1.351 . S
C1213 C1214 1.434 . S
C1214 C1205 1.429 . S
C1214 N1211 1.350 . S
C1214 C1213 1.434 . S
C1215 C1216 1.369 . S
C1215 C1217 1.419 . S
C1215 H1219 0.930 . S
C1216 C1215 1.369 . S
C1216 C1225 1.429 . S
C1217 C1215 1.419 . S
C1217 C1218 1.363 . S
C1217 H1220 0.929 . S
C1218 C1217 1.363 . S
C1218 C1224 1.428 . S
H1219 C1215 0.930 . S
H1220 C1217 0.929 . S
S1221 N1222 1.613 . S
S1221 N1223 1.610 . S
N1222 S1221 1.613 . S
N1222 C1225 1.350 . S
N1223 S1221 1.610 . S
N1223 C1224 1.351 . S
C1224 C1218 1.428 . S
C1224 N1223 1.351 . S
C1224 C1225 1.434 . S
C1225 C1216 1.429 . S
C1225 N1222 1.350 . S
C1225 C1224 1.434 . S
C1226 C1227 1.369 . S
C1226 C1228 1.419 . S
C1226 H1230 0.930 . S
C1227 C1226 1.369 . S
C1227 C1236 1.429 . S
C1228 C1226 1.419 . S
C1228 C1229 1.363 . S
C1228 H1231 0.929 . S
C1229 C1228 1.363 . S
C1229 C1235 1.428 . S
H1230 C1226 0.930 . S
H1231 C1228 0.929 . S
S1232 N1233 1.613 . S
S1232 N1234 1.610 . S
N1233 S1232 1.613 . S
N1233 C1236 1.350 . S
N1234 S1232 1.610 . S
N1234 C1235 1.351 . S
C1235 C1229 1.428 . S
C1235 N1234 1.351 . S
C1235 C1236 1.434 . S
C1236 C1227 1.429 . S
C1236 N1233 1.350 . S
C1236 C1235 1.434 . S
C1237 C1238 1.369 . S
C1237 C1239 1.419 . S
C1237 H1241 0.930 . S
C1238 C1237 1.369 . S
C1238 C1247 1.429 . S
C1239 C1237 1.419 . S
C1239 C1240 1.363 . S
C1239 H1242 0.929 . S
C1240 C1239 1.363 . S
C1240 C1246 1.428 . S
H1241 C1237 0.930 . S
H1242 C1239 0.929 . S
S1243 N1244 1.613 . S
S1243 N1245 1.610 . S
N1244 S1243 1.613 . S
N1244 C1247 1.350 . S
N1245 S1243 1.610 . S
N1245 C1246 1.351 . S
C1246 C1240 1.428 . S
C1246 N1245 1.351 . S
C1246 C1247 1.434 . S
C1247 C1238 1.429 . S
C1247 N1244 1.350 . S
C1247 C1246 1.434 . S
C1248 C1249 1.369 . S
C1248 C1250 1.419 . S
C1248 H1252 0.930 . S
C1249 C1248 1.369 . S
C1249 C1258 1.429 . S
C1250 C1248 1.419 . S
C1250 C1251 1.363 . S
C1250 H1253 0.929 . S
C1251 C1250 1.363 . S
C1251 C1257 1.428 . S
H1252 C1248 0.930 . S
H1253 C1250 0.929 . S
S1254 N1255 1.613 . S
S1254 N1256 1.610 . S
N1255 S1254 1.613 . S
N1255 C1258 1.350 . S
N1256 S1254 1.610 . S
N1256 C1257 1.351 . S
C1257 C1251 1.428 . S
C1257 N1256 1.351 . S
C1257 C1258 1.434 . S
C1258 C1249 1.429 . S
C1258 N1255 1.350 . S
C1258 C1257 1.434 . S
C1259 C1260 1.369 . S
C1259 C1261 1.419 . S
C1259 H1263 0.930 . S
C1260 C1259 1.369 . S
C1260 C1269 1.429 . S
C1261 C1259 1.419 . S
C1261 C1262 1.363 . S
C1261 H1264 0.929 . S
C1262 C1261 1.363 . S
C1262 C1268 1.446 . S
H1263 C1259 0.930 . S
H1264 C1261 0.929 . S
S1265 N1266 1.613 . S
S1265 N1267 1.610 . S
N1266 S1265 1.613 . S
N1266 C1269 1.350 1_655 S
N1267 S1265 1.610 . S
N1267 C1268 1.331 1_655 S
C1268 C1262 1.446 . S
C1268 N1267 1.331 1_455 S
C1268 C1269 1.437 . S
C1269 C1260 1.429 . S
C1269 N1266 1.350 1_455 S
C1269 C1268 1.437 . S
C1270 C1271 1.369 . S
C1270 C1272 1.419 . S
C1270 H1274 0.930 . S
C1271 C1270 1.369 . S
C1271 C1280 1.429 . S
C1272 C1270 1.419 . S
C1272 C1273 1.363 . S
C1272 H1275 0.929 . S
C1273 C1272 1.363 . S
C1273 C1279 1.428 . S
H1274 C1270 0.930 . S
H1275 C1272 0.929 . S
S1276 N1277 1.613 . S
S1276 N1278 1.610 . S
N1277 S1276 1.613 . S
N1277 C1280 1.350 . S
N1278 S1276 1.610 . S
N1278 C1279 1.351 . S
C1279 C1273 1.428 . S
C1279 N1278 1.351 . S
C1279 C1280 1.434 . S
C1280 C1271 1.429 . S
C1280 N1277 1.350 . S
C1280 C1279 1.434 . S
C1281 C1282 1.369 1_455 S
C1281 C1283 1.419 . S
C1281 H1285 0.930 . S
C1282 C1281 1.369 1_655 S
C1282 C1291 1.429 . S
C1283 C1281 1.419 . S
C1283 C1284 1.363 1_455 S
C1283 H1286 0.929 . S
C1284 C1283 1.363 1_655 S
C1284 C1290 1.428 . S
H1285 C1281 0.930 . S
H1286 C1283 0.929 . S
S1287 N1288 1.613 . S
S1287 N1289 1.610 . S
N1288 S1287 1.613 . S
N1288 C1291 1.350 . S
N1289 S1287 1.610 . S
N1289 C1290 1.351 . S
C1290 C1284 1.428 . S
C1290 N1289 1.351 . S
C1290 C1291 1.434 . S
C1291 C1282 1.429 . S
C1291 N1288 1.350 . S
C1291 C1290 1.434 . S
C1292 C1293 1.369 . S
C1292 C1294 1.419 . S
C1292 H1296 0.930 . S
C1293 C1292 1.369 . S
C1293 C1302 1.429 . S
C1294 C1292 1.419 . S
C1294 C1295 1.363 . S
C1294 H1297 0.929 . S
C1295 C1294 1.363 . S
C1295 C1301 1.428 . S
H1296 C1292 0.930 . S
H1297 C1294 0.929 . S
S1298 N1299 1.613 . S
S1298 N1300 1.610 . S
N1299 S1298 1.613 . S
N1299 C1302 1.350 . S
N1300 S1298 1.610 . S
N1300 C1301 1.351 . S
C1301 C1295 1.428 . S
C1301 N1300 1.351 . S
C1301 C1302 1.434 . S
C1302 C1293 1.429 . S
C1302 N1299 1.350 . S
C1302 C1301 1.434 . S
C1303 C1304 1.369 . S
C1303 C1305 1.419 . S
C1303 H1307 0.930 . S
C1304 C1303 1.369 . S
C1304 C1313 1.429 . S
C1305 C1303 1.419 . S
C1305 C1306 1.363 . S
C1305 H1308 0.929 . S
C1306 C1305 1.363 . S
C1306 C1312 1.428 . S
H1307 C1303 0.930 . S
H1308 C1305 0.929 . S
S1309 N1310 1.613 . S
S1309 N1311 1.610 . S
N1310 S1309 1.613 . S
N1310 C1313 1.350 . S
N1311 S1309 1.610 . S
N1311 C1312 1.351 . S
C1312 C1306 1.428 . S
C1312 N1311 1.351 . S
C1312 C1313 1.434 . S
C1313 C1304 1.429 . S
C1313 N1310 1.350 . S
C1313 C1312 1.434 . S
C1314 C1315 1.369 . S
C1314 C1316 1.419 . S
C1314 H1318 0.930 . S
C1315 C1314 1.369 . S
C1315 C1324 1.429 . S
C1316 C1314 1.419 . S
C1316 C1317 1.370 . S
C1316 H1319 0.929 . S
C1317 C1316 1.370 . S
C1317 C1323 1.429 . S
H1318 C1314 0.930 . S
H1319 C1316 0.929 . S
S1320 N1321 1.613 1_554 S
S1320 N1322 1.610 . S
N1321 S1320 1.613 1_556 S
N1321 C1324 1.350 . S
N1322 S1320 1.610 . S
N1322 C1323 1.348 1_554 S
C1323 C1317 1.429 . S
C1323 N1322 1.348 1_556 S
C1323 C1324 1.437 . S
C1324 C1315 1.429 . S
C1324 N1321 1.350 . S
C1324 C1323 1.437 . S
C1325 C1326 1.369 . S
C1325 C1327 1.419 . S
C1325 H1329 0.930 . S
C1326 C1325 1.369 . S
C1326 C1335 1.429 . S
C1327 C1325 1.419 . S
C1327 C1328 1.363 . S
C1327 H1330 0.929 . S
C1328 C1327 1.363 . S
C1328 C1334 1.428 . S
H1329 C1325 0.930 . S
H1330 C1327 0.929 . S
S1331 N1332 1.613 . S
S1331 N1333 1.610 . S
N1332 S1331 1.613 . S
N1332 C1335 1.350 . S
N1333 S1331 1.610 . S
N1333 C1334 1.351 . S
C1334 C1328 1.428 . S
C1334 N1333 1.351 . S
C1334 C1335 1.434 . S
C1335 C1326 1.429 . S
C1335 N1332 1.350 . S
C1335 C1334 1.434 . S
C1336 C1337 1.369 . S
C1336 C1338 1.419 . S
C1336 H1340 0.930 . S
C1337 C1336 1.369 . S
C1337 C1346 1.429 . S
C1338 C1336 1.419 . S
C1338 C1339 1.363 . S
C1338 H1341 0.929 . S
C1339 C1338 1.363 . S
C1339 C1345 1.428 . S
H1340 C1336 0.930 . S
H1341 C1338 0.929 . S
S1342 N1343 1.613 . S
S1342 N1344 1.610 . S
N1343 S1342 1.613 . S
N1343 C1346 1.350 . S
N1344 S1342 1.610 . S
N1344 C1345 1.351 . S
C1345 C1339 1.428 . S
C1345 N1344 1.351 . S
C1345 C1346 1.434 . S
C1346 C1337 1.429 . S
C1346 N1343 1.350 . S
C1346 C1345 1.434 . S
C1347 C1348 1.369 . S
C1347 C1349 1.419 . S
C1347 H1351 0.930 . S
C1348 C1347 1.369 . S
C1348 C1357 1.429 . S
C1349 C1347 1.419 . S
C1349 C1350 1.363 . S
C1349 H1352 0.929 . S
C1350 C1349 1.363 . S
C1350 C1356 1.428 . S
H1351 C1347 0.930 . S
H1352 C1349 0.929 . S
S1353 N1354 1.613 . S
S1353 N1355 1.610 . S
N1354 S1353 1.613 . S
N1354 C1357 1.350 . S
N1355 S1353 1.610 . S
N1355 C1356 1.351 . S
C1356 C1350 1.428 . S
C1356 N1355 1.351 . S
C1356 C1357 1.434 . S
C1357 C1348 1.429 . S
C1357 N1354 1.350 . S
C1357 C1356 1.434 . S
C1358 C1359 1.369 . S
C1358 C1360 1.419 . S
C1358 H1362 0.930 . S
C1359 C1358 1.369 . S
C1359 C1368 1.429 . S
C1360 C1358 1.419 . S
C1360 C1361 1.363 . S
C1360 H1363 0.929 . S
C1361 C1360 1.363 . S
C1361 C1367 1.428 . S
H1362 C1358 0.930 . S
H1363 C1360 0.929 . S
S1364 N1365 1.613 . S
S1364 N1366 1.610 . S
N1365 S1364 1.613 . S
N1365 C1368 1.350 . S
N1366 S1364 1.610 . S
N1366 C1367 1.351 . S
C1367 C1361 1.428 . S
C1367 N1366 1.351 . S
C1367 C1368 1.434 . S
C1368 C1359 1.429 . S
C1368 N1365 1.350 . S
C1368 C1367 1.434 . S
C1369 C1370 1.369 . S
C1369 C1371 1.419 . S
C1369 H1373 0.930 . S
C1370 C1369 1.369 . S
C1370 C1379 1.429 . S
C1371 C1369 1.419 . S
C1371 C1372 1.363 . S
C1371 H1374 0.929 . S
C1372 C1371 1.363 . S
C1372 C1378 1.428 . S
H1373 C1369 0.930 . S
H1374 C1371 0.929 . S
S1375 N1376 1.613 . S
S1375 N1377 1.610 . S
N1376 S1375 1.613 . S
N1376 C1379 1.350 . S
N1377 S1375 1.610 . S
N1377 C1378 1.351 . S
C1378 C1372 1.428 . S
C1378 N1377 1.351 . S
C1378 C1379 1.434 . S
C1379 C1370 1.429 . S
C1379 N1376 1.350 . S
C1379 C1378 1.434 . S
C1380 C1381 1.369 . S
C1380 C1382 1.419 . S
C1380 H1384 0.930 . S
C1381 C1380 1.369 . S
C1381 C1390 1.429 . S
C1382 C1380 1.419 . S
C1382 C1383 1.363 . S
C1382 H1385 0.929 . S
C1383 C1382 1.363 . S
C1383 C1389 1.428 . S
H1384 C1380 0.930 . S
H1385 C1382 0.929 . S
S1386 N1387 1.613 . S
S1386 N1388 1.610 . S
N1387 S1386 1.613 . S
N1387 C1390 1.350 . S
N1388 S1386 1.610 . S
N1388 C1389 1.351 . S
C1389 C1383 1.428 . S
C1389 N1388 1.351 . S
C1389 C1390 1.434 . S
C1390 C1381 1.429 . S
C1390 N1387 1.350 . S
C1390 C1389 1.434 . S
C1391 C1392 1.369 . S
C1391 C1393 1.419 . S
C1391 H1395 0.930 . S
C1392 C1391 1.369 . S
C1392 C1401 1.429 . S
C1393 C1391 1.419 . S
C1393 C1394 1.363 . S
C1393 H1396 0.929 . S
C1394 C1393 1.363 . S
C1394 C1400 1.428 . S
H1395 C1391 0.930 . S
H1396 C1393 0.929 . S
S1397 N1398 1.601 1_565 S
S1397 N1399 1.610 . S
N1398 S1397 1.601 1_545 S
N1398 C1401 1.361 . S
N1399 S1397 1.610 . S
N1399 C1400 1.351 1_565 S
C1400 C1394 1.428 . S
C1400 N1399 1.351 1_545 S
C1400 C1401 1.434 . S
C1401 C1392 1.429 . S
C1401 N1398 1.361 . S
C1401 C1400 1.434 . S
C1402 C1403 1.369 . S
C1402 C1404 1.419 . S
C1402 H1406 0.930 . S
C1403 C1402 1.369 . S
C1403 C1412 1.429 . S
C1404 C1402 1.419 . S
C1404 C1405 1.363 . S
C1404 H1407 0.929 . S
C1405 C1404 1.363 . S
C1405 C1411 1.428 . S
H1406 C1402 0.930 . S
H1407 C1404 0.929 . S
S1408 N1409 1.613 . S
S1408 N1410 1.610 . S
N1409 S1408 1.613 . S
N1409 C1412 1.350 . S
N1410 S1408 1.610 . S
N1410 C1411 1.351 . S
C1411 C1405 1.428 . S
C1411 N1410 1.351 . S
C1411 C1412 1.434 . S
C1412 C1403 1.429 . S
C1412 N1409 1.350 . S
C1412 C1411 1.434 . S
C1413 C1414 1.369 . S
C1413 C1415 1.419 . S
C1413 H1417 0.930 . S
C1414 C1413 1.369 . S
C1414 C1423 1.429 . S
C1415 C1413 1.419 . S
C1415 C1416 1.363 . S
C1415 H1418 0.929 . S
C1416 C1415 1.363 . S
C1416 C1422 1.428 . S
H1417 C1413 0.930 . S
H1418 C1415 0.929 . S
S1419 N1420 1.613 . S
S1419 N1421 1.610 . S
N1420 S1419 1.613 . S
N1420 C1423 1.350 . S
N1421 S1419 1.610 . S
N1421 C1422 1.351 . S
C1422 C1416 1.428 . S
C1422 N1421 1.351 . S
C1422 C1423 1.434 . S
C1423 C1414 1.429 . S
C1423 N1420 1.350 . S
C1423 C1422 1.434 . S
C1424 C1425 1.369 . S
C1424 C1426 1.419 . S
C1424 H1428 0.930 . S
C1425 C1424 1.369 . S
C1425 C1434 1.429 . S
C1426 C1424 1.419 . S
C1426 C1427 1.363 . S
C1426 H1429 0.929 . S
C1427 C1426 1.363 . S
C1427 C1433 1.428 . S
H1428 C1424 0.930 . S
H1429 C1426 0.929 . S
S1430 N1431 1.613 . S
S1430 N1432 1.610 . S
N1431 S1430 1.613 . S
N1431 C1434 1.350 . S
N1432 S1430 1.610 . S
N1432 C1433 1.351 . S
C1433 C1427 1.428 . S
C1433 N1432 1.351 . S
C1433 C1434 1.434 . S
C1434 C1425 1.429 . S
C1434 N1431 1.350 . S
C1434 C1433 1.434 . S
C1435 C1436 1.369 . S
C1435 C1437 1.419 . S
C1435 H1439 0.930 . S
C1436 C1435 1.369 . S
C1436 C1445 1.429 . S
C1437 C1435 1.419 . S
C1437 C1438 1.363 . S
C1437 H1440 0.929 . S
C1438 C1437 1.363 . S
C1438 C1444 1.428 . S
H1439 C1435 0.930 . S
H1440 C1437 0.929 . S
S1441 N1442 1.613 . S
S1441 N1443 1.610 . S
N1442 S1441 1.613 . S
N1442 C1445 1.350 . S
N1443 S1441 1.610 . S
N1443 C1444 1.351 . S
C1444 C1438 1.428 . S
C1444 N1443 1.351 . S
C1444 C1445 1.434 . S
C1445 C1436 1.429 . S
C1445 N1442 1.350 . S
C1445 C1444 1.434 . S
C1446 C1447 1.369 . S
C1446 C1448 1.419 . S
C1446 H1450 0.930 . S
C1447 C1446 1.369 . S
C1447 C1456 1.429 . S
C1448 C1446 1.419 . S
C1448 C1449 1.363 . S
C1448 H1451 0.929 . S
C1449 C1448 1.363 . S
C1449 C1455 1.428 . S
H1450 C1446 0.930 . S
H1451 C1448 0.929 . S
S1452 N1453 1.613 . S
S1452 N1454 1.610 . S
N1453 S1452 1.613 . S
N1453 C1456 1.350 . S
N1454 S1452 1.610 . S
N1454 C1455 1.351 . S
C1455 C1449 1.428 . S
C1455 N1454 1.351 . S
C1455 C1456 1.434 . S
C1456 C1447 1.429 . S
C1456 N1453 1.350 . S
C1456 C1455 1.434 . S
C1457 C1458 1.369 . S
C1457 C1459 1.419 . S
C1457 H1461 0.930 . S
C1458 C1457 1.369 . S
C1458 C1467 1.429 . S
C1459 C1457 1.419 . S
C1459 C1460 1.363 . S
C1459 H1462 0.929 . S
C1460 C1459 1.363 . S
C1460 C1466 1.428 . S
H1461 C1457 0.930 . S
H1462 C1459 0.929 . S
S1463 N1464 1.613 . S
S1463 N1465 1.610 . S
N1464 S1463 1.613 . S
N1464 C1467 1.350 . S
N1465 S1463 1.610 . S
N1465 C1466 1.351 . S
C1466 C1460 1.428 . S
C1466 N1465 1.351 . S
C1466 C1467 1.434 . S
C1467 C1458 1.429 . S
C1467 N1464 1.350 . S
C1467 C1466 1.434 . S
C1468 C1469 1.369 . S
C1468 C1470 1.419 . S
C1468 H1472 0.930 . S
C1469 C1468 1.369 . S
C1469 C1478 1.429 . S
C1470 C1468 1.419 . S
C1470 C1471 1.363 . S
C1470 H1473 0.929 . S
C1471 C1470 1.363 . S
C1471 C1477 1.428 . S
H1472 C1468 0.930 . S
H1473 C1470 0.929 . S
S1474 N1475 1.613 . S
S1474 N1476 1.610 . S
N1475 S1474 1.613 . S
N1475 C1478 1.350 . S
N1476 S1474 1.610 . S
N1476 C1477 1.351 . S
C1477 C1471 1.428 . S
C1477 N1476 1.351 . S
C1477 C1478 1.434 . S
C1478 C1469 1.429 . S
C1478 N1475 1.350 . S
C1478 C1477 1.434 . S
C1479 C1480 1.369 1_455 S
C1479 C1481 1.419 . S
C1479 H1483 0.930 . S
C1480 C1479 1.369 1_655 S
C1480 C1489 1.429 . S
C1481 C1479 1.419 . S
C1481 C1482 1.363 1_455 S
C1481 H1484 0.929 . S
C1482 C1481 1.363 1_655 S
C1482 C1488 1.428 . S
H1483 C1479 0.930 . S
H1484 C1481 0.929 . S
S1485 N1486 1.613 . S
S1485 N1487 1.610 . S
N1486 S1485 1.613 . S
N1486 C1489 1.350 . S
N1487 S1485 1.610 . S
N1487 C1488 1.351 . S
C1488 C1482 1.428 . S
C1488 N1487 1.351 . S
C1488 C1489 1.434 . S
C1489 C1480 1.429 . S
C1489 N1486 1.350 . S
C1489 C1488 1.434 . S
C1490 C1491 1.369 . S
C1490 C1492 1.419 . S
C1490 H1494 0.930 . S
C1491 C1490 1.369 . S
C1491 C1500 1.429 . S
C1492 C1490 1.419 . S
C1492 C1493 1.363 . S
C1492 H1495 0.929 . S
C1493 C1492 1.363 . S
C1493 C1499 1.428 . S
H1494 C1490 0.930 . S
H1495 C1492 0.929 . S
S1496 N1497 1.613 . S
S1496 N1498 1.610 . S
N1497 S1496 1.613 . S
N1497 C1500 1.350 . S
N1498 S1496 1.610 . S
N1498 C1499 1.351 . S
C1499 C1493 1.428 . S
C1499 N1498 1.351 . S
C1499 C1500 1.434 . S
C1500 C1491 1.429 . S
C1500 N1497 1.350 . S
C1500 C1499 1.434 . S
C1501 C1502 1.369 . S
C1501 C1503 1.419 1_455 S
C1501 H1505 0.930 1_455 S
C1502 C1501 1.369 . S
C1502 C1511 1.429 . S
C1503 C1501 1.419 1_655 S
C1503 C1504 1.363 1_655 S
C1503 H1506 0.929 . S
C1504 C1503 1.363 1_455 S
C1504 C1510 1.428 . S
H1505 C1501 0.930 1_655 S
H1506 C1503 0.929 . S
S1507 N1508 1.613 . S
S1507 N1509 1.610 . S
N1508 S1507 1.613 . S
N1508 C1511 1.350 . S
N1509 S1507 1.610 . S
N1509 C1510 1.351 . S
C1510 C1504 1.428 . S
C1510 N1509 1.351 . S
C1510 C1511 1.434 . S
C1511 C1502 1.429 . S
C1511 N1508 1.350 . S
C1511 C1510 1.434 . S
C1512 C1513 1.369 . S
C1512 C1514 1.419 . S
C1512 H1516 0.930 . S
C1513 C1512 1.369 . S
C1513 C1522 1.429 . S
C1514 C1512 1.419 . S
C1514 C1515 1.363 . S
C1514 H1517 0.929 . S
C1515 C1514 1.363 . S
C1515 C1521 1.428 . S
H1516 C1512 0.930 . S
H1517 C1514 0.929 . S
S1518 N1519 1.613 . S
S1518 N1520 1.610 . S
N1519 S1518 1.613 . S
N1519 C1522 1.350 . S
N1520 S1518 1.610 . S
N1520 C1521 1.351 . S
C1521 C1515 1.428 . S
C1521 N1520 1.351 . S
C1521 C1522 1.434 . S
C1522 C1513 1.429 . S
C1522 N1519 1.350 . S
C1522 C1521 1.434 . S
C1523 C1524 1.369 . S
C1523 C1525 1.419 . S
C1523 H1527 0.930 . S
C1524 C1523 1.369 . S
C1524 C1533 1.429 . S
C1525 C1523 1.419 . S
C1525 C1526 1.363 . S
C1525 H1528 0.929 . S
C1526 C1525 1.363 . S
C1526 C1532 1.428 . S
H1527 C1523 0.930 . S
H1528 C1525 0.929 . S
S1529 N1530 1.613 . S
S1529 N1531 1.610 . S
N1530 S1529 1.613 . S
N1530 C1533 1.350 . S
N1531 S1529 1.610 . S
N1531 C1532 1.351 . S
C1532 C1526 1.428 . S
C1532 N1531 1.351 . S
C1532 C1533 1.434 . S
C1533 C1524 1.429 . S
C1533 N1530 1.350 . S
C1533 C1532 1.434 . S
C1534 C1535 1.369 . S
C1534 C1536 1.419 . S
C1534 H1538 0.930 . S
C1535 C1534 1.369 . S
C1535 C1544 1.429 . S
C1536 C1534 1.419 . S
C1536 C1537 1.363 . S
C1536 H1539 0.929 . S
C1537 C1536 1.363 . S
C1537 C1543 1.428 . S
H1538 C1534 0.930 . S
H1539 C1536 0.929 . S
S1540 N1541 1.613 . S
S1540 N1542 1.610 . S
N1541 S1540 1.613 . S
N1541 C1544 1.350 . S
N1542 S1540 1.610 . S
N1542 C1543 1.351 . S
C1543 C1537 1.428 . S
C1543 N1542 1.351 . S
C1543 C1544 1.434 . S
C1544 C1535 1.429 . S
C1544 N1541 1.350 . S
C1544 C1543 1.434 . S
C1545 C1546 1.369 . S
C1545 C1547 1.419 . S
C1545 H1549 0.930 . S
C1546 C1545 1.369 . S
C1546 C1555 1.429 . S
C1547 C1545 1.419 . S
C1547 C1548 1.363 . S
C1547 H1550 0.929 . S
C1548 C1547 1.363 . S
C1548 C1554 1.428 . S
H1549 C1545 0.930 . S
H1550 C1547 0.929 . S
S1551 N1552 1.613 . S
S1551 N1553 1.610 . S
N1552 S1551 1.613 . S
N1552 C1555 1.350 . S
N1553 S1551 1.610 . S
N1553 C1554 1.351 . S
C1554 C1548 1.428 . S
C1554 N1553 1.351 . S
C1554 C1555 1.434 . S
C1555 C1546 1.429 . S
C1555 N1552 1.350 . S
C1555 C1554 1.434 . S
C1556 C1557 1.369 . S
C1556 C1558 1.419 . S
C1556 H1560 0.930 . S
C1557 C1556 1.369 . S
C1557 C1566 1.429 . S
C1558 C1556 1.419 . S
C1558 C1559 1.363 . S
C1558 H1561 0.929 . S
C1559 C1558 1.363 . S
C1559 C1565 1.428 . S
H1560 C1556 0.930 . S
H1561 C1558 0.929 . S
S1562 N1563 1.613 . S
S1562 N1564 1.610 . S
N1563 S1562 1.613 . S
N1563 C1566 1.350 . S
N1564 S1562 1.610 . S
N1564 C1565 1.351 . S
C1565 C1559 1.428 . S
C1565 N1564 1.351 . S
C1565 C1566 1.434 . S
C1566 C1557 1.429 . S
C1566 N1563 1.350 . S
C1566 C1565 1.434 . S
C1567 C1568 1.369 . S
C1567 C1569 1.419 . S
C1567 H1571 0.930 . S
C1568 C1567 1.369 . S
C1568 C1577 1.429 . S
C1569 C1567 1.419 . S
C1569 C1570 1.363 . S
C1569 H1572 0.929 . S
C1570 C1569 1.363 . S
C1570 C1576 1.428 . S
H1571 C1567 0.930 . S
H1572 C1569 0.929 . S
S1573 N1574 1.613 . S
S1573 N1575 1.610 . S
N1574 S1573 1.613 . S
N1574 C1577 1.350 . S
N1575 S1573 1.610 . S
N1575 C1576 1.351 . S
C1576 C1570 1.428 . S
C1576 N1575 1.351 . S
C1576 C1577 1.434 . S
C1577 C1568 1.429 . S
C1577 N1574 1.350 . S
C1577 C1576 1.434 . S
C1578 C1579 1.369 . S
C1578 C1580 1.419 . S
C1578 H1582 0.930 . S
C1579 C1578 1.369 . S
C1579 C1588 1.429 . S
C1580 C1578 1.419 . S
C1580 C1581 1.363 . S
C1580 H1583 0.929 . S
C1581 C1580 1.363 . S
C1581 C1587 1.428 . S
H1582 C1578 0.930 . S
H1583 C1580 0.929 . S
S1584 N1585 1.613 . S
S1584 N1586 1.610 . S
N1585 S1584 1.613 . S
N1585 C1588 1.350 . S
N1586 S1584 1.610 . S
N1586 C1587 1.351 . S
C1587 C1581 1.428 . S
C1587 N1586 1.351 . S
C1587 C1588 1.434 . S
C1588 C1579 1.429 . S
C1588 N1585 1.350 . S
C1588 C1587 1.434 . S
C1589 C1590 1.369 . S
C1589 C1591 1.419 . S
C1589 H1593 0.930 . S
C1590 C1589 1.369 . S
C1590 C1599 1.429 . S
C1591 C1589 1.419 . S
C1591 C1592 1.363 . S
C1591 H1594 0.929 . S
C1592 C1591 1.363 . S
C1592 C1598 1.428 . S
H1593 C1589 0.930 . S
H1594 C1591 0.929 . S
S1595 N1596 1.613 . S
S1595 N1597 1.610 . S
N1596 S1595 1.613 . S
N1596 C1599 1.350 . S
N1597 S1595 1.610 . S
N1597 C1598 1.351 . S
C1598 C1592 1.428 . S
C1598 N1597 1.351 . S
C1598 C1599 1.434 . S
C1599 C1590 1.429 . S
C1599 N1596 1.350 . S
C1599 C1598 1.434 . S
C1600 C1601 1.369 . S
C1600 C1602 1.419 . S
C1600 H1604 0.930 . S
C1601 C1600 1.369 . S
C1601 C1610 1.429 . S
C1602 C1600 1.419 . S
C1602 C1603 1.363 . S
C1602 H1605 0.929 . S
C1603 C1602 1.363 . S
C1603 C1609 1.428 . S
H1604 C1600 0.930 . S
H1605 C1602 0.929 . S
S1606 N1607 1.613 . S
S1606 N1608 1.610 . S
N1607 S1606 1.613 . S
N1607 C1610 1.350 1_554 S
N1608 S1606 1.610 . S
N1608 C1609 1.351 1_554 S
C1609 C1603 1.428 . S
C1609 N1608 1.351 1_556 S
C1609 C1610 1.434 . S
C1610 C1601 1.429 . S
C1610 N1607 1.350 1_556 S
C1610 C1609 1.434 . S
C1611 C1612 1.369 . S
C1611 C1613 1.419 . S
C1611 H1615 0.930 . S
C1612 C1611 1.369 . S
C1612 C1621 1.429 . S
C1613 C1611 1.419 . S
C1613 C1614 1.363 . S
C1613 H1616 0.929 . S
C1614 C1613 1.363 . S
C1614 C1620 1.428 . S
H1615 C1611 0.930 . S
H1616 C1613 0.929 . S
S1617 N1618 1.613 . S
S1617 N1619 1.610 . S
N1618 S1617 1.613 . S
N1618 C1621 1.350 . S
N1619 S1617 1.610 . S
N1619 C1620 1.351 . S
C1620 C1614 1.428 . S
C1620 N1619 1.351 . S
C1620 C1621 1.434 . S
C1621 C1612 1.429 . S
C1621 N1618 1.350 . S
C1621 C1620 1.434 . S
C1622 C1623 1.369 . S
C1622 C1624 1.415 1_554 S
C1622 H1626 0.930 1_554 S
C1623 C1622 1.369 . S
C1623 C1632 1.429 . S
C1624 C1622 1.415 1_556 S
C1624 C1625 1.350 1_556 S
C1624 H1627 0.948 . S
C1625 C1624 1.350 1_554 S
C1625 C1631 1.428 . S
H1626 C1622 0.930 1_556 S
H1627 C1624 0.948 . S
S1628 N1629 1.613 . S
S1628 N1630 1.610 . S
N1629 S1628 1.613 . S
N1629 C1632 1.350 . S
N1630 S1628 1.610 . S
N1630 C1631 1.351 . S
C1631 C1625 1.428 . S
C1631 N1630 1.351 . S
C1631 C1632 1.434 . S
C1632 C1623 1.429 . S
C1632 N1629 1.350 . S
C1632 C1631 1.434 . S
C1633 C1634 1.369 . S
C1633 C1635 1.419 . S
C1633 H1637 0.930 . S
C1634 C1633 1.369 . S
C1634 C1643 1.429 . S
C1635 C1633 1.419 . S
C1635 C1636 1.363 . S
C1635 H1638 0.929 . S
C1636 C1635 1.363 . S
C1636 C1642 1.428 . S
H1637 C1633 0.930 . S
H1638 C1635 0.929 . S
S1639 N1640 1.613 . S
S1639 N1641 1.610 . S
N1640 S1639 1.613 . S
N1640 C1643 1.350 . S
N1641 S1639 1.610 . S
N1641 C1642 1.351 . S
C1642 C1636 1.428 . S
C1642 N1641 1.351 . S
C1642 C1643 1.434 . S
C1643 C1634 1.429 . S
C1643 N1640 1.350 . S
C1643 C1642 1.434 . S
C1119 C970 1.435 . S
C1117 C331 1.410 . S
C1130 C983 1.590 . S
C1128 C380 1.581 . S
C1139 C421 1.446 . S
C1141 C996 1.458 . S
C1152 C1009 1.518 . S
C1150 C260 1.502 . S
C1163 C1017 1.467 . S
C1161 C620 1.466 . S
C1174 C1030 1.422 . S
C1172 C740 1.418 . S
C1183 C680 1.492 . S
C1185 C1043 1.496 . S
C1196 C1056 1.499 . S
C1194 C571 1.500 . S
C1205 C691 1.428 . S
C1207 C1074 1.444 . S
C1218 C1085 1.507 . S
C1216 C541 1.526 . S
C1227 C601 1.443 . S
C1229 C1069 1.435 . S
C1240 C1077 1.462 . S
C1238 C721 1.462 . S
C1249 C451 1.483 . S
C1251 C1100 1.494 . S
C1260 C241 1.495 . S
C1262 C1090 1.480 . S
C1271 C320 1.483 . S
C1273 C1095 1.482 . S
C1282 C391 1.542 . S
C1284 C1098 1.534 . S
C1293 C211 1.425 . S
C1295 C1007 1.439 . S
C1304 C841 1.419 . S
C1306 C999 1.420 . S
C1317 C968 1.525 1_556 S
C1315 C901 1.551 . S
C1328 C973 1.499 . S
C1326 C500 1.495 . S
C1337 C271 1.502 . S
C1339 C1020 1.503 . S
C1350 C1059 1.503 . S
C1348 C661 1.511 . S
C1361 C1012 1.481 . S
C1359 C560 1.491 . S
C1372 C1038 1.446 . S
C1370 C751 1.460 . S
C1383 C1048 1.435 . S
C1381 C871 1.411 . S
C1392 C920 1.576 . S
C1394 C1061 1.588 . S
C1403 C481 1.443 . S
C1405 C1022 1.452 . S
C1416 C1035 1.515 . S
C1414 C800 1.497 . S
C1425 C200 1.470 . S
C1427 C991 1.462 . S
C1438 C1004 1.426 . S
C1436 C20 1.421 . S
C1449 C965 1.494 . S
C1447 C80 1.497 . S
C1460 C978 1.498 . S
C1458 C151 1.499 . S
C1469 C91 1.429 . S
C1471 C1087 1.443 . S
C1480 C121 1.523 . S
C1482 C1072 1.498 1_655 S
C1491 C181 1.439 . S
C1493 C1082 1.440 . S
C1502 C1 1.462 . S
C1504 C1064 1.462 . S
C1515 C1113 1.492 . S
C1513 C511 1.478 . S
C1526 C1103 1.484 . S
C1524 C781 1.489 . S
C1537 C1108 1.480 . S
C1535 C860 1.481 . S
C1546 C931 1.542 . S
C1548 C1111 1.531 . S
C1557 C631 1.431 . S
C1559 C1033 1.434 . S
C1570 C1025 1.421 . S
C1568 C301 1.418 . S
C1581 C1046 1.535 . S
C1579 C361 1.548 . S
C1592 C1051 1.496 . S
C1590 C440 1.504 . S
C1601 C811 1.501 . S
C1603 C994 1.506 . S
C1614 C981 1.505 . S
C1612 C61 1.516 . S
C1623 C140 1.493 . S
C1625 C986 1.479 . S
C1636 C960 1.446 . S
C1634 C31 1.465 . S
