# Generated by pormake.
# Topology zzz, (3,6)-cn, num edge types: 1
# Building blocks:
#     Node 0, Type 0, BuildingBlock: QEWDON_clean_linker_0, # of connection points: 3
#     Node 1, Type 0, BuildingBlock: QEWDON_clean_linker_0, # of connection points: 3
#     Node 2, Type 0, BuildingBlock: QEWDON_clean_linker_0, # of connection points: 3
#     Node 3, Type 0, BuildingBlock: QEWDON_clean_linker_0, # of connection points: 3
#     Node 4, Type 0, BuildingBlock: QEWDON_clean_linker_0, # of connection points: 3
#     Node 5, Type 0, BuildingBlock: QEWDON_clean_linker_0, # of connection points: 3
#     Node 6, Type 0, BuildingBlock: QEWDON_clean_linker_0, # of connection points: 3
#     Node 7, Type 0, BuildingBlock: QEWDON_clean_linker_0, # of connection points: 3
#     Node 8, Type 1, BuildingBlock: CUKXOW_clean_sbu_0, # of connection points: 6
#     Node 9, Type 1, BuildingBlock: CUKXOW_clean_sbu_0, # of connection points: 6
#     Node 10, Type 1, BuildingBlock: CUKXOW_clean_sbu_0, # of connection points: 6
#     Node 11, Type 1, BuildingBlock: CUKXOW_clean_sbu_0, # of connection points: 6
#     Edge 12, Type (0, 1), BuildingBlock: EZIPEK_clean_linker_0, # of connection points: 2
#     Edge 13, Type (0, 1), BuildingBlock: EZIPEK_clean_linker_0, # of connection points: 2
#     Edge 14, Type (0, 1), BuildingBlock: EZIPEK_clean_linker_0, # of connection points: 2
#     Edge 15, Type (0, 1), BuildingBlock: EZIPEK_clean_linker_0, # of connection points: 2
#     Edge 16, Type (0, 1), BuildingBlock: EZIPEK_clean_linker_0, # of connection points: 2
#     Edge 17, Type (0, 1), BuildingBlock: EZIPEK_clean_linker_0, # of connection points: 2
#     Edge 18, Type (0, 1), BuildingBlock: EZIPEK_clean_linker_0, # of connection points: 2
#     Edge 19, Type (0, 1), BuildingBlock: EZIPEK_clean_linker_0, # of connection points: 2
#     Edge 20, Type (0, 1), BuildingBlock: EZIPEK_clean_linker_0, # of connection points: 2
#     Edge 21, Type (0, 1), BuildingBlock: EZIPEK_clean_linker_0, # of connection points: 2
#     Edge 22, Type (0, 1), BuildingBlock: EZIPEK_clean_linker_0, # of connection points: 2
#     Edge 23, Type (0, 1), BuildingBlock: EZIPEK_clean_linker_0, # of connection points: 2
#     Edge 24, Type (0, 1), BuildingBlock: EZIPEK_clean_linker_0, # of connection points: 2
#     Edge 25, Type (0, 1), BuildingBlock: EZIPEK_clean_linker_0, # of connection points: 2
#     Edge 26, Type (0, 1), BuildingBlock: EZIPEK_clean_linker_0, # of connection points: 2
#     Edge 27, Type (0, 1), BuildingBlock: EZIPEK_clean_linker_0, # of connection points: 2
#     Edge 28, Type (0, 1), BuildingBlock: EZIPEK_clean_linker_0, # of connection points: 2
#     Edge 29, Type (0, 1), BuildingBlock: EZIPEK_clean_linker_0, # of connection points: 2
#     Edge 30, Type (0, 1), BuildingBlock: EZIPEK_clean_linker_0, # of connection points: 2
#     Edge 31, Type (0, 1), BuildingBlock: EZIPEK_clean_linker_0, # of connection points: 2
#     Edge 32, Type (0, 1), BuildingBlock: EZIPEK_clean_linker_0, # of connection points: 2
#     Edge 33, Type (0, 1), BuildingBlock: EZIPEK_clean_linker_0, # of connection points: 2
#     Edge 34, Type (0, 1), BuildingBlock: EZIPEK_clean_linker_0, # of connection points: 2
#     Edge 35, Type (0, 1), BuildingBlock: EZIPEK_clean_linker_0, # of connection points: 2
# Relax obj value: 0.022
# Max RMSD: 0.093
# Mean RMSD: 0.034
data_MOF--net-zzz--node1-CUKXOW_clean_sbu_0--node2-QEWDON_clean_linker_0--edge1-EZIPEK_clean_linker_0
_symmetry_space_group_name_H-M    P1
_symmetry_Int_Tables_number       1
_symmetry_cell_setting            triclinic
loop_
_symmetry_equiv_pos_as_xyz
'x, y, z'
_cell_length_a     39.731041
_cell_length_b     41.939065
_cell_length_c     11.921838
_cell_angle_alpha  94.682896
_cell_angle_beta   85.504721
_cell_angle_gamma 93.459033
loop_
_atom_site_label
_atom_site_type_symbol
_atom_site_fract_x
_atom_site_fract_y
_atom_site_fract_z
_atom_type_partial_charge
H0 H 0.79977 0.51764 0.94137 0.0
C1 C 0.8069 0.51325 0.02437 0.0
C2 C 0.83974 0.50365 0.03683 0.0
C3 C 0.78456 0.51976 0.12114 0.0
H4 H 0.87555 0.49405 0.15419 0.0
C5 C 0.84971 0.49991 0.1443 0.0
C6 C 0.82867 0.50753 0.23998 0.0
C7 C 0.79579 0.5162 0.22892 0.0
C8 C 0.75128 0.53392 0.11339 0.0
H9 H 0.7798 0.52181 0.30494 0.0
C10 C 0.72981 0.52384 0.02654 0.0
C11 C 0.69791 0.53695 0.02592 0.0
C12 C 0.74072 0.5581 0.19568 0.0
H13 H 0.75696 0.56758 0.26069 0.0
C14 C 0.70917 0.57076 0.19527 0.0
H15 H 0.73756 0.50582 0.96081 0.0
C16 C 0.68779 0.56011 0.11169 0.0
H17 H 0.66343 0.57051 0.11238 0.0
H18 H 0.70137 0.58911 0.25962 0.0
H19 H 0.99878 0.79602 0.85234 0.0
C20 C 0.99735 0.80386 0.94138 0.0
C21 C 1.00699 0.83582 0.97628 0.0
C22 C 0.98288 0.78306 0.02177 0.0
H23 H 0.00998 0.871 0.11717 0.0
C24 C 1.00337 0.84615 0.09059 0.0
C25 C 0.98849 0.82612 0.17005 0.0
C26 C 0.97851 0.79446 0.13629 0.0
C27 C 0.96717 0.75129 -0.01354 0.0
H28 H 0.96621 0.77918 0.19809 0.0
C29 C 0.98665 0.72548 0.94265 0.0
C30 C 0.97086 0.69469 0.92227 0.0
C31 C 0.93196 0.7463 0.00512 0.0
H32 H 0.91657 0.76585 0.03873 0.0
C33 C 0.91632 0.71609 0.98211 0.0
H34 H 0.01386 0.72897 0.92869 0.0
C35 C 0.93563 0.69037 0.94178 0.0
H36 H 0.9231 0.66694 0.92592 0.0
H37 H 0.88919 0.71251 -0.00297 0.0
H38 H 0.71228 0.99027 -0.00123 0.0
C39 C 0.7031 0.9987 0.08334 0.0
C40 C 0.6701 0.00935 0.1033 0.0
C41 C 0.72378 0.99831 0.17424 0.0
H42 H 0.63215 0.02615 0.22791 0.0
C43 C 0.65794 0.01869 0.21296 0.0
C44 C 0.67785 0.01839 0.30388 0.0
C45 C 0.71123 0.00891 0.2842 0.0
C46 C 0.75655 0.98295 0.1582 0.0
H47 H 0.72684 0.00845 0.35459 0.0
C48 C 0.78447 0.99613 0.09357 0.0
C49 C 0.81539 0.98083 0.08201 0.0
C50 C 0.75982 0.95456 0.21029 0.0
H51 H 0.73865 0.94409 0.26029 0.0
C52 C 0.79022 0.93928 0.19772 0.0
H53 H 0.78235 0.01825 0.05425 0.0
C54 C 0.81784 0.95228 0.13411 0.0
H55 H 0.84136 0.9402 0.1262 0.0
H56 H 0.79244 0.91734 0.2379 0.0
H57 H 0.53159 0.72219 0.92917 0.0
C58 C 0.53054 0.71711 0.0171 0.0
C59 C 0.51907 0.68651 0.04863 0.0
C60 C 0.54418 0.7398 0.09768 0.0
H61 H 0.5118 0.65544 0.18386 0.0
C62 C 0.51944 0.67952 0.16093 0.0
C63 C 0.53497 0.70085 0.23916 0.0
C64 C 0.5467 0.73132 0.20867 0.0
C65 C 0.56081 0.77027 0.06262 0.0
H66 H 0.55953 0.74755 0.26893 0.0
C67 C 0.54258 0.79318 0.01657 0.0
C68 C 0.55875 0.82267 -0.01051 0.0
C69 C 0.59532 0.77676 0.07819 0.0
H70 H 0.60984 0.75934 0.11279 0.0
C71 C 0.61143 0.80571 0.04903 0.0
H72 H 0.51588 0.78859 0.0052 0.0
C73 C 0.59324 0.82865 0.00541 0.0
H74 H 0.60597 0.85124 0.98488 0.0
H75 H 0.63802 0.8105 0.06128 0.0
H76 H 0.22946 0.53869 0.48454 0.0
C77 C 0.22251 0.53194 0.39937 0.0
C78 C 0.18886 0.52213 0.38061 0.0
C79 C 0.24646 0.53526 0.3067 0.0
H80 H 0.15341 0.50756 0.2569 0.0
C81 C 0.17961 0.51459 0.27088 0.0
C82 C 0.20293 0.51745 0.17845 0.0
C83 C 0.23655 0.52762 0.19593 0.0
C84 C 0.28031 0.55083 0.32416 0.0
H85 H 0.25449 0.53076 0.12385 0.0
C86 C 0.30278 0.53824 0.39292 0.0
C87 C 0.33484 0.55375 0.40698 0.0
C88 C 0.28998 0.57913 0.27176 0.0
H89 H 0.27298 0.58936 0.21942 0.0
C90 C 0.32143 0.59474 0.28753 0.0
H91 H 0.29582 0.5162 0.43255 0.0
C92 C 0.34379 0.58211 0.3544 0.0
H93 H 0.3684 0.59422 0.36388 0.0
H94 H 0.32861 0.61656 0.247 0.0
H95 H 0.98446 0.19547 0.55258 0.0
C96 C 1.0015 0.19306 0.47713 0.0
C97 C 0.01518 0.16337 0.44362 0.0
C98 C 1.00788 0.21902 0.40906 0.0
H99 H 0.04541 0.13683 0.3165 0.0
C100 C 0.03594 0.16019 0.34384 0.0
C101 C 0.03765 0.1837 0.26687 0.0
C102 C 0.02554 0.21405 0.30224 0.0
C103 C 0.98932 0.24846 0.4382 0.0
H104 H 0.02655 0.23241 0.24296 0.0
C105 C 1.00577 0.27771 0.47573 0.0
C106 C 0.98686 0.30501 0.50483 0.0
C107 C 0.95419 0.24682 0.43019 0.0
H108 H 0.94115 0.22454 0.40167 0.0
C109 C 0.93559 0.27384 0.45853 0.0
H110 H 0.03286 0.27921 0.48269 0.0
C111 C 0.95178 0.30276 0.49561 0.0
H112 H 0.93691 0.32351 0.51732 0.0
H113 H 0.90852 0.27235 0.45183 0.0
H114 H 0.32598 0.99828 0.52815 0.0
C115 C 0.32811 1.00619 0.44339 0.0
C116 C 0.35802 0.02222 0.40456 0.0
C117 C 0.30221 0.9979 0.3702 0.0
H118 H 0.38516 0.04396 0.26702 0.0
C119 C 0.36125 0.03232 0.29629 0.0
C120 C 0.33807 0.02112 0.21816 0.0
C121 C 0.30768 1.00463 0.25555 0.0
C122 C 0.27321 0.97699 0.41191 0.0
H123 H 0.29007 0.99486 0.19506 0.0
C124 C 0.23975 0.98715 0.42403 0.0
C125 C 0.21431 0.96984 0.48792 0.0
C126 C 0.28028 0.94823 0.45581 0.0
H127 H 0.3057 0.93984 0.44663 0.0
C128 C 0.25524 0.93085 0.51661 0.0
H129 H 0.23398 0.00909 0.38925 0.0
C130 C 0.22282 0.94192 0.53499 0.0
H131 H 0.2041 0.92839 0.58564 0.0
H132 H 0.26121 0.90911 0.55215 0.0
H133 H 0.54351 0.31939 0.44405 0.0
C134 C 0.53553 0.32705 0.36616 0.0
C135 C 0.53467 0.35992 0.35337 0.0
C136 C 0.52595 0.30442 0.27837 0.0
H137 H 0.52479 0.39579 0.24333 0.0
C138 C 0.52537 0.37028 0.25261 0.0
C139 C 0.51516 0.3485 0.16583 0.0
C140 C 0.5149 0.31554 0.17906 0.0
C141 C 0.52822 0.26941 0.28862 0.0
H142 H 0.50624 0.29879 0.112 0.0
C143 C 0.52087 0.25575 0.39298 0.0
C144 C 0.52424 0.22281 0.40093 0.0
C145 C 0.53882 0.2494 0.19327 0.0
H146 H 0.5455 0.25906 0.1125 0.0
C147 C 0.5418 0.21672 0.20127 0.0
H148 H 0.51253 0.27045 0.46776 0.0
C149 C 0.53463 0.20347 0.30443 0.0
H150 H 0.53747 0.1781 0.30937 0.0
H151 H 0.55008 0.20166 0.12738 0.0
Tb152 Tb 0.99488 0.97841 0.6466 0.0
C153 C 0.07541 0.99612 0.64202 0.0
Tb154 Tb 0.02424 0.02504 0.83229 0.0
O155 O 0.9687 0.0164 0.58228 0.0
O156 O 0.01384 0.02696 0.66041 0.0
O157 O 0.04947 0.98 0.59475 0.0
C158 C 0.03956 0.08007 0.9522 0.0
O159 O 0.07158 0.01591 0.73427 0.0
C160 C 0.0256 0.96361 0.86087 0.0
C161 C 0.94461 1.00518 0.84207 0.0
O162 O 0.04443 0.0749 0.84369 0.0
O163 O 0.0264 0.05402 -0.00615 0.0
O164 O 0.04627 0.98516 0.90777 0.0
O165 O 1.00409 0.97799 0.8159 0.0
O166 O 0.96898 0.02676 0.8717 0.0
O167 O 0.94997 0.98146 0.76286 0.0
C168 C 0.98359 0.9231 0.52432 0.0
O169 O 0.97672 0.95115 0.49585 0.0
O170 O 0.99649 0.92628 0.6214 0.0
C171 C 0.98951 0.03927 0.62004 0.0
Tb172 Tb 0.51257 0.07252 0.79017 0.0
C173 C 0.57056 0.03315 0.64166 0.0
Tb174 Tb 0.51169 0.99733 0.77486 0.0
O175 O 0.555 0.08066 0.89822 0.0
O176 O 0.52928 0.03667 0.88013 0.0
O177 O 0.55451 0.06014 0.66513 0.0
C178 C 0.51647 0.93777 0.83311 0.0
O179 O 0.55893 1.00567 0.67979 0.0
C180 C 0.48415 0.02287 0.60958 0.0
C181 C 0.45096 0.03355 0.91605 0.0
O182 O 0.53713 0.96199 0.85744 0.0
O183 O 0.49267 0.94699 0.77628 0.0
O184 O 0.4984 0.9954 0.60036 0.0
O185 O 0.4849 0.03316 0.71161 0.0
O186 O 0.46546 1.00629 0.88057 0.0
O187 O 0.46489 0.06239 0.89263 0.0
C188 C 0.50932 0.13057 0.71755 0.0
O189 O 0.50102 0.12344 0.82111 0.0
O190 O 0.51886 0.10525 0.65646 0.0
C191 C 0.55629 0.05044 0.91308 0.0
Tb192 Tb 0.53187 0.5469 0.6044 0.0
C193 C 0.45242 0.52664 0.62568 0.0
Tb194 Tb 0.50275 0.49911 0.7806 0.0
O195 O 0.55452 0.50799 0.49402 0.0
O196 O 0.51271 0.4995 0.60607 0.0
O197 O 0.47714 0.54719 0.59049 0.0
C198 C 0.49613 0.44262 0.87105 0.0
O199 O 0.45692 0.50374 0.69366 0.0
C200 C 0.49951 0.55998 0.84177 0.0
C201 C 0.58302 0.52157 0.75916 0.0
O202 O 0.48969 0.47013 0.92486 0.0
O203 O 0.50488 0.44702 0.76636 0.0
O204 O 0.47868 0.53824 0.88572 0.0
O205 O 0.52224 0.54634 0.77973 0.0
O206 O 0.5576 0.5037 0.80706 0.0
O207 O 0.57896 0.53993 0.67628 0.0
C208 C 0.54286 0.60395 0.52299 0.0
O209 O 0.54208 0.57672 0.46213 0.0
O210 O 0.53841 0.59899 0.62911 0.0
C211 C 0.53473 0.48596 0.54058 0.0
Tb212 Tb 0.98918 0.50602 0.62751 0.0
C213 C 0.01444 0.43735 0.65351 0.0
Tb214 Tb 0.03967 0.4996 0.80999 0.0
O215 O 0.03144 0.50179 0.49534 0.0
O216 O 0.03951 0.52081 0.65787 0.0
O217 O 0.99123 0.45414 0.6141 0.0
C218 C 0.09909 0.49502 0.89505 0.0
O219 O 0.03694 0.45046 0.72439 0.0
C220 C 0.97505 0.49408 0.87605 0.0
C221 C 0.01148 0.56765 0.78364 0.0
O222 O 0.07135 0.50305 0.95298 0.0
O223 O 0.09324 0.4892 0.78971 0.0
O224 O 0.99836 0.50213 0.94591 0.0
O225 O 0.98946 0.48591 0.78183 0.0
O226 O 0.03741 0.55203 0.81222 0.0
O227 O 0.98783 0.55327 0.72101 0.0
C228 C 0.93089 0.51141 0.53821 0.0
O229 O 0.96058 0.51618 0.48615 0.0
O230 O 0.93406 0.50434 0.64027 0.0
C231 C 0.05419 0.51194 0.56493 0.0
C232 C 0.15198 0.95614 0.49019 0.0
C233 C 0.17847 0.97974 0.50837 0.0
C234 C 0.13545 0.01691 0.58624 0.0
C235 C 0.11058 0.99104 0.59086 0.0
N236 N 0.10056 0.9334 0.57681 0.0
N237 N 0.19494 0.03197 0.59594 0.0
C238 C 0.12013 0.9599 0.54998 0.0
C239 C 0.17018 0.01017 0.56179 0.0
N240 N 0.15728 0.92976 0.41744 0.0
N241 N 0.12614 0.04784 0.60236 0.0
H242 H 0.22055 0.02756 0.58626 0.0
H243 H 0.18966 0.05314 0.64454 0.0
H244 H 0.10093 0.05383 0.61315 0.0
H245 H 0.14325 0.06738 0.59125 0.0
H246 H 0.13781 0.91297 0.39706 0.0
H247 H 0.18006 0.92679 0.36885 0.0
H248 H 0.10851 0.91022 0.55702 0.0
H249 H 0.07871 0.93454 0.63086 0.0
C250 C 0.48558 0.19504 0.54456 0.0
C251 C 0.51831 0.20785 0.5102 0.0
C252 C 0.54348 0.17737 0.64593 0.0
C253 C 0.51118 0.16263 0.67334 0.0
N254 N 0.45084 0.16376 0.67793 0.0
N255 N 0.57654 0.21888 0.54888 0.0
C256 C 0.48191 0.17385 0.63279 0.0
C257 C 0.54665 0.20168 0.5687 0.0
N258 N 0.45846 0.20179 0.4886 0.0
N259 N 0.57121 0.16688 0.68985 0.0
H260 H 0.57933 0.23677 0.49239 0.0
H261 H 0.59758 0.21747 0.59466 0.0
H262 H 0.56925 0.15038 0.75139 0.0
H263 H 0.59602 0.1736 0.66331 0.0
H264 H 0.43455 0.19046 0.50031 0.0
H265 H 0.46028 0.21801 0.42627 0.0
H266 H 0.42823 0.17242 0.65784 0.0
H267 H 0.44807 0.14874 0.74406 0.0
C268 C 0.38802 0.52502 0.40419 0.0
C269 C 0.36085 0.53965 0.46842 0.0
C270 C 0.39011 0.53678 0.6413 0.0
C271 C 0.41958 0.52749 0.57417 0.0
N272 N 0.44729 0.51414 0.38941 0.0
N273 N 0.33541 0.56023 0.64744 0.0
C274 C 0.41864 0.5217 0.45502 0.0
C275 C 0.36146 0.54529 0.58725 0.0
N276 N 0.38435 0.51416 0.29428 0.0
N277 N 0.38965 0.53794 0.75628 0.0
H278 H 0.31371 0.56581 0.61084 0.0
H279 H 0.33597 0.56863 0.73191 0.0
H280 H 0.41044 0.53288 0.79862 0.0
H281 H 0.36798 0.54153 0.80967 0.0
H282 H 0.40183 0.50033 0.24576 0.0
H283 H 0.36212 0.51627 0.25488 0.0
H284 H 0.44919 0.51381 0.30172 0.0
H285 H 0.47011 0.51021 0.42201 0.0
C286 C 1.00101 0.34632 0.66183 0.0
C287 C 1.00276 0.33662 0.54478 0.0
C288 C 0.01617 0.39214 0.49958 0.0
C289 C 0.0141 0.40232 0.61712 0.0
N290 N 1.00892 0.38846 0.81107 0.0
N291 N 0.02035 0.34812 0.3544 0.0
C292 C 1.0084 0.37912 0.69857 0.0
C293 C 0.01324 0.35889 0.4646 0.0
N294 N 0.99055 0.32427 0.73743 0.0
N295 N 0.0194 0.41422 0.42051 0.0
H296 H 0.01788 0.32396 0.32601 0.0
H297 H 0.03173 0.3625 0.29339 0.0
H298 H 0.02292 0.43874 0.43985 0.0
H299 H 0.01633 0.40849 0.33518 0.0
H300 H 0.9843 0.33 0.82277 0.0
H301 H 0.98677 0.29991 0.71343 0.0
H302 H 0.00911 0.37255 0.87351 0.0
H303 H 0.01072 0.41229 0.84307 0.0
C304 C 0.87444 1.00521 0.08178 0.0
C305 C 0.84628 0.99456 0.01999 0.0
C306 C 0.88117 1.00159 0.84384 0.0
C307 C 0.91062 1.00569 0.90511 0.0
N308 N 0.93517 1.00748 0.08592 0.0
N309 N 0.82308 0.98051 0.84045 0.0
C310 C 0.90729 1.00702 0.02527 0.0
C311 C 0.84956 0.99253 0.90036 0.0
N312 N 0.86971 0.01337 0.195 0.0
N313 N 0.88329 1.00706 0.73204 0.0
H314 H 0.79943 0.97396 0.87852 0.0
H315 H 0.8253 0.97493 0.75351 0.0
H316 H 0.90578 0.01497 0.68934 0.0
H317 H 0.86222 1.00721 0.68533 0.0
H318 H 0.88872 0.02422 0.24279 0.0
H319 H 0.84586 0.01238 0.23845 0.0
H320 H 0.9337 1.00481 0.17231 0.0
H321 H 0.95986 1.0073 0.04984 0.0
C322 C 0.53976 0.85137 0.8307 0.0
C323 C 0.5399 0.8484 0.94837 0.0
C324 C 0.51735 0.90159 -0.01076 0.0
C325 C 0.5192 0.90538 0.87162 0.0
N326 N 0.52459 0.8822 0.67984 0.0
N327 N 0.52245 0.86665 0.13949 0.0
C328 C 0.52767 0.87955 0.79207 0.0
C329 C 0.52645 0.87225 0.02765 0.0
N330 N 0.55272 0.82783 0.75642 0.0
N331 N 0.50748 0.9264 0.06384 0.0
H332 H 0.52917 0.84546 0.16987 0.0
H333 H 0.5104 0.88171 0.2016 0.0
H334 H 0.49812 0.94713 0.03818 0.0
H335 H 0.50926 0.92711 0.15057 0.0
H336 H 0.55722 0.82983 0.6701 0.0
H337 H 0.56035 0.80636 0.78215 0.0
H338 H 0.52738 0.86337 0.61802 0.0
H339 H 0.51679 0.90284 0.64867 0.0
C340 C 0.65538 0.49962 0.92545 0.0
C341 C 0.67499 0.52897 0.93333 0.0
C342 C 0.63608 0.55328 0.8211 0.0
C343 C 0.61666 0.52353 0.80887 0.0
N344 N 0.61592 0.46609 0.81704 0.0
N345 N 0.691 0.57903 0.85412 0.0
C346 C 0.62886 0.4959 0.85086 0.0
C347 C 0.66783 0.55398 0.8679 0.0
N348 N 0.66095 0.47583 -0.00774 0.0
N349 N 0.62343 0.58154 0.79892 0.0
H350 H 0.71451 0.58003 0.88816 0.0
H351 H 0.68832 0.59665 0.79911 0.0
H352 H 0.59891 0.58392 0.77758 0.0
H353 H 0.63595 0.60373 0.81668 0.0
H354 H 0.64483 0.45542 -0.00111 0.0
H355 H 0.68041 0.47752 0.04661 0.0
H356 H 0.62573 0.44509 0.83847 0.0
H357 H 0.59823 0.46239 0.75658 0.0
C358 C 1.00503 0.64858 0.95876 0.0
C359 C 0.9902 0.66616 0.88063 0.0
C360 C 1.00068 0.62298 0.73264 0.0
C361 C 0.00934 0.60285 0.81543 0.0
N362 N 0.02008 0.59696 0.01026 0.0
N363 N 0.97426 0.67105 0.69256 0.0
C364 C 0.01244 0.61596 0.92883 0.0
C365 C 0.98855 0.65375 0.76698 0.0
N366 N 0.01159 0.66301 0.06237 0.0
N367 N 1.00494 0.61304 0.62055 0.0
H368 H 0.96726 0.69454 0.71274 0.0
H369 H 0.9678 0.66168 0.61304 0.0
H370 H 0.01432 0.59099 0.59125 0.0
H371 H 1.0024 0.62778 0.55592 0.0
H372 H 0.02588 0.65302 0.11872 0.0
H373 H 1.00533 0.68638 0.08842 0.0
H374 H 0.01784 0.60392 0.0962 0.0
H375 H 0.02644 0.57328 -0.00544 0.0
C376 C 1.00723 0.12921 0.61092 0.0
C377 C 1.00296 0.13344 0.49668 0.0
C378 C 0.98992 0.07593 0.46184 0.0
C379 C 0.99193 0.07189 0.57811 0.0
N380 N 0.98711 0.09825 0.76544 0.0
N381 N 0.97595 0.1126 0.32907 0.0
C382 C 0.99618 0.09952 0.65376 0.0
C383 C 0.98949 0.10735 0.42722 0.0
N384 N 0.02258 0.15272 0.67816 0.0
N385 N 0.99031 0.05038 0.38305 0.0
H386 H 0.97325 0.13564 0.30518 0.0
H387 H 0.96376 0.0944 0.27988 0.0
H388 H 0.99348 0.02701 0.40216 0.0
H389 H 0.99154 0.05309 0.2966 0.0
H390 H 0.02857 0.14912 0.7597 0.0
H391 H 0.03184 0.17461 0.64936 0.0
H392 H 0.98641 0.1188 0.8208 0.0
H393 H 0.97618 0.07754 0.79788 0.0
C394 C 0.39715 0.04692 0.54524 0.0
C395 C 0.38943 0.02207 0.46305 0.0
C396 C 0.4478 1.00568 0.4503 0.0
C397 C 0.45471 0.02781 0.54274 0.0
N398 N 0.44009 0.07772 0.64452 0.0
N399 N 0.40512 0.97394 0.35123 0.0
C400 C 0.43047 0.05075 0.58141 0.0
C401 C 0.41415 1.00036 0.4194 0.0
N402 N 0.37225 0.06616 0.59149 0.0
N403 N 0.47376 0.99151 0.38695 0.0
H404 H 0.3804 0.96875 0.32907 0.0
H405 H 0.42131 0.95558 0.32682 0.0
H406 H 0.49904 0.99781 0.40013 0.0
H407 H 0.47047 0.97718 0.31257 0.0
H408 H 0.37497 0.08232 0.66163 0.0
H409 H 0.34772 0.06411 0.5653 0.0
H410 H 0.42541 0.09753 0.66075 0.0
H411 H 0.46416 0.08159 0.67102 0.0
C412 C 0.50946 0.3966 0.50101 0.0
C413 C 0.53936 0.38492 0.4464 0.0
C414 C 0.56857 0.43685 0.49182 0.0
C415 C 0.53663 0.4506 0.51647 0.0
N416 N 0.47535 0.44216 0.52386 0.0
N417 N 0.59854 0.39279 0.39331 0.0
C418 C 0.50662 0.43008 0.51797 0.0
C419 C 0.56951 0.40459 0.44483 0.0
N420 N 0.48293 0.37571 0.52763 0.0
N421 N 0.59778 0.45413 0.51493 0.0
H422 H 0.59979 0.36877 0.36302 0.0
H423 H 0.62052 0.40699 0.37686 0.0
H424 H 0.59812 0.47722 0.55439 0.0
H425 H 0.62137 0.44424 0.50657 0.0
H426 H 0.4611 0.38281 0.57505 0.0
H427 H 0.48465 0.35097 0.51257 0.0
H428 H 0.45318 0.42782 0.51597 0.0
H429 H 0.4716 0.46627 0.52068 0.0
C430 C 0.14613 0.49101 0.49273 0.0
C431 C 0.1611 0.52138 0.47088 0.0
C432 C 0.10847 0.54614 0.54148 0.0
C433 C 0.09152 0.5152 0.53868 0.0
N434 N 0.0947 0.45772 0.51153 0.0
N435 N 0.15787 0.57852 0.47743 0.0
C436 C 0.11058 0.48745 0.51553 0.0
C437 C 0.1429 0.54926 0.49914 0.0
N438 N 0.16617 0.46552 0.48787 0.0
N439 N 0.09167 0.57261 0.58209 0.0
H440 H 0.18345 0.58163 0.45125 0.0
H441 H 0.14479 0.5994 0.48066 0.0
H442 H 0.06602 0.5718 0.60683 0.0
H443 H 0.10364 0.5951 0.59847 0.0
H444 H 0.1576 0.44292 0.51163 0.0
H445 H 0.19233 0.46816 0.47044 0.0
H446 H 0.10657 0.4368 0.48313 0.0
H447 H 0.06893 0.45429 0.52969 0.0
C448 C 0.04756 0.87686 0.89304 0.0
C449 C 0.01468 0.86163 0.89832 0.0
C450 C 0.99009 0.91272 0.88643 0.0
C451 C 0.02279 0.92845 0.8757 0.0
N452 N 0.08335 0.92373 0.84765 0.0
N453 N 0.9566 0.86313 0.85762 0.0
C454 C 0.05187 0.90997 0.87184 0.0
C455 C 0.98686 0.87891 0.87704 0.0
N456 N 0.07429 0.85987 0.91418 0.0
N457 N 0.9623 0.92973 0.91913 0.0
H458 H 0.9536 0.83819 0.85241 0.0
H459 H 0.93596 0.8747 0.83464 0.0
H460 H 0.96421 0.95382 0.94785 0.0
H461 H 0.93824 0.919 0.93529 0.0
H462 H 0.09839 0.87019 0.9258 0.0
H463 H 0.07158 0.83532 0.92442 0.0
H464 H 0.10497 0.9107 0.83351 0.0
H465 H 0.0876 0.94776 0.83188 0.0
C466 C 0.61505 0.99393 0.02656 0.0
C467 C 0.64638 0.01165 0.01443 0.0
C468 C 0.62013 0.04874 0.90428 0.0
C469 C 0.58741 0.03532 0.94009 0.0
N470 N 0.55474 0.9982 0.05638 0.0
N471 N 0.67898 0.05696 0.94373 0.0
C472 C 0.58503 0.00831 0.00518 0.0
C473 C 0.64916 0.039 0.95185 0.0
N474 N 0.61399 0.96424 0.06606 0.0
N475 N 0.624 0.07002 0.8227 0.0
H476 H 0.70122 0.04986 0.97273 0.0
H477 H 0.68114 0.07969 0.91368 0.0
H478 H 0.60419 0.07776 0.78208 0.0
H479 H 0.64753 0.07731 0.78563 0.0
H480 H 0.5921 0.94921 0.06958 0.0
H481 H 0.63596 0.95378 0.08408 0.0
H482 H 0.55268 0.98096 0.11509 0.0
H483 H 0.53218 0.00901 0.04898 0.0
C484 C 0.54228 0.63717 0.95643 0.0
C485 C 0.51568 0.6584 0.96559 0.0
C486 C 0.47884 0.61598 0.87829 0.0
C487 C 0.50382 0.59369 0.88797 0.0
N488 N 0.55578 0.5823 0.96553 0.0
N489 N 0.458 0.66842 0.93983 0.0
C490 C 0.53476 0.60407 0.93411 0.0
C491 C 0.48376 0.64803 0.92668 0.0
N492 N 0.5745 0.64863 0.97412 0.0
N493 N 0.45086 0.60671 0.82181 0.0
H494 H 0.4616 0.69232 0.97057 0.0
H495 H 0.43306 0.66133 0.92504 0.0
H496 H 0.44647 0.58337 0.78702 0.0
H497 H 0.4334 0.62261 0.80249 0.0
H498 H 0.59529 0.63442 0.96103 0.0
H499 H 0.58071 0.67301 -0.00932 0.0
H500 H 0.57708 0.58884 0.00969 0.0
H501 H 0.5499 0.55769 0.95948 0.0
C502 C 0.87972 0.47291 0.90509 0.0
C503 C 0.86747 0.50297 0.94573 0.0
C504 C 0.92474 0.52752 0.93442 0.0
C505 C 0.9378 0.49719 0.89813 0.0
N506 N 0.92698 0.44203 0.82736 0.0
N507 N 0.8758 0.56007 0.95725 0.0
C508 C 0.91497 0.4703 0.87464 0.0
C509 C 0.88928 0.5307 0.94392 0.0
N510 N 0.85771 0.44662 0.90388 0.0
N511 N 0.94588 0.55299 0.96546 0.0
H512 H 0.84973 0.56253 0.96571 0.0
H513 H 0.89007 0.58148 0.94777 0.0
H514 H 0.97183 0.55155 0.96411 0.0
H515 H 0.93752 0.57469 0.00288 0.0
H516 H 0.86504 0.42315 0.889 0.0
H517 H 0.83173 0.44869 0.92175 0.0
H518 H 0.91149 0.42294 0.79643 0.0
H519 H 0.95263 0.43797 0.81452 0.0
C520 C 0.01102 0.15842 0.10164 0.0
C521 C 0.04133 0.17109 0.14643 0.0
C522 C 0.07199 0.12944 0.03081 0.0
C523 C 0.0406 0.11238 0.01298 0.0
N524 N 0.97945 0.11016 0.03946 0.0
N525 N 0.10157 0.17146 0.1448 0.0
C526 C 0.00983 0.12684 0.04964 0.0
C527 C 0.0723 0.1579 0.10527 0.0
N528 N 0.98304 0.17606 0.11362 0.0
N529 N 0.1013 0.11799 0.97987 0.0
H530 H 0.10177 0.1928 0.19657 0.0
H531 H 0.1249 0.16125 0.1297 0.0
H532 H 0.1019 0.09664 0.9285 0.0
H533 H 0.12462 0.13067 0.98248 0.0
H534 H 0.96076 0.16882 0.0759 0.0
H535 H 0.9836 0.19953 0.14973 0.0
H536 H 0.95669 0.11854 0.07641 0.0
H537 H 0.97704 0.087 0.00124 0.0
C538 C 0.37525 0.99389 0.07588 0.0
C539 C 0.35296 0.0188 0.09977 0.0
C540 C 0.3904 0.05156 0.97543 0.0
C541 C 0.41687 0.03004 0.98064 0.0
N542 N 0.43432 0.98463 0.07212 0.0
N543 N 0.33826 0.07163 0.06853 0.0
C544 C 0.40919 1.00192 0.03961 0.0
C545 C 0.35995 0.04754 0.04619 0.0
N546 N 0.36515 0.96357 0.10166 0.0
N547 N 0.39341 0.07512 0.90249 0.0
H548 H 0.31536 0.0683 0.11666 0.0
H549 H 0.34376 0.09479 0.04411 0.0
H550 H 0.41426 0.07859 0.84639 0.0
H551 H 0.37352 0.0892 0.88977 0.0
H552 H 0.38042 0.94421 0.08201 0.0
H553 H 0.34035 0.95774 0.13182 0.0
H554 H 0.42954 0.96474 0.1191 0.0
H555 H 0.45965 0.99287 0.06732 0.0
C556 C 0.47379 0.37851 0.07439 0.0
C557 C 0.50413 0.36202 0.06419 0.0
C558 C 0.52639 0.39352 0.90839 0.0
C559 C 0.49701 0.41181 0.92407 0.0
N560 N 0.43887 0.41538 -0.00438 0.0
N561 N 0.55383 0.34615 0.95101 0.0
C562 C 0.46937 0.40217 -0.00136 0.0
C563 C 0.52838 0.36676 0.97315 0.0
N564 N 0.45009 0.37255 0.16058 0.0
N565 N 0.5536 0.40306 0.83923 0.0
H566 H 0.55608 0.32676 -0.00112 0.0
H567 H 0.57054 0.34624 0.87924 0.0
H568 H 0.55389 0.4223 0.78959 0.0
H569 H 0.57711 0.39323 0.83647 0.0
H570 H 0.42941 0.38646 0.18274 0.0
H571 H 0.452 0.35405 0.21291 0.0
H572 H 0.41691 0.40762 0.04124 0.0
H573 H 0.43478 0.4322 0.93895 0.0
C574 C 0.17965 0.48011 0.02746 0.0
C575 C 0.18936 0.51198 0.06562 0.0
C576 C 0.14589 0.53263 0.96105 0.0
C577 C 0.13319 0.50065 0.93664 0.0
N578 N 0.14258 0.44429 0.91516 0.0
N579 N 0.18959 0.56831 0.04347 0.0
C580 C 0.1519 0.47442 0.95845 0.0
C581 C 0.17527 0.53819 0.02228 0.0
N582 N 0.19573 0.45549 0.06439 0.0
N583 N 0.12908 0.55749 0.92866 0.0
H584 H 0.21118 0.57254 0.08802 0.0
H585 H 0.18198 0.5887 0.01059 0.0
H586 H 0.10874 0.55404 0.87786 0.0
H587 H 0.13465 0.58148 0.95285 0.0
H588 H 0.18802 0.43142 0.05105 0.0
H589 H 0.21694 0.4596 0.11116 0.0
H590 H 0.15626 0.42422 0.9215 0.0
H591 H 0.12205 0.43972 0.86559 0.0
C592 C 0.00972 0.84699 0.35149 0.0
C593 C 0.98169 0.84071 0.28623 0.0
C594 C 0.95127 0.88228 0.4023 0.0
C595 C 0.98192 0.89295 0.45018 0.0
N596 N 0.04195 0.88771 0.45726 0.0
N597 N 0.92494 0.85117 0.24867 0.0
C598 C 0.01146 0.87547 0.42362 0.0
C599 C 0.95186 0.85757 0.31301 0.0
N600 N 0.03539 0.82648 0.33935 0.0
N601 N 0.92172 0.89556 0.44269 0.0
H602 H 0.92424 0.8323 0.18604 0.0
H603 H 0.90407 0.86525 0.25418 0.0
H604 H 0.92057 0.91351 0.50865 0.0
H605 H 0.8981 0.88688 0.41799 0.0
H606 H 0.05551 0.82838 0.391 0.0
H607 H 0.03448 0.80569 0.28486 0.0
H608 H 0.06482 0.87759 0.43076 0.0
H609 H 0.04483 0.91009 0.50038 0.0
C610 C 0.65252 1.00341 0.49439 0.0
C611 C 0.66125 0.02708 0.41754 0.0
C612 C 0.61214 0.05642 0.49073 0.0
C613 C 0.6036 0.03339 0.57144 0.0
N614 N 0.62644 0.99334 0.67768 0.0
N615 N 0.65769 0.0819 0.37716 0.0
C616 C 0.62725 0.00962 0.58279 0.0
C617 C 0.64438 0.05603 0.43096 0.0
N618 N 0.66641 0.97423 0.48012 0.0
N619 N 0.58889 0.07621 0.46039 0.0
H620 H 0.68104 0.08142 0.33038 0.0
H621 H 0.6472 0.10424 0.3891 0.0
H622 H 0.56323 0.07394 0.48485 0.0
H623 H 0.59418 0.09169 0.39641 0.0
H624 H 0.65748 0.95514 0.52711 0.0
H625 H 0.68504 0.96826 0.41696 0.0
H626 H 0.64503 0.97783 0.69109 0.0
H627 H 0.6102 0.99825 0.74876 0.0
C628 C 0.57337 0.66859 0.33266 0.0
C629 C 0.54455 0.68729 0.34222 0.0
C630 C 0.51867 0.65655 0.49494 0.0
C631 C 0.54589 0.63573 0.47703 0.0
N632 N 0.60342 0.62728 0.40777 0.0
N633 N 0.49578 0.70638 0.45165 0.0
C634 C 0.57478 0.64365 0.40547 0.0
C635 C 0.51941 0.68389 0.4314 0.0
N636 N 0.5981 0.67329 0.24836 0.0
N637 N 0.49109 0.64894 0.56566 0.0
H638 H 0.4963 0.72629 0.40417 0.0
H639 H 0.47792 0.70698 0.52037 0.0
H640 H 0.48942 0.62914 0.61349 0.0
H641 H 0.46895 0.66123 0.57299 0.0
H642 H 0.61742 0.65778 0.22609 0.0
H643 H 0.59853 0.69244 0.19759 0.0
H644 H 0.62634 0.63347 0.36443 0.0
H645 H 0.60504 0.60909 0.46159 0.0
C646 C 0.86436 0.54114 0.37064 0.0
C647 C 0.84471 0.51225 0.34831 0.0
C648 C 0.877 0.48447 0.47267 0.0
C649 C 0.89844 0.51267 0.48731 0.0
N650 N 0.90697 0.56982 0.48114 0.0
N651 N 0.82515 0.45995 0.39995 0.0
C652 C 0.8902 0.54174 0.44645 0.0
C653 C 0.84849 0.48515 0.40807 0.0
N654 N 0.85966 0.56728 0.31337 0.0
N655 N 0.88518 0.45662 0.51354 0.0
H656 H 0.8043 0.46035 0.35202 0.0
H657 H 0.82464 0.4402 0.44767 0.0
H658 H 0.90582 0.45507 0.56126 0.0
H659 H 0.8727 0.4345 0.49529 0.0
H660 H 0.87601 0.58762 0.31363 0.0
H661 H 0.83984 0.56808 0.26138 0.0
H662 H 0.90023 0.59228 0.46239 0.0
H663 H 0.92587 0.57087 0.53761 0.0
loop_
_geom_bond_atom_site_label_1
_geom_bond_atom_site_label_2
_geom_bond_distance
_geom_bond_site_symmetry_2
_ccdc_geom_bond_type
H0 C1 0.949 . S
C1 H0 0.949 . S
C1 C2 1.395 . S
C1 C3 1.391 1_556 S
C2 C1 1.395 . S
C2 C5 1.390 1_556 S
C3 C1 1.391 1_554 S
C3 C7 1.387 . S
C3 C8 1.491 . S
H4 C5 0.950 . S
C5 C2 1.390 1_554 S
C5 H4 0.950 . S
C5 C6 1.378 . S
C6 C5 1.378 . S
C6 C7 1.409 . S
C7 C3 1.387 . S
C7 C6 1.409 . S
C7 H9 0.951 . S
C8 C3 1.491 . S
C8 C10 1.382 . S
C8 C12 1.404 . S
H9 C7 0.951 . S
C10 C8 1.382 . S
C10 C11 1.390 . S
C10 H15 0.949 1_554 S
C11 C10 1.390 . S
C11 C16 1.399 . S
C12 C8 1.404 . S
C12 H13 0.950 . S
C12 C14 1.375 . S
H13 C12 0.950 . S
C14 C12 1.375 . S
C14 C16 1.382 . S
C14 H18 0.950 . S
H15 C10 0.949 1_556 S
C16 C11 1.399 . S
C16 C14 1.382 . S
C16 H17 0.952 . S
H17 C16 0.952 . S
H18 C14 0.950 . S
H19 C20 0.949 . S
C20 H19 0.949 . S
C20 C21 1.395 . S
C20 C22 1.391 1_556 S
C21 C20 1.395 . S
C21 C24 1.390 1_556 S
C22 C20 1.391 1_554 S
C22 C26 1.387 . S
C22 C27 1.491 . S
H23 C24 0.950 . S
C24 C21 1.390 1_554 S
C24 H23 0.950 . S
C24 C25 1.378 . S
C25 C24 1.378 . S
C25 C26 1.409 . S
C26 C22 1.387 . S
C26 C25 1.409 . S
C26 H28 0.951 . S
C27 C22 1.491 . S
C27 C29 1.382 1_554 S
C27 C31 1.404 . S
H28 C26 0.951 . S
C29 C27 1.382 1_556 S
C29 C30 1.390 . S
C29 H34 0.949 . S
C30 C29 1.390 . S
C30 C35 1.399 1_556 S
C31 C27 1.404 . S
C31 H32 0.950 . S
C31 C33 1.375 . S
H32 C31 0.950 . S
C33 C31 1.375 . S
C33 C35 1.382 . S
C33 H37 0.950 . S
H34 C29 0.949 . S
C35 C30 1.399 1_554 S
C35 C33 1.382 . S
C35 H36 0.952 . S
H36 C35 0.952 . S
H37 C33 0.950 . S
H38 C39 0.949 1_556 S
C39 H38 0.949 1_554 S
C39 C40 1.395 . S
C39 C41 1.391 . S
C40 C39 1.395 . S
C40 C43 1.390 . S
C41 C39 1.391 . S
C41 C45 1.387 . S
C41 C46 1.491 . S
H42 C43 0.950 . S
C43 C40 1.390 . S
C43 H42 0.950 . S
C43 C44 1.378 . S
C44 C43 1.378 . S
C44 C45 1.409 . S
C45 C41 1.387 . S
C45 C44 1.409 . S
C45 H47 0.951 . S
C46 C41 1.491 . S
C46 C48 1.382 . S
C46 C50 1.404 . S
H47 C45 0.951 . S
C48 C46 1.382 . S
C48 C49 1.390 . S
C48 H53 0.949 1_554 S
C49 C48 1.390 . S
C49 C54 1.399 . S
C50 C46 1.404 . S
C50 H51 0.950 . S
C50 C52 1.375 . S
H51 C50 0.950 . S
C52 C50 1.375 . S
C52 C54 1.382 . S
C52 H56 0.950 . S
H53 C48 0.949 1_556 S
C54 C49 1.399 . S
C54 C52 1.382 . S
C54 H55 0.952 . S
H55 C54 0.952 . S
H56 C52 0.950 . S
H57 C58 0.949 1_556 S
C58 H57 0.949 1_554 S
C58 C59 1.395 . S
C58 C60 1.391 . S
C59 C58 1.395 . S
C59 C62 1.390 . S
C60 C58 1.391 . S
C60 C64 1.387 . S
C60 C65 1.491 . S
H61 C62 0.950 . S
C62 C59 1.390 . S
C62 H61 0.950 . S
C62 C63 1.378 . S
C63 C62 1.378 . S
C63 C64 1.409 . S
C64 C60 1.387 . S
C64 C63 1.409 . S
C64 H66 0.951 . S
C65 C60 1.491 . S
C65 C67 1.382 . S
C65 C69 1.404 . S
H66 C64 0.951 . S
C67 C65 1.382 . S
C67 C68 1.390 . S
C67 H72 0.949 1_554 S
C68 C67 1.390 . S
C68 C73 1.399 . S
C69 C65 1.404 . S
C69 H70 0.950 . S
C69 C71 1.375 . S
H70 C69 0.950 . S
C71 C69 1.375 . S
C71 C73 1.382 . S
C71 H75 0.950 . S
H72 C67 0.949 1_556 S
C73 C68 1.399 . S
C73 C71 1.382 . S
C73 H74 0.952 . S
H74 C73 0.952 . S
H75 C71 0.950 . S
H76 C77 0.949 . S
C77 H76 0.949 . S
C77 C78 1.395 . S
C77 C79 1.391 . S
C78 C77 1.395 . S
C78 C81 1.390 . S
C79 C77 1.391 . S
C79 C83 1.387 . S
C79 C84 1.491 . S
H80 C81 0.950 . S
C81 C78 1.390 . S
C81 H80 0.950 . S
C81 C82 1.378 . S
C82 C81 1.378 . S
C82 C83 1.409 . S
C83 C79 1.387 . S
C83 C82 1.409 . S
C83 H85 0.951 . S
C84 C79 1.491 . S
C84 C86 1.382 . S
C84 C88 1.404 . S
H85 C83 0.951 . S
C86 C84 1.382 . S
C86 C87 1.390 . S
C86 H91 0.949 . S
C87 C86 1.390 . S
C87 C92 1.399 . S
C88 C84 1.404 . S
C88 H89 0.950 . S
C88 C90 1.375 . S
H89 C88 0.950 . S
C90 C88 1.375 . S
C90 C92 1.382 . S
C90 H94 0.950 . S
H91 C86 0.949 . S
C92 C87 1.399 . S
C92 C90 1.382 . S
C92 H93 0.952 . S
H93 C92 0.952 . S
H94 C90 0.950 . S
H95 C96 0.949 . S
C96 H95 0.949 . S
C96 C97 1.395 . S
C96 C98 1.391 . S
C97 C96 1.395 . S
C97 C100 1.390 . S
C98 C96 1.391 . S
C98 C102 1.387 . S
C98 C103 1.491 . S
H99 C100 0.950 . S
C100 C97 1.390 . S
C100 H99 0.950 . S
C100 C101 1.378 . S
C101 C100 1.378 . S
C101 C102 1.409 . S
C102 C98 1.387 . S
C102 C101 1.409 . S
C102 H104 0.951 . S
C103 C98 1.491 . S
C103 C105 1.382 . S
C103 C107 1.404 . S
H104 C102 0.951 . S
C105 C103 1.382 . S
C105 C106 1.390 . S
C105 H110 0.949 . S
C106 C105 1.390 . S
C106 C111 1.399 . S
C107 C103 1.404 . S
C107 H108 0.950 1_455 S
C107 C109 1.375 1_455 S
H108 C107 0.950 1_655 S
C109 C107 1.375 1_655 S
C109 C111 1.382 1_655 S
C109 H113 0.950 . S
H110 C105 0.949 . S
C111 C106 1.399 . S
C111 C109 1.382 1_455 S
C111 H112 0.952 . S
H112 C111 0.952 . S
H113 C109 0.950 . S
H114 C115 0.949 . S
C115 H114 0.949 . S
C115 C116 1.395 . S
C115 C117 1.391 . S
C116 C115 1.395 . S
C116 C119 1.390 . S
C117 C115 1.391 . S
C117 C121 1.387 . S
C117 C122 1.491 . S
H118 C119 0.950 . S
C119 C116 1.390 . S
C119 H118 0.950 . S
C119 C120 1.378 . S
C120 C119 1.378 . S
C120 C121 1.409 . S
C121 C117 1.387 . S
C121 C120 1.409 . S
C121 H123 0.951 . S
C122 C117 1.491 . S
C122 C124 1.382 . S
C122 C126 1.404 . S
H123 C121 0.951 . S
C124 C122 1.382 . S
C124 C125 1.390 . S
C124 H129 0.949 . S
C125 C124 1.390 . S
C125 C130 1.399 . S
C126 C122 1.404 . S
C126 H127 0.950 . S
C126 C128 1.375 . S
H127 C126 0.950 . S
C128 C126 1.375 . S
C128 C130 1.382 . S
C128 H132 0.950 1_545 S
H129 C124 0.949 . S
C130 C125 1.399 . S
C130 C128 1.382 . S
C130 H131 0.952 . S
H131 C130 0.952 . S
H132 C128 0.950 1_565 S
H133 C134 0.949 . S
C134 H133 0.949 . S
C134 C135 1.395 . S
C134 C136 1.391 . S
C135 C134 1.395 . S
C135 C138 1.390 . S
C136 C134 1.391 . S
C136 C140 1.387 . S
C136 C141 1.491 . S
H137 C138 0.950 . S
C138 C135 1.390 . S
C138 H137 0.950 . S
C138 C139 1.378 . S
C139 C138 1.378 . S
C139 C140 1.409 . S
C140 C136 1.387 . S
C140 C139 1.409 . S
C140 H142 0.951 . S
C141 C136 1.491 . S
C141 C143 1.382 . S
C141 C145 1.404 . S
H142 C140 0.951 . S
C143 C141 1.382 . S
C143 C144 1.390 . S
C143 H148 0.949 . S
C144 C143 1.390 . S
C144 C149 1.399 . S
C145 C141 1.404 . S
C145 H146 0.950 . S
C145 C147 1.375 . S
H146 C145 0.950 . S
C147 C145 1.375 . S
C147 C149 1.382 . S
C147 H151 0.950 . S
H148 C143 0.949 . S
C149 C144 1.399 . S
C149 C147 1.382 . S
C149 H150 0.952 . S
H150 C149 0.952 . S
H151 C147 0.950 . S
Tb152 O155 2.453 1_565 S
Tb152 O156 2.596 1_665 S
Tb152 O157 2.374 1_665 S
Tb152 O165 2.343 1_655 S
Tb152 O167 2.353 1_565 S
Tb152 O169 2.427 . S
Tb152 O170 2.513 1_655 S
C153 O157 1.251 . S
C153 O159 1.263 . S
Tb154 O156 2.343 . S
Tb154 O159 2.353 . S
Tb154 O162 2.427 . S
Tb154 O163 2.513 1_455 S
Tb154 O164 2.453 1_545 S
Tb154 O165 2.596 1_545 S
Tb154 O166 2.374 1_455 S
O155 Tb152 2.453 1_545 S
O155 C171 1.245 1_655 S
O156 Tb152 2.596 1_445 S
O156 Tb154 2.343 . S
O156 C171 1.259 . S
O157 Tb152 2.374 1_445 S
O157 C153 1.251 . S
C158 O162 1.275 . S
C158 O163 1.246 1_455 S
O159 C153 1.263 . S
O159 Tb154 2.353 . S
C160 O164 1.245 . S
C160 O165 1.259 . S
C161 O166 1.250 . S
C161 O167 1.263 . S
O162 Tb154 2.427 . S
O162 C158 1.275 . S
O163 Tb154 2.513 1_655 S
O163 C158 1.246 1_655 S
O164 Tb154 2.453 1_565 S
O164 C160 1.245 . S
O165 Tb152 2.343 1_455 S
O165 Tb154 2.596 1_565 S
O165 C160 1.259 . S
O166 Tb154 2.374 1_655 S
O166 C161 1.250 . S
O167 Tb152 2.353 1_545 S
O167 C161 1.263 . S
C168 O169 1.275 . S
C168 O170 1.246 1_655 S
O169 Tb152 2.427 . S
O169 C168 1.275 . S
O170 Tb152 2.513 1_455 S
O170 C168 1.246 1_455 S
C171 O155 1.245 1_455 S
C171 O156 1.259 . S
Tb172 O175 2.453 . S
Tb172 O176 2.596 1_545 S
Tb172 O177 2.374 . S
Tb172 O185 2.343 . S
Tb172 O187 2.353 . S
Tb172 O189 2.427 . S
Tb172 O190 2.513 . S
C173 O177 1.251 1_565 S
C173 O179 1.263 . S
Tb174 O176 2.343 . S
Tb174 O179 2.353 . S
Tb174 O182 2.427 . S
Tb174 O183 2.513 . S
Tb174 O184 2.453 . S
Tb174 O185 2.596 1_565 S
Tb174 O186 2.374 . S
O175 Tb172 2.453 . S
O175 C191 1.245 . S
O176 Tb172 2.596 1_565 S
O176 Tb174 2.343 . S
O176 C191 1.259 1_565 S
O177 Tb172 2.374 . S
O177 C173 1.251 1_545 S
C178 O182 1.275 . S
C178 O183 1.246 . S
O179 C173 1.263 . S
O179 Tb174 2.353 . S
C180 O184 1.245 1_545 S
C180 O185 1.259 . S
C181 O186 1.250 1_545 S
C181 O187 1.263 . S
O182 Tb174 2.427 . S
O182 C178 1.275 . S
O183 Tb174 2.513 . S
O183 C178 1.246 . S
O184 Tb174 2.453 . S
O184 C180 1.245 1_565 S
O185 Tb172 2.343 . S
O185 Tb174 2.596 1_545 S
O185 C180 1.259 . S
O186 Tb174 2.374 . S
O186 C181 1.250 1_565 S
O187 Tb172 2.353 . S
O187 C181 1.263 . S
C188 O189 1.275 . S
C188 O190 1.246 . S
O189 Tb172 2.427 . S
O189 C188 1.275 . S
O190 Tb172 2.513 . S
O190 C188 1.246 . S
C191 O175 1.245 . S
C191 O176 1.259 1_545 S
Tb192 O195 2.453 . S
Tb192 O196 2.596 . S
Tb192 O197 2.374 . S
Tb192 O205 2.343 . S
Tb192 O207 2.353 . S
Tb192 O209 2.427 . S
Tb192 O210 2.513 . S
C193 O197 1.251 . S
C193 O199 1.263 . S
Tb194 O196 2.343 . S
Tb194 O199 2.353 . S
Tb194 O202 2.427 . S
Tb194 O203 2.513 . S
Tb194 O204 2.453 . S
Tb194 O205 2.596 . S
Tb194 O206 2.374 . S
O195 Tb192 2.453 . S
O195 C211 1.245 . S
O196 Tb192 2.596 . S
O196 Tb194 2.343 . S
O196 C211 1.259 . S
O197 Tb192 2.374 . S
O197 C193 1.251 . S
C198 O202 1.275 . S
C198 O203 1.246 . S
O199 C193 1.263 . S
O199 Tb194 2.353 . S
C200 O204 1.245 . S
C200 O205 1.259 . S
C201 O206 1.250 . S
C201 O207 1.263 . S
O202 Tb194 2.427 . S
O202 C198 1.275 . S
O203 Tb194 2.513 . S
O203 C198 1.246 . S
O204 Tb194 2.453 . S
O204 C200 1.245 . S
O205 Tb192 2.343 . S
O205 Tb194 2.596 . S
O205 C200 1.259 . S
O206 Tb194 2.374 . S
O206 C201 1.250 . S
O207 Tb192 2.353 . S
O207 C201 1.263 . S
C208 O209 1.275 . S
C208 O210 1.246 . S
O209 Tb192 2.427 . S
O209 C208 1.275 . S
O210 Tb192 2.513 . S
O210 C208 1.246 . S
C211 O195 1.245 . S
C211 O196 1.259 . S
Tb212 O215 2.453 1_655 S
Tb212 O216 2.596 1_655 S
Tb212 O217 2.373 1_655 S
Tb212 O225 2.343 . S
Tb212 O227 2.353 1_655 S
Tb212 O229 2.427 . S
Tb212 O230 2.513 . S
C213 O217 1.253 . S
C213 O219 1.263 . S
Tb214 O216 2.343 . S
Tb214 O219 2.353 . S
Tb214 O222 2.427 . S
Tb214 O223 2.513 . S
Tb214 O224 2.453 1_455 S
Tb214 O225 2.596 1_455 S
Tb214 O226 2.374 . S
O215 Tb212 2.453 1_455 S
O215 C231 1.245 . S
O216 Tb212 2.596 1_455 S
O216 Tb214 2.343 . S
O216 C231 1.259 . S
O217 Tb212 2.373 1_455 S
O217 C213 1.253 . S
C218 O222 1.275 . S
C218 O223 1.246 . S
O219 C213 1.263 . S
O219 Tb214 2.353 . S
C220 O224 1.245 . S
C220 O225 1.259 . S
C221 O226 1.250 . S
C221 O227 1.263 . S
O222 Tb214 2.427 . S
O222 C218 1.275 . S
O223 Tb214 2.513 . S
O223 C218 1.246 . S
O224 Tb214 2.453 1_655 S
O224 C220 1.245 . S
O225 Tb212 2.343 . S
O225 Tb214 2.596 1_655 S
O225 C220 1.259 . S
O226 Tb214 2.374 . S
O226 C221 1.250 . S
O227 Tb212 2.353 1_455 S
O227 C221 1.263 . S
C228 O229 1.275 . S
C228 O230 1.246 . S
O229 Tb212 2.427 . S
O229 C228 1.275 . S
O230 Tb212 2.513 . S
O230 C228 1.246 . S
C231 O215 1.245 . S
C231 O216 1.259 . S
C232 C233 1.363 . S
C232 C238 1.379 . S
C232 N240 1.356 . S
C233 C232 1.363 . S
C233 C239 1.363 . S
C234 C235 1.363 . S
C234 C239 1.379 . S
C234 N241 1.356 . S
C235 C234 1.363 . S
C235 C238 1.363 . S
N236 C238 1.356 1_565 S
N236 H248 0.984 . S
N236 H249 0.985 . S
N237 C239 1.356 . S
N237 H242 0.984 . S
N237 H243 0.985 . S
C238 C232 1.379 . S
C238 C235 1.363 . S
C238 N236 1.356 1_545 S
C239 C233 1.363 . S
C239 C234 1.379 . S
C239 N237 1.356 . S
N240 C232 1.356 . S
N240 H246 0.984 . S
N240 H247 0.984 . S
N241 C234 1.356 . S
N241 H244 0.984 . S
N241 H245 0.985 . S
H242 N237 0.984 . S
H243 N237 0.985 . S
H244 N241 0.984 . S
H245 N241 0.985 . S
H246 N240 0.984 . S
H247 N240 0.984 . S
H248 N236 0.984 . S
H249 N236 0.985 . S
C250 C251 1.363 . S
C250 C256 1.379 . S
C250 N258 1.356 . S
C251 C250 1.363 . S
C251 C257 1.363 . S
C252 C253 1.363 . S
C252 C257 1.379 . S
C252 N259 1.356 . S
C253 C252 1.363 . S
C253 C256 1.363 . S
N254 C256 1.356 . S
N254 H266 0.984 . S
N254 H267 0.985 . S
N255 C257 1.356 . S
N255 H260 0.984 . S
N255 H261 0.985 . S
C256 C250 1.379 . S
C256 C253 1.363 . S
C256 N254 1.356 . S
C257 C251 1.363 . S
C257 C252 1.379 . S
C257 N255 1.356 . S
N258 C250 1.356 . S
N258 H264 0.984 . S
N258 H265 0.984 . S
N259 C252 1.356 . S
N259 H262 0.984 . S
N259 H263 0.985 . S
H260 N255 0.984 . S
H261 N255 0.985 . S
H262 N259 0.984 . S
H263 N259 0.985 . S
H264 N258 0.984 . S
H265 N258 0.984 . S
H266 N254 0.984 . S
H267 N254 0.985 . S
C268 C269 1.363 . S
C268 C274 1.379 . S
C268 N276 1.356 . S
C269 C268 1.363 . S
C269 C275 1.363 . S
C270 C271 1.363 . S
C270 C275 1.379 . S
C270 N277 1.356 . S
C271 C270 1.363 . S
C271 C274 1.363 . S
N272 C274 1.356 . S
N272 H284 0.984 . S
N272 H285 0.985 . S
N273 C275 1.356 . S
N273 H278 0.984 . S
N273 H279 0.985 . S
C274 C268 1.379 . S
C274 C271 1.363 . S
C274 N272 1.356 . S
C275 C269 1.363 . S
C275 C270 1.379 . S
C275 N273 1.356 . S
N276 C268 1.356 . S
N276 H282 0.984 . S
N276 H283 0.984 . S
N277 C270 1.356 . S
N277 H280 0.984 . S
N277 H281 0.985 . S
H278 N273 0.984 . S
H279 N273 0.985 . S
H280 N277 0.984 . S
H281 N277 0.985 . S
H282 N276 0.984 . S
H283 N276 0.984 . S
H284 N272 0.984 . S
H285 N272 0.985 . S
C286 C287 1.363 . S
C286 C292 1.382 . S
C286 N294 1.356 1_455 S
C287 C286 1.363 . S
C287 C293 1.363 . S
C288 C289 1.363 . S
C288 C293 1.379 . S
C288 N295 1.356 . S
C289 C288 1.363 . S
C289 C292 1.369 . S
N290 C292 1.348 1_655 S
N290 H302 0.984 . S
N290 H303 0.985 . S
N291 C293 1.356 . S
N291 H296 0.984 . S
N291 H297 0.985 . S
C292 C286 1.382 . S
C292 C289 1.369 . S
C292 N290 1.348 1_455 S
C293 C287 1.363 . S
C293 C288 1.379 . S
C293 N291 1.356 . S
N294 C286 1.356 1_655 S
N294 H300 0.984 . S
N294 H301 0.984 1_655 S
N295 C288 1.356 . S
N295 H298 0.984 . S
N295 H299 0.985 . S
H296 N291 0.984 . S
H297 N291 0.985 . S
H298 N295 0.984 . S
H299 N295 0.985 . S
H300 N294 0.984 . S
H301 N294 0.984 1_455 S
H302 N290 0.984 . S
H303 N290 0.985 . S
C304 C305 1.363 1_554 S
C304 C310 1.379 1_554 S
C304 N312 1.356 . S
C305 C304 1.363 1_556 S
C305 C311 1.363 . S
C306 C307 1.363 . S
C306 C311 1.379 . S
C306 N313 1.356 . S
C307 C306 1.363 . S
C307 C310 1.363 . S
N308 C310 1.348 1_544 S
N308 H320 0.987 . S
N308 H321 0.992 1_554 S
N309 C311 1.356 . S
N309 H314 0.984 . S
N309 H315 0.985 . S
C310 C304 1.379 1_556 S
C310 C307 1.363 . S
C310 N308 1.348 1_566 S
C311 C305 1.363 . S
C311 C306 1.379 . S
C311 N309 1.356 . S
N312 C304 1.356 . S
N312 H318 0.984 . S
N312 H319 0.984 . S
N313 C306 1.356 . S
N313 H316 0.984 . S
N313 H317 0.985 . S
H314 N309 0.984 . S
H315 N309 0.985 . S
H316 N313 0.984 . S
H317 N313 0.985 . S
H318 N312 0.984 . S
H319 N312 0.984 . S
H320 N308 0.987 . S
H321 N308 0.992 1_556 S
C322 C323 1.363 . S
C322 C328 1.379 . S
C322 N330 1.356 . S
C323 C322 1.363 . S
C323 C329 1.363 1_556 S
C324 C325 1.363 . S
C324 C329 1.379 1_556 S
C324 N331 1.356 1_556 S
C325 C324 1.363 . S
C325 C328 1.363 . S
N326 C328 1.356 . S
N326 H338 0.984 . S
N326 H339 0.985 . S
N327 C329 1.356 . S
N327 H332 0.984 . S
N327 H333 0.985 . S
C328 C322 1.379 . S
C328 C325 1.363 . S
C328 N326 1.356 . S
C329 C323 1.363 1_554 S
C329 C324 1.379 1_554 S
C329 N327 1.356 . S
N330 C322 1.356 . S
N330 H336 0.984 . S
N330 H337 0.984 . S
N331 C324 1.356 1_554 S
N331 H334 0.984 1_554 S
N331 H335 0.985 . S
H332 N327 0.984 . S
H333 N327 0.985 . S
H334 N331 0.984 1_556 S
H335 N331 0.985 . S
H336 N330 0.984 . S
H337 N330 0.984 . S
H338 N326 0.984 . S
H339 N326 0.985 . S
C340 C341 1.363 . S
C340 C346 1.379 . S
C340 N348 1.356 . S
C341 C340 1.363 . S
C341 C347 1.363 . S
C342 C343 1.363 . S
C342 C347 1.379 . S
C342 N349 1.356 . S
C343 C342 1.363 . S
C343 C346 1.363 . S
N344 C346 1.356 . S
N344 H356 0.984 . S
N344 H357 0.985 . S
N345 C347 1.356 . S
N345 H350 0.984 1_556 S
N345 H351 0.985 . S
C346 C340 1.379 . S
C346 C343 1.363 . S
C346 N344 1.356 . S
C347 C341 1.363 . S
C347 C342 1.379 . S
C347 N345 1.356 . S
N348 C340 1.356 . S
N348 H354 0.984 . S
N348 H355 0.984 . S
N349 C342 1.356 . S
N349 H352 0.984 . S
N349 H353 0.985 . S
H350 N345 0.984 1_554 S
H351 N345 0.985 . S
H352 N349 0.984 . S
H353 N349 0.985 . S
H354 N348 0.984 . S
H355 N348 0.984 . S
H356 N344 0.984 . S
H357 N344 0.985 . S
C358 C359 1.363 . S
C358 C364 1.379 . S
C358 N366 1.356 1_556 S
C359 C358 1.363 . S
C359 C365 1.363 . S
C360 C361 1.363 1_455 S
C360 C365 1.379 1_455 S
C360 N367 1.356 . S
C361 C360 1.363 1_655 S
C361 C364 1.363 . S
N362 C364 1.356 . S
N362 H374 0.984 1_556 S
N362 H375 0.985 . S
N363 C365 1.357 . S
N363 H368 0.988 . S
N363 H369 0.980 1_655 S
C364 C358 1.379 . S
C364 C361 1.363 . S
C364 N362 1.356 . S
C365 C359 1.363 . S
C365 C360 1.379 1_655 S
C365 N363 1.357 . S
N366 C358 1.356 1_554 S
N366 H372 0.984 . S
N366 H373 0.984 . S
N367 C360 1.356 . S
N367 H370 0.984 . S
N367 H371 0.985 . S
H368 N363 0.988 . S
H369 N363 0.980 1_455 S
H370 N367 0.984 . S
H371 N367 0.985 . S
H372 N366 0.984 . S
H373 N366 0.984 . S
H374 N362 0.984 1_554 S
H375 N362 0.985 . S
C376 C377 1.363 . S
C376 C382 1.379 . S
C376 N384 1.356 . S
C377 C376 1.363 . S
C377 C383 1.363 . S
C378 C379 1.363 . S
C378 C383 1.379 . S
C378 N385 1.356 . S
C379 C378 1.363 . S
C379 C382 1.363 . S
N380 C382 1.356 . S
N380 H392 0.984 . S
N380 H393 0.985 . S
N381 C383 1.356 . S
N381 H386 0.984 . S
N381 H387 0.985 . S
C382 C376 1.379 . S
C382 C379 1.363 . S
C382 N380 1.356 . S
C383 C377 1.363 . S
C383 C378 1.379 . S
C383 N381 1.356 . S
N384 C376 1.356 . S
N384 H390 0.984 . S
N384 H391 0.984 . S
N385 C378 1.356 . S
N385 H388 0.984 . S
N385 H389 0.985 . S
H386 N381 0.984 . S
H387 N381 0.985 . S
H388 N385 0.984 . S
H389 N385 0.985 . S
H390 N384 0.984 . S
H391 N384 0.984 . S
H392 N380 0.984 . S
H393 N380 0.985 . S
C394 C395 1.363 . S
C394 C400 1.379 . S
C394 N402 1.356 . S
C395 C394 1.363 . S
C395 C401 1.363 . S
C396 C397 1.363 . S
C396 C401 1.379 . S
C396 N403 1.356 1_545 S
C397 C396 1.363 . S
C397 C400 1.363 . S
N398 C400 1.356 . S
N398 H410 0.984 . S
N398 H411 0.985 . S
N399 C401 1.356 . S
N399 H404 0.984 . S
N399 H405 0.985 1_545 S
C400 C394 1.379 . S
C400 C397 1.363 . S
C400 N398 1.356 . S
C401 C395 1.363 . S
C401 C396 1.379 . S
C401 N399 1.356 . S
N402 C394 1.356 . S
N402 H408 0.984 . S
N402 H409 0.984 . S
N403 C396 1.356 1_565 S
N403 H406 0.984 . S
N403 H407 0.985 . S
H404 N399 0.984 . S
H405 N399 0.985 1_565 S
H406 N403 0.984 . S
H407 N403 0.985 . S
H408 N402 0.984 . S
H409 N402 0.984 . S
H410 N398 0.984 . S
H411 N398 0.985 . S
C412 C413 1.363 . S
C412 C418 1.379 . S
C412 N420 1.356 . S
C413 C412 1.363 . S
C413 C419 1.363 . S
C414 C415 1.363 . S
C414 C419 1.379 . S
C414 N421 1.356 . S
C415 C414 1.363 . S
C415 C418 1.363 . S
N416 C418 1.356 . S
N416 H428 0.984 . S
N416 H429 0.985 . S
N417 C419 1.356 . S
N417 H422 0.984 . S
N417 H423 0.985 . S
C418 C412 1.379 . S
C418 C415 1.363 . S
C418 N416 1.356 . S
C419 C413 1.363 . S
C419 C414 1.379 . S
C419 N417 1.356 . S
N420 C412 1.356 . S
N420 H426 0.984 . S
N420 H427 0.984 . S
N421 C414 1.356 . S
N421 H424 0.984 . S
N421 H425 0.985 . S
H422 N417 0.984 . S
H423 N417 0.985 . S
H424 N421 0.984 . S
H425 N421 0.985 . S
H426 N420 0.984 . S
H427 N420 0.984 . S
H428 N416 0.984 . S
H429 N416 0.985 . S
C430 C431 1.363 . S
C430 C436 1.379 . S
C430 N438 1.356 . S
C431 C430 1.363 . S
C431 C437 1.363 . S
C432 C433 1.363 . S
C432 C437 1.379 . S
C432 N439 1.356 . S
C433 C432 1.363 . S
C433 C436 1.363 . S
N434 C436 1.356 . S
N434 H446 0.984 . S
N434 H447 0.985 . S
N435 C437 1.356 . S
N435 H440 0.984 . S
N435 H441 0.985 . S
C436 C430 1.379 . S
C436 C433 1.363 . S
C436 N434 1.356 . S
C437 C431 1.363 . S
C437 C432 1.379 . S
C437 N435 1.356 . S
N438 C430 1.356 . S
N438 H444 0.984 . S
N438 H445 0.984 . S
N439 C432 1.356 . S
N439 H442 0.984 . S
N439 H443 0.985 . S
H440 N435 0.984 . S
H441 N435 0.985 . S
H442 N439 0.984 . S
H443 N439 0.985 . S
H444 N438 0.984 . S
H445 N438 0.984 . S
H446 N434 0.984 . S
H447 N434 0.985 . S
C448 C449 1.363 . S
C448 C454 1.379 1_655 S
C448 N456 1.356 1_655 S
C449 C448 1.363 . S
C449 C455 1.363 . S
C450 C451 1.363 . S
C450 C455 1.379 . S
C450 N457 1.356 . S
C451 C450 1.363 . S
C451 C454 1.363 1_655 S
N452 C454 1.356 . S
N452 H464 0.984 . S
N452 H465 0.985 . S
N453 C455 1.356 . S
N453 H458 0.984 . S
N453 H459 0.985 1_556 S
C454 C448 1.379 1_455 S
C454 C451 1.363 1_455 S
C454 N452 1.356 . S
C455 C449 1.363 . S
C455 C450 1.379 . S
C455 N453 1.356 . S
N456 C448 1.356 1_455 S
N456 H462 0.984 . S
N456 H463 0.984 1_455 S
N457 C450 1.356 . S
N457 H460 0.984 . S
N457 H461 0.985 . S
H458 N453 0.984 . S
H459 N453 0.985 1_554 S
H460 N457 0.984 . S
H461 N457 0.985 . S
H462 N456 0.984 . S
H463 N456 0.984 1_655 S
H464 N452 0.984 . S
H465 N452 0.985 . S
C466 C467 1.363 1_554 S
C466 C472 1.379 1_554 S
C466 N474 1.356 . S
C467 C466 1.363 1_556 S
C467 C473 1.363 . S
C468 C469 1.363 . S
C468 C473 1.379 . S
C468 N475 1.356 . S
C469 C468 1.363 . S
C469 C472 1.363 . S
N470 C472 1.356 1_554 S
N470 H482 0.984 . S
N470 H483 0.985 1_554 S
N471 C473 1.356 . S
N471 H476 0.984 . S
N471 H477 0.985 . S
C472 C466 1.379 1_556 S
C472 C469 1.363 . S
C472 N470 1.356 1_556 S
C473 C467 1.363 . S
C473 C468 1.379 . S
C473 N471 1.356 . S
N474 C466 1.356 . S
N474 H480 0.984 . S
N474 H481 0.984 . S
N475 C468 1.356 . S
N475 H478 0.984 1_565 S
N475 H479 0.985 . S
H476 N471 0.984 . S
H477 N471 0.985 . S
H478 N475 0.984 1_545 S
H479 N475 0.985 . S
H480 N474 0.984 . S
H481 N474 0.984 . S
H482 N470 0.984 . S
H483 N470 0.985 1_556 S
C484 C485 1.363 . S
C484 C490 1.379 . S
C484 N492 1.356 1_556 S
C485 C484 1.363 . S
C485 C491 1.363 . S
C486 C487 1.363 . S
C486 C491 1.379 . S
C486 N493 1.356 . S
C487 C486 1.363 . S
C487 C490 1.363 . S
N488 C490 1.356 . S
N488 H500 0.984 . S
N488 H501 0.985 . S
N489 C491 1.356 . S
N489 H494 0.984 . S
N489 H495 0.985 . S
C490 C484 1.379 . S
C490 C487 1.363 . S
C490 N488 1.356 . S
C491 C485 1.363 . S
C491 C486 1.379 . S
C491 N489 1.356 . S
N492 C484 1.356 1_554 S
N492 H498 0.984 . S
N492 H499 0.984 . S
N493 C486 1.356 . S
N493 H496 0.984 . S
N493 H497 0.985 . S
H494 N489 0.984 . S
H495 N489 0.985 . S
H496 N493 0.984 . S
H497 N493 0.985 . S
H498 N492 0.984 . S
H499 N492 0.984 . S
H500 N488 0.984 . S
H501 N488 0.985 . S
C502 C503 1.363 . S
C502 C508 1.379 . S
C502 N510 1.356 1_556 S
C503 C502 1.363 . S
C503 C509 1.363 . S
C504 C505 1.363 . S
C504 C509 1.379 . S
C504 N511 1.356 . S
C505 C504 1.363 . S
C505 C508 1.363 . S
N506 C508 1.356 . S
N506 H518 0.984 . S
N506 H519 0.985 . S
N507 C509 1.356 . S
N507 H512 0.984 . S
N507 H513 0.985 . S
C508 C502 1.379 . S
C508 C505 1.363 . S
C508 N506 1.356 . S
C509 C503 1.363 . S
C509 C504 1.379 . S
C509 N507 1.356 . S
N510 C502 1.356 1_554 S
N510 H516 0.984 . S
N510 H517 0.984 . S
N511 C504 1.356 . S
N511 H514 0.984 . S
N511 H515 0.985 . S
H512 N507 0.984 . S
H513 N507 0.985 . S
H514 N511 0.984 . S
H515 N511 0.985 . S
H516 N510 0.984 . S
H517 N510 0.984 . S
H518 N506 0.984 . S
H519 N506 0.985 . S
C520 C521 1.363 . S
C520 C526 1.379 . S
C520 N528 1.356 . S
C521 C520 1.363 . S
C521 C527 1.363 . S
C522 C523 1.363 . S
C522 C527 1.379 . S
C522 N529 1.356 . S
C523 C522 1.363 . S
C523 C526 1.363 . S
N524 C526 1.356 1_656 S
N524 H536 0.984 . S
N524 H537 0.985 . S
N525 C527 1.356 . S
N525 H530 0.984 . S
N525 H531 0.985 . S
C526 C520 1.379 . S
C526 C523 1.363 . S
C526 N524 1.356 1_454 S
C527 C521 1.363 . S
C527 C522 1.379 . S
C527 N525 1.356 . S
N528 C520 1.356 . S
N528 H534 0.984 1_455 S
N528 H535 0.984 . S
N529 C522 1.356 . S
N529 H532 0.984 . S
N529 H533 0.985 . S
H530 N525 0.984 . S
H531 N525 0.985 . S
H532 N529 0.984 . S
H533 N529 0.985 . S
H534 N528 0.984 1_655 S
H535 N528 0.984 . S
H536 N524 0.984 . S
H537 N524 0.985 . S
C538 C539 1.363 . S
C538 C544 1.379 . S
C538 N546 1.356 . S
C539 C538 1.363 . S
C539 C545 1.363 . S
C540 C541 1.363 1_556 S
C540 C545 1.379 1_556 S
C540 N547 1.356 . S
C541 C540 1.363 1_554 S
C541 C544 1.363 . S
N542 C544 1.356 1_565 S
N542 H554 0.984 . S
N542 H555 0.985 . S
N543 C545 1.356 . S
N543 H548 0.984 . S
N543 H549 0.985 1_554 S
C544 C538 1.379 . S
C544 C541 1.363 . S
C544 N542 1.356 1_545 S
C545 C539 1.363 . S
C545 C540 1.379 1_554 S
C545 N543 1.356 . S
N546 C538 1.356 . S
N546 H552 1.011 . S
N546 H553 0.984 . S
N547 C540 1.356 . S
N547 H550 0.984 . S
N547 H551 0.985 . S
H548 N543 0.984 . S
H549 N543 0.985 1_556 S
H550 N547 0.984 . S
H551 N547 0.985 . S
H552 N546 1.011 . S
H553 N546 0.984 . S
H554 N542 0.984 . S
H555 N542 0.985 . S
C556 C557 1.363 . S
C556 C562 1.379 . S
C556 N564 1.356 . S
C557 C556 1.363 . S
C557 C563 1.363 . S
C558 C559 1.363 . S
C558 C563 1.379 . S
C558 N565 1.356 . S
C559 C558 1.363 . S
C559 C562 1.363 . S
N560 C562 1.356 1_556 S
N560 H572 0.984 . S
N560 H573 0.985 . S
N561 C563 1.356 . S
N561 H566 0.984 . S
N561 H567 0.985 . S
C562 C556 1.379 . S
C562 C559 1.363 . S
C562 N560 1.356 1_554 S
C563 C557 1.363 . S
C563 C558 1.379 . S
C563 N561 1.356 . S
N564 C556 1.356 . S
N564 H570 0.984 . S
N564 H571 0.984 . S
N565 C558 1.356 . S
N565 H568 0.984 . S
N565 H569 0.985 . S
H566 N561 0.984 . S
H567 N561 0.985 . S
H568 N565 0.984 . S
H569 N565 0.985 . S
H570 N564 0.984 . S
H571 N564 0.984 . S
H572 N560 0.984 . S
H573 N560 0.985 . S
C574 C575 1.363 . S
C574 C580 1.379 1_554 S
C574 N582 1.356 . S
C575 C574 1.363 . S
C575 C581 1.363 . S
C576 C577 1.363 . S
C576 C581 1.379 . S
C576 N583 1.356 . S
C577 C576 1.363 . S
C577 C580 1.363 1_554 S
N578 C580 1.356 . S
N578 H590 0.984 . S
N578 H591 0.985 . S
N579 C581 1.356 . S
N579 H584 0.984 . S
N579 H585 0.985 . S
C580 C574 1.379 1_556 S
C580 C577 1.363 1_556 S
C580 N578 1.356 . S
C581 C575 1.363 . S
C581 C576 1.379 . S
C581 N579 1.356 . S
N582 C574 1.356 . S
N582 H588 0.984 1_554 S
N582 H589 0.984 . S
N583 C576 1.356 . S
N583 H586 0.984 . S
N583 H587 0.985 . S
H584 N579 0.984 . S
H585 N579 0.985 . S
H586 N583 0.984 . S
H587 N583 0.985 . S
H588 N582 0.984 1_556 S
H589 N582 0.984 . S
H590 N578 0.984 . S
H591 N578 0.985 . S
C592 C593 1.363 . S
C592 C598 1.379 . S
C592 N600 1.358 . S
C593 C592 1.363 . S
C593 C599 1.363 . S
C594 C595 1.363 . S
C594 C599 1.379 . S
C594 N601 1.356 . S
C595 C594 1.363 . S
C595 C598 1.363 . S
N596 C598 1.356 1_455 S
N596 H608 0.984 . S
N596 H609 0.985 . S
N597 C599 1.356 . S
N597 H602 0.984 . S
N597 H603 0.985 . S
C598 C592 1.379 . S
C598 C595 1.363 . S
C598 N596 1.356 1_655 S
C599 C593 1.363 . S
C599 C594 1.379 . S
C599 N597 1.356 . S
N600 C592 1.358 . S
N600 H606 0.980 1_655 S
N600 H607 0.987 . S
N601 C594 1.356 . S
N601 H604 0.984 . S
N601 H605 0.985 . S
H602 N597 0.984 . S
H603 N597 0.985 . S
H604 N601 0.984 . S
H605 N601 0.985 . S
H606 N600 0.980 1_455 S
H607 N600 0.987 . S
H608 N596 0.984 . S
H609 N596 0.985 . S
C610 C611 1.363 . S
C610 C616 1.379 . S
C610 N618 1.356 . S
C611 C610 1.363 . S
C611 C617 1.363 . S
C612 C613 1.363 1_545 S
C612 C617 1.379 1_545 S
C612 N619 1.356 . S
C613 C612 1.363 1_565 S
C613 C616 1.363 . S
N614 C616 1.356 . S
N614 H626 0.984 . S
N614 H627 0.985 . S
N615 C617 1.356 1_545 S
N615 H620 0.982 1_545 S
N615 H621 0.985 . S
C616 C610 1.379 . S
C616 C613 1.363 . S
C616 N614 1.356 . S
C617 C611 1.363 . S
C617 C612 1.379 1_565 S
C617 N615 1.356 1_565 S
N618 C610 1.356 . S
N618 H624 0.984 . S
N618 H625 0.984 . S
N619 C612 1.356 . S
N619 H622 0.984 . S
N619 H623 0.985 . S
H620 N615 0.982 1_565 S
H621 N615 0.985 . S
H622 N619 0.984 . S
H623 N619 0.985 . S
H624 N618 0.984 . S
H625 N618 0.984 . S
H626 N614 0.984 . S
H627 N614 0.985 . S
C628 C629 1.363 . S
C628 C634 1.379 . S
C628 N636 1.356 . S
C629 C628 1.363 . S
C629 C635 1.363 . S
C630 C631 1.363 . S
C630 C635 1.379 . S
C630 N637 1.356 . S
C631 C630 1.363 . S
C631 C634 1.363 . S
N632 C634 1.356 . S
N632 H644 0.984 . S
N632 H645 0.985 . S
N633 C635 1.356 . S
N633 H638 0.984 . S
N633 H639 0.985 . S
C634 C628 1.379 . S
C634 C631 1.363 . S
C634 N632 1.356 . S
C635 C629 1.363 . S
C635 C630 1.379 . S
C635 N633 1.356 . S
N636 C628 1.356 . S
N636 H642 0.984 . S
N636 H643 0.984 . S
N637 C630 1.356 . S
N637 H640 0.984 . S
N637 H641 0.985 . S
H638 N633 0.984 . S
H639 N633 0.985 . S
H640 N637 0.984 . S
H641 N637 0.985 . S
H642 N636 0.984 . S
H643 N636 0.984 . S
H644 N632 0.984 . S
H645 N632 0.985 . S
C646 C647 1.363 . S
C646 C652 1.379 . S
C646 N654 1.356 . S
C647 C646 1.363 . S
C647 C653 1.363 . S
C648 C649 1.363 . S
C648 C653 1.379 . S
C648 N655 1.356 . S
C649 C648 1.363 . S
C649 C652 1.363 . S
N650 C652 1.356 . S
N650 H662 0.984 . S
N650 H663 0.985 . S
N651 C653 1.356 . S
N651 H656 0.984 . S
N651 H657 0.985 . S
C652 C646 1.379 . S
C652 C649 1.363 . S
C652 N650 1.356 . S
C653 C647 1.363 . S
C653 C648 1.379 . S
C653 N651 1.356 . S
N654 C646 1.356 . S
N654 H660 0.984 . S
N654 H661 0.984 . S
N655 C648 1.356 . S
N655 H658 0.984 . S
N655 H659 0.985 . S
H656 N651 0.984 . S
H657 N651 0.985 . S
H658 N655 0.984 . S
H659 N655 0.985 . S
H660 N654 0.984 . S
H661 N654 0.984 . S
H662 N650 0.984 . S
H663 N650 0.985 . S
C233 C125 1.472 . S
C235 C153 1.642 . S
C253 C188 1.586 . S
C251 C144 1.402 . S
C271 C193 1.420 . S
C269 C87 1.314 . S
C289 C213 1.561 . S
C287 C106 1.366 . S
C307 C161 1.641 1_565 S
C305 C49 1.593 1_556 S
C323 C68 1.556 1_556 S
C325 C178 1.586 . S
C341 C11 1.382 1_556 S
C343 C201 1.420 . S
C359 C30 1.475 . S
C361 C221 1.561 1_655 S
C379 C171 1.507 . S
C377 C97 1.422 . S
C397 C180 1.302 . S
C395 C116 1.245 . S
C415 C211 1.507 . S
C413 C135 1.436 . S
C431 C78 1.163 . S
C433 C231 1.200 . S
C449 C21 1.425 . S
C451 C160 1.508 1_655 S
C469 C191 1.302 1_565 S
C467 C40 1.246 1_556 S
C487 C200 1.506 . S
C485 C59 1.439 1_556 S
C503 C2 1.164 . S
C505 C220 1.200 . S
C521 C101 1.448 . S
C523 C158 1.446 1_554 S
C539 C120 1.513 . S
C541 C181 1.572 1_554 S
C559 C198 1.541 1_554 S
C557 C139 1.499 . S
C577 C218 1.562 1_554 S
C575 C82 1.550 . S
C593 C25 1.451 . S
C595 C168 1.445 . S
C613 C173 1.572 . S
C611 C44 1.518 . S
C631 C208 1.541 . S
C629 C63 1.506 . S
C647 C6 1.552 . S
C649 C228 1.562 . S
