# Generated by pormake.
# Topology anh, (6,3)-cn, num edge types: 1
# Building blocks:
#     Node 0, Type 0, BuildingBlock: HISSIN_clean_sbu_0, # of connection points: 6
#     Node 1, Type 0, BuildingBlock: HISSIN_clean_sbu_0, # of connection points: 6
#     Node 2, Type 0, BuildingBlock: HISSIN_clean_sbu_0, # of connection points: 6
#     Node 3, Type 1, BuildingBlock: MIDCAF_clean_linker_0, # of connection points: 3
#     Node 4, Type 1, BuildingBlock: MIDCAF_clean_linker_0, # of connection points: 3
#     Node 5, Type 1, BuildingBlock: MIDCAF_clean_linker_0, # of connection points: 3
#     Node 6, Type 1, BuildingBlock: MIDCAF_clean_linker_0, # of connection points: 3
#     Node 7, Type 1, BuildingBlock: MIDCAF_clean_linker_0, # of connection points: 3
#     Node 8, Type 1, BuildingBlock: MIDCAF_clean_linker_0, # of connection points: 3
#     Edge 9, Type (0, 1), BuildingBlock: EZIPEK_clean_linker_0, # of connection points: 2
#     Edge 10, Type (0, 1), BuildingBlock: EZIPEK_clean_linker_0, # of connection points: 2
#     Edge 11, Type (0, 1), BuildingBlock: EZIPEK_clean_linker_0, # of connection points: 2
#     Edge 12, Type (0, 1), BuildingBlock: EZIPEK_clean_linker_0, # of connection points: 2
#     Edge 13, Type (0, 1), BuildingBlock: EZIPEK_clean_linker_0, # of connection points: 2
#     Edge 14, Type (0, 1), BuildingBlock: EZIPEK_clean_linker_0, # of connection points: 2
#     Edge 15, Type (0, 1), BuildingBlock: EZIPEK_clean_linker_0, # of connection points: 2
#     Edge 16, Type (0, 1), BuildingBlock: EZIPEK_clean_linker_0, # of connection points: 2
#     Edge 17, Type (0, 1), BuildingBlock: EZIPEK_clean_linker_0, # of connection points: 2
#     Edge 18, Type (0, 1), BuildingBlock: EZIPEK_clean_linker_0, # of connection points: 2
#     Edge 19, Type (0, 1), BuildingBlock: EZIPEK_clean_linker_0, # of connection points: 2
#     Edge 20, Type (0, 1), BuildingBlock: EZIPEK_clean_linker_0, # of connection points: 2
#     Edge 21, Type (0, 1), BuildingBlock: EZIPEK_clean_linker_0, # of connection points: 2
#     Edge 22, Type (0, 1), BuildingBlock: EZIPEK_clean_linker_0, # of connection points: 2
#     Edge 23, Type (0, 1), BuildingBlock: EZIPEK_clean_linker_0, # of connection points: 2
#     Edge 24, Type (0, 1), BuildingBlock: EZIPEK_clean_linker_0, # of connection points: 2
#     Edge 25, Type (0, 1), BuildingBlock: EZIPEK_clean_linker_0, # of connection points: 2
#     Edge 26, Type (0, 1), BuildingBlock: EZIPEK_clean_linker_0, # of connection points: 2
# Relax obj value: 0.301
# Max RMSD: 0.197
# Mean RMSD: 0.163
data_MOF--net-anh--node1-HISSIN_clean_sbu_0--node2-MIDCAF_clean_linker_0--edge1-EZIPEK_clean_linker_0
_symmetry_space_group_name_H-M    P1
_symmetry_Int_Tables_number       1
_symmetry_cell_setting            triclinic
loop_
_symmetry_equiv_pos_as_xyz
'x, y, z'
_cell_length_a     27.744827
_cell_length_b     27.826204
_cell_length_c     52.791067
_cell_angle_alpha  91.347959
_cell_angle_beta   89.821567
_cell_angle_gamma 119.8771
loop_
_atom_site_label
_atom_site_type_symbol
_atom_site_fract_x
_atom_site_fract_y
_atom_site_fract_z
_atom_type_partial_charge
Eu0 Eu 1.1098 0.53149 0.17054 0.0
Eu1 Eu 0.17636 0.6659 0.17539 0.0
C2 C 1.13858 0.59337 0.22466 0.0
C3 C 0.99244 0.39671 0.15307 0.0
C4 C 0.94874 0.35385 0.16611 0.0
C5 C 0.92546 0.40491 0.12649 0.0
C6 C 0.8939 0.33835 0.16013 0.0
C7 C 0.9804 0.42066 0.13254 0.0
C8 C 0.88228 0.3655 0.14105 0.0
C9 C 1.04822 0.42513 0.1646 0.0
O10 O 0.24428 0.643 0.17928 0.0
O11 O 0.19911 0.55325 0.1636 0.0
C12 C 0.2451 0.59862 0.17058 0.0
O13 O 1.10584 0.56303 0.13229 0.0
O14 O 0.23824 0.74341 0.19377 0.0
O15 O 0.19395 0.74528 0.16034 0.0
O16 O 0.18877 0.64273 0.13592 0.0
C17 C 0.14881 0.6044 0.12194 0.0
O18 O 1.04053 0.55258 0.174 0.0
O19 O 1.08806 0.64624 0.16685 0.0
O20 O 1.13945 0.63572 0.21381 0.0
O21 O 1.08925 0.45505 0.14951 0.0
O22 O 1.05136 0.45125 0.18594 0.0
O23 O 1.14052 0.55429 0.21104 0.0
C24 C 0.29147 0.80088 0.16117 0.0
C25 C 0.296 0.78217 0.13666 0.0
C26 C 0.39186 0.85258 0.16458 0.0
C27 C 0.34804 0.79705 0.12661 0.0
C28 C 0.33987 0.83777 0.17464 0.0
C29 C 0.396 0.83066 0.14097 0.0
C30 C 0.2383 0.77238 0.17462 0.0
C31 C 1.04119 0.59921 0.16934 0.0
H32 H 0.95711 0.33548 0.18218 0.0
H33 H 0.91684 0.42581 0.11162 0.0
H34 H 0.86064 0.30758 0.17145 0.0
H35 H 1.0134 0.45435 0.12233 0.0
H36 H 0.25941 0.75324 0.12585 0.0
H37 H 0.42887 0.87902 0.17575 0.0
H38 H 0.3508 0.7802 0.10831 0.0
H39 H 0.33742 0.85206 0.19361 0.0
Eu40 Eu 0.66662 1.05729 0.50448 0.0
Eu41 Eu 0.59886 0.12419 0.50612 0.0
C42 C 0.63827 0.09609 0.55773 0.0
C43 C 0.68964 0.93632 0.49337 0.0
C44 C 0.72022 0.91035 0.4987 0.0
C45 C 0.62102 0.85351 0.47039 0.0
C46 C 0.70089 0.85598 0.49041 0.0
C47 C 0.64019 0.90805 0.47901 0.0
C48 C 0.65078 0.82681 0.47655 0.0
C49 C 0.70845 0.99187 0.50388 0.0
O50 O 0.69067 0.19005 0.5014 0.0
O51 O 0.73983 0.14377 0.50296 0.0
C52 C 0.73816 0.18982 0.50094 0.0
O53 O 0.66427 1.07955 0.46411 0.0
O54 O 0.5753 0.17807 0.52679 0.0
O55 O 0.55683 0.16193 0.48676 0.0
O56 O 0.58669 1.0881 0.46647 0.0
C57 C 0.62333 1.08202 0.4532 0.0
O58 O 0.57485 0.99188 0.4986 0.0
O59 O 0.52665 1.03693 0.50913 0.0
O60 O 0.59846 0.10003 0.5465 0.0
O61 O 0.72107 1.03042 0.48742 0.0
O62 O 0.67888 0.99464 0.52252 0.0
O63 O 0.67543 1.09019 0.54477 0.0
C64 C 0.60211 0.2552 0.50173 0.0
C65 C 0.6381 0.27206 0.48081 0.0
C66 C 0.66095 0.34513 0.52197 0.0
C67 C 0.68663 0.32352 0.48116 0.0
C68 C 0.61255 0.29338 0.52173 0.0
C69 C 0.69926 0.35922 0.50222 0.0
C70 C 0.56482 0.19559 0.50595 0.0
C71 C 0.52768 0.99126 0.5031 0.0
H72 H 0.75832 0.93164 0.50978 0.0
H73 H 0.58256 0.83186 0.45961 0.0
H74 H 0.72448 0.83607 0.4954 0.0
H75 H 0.61594 0.92772 0.47498 0.0
H76 H 0.63129 0.24403 0.46503 0.0
H77 H 0.67027 0.37276 0.53832 0.0
H78 H 0.71569 0.33428 0.46569 0.0
H79 H 0.58587 0.2814 0.53815 0.0
Eu80 Eu 0.60137 0.59313 0.8349 0.0
Eu81 Eu 0.73567 0.6598 0.84512 0.0
C82 C 0.65171 0.61665 0.89224 0.0
C83 C 0.46969 0.57349 0.80908 0.0
C84 C 0.4274 0.57771 0.82164 0.0
C85 C 0.47728 0.6423 0.77917 0.0
C86 C 0.41275 0.61633 0.81405 0.0
C87 C 0.49283 0.60427 0.78706 0.0
C88 C 0.43964 0.65084 0.79359 0.0
C89 C 0.49726 0.54749 0.82218 0.0
O90 O 0.71497 0.56964 0.84339 0.0
O91 O 0.62306 0.5245 0.83086 0.0
C92 C 0.66939 0.52421 0.83598 0.0
O93 O 0.64419 0.63682 0.79919 0.0
O94 O 0.80956 0.6729 0.86564 0.0
O95 O 0.81808 0.72469 0.83399 0.0
O96 O 0.72068 0.62884 0.80486 0.0
C97 C 0.68761 0.63609 0.79 0.0
O98 O 0.62 0.68204 0.84067 0.0
O99 O 0.7154 0.72873 0.83781 0.0
O100 O 0.70014 0.65454 0.88384 0.0
O101 O 0.53311 0.54009 0.80905 0.0
O102 O 0.51595 0.5681 0.84486 0.0
O103 O 0.61047 0.58372 0.87686 0.0
C104 C 0.87546 0.68477 0.8352 0.0
C105 C 0.86099 0.66292 0.81022 0.0
C106 C 0.93384 0.6434 0.83863 0.0
C107 C 0.88169 0.63032 0.79982 0.0
C108 C 0.91323 0.67601 0.84903 0.0
C109 C 0.91683 0.61909 0.81432 0.0
C110 C 0.84263 0.70569 0.84838 0.0
C111 C 0.66767 0.7285 0.83861 0.0
H112 H 0.4091 0.55459 0.83862 0.0
H113 H 0.49753 0.66779 0.76302 0.0
H114 H 0.383 0.62189 0.82526 0.0
H115 H 0.52569 0.60195 0.77696 0.0
H116 H 0.83141 0.66849 0.79918 0.0
H117 H 0.96148 0.63531 0.84992 0.0
H118 H 0.86868 0.61216 0.78097 0.0
H119 H 0.92424 0.69169 0.86837 0.0
C120 C 0.55815 0.91009 0.18869 0.0
C121 C 0.58976 0.92304 0.16625 0.0
C122 C 0.63964 0.97391 0.16539 0.0
C123 C 0.65303 1.0138 0.18473 0.0
H124 H 0.57113 0.15495 0.19356 0.0
H125 H 0.60468 0.23041 0.1632 0.0
H126 H 0.76699 0.30643 0.19886 0.0
H127 H 0.73201 0.23448 0.23026 0.0
H128 H 0.68506 0.16923 0.29722 0.0
H129 H 0.682 0.1633 0.34341 0.0
H130 H 0.55737 0.99017 0.33702 0.0
H131 H 0.56206 0.99528 0.29062 0.0
H132 H 0.54509 0.93978 0.22439 0.0
H133 H 0.5194 0.8714 0.19027 0.0
H134 H 0.66672 0.98438 0.14925 0.0
H135 H 0.68924 1.05449 0.18271 0.0
N136 N 0.63177 0.09519 0.21166 0.0
N137 N 0.6349 0.13431 0.25182 0.0
N138 N 0.61954 1.04324 0.24785 0.0
C139 C 0.63637 0.13789 0.22624 0.0
C140 C 0.62566 1.08663 0.2627 0.0
C141 C 0.62388 1.04809 0.22231 0.0
C142 C 0.64941 0.18938 0.21394 0.0
C143 C 0.61318 0.18949 0.19545 0.0
C144 C 0.63253 0.23196 0.17792 0.0
C145 C 0.68898 0.2726 0.17797 0.0
C146 C 0.72329 0.27527 0.19821 0.0
C147 C 0.70343 0.23422 0.21623 0.0
C148 C 0.62373 1.0827 0.29046 0.0
C149 C 0.65719 0.12987 0.30567 0.0
C150 C 0.65562 0.12652 0.332 0.0
C151 C 0.61951 1.07631 0.34355 0.0
C152 C 0.58571 1.02915 0.32839 0.0
C153 C 0.58843 1.03213 0.30199 0.0
C154 C 0.61805 1.00249 0.2057 0.0
C155 C 0.57254 0.94933 0.20833 0.0
C156 C 0.86611 0.54572 0.56743 0.0
C157 C 0.8804 0.55383 0.54173 0.0
C158 C 0.91781 0.60746 0.53369 0.0
C159 C 0.92763 0.65286 0.54929 0.0
H160 H 0.76439 0.62718 0.52921 0.0
H161 H 0.69942 0.62278 0.49655 0.0
H162 H 0.70567 0.76859 0.5303 0.0
H163 H 0.76887 0.77174 0.56339 0.0
H164 H 0.76766 0.7426 0.63255 0.0
H165 H 0.73009 0.72964 0.67553 0.0
H166 H 0.80545 0.63119 0.69306 0.0
H167 H 0.84391 0.64436 0.65046 0.0
H168 H 0.85924 0.58305 0.60187 0.0
H169 H 0.83915 0.50442 0.57434 0.0
H170 H 0.93111 0.61427 0.51415 0.0
H171 H 0.94723 0.69367 0.5412 0.0
N172 N 0.84791 0.6865 0.56222 0.0
N173 N 0.79959 0.70731 0.5929 0.0
N174 N 0.86457 0.68139 0.6052 0.0
C175 C 0.80984 0.70163 0.5682 0.0
C176 C 0.82711 0.69757 0.61155 0.0
C177 C 0.8762 0.67719 0.58051 0.0
C178 C 0.77251 0.7007 0.54831 0.0
C179 C 0.75232 0.65863 0.52934 0.0
C180 C 0.71505 0.6558 0.51084 0.0
C181 C 0.69882 0.69602 0.51071 0.0
C182 C 0.71834 0.73751 0.52993 0.0
C183 C 0.75446 0.7395 0.54875 0.0
C184 C 0.80895 0.69467 0.6381 0.0
C185 C 0.77662 0.71855 0.6456 0.0
C186 C 0.75488 0.711 0.67003 0.0
C187 C 0.76452 0.67887 0.68712 0.0
C188 C 0.79729 0.65565 0.6799 0.0
C189 C 0.81964 0.66375 0.65564 0.0
C190 C 0.90183 0.64393 0.57307 0.0
C191 C 0.87821 0.59101 0.58333 0.0
C192 C 1.01742 0.54739 0.85977 0.0
C193 C 1.02798 0.52889 0.83643 0.0
C194 C 1.07522 0.52309 0.83425 0.0
C195 C 1.11531 0.54361 0.85361 0.0
H196 H 0.26104 0.76657 0.86901 0.0
H197 H 0.32468 0.80199 0.83302 0.0
H198 H 0.40081 0.70737 0.85636 0.0
H199 H 0.33956 0.67468 0.89281 0.0
H200 H 0.27533 0.68114 0.96906 0.0
H201 H 0.26428 0.673 0.01518 0.0
H202 H 1.08613 0.58443 0.00577 0.0
H203 H 1.09641 0.59154 0.95981 0.0
H204 H 1.04931 0.5842 0.89635 0.0
H205 H 0.98113 0.55204 0.8621 0.0
H206 H 1.083 0.50625 0.81705 0.0
H207 H 0.15405 0.54374 0.85069 0.0
N208 N 0.20208 0.64161 0.8818 0.0
N209 N 0.24106 0.67709 0.92203 0.0
N210 N 0.1492 0.60275 0.91794 0.0
C211 C 0.24512 0.67884 0.89638 0.0
C212 C 0.19266 0.63907 0.93292 0.0
C213 C 0.15433 0.60326 0.8924 0.0
C214 C 0.29585 0.7181 0.8835 0.0
C215 C 0.2938 0.7563 0.8672 0.0
C216 C 0.32951 0.77588 0.84649 0.0
C217 C 0.36571 0.75543 0.84149 0.0
C218 C 0.37253 0.72309 0.85969 0.0
C219 C 0.33791 0.70471 0.88067 0.0
C220 C 0.18676 0.63677 0.96077 0.0
C221 C 0.23382 0.66021 0.97681 0.0
C222 C 0.22766 0.65551 0.00308 0.0
C223 C 0.17444 0.62804 0.01364 0.0
C224 C 1.12746 0.60565 -0.00219 0.0
C225 C 1.13353 0.60968 0.97158 0.0
C226 C 1.10708 0.56745 0.87578 0.0
C227 C 1.05641 0.5659 0.87942 0.0
C228 C 0.3247 0.75473 0.45961 0.0
C229 C 0.32553 0.77672 0.48385 0.0
C230 C 0.27911 0.74702 0.49955 0.0
C231 C 0.23222 0.69716 0.49075 0.0
H232 H 1.08311 0.44826 0.47033 0.0
H233 H 0.99862 0.36317 0.48254 0.0
H234 H 0.90655 0.45017 0.48158 0.0
H235 H 0.99104 0.53514 0.46915 0.0
H236 H 1.04205 0.54807 0.38473 0.0
H237 H 1.04229 0.55066 0.33821 0.0
H238 H 0.21844 0.60937 0.33838 0.0
H239 H 0.21888 0.60942 0.38475 0.0
H240 H 0.27978 0.69094 0.43183 0.0
H241 H 0.35975 0.77644 0.44714 0.0
H242 H 0.27861 0.76311 0.51837 0.0
H243 H 0.19658 0.67623 0.50296 0.0
N244 N 1.13657 0.58793 0.46819 0.0
N245 N 1.08915 0.5429 0.43012 0.0
N246 N 0.17655 0.62282 0.42867 0.0
C247 C 1.09112 0.54527 0.45591 0.0
C248 C 1.13182 0.5814 0.41642 0.0
C249 C 0.17975 0.62733 0.45437 0.0
C250 C 1.04431 0.49902 0.46954 0.0
C251 C 1.04531 0.44973 0.47364 0.0
C252 C 0.99677 0.40083 0.48038 0.0
C253 C 0.94575 0.39978 0.48319 0.0
C254 C 0.94519 0.44965 0.47991 0.0
C255 C 0.9937 0.49846 0.47299 0.0
C256 C 1.13047 0.57873 0.38834 0.0
C257 C 1.0807 0.56125 0.37479 0.0
C258 C 1.08082 0.56283 0.34825 0.0
C259 C 1.13043 0.58032 0.33477 0.0
C260 C 0.17977 0.596 0.34833 0.0
C261 C 0.17994 0.59601 0.37482 0.0
C262 C 0.23075 0.67616 0.466 0.0
C263 C 0.27839 0.70547 0.45088 0.0
C264 C 0.71072 0.31967 0.79563 0.0
C265 C 0.67925 0.31947 0.81654 0.0
C266 C 0.65029 0.26996 0.83011 0.0
C267 C 0.65108 0.22134 0.82221 0.0
H268 H 0.71411 1.07217 0.83314 0.0
H269 H 0.71755 0.99055 0.84846 0.0
H270 H 0.6067 0.89014 0.78796 0.0
H271 H 0.60321 0.97028 0.77272 0.0
H272 H 0.66151 1.03797 0.71784 0.0
H273 H 0.6558 1.03268 0.6715 0.0
H274 H 0.65227 0.1857 0.67094 0.0
H275 H 0.65854 0.19192 0.71724 0.0
H276 H 0.73415 0.27305 0.77078 0.0
H277 H 0.73366 0.35699 0.78485 0.0
H278 H 0.62558 0.26844 0.84631 0.0
H279 H 0.62647 0.18342 0.83235 0.0
N280 N 0.66945 0.12472 0.80156 0.0
N281 N 0.6598 1.07594 0.76301 0.0
N282 N 0.6708 0.16468 0.76243 0.0
C283 C 0.66262 1.07795 0.78877 0.0
C284 C 0.66386 0.1188 0.74967 0.0
C285 C 0.67353 0.16852 0.78819 0.0
C286 C 0.65851 1.02825 0.8016 0.0
C287 C 0.68949 1.03242 0.8235 0.0
C288 C 0.69172 0.98574 0.83218 0.0
C289 C 0.66252 0.93379 0.81934 0.0
C290 C 0.62971 0.92934 0.79826 0.0
C291 C 0.62782 0.97559 0.78955 0.0
C292 C 0.66051 0.11542 0.72143 0.0
C293 C 0.65956 1.07063 0.70795 0.0
C294 C 0.65633 1.06747 0.68143 0.0
C295 C 0.65357 0.10876 0.6678 0.0
C296 C 0.65441 0.15344 0.68111 0.0
C297 C 0.65804 0.15687 0.70762 0.0
C298 C 0.68032 0.22102 0.80038 0.0
C299 C 0.71099 0.27135 0.78762 0.0
C300 C 0.83724 0.63214 0.12815 0.0
C301 C 0.83591 0.60538 0.15052 0.0
C302 C 0.78667 0.58204 0.16488 0.0
C303 C 0.73944 0.58444 0.15655 0.0
H304 H 0.54051 0.55121 0.16412 0.0
H305 H 0.45413 0.54814 0.17853 0.0
H306 H 0.48099 0.67488 0.12584 0.0
H307 H 0.56589 0.67755 0.11136 0.0
H308 H 0.56749 0.61152 0.05294 0.0
H309 H 0.56533 0.61103 0.00657 0.0
H310 H 0.71072 0.59298 0.00406 0.0
H311 H 0.71364 0.59353 0.05039 0.0
H312 H 0.79321 0.65409 0.10205 0.0
H313 H 0.8744 0.6505 0.11671 0.0
H314 H 0.78437 0.56086 0.18217 0.0
H315 H 0.70172 0.56477 0.16754 0.0
N316 N 0.64836 0.6084 0.13566 0.0
N317 N 0.60376 0.60775 0.09754 0.0
N318 N 0.68624 0.60476 0.09608 0.0
C319 C 0.6053 0.60945 0.12331 0.0
C320 C 0.64349 0.60477 0.08377 0.0
C321 C 0.68966 0.60673 0.12183 0.0
C322 C 0.56032 0.61472 0.13662 0.0
C323 C 0.52876 0.57949 0.1562 0.0
C324 C 0.47915 0.5775 0.16432 0.0
C325 C 0.46058 0.61116 0.15322 0.0
C326 C 0.49401 0.64848 0.13475 0.0
C327 C 0.54279 0.64999 0.12651 0.0
C328 C 0.64092 0.60281 0.05555 0.0
C329 C 0.59894 0.60715 0.04262 0.0
C330 C 0.59748 0.60677 0.01609 0.0
C331 C 0.63777 0.60184 0.00197 0.0
C332 C 0.67917 0.59663 0.01469 0.0
C333 C 0.6808 0.59716 0.0412 0.0
C334 C 0.74036 0.60948 0.13351 0.0
C335 C 0.79038 0.634 0.11976 0.0
C336 C 0.33896 0.61565 0.18719 0.0
C337 C 0.30023 0.60105 0.16681 0.0
C338 C 0.36277 0.58405 0.13948 0.0
C339 C 0.40419 0.60462 0.15886 0.0
N340 N 0.43458 0.64808 0.20018 0.0
N341 N 0.28281 0.58473 0.12179 0.0
C342 C 0.39298 0.62248 0.18252 0.0
C343 C 0.31416 0.58873 0.14249 0.0
N344 N 0.32357 0.62113 0.21121 0.0
N345 N 0.36917 0.55873 0.11827 0.0
H346 H 0.249 0.59121 0.12286 0.0
H347 H 0.2941 0.58142 0.10327 0.0
H348 H 0.40351 0.55344 0.11551 0.0
H349 H 0.33784 0.53796 0.10471 0.0
H350 H 0.34766 0.62611 0.22721 0.0
H351 H 0.28443 0.61568 0.21543 0.0
H352 H 0.43107 0.6677 0.21656 0.0
H353 H 0.4743 0.65372 0.19746 0.0
C354 C 0.83602 0.26478 0.51461 0.0
C355 C 0.79167 0.24346 0.4965 0.0
C356 C 0.85033 0.3219 0.46881 0.0
C357 C 0.89251 0.34583 0.4879 0.0
N358 N 0.92274 0.34309 0.53028 0.0
N359 N 0.75576 0.25352 0.45659 0.0
C360 C 0.8847 0.31779 0.51108 0.0
C361 C 0.79853 0.27292 0.4738 0.0
N362 N 0.83185 0.23436 0.5353 0.0
N363 N 0.86117 0.34401 0.4452 0.0
H364 H 0.71986 0.215 0.4578 0.0
H365 H 0.7546 0.27663 0.44162 0.0
H366 H 0.8988 0.37858 0.44048 0.0
H367 H 0.83519 0.32544 0.42954 0.0
H368 H 0.86491 0.24375 0.54752 0.0
H369 H 0.79619 0.19732 0.53949 0.0
H370 H 0.91681 0.32856 0.54865 0.0
H371 H 0.95839 0.38174 0.52856 0.0
C372 C 0.69 0.81216 0.81212 0.0
C373 C 0.66713 0.78207 0.8346 0.0
C374 C 0.64106 0.85229 0.84782 0.0
C375 C 0.66839 0.88442 0.82634 0.0
N376 N 0.72921 0.90012 0.79103 0.0
N377 N 0.62416 0.77617 0.87503 0.0
C378 C 0.69612 0.86589 0.8095 0.0
C379 C 0.64357 0.80299 0.85279 0.0
N380 N 0.70208 0.78768 0.79229 0.0
N381 N 0.61021 0.8673 0.86279 0.0
H382 H 0.62224 0.73869 0.87869 0.0
H383 H 0.61294 0.79247 0.89041 0.0
H384 H 0.60816 0.90322 0.86001 0.0
H385 H 0.58354 0.8424 0.87678 0.0
H386 H 0.71367 0.80511 0.7745 0.0
H387 H 0.6938 0.74689 0.79264 0.0
H388 H 0.75504 0.89138 0.77984 0.0
H389 H 0.73516 0.93982 0.78863 0.0
C390 C 0.97065 0.62771 0.18291 0.0
C391 C 0.98683 0.59825 0.16573 0.0
C392 C 0.89867 0.56509 0.14215 0.0
C393 C 0.88551 0.59954 0.1575 0.0
N394 N 0.91227 0.66875 0.19094 0.0
N395 N 0.96969 0.54593 0.12646 0.0
C396 C 0.92229 0.63203 0.17758 0.0
C397 C 0.95161 0.56865 0.14473 0.0
N398 N 1.00069 0.65035 0.20473 0.0
N399 N 0.8598 0.52766 0.12544 0.0
H400 H 1.00782 0.54736 0.12753 0.0
H401 H 0.94912 0.52995 0.10921 0.0
H402 H 0.82037 0.52318 0.12332 0.0
H403 H 0.8644 0.49729 0.11564 0.0
H404 H 0.98807 0.66724 0.21934 0.0
H405 H 1.03605 0.64799 0.20921 0.0
H406 H 0.94053 0.6982 0.2038 0.0
H407 H 0.8772 0.67251 0.18784 0.0
C408 C 0.46618 0.88876 0.51246 0.0
C409 C 0.47372 0.93695 0.50002 0.0
C410 C 0.37896 0.88146 0.48186 0.0
C411 C 0.37438 0.83226 0.49167 0.0
N412 N 0.4167 0.78809 0.51399 0.0
N413 N 0.43995 0.97574 0.46889 0.0
C414 C 0.41883 0.83571 0.50641 0.0
C415 C 0.43058 0.93249 0.48382 0.0
N416 N 0.50322 0.89387 0.5308 0.0
N417 N 0.33359 0.87954 0.47075 0.0
H418 H 0.47749 1.01298 0.46877 0.0
H419 H 0.41254 0.97278 0.4547 0.0
H420 H 0.29541 0.84301 0.4688 0.0
H421 H 0.33225 0.91481 0.46568 0.0
H422 H 0.4972 0.86152 0.54233 0.0
H423 H 0.53744 0.93181 0.53622 0.0
H424 H 0.45046 0.78713 0.52201 0.0
H425 H 0.38226 0.74889 0.5106 0.0
C426 C 0.6513 0.44044 0.80835 0.0
C427 C 0.67125 0.47109 0.83164 0.0
C428 C 0.69975 0.40381 0.84479 0.0
C429 C 0.67422 0.37027 0.82273 0.0
N430 N 0.61505 0.35165 0.78619 0.0
N431 N 0.70618 0.47561 0.87399 0.0
C432 C 0.64674 0.38713 0.80537 0.0
C433 C 0.69331 0.45103 0.85039 0.0
N434 N 0.63988 0.46354 0.78832 0.0
N435 N 0.73195 0.39186 0.85998 0.0
H436 H 0.70136 0.50936 0.87906 0.0
H437 H 0.71668 0.45935 0.88921 0.0
H438 H 0.73747 0.35783 0.85659 0.0
H439 H 0.75692 0.41822 0.87461 0.0
H440 H 0.63066 0.44551 0.77018 0.0
H441 H 0.64594 0.50363 0.78896 0.0
H442 H 0.58943 0.35927 0.77456 0.0
H443 H 0.60992 0.31209 0.78353 0.0
C444 C 0.66593 0.75576 0.45651 0.0
C445 C 0.62975 0.7674 0.47069 0.0
C446 C 0.61119 0.69235 0.49881 0.0
C447 C 0.66193 0.69697 0.49076 0.0
N448 N 0.72975 0.71998 0.45782 0.0
N449 N 0.55225 0.73423 0.49875 0.0
C450 C 0.68555 0.72267 0.46757 0.0
C451 C 0.59548 0.72971 0.48906 0.0
N452 N 0.68536 0.78159 0.43411 0.0
N453 N 0.58149 0.65541 0.51704 0.0
H454 H 0.54052 0.76118 0.49114 0.0
H455 H 0.52803 0.71145 0.51381 0.0
H456 H 0.59433 0.62886 0.52421 0.0
H457 H 0.54338 0.64867 0.52376 0.0
H458 H 0.71082 0.7742 0.42203 0.0
H459 H 0.67182 0.80771 0.42706 0.0
H460 H 0.7525 0.7425 0.44238 0.0
H461 H 0.74386 0.695 0.46548 0.0
C462 C 0.90588 0.5247 0.81237 0.0
C463 C 0.93559 0.58077 0.80501 0.0
C464 C 1.01866 0.5737 0.79858 0.0
C465 C 0.99455 0.52665 0.81403 0.0
N466 N 0.9124 0.44502 0.82634 0.0
N467 N 1.01538 0.65516 0.78552 0.0
C468 C 0.93629 0.49696 0.81683 0.0
C469 C 0.9901 0.60354 0.79553 0.0
N470 N 0.85015 0.50033 0.81675 0.0
N471 N 1.06922 0.5905 0.78792 0.0
H472 H 0.99387 0.67644 0.78242 0.0
H473 H 1.0573 0.67719 0.7809 0.0
H474 H 1.08931 0.56752 0.78932 0.0
H475 H 1.08816 0.6233 0.77555 0.0
H476 H 0.82559 0.45977 0.82256 0.0
H477 H 0.82796 0.52084 0.81349 0.0
H478 H 0.87027 0.42055 0.83009 0.0
H479 H 0.93624 0.42627 0.82987 0.0
C480 C 0.48781 0.89247 0.12176 0.0
C481 C 0.4511 0.84107 0.13263 0.0
C482 C 0.52982 0.83146 0.14616 0.0
C483 C 0.56344 0.88893 0.14278 0.0
N484 N 0.58372 0.95754 0.1115 0.0
N485 N 0.43516 0.75364 0.14808 0.0
C486 C 0.54562 0.91379 0.12487 0.0
C487 C 0.47159 0.80695 0.14176 0.0
N488 N 0.46737 0.92194 0.11014 0.0
N489 N 0.55333 0.80362 0.1566 0.0
H490 H 0.3925 0.73551 0.14471 0.0
H491 H 0.44694 0.72733 0.15617 0.0
H492 H 0.59598 0.82397 0.16057 0.0
H493 H 0.53199 0.76153 0.16038 0.0
H494 H 0.49233 0.96255 0.10435 0.0
H495 H 0.42482 0.90567 0.10705 0.0
H496 H 0.57296 0.97605 0.09734 0.0
H497 H 0.62595 0.97039 0.11258 0.0
C498 C 0.76201 0.46032 0.49697 0.0
C499 C 0.75463 0.40919 0.50503 0.0
C500 C 0.8453 0.45697 0.52635 0.0
C501 C 0.84617 0.5078 0.5235 0.0
N502 N 0.80224 0.55767 0.50686 0.0
N503 N 0.78899 0.35681 0.52667 0.0
C504 C 0.80466 0.50993 0.50839 0.0
C505 C 0.79681 0.40679 0.51909 0.0
N506 N 0.7271 0.46124 0.47903 0.0
N507 N 0.89045 0.45715 0.53665 0.0
H508 H 0.75488 0.31913 0.52081 0.0
H509 H 0.81461 0.35281 0.53979 0.0
H510 H 0.92661 0.49393 0.54169 0.0
H511 H 0.89399 0.42183 0.53803 0.0
H512 H 0.73381 0.49743 0.4705 0.0
H513 H 0.69459 0.42514 0.47085 0.0
H514 H 0.76873 0.55906 0.49883 0.0
H515 H 0.83106 0.59541 0.51513 0.0
C516 C 0.37676 0.68687 0.78457 0.0
C517 C 0.43134 0.69886 0.79 0.0
C518 C 0.4475 0.78083 0.81485 0.0
C519 C 0.38935 0.75775 0.81601 0.0
N520 N 0.30086 0.70103 0.79433 0.0
N521 N 0.52422 0.76605 0.80336 0.0
C522 C 0.35521 0.71639 0.79781 0.0
C523 C 0.46915 0.75007 0.80214 0.0
N524 N 0.34385 0.64354 0.76862 0.0
N525 N 0.4805 0.82962 0.82763 0.0
H526 H 0.54077 0.74463 0.79366 0.0
H527 H 0.55358 0.80071 0.81349 0.0
H528 H 0.46326 0.85065 0.83725 0.0
H529 H 0.5237 0.85059 0.82744 0.0
H530 H 0.30245 0.6318 0.76484 0.0
H531 H 0.35932 0.62101 0.7589 0.0
H532 H 0.28177 0.72089 0.80328 0.0
H533 H 0.28177 0.72089 0.80328 0.0
C534 C 0.80867 0.38732 0.15418 0.0
C535 C 0.82509 0.35573 0.13868 0.0
C536 C 0.72933 0.28041 0.13536 0.0
C537 C 0.71643 0.30658 0.15554 0.0
N538 N 0.73183 0.3921 0.1741 0.0
N539 N 0.8007 0.28379 0.10714 0.0
C540 C 0.75188 0.36353 0.16067 0.0
C541 C 0.78479 0.30635 0.12639 0.0
N542 N 0.84785 0.43684 0.16468 0.0
N543 N 0.68996 0.22921 0.12656 0.0
H544 H 0.84161 0.3032 0.10071 0.0
H545 H 0.77352 0.24868 0.09651 0.0
H546 H 0.64842 0.21157 0.13167 0.0
H547 H 0.69774 0.20472 0.11392 0.0
H548 H 0.83905 0.45914 0.17821 0.0
H549 H 0.88989 0.4548 0.1603 0.0
H550 H 0.75448 0.43473 0.17768 0.0
H551 H 0.69027 0.37267 0.17968 0.0
C552 C 0.1559 0.65598 0.08277 0.0
C553 C 0.1525 0.60867 0.0941 0.0
C554 C 0.15893 0.57191 0.05235 0.0
C555 C 0.16754 0.62164 0.04139 0.0
N556 N 0.1805 0.71378 0.04594 0.0
N557 N 0.15702 0.52434 0.09053 0.0
C558 C 0.16796 0.66458 0.05656 0.0
C559 C 0.15526 0.56708 0.07912 0.0
N560 N 0.1449 0.69127 0.09684 0.0
N561 N 0.1537 0.5291 0.0371 0.0
H562 H 0.15412 0.51901 0.11005 0.0
H563 H 0.16577 0.49648 0.08096 0.0
H564 H 0.15895 0.53203 0.01752 0.0
H565 H 1.1406 0.48944 0.04356 0.0
H566 H 1.14112 0.72337 0.08917 0.0
H567 H 1.13423 0.68537 0.11593 0.0
H568 H 0.18801 0.74898 0.05648 0.0
H569 H 0.18735 0.72084 0.02661 0.0
C570 C 0.62545 1.03694 0.41167 0.0
C571 C 0.61861 1.07793 0.42513 0.0
C572 C 0.59993 0.10827 0.38505 0.0
C573 C 0.61627 1.07413 0.37159 0.0
N574 N 0.65446 1.01279 0.37249 0.0
N575 N 0.61134 0.16094 0.42361 0.0
C576 C 0.63174 1.04019 0.38498 0.0
C577 C 0.60878 0.11577 0.41158 0.0
N578 N 0.62366 0.99363 0.42415 0.0
N579 N 0.57509 0.13284 0.3726 0.0
H580 H 0.62164 0.17024 0.44269 0.0
H581 H 0.60974 0.19245 0.41403 0.0
H582 H 0.5664 0.12702 0.35319 0.0
H583 H 0.55785 0.15398 0.382 0.0
H584 H 0.62369 0.96021 0.41483 0.0
H585 H 0.61548 0.98783 0.44345 0.0
H586 H 0.6715 0.99208 0.38186 0.0
H587 H 0.66126 1.01521 0.35301 0.0
C588 C 0.75602 0.69729 0.7581 0.0
C589 C 0.70384 0.65005 0.7633 0.0
C590 C 0.68728 0.62769 0.71784 0.0
C591 C 0.74215 0.67096 0.7131 0.0
N592 N 0.83077 0.74476 0.72834 0.0
N593 N 0.62099 0.56753 0.74877 0.0
C594 C 0.77705 0.70524 0.73313 0.0
C595 C 0.66936 0.61479 0.74332 0.0
N596 N 0.78448 0.73584 0.77687 0.0
N597 N 0.65245 0.59904 0.69797 0.0
H598 H 0.60623 0.557 0.76715 0.0
H599 H 0.59719 0.53672 0.73535 0.0
H600 H 0.6649 0.60599 0.67911 0.0
H601 H 0.61021 0.5712 0.69996 0.0
H602 H 0.8197 0.77404 0.77379 0.0
H603 H 0.76969 0.7322 0.79526 0.0
H604 H 0.8605 0.76589 0.7425 0.0
H605 H 0.84692 0.7542 0.71011 0.0
C606 C 0.68907 0.14363 0.5982 0.0
C607 C 0.64188 0.09939 0.58589 0.0
C608 C 0.59992 1.06441 0.6273 0.0
C609 C 0.64963 0.10519 0.63954 0.0
N610 N 0.74535 0.17763 0.63647 0.0
N611 N 0.55596 1.01252 0.58853 0.0
C612 C 0.69536 0.14312 0.62492 0.0
C613 C 0.59819 1.05834 0.6004 0.0
N614 N 0.72658 0.18755 0.58451 0.0
N615 N 0.55368 1.03272 0.64133 0.0
H616 H 0.55321 1.00653 0.5689 0.0
H617 H 0.52628 0.97827 0.59819 0.0
H618 H 0.55313 1.03613 0.66103 0.0
H619 H 0.51462 1.00657 0.63334 0.0
H620 H 0.7589 0.22359 0.59275 0.0
H621 H 0.722 0.1904 0.5651 0.0
H622 H 0.78168 0.20196 0.62649 0.0
H623 H 0.75175 0.17826 0.65596 0.0
C624 C 0.65857 0.65975 0.93556 0.0
C625 C 0.64407 0.61156 0.92026 0.0
C626 C 0.618 0.55575 0.95863 0.0
C627 C 0.63834 0.60484 0.97383 0.0
N628 N 0.68552 0.70462 0.97707 0.0
N629 N 0.61867 0.51487 0.91771 0.0
C630 C 0.66063 0.65714 0.96237 0.0
C631 C 0.62568 0.55969 0.93189 0.0
N632 N 0.66852 0.70775 0.92453 0.0
N633 N 0.59057 0.50524 0.96973 0.0
H634 H 0.62482 0.51588 0.89822 0.0
H635 H 0.61165 0.47796 0.92556 0.0
H636 H 0.58493 0.50086 0.98927 0.0
H637 H 0.56938 0.46791 0.95948 0.0
H638 H 0.67286 0.7422 0.93473 0.0
H639 H 0.66733 0.71155 0.90502 0.0
H640 H 0.70846 0.74405 0.96967 0.0
H641 H 0.68726 0.70459 -0.00319 0.0
C642 C 0.17291 0.63653 0.26818 0.0
C643 C 1.13603 0.58996 0.25284 0.0
C644 C 1.09951 0.5352 0.29115 0.0
C645 C 1.13133 0.58359 0.3065 0.0
N646 N 0.1883 0.6834 0.30901 0.0
N647 N 1.05461 0.49865 0.25047 0.0
C648 C 0.16509 0.63523 0.29483 0.0
C649 C 1.09658 0.54022 0.26452 0.0
N650 N 0.21716 0.68104 0.25759 0.0
N651 N 1.07366 0.48416 0.30178 0.0
H652 H 1.049 0.50182 0.2312 0.0
H653 H 1.02186 0.46379 0.25852 0.0
H654 H 1.07613 0.47842 0.32108 0.0
H655 H 1.05459 0.4473 0.29106 0.0
H656 H 0.24814 0.71367 0.26834 0.0
H657 H 0.22645 0.68249 0.23838 0.0
H658 H 0.20884 0.72243 0.30101 0.0
H659 H 0.18194 0.68457 0.32844 0.0
loop_
_geom_bond_atom_site_label_1
_geom_bond_atom_site_label_2
_geom_bond_distance
_geom_bond_site_symmetry_2
_ccdc_geom_bond_type
Eu0 C9 2.828 . S
Eu0 O11 2.392 1_655 S
Eu0 O13 2.418 . S
Eu0 O18 2.373 . S
Eu0 O21 2.488 . S
Eu0 O22 2.471 . S
Eu0 O23 2.349 . S
Eu1 O10 2.373 . S
Eu1 O14 2.488 . S
Eu1 O15 2.471 . S
Eu1 O16 2.349 . S
Eu1 O19 2.392 1_455 S
Eu1 O20 2.418 . S
Eu1 C30 2.828 . S
C2 O20 1.244 . S
C2 O23 1.265 1_455 S
C3 C4 1.379 . S
C3 C7 1.373 . S
C3 C9 1.505 . S
C4 C3 1.379 . S
C4 C6 1.369 . S
C4 H32 0.930 . S
C5 C7 1.383 . S
C5 C8 1.382 . S
C5 H33 0.930 . S
C6 C4 1.369 . S
C6 C8 1.392 . S
C6 H34 0.930 . S
C7 C3 1.373 . S
C7 C5 1.383 . S
C7 H35 0.931 . S
C8 C5 1.382 . S
C8 C6 1.392 . S
C9 Eu0 2.828 . S
C9 C3 1.505 . S
C9 O21 1.249 . S
C9 O22 1.244 . S
O10 Eu1 2.373 . S
O10 C12 1.258 . S
O11 Eu0 2.392 1_455 S
O11 C12 1.242 . S
C12 O10 1.258 . S
C12 O11 1.242 . S
O13 Eu0 2.418 . S
O13 C17 1.244 . S
O14 Eu1 2.488 . S
O14 C30 1.249 . S
O15 Eu1 2.471 . S
O15 C30 1.244 . S
O16 Eu1 2.349 . S
O16 C17 1.265 1_455 S
C17 O13 1.244 . S
C17 O16 1.265 1_655 S
O18 Eu0 2.373 . S
O18 C31 1.258 . S
O19 Eu1 2.392 1_655 S
O19 C31 1.242 . S
O20 Eu1 2.418 . S
O20 C2 1.244 . S
O21 Eu0 2.488 . S
O21 C9 1.249 . S
O22 Eu0 2.471 . S
O22 C9 1.244 . S
O23 Eu0 2.349 . S
O23 C2 1.265 1_655 S
C24 C25 1.379 . S
C24 C28 1.373 . S
C24 C30 1.505 . S
C25 C24 1.379 . S
C25 C27 1.369 . S
C25 H36 0.930 . S
C26 C28 1.383 . S
C26 C29 1.382 . S
C26 H37 0.930 . S
C27 C25 1.369 . S
C27 C29 1.392 . S
C27 H38 0.930 . S
C28 C24 1.373 . S
C28 C26 1.383 . S
C28 H39 0.931 . S
C29 C26 1.382 . S
C29 C27 1.392 . S
C30 Eu1 2.828 . S
C30 O14 1.249 . S
C30 O15 1.244 . S
C30 C24 1.505 . S
C31 O18 1.258 . S
C31 O19 1.242 . S
H32 C4 0.930 . S
H33 C5 0.930 . S
H34 C6 0.930 . S
H35 C7 0.931 . S
H36 C25 0.930 . S
H37 C26 0.930 . S
H38 C27 0.930 . S
H39 C28 0.931 . S
Eu40 C49 2.828 . S
Eu40 O51 2.392 1_565 S
Eu40 O53 2.418 . S
Eu40 O58 2.373 . S
Eu40 O61 2.488 . S
Eu40 O62 2.471 . S
Eu40 O63 2.349 . S
Eu41 O50 2.373 . S
Eu41 O54 2.488 . S
Eu41 O55 2.471 . S
Eu41 O56 2.349 . S
Eu41 O59 2.392 1_545 S
Eu41 O60 2.418 . S
Eu41 C70 2.828 . S
C42 O60 1.244 . S
C42 O63 1.265 1_545 S
C43 C44 1.379 . S
C43 C47 1.373 . S
C43 C49 1.505 . S
C44 C43 1.379 . S
C44 C46 1.369 . S
C44 H72 0.930 . S
C45 C47 1.383 . S
C45 C48 1.382 . S
C45 H73 0.930 . S
C46 C44 1.369 . S
C46 C48 1.392 . S
C46 H74 0.930 . S
C47 C43 1.373 . S
C47 C45 1.383 . S
C47 H75 0.931 . S
C48 C45 1.382 . S
C48 C46 1.392 . S
C49 Eu40 2.828 . S
C49 C43 1.505 . S
C49 O61 1.249 . S
C49 O62 1.244 . S
O50 Eu41 2.373 . S
O50 C52 1.258 . S
O51 Eu40 2.392 1_545 S
O51 C52 1.242 . S
C52 O50 1.258 . S
C52 O51 1.242 . S
O53 Eu40 2.418 . S
O53 C57 1.244 1_565 S
O54 Eu41 2.488 . S
O54 C70 1.249 . S
O55 Eu41 2.471 . S
O55 C70 1.244 . S
O56 Eu41 2.349 . S
O56 C57 1.265 . S
C57 O53 1.244 1_545 S
C57 O56 1.265 . S
O58 Eu40 2.373 . S
O58 C71 1.258 . S
O59 Eu41 2.392 1_565 S
O59 C71 1.242 . S
O60 Eu41 2.418 . S
O60 C42 1.244 . S
O61 Eu40 2.488 . S
O61 C49 1.249 . S
O62 Eu40 2.471 . S
O62 C49 1.244 . S
O63 Eu40 2.349 . S
O63 C42 1.265 1_565 S
C64 C65 1.379 . S
C64 C68 1.373 . S
C64 C70 1.505 . S
C65 C64 1.379 . S
C65 C67 1.369 . S
C65 H76 0.930 . S
C66 C68 1.383 . S
C66 C69 1.382 . S
C66 H77 0.930 . S
C67 C65 1.369 . S
C67 C69 1.392 . S
C67 H78 0.930 . S
C68 C64 1.373 . S
C68 C66 1.383 . S
C68 H79 0.931 . S
C69 C66 1.382 . S
C69 C67 1.392 . S
C70 Eu41 2.828 . S
C70 O54 1.249 . S
C70 O55 1.244 . S
C70 C64 1.505 . S
C71 O58 1.258 . S
C71 O59 1.242 . S
H72 C44 0.930 . S
H73 C45 0.930 . S
H74 C46 0.930 . S
H75 C47 0.931 . S
H76 C65 0.930 . S
H77 C66 0.930 . S
H78 C67 0.930 . S
H79 C68 0.931 . S
Eu80 C89 2.828 . S
Eu80 O91 2.392 . S
Eu80 O93 2.418 . S
Eu80 O98 2.373 . S
Eu80 O101 2.488 . S
Eu80 O102 2.471 . S
Eu80 O103 2.349 . S
Eu81 O90 2.373 . S
Eu81 O94 2.488 . S
Eu81 O95 2.471 . S
Eu81 O96 2.349 . S
Eu81 O99 2.392 . S
Eu81 O100 2.418 . S
Eu81 C110 2.828 . S
C82 O100 1.244 . S
C82 O103 1.265 . S
C83 C84 1.379 . S
C83 C87 1.373 . S
C83 C89 1.505 . S
C84 C83 1.379 . S
C84 C86 1.369 . S
C84 H112 0.930 . S
C85 C87 1.383 . S
C85 C88 1.382 . S
C85 H113 0.930 . S
C86 C84 1.369 . S
C86 C88 1.392 . S
C86 H114 0.930 . S
C87 C83 1.373 . S
C87 C85 1.383 . S
C87 H115 0.931 . S
C88 C85 1.382 . S
C88 C86 1.392 . S
C89 Eu80 2.828 . S
C89 C83 1.505 . S
C89 O101 1.249 . S
C89 O102 1.244 . S
O90 Eu81 2.373 . S
O90 C92 1.258 . S
O91 Eu80 2.392 . S
O91 C92 1.242 . S
C92 O90 1.258 . S
C92 O91 1.242 . S
O93 Eu80 2.418 . S
O93 C97 1.244 . S
O94 Eu81 2.488 . S
O94 C110 1.249 . S
O95 Eu81 2.471 . S
O95 C110 1.244 . S
O96 Eu81 2.349 . S
O96 C97 1.265 . S
C97 O93 1.244 . S
C97 O96 1.265 . S
O98 Eu80 2.373 . S
O98 C111 1.258 . S
O99 Eu81 2.392 . S
O99 C111 1.242 . S
O100 Eu81 2.418 . S
O100 C82 1.244 . S
O101 Eu80 2.488 . S
O101 C89 1.249 . S
O102 Eu80 2.471 . S
O102 C89 1.244 . S
O103 Eu80 2.349 . S
O103 C82 1.265 . S
C104 C105 1.379 . S
C104 C108 1.373 . S
C104 C110 1.505 . S
C105 C104 1.379 . S
C105 C107 1.369 . S
C105 H116 0.930 . S
C106 C108 1.383 . S
C106 C109 1.382 . S
C106 H117 0.930 . S
C107 C105 1.369 . S
C107 C109 1.392 . S
C107 H118 0.930 . S
C108 C104 1.373 . S
C108 C106 1.383 . S
C108 H119 0.931 . S
C109 C106 1.382 . S
C109 C107 1.392 . S
C110 Eu81 2.828 . S
C110 O94 1.249 . S
C110 O95 1.244 . S
C110 C104 1.505 . S
C111 O98 1.258 . S
C111 O99 1.242 . S
H112 C84 0.930 . S
H113 C85 0.930 . S
H114 C86 0.930 . S
H115 C87 0.931 . S
H116 C105 0.930 . S
H117 C106 0.930 . S
H118 C107 0.930 . S
H119 C108 0.931 . S
C120 C121 1.384 . S
C120 H133 0.947 . S
C120 C155 1.382 . S
C121 C120 1.384 . S
C121 C122 1.378 . S
C122 C121 1.378 . S
C122 C123 1.378 . S
C122 H134 0.952 . S
C123 C122 1.378 . S
C123 H135 0.950 . S
C123 C154 1.383 . S
H124 C143 0.947 . S
H125 C144 0.946 . S
H126 C146 0.953 . S
H127 C147 0.945 . S
H128 C149 0.952 . S
H129 C150 0.949 . S
H130 C152 0.950 . S
H131 C153 0.948 . S
H132 C155 0.951 . S
H133 C120 0.947 . S
H134 C122 0.952 . S
H135 C123 0.950 . S
N136 C139 1.382 . S
N136 C141 1.363 1_545 S
N137 C139 1.371 . S
N137 C140 1.372 . S
N138 C140 1.361 1_565 S
N138 C141 1.377 . S
C139 N136 1.382 . S
C139 N137 1.371 . S
C139 C142 1.480 . S
C140 N137 1.372 . S
C140 N138 1.361 1_545 S
C140 C148 1.457 . S
C141 N136 1.363 1_565 S
C141 N138 1.377 . S
C141 C154 1.479 . S
C142 C139 1.480 . S
C142 C143 1.383 . S
C142 C147 1.385 . S
C143 H124 0.947 . S
C143 C142 1.383 . S
C143 C144 1.388 . S
C144 H125 0.946 . S
C144 C143 1.388 . S
C144 C145 1.384 . S
C145 C144 1.384 . S
C145 C146 1.377 . S
C146 H126 0.953 . S
C146 C145 1.377 . S
C146 C147 1.369 . S
C147 H127 0.945 . S
C147 C142 1.385 . S
C147 C146 1.369 . S
C148 C140 1.457 . S
C148 C149 1.372 . S
C148 C153 1.364 1_545 S
C149 H128 0.952 . S
C149 C148 1.372 . S
C149 C150 1.389 . S
C150 H129 0.949 . S
C150 C149 1.389 . S
C150 C151 1.387 . S
C151 C150 1.387 . S
C151 C152 1.372 1_545 S
C152 H130 0.950 . S
C152 C151 1.372 1_565 S
C152 C153 1.379 . S
C153 H131 0.948 . S
C153 C148 1.364 1_565 S
C153 C152 1.379 . S
C154 C123 1.383 . S
C154 C141 1.479 . S
C154 C155 1.398 . S
C155 C120 1.382 . S
C155 H132 0.951 . S
C155 C154 1.398 . S
C156 C157 1.384 . S
C156 H169 0.947 . S
C156 C191 1.382 . S
C157 C156 1.384 . S
C157 C158 1.378 . S
C158 C157 1.378 . S
C158 C159 1.378 . S
C158 H170 0.952 . S
C159 C158 1.378 . S
C159 H171 0.950 . S
C159 C190 1.383 . S
H160 C179 0.947 . S
H161 C180 0.946 . S
H162 C182 0.953 . S
H163 C183 0.945 . S
H164 C185 0.952 . S
H165 C186 0.949 . S
H166 C188 0.950 . S
H167 C189 0.948 . S
H168 C191 0.951 . S
H169 C156 0.947 . S
H170 C158 0.952 . S
H171 C159 0.950 . S
N172 C175 1.382 . S
N172 C177 1.363 . S
N173 C175 1.371 . S
N173 C176 1.372 . S
N174 C176 1.361 . S
N174 C177 1.377 . S
C175 N172 1.382 . S
C175 N173 1.371 . S
C175 C178 1.480 . S
C176 N173 1.372 . S
C176 N174 1.361 . S
C176 C184 1.457 . S
C177 N172 1.363 . S
C177 N174 1.377 . S
C177 C190 1.479 . S
C178 C175 1.480 . S
C178 C179 1.383 . S
C178 C183 1.385 . S
C179 H160 0.947 . S
C179 C178 1.383 . S
C179 C180 1.388 . S
C180 H161 0.946 . S
C180 C179 1.388 . S
C180 C181 1.384 . S
C181 C180 1.384 . S
C181 C182 1.377 . S
C182 H162 0.953 . S
C182 C181 1.377 . S
C182 C183 1.369 . S
C183 H163 0.945 . S
C183 C178 1.385 . S
C183 C182 1.369 . S
C184 C176 1.457 . S
C184 C185 1.372 . S
C184 C189 1.364 . S
C185 H164 0.952 . S
C185 C184 1.372 . S
C185 C186 1.389 . S
C186 H165 0.949 . S
C186 C185 1.389 . S
C186 C187 1.387 . S
C187 C186 1.387 . S
C187 C188 1.372 . S
C188 H166 0.950 . S
C188 C187 1.372 . S
C188 C189 1.379 . S
C189 H167 0.948 . S
C189 C184 1.364 . S
C189 C188 1.379 . S
C190 C159 1.383 . S
C190 C177 1.479 . S
C190 C191 1.398 . S
C191 C156 1.382 . S
C191 H168 0.951 . S
C191 C190 1.398 . S
C192 C193 1.384 . S
C192 H205 0.947 . S
C192 C227 1.382 . S
C193 C192 1.384 . S
C193 C194 1.378 . S
C194 C193 1.378 . S
C194 C195 1.378 . S
C194 H206 0.952 . S
C195 C194 1.378 . S
C195 H207 0.950 . S
C195 C226 1.383 . S
H196 C215 0.947 . S
H197 C216 0.946 . S
H198 C218 0.953 . S
H199 C219 0.945 . S
H200 C221 0.952 . S
H201 C222 0.949 . S
H202 C224 0.950 . S
H203 C225 0.948 . S
H204 C227 0.951 . S
H205 C192 0.947 . S
H206 C194 0.952 . S
H207 C195 0.950 . S
N208 C211 1.382 . S
N208 C213 1.363 1_455 S
N209 C211 1.371 . S
N209 C212 1.372 . S
N210 C212 1.343 1_655 S
N210 C213 1.377 . S
C211 N208 1.382 . S
C211 N209 1.371 . S
C211 C214 1.480 . S
C212 N209 1.372 . S
C212 N210 1.343 1_455 S
C212 C220 1.457 . S
C213 N208 1.363 1_655 S
C213 N210 1.377 . S
C213 C226 1.479 . S
C214 C211 1.480 . S
C214 C215 1.383 . S
C214 C219 1.385 . S
C215 H196 0.947 . S
C215 C214 1.383 . S
C215 C216 1.388 . S
C216 H197 0.946 . S
C216 C215 1.388 . S
C216 C217 1.384 . S
C217 C216 1.384 . S
C217 C218 1.377 . S
C218 H198 0.953 . S
C218 C217 1.377 . S
C218 C219 1.369 . S
C219 H199 0.945 . S
C219 C214 1.385 . S
C219 C218 1.369 . S
C220 C212 1.457 . S
C220 C221 1.372 . S
C220 C225 1.364 1_455 S
C221 H200 0.952 . S
C221 C220 1.372 . S
C221 C222 1.389 1_556 S
C222 H201 0.949 . S
C222 C221 1.389 1_554 S
C222 C223 1.387 . S
C223 C222 1.387 . S
C223 C224 1.372 1_455 S
C224 H202 0.950 . S
C224 C223 1.372 1_655 S
C224 C225 1.379 1_554 S
C225 H203 0.948 . S
C225 C220 1.364 1_655 S
C225 C224 1.379 1_556 S
C226 C195 1.383 . S
C226 C213 1.479 . S
C226 C227 1.398 . S
C227 C192 1.382 . S
C227 H204 0.951 . S
C227 C226 1.398 . S
C228 C229 1.384 . S
C228 H241 0.947 . S
C228 C263 1.382 . S
C229 C228 1.384 . S
C229 C230 1.378 . S
C230 C229 1.378 . S
C230 C231 1.378 . S
C230 H242 0.952 . S
C231 C230 1.378 . S
C231 H243 0.950 . S
C231 C262 1.383 . S
H232 C251 0.947 . S
H233 C252 0.946 . S
H234 C254 0.953 . S
H235 C255 0.945 . S
H236 C257 0.952 . S
H237 C258 0.949 . S
H238 C260 0.950 . S
H239 C261 0.948 . S
H240 C263 0.951 . S
H241 C228 0.947 . S
H242 C230 0.952 . S
H243 C231 0.950 . S
N244 C247 1.382 1_455 S
N244 C249 1.363 . S
N245 C247 1.371 . S
N245 C248 1.372 1_655 S
N246 C248 1.361 . S
N246 C249 1.377 . S
C247 N244 1.382 1_655 S
C247 N245 1.371 . S
C247 C250 1.480 . S
C248 N245 1.372 1_455 S
C248 N246 1.361 . S
C248 C256 1.457 . S
C249 N244 1.363 . S
C249 N246 1.377 . S
C249 C262 1.479 . S
C250 C247 1.480 . S
C250 C251 1.383 . S
C250 C255 1.385 . S
C251 H232 0.947 . S
C251 C250 1.383 . S
C251 C252 1.388 . S
C252 H233 0.946 . S
C252 C251 1.388 . S
C252 C253 1.384 . S
C253 C252 1.384 . S
C253 C254 1.377 . S
C254 H234 0.953 . S
C254 C253 1.377 . S
C254 C255 1.369 . S
C255 H235 0.945 . S
C255 C250 1.385 . S
C255 C254 1.369 . S
C256 C248 1.457 . S
C256 C257 1.372 1_455 S
C256 C261 1.364 . S
C257 H236 0.952 . S
C257 C256 1.372 1_655 S
C257 C258 1.389 . S
C258 H237 0.949 . S
C258 C257 1.389 . S
C258 C259 1.387 1_655 S
C259 C258 1.387 1_455 S
C259 C260 1.372 . S
C260 H238 0.950 . S
C260 C259 1.372 . S
C260 C261 1.379 . S
C261 H239 0.948 . S
C261 C256 1.364 . S
C261 C260 1.379 . S
C262 C231 1.383 . S
C262 C249 1.479 . S
C262 C263 1.398 . S
C263 C228 1.382 . S
C263 H240 0.951 . S
C263 C262 1.398 . S
C264 C265 1.384 . S
C264 H277 0.947 . S
C264 C299 1.382 . S
C265 C264 1.384 . S
C265 C266 1.378 . S
C266 C265 1.378 . S
C266 C267 1.378 . S
C266 H278 0.952 . S
C267 C266 1.378 . S
C267 H279 0.950 . S
C267 C298 1.383 . S
H268 C287 0.947 . S
H269 C288 0.946 . S
H270 C290 0.953 . S
H271 C291 0.945 . S
H272 C293 0.952 . S
H273 C294 0.949 . S
H274 C296 0.950 . S
H275 C297 0.948 . S
H276 C299 0.951 . S
H277 C264 0.947 . S
H278 C266 0.952 . S
H279 C267 0.950 . S
N280 C283 1.382 1_545 S
N280 C285 1.363 . S
N281 C283 1.371 . S
N281 C284 1.372 1_565 S
N282 C284 1.361 . S
N282 C285 1.377 . S
C283 N280 1.382 1_565 S
C283 N281 1.371 . S
C283 C286 1.480 . S
C284 N281 1.372 1_545 S
C284 N282 1.361 . S
C284 C292 1.457 . S
C285 N280 1.363 . S
C285 N282 1.377 . S
C285 C298 1.479 . S
C286 C283 1.480 . S
C286 C287 1.383 . S
C286 C291 1.385 . S
C287 H268 0.947 . S
C287 C286 1.383 . S
C287 C288 1.388 . S
C288 H269 0.946 . S
C288 C287 1.388 . S
C288 C289 1.384 . S
C289 C288 1.384 . S
C289 C290 1.377 . S
C290 H270 0.953 . S
C290 C289 1.377 . S
C290 C291 1.369 . S
C291 H271 0.945 . S
C291 C286 1.385 . S
C291 C290 1.369 . S
C292 C284 1.457 . S
C292 C293 1.372 1_545 S
C292 C297 1.364 . S
C293 H272 0.952 . S
C293 C292 1.372 1_565 S
C293 C294 1.389 . S
C294 H273 0.949 . S
C294 C293 1.389 . S
C294 C295 1.387 1_565 S
C295 C294 1.387 1_545 S
C295 C296 1.372 . S
C296 H274 0.950 . S
C296 C295 1.372 . S
C296 C297 1.379 . S
C297 H275 0.948 . S
C297 C292 1.364 . S
C297 C296 1.379 . S
C298 C267 1.383 . S
C298 C285 1.479 . S
C298 C299 1.398 . S
C299 C264 1.382 . S
C299 H276 0.951 . S
C299 C298 1.398 . S
C300 C301 1.384 . S
C300 H313 0.947 . S
C300 C335 1.382 . S
C301 C300 1.384 . S
C301 C302 1.378 . S
C302 C301 1.378 . S
C302 C303 1.378 . S
C302 H314 0.952 . S
C303 C302 1.378 . S
C303 H315 0.950 . S
C303 C334 1.383 . S
H304 C323 0.947 . S
H305 C324 0.946 . S
H306 C326 0.953 . S
H307 C327 0.945 . S
H308 C329 0.952 . S
H309 C330 0.949 . S
H310 C332 0.950 . S
H311 C333 0.948 . S
H312 C335 0.951 . S
H313 C300 0.947 . S
H314 C302 0.952 . S
H315 C303 0.950 . S
N316 C319 1.382 . S
N316 C321 1.363 . S
N317 C319 1.371 . S
N317 C320 1.372 . S
N318 C320 1.361 . S
N318 C321 1.377 . S
C319 N316 1.382 . S
C319 N317 1.371 . S
C319 C322 1.480 . S
C320 N317 1.372 . S
C320 N318 1.361 . S
C320 C328 1.457 . S
C321 N316 1.363 . S
C321 N318 1.377 . S
C321 C334 1.479 . S
C322 C319 1.480 . S
C322 C323 1.383 . S
C322 C327 1.385 . S
C323 H304 0.947 . S
C323 C322 1.383 . S
C323 C324 1.388 . S
C324 H305 0.946 . S
C324 C323 1.388 . S
C324 C325 1.384 . S
C325 C324 1.384 . S
C325 C326 1.377 . S
C326 H306 0.953 . S
C326 C325 1.377 . S
C326 C327 1.369 . S
C327 H307 0.945 . S
C327 C322 1.385 . S
C327 C326 1.369 . S
C328 C320 1.457 . S
C328 C329 1.372 . S
C328 C333 1.364 . S
C329 H308 0.952 . S
C329 C328 1.372 . S
C329 C330 1.389 . S
C330 H309 0.949 . S
C330 C329 1.389 . S
C330 C331 1.394 . S
C331 C330 1.394 . S
C331 C332 1.380 . S
C332 H310 0.950 . S
C332 C331 1.380 . S
C332 C333 1.379 . S
C333 H311 0.948 . S
C333 C328 1.364 . S
C333 C332 1.379 . S
C334 C303 1.383 . S
C334 C321 1.479 . S
C334 C335 1.398 . S
C335 C300 1.382 . S
C335 H312 0.951 . S
C335 C334 1.398 . S
C336 C337 1.363 . S
C336 C342 1.379 . S
C336 N344 1.356 . S
C337 C336 1.363 . S
C337 C343 1.363 . S
C338 C339 1.363 . S
C338 C343 1.379 . S
C338 N345 1.356 . S
C339 C338 1.363 . S
C339 C342 1.363 . S
N340 C342 1.356 . S
N340 H352 0.984 . S
N340 H353 0.985 . S
N341 C343 1.356 . S
N341 H346 0.984 . S
N341 H347 0.985 . S
C342 C336 1.379 . S
C342 C339 1.363 . S
C342 N340 1.356 . S
C343 C337 1.363 . S
C343 C338 1.379 . S
C343 N341 1.356 . S
N344 C336 1.356 . S
N344 H350 0.984 . S
N344 H351 0.984 . S
N345 C338 1.356 . S
N345 H348 0.984 . S
N345 H349 0.985 . S
H346 N341 0.984 . S
H347 N341 0.985 . S
H348 N345 0.984 . S
H349 N345 0.985 . S
H350 N344 0.984 . S
H351 N344 0.984 . S
H352 N340 0.984 . S
H353 N340 0.985 . S
C354 C355 1.363 . S
C354 C360 1.379 . S
C354 N362 1.356 . S
C355 C354 1.363 . S
C355 C361 1.363 . S
C356 C357 1.363 . S
C356 C361 1.379 . S
C356 N363 1.356 . S
C357 C356 1.363 . S
C357 C360 1.363 . S
N358 C360 1.356 . S
N358 H370 0.984 . S
N358 H371 0.985 . S
N359 C361 1.356 . S
N359 H364 0.984 . S
N359 H365 0.985 . S
C360 C354 1.379 . S
C360 C357 1.363 . S
C360 N358 1.356 . S
C361 C355 1.363 . S
C361 C356 1.379 . S
C361 N359 1.356 . S
N362 C354 1.356 . S
N362 H368 0.984 . S
N362 H369 0.984 . S
N363 C356 1.356 . S
N363 H366 0.984 . S
N363 H367 0.985 . S
H364 N359 0.984 . S
H365 N359 0.985 . S
H366 N363 0.984 . S
H367 N363 0.985 . S
H368 N362 0.984 . S
H369 N362 0.984 . S
H370 N358 0.984 . S
H371 N358 0.985 . S
C372 C373 1.363 . S
C372 C378 1.379 . S
C372 N380 1.356 . S
C373 C372 1.363 . S
C373 C379 1.363 . S
C374 C375 1.363 . S
C374 C379 1.379 . S
C374 N381 1.356 . S
C375 C374 1.363 . S
C375 C378 1.363 . S
N376 C378 1.356 . S
N376 H388 0.984 . S
N376 H389 0.985 . S
N377 C379 1.356 . S
N377 H382 0.984 . S
N377 H383 0.985 . S
C378 C372 1.379 . S
C378 C375 1.363 . S
C378 N376 1.356 . S
C379 C373 1.363 . S
C379 C374 1.379 . S
C379 N377 1.356 . S
N380 C372 1.356 . S
N380 H386 0.984 . S
N380 H387 0.984 . S
N381 C374 1.356 . S
N381 H384 0.984 . S
N381 H385 0.985 . S
H382 N377 0.984 . S
H383 N377 0.985 . S
H384 N381 0.984 . S
H385 N381 0.985 . S
H386 N380 0.984 . S
H387 N380 0.984 . S
H388 N376 0.984 . S
H389 N376 0.985 . S
C390 C391 1.363 . S
C390 C396 1.379 . S
C390 N398 1.356 . S
C391 C390 1.363 . S
C391 C397 1.363 . S
C392 C393 1.363 . S
C392 C397 1.379 . S
C392 N399 1.356 . S
C393 C392 1.363 . S
C393 C396 1.363 . S
N394 C396 1.356 . S
N394 H406 0.984 . S
N394 H407 0.985 . S
N395 C397 1.356 . S
N395 H400 0.984 . S
N395 H401 0.985 . S
C396 C390 1.379 . S
C396 C393 1.363 . S
C396 N394 1.356 . S
C397 C391 1.363 . S
C397 C392 1.379 . S
C397 N395 1.356 . S
N398 C390 1.356 . S
N398 H404 0.984 . S
N398 H405 0.984 . S
N399 C392 1.356 . S
N399 H402 0.984 . S
N399 H403 0.985 . S
H400 N395 0.984 . S
H401 N395 0.985 . S
H402 N399 0.984 . S
H403 N399 0.985 . S
H404 N398 0.984 . S
H405 N398 0.984 . S
H406 N394 0.984 . S
H407 N394 0.985 . S
C408 C409 1.363 . S
C408 C414 1.379 . S
C408 N416 1.356 . S
C409 C408 1.363 . S
C409 C415 1.363 . S
C410 C411 1.363 . S
C410 C415 1.379 . S
C410 N417 1.356 . S
C411 C410 1.363 . S
C411 C414 1.363 . S
N412 C414 1.356 . S
N412 H424 0.984 . S
N412 H425 0.985 . S
N413 C415 1.356 . S
N413 H418 0.984 . S
N413 H419 0.985 . S
C414 C408 1.379 . S
C414 C411 1.363 . S
C414 N412 1.356 . S
C415 C409 1.363 . S
C415 C410 1.379 . S
C415 N413 1.356 . S
N416 C408 1.356 . S
N416 H422 0.984 . S
N416 H423 0.984 . S
N417 C410 1.356 . S
N417 H420 0.984 . S
N417 H421 0.985 . S
H418 N413 0.984 . S
H419 N413 0.985 . S
H420 N417 0.984 . S
H421 N417 0.985 . S
H422 N416 0.984 . S
H423 N416 0.984 . S
H424 N412 0.984 . S
H425 N412 0.985 . S
C426 C427 1.363 . S
C426 C432 1.379 . S
C426 N434 1.356 . S
C427 C426 1.363 . S
C427 C433 1.363 . S
C428 C429 1.363 . S
C428 C433 1.379 . S
C428 N435 1.356 . S
C429 C428 1.363 . S
C429 C432 1.363 . S
N430 C432 1.356 . S
N430 H442 0.984 . S
N430 H443 0.985 . S
N431 C433 1.356 . S
N431 H436 0.984 . S
N431 H437 0.985 . S
C432 C426 1.379 . S
C432 C429 1.363 . S
C432 N430 1.356 . S
C433 C427 1.363 . S
C433 C428 1.379 . S
C433 N431 1.356 . S
N434 C426 1.356 . S
N434 H440 0.984 . S
N434 H441 0.984 . S
N435 C428 1.356 . S
N435 H438 0.984 . S
N435 H439 0.985 . S
H436 N431 0.984 . S
H437 N431 0.985 . S
H438 N435 0.984 . S
H439 N435 0.985 . S
H440 N434 0.984 . S
H441 N434 0.984 . S
H442 N430 0.984 . S
H443 N430 0.985 . S
C444 C445 1.363 . S
C444 C450 1.379 . S
C444 N452 1.356 . S
C445 C444 1.363 . S
C445 C451 1.363 . S
C446 C447 1.363 . S
C446 C451 1.379 . S
C446 N453 1.356 . S
C447 C446 1.363 . S
C447 C450 1.363 . S
N448 C450 1.356 . S
N448 H460 0.984 . S
N448 H461 0.985 . S
N449 C451 1.356 . S
N449 H454 0.984 . S
N449 H455 0.985 . S
C450 C444 1.379 . S
C450 C447 1.363 . S
C450 N448 1.356 . S
C451 C445 1.363 . S
C451 C446 1.379 . S
C451 N449 1.356 . S
N452 C444 1.356 . S
N452 H458 0.984 . S
N452 H459 0.984 . S
N453 C446 1.356 . S
N453 H456 0.984 . S
N453 H457 0.985 . S
H454 N449 0.984 . S
H455 N449 0.985 . S
H456 N453 0.984 . S
H457 N453 0.985 . S
H458 N452 0.984 . S
H459 N452 0.984 . S
H460 N448 0.984 . S
H461 N448 0.985 . S
C462 C463 1.363 . S
C462 C468 1.379 . S
C462 N470 1.356 . S
C463 C462 1.363 . S
C463 C469 1.363 . S
C464 C465 1.363 . S
C464 C469 1.379 . S
C464 N471 1.356 . S
C465 C464 1.363 . S
C465 C468 1.363 . S
N466 C468 1.356 . S
N466 H478 0.984 . S
N466 H479 0.985 . S
N467 C469 1.356 . S
N467 H472 0.984 . S
N467 H473 0.985 . S
C468 C462 1.379 . S
C468 C465 1.363 . S
C468 N466 1.356 . S
C469 C463 1.363 . S
C469 C464 1.379 . S
C469 N467 1.356 . S
N470 C462 1.356 . S
N470 H476 0.984 . S
N470 H477 0.984 . S
N471 C464 1.356 . S
N471 H474 0.984 . S
N471 H475 0.985 . S
H472 N467 0.984 . S
H473 N467 0.985 . S
H474 N471 0.984 . S
H475 N471 0.985 . S
H476 N470 0.984 . S
H477 N470 0.984 . S
H478 N466 0.984 . S
H479 N466 0.985 . S
C480 C481 1.363 . S
C480 C486 1.379 . S
C480 N488 1.356 . S
C481 C480 1.363 . S
C481 C487 1.363 . S
C482 C483 1.363 . S
C482 C487 1.379 . S
C482 N489 1.356 . S
C483 C482 1.363 . S
C483 C486 1.363 . S
N484 C486 1.356 . S
N484 H496 0.984 . S
N484 H497 0.985 . S
N485 C487 1.356 . S
N485 H490 0.984 . S
N485 H491 0.985 . S
C486 C480 1.379 . S
C486 C483 1.363 . S
C486 N484 1.356 . S
C487 C481 1.363 . S
C487 C482 1.379 . S
C487 N485 1.356 . S
N488 C480 1.356 . S
N488 H494 0.984 . S
N488 H495 0.984 . S
N489 C482 1.356 . S
N489 H492 0.984 . S
N489 H493 0.985 . S
H490 N485 0.984 . S
H491 N485 0.985 . S
H492 N489 0.984 . S
H493 N489 0.985 . S
H494 N488 0.984 . S
H495 N488 0.984 . S
H496 N484 0.984 . S
H497 N484 0.985 . S
C498 C499 1.363 . S
C498 C504 1.379 . S
C498 N506 1.356 . S
C499 C498 1.363 . S
C499 C505 1.363 . S
C500 C501 1.363 . S
C500 C505 1.379 . S
C500 N507 1.356 . S
C501 C500 1.363 . S
C501 C504 1.363 . S
N502 C504 1.356 . S
N502 H514 0.984 . S
N502 H515 0.985 . S
N503 C505 1.356 . S
N503 H508 0.984 . S
N503 H509 0.985 . S
C504 C498 1.379 . S
C504 C501 1.363 . S
C504 N502 1.356 . S
C505 C499 1.363 . S
C505 C500 1.379 . S
C505 N503 1.356 . S
N506 C498 1.356 . S
N506 H512 0.984 . S
N506 H513 0.984 . S
N507 C500 1.356 . S
N507 H510 0.984 . S
N507 H511 0.985 . S
H508 N503 0.984 . S
H509 N503 0.985 . S
H510 N507 0.984 . S
H511 N507 0.985 . S
H512 N506 0.984 . S
H513 N506 0.984 . S
H514 N502 0.984 . S
H515 N502 0.985 . S
C516 C517 1.363 . S
C516 C522 1.379 . S
C516 N524 1.356 . S
C517 C516 1.363 . S
C517 C523 1.363 . S
C518 C519 1.363 . S
C518 C523 1.379 . S
C518 N525 1.356 . S
C519 C518 1.363 . S
C519 C522 1.363 . S
N520 C522 1.356 . S
N520 H532 0.984 . S
N520 H533 0.985 . S
N521 C523 1.356 . S
N521 H526 0.984 . S
N521 H527 0.985 . S
C522 C516 1.379 . S
C522 C519 1.363 . S
C522 N520 1.356 . S
C523 C517 1.363 . S
C523 C518 1.379 . S
C523 N521 1.356 . S
N524 C516 1.356 . S
N524 H530 0.984 . S
N524 H531 0.984 . S
N525 C518 1.356 . S
N525 H528 0.984 . S
N525 H529 0.985 . S
H526 N521 0.984 . S
H527 N521 0.985 . S
H528 N525 0.984 . S
H529 N525 0.985 . S
H530 N524 0.984 . S
H531 N524 0.984 . S
H532 N520 0.984 . S
H533 N520 0.985 . S
C534 C535 1.363 . S
C534 C540 1.379 . S
C534 N542 1.356 . S
C535 C534 1.363 . S
C535 C541 1.363 . S
C536 C537 1.363 . S
C536 C541 1.379 . S
C536 N543 1.356 . S
C537 C536 1.363 . S
C537 C540 1.363 . S
N538 C540 1.356 . S
N538 H550 0.984 . S
N538 H551 0.985 . S
N539 C541 1.356 . S
N539 H544 0.984 . S
N539 H545 0.985 . S
C540 C534 1.379 . S
C540 C537 1.363 . S
C540 N538 1.356 . S
C541 C535 1.363 . S
C541 C536 1.379 . S
C541 N539 1.356 . S
N542 C534 1.356 . S
N542 H548 0.984 . S
N542 H549 0.984 . S
N543 C536 1.356 . S
N543 H546 0.984 . S
N543 H547 0.985 . S
H544 N539 0.984 . S
H545 N539 0.985 . S
H546 N543 0.984 . S
H547 N543 0.985 . S
H548 N542 0.984 . S
H549 N542 0.984 . S
H550 N538 0.984 . S
H551 N538 0.985 . S
C552 C553 1.363 . S
C552 C558 1.379 . S
C552 N560 1.356 . S
C553 C552 1.363 . S
C553 C559 1.363 . S
C554 C555 1.363 . S
C554 C559 1.379 . S
C554 N561 1.356 . S
C555 C554 1.363 . S
C555 C558 1.363 . S
N556 C558 1.356 . S
N556 H568 0.984 . S
N556 H569 0.985 . S
N557 C559 1.356 . S
N557 H562 0.984 1_455 S
N557 H563 0.985 . S
C558 C552 1.379 . S
C558 C555 1.363 . S
C558 N556 1.356 . S
C559 C553 1.363 . S
C559 C554 1.379 . S
C559 N557 1.356 . S
N560 C552 1.356 . S
N560 H566 0.984 . S
N560 H567 0.984 1_455 S
N561 C554 1.356 . S
N561 H564 0.984 . S
N561 H565 0.985 . S
H562 N557 0.984 1_655 S
H563 N557 0.985 . S
H564 N561 0.984 . S
H565 N561 0.985 . S
H566 N560 0.984 . S
H567 N560 0.984 1_655 S
H568 N556 0.984 . S
H569 N556 0.985 . S
C570 C571 1.363 1_565 S
C570 C576 1.379 1_565 S
C570 N578 1.356 . S
C571 C570 1.363 1_545 S
C571 C577 1.363 . S
C572 C573 1.363 . S
C572 C577 1.379 . S
C572 N579 1.356 . S
C573 C572 1.363 . S
C573 C576 1.363 . S
N574 C576 1.356 1_565 S
N574 H586 0.984 . S
N574 H587 0.985 1_565 S
N575 C577 1.356 . S
N575 H580 0.984 . S
N575 H581 0.985 . S
C576 C570 1.379 1_545 S
C576 C573 1.363 . S
C576 N574 1.356 1_545 S
C577 C571 1.363 . S
C577 C572 1.379 . S
C577 N575 1.356 . S
N578 C570 1.356 . S
N578 H584 0.984 . S
N578 H585 0.984 . S
N579 C572 1.356 . S
N579 H582 0.984 . S
N579 H583 0.985 . S
H580 N575 0.984 . S
H581 N575 0.985 . S
H582 N579 0.984 . S
H583 N579 0.985 . S
H584 N578 0.984 . S
H585 N578 0.984 . S
H586 N574 0.984 . S
H587 N574 0.985 1_545 S
C588 C589 1.363 . S
C588 C594 1.379 . S
C588 N596 1.356 . S
C589 C588 1.363 . S
C589 C595 1.363 . S
C590 C591 1.363 . S
C590 C595 1.379 . S
C590 N597 1.356 . S
C591 C590 1.363 . S
C591 C594 1.363 . S
N592 C594 1.356 . S
N592 H604 0.984 . S
N592 H605 0.985 . S
N593 C595 1.356 . S
N593 H598 0.984 . S
N593 H599 0.985 . S
C594 C588 1.379 . S
C594 C591 1.363 . S
C594 N592 1.356 . S
C595 C589 1.363 . S
C595 C590 1.379 . S
C595 N593 1.356 . S
N596 C588 1.356 . S
N596 H602 0.984 . S
N596 H603 0.984 . S
N597 C590 1.356 . S
N597 H600 0.984 . S
N597 H601 0.985 . S
H598 N593 0.984 . S
H599 N593 0.985 . S
H600 N597 0.984 . S
H601 N597 0.985 . S
H602 N596 0.984 . S
H603 N596 0.984 . S
H604 N592 0.984 . S
H605 N592 0.985 . S
C606 C607 1.363 . S
C606 C612 1.379 . S
C606 N614 1.356 . S
C607 C606 1.363 . S
C607 C613 1.363 1_545 S
C608 C609 1.363 1_565 S
C608 C613 1.379 . S
C608 N615 1.356 . S
C609 C608 1.363 1_545 S
C609 C612 1.363 . S
N610 C612 1.356 . S
N610 H622 0.984 . S
N610 H623 0.985 . S
N611 C613 1.356 . S
N611 H616 0.984 . S
N611 H617 0.985 . S
C612 C606 1.379 . S
C612 C609 1.363 . S
C612 N610 1.356 . S
C613 C607 1.363 1_565 S
C613 C608 1.379 . S
C613 N611 1.356 . S
N614 C606 1.356 . S
N614 H620 0.984 . S
N614 H621 0.984 . S
N615 C608 1.356 . S
N615 H618 0.984 . S
N615 H619 0.985 . S
H616 N611 0.984 . S
H617 N611 0.985 . S
H618 N615 0.984 . S
H619 N615 0.985 . S
H620 N614 0.984 . S
H621 N614 0.984 . S
H622 N610 0.984 . S
H623 N610 0.985 . S
C624 C625 1.363 . S
C624 C630 1.379 . S
C624 N632 1.356 . S
C625 C624 1.363 . S
C625 C631 1.363 . S
C626 C627 1.363 . S
C626 C631 1.379 . S
C626 N633 1.356 . S
C627 C626 1.363 . S
C627 C630 1.363 . S
N628 C630 1.356 . S
N628 H640 0.984 . S
N628 H641 0.985 . S
N629 C631 1.356 . S
N629 H634 0.984 . S
N629 H635 0.985 . S
C630 C624 1.379 . S
C630 C627 1.363 . S
C630 N628 1.356 . S
C631 C625 1.363 . S
C631 C626 1.379 . S
C631 N629 1.356 . S
N632 C624 1.356 . S
N632 H638 0.984 . S
N632 H639 0.984 . S
N633 C626 1.356 . S
N633 H636 0.984 . S
N633 H637 0.985 . S
H634 N629 0.984 . S
H635 N629 0.985 . S
H636 N633 0.984 . S
H637 N633 0.985 . S
H638 N632 0.984 . S
H639 N632 0.984 . S
H640 N628 0.984 . S
H641 N628 0.985 . S
C642 C643 1.371 . S
C642 C648 1.379 . S
C642 N650 1.356 . S
C643 C642 1.371 . S
C643 C649 1.356 1_455 S
C644 C645 1.363 1_655 S
C644 C649 1.379 . S
C644 N651 1.356 . S
C645 C644 1.363 1_455 S
C645 C648 1.363 . S
N646 C648 1.356 . S
N646 H658 0.984 . S
N646 H659 0.985 . S
N647 C649 1.356 . S
N647 H652 0.984 . S
N647 H653 0.985 . S
C648 C642 1.379 . S
C648 C645 1.363 . S
C648 N646 1.356 . S
C649 C643 1.356 1_655 S
C649 C644 1.379 . S
C649 N647 1.356 . S
N650 C642 1.356 . S
N650 H656 0.984 . S
N650 H657 0.984 . S
N651 C644 1.356 . S
N651 H654 0.984 . S
N651 H655 0.985 . S
H652 N647 0.984 . S
H653 N647 0.985 . S
H654 N651 0.984 . S
H655 N651 0.985 . S
H656 N650 0.984 . S
H657 N650 0.984 . S
H658 N646 0.984 . S
H659 N646 0.985 . S
C337 C12 3.045 . S
C339 C325 2.948 . S
C355 C52 3.045 . S
C357 C253 2.954 . S
C373 C111 3.092 . S
C375 C289 2.992 . S
C391 C31 3.214 . S
C393 C301 3.142 . S
C411 C229 3.140 . S
C409 C71 3.215 . S
C429 C265 3.094 . S
C427 C92 3.165 . S
C445 C48 0.731 . S
C447 C181 0.720 . S
C463 C109 0.761 . S
C465 C193 0.769 . S
C481 C29 0.724 . S
C483 C121 0.705 . S
C501 C157 0.609 . S
C499 C69 0.661 . S
C519 C217 0.522 . S
C517 C88 0.530 . S
C535 C8 0.524 . S
C537 C145 0.484 . S
C555 C223 1.041 . S
C553 C17 1.058 1_455 S
C571 C57 1.043 . S
C573 C151 1.030 . S
C589 C97 1.061 . S
C591 C187 1.062 . S
C609 C295 1.803 . S
C607 C42 1.741 . S
C627 C331 1.785 1_556 S
C625 C82 1.752 . S
C643 C2 1.757 . S
C645 C259 1.805 . S
