# Generated by pormake.
# Topology zzz, (3,6)-cn, num edge types: 1
# Building blocks:
#     Node 0, Type 0, BuildingBlock: ESEHIV_clean_linker_0, # of connection points: 3
#     Node 1, Type 0, BuildingBlock: ESEHIV_clean_linker_0, # of connection points: 3
#     Node 2, Type 0, BuildingBlock: ESEHIV_clean_linker_0, # of connection points: 3
#     Node 3, Type 0, BuildingBlock: ESEHIV_clean_linker_0, # of connection points: 3
#     Node 4, Type 0, BuildingBlock: ESEHIV_clean_linker_0, # of connection points: 3
#     Node 5, Type 0, BuildingBlock: ESEHIV_clean_linker_0, # of connection points: 3
#     Node 6, Type 0, BuildingBlock: ESEHIV_clean_linker_0, # of connection points: 3
#     Node 7, Type 0, BuildingBlock: ESEHIV_clean_linker_0, # of connection points: 3
#     Node 8, Type 1, BuildingBlock: KUMBOL_clean_sbu_1, # of connection points: 6
#     Node 9, Type 1, BuildingBlock: KUMBOL_clean_sbu_1, # of connection points: 6
#     Node 10, Type 1, BuildingBlock: KUMBOL_clean_sbu_1, # of connection points: 6
#     Node 11, Type 1, BuildingBlock: KUMBOL_clean_sbu_1, # of connection points: 6
#     Edge 12, Type (0, 1), BuildingBlock: ZUJKAS_clean_linker_0, # of connection points: 2
#     Edge 13, Type (0, 1), BuildingBlock: ZUJKAS_clean_linker_0, # of connection points: 2
#     Edge 14, Type (0, 1), BuildingBlock: ZUJKAS_clean_linker_0, # of connection points: 2
#     Edge 15, Type (0, 1), BuildingBlock: ZUJKAS_clean_linker_0, # of connection points: 2
#     Edge 16, Type (0, 1), BuildingBlock: ZUJKAS_clean_linker_0, # of connection points: 2
#     Edge 17, Type (0, 1), BuildingBlock: ZUJKAS_clean_linker_0, # of connection points: 2
#     Edge 18, Type (0, 1), BuildingBlock: ZUJKAS_clean_linker_0, # of connection points: 2
#     Edge 19, Type (0, 1), BuildingBlock: ZUJKAS_clean_linker_0, # of connection points: 2
#     Edge 20, Type (0, 1), BuildingBlock: ZUJKAS_clean_linker_0, # of connection points: 2
#     Edge 21, Type (0, 1), BuildingBlock: ZUJKAS_clean_linker_0, # of connection points: 2
#     Edge 22, Type (0, 1), BuildingBlock: ZUJKAS_clean_linker_0, # of connection points: 2
#     Edge 23, Type (0, 1), BuildingBlock: ZUJKAS_clean_linker_0, # of connection points: 2
#     Edge 24, Type (0, 1), BuildingBlock: ZUJKAS_clean_linker_0, # of connection points: 2
#     Edge 25, Type (0, 1), BuildingBlock: ZUJKAS_clean_linker_0, # of connection points: 2
#     Edge 26, Type (0, 1), BuildingBlock: ZUJKAS_clean_linker_0, # of connection points: 2
#     Edge 27, Type (0, 1), BuildingBlock: ZUJKAS_clean_linker_0, # of connection points: 2
#     Edge 28, Type (0, 1), BuildingBlock: ZUJKAS_clean_linker_0, # of connection points: 2
#     Edge 29, Type (0, 1), BuildingBlock: ZUJKAS_clean_linker_0, # of connection points: 2
#     Edge 30, Type (0, 1), BuildingBlock: ZUJKAS_clean_linker_0, # of connection points: 2
#     Edge 31, Type (0, 1), BuildingBlock: ZUJKAS_clean_linker_0, # of connection points: 2
#     Edge 32, Type (0, 1), BuildingBlock: ZUJKAS_clean_linker_0, # of connection points: 2
#     Edge 33, Type (0, 1), BuildingBlock: ZUJKAS_clean_linker_0, # of connection points: 2
#     Edge 34, Type (0, 1), BuildingBlock: ZUJKAS_clean_linker_0, # of connection points: 2
#     Edge 35, Type (0, 1), BuildingBlock: ZUJKAS_clean_linker_0, # of connection points: 2
# Relax obj value: 0.311
# Max RMSD: 0.208
# Mean RMSD: 0.181
data_MOF--net-zzz--node1-KUMBOL_clean_sbu_1--node2-ESEHIV_clean_linker_0--edge1-ZUJKAS_clean_linker_0
_symmetry_space_group_name_H-M    P1
_symmetry_Int_Tables_number       1
_symmetry_cell_setting            triclinic
loop_
_symmetry_equiv_pos_as_xyz
'x, y, z'
_cell_length_a     57.713974
_cell_length_b     57.784027
_cell_length_c     21.442734
_cell_angle_alpha  90.104799
_cell_angle_beta   89.823007
_cell_angle_gamma 90.501289
loop_
_atom_site_label
_atom_site_type_symbol
_atom_site_fract_x
_atom_site_fract_y
_atom_site_fract_z
_atom_type_partial_charge
H0 H 0.76872 0.58182 0.30734 0.0
H1 H 0.71526 0.58689 0.1751 0.0
H2 H 0.71886 0.52611 0.29186 0.0
C3 C 0.75221 0.5753 0.29016 0.0
C4 C 0.74404 0.55383 0.31174 0.0
C5 C 0.74481 0.58324 0.23263 0.0
C6 C 0.72213 0.57786 0.21521 0.0
C7 C 0.71262 0.55621 0.2321 0.0
C8 C 0.72426 0.54361 0.28072 0.0
H9 H 0.9449 0.7711 0.30667 0.0
H10 H 0.94208 0.71677 0.17636 0.0
H11 H 1.00205 0.72365 0.29568 0.0
C12 C 0.95267 0.75561 0.28768 0.0
C13 C 0.97424 0.74881 0.31045 0.0
C14 C 0.94573 0.74776 0.22911 0.0
C15 C 0.95098 0.72482 0.21535 0.0
C16 C 0.97211 0.71564 0.23601 0.0
C17 C 0.98482 0.72883 0.28209 0.0
H18 H 0.75262 0.95082 0.28959 0.0
H19 H 0.81105 0.94487 0.17166 0.0
H20 H 0.80475 1.00454 0.29176 0.0
C21 C 0.76979 0.95691 0.27641 0.0
C22 C 0.77784 0.97781 0.30173 0.0
C23 C 0.77948 0.94885 0.22103 0.0
C24 C 0.80295 0.95347 0.21103 0.0
C25 C 0.81241 0.97452 0.23264 0.0
C26 C 0.79905 0.98746 0.27732 0.0
H27 H 0.57672 0.7582 0.28095 0.0
H28 H 0.52332 0.80928 0.30259 0.0
H29 H 0.57558 0.81594 0.15966 0.0
C30 C 0.5701 0.77533 0.27087 0.0
C31 C 0.57569 0.78508 0.21336 0.0
C32 C 0.55027 0.78282 0.30267 0.0
C33 C 0.53954 0.80382 0.28212 0.0
C34 C 0.55007 0.81716 0.23289 0.0
C35 C 0.5695 0.80794 0.20256 0.0
H36 H 0.25348 0.45295 0.02136 0.0
H37 H 0.31245 0.45738 0.13827 0.0
H38 H 0.30711 0.50315 0.98022 0.0
C39 C 0.271 0.45948 0.02819 0.0
C40 C 0.27933 0.47719 0.98933 0.0
C41 C 0.28153 0.4551 0.08515 0.0
C42 C 0.30437 0.46194 0.09431 0.0
C43 C 0.31402 0.4798 0.05846 0.0
C44 C 0.30089 0.48832 1.00629 0.0
H45 H 0.01374 0.25851 1.0075 0.0
H46 H 0.02049 0.31126 0.14269 0.0
H47 H 0.0563 0.3184 0.96664 0.0
C48 C 0.02111 0.27506 0.02096 0.0
C49 C 0.03546 0.28665 0.97876 0.0
C50 C 0.02173 0.28129 0.08356 0.0
C51 C 0.0249 0.30469 0.09688 0.0
C52 C 0.03746 0.31885 0.05599 0.0
C53 C 0.04443 0.30908 0.99685 0.0
H54 H 0.26982 0.08488 0.01759 0.0
H55 H 0.20927 0.08428 0.12823 0.0
H56 H 0.2182 0.0316 0.98772 0.0
C57 C 0.25236 0.07822 0.0247 0.0
C58 C 0.24527 0.05842 0.9915 0.0
C59 C 0.24146 0.08352 0.08086 0.0
C60 C 0.21811 0.07802 0.08678 0.0
C61 C 0.20921 0.0585 0.05567 0.0
C62 C 0.22343 0.04791 0.00842 0.0
H63 H 0.45396 0.27695 0.02787 0.0
H64 H 0.48974 0.21595 0.96357 0.0
H65 H 0.45602 0.21774 0.14394 0.0
C66 C 0.45788 0.25865 0.0321 0.0
C67 C 0.45435 0.24819 0.08957 0.0
C68 C 0.47087 0.24788 0.98544 0.0
C69 C 0.47872 0.22454 0.99714 0.0
C70 C 0.47177 0.21268 0.05379 0.0
C71 C 0.45904 0.22504 0.09788 0.0
C72 C 0.07391 0.02903 0.76939 0.0
C73 C 0.06001 0.03775 0.87391 0.0
C74 C 0.05606 0.02919 0.81309 0.0
C75 C 0.08212 0.04594 0.89033 0.0
C76 C 0.09627 0.03683 0.78638 0.0
C77 C 0.10023 0.04534 0.84684 0.0
N78 N 0.06971 0.02033 0.71139 0.0
C79 C 0.08739 0.01832 0.66913 0.0
C80 C 0.11422 0.03527 0.74267 0.0
C81 C 0.10976 0.02589 0.68393 0.0
Gd82 Gd 0.98624 0.03 0.587 0.0
Gd83 Gd 0.03239 1.00448 0.69615 0.0
N84 N 0.03493 0.02065 0.79653 0.0
C85 C 0.04174 0.03743 0.91692 0.0
C86 C 0.0176 0.01884 0.8398 0.0
C87 C 0.02047 0.02778 0.89984 0.0
H88 H 1.00176 0.00993 0.82928 0.0
H89 H 0.00645 0.02665 0.9334 0.0
H90 H 0.02059 0.0194 0.45802 0.0
H91 H 0.08475 0.00977 0.62512 0.0
H92 H 0.01715 0.99945 0.35878 0.0
H93 H 0.04405 0.04398 0.96389 0.0
H94 H 0.08548 0.05243 0.93691 0.0
H95 H 0.93635 0.01959 0.66232 0.0
H96 H 0.13167 0.0408 0.75425 0.0
H97 H 0.12369 0.024 0.65044 0.0
H98 H 0.93865 0.97258 0.35495 0.0
H99 H 0.11731 0.05129 0.86066 0.0
H100 H 0.89113 0.98511 0.5346 0.0
H101 H 0.89807 1.0031 0.63759 0.0
N102 N 0.95174 0.00913 0.5766 0.0
C103 C 0.94834 0.99946 0.51937 0.0
C104 C 0.93405 0.01053 0.61878 0.0
C105 C 0.90827 0.99159 0.54605 0.0
C106 C 0.91213 1.00163 0.60435 0.0
C107 C 0.92643 0.99036 0.50278 0.0
H108 H 0.90629 0.97415 0.42938 0.0
N109 N 0.98722 0.00953 0.49167 0.0
C110 C 0.96661 0.99922 0.47641 0.0
C111 C 0.9819 0.9887 0.37511 0.0
C112 C 0.96333 0.98903 0.4171 0.0
C113 C 1.00501 0.00997 0.44949 0.0
C114 C 1.00285 0.99909 0.39159 0.0
O115 O 0.02462 0.04254 0.71911 0.0
O116 O 0.00858 0.0586 0.63069 0.0
O117 O 0.97423 0.04987 0.50862 0.0
O118 O 0.95842 0.05457 0.59949 0.0
O119 O 0.99444 0.99713 0.7209 0.0
O120 O 0.97691 0.03039 0.69004 0.0
O121 O 0.98632 0.9905 0.60115 0.0
O122 O 0.02501 0.98547 0.60504 0.0
O123 O 0.02448 0.9724 0.74357 0.0
O124 O 0.06042 0.98106 0.71746 0.0
O125 O 0.02329 0.03944 0.5562 0.0
O126 O 0.04498 0.00984 0.5969 0.0
C127 C 0.01845 0.06077 0.68603 0.0
C128 C 0.97768 0.0123 0.72694 0.0
C129 C 0.95945 0.08654 0.5329 0.0
C130 C 0.9778 0.12141 0.49438 0.0
C131 C 0.94023 0.12344 0.54473 0.0
C132 C 0.94044 0.09951 0.55337 0.0
C133 C 0.95889 0.13444 0.51531 0.0
C134 C 0.97813 0.09759 0.50349 0.0
C135 C 0.95946 0.06155 0.54192 0.0
C136 C 0.94153 0.98 0.40075 0.0
C137 C 0.9231 0.98086 0.44318 0.0
H138 H 0.98008 0.98091 0.32936 0.0
C139 C 1.00437 0.97716 0.59181 0.0
C140 C 0.04263 0.02731 0.55822 0.0
C141 C 0.05408 0.94473 0.77 0.0
C142 C 0.04468 0.90937 0.82391 0.0
C143 C 0.08375 0.91589 0.78612 0.0
C144 C 0.07708 0.93738 0.76283 0.0
C145 C 0.06752 0.90176 0.81627 0.0
C146 C 0.03807 0.9308 0.80126 0.0
C147 C 0.04623 0.96639 0.74323 0.0
H148 H 0.92552 0.13342 0.56029 0.0
H149 H 0.9258 0.0911 0.57587 0.0
H150 H 0.95838 0.15296 0.50763 0.0
H151 H 0.99293 0.08777 0.48728 0.0
H152 H 0.10142 0.91015 0.78051 0.0
H153 H 0.08976 0.94804 0.73875 0.0
H154 H 0.07277 0.88511 0.83426 0.0
H155 H 0.02028 0.93636 0.80722 0.0
C156 C 0.50597 0.93912 0.58437 0.0
C157 C 0.47372 0.92174 0.64117 0.0
C158 C 0.48645 0.94149 0.62217 0.0
C159 C 0.48073 0.8997 0.62158 0.0
C160 C 0.51307 0.91692 0.56494 0.0
C161 C 0.50034 0.8973 0.58364 0.0
N162 N 0.51746 0.95848 0.56467 0.0
C163 C 0.5361 0.95673 0.52548 0.0
C164 C 0.53242 0.91509 0.52588 0.0
C165 C 0.544 0.93508 0.50623 0.0
Gd166 Gd 0.52409 0.04036 0.69933 0.0
Gd167 Gd 0.49913 0.99354 0.58914 0.0
N168 N 0.4798 0.96307 0.63991 0.0
C169 C 0.45406 0.92472 0.6786 0.0
C170 C 0.4602 0.96603 0.67474 0.0
C171 C 0.44731 0.94697 0.6955 0.0
H172 H 0.4539 0.98295 0.6851 0.0
H173 H 0.43184 0.94951 0.72327 0.0
H174 H 0.56633 0.04938 0.59033 0.0
H175 H 0.54418 0.97189 0.50583 0.0
H176 H 0.58828 0.08241 0.54993 0.0
H177 H 0.44381 0.90999 0.69396 0.0
H178 H 0.47101 0.88439 0.63522 0.0
H179 H 0.47788 0.06235 0.77708 0.0
H180 H 0.53831 0.89836 0.50971 0.0
H181 H 0.55863 0.93385 0.4747 0.0
H182 H 0.55233 0.14808 0.64455 0.0
H183 H 0.5054 0.88017 0.56851 0.0
H184 H 0.48588 0.13567 0.77426 0.0
H185 H 0.46455 0.10072 0.80897 0.0
N186 N 0.50481 0.07514 0.7181 0.0
C187 C 0.51654 0.09417 0.69729 0.0
C188 C 0.48619 0.07733 0.75717 0.0
C189 C 0.49114 0.11882 0.75743 0.0
C190 C 0.47898 0.09915 0.77691 0.0
C191 C 0.51017 0.11652 0.71734 0.0
H192 H 0.51892 0.15303 0.71435 0.0
N193 N 0.54192 0.06957 0.64023 0.0
C194 C 0.53557 0.09133 0.6576 0.0
C195 C 0.56745 0.10752 0.598 0.0
C196 C 0.54842 0.11084 0.63748 0.0
C197 C 0.56056 0.06632 0.60205 0.0
C198 C 0.57338 0.08518 0.57973 0.0
O199 O 0.51117 0.97769 0.68127 0.0
O200 O 0.51957 1.00683 0.75256 0.0
O201 O 0.55776 0.04815 0.73895 0.0
O202 O 0.52648 0.05509 0.79173 0.0
O203 O 0.47321 0.01823 0.63518 0.0
O204 O 0.48912 0.02613 0.7304 0.0
O205 O 0.50443 0.05371 0.61342 0.0
O206 O 0.51322 0.02596 0.54149 0.0
O207 O 0.4654 0.99602 0.54662 0.0
O208 O 0.49318 0.97791 0.49901 0.0
O209 O 0.55087 0.01544 0.65705 0.0
O210 O 0.5351 1.00614 0.56242 0.0
C211 C 0.51667 0.98483 0.73796 0.0
C212 C 0.4708 0.0239 0.69448 0.0
C213 C 0.56071 0.05081 0.84945 0.0
C214 C 0.59418 0.03722 0.90524 0.0
C215 C 0.56373 0.05698 0.96125 0.0
C216 C 0.5516 0.05953 0.9056 0.0
C217 C 0.58504 0.04588 0.96115 0.0
C218 C 0.58209 0.03956 0.84953 0.0
C219 C 0.54895 0.05599 0.79089 0.0
C220 C 0.54233 0.13299 0.65853 0.0
C221 C 0.52329 0.13581 0.69829 0.0
H222 H 0.57782 0.12206 0.58193 0.0
C223 C 0.50692 0.04722 0.55478 0.0
C224 C 0.55322 0.00792 0.59917 0.0
C225 C 0.46317 0.99296 0.43732 0.0
C226 C 0.42949 1.00208 0.37654 0.0
C227 C 0.46692 0.99933 0.32591 0.0
C228 C 0.47703 0.99416 0.38332 0.0
C229 C 0.44308 1.00309 0.32228 0.0
C230 C 0.43955 0.99721 0.43361 0.0
C231 C 0.47186 0.98475 0.49684 0.0
H232 H 0.55676 0.06388 1.00427 0.0
H233 H 0.53534 0.06875 0.90622 0.0
H234 H 0.59452 0.0442 1.00445 0.0
H235 H 0.58958 0.03301 0.8066 0.0
H236 H 0.47748 1.00014 0.28417 0.0
H237 H 0.49543 0.9907 0.38518 0.0
H238 H 0.4353 1.007 0.27765 0.0
H239 H 0.42872 0.99604 0.47505 0.0
C240 C 0.44946 0.50183 0.77282 0.0
C241 C 0.46327 0.49401 0.87751 0.0
C242 C 0.467 0.50323 0.81735 0.0
C243 C 0.44199 0.48331 0.89204 0.0
C244 C 0.42779 0.49186 0.78821 0.0
C245 C 0.42426 0.48242 0.84774 0.0
N246 N 0.45324 0.51105 0.71535 0.0
C247 C 0.43569 0.51241 0.67308 0.0
C248 C 0.41001 0.49234 0.74397 0.0
C249 C 0.41393 0.50287 0.68639 0.0
Gd250 Gd 0.5337 0.50401 0.59039 0.0
Gd251 Gd 0.48845 0.53054 0.70197 0.0
N252 N 0.48708 0.51473 0.8031 0.0
C253 C 0.48068 0.4966 0.92226 0.0
C254 C 0.50321 0.51886 0.84835 0.0
C255 C 0.50061 0.50929 0.90778 0.0
H256 H 0.51767 0.53029 0.84039 0.0
H257 H 0.51369 0.51233 0.943 0.0
H258 H 0.50346 0.51162 0.4593 0.0
H259 H 0.43801 0.52168 0.63006 0.0
H260 H 0.50849 0.52932 0.35624 0.0
H261 H 0.47848 0.48968 0.96886 0.0
H262 H 0.43884 0.47625 0.9381 0.0
H263 H 0.58514 0.51057 0.66537 0.0
H264 H 0.39302 0.48519 0.75444 0.0
H265 H 0.40006 0.5041 0.65272 0.0
H266 H 0.58663 0.55764 0.35865 0.0
H267 H 0.40771 0.47472 0.86034 0.0
H268 H 0.63192 0.54453 0.54106 0.0
H269 H 0.62381 0.52591 0.6424 0.0
N270 N 0.57 0.52274 0.58092 0.0
C271 C 0.57429 0.53254 0.52414 0.0
C272 C 0.58762 0.52016 0.62284 0.0
C273 C 0.61446 0.53873 0.55191 0.0
C274 C 0.60993 0.52832 0.60927 0.0
C275 C 0.59665 0.54081 0.50831 0.0
H276 H 0.61796 0.55623 0.43574 0.0
N277 N 0.53587 0.52326 0.49426 0.0
C278 C 0.55675 0.53288 0.47977 0.0
C279 C 0.54315 0.54137 0.37559 0.0
C280 C 0.56097 0.54206 0.41973 0.0
C281 C 0.51903 0.52117 0.44988 0.0
C282 C 0.52211 0.53075 0.3907 0.0
O283 O 0.48748 0.49045 0.69556 0.0
O284 O 0.52513 0.48109 0.6738 0.0
O285 O 0.52926 0.47674 0.52412 0.0
O286 O 0.56271 0.48165 0.56849 0.0
O287 O 0.52581 0.53658 0.73428 0.0
O288 O 0.54575 0.50595 0.69149 0.0
O289 O 0.52162 0.5407 0.56961 0.0
O290 O 0.51615 0.55577 0.66629 0.0
O291 O 0.47384 0.55266 0.77258 0.0
O292 O 0.46543 0.55842 0.67538 0.0
O293 O 0.49596 0.49471 0.56949 0.0
O294 O 0.47818 0.52802 0.59941 0.0
C295 C 0.5046 0.47533 0.69624 0.0
C296 C 0.54365 0.52242 0.73361 0.0
C297 C 0.55203 0.44399 0.53553 0.0
C298 C 0.54108 0.40787 0.48821 0.0
C299 C 0.57016 0.40843 0.56914 0.0
C300 C 0.56789 0.4325 0.57398 0.0
C301 C 0.55699 0.39606 0.52541 0.0
C302 C 0.53852 0.43149 0.49405 0.0
C303 C 0.5502 0.46899 0.53137 0.0
C304 C 0.58302 0.55079 0.40472 0.0
C305 C 0.60085 0.55002 0.44869 0.0
H306 H 0.54573 0.54828 0.32912 0.0
C307 C 0.52089 0.55875 0.60677 0.0
C308 C 0.47893 0.50957 0.56335 0.0
C309 C 0.46487 0.59078 0.74296 0.0
C310 C 0.47906 0.62357 0.80247 0.0
C311 C 0.4495 0.62911 0.7242 0.0
C312 C 0.44983 0.60547 0.71073 0.0
C313 C 0.46397 0.63816 0.77032 0.0
C314 C 0.47978 0.60003 0.78838 0.0
C315 C 0.46329 0.56575 0.7326 0.0
H316 H 0.58254 0.39948 0.598 0.0
H317 H 0.57872 0.44203 0.60638 0.0
H318 H 0.55933 0.37758 0.52009 0.0
H319 H 0.52674 0.44042 0.46295 0.0
H320 H 0.43774 0.64035 0.69963 0.0
H321 H 0.43804 0.59857 0.676 0.0
H322 H 0.4633 0.65646 0.7813 0.0
H323 H 0.49145 0.58897 0.81405 0.0
C324 C 0.02459 0.45389 0.76937 0.0
C325 C 0.03579 0.46839 0.87157 0.0
C326 C 0.02638 0.47217 0.81175 0.0
C327 C 0.04323 0.44621 0.88826 0.0
C328 C 0.03218 0.43162 0.78617 0.0
C329 C 0.04137 0.42788 0.8458 0.0
N330 N 0.01502 0.45773 0.71239 0.0
C331 C 0.01277 0.44016 0.67004 0.0
C332 C 0.02992 0.41358 0.74293 0.0
C333 C 0.02029 0.41791 0.68455 0.0
Gd334 Gd 0.0244 0.54052 0.59296 0.0
Gd335 Gd 0.99821 0.49418 0.7001 0.0
N336 N 0.01838 0.49341 0.7952 0.0
C337 C 0.03683 0.48686 0.91374 0.0
C338 C 0.01807 0.51096 0.83788 0.0
C339 C 0.02782 0.50821 0.89686 0.0
H340 H 0.00919 0.52668 0.8289 0.0
H341 H 0.02756 0.52233 0.93009 0.0
H342 H 0.01777 0.50948 0.4613 0.0
H343 H 1.00408 0.44284 0.62625 0.0
H344 H 0.99888 0.51298 0.3598 0.0
H345 H 0.04387 0.48461 0.96011 0.0
H346 H 0.05019 0.44298 0.93427 0.0
H347 H 0.0171 0.59145 0.66708 0.0
H348 H 0.03535 0.3962 0.75438 0.0
H349 H 0.01813 0.40397 0.65123 0.0
H350 H 0.96961 0.59016 0.36079 0.0
H351 H 0.04698 0.41081 0.85972 0.0
H352 H 0.98245 0.63683 0.54207 0.0
H353 H 1.00095 0.62965 0.64393 0.0
N354 N 1.00603 0.57625 0.58155 0.0
C355 C 0.99601 0.57983 0.52502 0.0
C356 C 0.00788 0.59382 0.62399 0.0
C357 C 0.98881 0.61971 0.55281 0.0
C358 C 0.99916 0.61571 0.61046 0.0
C359 C 0.98718 0.60173 0.50918 0.0
H360 H 0.97095 0.622 0.43678 0.0
N361 N 1.00492 0.54107 0.49709 0.0
C362 C 0.99528 0.56174 0.48188 0.0
C363 C 0.98625 0.54723 0.37876 0.0
C364 C 0.98571 0.56532 0.42217 0.0
C365 C 0.00709 0.52417 0.45308 0.0
C366 C 0.9972 0.52663 0.39415 0.0
O367 O 0.03815 0.49407 0.69739 0.0
O368 O 0.04849 0.53144 0.67298 0.0
O369 O 0.05035 0.53975 0.5207 0.0
O370 O 0.04761 0.56988 0.58027 0.0
O371 O 0.99096 0.5323 0.72515 0.0
O372 O 0.02403 0.55105 0.69436 0.0
O373 O 0.98451 0.5405 0.60027 0.0
O374 O 0.97582 0.50222 0.61565 0.0
O375 O 0.97082 0.49787 0.76844 0.0
O376 O 0.97537 0.46522 0.72031 0.0
O377 O 0.03205 0.50241 0.56791 0.0
O378 O 0.99916 0.48309 0.59841 0.0
C379 C 0.05362 0.51107 0.69646 0.0
C380 C 1.00564 0.54989 0.73032 0.0
C381 C 0.08452 0.56119 0.53862 0.0
C382 C 0.12112 0.54995 0.49326 0.0
C383 C 0.12023 0.57989 0.57228 0.0
C384 C 0.09614 0.57749 0.5763 0.0
C385 C 0.13274 0.56631 0.53029 0.0
C386 C 0.09722 0.54732 0.49788 0.0
C387 C 0.0592 0.55976 0.53616 0.0
C388 C 0.97677 0.58707 0.40665 0.0
C389 C 0.97757 0.60522 0.44992 0.0
H390 H 0.97915 0.54934 0.33242 0.0
C391 C 0.96989 0.52289 0.59595 0.0
C392 C 0.01758 0.48466 0.5624 0.0
C393 C 0.93867 0.47167 0.76697 0.0
C394 C 0.90205 0.48055 0.81729 0.0
C395 C 0.90683 0.44393 0.76349 0.0
C396 C 0.9296 0.45008 0.74841 0.0
C397 C 0.8931 0.45902 0.79813 0.0
C398 C 0.92467 0.48692 0.80055 0.0
C399 C 0.96358 0.47657 0.76166 0.0
H400 H 0.12916 0.59256 0.60086 0.0
H401 H 0.08666 0.58863 0.60779 0.0
H402 H 0.15135 0.56856 0.52653 0.0
H403 H 0.08845 0.53503 0.4675 0.0
H404 H 0.90005 0.42714 0.75001 0.0
H405 H 0.94031 0.43765 0.72412 0.0
H406 H 0.87581 0.45355 0.81169 0.0
H407 H 0.93165 0.50344 0.816 0.0
H408 H 0.16665 0.07793 0.06785 0.0
H409 H 0.13897 0.07078 0.1519 0.0
H410 H 0.17617 0.00933 0.20309 0.0
H411 H 0.20488 0.01749 0.12097 0.0
H412 H 0.10886 0.04267 0.18931 0.0
H413 H 0.17745 0.03801 0.36846 0.0
H414 H 0.18386 0.04523 0.28855 0.0
H415 H 0.17995 0.01544 0.31157 0.0
C416 C 0.16848 0.06235 0.09539 0.0
C417 C 0.18797 0.04812 0.08633 0.0
C418 C 0.15272 0.05842 0.14456 0.0
C419 C 0.15559 0.03993 0.18649 0.0
C420 C 0.17379 0.02434 0.17382 0.0
H421 H 0.07613 0.99663 0.51946 0.0
H422 H 0.10339 1.00019 0.43247 0.0
C423 C 0.1899 0.02855 0.1251 0.0
C424 C 0.1398 0.03762 0.24331 0.0
H425 H 0.13908 0.03033 0.40263 0.0
C426 C 0.11566 0.04007 0.23581 0.0
C427 C 0.14819 0.03437 0.30511 0.0
C428 C 0.17377 0.03335 0.31914 0.0
C429 C 0.1 0.03907 0.28677 0.0
C430 C 0.10837 0.03561 0.34819 0.0
C431 C 0.13243 0.03296 0.35595 0.0
C432 C 0.09242 0.0343 0.40444 0.0
C433 C 0.07443 0.04128 0.27395 0.0
C434 C 0.07727 0.05249 0.41993 0.0
C435 C 0.06155 0.05054 0.47031 0.0
C436 C 0.06064 0.03044 0.50744 0.0
C437 C 0.07634 0.01257 0.49298 0.0
C438 C 0.092 0.01452 0.44264 0.0
H439 H 0.0703 0.03783 0.22421 0.0
H440 H 0.06413 0.02918 0.3034 0.0
H441 H 0.06893 0.05919 0.2849 0.0
H442 H 0.07747 0.06825 0.39276 0.0
H443 H 0.04992 0.06473 0.47982 0.0
H444 H 0.44356 0.17626 0.08249 0.0
H445 H 0.44981 0.14901 0.16683 0.0
H446 H 0.52228 0.16775 0.16918 0.0
H447 H 0.51521 0.19718 0.08928 0.0
H448 H 0.46686 0.11423 0.20189 0.0
H449 H 0.51534 0.17732 0.34487 0.0
H450 H 0.50283 0.18531 0.27141 0.0
H451 H 0.531 0.17187 0.27437 0.0
C452 C 0.4611 0.17402 0.09918 0.0
C453 C 0.47887 0.18907 0.0776 0.0
C454 C 0.46466 0.15848 0.14891 0.0
C455 C 0.48642 0.15653 0.1782 0.0
C456 C 0.50491 0.16946 0.15126 0.0
H457 H 0.5355 0.05546 0.45442 0.0
H458 H 0.53004 0.08249 0.36717 0.0
C459 C 0.5011 0.1858 0.10304 0.0
C460 C 0.48932 0.1414 0.23658 0.0
H461 H 0.51586 0.13824 0.38038 0.0
C462 C 0.4775 0.11986 0.24067 0.0
C463 C 0.50261 0.14826 0.28978 0.0
C464 C 0.51339 0.17206 0.29527 0.0
C465 C 0.47916 0.10522 0.29367 0.0
C466 C 0.49363 0.11148 0.3443 0.0
C467 C 0.50514 0.13301 0.34127 0.0
C468 C 0.49725 0.09568 0.3999 0.0
C469 C 0.46534 0.08296 0.29552 0.0
C470 C 0.48095 0.09413 0.44895 0.0
C471 C 0.48435 0.07897 0.49991 0.0
C472 C 0.50386 0.06447 0.50267 0.0
C473 C 0.52016 0.06613 0.45374 0.0
C474 C 0.51706 0.08167 0.40368 0.0
H475 H 0.45591 0.07963 0.25129 0.0
H476 H 0.47694 0.06816 0.30513 0.0
H477 H 0.45252 0.08378 0.33418 0.0
H478 H 0.46548 0.10459 0.4477 0.0
H479 H 0.47135 0.07812 0.5364 0.0
H480 H 0.35821 0.46307 0.05934 0.0
H481 H 0.38674 0.46934 0.14235 0.0
H482 H 0.34531 0.52468 0.21616 0.0
H483 H 0.31668 0.51822 0.13334 0.0
H484 H 0.41476 0.50407 0.18938 0.0
H485 H 0.34801 0.48179 0.36585 0.0
H486 H 0.34368 0.47713 0.28347 0.0
H487 H 0.34 0.50549 0.31658 0.0
C488 C 0.35576 0.47743 0.09116 0.0
C489 C 0.3353 0.49063 0.08766 0.0
C490 C 0.37196 0.48072 0.13978 0.0
C491 C 0.36818 0.49713 0.18739 0.0
C492 C 0.34866 0.51151 0.18139 0.0
H493 H 0.444 0.53921 0.52666 0.0
H494 H 0.41732 0.53542 0.43834 0.0
C495 C 0.33249 0.50827 0.13258 0.0
C496 C 0.38395 0.49841 0.24417 0.0
H497 H 0.38423 0.49508 0.40454 0.0
C498 C 0.40797 0.50205 0.23627 0.0
C499 C 0.37555 0.49543 0.30618 0.0
C500 C 0.35046 0.4895 0.31882 0.0
C501 C 0.42338 0.50347 0.2877 0.0
C502 C 0.41487 0.50106 0.34954 0.0
C503 C 0.39093 0.49719 0.35758 0.0
C504 C 0.43059 0.50265 0.40603 0.0
C505 C 0.44877 0.50801 0.27576 0.0
C506 C 0.44689 0.48531 0.41918 0.0
C507 C 0.46197 0.48719 0.47081 0.0
C508 C 0.46154 0.50666 0.51077 0.0
C509 C 0.44496 0.52385 0.49783 0.0
C510 C 0.42964 0.52176 0.44681 0.0
H511 H 0.45226 0.51284 0.22647 0.0
H512 H 0.45522 0.5221 0.30663 0.0
H513 H 0.45874 0.4922 0.28669 0.0
H514 H 0.44803 0.47025 0.38922 0.0
H515 H 0.47435 0.47353 0.47863 0.0
H516 H 0.07255 0.327 0.13863 0.0
H517 H 0.07124 0.35543 0.22337 0.0
H518 H 0.01506 0.38998 0.13151 0.0
H519 H 0.01573 0.36084 0.04826 0.0
H520 H 0.07489 0.39955 0.24943 0.0
H521 H 0.98303 0.37688 0.2909 0.0
H522 H 1.00056 0.36153 0.23514 0.0
H523 H 0.98753 0.38871 0.21464 0.0
C524 C 0.06069 0.34135 0.13464 0.0
C525 C 0.04461 0.34169 0.08495 0.0
C526 C 0.05959 0.35747 0.1843 0.0
C527 C 0.04239 0.37466 0.18629 0.0
C528 C 0.02796 0.37653 0.13342 0.0
H529 H 0.98964 0.47465 0.46224 0.0
H530 H 0.99709 0.44878 0.37414 0.0
C531 C 0.02886 0.3602 0.08418 0.0
C532 C 0.03896 0.38974 0.24424 0.0
H533 H 0.99798 0.40826 0.34932 0.0
C534 C 0.05802 0.40147 0.27107 0.0
C535 C 0.01713 0.3922 0.27445 0.0
C536 C 0.99596 0.37898 0.25279 0.0
C537 C 0.05577 0.41618 0.32405 0.0
C538 C 0.03374 0.41913 0.35351 0.0
C539 C 0.01486 0.40679 0.32746 0.0
C540 C 0.02947 0.43525 0.40937 0.0
C541 C 0.07719 0.42891 0.34593 0.0
C542 C 0.04462 0.43669 0.46115 0.0
C543 C 0.04094 0.45269 0.51025 0.0
C544 C 0.02126 0.46692 0.51146 0.0
C545 C 1.00519 0.46428 0.46261 0.0
C546 C 0.00946 0.44921 0.41197 0.0
H547 H 0.0903 0.43054 0.30811 0.0
H548 H 0.07305 0.44654 0.36296 0.0
H549 H 0.0853 0.41899 0.38424 0.0
H550 H 0.05939 0.4254 0.46419 0.0
H551 H 0.05335 0.45367 0.54798 0.0
H552 H 0.85271 0.95166 0.20718 0.0
H553 H 0.88044 0.95953 0.12323 0.0
H554 H 0.84663 0.02405 0.08525 0.0
H555 H 0.8183 0.01598 0.16905 0.0
H556 H 0.8549 0.98909 0.97461 0.0
H557 H 0.93438 0.01013 0.11054 0.0
H558 H 0.91585 0.9869 0.13716 0.0
H559 H 0.90574 0.01611 0.14065 0.0
C560 C 0.85158 0.96798 0.18262 0.0
C561 C 0.83328 0.98334 0.19633 0.0
C562 C 0.86742 0.97235 0.13387 0.0
C563 C 0.86581 0.99239 0.09714 0.0
C564 C 0.84834 0.0084 0.11246 0.0
H565 H 0.9536 0.04581 0.79111 0.0
H566 H 0.92634 0.04086 0.87862 0.0
C567 C 0.83235 1.00398 0.16142 0.0
C568 C 0.88178 0.99591 0.04167 0.0
H569 H 0.93843 1.0073 1.00142 0.0
C570 C 0.87311 0.99323 0.98065 0.0
C571 C 0.90574 1.0009 0.04871 0.0
C572 C 0.91616 1.00379 0.11262 0.0
C573 C 0.88765 0.99534 0.92737 0.0
C574 C 0.91153 1.00062 0.93453 0.0
C575 C 0.92018 1.00335 0.99543 0.0
C576 C 0.92772 1.0035 0.87943 0.0
C577 C 0.8775 0.9918 0.86336 0.0
C578 C 0.9378 0.98421 0.85002 0.0
C579 C 0.95374 0.98704 0.80041 0.0
C580 C 0.9598 0.00922 0.77792 0.0
C581 C 0.94928 0.02846 0.80655 0.0
C582 C 0.93369 0.02565 0.85693 0.0
H583 H 0.85842 0.98908 0.86486 0.0
H584 H 0.88149 1.00702 0.83352 0.0
H585 H 0.88557 0.97648 0.84111 0.0
H586 H 0.93357 0.96692 0.86601 0.0
H587 H 0.96134 0.97179 0.77953 0.0
H588 H 0.51058 0.81958 0.16145 0.0
H589 H 0.50328 0.84799 0.07853 0.0
H590 H 0.56138 0.88886 0.14196 0.0
H591 H 0.56869 0.86053 0.22415 0.0
H592 H 0.49445 0.89476 0.0667 0.0
H593 H 0.58025 0.87661 0.96308 0.0
H594 H 0.56803 0.85926 0.02501 0.0
H595 H 0.58235 0.8863 0.0424 0.0
C596 C 0.5211 0.83518 0.15963 0.0
C597 C 0.53987 0.83794 0.20104 0.0
C598 C 0.51719 0.85129 0.11122 0.0
C599 C 0.53213 0.87048 0.10218 0.0
C600 C 0.54983 0.87408 0.14629 0.0
H601 H 0.54194 0.98854 0.84636 0.0
H602 H 0.54551 0.96044 0.93147 0.0
C603 C 0.55368 0.85808 0.19457 0.0
C604 C 0.52986 0.88622 0.04599 0.0
H605 H 0.56017 0.90902 0.92172 0.0
C606 C 0.50882 0.89769 0.03493 0.0
C607 C 0.54841 0.89013 1.00326 0.0
C608 C 0.57095 0.87725 0.0085 0.0
C609 C 0.50615 0.91329 0.9845 0.0
C610 C 0.5249 0.91768 0.94315 0.0
C611 C 0.5458 0.90597 0.95344 0.0
C612 C 0.52317 0.93456 0.88964 0.0
C613 C 0.48339 0.92548 0.97639 0.0
C614 C 0.50977 0.92945 0.83653 0.0
C615 C 0.50801 0.94542 0.78706 0.0
C616 C 0.51927 0.96718 0.78941 0.0
C617 C 0.5328 0.97214 0.8426 0.0
C618 C 0.53491 0.956 0.89152 0.0
H619 H 0.4716 0.92279 0.01683 0.0
H620 H 0.48635 0.94435 0.96999 0.0
H621 H 0.47467 0.91882 0.93383 0.0
H622 H 0.50061 0.91305 0.83325 0.0
H623 H 0.49742 0.94081 0.7476 0.0
H624 H 0.7162 0.55343 0.10504 0.0
H625 H 0.68676 0.54577 0.02828 0.0
H626 H 0.63773 0.5299 0.1742 0.0
H627 H 0.66778 0.53825 0.25347 0.0
H628 H 0.66205 0.50917 0.99455 0.0
H629 H 0.60126 0.57709 0.07485 0.0
H630 H 0.63087 0.57581 0.10145 0.0
H631 H 0.60942 0.55632 0.13288 0.0
C632 C 0.69944 0.54776 0.12191 0.0
C633 C 0.69485 0.54629 0.18674 0.0
C634 C 0.68232 0.54354 0.07705 0.0
C635 C 0.65961 0.53757 0.09431 0.0
C636 C 0.6549 0.535 0.15888 0.0
H637 H 0.54789 0.49448 0.83593 0.0
H638 H 0.57537 0.49799 0.9231 0.0
C639 C 0.67228 0.53935 0.20451 0.0
C640 C 0.6415 0.53429 0.04366 0.0
H641 H 0.58996 0.55507 0.98723 0.0
C642 C 0.64621 0.51912 0.99361 0.0
C643 C 0.6209 0.54755 0.04054 0.0
C644 C 0.61527 0.56528 0.08985 0.0
C645 C 0.63111 0.51672 0.942 0.0
C646 C 0.61046 0.52973 0.93939 0.0
C647 C 0.60566 0.54493 0.98907 0.0
C648 C 0.59374 0.52762 0.88553 0.0
C649 C 0.63747 0.50055 0.88956 0.0
C650 C 0.59473 0.54299 0.83458 0.0
C651 C 0.57863 0.54129 0.78517 0.0
C652 C 0.56129 0.52399 0.78499 0.0
C653 C 0.56082 0.50816 0.83488 0.0
C654 C 0.57659 0.51014 0.8848 0.0
H655 H 0.65403 0.49147 0.89831 0.0
H656 H 0.62349 0.48746 0.88299 0.0
H657 H 0.63908 0.51048 0.84544 0.0
H658 H 0.60794 0.55642 0.83316 0.0
H659 H 0.57979 0.55347 0.74691 0.0
H660 H 0.94836 0.67558 0.21054 0.0
H661 H 0.95551 0.64794 0.12631 0.0
H662 H 0.02126 0.68078 0.0888 0.0
H663 H 0.01381 0.70926 0.17247 0.0
H664 H 0.97587 0.67008 0.98082 0.0
H665 H 0.01727 0.59779 0.10919 0.0
H666 H 0.99522 0.61519 0.14585 0.0
H667 H 0.02326 0.62751 0.1308 0.0
C668 C 0.96474 0.67662 0.18582 0.0
C669 C 0.98058 0.69478 0.19949 0.0
C670 C 0.96868 0.66083 0.13689 0.0
C671 C 0.98882 0.66221 0.10018 0.0
C672 C 1.00546 0.67932 0.11589 0.0
H673 H 0.03879 0.57749 0.78586 0.0
H674 H 0.03443 0.60472 0.87301 0.0
C675 C 1.00138 0.69541 0.16474 0.0
C676 C 0.99179 0.64633 0.04448 0.0
H677 H 0.01089 0.59241 1.00164 0.0
C678 C 0.98363 0.65316 0.98545 0.0
C679 C 1.00155 0.62401 0.04993 0.0
C680 C 0.00988 0.61545 0.11217 0.0
C681 C 0.98515 0.63845 0.93246 0.0
C682 C 0.99511 0.61619 0.93789 0.0
C683 C 1.0033 0.60941 0.99687 0.0
C684 C 0.99744 0.59987 0.88289 0.0
C685 C 0.97627 0.64684 0.87053 0.0
C686 C 0.97815 0.5878 0.85848 0.0
C687 C 0.98065 0.57183 0.80888 0.0
C688 C 1.00248 0.56773 0.78138 0.0
C689 C 0.02166 0.58021 0.80515 0.0
C690 C 0.01921 0.59581 0.85541 0.0
H691 H 0.97121 0.66534 0.87209 0.0
H692 H 0.98971 0.64453 0.83391 0.0
H693 H 0.96091 0.63633 0.85679 0.0
H694 H 0.96112 0.59044 0.87852 0.0
H695 H 0.96546 0.56266 0.79207 0.0
H696 H 0.03592 0.28808 0.20672 0.0
H697 H 0.04952 0.25977 0.2788 0.0
H698 H 0.04088 0.2061 0.14116 0.0
H699 H 0.02768 0.23358 0.06716 0.0
H700 H 0.01206 0.22909 0.29275 0.0
H701 H 0.09371 0.18106 0.25165 0.0
H702 H 0.08929 0.21027 0.22392 0.0
H703 H 0.07648 0.18614 0.18342 0.0
C704 C 0.03672 0.27047 0.1902 0.0
C705 C 0.02906 0.26364 0.13027 0.0
C706 C 0.04545 0.25437 0.23161 0.0
C707 C 0.04634 0.23104 0.21485 0.0
C708 C 0.04067 0.22421 0.15442 0.0
H709 H 0.99032 0.11242 0.3754 0.0
H710 H 0.01577 0.13647 0.31017 0.0
C711 C 0.0321 0.24022 0.11263 0.0
C712 C 0.0443 0.21378 0.26386 0.0
H713 H 0.0645 0.162 0.31498 0.0
C714 C 0.02391 0.21478 0.29907 0.0
C715 C 0.0593 0.19477 0.26906 0.0
C716 C 0.08103 0.193 0.23024 0.0
C717 C 0.01762 0.19689 0.33857 0.0
C718 C 0.03277 0.17801 0.34512 0.0
C719 C 0.05337 0.17692 0.31046 0.0
C720 C 0.02611 0.15901 0.38603 0.0
C721 C 0.99423 0.19783 0.37056 0.0
C722 C 0.02458 0.16338 0.45017 0.0
C723 C 0.00955 0.15027 0.48675 0.0
C724 C 0.99657 0.13242 0.45942 0.0
C725 C 1.00023 0.12631 0.39682 0.0
C726 C 0.01495 0.13971 0.35994 0.0
H727 H 0.98302 0.21154 0.35094 0.0
H728 H 0.98495 0.181 0.36617 0.0
H729 H 0.99668 0.20152 0.4209 0.0
H730 H 0.03298 0.17847 0.47033 0.0
H731 H 0.00702 0.15489 0.53528 0.0
H732 H 0.2482 0.03989 0.11765 0.0
H733 H 0.2742 0.02602 0.19623 0.0
H734 H 0.29157 0.09638 0.24707 0.0
H735 H 0.26575 0.11074 0.16425 0.0
H736 H 0.32832 0.06927 0.21404 0.0
H737 H 0.27323 0.02027 0.38153 0.0
H738 H 0.26821 0.01266 0.30169 0.0
H739 H 0.26145 0.04137 0.32842 0.0
C740 C 0.25706 0.05255 0.14638 0.0
C741 C 0.25502 0.07647 0.13524 0.0
C742 C 0.27167 0.04451 0.192 0.0
C743 C 0.28406 0.06018 0.22875 0.0
C744 C 0.28157 0.08415 0.21958 0.0
H745 H 0.40736 0.03721 0.43273 0.0
H746 H 0.36708 0.04849 0.41598 0.0
C747 C 0.26705 0.09232 0.17258 0.0
C748 C 0.30246 0.05117 0.2683 0.0
H749 H 0.314 0.01112 0.38047 0.0
C750 C 0.32519 0.05708 0.25165 0.0
C751 C 0.29812 0.03441 0.31508 0.0
C752 C 0.27388 0.02693 0.33298 0.0
C753 C 0.34389 0.04644 0.28009 0.0
C754 C 0.33957 0.03012 0.32775 0.0
C755 C 0.31693 0.02408 0.34471 0.0
C756 C 0.359 0.01889 0.35783 0.0
C757 C 0.36815 0.05216 0.25761 0.0
C758 C 0.36692 0.99796 0.33309 0.0
C759 C 0.38995 0.99183 0.34128 0.0
C760 C 0.40476 1.00654 0.37479 0.0
C761 C 0.39604 0.02598 0.40575 0.0
C762 C 0.37311 0.03218 0.39725 0.0
H763 H 0.36812 0.06187 0.21294 0.0
H764 H 0.37712 0.06292 0.29317 0.0
H765 H 0.37836 0.03615 0.25087 0.0
H766 H 0.35605 0.98766 0.30246 0.0
H767 H 0.3965 0.97637 0.31892 0.0
H768 H 0.49443 0.25421 0.14678 0.0
H769 H 0.50518 0.28736 0.21107 0.0
H770 H 0.434 0.30966 0.213 0.0
H771 H 0.42313 0.27658 0.14611 0.0
H772 H 0.48148 0.33979 0.15857 0.0
H773 H 0.47806 0.3046 0.40107 0.0
H774 H 0.4877 0.28709 0.33652 0.0
H775 H 0.4577 0.29444 0.34302 0.0
C776 C 0.48093 0.26568 0.16325 0.0
C777 C 0.45792 0.26306 0.143 0.0
C778 C 0.48714 0.2846 0.19888 0.0
C779 C 0.47026 0.3006 0.21525 0.0
C780 C 0.44699 0.29718 0.19947 0.0
H781 H 0.49478 0.40607 0.47448 0.0
H782 H 0.47359 0.39045 0.38499 0.0
C783 C 0.44077 0.27838 0.16254 0.0
C784 C 0.47738 0.32166 0.24589 0.0
H785 H 0.49009 0.343 0.38842 0.0
C786 C 0.48297 0.34092 0.20893 0.0
C787 C 0.47991 0.32215 0.31082 0.0
C788 C 0.4756 0.30101 0.35059 0.0
C789 C 0.49117 0.36127 0.23653 0.0
C790 C 0.49321 0.36188 0.30183 0.0
C791 C 0.48751 0.34251 0.3383 0.0
C792 C 0.50458 0.38063 0.33476 0.0
C793 C 0.4982 0.38154 0.19635 0.0
C794 C 0.52883 0.38096 0.33388 0.0
C795 C 0.54084 0.38911 0.38546 0.0
C796 C 0.52855 0.39702 0.43745 0.0
C797 C 0.50435 0.39889 0.4355 0.0
C798 C 0.49237 0.39092 0.38383 0.0
H799 H 0.49096 0.38008 0.14853 0.0
H800 H 0.49244 0.39805 0.21772 0.0
H801 H 0.51738 0.3822 0.19258 0.0
H802 H 0.53836 0.37282 0.29626 0.0
H803 H 0.55961 0.38896 0.38525 0.0
H804 H 0.25139 0.42379 0.1384 0.0
H805 H 0.21888 0.43415 0.20809 0.0
H806 H 0.24328 0.50491 0.21251 0.0
H807 H 0.27561 0.49478 0.14557 0.0
H808 H 0.22658 0.47117 0.33606 0.0
H809 H 0.16992 0.49315 0.1348 0.0
H810 H 0.19217 0.47138 0.12886 0.0
H811 H 0.20008 0.5014 0.1326 0.0
C812 C 0.25013 0.44124 0.15649 0.0
C813 C 0.26611 0.45833 0.13845 0.0
C814 C 0.23159 0.44718 0.19509 0.0
C815 C 0.22891 0.47024 0.21397 0.0
C816 C 0.24533 0.48705 0.19806 0.0
H817 H 0.1442 0.56605 0.3926 0.0
H818 H 0.16583 0.54316 0.31596 0.0
C819 C 0.26391 0.48113 0.16082 0.0
C820 C 0.20883 0.47738 0.24987 0.0
H821 H 0.15704 0.50456 0.23559 0.0
C822 C 0.21101 0.47787 0.31462 0.0
C823 C 0.18934 0.48699 0.22039 0.0
C824 C 0.18756 0.48824 0.15026 0.0
C825 C 0.19416 0.48832 0.35146 0.0
C826 C 0.17432 0.49751 0.32236 0.0
C827 C 0.172 0.49676 0.25738 0.0
C828 C 0.15733 0.51028 0.35899 0.0
C829 C 0.19845 0.49075 0.42067 0.0
C830 C 0.14489 0.49905 0.40641 0.0
C831 C 0.13293 0.51205 0.45034 0.0
C832 C 0.13341 0.53627 0.44682 0.0
C833 C 0.14449 0.54737 0.39688 0.0
C834 C 0.15637 0.53437 0.35281 0.0
H835 H 0.21685 0.4876 0.43285 0.0
H836 H 0.19378 0.50832 0.43732 0.0
H837 H 0.18756 0.47796 0.44613 0.0
H838 H 0.14543 0.48039 0.41112 0.0
H839 H 0.1239 0.5033 0.48804 0.0
H840 H 0.95956 0.74008 0.10599 0.0
H841 H 0.97518 0.76857 0.03544 0.0
H842 H 0.95586 0.82323 0.16127 0.0
H843 H 0.93858 0.79535 0.23191 0.0
H844 H 0.94598 0.81097 0.99363 0.0
H845 H 0.03058 0.82868 0.11039 0.0
H846 H 0.016 0.80094 0.1154 0.0
H847 H 1.00532 0.82506 0.15923 0.0
C848 C 0.95783 0.75804 0.11926 0.0
C849 C 0.94816 0.76493 0.1772 0.0
C850 C 0.96735 0.77426 0.07879 0.0
C851 C 0.96732 0.79761 0.09498 0.0
C852 C 0.95651 0.80499 0.14964 0.0
H853 H 0.021 0.92089 0.92795 0.0
H854 H 0.99613 0.89512 0.99012 0.0
C855 C 0.9465 0.78888 0.18971 0.0
C856 C 0.97624 0.81468 0.05132 0.0
H857 H 0.02045 0.85271 0.02639 0.0
C858 C 0.96225 0.82017 1.00042 0.0
C859 C 0.99751 0.82623 0.06126 0.0
C860 C 0.01339 0.81995 0.11428 0.0
C861 C 0.96878 0.83764 0.95914 0.0
C862 C 0.98984 0.84945 0.96944 0.0
C863 C 1.00403 0.84374 0.02001 0.0
C864 C 0.99882 0.86644 0.92552 0.0
C865 C 0.95314 0.8435 0.90539 0.0
C866 C 0.00765 0.85873 0.86836 0.0
C867 C 0.0221 0.87313 0.83376 0.0
C868 C 0.02757 0.89522 0.85629 0.0
C869 C 0.01709 0.90365 0.91076 0.0
C870 C 1.00283 0.88916 0.94569 0.0
H871 H 0.93545 0.83611 0.91168 0.0
H872 H 0.95185 0.86255 0.89993 0.0
H873 H 0.96055 0.83635 0.86168 0.0
H874 H 1.00474 0.84108 0.85285 0.0
H875 H 0.0297 0.86677 0.79083 0.0
H876 H 0.73586 0.93037 0.20321 0.0
H877 H 0.70664 0.94609 0.13223 0.0
H878 H 0.75839 0.99051 0.04874 0.0
H879 H 0.78734 0.9754 0.11727 0.0
H880 H 0.69945 1.00001 0.12324 0.0
H881 H 0.7238 0.95441 0.90334 0.0
H882 H 0.73007 0.94262 0.97942 0.0
H883 H 0.74648 0.96682 0.95056 0.0
C884 C 0.74116 0.94285 0.16821 0.0
C885 C 0.76408 0.95132 0.16621 0.0
C886 C 0.72446 0.95201 0.12855 0.0
C887 C 0.73065 0.96939 0.08602 0.0
C888 C 0.75354 0.97692 0.08119 0.0
H889 H 0.63581 0.05676 0.87918 0.0
H890 H 0.67359 0.04084 0.909 0.0
C891 C 0.77016 0.96783 0.12021 0.0
C892 C 0.71324 0.98016 0.0467 0.0
H893 H 0.69349 0.98156 0.89734 0.0
C894 C 0.6981 0.9961 0.07386 0.0
C895 C 0.71228 0.97536 0.98227 0.0
C896 C 0.72893 0.95881 0.95182 0.0
C897 C 0.68119 1.00681 0.03787 0.0
C898 C 0.67946 1.00102 0.97401 0.0
C899 C 0.69514 0.98581 0.94642 0.0
C900 C 0.65918 0.00798 0.93872 0.0
C901 C 0.66466 0.02356 0.06834 0.0
C902 C 0.63924 0.9941 0.94302 0.0
C903 C 0.6179 1.00314 0.92684 0.0
C904 C 0.61659 0.02597 0.90585 0.0
C905 C 0.63679 0.03906 0.89545 0.0
C906 C 0.6582 0.03003 0.91208 0.0
H907 H 0.66938 0.02739 0.1175 0.0
H908 H 0.66443 0.04006 0.0419 0.0
H909 H 0.64681 0.01623 0.06748 0.0
H910 H 0.63994 0.97707 0.96402 0.0
H911 H 0.60231 0.99298 0.935 0.0
H912 H 0.53384 0.7781 0.16448 0.0
H913 H 0.52143 0.74677 0.0981 0.0
H914 H 0.59238 0.72462 0.07793 0.0
H915 H 0.60494 0.75572 0.14981 0.0
H916 H 0.5294 0.73626 0.98421 0.0
H917 H 0.56094 0.66622 0.13852 0.0
H918 H 0.56006 0.69616 0.16232 0.0
H919 H 0.58327 0.686 0.11359 0.0
C920 C 0.54698 0.76693 0.14491 0.0
C921 C 0.57044 0.76936 0.1615 0.0
C922 C 0.53979 0.74891 0.10727 0.0
C923 C 0.55595 0.73322 0.08403 0.0
C924 C 0.57965 0.73633 0.09706 0.0
H925 H 0.523 0.63933 0.79199 0.0
H926 H 0.54418 0.6623 0.86994 0.0
C927 C 0.58688 0.75419 0.13685 0.0
C928 C 0.54731 0.71355 0.04719 0.0
H929 H 0.54433 0.65457 0.04184 0.0
C930 C 0.53278 0.71842 0.9967 0.0
C931 C 0.55103 0.69034 0.06537 0.0
C932 C 0.56445 0.68429 0.12331 0.0
C933 C 0.52207 0.70066 0.96326 0.0
C934 C 0.527 0.67754 0.97886 0.0
C935 C 0.54119 0.67248 0.0297 0.0
C936 C 0.51763 0.65874 0.94077 0.0
C937 C 0.50528 0.70665 0.91192 0.0
C938 C 0.49627 0.64866 0.95657 0.0
C939 C 0.48417 0.63579 0.91216 0.0
C940 C 0.4935 0.63299 0.85223 0.0
C941 C 0.51569 0.64146 0.83823 0.0
C942 C 0.52777 0.65433 0.88256 0.0
H943 H 0.50125 0.72542 0.91096 0.0
H944 H 0.51276 0.7017 0.86613 0.0
H945 H 0.48883 0.69679 0.91804 0.0
H946 H 0.48824 0.65221 1.0013 0.0
H947 H 0.46702 0.62919 0.92326 0.0
H948 H 0.78315 0.60997 0.20403 0.0
H949 H 0.81576 0.59818 0.13616 0.0
H950 H 0.77937 0.53489 0.09091 0.0
H951 H 0.74848 0.54542 0.15956 0.0
H952 H 0.82729 0.53115 0.13551 0.0
H953 H 0.8116 0.59029 0.93491 0.0
H954 H 0.81015 0.60145 0.01356 0.0
H955 H 0.78858 0.58131 0.98687 0.0
C956 C 0.78195 0.59399 0.17776 0.0
C957 C 0.76243 0.5795 0.18371 0.0
C958 C 0.80053 0.58718 0.13988 0.0
C959 C 0.79954 0.56588 0.10839 0.0
C960 C 0.78017 0.55154 0.11426 0.0
H961 H 0.85667 0.4923 0.80627 0.0
H962 H 0.8338 0.51542 0.87939 0.0
C963 C 0.76206 0.55807 0.15214 0.0
C964 C 0.81854 0.55765 0.06929 0.0
H965 H 0.83906 0.5609 0.92069 0.0
C966 C 0.83047 0.53797 0.0891 0.0
C967 C 0.82151 0.56608 1.0082 0.0
C968 C 0.80729 0.5859 0.98403 0.0
C969 C 0.84507 0.52606 0.04831 0.0
C970 C 0.84835 0.53476 0.98734 0.0
C971 C 0.83677 0.55471 0.96805 0.0
C972 C 0.86252 0.52239 0.94157 0.0
C973 C 0.85566 0.50358 0.06944 0.0
C974 C 0.88617 0.5192 0.95228 0.0
C975 C 0.89912 0.50583 0.91127 0.0
C976 C 0.88857 0.4957 0.85869 0.0
C977 C 0.86504 0.49965 0.84698 0.0
C978 C 0.85208 0.51296 0.88823 0.0
H979 H 0.84681 0.49649 0.11145 0.0
H980 H 0.85484 0.49034 0.03186 0.0
H981 H 0.87414 0.50659 0.08122 0.0
H982 H 0.89446 0.52666 0.99299 0.0
H983 H 0.91721 0.5029 0.92163 0.0
H984 H 0.01344 0.27774 0.86764 0.0
H985 H 0.01366 0.24012 0.81403 0.0
H986 H 0.07168 0.21912 0.92528 0.0
H987 H 0.07176 0.25686 0.97784 0.0
H988 H 0.04971 0.21106 0.74774 0.0
H989 H 0.01809 0.17125 0.9682 0.0
H990 H 0.01591 0.20192 0.95329 0.0
H991 H 0.04334 0.18967 0.97319 0.0
C992 C 0.02724 0.26576 0.87788 0.0
C993 C 0.04315 0.2711 0.9259 0.0
C994 C 0.027 0.24384 0.84812 0.0
C995 C 0.04237 0.22621 0.86598 0.0
C996 C 0.05939 0.23205 0.91049 0.0
H997 H 0.04523 0.07469 0.78771 0.0
H998 H 0.05141 0.11362 0.83033 0.0
C999 C 0.05987 0.25408 0.9395 0.0
C1000 C 0.03973 0.20161 0.8409 0.0
H1001 H 0.02405 0.14613 0.88298 0.0
C1002 C 0.04405 0.19693 0.77746 0.0
C1003 C 0.03255 0.18276 0.87909 0.0
C1004 C 0.02702 0.18647 0.94718 0.0
C1005 C 0.04164 0.17433 0.75169 0.0
C1006 C 0.03388 0.1555 0.78939 0.0
C1007 C 0.02984 0.16018 0.85319 0.0
C1008 C 0.02977 0.13111 0.76336 0.0
C1009 C 0.04822 0.17075 0.68427 0.0
C1010 C 0.0152 0.12709 0.71151 0.0
C1011 C 0.01173 0.10461 0.68658 0.0
C1012 C 0.02242 0.085 0.71284 0.0
C1013 C 0.03661 0.08897 0.76558 0.0
C1014 C 0.04018 0.1115 0.79032 0.0
H1015 H 0.0602 0.18456 0.66747 0.0
H1016 H 0.05666 0.15374 0.67728 0.0
H1017 H 0.03239 0.17126 0.65511 0.0
H1018 H 1.00621 0.14141 0.69031 0.0
H1019 H 1.00037 0.10261 0.6468 0.0
H1020 H 0.28475 0.03912 0.03417 0.0
H1021 H 0.32095 0.03347 0.9781 0.0
H1022 H 0.28635 0.04783 0.80462 0.0
H1023 H 0.25022 0.05541 0.86232 0.0
H1024 H 0.33868 1.00699 0.90191 0.0
H1025 H 0.33791 0.09038 0.77518 0.0
H1026 H 0.31664 0.08342 0.83403 0.0
H1027 H 0.31369 0.07219 0.75592 0.0
C1028 C 0.2846 0.04048 0.98379 0.0
C1029 C 0.26418 0.04731 0.95302 0.0
C1030 C 0.3056 0.03746 0.95143 0.0
C1031 C 0.30717 0.04075 0.88644 0.0
C1032 C 0.28635 0.046 0.85478 0.0
H1033 H 0.42889 0.02755 0.63264 0.0
H1034 H 0.38982 0.03169 0.6768 0.0
C1035 C 0.2653 0.04965 0.88768 0.0
C1036 C 0.3306 0.03854 0.85359 0.0
H1037 H 0.36856 0.06492 0.75107 0.0
C1038 C 0.34506 0.01985 0.86918 0.0
C1039 C 0.33956 0.05507 0.81028 0.0
C1040 C 0.32627 0.07651 0.79327 0.0
C1041 C 0.36755 0.01719 0.8436 0.0
C1042 C 0.37649 0.03368 0.80058 0.0
C1043 C 0.362 0.05217 0.78385 0.0
C1044 C 0.40078 0.03202 0.77318 0.0
C1045 C 0.38143 0.99636 0.86252 0.0
C1046 C 0.42051 0.03118 0.81177 0.0
C1047 C 0.44298 0.02869 0.78651 0.0
C1048 C 0.4467 0.02727 0.72152 0.0
C1049 C 0.42698 0.02856 0.68283 0.0
C1050 C 0.40447 0.03101 0.70818 0.0
H1051 H 0.37014 0.98227 0.88095 0.0
H1052 H 0.3916 0.9895 0.82264 0.0
H1053 H 0.39367 1.00145 0.90002 0.0
H1054 H 0.41857 0.03242 0.86189 0.0
H1055 H 0.45749 0.02768 0.81827 0.0
H1056 H 0.51358 0.26754 0.95566 0.0
H1057 H 0.51981 0.30465 0.90106 0.0
H1058 H 0.44793 0.30549 0.84906 0.0
H1059 H 0.4418 0.2684 0.90215 0.0
H1060 H 0.49366 0.32164 0.75145 0.0
H1061 H 0.47744 0.3672 0.97596 0.0
H1062 H 0.49187 0.33957 0.97473 0.0
H1063 H 0.46165 0.34103 0.95679 0.0
C1064 C 0.49938 0.2749 0.9297 0.0
C1065 C 0.47732 0.26412 0.93204 0.0
C1066 C 0.50284 0.29656 0.8994 0.0
C1067 C 0.48434 0.30838 0.87082 0.0
C1068 C 0.46266 0.29703 0.87002 0.0
H1069 H 0.46673 0.45613 0.76061 0.0
H1070 H 0.46175 0.4167 0.80152 0.0
C1071 C 0.45926 0.2754 0.89968 0.0
C1072 C 0.48712 0.33293 0.84527 0.0
H1073 H 0.48447 0.39041 0.88772 0.0
C1074 C 0.49183 0.33662 0.78151 0.0
C1075 C 0.48423 0.35286 0.88335 0.0
C1076 C 0.47851 0.35025 0.95161 0.0
C1077 C 0.49397 0.35923 0.75548 0.0
C1078 C 0.49173 0.37927 0.79391 0.0
C1079 C 0.48652 0.37549 0.85755 0.0
C1080 C 0.49487 0.40402 0.76909 0.0
C1081 C 0.49794 0.36136 0.68618 0.0
C1082 C 0.51527 0.41099 0.73751 0.0
C1083 C 0.51826 0.4338 0.71451 0.0
C1084 C 0.50098 0.45084 0.72181 0.0
C1085 C 0.48058 0.44391 0.7537 0.0
C1086 C 0.47769 0.42109 0.77735 0.0
H1087 H 0.49226 0.34549 0.66098 0.0
H1088 H 0.48854 0.37639 0.66673 0.0
H1089 H 0.51672 0.36389 0.67707 0.0
H1090 H 0.5292 0.39879 0.73108 0.0
H1091 H 0.53429 0.43803 0.6906 0.0
H1092 H 0.25997 0.45079 0.89708 0.0
H1093 H 0.22296 0.4571 0.84444 0.0
H1094 H 0.22035 0.52598 0.92037 0.0
H1095 H 0.25733 0.51947 0.97501 0.0
H1096 H 0.17778 0.47879 0.93141 0.0
H1097 H 0.2043 0.51931 0.70693 0.0
H1098 H 0.22237 0.49826 0.74506 0.0
H1099 H 0.21956 0.52662 0.77786 0.0
C1100 C 0.25209 0.4677 0.90069 0.0
C1101 C 0.26224 0.48477 0.93973 0.0
C1102 C 0.23058 0.47115 0.87112 0.0
C1103 C 0.21844 0.49196 0.87841 0.0
C1104 C 0.22916 0.50969 0.91382 0.0
H1105 H 0.08948 0.54275 0.70924 0.0
H1106 H 0.12803 0.53739 0.75363 0.0
C1107 C 0.25066 0.50612 0.94423 0.0
C1108 C 0.1942 0.49451 0.85184 0.0
H1109 H 0.16437 0.51362 0.72372 0.0
C1110 C 0.17486 0.48647 0.88604 0.0
C1111 C 0.19007 0.5043 0.79243 0.0
C1112 C 0.21005 0.51265 0.75287 0.0
C1113 C 0.15182 0.48836 0.86331 0.0
C1114 C 0.14758 0.49823 0.80357 0.0
C1115 C 0.16709 0.50612 0.76938 0.0
C1116 C 0.1233 0.50118 0.77639 0.0
C1117 C 0.13222 0.48029 0.90485 0.0
C1118 C 0.10711 0.48271 0.77272 0.0
C1119 C 0.08468 0.48582 0.74745 0.0
C1120 C 0.07758 0.50748 0.72406 0.0
C1121 C 0.09392 0.52581 0.72681 0.0
C1122 C 0.11625 0.52271 0.75229 0.0
H1123 H 0.1375 0.47986 0.95463 0.0
H1124 H 0.11691 0.49165 0.90049 0.0
H1125 H 0.12705 0.46244 0.8913 0.0
H1126 H 0.11185 0.46564 0.78861 0.0
H1127 H 0.073 0.47109 0.7457 0.0
H1128 H 0.96142 0.76012 0.42973 0.0
H1129 H 0.96689 0.79786 0.48025 0.0
H1130 H 0.01502 0.81768 0.33565 0.0
H1131 H 0.00904 0.78008 0.28434 0.0
H1132 H 0.99996 0.82454 0.53106 0.0
H1133 H 0.96957 0.86941 0.31974 0.0
H1134 H 0.96746 0.83844 0.32871 0.0
H1135 H 0.99429 0.85171 0.30399 0.0
C1136 C 0.97408 0.77205 0.41025 0.0
C1137 C 0.98537 0.76641 0.35364 0.0
C1138 C 0.97688 0.794 0.43874 0.0
C1139 C 0.99094 0.81135 0.41152 0.0
C1140 C 1.00355 0.80516 0.35745 0.0
H1141 H 0.03405 0.95302 0.51497 0.0
H1142 H 0.02974 0.91359 0.47279 0.0
C1143 C 1.00069 0.7832 0.32885 0.0
C1144 C 0.99174 0.8359 0.43825 0.0
H1145 H 0.98572 0.89338 0.39934 0.0
C1146 C 0.99677 0.83949 0.50197 0.0
C1147 C 0.98703 0.85587 0.40168 0.0
C1148 C 0.97902 0.85374 0.33498 0.0
C1149 C 0.99816 0.86202 0.52876 0.0
C1150 C 0.99452 0.88193 0.49146 0.0
C1151 C 0.98896 0.87838 0.42822 0.0
C1152 C 0.99676 0.90645 0.51705 0.0
C1153 C 1.0039 0.86449 0.59697 0.0
C1154 C 0.97956 0.91625 0.55561 0.0
C1155 C 0.98176 0.93917 0.57874 0.0
C1156 C 1.00151 0.95292 0.56541 0.0
C1157 C 0.0187 0.94305 0.52697 0.0
C1158 C 0.01622 0.92038 0.50259 0.0
H1159 H 0.00856 0.8477 0.61855 0.0
H1160 H 0.01853 0.87689 0.60318 0.0
H1161 H 0.9887 0.87159 0.62217 0.0
H1162 H 0.96429 0.90617 0.56771 0.0
H1163 H 0.96814 0.94599 0.6082 0.0
H1164 H 0.74295 1.00583 0.26426 0.0
H1165 H 0.70586 0.01149 0.31833 0.0
H1166 H 0.73343 0.97903 0.48229 0.0
H1167 H 0.77042 0.97292 0.42762 0.0
H1168 H 0.67852 0.97062 0.37443 0.0
H1169 H 0.69897 0.04009 0.5459 0.0
H1170 H 0.71493 0.03707 0.4737 0.0
H1171 H 0.71946 0.017 0.53602 0.0
C1172 C 0.74159 1.00107 0.313 0.0
C1173 C 0.76031 0.9899 0.34227 0.0
C1174 C 0.72008 1.00383 0.34358 0.0
C1175 C 0.71656 0.9958 0.40487 0.0
C1176 C 0.73555 0.98571 0.43546 0.0
H1177 H 0.59519 1.0019 0.65963 0.0
H1178 H 0.63397 0.99756 0.6137 0.0
C1179 C 0.75699 0.98262 0.40448 0.0
C1180 C 0.69279 0.99671 0.43511 0.0
H1181 H 0.66148 0.02387 0.54985 0.0
C1182 C 0.67481 0.98233 0.41271 0.0
C1183 C 0.68774 0.01158 0.48588 0.0
C1184 C 0.70615 0.02746 0.512 0.0
C1185 C 0.65229 0.98233 0.43954 0.0
C1186 C 0.64693 0.99784 0.48917 0.0
C1187 C 0.6651 0.01201 0.51191 0.0
C1188 C 0.62278 0.99986 0.51759 0.0
C1189 C 0.63473 0.96502 0.41546 0.0
C1190 C 0.60304 1.00294 0.47998 0.0
C1191 C 0.58073 1.00517 0.50634 0.0
C1192 C 0.57721 1.00474 0.57154 0.0
C1193 C 0.59697 1.00213 0.60935 0.0
C1194 C 0.61932 0.99969 0.58287 0.0
H1195 H 0.64332 0.94963 0.39495 0.0
H1196 H 0.62281 0.95908 0.453 0.0
H1197 H 0.62436 0.97315 0.37807 0.0
H1198 H 0.60484 1.00409 0.42984 0.0
H1199 H 0.56622 0.00772 0.47528 0.0
H1200 H 0.51964 0.74843 0.27304 0.0
H1201 H 0.5143 0.71148 0.32803 0.0
H1202 H 0.55508 0.73749 0.48101 0.0
H1203 H 0.56081 0.7743 0.42532 0.0
H1204 H 0.5553 0.68226 0.37126 0.0
H1205 H 0.49525 0.706 0.56372 0.0
H1206 H 0.49629 0.72193 0.49126 0.0
H1207 H 0.51922 0.7252 0.54688 0.0
C1208 C 0.52646 0.74675 0.31982 0.0
C1209 C 0.53974 0.76499 0.3458 0.0
C1210 C 0.52381 0.72533 0.35083 0.0
C1211 C 0.53414 0.72142 0.40927 0.0
C1212 C 0.54658 0.73992 0.43659 0.0
H1213 H 0.52904 0.60089 0.66625 0.0
H1214 H 0.53385 0.63938 0.61913 0.0
C1215 C 0.54952 0.76125 0.40511 0.0
C1216 C 0.53299 0.69774 0.43974 0.0
H1217 H 0.50903 0.66787 0.56262 0.0
C1218 C 0.54513 0.67913 0.41306 0.0
C1219 C 0.52017 0.69342 0.49504 0.0
C1220 C 0.50685 0.71257 0.52615 0.0
C1221 C 0.54495 0.65669 0.44003 0.0
C1222 C 0.53135 0.65204 0.49436 0.0
C1223 C 0.51941 0.67086 0.52118 0.0
C1224 C 0.529 0.62802 0.5236 0.0
C1225 C 0.5602 0.63853 0.41081 0.0
C1226 C 0.52431 0.60822 0.48699 0.0
C1227 C 0.52202 0.58607 0.51397 0.0
C1228 C 0.52368 0.58273 0.57902 0.0
C1229 C 0.52774 0.60254 0.61608 0.0
C1230 C 0.53046 0.62473 0.58886 0.0
H1231 H 0.57534 0.64654 0.38673 0.0
H1232 H 0.56674 0.62615 0.44602 0.0
H1233 H 0.55015 0.62882 0.37516 0.0
H1234 H 0.52197 0.60982 0.43716 0.0
H1235 H 0.51842 0.57155 0.48349 0.0
H1236 H 0.75437 0.56492 0.43273 0.0
H1237 H 0.79173 0.55887 0.48398 0.0
H1238 H 0.81162 0.51238 0.33642 0.0
H1239 H 0.77439 0.51891 0.28447 0.0
H1240 H 0.8182 0.52516 0.53214 0.0
H1241 H 0.8633 0.55931 0.32349 0.0
H1242 H 0.8323 0.56084 0.3331 0.0
H1243 H 0.84549 0.53455 0.30594 0.0
C1244 C 0.7662 0.55247 0.41272 0.0
C1245 C 0.76078 0.54191 0.35497 0.0
C1246 C 0.78792 0.54934 0.44165 0.0
C1247 C 0.80522 0.53567 0.4137 0.0
C1248 C 0.79912 0.52357 0.35871 0.0
H1249 H 0.9467 0.49444 0.51394 0.0
H1250 H 0.90752 0.49869 0.47074 0.0
C1251 C 0.77738 0.52674 0.32971 0.0
C1252 C 0.8297 0.53498 0.44026 0.0
H1253 H 0.88721 0.54305 0.40195 0.0
C1254 C 0.83319 0.52914 0.50342 0.0
C1255 C 0.84969 0.54069 0.40413 0.0
C1256 C 0.84759 0.54946 0.33816 0.0
C1257 C 0.85569 0.52798 0.53004 0.0
C1258 C 0.87562 0.53273 0.49312 0.0
C1259 C 0.87217 0.53903 0.43047 0.0
C1260 C 0.90008 0.53077 0.51845 0.0
C1261 C 0.85814 0.52129 0.59759 0.0
C1262 C 0.90962 0.54759 0.55896 0.0
C1263 C 0.9324 0.54547 0.58258 0.0
C1264 C 0.94616 0.52614 0.56776 0.0
C1265 C 0.93663 0.50942 0.52703 0.0
C1266 C 0.91413 0.51186 0.50214 0.0
H1267 H 0.84137 0.51576 0.6186 0.0
H1268 H 0.87077 0.50701 0.60228 0.0
H1269 H 0.86497 0.53631 0.6244 0.0
H1270 H 0.8994 0.56243 0.57244 0.0
H1271 H 0.93903 0.55867 0.61389 0.0
loop_
_geom_bond_atom_site_label_1
_geom_bond_atom_site_label_2
_geom_bond_distance
_geom_bond_site_symmetry_2
_ccdc_geom_bond_type
H0 C3 0.931 . S
H1 C6 0.928 . S
H2 C8 0.930 . S
C3 H0 0.931 . S
C3 C4 1.413 . S
C3 C5 1.360 . S
C4 C3 1.413 . S
C4 C8 1.429 . S
C5 C3 1.360 . S
C5 C6 1.372 . S
C6 H1 0.928 . S
C6 C5 1.372 . S
C6 C7 1.404 . S
C7 C6 1.404 . S
C7 C8 1.391 . S
C8 H2 0.930 . S
C8 C4 1.429 . S
C8 C7 1.391 . S
H9 C12 0.931 . S
H10 C15 0.928 . S
H11 C17 0.930 . S
C12 H9 0.931 . S
C12 C13 1.413 . S
C12 C14 1.360 . S
C13 C12 1.413 . S
C13 C17 1.429 . S
C14 C12 1.360 . S
C14 C15 1.372 . S
C15 H10 0.928 . S
C15 C14 1.372 . S
C15 C16 1.404 . S
C16 C15 1.404 . S
C16 C17 1.391 . S
C17 H11 0.930 . S
C17 C13 1.429 . S
C17 C16 1.391 . S
H18 C21 0.931 . S
H19 C24 0.928 . S
H20 C26 0.930 . S
C21 H18 0.931 . S
C21 C22 1.413 . S
C21 C23 1.360 . S
C22 C21 1.413 . S
C22 C26 1.429 . S
C23 C21 1.360 . S
C23 C24 1.372 . S
C24 H19 0.928 . S
C24 C23 1.372 . S
C24 C25 1.404 . S
C25 C24 1.404 . S
C25 C26 1.391 . S
C26 H20 0.930 . S
C26 C22 1.429 . S
C26 C25 1.391 . S
H27 C30 0.931 . S
H28 C33 0.928 . S
H29 C35 0.930 . S
C30 H27 0.931 . S
C30 C31 1.413 . S
C30 C32 1.360 . S
C31 C30 1.413 . S
C31 C35 1.429 . S
C32 C30 1.360 . S
C32 C33 1.372 . S
C33 H28 0.928 . S
C33 C32 1.372 . S
C33 C34 1.404 . S
C34 C33 1.404 . S
C34 C35 1.391 . S
C35 H29 0.930 . S
C35 C31 1.429 . S
C35 C34 1.391 . S
H36 C39 0.931 . S
H37 C42 0.928 . S
H38 C44 0.930 . S
C39 H36 0.931 . S
C39 C40 1.413 1_554 S
C39 C41 1.360 . S
C40 C39 1.413 1_556 S
C40 C44 1.429 . S
C41 C39 1.360 . S
C41 C42 1.372 . S
C42 H37 0.928 . S
C42 C41 1.372 . S
C42 C43 1.404 . S
C43 C42 1.404 . S
C43 C44 1.391 1_554 S
C44 H38 0.930 . S
C44 C40 1.429 . S
C44 C43 1.391 1_556 S
H45 C48 0.931 . S
H46 C51 0.928 . S
H47 C53 0.930 . S
C48 H45 0.931 . S
C48 C49 1.413 1_554 S
C48 C50 1.360 . S
C49 C48 1.413 1_556 S
C49 C53 1.429 . S
C50 C48 1.360 . S
C50 C51 1.372 . S
C51 H46 0.928 . S
C51 C50 1.372 . S
C51 C52 1.404 . S
C52 C51 1.404 . S
C52 C53 1.391 1_554 S
C53 H47 0.930 . S
C53 C49 1.429 . S
C53 C52 1.391 1_556 S
H54 C57 0.931 . S
H55 C60 0.928 . S
H56 C62 0.930 . S
C57 H54 0.931 . S
C57 C58 1.413 1_554 S
C57 C59 1.360 . S
C58 C57 1.413 1_556 S
C58 C62 1.429 . S
C59 C57 1.360 . S
C59 C60 1.372 . S
C60 H55 0.928 . S
C60 C59 1.372 . S
C60 C61 1.404 . S
C61 C60 1.404 . S
C61 C62 1.391 1_554 S
C62 H56 0.930 . S
C62 C58 1.429 . S
C62 C61 1.391 1_556 S
H63 C66 0.931 . S
H64 C69 0.928 . S
H65 C71 0.930 . S
C66 H63 0.931 . S
C66 C67 1.413 . S
C66 C68 1.360 1_554 S
C67 C66 1.413 . S
C67 C71 1.429 . S
C68 C66 1.360 1_556 S
C68 C69 1.372 . S
C69 H64 0.928 . S
C69 C68 1.372 . S
C69 C70 1.404 1_556 S
C70 C69 1.404 1_554 S
C70 C71 1.391 . S
C71 H65 0.930 . S
C71 C67 1.429 . S
C71 C70 1.391 . S
C72 C74 1.422 . S
C72 C76 1.415 . S
C72 N78 1.369 . S
C73 C74 1.421 . S
C73 C75 1.417 . S
C73 C85 1.422 . S
C74 C72 1.422 . S
C74 C73 1.421 . S
C74 N84 1.359 . S
C75 C73 1.417 . S
C75 C77 1.329 . S
C75 H94 0.930 . S
C76 C72 1.415 . S
C76 C77 1.437 . S
C76 C80 1.413 . S
C77 C75 1.329 . S
C77 C76 1.437 . S
C77 H99 0.929 . S
N78 C72 1.369 . S
N78 C79 1.339 . S
N78 Gd83 2.622 1_545 S
C79 N78 1.339 . S
C79 C81 1.383 . S
C79 H91 0.923 1_545 S
C80 C76 1.413 . S
C80 C81 1.348 . S
C80 H96 0.931 . S
C81 C79 1.383 . S
C81 C80 1.348 . S
C81 H97 0.930 . S
Gd82 N102 2.622 . S
Gd82 N109 2.570 . S
Gd82 O116 2.353 1_655 S
Gd82 O117 2.468 . S
Gd82 O118 2.427 . S
Gd82 O120 2.388 . S
Gd82 O121 2.386 1_545 S
Gd82 O125 2.307 1_655 S
Gd82 C135 2.805 . S
Gd83 N78 2.622 1_565 S
Gd83 N84 2.570 1_565 S
Gd83 O115 2.386 1_565 S
Gd83 O119 2.307 1_465 S
Gd83 O122 2.353 . S
Gd83 O123 2.468 . S
Gd83 O124 2.427 . S
Gd83 O126 2.388 . S
Gd83 C147 2.805 . S
N84 C74 1.359 . S
N84 Gd83 2.570 1_545 S
N84 C86 1.343 . S
C85 C73 1.422 . S
C85 C87 1.321 . S
C85 H93 0.931 . S
C86 N84 1.343 . S
C86 C87 1.390 . S
C86 H88 0.897 1_455 S
C87 C85 1.321 . S
C87 C86 1.390 . S
C87 H89 0.930 . S
H88 C86 0.897 1_655 S
H89 C87 0.930 . S
H90 C113 0.931 1_455 S
H91 C79 0.923 1_565 S
H92 C114 0.930 1_455 S
H93 C85 0.931 . S
H94 C75 0.930 . S
H95 C104 0.929 . S
H96 C80 0.931 . S
H97 C81 0.930 . S
H98 C136 0.930 . S
H99 C77 0.929 . S
H100 C105 0.939 . S
H101 C106 0.930 . S
N102 Gd82 2.622 . S
N102 C103 1.369 . S
N102 C104 1.338 . S
C103 N102 1.369 . S
C103 C107 1.415 1_545 S
C103 C110 1.422 . S
C104 H95 0.929 . S
C104 N102 1.338 . S
C104 C106 1.378 . S
C105 H100 0.939 . S
C105 C106 1.338 1_565 S
C105 C107 1.415 . S
C106 H101 0.930 . S
C106 C104 1.378 . S
C106 C105 1.338 1_545 S
C107 C103 1.415 1_565 S
C107 C105 1.415 . S
C107 C137 1.437 . S
H108 C137 0.929 . S
N109 Gd82 2.570 . S
N109 C110 1.359 . S
N109 C113 1.343 . S
C110 C103 1.422 . S
C110 N109 1.359 . S
C110 C112 1.421 1_545 S
C111 C112 1.422 . S
C111 C114 1.321 . S
C111 H138 0.931 . S
C112 C110 1.421 1_565 S
C112 C111 1.422 . S
C112 C136 1.417 . S
C113 H90 0.931 1_655 S
C113 N109 1.343 . S
C113 C114 1.390 1_545 S
C114 H92 0.930 1_655 S
C114 C111 1.321 . S
C114 C113 1.390 1_565 S
O115 Gd83 2.386 1_545 S
O115 C127 1.265 . S
O116 Gd82 2.353 1_455 S
O116 C127 1.242 . S
O117 Gd82 2.468 . S
O117 C135 1.263 . S
O118 Gd82 2.427 . S
O118 C135 1.252 . S
O119 Gd83 2.307 1_645 S
O119 C128 1.261 . S
O120 Gd82 2.388 . S
O120 C128 1.252 . S
O121 Gd82 2.386 1_565 S
O121 C139 1.265 . S
O122 Gd83 2.353 . S
O122 C139 1.242 1_455 S
O123 Gd83 2.468 . S
O123 C147 1.263 . S
O124 Gd83 2.427 . S
O124 C147 1.252 . S
O125 Gd82 2.307 1_455 S
O125 C140 1.261 . S
O126 Gd83 2.388 . S
O126 C140 1.252 1_565 S
C127 O115 1.265 . S
C127 O116 1.242 . S
C128 O119 1.261 . S
C128 O120 1.252 . S
C129 C132 1.394 . S
C129 C134 1.370 . S
C129 C135 1.500 . S
C130 C133 1.383 . S
C130 C134 1.395 . S
C131 C132 1.396 . S
C131 C133 1.365 . S
C131 H148 0.929 . S
C132 C129 1.394 . S
C132 C131 1.396 . S
C132 H149 0.930 . S
C133 C130 1.383 . S
C133 C131 1.365 . S
C133 H150 0.931 . S
C134 C129 1.370 . S
C134 C130 1.395 . S
C134 H151 0.930 1_655 S
C135 Gd82 2.805 . S
C135 O117 1.263 . S
C135 O118 1.252 . S
C135 C129 1.500 . S
C136 H98 0.930 . S
C136 C112 1.417 . S
C136 C137 1.329 . S
C137 C107 1.437 . S
C137 H108 0.929 . S
C137 C136 1.329 . S
H138 C111 0.931 . S
C139 O121 1.265 . S
C139 O122 1.242 1_655 S
C140 O125 1.261 . S
C140 O126 1.252 1_545 S
C141 C144 1.394 . S
C141 C146 1.370 . S
C141 C147 1.500 . S
C142 C145 1.383 . S
C142 C146 1.395 . S
C143 C144 1.396 . S
C143 C145 1.365 . S
C143 H152 0.929 . S
C144 C141 1.394 . S
C144 C143 1.396 . S
C144 H153 0.930 . S
C145 C142 1.383 . S
C145 C143 1.365 . S
C145 H154 0.931 . S
C146 C141 1.370 . S
C146 C142 1.395 . S
C146 H155 0.930 . S
C147 Gd83 2.805 . S
C147 O123 1.263 . S
C147 O124 1.252 . S
C147 C141 1.500 . S
H148 C131 0.929 . S
H149 C132 0.930 . S
H150 C133 0.931 . S
H151 C134 0.930 1_455 S
H152 C143 0.929 . S
H153 C144 0.930 . S
H154 C145 0.931 . S
H155 C146 0.930 . S
C156 C158 1.422 . S
C156 C160 1.415 . S
C156 N162 1.369 . S
C157 C158 1.421 . S
C157 C159 1.417 . S
C157 C169 1.422 . S
C158 C156 1.422 . S
C158 C157 1.421 . S
C158 N168 1.359 . S
C159 C157 1.417 . S
C159 C161 1.329 . S
C159 H178 0.930 . S
C160 C156 1.415 . S
C160 C161 1.437 . S
C160 C164 1.413 . S
C161 C159 1.329 . S
C161 C160 1.437 . S
C161 H183 0.929 . S
N162 C156 1.369 . S
N162 C163 1.338 . S
N162 Gd167 2.622 . S
C163 N162 1.338 . S
C163 C165 1.378 . S
C163 H175 0.929 . S
C164 C160 1.413 . S
C164 C165 1.348 . S
C164 H180 0.931 . S
C165 C163 1.378 . S
C165 C164 1.348 . S
C165 H181 0.930 . S
Gd166 N186 2.622 . S
Gd166 N193 2.570 . S
Gd166 O200 2.353 1_545 S
Gd166 O201 2.468 . S
Gd166 O202 2.427 . S
Gd166 O204 2.388 . S
Gd166 O205 2.386 . S
Gd166 O209 2.307 . S
Gd166 C219 2.805 . S
Gd167 N162 2.622 . S
Gd167 N168 2.570 . S
Gd167 O199 2.386 . S
Gd167 O203 2.307 1_565 S
Gd167 O206 2.353 1_565 S
Gd167 O207 2.468 . S
Gd167 O208 2.427 . S
Gd167 O210 2.388 . S
Gd167 C231 2.805 . S
N168 C158 1.359 . S
N168 Gd167 2.570 . S
N168 C170 1.343 . S
C169 C157 1.422 . S
C169 C171 1.321 . S
C169 H177 0.931 . S
C170 N168 1.343 . S
C170 C171 1.390 . S
C170 H172 0.931 . S
C171 C169 1.321 . S
C171 C170 1.390 . S
C171 H173 0.930 . S
H172 C170 0.931 . S
H173 C171 0.930 . S
H174 C197 0.931 . S
H175 C163 0.929 . S
H176 C198 0.930 . S
H177 C169 0.931 . S
H178 C159 0.930 . S
H179 C188 0.929 . S
H180 C164 0.931 . S
H181 C165 0.930 . S
H182 C220 0.930 . S
H183 C161 0.929 . S
H184 C189 0.931 . S
H185 C190 0.930 . S
N186 Gd166 2.622 . S
N186 C187 1.369 . S
N186 C188 1.338 . S
C187 N186 1.369 . S
C187 C191 1.415 . S
C187 C194 1.422 . S
C188 H179 0.929 . S
C188 N186 1.338 . S
C188 C190 1.378 . S
C189 H184 0.931 . S
C189 C190 1.348 . S
C189 C191 1.413 . S
C190 H185 0.930 . S
C190 C188 1.378 . S
C190 C189 1.348 . S
C191 C187 1.415 . S
C191 C189 1.413 . S
C191 C221 1.437 . S
H192 C221 0.929 . S
N193 Gd166 2.570 . S
N193 C194 1.359 . S
N193 C197 1.343 . S
C194 C187 1.422 . S
C194 N193 1.359 . S
C194 C196 1.421 . S
C195 C196 1.422 . S
C195 C198 1.321 . S
C195 H222 0.931 . S
C196 C194 1.421 . S
C196 C195 1.422 . S
C196 C220 1.417 . S
C197 H174 0.931 . S
C197 N193 1.343 . S
C197 C198 1.390 . S
C198 H176 0.930 . S
C198 C195 1.321 . S
C198 C197 1.390 . S
O199 Gd167 2.386 . S
O199 C211 1.265 . S
O200 Gd166 2.353 1_565 S
O200 C211 1.242 . S
O201 Gd166 2.468 . S
O201 C219 1.263 . S
O202 Gd166 2.427 . S
O202 C219 1.252 . S
O203 Gd167 2.307 1_545 S
O203 C212 1.261 . S
O204 Gd166 2.388 . S
O204 C212 1.252 . S
O205 Gd166 2.386 . S
O205 C223 1.265 . S
O206 Gd167 2.353 1_545 S
O206 C223 1.242 . S
O207 Gd167 2.468 . S
O207 C231 1.263 . S
O208 Gd167 2.427 . S
O208 C231 1.252 . S
O209 Gd166 2.307 . S
O209 C224 1.259 1_545 S
O210 Gd167 2.388 . S
O210 C224 1.253 . S
C211 O199 1.265 . S
C211 O200 1.242 . S
C212 O203 1.261 . S
C212 O204 1.252 . S
C213 C216 1.394 . S
C213 C218 1.370 . S
C213 C219 1.500 . S
C214 C217 1.383 . S
C214 C218 1.395 . S
C215 C216 1.396 . S
C215 C217 1.365 . S
C215 H232 0.929 . S
C216 C213 1.394 . S
C216 C215 1.396 . S
C216 H233 0.930 . S
C217 C214 1.383 . S
C217 C215 1.365 . S
C217 H234 0.931 . S
C218 C213 1.370 . S
C218 C214 1.395 . S
C218 H235 0.930 . S
C219 Gd166 2.805 . S
C219 O201 1.263 . S
C219 O202 1.252 . S
C219 C213 1.500 . S
C220 H182 0.930 . S
C220 C196 1.417 . S
C220 C221 1.329 . S
C221 C191 1.437 . S
C221 H192 0.929 . S
C221 C220 1.329 . S
H222 C195 0.931 . S
C223 O205 1.265 . S
C223 O206 1.242 . S
C224 O209 1.259 1_565 S
C224 O210 1.253 . S
C225 C228 1.394 . S
C225 C230 1.370 1_565 S
C225 C231 1.500 . S
C226 C229 1.383 1_545 S
C226 C230 1.395 . S
C227 C228 1.396 . S
C227 C229 1.365 . S
C227 H236 0.929 . S
C228 C225 1.394 . S
C228 C227 1.396 . S
C228 H237 0.930 . S
C229 C226 1.383 1_565 S
C229 C227 1.365 . S
C229 H238 0.931 . S
C230 C225 1.370 1_545 S
C230 C226 1.395 . S
C230 H239 0.930 . S
C231 Gd167 2.805 . S
C231 O207 1.263 . S
C231 O208 1.252 . S
C231 C225 1.500 . S
H232 C215 0.929 . S
H233 C216 0.930 . S
H234 C217 0.931 . S
H235 C218 0.930 . S
H236 C227 0.929 . S
H237 C228 0.930 . S
H238 C229 0.931 . S
H239 C230 0.930 . S
C240 C242 1.422 . S
C240 C244 1.415 . S
C240 N246 1.369 . S
C241 C242 1.421 . S
C241 C243 1.417 . S
C241 C253 1.422 . S
C242 C240 1.422 . S
C242 C241 1.421 . S
C242 N252 1.359 . S
C243 C241 1.417 . S
C243 C245 1.329 . S
C243 H262 0.930 . S
C244 C240 1.415 . S
C244 C245 1.437 . S
C244 C248 1.413 . S
C245 C243 1.329 . S
C245 C244 1.437 . S
C245 H267 0.929 . S
N246 C240 1.369 . S
N246 C247 1.338 . S
N246 Gd251 2.622 . S
C247 N246 1.338 . S
C247 C249 1.378 . S
C247 H259 0.929 . S
C248 C244 1.413 . S
C248 C249 1.348 . S
C248 H264 0.931 . S
C249 C247 1.378 . S
C249 C248 1.348 . S
C249 H265 0.930 . S
Gd250 N270 2.622 . S
Gd250 N277 2.570 . S
Gd250 O284 2.353 . S
Gd250 O285 2.468 . S
Gd250 O286 2.427 . S
Gd250 O288 2.388 . S
Gd250 O289 2.386 . S
Gd250 O293 2.307 . S
Gd250 C303 2.805 . S
Gd251 N246 2.622 . S
Gd251 N252 2.570 . S
Gd251 O283 2.386 . S
Gd251 O287 2.307 . S
Gd251 O290 2.353 . S
Gd251 O291 2.468 . S
Gd251 O292 2.427 . S
Gd251 O294 2.388 . S
Gd251 C315 2.805 . S
N252 C242 1.359 . S
N252 Gd251 2.570 . S
N252 C254 1.343 . S
C253 C241 1.422 . S
C253 C255 1.321 . S
C253 H261 0.931 . S
C254 N252 1.343 . S
C254 C255 1.390 . S
C254 H256 0.931 . S
C255 C253 1.321 . S
C255 C254 1.390 . S
C255 H257 0.930 . S
H256 C254 0.931 . S
H257 C255 0.930 . S
H258 C281 0.931 . S
H259 C247 0.929 . S
H260 C282 0.930 . S
H261 C253 0.931 . S
H262 C243 0.930 . S
H263 C272 0.929 . S
H264 C248 0.931 . S
H265 C249 0.930 . S
H266 C304 0.930 . S
H267 C245 0.929 . S
H268 C273 0.931 . S
H269 C274 0.930 . S
N270 Gd250 2.622 . S
N270 C271 1.369 . S
N270 C272 1.338 . S
C271 N270 1.369 . S
C271 C275 1.415 . S
C271 C278 1.422 . S
C272 H263 0.929 . S
C272 N270 1.338 . S
C272 C274 1.378 . S
C273 H268 0.931 . S
C273 C274 1.348 . S
C273 C275 1.413 . S
C274 H269 0.930 . S
C274 C272 1.378 . S
C274 C273 1.348 . S
C275 C271 1.415 . S
C275 C273 1.413 . S
C275 C305 1.437 . S
H276 C305 0.929 . S
N277 Gd250 2.570 . S
N277 C278 1.359 . S
N277 C281 1.343 . S
C278 C271 1.422 . S
C278 N277 1.359 . S
C278 C280 1.421 . S
C279 C280 1.422 . S
C279 C282 1.321 . S
C279 H306 0.931 . S
C280 C278 1.421 . S
C280 C279 1.422 . S
C280 C304 1.417 . S
C281 H258 0.931 . S
C281 N277 1.343 . S
C281 C282 1.390 . S
C282 H260 0.930 . S
C282 C279 1.321 . S
C282 C281 1.390 . S
O283 Gd251 2.386 . S
O283 C295 1.265 . S
O284 Gd250 2.353 . S
O284 C295 1.242 . S
O285 Gd250 2.468 . S
O285 C303 1.263 . S
O286 Gd250 2.427 . S
O286 C303 1.252 . S
O287 Gd251 2.307 . S
O287 C296 1.261 . S
O288 Gd250 2.388 . S
O288 C296 1.252 . S
O289 Gd250 2.386 . S
O289 C307 1.265 . S
O290 Gd251 2.353 . S
O290 C307 1.242 . S
O291 Gd251 2.468 . S
O291 C315 1.263 . S
O292 Gd251 2.427 . S
O292 C315 1.252 . S
O293 Gd250 2.307 . S
O293 C308 1.261 . S
O294 Gd251 2.388 . S
O294 C308 1.252 . S
C295 O283 1.265 . S
C295 O284 1.242 . S
C296 O287 1.261 . S
C296 O288 1.252 . S
C297 C300 1.394 . S
C297 C302 1.370 . S
C297 C303 1.500 . S
C298 C301 1.383 . S
C298 C302 1.395 . S
C299 C300 1.396 . S
C299 C301 1.365 . S
C299 H316 0.929 . S
C300 C297 1.394 . S
C300 C299 1.396 . S
C300 H317 0.930 . S
C301 C298 1.383 . S
C301 C299 1.365 . S
C301 H318 0.931 . S
C302 C297 1.370 . S
C302 C298 1.395 . S
C302 H319 0.930 . S
C303 Gd250 2.805 . S
C303 O285 1.263 . S
C303 O286 1.252 . S
C303 C297 1.500 . S
C304 H266 0.930 . S
C304 C280 1.417 . S
C304 C305 1.329 . S
C305 C275 1.437 . S
C305 H276 0.929 . S
C305 C304 1.329 . S
H306 C279 0.931 . S
C307 O289 1.265 . S
C307 O290 1.242 . S
C308 O293 1.261 . S
C308 O294 1.252 . S
C309 C312 1.394 . S
C309 C314 1.370 . S
C309 C315 1.500 . S
C310 C313 1.383 . S
C310 C314 1.395 . S
C311 C312 1.396 . S
C311 C313 1.365 . S
C311 H320 0.929 . S
C312 C309 1.394 . S
C312 C311 1.396 . S
C312 H321 0.930 . S
C313 C310 1.383 . S
C313 C311 1.365 . S
C313 H322 0.931 . S
C314 C309 1.370 . S
C314 C310 1.395 . S
C314 H323 0.930 . S
C315 Gd251 2.805 . S
C315 O291 1.263 . S
C315 O292 1.252 . S
C315 C309 1.500 . S
H316 C299 0.929 . S
H317 C300 0.930 . S
H318 C301 0.931 . S
H319 C302 0.930 . S
H320 C311 0.929 . S
H321 C312 0.930 . S
H322 C313 0.931 . S
H323 C314 0.930 . S
C324 C326 1.422 . S
C324 C328 1.415 . S
C324 N330 1.369 1_455 S
C325 C326 1.421 . S
C325 C327 1.417 . S
C325 C337 1.422 . S
C326 C324 1.422 . S
C326 C325 1.421 . S
C326 N336 1.359 . S
C327 C325 1.417 . S
C327 C329 1.329 . S
C327 H346 0.930 . S
C328 C324 1.415 . S
C328 C329 1.437 . S
C328 C332 1.413 . S
C329 C327 1.329 . S
C329 C328 1.437 . S
C329 H351 0.929 . S
N330 C324 1.369 1_655 S
N330 C331 1.338 . S
N330 Gd335 2.622 . S
C331 N330 1.338 . S
C331 C333 1.378 1_655 S
C331 H343 0.929 . S
C332 C328 1.413 . S
C332 C333 1.348 . S
C332 H348 0.931 . S
C333 C331 1.378 1_455 S
C333 C332 1.348 . S
C333 H349 0.929 1_455 S
Gd334 N354 2.622 . S
Gd334 N361 2.570 . S
Gd334 O368 2.353 . S
Gd334 O369 2.468 . S
Gd334 O370 2.427 . S
Gd334 O372 2.388 . S
Gd334 O373 2.386 1_455 S
Gd334 O377 2.307 . S
Gd334 C387 2.805 . S
Gd335 N330 2.622 . S
Gd335 N336 2.570 1_655 S
Gd335 O367 2.386 1_655 S
Gd335 O371 2.319 . S
Gd335 O374 2.353 . S
Gd335 O375 2.468 . S
Gd335 O376 2.427 . S
Gd335 O378 2.388 . S
Gd335 C399 2.805 . S
N336 C326 1.359 . S
N336 Gd335 2.570 1_455 S
N336 C338 1.343 . S
C337 C325 1.422 . S
C337 C339 1.321 . S
C337 H345 0.931 . S
C338 N336 1.343 . S
C338 C339 1.390 . S
C338 H340 0.931 1_455 S
C339 C337 1.321 . S
C339 C338 1.390 . S
C339 H341 0.930 . S
H340 C338 0.931 1_655 S
H341 C339 0.930 . S
H342 C365 0.931 . S
H343 C331 0.929 . S
H344 C366 0.930 . S
H345 C337 0.931 . S
H346 C327 0.930 . S
H347 C356 0.929 . S
H348 C332 0.931 . S
H349 C333 0.929 1_655 S
H350 C388 0.930 . S
H351 C329 0.929 . S
H352 C357 0.931 . S
H353 C358 0.930 . S
N354 Gd334 2.622 . S
N354 C355 1.369 . S
N354 C356 1.338 . S
C355 N354 1.369 . S
C355 C359 1.415 1_455 S
C355 C362 1.426 . S
C356 H347 0.929 . S
C356 N354 1.338 . S
C356 C358 1.378 . S
C357 H352 0.931 . S
C357 C358 1.348 1_655 S
C357 C359 1.413 . S
C358 H353 0.930 . S
C358 C356 1.378 . S
C358 C357 1.348 1_455 S
C359 C355 1.415 1_655 S
C359 C357 1.413 . S
C359 C389 1.437 . S
H360 C389 0.929 . S
N361 Gd334 2.570 . S
N361 C362 1.371 . S
N361 C365 1.343 . S
C362 C355 1.426 . S
C362 N361 1.371 . S
C362 C364 1.406 1_455 S
C363 C364 1.422 . S
C363 C366 1.321 . S
C363 H390 0.931 . S
C364 C362 1.406 1_655 S
C364 C363 1.422 . S
C364 C388 1.417 . S
C365 H342 0.931 . S
C365 N361 1.343 . S
C365 C366 1.390 1_455 S
C366 H344 0.930 . S
C366 C363 1.321 . S
C366 C365 1.390 1_655 S
O367 Gd335 2.386 1_455 S
O367 C379 1.265 . S
O368 Gd334 2.353 . S
O368 C379 1.242 . S
O369 Gd334 2.468 . S
O369 C387 1.263 . S
O370 Gd334 2.427 . S
O370 C387 1.252 . S
O371 Gd335 2.319 . S
O371 C380 1.252 1_655 S
O372 Gd334 2.388 . S
O372 C380 1.252 . S
O373 Gd334 2.386 1_655 S
O373 C391 1.265 . S
O374 Gd335 2.353 . S
O374 C391 1.242 . S
O375 Gd335 2.468 . S
O375 C399 1.263 . S
O376 Gd335 2.427 . S
O376 C399 1.252 . S
O377 Gd334 2.307 . S
O377 C392 1.261 . S
O378 Gd335 2.388 . S
O378 C392 1.252 1_655 S
C379 O367 1.265 . S
C379 O368 1.242 . S
C380 O371 1.252 1_455 S
C380 O372 1.252 . S
C381 C384 1.394 . S
C381 C386 1.370 . S
C381 C387 1.500 . S
C382 C385 1.383 . S
C382 C386 1.395 . S
C383 C384 1.396 . S
C383 C385 1.365 . S
C383 H400 0.929 . S
C384 C381 1.394 . S
C384 C383 1.396 . S
C384 H401 0.930 . S
C385 C382 1.383 . S
C385 C383 1.365 . S
C385 H402 0.931 . S
C386 C381 1.370 . S
C386 C382 1.395 . S
C386 H403 0.930 . S
C387 Gd334 2.805 . S
C387 O369 1.263 . S
C387 O370 1.252 . S
C387 C381 1.500 . S
C388 H350 0.930 . S
C388 C364 1.417 . S
C388 C389 1.329 . S
C389 C359 1.437 . S
C389 H360 0.929 . S
C389 C388 1.329 . S
H390 C363 0.931 . S
C391 O373 1.265 . S
C391 O374 1.242 . S
C392 O377 1.261 . S
C392 O378 1.252 1_455 S
C393 C396 1.394 . S
C393 C398 1.370 . S
C393 C399 1.500 . S
C394 C397 1.383 . S
C394 C398 1.395 . S
C395 C396 1.396 . S
C395 C397 1.365 . S
C395 H404 0.929 . S
C396 C393 1.394 . S
C396 C395 1.396 . S
C396 H405 0.930 . S
C397 C394 1.383 . S
C397 C395 1.365 . S
C397 H406 0.931 . S
C398 C393 1.370 . S
C398 C394 1.395 . S
C398 H407 0.930 . S
C399 Gd335 2.805 . S
C399 O375 1.263 . S
C399 O376 1.252 . S
C399 C393 1.500 . S
H400 C383 0.929 . S
H401 C384 0.930 . S
H402 C385 0.931 . S
H403 C386 0.930 . S
H404 C395 0.929 . S
H405 C396 0.930 . S
H406 C397 0.931 . S
H407 C398 0.930 . S
H408 C416 0.929 . S
H409 C418 0.930 . S
H410 C420 0.930 . S
H411 C423 0.929 . S
H412 C426 0.930 . S
H413 C428 0.960 . S
H414 C428 0.960 . S
H415 C428 0.960 . S
C416 H408 0.929 . S
C416 C417 1.377 . S
C416 C418 1.384 . S
C417 C416 1.377 . S
C417 C423 1.390 . S
C418 H409 0.930 . S
C418 C416 1.384 . S
C418 C419 1.372 . S
C419 C418 1.372 . S
C419 C420 1.400 . S
C419 C424 1.490 . S
C420 H410 0.930 . S
C420 C419 1.400 . S
C420 C423 1.386 . S
H421 C437 0.930 1_565 S
H422 C438 0.931 1_565 S
C423 H411 0.929 . S
C423 C417 1.390 . S
C423 C420 1.386 . S
C424 C419 1.490 . S
C424 C426 1.395 . S
C424 C427 1.403 . S
H425 C431 0.930 . S
C426 H412 0.930 . S
C426 C424 1.395 . S
C426 C429 1.403 . S
C427 C424 1.403 . S
C427 C428 1.524 . S
C427 C431 1.400 . S
C428 H413 0.960 . S
C428 H414 0.960 . S
C428 H415 0.960 . S
C428 C427 1.524 . S
C429 C426 1.403 . S
C429 C430 1.392 . S
C429 C433 1.495 . S
C430 C429 1.392 . S
C430 C431 1.385 . S
C430 C432 1.478 . S
C431 H425 0.930 . S
C431 C427 1.400 . S
C431 C430 1.385 . S
C432 C430 1.478 . S
C432 C434 1.381 . S
C432 C438 1.383 . S
C433 C429 1.495 . S
C433 H439 0.959 . S
C433 H440 0.961 . S
C433 H441 0.960 . S
C434 C432 1.381 . S
C434 C435 1.394 . S
C434 H442 0.930 . S
C435 C434 1.394 . S
C435 C436 1.383 . S
C435 H443 0.929 . S
C436 C435 1.383 . S
C436 C437 1.377 . S
C437 H421 0.930 1_545 S
C437 C436 1.377 . S
C437 C438 1.379 . S
C438 H422 0.931 1_545 S
C438 C432 1.383 . S
C438 C437 1.379 . S
H439 C433 0.959 . S
H440 C433 0.961 . S
H441 C433 0.960 . S
H442 C434 0.930 . S
H443 C435 0.929 . S
H444 C452 0.929 . S
H445 C454 0.930 . S
H446 C456 0.930 . S
H447 C459 0.929 . S
H448 C462 0.930 . S
H449 C464 0.960 . S
H450 C464 0.960 . S
H451 C464 0.960 . S
C452 H444 0.929 . S
C452 C453 1.377 . S
C452 C454 1.384 . S
C453 C452 1.377 . S
C453 C459 1.390 . S
C454 H445 0.930 . S
C454 C452 1.384 . S
C454 C455 1.372 . S
C455 C454 1.372 . S
C455 C456 1.400 . S
C455 C460 1.490 . S
C456 H446 0.930 . S
C456 C455 1.400 . S
C456 C459 1.386 . S
H457 C473 0.930 . S
H458 C474 0.931 . S
C459 H447 0.929 . S
C459 C453 1.390 . S
C459 C456 1.386 . S
C460 C455 1.490 . S
C460 C462 1.395 . S
C460 C463 1.403 . S
H461 C467 0.930 . S
C462 H448 0.930 . S
C462 C460 1.395 . S
C462 C465 1.403 . S
C463 C460 1.403 . S
C463 C464 1.524 . S
C463 C467 1.400 . S
C464 H449 0.960 . S
C464 H450 0.960 . S
C464 H451 0.960 . S
C464 C463 1.524 . S
C465 C462 1.403 . S
C465 C466 1.392 . S
C465 C469 1.495 . S
C466 C465 1.392 . S
C466 C467 1.385 . S
C466 C468 1.478 . S
C467 H461 0.930 . S
C467 C463 1.400 . S
C467 C466 1.385 . S
C468 C466 1.478 . S
C468 C470 1.381 . S
C468 C474 1.383 . S
C469 C465 1.495 . S
C469 H475 0.959 . S
C469 H476 0.961 . S
C469 H477 0.960 . S
C470 C468 1.381 . S
C470 C471 1.394 . S
C470 H478 0.930 . S
C471 C470 1.394 . S
C471 C472 1.383 . S
C471 H479 0.929 . S
C472 C471 1.383 . S
C472 C473 1.377 . S
C473 H457 0.930 . S
C473 C472 1.377 . S
C473 C474 1.379 . S
C474 H458 0.931 . S
C474 C468 1.383 . S
C474 C473 1.379 . S
H475 C469 0.959 . S
H476 C469 0.961 . S
H477 C469 0.960 . S
H478 C470 0.930 . S
H479 C471 0.929 . S
H480 C488 0.929 . S
H481 C490 0.930 . S
H482 C492 0.930 . S
H483 C495 0.929 . S
H484 C498 0.930 . S
H485 C500 0.960 . S
H486 C500 0.960 . S
H487 C500 0.960 . S
C488 H480 0.929 . S
C488 C489 1.377 . S
C488 C490 1.384 . S
C489 C488 1.377 . S
C489 C495 1.390 . S
C490 H481 0.930 . S
C490 C488 1.384 . S
C490 C491 1.372 . S
C491 C490 1.372 . S
C491 C492 1.400 . S
C491 C496 1.490 . S
C492 H482 0.930 . S
C492 C491 1.400 . S
C492 C495 1.386 . S
H493 C509 0.930 . S
H494 C510 0.931 . S
C495 H483 0.929 . S
C495 C489 1.390 . S
C495 C492 1.386 . S
C496 C491 1.490 . S
C496 C498 1.395 . S
C496 C499 1.403 . S
H497 C503 0.930 . S
C498 H484 0.930 . S
C498 C496 1.395 . S
C498 C501 1.403 . S
C499 C496 1.403 . S
C499 C500 1.524 . S
C499 C503 1.400 . S
C500 H485 0.960 . S
C500 H486 0.960 . S
C500 H487 0.960 . S
C500 C499 1.524 . S
C501 C498 1.403 . S
C501 C502 1.392 . S
C501 C505 1.495 . S
C502 C501 1.392 . S
C502 C503 1.385 . S
C502 C504 1.478 . S
C503 H497 0.930 . S
C503 C499 1.400 . S
C503 C502 1.385 . S
C504 C502 1.478 . S
C504 C506 1.381 . S
C504 C510 1.383 . S
C505 C501 1.495 . S
C505 H511 0.959 . S
C505 H512 0.961 . S
C505 H513 0.960 . S
C506 C504 1.381 . S
C506 C507 1.394 . S
C506 H514 0.930 . S
C507 C506 1.394 . S
C507 C508 1.383 . S
C507 H515 0.929 . S
C508 C507 1.383 . S
C508 C509 1.377 . S
C509 H493 0.930 . S
C509 C508 1.377 . S
C509 C510 1.379 . S
C510 H494 0.931 . S
C510 C504 1.383 . S
C510 C509 1.379 . S
H511 C505 0.959 . S
H512 C505 0.961 . S
H513 C505 0.960 . S
H514 C506 0.930 . S
H515 C507 0.929 . S
H516 C524 0.929 . S
H517 C526 0.930 . S
H518 C528 0.930 . S
H519 C531 0.929 . S
H520 C534 0.930 . S
H521 C536 0.960 . S
H522 C536 0.960 . S
H523 C536 0.960 . S
C524 H516 0.929 . S
C524 C525 1.377 . S
C524 C526 1.384 . S
C525 C524 1.377 . S
C525 C531 1.390 . S
C526 H517 0.930 . S
C526 C524 1.384 . S
C526 C527 1.372 . S
C527 C526 1.372 . S
C527 C528 1.400 . S
C527 C532 1.490 . S
C528 H518 0.930 . S
C528 C527 1.400 . S
C528 C531 1.386 . S
H529 C545 0.942 . S
H530 C546 0.931 . S
C531 H519 0.929 . S
C531 C525 1.390 . S
C531 C528 1.386 . S
C532 C527 1.490 . S
C532 C534 1.395 . S
C532 C535 1.403 . S
H533 C539 0.930 1_655 S
C534 H520 0.930 . S
C534 C532 1.395 . S
C534 C537 1.403 . S
C535 C532 1.403 . S
C535 C536 1.524 1_455 S
C535 C539 1.400 . S
C536 H521 0.960 . S
C536 H522 0.960 . S
C536 H523 0.960 . S
C536 C535 1.524 1_655 S
C537 C534 1.403 . S
C537 C538 1.392 . S
C537 C541 1.495 . S
C538 C537 1.392 . S
C538 C539 1.385 . S
C538 C540 1.478 . S
C539 H533 0.930 1_455 S
C539 C535 1.400 . S
C539 C538 1.385 . S
C540 C538 1.478 . S
C540 C542 1.381 . S
C540 C546 1.383 . S
C541 C537 1.495 . S
C541 H547 0.959 . S
C541 H548 0.961 . S
C541 H549 0.960 . S
C542 C540 1.381 . S
C542 C543 1.394 . S
C542 H550 0.930 . S
C543 C542 1.394 . S
C543 C544 1.383 . S
C543 H551 0.929 . S
C544 C543 1.383 . S
C544 C545 1.377 . S
C545 H529 0.942 . S
C545 C544 1.377 . S
C545 C546 1.379 . S
C546 H530 0.931 . S
C546 C540 1.383 . S
C546 C545 1.379 . S
H547 C541 0.959 . S
H548 C541 0.961 . S
H549 C541 0.960 . S
H550 C542 0.930 . S
H551 C543 0.929 . S
H552 C560 0.929 . S
H553 C562 0.930 . S
H554 C564 0.930 1_545 S
H555 C567 0.929 1_545 S
H556 C570 0.930 . S
H557 C572 0.960 . S
H558 C572 0.960 . S
H559 C572 0.959 . S
C560 H552 0.929 . S
C560 C561 1.377 . S
C560 C562 1.384 . S
C561 C560 1.377 . S
C561 C567 1.390 . S
C562 H553 0.930 . S
C562 C560 1.384 . S
C562 C563 1.372 . S
C563 C562 1.372 . S
C563 C564 1.400 . S
C563 C568 1.490 . S
C564 H554 0.930 1_565 S
C564 C563 1.400 . S
C564 C567 1.386 . S
H565 C581 0.930 . S
H566 C582 0.931 . S
C567 H555 0.929 1_565 S
C567 C561 1.390 . S
C567 C564 1.386 . S
C568 C563 1.490 . S
C568 C570 1.395 1_554 S
C568 C571 1.403 . S
H569 C575 0.930 . S
C570 H556 0.930 . S
C570 C568 1.395 1_556 S
C570 C573 1.403 . S
C571 C568 1.403 . S
C571 C572 1.524 . S
C571 C575 1.400 1_554 S
C572 H557 0.960 . S
C572 H558 0.960 . S
C572 H559 0.959 . S
C572 C571 1.524 . S
C573 C570 1.403 . S
C573 C574 1.392 . S
C573 C577 1.495 . S
C574 C573 1.392 . S
C574 C575 1.385 . S
C574 C576 1.478 . S
C575 H569 0.930 . S
C575 C571 1.400 1_556 S
C575 C574 1.385 . S
C576 C574 1.478 . S
C576 C578 1.381 . S
C576 C582 1.383 1_565 S
C577 C573 1.495 . S
C577 H583 0.959 . S
C577 H584 0.961 . S
C577 H585 0.960 . S
C578 C576 1.381 . S
C578 C579 1.394 . S
C578 H586 0.930 . S
C579 C578 1.394 . S
C579 C580 1.394 . S
C579 H587 0.929 . S
C580 C579 1.394 . S
C580 C581 1.368 1_565 S
C581 H565 0.930 . S
C581 C580 1.368 1_545 S
C581 C582 1.379 . S
C582 H566 0.931 . S
C582 C576 1.383 1_545 S
C582 C581 1.379 . S
H583 C577 0.959 . S
H584 C577 0.961 . S
H585 C577 0.960 . S
H586 C578 0.930 . S
H587 C579 0.929 . S
H588 C596 0.929 . S
H589 C598 0.930 . S
H590 C600 0.930 . S
H591 C603 0.929 . S
H592 C606 0.930 . S
H593 C608 0.960 . S
H594 C608 0.960 . S
H595 C608 0.960 1_554 S
C596 H588 0.929 . S
C596 C597 1.377 . S
C596 C598 1.384 . S
C597 C596 1.377 . S
C597 C603 1.390 . S
C598 H589 0.930 . S
C598 C596 1.384 . S
C598 C599 1.372 . S
C599 C598 1.372 . S
C599 C600 1.400 . S
C599 C604 1.490 . S
C600 H590 0.930 . S
C600 C599 1.400 . S
C600 C603 1.386 . S
H601 C617 0.930 . S
H602 C618 0.931 . S
C603 H591 0.929 . S
C603 C597 1.390 . S
C603 C600 1.386 . S
C604 C599 1.490 . S
C604 C606 1.395 . S
C604 C607 1.403 1_554 S
H605 C611 0.930 . S
C606 H592 0.930 . S
C606 C604 1.395 . S
C606 C609 1.403 1_554 S
C607 C604 1.403 1_556 S
C607 C608 1.524 . S
C607 C611 1.400 . S
C608 H593 0.960 . S
C608 H594 0.960 . S
C608 H595 0.960 1_556 S
C608 C607 1.524 . S
C609 C606 1.403 1_556 S
C609 C610 1.392 . S
C609 C613 1.495 . S
C610 C609 1.392 . S
C610 C611 1.385 . S
C610 C612 1.478 . S
C611 H605 0.930 . S
C611 C607 1.400 . S
C611 C610 1.385 . S
C612 C610 1.478 . S
C612 C614 1.381 . S
C612 C618 1.383 . S
C613 C609 1.495 . S
C613 H619 0.959 1_556 S
C613 H620 0.961 . S
C613 H621 0.960 . S
C614 C612 1.381 . S
C614 C615 1.394 . S
C614 H622 0.930 . S
C615 C614 1.394 . S
C615 C616 1.383 . S
C615 H623 0.929 . S
C616 C615 1.383 . S
C616 C617 1.377 . S
C617 H601 0.930 . S
C617 C616 1.377 . S
C617 C618 1.379 . S
C618 H602 0.931 . S
C618 C612 1.383 . S
C618 C617 1.379 . S
H619 C613 0.959 1_554 S
H620 C613 0.961 . S
H621 C613 0.960 . S
H622 C614 0.930 . S
H623 C615 0.929 . S
H624 C632 0.929 . S
H625 C634 0.930 . S
H626 C636 0.930 . S
H627 C639 0.929 . S
H628 C642 0.930 . S
H629 C644 0.960 . S
H630 C644 0.960 . S
H631 C644 0.960 . S
C632 H624 0.929 . S
C632 C633 1.377 . S
C632 C634 1.384 . S
C633 C632 1.377 . S
C633 C639 1.390 . S
C634 H625 0.930 . S
C634 C632 1.384 . S
C634 C635 1.372 . S
C635 C634 1.372 . S
C635 C636 1.400 . S
C635 C640 1.490 . S
C636 H626 0.930 . S
C636 C635 1.400 . S
C636 C639 1.386 . S
H637 C653 0.930 . S
H638 C654 0.931 . S
C639 H627 0.929 . S
C639 C633 1.390 . S
C639 C636 1.386 . S
C640 C635 1.490 . S
C640 C642 1.395 1_554 S
C640 C643 1.403 . S
H641 C647 0.930 . S
C642 H628 0.930 . S
C642 C640 1.395 1_556 S
C642 C645 1.403 . S
C643 C640 1.403 . S
C643 C644 1.524 . S
C643 C647 1.400 1_554 S
C644 H629 0.960 . S
C644 H630 0.960 . S
C644 H631 0.960 . S
C644 C643 1.524 . S
C645 C642 1.403 . S
C645 C646 1.392 . S
C645 C649 1.495 . S
C646 C645 1.392 . S
C646 C647 1.385 . S
C646 C648 1.478 . S
C647 H641 0.930 . S
C647 C643 1.400 1_556 S
C647 C646 1.385 . S
C648 C646 1.478 . S
C648 C650 1.381 . S
C648 C654 1.383 . S
C649 C645 1.495 . S
C649 H655 0.959 . S
C649 H656 0.961 . S
C649 H657 0.960 . S
C650 C648 1.381 . S
C650 C651 1.394 . S
C650 H658 0.930 . S
C651 C650 1.394 . S
C651 C652 1.383 . S
C651 H659 0.929 . S
C652 C651 1.383 . S
C652 C653 1.377 . S
C653 H637 0.930 . S
C653 C652 1.377 . S
C653 C654 1.379 . S
C654 H638 0.931 . S
C654 C648 1.383 . S
C654 C653 1.379 . S
H655 C649 0.959 . S
H656 C649 0.961 . S
H657 C649 0.960 . S
H658 C650 0.930 . S
H659 C651 0.929 . S
H660 C668 0.929 . S
H661 C670 0.930 . S
H662 C672 0.930 1_455 S
H663 C675 0.929 1_455 S
H664 C678 0.930 . S
H665 C680 0.950 1_455 S
H666 C680 0.960 . S
H667 C680 0.960 1_455 S
C668 H660 0.929 . S
C668 C669 1.377 . S
C668 C670 1.384 . S
C669 C668 1.377 . S
C669 C675 1.390 . S
C670 H661 0.930 . S
C670 C668 1.384 . S
C670 C671 1.372 . S
C671 C670 1.372 . S
C671 C672 1.400 . S
C671 C676 1.490 . S
C672 H662 0.930 1_655 S
C672 C671 1.400 . S
C672 C675 1.386 . S
H673 C689 0.930 . S
H674 C690 0.931 . S
C675 H663 0.929 1_655 S
C675 C669 1.390 . S
C675 C672 1.386 . S
C676 C671 1.490 . S
C676 C678 1.395 1_554 S
C676 C679 1.403 . S
H677 C683 0.930 . S
C678 H664 0.930 . S
C678 C676 1.395 1_556 S
C678 C681 1.403 . S
C679 C676 1.403 . S
C679 C680 1.524 . S
C679 C683 1.400 1_554 S
C680 H665 0.950 1_655 S
C680 H666 0.960 . S
C680 H667 0.960 1_655 S
C680 C679 1.524 . S
C681 C678 1.403 . S
C681 C682 1.392 . S
C681 C685 1.495 . S
C682 C681 1.392 . S
C682 C683 1.385 . S
C682 C684 1.478 . S
C683 H677 0.930 . S
C683 C679 1.400 1_556 S
C683 C682 1.385 . S
C684 C682 1.478 . S
C684 C686 1.381 . S
C684 C690 1.383 1_655 S
C685 C681 1.495 . S
C685 H691 0.959 . S
C685 H692 0.961 . S
C685 H693 0.960 . S
C686 C684 1.381 . S
C686 C687 1.394 . S
C686 H694 0.930 . S
C687 C686 1.394 . S
C687 C688 1.383 . S
C687 H695 0.929 . S
C688 C687 1.383 . S
C688 C689 1.377 1_655 S
C689 H673 0.930 . S
C689 C688 1.377 1_455 S
C689 C690 1.379 . S
C690 H674 0.931 . S
C690 C684 1.383 1_455 S
C690 C689 1.379 . S
H691 C685 0.959 . S
H692 C685 0.961 . S
H693 C685 0.960 . S
H694 C686 0.930 . S
H695 C687 0.929 . S
H696 C704 0.929 . S
H697 C706 0.930 . S
H698 C708 0.930 . S
H699 C711 0.929 . S
H700 C714 0.930 1_655 S
H701 C716 0.960 . S
H702 C716 0.960 . S
H703 C716 0.960 . S
C704 H696 0.929 . S
C704 C705 1.377 . S
C704 C706 1.384 . S
C705 C704 1.377 . S
C705 C711 1.390 . S
C706 H697 0.930 . S
C706 C704 1.384 . S
C706 C707 1.372 . S
C707 C706 1.372 . S
C707 C708 1.400 . S
C707 C712 1.490 . S
C708 H698 0.930 . S
C708 C707 1.400 . S
C708 C711 1.386 . S
H709 C725 0.930 . S
H710 C726 0.931 1_655 S
C711 H699 0.929 . S
C711 C705 1.390 . S
C711 C708 1.386 . S
C712 C707 1.490 . S
C712 C714 1.395 . S
C712 C715 1.403 . S
H713 C719 0.930 . S
C714 H700 0.930 1_455 S
C714 C712 1.395 . S
C714 C717 1.399 1_455 S
C715 C712 1.403 . S
C715 C716 1.524 . S
C715 C719 1.400 . S
C716 H701 0.960 . S
C716 H702 0.960 . S
C716 H703 0.960 . S
C716 C715 1.524 . S
C717 C714 1.399 1_655 S
C717 C718 1.384 1_655 S
C717 C721 1.508 . S
C718 C717 1.384 1_455 S
C718 C719 1.385 . S
C718 C720 1.478 . S
C719 H713 0.930 . S
C719 C715 1.400 . S
C719 C718 1.385 . S
C720 C718 1.478 . S
C720 C722 1.381 . S
C720 C726 1.382 . S
C721 C717 1.508 . S
C721 H727 0.959 . S
C721 H728 0.961 . S
C721 H729 0.960 . S
C722 C720 1.381 . S
C722 C723 1.394 . S
C722 H730 0.930 . S
C723 C722 1.394 . S
C723 C724 1.383 1_455 S
C723 H731 0.929 . S
C724 C723 1.383 1_655 S
C724 C725 1.377 . S
C725 H709 0.930 . S
C725 C724 1.377 . S
C725 C726 1.380 1_655 S
C726 H710 0.931 1_455 S
C726 C720 1.382 . S
C726 C725 1.380 1_455 S
H727 C721 0.959 . S
H728 C721 0.961 . S
H729 C721 0.960 . S
H730 C722 0.930 . S
H731 C723 0.929 . S
H732 C740 0.929 . S
H733 C742 0.930 . S
H734 C744 0.930 . S
H735 C747 0.929 . S
H736 C750 0.930 . S
H737 C752 0.960 . S
H738 C752 0.960 . S
H739 C752 0.960 . S
C740 H732 0.929 . S
C740 C741 1.377 . S
C740 C742 1.384 . S
C741 C740 1.377 . S
C741 C747 1.390 . S
C742 H733 0.930 . S
C742 C740 1.384 . S
C742 C743 1.372 . S
C743 C742 1.372 . S
C743 C744 1.400 . S
C743 C748 1.490 . S
C744 H734 0.930 . S
C744 C743 1.400 . S
C744 C747 1.386 . S
H745 C761 0.930 . S
H746 C762 0.931 . S
C747 H735 0.929 . S
C747 C741 1.390 . S
C747 C744 1.386 . S
C748 C743 1.490 . S
C748 C750 1.395 . S
C748 C751 1.403 . S
H749 C755 0.930 . S
C750 H736 0.930 . S
C750 C748 1.395 . S
C750 C753 1.403 . S
C751 C748 1.403 . S
C751 C752 1.524 . S
C751 C755 1.400 . S
C752 H737 0.960 . S
C752 H738 0.960 . S
C752 H739 0.960 . S
C752 C751 1.524 . S
C753 C750 1.403 . S
C753 C754 1.392 . S
C753 C757 1.495 . S
C754 C753 1.392 . S
C754 C755 1.385 . S
C754 C756 1.478 . S
C755 H749 0.930 . S
C755 C751 1.400 . S
C755 C754 1.385 . S
C756 C754 1.478 . S
C756 C758 1.381 . S
C756 C762 1.383 . S
C757 C753 1.495 . S
C757 H763 0.959 . S
C757 H764 0.961 . S
C757 H765 0.960 . S
C758 C756 1.381 . S
C758 C759 1.394 1_545 S
C758 H766 0.930 1_545 S
C759 C758 1.394 1_565 S
C759 C760 1.383 1_565 S
C759 H767 0.929 . S
C760 C759 1.383 1_545 S
C760 C761 1.377 . S
C761 H745 0.930 . S
C761 C760 1.377 . S
C761 C762 1.379 . S
C762 H746 0.931 . S
C762 C756 1.383 . S
C762 C761 1.379 . S
H763 C757 0.959 . S
H764 C757 0.961 . S
H765 C757 0.960 . S
H766 C758 0.930 1_565 S
H767 C759 0.929 . S
H768 C776 0.929 . S
H769 C778 0.930 . S
H770 C780 0.930 . S
H771 C783 0.929 . S
H772 C786 0.930 . S
H773 C788 0.960 . S
H774 C788 0.960 . S
H775 C788 0.960 . S
C776 H768 0.929 . S
C776 C777 1.377 . S
C776 C778 1.384 . S
C777 C776 1.377 . S
C777 C783 1.390 . S
C778 H769 0.930 . S
C778 C776 1.384 . S
C778 C779 1.372 . S
C779 C778 1.372 . S
C779 C780 1.400 . S
C779 C784 1.490 . S
C780 H770 0.930 . S
C780 C779 1.400 . S
C780 C783 1.386 . S
H781 C797 0.930 . S
H782 C798 0.931 . S
C783 H771 0.929 . S
C783 C777 1.390 . S
C783 C780 1.386 . S
C784 C779 1.490 . S
C784 C786 1.395 . S
C784 C787 1.403 . S
H785 C791 0.930 . S
C786 H772 0.930 . S
C786 C784 1.395 . S
C786 C789 1.403 . S
C787 C784 1.403 . S
C787 C788 1.524 . S
C787 C791 1.400 . S
C788 H773 0.960 . S
C788 H774 0.960 . S
C788 H775 0.960 . S
C788 C787 1.524 . S
C789 C786 1.403 . S
C789 C790 1.392 . S
C789 C793 1.495 . S
C790 C789 1.392 . S
C790 C791 1.385 . S
C790 C792 1.478 . S
C791 H785 0.930 . S
C791 C787 1.400 . S
C791 C790 1.385 . S
C792 C790 1.478 . S
C792 C794 1.381 . S
C792 C798 1.383 . S
C793 C789 1.495 . S
C793 H799 0.959 . S
C793 H800 0.961 . S
C793 H801 0.960 . S
C794 C792 1.381 . S
C794 C795 1.394 . S
C794 H802 0.930 . S
C795 C794 1.394 . S
C795 C796 1.383 . S
C795 H803 0.929 . S
C796 C795 1.383 . S
C796 C797 1.377 . S
C797 H781 0.930 . S
C797 C796 1.377 . S
C797 C798 1.379 . S
C798 H782 0.931 . S
C798 C792 1.383 . S
C798 C797 1.379 . S
H799 C793 0.959 . S
H800 C793 0.961 . S
H801 C793 0.960 . S
H802 C794 0.930 . S
H803 C795 0.929 . S
H804 C812 0.929 . S
H805 C814 0.930 . S
H806 C816 0.930 . S
H807 C819 0.929 . S
H808 C822 0.930 . S
H809 C824 0.960 . S
H810 C824 0.960 . S
H811 C824 0.960 . S
C812 H804 0.929 . S
C812 C813 1.377 . S
C812 C814 1.384 . S
C813 C812 1.377 . S
C813 C819 1.390 . S
C814 H805 0.930 . S
C814 C812 1.384 . S
C814 C815 1.372 . S
C815 C814 1.372 . S
C815 C816 1.400 . S
C815 C820 1.490 . S
C816 H806 0.930 . S
C816 C815 1.400 . S
C816 C819 1.386 . S
H817 C833 0.930 . S
H818 C834 0.931 . S
C819 H807 0.929 . S
C819 C813 1.390 . S
C819 C816 1.386 . S
C820 C815 1.490 . S
C820 C822 1.395 . S
C820 C823 1.403 . S
H821 C827 0.930 . S
C822 H808 0.930 . S
C822 C820 1.395 . S
C822 C825 1.403 . S
C823 C820 1.403 . S
C823 C824 1.524 . S
C823 C827 1.400 . S
C824 H809 0.960 . S
C824 H810 0.960 . S
C824 H811 0.960 . S
C824 C823 1.524 . S
C825 C822 1.403 . S
C825 C826 1.392 . S
C825 C829 1.495 . S
C826 C825 1.392 . S
C826 C827 1.385 . S
C826 C828 1.478 . S
C827 H821 0.930 . S
C827 C823 1.400 . S
C827 C826 1.385 . S
C828 C826 1.478 . S
C828 C830 1.381 . S
C828 C834 1.383 . S
C829 C825 1.495 . S
C829 H835 0.959 . S
C829 H836 0.961 . S
C829 H837 0.960 . S
C830 C828 1.381 . S
C830 C831 1.394 . S
C830 H838 0.930 . S
C831 C830 1.394 . S
C831 C832 1.383 . S
C831 H839 0.929 . S
C832 C831 1.383 . S
C832 C833 1.377 . S
C833 H817 0.930 . S
C833 C832 1.377 . S
C833 C834 1.379 . S
C834 H818 0.931 . S
C834 C828 1.383 . S
C834 C833 1.379 . S
H835 C829 0.959 . S
H836 C829 0.961 . S
H837 C829 0.960 . S
H838 C830 0.930 . S
H839 C831 0.929 . S
H840 C848 0.929 . S
H841 C850 0.930 . S
H842 C852 0.930 . S
H843 C855 0.929 . S
H844 C858 0.930 1_556 S
H845 C860 0.960 . S
H846 C860 0.960 . S
H847 C860 0.960 . S
C848 H840 0.929 . S
C848 C849 1.377 . S
C848 C850 1.384 . S
C849 C848 1.377 . S
C849 C855 1.390 . S
C850 H841 0.930 . S
C850 C848 1.384 . S
C850 C851 1.372 . S
C851 C850 1.372 . S
C851 C852 1.400 . S
C851 C856 1.490 . S
C852 H842 0.930 . S
C852 C851 1.400 . S
C852 C855 1.386 . S
H853 C869 0.930 . S
H854 C870 0.931 . S
C855 H843 0.929 . S
C855 C849 1.390 . S
C855 C852 1.386 . S
C856 C851 1.490 . S
C856 C858 1.395 . S
C856 C859 1.403 1_655 S
H857 C863 0.930 . S
C858 H844 0.930 1_554 S
C858 C856 1.395 . S
C858 C861 1.403 1_554 S
C859 C856 1.403 1_455 S
C859 C860 1.524 . S
C859 C863 1.400 . S
C860 H845 0.960 . S
C860 H846 0.960 . S
C860 H847 0.960 . S
C860 C859 1.524 . S
C861 C858 1.403 1_556 S
C861 C862 1.392 . S
C861 C865 1.495 . S
C862 C861 1.392 . S
C862 C863 1.385 1_656 S
C862 C864 1.478 . S
C863 H857 0.930 . S
C863 C859 1.400 . S
C863 C862 1.385 1_454 S
C864 C862 1.478 . S
C864 C866 1.381 1_655 S
C864 C870 1.383 . S
C865 C861 1.495 . S
C865 H871 0.959 . S
C865 H872 0.961 . S
C865 H873 0.960 . S
C866 C864 1.381 1_455 S
C866 C867 1.394 . S
C866 H874 0.930 . S
C867 C866 1.394 . S
C867 C868 1.383 . S
C867 H875 0.929 . S
C868 C867 1.383 . S
C868 C869 1.377 . S
C869 H853 0.930 . S
C869 C868 1.377 . S
C869 C870 1.379 1_455 S
C870 H854 0.931 . S
C870 C864 1.383 . S
C870 C869 1.379 1_655 S
H871 C865 0.959 . S
H872 C865 0.961 . S
H873 C865 0.960 . S
H874 C866 0.930 . S
H875 C867 0.929 . S
H876 C884 0.929 . S
H877 C886 0.930 . S
H878 C888 0.930 . S
H879 C891 0.929 . S
H880 C894 0.923 1_545 S
H881 C896 0.960 . S
H882 C896 0.960 . S
H883 C896 0.960 . S
C884 H876 0.929 . S
C884 C885 1.377 . S
C884 C886 1.384 . S
C885 C884 1.377 . S
C885 C891 1.390 . S
C886 H877 0.930 . S
C886 C884 1.384 . S
C886 C887 1.372 . S
C887 C886 1.372 . S
C887 C888 1.400 . S
C887 C892 1.490 . S
C888 H878 0.930 . S
C888 C887 1.400 . S
C888 C891 1.386 . S
H889 C905 0.930 . S
H890 C906 0.931 . S
C891 H879 0.929 . S
C891 C885 1.390 . S
C891 C888 1.386 . S
C892 C887 1.490 . S
C892 C894 1.409 . S
C892 C895 1.403 . S
H893 C899 0.930 . S
C894 H880 0.923 1_565 S
C894 C892 1.409 . S
C894 C897 1.397 1_565 S
C895 C892 1.403 . S
C895 C896 1.524 1_554 S
C895 C899 1.400 1_554 S
C896 H881 0.960 . S
C896 H882 0.960 . S
C896 H883 0.960 . S
C896 C895 1.524 1_556 S
C897 C894 1.397 1_545 S
C897 C898 1.392 1_544 S
C897 C901 1.495 . S
C898 C897 1.392 1_566 S
C898 C899 1.385 . S
C898 C900 1.478 1_565 S
C899 H893 0.930 . S
C899 C895 1.400 1_556 S
C899 C898 1.385 . S
C900 C898 1.478 1_545 S
C900 C902 1.381 1_545 S
C900 C906 1.383 . S
C901 C897 1.495 . S
C901 H907 0.959 . S
C901 H908 0.961 . S
C901 H909 0.960 . S
C902 C900 1.381 1_565 S
C902 C903 1.394 1_565 S
C902 H910 0.930 . S
C903 C902 1.394 1_545 S
C903 C904 1.383 . S
C903 H911 0.929 1_545 S
C904 C903 1.383 . S
C904 C905 1.377 . S
C905 H889 0.930 . S
C905 C904 1.377 . S
C905 C906 1.379 . S
C906 H890 0.931 . S
C906 C900 1.383 . S
C906 C905 1.379 . S
H907 C901 0.959 . S
H908 C901 0.961 . S
H909 C901 0.960 . S
H910 C902 0.930 . S
H911 C903 0.929 1_565 S
H912 C920 0.929 . S
H913 C922 0.930 . S
H914 C924 0.930 . S
H915 C927 0.929 . S
H916 C930 0.930 . S
H917 C932 0.960 . S
H918 C932 0.960 . S
H919 C932 0.960 . S
C920 H912 0.929 . S
C920 C921 1.377 . S
C920 C922 1.384 . S
C921 C920 1.377 . S
C921 C927 1.390 . S
C922 H913 0.930 . S
C922 C920 1.384 . S
C922 C923 1.372 . S
C923 C922 1.372 . S
C923 C924 1.400 . S
C923 C928 1.490 . S
C924 H914 0.930 . S
C924 C923 1.400 . S
C924 C927 1.386 . S
H925 C941 0.930 . S
H926 C942 0.931 . S
C927 H915 0.929 . S
C927 C921 1.390 . S
C927 C924 1.386 . S
C928 C923 1.490 . S
C928 C930 1.395 . S
C928 C931 1.403 . S
H929 C935 0.930 . S
C930 H916 0.930 . S
C930 C928 1.395 . S
C930 C933 1.403 1_554 S
C931 C928 1.403 . S
C931 C932 1.524 . S
C931 C935 1.400 . S
C932 H917 0.960 . S
C932 H918 0.960 . S
C932 H919 0.960 . S
C932 C931 1.524 . S
C933 C930 1.403 1_556 S
C933 C934 1.392 . S
C933 C937 1.495 . S
C934 C933 1.392 . S
C934 C935 1.385 1_556 S
C934 C936 1.478 . S
C935 H929 0.930 . S
C935 C931 1.400 . S
C935 C934 1.385 1_554 S
C936 C934 1.478 . S
C936 C938 1.381 . S
C936 C942 1.383 . S
C937 C933 1.495 . S
C937 H943 0.959 . S
C937 H944 0.961 . S
C937 H945 0.960 . S
C938 C936 1.381 . S
C938 C939 1.394 . S
C938 H946 0.930 . S
C939 C938 1.394 . S
C939 C940 1.383 . S
C939 H947 0.929 . S
C940 C939 1.383 . S
C940 C941 1.377 . S
C941 H925 0.930 . S
C941 C940 1.377 . S
C941 C942 1.379 . S
C942 H926 0.931 . S
C942 C936 1.383 . S
C942 C941 1.379 . S
H943 C937 0.959 . S
H944 C937 0.961 . S
H945 C937 0.960 . S
H946 C938 0.930 . S
H947 C939 0.929 . S
H948 C956 0.929 . S
H949 C958 0.930 . S
H950 C960 0.930 . S
H951 C963 0.929 . S
H952 C966 0.930 . S
H953 C968 0.960 . S
H954 C968 0.960 1_554 S
H955 C968 0.960 . S
C956 H948 0.929 . S
C956 C957 1.377 . S
C956 C958 1.384 . S
C957 C956 1.377 . S
C957 C963 1.390 . S
C958 H949 0.930 . S
C958 C956 1.384 . S
C958 C959 1.372 . S
C959 C958 1.372 . S
C959 C960 1.400 . S
C959 C964 1.490 . S
C960 H950 0.930 . S
C960 C959 1.400 . S
C960 C963 1.386 . S
H961 C977 0.930 . S
H962 C978 0.931 . S
C963 H951 0.929 . S
C963 C957 1.390 . S
C963 C960 1.386 . S
C964 C959 1.490 . S
C964 C966 1.395 . S
C964 C967 1.403 . S
H965 C971 0.930 . S
C966 H952 0.930 . S
C966 C964 1.395 . S
C966 C969 1.403 . S
C967 C964 1.403 . S
C967 C968 1.524 1_554 S
C967 C971 1.400 1_554 S
C968 H953 0.960 . S
C968 H954 0.960 1_556 S
C968 H955 0.960 . S
C968 C967 1.524 1_556 S
C969 C966 1.403 . S
C969 C970 1.392 1_554 S
C969 C973 1.495 . S
C970 C969 1.392 1_556 S
C970 C971 1.385 . S
C970 C972 1.478 . S
C971 H965 0.930 . S
C971 C967 1.400 1_556 S
C971 C970 1.385 . S
C972 C970 1.478 . S
C972 C974 1.381 . S
C972 C978 1.383 . S
C973 C969 1.495 . S
C973 H979 0.959 . S
C973 H980 0.961 . S
C973 H981 0.960 . S
C974 C972 1.381 . S
C974 C975 1.394 . S
C974 H982 0.922 1_556 S
C975 C974 1.394 . S
C975 C976 1.383 . S
C975 H983 0.929 . S
C976 C975 1.383 . S
C976 C977 1.377 . S
C977 H961 0.930 . S
C977 C976 1.377 . S
C977 C978 1.379 . S
C978 H962 0.931 . S
C978 C972 1.383 . S
C978 C977 1.379 . S
H979 C973 0.959 . S
H980 C973 0.961 . S
H981 C973 0.960 . S
H982 C974 0.922 1_554 S
H983 C975 0.929 . S
H984 C992 0.929 . S
H985 C994 0.930 . S
H986 C996 0.930 . S
H987 C999 0.929 . S
H988 C1002 0.930 . S
H989 C1004 0.960 . S
H990 C1004 0.960 . S
H991 C1004 0.960 . S
C992 H984 0.929 . S
C992 C993 1.377 . S
C992 C994 1.384 . S
C993 C992 1.377 . S
C993 C999 1.390 . S
C994 H985 0.930 . S
C994 C992 1.384 . S
C994 C995 1.372 . S
C995 C994 1.372 . S
C995 C996 1.400 . S
C995 C1000 1.490 . S
C996 H986 0.930 . S
C996 C995 1.400 . S
C996 C999 1.386 . S
H997 C1013 0.930 . S
H998 C1014 0.931 . S
C999 H987 0.929 . S
C999 C993 1.390 . S
C999 C996 1.386 . S
C1000 C995 1.490 . S
C1000 C1002 1.395 . S
C1000 C1003 1.403 . S
H1001 C1007 0.930 . S
C1002 H988 0.930 . S
C1002 C1000 1.395 . S
C1002 C1005 1.403 . S
C1003 C1000 1.403 . S
C1003 C1004 1.524 . S
C1003 C1007 1.400 . S
C1004 H989 0.960 . S
C1004 H990 0.960 . S
C1004 H991 0.960 . S
C1004 C1003 1.524 . S
C1005 C1002 1.403 . S
C1005 C1006 1.392 . S
C1005 C1009 1.495 . S
C1006 C1005 1.392 . S
C1006 C1007 1.385 . S
C1006 C1008 1.478 . S
C1007 H1001 0.930 . S
C1007 C1003 1.400 . S
C1007 C1006 1.385 . S
C1008 C1006 1.478 . S
C1008 C1010 1.381 . S
C1008 C1014 1.383 . S
C1009 C1005 1.495 . S
C1009 H1015 0.959 . S
C1009 H1016 0.961 . S
C1009 H1017 0.960 . S
C1010 C1008 1.381 . S
C1010 C1011 1.394 . S
C1010 H1018 0.930 . S
C1011 C1010 1.394 . S
C1011 C1012 1.383 . S
C1011 H1019 0.929 1_455 S
C1012 C1011 1.383 . S
C1012 C1013 1.377 . S
C1013 H997 0.930 . S
C1013 C1012 1.377 . S
C1013 C1014 1.379 . S
C1014 H998 0.931 . S
C1014 C1008 1.383 . S
C1014 C1013 1.379 . S
H1015 C1009 0.959 . S
H1016 C1009 0.961 . S
H1017 C1009 0.960 . S
H1018 C1010 0.930 . S
H1019 C1011 0.929 1_655 S
H1020 C1028 0.929 1_554 S
H1021 C1030 0.930 . S
H1022 C1032 0.930 . S
H1023 C1035 0.929 . S
H1024 C1038 0.930 . S
H1025 C1040 0.960 . S
H1026 C1040 0.960 . S
H1027 C1040 0.960 . S
C1028 H1020 0.929 1_556 S
C1028 C1029 1.377 . S
C1028 C1030 1.384 . S
C1029 C1028 1.377 . S
C1029 C1035 1.390 . S
C1030 H1021 0.930 . S
C1030 C1028 1.384 . S
C1030 C1031 1.372 . S
C1031 C1030 1.372 . S
C1031 C1032 1.400 . S
C1031 C1036 1.490 . S
C1032 H1022 0.930 . S
C1032 C1031 1.400 . S
C1032 C1035 1.386 . S
H1033 C1049 0.930 . S
H1034 C1050 0.931 . S
C1035 H1023 0.929 . S
C1035 C1029 1.390 . S
C1035 C1032 1.386 . S
C1036 C1031 1.490 . S
C1036 C1038 1.395 . S
C1036 C1039 1.403 . S
H1037 C1043 0.930 . S
C1038 H1024 0.930 . S
C1038 C1036 1.395 . S
C1038 C1041 1.403 . S
C1039 C1036 1.403 . S
C1039 C1040 1.524 . S
C1039 C1043 1.400 . S
C1040 H1025 0.960 . S
C1040 H1026 0.960 . S
C1040 H1027 0.960 . S
C1040 C1039 1.524 . S
C1041 C1038 1.403 . S
C1041 C1042 1.392 . S
C1041 C1045 1.495 1_545 S
C1042 C1041 1.392 . S
C1042 C1043 1.385 . S
C1042 C1044 1.478 . S
C1043 H1037 0.930 . S
C1043 C1039 1.400 . S
C1043 C1042 1.385 . S
C1044 C1042 1.478 . S
C1044 C1046 1.381 . S
C1044 C1050 1.383 . S
C1045 C1041 1.495 1_565 S
C1045 H1051 0.959 . S
C1045 H1052 0.961 . S
C1045 H1053 0.960 . S
C1046 C1044 1.381 . S
C1046 C1047 1.394 . S
C1046 H1054 0.930 . S
C1047 C1046 1.394 . S
C1047 C1048 1.383 . S
C1047 H1055 0.929 . S
C1048 C1047 1.383 . S
C1048 C1049 1.377 . S
C1049 H1033 0.930 . S
C1049 C1048 1.377 . S
C1049 C1050 1.379 . S
C1050 H1034 0.931 . S
C1050 C1044 1.383 . S
C1050 C1049 1.379 . S
H1051 C1045 0.959 . S
H1052 C1045 0.961 . S
H1053 C1045 0.960 . S
H1054 C1046 0.930 . S
H1055 C1047 0.929 . S
H1056 C1064 0.929 . S
H1057 C1066 0.930 . S
H1058 C1068 0.930 . S
H1059 C1071 0.929 . S
H1060 C1074 0.930 . S
H1061 C1076 0.960 . S
H1062 C1076 0.960 . S
H1063 C1076 0.960 . S
C1064 H1056 0.929 . S
C1064 C1065 1.377 . S
C1064 C1066 1.384 . S
C1065 C1064 1.377 . S
C1065 C1071 1.390 . S
C1066 H1057 0.930 . S
C1066 C1064 1.384 . S
C1066 C1067 1.372 . S
C1067 C1066 1.372 . S
C1067 C1068 1.400 . S
C1067 C1072 1.490 . S
C1068 H1058 0.930 . S
C1068 C1067 1.400 . S
C1068 C1071 1.386 . S
H1069 C1085 0.930 . S
H1070 C1086 0.931 . S
C1071 H1059 0.929 . S
C1071 C1065 1.390 . S
C1071 C1068 1.386 . S
C1072 C1067 1.490 . S
C1072 C1074 1.395 . S
C1072 C1075 1.403 . S
H1073 C1079 0.930 . S
C1074 H1060 0.930 . S
C1074 C1072 1.395 . S
C1074 C1077 1.403 . S
C1075 C1072 1.403 . S
C1075 C1076 1.524 . S
C1075 C1079 1.400 . S
C1076 H1061 0.960 . S
C1076 H1062 0.960 . S
C1076 H1063 0.960 . S
C1076 C1075 1.524 . S
C1077 C1074 1.403 . S
C1077 C1078 1.392 . S
C1077 C1081 1.495 . S
C1078 C1077 1.392 . S
C1078 C1079 1.385 . S
C1078 C1080 1.478 . S
C1079 H1073 0.930 . S
C1079 C1075 1.400 . S
C1079 C1078 1.385 . S
C1080 C1078 1.478 . S
C1080 C1082 1.381 . S
C1080 C1086 1.383 . S
C1081 C1077 1.495 . S
C1081 H1087 0.959 . S
C1081 H1088 0.961 . S
C1081 H1089 0.960 . S
C1082 C1080 1.381 . S
C1082 C1083 1.394 . S
C1082 H1090 0.930 . S
C1083 C1082 1.394 . S
C1083 C1084 1.383 . S
C1083 H1091 0.929 . S
C1084 C1083 1.383 . S
C1084 C1085 1.377 . S
C1085 H1069 0.930 . S
C1085 C1084 1.377 . S
C1085 C1086 1.379 . S
C1086 H1070 0.931 . S
C1086 C1080 1.383 . S
C1086 C1085 1.379 . S
H1087 C1081 0.959 . S
H1088 C1081 0.961 . S
H1089 C1081 0.960 . S
H1090 C1082 0.930 . S
H1091 C1083 0.929 . S
H1092 C1100 0.929 . S
H1093 C1102 0.930 . S
H1094 C1104 0.930 . S
H1095 C1107 0.929 . S
H1096 C1110 0.930 . S
H1097 C1112 0.960 . S
H1098 C1112 0.960 . S
H1099 C1112 0.960 . S
C1100 H1092 0.929 . S
C1100 C1101 1.377 . S
C1100 C1102 1.384 . S
C1101 C1100 1.377 . S
C1101 C1107 1.390 . S
C1102 H1093 0.930 . S
C1102 C1100 1.384 . S
C1102 C1103 1.372 . S
C1103 C1102 1.372 . S
C1103 C1104 1.400 . S
C1103 C1108 1.490 . S
C1104 H1094 0.930 . S
C1104 C1103 1.400 . S
C1104 C1107 1.386 . S
H1105 C1121 0.930 . S
H1106 C1122 0.931 . S
C1107 H1095 0.929 . S
C1107 C1101 1.390 . S
C1107 C1104 1.386 . S
C1108 C1103 1.490 . S
C1108 C1110 1.395 . S
C1108 C1111 1.403 . S
H1109 C1115 0.930 . S
C1110 H1096 0.930 . S
C1110 C1108 1.395 . S
C1110 C1113 1.403 . S
C1111 C1108 1.403 . S
C1111 C1112 1.524 . S
C1111 C1115 1.400 . S
C1112 H1097 0.960 . S
C1112 H1098 0.960 . S
C1112 H1099 0.960 . S
C1112 C1111 1.524 . S
C1113 C1110 1.403 . S
C1113 C1114 1.392 . S
C1113 C1117 1.495 . S
C1114 C1113 1.392 . S
C1114 C1115 1.385 . S
C1114 C1116 1.478 . S
C1115 H1109 0.930 . S
C1115 C1111 1.400 . S
C1115 C1114 1.385 . S
C1116 C1114 1.478 . S
C1116 C1118 1.381 . S
C1116 C1122 1.383 . S
C1117 C1113 1.495 . S
C1117 H1123 0.959 . S
C1117 H1124 0.961 . S
C1117 H1125 0.960 . S
C1118 C1116 1.381 . S
C1118 C1119 1.394 . S
C1118 H1126 0.930 . S
C1119 C1118 1.394 . S
C1119 C1120 1.383 . S
C1119 H1127 0.929 . S
C1120 C1119 1.383 . S
C1120 C1121 1.377 . S
C1121 H1105 0.930 . S
C1121 C1120 1.377 . S
C1121 C1122 1.379 . S
C1122 H1106 0.931 . S
C1122 C1116 1.383 . S
C1122 C1121 1.379 . S
H1123 C1117 0.959 . S
H1124 C1117 0.961 . S
H1125 C1117 0.960 . S
H1126 C1118 0.930 . S
H1127 C1119 0.929 . S
H1128 C1136 0.929 . S
H1129 C1138 0.930 . S
H1130 C1140 0.930 . S
H1131 C1143 0.929 . S
H1132 C1146 0.930 . S
H1133 C1148 0.960 . S
H1134 C1148 0.960 . S
H1135 C1148 0.960 . S
C1136 H1128 0.929 . S
C1136 C1137 1.377 . S
C1136 C1138 1.384 . S
C1137 C1136 1.377 . S
C1137 C1143 1.390 . S
C1138 H1129 0.930 . S
C1138 C1136 1.384 . S
C1138 C1139 1.372 . S
C1139 C1138 1.372 . S
C1139 C1140 1.400 . S
C1139 C1144 1.490 . S
C1140 H1130 0.930 . S
C1140 C1139 1.400 . S
C1140 C1143 1.386 . S
H1141 C1157 0.930 . S
H1142 C1158 0.931 . S
C1143 H1131 0.929 . S
C1143 C1137 1.390 . S
C1143 C1140 1.386 . S
C1144 C1139 1.490 . S
C1144 C1146 1.395 . S
C1144 C1147 1.403 . S
H1145 C1151 0.930 . S
C1146 H1132 0.930 . S
C1146 C1144 1.395 . S
C1146 C1149 1.403 . S
C1147 C1144 1.403 . S
C1147 C1148 1.524 . S
C1147 C1151 1.400 . S
C1148 H1133 0.960 . S
C1148 H1134 0.960 . S
C1148 H1135 0.960 . S
C1148 C1147 1.524 . S
C1149 C1146 1.403 . S
C1149 C1150 1.392 . S
C1149 C1153 1.495 . S
C1150 C1149 1.392 . S
C1150 C1151 1.385 . S
C1150 C1152 1.478 . S
C1151 H1145 0.930 . S
C1151 C1147 1.400 . S
C1151 C1150 1.385 . S
C1152 C1150 1.478 . S
C1152 C1154 1.381 . S
C1152 C1158 1.383 1_655 S
C1153 C1149 1.495 . S
C1153 H1159 0.959 . S
C1153 H1160 0.961 1_655 S
C1153 H1161 0.960 . S
C1154 C1152 1.381 . S
C1154 C1155 1.394 . S
C1154 H1162 0.930 . S
C1155 C1154 1.394 . S
C1155 C1156 1.383 . S
C1155 H1163 0.929 . S
C1156 C1155 1.383 . S
C1156 C1157 1.377 1_655 S
C1157 H1141 0.930 . S
C1157 C1156 1.377 1_455 S
C1157 C1158 1.379 . S
C1158 H1142 0.931 . S
C1158 C1152 1.383 1_455 S
C1158 C1157 1.379 . S
H1159 C1153 0.959 . S
H1160 C1153 0.961 1_455 S
H1161 C1153 0.960 . S
H1162 C1154 0.930 . S
H1163 C1155 0.929 . S
H1164 C1172 0.929 . S
H1165 C1174 0.930 . S
H1166 C1176 0.930 . S
H1167 C1179 0.929 . S
H1168 C1182 0.930 . S
H1169 C1184 0.960 . S
H1170 C1184 0.960 . S
H1171 C1184 0.960 . S
C1172 H1164 0.929 . S
C1172 C1173 1.377 . S
C1172 C1174 1.384 . S
C1173 C1172 1.377 . S
C1173 C1179 1.390 . S
C1174 H1165 0.930 . S
C1174 C1172 1.384 . S
C1174 C1175 1.372 . S
C1175 C1174 1.372 . S
C1175 C1176 1.400 . S
C1175 C1180 1.490 . S
C1176 H1166 0.930 . S
C1176 C1175 1.400 . S
C1176 C1179 1.386 . S
H1177 C1193 0.930 . S
H1178 C1194 0.931 . S
C1179 H1167 0.929 . S
C1179 C1173 1.390 . S
C1179 C1176 1.386 . S
C1180 C1175 1.490 . S
C1180 C1182 1.395 . S
C1180 C1183 1.403 . S
H1181 C1187 0.930 1_545 S
C1182 H1168 0.930 . S
C1182 C1180 1.395 . S
C1182 C1185 1.403 . S
C1183 C1180 1.403 . S
C1183 C1184 1.524 1_565 S
C1183 C1187 1.400 . S
C1184 H1169 0.960 . S
C1184 H1170 0.960 . S
C1184 H1171 0.960 . S
C1184 C1183 1.524 1_545 S
C1185 C1182 1.403 . S
C1185 C1186 1.392 . S
C1185 C1189 1.495 . S
C1186 C1185 1.392 . S
C1186 C1187 1.385 . S
C1186 C1188 1.478 . S
C1187 H1181 0.930 1_565 S
C1187 C1183 1.400 . S
C1187 C1186 1.385 . S
C1188 C1186 1.478 . S
C1188 C1190 1.381 . S
C1188 C1194 1.383 . S
C1189 C1185 1.495 . S
C1189 H1195 0.959 . S
C1189 H1196 0.961 . S
C1189 H1197 0.960 . S
C1190 C1188 1.381 . S
C1190 C1191 1.394 . S
C1190 H1198 0.930 . S
C1191 C1190 1.394 . S
C1191 C1192 1.383 . S
C1191 H1199 0.929 1_565 S
C1192 C1191 1.383 . S
C1192 C1193 1.377 . S
C1193 H1177 0.930 . S
C1193 C1192 1.377 . S
C1193 C1194 1.379 . S
C1194 H1178 0.931 . S
C1194 C1188 1.383 . S
C1194 C1193 1.379 . S
H1195 C1189 0.959 . S
H1196 C1189 0.961 . S
H1197 C1189 0.960 . S
H1198 C1190 0.930 . S
H1199 C1191 0.929 1_545 S
H1200 C1208 0.929 . S
H1201 C1210 0.930 . S
H1202 C1212 0.930 . S
H1203 C1215 0.929 . S
H1204 C1218 0.930 . S
H1205 C1220 0.960 . S
H1206 C1220 0.960 . S
H1207 C1220 0.960 . S
C1208 H1200 0.929 . S
C1208 C1209 1.377 . S
C1208 C1210 1.384 . S
C1209 C1208 1.377 . S
C1209 C1215 1.390 . S
C1210 H1201 0.930 . S
C1210 C1208 1.384 . S
C1210 C1211 1.372 . S
C1211 C1210 1.372 . S
C1211 C1212 1.400 . S
C1211 C1216 1.490 . S
C1212 H1202 0.930 . S
C1212 C1211 1.400 . S
C1212 C1215 1.386 . S
H1213 C1229 0.930 . S
H1214 C1230 0.931 . S
C1215 H1203 0.929 . S
C1215 C1209 1.390 . S
C1215 C1212 1.386 . S
C1216 C1211 1.490 . S
C1216 C1218 1.395 . S
C1216 C1219 1.403 . S
H1217 C1223 0.930 . S
C1218 H1204 0.930 . S
C1218 C1216 1.395 . S
C1218 C1221 1.403 . S
C1219 C1216 1.403 . S
C1219 C1220 1.524 . S
C1219 C1223 1.400 . S
C1220 H1205 0.960 . S
C1220 H1206 0.960 . S
C1220 H1207 0.960 . S
C1220 C1219 1.524 . S
C1221 C1218 1.403 . S
C1221 C1222 1.392 . S
C1221 C1225 1.495 . S
C1222 C1221 1.392 . S
C1222 C1223 1.385 . S
C1222 C1224 1.478 . S
C1223 H1217 0.930 . S
C1223 C1219 1.400 . S
C1223 C1222 1.385 . S
C1224 C1222 1.478 . S
C1224 C1226 1.381 . S
C1224 C1230 1.383 . S
C1225 C1221 1.495 . S
C1225 H1231 0.959 . S
C1225 H1232 0.961 . S
C1225 H1233 0.960 . S
C1226 C1224 1.381 . S
C1226 C1227 1.394 . S
C1226 H1234 0.930 . S
C1227 C1226 1.394 . S
C1227 C1228 1.383 . S
C1227 H1235 0.929 . S
C1228 C1227 1.383 . S
C1228 C1229 1.377 . S
C1229 H1213 0.930 . S
C1229 C1228 1.377 . S
C1229 C1230 1.379 . S
C1230 H1214 0.931 . S
C1230 C1224 1.383 . S
C1230 C1229 1.379 . S
H1231 C1225 0.959 . S
H1232 C1225 0.961 . S
H1233 C1225 0.960 . S
H1234 C1226 0.930 . S
H1235 C1227 0.929 . S
H1236 C1244 0.929 . S
H1237 C1246 0.930 . S
H1238 C1248 0.930 . S
H1239 C1251 0.929 . S
H1240 C1254 0.930 . S
H1241 C1256 0.960 . S
H1242 C1256 0.960 . S
H1243 C1256 0.960 . S
C1244 H1236 0.929 . S
C1244 C1245 1.377 . S
C1244 C1246 1.384 . S
C1245 C1244 1.377 . S
C1245 C1251 1.390 . S
C1246 H1237 0.930 . S
C1246 C1244 1.384 . S
C1246 C1247 1.372 . S
C1247 C1246 1.372 . S
C1247 C1248 1.400 . S
C1247 C1252 1.490 . S
C1248 H1238 0.930 . S
C1248 C1247 1.400 . S
C1248 C1251 1.386 . S
H1249 C1265 0.930 . S
H1250 C1266 0.931 . S
C1251 H1239 0.929 . S
C1251 C1245 1.390 . S
C1251 C1248 1.386 . S
C1252 C1247 1.490 . S
C1252 C1254 1.395 . S
C1252 C1255 1.403 . S
H1253 C1259 0.930 . S
C1254 H1240 0.930 . S
C1254 C1252 1.395 . S
C1254 C1257 1.403 . S
C1255 C1252 1.403 . S
C1255 C1256 1.524 . S
C1255 C1259 1.400 . S
C1256 H1241 0.960 . S
C1256 H1242 0.960 . S
C1256 H1243 0.960 . S
C1256 C1255 1.524 . S
C1257 C1254 1.403 . S
C1257 C1258 1.392 . S
C1257 C1261 1.495 . S
C1258 C1257 1.392 . S
C1258 C1259 1.385 . S
C1258 C1260 1.478 . S
C1259 H1253 0.930 . S
C1259 C1255 1.400 . S
C1259 C1258 1.385 . S
C1260 C1258 1.478 . S
C1260 C1262 1.381 . S
C1260 C1266 1.383 . S
C1261 C1257 1.495 . S
C1261 H1267 0.959 . S
C1261 H1268 0.961 . S
C1261 H1269 0.960 . S
C1262 C1260 1.381 . S
C1262 C1263 1.394 . S
C1262 H1270 0.930 . S
C1263 C1262 1.394 . S
C1263 C1264 1.383 . S
C1263 H1271 0.929 . S
C1264 C1263 1.383 . S
C1264 C1265 1.377 . S
C1265 H1249 0.930 . S
C1265 C1264 1.377 . S
C1265 C1266 1.379 . S
C1266 H1250 0.931 . S
C1266 C1260 1.383 . S
C1266 C1265 1.379 . S
H1267 C1261 0.959 . S
H1268 C1261 0.961 . S
H1269 C1261 0.960 . S
H1270 C1262 0.930 . S
H1271 C1263 0.929 . S
C417 C61 1.737 . S
C436 C140 1.814 . S
C472 C223 1.828 . S
C453 C70 1.755 . S
C508 C308 1.797 . S
C489 C43 1.726 . S
C544 C392 1.808 . S
C525 C52 1.712 . S
C580 C128 1.823 1_565 S
C561 C25 1.745 . S
C597 C34 1.751 . S
C616 C211 1.841 . S
C633 C7 1.727 . S
C652 C296 1.802 . S
C669 C16 1.725 . S
C688 C380 1.807 1_655 S
C724 C130 0.364 . S
C705 C50 0.347 . S
C760 C226 0.479 . S
C741 C59 0.291 . S
C796 C298 0.486 . S
C777 C67 0.325 . S
C813 C41 0.329 . S
C832 C382 0.444 . S
C849 C14 0.317 . S
C868 C142 0.528 . S
C904 C214 0.462 . S
C885 C23 0.299 . S
C940 C310 0.383 . S
C921 C31 0.326 . S
C957 C5 0.315 . S
C976 C394 0.406 . S
C993 C49 1.783 . S
C1012 C127 1.940 . S
C1029 C58 1.768 . S
C1048 C212 1.906 . S
C1084 C295 1.956 . S
C1065 C68 1.796 . S
C1120 C379 1.973 . S
C1101 C40 1.810 . S
C1137 C13 1.784 . S
C1156 C139 1.939 . S
C1192 C224 1.916 . S
C1173 C22 1.769 . S
C1228 C307 1.966 . S
C1209 C32 1.794 . S
C1245 C4 1.807 . S
C1264 C391 1.963 . S
