# Generated by pormake.
# Topology zzz, (3,6)-cn, num edge types: 1
# Building blocks:
#     Node 0, Type 0, BuildingBlock: QEWDON_clean_linker_0, # of connection points: 3
#     Node 1, Type 0, BuildingBlock: QEWDON_clean_linker_0, # of connection points: 3
#     Node 2, Type 0, BuildingBlock: QEWDON_clean_linker_0, # of connection points: 3
#     Node 3, Type 0, BuildingBlock: QEWDON_clean_linker_0, # of connection points: 3
#     Node 4, Type 0, BuildingBlock: QEWDON_clean_linker_0, # of connection points: 3
#     Node 5, Type 0, BuildingBlock: QEWDON_clean_linker_0, # of connection points: 3
#     Node 6, Type 0, BuildingBlock: QEWDON_clean_linker_0, # of connection points: 3
#     Node 7, Type 0, BuildingBlock: QEWDON_clean_linker_0, # of connection points: 3
#     Node 8, Type 1, BuildingBlock: JUFBIX_clean_sbu_0, # of connection points: 6
#     Node 9, Type 1, BuildingBlock: JUFBIX_clean_sbu_0, # of connection points: 6
#     Node 10, Type 1, BuildingBlock: JUFBIX_clean_sbu_0, # of connection points: 6
#     Node 11, Type 1, BuildingBlock: JUFBIX_clean_sbu_0, # of connection points: 6
#     Edge 12, Type (0, 1), BuildingBlock: TEMPAE_clean_linker_10, # of connection points: 2
#     Edge 13, Type (0, 1), BuildingBlock: TEMPAE_clean_linker_10, # of connection points: 2
#     Edge 14, Type (0, 1), BuildingBlock: TEMPAE_clean_linker_10, # of connection points: 2
#     Edge 15, Type (0, 1), BuildingBlock: TEMPAE_clean_linker_10, # of connection points: 2
#     Edge 16, Type (0, 1), BuildingBlock: TEMPAE_clean_linker_10, # of connection points: 2
#     Edge 17, Type (0, 1), BuildingBlock: TEMPAE_clean_linker_10, # of connection points: 2
#     Edge 18, Type (0, 1), BuildingBlock: TEMPAE_clean_linker_10, # of connection points: 2
#     Edge 19, Type (0, 1), BuildingBlock: TEMPAE_clean_linker_10, # of connection points: 2
#     Edge 20, Type (0, 1), BuildingBlock: TEMPAE_clean_linker_10, # of connection points: 2
#     Edge 21, Type (0, 1), BuildingBlock: TEMPAE_clean_linker_10, # of connection points: 2
#     Edge 22, Type (0, 1), BuildingBlock: TEMPAE_clean_linker_10, # of connection points: 2
#     Edge 23, Type (0, 1), BuildingBlock: TEMPAE_clean_linker_10, # of connection points: 2
#     Edge 24, Type (0, 1), BuildingBlock: TEMPAE_clean_linker_10, # of connection points: 2
#     Edge 25, Type (0, 1), BuildingBlock: TEMPAE_clean_linker_10, # of connection points: 2
#     Edge 26, Type (0, 1), BuildingBlock: TEMPAE_clean_linker_10, # of connection points: 2
#     Edge 27, Type (0, 1), BuildingBlock: TEMPAE_clean_linker_10, # of connection points: 2
#     Edge 28, Type (0, 1), BuildingBlock: TEMPAE_clean_linker_10, # of connection points: 2
#     Edge 29, Type (0, 1), BuildingBlock: TEMPAE_clean_linker_10, # of connection points: 2
#     Edge 30, Type (0, 1), BuildingBlock: TEMPAE_clean_linker_10, # of connection points: 2
#     Edge 31, Type (0, 1), BuildingBlock: TEMPAE_clean_linker_10, # of connection points: 2
#     Edge 32, Type (0, 1), BuildingBlock: TEMPAE_clean_linker_10, # of connection points: 2
#     Edge 33, Type (0, 1), BuildingBlock: TEMPAE_clean_linker_10, # of connection points: 2
#     Edge 34, Type (0, 1), BuildingBlock: TEMPAE_clean_linker_10, # of connection points: 2
#     Edge 35, Type (0, 1), BuildingBlock: TEMPAE_clean_linker_10, # of connection points: 2
# Relax obj value: 0.080
# Max RMSD: 0.175
# Mean RMSD: 0.077
data_MOF--net-zzz--node1-JUFBIX_clean_sbu_0--node2-QEWDON_clean_linker_0--edge1-TEMPAE_clean_linker_10
_symmetry_space_group_name_H-M    P1
_symmetry_Int_Tables_number       1
_symmetry_cell_setting            triclinic
loop_
_symmetry_equiv_pos_as_xyz
'x, y, z'
_cell_length_a     55.836729
_cell_length_b     55.69097
_cell_length_c     17.552349
_cell_angle_alpha  81.141467
_cell_angle_beta   89.613417
_cell_angle_gamma 90.514515
loop_
_atom_site_label
_atom_site_type_symbol
_atom_site_fract_x
_atom_site_fract_y
_atom_site_fract_z
_atom_type_partial_charge
H0 H 0.80297 0.52625 0.12895 0.0
C1 C 0.81347 0.52709 0.18012 0.0
C2 C 0.8369 0.518 0.18316 0.0
C3 C 0.80407 0.53781 0.24196 0.0
H4 H 0.86976 0.51466 0.24701 0.0
C5 C 0.85128 0.52062 0.24624 0.0
C6 C 0.84285 0.5319 0.30654 0.0
C7 C 0.819 0.53961 0.30601 0.0
C8 C 0.77939 0.54839 0.23797 0.0
H9 H 0.81251 0.54761 0.35454 0.0
C10 C 0.7607 0.53876 0.19718 0.0
C11 C 0.73783 0.54933 0.19302 0.0
C12 C 0.77446 0.56886 0.27372 0.0
H13 H 0.78829 0.57755 0.30299 0.0
C14 C 0.75165 0.57896 0.27073 0.0
H15 H 0.76372 0.52309 0.16885 0.0
C16 C 0.73342 0.56927 0.23071 0.0
H17 H 0.71593 0.57764 0.22779 0.0
H18 H 0.74821 0.59463 0.2986 0.0
H19 H 0.99192 0.78573 0.13833 0.0
C20 C 0.99466 0.79353 0.19046 0.0
C21 C 1.00465 0.81694 0.1844 0.0
C22 C 0.98742 0.7808 0.26302 0.0
H23 H 0.01351 0.84661 0.24398 0.0
C24 C 1.007 0.82798 0.25016 0.0
C25 C 0.99894 0.81637 0.32212 0.0
C26 C 0.98953 0.79264 0.32873 0.0
C27 C 0.97654 0.75585 0.26946 0.0
H28 H 0.98382 0.78364 0.38509 0.0
C29 C 0.98362 0.73943 0.2196 0.0
C30 C 0.97285 0.71618 0.22472 0.0
C31 C 0.95852 0.74841 0.32482 0.0
H32 H 0.95191 0.76054 0.36254 0.0
C33 C 0.9483 0.72525 0.3315 0.0
H34 H 0.99732 0.74479 0.17625 0.0
C35 C 0.95539 0.70923 0.28222 0.0
H36 H 0.94715 0.69134 0.28928 0.0
H37 H 0.9346 0.71975 0.37479 0.0
H38 H 0.74295 1.00283 0.03052 0.0
C39 C 0.73506 1.00701 0.08343 0.0
C40 C 0.71218 0.01746 0.0816 0.0
C41 C 0.74698 1.00066 0.15433 0.0
H42 H 0.68313 0.02842 0.1488 0.0
C43 C 0.70133 0.02167 0.15024 0.0
C44 C 0.71217 0.01454 0.22136 0.0
C45 C 0.73514 1.00437 0.2233 0.0
C46 C 0.7705 0.98783 0.1579 0.0
H47 H 0.74346 0.9989 0.27875 0.0
C48 C 0.78905 0.99448 0.10274 0.0
C49 C 0.8111 0.98189 0.10821 0.0
C50 C 0.77432 0.96828 0.21748 0.0
H51 H 0.76039 0.96214 0.25936 0.0
C52 C 0.79603 0.95612 0.22368 0.0
H53 H 0.78634 1.00931 0.05602 0.0
C54 C 0.81428 0.96291 0.17017 0.0
H55 H 0.83108 0.95331 0.17796 0.0
H56 H 0.79874 0.9413 0.27039 0.0
H57 H 0.51618 0.72999 0.02625 0.0
C58 C 0.51662 0.71958 0.08373 0.0
C59 C 0.50711 0.69575 0.09681 0.0
C60 C 0.52834 0.72921 0.14356 0.0
H61 H 0.50281 0.6632 0.17981 0.0
C62 C 0.50917 0.68191 0.17012 0.0
C63 C 0.52142 0.69064 0.22937 0.0
C64 C 0.53058 0.71452 0.21665 0.0
C65 C 0.54229 0.7524 0.12613 0.0
H66 H 0.54067 0.72113 0.26187 0.0
C67 C 0.53183 0.77476 0.09364 0.0
C68 C 0.54607 0.79625 0.07789 0.0
C69 C 0.56698 0.75172 0.14075 0.0
H70 H 0.57551 0.73483 0.16444 0.0
C71 C 0.58112 0.77254 0.12329 0.0
H72 H 0.51276 0.77548 0.08278 0.0
C73 C 0.57087 0.79451 0.09198 0.0
H74 H 0.58258 0.81021 0.07812 0.0
H75 H 0.60019 0.77164 0.1338 0.0
H76 H 0.2264 0.53128 0.38637 0.0
C77 C 0.21461 0.52416 0.34628 0.0
C78 C 0.19038 0.52046 0.3658 0.0
C79 C 0.22322 0.51963 0.27394 0.0
H80 H 0.156 0.50927 0.33077 0.0
C81 C 0.17465 0.51228 0.31387 0.0
C82 C 0.18202 0.50982 0.23922 0.0
C83 C 0.20656 0.5126 0.22042 0.0
C84 C 0.2492 0.52349 0.253 0.0
H85 H 0.21247 0.50989 0.16361 0.0
C86 C 0.26724 0.51928 0.30963 0.0
C87 C 0.29163 0.52292 0.28952 0.0
C88 C 0.25622 0.53171 0.17603 0.0
H89 H 0.24311 0.53606 0.13104 0.0
C90 C 0.28038 0.53496 0.15591 0.0
H91 H 0.2625 0.51277 0.36921 0.0
C92 C 0.29799 0.53051 0.21205 0.0
H93 H 0.31661 0.53356 0.19521 0.0
H94 H 0.28546 0.54124 0.09651 0.0
H95 H 1.00627 0.24487 0.38768 0.0
C96 C 0.01319 0.23742 0.33856 0.0
C97 C 0.02103 0.21326 0.34928 0.0
C98 C 0.01349 0.25153 0.26438 0.0
H99 H 0.03396 0.18406 0.2934 0.0
C100 C 0.029 0.20308 0.28577 0.0
C101 C 0.02855 0.21626 0.2115 0.0
C102 C 0.02103 0.24052 0.20071 0.0
C103 C 1.00464 0.27712 0.25297 0.0
H104 H 0.02094 0.25058 0.14278 0.0
C105 C 1.00832 0.29244 0.30925 0.0
C106 C 0.99922 0.31631 0.29905 0.0
C107 C 0.99183 0.28624 0.18609 0.0
H108 H 0.988 0.27498 0.14253 0.0
C109 C 0.98327 0.30995 0.17501 0.0
H110 H 0.01803 0.28577 0.3613 0.0
C111 C 0.98692 0.32488 0.23077 0.0
H112 H 0.98014 0.34324 0.2202 0.0
H113 H 0.97356 0.31673 0.12309 0.0
H114 H 0.28348 1.00625 0.52578 0.0
C115 C 0.29109 0.01043 0.46824 0.0
C116 C 0.3147 0.01947 0.45862 0.0
C117 C 0.27796 1.00528 0.40408 0.0
H118 H 0.34353 0.02967 0.37783 0.0
C119 C 0.32494 0.02379 0.38482 0.0
C120 C 0.31275 0.01789 0.32113 0.0
C121 C 0.28921 1.00877 0.33044 0.0
C122 C 0.25379 0.99345 0.41523 0.0
H123 H 0.27996 1.00387 0.28089 0.0
C124 C 0.23604 1.00142 0.46361 0.0
C125 C 0.2137 0.98912 0.47516 0.0
C126 C 0.24873 0.97323 0.3787 0.0
H127 H 0.26202 0.96633 0.3426 0.0
C128 C 0.22671 0.96123 0.38958 0.0
H129 H 0.23961 0.01695 0.49232 0.0
C130 C 0.20936 0.96904 0.43731 0.0
H131 H 0.19232 0.95944 0.44409 0.0
H132 H 0.22309 0.94569 0.36107 0.0
H133 H 0.52969 0.29902 0.49744 0.0
C134 C 0.52229 0.30961 0.44615 0.0
C135 C 0.51851 0.33459 0.44427 0.0
C136 C 0.51825 0.29883 0.3795 0.0
H137 H 0.50779 0.36797 0.37637 0.0
C138 C 0.50991 0.34857 0.37731 0.0
C139 C 0.50573 0.33852 0.31038 0.0
C140 C 0.50992 0.31355 0.31174 0.0
C141 C 0.52559 0.27317 0.37708 0.0
H142 H 0.50707 0.30569 0.25973 0.0
C143 C 0.52043 0.25391 0.43808 0.0
C144 C 0.52867 0.23015 0.43434 0.0
C145 C 0.53893 0.2681 0.3132 0.0
H146 H 0.54363 0.28241 0.26627 0.0
C147 C 0.54697 0.24469 0.30967 0.0
H148 H 0.51019 0.25735 0.48785 0.0
C149 C 0.54196 0.22588 0.36974 0.0
H150 H 0.54841 0.20782 0.36565 0.0
H151 H 0.55729 0.24114 0.26025 0.0
Co152 Co 0.01862 0.02284 0.8236 0.0
C153 C 0.96898 0.01301 0.82362 0.0
Co154 Co 1.00568 1.00814 0.72071 0.0
C155 C 0.0343 0.06061 0.90922 0.0
C156 C 0.0244 0.02789 0.98341 0.0
N157 N 0.02757 0.03723 0.90861 0.0
N158 N 0.03484 0.06655 0.98122 0.0
C159 C 0.02889 0.04568 0.0279 0.0
H160 H 0.03748 0.0733 0.85713 0.0
H161 H 0.01777 1.00974 0.00423 0.0
C162 C 0.05535 0.01757 0.72073 0.0
N163 N 0.9968 0.99377 0.6358 0.0
C164 C 0.98967 0.9705 0.63563 0.0
C165 C 1.00083 1.00274 0.561 0.0
N166 N 0.98971 0.96433 0.56406 0.0
C167 C 0.99648 0.98478 0.51694 0.0
C168 C 1.00468 0.05782 0.69942 0.0
O169 O 0.05114 0.02453 0.7854 0.0
O170 O 0.03797 0.01 0.68403 0.0
O171 O 0.99996 0.03975 0.66561 0.0
O172 O 0.01266 0.05404 0.7676 0.0
O173 O 0.97333 1.00637 0.75862 0.0
H174 H 1.00817 0.02061 0.54026 0.0
H175 H 0.98569 0.95793 0.68758 0.0
O176 O 0.9862 0.0208 0.86067 0.0
O177 O 0.02431 0.99127 0.87866 0.0
O178 O 0.01171 0.97688 0.77661 0.0
C179 C 0.0197 0.9732 0.8448 0.0
H180 H 0.02658 0.04338 0.08975 0.0
H181 H 0.99987 0.98626 0.45561 0.0
Co182 Co 0.50581 0.01854 0.83111 0.0
C183 C 0.51217 0.96875 0.8304 0.0
Co184 Co 0.52052 0.01007 0.72089 0.0
C185 C 0.46865 0.01697 0.94601 0.0
C186 C 0.49708 0.04093 0.9678 0.0
N187 N 0.49054 0.02526 0.92018 0.0
N188 N 0.46104 0.02708 0.00686 0.0
C189 C 0.47902 0.04203 0.02128 0.0
H190 H 0.45822 1.00405 0.91961 0.0
H191 H 0.51348 0.05157 0.96217 0.0
C192 C 0.51439 0.05981 0.72098 0.0
N193 N 0.5356 1.00323 0.63171 0.0
C194 C 0.55739 0.01143 0.60463 0.0
C195 C 0.52892 0.98714 0.58563 0.0
N196 N 0.56481 1.00084 0.54453 0.0
C197 C 0.54679 0.98569 0.53186 0.0
C198 C 0.47166 0.01132 0.71892 0.0
O199 O 0.50729 0.05279 0.79014 0.0
O200 O 0.52092 0.0439 0.68042 0.0
O201 O 0.48944 1.00708 0.67735 0.0
O202 O 0.47548 0.01652 0.7856 0.0
O203 O 0.52013 0.97617 0.7626 0.0
H204 H 0.51259 0.97641 0.59268 0.0
H205 H 0.56788 0.02462 0.62959 0.0
O206 O 0.50446 0.98431 0.87058 0.0
O207 O 0.53677 0.02066 0.8758 0.0
O208 O 0.551 0.01331 0.76513 0.0
C209 C 0.55465 0.01789 0.8327 0.0
H210 H 0.47871 0.05376 0.06503 0.0
H211 H 0.54698 0.97357 0.48923 0.0
Co212 Co 0.53056 0.51567 0.78736 0.0
C213 C 0.5053 0.48283 0.89127 0.0
Co214 Co 0.4921 0.5144 0.75708 0.0
C215 C 0.57543 0.5193 0.87037 0.0
C216 C 0.58052 0.51262 0.75447 0.0
N217 N 0.56336 0.51637 0.80573 0.0
N218 N 0.59936 0.51712 0.86138 0.0
C219 C 0.60257 0.51292 0.78855 0.0
H220 H 0.56683 0.52239 0.92343 0.0
H221 H 0.57718 0.5096 0.69603 0.0
C222 C 0.51752 0.54722 0.65316 0.0
N223 N 0.45936 0.51329 0.73827 0.0
C224 C 0.44771 0.51462 0.67041 0.0
C225 C 0.4419 0.50999 0.79251 0.0
N226 N 0.42375 0.51197 0.68054 0.0
C227 C 0.42006 0.50903 0.7573 0.0
C228 C 0.50453 0.55012 0.84665 0.0
O229 O 0.53494 0.53925 0.696 0.0
O230 O 0.49674 0.53811 0.66812 0.0
O231 O 0.48729 0.54026 0.81531 0.0
O232 O 0.52552 0.54161 0.84388 0.0
O233 O 0.48803 0.49024 0.84707 0.0
H234 H 0.44487 0.50825 0.85394 0.0
H235 H 0.45664 0.51695 0.61479 0.0
O236 O 0.52591 0.49251 0.87782 0.0
O237 O 0.53502 0.48926 0.73104 0.0
O238 O 0.49715 0.48897 0.6986 0.0
C239 C 0.51793 0.47991 0.69777 0.0
H240 H 0.6197 0.51047 0.76168 0.0
H241 H 0.40277 0.5066 0.78584 0.0
Co242 Co 0.01263 0.5345 0.78058 0.0
C243 C 0.04417 0.50692 0.87667 0.0
Co244 Co 0.01299 0.49581 0.76351 0.0
C245 C 1.00805 0.57662 0.85903 0.0
C246 C 0.01572 0.58637 0.73864 0.0
N247 N 0.0121 0.56703 0.79391 0.0
N248 N 0.00896 0.60124 0.84666 0.0
C249 C 0.01389 0.60731 0.7707 0.0
H250 H 1.00412 0.56564 0.91415 0.0
H251 H 0.01944 0.58533 0.67869 0.0
C252 C 0.98164 0.52379 0.66661 0.0
N253 N 0.01351 0.46329 0.75001 0.0
C254 C 0.01277 0.45375 0.68368 0.0
C255 C 0.01466 0.44392 0.80619 0.0
N256 N 0.01335 0.42914 0.69619 0.0
C257 C 0.01461 0.42301 0.77349 0.0
C258 C 0.97816 0.50608 0.86651 0.0
O259 O 0.98937 0.54074 0.70123 0.0
O260 O 0.99037 0.50263 0.68313 0.0
O261 O 0.987 0.48915 0.83451 0.0
O262 O 0.98738 0.52727 0.85319 0.0
O263 O 0.03598 0.48951 0.845 0.0
H264 H 0.01546 0.44494 0.86716 0.0
H265 H 0.01143 0.46474 0.62742 0.0
O266 O 0.03569 0.5281 0.85849 0.0
O267 O 0.03817 0.54115 0.70856 0.0
O268 O 0.03873 0.50282 0.69223 0.0
C269 C 0.04753 0.52418 0.67811 0.0
H270 H 0.01627 0.62557 0.74002 0.0
H271 H 0.01568 0.40471 0.80462 0.0
C272 C 0.18234 0.97927 0.57822 0.0
C273 C 0.19435 0.9968 0.52514 0.0
C274 C 0.1613 0.98484 0.61594 0.0
C275 C 0.15182 1.00858 0.6003 0.0
C276 C 0.1647 0.0268 0.55048 0.0
C277 C 0.18585 0.02071 0.5136 0.0
C278 C 0.14841 0.96484 0.66893 0.0
C279 C 0.15536 0.05236 0.53239 0.0
C280 C 0.08382 0.01072 0.61531 0.0
C281 C 0.08016 0.01732 0.68858 0.0
C282 C 0.10697 1.0087 0.58517 0.0
C283 C 0.12722 0.01334 0.6291 0.0
C284 C 0.12371 0.02074 0.70214 0.0
C285 C 0.10024 0.02265 0.73101 0.0
C286 C 0.10973 1.0008 0.50703 0.0
C287 C 0.14474 0.02593 0.75079 0.0
H288 H 0.18897 0.96081 0.58806 0.0
H289 H 0.19496 0.03432 0.47242 0.0
H290 H 0.14377 0.97098 0.72432 0.0
H291 H 0.1314 0.96021 0.64198 0.0
H292 H 0.15929 0.9481 0.68125 0.0
H293 H 0.1689 0.0651 0.50158 0.0
H294 H 0.13928 0.05246 0.49553 0.0
H295 H 0.14983 0.05911 0.58603 0.0
H296 H 0.06852 1.00669 0.58159 0.0
H297 H 0.09767 0.02781 0.78755 0.0
H298 H 0.11868 0.9829 0.51337 0.0
H299 H 0.12124 0.01395 0.46899 0.0
H300 H 0.09225 0.99922 0.47826 0.0
H301 H 0.15463 1.00888 0.7696 0.0
H302 H 0.13912 0.03361 0.80281 0.0
H303 H 0.1574 0.03884 0.71648 0.0
C304 C 0.50147 0.19735 0.50089 0.0
C305 C 0.52382 0.20915 0.49596 0.0
C306 C 0.49837 0.17408 0.5449 0.0
C307 C 0.51808 0.16239 0.58511 0.0
C308 C 0.54027 0.17504 0.5841 0.0
C309 C 0.54291 0.19812 0.53904 0.0
C310 C 0.47444 0.16134 0.54385 0.0
C311 C 0.56172 0.16354 0.62649 0.0
C312 C 0.5088 0.10426 0.73102 0.0
C313 C 0.51496 0.08613 0.68704 0.0
C314 C 0.50949 0.12911 0.69878 0.0
C315 C 0.51641 0.1361 0.62055 0.0
C316 C 0.52245 0.11785 0.57587 0.0
C317 C 0.5217 0.09323 0.60953 0.0
C318 C 0.50304 0.14792 0.74859 0.0
C319 C 0.52987 0.12432 0.49225 0.0
H320 H 0.48682 0.20565 0.46642 0.0
H321 H 0.56029 0.20709 0.53438 0.0
H322 H 0.476 0.14625 0.5096 0.0
H323 H 0.46885 0.15326 0.6031 0.0
H324 H 0.46023 0.17381 0.51811 0.0
H325 H 0.57666 0.17676 0.62801 0.0
H326 H 0.55674 0.15571 0.68654 0.0
H327 H 0.56823 0.14843 0.59758 0.0
H328 H 0.50356 0.09905 0.79089 0.0
H329 H 0.52645 0.07949 0.57472 0.0
H330 H 0.48817 0.15929 0.7221 0.0
H331 H 0.51857 0.16022 0.7525 0.0
H332 H 0.49757 0.13959 0.80783 0.0
H333 H 0.51565 0.13507 0.45935 0.0
H334 H 0.53343 0.108 0.46482 0.0
H335 H 0.54632 0.1358 0.48753 0.0
C336 C 0.33054 0.50511 0.3399 0.0
C337 C 0.31059 0.51954 0.34908 0.0
C338 C 0.34931 0.50291 0.3934 0.0
C339 C 0.34836 0.5159 0.45668 0.0
C340 C 0.32819 0.53045 0.46627 0.0
C341 C 0.30942 0.53188 0.41279 0.0
C342 C 0.37019 0.48674 0.38208 0.0
C343 C 0.32665 0.5449 0.53215 0.0
C344 C 0.38592 0.49623 0.63511 0.0
C345 C 0.40561 0.51219 0.62244 0.0
C346 C 0.36748 0.49685 0.58086 0.0
C347 C 0.36844 0.51426 0.51296 0.0
C348 C 0.38839 0.53035 0.49963 0.0
C349 C 0.40688 0.52891 0.55416 0.0
C350 C 0.34689 0.47896 0.59644 0.0
C351 C 0.38991 0.54946 0.42873 0.0
H352 H 0.3314 0.49548 0.29078 0.0
H353 H 0.29413 0.54326 0.41942 0.0
H354 H 0.38694 0.4977 0.37375 0.0
H355 H 0.37252 0.47299 0.43431 0.0
H356 H 0.36778 0.47718 0.33155 0.0
H357 H 0.3099 0.55557 0.53094 0.0
H358 H 0.32747 0.53255 0.588 0.0
H359 H 0.34217 0.55759 0.52976 0.0
H360 H 0.38508 0.48311 0.68752 0.0
H361 H 0.42199 0.54139 0.54475 0.0
H362 H 0.34484 0.46869 0.54743 0.0
H363 H 0.32994 0.48883 0.60173 0.0
H364 H 0.34941 0.46581 0.65009 0.0
H365 H 0.38909 0.54079 0.37599 0.0
H366 H 0.40663 0.56051 0.42674 0.0
H367 H 0.37435 0.56179 0.42744 0.0
C368 C 0.98296 0.34687 0.37681 0.0
C369 C 1.00205 0.3323 0.35945 0.0
C370 C 0.98535 0.3627 0.43137 0.0
C371 C 1.00732 0.36396 0.47039 0.0
C372 C 0.0266 0.34913 0.45397 0.0
C373 C 0.02375 0.33349 0.39871 0.0
C374 C 0.9643 0.3781 0.44723 0.0
C375 C 0.05028 0.34986 0.49456 0.0
C376 C 0.01898 0.42066 0.56242 0.0
C377 C 0.01236 0.41274 0.63963 0.0
C378 C 0.01777 0.40492 0.507 0.0
C379 C 0.00987 0.38058 0.52913 0.0
C380 C 1.00345 0.37237 0.60699 0.0
C381 C 1.00467 0.38852 0.66101 0.0
C382 C 0.02469 0.41443 0.4245 0.0
C383 C 0.99493 0.34659 0.63312 0.0
H384 H 0.96598 0.34578 0.34796 0.0
H385 H 0.03867 0.32252 0.38525 0.0
H386 H 0.95894 0.37382 0.50883 0.0
H387 H 0.96944 0.39763 0.43595 0.0
H388 H 0.94855 0.37524 0.41124 0.0
H389 H 0.06345 0.33709 0.47572 0.0
H390 H 0.05797 0.36852 0.48329 0.0
H391 H 0.04757 0.34517 0.55781 0.0
H392 H 0.02527 0.43915 0.54515 0.0
H393 H 0.99914 0.38217 0.71991 0.0
H394 H 0.00909 0.41322 0.38643 0.0
H395 H 0.03905 0.40309 0.405 0.0
H396 H 0.03106 0.43361 0.4169 0.0
H397 H 0.97807 0.3432 0.60326 0.0
H398 H 0.99166 0.3427 0.69634 0.0
H399 H 1.00837 0.33359 0.61746 0.0
C400 C 0.83776 0.0125 0.02453 0.0
C401 C 0.83129 0.98824 0.05165 0.0
C402 C 0.85878 0.01829 0.98001 0.0
C403 C 0.87389 0.99941 0.96303 0.0
C404 C 0.86682 0.97493 0.98709 0.0
C405 C 0.84556 0.9697 0.02991 0.0
C406 C 0.86532 0.04462 0.95389 0.0
C407 C 0.88233 0.95416 0.97103 0.0
C408 C 0.9242 1.0087 0.81203 0.0
C409 C 0.9444 0.01092 0.85774 0.0
C410 C 0.90101 1.00605 0.8448 0.0
C411 C 0.89794 1.00498 0.92554 0.0
C412 C 0.91828 1.00748 0.9717 0.0
C413 C 0.94113 0.01067 0.93724 0.0
C414 C 0.87982 1.004 0.79318 0.0
C415 C 0.91603 1.00595 0.05811 0.0
H416 H 0.82698 0.02701 0.04078 0.0
H417 H 0.84046 0.95087 0.04847 0.0
H418 H 0.88104 0.0496 0.98669 0.0
H419 H 0.87044 0.04763 0.89193 0.0
H420 H 0.85037 0.05695 0.96275 0.0
H421 H 0.87383 0.93615 0.99082 0.0
H422 H 0.88622 0.95575 0.90842 0.0
H423 H 0.89974 0.95491 0.00076 0.0
H424 H 0.92651 1.00907 0.75049 0.0
H425 H 0.95661 0.01227 0.97318 0.0
H426 H 0.86578 0.01708 0.80401 0.0
H427 H 0.87181 0.98552 0.80636 0.0
H428 H 0.88487 1.00749 0.7311 0.0
H429 H 0.90316 0.01965 0.07256 0.0
H430 H 0.93344 1.00892 0.08562 0.0
H431 H 0.90889 0.98778 0.08349 0.0
C432 C 0.54531 0.84167 0.07212 0.0
C433 C 0.53596 0.82072 0.04692 0.0
C434 C 0.53912 0.86513 0.03668 0.0
C435 C 0.52246 0.86806 0.97561 0.0
C436 C 0.51165 0.84708 0.95314 0.0
C437 C 0.51865 0.82367 0.98856 0.0
C438 C 0.55131 0.88679 0.06254 0.0
C439 C 0.49329 0.84934 0.88987 0.0
C440 C 0.49863 0.93276 0.92676 0.0
C441 C 0.51312 0.94245 0.86354 0.0
C442 C 0.50045 0.90821 0.96103 0.0
C443 C 0.51767 0.89307 0.93303 0.0
C444 C 0.53199 0.90268 0.86822 0.0
C445 C 0.52933 0.92707 0.8338 0.0
C446 C 0.48435 0.89865 0.0285 0.0
C447 C 0.55096 0.88751 0.8373 0.0
H448 H 0.55811 0.83976 0.11874 0.0
H449 H 0.51123 0.80775 0.96849 0.0
H450 H 0.56183 0.89696 0.01393 0.0
H451 H 0.53779 0.8994 0.07993 0.0
H452 H 0.56356 0.88147 0.11174 0.0
H453 H 0.48437 0.83168 0.88577 0.0
H454 H 0.47944 0.86272 0.89976 0.0
H455 H 0.50208 0.85612 0.83373 0.0
H456 H 0.48589 0.94442 0.94975 0.0
H457 H 0.54068 0.93436 0.78522 0.0
H458 H 0.49507 0.89518 0.08195 0.0
H459 H 0.47601 0.88111 0.01991 0.0
H460 H 0.46995 0.91164 0.03708 0.0
H461 H 0.56478 0.88248 0.88194 0.0
H462 H 0.55988 0.89725 0.78454 0.0
H463 H 0.54298 0.87037 0.82371 0.0
C464 C 0.70022 0.52564 0.18089 0.0
C465 C 0.71861 0.54081 0.14599 0.0
C466 C 0.68028 0.51995 0.13818 0.0
C467 C 0.67857 0.5301 0.05923 0.0
C468 C 0.69739 0.54517 0.02374 0.0
C469 C 0.71724 0.55025 0.06758 0.0
C470 C 0.66083 0.50351 0.17783 0.0
C471 C 0.69622 0.55653 0.94002 0.0
C472 C 0.63763 0.50335 0.92099 0.0
C473 C 0.61799 0.519 0.91658 0.0
C474 C 0.657 0.50611 0.96962 0.0
C475 C 0.65701 0.52537 0.01367 0.0
C476 C 0.63694 0.54092 0.01075 0.0
C477 C 0.61753 0.53736 0.96285 0.0
C478 C 0.67772 0.48877 0.97239 0.0
C479 C 0.63638 0.56191 0.05581 0.0
H480 H 0.70126 0.51864 0.24193 0.0
H481 H 0.73137 0.56229 0.04124 0.0
H482 H 0.64391 0.51375 0.1787 0.0
H483 H 0.65736 0.48824 0.14544 0.0
H484 H 0.66554 0.49593 0.2381 0.0
H485 H 0.71243 0.56763 0.92098 0.0
H486 H 0.69426 0.5422 0.90301 0.0
H487 H 0.68026 0.56833 0.9306 0.0
H488 H 0.63784 0.48897 0.88583 0.0
H489 H 0.60243 0.54956 0.9589 0.0
H490 H 0.68171 0.48104 0.03302 0.0
H491 H 0.69402 0.49868 0.94786 0.0
H492 H 0.67409 0.4736 0.9396 0.0
H493 H 0.63942 0.55535 0.11786 0.0
H494 H 0.61911 0.57174 0.04962 0.0
H495 H 0.65107 0.57494 0.03552 0.0
C496 C 0.96126 0.68515 0.14127 0.0
C497 C 0.97919 0.69925 0.16947 0.0
C498 C 0.96672 0.66881 0.09038 0.0
C499 C 0.99069 0.66666 0.06574 0.0
C500 C 0.00889 0.68092 0.09333 0.0
C501 C 1.00295 0.69696 0.14504 0.0
C502 C 0.94676 0.65394 0.06257 0.0
C503 C 0.03463 0.67929 0.06795 0.0
C504 C 1.00674 0.60964 0.98158 0.0
C505 C 1.00497 0.6177 0.90191 0.0
C506 C 1.00245 0.62541 0.03552 0.0
C507 C 0.99646 0.64995 0.00944 0.0
C508 C 0.99499 0.65831 0.92932 0.0
C509 C 0.99909 0.64212 0.87678 0.0
C510 C 1.00401 0.61571 0.12051 0.0
C511 C 0.98872 0.68435 0.89898 0.0
H512 H 0.94278 0.68708 0.15831 0.0
H513 H 0.01699 0.7075 0.16703 0.0
H514 H 0.94515 0.65846 0.99903 0.0
H515 H 0.95089 0.6343 0.076 0.0
H516 H 0.9292 0.65712 0.08923 0.0
H517 H 0.04668 0.69153 0.09476 0.0
H518 H 0.041 0.66037 0.0832 0.0
H519 H 0.03603 0.68412 0.00433 0.0
H520 H 0.01156 0.59101 0.00212 0.0
H521 H 0.99725 0.64865 0.81584 0.0
H522 H 0.98638 0.61742 0.14867 0.0
H523 H 0.01712 0.6266 0.14834 0.0
H524 H 0.0094 0.59634 0.1315 0.0
H525 H 0.97039 0.68824 0.91819 0.0
H526 H 0.98951 0.68834 0.83501 0.0
H527 H 1.00117 0.69693 0.92263 0.0
C528 C 0.03761 0.18232 0.45194 0.0
C529 C 0.01839 0.19699 0.42385 0.0
C530 C 0.03396 0.16169 0.5075 0.0
C531 C 0.01049 0.15568 0.53558 0.0
C532 C 0.99144 0.17179 0.5131 0.0
C533 C 0.99562 0.19234 0.45717 0.0
C534 C 0.05485 0.14517 0.5306 0.0
C535 C 0.96628 0.16623 0.5429 0.0
C536 C 0.99933 0.08771 0.5791 0.0
C537 C 1.00286 0.08307 0.6589 0.0
C538 C 1.00073 0.11149 0.53881 0.0
C539 C 1.0056 0.13109 0.57947 0.0
C540 C 1.00787 0.12666 0.66058 0.0
C541 C 1.00655 0.10269 0.69931 0.0
C542 C 0.99819 0.11548 0.45214 0.0
C543 C 0.0129 0.14701 0.70617 0.0
H544 H 0.05523 0.18602 0.42615 0.0
H545 H 0.98071 0.2036 0.43502 0.0
H546 H 0.05532 0.13989 0.59412 0.0
H547 H 0.05274 0.12827 0.50497 0.0
H548 H 0.07226 0.15384 0.51082 0.0
H549 H 0.95452 0.18233 0.53063 0.0
H550 H 0.95853 0.15143 0.51481 0.0
H551 H 0.96627 0.15984 0.60597 0.0
H552 H 0.99644 0.07268 0.54756 0.0
H553 H 0.00909 0.09929 0.76119 0.0
H554 H 0.01548 0.12213 0.42473 0.0
H555 H 0.98461 0.12958 0.43404 0.0
H556 H 0.99291 0.09859 0.42986 0.0
H557 H 0.03178 0.15318 0.69656 0.0
H558 H 0.01007 0.1412 0.76906 0.0
H559 H 1.00134 0.16285 0.68676 0.0
C560 C 0.3371 0.99859 0.57093 0.0
C561 C 0.33103 0.02034 0.5241 0.0
C562 C 0.35858 0.99674 0.61255 0.0
C563 C 0.37419 0.01714 0.60687 0.0
C564 C 0.36688 0.03977 0.56599 0.0
C565 C 0.34533 0.0411 0.52515 0.0
C566 C 0.36553 0.97244 0.65687 0.0
C567 C 0.38276 0.06209 0.55985 0.0
C568 C 0.42786 0.01703 0.73846 0.0
C569 C 0.44668 0.01142 0.69072 0.0
C570 C 0.40417 0.01873 0.71239 0.0
C571 C 0.39903 0.01439 0.63699 0.0
C572 C 0.41782 1.00828 0.58884 0.0
C573 C 0.44145 1.00689 0.61627 0.0
C574 C 0.38474 0.02532 0.76554 0.0
C575 C 0.41302 1.00367 0.50771 0.0
H576 H 0.32621 0.98245 0.56934 0.0
H577 H 0.34065 0.05788 0.48852 0.0
H578 H 0.38022 0.96467 0.62576 0.0
H579 H 0.3723 0.97458 0.71474 0.0
H580 H 0.35027 0.95933 0.6639 0.0
H581 H 0.37335 0.07878 0.5334 0.0
H582 H 0.38924 0.06474 0.61761 0.0
H583 H 0.39871 0.05965 0.52388 0.0
H584 H 0.43163 0.02051 0.79627 0.0
H585 H 0.45585 1.00257 0.57907 0.0
H586 H 0.37326 1.00914 0.78475 0.0
H587 H 0.37308 0.03969 0.73519 0.0
H588 H 0.39219 0.03182 0.81731 0.0
H589 H 0.39943 0.98897 0.5086 0.0
H590 H 0.42944 0.99846 0.47842 0.0
H591 H 0.40561 0.02026 0.47306 0.0
C592 C 0.50956 0.34918 0.56836 0.0
C593 C 0.52549 0.34791 0.50729 0.0
C594 C 0.51085 0.36867 0.6106 0.0
C595 C 0.52805 0.38746 0.58948 0.0
C596 C 0.54555 0.38492 0.53265 0.0
C597 C 0.54419 0.36499 0.49286 0.0
C598 C 0.4924 0.37028 0.67276 0.0
C599 C 0.564 0.40457 0.50738 0.0
C600 C 0.5081 0.45165 0.60473 0.0
C601 C 0.52149 0.45692 0.66727 0.0
C602 C 0.5103 0.42917 0.57855 0.0
C603 C 0.5256 0.41123 0.61775 0.0
C604 C 0.53889 0.41637 0.68176 0.0
C605 C 0.53697 0.43933 0.70498 0.0
C606 C 0.49628 0.42468 0.50869 0.0
C607 C 0.55474 0.39748 0.72657 0.0
H608 H 0.49491 0.33615 0.57872 0.0
H609 H 0.55627 0.36412 0.44471 0.0
H610 H 0.50068 0.37692 0.72301 0.0
H611 H 0.47841 0.38342 0.64997 0.0
H612 H 0.4836 0.35241 0.69259 0.0
H613 H 0.5782 0.39837 0.47044 0.0
H614 H 0.55506 0.42051 0.474 0.0
H615 H 0.57256 0.41076 0.55787 0.0
H616 H 0.49604 0.46521 0.5759 0.0
H617 H 0.54696 0.44321 0.75451 0.0
H618 H 0.48364 0.40922 0.52473 0.0
H619 H 0.50863 0.41968 0.46398 0.0
H620 H 0.48591 0.44083 0.48312 0.0
H621 H 0.54392 0.38111 0.7494 0.0
H622 H 0.56367 0.40427 0.77558 0.0
H623 H 0.56869 0.3917 0.68814 0.0
C624 C 0.16599 0.54922 0.42447 0.0
C625 C 0.17956 0.52795 0.43494 0.0
C626 C 0.14651 0.55186 0.47304 0.0
C627 C 0.14098 0.53297 0.5344 0.0
C628 C 0.15676 0.51311 0.55151 0.0
C629 C 0.17577 0.51062 0.50057 0.0
C630 C 0.13011 0.57322 0.45212 0.0
C631 C 0.15203 0.49311 0.61836 0.0
C632 C 0.08866 0.54173 0.66673 0.0
C633 C 0.07058 0.52828 0.637 0.0
C634 C 0.11185 0.54321 0.63488 0.0
C635 C 0.11671 0.53167 0.57017 0.0
C636 C 0.09819 0.51876 0.53839 0.0
C637 C 0.07545 0.51678 0.57335 0.0
C638 C 0.13129 0.55625 0.67229 0.0
C639 C 0.10243 0.50682 0.46784 0.0
H640 H 0.1688 0.5624 0.37278 0.0
H641 H 0.18612 0.49404 0.50793 0.0
H642 H 0.11391 0.56715 0.42373 0.0
H643 H 0.1241 0.58054 0.50424 0.0
H644 H 0.1389 0.5881 0.41184 0.0
H645 H 0.16826 0.48205 0.63358 0.0
H646 H 0.14584 0.5007 0.66986 0.0
H647 H 0.13766 0.4809 0.6027 0.0
H648 H 0.08495 0.55017 0.71717 0.0
H649 H 0.06145 0.50627 0.55094 0.0
H650 H 0.14089 0.56951 0.62876 0.0
H651 H 0.14465 0.54287 0.6984 0.0
H652 H 0.12412 0.56597 0.71814 0.0
H653 H 0.10983 0.52028 0.42006 0.0
H654 H 0.08576 0.49883 0.44769 0.0
H655 H 0.11578 0.49216 0.48085 0.0
C656 C 0.99034 0.84306 0.06746 0.0
C657 C 0.00959 0.83211 0.10949 0.0
C658 C 0.99384 0.86419 0.01362 0.0
C659 C 0.01721 0.87424 0.00123 0.0
C660 C 0.037 0.86162 0.03736 0.0
C661 C 0.03291 0.8408 0.09204 0.0
C662 C 0.97223 0.87714 0.97665 0.0
C663 C 0.06224 0.87134 0.02407 0.0
C664 C 0.02353 0.92868 0.84282 0.0
C665 C 0.02182 0.94804 0.88516 0.0
C666 C 0.02315 0.90448 0.87992 0.0
C667 C 0.02033 0.89959 0.96096 0.0
C668 C 0.01919 0.9191 0.0041 0.0
C669 C 0.02025 0.94312 0.96566 0.0
C670 C 0.02516 0.8842 0.83233 0.0
C671 C 0.01588 0.91465 0.09068 0.0
H672 H 0.97229 0.8365 0.08221 0.0
H673 H 0.04772 0.8324 0.12547 0.0
H674 H 0.96888 0.89364 0.00326 0.0
H675 H 0.97539 0.88312 0.91416 0.0
H676 H 0.95587 0.86547 0.98419 0.0
H677 H 0.07572 0.8572 0.04352 0.0
H678 H 0.06544 0.87838 0.96217 0.0
H679 H 0.06499 0.88665 0.05681 0.0
H680 H 0.02491 0.93245 0.78045 0.0
H681 H 0.01876 0.95803 0.99844 0.0
H682 H 1.00794 0.87402 0.83443 0.0
H683 H 0.03907 0.87114 0.85641 0.0
H684 H 0.0297 0.89108 0.77108 0.0
H685 H 0.99879 0.90467 0.10592 0.0
H686 H 0.0156 0.9318 0.11565 0.0
H687 H 0.03053 0.90315 0.11803 0.0
C688 C 0.68563 0.04229 0.9886 0.0
C689 C 0.69672 0.01997 0.01294 0.0
C690 C 0.66395 0.04339 0.94837 0.0
C691 C 0.65312 0.02161 0.93277 0.0
C692 C 0.66557 0.9994 0.94998 0.0
C693 C 0.68734 0.99886 0.98977 0.0
C694 C 0.65159 0.06753 0.92911 0.0
C695 C 0.65479 0.97582 0.93332 0.0
C696 C 0.58501 0.01789 0.93757 0.0
C697 C 0.57964 0.01989 0.85905 0.0
C698 C 0.60889 0.01851 0.96221 0.0
C699 C 0.62777 0.02162 0.90686 0.0
C700 C 0.62236 0.0244 0.82749 0.0
C701 C 0.59842 0.02322 0.80463 0.0
C702 C 0.61396 0.01547 0.04757 0.0
C703 C 0.64182 0.02819 0.76656 0.0
H704 H 0.69279 0.05856 0.00735 0.0
H705 H 0.69571 0.98155 0.0097 0.0
H706 H 0.64442 0.06985 0.86965 0.0
H707 H 0.63621 0.06817 0.96908 0.0
H708 H 0.66383 0.08302 0.93434 0.0
H709 H 0.63926 0.97072 0.97248 0.0
H710 H 0.64808 0.97793 0.87335 0.0
H711 H 0.66787 0.96075 0.94169 0.0
H712 H 0.5706 0.01528 0.97982 0.0
H713 H 0.59444 0.02498 0.74371 0.0
H714 H 0.62411 0.03146 0.06126 0.0
H715 H 0.62527 0.99926 0.06441 0.0
H716 H 0.59732 0.01332 0.08311 0.0
H717 H 0.6553 0.04168 0.77978 0.0
H718 H 0.63448 0.03451 0.70832 0.0
H719 H 0.65124 0.01081 0.76528 0.0
C720 C 0.47944 0.66666 0.04654 0.0
C721 C 0.49913 0.68267 0.0336 0.0
C722 C 0.47735 0.64666 0.00722 0.0
C723 C 0.49485 0.64318 0.95137 0.0
C724 C 0.51267 0.66131 0.93004 0.0
C725 C 0.51477 0.68079 0.97204 0.0
C726 C 0.45813 0.6278 0.03242 0.0
C727 C 0.53103 0.65888 0.86829 0.0
C728 C 0.51396 0.57846 0.93978 0.0
C729 C 0.5008 0.57314 0.87685 0.0
C730 C 0.51177 0.60105 0.96531 0.0
C731 C 0.49678 0.61907 0.92492 0.0
C732 C 0.48364 0.61383 0.8607 0.0
C733 C 0.48551 0.59075 0.83822 0.0
C734 C 0.5256 0.60563 0.03545 0.0
C735 C 0.46823 0.6328 0.81436 0.0
H736 H 0.46716 0.66826 0.0936 0.0
H737 H 0.53001 0.69308 0.96157 0.0
H738 H 0.44973 0.62141 0.98204 0.0
H739 H 0.46637 0.61181 0.0679 0.0
H740 H 0.44392 0.63486 0.0674 0.0
H741 H 0.54025 0.67646 0.84759 0.0
H742 H 0.54471 0.6455 0.89193 0.0
H743 H 0.52257 0.65214 0.81848 0.0
H744 H 0.52588 0.56489 0.96929 0.0
H745 H 0.47573 0.58682 0.78834 0.0
H746 H 0.51323 0.61136 0.07889 0.0
H747 H 0.53875 0.62061 0.01905 0.0
H748 H 0.53539 0.58929 0.06271 0.0
H749 H 0.45495 0.63992 0.85226 0.0
H750 H 0.45854 0.62557 0.76754 0.0
H751 H 0.47961 0.64839 0.78824 0.0
C752 C 0.86202 0.4871 0.13422 0.0
C753 C 0.84842 0.50832 0.11821 0.0
C754 C 0.881 0.48274 0.08576 0.0
C755 C 0.88597 0.49971 0.01879 0.0
C756 C 0.86997 0.51911 0.99655 0.0
C757 C 0.85139 0.52335 0.04709 0.0
C758 C 0.8975 0.46179 0.11182 0.0
C759 C 0.87409 0.53702 0.92385 0.0
C760 C 0.95108 0.51542 0.97077 0.0
C761 C 0.95557 0.50223 0.91064 0.0
C762 C 0.92865 0.51417 0.00753 0.0
C763 C 0.91001 0.5 0.98167 0.0
C764 C 0.91453 0.48646 0.92126 0.0
C765 C 0.93741 0.48749 0.88704 0.0
C766 C 0.92481 0.52837 0.07329 0.0
C767 C 0.89498 0.47179 0.89051 0.0
H768 H 0.85953 0.47536 0.18909 0.0
H769 H 0.84087 0.53973 0.03449 0.0
H770 H 0.90309 0.45276 0.06264 0.0
H771 H 0.91392 0.46881 0.13653 0.0
H772 H 0.88897 0.44805 0.15662 0.0
H773 H 0.85775 0.54768 0.90669 0.0
H774 H 0.88866 0.54987 0.93353 0.0
H775 H 0.87974 0.52755 0.87562 0.0
H776 H 0.96511 0.52688 0.98865 0.0
H777 H 0.94076 0.4777 0.83927 0.0
H778 H 0.91788 0.51618 0.12488 0.0
H779 H 0.91122 0.54262 0.05702 0.0
H780 H 0.94153 0.53728 0.08921 0.0
H781 H 0.88539 0.46015 0.93827 0.0
H782 H 0.90206 0.46009 0.84981 0.0
H783 H 0.88164 0.48431 0.85977 0.0
C784 C 0.01299 0.19438 0.10934 0.0
C785 C 0.03278 0.2027 0.14668 0.0
C786 C 0.01498 0.17448 0.06934 0.0
C787 C 0.03739 0.1629 0.06603 0.0
C788 C 0.05793 0.17302 0.09646 0.0
C789 C 0.05532 0.19262 0.13749 0.0
C790 C 0.9926 0.16429 0.0381 0.0
C791 C 0.08227 0.16174 0.09216 0.0
C792 C 0.03474 0.09419 0.07983 0.0
C793 C 0.03744 0.09069 0.00257 0.0
C794 C 0.03502 0.11751 0.10082 0.0
C795 C 0.03846 0.13814 0.04357 0.0
C796 C 0.04217 0.13492 0.96601 0.0
C797 C 0.04153 0.11134 0.9464 0.0
C798 C 0.03101 0.12006 0.1845 0.0
C799 C 0.04621 0.15639 0.90327 0.0
H800 H 0.9955 0.20192 0.11774 0.0
H801 H 0.07056 0.19889 0.16725 0.0
H802 H 0.9959 0.15981 0.97955 0.0
H803 H 0.98729 0.14719 0.0759 0.0
H804 H 0.97742 0.17714 0.03553 0.0
H805 H 0.09685 0.1742 0.10495 0.0
H806 H 0.08313 0.14486 0.1348 0.0
H807 H 0.08549 0.15672 0.03419 0.0
H808 H 0.03191 0.07882 0.12463 0.0
H809 H 0.04394 0.10939 0.88657 0.0
H810 H 0.01487 0.13116 0.19017 0.0
H811 H 0.04646 0.12965 0.20605 0.0
H812 H 0.02859 0.10223 0.22207 0.0
H813 H 0.0291 0.16614 0.89091 0.0
H814 H 0.05285 0.15077 0.84893 0.0
H815 H 0.05925 0.16943 0.92196 0.0
C816 C 0.33504 0.0398 0.20776 0.0
C817 C 0.32702 0.01775 0.24991 0.0
C818 C 0.35501 0.04064 0.1581 0.0
C819 C 0.36762 0.01902 0.15244 0.0
C820 C 0.35842 0.99649 0.19038 0.0
C821 C 0.33813 0.99612 0.23844 0.0
C822 C 0.36364 0.06489 0.11615 0.0
C823 C 0.37111 0.97299 0.18509 0.0
C824 C 0.41728 0.01978 0.00149 0.0
C825 C 0.43772 0.02426 0.04367 0.0
C826 C 0.39438 0.01775 0.03591 0.0
C827 C 0.39176 0.02029 0.11457 0.0
C828 C 0.41238 0.02438 0.15779 0.0
C829 C 0.43503 0.02646 0.12173 0.0
C830 C 0.37308 0.0137 0.98676 0.0
C831 C 0.41053 0.02659 0.24235 0.0
H832 H 0.3267 0.05656 0.21773 0.0
H833 H 0.33223 0.97914 0.27237 0.0
H834 H 0.38055 0.07017 0.14234 0.0
H835 H 0.36752 0.06362 0.0548 0.0
H836 H 0.35031 0.07944 0.11874 0.0
H837 H 0.36057 0.95687 0.21216 0.0
H838 H 0.37473 0.97131 0.1239 0.0
H839 H 0.38866 0.97296 0.21449 0.0
H840 H 0.41908 0.01845 0.94083 0.0
H841 H 0.45074 0.02962 0.15483 0.0
H842 H 0.3659 0.03161 0.96093 0.0
H843 H 0.35848 1.00334 0.02061 0.0
H844 H 0.37829 1.00379 0.93902 0.0
H845 H 0.39936 0.04244 0.24991 0.0
H846 H 0.42832 0.02883 0.26848 0.0
H847 H 0.40159 0.01018 0.27453 0.0
C848 C 0.51282 0.35523 0.17034 0.0
C849 C 0.49967 0.3554 0.23864 0.0
C850 C 0.51153 0.37476 0.10906 0.0
C851 C 0.49705 0.39506 0.11682 0.0
C852 C 0.48244 0.39445 0.18328 0.0
C853 C 0.48367 0.37452 0.24267 0.0
C854 C 0.52685 0.37434 0.03813 0.0
C855 C 0.46686 0.41568 0.19452 0.0
C856 C 0.5182 0.45691 0.01337 0.0
C857 C 0.50215 0.46128 0.95187 0.0
C858 C 0.51654 0.43557 0.0677 0.0
C859 C 0.49879 0.41781 0.05928 0.0
C860 C 0.48257 0.4221 0.99711 0.0
C861 C 0.48425 0.4439 0.94475 0.0
C862 C 0.53386 0.43202 0.13411 0.0
C863 C 0.46377 0.40344 0.98494 0.0
H864 H 0.52529 0.34064 0.16666 0.0
H865 H 0.47314 0.3746 0.29477 0.0
H866 H 0.51636 0.38013 0.98512 0.0
H867 H 0.54202 0.38736 0.03804 0.0
H868 H 0.53425 0.35602 0.03582 0.0
H869 H 0.45504 0.41151 0.24613 0.0
H870 H 0.47839 0.43152 0.2015 0.0
H871 H 0.45555 0.42114 0.14321 0.0
H872 H 0.53211 0.47022 0.01904 0.0
H873 H 0.47203 0.44696 0.89657 0.0
H874 H 0.54476 0.4156 0.13164 0.0
H875 H 0.52384 0.42904 0.18966 0.0
H876 H 0.54614 0.44784 0.13373 0.0
H877 H 0.47252 0.38615 0.97731 0.0
H878 H 0.45253 0.40951 0.93371 0.0
H879 H 0.45194 0.3995 0.03644 0.0
C880 C 0.14137 0.51894 0.18363 0.0
C881 C 0.1633 0.50685 0.18075 0.0
C882 C 0.12279 0.51599 0.13286 0.0
C883 C 0.12639 0.50148 0.07455 0.0
C884 C 0.14864 0.48973 0.06922 0.0
C885 C 0.1668 0.49235 0.12295 0.0
C886 C 0.09935 0.52877 0.14125 0.0
C887 C 0.15334 0.47474 0.00617 0.0
C888 C 0.0685 0.48395 0.98302 0.0
C889 C 0.06585 0.50379 0.92436 0.0
C890 C 0.08882 0.48218 0.03061 0.0
C891 C 0.10713 0.50021 0.01695 0.0
C892 C 0.10513 0.5193 0.95405 0.0
C893 C 0.08433 0.5211 0.90957 0.0
C894 C 0.08998 0.46192 0.09821 0.0
C895 C 0.12446 0.53852 0.93578 0.0
H896 H 0.13864 0.53104 0.22565 0.0
H897 H 0.1836 0.48297 0.11992 0.0
H898 H 0.09668 0.54303 0.09057 0.0
H899 H 0.08415 0.5157 0.14336 0.0
H900 H 0.0987 0.53747 0.19408 0.0
H901 H 0.17143 0.46652 0.0104 0.0
H902 H 0.13974 0.46 0.00861 0.0
H903 H 0.15173 0.48629 0.94903 0.0
H904 H 0.05425 0.47048 0.99379 0.0
H905 H 0.08247 0.53616 0.86292 0.0
H906 H 0.08778 0.46956 0.15259 0.0
H907 H 0.1077 0.45302 0.10027 0.0
H908 H 0.07579 0.44794 0.09596 0.0
H909 H 0.1241 0.55088 0.97965 0.0
H910 H 0.12204 0.54958 0.87807 0.0
H911 H 0.14242 0.53009 0.9377 0.0
C912 C 0.01773 0.84498 0.40095 0.0
C913 C 0.99782 0.83093 0.38613 0.0
C914 C 0.01533 0.86436 0.44279 0.0
C915 C 0.99245 0.8698 0.47054 0.0
C916 C 0.9728 0.85413 0.4626 0.0
C917 C 0.9757 0.83484 0.42025 0.0
C918 C 0.03688 0.88023 0.45156 0.0
C919 C 0.94832 0.85885 0.49365 0.0
C920 C 0.99182 0.91939 0.59768 0.0
C921 C 0.98747 0.94022 0.54339 0.0
C922 C 0.99222 0.89611 0.57599 0.0
C923 C 0.98866 0.89357 0.49787 0.0
C924 C 0.98328 0.91434 0.44352 0.0
C925 C 0.98256 0.9373 0.46705 0.0
C926 C 0.99768 0.87456 0.63641 0.0
C927 C 0.97926 0.91249 0.35956 0.0
H928 H 0.03489 0.84185 0.37505 0.0
H929 H 0.96025 0.82408 0.40868 0.0
H930 H 0.03456 0.89827 0.41562 0.0
H931 H 0.03858 0.88322 0.51233 0.0
H932 H 0.05376 0.8722 0.43366 0.0
H933 H 0.9359 0.8432 0.49291 0.0
H934 H 0.94964 0.86277 0.55361 0.0
H935 H 0.94055 0.87507 0.45804 0.0
H936 H 0.99586 0.9212 0.65674 0.0
H937 H 0.97867 0.95309 0.42498 0.0
H938 H 0.98901 0.85765 0.62367 0.0
H939 H 0.99171 0.87776 0.69446 0.0
H940 H 0.01733 0.87173 0.63827 0.0
H941 H 0.99589 0.90622 0.3341 0.0
H942 H 0.97409 0.93013 0.3254 0.0
H943 H 0.96501 0.89887 0.35404 0.0
C944 C 0.69144 0.99207 0.33762 0.0
C945 C 0.69712 0.01428 0.2916 0.0
C946 C 0.67162 0.98996 0.38822 0.0
C947 C 0.65725 0.01055 0.39279 0.0
C948 C 0.66437 0.03346 0.35214 0.0
C949 C 0.68416 0.03504 0.30174 0.0
C950 C 0.6651 0.9654 0.4329 0.0
C951 C 0.65012 0.05601 0.35786 0.0
C952 C 0.59037 1.00047 0.42921 0.0
C953 C 0.58798 1.00343 0.50676 0.0
C954 C 0.61281 1.00267 0.39189 0.0
C955 C 0.63353 1.00769 0.43326 0.0
C956 C 0.63131 0.01036 0.51195 0.0
C957 C 0.60856 1.00843 0.54744 0.0
C958 C 0.61432 0.99974 0.30783 0.0
C959 C 0.65265 0.01561 0.55929 0.0
H960 H 0.70129 0.97595 0.32954 0.0
H961 H 0.68857 0.05225 0.26628 0.0
H962 H 0.66196 0.96688 0.49452 0.0
H963 H 0.6482 0.95875 0.41013 0.0
H964 H 0.67928 0.95177 0.42902 0.0
H965 H 0.65919 0.07275 0.32824 0.0
H966 H 0.63227 0.05447 0.33145 0.0
H967 H 0.64715 0.05784 0.41928 0.0
H968 H 0.57456 0.99679 0.39732 0.0
H969 H 0.60701 0.01041 0.60771 0.0
H970 H 0.62683 0.98489 0.30041 0.0
H971 H 0.62154 0.01667 0.27335 0.0
H972 H 0.59662 0.99557 0.28414 0.0
H973 H 0.66984 0.01006 0.5356 0.0
H974 H 0.65067 1.00612 0.61947 0.0
H975 H 0.65356 0.03542 0.56124 0.0
C976 C 0.51731 0.67563 0.37173 0.0
C977 C 0.52679 0.67297 0.29948 0.0
C978 C 0.51783 0.65617 0.43359 0.0
C979 C 0.52788 0.63363 0.42235 0.0
C980 C 0.53878 0.63152 0.3507 0.0
C981 C 0.53821 0.65122 0.29051 0.0
C982 C 0.50638 0.65929 0.50951 0.0
C983 C 0.54963 0.60792 0.3357 0.0
C984 C 0.54121 0.58361 0.5906 0.0
C985 C 0.52083 0.56858 0.5917 0.0
C986 C 0.54355 0.60511 0.53707 0.0
C987 C 0.52525 0.6116 0.48247 0.0
C988 C 0.50478 0.59633 0.48274 0.0
C989 C 0.50274 0.57515 0.53759 0.0
C990 C 0.56551 0.62098 0.53931 0.0
C991 C 0.48502 0.6023 0.42476 0.0
H992 H 0.50833 0.69235 0.37857 0.0
H993 H 0.54559 0.64919 0.23455 0.0
H994 H 0.48952 0.64848 0.5177 0.0
H995 H 0.51835 0.65241 0.55806 0.0
H996 H 0.50215 0.67859 0.51229 0.0
H997 H 0.55907 0.60986 0.27913 0.0
H998 H 0.56247 0.60109 0.38172 0.0
H999 H 0.53529 0.59395 0.33644 0.0
H1000 H 0.55513 0.57888 0.63284 0.0
H1001 H 0.4869 0.56373 0.53814 0.0
H1002 H 0.56013 0.63959 0.54696 0.0
H1003 H 0.57542 0.62253 0.48376 0.0
H1004 H 0.57781 0.61376 0.58666 0.0
H1005 H 0.47753 0.6204 0.42946 0.0
H1006 H 0.47023 0.58865 0.43291 0.0
H1007 H 0.49234 0.60322 0.36543 0.0
C1008 C 0.85684 0.52667 0.44371 0.0
C1009 C 0.86017 0.53667 0.36616 0.0
C1010 C 0.87565 0.52685 0.49666 0.0
C1011 C 0.89816 0.53719 0.47092 0.0
C1012 C 0.90094 0.54876 0.39376 0.0
C1013 C 0.88189 0.54844 0.34252 0.0
C1014 C 0.87192 0.51464 0.57882 0.0
C1015 C 0.92456 0.56 0.36375 0.0
C1016 C 0.94686 0.54869 0.61203 0.0
C1017 C 0.96107 0.52795 0.61351 0.0
C1018 C 0.92606 0.55178 0.56707 0.0
C1019 C 0.91949 0.53386 0.52182 0.0
C1020 C 0.93395 0.51306 0.52233 0.0
C1021 C 0.95446 0.5103 0.56845 0.0
C1022 C 0.91101 0.57411 0.56841 0.0
C1023 C 0.92777 0.49369 0.47396 0.0
H1024 H 0.84007 0.5175 0.46184 0.0
H1025 H 0.88436 0.55633 0.28249 0.0
H1026 H 0.88213 0.49745 0.58866 0.0
H1027 H 0.87879 0.52636 0.61968 0.0
H1028 H 0.85274 0.51036 0.5922 0.0
H1029 H 0.92308 0.57025 0.30447 0.0
H1030 H 0.93144 0.57247 0.40224 0.0
H1031 H 0.938 0.54548 0.36289 0.0
H1032 H 0.95167 0.56229 0.64741 0.0
H1033 H 0.96531 0.4942 0.56941 0.0
H1034 H 0.89245 0.56866 0.58693 0.0
H1035 H 0.90997 0.58468 0.50958 0.0
H1036 H 0.91831 0.58611 0.60787 0.0
H1037 H 0.90965 0.48611 0.48973 0.0
H1038 H 0.94079 0.47855 0.48122 0.0
H1039 H 0.92737 0.50176 0.4121 0.0
loop_
_geom_bond_atom_site_label_1
_geom_bond_atom_site_label_2
_geom_bond_distance
_geom_bond_site_symmetry_2
_ccdc_geom_bond_type
H0 C1 0.949 . S
C1 H0 0.949 . S
C1 C2 1.395 . S
C1 C3 1.391 . S
C2 C1 1.395 . S
C2 C5 1.390 . S
C3 C1 1.391 . S
C3 C7 1.387 . S
C3 C8 1.491 . S
H4 C5 0.950 . S
C5 C2 1.390 . S
C5 H4 0.950 . S
C5 C6 1.378 . S
C6 C5 1.378 . S
C6 C7 1.409 . S
C7 C3 1.387 . S
C7 C6 1.409 . S
C7 H9 0.951 . S
C8 C3 1.491 . S
C8 C10 1.382 . S
C8 C12 1.404 . S
H9 C7 0.951 . S
C10 C8 1.382 . S
C10 C11 1.390 . S
C10 H15 0.949 . S
C11 C10 1.390 . S
C11 C16 1.399 . S
C12 C8 1.404 . S
C12 H13 0.950 . S
C12 C14 1.375 . S
H13 C12 0.950 . S
C14 C12 1.375 . S
C14 C16 1.382 . S
C14 H18 0.950 . S
H15 C10 0.949 . S
C16 C11 1.399 . S
C16 C14 1.382 . S
C16 H17 0.952 . S
H17 C16 0.952 . S
H18 C14 0.950 . S
H19 C20 0.949 . S
C20 H19 0.949 . S
C20 C21 1.395 . S
C20 C22 1.391 . S
C21 C20 1.395 . S
C21 C24 1.390 . S
C22 C20 1.391 . S
C22 C26 1.387 . S
C22 C27 1.491 . S
H23 C24 0.950 . S
C24 C21 1.390 . S
C24 H23 0.950 . S
C24 C25 1.378 . S
C25 C24 1.378 . S
C25 C26 1.409 . S
C26 C22 1.387 . S
C26 C25 1.409 . S
C26 H28 0.951 . S
C27 C22 1.491 . S
C27 C29 1.382 . S
C27 C31 1.404 . S
H28 C26 0.951 . S
C29 C27 1.382 . S
C29 C30 1.390 . S
C29 H34 0.949 . S
C30 C29 1.390 . S
C30 C35 1.399 . S
C31 C27 1.404 . S
C31 H32 0.950 . S
C31 C33 1.375 . S
H32 C31 0.950 . S
C33 C31 1.375 . S
C33 C35 1.382 . S
C33 H37 0.950 . S
H34 C29 0.949 . S
C35 C30 1.399 . S
C35 C33 1.382 . S
C35 H36 0.952 . S
H36 C35 0.952 . S
H37 C33 0.950 . S
H38 C39 0.949 . S
C39 H38 0.949 . S
C39 C40 1.403 . S
C39 C41 1.391 1_556 S
C40 C39 1.403 . S
C40 C43 1.369 1_566 S
C41 C39 1.391 1_554 S
C41 C45 1.387 . S
C41 C46 1.491 . S
H42 C43 0.956 . S
C43 C40 1.369 1_544 S
C43 H42 0.956 . S
C43 C44 1.380 1_545 S
C44 C43 1.380 1_565 S
C44 C45 1.409 . S
C45 C41 1.387 . S
C45 C44 1.409 . S
C45 H47 0.951 . S
C46 C41 1.491 . S
C46 C48 1.382 . S
C46 C50 1.404 . S
H47 C45 0.951 . S
C48 C46 1.382 . S
C48 C49 1.390 1_554 S
C48 H53 0.949 1_564 S
C49 C48 1.390 1_556 S
C49 C54 1.399 1_556 S
C50 C46 1.404 . S
C50 H51 0.950 . S
C50 C52 1.375 . S
H51 C50 0.950 . S
C52 C50 1.375 . S
C52 C54 1.382 . S
C52 H56 0.950 . S
H53 C48 0.949 1_546 S
C54 C49 1.399 1_554 S
C54 C52 1.382 . S
C54 H55 0.952 . S
H55 C54 0.952 . S
H56 C52 0.950 . S
H57 C58 0.949 . S
C58 H57 0.949 . S
C58 C59 1.395 . S
C58 C60 1.391 . S
C59 C58 1.395 . S
C59 C62 1.390 . S
C60 C58 1.391 . S
C60 C64 1.387 . S
C60 C65 1.491 . S
H61 C62 0.950 . S
C62 C59 1.390 . S
C62 H61 0.950 . S
C62 C63 1.378 . S
C63 C62 1.378 . S
C63 C64 1.409 . S
C64 C60 1.387 . S
C64 C63 1.409 . S
C64 H66 0.951 . S
C65 C60 1.491 . S
C65 C67 1.382 . S
C65 C69 1.404 . S
H66 C64 0.951 . S
C67 C65 1.382 . S
C67 C68 1.390 . S
C67 H72 0.949 . S
C68 C67 1.390 . S
C68 C73 1.399 . S
C69 C65 1.404 . S
C69 H70 0.950 . S
C69 C71 1.375 . S
H70 C69 0.950 . S
C71 C69 1.375 . S
C71 C73 1.382 . S
C71 H75 0.950 . S
H72 C67 0.949 . S
C73 C68 1.399 . S
C73 C71 1.382 . S
C73 H74 0.952 . S
H74 C73 0.952 . S
H75 C71 0.950 . S
H76 C77 0.949 . S
C77 H76 0.949 . S
C77 C78 1.395 . S
C77 C79 1.391 . S
C78 C77 1.395 . S
C78 C81 1.390 . S
C79 C77 1.391 . S
C79 C83 1.387 . S
C79 C84 1.491 . S
H80 C81 0.950 . S
C81 C78 1.390 . S
C81 H80 0.950 . S
C81 C82 1.378 . S
C82 C81 1.378 . S
C82 C83 1.409 . S
C83 C79 1.387 . S
C83 C82 1.409 . S
C83 H85 0.951 . S
C84 C79 1.491 . S
C84 C86 1.382 . S
C84 C88 1.404 . S
H85 C83 0.951 . S
C86 C84 1.382 . S
C86 C87 1.390 . S
C86 H91 0.949 . S
C87 C86 1.390 . S
C87 C92 1.399 . S
C88 C84 1.404 . S
C88 H89 0.950 . S
C88 C90 1.375 . S
H89 C88 0.950 . S
C90 C88 1.375 . S
C90 C92 1.382 . S
C90 H94 0.950 . S
H91 C86 0.949 . S
C92 C87 1.399 . S
C92 C90 1.382 . S
C92 H93 0.952 . S
H93 C92 0.952 . S
H94 C90 0.950 . S
H95 C96 0.949 . S
C96 H95 0.949 . S
C96 C97 1.395 . S
C96 C98 1.391 . S
C97 C96 1.395 . S
C97 C100 1.390 . S
C98 C96 1.391 . S
C98 C102 1.387 . S
C98 C103 1.491 . S
H99 C100 0.950 . S
C100 C97 1.390 . S
C100 H99 0.950 . S
C100 C101 1.378 . S
C101 C100 1.378 . S
C101 C102 1.409 . S
C102 C98 1.387 . S
C102 C101 1.409 . S
C102 H104 0.951 . S
C103 C98 1.491 . S
C103 C105 1.382 . S
C103 C107 1.404 . S
H104 C102 0.951 . S
C105 C103 1.382 . S
C105 C106 1.390 . S
C105 H110 0.949 . S
C106 C105 1.390 . S
C106 C111 1.399 . S
C107 C103 1.404 . S
C107 H108 0.950 . S
C107 C109 1.375 . S
H108 C107 0.950 . S
C109 C107 1.375 . S
C109 C111 1.382 . S
C109 H113 0.947 1_455 S
H110 C105 0.949 . S
C111 C106 1.399 . S
C111 C109 1.382 . S
C111 H112 0.952 . S
H112 C111 0.952 . S
H113 C109 0.947 1_655 S
H114 C115 0.949 . S
C115 H114 0.949 . S
C115 C116 1.395 . S
C115 C117 1.391 . S
C116 C115 1.395 . S
C116 C119 1.390 . S
C117 C115 1.391 . S
C117 C121 1.387 . S
C117 C122 1.488 1_545 S
H118 C119 0.950 . S
C119 C116 1.390 . S
C119 H118 0.950 . S
C119 C120 1.378 . S
C120 C119 1.378 . S
C120 C121 1.409 . S
C121 C117 1.387 . S
C121 C120 1.409 . S
C121 H123 0.951 . S
C122 C117 1.488 1_565 S
C122 C124 1.374 1_565 S
C122 C126 1.414 . S
H123 C121 0.951 . S
C124 C122 1.374 1_545 S
C124 C125 1.390 . S
C124 H129 0.949 . S
C125 C124 1.390 . S
C125 C130 1.399 1_545 S
C126 C122 1.414 . S
C126 H127 0.950 . S
C126 C128 1.375 . S
H127 C126 0.950 . S
C128 C126 1.375 . S
C128 C130 1.382 . S
C128 H132 0.950 . S
H129 C124 0.949 . S
C130 C125 1.399 1_565 S
C130 C128 1.382 . S
C130 H131 0.952 . S
H131 C130 0.952 . S
H132 C128 0.950 . S
H133 C134 0.949 . S
C134 H133 0.949 . S
C134 C135 1.395 . S
C134 C136 1.391 . S
C135 C134 1.395 . S
C135 C138 1.390 . S
C136 C134 1.391 . S
C136 C140 1.387 . S
C136 C141 1.491 . S
H137 C138 0.950 . S
C138 C135 1.390 . S
C138 H137 0.950 . S
C138 C139 1.378 . S
C139 C138 1.378 . S
C139 C140 1.409 . S
C140 C136 1.387 . S
C140 C139 1.409 . S
C140 H142 0.951 . S
C141 C136 1.491 . S
C141 C143 1.382 . S
C141 C145 1.404 . S
H142 C140 0.951 . S
C143 C141 1.382 . S
C143 C144 1.390 . S
C143 H148 0.949 . S
C144 C143 1.390 . S
C144 C149 1.399 . S
C145 C141 1.404 . S
C145 H146 0.950 . S
C145 C147 1.375 . S
H146 C145 0.950 . S
C147 C145 1.375 . S
C147 C149 1.382 . S
C147 H151 0.950 . S
H148 C143 0.949 . S
C149 C144 1.399 . S
C149 C147 1.382 . S
C149 H150 0.952 . S
H150 C149 0.952 . S
H151 C147 0.950 . S
Co152 N157 2.057 . S
Co152 O169 2.021 . S
Co152 O172 2.062 . S
Co152 O176 2.117 1_455 S
Co152 O177 2.020 1_545 S
C153 O173 1.259 1_545 S
C153 O176 1.258 . S
Co154 N163 2.057 . S
Co154 O170 2.117 1_655 S
Co154 O171 2.020 1_665 S
Co154 O173 2.021 . S
Co154 O178 2.062 . S
C155 N157 1.316 . S
C155 N158 1.347 1_556 S
C155 H160 0.931 . S
C156 N157 1.375 1_655 S
C156 C159 1.350 1_556 S
C156 H161 0.930 . S
N157 Co152 2.057 . S
N157 C155 1.316 . S
N157 C156 1.375 1_455 S
N158 C155 1.347 1_554 S
N158 C159 1.373 1_455 S
C159 C156 1.350 1_554 S
C159 N158 1.373 1_655 S
C159 H180 0.931 . S
H160 C155 0.931 . S
H161 C156 0.930 . S
C162 O169 1.259 . S
C162 O170 1.258 1_545 S
N163 Co154 2.057 . S
N163 C164 1.316 . S
N163 C165 1.375 1_655 S
C164 N163 1.316 . S
C164 N166 1.347 . S
C164 H175 0.931 . S
C165 N163 1.375 1_455 S
C165 C167 1.350 . S
C165 H174 0.930 . S
N166 C164 1.347 . S
N166 C167 1.373 1_655 S
C167 C165 1.350 . S
C167 N166 1.373 1_455 S
C167 H181 0.931 . S
C168 O171 1.254 . S
C168 O172 1.255 . S
O169 Co152 2.021 . S
O169 C162 1.259 . S
O170 Co154 2.117 1_455 S
O170 C162 1.258 1_565 S
O171 Co154 2.020 1_445 S
O171 C168 1.254 . S
O172 Co152 2.062 . S
O172 C168 1.255 . S
O173 C153 1.259 1_565 S
O173 Co154 2.021 . S
H174 C165 0.930 . S
H175 C164 0.931 . S
O176 Co152 2.117 1_655 S
O176 C153 1.258 . S
O177 Co152 2.020 1_565 S
O177 C179 1.256 . S
O178 Co154 2.062 . S
O178 C179 1.255 1_655 S
C179 O177 1.256 . S
C179 O178 1.255 1_455 S
H180 C159 0.931 . S
H181 C167 0.931 . S
Co182 N187 2.057 . S
Co182 O199 2.021 . S
Co182 O202 2.062 . S
Co182 O206 2.117 1_545 S
Co182 O207 2.020 . S
C183 O203 1.259 . S
C183 O206 1.258 . S
Co184 N193 2.058 . S
Co184 O200 2.147 . S
Co184 O201 2.018 1_545 S
Co184 O203 1.992 1_545 S
Co184 O208 2.066 . S
C185 N187 1.316 . S
C185 N188 1.347 1_556 S
C185 H190 0.931 . S
C186 N187 1.375 1_565 S
C186 C189 1.350 1_556 S
C186 H191 0.930 . S
N187 Co182 2.057 . S
N187 C185 1.316 . S
N187 C186 1.375 1_545 S
N188 C185 1.347 1_554 S
N188 C189 1.373 1_545 S
C189 C186 1.350 1_554 S
C189 N188 1.373 1_565 S
C189 H210 0.931 . S
H190 C185 0.931 . S
H191 C186 0.930 . S
C192 O199 1.259 . S
C192 O200 1.258 . S
N193 Co184 2.058 . S
N193 C194 1.316 1_545 S
N193 C195 1.375 . S
C194 N193 1.316 1_565 S
C194 N196 1.339 1_565 S
C194 H205 0.931 . S
C195 N193 1.375 . S
C195 C197 1.350 . S
C195 H204 0.930 . S
N196 C194 1.339 1_545 S
N196 C197 1.400 . S
C197 C195 1.350 . S
C197 N196 1.400 . S
C197 H211 0.931 . S
C198 O201 1.256 1_545 S
C198 O202 1.255 . S
O199 Co182 2.021 . S
O199 C192 1.259 . S
O200 Co184 2.147 . S
O200 C192 1.258 . S
O201 Co184 2.018 1_565 S
O201 C198 1.256 1_565 S
O202 Co182 2.062 . S
O202 C198 1.255 . S
O203 C183 1.259 . S
O203 Co184 1.992 1_565 S
H204 C195 0.930 . S
H205 C194 0.931 . S
O206 Co182 2.117 1_565 S
O206 C183 1.258 . S
O207 Co182 2.020 . S
O207 C209 1.256 . S
O208 Co184 2.066 . S
O208 C209 1.255 . S
C209 O207 1.256 . S
C209 O208 1.255 . S
H210 C189 0.931 . S
H211 C197 0.931 . S
Co212 N217 2.057 . S
Co212 O229 2.021 . S
Co212 O232 2.062 . S
Co212 O236 2.117 . S
Co212 O237 2.020 . S
C213 O233 1.259 . S
C213 O236 1.258 . S
Co214 N223 2.057 . S
Co214 O230 2.117 . S
Co214 O231 2.020 . S
Co214 O233 2.021 . S
Co214 O238 2.062 . S
C215 N217 1.316 . S
C215 N218 1.347 . S
C215 H220 0.931 . S
C216 N217 1.375 . S
C216 C219 1.350 . S
C216 H221 0.930 . S
N217 Co212 2.057 . S
N217 C215 1.316 . S
N217 C216 1.375 . S
N218 C215 1.347 . S
N218 C219 1.373 . S
C219 C216 1.350 . S
C219 N218 1.373 . S
C219 H240 0.931 . S
H220 C215 0.931 . S
H221 C216 0.930 . S
C222 O229 1.259 . S
C222 O230 1.258 . S
N223 Co214 2.057 . S
N223 C224 1.316 . S
N223 C225 1.375 . S
C224 N223 1.316 . S
C224 N226 1.347 . S
C224 H235 0.931 . S
C225 N223 1.375 . S
C225 C227 1.350 . S
C225 H234 0.930 . S
N226 C224 1.347 . S
N226 C227 1.373 . S
C227 C225 1.350 . S
C227 N226 1.373 . S
C227 H241 0.931 . S
C228 O231 1.256 . S
C228 O232 1.255 . S
O229 Co212 2.021 . S
O229 C222 1.259 . S
O230 Co214 2.117 . S
O230 C222 1.258 . S
O231 Co214 2.020 . S
O231 C228 1.256 . S
O232 Co212 2.062 . S
O232 C228 1.255 . S
O233 C213 1.259 . S
O233 Co214 2.021 . S
H234 C225 0.930 . S
H235 C224 0.931 . S
O236 Co212 2.117 . S
O236 C213 1.258 . S
O237 Co212 2.020 . S
O237 C239 1.256 . S
O238 Co214 2.062 . S
O238 C239 1.255 . S
C239 O237 1.256 . S
C239 O238 1.255 . S
H240 C219 0.931 . S
H241 C227 0.931 . S
Co242 N247 2.057 . S
Co242 O259 2.021 1_455 S
Co242 O262 2.062 1_455 S
Co242 O266 2.117 . S
Co242 O267 2.020 . S
C243 O263 1.259 . S
C243 O266 1.258 . S
Co244 N253 2.057 1_455 S
Co244 O260 2.117 1_455 S
Co244 O261 2.020 1_455 S
Co244 O263 2.021 . S
Co244 O268 2.062 . S
C245 N247 1.316 1_655 S
C245 N248 1.347 1_655 S
C245 H250 0.931 . S
C246 N247 1.375 . S
C246 C249 1.350 . S
C246 H251 0.930 . S
N247 Co242 2.057 . S
N247 C245 1.316 1_455 S
N247 C246 1.375 . S
N248 C245 1.347 1_455 S
N248 C249 1.373 . S
C249 C246 1.350 . S
C249 N248 1.373 . S
C249 H270 0.931 . S
H250 C245 0.931 . S
H251 C246 0.930 . S
C252 O259 1.259 . S
C252 O260 1.258 . S
N253 Co244 2.057 1_655 S
N253 C254 1.316 1_655 S
N253 C255 1.375 . S
C254 N253 1.316 1_455 S
C254 N256 1.347 . S
C254 H265 0.931 . S
C255 N253 1.375 . S
C255 C257 1.350 . S
C255 H264 0.930 . S
N256 C254 1.347 . S
N256 C257 1.373 1_455 S
C257 C255 1.350 . S
C257 N256 1.373 1_655 S
C257 H271 0.931 . S
C258 O261 1.256 . S
C258 O262 1.255 . S
O259 Co242 2.021 1_655 S
O259 C252 1.259 . S
O260 Co244 2.117 1_655 S
O260 C252 1.258 . S
O261 Co244 2.020 1_655 S
O261 C258 1.256 . S
O262 Co242 2.062 1_655 S
O262 C258 1.255 . S
O263 C243 1.259 . S
O263 Co244 2.021 . S
H264 C255 0.930 . S
H265 C254 0.931 . S
O266 Co242 2.117 . S
O266 C243 1.258 . S
O267 Co242 2.020 . S
O267 C269 1.256 . S
O268 Co244 2.062 . S
O268 C269 1.255 . S
C269 O267 1.256 . S
C269 O268 1.255 . S
H270 C249 0.931 . S
H271 C257 0.931 . S
C272 C273 1.391 . S
C272 C274 1.394 . S
C272 H288 0.920 1_545 S
C273 C272 1.391 . S
C273 C277 1.376 . S
C274 C272 1.394 . S
C274 C275 1.369 . S
C274 C278 1.531 1_545 S
C275 C274 1.369 . S
C275 C276 1.410 . S
C275 C283 1.503 . S
C276 C275 1.410 . S
C276 C277 1.392 . S
C276 C279 1.511 . S
C277 C273 1.376 . S
C277 C276 1.392 . S
C277 H289 0.929 . S
C278 C274 1.531 1_565 S
C278 H290 0.960 1_565 S
C278 H291 0.962 . S
C278 H292 0.960 . S
C279 C276 1.511 . S
C279 H293 0.961 . S
C279 H294 0.961 . S
C279 H295 0.961 . S
C280 C281 1.370 1_565 S
C280 C282 1.363 . S
C280 H296 0.931 . S
C281 C280 1.370 1_545 S
C281 C285 1.408 . S
C282 C280 1.363 . S
C282 C283 1.370 1_565 S
C282 C286 1.524 . S
C283 C275 1.503 . S
C283 C282 1.370 1_545 S
C283 C284 1.403 . S
C284 C283 1.403 . S
C284 C285 1.404 . S
C284 C287 1.539 . S
C285 C281 1.408 . S
C285 C284 1.404 . S
C285 H297 0.930 . S
C286 C282 1.524 . S
C286 H298 0.956 . S
C286 H299 0.961 . S
C286 H300 0.961 . S
C287 C284 1.539 . S
C287 H301 0.958 . S
C287 H302 0.961 . S
C287 H303 0.960 . S
H288 C272 0.920 1_565 S
H289 C277 0.929 . S
H290 C278 0.960 1_545 S
H291 C278 0.962 . S
H292 C278 0.960 . S
H293 C279 0.961 . S
H294 C279 0.961 . S
H295 C279 0.961 . S
H296 C280 0.931 . S
H297 C285 0.930 . S
H298 C286 0.956 . S
H299 C286 0.961 . S
H300 C286 0.961 . S
H301 C287 0.958 . S
H302 C287 0.961 . S
H303 C287 0.960 . S
C304 C305 1.391 . S
C304 C306 1.394 . S
C304 H320 0.931 . S
C305 C304 1.391 . S
C305 C309 1.376 . S
C306 C304 1.394 . S
C306 C307 1.369 . S
C306 C310 1.531 . S
C307 C306 1.369 . S
C307 C308 1.410 . S
C307 C315 1.503 . S
C308 C307 1.410 . S
C308 C309 1.392 . S
C308 C311 1.511 . S
C309 C305 1.376 . S
C309 C308 1.392 . S
C309 H321 0.929 . S
C310 C306 1.531 . S
C310 H322 0.960 . S
C310 H323 0.962 . S
C310 H324 0.960 . S
C311 C308 1.511 . S
C311 H325 0.961 . S
C311 H326 0.961 . S
C311 H327 0.961 . S
C312 C313 1.370 . S
C312 C314 1.363 . S
C312 H328 0.931 . S
C313 C312 1.370 . S
C313 C317 1.408 . S
C314 C312 1.363 . S
C314 C315 1.370 . S
C314 C318 1.524 . S
C315 C307 1.503 . S
C315 C314 1.370 . S
C315 C316 1.403 . S
C316 C315 1.403 . S
C316 C317 1.404 . S
C316 C319 1.539 . S
C317 C313 1.408 . S
C317 C316 1.404 . S
C317 H329 0.930 . S
C318 C314 1.524 . S
C318 H330 0.956 . S
C318 H331 0.961 . S
C318 H332 0.961 . S
C319 C316 1.539 . S
C319 H333 0.958 . S
C319 H334 0.961 . S
C319 H335 0.960 . S
H320 C304 0.931 . S
H321 C309 0.929 . S
H322 C310 0.960 . S
H323 C310 0.962 . S
H324 C310 0.960 . S
H325 C311 0.961 . S
H326 C311 0.961 . S
H327 C311 0.961 . S
H328 C312 0.931 . S
H329 C317 0.930 . S
H330 C318 0.956 . S
H331 C318 0.961 . S
H332 C318 0.961 . S
H333 C319 0.958 . S
H334 C319 0.961 . S
H335 C319 0.960 . S
C336 C337 1.391 . S
C336 C338 1.394 . S
C336 H352 0.931 . S
C337 C336 1.391 . S
C337 C341 1.376 . S
C338 C336 1.394 . S
C338 C339 1.369 . S
C338 C342 1.531 . S
C339 C338 1.369 . S
C339 C340 1.410 . S
C339 C347 1.503 . S
C340 C339 1.410 . S
C340 C341 1.392 . S
C340 C343 1.511 . S
C341 C337 1.376 . S
C341 C340 1.392 . S
C341 H353 0.929 . S
C342 C338 1.531 . S
C342 H354 0.960 . S
C342 H355 0.962 . S
C342 H356 0.960 . S
C343 C340 1.511 . S
C343 H357 0.961 . S
C343 H358 0.961 . S
C343 H359 0.961 . S
C344 C345 1.370 . S
C344 C346 1.363 . S
C344 H360 0.931 . S
C345 C344 1.370 . S
C345 C349 1.408 . S
C346 C344 1.363 . S
C346 C347 1.370 . S
C346 C350 1.524 . S
C347 C339 1.503 . S
C347 C346 1.370 . S
C347 C348 1.403 . S
C348 C347 1.403 . S
C348 C349 1.404 . S
C348 C351 1.539 . S
C349 C345 1.408 . S
C349 C348 1.404 . S
C349 H361 0.930 . S
C350 C346 1.524 . S
C350 H362 0.956 . S
C350 H363 0.961 . S
C350 H364 0.961 . S
C351 C348 1.539 . S
C351 H365 0.958 . S
C351 H366 0.961 . S
C351 H367 0.960 . S
H352 C336 0.931 . S
H353 C341 0.929 . S
H354 C342 0.960 . S
H355 C342 0.962 . S
H356 C342 0.960 . S
H357 C343 0.961 . S
H358 C343 0.961 . S
H359 C343 0.961 . S
H360 C344 0.931 . S
H361 C349 0.930 . S
H362 C350 0.956 . S
H363 C350 0.961 . S
H364 C350 0.961 . S
H365 C351 0.958 . S
H366 C351 0.961 . S
H367 C351 0.960 . S
C368 C369 1.391 . S
C368 C370 1.394 . S
C368 H384 0.931 . S
C369 C368 1.391 . S
C369 C373 1.376 . S
C370 C368 1.394 . S
C370 C371 1.369 . S
C370 C374 1.531 1_455 S
C371 C370 1.369 . S
C371 C372 1.410 . S
C371 C379 1.503 . S
C372 C371 1.410 . S
C372 C373 1.392 . S
C372 C375 1.511 . S
C373 C369 1.376 . S
C373 C372 1.392 . S
C373 H385 0.929 . S
C374 C370 1.531 1_655 S
C374 H386 0.960 . S
C374 H387 0.962 . S
C374 H388 0.960 . S
C375 C372 1.511 . S
C375 H389 0.961 . S
C375 H390 0.961 . S
C375 H391 0.961 . S
C376 C377 1.370 . S
C376 C378 1.363 . S
C376 H392 0.931 . S
C377 C376 1.370 . S
C377 C381 1.408 . S
C378 C376 1.363 . S
C378 C379 1.370 . S
C378 C382 1.524 . S
C379 C371 1.503 . S
C379 C378 1.370 . S
C379 C380 1.403 . S
C380 C379 1.403 . S
C380 C381 1.404 . S
C380 C383 1.539 . S
C381 C377 1.408 . S
C381 C380 1.404 . S
C381 H393 0.930 . S
C382 C378 1.524 . S
C382 H394 0.956 . S
C382 H395 0.961 . S
C382 H396 0.961 . S
C383 C380 1.539 . S
C383 H397 0.958 . S
C383 H398 0.961 . S
C383 H399 0.960 . S
H384 C368 0.931 . S
H385 C373 0.929 . S
H386 C374 0.960 . S
H387 C374 0.962 . S
H388 C374 0.960 . S
H389 C375 0.961 . S
H390 C375 0.961 . S
H391 C375 0.961 . S
H392 C376 0.931 . S
H393 C381 0.930 . S
H394 C382 0.956 . S
H395 C382 0.961 . S
H396 C382 0.961 . S
H397 C383 0.958 . S
H398 C383 0.961 . S
H399 C383 0.960 . S
C400 C401 1.391 . S
C400 C402 1.394 . S
C400 H416 0.931 . S
C401 C400 1.391 . S
C401 C405 1.376 1_545 S
C402 C400 1.394 . S
C402 C403 1.369 . S
C402 C406 1.531 . S
C403 C402 1.369 . S
C403 C404 1.410 1_545 S
C403 C411 1.503 . S
C404 C403 1.410 1_565 S
C404 C405 1.392 . S
C404 C407 1.511 . S
C405 C401 1.376 1_565 S
C405 C404 1.392 . S
C405 H417 0.929 1_556 S
C406 C402 1.531 . S
C406 H418 0.960 . S
C406 H419 0.962 . S
C406 H420 0.960 . S
C407 C404 1.511 . S
C407 H421 0.961 1_556 S
C407 H422 0.961 . S
C407 H423 0.961 1_556 S
C408 C409 1.370 1_565 S
C408 C410 1.363 . S
C408 H424 0.931 . S
C409 C408 1.370 1_545 S
C409 C413 1.408 . S
C410 C408 1.363 . S
C410 C411 1.370 1_565 S
C410 C414 1.524 . S
C411 C403 1.503 . S
C411 C410 1.370 1_545 S
C411 C412 1.403 . S
C412 C411 1.403 . S
C412 C413 1.404 . S
C412 C415 1.539 . S
C413 C409 1.408 . S
C413 C412 1.404 . S
C413 H425 0.930 . S
C414 C410 1.524 . S
C414 H426 0.956 . S
C414 H427 0.961 . S
C414 H428 0.961 . S
C415 C412 1.539 . S
C415 H429 0.958 . S
C415 H430 0.961 1_556 S
C415 H431 0.960 1_556 S
H416 C400 0.931 . S
H417 C405 0.929 1_554 S
H418 C406 0.960 . S
H419 C406 0.962 . S
H420 C406 0.960 . S
H421 C407 0.961 1_554 S
H422 C407 0.961 . S
H423 C407 0.961 1_554 S
H424 C408 0.931 . S
H425 C413 0.930 . S
H426 C414 0.956 . S
H427 C414 0.961 . S
H428 C414 0.961 . S
H429 C415 0.958 . S
H430 C415 0.961 1_554 S
H431 C415 0.960 1_554 S
C432 C433 1.391 1_554 S
C432 C434 1.394 . S
C432 H448 0.931 . S
C433 C432 1.391 1_556 S
C433 C437 1.376 . S
C434 C432 1.394 . S
C434 C435 1.369 1_554 S
C434 C438 1.531 . S
C435 C434 1.369 1_556 S
C435 C436 1.410 . S
C435 C443 1.503 . S
C436 C435 1.410 . S
C436 C437 1.392 . S
C436 C439 1.511 . S
C437 C433 1.376 . S
C437 C436 1.392 . S
C437 H449 0.929 . S
C438 C434 1.531 . S
C438 H450 0.960 . S
C438 H451 0.962 . S
C438 H452 0.960 . S
C439 C436 1.511 . S
C439 H453 0.961 . S
C439 H454 0.961 . S
C439 H455 0.961 . S
C440 C441 1.370 . S
C440 C442 1.363 . S
C440 H456 0.931 . S
C441 C440 1.370 . S
C441 C445 1.408 . S
C442 C440 1.363 . S
C442 C443 1.370 . S
C442 C446 1.524 . S
C443 C435 1.503 . S
C443 C442 1.370 . S
C443 C444 1.403 . S
C444 C443 1.403 . S
C444 C445 1.404 . S
C444 C447 1.539 . S
C445 C441 1.408 . S
C445 C444 1.404 . S
C445 H457 0.930 . S
C446 C442 1.524 . S
C446 H458 0.956 . S
C446 H459 0.961 . S
C446 H460 0.961 . S
C447 C444 1.539 . S
C447 H461 0.958 . S
C447 H462 0.961 . S
C447 H463 0.960 . S
H448 C432 0.931 . S
H449 C437 0.929 . S
H450 C438 0.960 . S
H451 C438 0.962 . S
H452 C438 0.960 . S
H453 C439 0.961 . S
H454 C439 0.961 . S
H455 C439 0.961 . S
H456 C440 0.931 . S
H457 C445 0.930 . S
H458 C446 0.956 . S
H459 C446 0.961 . S
H460 C446 0.961 . S
H461 C447 0.958 . S
H462 C447 0.961 . S
H463 C447 0.960 . S
C464 C465 1.391 . S
C464 C466 1.394 . S
C464 H480 0.931 . S
C465 C464 1.391 . S
C465 C469 1.376 1_554 S
C466 C464 1.394 . S
C466 C467 1.369 1_554 S
C466 C470 1.531 . S
C467 C466 1.369 1_556 S
C467 C468 1.410 . S
C467 C475 1.503 . S
C468 C467 1.410 . S
C468 C469 1.392 . S
C468 C471 1.511 . S
C469 C465 1.376 1_556 S
C469 C468 1.392 . S
C469 H481 0.929 . S
C470 C466 1.531 . S
C470 H482 0.960 . S
C470 H483 0.962 . S
C470 H484 0.960 . S
C471 C468 1.511 . S
C471 H485 0.961 . S
C471 H486 0.961 . S
C471 H487 0.961 . S
C472 C473 1.370 . S
C472 C474 1.363 . S
C472 H488 0.931 . S
C473 C472 1.370 . S
C473 C477 1.408 . S
C474 C472 1.363 . S
C474 C475 1.370 . S
C474 C478 1.524 1_556 S
C475 C467 1.503 . S
C475 C474 1.370 . S
C475 C476 1.403 . S
C476 C475 1.403 . S
C476 C477 1.404 . S
C476 C479 1.539 . S
C477 C473 1.408 . S
C477 C476 1.404 . S
C477 H489 0.930 . S
C478 C474 1.524 1_554 S
C478 H490 0.956 . S
C478 H491 0.958 1_554 S
C478 H492 0.961 . S
C479 C476 1.539 . S
C479 H493 0.958 . S
C479 H494 0.961 . S
C479 H495 0.960 . S
H480 C464 0.931 . S
H481 C469 0.929 . S
H482 C470 0.960 . S
H483 C470 0.962 . S
H484 C470 0.960 . S
H485 C471 0.961 . S
H486 C471 0.961 . S
H487 C471 0.961 . S
H488 C472 0.931 . S
H489 C477 0.930 . S
H490 C478 0.956 . S
H491 C478 0.958 1_556 S
H492 C478 0.961 . S
H493 C479 0.958 . S
H494 C479 0.961 . S
H495 C479 0.960 . S
C496 C497 1.391 . S
C496 C498 1.393 1_554 S
C496 H512 0.931 . S
C497 C496 1.391 . S
C497 C501 1.376 1_554 S
C498 C496 1.393 1_556 S
C498 C499 1.369 . S
C498 C502 1.531 . S
C499 C498 1.369 . S
C499 C500 1.410 . S
C499 C507 1.503 . S
C500 C499 1.410 . S
C500 C501 1.392 . S
C500 C503 1.511 1_655 S
C501 C497 1.376 1_556 S
C501 C500 1.392 . S
C501 H513 0.929 . S
C502 C498 1.531 . S
C502 H514 0.960 . S
C502 H515 0.962 . S
C502 H516 0.960 . S
C503 C500 1.511 1_455 S
C503 H517 0.961 . S
C503 H518 0.961 . S
C503 H519 0.961 . S
C504 C505 1.370 . S
C504 C506 1.363 . S
C504 H520 0.931 1_655 S
C505 C504 1.370 . S
C505 C509 1.408 . S
C506 C504 1.363 . S
C506 C507 1.370 . S
C506 C510 1.524 1_556 S
C507 C499 1.503 . S
C507 C506 1.370 . S
C507 C508 1.403 . S
C508 C507 1.403 . S
C508 C509 1.404 . S
C508 C511 1.539 . S
C509 C505 1.408 . S
C509 C508 1.404 . S
C509 H521 0.930 . S
C510 C506 1.524 1_554 S
C510 H522 0.956 . S
C510 H523 0.961 1_655 S
C510 H524 0.961 1_655 S
C511 C508 1.539 . S
C511 H525 0.958 . S
C511 H526 0.961 . S
C511 H527 0.960 . S
H512 C496 0.931 . S
H513 C501 0.929 . S
H514 C502 0.960 . S
H515 C502 0.962 . S
H516 C502 0.960 . S
H517 C503 0.961 . S
H518 C503 0.961 . S
H519 C503 0.961 . S
H520 C504 0.931 1_455 S
H521 C509 0.930 . S
H522 C510 0.956 . S
H523 C510 0.961 1_455 S
H524 C510 0.961 1_455 S
H525 C511 0.958 . S
H526 C511 0.961 . S
H527 C511 0.960 . S
C528 C529 1.391 . S
C528 C530 1.394 . S
C528 H544 0.931 . S
C529 C528 1.391 . S
C529 C533 1.376 . S
C530 C528 1.394 . S
C530 C531 1.369 . S
C530 C534 1.531 . S
C531 C530 1.369 . S
C531 C532 1.410 . S
C531 C539 1.503 . S
C532 C531 1.410 . S
C532 C533 1.392 . S
C532 C535 1.511 1_455 S
C533 C529 1.376 . S
C533 C532 1.392 . S
C533 H545 0.929 . S
C534 C530 1.531 . S
C534 H546 0.960 . S
C534 H547 0.962 . S
C534 H548 0.960 . S
C535 C532 1.511 1_655 S
C535 H549 0.961 . S
C535 H550 0.961 . S
C535 H551 0.961 . S
C536 C537 1.370 . S
C536 C538 1.363 . S
C536 H552 0.931 . S
C537 C536 1.370 . S
C537 C541 1.408 1_455 S
C538 C536 1.363 . S
C538 C539 1.370 . S
C538 C542 1.524 . S
C539 C531 1.503 . S
C539 C538 1.370 . S
C539 C540 1.403 . S
C540 C539 1.403 . S
C540 C541 1.404 1_455 S
C540 C543 1.539 1_455 S
C541 C537 1.408 1_655 S
C541 C540 1.404 1_655 S
C541 H553 0.930 . S
C542 C538 1.524 . S
C542 H554 0.956 . S
C542 H555 0.961 . S
C542 H556 0.961 . S
C543 C540 1.539 1_655 S
C543 H557 0.958 1_655 S
C543 H558 0.961 . S
C543 H559 0.960 . S
H544 C528 0.931 . S
H545 C533 0.929 . S
H546 C534 0.960 . S
H547 C534 0.962 . S
H548 C534 0.960 . S
H549 C535 0.961 . S
H550 C535 0.961 . S
H551 C535 0.961 . S
H552 C536 0.931 . S
H553 C541 0.930 . S
H554 C542 0.956 . S
H555 C542 0.961 . S
H556 C542 0.961 . S
H557 C543 0.958 1_455 S
H558 C543 0.961 . S
H559 C543 0.960 . S
C560 C561 1.391 1_565 S
C560 C562 1.394 . S
C560 H576 0.931 . S
C561 C560 1.391 1_545 S
C561 C565 1.376 . S
C562 C560 1.394 . S
C562 C563 1.369 1_565 S
C562 C566 1.531 . S
C563 C562 1.369 1_545 S
C563 C564 1.410 . S
C563 C571 1.503 . S
C564 C563 1.410 . S
C564 C565 1.392 . S
C564 C567 1.511 . S
C565 C561 1.376 . S
C565 C564 1.392 . S
C565 H577 0.929 . S
C566 C562 1.531 . S
C566 H578 0.960 . S
C566 H579 0.962 . S
C566 H580 0.960 . S
C567 C564 1.511 . S
C567 H581 0.961 . S
C567 H582 0.961 . S
C567 H583 0.961 . S
C568 C569 1.370 . S
C568 C570 1.363 . S
C568 H584 0.931 . S
C569 C568 1.370 . S
C569 C573 1.408 1_545 S
C570 C568 1.363 . S
C570 C571 1.370 . S
C570 C574 1.524 . S
C571 C563 1.503 . S
C571 C570 1.370 . S
C571 C572 1.403 1_545 S
C572 C571 1.403 1_565 S
C572 C573 1.404 . S
C572 C575 1.539 . S
C573 C569 1.408 1_565 S
C573 C572 1.404 . S
C573 H585 0.930 . S
C574 C570 1.524 . S
C574 H586 0.956 . S
C574 H587 0.961 . S
C574 H588 0.961 . S
C575 C572 1.539 . S
C575 H589 0.958 . S
C575 H590 0.961 . S
C575 H591 0.960 . S
H576 C560 0.931 . S
H577 C565 0.929 . S
H578 C566 0.960 . S
H579 C566 0.962 . S
H580 C566 0.960 . S
H581 C567 0.961 . S
H582 C567 0.961 . S
H583 C567 0.961 . S
H584 C568 0.931 . S
H585 C573 0.930 . S
H586 C574 0.956 . S
H587 C574 0.961 . S
H588 C574 0.961 . S
H589 C575 0.958 . S
H590 C575 0.961 . S
H591 C575 0.960 . S
C592 C593 1.391 . S
C592 C594 1.394 . S
C592 H608 0.931 . S
C593 C592 1.391 . S
C593 C597 1.376 . S
C594 C592 1.394 . S
C594 C595 1.369 . S
C594 C598 1.531 . S
C595 C594 1.369 . S
C595 C596 1.410 . S
C595 C603 1.503 . S
C596 C595 1.410 . S
C596 C597 1.392 . S
C596 C599 1.511 . S
C597 C593 1.376 . S
C597 C596 1.392 . S
C597 H609 0.929 . S
C598 C594 1.531 . S
C598 H610 0.960 . S
C598 H611 0.962 . S
C598 H612 0.960 . S
C599 C596 1.511 . S
C599 H613 0.961 . S
C599 H614 0.961 . S
C599 H615 0.961 . S
C600 C601 1.370 . S
C600 C602 1.363 . S
C600 H616 0.931 . S
C601 C600 1.370 . S
C601 C605 1.408 . S
C602 C600 1.363 . S
C602 C603 1.370 . S
C602 C606 1.524 . S
C603 C595 1.503 . S
C603 C602 1.370 . S
C603 C604 1.403 . S
C604 C603 1.403 . S
C604 C605 1.404 . S
C604 C607 1.539 . S
C605 C601 1.408 . S
C605 C604 1.404 . S
C605 H617 0.930 . S
C606 C602 1.524 . S
C606 H618 0.956 . S
C606 H619 0.961 . S
C606 H620 0.961 . S
C607 C604 1.539 . S
C607 H621 0.958 . S
C607 H622 0.961 . S
C607 H623 0.960 . S
H608 C592 0.931 . S
H609 C597 0.929 . S
H610 C598 0.960 . S
H611 C598 0.962 . S
H612 C598 0.960 . S
H613 C599 0.961 . S
H614 C599 0.961 . S
H615 C599 0.961 . S
H616 C600 0.931 . S
H617 C605 0.930 . S
H618 C606 0.956 . S
H619 C606 0.961 . S
H620 C606 0.961 . S
H621 C607 0.958 . S
H622 C607 0.961 . S
H623 C607 0.960 . S
C624 C625 1.391 . S
C624 C626 1.394 . S
C624 H640 0.931 . S
C625 C624 1.391 . S
C625 C629 1.376 . S
C626 C624 1.394 . S
C626 C627 1.369 . S
C626 C630 1.531 . S
C627 C626 1.369 . S
C627 C628 1.410 . S
C627 C635 1.503 . S
C628 C627 1.410 . S
C628 C629 1.392 . S
C628 C631 1.511 . S
C629 C625 1.376 . S
C629 C628 1.392 . S
C629 H641 0.929 . S
C630 C626 1.531 . S
C630 H642 0.960 . S
C630 H643 0.962 . S
C630 H644 0.960 . S
C631 C628 1.511 . S
C631 H645 0.961 . S
C631 H646 0.961 . S
C631 H647 0.961 . S
C632 C633 1.370 . S
C632 C634 1.363 . S
C632 H648 0.931 . S
C633 C632 1.370 . S
C633 C637 1.408 . S
C634 C632 1.363 . S
C634 C635 1.370 . S
C634 C638 1.524 . S
C635 C627 1.503 . S
C635 C634 1.370 . S
C635 C636 1.403 . S
C636 C635 1.403 . S
C636 C637 1.404 . S
C636 C639 1.539 . S
C637 C633 1.408 . S
C637 C636 1.404 . S
C637 H649 0.930 . S
C638 C634 1.524 . S
C638 H650 0.956 . S
C638 H651 0.961 . S
C638 H652 0.961 . S
C639 C636 1.539 . S
C639 H653 0.958 . S
C639 H654 0.961 . S
C639 H655 0.960 . S
H640 C624 0.931 . S
H641 C629 0.929 . S
H642 C630 0.960 . S
H643 C630 0.962 . S
H644 C630 0.960 . S
H645 C631 0.961 . S
H646 C631 0.961 . S
H647 C631 0.961 . S
H648 C632 0.931 . S
H649 C637 0.930 . S
H650 C638 0.956 . S
H651 C638 0.961 . S
H652 C638 0.961 . S
H653 C639 0.958 . S
H654 C639 0.961 . S
H655 C639 0.960 . S
C656 C657 1.391 . S
C656 C658 1.394 1_554 S
C656 H672 0.931 . S
C657 C656 1.391 . S
C657 C661 1.376 . S
C658 C656 1.394 1_556 S
C658 C659 1.369 . S
C658 C662 1.531 . S
C659 C658 1.369 . S
C659 C660 1.410 . S
C659 C667 1.503 . S
C660 C659 1.410 . S
C660 C661 1.392 1_556 S
C660 C663 1.511 1_655 S
C661 C657 1.376 . S
C661 C660 1.392 1_554 S
C661 H673 0.929 . S
C662 C658 1.531 . S
C662 H674 0.960 . S
C662 H675 0.962 . S
C662 H676 0.960 . S
C663 C660 1.511 1_455 S
C663 H677 0.961 . S
C663 H678 0.961 . S
C663 H679 0.961 1_556 S
C664 C665 1.370 1_655 S
C664 C666 1.363 . S
C664 H680 0.931 . S
C665 C664 1.370 1_455 S
C665 C669 1.410 . S
C666 C664 1.363 . S
C666 C667 1.370 . S
C666 C670 1.524 . S
C667 C659 1.503 . S
C667 C666 1.370 . S
C667 C668 1.403 . S
C668 C667 1.403 . S
C668 C669 1.400 1_655 S
C668 C671 1.539 1_556 S
C669 C665 1.410 . S
C669 C668 1.400 1_455 S
C669 H681 0.932 . S
C670 C666 1.524 . S
C670 H682 0.956 . S
C670 H683 0.961 . S
C670 H684 0.961 . S
C671 C668 1.539 1_554 S
C671 H685 0.958 . S
C671 H686 0.961 1_655 S
C671 H687 0.960 . S
H672 C656 0.931 . S
H673 C661 0.929 . S
H674 C662 0.960 . S
H675 C662 0.962 . S
H676 C662 0.960 . S
H677 C663 0.961 . S
H678 C663 0.961 . S
H679 C663 0.961 1_554 S
H680 C664 0.931 . S
H681 C669 0.932 . S
H682 C670 0.956 . S
H683 C670 0.961 . S
H684 C670 0.961 . S
H685 C671 0.958 . S
H686 C671 0.961 1_455 S
H687 C671 0.960 . S
C688 C689 1.391 . S
C688 C690 1.394 . S
C688 H704 0.929 . S
C689 C688 1.391 . S
C689 C693 1.376 1_556 S
C690 C688 1.394 . S
C690 C691 1.369 . S
C690 C694 1.532 1_565 S
C691 C690 1.369 . S
C691 C692 1.408 . S
C691 C699 1.500 1_565 S
C692 C691 1.408 . S
C692 C693 1.393 1_556 S
C692 C695 1.512 1_556 S
C693 C689 1.376 1_554 S
C693 C692 1.393 1_554 S
C693 H705 0.929 . S
C694 C690 1.532 1_545 S
C694 H706 0.952 1_545 S
C694 H707 0.977 . S
C694 H708 0.952 1_545 S
C695 C692 1.512 1_554 S
C695 H709 0.983 . S
C695 H710 0.961 1_565 S
C695 H711 0.961 . S
C696 C697 1.370 . S
C696 C698 1.363 . S
C696 H712 0.931 . S
C697 C696 1.370 . S
C697 C701 1.408 1_545 S
C698 C696 1.363 . S
C698 C699 1.405 . S
C698 C702 1.524 . S
C699 C691 1.500 1_545 S
C699 C698 1.405 . S
C699 C700 1.372 1_545 S
C700 C699 1.372 1_565 S
C700 C701 1.404 . S
C700 C703 1.539 . S
C701 C697 1.408 1_565 S
C701 C700 1.404 . S
C701 H713 0.930 . S
C702 C698 1.524 . S
C702 H714 0.956 . S
C702 H715 0.961 . S
C702 H716 0.961 . S
C703 C700 1.539 . S
C703 H717 0.958 . S
C703 H718 0.961 . S
C703 H719 0.960 . S
H704 C688 0.929 . S
H705 C693 0.929 . S
H706 C694 0.952 1_565 S
H707 C694 0.977 . S
H708 C694 0.952 1_565 S
H709 C695 0.983 . S
H710 C695 0.961 1_545 S
H711 C695 0.961 . S
H712 C696 0.931 . S
H713 C701 0.930 . S
H714 C702 0.956 . S
H715 C702 0.961 . S
H716 C702 0.961 . S
H717 C703 0.958 . S
H718 C703 0.961 . S
H719 C703 0.960 . S
C720 C721 1.391 . S
C720 C722 1.394 1_554 S
C720 H736 0.931 . S
C721 C720 1.391 . S
C721 C725 1.376 1_554 S
C722 C720 1.394 1_556 S
C722 C723 1.369 . S
C722 C726 1.531 1_556 S
C723 C722 1.369 . S
C723 C724 1.410 . S
C723 C731 1.503 . S
C724 C723 1.410 . S
C724 C725 1.392 . S
C724 C727 1.511 . S
C725 C721 1.376 1_556 S
C725 C724 1.392 . S
C725 H737 0.929 . S
C726 C722 1.531 1_554 S
C726 H738 0.960 1_554 S
C726 H739 0.962 . S
C726 H740 0.960 . S
C727 C724 1.511 . S
C727 H741 0.961 . S
C727 H742 0.961 . S
C727 H743 0.961 . S
C728 C729 1.370 . S
C728 C730 1.363 . S
C728 H744 0.931 . S
C729 C728 1.370 . S
C729 C733 1.408 . S
C730 C728 1.363 . S
C730 C731 1.370 . S
C730 C734 1.524 1_556 S
C731 C723 1.503 . S
C731 C730 1.370 . S
C731 C732 1.403 . S
C732 C731 1.403 . S
C732 C733 1.404 . S
C732 C735 1.539 . S
C733 C729 1.408 . S
C733 C732 1.404 . S
C733 H745 0.930 . S
C734 C730 1.524 1_554 S
C734 H746 0.956 . S
C734 H747 0.961 . S
C734 H748 0.961 . S
C735 C732 1.539 . S
C735 H749 0.958 . S
C735 H750 0.961 . S
C735 H751 0.960 . S
H736 C720 0.931 . S
H737 C725 0.929 . S
H738 C726 0.960 1_556 S
H739 C726 0.962 . S
H740 C726 0.960 . S
H741 C727 0.961 . S
H742 C727 0.961 . S
H743 C727 0.961 . S
H744 C728 0.931 . S
H745 C733 0.930 . S
H746 C734 0.956 . S
H747 C734 0.961 . S
H748 C734 0.961 . S
H749 C735 0.958 . S
H750 C735 0.961 . S
H751 C735 0.960 . S
C752 C753 1.391 . S
C752 C754 1.394 . S
C752 H768 0.931 . S
C753 C752 1.391 . S
C753 C757 1.376 1_554 S
C754 C752 1.394 . S
C754 C755 1.369 . S
C754 C758 1.531 . S
C755 C754 1.369 . S
C755 C756 1.410 1_554 S
C755 C763 1.503 1_554 S
C756 C755 1.410 1_556 S
C756 C757 1.392 . S
C756 C759 1.511 . S
C757 C753 1.376 1_556 S
C757 C756 1.392 . S
C757 H769 0.929 . S
C758 C754 1.531 . S
C758 H770 0.960 . S
C758 H771 0.962 . S
C758 H772 0.960 . S
C759 C756 1.511 . S
C759 H773 0.961 . S
C759 H774 0.961 . S
C759 H775 0.961 . S
C760 C761 1.370 . S
C760 C762 1.363 . S
C760 H776 0.931 . S
C761 C760 1.370 . S
C761 C765 1.408 . S
C762 C760 1.363 . S
C762 C763 1.370 . S
C762 C766 1.524 . S
C763 C755 1.503 1_556 S
C763 C762 1.370 . S
C763 C764 1.403 . S
C764 C763 1.403 . S
C764 C765 1.404 . S
C764 C767 1.539 . S
C765 C761 1.408 . S
C765 C764 1.404 . S
C765 H777 0.930 . S
C766 C762 1.524 . S
C766 H778 0.956 1_556 S
C766 H779 0.961 . S
C766 H780 0.961 . S
C767 C764 1.539 . S
C767 H781 0.958 . S
C767 H782 0.961 . S
C767 H783 0.960 . S
H768 C752 0.931 . S
H769 C757 0.929 . S
H770 C758 0.960 . S
H771 C758 0.962 . S
H772 C758 0.960 . S
H773 C759 0.961 . S
H774 C759 0.961 . S
H775 C759 0.961 . S
H776 C760 0.931 . S
H777 C765 0.930 . S
H778 C766 0.956 1_554 S
H779 C766 0.961 . S
H780 C766 0.961 . S
H781 C767 0.958 . S
H782 C767 0.961 . S
H783 C767 0.960 . S
C784 C785 1.391 . S
C784 C786 1.394 . S
C784 H800 0.931 . S
C785 C784 1.391 . S
C785 C789 1.376 . S
C786 C784 1.394 . S
C786 C787 1.369 . S
C786 C790 1.531 1_455 S
C787 C786 1.369 . S
C787 C788 1.410 . S
C787 C795 1.503 . S
C788 C787 1.410 . S
C788 C789 1.392 . S
C788 C791 1.511 . S
C789 C785 1.376 . S
C789 C788 1.392 . S
C789 H801 0.929 . S
C790 C786 1.531 1_655 S
C790 H802 0.960 . S
C790 H803 0.962 1_655 S
C790 H804 0.960 . S
C791 C788 1.511 . S
C791 H805 0.961 . S
C791 H806 0.961 . S
C791 H807 0.961 . S
C792 C793 1.370 . S
C792 C794 1.363 . S
C792 H808 0.931 . S
C793 C792 1.370 . S
C793 C797 1.408 . S
C794 C792 1.363 . S
C794 C795 1.370 . S
C794 C798 1.524 . S
C795 C787 1.503 . S
C795 C794 1.370 . S
C795 C796 1.403 . S
C796 C795 1.403 . S
C796 C797 1.404 . S
C796 C799 1.539 . S
C797 C793 1.408 . S
C797 C796 1.404 . S
C797 H809 0.930 1_554 S
C798 C794 1.524 . S
C798 H810 0.956 . S
C798 H811 0.961 . S
C798 H812 0.961 . S
C799 C796 1.539 . S
C799 H813 0.958 1_455 S
C799 H814 0.961 1_554 S
C799 H815 0.960 . S
H800 C784 0.931 . S
H801 C789 0.929 . S
H802 C790 0.960 . S
H803 C790 0.962 1_455 S
H804 C790 0.960 . S
H805 C791 0.961 . S
H806 C791 0.961 . S
H807 C791 0.961 . S
H808 C792 0.931 . S
H809 C797 0.930 1_556 S
H810 C798 0.956 . S
H811 C798 0.961 . S
H812 C798 0.961 . S
H813 C799 0.958 1_655 S
H814 C799 0.961 1_556 S
H815 C799 0.960 . S
C816 C817 1.391 . S
C816 C818 1.394 . S
C816 H832 0.931 . S
C817 C816 1.391 . S
C817 C821 1.376 . S
C818 C816 1.394 . S
C818 C819 1.369 . S
C818 C822 1.531 . S
C819 C818 1.369 . S
C819 C820 1.410 . S
C819 C827 1.503 . S
C820 C819 1.410 . S
C820 C821 1.392 . S
C820 C823 1.511 1_545 S
C821 C817 1.376 . S
C821 C820 1.392 . S
C821 H833 0.929 1_545 S
C822 C818 1.531 . S
C822 H834 0.960 . S
C822 H835 0.962 . S
C822 H836 0.960 . S
C823 C820 1.511 1_565 S
C823 H837 0.961 . S
C823 H838 0.961 . S
C823 H839 0.961 1_565 S
C824 C825 1.349 1_565 S
C824 C826 1.361 . S
C824 H840 0.957 . S
C825 C824 1.349 1_545 S
C825 C829 1.408 . S
C826 C824 1.361 . S
C826 C827 1.357 1_565 S
C826 C830 1.536 . S
C827 C819 1.503 . S
C827 C826 1.357 1_545 S
C827 C828 1.403 . S
C828 C827 1.403 . S
C828 C829 1.404 . S
C828 C831 1.539 . S
C829 C825 1.408 . S
C829 C828 1.404 . S
C829 H841 0.930 . S
C830 C826 1.536 . S
C830 H842 0.956 . S
C830 H843 0.961 . S
C830 H844 0.961 . S
C831 C828 1.539 . S
C831 H845 0.958 . S
C831 H846 0.961 . S
C831 H847 0.960 . S
H832 C816 0.931 . S
H833 C821 0.929 1_565 S
H834 C822 0.960 . S
H835 C822 0.962 . S
H836 C822 0.960 . S
H837 C823 0.961 . S
H838 C823 0.961 . S
H839 C823 0.961 1_545 S
H840 C824 0.957 . S
H841 C829 0.930 . S
H842 C830 0.956 . S
H843 C830 0.961 . S
H844 C830 0.961 . S
H845 C831 0.958 . S
H846 C831 0.961 . S
H847 C831 0.960 . S
C848 C849 1.391 . S
C848 C850 1.394 . S
C848 H864 0.931 . S
C849 C848 1.391 . S
C849 C853 1.376 . S
C850 C848 1.394 . S
C850 C851 1.369 . S
C850 C854 1.531 . S
C851 C850 1.369 . S
C851 C852 1.410 . S
C851 C859 1.503 . S
C852 C851 1.410 . S
C852 C853 1.392 . S
C852 C855 1.511 . S
C853 C849 1.376 . S
C853 C852 1.392 . S
C853 H865 0.929 . S
C854 C850 1.531 . S
C854 H866 0.960 . S
C854 H867 0.962 . S
C854 H868 0.960 . S
C855 C852 1.511 . S
C855 H869 0.961 . S
C855 H870 0.961 . S
C855 H871 0.961 . S
C856 C857 1.370 1_554 S
C856 C858 1.363 . S
C856 H872 0.931 . S
C857 C856 1.370 1_556 S
C857 C861 1.408 . S
C858 C856 1.363 . S
C858 C859 1.370 . S
C858 C862 1.524 . S
C859 C851 1.503 . S
C859 C858 1.370 . S
C859 C860 1.403 . S
C860 C859 1.403 . S
C860 C861 1.404 1_554 S
C860 C863 1.539 1_554 S
C861 C857 1.408 . S
C861 C860 1.404 1_556 S
C861 H873 0.930 . S
C862 C858 1.524 . S
C862 H874 0.956 . S
C862 H875 0.961 . S
C862 H876 0.961 . S
C863 C860 1.539 1_556 S
C863 H877 0.958 . S
C863 H878 0.961 . S
C863 H879 0.960 1_556 S
H864 C848 0.931 . S
H865 C853 0.929 . S
H866 C854 0.960 . S
H867 C854 0.962 . S
H868 C854 0.960 . S
H869 C855 0.961 . S
H870 C855 0.961 . S
H871 C855 0.961 . S
H872 C856 0.931 . S
H873 C861 0.930 . S
H874 C862 0.956 . S
H875 C862 0.961 . S
H876 C862 0.961 . S
H877 C863 0.958 . S
H878 C863 0.961 . S
H879 C863 0.960 1_554 S
C880 C881 1.391 . S
C880 C882 1.394 . S
C880 H896 0.931 . S
C881 C880 1.391 . S
C881 C885 1.376 . S
C882 C880 1.394 . S
C882 C883 1.369 . S
C882 C886 1.531 . S
C883 C882 1.369 . S
C883 C884 1.410 . S
C883 C891 1.503 . S
C884 C883 1.410 . S
C884 C885 1.392 . S
C884 C887 1.511 . S
C885 C881 1.376 . S
C885 C884 1.392 . S
C885 H897 0.929 . S
C886 C882 1.531 . S
C886 H898 0.960 . S
C886 H899 0.962 . S
C886 H900 0.960 . S
C887 C884 1.511 . S
C887 H901 0.961 . S
C887 H902 0.961 . S
C887 H903 0.961 1_554 S
C888 C889 1.370 1_554 S
C888 C890 1.363 . S
C888 H904 0.931 . S
C889 C888 1.370 1_556 S
C889 C893 1.408 . S
C890 C888 1.363 . S
C890 C891 1.370 . S
C890 C894 1.524 . S
C891 C883 1.503 . S
C891 C890 1.370 . S
C891 C892 1.403 1_554 S
C892 C891 1.403 1_556 S
C892 C893 1.404 . S
C892 C895 1.539 . S
C893 C889 1.408 . S
C893 C892 1.404 . S
C893 H905 0.930 . S
C894 C890 1.524 . S
C894 H906 0.956 . S
C894 H907 0.961 . S
C894 H908 0.961 . S
C895 C892 1.539 . S
C895 H909 0.958 1_556 S
C895 H910 0.961 . S
C895 H911 0.960 . S
H896 C880 0.931 . S
H897 C885 0.929 . S
H898 C886 0.960 . S
H899 C886 0.962 . S
H900 C886 0.960 . S
H901 C887 0.961 . S
H902 C887 0.961 . S
H903 C887 0.961 1_556 S
H904 C888 0.931 . S
H905 C893 0.930 . S
H906 C894 0.956 . S
H907 C894 0.961 . S
H908 C894 0.961 . S
H909 C895 0.958 1_554 S
H910 C895 0.961 . S
H911 C895 0.960 . S
C912 C913 1.391 . S
C912 C914 1.394 . S
C912 H928 0.931 . S
C913 C912 1.391 . S
C913 C917 1.376 . S
C914 C912 1.394 . S
C914 C915 1.369 . S
C914 C918 1.531 . S
C915 C914 1.369 . S
C915 C916 1.410 . S
C915 C923 1.503 . S
C916 C915 1.410 . S
C916 C917 1.392 . S
C916 C919 1.511 . S
C917 C913 1.376 . S
C917 C916 1.392 . S
C917 H929 0.929 . S
C918 C914 1.531 . S
C918 H930 0.960 . S
C918 H931 0.962 1_655 S
C918 H932 0.960 . S
C919 C916 1.511 . S
C919 H933 0.961 . S
C919 H934 0.961 . S
C919 H935 0.961 . S
C920 C921 1.370 . S
C920 C922 1.363 . S
C920 H936 0.931 1_655 S
C921 C920 1.370 . S
C921 C925 1.408 . S
C922 C920 1.363 . S
C922 C923 1.370 . S
C922 C926 1.524 1_655 S
C923 C915 1.503 . S
C923 C922 1.370 . S
C923 C924 1.403 . S
C924 C923 1.403 . S
C924 C925 1.404 . S
C924 C927 1.539 . S
C925 C921 1.408 . S
C925 C924 1.404 . S
C925 H937 0.930 . S
C926 C922 1.524 1_455 S
C926 H938 0.956 . S
C926 H939 0.961 1_455 S
C926 H940 0.961 . S
C927 C924 1.539 . S
C927 H941 0.958 . S
C927 H942 0.961 . S
C927 H943 0.960 . S
H928 C912 0.931 . S
H929 C917 0.929 . S
H930 C918 0.960 . S
H931 C918 0.962 1_455 S
H932 C918 0.960 . S
H933 C919 0.961 . S
H934 C919 0.961 . S
H935 C919 0.961 . S
H936 C920 0.931 1_455 S
H937 C925 0.930 . S
H938 C926 0.956 . S
H939 C926 0.961 1_655 S
H940 C926 0.961 . S
H941 C927 0.958 . S
H942 C927 0.961 . S
H943 C927 0.960 . S
C944 C945 1.391 . S
C944 C946 1.394 . S
C944 H960 0.931 . S
C945 C944 1.391 . S
C945 C949 1.376 1_565 S
C946 C944 1.394 . S
C946 C947 1.369 . S
C946 C950 1.531 . S
C947 C946 1.369 . S
C947 C948 1.410 1_565 S
C947 C955 1.503 . S
C948 C947 1.410 1_545 S
C948 C949 1.392 . S
C948 C951 1.511 . S
C949 C945 1.376 1_545 S
C949 C948 1.392 . S
C949 H961 0.929 . S
C950 C946 1.531 . S
C950 H962 0.960 . S
C950 H963 0.962 . S
C950 H964 0.960 . S
C951 C948 1.511 . S
C951 H965 0.961 . S
C951 H966 0.961 . S
C951 H967 0.961 . S
C952 C953 1.370 1_545 S
C952 C954 1.363 . S
C952 H968 0.931 . S
C953 C952 1.370 1_565 S
C953 C957 1.408 . S
C954 C952 1.363 . S
C954 C955 1.370 1_545 S
C954 C958 1.524 . S
C955 C947 1.503 . S
C955 C954 1.370 1_565 S
C955 C956 1.403 . S
C956 C955 1.403 . S
C956 C957 1.404 . S
C956 C959 1.539 . S
C957 C953 1.408 . S
C957 C956 1.404 . S
C957 H969 0.930 . S
C958 C954 1.524 . S
C958 H970 0.956 . S
C958 H971 0.961 . S
C958 H972 0.961 . S
C959 C956 1.539 . S
C959 H973 0.958 . S
C959 H974 0.961 . S
C959 H975 0.960 . S
H960 C944 0.931 . S
H961 C949 0.929 . S
H962 C950 0.960 . S
H963 C950 0.962 . S
H964 C950 0.960 . S
H965 C951 0.961 . S
H966 C951 0.961 . S
H967 C951 0.961 . S
H968 C952 0.931 . S
H969 C957 0.930 . S
H970 C958 0.956 . S
H971 C958 0.961 . S
H972 C958 0.961 . S
H973 C959 0.958 . S
H974 C959 0.961 . S
H975 C959 0.960 . S
C976 C977 1.391 . S
C976 C978 1.394 . S
C976 H992 0.931 . S
C977 C976 1.391 . S
C977 C981 1.376 . S
C978 C976 1.394 . S
C978 C979 1.369 . S
C978 C982 1.531 . S
C979 C978 1.369 . S
C979 C980 1.410 . S
C979 C987 1.503 . S
C980 C979 1.410 . S
C980 C981 1.392 . S
C980 C983 1.511 . S
C981 C977 1.376 . S
C981 C980 1.392 . S
C981 H993 0.929 . S
C982 C978 1.531 . S
C982 H994 0.960 . S
C982 H995 0.962 . S
C982 H996 0.960 . S
C983 C980 1.511 . S
C983 H997 0.961 . S
C983 H998 0.961 . S
C983 H999 0.961 . S
C984 C985 1.370 . S
C984 C986 1.363 . S
C984 H1000 0.931 . S
C985 C984 1.370 . S
C985 C989 1.408 . S
C986 C984 1.363 . S
C986 C987 1.370 . S
C986 C990 1.524 . S
C987 C979 1.503 . S
C987 C986 1.370 . S
C987 C988 1.403 . S
C988 C987 1.403 . S
C988 C989 1.404 . S
C988 C991 1.539 . S
C989 C985 1.408 . S
C989 C988 1.404 . S
C989 H1001 0.930 . S
C990 C986 1.524 . S
C990 H1002 0.956 . S
C990 H1003 0.961 . S
C990 H1004 0.961 . S
C991 C988 1.539 . S
C991 H1005 0.958 . S
C991 H1006 0.961 . S
C991 H1007 0.960 . S
H992 C976 0.931 . S
H993 C981 0.929 . S
H994 C982 0.960 . S
H995 C982 0.962 . S
H996 C982 0.960 . S
H997 C983 0.961 . S
H998 C983 0.961 . S
H999 C983 0.961 . S
H1000 C984 0.931 . S
H1001 C989 0.930 . S
H1002 C990 0.956 . S
H1003 C990 0.961 . S
H1004 C990 0.961 . S
H1005 C991 0.958 . S
H1006 C991 0.961 . S
H1007 C991 0.960 . S
C1008 C1009 1.391 . S
C1008 C1010 1.394 . S
C1008 H1024 0.931 . S
C1009 C1008 1.391 . S
C1009 C1013 1.376 . S
C1010 C1008 1.394 . S
C1010 C1011 1.369 . S
C1010 C1014 1.531 . S
C1011 C1010 1.369 . S
C1011 C1012 1.410 . S
C1011 C1019 1.503 . S
C1012 C1011 1.410 . S
C1012 C1013 1.392 . S
C1012 C1015 1.511 . S
C1013 C1009 1.376 . S
C1013 C1012 1.392 . S
C1013 H1025 0.929 . S
C1014 C1010 1.531 . S
C1014 H1026 0.960 . S
C1014 H1027 0.962 . S
C1014 H1028 0.960 . S
C1015 C1012 1.511 . S
C1015 H1029 0.961 . S
C1015 H1030 0.961 . S
C1015 H1031 0.961 . S
C1016 C1017 1.370 . S
C1016 C1018 1.363 . S
C1016 H1032 0.931 . S
C1017 C1016 1.370 . S
C1017 C1021 1.408 . S
C1018 C1016 1.363 . S
C1018 C1019 1.370 . S
C1018 C1022 1.524 . S
C1019 C1011 1.503 . S
C1019 C1018 1.370 . S
C1019 C1020 1.403 . S
C1020 C1019 1.403 . S
C1020 C1021 1.404 . S
C1020 C1023 1.539 . S
C1021 C1017 1.408 . S
C1021 C1020 1.404 . S
C1021 H1033 0.930 . S
C1022 C1018 1.524 . S
C1022 H1034 0.956 . S
C1022 H1035 0.961 . S
C1022 H1036 0.961 . S
C1023 C1020 1.539 . S
C1023 H1037 0.958 . S
C1023 H1038 0.961 . S
C1023 H1039 0.960 . S
H1024 C1008 0.931 . S
H1025 C1013 0.929 . S
H1026 C1014 0.960 . S
H1027 C1014 0.962 . S
H1028 C1014 0.960 . S
H1029 C1015 0.961 . S
H1030 C1015 0.961 . S
H1031 C1015 0.961 . S
H1032 C1016 0.931 . S
H1033 C1021 0.930 . S
H1034 C1022 0.956 . S
H1035 C1022 0.961 . S
H1036 C1022 0.961 . S
H1037 C1023 0.958 . S
H1038 C1023 0.961 . S
H1039 C1023 0.960 . S
C273 C125 1.634 . S
C281 C162 1.721 . S
C313 C192 1.836 . S
C305 C144 1.652 . S
C345 N226 1.392 . S
C337 C87 1.337 . S
C377 N256 1.388 . S
C369 C106 1.348 . S
C409 C153 1.723 . S
C401 C49 1.609 1_545 S
C433 C68 1.719 1_556 S
C441 C183 1.832 . S
C465 C11 1.383 . S
C473 N218 1.407 . S
C497 C30 1.407 . S
C505 N248 1.387 1_655 S
C537 C168 0.482 . S
C529 C97 0.626 . S
C569 C198 0.911 . S
C561 C116 0.815 . S
C601 C239 1.161 . S
C593 C135 1.170 . S
C625 C78 0.692 . S
C633 C269 0.698 . S
C657 C21 0.458 . S
C665 C179 0.495 . S
C697 C209 0.896 . S
C689 C40 0.897 . S
C729 C228 1.162 . S
C721 C59 1.163 . S
C753 C2 0.707 . S
C761 C258 0.717 . S
C785 C101 1.479 . S
C793 N158 1.464 . S
C817 C120 1.437 . S
C825 N188 1.452 . S
C857 C213 1.646 . S
C849 C139 1.640 . S
C889 C243 1.623 . S
C881 C82 1.599 . S
C913 C25 1.452 . S
C921 N166 1.478 . S
C953 N196 1.445 1_565 S
C945 C44 1.461 . S
C985 C222 1.651 . S
C977 C63 1.607 . S
C1009 C6 1.581 . S
C1017 C252 1.626 . S
