# Generated by pormake.
# Topology anh, (6,3)-cn, num edge types: 1
# Building blocks:
#     Node 0, Type 0, BuildingBlock: PAMTUU_clean_sbu_0, # of connection points: 6
#     Node 1, Type 0, BuildingBlock: PAMTUU_clean_sbu_0, # of connection points: 6
#     Node 2, Type 0, BuildingBlock: PAMTUU_clean_sbu_0, # of connection points: 6
#     Node 3, Type 1, BuildingBlock: ESEHIV_clean_linker_0, # of connection points: 3
#     Node 4, Type 1, BuildingBlock: ESEHIV_clean_linker_0, # of connection points: 3
#     Node 5, Type 1, BuildingBlock: ESEHIV_clean_linker_0, # of connection points: 3
#     Node 6, Type 1, BuildingBlock: ESEHIV_clean_linker_0, # of connection points: 3
#     Node 7, Type 1, BuildingBlock: ESEHIV_clean_linker_0, # of connection points: 3
#     Node 8, Type 1, BuildingBlock: ESEHIV_clean_linker_0, # of connection points: 3
#     Edge 9, Type (0, 1), BuildingBlock: KIFKEQ_clean_linker_1, # of connection points: 2
#     Edge 10, Type (0, 1), BuildingBlock: KIFKEQ_clean_linker_1, # of connection points: 2
#     Edge 11, Type (0, 1), BuildingBlock: KIFKEQ_clean_linker_1, # of connection points: 2
#     Edge 12, Type (0, 1), BuildingBlock: KIFKEQ_clean_linker_1, # of connection points: 2
#     Edge 13, Type (0, 1), BuildingBlock: KIFKEQ_clean_linker_1, # of connection points: 2
#     Edge 14, Type (0, 1), BuildingBlock: KIFKEQ_clean_linker_1, # of connection points: 2
#     Edge 15, Type (0, 1), BuildingBlock: KIFKEQ_clean_linker_1, # of connection points: 2
#     Edge 16, Type (0, 1), BuildingBlock: KIFKEQ_clean_linker_1, # of connection points: 2
#     Edge 17, Type (0, 1), BuildingBlock: KIFKEQ_clean_linker_1, # of connection points: 2
#     Edge 18, Type (0, 1), BuildingBlock: KIFKEQ_clean_linker_1, # of connection points: 2
#     Edge 19, Type (0, 1), BuildingBlock: KIFKEQ_clean_linker_1, # of connection points: 2
#     Edge 20, Type (0, 1), BuildingBlock: KIFKEQ_clean_linker_1, # of connection points: 2
#     Edge 21, Type (0, 1), BuildingBlock: KIFKEQ_clean_linker_1, # of connection points: 2
#     Edge 22, Type (0, 1), BuildingBlock: KIFKEQ_clean_linker_1, # of connection points: 2
#     Edge 23, Type (0, 1), BuildingBlock: KIFKEQ_clean_linker_1, # of connection points: 2
#     Edge 24, Type (0, 1), BuildingBlock: KIFKEQ_clean_linker_1, # of connection points: 2
#     Edge 25, Type (0, 1), BuildingBlock: KIFKEQ_clean_linker_1, # of connection points: 2
#     Edge 26, Type (0, 1), BuildingBlock: KIFKEQ_clean_linker_1, # of connection points: 2
# Relax obj value: 0.303
# Max RMSD: 0.198
# Mean RMSD: 0.164
data_MOF--net-anh--node1-PAMTUU_clean_sbu_0--node2-ESEHIV_clean_linker_0--edge1-KIFKEQ_clean_linker_1
_symmetry_space_group_name_H-M    P1
_symmetry_Int_Tables_number       1
_symmetry_cell_setting            triclinic
loop_
_symmetry_equiv_pos_as_xyz
'x, y, z'
_cell_length_a     27.516586
_cell_length_b     27.592989
_cell_length_c     52.712811
_cell_angle_alpha  90.424598
_cell_angle_beta   92.503955
_cell_angle_gamma 120.11148
loop_
_atom_site_label
_atom_site_type_symbol
_atom_site_fract_x
_atom_site_fract_y
_atom_site_fract_z
_atom_type_partial_charge
Tb0 Tb 0.22296 0.75304 0.16401 0.0
Tb1 Tb 0.28489 0.68194 0.17691 0.0
C2 C 0.25179 0.69475 0.12048 0.0
C3 C 1.10144 0.75707 0.14401 0.0
C4 C 0.99355 0.66222 0.13539 0.0
C5 C 1.03596 0.67382 0.11859 0.0
C6 C 1.08929 0.72076 0.1228 0.0
C7 C 1.05762 0.7482 0.15951 0.0
C8 C 1.00406 0.7011 0.15525 0.0
C9 C 0.1603 0.7923 0.15387 0.0
O10 O 0.1586 0.66983 0.17591 0.0
O11 O 0.19894 0.61881 0.16439 0.0
O12 O 0.25062 0.69364 0.21158 0.0
O13 O 0.25742 0.77707 0.20254 0.0
O14 O 0.28496 0.61784 0.19806 0.0
O15 O 0.35217 0.66718 0.17363 0.0
O16 O 0.34994 0.76985 0.18421 0.0
O17 O 0.31241 0.81471 0.16079 0.0
O18 O 0.2148 0.70636 0.12923 0.0
O19 O 0.28894 0.69156 0.13582 0.0
C20 C 0.15444 0.6211 0.17071 0.0
O21 O 0.1695 0.78054 0.17686 0.0
O22 O 0.19938 0.79772 0.13896 0.0
C23 C 0.25072 0.73926 0.2189 0.0
C24 C 0.32266 0.5717 0.17594 0.0
C25 C 0.31584 0.4769 0.15199 0.0
C26 C 0.34974 0.50078 0.17447 0.0
C27 C 0.3531 0.54784 0.18633 0.0
C28 C 0.28713 0.54698 0.15408 0.0
C29 C 0.28377 0.49991 0.14217 0.0
C30 C 0.32918 0.62314 0.18754 0.0
C31 C 0.35546 0.81493 0.17307 0.0
H32 H 1.02854 0.6454 0.10269 0.0
H33 H 1.12194 0.72609 0.11046 0.0
H34 H 1.06601 0.77508 0.17615 0.0
H35 H 0.972 0.69335 0.16843 0.0
H36 H 0.3758 0.48478 0.18227 0.0
H37 H 0.38061 0.56648 0.20323 0.0
H38 H 0.26304 0.56488 0.14594 0.0
H39 H 0.2571 0.4823 0.12498 0.0
Tb40 Tb 0.66113 1.09892 0.49463 0.0
Tb41 Tb 0.79444 0.16067 0.50932 0.0
C42 C 0.74766 0.152 0.45322 0.0
C43 C 0.50142 1.02078 0.4933 0.0
C44 C 0.38637 0.96456 0.50318 0.0
C45 C 0.40811 0.93921 0.48754 0.0
C46 C 0.46502 0.96717 0.4826 0.0
C47 C 0.48072 1.04428 0.51059 0.0
C48 C 0.42362 1.01636 0.51547 0.0
C49 C 0.55727 1.0548 0.48299 0.0
O50 O 0.67695 1.03054 0.50474 0.0
O51 O 0.77155 1.07496 0.49827 0.0
O52 O 0.75448 0.1124 0.54232 0.0
O53 O 0.66863 0.10652 0.53577 0.0
O54 O 0.87568 0.18316 0.49872 0.0
O55 O 0.86288 0.20958 0.53513 0.0
O56 O 0.76844 0.22078 0.51964 0.0
O57 O 0.69222 0.18922 0.49185 0.0
O58 O 0.70169 0.1071 0.45938 0.0
O59 O 0.78443 0.18568 0.47095 0.0
C60 C 0.7235 1.02883 0.50173 0.0
O61 O 0.58872 0.1055 0.49244 0.0
O62 O 0.58642 1.03062 0.47841 0.0
C63 C 0.70575 0.10192 0.55049 0.0
C64 C 0.9302 0.27929 0.51003 0.0
C65 C 0.93603 0.37299 0.48663 0.0
C66 C 0.92985 0.36709 0.51291 0.0
C67 C 0.92726 0.32066 0.52459 0.0
C68 C 0.94686 0.29096 0.48493 0.0
C69 C 0.94929 0.33725 0.47325 0.0
C70 C 0.89857 0.22011 0.51755 0.0
C71 C 0.73093 0.22891 0.50719 0.0
H72 H 0.38052 0.89969 0.47747 0.0
H73 H 0.47975 0.94836 0.46905 0.0
H74 H 0.50779 1.08564 0.5192 0.0
H75 H 0.40812 1.03661 0.52778 0.0
H76 H 0.92112 0.39482 0.52396 0.0
H77 H 0.916 0.31386 0.54421 0.0
H78 H 0.9512 0.26086 0.47336 0.0
H79 H 0.95706 0.34242 0.45321 0.0
Tb80 Tb 0.71747 0.59996 0.83342 0.0
Tb81 Tb 0.77551 0.73452 0.83958 0.0
C82 C 0.74384 0.67353 0.786 0.0
C83 C 0.69476 0.45817 0.83986 0.0
C84 C 0.73401 0.3835 0.84925 0.0
C85 C 0.67685 0.36636 0.8515 0.0
C86 C 0.65736 0.40347 0.84675 0.0
C87 C 0.75244 0.47671 0.83947 0.0
C88 C 0.77198 0.43949 0.84396 0.0
C89 C 0.67323 0.49521 0.83257 0.0
O90 O 0.80577 0.62813 0.82736 0.0
O91 O 0.84713 0.71994 0.84209 0.0
O92 O 0.73963 0.69423 0.87502 0.0
O93 O 0.7643 0.62912 0.86944 0.0
O94 O 0.78915 0.81305 0.82832 0.0
O95 O 0.82834 0.80505 0.86318 0.0
O96 O 0.68575 0.70563 0.83185 0.0
O97 O 0.65011 0.61514 0.84435 0.0
O98 O 0.70567 0.62862 0.79682 0.0
O99 O 0.78198 0.71758 0.79962 0.0
C100 C 0.85078 0.6761 0.83464 0.0
O101 O 0.66894 0.52383 0.85123 0.0
O102 O 0.69547 0.52583 0.81297 0.0
C103 C 0.7515 0.65768 0.88471 0.0
C104 C 0.78699 0.86199 0.86419 0.0
C105 C 0.70001 0.88002 0.87839 0.0
C106 C 0.71261 0.84422 0.89238 0.0
C107 C 0.75553 0.83489 0.8852 0.0
C108 C 0.78043 0.90433 0.85297 0.0
C109 C 0.7373 0.91347 0.86007 0.0
C110 C 0.81445 0.83677 0.8502 0.0
C111 C 0.64335 0.65788 0.83879 0.0
H112 H 0.64644 0.32318 0.85515 0.0
H113 H 0.61282 0.38884 0.84745 0.0
H114 H 0.78189 0.51926 0.83465 0.0
H115 H 0.81615 0.45366 0.8421 0.0
H116 H 0.6852 0.8186 0.90685 0.0
H117 H 0.75991 0.80223 0.8944 0.0
H118 H 0.80431 0.92581 0.83681 0.0
H119 H 0.72897 0.9415 0.84885 0.0
H120 H 0.69302 0.14026 0.2604 0.0
H121 H 0.84181 0.30219 0.26256 0.0
H122 H 0.76044 0.22003 0.19026 0.0
C123 C 0.72446 0.17546 0.25037 0.0
C124 C 0.72129 0.17361 0.22365 0.0
C125 C 0.76746 0.22136 0.26453 0.0
C126 C 0.80833 0.26694 0.2516 0.0
C127 C 0.80637 0.26776 0.22477 0.0
C128 C 0.76247 0.22045 0.21083 0.0
H129 H 0.74086 0.72295 0.58705 0.0
H130 H 0.73035 0.5631 0.59389 0.0
H131 H 0.73274 0.62941 0.51976 0.0
C132 C 0.73739 0.68552 0.57839 0.0
C133 C 0.73492 0.68047 0.55176 0.0
C134 C 0.73609 0.64377 0.59387 0.0
C135 C 0.73329 0.59638 0.58213 0.0
C136 C 0.73366 0.59072 0.55548 0.0
C137 C 0.73283 0.63269 0.54025 0.0
H138 H 0.17912 0.6754 0.92455 0.0
H139 H 0.32244 0.65309 0.92564 0.0
H140 H 0.24438 0.65994 0.85394 0.0
C141 C 0.21005 0.6709 0.91434 0.0
C142 C 0.20694 0.66978 0.88758 0.0
C143 C 0.25144 0.66515 0.92825 0.0
C144 C 0.28969 0.65639 0.91499 0.0
C145 C 0.28772 0.65401 0.88817 0.0
C146 C 0.24614 0.6611 0.87452 0.0
H147 H 0.96725 0.66282 0.35584 0.0
H148 H 1.10264 0.82029 0.38453 0.0
H149 H 0.9679 0.71924 0.43229 0.0
C150 C 0.98495 0.69484 0.37092 0.0
C151 C 0.96153 0.68363 0.39484 0.0
C152 C 1.03591 0.74393 0.36728 0.0
C153 C 1.06097 0.78488 0.38689 0.0
C154 C 1.03646 0.77632 0.41054 0.0
C155 C 0.98531 0.7267 0.4138 0.0
H156 H 0.66341 1.07377 0.73682 0.0
H157 H 0.53485 0.89927 0.72742 0.0
H158 H 0.57392 0.98409 0.80064 0.0
C159 C 0.63181 1.0351 0.74472 0.0
C160 C 0.62157 1.03445 0.77047 0.0
C161 C 0.60082 0.98671 0.72893 0.0
C162 C 0.55811 0.93719 0.7392 0.0
C163 C 0.54708 0.9366 0.76506 0.0
C164 C 0.57955 0.98524 0.78037 0.0
H165 H 0.5122 0.39123 0.03104 0.0
H166 H 0.68152 0.4248 0.03784 0.0
H167 H 0.56748 0.3308 0.09497 0.0
C168 C 0.54341 0.38401 0.04074 0.0
C169 C 0.53217 0.35658 0.06402 0.0
C170 C 0.59666 0.40655 0.03083 0.0
C171 C 0.63921 0.40251 0.04447 0.0
C172 C 0.62963 0.37719 0.06812 0.0
C173 C 0.57504 0.35108 0.07689 0.0
H174 H 0.32387 0.46985 0.10086 0.0
H175 H 0.3179 0.38511 0.17025 0.0
H176 H 0.3554 0.41395 0.07883 0.0
H177 H 0.34991 0.32904 0.14807 0.0
H178 H 0.42469 0.31912 0.04329 0.0
H179 H 0.34934 0.32458 0.0637 0.0
H180 H 0.44788 0.37215 0.13494 0.0
H181 H 0.52311 0.36937 0.11482 0.0
C182 C 0.32705 0.43768 0.11119 0.0
C183 C 0.31973 0.43284 0.13746 0.0
C184 C 0.34498 0.40538 0.09849 0.0
C185 C 0.35606 0.36778 0.11184 0.0
C186 C 0.34255 0.3584 0.13742 0.0
C187 C 0.32457 0.39069 0.15013 0.0
C188 C 0.42979 0.32975 0.06342 0.0
C189 C 0.48064 0.34465 0.0772 0.0
C190 C 0.38645 0.33245 0.0751 0.0
C191 C 0.39284 0.34911 0.10086 0.0
C192 C 0.44115 0.35834 0.11515 0.0
C193 C 0.48462 0.35658 0.10347 0.0
H194 H 0.96032 0.47922 0.50093 0.0
H195 H 0.87622 0.35136 0.44128 0.0
H196 H 0.93832 0.54165 0.47682 0.0
H197 H 0.85574 0.4144 0.41703 0.0
H198 H 0.88278 0.64155 0.43196 0.0
H199 H 0.85844 0.55652 0.45502 0.0
H200 H 0.93103 0.50421 0.39759 0.0
H201 H 0.95935 0.5893 0.37581 0.0
C202 C 0.93661 0.46417 0.48287 0.0
C203 C 0.92161 0.41099 0.47268 0.0
C204 C 0.92345 0.49966 0.46921 0.0
C205 C 0.89526 0.48265 0.44511 0.0
C206 C 0.87766 0.42848 0.43553 0.0
C207 C 0.89039 0.39291 0.44924 0.0
C208 C 0.89293 0.61165 0.42398 0.0
C209 C 0.92553 0.62433 0.40248 0.0
C210 C 0.87849 0.56277 0.43715 0.0
C211 C 0.89412 0.52471 0.42833 0.0
C212 C 0.91856 0.53298 0.40484 0.0
C213 C 0.93449 0.5823 0.39215 0.0
H214 H 0.60304 0.77929 0.87704 0.0
H215 H 0.66473 0.95722 0.8744 0.0
H216 H 0.51821 0.76095 0.85362 0.0
H217 H 0.57848 0.93778 0.85079 0.0
H218 H 0.55095 0.84013 0.76573 0.0
H219 H 0.54949 0.79929 0.8064 0.0
H220 H 0.46467 0.88001 0.83754 0.0
H221 H 0.46254 0.91758 0.79611 0.0
C222 C 0.59714 0.81449 0.87299 0.0
C223 C 0.6417 0.87003 0.87679 0.0
C224 C 0.54791 0.80349 0.85942 0.0
C225 C 0.54205 0.84746 0.84977 0.0
C226 C 0.5818 0.90274 0.85789 0.0
C227 C 0.63156 0.91402 0.87127 0.0
C228 C 0.52741 0.84503 0.7805 0.0
C229 C 0.51 0.88471 0.77837 0.0
C230 C 0.52695 0.82195 0.80405 0.0
C231 C 0.50963 0.83916 0.82539 0.0
C232 C 0.47938 0.86717 0.8215 0.0
C233 C 0.47794 0.8884 0.79765 0.0
H234 H 0.88787 0.64627 0.13867 0.0
H235 H 0.97707 0.55731 0.12607 0.0
H236 H 0.79886 0.56012 0.12988 0.0
H237 H 0.88763 0.47056 0.11731 0.0
H238 H 0.72877 0.38101 0.05813 0.0
H239 H 0.81848 0.44024 0.08135 0.0
H240 H 0.7321 0.46563 0.14197 0.0
H241 H 0.64297 0.4091 0.11829 0.0
C242 C 0.88834 0.608 0.13453 0.0
C243 C 0.93934 0.60874 0.13255 0.0
C244 C 0.83731 0.55841 0.12967 0.0
C245 C 0.83614 0.50838 0.12284 0.0
C246 C 0.88717 0.50851 0.12222 0.0
C247 C 0.93828 0.55821 0.12706 0.0
C248 C 0.7288 0.39781 0.07677 0.0
C249 C 0.67885 0.39176 0.0859 0.0
C250 C 0.78025 0.43153 0.09019 0.0
C251 C 0.78242 0.45915 0.11311 0.0
C252 C 0.73178 0.44616 0.124 0.0
C253 C 0.68046 0.41292 0.1105 0.0
H254 H 0.3289 1.02132 0.49883 0.0
H255 H 0.30443 0.85484 0.50619 0.0
H256 H 0.22993 0.98143 0.48572 0.0
H257 H 0.20674 0.81493 0.49175 0.0
H258 H 1.042 0.74305 0.45921 0.0
H259 H 1.11361 0.79477 0.49228 0.0
H260 H 0.1858 0.94024 0.44561 0.0
H261 H 1.11048 0.89009 0.41333 0.0
C262 C 0.302 0.97618 0.49849 0.0
C263 C 0.32468 0.9411 0.50296 0.0
C264 C 0.24536 0.95332 0.49064 0.0
C265 C 0.21055 0.89503 0.48695 0.0
C266 C 0.23193 0.86004 0.49433 0.0
C267 C 0.28832 0.88287 0.50237 0.0
C268 C 1.07105 0.78692 0.45631 0.0
C269 C 1.07081 0.81192 0.43311 0.0
C270 C 1.11299 0.81641 0.47531 0.0
C271 C 0.15671 0.87101 0.47134 0.0
C272 C 1.15303 0.89811 0.44941 0.0
C273 C 1.1102 0.869 0.43062 0.0
H274 H 0.71037 0.29729 0.88102 0.0
H275 H 0.79254 0.37122 0.81218 0.0
H276 H 0.70225 0.20848 0.86774 0.0
H277 H 0.78333 0.28279 0.79866 0.0
H278 H 0.58076 1.07292 0.80658 0.0
H279 H 0.63133 0.15659 0.83342 0.0
H280 H 0.78649 0.19532 0.79948 0.0
H281 H 0.73522 0.10989 0.77247 0.0
C282 C 0.72884 0.29517 0.86361 0.0
C283 C 0.75043 0.34032 0.84723 0.0
C284 C 0.72412 0.24442 0.85596 0.0
C285 C 0.74013 0.23823 0.83172 0.0
C286 C 0.77016 0.28604 0.81736 0.0
C287 C 0.7754 0.33691 0.82512 0.0
C288 C 0.62589 1.09837 0.80522 0.0
C289 C 0.65395 1.08494 0.78732 0.0
C290 C 0.65512 0.14622 0.82083 0.0
C291 C 0.71318 0.18224 0.81886 0.0
C292 C 0.74179 0.16817 0.80146 0.0
C293 C 0.71239 0.11978 0.78583 0.0
H294 H 0.81076 1.00913 0.49538 0.0
H295 H 0.63661 0.92497 0.51425 0.0
H296 H 0.81379 0.92365 0.50252 0.0
H297 H 0.63995 0.83933 0.52192 0.0
H298 H 0.65156 0.67951 0.5205 0.0
H299 H 0.64733 0.76127 0.50506 0.0
H300 H 0.81588 0.87013 0.53715 0.0
H301 H 0.81983 0.78874 0.55204 0.0
C302 C 0.77287 0.97235 0.50096 0.0
C303 C 0.72347 0.97456 0.50431 0.0
C304 C 0.77473 0.92308 0.50523 0.0
C305 C 0.72729 0.87406 0.51306 0.0
C306 C 0.6773 0.87572 0.51567 0.0
C307 C 0.67544 0.92516 0.51138 0.0
C308 C 0.68825 0.72086 0.52345 0.0
C309 C 0.7364 0.7275 0.53711 0.0
C310 C 0.68559 0.76795 0.515 0.0
C311 C 0.73114 0.82293 0.51989 0.0
C312 C 0.78011 0.82892 0.5326 0.0
C313 C 0.78255 0.78208 0.54113 0.0
H314 H 0.87419 0.59061 0.82873 0.0
H315 H 0.95543 0.76819 0.84607 0.0
H316 H 0.96253 0.59273 0.83796 0.0
H317 H 1.04475 0.77122 0.85392 0.0
H318 H 0.17484 0.74586 0.89958 0.0
H319 H 1.09245 0.74894 0.88403 0.0
H320 H 1.05401 0.6161 0.8289 0.0
H321 H 1.13573 0.61105 0.84579 0.0
C322 C 0.91101 0.63041 0.83415 0.0
C323 C 0.90685 0.67902 0.83701 0.0
C324 C 0.96231 0.63178 0.83926 0.0
C325 C 1.01162 0.68203 0.8471 0.0
C326 C 1.00791 0.73121 0.84867 0.0
C327 C 0.95643 0.72965 0.8439 0.0
C328 C 1.14901 0.71728 0.88406 0.0
C329 C 0.16184 0.67756 0.87429 0.0
C330 C 1.10165 0.71949 0.87483 0.0
C331 C 1.06537 0.68254 0.85515 0.0
C332 C 1.07985 0.64465 0.84439 0.0
C333 C 1.12739 0.64221 0.85382 0.0
H334 H 0.37899 0.9245 0.16964 0.0
H335 H 0.45919 0.82639 0.18305 0.0
H336 H 0.46931 1.01056 0.17814 0.0
H337 H 0.54961 0.91163 0.19007 0.0
H338 H 0.68777 1.06487 0.23375 0.0
H339 H 0.60196 0.98097 0.21951 0.0
H340 H 0.56068 1.07832 0.16831 0.0
H341 H 0.64637 0.16382 0.18408 0.0
C342 C 0.41606 0.92125 0.17398 0.0
C343 C 0.41135 0.86817 0.17594 0.0
C344 C 0.46829 0.97088 0.17874 0.0
C345 C 0.51773 0.96908 0.18523 0.0
C346 C 0.51296 0.9157 0.186 0.0
C347 C 0.46076 0.86631 0.18173 0.0
C348 C 0.66073 1.06856 0.21928 0.0
C349 C 0.67415 0.12161 0.21032 0.0
C350 C 0.61119 1.01986 0.21081 0.0
C351 C 0.57309 1.02175 0.19263 0.0
C352 C 0.58791 1.07462 0.18264 0.0
C353 C 0.63772 0.12382 0.19136 0.0
H354 H 0.64876 0.25629 0.49499 0.0
H355 H 0.81788 0.32722 0.52761 0.0
H356 H 0.6513 0.34478 0.50393 0.0
H357 H 0.82244 0.41631 0.53484 0.0
H358 H 0.79535 0.54519 0.57472 0.0
H359 H 0.79391 0.46066 0.56157 0.0
H360 H 0.68165 0.43989 0.49717 0.0
H361 H 0.68023 0.52394 0.51167 0.0
C362 C 0.68691 0.29103 0.50369 0.0
C363 C 0.73303 0.28411 0.51072 0.0
C364 C 0.6886 0.34226 0.5087 0.0
C365 C 0.7368 0.38855 0.52058 0.0
C366 C 0.78365 0.38189 0.52649 0.0
C367 C 0.78143 0.33057 0.52201 0.0
C368 C 0.76977 0.52263 0.55783 0.0
C369 C 0.73699 0.54153 0.54466 0.0
C370 C 0.7697 0.474 0.54992 0.0
C371 C 0.73773 0.44229 0.5281 0.0
C372 C 0.70628 0.46213 0.51429 0.0
C373 C 0.70599 0.51101 0.52242 0.0
H374 H 0.57722 0.61187 0.87851 0.0
H375 H 0.58376 0.69387 0.80857 0.0
H376 H 0.48944 0.60687 0.88719 0.0
H377 H 0.49184 0.68363 0.81552 0.0
H378 H 0.35316 0.71089 0.84825 0.0
H379 H 0.4327 0.7062 0.83276 0.0
H380 H 0.39824 0.57119 0.88347 0.0
H381 H 0.31968 0.57685 0.89873 0.0
C382 C 0.55897 0.62777 0.86463 0.0
C383 C 0.58773 0.65331 0.84289 0.0
C384 C 0.50747 0.62415 0.86936 0.0
C385 C 0.48107 0.64376 0.85197 0.0
C386 C 0.50978 0.66832 0.82977 0.0
C387 C 0.56279 0.6741 0.8256 0.0
C388 C 0.36247 0.67992 0.85587 0.0
C389 C 0.33074 0.64539 0.87531 0.0
C390 C 0.40896 0.67739 0.84716 0.0
C391 C 0.42586 0.64081 0.85789 0.0
C392 C 0.39036 0.60288 0.87568 0.0
C393 C 0.34422 0.60548 0.88433 0.0
H394 H 1.05085 0.609 0.17885 0.0
H395 H 1.13315 0.51208 0.1704 0.0
H396 H 0.96375 0.52398 0.18786 0.0
H397 H 1.04627 0.42704 0.18 0.0
H398 H 0.86983 0.27338 0.18427 0.0
H399 H 0.95014 0.35702 0.16789 0.0
H400 H 0.92563 0.46102 0.22142 0.0
H401 H 0.84537 0.37823 0.23713 0.0
C402 C 1.0505 0.56956 0.17888 0.0
C403 C 1.09967 0.56796 0.17409 0.0
C404 C 1.00033 0.52053 0.18421 0.0
C405 C 0.99746 0.46803 0.18507 0.0
C406 C 1.04616 0.46619 0.17937 0.0
C407 C 1.09637 0.51529 0.17395 0.0
C408 C 0.881 0.31423 0.19217 0.0
C409 C 0.85101 0.31868 0.21218 0.0
C410 C 0.92761 0.36234 0.18298 0.0
C411 C 0.94525 0.41644 0.19333 0.0
C412 C 0.91362 0.42069 0.21264 0.0
C413 C 0.86754 0.37283 0.22187 0.0
H414 H 0.32332 0.67359 0.09351 0.0
H415 H 0.17933 0.69631 0.08383 0.0
H416 H 0.32525 0.66577 0.04728 0.0
H417 H 0.18088 0.6878 0.03807 0.0
H418 H 0.23869 0.73854 0.95855 0.0
H419 H 0.23948 0.74329 0.00465 0.0
H420 H 0.2734 0.60674 0.00895 0.0
H421 H 0.27234 0.60174 0.96251 0.0
C422 C 0.29185 0.6765 0.08161 0.0
C423 C 0.25148 0.68607 0.09251 0.0
C424 C 0.29284 0.67181 0.05508 0.0
C425 C 0.25364 0.67683 0.03887 0.0
C426 C 0.21249 0.68492 0.04988 0.0
C427 C 0.21142 0.68946 0.07625 0.0
C428 C 0.24587 0.70913 0.96924 0.0
C429 C 0.25476 0.66929 0.95668 0.0
C430 C 0.24634 0.71187 0.99575 0.0
C431 C 0.25584 0.67496 0.0106 0.0
C432 C 0.26627 0.63604 0.99814 0.0
C433 C 0.26569 0.63319 0.9715 0.0
H434 H 0.83386 0.24458 0.43163 0.0
H435 H 0.67886 1.0902 0.41263 0.0
H436 H 0.84199 0.26765 0.38653 0.0
H437 H 0.68743 0.11266 0.36813 0.0
H438 H 0.68006 0.19093 0.29525 0.0
H439 H 0.679 0.17877 0.34093 0.0
H440 H 0.85713 0.23728 0.34411 0.0
H441 H 0.85816 0.2497 0.29805 0.0
C442 C 0.80175 0.21547 0.4179 0.0
C443 C 0.75548 0.16571 0.42587 0.0
C444 C 0.8065 0.22861 0.39205 0.0
C445 C 0.76495 0.19238 0.37369 0.0
C446 C 0.71956 0.14221 0.38173 0.0
C447 C 0.71488 0.12912 0.40736 0.0
C448 C 0.71909 0.20135 0.30565 0.0
C449 C 0.76901 0.22048 0.29289 0.0
C450 C 0.71849 0.19429 0.33188 0.0
C451 C 0.76778 0.20605 0.3462 0.0
C452 C 0.81843 0.2279 0.3337 0.0
C453 C 0.81903 0.23505 0.30731 0.0
H454 H 0.78388 0.76191 0.75365 0.0
H455 H 0.70575 0.58163 0.75474 0.0
H456 H 0.78315 0.75701 0.70696 0.0
H457 H 0.70656 0.57716 0.70854 0.0
H458 H 0.78718 0.60871 0.62959 0.0
H459 H 0.78992 0.61775 0.67574 0.0
H460 H 0.69801 0.70607 0.66936 0.0
H461 H 0.69168 0.69417 0.62318 0.0
C462 C 0.76685 0.72143 0.74397 0.0
C463 C 0.74464 0.67218 0.75787 0.0
C464 C 0.76627 0.71862 0.71732 0.0
C465 C 0.74492 0.66668 0.70422 0.0
C466 C 0.7235 0.61771 0.71816 0.0
C467 C 0.72281 0.62036 0.74461 0.0
C468 C 0.76656 0.62922 0.63783 0.0
C469 C 0.73885 0.65031 0.6223 0.0
C470 C 0.76875 0.63489 0.66434 0.0
C471 C 0.74447 0.66289 0.67606 0.0
C472 C 0.71772 0.68495 0.66076 0.0
C473 C 0.71438 0.67822 0.63424 0.0
H474 H 0.75791 1.06249 0.58258 0.0
H475 H 0.61709 1.0909 0.57635 0.0
H476 H 0.72942 1.02316 0.62421 0.0
H477 H 0.58972 1.05339 0.61824 0.0
H478 H 0.5276 0.94992 0.68694 0.0
H479 H 0.55151 0.97042 0.64262 0.0
H480 H 0.72835 1.05417 0.66607 0.0
H481 H 0.70431 1.03143 0.70983 0.0
C482 C 0.72121 1.06087 0.5902 0.0
C483 C 0.69005 1.08024 0.57623 0.0
C484 C 0.7048 1.03824 0.61406 0.0
C485 C 0.65713 1.03491 0.62461 0.0
C486 C 0.62595 1.05419 0.61054 0.0
C487 C 0.64207 1.07636 0.58661 0.0
C488 C 0.57145 0.9713 0.68243 0.0
C489 C 0.61409 0.98971 0.70182 0.0
C490 C 0.58524 0.98376 0.65712 0.0
C491 C 0.64191 1.0148 0.65079 0.0
C492 C 0.68431 1.02998 0.67011 0.0
C493 C 0.67054 1.01737 0.69528 0.0
H494 H 0.80153 0.61632 0.91561 0.0
H495 H 0.662 0.64636 0.91008 0.0
H496 H 0.76168 0.55787 0.95189 0.0
H497 H 0.6202 0.58541 0.94582 0.0
H498 H 0.58357 0.49719 0.02337 0.0
H499 H 0.62381 0.5661 0.99028 0.0
H500 H 0.68447 0.46566 0.95531 0.0
H501 H 0.64598 0.39832 0.98883 0.0
C502 C 0.76275 0.61115 0.92255 0.0
C503 C 0.73465 0.63549 0.91008 0.0
C504 C 0.7394 0.57697 0.94306 0.0
C505 C 0.68678 0.56541 0.95124 0.0
C506 C 0.66067 0.59325 0.93995 0.0
C507 C 0.68466 0.62836 0.91957 0.0
C508 C 0.6046 0.48954 0.00827 0.0
C509 C 0.61175 0.44256 0.00853 0.0
C510 C 0.62785 0.52906 0.9894 0.0
C511 C 0.65843 0.52208 0.97043 0.0
C512 C 0.66276 0.47335 0.97007 0.0
C513 C 0.6401 0.43432 0.98902 0.0
H514 H 0.1841 0.65227 0.24818 0.0
H515 H 0.26758 0.83259 0.24509 0.0
H516 H 1.13399 0.65493 0.28438 0.0
H517 H 0.21981 0.83593 0.28239 0.0
H518 H 1.07366 0.81685 0.32824 0.0
H519 H 1.13103 0.81726 0.29388 0.0
H520 H 1.13634 0.67665 0.32686 0.0
H521 H 1.07645 0.67462 0.35987 0.0
C522 C 0.19316 0.6927 0.2558 0.0
C523 C 0.22976 0.74222 0.24382 0.0
C524 C 0.16435 0.69434 0.27664 0.0
C525 C 0.17229 0.74569 0.28634 0.0
C526 C 0.21142 0.79551 0.27512 0.0
C527 C 0.23945 0.79373 0.25395 0.0
C528 C 1.08689 0.78593 0.32778 0.0
C529 C 1.06999 0.74506 0.34621 0.0
C530 C 1.12029 0.78641 0.30836 0.0
C531 C 1.13837 0.74678 0.30742 0.0
C532 C 1.12226 0.70691 0.32644 0.0
C533 C 1.08809 0.70578 0.34544 0.0
loop_
_geom_bond_atom_site_label_1
_geom_bond_atom_site_label_2
_geom_bond_distance
_geom_bond_site_symmetry_2
_ccdc_geom_bond_type
Tb0 C9 2.764 1_455 S
Tb0 O10 2.325 1_455 S
Tb0 O13 2.303 . S
Tb0 O17 2.322 . S
Tb0 O18 2.349 . S
Tb0 O21 2.415 1_455 S
Tb0 O22 2.399 1_455 S
Tb1 O11 2.322 1_455 S
Tb1 O12 2.349 . S
Tb1 O14 2.415 . S
Tb1 O15 2.399 . S
Tb1 O16 2.325 . S
Tb1 O19 2.303 . S
Tb1 C30 2.764 . S
C2 O18 1.261 . S
C2 O19 1.257 . S
C3 C6 1.358 . S
C3 C7 1.332 . S
C3 C9 1.504 . S
C4 C5 1.373 . S
C4 C8 1.308 . S
C5 C4 1.373 . S
C5 C6 1.429 . S
C5 H32 0.932 . S
C6 C3 1.358 . S
C6 C5 1.429 . S
C6 H33 0.930 . S
C7 C3 1.332 . S
C7 C8 1.394 . S
C7 H34 0.932 . S
C8 C4 1.308 . S
C8 C7 1.394 . S
C8 H35 0.929 . S
C9 Tb0 2.764 1_655 S
C9 C3 1.504 . S
C9 O21 1.239 . S
C9 O22 1.263 . S
O10 Tb0 2.325 1_655 S
O10 C20 1.236 . S
O11 Tb1 2.322 1_655 S
O11 C20 1.257 . S
O12 Tb1 2.349 . S
O12 C23 1.261 . S
O13 Tb0 2.303 . S
O13 C23 1.257 . S
O14 Tb1 2.415 . S
O14 C30 1.239 . S
O15 Tb1 2.399 . S
O15 C30 1.263 . S
O16 Tb1 2.325 . S
O16 C31 1.236 . S
O17 Tb0 2.322 . S
O17 C31 1.257 . S
O18 Tb0 2.349 . S
O18 C2 1.261 . S
O19 Tb1 2.303 . S
O19 C2 1.257 . S
C20 O10 1.236 . S
C20 O11 1.257 . S
O21 Tb0 2.415 1_655 S
O21 C9 1.239 . S
O22 Tb0 2.399 1_655 S
O22 C9 1.263 . S
C23 O12 1.261 . S
C23 O13 1.257 . S
C24 C27 1.358 . S
C24 C28 1.332 . S
C24 C30 1.504 . S
C25 C26 1.373 . S
C25 C29 1.308 . S
C26 C25 1.373 . S
C26 C27 1.429 . S
C26 H36 0.932 . S
C27 C24 1.358 . S
C27 C26 1.429 . S
C27 H37 0.930 . S
C28 C24 1.332 . S
C28 C29 1.394 . S
C28 H38 0.932 . S
C29 C25 1.308 . S
C29 C28 1.394 . S
C29 H39 0.929 . S
C30 Tb1 2.764 . S
C30 O14 1.239 . S
C30 O15 1.263 . S
C30 C24 1.504 . S
C31 O16 1.236 . S
C31 O17 1.257 . S
H32 C5 0.932 . S
H33 C6 0.930 . S
H34 C7 0.932 . S
H35 C8 0.929 . S
H36 C26 0.932 . S
H37 C27 0.930 . S
H38 C28 0.932 . S
H39 C29 0.929 . S
Tb40 C49 2.764 . S
Tb40 O50 2.325 . S
Tb40 O53 2.303 1_565 S
Tb40 O57 2.322 1_565 S
Tb40 O58 2.349 1_565 S
Tb40 O61 2.415 . S
Tb40 O62 2.399 . S
Tb41 O51 2.322 1_545 S
Tb41 O52 2.349 . S
Tb41 O54 2.415 . S
Tb41 O55 2.399 . S
Tb41 O56 2.325 . S
Tb41 O59 2.303 . S
Tb41 C70 2.764 . S
C42 O58 1.261 . S
C42 O59 1.257 . S
C43 C46 1.358 . S
C43 C47 1.332 . S
C43 C49 1.504 . S
C44 C45 1.373 . S
C44 C48 1.308 . S
C45 C44 1.373 . S
C45 C46 1.429 . S
C45 H72 0.932 . S
C46 C43 1.358 . S
C46 C45 1.429 . S
C46 H73 0.930 . S
C47 C43 1.332 . S
C47 C48 1.394 . S
C47 H74 0.932 . S
C48 C44 1.308 . S
C48 C47 1.394 . S
C48 H75 0.929 . S
C49 Tb40 2.764 . S
C49 C43 1.504 . S
C49 O61 1.239 . S
C49 O62 1.263 . S
O50 Tb40 2.325 . S
O50 C60 1.236 . S
O51 Tb41 2.322 1_565 S
O51 C60 1.257 . S
O52 Tb41 2.349 . S
O52 C63 1.261 . S
O53 Tb40 2.303 1_545 S
O53 C63 1.257 . S
O54 Tb41 2.415 . S
O54 C70 1.239 . S
O55 Tb41 2.399 . S
O55 C70 1.263 . S
O56 Tb41 2.325 . S
O56 C71 1.236 . S
O57 Tb40 2.322 1_545 S
O57 C71 1.257 . S
O58 Tb40 2.349 1_545 S
O58 C42 1.261 . S
O59 Tb41 2.303 . S
O59 C42 1.257 . S
C60 O50 1.236 . S
C60 O51 1.257 . S
O61 Tb40 2.415 . S
O61 C49 1.239 . S
O62 Tb40 2.399 . S
O62 C49 1.263 . S
C63 O52 1.261 . S
C63 O53 1.257 . S
C64 C67 1.358 . S
C64 C68 1.332 . S
C64 C70 1.504 . S
C65 C66 1.373 . S
C65 C69 1.308 . S
C66 C65 1.373 . S
C66 C67 1.429 . S
C66 H76 0.932 . S
C67 C64 1.358 . S
C67 C66 1.429 . S
C67 H77 0.930 . S
C68 C64 1.332 . S
C68 C69 1.394 . S
C68 H78 0.932 . S
C69 C65 1.308 . S
C69 C68 1.394 . S
C69 H79 0.929 . S
C70 Tb41 2.764 . S
C70 O54 1.239 . S
C70 O55 1.263 . S
C70 C64 1.504 . S
C71 O56 1.236 . S
C71 O57 1.257 . S
H72 C45 0.932 . S
H73 C46 0.930 . S
H74 C47 0.932 . S
H75 C48 0.929 . S
H76 C66 0.932 . S
H77 C67 0.930 . S
H78 C68 0.932 . S
H79 C69 0.929 . S
Tb80 C89 2.764 . S
Tb80 O90 2.325 . S
Tb80 O93 2.303 . S
Tb80 O97 2.322 . S
Tb80 O98 2.349 . S
Tb80 O101 2.415 . S
Tb80 O102 2.399 . S
Tb81 O91 2.322 . S
Tb81 O92 2.349 . S
Tb81 O94 2.415 . S
Tb81 O95 2.399 . S
Tb81 O96 2.325 . S
Tb81 O99 2.303 . S
Tb81 C110 2.764 . S
C82 O98 1.261 . S
C82 O99 1.257 . S
C83 C86 1.358 . S
C83 C87 1.332 . S
C83 C89 1.504 . S
C84 C85 1.373 . S
C84 C88 1.308 . S
C85 C84 1.373 . S
C85 C86 1.429 . S
C85 H112 0.932 . S
C86 C83 1.358 . S
C86 C85 1.429 . S
C86 H113 0.930 . S
C87 C83 1.332 . S
C87 C88 1.394 . S
C87 H114 0.932 . S
C88 C84 1.308 . S
C88 C87 1.394 . S
C88 H115 0.929 . S
C89 Tb80 2.764 . S
C89 C83 1.504 . S
C89 O101 1.239 . S
C89 O102 1.263 . S
O90 Tb80 2.325 . S
O90 C100 1.236 . S
O91 Tb81 2.322 . S
O91 C100 1.257 . S
O92 Tb81 2.349 . S
O92 C103 1.261 . S
O93 Tb80 2.303 . S
O93 C103 1.257 . S
O94 Tb81 2.415 . S
O94 C110 1.239 . S
O95 Tb81 2.399 . S
O95 C110 1.263 . S
O96 Tb81 2.325 . S
O96 C111 1.236 . S
O97 Tb80 2.322 . S
O97 C111 1.257 . S
O98 Tb80 2.349 . S
O98 C82 1.261 . S
O99 Tb81 2.303 . S
O99 C82 1.257 . S
C100 O90 1.236 . S
C100 O91 1.257 . S
O101 Tb80 2.415 . S
O101 C89 1.239 . S
O102 Tb80 2.399 . S
O102 C89 1.263 . S
C103 O92 1.261 . S
C103 O93 1.257 . S
C104 C107 1.358 . S
C104 C108 1.332 . S
C104 C110 1.504 . S
C105 C106 1.373 . S
C105 C109 1.308 . S
C106 C105 1.373 . S
C106 C107 1.429 . S
C106 H116 0.932 . S
C107 C104 1.358 . S
C107 C106 1.429 . S
C107 H117 0.930 . S
C108 C104 1.332 . S
C108 C109 1.394 . S
C108 H118 0.932 . S
C109 C105 1.308 . S
C109 C108 1.394 . S
C109 H119 0.929 . S
C110 Tb81 2.764 . S
C110 O94 1.239 . S
C110 O95 1.263 . S
C110 C104 1.504 . S
C111 O96 1.236 . S
C111 O97 1.257 . S
H112 C85 0.932 . S
H113 C86 0.930 . S
H114 C87 0.932 . S
H115 C88 0.929 . S
H116 C106 0.932 . S
H117 C107 0.930 . S
H118 C108 0.932 . S
H119 C109 0.929 . S
H120 C123 0.931 . S
H121 C126 0.928 . S
H122 C128 0.930 . S
C123 H120 0.931 . S
C123 C124 1.413 . S
C123 C125 1.360 1_565 S
C124 C123 1.413 . S
C124 C128 1.429 1_565 S
C125 C123 1.360 1_545 S
C125 C126 1.372 . S
C126 H121 0.928 . S
C126 C125 1.372 . S
C126 C127 1.404 . S
C127 C126 1.404 . S
C127 C128 1.391 . S
C128 H122 0.930 . S
C128 C124 1.429 1_545 S
C128 C127 1.391 . S
H129 C132 0.931 . S
H130 C135 0.928 . S
H131 C137 0.930 . S
C132 H129 0.931 . S
C132 C133 1.413 . S
C132 C134 1.360 . S
C133 C132 1.413 . S
C133 C137 1.429 . S
C134 C132 1.360 . S
C134 C135 1.372 . S
C135 H130 0.928 . S
C135 C134 1.372 . S
C135 C136 1.404 . S
C136 C135 1.404 . S
C136 C137 1.391 . S
C137 H131 0.930 . S
C137 C133 1.429 . S
C137 C136 1.391 . S
H138 C141 0.931 . S
H139 C144 0.928 . S
H140 C146 0.930 . S
C141 H138 0.931 . S
C141 C142 1.413 . S
C141 C143 1.360 . S
C142 C141 1.413 . S
C142 C146 1.429 . S
C143 C141 1.360 . S
C143 C144 1.372 . S
C144 H139 0.928 . S
C144 C143 1.372 . S
C144 C145 1.404 . S
C145 C144 1.404 . S
C145 C146 1.391 . S
C146 H140 0.930 . S
C146 C142 1.429 . S
C146 C145 1.391 . S
H147 C150 0.931 . S
H148 C153 0.928 . S
H149 C155 0.930 . S
C150 H147 0.931 . S
C150 C151 1.413 . S
C150 C152 1.347 1_655 S
C151 C150 1.413 . S
C151 C155 1.429 1_655 S
C152 C150 1.347 1_455 S
C152 C153 1.385 . S
C153 H148 0.928 . S
C153 C152 1.385 . S
C153 C154 1.404 . S
C154 C153 1.404 . S
C154 C155 1.391 . S
C155 H149 0.930 . S
C155 C151 1.429 1_455 S
C155 C154 1.391 . S
H156 C159 0.931 . S
H157 C162 0.928 . S
H158 C164 0.930 . S
C159 H156 0.931 . S
C159 C160 1.413 . S
C159 C161 1.360 1_545 S
C160 C159 1.413 . S
C160 C164 1.429 . S
C161 C159 1.360 1_565 S
C161 C162 1.372 . S
C162 H157 0.928 . S
C162 C161 1.372 . S
C162 C163 1.404 . S
C163 C162 1.404 . S
C163 C164 1.391 1_565 S
C164 H158 0.930 . S
C164 C160 1.429 . S
C164 C163 1.391 1_545 S
H165 C168 0.931 . S
H166 C171 0.928 . S
H167 C173 0.930 . S
C168 H165 0.931 . S
C168 C169 1.413 . S
C168 C170 1.360 . S
C169 C168 1.413 . S
C169 C173 1.429 . S
C170 C168 1.360 . S
C170 C171 1.372 . S
C171 H166 0.928 . S
C171 C170 1.372 . S
C171 C172 1.404 . S
C172 C171 1.404 . S
C172 C173 1.391 . S
C173 H167 0.930 . S
C173 C169 1.429 . S
C173 C172 1.391 . S
H174 C182 0.950 . S
H175 C187 0.950 . S
H176 C184 0.950 . S
H177 C186 0.950 . S
H178 C188 0.950 . S
H179 C190 0.950 . S
H180 C192 0.950 . S
H181 C193 0.950 . S
C182 H174 0.950 . S
C182 C183 1.386 . S
C182 C184 1.391 . S
C183 C182 1.386 . S
C183 C187 1.393 . S
C184 H176 0.950 . S
C184 C182 1.391 . S
C184 C185 1.400 . S
C185 C184 1.400 . S
C185 C186 1.398 . S
C185 C191 1.491 . S
C186 H177 0.950 . S
C186 C185 1.398 . S
C186 C187 1.391 . S
C187 H175 0.950 . S
C187 C183 1.393 . S
C187 C186 1.391 . S
C188 H178 0.950 . S
C188 C189 1.386 . S
C188 C190 1.391 . S
C189 C188 1.386 . S
C189 C193 1.393 . S
C190 H179 0.950 . S
C190 C188 1.391 . S
C190 C191 1.400 . S
C191 C185 1.491 . S
C191 C190 1.400 . S
C191 C192 1.398 . S
C192 H180 0.950 . S
C192 C191 1.398 . S
C192 C193 1.391 . S
C193 H181 0.950 . S
C193 C189 1.393 . S
C193 C192 1.391 . S
H194 C202 0.950 . S
H195 C207 0.950 . S
H196 C204 0.950 . S
H197 C206 0.950 . S
H198 C208 0.950 . S
H199 C210 0.950 . S
H200 C212 0.950 . S
H201 C213 0.950 . S
C202 H194 0.950 . S
C202 C203 1.386 . S
C202 C204 1.391 . S
C203 C202 1.386 . S
C203 C207 1.393 . S
C204 H196 0.950 . S
C204 C202 1.391 . S
C204 C205 1.400 . S
C205 C204 1.400 . S
C205 C206 1.398 . S
C205 C211 1.491 . S
C206 H197 0.950 . S
C206 C205 1.398 . S
C206 C207 1.391 . S
C207 H195 0.950 . S
C207 C203 1.393 . S
C207 C206 1.391 . S
C208 H198 0.950 . S
C208 C209 1.386 . S
C208 C210 1.391 . S
C209 C208 1.386 . S
C209 C213 1.393 . S
C210 H199 0.950 . S
C210 C208 1.391 . S
C210 C211 1.400 . S
C211 C205 1.491 . S
C211 C210 1.400 . S
C211 C212 1.398 . S
C212 H200 0.950 . S
C212 C211 1.398 . S
C212 C213 1.391 . S
C213 H201 0.950 . S
C213 C209 1.393 . S
C213 C212 1.391 . S
H214 C222 0.950 . S
H215 C227 0.950 . S
H216 C224 0.950 . S
H217 C226 0.950 . S
H218 C228 0.950 . S
H219 C230 0.950 . S
H220 C232 0.950 . S
H221 C233 0.950 . S
C222 H214 0.950 . S
C222 C223 1.386 . S
C222 C224 1.391 . S
C223 C222 1.386 . S
C223 C227 1.393 . S
C224 H216 0.950 . S
C224 C222 1.391 . S
C224 C225 1.400 . S
C225 C224 1.400 . S
C225 C226 1.398 . S
C225 C231 1.491 . S
C226 H217 0.950 . S
C226 C225 1.398 . S
C226 C227 1.391 . S
C227 H215 0.950 . S
C227 C223 1.393 . S
C227 C226 1.391 . S
C228 H218 0.950 . S
C228 C229 1.386 . S
C228 C230 1.391 . S
C229 C228 1.386 . S
C229 C233 1.393 . S
C230 H219 0.950 . S
C230 C228 1.391 . S
C230 C231 1.400 . S
C231 C225 1.491 . S
C231 C230 1.400 . S
C231 C232 1.398 . S
C232 H220 0.950 . S
C232 C231 1.398 . S
C232 C233 1.391 . S
C233 H221 0.950 . S
C233 C229 1.393 . S
C233 C232 1.391 . S
H234 C242 0.950 . S
H235 C247 0.950 . S
H236 C244 0.950 . S
H237 C246 0.950 . S
H238 C248 0.950 . S
H239 C250 0.950 . S
H240 C252 0.950 . S
H241 C253 0.950 . S
C242 H234 0.950 . S
C242 C243 1.386 . S
C242 C244 1.391 . S
C243 C242 1.386 . S
C243 C247 1.393 . S
C244 H236 0.950 . S
C244 C242 1.391 . S
C244 C245 1.400 . S
C245 C244 1.400 . S
C245 C246 1.398 . S
C245 C251 1.491 . S
C246 H237 0.950 . S
C246 C245 1.398 . S
C246 C247 1.391 . S
C247 H235 0.950 . S
C247 C243 1.393 . S
C247 C246 1.391 . S
C248 H238 0.950 . S
C248 C249 1.386 . S
C248 C250 1.391 . S
C249 C248 1.386 . S
C249 C253 1.393 . S
C250 H239 0.950 . S
C250 C248 1.391 . S
C250 C251 1.400 . S
C251 C245 1.491 . S
C251 C250 1.400 . S
C251 C252 1.398 . S
C252 H240 0.950 . S
C252 C251 1.398 . S
C252 C253 1.391 . S
C253 H241 0.950 . S
C253 C249 1.393 . S
C253 C252 1.391 . S
H254 C262 0.950 . S
H255 C267 0.950 . S
H256 C264 0.950 . S
H257 C266 0.950 . S
H258 C268 0.950 . S
H259 C270 0.950 . S
H260 C272 0.950 . S
H261 C273 0.950 . S
C262 H254 0.950 . S
C262 C263 1.386 . S
C262 C264 1.391 . S
C263 C262 1.386 . S
C263 C267 1.393 . S
C264 H256 0.950 . S
C264 C262 1.391 . S
C264 C265 1.400 . S
C265 C264 1.400 . S
C265 C266 1.398 . S
C265 C271 1.491 . S
C266 H257 0.950 . S
C266 C265 1.398 . S
C266 C267 1.391 . S
C267 H255 0.950 . S
C267 C263 1.393 . S
C267 C266 1.391 . S
C268 H258 0.950 . S
C268 C269 1.386 . S
C268 C270 1.391 . S
C269 C268 1.386 . S
C269 C273 1.393 . S
C270 H259 0.950 . S
C270 C268 1.391 . S
C270 C271 1.400 . S
C271 C265 1.491 . S
C271 C270 1.400 . S
C271 C272 1.398 . S
C272 H260 0.950 . S
C272 C271 1.398 . S
C272 C273 1.391 . S
C273 H261 0.950 . S
C273 C269 1.393 . S
C273 C272 1.391 . S
H274 C282 0.950 . S
H275 C287 0.950 . S
H276 C284 0.950 . S
H277 C286 0.950 . S
H278 C288 0.950 . S
H279 C290 0.950 . S
H280 C292 0.950 . S
H281 C293 0.950 . S
C282 H274 0.950 . S
C282 C283 1.386 . S
C282 C284 1.391 . S
C283 C282 1.386 . S
C283 C287 1.393 . S
C284 H276 0.950 . S
C284 C282 1.391 . S
C284 C285 1.400 . S
C285 C284 1.400 . S
C285 C286 1.398 . S
C285 C291 1.491 . S
C286 H277 0.950 . S
C286 C285 1.398 . S
C286 C287 1.391 . S
C287 H275 0.950 . S
C287 C283 1.393 . S
C287 C286 1.391 . S
C288 H278 0.950 . S
C288 C289 1.386 . S
C288 C290 1.391 . S
C289 C288 1.386 . S
C289 C293 1.393 . S
C290 H279 0.950 . S
C290 C288 1.391 . S
C290 C291 1.400 . S
C291 C285 1.491 . S
C291 C290 1.400 . S
C291 C292 1.398 . S
C292 H280 0.950 . S
C292 C291 1.398 . S
C292 C293 1.391 . S
C293 H281 0.950 . S
C293 C289 1.393 . S
C293 C292 1.391 . S
H294 C302 0.950 . S
H295 C307 0.950 . S
H296 C304 0.950 . S
H297 C306 0.950 . S
H298 C308 0.950 . S
H299 C310 0.950 . S
H300 C312 0.950 . S
H301 C313 0.950 . S
C302 H294 0.950 . S
C302 C303 1.386 . S
C302 C304 1.391 . S
C303 C302 1.386 . S
C303 C307 1.393 . S
C304 H296 0.950 . S
C304 C302 1.391 . S
C304 C305 1.400 . S
C305 C304 1.400 . S
C305 C306 1.398 . S
C305 C311 1.491 . S
C306 H297 0.950 . S
C306 C305 1.398 . S
C306 C307 1.391 . S
C307 H295 0.950 . S
C307 C303 1.393 . S
C307 C306 1.391 . S
C308 H298 0.950 . S
C308 C309 1.386 . S
C308 C310 1.391 . S
C309 C308 1.386 . S
C309 C313 1.393 . S
C310 H299 0.950 . S
C310 C308 1.391 . S
C310 C311 1.400 . S
C311 C305 1.491 . S
C311 C310 1.400 . S
C311 C312 1.398 . S
C312 H300 0.950 . S
C312 C311 1.398 . S
C312 C313 1.391 . S
C313 H301 0.950 . S
C313 C309 1.393 . S
C313 C312 1.391 . S
H314 C322 0.950 . S
H315 C327 0.950 . S
H316 C324 0.950 . S
H317 C326 0.950 . S
H318 C328 0.950 . S
H319 C330 0.950 . S
H320 C332 0.950 . S
H321 C333 0.950 . S
C322 H314 0.950 . S
C322 C323 1.386 . S
C322 C324 1.391 . S
C323 C322 1.386 . S
C323 C327 1.393 . S
C324 H316 0.950 . S
C324 C322 1.391 . S
C324 C325 1.400 . S
C325 C324 1.400 . S
C325 C326 1.398 . S
C325 C331 1.491 . S
C326 H317 0.950 . S
C326 C325 1.398 . S
C326 C327 1.391 . S
C327 H315 0.950 . S
C327 C323 1.393 . S
C327 C326 1.391 . S
C328 H318 0.950 . S
C328 C329 1.386 . S
C328 C330 1.391 . S
C329 C328 1.386 . S
C329 C333 1.393 . S
C330 H319 0.950 . S
C330 C328 1.391 . S
C330 C331 1.400 . S
C331 C325 1.491 . S
C331 C330 1.400 . S
C331 C332 1.398 . S
C332 H320 0.950 . S
C332 C331 1.398 . S
C332 C333 1.391 . S
C333 H321 0.950 . S
C333 C329 1.393 . S
C333 C332 1.391 . S
H334 C342 0.950 . S
H335 C347 0.950 . S
H336 C344 0.950 . S
H337 C346 0.950 . S
H338 C348 0.950 . S
H339 C350 0.950 . S
H340 C352 0.950 . S
H341 C353 0.950 . S
C342 H334 0.950 . S
C342 C343 1.386 . S
C342 C344 1.391 . S
C343 C342 1.386 . S
C343 C347 1.393 . S
C344 H336 0.950 . S
C344 C342 1.391 . S
C344 C345 1.400 . S
C345 C344 1.400 . S
C345 C346 1.398 . S
C345 C351 1.491 . S
C346 H337 0.950 . S
C346 C345 1.398 . S
C346 C347 1.391 . S
C347 H335 0.950 . S
C347 C343 1.393 . S
C347 C346 1.391 . S
C348 H338 0.950 . S
C348 C349 1.386 . S
C348 C350 1.391 . S
C349 C348 1.386 . S
C349 C353 1.393 . S
C350 H339 0.950 . S
C350 C348 1.391 . S
C350 C351 1.400 . S
C351 C345 1.491 . S
C351 C350 1.400 . S
C351 C352 1.398 . S
C352 H340 0.950 . S
C352 C351 1.398 . S
C352 C353 1.391 . S
C353 H341 0.950 . S
C353 C349 1.393 . S
C353 C352 1.391 . S
H354 C362 0.950 . S
H355 C367 0.950 . S
H356 C364 0.950 . S
H357 C366 0.950 . S
H358 C368 0.950 . S
H359 C370 0.950 . S
H360 C372 0.950 . S
H361 C373 0.950 . S
C362 H354 0.950 . S
C362 C363 1.386 . S
C362 C364 1.391 . S
C363 C362 1.386 . S
C363 C367 1.393 . S
C364 H356 0.950 . S
C364 C362 1.391 . S
C364 C365 1.400 . S
C365 C364 1.400 . S
C365 C366 1.398 . S
C365 C371 1.491 . S
C366 H357 0.950 . S
C366 C365 1.398 . S
C366 C367 1.391 . S
C367 H355 0.950 . S
C367 C363 1.393 . S
C367 C366 1.391 . S
C368 H358 0.950 . S
C368 C369 1.386 . S
C368 C370 1.391 . S
C369 C368 1.386 . S
C369 C373 1.393 . S
C370 H359 0.950 . S
C370 C368 1.391 . S
C370 C371 1.400 . S
C371 C365 1.491 . S
C371 C370 1.400 . S
C371 C372 1.398 . S
C372 H360 0.950 . S
C372 C371 1.398 . S
C372 C373 1.391 . S
C373 H361 0.950 . S
C373 C369 1.393 . S
C373 C372 1.391 . S
H374 C382 0.950 . S
H375 C387 0.950 . S
H376 C384 0.950 . S
H377 C386 0.950 . S
H378 C388 0.950 . S
H379 C390 0.950 . S
H380 C392 0.950 . S
H381 C393 0.950 . S
C382 H374 0.950 . S
C382 C383 1.386 . S
C382 C384 1.391 . S
C383 C382 1.386 . S
C383 C387 1.393 . S
C384 H376 0.950 . S
C384 C382 1.391 . S
C384 C385 1.400 . S
C385 C384 1.400 . S
C385 C386 1.398 . S
C385 C391 1.491 . S
C386 H377 0.950 . S
C386 C385 1.398 . S
C386 C387 1.391 . S
C387 H375 0.950 . S
C387 C383 1.393 . S
C387 C386 1.391 . S
C388 H378 0.950 . S
C388 C389 1.386 . S
C388 C390 1.391 . S
C389 C388 1.386 . S
C389 C393 1.393 . S
C390 H379 0.950 . S
C390 C388 1.391 . S
C390 C391 1.400 . S
C391 C385 1.491 . S
C391 C390 1.400 . S
C391 C392 1.398 . S
C392 H380 0.950 . S
C392 C391 1.398 . S
C392 C393 1.391 . S
C393 H381 0.950 . S
C393 C389 1.393 . S
C393 C392 1.391 . S
H394 C402 0.950 . S
H395 C407 0.950 . S
H396 C404 0.950 . S
H397 C406 0.950 . S
H398 C408 0.950 . S
H399 C410 0.950 . S
H400 C412 0.950 . S
H401 C413 0.950 . S
C402 H394 0.950 . S
C402 C403 1.386 . S
C402 C404 1.391 . S
C403 C402 1.386 . S
C403 C407 1.393 . S
C404 H396 0.950 . S
C404 C402 1.391 . S
C404 C405 1.400 . S
C405 C404 1.400 . S
C405 C406 1.398 . S
C405 C411 1.491 . S
C406 H397 0.950 . S
C406 C405 1.398 . S
C406 C407 1.391 . S
C407 H395 0.950 . S
C407 C403 1.393 . S
C407 C406 1.391 . S
C408 H398 0.950 . S
C408 C409 1.386 . S
C408 C410 1.391 . S
C409 C408 1.386 . S
C409 C413 1.393 . S
C410 H399 0.950 . S
C410 C408 1.391 . S
C410 C411 1.400 . S
C411 C405 1.491 . S
C411 C410 1.400 . S
C411 C412 1.398 . S
C412 H400 0.950 . S
C412 C411 1.398 . S
C412 C413 1.391 . S
C413 H401 0.950 . S
C413 C409 1.393 . S
C413 C412 1.391 . S
H414 C422 0.950 . S
H415 C427 0.950 . S
H416 C424 0.950 . S
H417 C426 0.950 . S
H418 C428 0.950 . S
H419 C430 0.950 1_554 S
H420 C432 0.950 1_554 S
H421 C433 0.950 . S
C422 H414 0.950 . S
C422 C423 1.386 . S
C422 C424 1.391 . S
C423 C422 1.386 . S
C423 C427 1.393 . S
C424 H416 0.950 . S
C424 C422 1.391 . S
C424 C425 1.400 . S
C425 C424 1.400 . S
C425 C426 1.398 . S
C425 C431 1.491 . S
C426 H417 0.950 . S
C426 C425 1.398 . S
C426 C427 1.391 . S
C427 H415 0.950 . S
C427 C423 1.393 . S
C427 C426 1.391 . S
C428 H418 0.950 . S
C428 C429 1.386 . S
C428 C430 1.391 . S
C429 C428 1.386 . S
C429 C433 1.393 . S
C430 H419 0.950 1_556 S
C430 C428 1.391 . S
C430 C431 1.400 1_556 S
C431 C425 1.491 . S
C431 C430 1.400 1_554 S
C431 C432 1.398 1_554 S
C432 H420 0.950 1_556 S
C432 C431 1.398 1_556 S
C432 C433 1.391 . S
C433 H421 0.950 . S
C433 C429 1.393 . S
C433 C432 1.391 . S
H434 C442 0.950 . S
H435 C447 0.950 . S
H436 C444 0.950 . S
H437 C446 0.950 . S
H438 C448 0.950 . S
H439 C450 0.950 . S
H440 C452 0.950 . S
H441 C453 0.950 . S
C442 H434 0.950 . S
C442 C443 1.386 . S
C442 C444 1.391 . S
C443 C442 1.386 . S
C443 C447 1.393 . S
C444 H436 0.950 . S
C444 C442 1.391 . S
C444 C445 1.400 . S
C445 C444 1.400 . S
C445 C446 1.398 . S
C445 C451 1.491 . S
C446 H437 0.950 . S
C446 C445 1.398 . S
C446 C447 1.391 . S
C447 H435 0.950 . S
C447 C443 1.393 . S
C447 C446 1.391 . S
C448 H438 0.950 . S
C448 C449 1.386 . S
C448 C450 1.391 . S
C449 C448 1.386 . S
C449 C453 1.393 . S
C450 H439 0.950 . S
C450 C448 1.391 . S
C450 C451 1.400 . S
C451 C445 1.491 . S
C451 C450 1.400 . S
C451 C452 1.398 . S
C452 H440 0.950 . S
C452 C451 1.398 . S
C452 C453 1.391 . S
C453 H441 0.950 . S
C453 C449 1.393 . S
C453 C452 1.391 . S
H454 C462 0.950 . S
H455 C467 0.950 . S
H456 C464 0.950 . S
H457 C466 0.950 . S
H458 C468 0.950 . S
H459 C470 0.950 . S
H460 C472 0.950 . S
H461 C473 0.950 . S
C462 H454 0.950 . S
C462 C463 1.386 . S
C462 C464 1.391 . S
C463 C462 1.386 . S
C463 C467 1.393 . S
C464 H456 0.950 . S
C464 C462 1.391 . S
C464 C465 1.400 . S
C465 C464 1.400 . S
C465 C466 1.398 . S
C465 C471 1.491 . S
C466 H457 0.950 . S
C466 C465 1.398 . S
C466 C467 1.391 . S
C467 H455 0.950 . S
C467 C463 1.393 . S
C467 C466 1.391 . S
C468 H458 0.950 . S
C468 C469 1.386 . S
C468 C470 1.391 . S
C469 C468 1.386 . S
C469 C473 1.393 . S
C470 H459 0.950 . S
C470 C468 1.391 . S
C470 C471 1.400 . S
C471 C465 1.491 . S
C471 C470 1.400 . S
C471 C472 1.398 . S
C472 H460 0.950 . S
C472 C471 1.398 . S
C472 C473 1.391 . S
C473 H461 0.950 . S
C473 C469 1.393 . S
C473 C472 1.391 . S
H474 C482 0.950 1_565 S
H475 C487 0.950 . S
H476 C484 0.950 1_565 S
H477 C486 0.950 . S
H478 C488 0.950 . S
H479 C490 0.950 . S
H480 C492 0.950 . S
H481 C493 0.950 . S
C482 H474 0.950 1_545 S
C482 C483 1.386 . S
C482 C484 1.391 . S
C483 C482 1.386 . S
C483 C487 1.393 . S
C484 H476 0.950 1_545 S
C484 C482 1.391 . S
C484 C485 1.400 . S
C485 C484 1.400 . S
C485 C486 1.398 . S
C485 C491 1.491 . S
C486 H477 0.950 . S
C486 C485 1.398 . S
C486 C487 1.391 . S
C487 H475 0.950 . S
C487 C483 1.393 . S
C487 C486 1.391 . S
C488 H478 0.950 . S
C488 C489 1.386 1_545 S
C488 C490 1.391 . S
C489 C488 1.386 1_565 S
C489 C493 1.393 . S
C490 H479 0.950 . S
C490 C488 1.391 . S
C490 C491 1.400 . S
C491 C485 1.491 . S
C491 C490 1.400 . S
C491 C492 1.398 1_545 S
C492 H480 0.950 . S
C492 C491 1.398 1_565 S
C492 C493 1.391 . S
C493 H481 0.950 . S
C493 C489 1.393 . S
C493 C492 1.391 . S
H494 C502 0.950 . S
H495 C507 0.950 . S
H496 C504 0.950 . S
H497 C506 0.950 . S
H498 C508 0.950 . S
H499 C510 0.950 1_556 S
H500 C512 0.950 . S
H501 C513 0.950 . S
C502 H494 0.950 . S
C502 C503 1.386 . S
C502 C504 1.391 . S
C503 C502 1.386 . S
C503 C507 1.393 . S
C504 H496 0.950 . S
C504 C502 1.391 . S
C504 C505 1.400 . S
C505 C504 1.400 . S
C505 C506 1.398 . S
C505 C511 1.491 . S
C506 H497 0.950 . S
C506 C505 1.398 . S
C506 C507 1.391 . S
C507 H495 0.950 . S
C507 C503 1.393 . S
C507 C506 1.391 . S
C508 H498 0.950 . S
C508 C509 1.386 . S
C508 C510 1.391 . S
C509 C508 1.386 . S
C509 C513 1.393 . S
C510 H499 0.950 1_554 S
C510 C508 1.391 . S
C510 C511 1.400 1_554 S
C511 C505 1.491 . S
C511 C510 1.400 1_556 S
C511 C512 1.398 . S
C512 H500 0.950 . S
C512 C511 1.398 . S
C512 C513 1.391 1_556 S
C513 H501 0.950 . S
C513 C509 1.393 . S
C513 C512 1.391 1_554 S
H514 C522 0.950 . S
H515 C527 0.950 . S
H516 C524 0.950 . S
H517 C526 0.950 . S
H518 C528 0.950 . S
H519 C530 0.950 . S
H520 C532 0.957 1_655 S
H521 C533 0.950 . S
C522 H514 0.950 . S
C522 C523 1.386 . S
C522 C524 1.391 . S
C523 C522 1.386 . S
C523 C527 1.393 . S
C524 H516 0.950 . S
C524 C522 1.391 . S
C524 C525 1.400 . S
C525 C524 1.400 . S
C525 C526 1.398 . S
C525 C531 1.491 . S
C526 H517 0.950 . S
C526 C525 1.398 . S
C526 C527 1.391 . S
C527 H515 0.950 . S
C527 C523 1.393 . S
C527 C526 1.391 . S
C528 H518 0.950 . S
C528 C529 1.386 1_455 S
C528 C530 1.391 . S
C529 C528 1.386 1_655 S
C529 C533 1.393 . S
C530 H519 0.950 . S
C530 C528 1.391 . S
C530 C531 1.400 . S
C531 C525 1.491 . S
C531 C530 1.400 . S
C531 C532 1.398 . S
C532 H520 0.957 1_455 S
C532 C531 1.398 . S
C532 C533 1.391 1_455 S
C533 H521 0.950 . S
C533 C529 1.393 . S
C533 C532 1.391 1_655 S
C183 C25 0.570 . S
C189 C169 0.488 . S
C203 C65 0.465 . S
C209 C151 0.369 . S
C223 C105 0.619 . S
C229 C163 0.507 . S
C243 C4 0.554 . S
C249 C172 0.503 . S
C269 C154 0.492 . S
C263 C44 0.513 . S
C289 C160 0.522 . S
C283 C84 0.568 . S
C303 C60 2.861 . S
C309 C133 2.837 . S
C323 C100 2.972 . S
C329 C142 2.931 1_655 S
C343 C31 2.956 . S
C349 C124 2.940 . S
C369 C136 2.941 . S
C363 C71 2.949 . S
C389 C145 2.840 . S
C383 C111 2.840 . S
C403 C20 2.861 . S
C409 C127 2.830 . S
C429 C143 1.821 . S
C423 C2 1.750 . S
C443 C42 1.755 . S
C449 C125 1.811 . S
C463 C82 1.765 . S
C469 C134 1.817 . S
C489 C161 1.002 . S
C483 C63 0.975 . S
C509 C170 1.047 . S
C503 C103 1.037 . S
C523 C23 0.972 . S
C529 C152 0.997 1_655 S
