# Generated by pormake.
# Topology zzz, (3,6)-cn, num edge types: 1
# Building blocks:
#     Node 0, Type 0, BuildingBlock: BETDIP_clean_linker_0, # of connection points: 3
#     Node 1, Type 0, BuildingBlock: BETDIP_clean_linker_0, # of connection points: 3
#     Node 2, Type 0, BuildingBlock: BETDIP_clean_linker_0, # of connection points: 3
#     Node 3, Type 0, BuildingBlock: BETDIP_clean_linker_0, # of connection points: 3
#     Node 4, Type 0, BuildingBlock: BETDIP_clean_linker_0, # of connection points: 3
#     Node 5, Type 0, BuildingBlock: BETDIP_clean_linker_0, # of connection points: 3
#     Node 6, Type 0, BuildingBlock: BETDIP_clean_linker_0, # of connection points: 3
#     Node 7, Type 0, BuildingBlock: BETDIP_clean_linker_0, # of connection points: 3
#     Node 8, Type 1, BuildingBlock: KUMBOL_clean_sbu_0, # of connection points: 6
#     Node 9, Type 1, BuildingBlock: KUMBOL_clean_sbu_0, # of connection points: 6
#     Node 10, Type 1, BuildingBlock: KUMBOL_clean_sbu_0, # of connection points: 6
#     Node 11, Type 1, BuildingBlock: KUMBOL_clean_sbu_0, # of connection points: 6
#     Edge 12, Type (0, 1), BuildingBlock: XUDNAN_clean_linker_2, # of connection points: 2
#     Edge 13, Type (0, 1), BuildingBlock: XUDNAN_clean_linker_2, # of connection points: 2
#     Edge 14, Type (0, 1), BuildingBlock: XUDNAN_clean_linker_2, # of connection points: 2
#     Edge 15, Type (0, 1), BuildingBlock: XUDNAN_clean_linker_2, # of connection points: 2
#     Edge 16, Type (0, 1), BuildingBlock: XUDNAN_clean_linker_2, # of connection points: 2
#     Edge 17, Type (0, 1), BuildingBlock: XUDNAN_clean_linker_2, # of connection points: 2
#     Edge 18, Type (0, 1), BuildingBlock: XUDNAN_clean_linker_2, # of connection points: 2
#     Edge 19, Type (0, 1), BuildingBlock: XUDNAN_clean_linker_2, # of connection points: 2
#     Edge 20, Type (0, 1), BuildingBlock: XUDNAN_clean_linker_2, # of connection points: 2
#     Edge 21, Type (0, 1), BuildingBlock: XUDNAN_clean_linker_2, # of connection points: 2
#     Edge 22, Type (0, 1), BuildingBlock: XUDNAN_clean_linker_2, # of connection points: 2
#     Edge 23, Type (0, 1), BuildingBlock: XUDNAN_clean_linker_2, # of connection points: 2
#     Edge 24, Type (0, 1), BuildingBlock: XUDNAN_clean_linker_2, # of connection points: 2
#     Edge 25, Type (0, 1), BuildingBlock: XUDNAN_clean_linker_2, # of connection points: 2
#     Edge 26, Type (0, 1), BuildingBlock: XUDNAN_clean_linker_2, # of connection points: 2
#     Edge 27, Type (0, 1), BuildingBlock: XUDNAN_clean_linker_2, # of connection points: 2
#     Edge 28, Type (0, 1), BuildingBlock: XUDNAN_clean_linker_2, # of connection points: 2
#     Edge 29, Type (0, 1), BuildingBlock: XUDNAN_clean_linker_2, # of connection points: 2
#     Edge 30, Type (0, 1), BuildingBlock: XUDNAN_clean_linker_2, # of connection points: 2
#     Edge 31, Type (0, 1), BuildingBlock: XUDNAN_clean_linker_2, # of connection points: 2
#     Edge 32, Type (0, 1), BuildingBlock: XUDNAN_clean_linker_2, # of connection points: 2
#     Edge 33, Type (0, 1), BuildingBlock: XUDNAN_clean_linker_2, # of connection points: 2
#     Edge 34, Type (0, 1), BuildingBlock: XUDNAN_clean_linker_2, # of connection points: 2
#     Edge 35, Type (0, 1), BuildingBlock: XUDNAN_clean_linker_2, # of connection points: 2
# Relax obj value: 0.176
# Max RMSD: 0.163
# Mean RMSD: 0.115
data_MOF--net-zzz--node1-KUMBOL_clean_sbu_0--node2-BETDIP_clean_linker_0--edge1-XUDNAN_clean_linker_2
_symmetry_space_group_name_H-M    P1
_symmetry_Int_Tables_number       1
_symmetry_cell_setting            triclinic
loop_
_symmetry_equiv_pos_as_xyz
'x, y, z'
_cell_length_a     50.353694
_cell_length_b     50.06037
_cell_length_c     14.631748
_cell_angle_alpha  91.286818
_cell_angle_beta   89.839358
_cell_angle_gamma 90.214133
loop_
_atom_site_label
_atom_site_type_symbol
_atom_site_fract_x
_atom_site_fract_y
_atom_site_fract_z
_atom_type_partial_charge
H0 H 0.77802 0.54054 0.27186 0.0
H1 H 0.77351 0.59436 0.04515 0.0
H2 H 0.8418 0.59543 0.21738 0.0
H3 H 0.72958 0.59232 0.07158 0.0
C4 C 0.72647 0.5712 0.08353 0.0
C5 C 0.7862 0.55683 0.23316 0.0
C6 C 0.8121 0.56657 0.25327 0.0
C7 C 0.77125 0.56767 0.16031 0.0
C8 C 0.78313 0.58752 0.10632 0.0
C9 C 0.80828 0.59779 0.12799 0.0
C10 C 0.822 0.58784 0.20274 0.0
N11 N 0.74538 0.55721 0.13783 0.0
H12 H 0.0289 0.78758 0.2783 0.0
H13 H 0.96045 0.77228 0.1078 0.0
H14 H 0.97055 0.84862 0.24262 0.0
H15 H 0.96641 0.72952 0.16741 0.0
C16 C 0.98702 0.72785 0.1458 0.0
C17 C 1.00987 0.79373 0.25189 0.0
C18 C 1.00035 0.81995 0.27198 0.0
C19 C 0.99482 0.77571 0.19551 0.0
C20 C 0.97111 0.78496 0.15622 0.0
C21 C 0.96238 0.81132 0.17101 0.0
C22 C 0.97646 0.82795 0.23263 0.0
N23 N 1.0046 0.74951 0.17034 0.0
H24 H 0.77637 1.0023 0.38719 0.0
H25 H 0.78968 0.99172 0.09744 0.0
H26 H 0.71118 1.00706 0.19762 0.0
H27 H 0.8212 0.96225 0.15528 0.0
C28 C 0.83075 0.97858 0.19303 0.0
C29 C 0.76876 1.00118 0.31805 0.0
C30 C 0.74114 1.00493 0.30198 0.0
C31 C 0.78655 0.99622 0.2438 0.0
C32 C 0.77636 0.99505 0.15468 0.0
C33 C 0.74944 0.99897 0.13729 0.0
C34 C 0.73205 1.00376 0.21107 0.0
N35 N 0.81471 0.99377 0.25656 0.0
H36 H 0.53793 0.79715 0.39261 0.0
H37 H 0.59148 0.80344 0.16304 0.0
H38 H 0.59057 0.7326 0.32038 0.0
H39 H 0.5915 0.84998 0.22354 0.0
C40 C 0.56998 0.85077 0.21856 0.0
C41 C 0.55407 0.78909 0.35155 0.0
C42 C 0.56398 0.7632 0.36896 0.0
C43 C 0.56504 0.80454 0.28027 0.0
C44 C 0.58471 0.79309 0.22305 0.0
C45 C 0.5941 0.76731 0.2385 0.0
C46 C 0.58432 0.75315 0.3128 0.0
N47 N 0.55456 0.83033 0.26078 0.0
H48 H 0.28081 0.52871 0.02298 0.0
H49 H 0.2875 0.4736 0.24537 0.0
H50 H 0.21852 0.47187 0.07588 0.0
H51 H 0.30498 0.51457 0.3069 0.0
C52 C 0.32063 0.51578 0.25574 0.0
C53 C 0.27314 0.512 0.06079 0.0
C54 C 0.24754 0.50147 0.04008 0.0
C55 C 0.28793 0.50196 0.13534 0.0
C56 C 0.27701 0.48106 0.1867 0.0
C57 C 0.25218 0.47014 0.16486 0.0
C58 C 0.23815 0.47989 0.09041 0.0
N59 N 0.31307 0.51338 0.16155 0.0
H60 H 0.04046 0.27356 0.99681 0.0
H61 H 0.03215 0.29257 0.2847 0.0
H62 H 0.02212 0.21174 0.18765 0.0
H63 H 1.00362 0.33044 0.15717 0.0
C64 C 0.02483 0.33431 0.1622 0.0
C65 C 0.03721 0.26717 0.06617 0.0
C66 C 0.03128 0.23987 0.08317 0.0
C67 C 0.03724 0.28642 0.13973 0.0
C68 C 0.03199 0.27803 0.22866 0.0
C69 C 0.02706 0.25117 0.24636 0.0
C70 C 0.02697 0.23241 0.17389 0.0
N71 N 0.04251 0.31421 0.12665 0.0
H72 H 0.27821 0.05334 0.96398 0.0
H73 H 0.26159 0.04453 0.25132 0.0
H74 H 0.34209 0.04566 0.15862 0.0
H75 H 0.2308 1.01109 0.15499 0.0
C76 C 0.2219 0.03016 0.13868 0.0
C77 C 0.28514 0.05151 0.03354 0.0
C78 C 0.3129 0.04967 0.05146 0.0
C79 C 0.26637 0.04923 0.10599 0.0
C80 C 0.27561 0.04636 0.19537 0.0
C81 C 0.30264 0.04531 0.2138 0.0
C82 C 0.32112 0.04706 0.14269 0.0
N83 N 0.23828 0.04876 0.09088 0.0
H84 H 0.51538 0.27507 0.93706 0.0
H85 H 0.47203 0.26466 0.18847 0.0
H86 H 0.47354 0.3411 0.0624 0.0
H87 H 0.46573 0.21993 0.10286 0.0
C88 C 0.48725 0.21843 0.10517 0.0
C89 C 0.50239 0.28303 0.99006 0.0
C90 C 0.49413 0.31006 0.98782 0.0
C91 C 0.49362 0.26617 0.06081 0.0
C92 C 0.47758 0.27691 0.13133 0.0
C93 C 0.47025 0.30388 0.13224 0.0
C94 C 0.47813 0.31996 0.05951 0.0
N95 N 0.5028 0.23923 0.0657 0.0
Gd96 Gd 1.00289 0.03369 0.60353 0.0
Gd97 Gd 0.05504 1.01941 0.7681 0.0
C98 C 0.08969 0.08706 0.94929 0.0
C99 C 0.13582 0.08804 0.90065 0.0
C100 C 0.10464 0.05683 0.82888 0.0
C101 C 0.08447 0.0667 0.88327 0.0
C102 C 0.1307 0.06706 0.83778 0.0
C103 C 0.11537 0.09791 0.95676 0.0
C104 C 0.06918 0.09529 1.00784 0.0
C105 C 0.04433 0.0832 1.00015 0.0
N106 N 0.0601 0.05529 0.87548 0.0
C107 C 0.04019 0.06304 0.93403 0.0
H108 H 0.02068 0.05444 0.92915 0.0
C109 C 0.11937 0.02299 0.7263 0.0
N110 N 0.09916 0.03592 0.77167 0.0
C111 C 0.14539 0.03276 0.73098 0.0
C112 C 0.15104 0.05513 0.78618 0.0
H113 H 0.11523 1.00524 0.6854 0.0
H114 H 0.11972 0.11359 1.0068 0.0
H115 H 0.01971 0.07254 0.42903 0.0
H116 H 0.07241 0.11066 0.05999 0.0
H117 H 0.02829 0.08937 0.04519 0.0
H118 H 0.15568 0.0962 0.90837 0.0
H119 H 0.97182 0.97682 0.66605 0.0
H120 H 1.01058 0.02773 0.17818 0.0
H121 H 0.02342 0.0695 0.26048 0.0
H122 H 0.97095 0.94586 0.27471 0.0
H123 H 0.16112 0.02279 0.69319 0.0
H124 H 0.17129 0.06241 0.79098 0.0
H125 H 0.99125 0.98142 0.18428 0.0
H126 H 0.95206 0.93704 0.59396 0.0
N127 N 1.00617 0.03249 0.44212 0.0
C128 C 1.00908 0.02893 0.25205 0.0
C129 C 1.01632 0.05253 0.29821 0.0
C130 C 0.99914 1.00747 0.30159 0.0
C131 C 0.99772 1.01001 0.39779 0.0
C132 C 1.01422 0.05417 0.39349 0.0
N133 N 0.98537 0.99338 0.54091 0.0
C134 C 0.98661 0.98997 0.44866 0.0
C135 C 0.96186 0.95169 0.55219 0.0
C136 C 0.96374 0.94761 0.45782 0.0
C137 C 0.97298 0.97465 0.59287 0.0
C138 C 0.97629 0.96679 0.40476 0.0
H139 H 0.95525 0.92974 0.42648 0.0
O140 O 0.96217 0.03994 0.65044 0.0
O141 O 0.02546 0.04944 0.7253 0.0
O142 O 1.0154 1.01549 0.8411 0.0
O143 O 0.98235 1.01852 0.73094 0.0
O144 O 0.02138 0.07508 0.62048 0.0
O145 O 0.9782 0.064 0.54385 0.0
O146 O 0.08023 0.98647 0.80645 0.0
O147 O 0.02651 1.00155 0.66548 0.0
O148 O 0.04268 0.03445 0.52882 0.0
O149 O 0.0747 0.03808 0.64414 0.0
O150 O 0.06481 0.98674 0.66391 0.0
O151 O 0.04847 0.99916 0.89613 0.0
C152 C 0.03062 0.07318 0.70208 0.0
C153 C 0.97846 0.96368 0.30939 0.0
C154 C 0.99001 0.98393 0.25791 0.0
C155 C 0.9592 0.06138 0.60324 0.0
C156 C 0.95125 0.0859 0.65463 0.0
C157 C 0.93486 0.08467 0.73225 0.0
C158 C 0.96177 0.11068 0.62984 0.0
C159 C 0.95797 0.13376 0.68474 0.0
C160 C 0.92981 0.10777 0.78498 0.0
C161 C 0.94142 0.13218 0.76195 0.0
C162 C 0.9902 1.0145 0.81577 0.0
C163 C 0.04187 0.98469 0.62636 0.0
C164 C 0.06588 0.98074 0.87702 0.0
C165 C 0.05696 0.95283 0.88005 0.0
C166 C 0.07605 0.9327 0.88666 0.0
C167 C 0.02995 0.94592 0.87067 0.0
C168 C 0.02203 0.91898 0.8696 0.0
C169 C 0.0684 0.90594 0.88442 0.0
C170 C 0.04164 0.89908 0.87652 0.0
C171 C 0.06736 0.03868 0.55715 0.0
H172 H 0.92639 0.06582 0.75306 0.0
H173 H 0.97337 0.11189 0.56765 0.0
H174 H 0.91734 0.10663 0.84516 0.0
H175 H 0.93798 0.14954 0.80578 0.0
H176 H 0.09694 0.9377 0.89279 0.0
H177 H 1.01511 0.96136 0.86431 0.0
H178 H 0.08322 0.89046 0.88996 0.0
H179 H 0.03633 0.87812 0.87876 0.0
Gd180 Gd 0.51702 1.00928 0.57834 0.0
Gd181 Gd 0.53425 0.05933 0.7444 0.0
C182 C 0.47284 0.06603 0.97753 0.0
C183 C 0.44481 0.10211 0.92774 0.0
C184 C 0.48245 0.08743 0.83402 0.0
C185 C 0.48846 0.06821 0.89732 0.0
C186 C 0.46075 0.10488 0.84978 0.0
C187 C 0.45081 0.0827 0.99129 0.0
C188 C 0.48022 0.0477 0.0432 0.0
C189 C 0.50353 0.0333 0.03111 0.0
N190 N 0.51009 0.05246 0.88281 0.0
C191 C 0.51879 0.03678 0.9525 0.0
H192 H 0.53797 0.02734 0.95084 0.0
C193 C 0.49365 0.10998 0.69938 0.0
N194 N 0.49783 0.08936 0.75778 0.0
C195 C 0.47231 0.12743 0.7118 0.0
C196 C 0.45558 0.12469 0.78671 0.0
H197 H 0.50699 0.1142 0.64426 0.0
H198 H 0.4386 0.08115 0.05204 0.0
H199 H 0.50035 0.03583 0.37211 0.0
H200 H 0.46872 0.04541 0.10527 0.0
H201 H 0.51023 1.02001 0.08355 0.0
H202 H 0.42795 0.1151 0.94002 0.0
H203 H 0.5538 0.95958 0.67017 0.0
H204 H 0.56638 0.02709 0.19163 0.0
H205 H 0.52172 0.04501 0.22601 0.0
H206 H 0.62278 0.96676 0.34636 0.0
H207 H 0.46909 0.14334 0.66423 0.0
H208 H 0.4391 0.13834 0.79631 0.0
H209 H 0.60358 0.99758 0.23674 0.0
H210 H 0.59396 0.93441 0.63517 0.0
N211 N 0.53455 1.01733 0.43012 0.0
C212 C 0.55756 0.02403 0.25826 0.0
C213 C 0.53239 0.03411 0.2772 0.0
C214 C 0.57021 1.00849 0.32315 0.0
C215 C 0.55801 1.00526 0.40947 0.0
C216 C 0.52064 0.02944 0.36189 0.0
N217 N 0.55609 0.984 0.55231 0.0
C218 C 0.56875 0.9877 0.47125 0.0
C219 C 0.5873 0.94955 0.58892 0.0
C220 C 0.60128 0.95416 0.50857 0.0
C221 C 0.56455 0.96446 0.60933 0.0
C222 C 0.59195 0.97315 0.44808 0.0
H223 H 0.61895 0.9426 0.49306 0.0
O224 O 0.50765 0.96811 0.54126 0.0
O225 O 0.49941 0.0419 0.66952 0.0
O226 O 0.54419 1.01787 0.79951 0.0
O227 O 0.51892 0.9882 0.71199 0.0
O228 O 0.4829 1.00395 0.67592 0.0
O229 O 0.48316 1.00006 0.49169 0.0
O230 O 0.54981 0.09902 0.77637 0.0
O231 O 0.55197 0.02637 0.65503 0.0
O232 O 0.50842 0.05079 0.52199 0.0
O233 O 0.53484 0.0795 0.60865 0.0
O234 O 0.56879 0.06408 0.64779 0.0
O235 O 0.56285 0.06512 0.85331 0.0
C236 C 0.48097 0.0282 0.70574 0.0
C237 C 0.60478 0.97747 0.36452 0.0
C238 C 0.59391 0.99508 0.30224 0.0
C239 C 0.4851 0.9744 0.5044 0.0
C240 C 0.46143 0.96066 0.54137 0.0
C241 C 0.46292 0.93409 0.57006 0.0
C242 C 0.43753 0.97456 0.55343 0.0
C243 C 0.41539 0.96248 0.59415 0.0
C244 C 0.44089 0.92188 0.61039 0.0
C245 C 0.41714 0.93594 0.62217 0.0
C246 C 0.53198 0.99452 0.78727 0.0
C247 C 0.57085 0.03968 0.61928 0.0
C248 C 0.56729 0.08997 0.83291 0.0
C249 C 0.59502 0.09703 0.81285 0.0
C250 C 0.60381 0.12353 0.82091 0.0
C251 C 0.6128 0.0771 0.78389 0.0
C252 C 0.63986 0.08269 0.77134 0.0
C253 C 0.63034 0.12977 0.80269 0.0
C254 C 0.64838 0.10951 0.77951 0.0
C255 C 0.52166 0.07354 0.53327 0.0
H256 H 0.48116 0.92285 0.56206 0.0
H257 H 0.43592 0.99484 0.52964 0.0
H258 H 0.44222 0.90141 0.63227 0.0
H259 H 0.40015 0.92611 0.65231 0.0
H260 H 0.59022 0.1393 0.84149 0.0
H261 H 0.60559 0.05686 0.77437 0.0
H262 H 0.63715 0.15024 0.80963 0.0
H263 H 0.6691 0.11488 0.77246 0.0
Gd264 Gd 0.50209 0.54117 0.75516 0.0
Gd265 Gd 0.5506 0.53129 0.57211 0.0
C266 C 0.64056 0.54133 0.59952 0.0
C267 C 0.64899 0.58079 0.51007 0.0
C268 C 0.60393 0.56394 0.52799 0.0
C269 C 0.61311 0.54368 0.58212 0.0
C270 C 0.62184 0.58234 0.4895 0.0
C271 C 0.65834 0.56028 0.56478 0.0
C272 C 0.64947 0.51947 0.64856 0.0
C273 C 0.63135 0.5 0.67516 0.0
N274 N 0.59551 0.52519 0.6122 0.0
C275 C 0.60444 0.5029 0.65446 0.0
H276 H 0.59095 0.48745 0.67464 0.0
C277 C 0.56831 0.58205 0.44488 0.0
N278 N 0.5777 0.56454 0.50774 0.0
C279 C 0.58526 0.60069 0.40526 0.0
C280 C 0.61212 0.60101 0.42833 0.0
H281 H 0.54754 0.58177 0.42632 0.0
H282 H 0.67945 0.55888 0.57807 0.0
H283 H 0.46254 0.58133 0.62371 0.0
H284 H 0.67035 0.51704 0.6639 0.0
H285 H 0.63809 0.48266 0.7112 0.0
H286 H 0.66302 0.59486 0.48177 0.0
H287 H 0.50201 0.49652 0.92252 0.0
H288 H 0.38417 0.54984 0.62662 0.0
H289 H 0.41668 0.58319 0.57408 0.0
H290 H 0.38834 0.47963 0.84171 0.0
H291 H 0.57762 0.61468 0.35659 0.0
H292 H 0.62528 0.61535 0.39694 0.0
H293 H 0.37389 0.51114 0.72564 0.0
H294 H 0.47061 0.46615 0.99753 0.0
N295 N 0.45763 0.54657 0.70443 0.0
C296 C 0.40459 0.54884 0.64946 0.0
C297 C 0.42285 0.56772 0.61987 0.0
C298 C 0.4127 0.5294 0.71028 0.0
C299 C 0.43964 0.52879 0.73731 0.0
C300 C 0.44921 0.56655 0.64911 0.0
N301 N 0.47357 0.5109 0.82805 0.0
C302 C 0.44782 0.51058 0.80126 0.0
C303 C 0.46398 0.47834 0.94187 0.0
C304 C 0.43769 0.47692 0.91241 0.0
C305 C 0.48173 0.49554 0.89897 0.0
C306 C 0.42927 0.49317 0.84162 0.0
H307 H 0.42397 0.46352 0.94571 0.0
O308 O 0.48719 0.55267 0.89007 0.0
O309 O 0.54528 0.54105 0.71977 0.0
O310 O 0.54501 0.49195 0.64854 0.0
O311 O 0.50517 0.49639 0.72982 0.0
O312 O 0.53485 0.52391 0.84165 0.0
O313 O 0.51202 0.57986 0.81628 0.0
O314 O 0.55336 0.52696 0.42515 0.0
O315 O 0.50791 0.52822 0.61068 0.0
O316 O 0.50581 0.57826 0.66729 0.0
O317 O 0.54917 0.57523 0.6144 0.0
O318 O 0.51556 0.54465 0.48651 0.0
O319 O 0.55716 0.49206 0.50935 0.0
C320 C 0.55451 0.52986 0.78951 0.0
C321 C 0.40277 0.4931 0.81232 0.0
C322 C 0.39454 0.51106 0.74637 0.0
C323 C 0.50149 0.57429 0.89473 0.0
C324 C 0.51856 0.57827 0.97615 0.0
C325 C 0.51583 0.56211 0.05302 0.0
C326 C 0.53766 0.59879 0.97752 0.0
C327 C 0.55347 0.60386 0.05524 0.0
C328 C 0.53183 0.56658 0.12969 0.0
C329 C 0.55042 0.58736 0.13125 0.0
C330 C 0.5249 0.48171 0.69604 0.0
C331 C 0.49692 0.53684 0.53987 0.0
C332 C 0.5536 0.50103 0.42707 0.0
C333 C 0.53341 0.48787 0.369 0.0
C334 C 0.5323 0.49426 0.27629 0.0
C335 C 0.51455 0.47016 0.40515 0.0
C336 C 0.49557 0.45761 0.34794 0.0
C337 C 0.5129 0.48293 0.21996 0.0
C338 C 0.49491 0.46453 0.25482 0.0
C339 C 0.52744 0.58927 0.63166 0.0
H340 H 0.5013 0.54611 0.05424 0.0
H341 H 0.54006 0.61097 0.91775 0.0
H342 H 0.52947 0.55418 0.18886 0.0
H343 H 0.56178 0.59091 0.19306 0.0
H344 H 0.54644 0.50815 0.24754 0.0
H345 H 0.51496 0.46587 0.47734 0.0
H346 H 0.51223 0.48789 0.14834 0.0
H347 H 0.48135 0.45494 0.20707 0.0
Gd348 Gd 0.02105 0.51181 0.73985 0.0
Gd349 Gd 0.03771 0.5568 0.55658 0.0
C350 C 0.0435 0.64355 0.66691 0.0
C351 C 1.00474 0.66396 0.59993 0.0
C352 C 1.0153 0.61734 0.56558 0.0
C353 C 0.03716 0.61908 0.62182 0.0
C354 C 0.99925 0.64001 0.55188 0.0
C355 C 0.02685 0.66573 0.65737 0.0
C356 C 0.06662 0.6452 0.71913 0.0
C357 C 0.08309 0.62303 0.72378 0.0
N358 N 0.05264 0.59711 0.63058 0.0
C359 C 0.076 0.59925 0.67812 0.0
H360 H 0.08971 0.58305 0.68165 0.0
C361 C 0.99189 0.59297 0.452 0.0
N362 N 1.01057 0.59393 0.52019 0.0
C363 C 0.97536 0.61474 0.43647 0.0
C364 C 0.97869 0.63823 0.48802 0.0
H365 H 0.98947 0.57521 0.40939 0.0
H366 H 0.03122 0.6845 0.69262 0.0
H367 H 0.96412 0.48661 0.64023 0.0
H368 H 0.07225 0.66365 0.7541 0.0
H369 H 0.1014 0.62426 0.76225 0.0
H370 H 0.99243 0.68143 0.59124 0.0
H371 H 0.07264 0.49049 0.86999 0.0
H372 H 0.97802 0.40644 0.55378 0.0
H373 H 0.94905 0.44604 0.56293 0.0
H374 H 0.06373 0.38715 0.67265 0.0
H375 H 0.96021 0.61343 0.38418 0.0
H376 H 0.96598 0.65518 0.47555 0.0
H377 H 0.02131 0.38517 0.59016 0.0
H378 H 0.1026 0.45218 0.87643 0.0
N379 N 1.00323 0.4723 0.66878 0.0
C380 C 0.98531 0.42476 0.58557 0.0
C381 C 0.96892 0.44704 0.59087 0.0
C382 C 1.01048 0.42601 0.62501 0.0
C383 C 0.0188 0.45017 0.66823 0.0
C384 C 0.97802 0.47052 0.63387 0.0
N385 N 0.04896 0.47408 0.76112 0.0
C386 C 0.0426 0.45126 0.71452 0.0
C387 C 0.08611 0.45176 0.82909 0.0
C388 C 0.08124 0.42911 0.7747 0.0
C389 C 0.06925 0.47376 0.82358 0.0
C390 C 0.05876 0.42827 0.71894 0.0
H391 H 0.09413 0.41193 0.77985 0.0
O392 O 0.0219 0.5032 0.88477 0.0
O393 O 0.01997 0.55446 0.6964 0.0
O394 O 0.07643 0.54212 0.62041 0.0
O395 O 0.06431 0.52228 0.75653 0.0
O396 O 0.03457 0.54744 0.82547 0.0
O397 O 0.98432 0.50748 0.81611 0.0
O398 O 0.0399 0.56486 0.41149 0.0
O399 O 0.03798 0.51374 0.59814 0.0
O400 O 0.98226 0.52729 0.67795 0.0
O401 O 0.99407 0.54757 0.54211 0.0
O402 O 0.02183 0.52236 0.47176 0.0
O403 O 0.0759 0.55891 0.48775 0.0
C404 C 0.02811 0.56584 0.76967 0.0
C405 C 0.05137 0.40481 0.67114 0.0
C406 C 0.0272 0.40365 0.62448 0.0
C407 C 0.99658 0.50711 0.89444 0.0
C408 C 0.98914 0.52785 0.96289 0.0
C409 C 0.99778 0.52598 0.05354 0.0
C410 C 0.97465 0.55039 0.93702 0.0
C411 C 0.96721 0.57015 1.00181 0.0
C412 C 0.99164 0.54614 0.11757 0.0
C413 C 0.97626 0.56795 0.09238 0.0
C414 C 0.08239 0.53164 0.70033 0.0
C415 C 0.02818 0.50334 0.52533 0.0
C416 C 0.06507 0.55963 0.40704 0.0
C417 C 0.07255 0.5384 0.3404 0.0
C418 C 0.06363 0.53955 0.24982 0.0
C419 C 0.08735 0.5162 0.36764 0.0
C420 C 0.09463 0.496 0.30417 0.0
C421 C 0.06971 0.51901 0.18725 0.0
C422 C 0.08528 0.49751 0.21372 0.0
C423 C 0.97614 0.53778 0.59809 0.0
H424 H 1.0094 0.50902 0.07459 0.0
H425 H 0.96868 0.55234 0.86641 0.0
H426 H 0.99828 0.54454 0.18756 0.0
H427 H 0.97057 0.58239 0.14495 0.0
H428 H 0.05183 0.55625 0.22768 0.0
H429 H 0.09364 0.51483 0.43811 0.0
H430 H 0.06286 0.52008 0.11735 0.0
H431 H 0.09091 0.48276 0.16207 0.0
H432 H 0.20033 1.00367 0.27996 0.0
H433 H 0.18723 0.07276 0.11313 0.0
H434 H 0.1458 0.08271 0.2007 0.0
H435 H 0.13222 0.98353 0.30387 0.0
H436 H 0.13605 0.97344 0.42053 0.0
H437 H 0.16394 0.97188 0.34329 0.0
H438 H 0.19159 1.00188 0.45498 0.0
H439 H 0.16376 1.00292 0.53243 0.0
H440 H 0.1783 0.03361 0.49341 0.0
H441 H 0.10423 0.08368 0.30818 0.0
H442 H 0.06954 0.07736 0.427 0.0
H443 H 0.11187 1.00871 0.52531 0.0
C444 C 0.18874 1.02093 0.26166 0.0
C445 C 0.197 0.03741 0.18941 0.0
C446 C 0.18136 0.05989 0.1682 0.0
C447 C 0.15777 0.06561 0.21764 0.0
C448 C 0.15026 0.04888 0.2889 0.0
C449 C 0.16555 0.02709 0.31104 0.0
C450 C 0.1538 1.01237 0.39129 0.0
C451 C 0.14604 0.9836 0.36302 0.0
C452 C 0.17301 1.01274 0.47284 0.0
C453 C 0.12944 0.02917 0.41169 0.0
C454 C 0.12745 0.05001 0.3515 0.0
C455 C 0.1059 0.06755 0.35585 0.0
C456 C 0.08621 0.06379 0.42337 0.0
C457 C 0.08828 0.04289 0.48664 0.0
C458 C 0.11018 0.02538 0.47999 0.0
H459 H 0.46181 0.17396 0.1666 0.0
H460 H 0.53896 0.21268 0.16357 0.0
H461 H 0.55661 0.17775 0.26371 0.0
H462 H 0.46158 0.15547 0.39584 0.0
H463 H 0.44588 0.12339 0.37741 0.0
H464 H 0.43985 0.14998 0.29942 0.0
H465 H 0.45546 0.11974 0.16404 0.0
H466 H 0.46144 0.09292 0.24148 0.0
H467 H 0.4877 0.10429 0.16788 0.0
H468 H 0.56448 0.14155 0.37725 0.0
H469 H 0.56301 0.10538 0.48883 0.0
H470 H 0.48136 0.08803 0.41434 0.0
C471 C 0.48256 0.17478 0.18575 0.0
C472 C 0.49905 0.19604 0.15692 0.0
C473 C 0.52601 0.19655 0.18399 0.0
C474 C 0.53618 0.17678 0.24108 0.0
C475 C 0.51928 0.15635 0.26954 0.0
C476 C 0.49312 0.15496 0.24173 0.0
C477 C 0.47898 0.1313 0.2842 0.0
C478 C 0.45517 0.14061 0.34268 0.0
C479 C 0.47039 0.11085 0.21 0.0
C480 C 0.50095 0.12019 0.34317 0.0
C481 C 0.52406 0.13492 0.33313 0.0
C482 C 0.54662 0.12969 0.38451 0.0
C483 C 0.54553 0.10916 0.44815 0.0
C484 C 0.52213 0.09378 0.46014 0.0
C485 C 0.49965 0.09915 0.40569 0.0
H486 H 0.36687 0.54491 0.22253 0.0
H487 H 0.33553 0.47835 0.37364 0.0
H488 H 0.37811 0.47446 0.45555 0.0
H489 H 0.43768 0.52114 0.20979 0.0
H490 H 0.45083 0.5544 0.22665 0.0
H491 H 0.4194 0.54948 0.16985 0.0
H492 H 0.39739 0.58193 0.28731 0.0
H493 H 0.42849 0.58652 0.34615 0.0
H494 H 0.39963 0.5752 0.40755 0.0
H495 H 0.42295 0.47962 0.52996 0.0
H496 H 0.46641 0.49418 0.59231 0.0
H497 H 0.46871 0.55885 0.40037 0.0
C498 C 0.36942 0.52895 0.27042 0.0
C499 C 0.34811 0.5114 0.28999 0.0
C500 C 0.35177 0.49158 0.3563 0.0
C501 C 0.37589 0.48927 0.40338 0.0
C502 C 0.39633 0.50716 0.38452 0.0
C503 C 0.39346 0.5266 0.31939 0.0
C504 C 0.41787 0.54465 0.3182 0.0
C505 C 0.43229 0.54227 0.22562 0.0
C506 C 0.41039 0.5738 0.34118 0.0
C507 C 0.43442 0.53275 0.39398 0.0
C508 C 0.42178 0.51088 0.4304 0.0
C509 C 0.43299 0.49675 0.50189 0.0
C510 C 0.4576 0.5053 0.53756 0.0
C511 C 0.47062 0.52808 0.50307 0.0
C512 C 0.45901 0.5416 0.4291 0.0
H513 H 0.99642 0.37995 0.18636 0.0
H514 H 0.07166 0.3446 0.25784 0.0
H515 H 0.08143 0.38384 0.35994 0.0
H516 H 0.02181 0.45045 0.18872 0.0
H517 H 0.99044 0.46301 0.23044 0.0
H518 H 0.99141 0.43332 0.15857 0.0
H519 H 0.96494 0.40916 0.28119 0.0
H520 H 0.96567 0.43711 0.36074 0.0
H521 H 0.97877 0.40519 0.39304 0.0
H522 H 0.08111 0.42742 0.46366 0.0
H523 H 0.07185 0.47032 0.54686 0.0
H524 H 0.99696 0.47616 0.40452 0.0
C525 C 1.01522 0.38069 0.22213 0.0
C526 C 0.03333 0.35919 0.21355 0.0
C527 C 0.05761 0.3609 0.26218 0.0
C528 C 0.06322 0.38311 0.32086 0.0
C529 C 0.04456 0.40373 0.32927 0.0
C530 C 0.0213 0.40286 0.2792 0.0
C531 C 1.00431 0.42729 0.29956 0.0
C532 C 1.00186 0.44453 0.21426 0.0
C533 C 0.9768 0.41924 0.3359 0.0
C534 C 0.02082 0.44146 0.37256 0.0
C535 C 0.04422 0.42794 0.3882 0.0
C536 C 0.06273 0.43791 0.45184 0.0
C537 C 0.05723 0.46218 0.49968 0.0
C538 C 0.03323 0.47612 0.4848 0.0
C539 C 1.01512 0.46559 0.41941 0.0
H540 H 0.84617 0.97642 0.01515 0.0
H541 H 0.87369 1.00155 0.28383 0.0
H542 H 0.91793 1.01241 0.2176 0.0
H543 H 0.90535 0.94682 0.93239 0.0
H544 H 0.90264 0.95884 0.81763 0.0
H545 H 0.87315 0.95339 0.88472 0.0
H546 H 0.85829 1.00219 0.86298 0.0
H547 H 0.88727 1.00781 0.7934 0.0
H548 H 0.88082 0.02916 0.89172 0.0
H549 H 0.96032 1.01749 0.1204 0.0
H550 H 0.9951 0.02136 1.00225 0.0
H551 H 0.93822 0.99712 0.79391 0.0
C552 C 0.86146 0.98448 0.05992 0.0
C553 C 0.85654 0.98814 0.15478 0.0
C554 C 0.87696 0.9988 0.21105 0.0
C555 C 0.90217 1.00485 0.17389 0.0
C556 C 0.90645 1.00069 0.07996 0.0
C557 C 0.88639 0.99128 0.02353 0.0
C558 C 0.89562 0.98936 0.92454 0.0
C559 C 0.8941 0.96038 0.88766 0.0
C560 C 0.87954 1.00826 0.86464 0.0
C561 C 0.92422 0.9987 0.93374 0.0
C562 C 0.9302 1.00485 0.02403 0.0
C563 C 0.9557 1.01294 0.04959 0.0
C564 C 0.97538 1.01514 0.98152 0.0
C565 C 0.9695 1.01002 0.88784 0.0
C566 C 0.94345 1.00153 0.86438 0.0
H567 H 0.59538 0.89415 0.14836 0.0
H568 H 0.51797 0.85621 0.1628 0.0
H569 H 0.49977 0.89045 0.06106 0.0
H570 H 0.57039 0.96366 0.144 0.0
H571 H 0.59606 0.97428 0.06664 0.0
H572 H 0.60248 0.94781 0.14502 0.0
H573 H 0.6163 0.91692 1.00868 0.0
H574 H 0.60952 0.94322 0.93023 0.0
H575 H 0.59339 0.91121 0.91569 0.0
H576 H 0.49093 0.92637 0.94743 0.0
H577 H 0.49124 0.96268 0.83628 0.0
H578 H 0.57383 0.97945 0.89908 0.0
C579 C 0.57449 0.8933 0.13103 0.0
C580 C 0.55806 0.87249 0.16384 0.0
C581 C 0.5309 0.87196 0.13921 0.0
C582 C 0.52042 0.89134 0.08123 0.0
C583 C 0.53724 0.91136 0.04915 0.0
C584 C 0.56365 0.91269 0.07395 0.0
C585 C 0.57754 0.93602 0.02846 0.0
C586 C 0.5872 0.95666 0.10031 0.0
C587 C 0.60055 0.92624 0.96713 0.0
C588 C 0.555 0.94718 0.97212 0.0
C589 C 0.53194 0.93261 0.98539 0.0
C590 C 0.50878 0.93806 0.93753 0.0
C591 C 0.5092 0.95869 0.87421 0.0
C592 C 0.53248 0.974 0.85932 0.0
C593 C 0.55563 0.96837 0.91004 0.0
H594 H 0.69132 0.59431 0.96855 0.0
H595 H 0.70664 0.51981 0.10392 0.0
H596 H 0.66591 0.50031 0.03384 0.0
H597 H 0.62013 0.59229 0.99266 0.0
H598 H 0.61412 0.60749 0.88425 0.0
H599 H 0.64432 0.61487 0.94583 0.0
H600 H 0.67057 0.6 0.80295 0.0
H601 H 0.64113 0.5899 0.74125 0.0
H602 H 0.66752 0.56626 0.75961 0.0
H603 H 0.62131 0.49043 0.95865 0.0
H604 H 0.57784 0.49007 0.88042 0.0
H605 H 0.59276 0.56992 0.78412 0.0
C606 C 0.68617 0.57382 0.98315 0.0
C607 C 0.70223 0.55858 0.04191 0.0
C608 C 0.69476 0.53188 0.05928 0.0
C609 C 0.67164 0.52066 0.01955 0.0
C610 C 0.65628 0.53627 0.96181 0.0
C611 C 0.66332 0.56228 0.94348 0.0
C612 C 0.64321 0.57502 0.88049 0.0
C613 C 0.62966 0.59891 0.92857 0.0
C614 C 0.65635 0.58328 0.79061 0.0
C615 C 0.62366 0.55212 0.86573 0.0
C616 C 0.63145 0.53005 0.9143 0.0
C617 C 0.61538 0.50738 0.91901 0.0
C618 C 0.59069 0.50736 0.87437 0.0
C619 C 0.58231 0.52956 0.82367 0.0
C620 C 0.59914 0.55222 0.81902 0.0
H621 H 0.02908 0.69138 0.12636 0.0
H622 H 0.95543 0.71625 1.00247 0.0
H623 H 0.95875 0.6792 0.88877 0.0
H624 H 0.06284 0.66851 0.91876 0.0
H625 H 0.07715 0.63909 0.96735 0.0
H626 H 0.07068 0.66819 0.03869 0.0
H627 H 0.04167 0.64086 0.14801 0.0
H628 H 0.04855 0.61116 0.08039 0.0
H629 H 1.01469 0.6209 0.10264 0.0
H630 H 0.96846 0.63767 0.7925 0.0
H631 H 0.9843 0.59513 0.722 0.0
H632 H 0.0512 0.59577 0.90749 0.0
C633 C 1.01412 0.68942 0.0736 0.0
C634 C 0.99233 0.7073 0.07178 0.0
C635 C 0.97256 0.70323 1.00408 0.0
C636 C 0.97422 0.68213 0.93923 0.0
C637 C 0.99566 0.66468 0.94305 0.0
C638 C 1.01524 0.66795 1.00875 0.0
C639 C 0.03517 0.64516 1.00097 0.0
C640 C 0.06313 0.65586 0.98018 0.0
C641 C 0.035 0.62855 0.08819 0.0
C642 C 0.02402 0.62902 0.92009 0.0
C643 C 1.00114 0.64059 0.88791 0.0
C644 C 0.98665 0.62873 0.81622 0.0
C645 C 0.99585 0.60462 0.77605 0.0
C646 C 0.01953 0.59259 0.80663 0.0
C647 C 0.03347 0.6049 0.88066 0.0
H648 H 0.04497 0.2071 0.33246 0.0
H649 H 0.99255 0.27508 0.36787 0.0
H650 H 0.97535 0.25619 0.51105 0.0
H651 H 0.99804 0.16059 0.39088 0.0
H652 H 0.02107 0.13845 0.44484 0.0
H653 H 0.03246 0.16014 0.35678 0.0
H654 H 0.06783 0.17805 0.46587 0.0
H655 H 0.05597 0.15894 0.56062 0.0
H656 H 0.05869 0.19499 0.57054 0.0
H657 H 0.95629 0.22487 0.6246 0.0
H658 H 0.93868 0.18518 0.70107 0.0
H659 H 1.00706 0.1397 0.60627 0.0
C660 C 0.03039 0.21836 0.37173 0.0
C661 C 0.02015 0.24255 0.33954 0.0
C662 C 1.00096 0.25669 0.39225 0.0
C663 C 0.99104 0.24607 0.4735 0.0
C664 C 1.00078 0.22153 0.50139 0.0
C665 C 0.02022 0.208 0.45225 0.0
C666 C 0.02498 0.18052 0.48907 0.0
C667 C 0.01875 0.15867 0.41609 0.0
C668 C 0.05355 0.17796 0.5239 0.0
C669 C 1.00477 0.18039 0.56585 0.0
C670 C 0.9908 0.20411 0.57147 0.0
C671 C 0.96762 0.20654 0.62349 0.0
C672 C 0.95776 0.18384 0.66706 0.0
C673 C 0.97122 0.15912 0.65875 0.0
C674 C 0.99597 0.15813 0.61282 0.0
H675 H 0.30098 0.99697 0.28855 0.0
H676 H 0.32537 0.07869 0.34142 0.0
H677 H 0.34566 0.06549 0.48757 0.0
H678 H 0.2949 0.97556 0.54279 0.0
H679 H 0.30878 0.94342 0.51255 0.0
H680 H 0.28785 0.96036 0.43263 0.0
H681 H 0.325 0.95707 0.30973 0.0
H682 H 0.3456 0.93996 0.38843 0.0
H683 H 0.3576 0.97005 0.33645 0.0
H684 H 0.37175 0.04284 0.60263 0.0
H685 H 0.40699 1.01321 0.65639 0.0
H686 H 0.36803 0.94529 0.52796 0.0
C687 C 0.30964 1.0121 0.33353 0.0
C688 C 0.31144 0.03875 0.30602 0.0
C689 C 0.32365 0.0582 0.36311 0.0
C690 C 0.33487 0.05088 0.44641 0.0
C691 C 0.33369 0.02407 0.47087 0.0
C692 C 0.32137 1.00492 0.41567 0.0
C693 C 0.32798 0.97694 0.44505 0.0
C694 C 0.30341 0.96327 0.4857 0.0
C695 C 0.33977 0.96007 0.36524 0.0
C696 C 0.3483 0.98322 0.5185 0.0
C697 C 0.35004 1.0105 0.53636 0.0
C698 C 0.37009 0.02147 0.59101 0.0
C699 C 0.39004 1.00455 0.62158 0.0
C700 C 0.39003 0.97716 0.59615 0.0
C701 C 0.36799 0.96608 0.54995 0.0
H702 H 0.43096 0.34108 0.14175 0.0
H703 H 0.4859 0.29763 0.30871 0.0
H704 H 0.48215 0.33198 0.42948 0.0
H705 H 0.45816 0.39471 0.15006 0.0
H706 H 0.4312 0.41824 0.15987 0.0
H707 H 0.42509 0.38563 0.11326 0.0
H708 H 0.38867 0.37761 0.23455 0.0
H709 H 0.39448 0.41073 0.28169 0.0
H710 H 0.39611 0.38218 0.35431 0.0
H711 H 0.49068 0.37604 0.489 0.0
H712 H 0.50838 0.42114 0.47964 0.0
H713 H 0.44623 0.44115 0.2886 0.0
C714 C 0.44081 0.33824 0.20643 0.0
C715 C 0.45892 0.31703 0.21555 0.0
C716 C 0.47173 0.3136 0.30023 0.0
C717 C 0.46971 0.33321 0.36956 0.0
C718 C 0.45461 0.35598 0.35361 0.0
C719 C 0.43944 0.35818 0.27509 0.0
C720 C 0.43039 0.38677 0.26289 0.0
C721 C 0.43666 0.39689 0.16597 0.0
C722 C 0.40065 0.38947 0.28471 0.0
C723 C 0.44689 0.40087 0.33592 0.0
C724 C 0.45942 0.38267 0.39115 0.0
C725 C 0.48026 0.39048 0.44861 0.0
C726 C 0.49027 0.41651 0.44287 0.0
C727 C 0.47927 0.43467 0.38053 0.0
C728 C 0.45561 0.42743 0.33444 0.0
H729 H 0.23977 0.484 0.33677 0.0
H730 H 0.22884 0.42141 0.13319 0.0
H731 H 0.18637 0.40911 0.20367 0.0
H732 H 0.18919 0.45174 0.52635 0.0
H733 H 0.17841 0.48521 0.55427 0.0
H734 H 0.21299 0.47871 0.53038 0.0
H735 H 0.21273 0.51451 0.40649 0.0
H736 H 0.17871 0.52124 0.42966 0.0
H737 H 0.18884 0.512 0.31478 0.0
H738 H 0.14033 0.41732 0.2413 0.0
H739 H 0.09914 0.44351 0.24308 0.0
H740 H 0.13716 0.50352 0.41629 0.0
C741 C 0.22929 0.46633 0.31252 0.0
C742 C 0.23729 0.45365 0.23022 0.0
C743 C 0.22306 0.43112 0.19708 0.0
C744 C 0.19876 0.42411 0.23686 0.0
C745 C 0.18912 0.43975 0.30989 0.0
C746 C 0.20448 0.45994 0.35 0.0
C747 C 0.18754 0.47842 0.40936 0.0
C748 C 0.19232 0.47319 0.5111 0.0
C749 C 0.1922 0.50824 0.38846 0.0
C750 C 0.16012 0.46886 0.38138 0.0
C751 C 0.16135 0.44532 0.33003 0.0
C752 C 0.13911 0.43532 0.28342 0.0
C753 C 0.11582 0.45057 0.28358 0.0
C754 C 0.1151 0.47593 0.32817 0.0
C755 C 0.13689 0.48407 0.38276 0.0
H756 H 0.95875 0.80201 0.98799 0.0
H757 H 0.92487 0.85047 0.20606 0.0
H758 H 0.91848 0.88698 0.10009 0.0
H759 H 0.99811 0.83312 0.9112 0.0
H760 H 0.99512 0.83159 0.7882 0.0
H761 H 0.98063 0.80594 0.85399 0.0
H762 H 0.93507 0.81463 0.78127 0.0
H763 H 0.94979 0.84064 0.71409 0.0
H764 H 0.92113 0.84774 0.78436 0.0
H765 H 0.94138 0.92102 0.01814 0.0
H766 H 0.98163 0.94345 0.96579 0.0
H767 H 0.99849 0.87662 0.78334 0.0
C768 C 0.948 0.81951 0.01138 0.0
C769 C 0.94375 0.82406 0.10587 0.0
C770 C 0.92931 0.84696 0.13432 0.0
C771 C 0.92544 0.86786 0.07392 0.0
C772 C 0.93494 0.86497 0.98443 0.0
C773 C 0.9441 0.84047 0.9508 0.0
C774 C 0.95848 0.84386 0.8604 0.0
C775 C 0.98464 0.82776 0.8535 0.0
C776 C 0.94001 0.83629 0.78034 0.0
C777 C 0.96296 0.87379 0.86412 0.0
C778 C 0.94733 0.88594 0.93134 0.0
C779 C 0.95279 0.91199 0.96289 0.0
C780 C 0.97596 0.9247 0.93289 0.0
C781 C 0.99348 0.91131 0.87193 0.0
C782 C 0.9854 0.88695 0.83066 0.0
H783 H 0.70215 0.98092 0.06742 0.0
H784 H 0.77485 0.02145 0.99144 0.0
H785 H 0.75559 0.03221 0.84384 0.0
H786 H 0.67744 0.96554 0.81153 0.0
H787 H 0.64397 0.97313 0.84685 0.0
H788 H 0.666 0.95618 0.92327 0.0
H789 H 0.65809 0.99247 0.04898 0.0
H790 H 0.63555 1.00862 0.97498 0.0
H791 H 0.66333 0.02712 0.02235 0.0
H792 H 0.72598 0.05162 0.73343 0.0
H793 H 0.68971 0.08139 0.68984 0.0
H794 H 0.63471 0.03314 0.84526 0.0
C795 C 0.71423 0.99126 0.01812 0.0
C796 C 0.73991 1.00032 0.04137 0.0
C797 C 0.75528 1.01372 0.97518 0.0
C798 C 0.74448 1.01987 0.89031 0.0
C799 C 0.71824 1.01262 0.87213 0.0
C800 C 0.70333 0.99823 0.93414 0.0
C801 C 0.67409 0.99894 0.91076 0.0
C802 C 0.66485 0.97183 0.87073 0.0
C803 C 0.65683 1.00737 0.9941 0.0
C804 C 0.6746 1.01973 0.83718 0.0
C805 C 0.70025 0.02557 0.81007 0.0
C806 C 0.7058 0.04691 0.75309 0.0
C807 C 0.68507 0.06405 0.72984 0.0
C808 C 0.65932 0.0603 0.76641 0.0
C809 C 0.65389 0.03671 0.81478 0.0
H810 H 0.5757 0.75602 0.07113 0.0
H811 H 0.64112 0.74058 0.25198 0.0
H812 H 0.64534 0.69523 0.18609 0.0
H813 H 0.54337 0.70674 0.11499 0.0
H814 H 0.52941 0.69663 1.0062 0.0
H815 H 0.53965 0.73048 0.02489 0.0
H816 H 0.57147 0.72824 0.88594 0.0
H817 H 0.56019 0.69448 0.86354 0.0
H818 H 0.59519 0.70144 0.8754 0.0
H819 H 0.62956 0.64944 0.15852 0.0
H820 H 0.60195 0.60896 0.14262 0.0
H821 H 0.54541 0.65285 0.98145 0.0
C822 C 0.59238 0.74381 0.09052 0.0
C823 C 0.6079 0.75145 0.16668 0.0
C824 C 0.6292 0.73501 0.19298 0.0
C825 C 0.63146 0.70901 0.1565 0.0
C826 C 0.61278 0.70027 0.09208 0.0
C827 C 0.59429 0.71759 0.05594 0.0
C828 C 0.57278 0.70234 1.00428 0.0
C829 C 0.54471 0.70946 0.03989 0.0
C830 C 0.57508 0.70691 0.90114 0.0
C831 C 0.58019 0.67401 0.02654 0.0
C832 C 0.60369 0.67308 0.07487 0.0
C833 C 0.61183 0.64974 0.1169 0.0
C834 C 0.59572 0.6269 0.10887 0.0
C835 C 0.57171 0.62738 0.05865 0.0
C836 C 0.56423 0.65128 0.01633 0.0
H837 H 0.82206 0.5836 0.95738 0.0
H838 H 0.83141 0.64647 0.16088 0.0
H839 H 0.87488 0.65804 0.09642 0.0
H840 H 0.8725 0.55508 0.98446 0.0
H841 H 0.88361 0.54587 0.87065 0.0
H842 H 0.84946 0.55291 0.89012 0.0
H843 H 0.85083 0.58871 0.76654 0.0
H844 H 0.88563 0.58222 0.74678 0.0
H845 H 0.87464 0.61564 0.774 0.0
H846 H 0.92133 0.64888 0.06578 0.0
H847 H 0.96227 0.62226 0.06711 0.0
H848 H 0.92521 0.56335 0.88706 0.0
C849 C 0.83246 0.60122 0.98258 0.0
C850 C 0.82368 0.61412 0.06351 0.0
C851 C 0.83778 0.63659 0.09797 0.0
C852 C 0.86267 0.64317 0.06173 0.0
C853 C 0.87294 0.6273 0.99037 0.0
C854 C 0.85774 0.60733 0.94825 0.0
C855 C 0.87504 0.58876 0.89056 0.0
C856 C 0.86987 0.55896 0.9105 0.0
C857 C 0.8713 0.59417 0.78843 0.0
C858 C 0.90227 0.598 0.92172 0.0
C859 C 0.90083 0.6214 0.97364 0.0
C860 C 0.92274 0.631 0.02309 0.0
C861 C 0.94588 0.61552 0.02464 0.0
C862 C 0.94683 0.5904 0.97846 0.0
C863 C 0.92537 0.58264 0.92169 0.0
H864 H 0.06568 0.21604 0.9525 0.0
H865 H 0.98487 0.21406 0.05531 0.0
H866 H 0.9772 0.1712 0.97378 0.0
H867 H 0.04643 0.18591 0.72305 0.0
H868 H 0.07743 0.16799 0.71058 0.0
H869 H 0.07638 0.19939 0.77319 0.0
H870 H 0.09713 0.17659 0.90921 0.0
H871 H 0.09682 0.14421 0.85299 0.0
H872 H 0.08031 0.14921 0.96179 0.0
H873 H 0.98034 0.12531 0.90507 0.0
H874 H 0.98907 0.08438 0.81275 0.0
H875 H 0.06576 0.1161 0.73382 0.0
C876 C 0.04613 0.20704 0.95506 0.0
C877 C 0.02585 0.21865 1.01083 0.0
C878 C 1.00068 0.20578 0.01313 0.0
C879 C 0.9962 0.18119 0.96775 0.0
C880 C 1.01685 0.1696 0.91762 0.0
C881 C 0.04097 0.18248 0.90758 0.0
C882 C 0.05917 0.16567 0.84562 0.0
C883 C 0.06524 0.18062 0.75773 0.0
C884 C 0.08488 0.15845 0.89535 0.0
C885 C 0.04187 0.14098 0.82584 0.0
C886 C 1.01769 0.14374 0.86977 0.0
C887 C 0.9988 0.12331 0.86759 0.0
C888 C 1.00399 0.10001 0.8154 0.0
C889 C 0.02793 0.09694 0.76558 0.0
C890 C 0.04722 0.11781 0.7711 0.0
H891 H 0.35437 1.01456 0.03175 0.0
H892 H 0.32008 0.08409 0.90717 0.0
H893 H 0.35919 0.08678 0.80336 0.0
H894 H 0.41913 0.0358 0.03874 0.0
H895 H 0.43481 1.00448 1.00865 0.0
H896 H 0.40298 1.00481 0.06502 0.0
H897 H 0.38133 0.97655 0.93724 0.0
H898 H 0.41307 0.97413 0.88054 0.0
H899 H 0.38465 0.98639 0.82006 0.0
H900 H 0.4044 0.08208 0.7153 0.0
H901 H 0.449 0.07008 0.65354 0.0
H902 H 0.45367 1.00533 0.84366 0.0
C903 C 0.35485 0.03022 0.98189 0.0
C904 C 0.334 0.0492 0.9781 0.0
C905 C 0.33553 0.06918 0.91112 0.0
C906 C 0.35783 0.07094 0.85228 0.0
C907 C 0.37846 0.05243 0.86042 0.0
C908 C 0.37682 0.0322 0.92294 0.0
C909 C 0.40157 1.01495 0.92014 0.0
C910 C 0.41546 1.01503 0.01362 0.0
C911 C 0.39475 0.98631 0.88755 0.0
C912 C 0.41804 0.0292 0.84914 0.0
C913 C 0.40431 0.05051 0.81387 0.0
C914 C 0.41532 0.06569 0.74386 0.0
C915 C 0.4408 0.05892 0.70959 0.0
C916 C 0.45539 0.03761 0.74681 0.0
C917 C 0.44346 0.0224 0.81631 0.0
H918 H 0.46456 0.34772 0.90068 0.0
H919 H 0.54487 0.31766 0.92013 0.0
H920 H 0.56112 0.35613 0.83155 0.0
H921 H 0.47201 0.37806 0.66863 0.0
H922 H 0.45117 0.40591 0.70088 0.0
H923 H 0.44545 0.37364 0.74982 0.0
H924 H 0.45005 0.39425 0.91454 0.0
H925 H 0.45425 0.42608 0.86275 0.0
H926 H 0.47891 0.41435 0.94154 0.0
H927 H 0.56898 0.40136 0.75521 0.0
H928 H 0.56788 0.44786 0.70237 0.0
H929 H 0.48256 0.44953 0.74296 0.0
C930 C 0.48552 0.34882 0.88433 0.0
C931 C 0.5034 0.32946 0.91738 0.0
C932 C 0.53067 0.33184 0.89455 0.0
C933 C 0.54009 0.3538 0.84466 0.0
C934 C 0.522 0.37319 0.8171 0.0
C935 C 0.4952 0.37064 0.83534 0.0
C936 C 0.48002 0.39508 0.80535 0.0
C937 C 0.46104 0.38772 0.72649 0.0
C938 C 0.46497 0.40821 0.88605 0.0
C939 C 0.50259 0.41264 0.77239 0.0
C940 C 0.52658 0.39937 0.77696 0.0
C941 C 0.55024 0.41175 0.75098 0.0
C942 C 0.54942 0.4383 0.72087 0.0
C943 C 0.52521 0.45266 0.71872 0.0
C944 C 0.50148 0.43932 0.74402 0.0
H945 H 0.19628 0.51607 0.07312 0.0
H946 H 0.25477 0.51203 0.85574 0.0
H947 H 0.21945 0.5223 0.74307 0.0
H948 H 0.14649 0.48181 0.95452 0.0
H949 H 0.1194 0.50085 1.00306 0.0
H950 H 0.14969 0.49728 0.06644 0.0
H951 H 0.15377 0.56855 0.98004 0.0
H952 H 0.15449 0.54871 0.08135 0.0
H953 H 0.12391 0.55242 0.01939 0.0
H954 H 0.17514 0.52923 0.65216 0.0
H955 H 0.12865 0.53224 0.59657 0.0
H956 H 0.10044 0.5299 0.87648 0.0
C957 C 0.20188 0.51798 1.002 0.0
C958 C 0.22847 0.51341 0.97351 0.0
C959 C 0.23475 0.51587 0.87963 0.0
C960 C 0.21468 0.52147 0.81511 0.0
C961 C 0.18841 0.52463 0.84547 0.0
C962 C 0.18217 0.52315 0.93731 0.0
C963 C 0.15246 0.52527 0.95331 0.0
C964 C 0.14138 0.49979 0.99687 0.0
C965 C 0.14577 0.55023 0.01197 0.0
C966 C 0.14269 0.52795 0.85616 0.0
C967 C 0.16354 0.52776 0.79443 0.0
C968 C 0.15882 0.52948 0.70045 0.0
C969 C 0.1323 0.53125 0.66933 0.0
C970 C 0.11069 0.53102 0.73177 0.0
C971 C 0.1163 0.52965 0.82637 0.0
H972 H 1.00067 0.83568 0.45564 0.0
H973 H 0.03227 0.85581 0.19041 0.0
H974 H 0.04549 0.90035 0.2511 0.0
H975 H 0.97325 0.89318 0.51631 0.0
H976 H 0.98328 0.89795 0.63377 0.0
H977 H 0.98066 0.86478 0.58445 0.0
H978 H 0.02788 0.85269 0.61952 0.0
H979 H 0.03312 0.88459 0.6766 0.0
H980 H 0.05493 0.874 0.58552 0.0
H981 H 0.0513 0.94472 0.33658 0.0
H982 H 0.05405 0.98332 0.44511 0.0
H983 H 0.01953 0.93524 0.65741 0.0
C984 C 1.01161 0.84897 0.4118 0.0
C985 C 1.0162 0.84177 0.31856 0.0
C986 C 0.02942 0.86038 0.26251 0.0
C987 C 0.03666 0.88595 0.29624 0.0
C988 C 0.03102 0.89279 0.38722 0.0
C989 C 0.01963 0.87453 0.44527 0.0
C990 C 1.01571 0.88719 0.5402 0.0
C991 C 0.9865 0.88572 0.57048 0.0
C992 C 0.03396 0.87379 0.60957 0.0
C993 C 0.02469 0.91588 0.52442 0.0
C994 C 0.03393 0.91851 0.43602 0.0
C995 C 0.04404 0.94283 0.40581 0.0
C996 C 0.04527 0.9648 0.46766 0.0
C997 C 0.03576 0.96281 0.55837 0.0
C998 C 0.02573 0.93779 0.5872 0.0
H999 H 0.70199 0.04317 0.30933 0.0
H1000 H 0.73304 0.9769 0.46086 0.0
H1001 H 0.69384 0.97931 0.56429 0.0
H1002 H 0.66979 0.07882 0.51258 0.0
H1003 H 0.64284 0.08965 0.44169 0.0
H1004 H 0.67558 0.08535 0.39352 0.0
H1005 H 0.65462 0.05557 0.27107 0.0
H1006 H 0.62195 0.05478 0.32129 0.0
H1007 H 0.64013 0.02417 0.30063 0.0
H1008 H 0.6482 0.98771 0.6459 0.0
H1009 H 0.60254 1.00078 0.69355 0.0
H1010 H 0.60068 0.05905 0.47994 0.0
C1011 C 0.70096 0.02955 0.3657 0.0
C1012 C 0.72085 1.00984 0.37671 0.0
C1013 C 0.71844 0.9924 0.45137 0.0
C1014 C 0.69605 0.99355 0.5102 0.0
C1015 C 0.67623 1.01246 0.49451 0.0
C1016 C 0.67887 0.03051 0.4249 0.0
C1017 C 0.65432 0.04791 0.41804 0.0
C1018 C 0.66104 0.07716 0.44294 0.0
C1019 C 0.64195 0.04547 0.32221 0.0
C1020 C 0.63662 0.03583 0.49067 0.0
C1021 C 0.64983 1.01597 0.53633 0.0
C1022 C 0.63769 1.00291 0.60915 0.0
C1023 C 0.61155 1.01016 0.63509 0.0
C1024 C 0.59739 0.02981 0.58709 0.0
C1025 C 0.61053 0.04313 0.51539 0.0
H1026 H 0.58977 0.72912 0.4831 0.0
H1027 H 0.51088 0.75246 0.39916 0.0
H1028 H 0.49225 0.71244 0.4731 0.0
H1029 H 0.58323 0.66276 0.42521 0.0
H1030 H 0.60274 0.65067 0.519 0.0
H1031 H 0.60849 0.68363 0.47722 0.0
H1032 H 0.6012 0.70255 0.64123 0.0
H1033 H 0.59445 0.66955 0.68284 0.0
H1034 H 0.57044 0.69585 0.69963 0.0
H1035 H 0.48313 0.66639 0.53919 0.0
H1036 H 0.48409 0.61979 0.58969 0.0
H1037 H 0.56973 0.62441 0.61635 0.0
C1038 C 0.56843 0.72631 0.48268 0.0
C1039 C 0.5518 0.74421 0.43545 0.0
C1040 C 0.52403 0.73953 0.4362 0.0
C1041 C 0.51332 0.7166 0.47732 0.0
C1042 C 0.53058 0.69849 0.51771 0.0
C1043 C 0.55758 0.70329 0.52134 0.0
C1044 C 0.5723 0.67959 0.55974 0.0
C1045 C 0.59288 0.6685 0.49106 0.0
C1046 C 0.58539 0.68733 0.65133 0.0
C1047 C 0.54956 0.66007 0.57341 0.0
C1048 C 0.52557 0.67162 0.5512 0.0
C1049 C 0.50182 0.65735 0.55736 0.0
C1050 C 0.50257 0.63074 0.58637 0.0
C1051 C 0.52694 0.61817 0.60724 0.0
C1052 C 0.55073 0.63328 0.6009 0.0
H1053 H 0.86305 0.55073 0.22197 0.0
H1054 H 0.80427 0.557 0.43791 0.0
H1055 H 0.83923 0.54698 0.5521 0.0
H1056 H 0.90519 0.49854 0.32128 0.0
H1057 H 0.93516 0.51422 0.28089 0.0
H1058 H 0.9047 0.51744 0.21783 0.0
H1059 H 0.90966 0.56893 0.22736 0.0
H1060 H 0.93978 0.56588 0.29196 0.0
H1061 H 0.91264 0.58541 0.33774 0.0
H1062 H 0.88329 0.54019 0.64452 0.0
H1063 H 0.92972 0.53775 0.70145 0.0
H1064 H 0.9584 0.53827 0.4219 0.0
C1065 C 0.8573 0.54929 0.29311 0.0
C1066 C 0.83075 0.55446 0.32075 0.0
C1067 C 0.82427 0.55266 0.41469 0.0
C1068 C 0.84413 0.54721 0.48006 0.0
C1069 C 0.87041 0.54354 0.45048 0.0
C1070 C 0.87682 0.54433 0.35862 0.0
C1071 C 0.90655 0.54201 0.34345 0.0
C1072 C 0.91328 0.51653 0.28759 0.0
C1073 C 0.91779 0.56704 0.29744 0.0
C1074 C 0.91613 0.54017 0.44111 0.0
C1075 C 0.89516 0.54076 0.50237 0.0
C1076 C 0.89971 0.5397 0.59664 0.0
C1077 C 0.92618 0.53825 0.62853 0.0
C1078 C 0.94787 0.53817 0.56648 0.0
C1079 C 0.94245 0.53883 0.47165 0.0
loop_
_geom_bond_atom_site_label_1
_geom_bond_atom_site_label_2
_geom_bond_distance
_geom_bond_site_symmetry_2
_ccdc_geom_bond_type
H0 C5 0.930 . S
H1 C8 0.930 . S
H2 C10 0.930 . S
H3 C4 1.016 . S
C4 H3 1.016 . S
C4 N11 1.286 . S
C5 H0 0.930 . S
C5 C6 1.397 . S
C5 C7 1.361 . S
C6 C5 1.397 . S
C6 C10 1.390 . S
C7 C5 1.361 . S
C7 C8 1.393 . S
C7 N11 1.413 . S
C8 H1 0.930 . S
C8 C7 1.393 . S
C8 C9 1.399 . S
C9 C8 1.399 . S
C9 C10 1.381 . S
C10 H2 0.930 . S
C10 C6 1.390 . S
C10 C9 1.381 . S
N11 C4 1.286 . S
N11 C7 1.413 . S
H12 C17 0.930 . S
H13 C20 0.930 . S
H14 C22 0.930 . S
H15 C16 1.016 . S
C16 H15 1.016 . S
C16 N23 1.286 . S
C17 H12 0.930 . S
C17 C18 1.397 . S
C17 C19 1.361 . S
C18 C17 1.397 . S
C18 C22 1.390 . S
C19 C17 1.361 . S
C19 C20 1.393 . S
C19 N23 1.413 . S
C20 H13 0.930 . S
C20 C19 1.393 . S
C20 C21 1.399 . S
C21 C20 1.399 . S
C21 C22 1.381 . S
C22 H14 0.930 . S
C22 C18 1.390 . S
C22 C21 1.381 . S
N23 C16 1.286 . S
N23 C19 1.413 . S
H24 C29 0.930 . S
H25 C32 0.930 . S
H26 C34 0.930 . S
H27 C28 1.016 . S
C28 H27 1.016 . S
C28 N35 1.286 . S
C29 H24 0.930 . S
C29 C30 1.397 . S
C29 C31 1.361 . S
C30 C29 1.397 . S
C30 C34 1.390 . S
C31 C29 1.361 . S
C31 C32 1.393 . S
C31 N35 1.413 . S
C32 H25 0.930 . S
C32 C31 1.393 . S
C32 C33 1.399 . S
C33 C32 1.399 . S
C33 C34 1.381 . S
C34 H26 0.930 . S
C34 C30 1.390 . S
C34 C33 1.381 . S
N35 C28 1.286 . S
N35 C31 1.413 . S
H36 C41 0.930 . S
H37 C44 0.930 . S
H38 C46 0.930 . S
H39 C40 1.016 . S
C40 H39 1.016 . S
C40 N47 1.286 . S
C41 H36 0.930 . S
C41 C42 1.397 . S
C41 C43 1.361 . S
C42 C41 1.397 . S
C42 C46 1.390 . S
C43 C41 1.361 . S
C43 C44 1.393 . S
C43 N47 1.413 . S
C44 H37 0.930 . S
C44 C43 1.393 . S
C44 C45 1.399 . S
C45 C44 1.399 . S
C45 C46 1.381 . S
C46 H38 0.930 . S
C46 C42 1.390 . S
C46 C45 1.381 . S
N47 C40 1.286 . S
N47 C43 1.413 . S
H48 C53 0.930 . S
H49 C56 0.930 . S
H50 C58 0.930 . S
H51 C52 1.016 . S
C52 H51 1.016 . S
C52 N59 1.286 . S
C53 H48 0.930 . S
C53 C54 1.397 . S
C53 C55 1.361 1_556 S
C54 C53 1.397 . S
C54 C58 1.390 . S
C55 C53 1.361 1_554 S
C55 C56 1.393 . S
C55 N59 1.413 . S
C56 H49 0.930 . S
C56 C55 1.393 . S
C56 C57 1.399 . S
C57 C56 1.399 . S
C57 C58 1.381 1_554 S
C58 H50 0.930 . S
C58 C54 1.390 . S
C58 C57 1.381 1_556 S
N59 C52 1.286 . S
N59 C55 1.413 . S
H60 C65 0.930 . S
H61 C68 0.930 . S
H62 C70 0.930 . S
H63 C64 1.016 . S
C64 H63 1.016 . S
C64 N71 1.286 . S
C65 H60 0.930 . S
C65 C66 1.397 . S
C65 C67 1.361 1_556 S
C66 C65 1.397 . S
C66 C70 1.390 . S
C67 C65 1.361 1_554 S
C67 C68 1.393 . S
C67 N71 1.413 . S
C68 H61 0.930 . S
C68 C67 1.393 . S
C68 C69 1.399 . S
C69 C68 1.399 . S
C69 C70 1.381 1_554 S
C70 H62 0.930 . S
C70 C66 1.390 . S
C70 C69 1.381 1_556 S
N71 C64 1.286 . S
N71 C67 1.413 . S
H72 C77 0.930 . S
H73 C80 0.930 . S
H74 C82 0.930 . S
H75 C76 1.016 . S
C76 H75 1.016 . S
C76 N83 1.286 . S
C77 H72 0.930 . S
C77 C78 1.397 . S
C77 C79 1.368 . S
C78 C77 1.397 . S
C78 C82 1.390 . S
C79 C77 1.368 . S
C79 C80 1.387 1_556 S
C79 N83 1.412 1_556 S
C80 H73 0.930 . S
C80 C79 1.387 1_554 S
C80 C81 1.399 . S
C81 C80 1.399 . S
C81 C82 1.381 1_554 S
C82 H74 0.930 . S
C82 C78 1.390 . S
C82 C81 1.381 1_556 S
N83 C76 1.286 . S
N83 C79 1.412 1_554 S
H84 C89 0.930 . S
H85 C92 0.930 . S
H86 C94 0.930 . S
H87 C88 1.016 . S
C88 H87 1.016 . S
C88 N95 1.286 . S
C89 H84 0.930 . S
C89 C90 1.397 . S
C89 C91 1.361 1_556 S
C90 C89 1.397 . S
C90 C94 1.390 . S
C91 C89 1.361 1_554 S
C91 C92 1.393 . S
C91 N95 1.413 . S
C92 H85 0.930 . S
C92 C91 1.393 . S
C92 C93 1.399 . S
C93 C92 1.399 . S
C93 C94 1.381 1_554 S
C94 H86 0.930 . S
C94 C90 1.390 . S
C94 C93 1.381 1_556 S
N95 C88 1.286 . S
N95 C91 1.413 . S
Gd96 N127 2.642 1_545 S
Gd96 N133 2.601 . S
Gd96 O140 2.545 . S
Gd96 O141 2.606 1_655 S
Gd96 O143 2.429 . S
Gd96 O144 2.545 1_655 S
Gd96 O145 2.412 . S
Gd96 O147 2.362 1_545 S
Gd96 O148 2.324 1_655 S
Gd96 C155 2.828 . S
Gd97 N106 2.661 1_565 S
Gd97 N110 2.601 1_565 S
Gd97 O141 2.362 1_565 S
Gd97 O142 2.324 1_455 S
Gd97 O146 2.545 . S
Gd97 O147 2.606 1_455 S
Gd97 O149 2.429 . S
Gd97 O150 2.545 . S
Gd97 O151 2.412 . S
Gd97 C164 2.828 . S
C98 C101 1.417 1_554 S
C98 C103 1.431 . S
C98 C104 1.412 . S
C99 C102 1.437 1_554 S
C99 C103 1.317 . S
C99 H118 0.929 . S
C100 C101 1.426 . S
C100 C102 1.413 . S
C100 N110 1.359 . S
C101 C98 1.417 1_556 S
C101 C100 1.426 . S
C101 N106 1.350 . S
C102 C99 1.437 1_556 S
C102 C100 1.413 . S
C102 C112 1.391 . S
C103 C98 1.431 . S
C103 C99 1.317 . S
C103 H114 0.930 . S
C104 C98 1.412 . S
C104 C105 1.355 . S
C104 H116 0.930 . S
C105 C104 1.355 . S
C105 C107 1.402 1_554 S
C105 H117 0.930 1_455 S
N106 Gd97 2.661 1_545 S
N106 C101 1.350 . S
N106 C107 1.307 . S
C107 C105 1.402 1_556 S
C107 N106 1.307 . S
C107 H108 0.930 1_455 S
H108 C107 0.930 1_655 S
C109 N110 1.334 1_565 S
C109 C111 1.394 . S
C109 H113 0.930 . S
N110 Gd97 2.601 1_545 S
N110 C100 1.359 . S
N110 C109 1.334 1_545 S
C111 C109 1.394 . S
C111 C112 1.359 1_565 S
C111 H123 0.930 . S
C112 C102 1.391 . S
C112 C111 1.359 1_545 S
C112 H124 0.929 . S
H113 C109 0.930 . S
H114 C103 0.930 . S
H115 C132 0.930 . S
H116 C104 0.930 . S
H117 C105 0.930 1_655 S
H118 C99 0.929 . S
H119 C137 0.930 . S
H120 C128 0.930 . S
H121 C129 0.930 . S
H122 C153 0.929 . S
H123 C111 0.930 . S
H124 C112 0.929 . S
H125 C154 0.930 . S
H126 C135 0.930 . S
N127 Gd96 2.642 1_565 S
N127 C131 1.358 . S
N127 C132 1.321 1_655 S
C128 H120 0.930 . S
C128 C129 1.355 1_655 S
C128 C130 1.412 . S
C129 H121 0.930 . S
C129 C128 1.355 1_455 S
C129 C132 1.402 . S
C130 C128 1.412 . S
C130 C131 1.417 . S
C130 C154 1.431 . S
C131 N127 1.358 . S
C131 C130 1.417 . S
C131 C134 1.426 1_565 S
C132 H115 0.930 . S
C132 N127 1.321 1_455 S
C132 C129 1.402 . S
N133 Gd96 2.601 . S
N133 C134 1.359 . S
N133 C137 1.334 . S
C134 C131 1.426 1_545 S
C134 N133 1.359 . S
C134 C138 1.408 1_545 S
C135 H126 0.930 . S
C135 C136 1.359 . S
C135 C137 1.394 . S
C136 C135 1.359 . S
C136 C138 1.377 1_545 S
C136 H139 0.929 . S
C137 H119 0.930 . S
C137 N133 1.334 . S
C137 C135 1.394 . S
C138 C134 1.408 1_565 S
C138 C136 1.377 1_565 S
C138 C153 1.457 . S
H139 C136 0.929 . S
O140 Gd96 2.545 . S
O140 C155 1.258 . S
O141 Gd96 2.606 1_455 S
O141 Gd97 2.362 1_545 S
O141 C152 1.284 . S
O142 Gd97 2.324 1_655 S
O142 C162 1.254 1_565 S
O143 Gd96 2.429 . S
O143 C162 1.268 . S
O144 Gd96 2.545 1_455 S
O144 C152 1.250 . S
O145 Gd96 2.412 . S
O145 C155 1.252 . S
O146 Gd97 2.545 . S
O146 C164 1.258 . S
O147 Gd96 2.362 1_565 S
O147 Gd97 2.606 1_655 S
O147 C163 1.284 . S
O148 Gd96 2.324 1_455 S
O148 C171 1.254 . S
O149 Gd97 2.429 . S
O149 C171 1.268 1_565 S
O150 Gd97 2.545 . S
O150 C163 1.250 1_455 S
O151 Gd97 2.412 . S
O151 C164 1.252 . S
C152 O141 1.284 . S
C152 O144 1.250 . S
C153 H122 0.929 . S
C153 C138 1.457 . S
C153 C154 1.317 . S
C154 H125 0.930 . S
C154 C130 1.431 . S
C154 C153 1.317 . S
C155 Gd96 2.828 . S
C155 O140 1.258 . S
C155 O145 1.252 . S
C155 C156 1.497 . S
C156 C155 1.497 . S
C156 C157 1.395 . S
C156 C158 1.380 . S
C157 C156 1.395 . S
C157 C160 1.398 . S
C157 H172 0.930 . S
C158 C156 1.380 . S
C158 C159 1.391 . S
C158 H173 0.930 1_655 S
C159 C158 1.391 . S
C159 C161 1.387 . S
C160 C157 1.398 . S
C160 C161 1.380 . S
C160 H174 0.930 . S
C161 C159 1.387 . S
C161 C160 1.380 . S
C161 H175 0.930 . S
C162 O142 1.254 1_545 S
C162 O143 1.268 . S
C163 O147 1.284 . S
C163 O150 1.250 1_655 S
C164 Gd97 2.828 . S
C164 O146 1.258 . S
C164 O151 1.252 . S
C164 C165 1.497 . S
C165 C164 1.497 . S
C165 C166 1.395 . S
C165 C167 1.380 . S
C166 C165 1.395 . S
C166 C169 1.398 . S
C166 H176 0.930 . S
C167 C165 1.380 . S
C167 C168 1.391 . S
C167 H177 0.953 . S
C168 C167 1.391 . S
C168 C170 1.387 1_556 S
C169 C166 1.398 . S
C169 C170 1.380 1_556 S
C169 H178 0.930 . S
C170 C168 1.387 1_554 S
C170 C169 1.380 1_554 S
C170 H179 0.930 . S
C171 O148 1.254 . S
C171 O149 1.268 1_545 S
H172 C157 0.930 . S
H173 C158 0.930 1_455 S
H174 C160 0.930 . S
H175 C161 0.930 . S
H176 C166 0.930 . S
H177 C167 0.953 . S
H178 C169 0.930 . S
H179 C170 0.930 . S
Gd180 N211 2.661 . S
Gd180 N217 2.601 . S
Gd180 O224 2.545 . S
Gd180 O225 2.606 1_565 S
Gd180 O227 2.429 . S
Gd180 O228 2.545 1_565 S
Gd180 O229 2.412 . S
Gd180 O231 2.362 . S
Gd180 O232 2.324 1_565 S
Gd180 C239 2.828 . S
Gd181 N190 2.661 . S
Gd181 N194 2.601 . S
Gd181 O225 2.362 . S
Gd181 O226 2.324 1_545 S
Gd181 O230 2.545 . S
Gd181 O231 2.606 1_545 S
Gd181 O233 2.429 . S
Gd181 O234 2.545 . S
Gd181 O235 2.412 . S
Gd181 C248 2.828 . S
C182 C185 1.417 1_554 S
C182 C187 1.431 . S
C182 C188 1.412 . S
C183 C186 1.437 1_554 S
C183 C187 1.317 . S
C183 H202 0.929 . S
C184 C185 1.426 . S
C184 C186 1.413 . S
C184 N194 1.359 . S
C185 C182 1.417 1_556 S
C185 C184 1.426 . S
C185 N190 1.350 . S
C186 C183 1.437 1_556 S
C186 C184 1.413 . S
C186 C196 1.391 . S
C187 C182 1.431 . S
C187 C183 1.317 . S
C187 H198 0.930 . S
C188 C182 1.412 . S
C188 C189 1.355 . S
C188 H200 0.930 . S
C189 C188 1.355 . S
C189 C191 1.402 1_554 S
C189 H201 0.930 1_545 S
N190 Gd181 2.661 . S
N190 C185 1.350 . S
N190 C191 1.307 . S
C191 C189 1.402 1_556 S
C191 N190 1.307 . S
C191 H192 0.930 1_545 S
H192 C191 0.930 1_565 S
C193 N194 1.334 . S
C193 C195 1.394 . S
C193 H197 0.930 . S
N194 Gd181 2.601 . S
N194 C184 1.359 . S
N194 C193 1.334 . S
C195 C193 1.394 . S
C195 C196 1.359 . S
C195 H207 0.930 . S
C196 C186 1.391 . S
C196 C195 1.359 . S
C196 H208 0.929 . S
H197 C193 0.930 . S
H198 C187 0.930 . S
H199 C216 0.930 . S
H200 C188 0.930 . S
H201 C189 0.930 1_565 S
H202 C183 0.929 . S
H203 C221 0.930 . S
H204 C212 0.930 . S
H205 C213 0.930 . S
H206 C237 0.929 . S
H207 C195 0.930 . S
H208 C196 0.929 . S
H209 C238 0.930 . S
H210 C219 0.930 . S
N211 Gd180 2.661 . S
N211 C215 1.350 . S
N211 C216 1.307 1_565 S
C212 H204 0.930 . S
C212 C213 1.355 1_565 S
C212 C214 1.412 . S
C213 H205 0.930 . S
C213 C212 1.355 1_545 S
C213 C216 1.402 . S
C214 C212 1.412 . S
C214 C215 1.417 . S
C214 C238 1.431 . S
C215 N211 1.350 . S
C215 C214 1.417 . S
C215 C218 1.426 . S
C216 H199 0.930 . S
C216 N211 1.307 1_545 S
C216 C213 1.402 . S
N217 Gd180 2.601 . S
N217 C218 1.359 . S
N217 C221 1.334 . S
C218 C215 1.426 . S
C218 N217 1.359 . S
C218 C222 1.413 . S
C219 H210 0.930 . S
C219 C220 1.359 . S
C219 C221 1.394 . S
C220 C219 1.359 . S
C220 C222 1.391 . S
C220 H223 0.929 . S
C221 H203 0.930 . S
C221 N217 1.334 . S
C221 C219 1.394 . S
C222 C218 1.413 . S
C222 C220 1.391 . S
C222 C237 1.437 . S
H223 C220 0.929 . S
O224 Gd180 2.545 . S
O224 C239 1.258 . S
O225 Gd180 2.606 1_545 S
O225 Gd181 2.362 . S
O225 C236 1.284 . S
O226 Gd181 2.324 1_565 S
O226 C246 1.254 . S
O227 Gd180 2.429 . S
O227 C246 1.268 . S
O228 Gd180 2.545 1_545 S
O228 C236 1.250 . S
O229 Gd180 2.412 . S
O229 C239 1.252 . S
O230 Gd181 2.545 . S
O230 C248 1.258 . S
O231 Gd180 2.362 . S
O231 Gd181 2.606 1_565 S
O231 C247 1.287 . S
O232 Gd180 2.324 1_545 S
O232 C255 1.254 . S
O233 Gd181 2.429 . S
O233 C255 1.268 . S
O234 Gd181 2.545 . S
O234 C247 1.222 1_545 S
O235 Gd181 2.412 . S
O235 C248 1.252 . S
C236 O225 1.284 . S
C236 O228 1.250 . S
C237 H206 0.929 . S
C237 C222 1.437 . S
C237 C238 1.317 . S
C238 H209 0.930 . S
C238 C214 1.431 . S
C238 C237 1.317 . S
C239 Gd180 2.828 . S
C239 O224 1.258 . S
C239 O229 1.252 . S
C239 C240 1.497 . S
C240 C239 1.497 . S
C240 C241 1.395 . S
C240 C242 1.380 . S
C241 C240 1.395 . S
C241 C244 1.398 . S
C241 H256 0.930 . S
C242 C240 1.380 . S
C242 C243 1.391 . S
C242 H257 0.930 1_565 S
C243 C242 1.391 . S
C243 C245 1.387 . S
C244 C241 1.398 . S
C244 C245 1.380 . S
C244 H258 0.930 . S
C245 C243 1.387 . S
C245 C244 1.380 . S
C245 H259 0.930 . S
C246 O226 1.254 . S
C246 O227 1.268 . S
C247 O231 1.287 . S
C247 O234 1.222 1_565 S
C248 Gd181 2.828 . S
C248 O230 1.258 . S
C248 O235 1.252 . S
C248 C249 1.497 . S
C249 C248 1.497 . S
C249 C250 1.395 . S
C249 C251 1.380 . S
C250 C249 1.395 . S
C250 C253 1.398 . S
C250 H260 0.930 . S
C251 C249 1.380 . S
C251 C252 1.391 . S
C251 H261 0.930 . S
C252 C251 1.391 . S
C252 C254 1.387 1_556 S
C253 C250 1.398 . S
C253 C254 1.380 1_556 S
C253 H262 0.930 . S
C254 C252 1.387 1_554 S
C254 C253 1.380 1_554 S
C254 H263 0.930 . S
C255 O232 1.254 . S
C255 O233 1.268 . S
H256 C241 0.930 . S
H257 C242 0.930 1_545 S
H258 C244 0.930 . S
H259 C245 0.930 . S
H260 C250 0.930 . S
H261 C251 0.930 . S
H262 C253 0.930 . S
H263 C254 0.930 . S
Gd264 N295 2.661 . S
Gd264 N301 2.601 . S
Gd264 O308 2.545 . S
Gd264 O309 2.606 . S
Gd264 O311 2.429 . S
Gd264 O312 2.545 . S
Gd264 O313 2.412 . S
Gd264 O315 2.362 . S
Gd264 O316 2.324 . S
Gd264 C323 2.828 . S
Gd265 N274 2.661 . S
Gd265 N278 2.601 . S
Gd265 O309 2.362 . S
Gd265 O310 2.324 . S
Gd265 O314 2.545 . S
Gd265 O315 2.606 . S
Gd265 O317 2.429 . S
Gd265 O318 2.545 . S
Gd265 O319 2.412 . S
Gd265 C332 2.828 . S
C266 C269 1.417 . S
C266 C271 1.431 . S
C266 C272 1.412 . S
C267 C270 1.437 . S
C267 C271 1.317 . S
C267 H286 0.929 . S
C268 C269 1.426 . S
C268 C270 1.413 . S
C268 N278 1.359 . S
C269 C266 1.417 . S
C269 C268 1.426 . S
C269 N274 1.350 . S
C270 C267 1.437 . S
C270 C268 1.413 . S
C270 C280 1.391 . S
C271 C266 1.431 . S
C271 C267 1.317 . S
C271 H282 0.930 . S
C272 C266 1.412 . S
C272 C273 1.355 . S
C272 H284 0.930 . S
C273 C272 1.355 . S
C273 C275 1.402 . S
C273 H285 0.930 . S
N274 Gd265 2.661 . S
N274 C269 1.350 . S
N274 C275 1.307 . S
C275 C273 1.402 . S
C275 N274 1.307 . S
C275 H276 0.930 . S
H276 C275 0.930 . S
C277 N278 1.334 . S
C277 C279 1.394 . S
C277 H281 0.930 . S
N278 Gd265 2.601 . S
N278 C268 1.359 . S
N278 C277 1.334 . S
C279 C277 1.394 . S
C279 C280 1.359 . S
C279 H291 0.930 . S
C280 C270 1.391 . S
C280 C279 1.359 . S
C280 H292 0.929 . S
H281 C277 0.930 . S
H282 C271 0.930 . S
H283 C300 0.930 . S
H284 C272 0.930 . S
H285 C273 0.930 . S
H286 C267 0.929 . S
H287 C305 0.930 . S
H288 C296 0.930 . S
H289 C297 0.930 . S
H290 C321 0.929 . S
H291 C279 0.930 . S
H292 C280 0.929 . S
H293 C322 0.930 . S
H294 C303 0.930 . S
N295 Gd264 2.661 . S
N295 C299 1.350 . S
N295 C300 1.307 . S
C296 H288 0.930 . S
C296 C297 1.355 . S
C296 C298 1.412 . S
C297 H289 0.930 . S
C297 C296 1.355 . S
C297 C300 1.402 . S
C298 C296 1.412 . S
C298 C299 1.417 . S
C298 C322 1.431 . S
C299 N295 1.350 . S
C299 C298 1.417 . S
C299 C302 1.426 . S
C300 H283 0.930 . S
C300 N295 1.307 . S
C300 C297 1.402 . S
N301 Gd264 2.601 . S
N301 C302 1.359 . S
N301 C305 1.334 . S
C302 C299 1.426 . S
C302 N301 1.359 . S
C302 C306 1.413 . S
C303 H294 0.930 . S
C303 C304 1.359 . S
C303 C305 1.394 . S
C304 C303 1.359 . S
C304 C306 1.391 . S
C304 H307 0.929 . S
C305 H287 0.930 . S
C305 N301 1.334 . S
C305 C303 1.394 . S
C306 C302 1.413 . S
C306 C304 1.391 . S
C306 C321 1.437 . S
H307 C304 0.929 . S
O308 Gd264 2.545 . S
O308 C323 1.258 . S
O309 Gd264 2.606 . S
O309 Gd265 2.362 . S
O309 C320 1.284 . S
O310 Gd265 2.324 . S
O310 C330 1.254 . S
O311 Gd264 2.429 . S
O311 C330 1.268 . S
O312 Gd264 2.545 . S
O312 C320 1.250 . S
O313 Gd264 2.412 . S
O313 C323 1.252 . S
O314 Gd265 2.545 . S
O314 C332 1.258 . S
O315 Gd264 2.362 . S
O315 Gd265 2.606 . S
O315 C331 1.284 . S
O316 Gd264 2.324 . S
O316 C339 1.254 . S
O317 Gd265 2.429 . S
O317 C339 1.268 . S
O318 Gd265 2.545 . S
O318 C331 1.250 . S
O319 Gd265 2.412 . S
O319 C332 1.252 . S
C320 O309 1.284 . S
C320 O312 1.250 . S
C321 H290 0.929 . S
C321 C306 1.437 . S
C321 C322 1.317 . S
C322 H293 0.930 . S
C322 C298 1.431 . S
C322 C321 1.317 . S
C323 Gd264 2.828 . S
C323 O308 1.258 . S
C323 O313 1.252 . S
C323 C324 1.497 . S
C324 C323 1.497 . S
C324 C325 1.395 1_556 S
C324 C326 1.380 . S
C325 C324 1.395 1_554 S
C325 C328 1.398 . S
C325 H340 0.930 . S
C326 C324 1.380 . S
C326 C327 1.391 1_556 S
C326 H341 0.930 . S
C327 C326 1.391 1_554 S
C327 C329 1.387 . S
C328 C325 1.398 . S
C328 C329 1.380 . S
C328 H342 0.930 . S
C329 C327 1.387 . S
C329 C328 1.380 . S
C329 H343 0.930 . S
C330 O310 1.254 . S
C330 O311 1.268 . S
C331 O315 1.284 . S
C331 O318 1.250 . S
C332 Gd265 2.828 . S
C332 O314 1.258 . S
C332 O319 1.252 . S
C332 C333 1.497 . S
C333 C332 1.497 . S
C333 C334 1.395 . S
C333 C335 1.380 . S
C334 C333 1.395 . S
C334 C337 1.398 . S
C334 H344 0.930 . S
C335 C333 1.380 . S
C335 C336 1.391 . S
C335 H345 0.930 . S
C336 C335 1.391 . S
C336 C338 1.387 . S
C337 C334 1.398 . S
C337 C338 1.380 . S
C337 H346 0.930 . S
C338 C336 1.387 . S
C338 C337 1.380 . S
C338 H347 0.930 . S
C339 O316 1.254 . S
C339 O317 1.268 . S
H340 C325 0.930 . S
H341 C326 0.930 . S
H342 C328 0.930 . S
H343 C329 0.930 . S
H344 C334 0.930 . S
H345 C335 0.930 . S
H346 C337 0.930 . S
H347 C338 0.930 . S
Gd348 N379 2.661 . S
Gd348 N385 2.601 . S
Gd348 O392 2.545 . S
Gd348 O393 2.606 1_655 S
Gd348 O395 2.429 1_655 S
Gd348 O396 2.545 . S
Gd348 O397 2.412 . S
Gd348 O399 2.362 1_655 S
Gd348 O400 2.324 . S
Gd348 C407 2.828 . S
Gd349 N358 2.661 . S
Gd349 N362 2.601 . S
Gd349 O393 2.362 . S
Gd349 O394 2.324 . S
Gd349 O398 2.545 . S
Gd349 O399 2.606 . S
Gd349 O401 2.429 1_455 S
Gd349 O402 2.545 . S
Gd349 O403 2.412 . S
Gd349 C416 2.828 . S
C350 C353 1.417 . S
C350 C355 1.431 . S
C350 C356 1.412 . S
C351 C354 1.437 . S
C351 C355 1.317 . S
C351 H370 0.929 . S
C352 C353 1.426 . S
C352 C354 1.413 . S
C352 N362 1.359 . S
C353 C350 1.417 . S
C353 C352 1.426 . S
C353 N358 1.350 . S
C354 C351 1.437 . S
C354 C352 1.413 . S
C354 C364 1.391 . S
C355 C350 1.431 . S
C355 C351 1.317 . S
C355 H366 0.930 . S
C356 C350 1.412 . S
C356 C357 1.355 . S
C356 H368 0.930 . S
C357 C356 1.355 . S
C357 C359 1.402 . S
C357 H369 0.930 . S
N358 Gd349 2.661 . S
N358 C353 1.350 . S
N358 C359 1.307 . S
C359 C357 1.402 . S
C359 N358 1.307 . S
C359 H360 0.930 . S
H360 C359 0.930 . S
C361 N362 1.339 . S
C361 C363 1.393 1_455 S
C361 H365 0.926 1_455 S
N362 Gd349 2.601 . S
N362 C352 1.359 . S
N362 C361 1.339 . S
C363 C361 1.393 1_655 S
C363 C364 1.359 1_655 S
C363 H375 0.930 . S
C364 C354 1.391 . S
C364 C363 1.359 1_455 S
C364 H376 0.929 . S
H365 C361 0.926 1_655 S
H366 C355 0.930 . S
H367 C384 0.930 . S
H368 C356 0.930 . S
H369 C357 0.930 . S
H370 C351 0.929 . S
H371 C389 0.930 . S
H372 C380 0.930 . S
H373 C381 0.930 . S
H374 C405 0.929 . S
H375 C363 0.930 . S
H376 C364 0.929 . S
H377 C406 0.930 . S
H378 C387 0.930 . S
N379 Gd348 2.661 . S
N379 C383 1.350 . S
N379 C384 1.307 . S
C380 H372 0.930 . S
C380 C381 1.355 . S
C380 C382 1.412 . S
C381 H373 0.930 . S
C381 C380 1.355 . S
C381 C384 1.402 . S
C382 C380 1.412 . S
C382 C383 1.417 . S
C382 C406 1.431 . S
C383 N379 1.350 . S
C383 C382 1.417 . S
C383 C386 1.426 . S
C384 H367 0.930 . S
C384 N379 1.307 . S
C384 C381 1.402 . S
N385 Gd348 2.601 . S
N385 C386 1.359 . S
N385 C389 1.334 1_655 S
C386 C383 1.426 . S
C386 N385 1.359 . S
C386 C390 1.413 . S
C387 H378 0.930 . S
C387 C388 1.359 . S
C387 C389 1.394 . S
C388 C387 1.359 . S
C388 C390 1.391 1_455 S
C388 H391 0.929 . S
C389 H371 0.930 . S
C389 N385 1.334 1_455 S
C389 C387 1.394 . S
C390 C386 1.413 . S
C390 C388 1.391 1_655 S
C390 C405 1.437 . S
H391 C388 0.929 . S
O392 Gd348 2.545 . S
O392 C407 1.258 . S
O393 Gd348 2.606 1_455 S
O393 Gd349 2.362 . S
O393 C404 1.284 1_455 S
O394 Gd349 2.324 . S
O394 C414 1.254 . S
O395 Gd348 2.429 1_455 S
O395 C414 1.268 . S
O396 Gd348 2.545 . S
O396 C404 1.250 . S
O397 Gd348 2.412 . S
O397 C407 1.252 . S
O398 Gd349 2.545 . S
O398 C416 1.258 . S
O399 Gd348 2.362 1_455 S
O399 Gd349 2.606 . S
O399 C415 1.284 . S
O400 Gd348 2.324 . S
O400 C423 1.254 . S
O401 Gd349 2.429 1_655 S
O401 C423 1.268 . S
O402 Gd349 2.545 . S
O402 C415 1.250 . S
O403 Gd349 2.412 . S
O403 C416 1.252 . S
C404 O393 1.284 1_655 S
C404 O396 1.250 . S
C405 H374 0.929 . S
C405 C390 1.437 . S
C405 C406 1.317 . S
C406 H377 0.930 . S
C406 C382 1.431 . S
C406 C405 1.317 . S
C407 Gd348 2.828 . S
C407 O392 1.258 . S
C407 O397 1.252 . S
C407 C408 1.497 . S
C408 C407 1.497 . S
C408 C409 1.395 1_556 S
C408 C410 1.380 . S
C409 C408 1.395 1_554 S
C409 C412 1.398 . S
C409 H424 0.930 . S
C410 C408 1.380 . S
C410 C411 1.391 1_556 S
C410 H425 0.930 . S
C411 C410 1.391 1_554 S
C411 C413 1.387 . S
C412 C409 1.398 . S
C412 C413 1.380 . S
C412 H426 0.930 . S
C413 C411 1.387 . S
C413 C412 1.380 . S
C413 H427 0.930 . S
C414 O394 1.254 . S
C414 O395 1.268 . S
C415 O399 1.284 . S
C415 O402 1.250 . S
C416 Gd349 2.828 . S
C416 O398 1.258 . S
C416 O403 1.252 . S
C416 C417 1.497 . S
C417 C416 1.497 . S
C417 C418 1.395 . S
C417 C419 1.380 . S
C418 C417 1.395 . S
C418 C421 1.398 . S
C418 H428 0.930 . S
C419 C417 1.380 . S
C419 C420 1.391 . S
C419 H429 0.930 . S
C420 C419 1.391 . S
C420 C422 1.387 . S
C421 C418 1.398 . S
C421 C422 1.380 . S
C421 H430 0.930 . S
C422 C420 1.387 . S
C422 C421 1.380 . S
C422 H431 0.930 . S
C423 O400 1.254 . S
C423 O401 1.268 . S
H424 C409 0.930 . S
H425 C410 0.930 . S
H426 C412 0.930 . S
H427 C413 0.930 . S
H428 C418 0.930 . S
H429 C419 0.930 . S
H430 C421 0.930 . S
H431 C422 0.930 . S
H432 C444 0.930 . S
H433 C446 0.930 . S
H434 C447 0.930 . S
H435 C451 0.959 . S
H436 C451 0.959 . S
H437 C451 0.961 . S
H438 C452 0.960 . S
H439 C452 0.961 . S
H440 C452 0.959 . S
H441 C455 0.929 . S
H442 C456 0.931 . S
H443 C458 0.930 . S
C444 H432 0.930 . S
C444 C445 1.399 . S
C444 C449 1.399 . S
C445 C444 1.399 . S
C445 C446 1.376 . S
C446 H433 0.930 . S
C446 C445 1.376 . S
C446 C447 1.388 . S
C447 H434 0.930 . S
C447 C446 1.388 . S
C447 C448 1.390 . S
C448 C447 1.390 . S
C448 C449 1.394 . S
C448 C454 1.465 . S
C449 C444 1.399 . S
C449 C448 1.394 . S
C449 C450 1.516 . S
C450 C449 1.516 . S
C450 C451 1.502 . S
C450 C452 1.561 . S
C450 C453 1.526 . S
C451 H435 0.959 . S
C451 H436 0.959 . S
C451 H437 0.961 . S
C451 C450 1.502 . S
C452 H438 0.960 . S
C452 H439 0.961 . S
C452 H440 0.959 . S
C452 C450 1.561 . S
C453 C450 1.526 . S
C453 C454 1.396 . S
C453 C458 1.390 . S
C454 C448 1.465 . S
C454 C453 1.396 . S
C454 C455 1.399 . S
C455 H441 0.929 . S
C455 C454 1.399 . S
C455 C456 1.385 . S
C456 H442 0.931 . S
C456 C455 1.385 . S
C456 C457 1.389 . S
C457 C456 1.389 . S
C457 C458 1.387 . S
C458 H443 0.930 . S
C458 C453 1.390 . S
C458 C457 1.387 . S
H459 C471 0.930 . S
H460 C473 0.930 . S
H461 C474 0.930 . S
H462 C478 0.959 . S
H463 C478 0.959 . S
H464 C478 0.961 . S
H465 C479 0.960 . S
H466 C479 0.961 . S
H467 C479 0.959 . S
H468 C482 0.929 . S
H469 C483 0.931 . S
H470 C485 0.930 . S
C471 H459 0.930 . S
C471 C472 1.399 . S
C471 C476 1.399 . S
C472 C471 1.399 . S
C472 C473 1.376 . S
C473 H460 0.930 . S
C473 C472 1.376 . S
C473 C474 1.388 . S
C474 H461 0.930 . S
C474 C473 1.388 . S
C474 C475 1.390 . S
C475 C474 1.390 . S
C475 C476 1.394 . S
C475 C481 1.465 . S
C476 C471 1.399 . S
C476 C475 1.394 . S
C476 C477 1.516 . S
C477 C476 1.516 . S
C477 C478 1.502 . S
C477 C479 1.561 . S
C477 C480 1.526 . S
C478 H462 0.959 . S
C478 H463 0.959 . S
C478 H464 0.961 . S
C478 C477 1.502 . S
C479 H465 0.960 . S
C479 H466 0.961 . S
C479 H467 0.959 . S
C479 C477 1.561 . S
C480 C477 1.526 . S
C480 C481 1.396 . S
C480 C485 1.390 . S
C481 C475 1.465 . S
C481 C480 1.396 . S
C481 C482 1.399 . S
C482 H468 0.929 . S
C482 C481 1.399 . S
C482 C483 1.385 . S
C483 H469 0.931 . S
C483 C482 1.385 . S
C483 C484 1.389 . S
C484 C483 1.389 . S
C484 C485 1.387 . S
C485 H470 0.930 . S
C485 C480 1.390 . S
C485 C484 1.387 . S
H486 C498 0.930 . S
H487 C500 0.930 . S
H488 C501 0.930 . S
H489 C505 0.959 . S
H490 C505 0.959 . S
H491 C505 0.961 . S
H492 C506 0.960 . S
H493 C506 0.961 . S
H494 C506 0.959 . S
H495 C509 0.929 . S
H496 C510 0.931 . S
H497 C512 0.930 . S
C498 H486 0.930 . S
C498 C499 1.399 . S
C498 C503 1.399 . S
C499 C498 1.399 . S
C499 C500 1.376 . S
C500 H487 0.930 . S
C500 C499 1.376 . S
C500 C501 1.388 . S
C501 H488 0.930 . S
C501 C500 1.388 . S
C501 C502 1.390 . S
C502 C501 1.390 . S
C502 C503 1.394 . S
C502 C508 1.465 . S
C503 C498 1.399 . S
C503 C502 1.394 . S
C503 C504 1.516 . S
C504 C503 1.516 . S
C504 C505 1.502 . S
C504 C506 1.561 . S
C504 C507 1.526 . S
C505 H489 0.959 . S
C505 H490 0.959 . S
C505 H491 0.961 . S
C505 C504 1.502 . S
C506 H492 0.960 . S
C506 H493 0.961 . S
C506 H494 0.959 . S
C506 C504 1.561 . S
C507 C504 1.526 . S
C507 C508 1.396 . S
C507 C512 1.390 . S
C508 C502 1.465 . S
C508 C507 1.396 . S
C508 C509 1.399 . S
C509 H495 0.929 . S
C509 C508 1.399 . S
C509 C510 1.385 . S
C510 H496 0.931 . S
C510 C509 1.385 . S
C510 C511 1.389 . S
C511 C510 1.389 . S
C511 C512 1.387 . S
C512 H497 0.930 . S
C512 C507 1.390 . S
C512 C511 1.387 . S
H513 C525 0.930 . S
H514 C527 0.930 . S
H515 C528 0.930 . S
H516 C532 0.959 . S
H517 C532 0.959 . S
H518 C532 0.961 . S
H519 C533 0.960 . S
H520 C533 0.961 . S
H521 C533 0.959 . S
H522 C536 0.929 . S
H523 C537 0.931 . S
H524 C539 0.930 . S
C525 H513 0.930 . S
C525 C526 1.399 . S
C525 C530 1.399 . S
C526 C525 1.399 . S
C526 C527 1.376 . S
C527 H514 0.930 . S
C527 C526 1.376 . S
C527 C528 1.388 . S
C528 H515 0.930 . S
C528 C527 1.388 . S
C528 C529 1.390 . S
C529 C528 1.390 . S
C529 C530 1.394 . S
C529 C535 1.465 . S
C530 C525 1.399 . S
C530 C529 1.394 . S
C530 C531 1.516 . S
C531 C530 1.516 . S
C531 C532 1.502 . S
C531 C533 1.561 1_455 S
C531 C534 1.526 . S
C532 H516 0.959 . S
C532 H517 0.959 . S
C532 H518 0.961 . S
C532 C531 1.502 . S
C533 H519 0.960 . S
C533 H520 0.961 . S
C533 H521 0.959 . S
C533 C531 1.561 1_655 S
C534 C531 1.526 . S
C534 C535 1.396 . S
C534 C539 1.390 . S
C535 C529 1.465 . S
C535 C534 1.396 . S
C535 C536 1.399 . S
C536 H522 0.929 . S
C536 C535 1.399 . S
C536 C537 1.385 . S
C537 H523 0.931 . S
C537 C536 1.385 . S
C537 C538 1.389 . S
C538 C537 1.389 . S
C538 C539 1.387 . S
C539 H524 0.930 . S
C539 C534 1.390 . S
C539 C538 1.387 . S
H540 C552 0.904 1_545 S
H541 C554 0.930 . S
H542 C555 0.930 . S
H543 C559 0.959 . S
H544 C559 0.959 . S
H545 C559 0.961 . S
H546 C560 0.960 . S
H547 C560 0.961 . S
H548 C560 0.959 . S
H549 C563 0.929 . S
H550 C564 0.931 . S
H551 C566 0.930 . S
C552 H540 0.904 1_565 S
C552 C553 1.399 . S
C552 C557 1.399 . S
C553 C552 1.399 . S
C553 C554 1.376 . S
C554 H541 0.930 . S
C554 C553 1.376 . S
C554 C555 1.388 . S
C555 H542 0.930 . S
C555 C554 1.388 . S
C555 C556 1.390 . S
C556 C555 1.390 . S
C556 C557 1.394 . S
C556 C562 1.465 1_554 S
C557 C552 1.399 . S
C557 C556 1.394 . S
C557 C558 1.516 1_565 S
C558 C557 1.516 1_545 S
C558 C559 1.502 1_554 S
C558 C560 1.561 . S
C558 C561 1.526 1_544 S
C559 H543 0.959 . S
C559 H544 0.959 . S
C559 H545 0.961 . S
C559 C558 1.502 1_556 S
C560 H546 0.960 . S
C560 H547 0.961 . S
C560 H548 0.959 . S
C560 C558 1.561 . S
C561 C558 1.526 1_566 S
C561 C562 1.396 . S
C561 C566 1.390 1_565 S
C562 C556 1.465 1_556 S
C562 C561 1.396 . S
C562 C563 1.399 . S
C563 H549 0.929 . S
C563 C562 1.399 . S
C563 C564 1.385 . S
C564 H550 0.931 . S
C564 C563 1.385 . S
C564 C565 1.389 . S
C565 C564 1.389 . S
C565 C566 1.387 1_565 S
C566 H551 0.930 . S
C566 C561 1.390 1_545 S
C566 C565 1.387 1_545 S
H567 C579 0.930 . S
H568 C581 0.930 . S
H569 C582 0.930 1_556 S
H570 C586 0.959 . S
H571 C586 0.959 . S
H572 C586 0.961 . S
H573 C587 0.960 . S
H574 C587 0.961 . S
H575 C587 0.959 . S
H576 C590 0.929 . S
H577 C591 0.931 . S
H578 C593 0.930 . S
C579 H567 0.930 . S
C579 C580 1.399 . S
C579 C584 1.399 . S
C580 C579 1.399 . S
C580 C581 1.376 . S
C581 H568 0.930 . S
C581 C580 1.376 . S
C581 C582 1.388 . S
C582 H569 0.930 1_554 S
C582 C581 1.388 . S
C582 C583 1.390 . S
C583 C582 1.390 . S
C583 C584 1.394 . S
C583 C589 1.465 1_554 S
C584 C579 1.399 . S
C584 C583 1.394 . S
C584 C585 1.516 . S
C585 C584 1.516 . S
C585 C586 1.502 . S
C585 C587 1.561 . S
C585 C588 1.526 1_554 S
C586 H570 0.959 . S
C586 H571 0.959 . S
C586 H572 0.961 . S
C586 C585 1.502 . S
C587 H573 0.960 . S
C587 H574 0.961 . S
C587 H575 0.959 . S
C587 C585 1.561 . S
C588 C585 1.526 1_556 S
C588 C589 1.396 . S
C588 C593 1.390 . S
C589 C583 1.465 1_556 S
C589 C588 1.396 . S
C589 C590 1.399 . S
C590 H576 0.929 . S
C590 C589 1.399 . S
C590 C591 1.385 . S
C591 H577 0.931 . S
C591 C590 1.385 . S
C591 C592 1.389 . S
C592 C591 1.389 . S
C592 C593 1.387 . S
C593 H578 0.930 . S
C593 C588 1.390 . S
C593 C592 1.387 . S
H594 C606 0.930 . S
H595 C608 0.930 . S
H596 C609 0.930 . S
H597 C613 0.959 . S
H598 C613 0.959 . S
H599 C613 0.961 . S
H600 C614 0.960 . S
H601 C614 0.961 . S
H602 C614 0.959 . S
H603 C617 0.929 . S
H604 C618 0.931 . S
H605 C620 0.930 . S
C606 H594 0.930 . S
C606 C607 1.399 . S
C606 C611 1.399 . S
C607 C606 1.399 . S
C607 C608 1.376 . S
C608 H595 0.930 . S
C608 C607 1.376 . S
C608 C609 1.388 . S
C609 H596 0.930 . S
C609 C608 1.388 . S
C609 C610 1.390 . S
C610 C609 1.390 . S
C610 C611 1.394 . S
C610 C616 1.465 1_554 S
C611 C606 1.399 . S
C611 C610 1.394 . S
C611 C612 1.516 . S
C612 C611 1.516 . S
C612 C613 1.502 . S
C612 C614 1.561 1_554 S
C612 C615 1.526 1_554 S
C613 H597 0.959 . S
C613 H598 0.959 . S
C613 H599 0.961 . S
C613 C612 1.502 . S
C614 H600 0.960 . S
C614 H601 0.961 . S
C614 H602 0.959 . S
C614 C612 1.561 1_556 S
C615 C612 1.526 1_556 S
C615 C616 1.396 . S
C615 C620 1.390 . S
C616 C610 1.465 1_556 S
C616 C615 1.396 . S
C616 C617 1.399 . S
C617 H603 0.929 . S
C617 C616 1.399 . S
C617 C618 1.385 . S
C618 H604 0.931 . S
C618 C617 1.385 . S
C618 C619 1.389 . S
C619 C618 1.389 . S
C619 C620 1.387 . S
C620 H605 0.930 . S
C620 C615 1.390 . S
C620 C619 1.387 . S
H621 C633 0.930 . S
H622 C635 0.930 . S
H623 C636 0.930 . S
H624 C640 0.959 . S
H625 C640 0.959 . S
H626 C640 0.961 1_554 S
H627 C641 0.960 . S
H628 C641 0.961 . S
H629 C641 0.959 . S
H630 C644 0.929 . S
H631 C645 0.931 . S
H632 C647 0.940 . S
C633 H621 0.930 . S
C633 C634 1.399 . S
C633 C638 1.399 . S
C634 C633 1.399 . S
C634 C635 1.376 . S
C635 H622 0.930 . S
C635 C634 1.376 . S
C635 C636 1.388 . S
C636 H623 0.930 . S
C636 C635 1.388 . S
C636 C637 1.390 . S
C637 C636 1.390 . S
C637 C638 1.394 . S
C637 C643 1.465 1_554 S
C638 C633 1.399 . S
C638 C637 1.394 . S
C638 C639 1.516 1_655 S
C639 C638 1.516 1_455 S
C639 C640 1.502 1_554 S
C639 C641 1.561 . S
C639 C642 1.526 1_454 S
C640 H624 0.959 . S
C640 H625 0.959 . S
C640 H626 0.961 1_556 S
C640 C639 1.502 1_556 S
C641 H627 0.960 . S
C641 H628 0.961 . S
C641 H629 0.959 . S
C641 C639 1.561 . S
C642 C639 1.526 1_656 S
C642 C643 1.396 . S
C642 C647 1.385 1_655 S
C643 C637 1.465 1_556 S
C643 C642 1.396 . S
C643 C644 1.399 . S
C644 H630 0.929 . S
C644 C643 1.399 . S
C644 C645 1.385 . S
C645 H631 0.931 . S
C645 C644 1.385 . S
C645 C646 1.389 . S
C646 C645 1.389 . S
C646 C647 1.380 1_655 S
C647 H632 0.940 . S
C647 C642 1.385 1_455 S
C647 C646 1.380 1_455 S
H648 C660 0.930 . S
H649 C662 0.930 1_556 S
H650 C663 0.930 . S
H651 C667 0.959 . S
H652 C667 0.959 . S
H653 C667 0.961 . S
H654 C668 0.960 . S
H655 C668 0.961 . S
H656 C668 0.959 . S
H657 C671 0.916 1_655 S
H658 C672 0.931 . S
H659 C674 0.930 . S
C660 H648 0.930 . S
C660 C661 1.399 . S
C660 C665 1.399 . S
C661 C660 1.399 . S
C661 C662 1.376 . S
C662 H649 0.930 1_554 S
C662 C661 1.376 . S
C662 C663 1.388 . S
C663 H650 0.930 . S
C663 C662 1.388 . S
C663 C664 1.390 . S
C664 C663 1.390 . S
C664 C665 1.394 . S
C664 C670 1.465 . S
C665 C660 1.399 . S
C665 C664 1.394 . S
C665 C666 1.516 . S
C666 C665 1.516 . S
C666 C667 1.502 . S
C666 C668 1.561 . S
C666 C669 1.526 . S
C667 H651 0.959 . S
C667 H652 0.959 . S
C667 H653 0.961 . S
C667 C666 1.502 . S
C668 H654 0.960 . S
C668 H655 0.961 . S
C668 H656 0.959 . S
C668 C666 1.561 . S
C669 C666 1.526 . S
C669 C670 1.396 . S
C669 C674 1.390 . S
C670 C664 1.465 . S
C670 C669 1.396 . S
C670 C671 1.425 . S
C671 H657 0.916 1_455 S
C671 C670 1.425 . S
C671 C672 1.374 1_455 S
C672 H658 0.931 . S
C672 C671 1.374 1_655 S
C672 C673 1.389 1_655 S
C673 C672 1.389 1_455 S
C673 C674 1.387 . S
C674 H659 0.930 . S
C674 C669 1.390 . S
C674 C673 1.387 . S
H675 C687 0.930 . S
H676 C689 0.930 . S
H677 C690 0.930 . S
H678 C694 0.959 . S
H679 C694 0.959 . S
H680 C694 0.961 . S
H681 C695 0.960 . S
H682 C695 0.961 . S
H683 C695 0.959 1_545 S
H684 C698 0.929 . S
H685 C699 0.931 . S
H686 C701 0.930 . S
C687 H675 0.930 . S
C687 C688 1.399 . S
C687 C692 1.399 . S
C688 C687 1.399 . S
C688 C689 1.376 . S
C689 H676 0.930 . S
C689 C688 1.376 . S
C689 C690 1.388 . S
C690 H677 0.930 . S
C690 C689 1.388 . S
C690 C691 1.390 . S
C691 C690 1.390 . S
C691 C692 1.394 . S
C691 C697 1.465 . S
C692 C687 1.399 . S
C692 C691 1.394 . S
C692 C693 1.516 . S
C693 C692 1.516 . S
C693 C694 1.502 1_545 S
C693 C695 1.561 1_545 S
C693 C696 1.526 . S
C694 H678 0.959 . S
C694 H679 0.959 . S
C694 H680 0.961 . S
C694 C693 1.502 1_565 S
C695 H681 0.960 . S
C695 H682 0.961 . S
C695 H683 0.959 1_565 S
C695 C693 1.561 1_565 S
C696 C693 1.526 . S
C696 C697 1.396 . S
C696 C701 1.390 1_545 S
C697 C691 1.465 . S
C697 C696 1.396 . S
C697 C698 1.399 . S
C698 H684 0.929 . S
C698 C697 1.399 . S
C698 C699 1.385 . S
C699 H685 0.931 . S
C699 C698 1.385 . S
C699 C700 1.389 . S
C700 C699 1.389 . S
C700 C701 1.387 1_545 S
C701 H686 0.930 . S
C701 C696 1.390 1_565 S
C701 C700 1.387 1_565 S
H702 C714 0.930 . S
H703 C716 0.930 . S
H704 C717 0.930 . S
H705 C721 0.959 . S
H706 C721 0.959 . S
H707 C721 0.961 . S
H708 C722 0.960 . S
H709 C722 0.961 . S
H710 C722 0.959 . S
H711 C725 0.929 . S
H712 C726 0.931 . S
H713 C728 0.930 . S
C714 H702 0.930 . S
C714 C715 1.399 . S
C714 C719 1.399 . S
C715 C714 1.399 . S
C715 C716 1.376 . S
C716 H703 0.930 . S
C716 C715 1.376 . S
C716 C717 1.388 . S
C717 H704 0.930 . S
C717 C716 1.388 . S
C717 C718 1.390 . S
C718 C717 1.390 . S
C718 C719 1.394 . S
C718 C724 1.465 . S
C719 C714 1.399 . S
C719 C718 1.394 . S
C719 C720 1.516 . S
C720 C719 1.516 . S
C720 C721 1.502 . S
C720 C722 1.561 . S
C720 C723 1.526 . S
C721 H705 0.959 . S
C721 H706 0.959 . S
C721 H707 0.961 . S
C721 C720 1.502 . S
C722 H708 0.960 . S
C722 H709 0.961 . S
C722 H710 0.959 . S
C722 C720 1.561 . S
C723 C720 1.526 . S
C723 C724 1.396 . S
C723 C728 1.390 . S
C724 C718 1.465 . S
C724 C723 1.396 . S
C724 C725 1.399 . S
C725 H711 0.929 . S
C725 C724 1.399 . S
C725 C726 1.385 . S
C726 H712 0.931 . S
C726 C725 1.385 . S
C726 C727 1.389 . S
C727 C726 1.389 . S
C727 C728 1.387 . S
C728 H713 0.930 . S
C728 C723 1.390 . S
C728 C727 1.387 . S
H729 C741 0.930 . S
H730 C743 0.930 . S
H731 C744 0.930 . S
H732 C748 0.959 . S
H733 C748 0.959 . S
H734 C748 0.961 . S
H735 C749 0.960 1_556 S
H736 C749 0.961 . S
H737 C749 0.959 . S
H738 C752 0.929 . S
H739 C753 0.931 . S
H740 C755 0.930 . S
C741 H729 0.930 . S
C741 C742 1.399 . S
C741 C746 1.399 . S
C742 C741 1.399 . S
C742 C743 1.376 . S
C743 H730 0.930 . S
C743 C742 1.376 . S
C743 C744 1.388 . S
C744 H731 0.930 . S
C744 C743 1.388 . S
C744 C745 1.390 . S
C745 C744 1.390 . S
C745 C746 1.394 . S
C745 C751 1.465 . S
C746 C741 1.399 . S
C746 C745 1.394 . S
C746 C747 1.516 . S
C747 C746 1.516 . S
C747 C748 1.502 . S
C747 C749 1.561 . S
C747 C750 1.526 . S
C748 H732 0.959 . S
C748 H733 0.959 . S
C748 H734 0.961 . S
C748 C747 1.502 . S
C749 H735 0.960 1_554 S
C749 H736 0.961 . S
C749 H737 0.959 . S
C749 C747 1.561 . S
C750 C747 1.526 . S
C750 C751 1.396 . S
C750 C755 1.390 . S
C751 C745 1.465 . S
C751 C750 1.396 . S
C751 C752 1.399 . S
C752 H738 0.929 . S
C752 C751 1.399 . S
C752 C753 1.385 . S
C753 H739 0.931 . S
C753 C752 1.385 . S
C753 C754 1.389 . S
C754 C753 1.389 . S
C754 C755 1.387 . S
C755 H740 0.930 . S
C755 C750 1.390 . S
C755 C754 1.387 . S
H756 C768 0.930 . S
H757 C770 0.930 . S
H758 C771 0.930 . S
H759 C775 0.959 . S
H760 C775 0.959 1_556 S
H761 C775 0.961 . S
H762 C776 0.960 . S
H763 C776 0.961 . S
H764 C776 0.959 . S
H765 C779 0.929 . S
H766 C780 0.931 . S
H767 C782 0.930 . S
C768 H756 0.930 . S
C768 C769 1.399 . S
C768 C773 1.399 . S
C769 C768 1.399 . S
C769 C770 1.376 . S
C770 H757 0.930 . S
C770 C769 1.376 . S
C770 C771 1.388 . S
C771 H758 0.930 . S
C771 C770 1.388 . S
C771 C772 1.390 . S
C772 C771 1.390 . S
C772 C773 1.394 . S
C772 C778 1.465 . S
C773 C768 1.399 . S
C773 C772 1.394 . S
C773 C774 1.516 . S
C774 C773 1.516 . S
C774 C775 1.502 1_655 S
C774 C776 1.561 1_554 S
C774 C777 1.526 . S
C775 H759 0.959 . S
C775 H760 0.959 1_554 S
C775 H761 0.961 . S
C775 C774 1.502 1_455 S
C776 H762 0.960 . S
C776 H763 0.961 . S
C776 H764 0.959 . S
C776 C774 1.561 1_556 S
C777 C774 1.526 . S
C777 C778 1.396 . S
C777 C782 1.390 1_654 S
C778 C772 1.465 . S
C778 C777 1.396 . S
C778 C779 1.399 . S
C779 H765 0.929 . S
C779 C778 1.399 . S
C779 C780 1.385 . S
C780 H766 0.931 . S
C780 C779 1.385 . S
C780 C781 1.389 1_655 S
C781 C780 1.389 1_455 S
C781 C782 1.387 1_554 S
C782 H767 0.930 . S
C782 C777 1.390 1_456 S
C782 C781 1.387 1_556 S
H783 C795 0.930 . S
H784 C797 0.930 . S
H785 C798 0.930 1_556 S
H786 C802 0.959 . S
H787 C802 0.959 1_545 S
H788 C802 0.961 . S
H789 C803 0.960 . S
H790 C803 0.961 . S
H791 C803 0.959 . S
H792 C806 0.929 . S
H793 C807 0.931 . S
H794 C809 0.930 . S
C795 H783 0.930 . S
C795 C796 1.399 . S
C795 C800 1.399 . S
C796 C795 1.399 . S
C796 C797 1.376 . S
C797 H784 0.930 . S
C797 C796 1.376 . S
C797 C798 1.388 . S
C798 H785 0.930 1_554 S
C798 C797 1.388 . S
C798 C799 1.390 . S
C799 C798 1.390 . S
C799 C800 1.394 . S
C799 C805 1.465 . S
C800 C795 1.399 . S
C800 C799 1.394 . S
C800 C801 1.516 1_565 S
C801 C800 1.516 1_545 S
C801 C802 1.502 1_545 S
C801 C803 1.561 . S
C801 C804 1.526 . S
C802 H786 0.959 . S
C802 H787 0.959 1_565 S
C802 H788 0.961 . S
C802 C801 1.502 1_565 S
C803 H789 0.960 . S
C803 H790 0.961 . S
C803 H791 0.959 . S
C803 C801 1.561 . S
C804 C801 1.526 . S
C804 C805 1.396 1_545 S
C804 C809 1.390 . S
C805 C799 1.465 . S
C805 C804 1.396 1_565 S
C805 C806 1.399 1_554 S
C806 H792 0.929 . S
C806 C805 1.399 1_556 S
C806 C807 1.385 . S
C807 H793 0.931 . S
C807 C806 1.385 . S
C807 C808 1.389 1_565 S
C808 C807 1.389 1_545 S
C808 C809 1.387 1_556 S
C809 H794 0.930 . S
C809 C804 1.390 . S
C809 C808 1.387 1_554 S
H810 C822 0.930 . S
H811 C824 0.930 . S
H812 C825 0.930 . S
H813 C829 0.960 . S
H814 C829 0.959 1_556 S
H815 C829 0.961 1_556 S
H816 C830 0.960 . S
H817 C830 0.961 . S
H818 C830 0.959 . S
H819 C833 0.929 . S
H820 C834 0.931 . S
H821 C836 0.930 . S
C822 H810 0.930 . S
C822 C823 1.399 . S
C822 C827 1.399 . S
C823 C822 1.399 . S
C823 C824 1.376 . S
C824 H811 0.930 . S
C824 C823 1.376 . S
C824 C825 1.388 . S
C825 H812 0.930 . S
C825 C824 1.388 . S
C825 C826 1.390 . S
C826 C825 1.390 . S
C826 C827 1.394 . S
C826 C832 1.465 . S
C827 C822 1.399 . S
C827 C826 1.394 . S
C827 C828 1.516 . S
C828 C827 1.516 . S
C828 C829 1.502 . S
C828 C830 1.561 1_554 S
C828 C831 1.526 . S
C829 H813 0.960 . S
C829 H814 0.959 1_554 S
C829 H815 0.961 1_554 S
C829 C828 1.502 . S
C830 H816 0.960 . S
C830 H817 0.961 . S
C830 H818 0.959 . S
C830 C828 1.561 1_556 S
C831 C828 1.526 . S
C831 C832 1.396 . S
C831 C836 1.390 1_554 S
C832 C826 1.465 . S
C832 C831 1.396 . S
C832 C833 1.399 . S
C833 H819 0.929 . S
C833 C832 1.399 . S
C833 C834 1.385 . S
C834 H820 0.931 . S
C834 C833 1.385 . S
C834 C835 1.389 . S
C835 C834 1.389 . S
C835 C836 1.387 1_554 S
C836 H821 0.930 . S
C836 C831 1.390 1_556 S
C836 C835 1.387 1_556 S
H837 C849 0.930 . S
H838 C851 0.930 . S
H839 C852 0.930 1_556 S
H840 C856 0.959 . S
H841 C856 0.959 . S
H842 C856 0.961 . S
H843 C857 0.960 . S
H844 C857 0.961 . S
H845 C857 0.959 . S
H846 C860 0.929 . S
H847 C861 0.931 . S
H848 C863 0.930 . S
C849 H837 0.930 . S
C849 C850 1.399 . S
C849 C854 1.399 . S
C850 C849 1.399 . S
C850 C851 1.376 . S
C851 H838 0.930 . S
C851 C850 1.376 . S
C851 C852 1.388 . S
C852 H839 0.930 1_554 S
C852 C851 1.388 . S
C852 C853 1.390 . S
C853 C852 1.390 . S
C853 C854 1.394 . S
C853 C859 1.465 . S
C854 C849 1.399 . S
C854 C853 1.394 . S
C854 C855 1.516 . S
C855 C854 1.516 . S
C855 C856 1.502 . S
C855 C857 1.561 . S
C855 C858 1.526 . S
C856 H840 0.959 . S
C856 H841 0.959 . S
C856 H842 0.961 . S
C856 C855 1.502 . S
C857 H843 0.960 . S
C857 H844 0.961 . S
C857 H845 0.959 . S
C857 C855 1.561 . S
C858 C855 1.526 . S
C858 C859 1.396 . S
C858 C863 1.390 . S
C859 C853 1.465 . S
C859 C858 1.396 . S
C859 C860 1.399 1_554 S
C860 H846 0.929 . S
C860 C859 1.399 1_556 S
C860 C861 1.385 . S
C861 H847 0.931 . S
C861 C860 1.385 . S
C861 C862 1.389 1_556 S
C862 C861 1.389 1_554 S
C862 C863 1.387 . S
C863 H848 0.930 . S
C863 C858 1.390 . S
C863 C862 1.387 . S
H864 C876 0.930 . S
H865 C878 0.930 . S
H866 C879 0.930 . S
H867 C883 0.959 . S
H868 C883 0.959 . S
H869 C883 0.961 . S
H870 C884 0.960 . S
H871 C884 0.961 . S
H872 C884 0.959 . S
H873 C887 0.929 . S
H874 C888 0.931 . S
H875 C890 0.930 . S
C876 H864 0.930 . S
C876 C877 1.399 . S
C876 C881 1.399 . S
C877 C876 1.399 . S
C877 C878 1.376 . S
C878 H865 0.930 . S
C878 C877 1.376 . S
C878 C879 1.388 . S
C879 H866 0.930 . S
C879 C878 1.388 . S
C879 C880 1.390 . S
C880 C879 1.390 . S
C880 C881 1.394 . S
C880 C886 1.465 . S
C881 C876 1.399 . S
C881 C880 1.394 . S
C881 C882 1.516 . S
C882 C881 1.516 . S
C882 C883 1.502 . S
C882 C884 1.561 . S
C882 C885 1.526 . S
C883 H867 0.959 . S
C883 H868 0.959 . S
C883 H869 0.961 . S
C883 C882 1.502 . S
C884 H870 0.960 . S
C884 H871 0.961 . S
C884 H872 0.959 . S
C884 C882 1.561 . S
C885 C882 1.526 . S
C885 C886 1.396 . S
C885 C890 1.390 . S
C886 C880 1.465 . S
C886 C885 1.396 . S
C886 C887 1.399 . S
C887 H873 0.929 . S
C887 C886 1.399 . S
C887 C888 1.385 . S
C888 H874 0.931 . S
C888 C887 1.385 . S
C888 C889 1.389 . S
C889 C888 1.389 . S
C889 C890 1.387 . S
C890 H875 0.930 . S
C890 C885 1.390 . S
C890 C889 1.387 . S
H891 C903 0.930 . S
H892 C905 0.930 . S
H893 C906 0.930 . S
H894 C910 0.974 . S
H895 C910 0.972 . S
H896 C910 0.967 . S
H897 C911 0.960 . S
H898 C911 0.961 . S
H899 C911 0.959 . S
H900 C914 0.929 . S
H901 C915 0.931 . S
H902 C917 0.930 . S
C903 H891 0.930 . S
C903 C904 1.399 . S
C903 C908 1.399 . S
C904 C903 1.399 . S
C904 C905 1.376 . S
C905 H892 0.930 . S
C905 C904 1.376 . S
C905 C906 1.388 . S
C906 H893 0.930 . S
C906 C905 1.388 . S
C906 C907 1.390 . S
C907 C906 1.390 . S
C907 C908 1.394 . S
C907 C913 1.465 . S
C908 C903 1.399 . S
C908 C907 1.394 . S
C908 C909 1.516 . S
C909 C908 1.516 . S
C909 C910 1.470 1_545 S
C909 C911 1.561 . S
C909 C912 1.526 . S
C910 H894 0.974 . S
C910 H895 0.972 . S
C910 H896 0.967 . S
C910 C909 1.470 1_565 S
C911 H897 0.960 . S
C911 H898 0.961 . S
C911 H899 0.959 . S
C911 C909 1.561 . S
C912 C909 1.526 . S
C912 C913 1.396 . S
C912 C917 1.390 . S
C913 C907 1.465 . S
C913 C912 1.396 . S
C913 C914 1.399 . S
C914 H900 0.929 . S
C914 C913 1.399 . S
C914 C915 1.385 . S
C915 H901 0.931 . S
C915 C914 1.385 . S
C915 C916 1.389 . S
C916 C915 1.389 . S
C916 C917 1.387 . S
C917 H902 0.930 . S
C917 C912 1.390 . S
C917 C916 1.387 . S
H918 C930 0.930 . S
H919 C932 0.930 . S
H920 C933 0.930 . S
H921 C937 0.959 . S
H922 C937 0.959 . S
H923 C937 0.961 . S
H924 C938 0.960 . S
H925 C938 0.961 . S
H926 C938 0.959 . S
H927 C941 0.929 . S
H928 C942 0.931 . S
H929 C944 0.930 . S
C930 H918 0.930 . S
C930 C931 1.399 . S
C930 C935 1.399 . S
C931 C930 1.399 . S
C931 C932 1.376 . S
C932 H919 0.930 . S
C932 C931 1.376 . S
C932 C933 1.388 . S
C933 H920 0.930 . S
C933 C932 1.388 . S
C933 C934 1.390 . S
C934 C933 1.390 . S
C934 C935 1.394 . S
C934 C940 1.465 . S
C935 C930 1.399 . S
C935 C934 1.394 . S
C935 C936 1.516 . S
C936 C935 1.516 . S
C936 C937 1.502 . S
C936 C938 1.561 . S
C936 C939 1.526 . S
C937 H921 0.959 . S
C937 H922 0.959 . S
C937 H923 0.961 . S
C937 C936 1.502 . S
C938 H924 0.960 . S
C938 H925 0.961 . S
C938 H926 0.959 . S
C938 C936 1.561 . S
C939 C936 1.526 . S
C939 C940 1.396 . S
C939 C944 1.390 . S
C940 C934 1.465 . S
C940 C939 1.396 . S
C940 C941 1.399 . S
C941 H927 0.929 . S
C941 C940 1.399 . S
C941 C942 1.385 . S
C942 H928 0.931 . S
C942 C941 1.385 . S
C942 C943 1.389 . S
C943 C942 1.389 . S
C943 C944 1.387 . S
C944 H929 0.930 . S
C944 C939 1.390 . S
C944 C943 1.387 . S
H945 C957 0.930 . S
H946 C959 0.930 . S
H947 C960 0.930 . S
H948 C964 0.959 . S
H949 C964 0.962 . S
H950 C964 0.961 1_554 S
H951 C965 0.960 1_554 S
H952 C965 0.964 . S
H953 C965 0.959 . S
H954 C968 0.929 . S
H955 C969 0.931 . S
H956 C971 0.930 . S
C957 H945 0.930 . S
C957 C958 1.399 . S
C957 C962 1.399 . S
C958 C957 1.399 . S
C958 C959 1.376 . S
C959 H946 0.930 . S
C959 C958 1.376 . S
C959 C960 1.388 . S
C960 H947 0.930 . S
C960 C959 1.388 . S
C960 C961 1.390 . S
C961 C960 1.390 . S
C961 C962 1.394 . S
C961 C967 1.465 . S
C962 C957 1.399 . S
C962 C961 1.394 . S
C962 C963 1.516 . S
C963 C962 1.516 . S
C963 C964 1.502 . S
C963 C965 1.561 . S
C963 C966 1.526 . S
C964 H948 0.959 . S
C964 H949 0.962 . S
C964 H950 0.961 1_556 S
C964 C963 1.502 . S
C965 H951 0.960 1_556 S
C965 H952 0.964 . S
C965 H953 0.959 . S
C965 C963 1.561 . S
C966 C963 1.526 . S
C966 C967 1.396 . S
C966 C971 1.390 . S
C967 C961 1.465 . S
C967 C966 1.396 . S
C967 C968 1.399 . S
C968 H954 0.929 . S
C968 C967 1.399 . S
C968 C969 1.385 . S
C969 H955 0.931 . S
C969 C968 1.385 . S
C969 C970 1.389 . S
C970 C969 1.389 . S
C970 C971 1.387 . S
C971 H956 0.930 . S
C971 C966 1.390 . S
C971 C970 1.387 . S
H972 C984 0.930 . S
H973 C986 0.930 . S
H974 C987 0.930 . S
H975 C991 0.959 . S
H976 C991 0.959 . S
H977 C991 0.961 . S
H978 C992 0.960 . S
H979 C992 0.961 . S
H980 C992 0.959 . S
H981 C995 0.929 . S
H982 C996 0.931 . S
H983 C998 0.930 . S
C984 H972 0.930 . S
C984 C985 1.399 . S
C984 C989 1.399 . S
C985 C984 1.399 . S
C985 C986 1.376 . S
C986 H973 0.930 . S
C986 C985 1.376 . S
C986 C987 1.388 . S
C987 H974 0.930 . S
C987 C986 1.388 . S
C987 C988 1.390 . S
C988 C987 1.390 . S
C988 C989 1.394 . S
C988 C994 1.465 . S
C989 C984 1.399 . S
C989 C988 1.394 . S
C989 C990 1.516 . S
C990 C989 1.516 . S
C990 C991 1.502 . S
C990 C992 1.561 . S
C990 C993 1.526 . S
C991 H975 0.959 . S
C991 H976 0.959 . S
C991 H977 0.961 . S
C991 C990 1.502 . S
C992 H978 0.960 . S
C992 H979 0.961 . S
C992 H980 0.959 . S
C992 C990 1.561 . S
C993 C990 1.526 . S
C993 C994 1.396 . S
C993 C998 1.390 . S
C994 C988 1.465 . S
C994 C993 1.396 . S
C994 C995 1.399 . S
C995 H981 0.929 . S
C995 C994 1.399 . S
C995 C996 1.385 . S
C996 H982 0.931 . S
C996 C995 1.385 . S
C996 C997 1.389 . S
C997 C996 1.389 . S
C997 C998 1.387 . S
C998 H983 0.930 . S
C998 C993 1.390 . S
C998 C997 1.387 . S
H999 C1011 0.917 1_545 S
H1000 C1013 0.930 . S
H1001 C1014 0.930 . S
H1002 C1018 0.959 . S
H1003 C1018 0.959 . S
H1004 C1018 0.961 . S
H1005 C1019 0.960 . S
H1006 C1019 0.961 . S
H1007 C1019 0.959 1_565 S
H1008 C1022 0.929 . S
H1009 C1023 0.931 . S
H1010 C1025 0.908 1_545 S
C1011 H999 0.917 1_565 S
C1011 C1012 1.399 . S
C1011 C1016 1.399 . S
C1012 C1011 1.399 . S
C1012 C1013 1.376 . S
C1013 H1000 0.930 . S
C1013 C1012 1.376 . S
C1013 C1014 1.388 . S
C1014 H1001 0.930 . S
C1014 C1013 1.388 . S
C1014 C1015 1.390 . S
C1015 C1014 1.390 . S
C1015 C1016 1.394 . S
C1015 C1021 1.465 . S
C1016 C1011 1.399 . S
C1016 C1015 1.394 . S
C1016 C1017 1.516 1_565 S
C1017 C1016 1.516 1_545 S
C1017 C1018 1.502 . S
C1017 C1019 1.561 . S
C1017 C1020 1.526 1_545 S
C1018 H1002 0.959 . S
C1018 H1003 0.959 . S
C1018 H1004 0.961 . S
C1018 C1017 1.502 . S
C1019 H1005 0.960 . S
C1019 H1006 0.961 . S
C1019 H1007 0.959 1_545 S
C1019 C1017 1.561 . S
C1020 C1017 1.526 1_565 S
C1020 C1021 1.396 . S
C1020 C1025 1.398 . S
C1021 C1015 1.465 . S
C1021 C1020 1.396 . S
C1021 C1022 1.399 . S
C1022 H1008 0.929 . S
C1022 C1021 1.399 . S
C1022 C1023 1.385 . S
C1023 H1009 0.931 . S
C1023 C1022 1.385 . S
C1023 C1024 1.389 . S
C1024 C1023 1.389 . S
C1024 C1025 1.401 . S
C1025 H1010 0.908 1_565 S
C1025 C1020 1.398 . S
C1025 C1024 1.401 . S
H1026 C1038 0.930 . S
H1027 C1040 0.930 . S
H1028 C1041 0.930 . S
H1029 C1045 0.959 . S
H1030 C1045 0.959 . S
H1031 C1045 0.961 . S
H1032 C1046 0.960 . S
H1033 C1046 0.961 . S
H1034 C1046 0.959 . S
H1035 C1049 0.929 . S
H1036 C1050 0.931 . S
H1037 C1052 0.930 . S
C1038 H1026 0.930 . S
C1038 C1039 1.399 . S
C1038 C1043 1.399 . S
C1039 C1038 1.399 . S
C1039 C1040 1.376 . S
C1040 H1027 0.930 . S
C1040 C1039 1.376 . S
C1040 C1041 1.388 . S
C1041 H1028 0.930 . S
C1041 C1040 1.388 . S
C1041 C1042 1.390 . S
C1042 C1041 1.390 . S
C1042 C1043 1.394 . S
C1042 C1048 1.465 . S
C1043 C1038 1.399 . S
C1043 C1042 1.394 . S
C1043 C1044 1.516 . S
C1044 C1043 1.516 . S
C1044 C1045 1.502 . S
C1044 C1046 1.561 . S
C1044 C1047 1.526 . S
C1045 H1029 0.959 . S
C1045 H1030 0.959 . S
C1045 H1031 0.961 . S
C1045 C1044 1.502 . S
C1046 H1032 0.960 . S
C1046 H1033 0.961 . S
C1046 H1034 0.959 . S
C1046 C1044 1.561 . S
C1047 C1044 1.526 . S
C1047 C1048 1.396 . S
C1047 C1052 1.390 . S
C1048 C1042 1.465 . S
C1048 C1047 1.396 . S
C1048 C1049 1.399 . S
C1049 H1035 0.929 . S
C1049 C1048 1.399 . S
C1049 C1050 1.385 . S
C1050 H1036 0.931 . S
C1050 C1049 1.385 . S
C1050 C1051 1.389 . S
C1051 C1050 1.389 . S
C1051 C1052 1.387 . S
C1052 H1037 0.930 . S
C1052 C1047 1.390 . S
C1052 C1051 1.387 . S
H1053 C1065 0.930 . S
H1054 C1067 0.930 . S
H1055 C1068 0.930 . S
H1056 C1072 0.959 . S
H1057 C1072 0.959 . S
H1058 C1072 0.961 . S
H1059 C1073 0.960 . S
H1060 C1073 0.961 . S
H1061 C1073 0.959 . S
H1062 C1076 0.929 . S
H1063 C1077 0.931 . S
H1064 C1079 0.930 . S
C1065 H1053 0.930 . S
C1065 C1066 1.399 . S
C1065 C1070 1.399 . S
C1066 C1065 1.399 . S
C1066 C1067 1.376 . S
C1067 H1054 0.930 . S
C1067 C1066 1.376 . S
C1067 C1068 1.388 . S
C1068 H1055 0.930 . S
C1068 C1067 1.388 . S
C1068 C1069 1.390 . S
C1069 C1068 1.390 . S
C1069 C1070 1.394 . S
C1069 C1075 1.465 . S
C1070 C1065 1.399 . S
C1070 C1069 1.394 . S
C1070 C1071 1.516 . S
C1071 C1070 1.516 . S
C1071 C1072 1.502 . S
C1071 C1073 1.561 . S
C1071 C1074 1.526 . S
C1072 H1056 0.959 . S
C1072 H1057 0.959 . S
C1072 H1058 0.961 . S
C1072 C1071 1.502 . S
C1073 H1059 0.960 . S
C1073 H1060 0.961 . S
C1073 H1061 0.959 . S
C1073 C1071 1.561 . S
C1074 C1071 1.526 . S
C1074 C1075 1.396 . S
C1074 C1079 1.390 . S
C1075 C1069 1.465 . S
C1075 C1074 1.396 . S
C1075 C1076 1.399 . S
C1076 H1062 0.929 . S
C1076 C1075 1.399 . S
C1076 C1077 1.385 . S
C1077 H1063 0.931 . S
C1077 C1076 1.385 . S
C1077 C1078 1.389 . S
C1078 C1077 1.389 . S
C1078 C1079 1.387 . S
C1079 H1064 0.930 . S
C1079 C1074 1.390 . S
C1079 C1078 1.387 . S
C445 C76 1.887 . S
C457 C171 1.912 . S
C484 C255 1.960 . S
C472 C88 1.826 . S
C511 C331 1.909 . S
C499 C52 1.958 . S
C538 C415 1.945 . S
C526 C64 1.895 . S
C565 C162 1.948 1_565 S
C553 C28 1.887 . S
C580 C40 1.837 . S
C592 C246 1.983 . S
C607 C4 1.925 . S
C619 C320 1.959 . S
C634 C16 1.975 . S
C646 C404 1.890 . S
C673 C159 0.587 1_455 S
C661 C69 0.557 . S
C700 C243 0.704 1_545 S
C688 C81 0.664 . S
C727 C336 0.510 . S
C715 C93 0.520 . S
C742 C57 0.694 . S
C754 C420 0.696 . S
C769 C21 0.661 . S
C781 C168 0.679 1_554 S
C808 C252 0.661 . S
C796 C33 0.694 . S
C835 C327 0.540 . S
C823 C45 0.602 . S
C850 C9 0.701 . S
C862 C411 0.707 . S
C877 C66 1.971 . S
C889 C152 2.080 . S
C904 C78 1.966 . S
C916 C236 2.080 . S
C943 C330 2.053 . S
C931 C90 1.890 . S
C970 C414 2.099 . S
C958 C54 1.965 . S
C985 C18 1.962 . S
C997 C163 2.078 . S
C1024 C247 2.085 . S
C1012 C30 1.975 . S
C1051 C339 2.070 . S
C1039 C42 1.931 . S
C1066 C6 1.950 . S
C1078 C423 2.112 . S
