# Generated by pormake.
# Topology pyr, (3,6)-cn, num edge types: 1
# Building blocks:
#     Node 0, Type 0, BuildingBlock: BETDIP_clean_linker_0, # of connection points: 3
#     Node 1, Type 0, BuildingBlock: BETDIP_clean_linker_0, # of connection points: 3
#     Node 2, Type 0, BuildingBlock: BETDIP_clean_linker_0, # of connection points: 3
#     Node 3, Type 0, BuildingBlock: BETDIP_clean_linker_0, # of connection points: 3
#     Node 4, Type 0, BuildingBlock: BETDIP_clean_linker_0, # of connection points: 3
#     Node 5, Type 0, BuildingBlock: BETDIP_clean_linker_0, # of connection points: 3
#     Node 6, Type 0, BuildingBlock: BETDIP_clean_linker_0, # of connection points: 3
#     Node 7, Type 0, BuildingBlock: BETDIP_clean_linker_0, # of connection points: 3
#     Node 8, Type 1, BuildingBlock: JUFBIX_clean_sbu_0, # of connection points: 6
#     Node 9, Type 1, BuildingBlock: JUFBIX_clean_sbu_0, # of connection points: 6
#     Node 10, Type 1, BuildingBlock: JUFBIX_clean_sbu_0, # of connection points: 6
#     Node 11, Type 1, BuildingBlock: JUFBIX_clean_sbu_0, # of connection points: 6
#     Edge 12, Type (0, 1), BuildingBlock: OJICUG_clean_linker_0, # of connection points: 2
#     Edge 13, Type (0, 1), BuildingBlock: OJICUG_clean_linker_0, # of connection points: 2
#     Edge 14, Type (0, 1), BuildingBlock: OJICUG_clean_linker_0, # of connection points: 2
#     Edge 15, Type (0, 1), BuildingBlock: OJICUG_clean_linker_0, # of connection points: 2
#     Edge 16, Type (0, 1), BuildingBlock: OJICUG_clean_linker_0, # of connection points: 2
#     Edge 17, Type (0, 1), BuildingBlock: OJICUG_clean_linker_0, # of connection points: 2
#     Edge 18, Type (0, 1), BuildingBlock: OJICUG_clean_linker_0, # of connection points: 2
#     Edge 19, Type (0, 1), BuildingBlock: OJICUG_clean_linker_0, # of connection points: 2
#     Edge 20, Type (0, 1), BuildingBlock: OJICUG_clean_linker_0, # of connection points: 2
#     Edge 21, Type (0, 1), BuildingBlock: OJICUG_clean_linker_0, # of connection points: 2
#     Edge 22, Type (0, 1), BuildingBlock: OJICUG_clean_linker_0, # of connection points: 2
#     Edge 23, Type (0, 1), BuildingBlock: OJICUG_clean_linker_0, # of connection points: 2
#     Edge 24, Type (0, 1), BuildingBlock: OJICUG_clean_linker_0, # of connection points: 2
#     Edge 25, Type (0, 1), BuildingBlock: OJICUG_clean_linker_0, # of connection points: 2
#     Edge 26, Type (0, 1), BuildingBlock: OJICUG_clean_linker_0, # of connection points: 2
#     Edge 27, Type (0, 1), BuildingBlock: OJICUG_clean_linker_0, # of connection points: 2
#     Edge 28, Type (0, 1), BuildingBlock: OJICUG_clean_linker_0, # of connection points: 2
#     Edge 29, Type (0, 1), BuildingBlock: OJICUG_clean_linker_0, # of connection points: 2
#     Edge 30, Type (0, 1), BuildingBlock: OJICUG_clean_linker_0, # of connection points: 2
#     Edge 31, Type (0, 1), BuildingBlock: OJICUG_clean_linker_0, # of connection points: 2
#     Edge 32, Type (0, 1), BuildingBlock: OJICUG_clean_linker_0, # of connection points: 2
#     Edge 33, Type (0, 1), BuildingBlock: OJICUG_clean_linker_0, # of connection points: 2
#     Edge 34, Type (0, 1), BuildingBlock: OJICUG_clean_linker_0, # of connection points: 2
#     Edge 35, Type (0, 1), BuildingBlock: OJICUG_clean_linker_0, # of connection points: 2
# Relax obj value: 0.220
# Max RMSD: 0.207
# Mean RMSD: 0.130
data_MOF--net-pyr--node1-JUFBIX_clean_sbu_0--node2-BETDIP_clean_linker_0--edge1-OJICUG_clean_linker_0
_symmetry_space_group_name_H-M    P1
_symmetry_Int_Tables_number       1
_symmetry_cell_setting            triclinic
loop_
_symmetry_equiv_pos_as_xyz
'x, y, z'
_cell_length_a     26.518724
_cell_length_b     24.517941
_cell_length_c     27.221596
_cell_angle_alpha  85.007943
_cell_angle_beta   83.536566
_cell_angle_gamma 96.7135
loop_
_atom_site_label
_atom_site_type_symbol
_atom_site_fract_x
_atom_site_fract_y
_atom_site_fract_z
_atom_type_partial_charge
H0 H 0.14104 0.1684 0.27841 0.0
H1 H 0.25992 0.1835 0.1562 0.0
H2 H 0.26062 0.06365 0.28212 0.0
H3 H 0.2068 0.2309 0.11547 0.0
C4 C 0.18019 0.24621 0.1426 0.0
C5 C 0.17546 0.15434 0.26121 0.0
C6 C 0.19714 0.11203 0.28611 0.0
C7 C 0.19692 0.1795 0.21448 0.0
C8 C 0.24223 0.16298 0.19177 0.0
C9 C 0.2661 0.1212 0.21564 0.0
C10 C 0.24338 0.09624 0.26344 0.0
N11 N 0.17176 0.2221 0.19273 0.0
H12 H 0.46775 0.98702 0.67554 0.0
H13 H 0.48691 0.86351 0.5756 0.0
H14 H 0.50983 0.82979 0.72898 0.0
H15 H 0.42137 0.90742 0.53811 0.0
C16 C 0.41631 0.9424 0.55925 0.0
C17 C 0.47774 0.9464 0.66902 0.0
C18 C 0.48888 0.91073 0.70845 0.0
C19 C 0.4758 0.92914 0.62175 0.0
C20 C 0.48852 0.87686 0.61237 0.0
C21 C 0.50197 0.84114 0.65058 0.0
C22 C 0.50149 0.85797 0.69891 0.0
N23 N 0.45618 0.96325 0.58577 0.0
H24 H 0.78863 0.4653 0.88864 0.0
H25 H 0.65403 0.34885 0.8922 0.0
H26 H 0.75763 0.32627 1.0009 0.0
H27 H 0.62405 0.43158 0.86717 0.0
C28 C 0.65372 0.4443 0.836 0.0
C29 C 0.76491 0.42792 0.90554 0.0
C30 C 0.77851 0.39847 0.94802 0.0
C31 C 0.7196 0.41081 0.88584 0.0
C32 C 0.6886 0.36244 0.90773 0.0
C33 C 0.70169 0.33131 0.94918 0.0
C34 C 0.74657 0.35013 0.96939 0.0
N35 N 0.70579 0.44199 0.84368 0.0
H36 H 0.97162 0.53084 0.48502 0.0
H37 H 0.08129 0.6745 0.487 0.0
H38 H 0.92086 0.68023 0.53059 0.0
H39 H 0.13479 0.59742 0.40864 0.0
C40 C 0.09404 0.58322 0.41528 0.0
C41 C 0.98049 0.57326 0.49258 0.0
C42 C 0.94085 0.60312 0.50795 0.0
C43 C 1.03111 0.59907 0.48468 0.0
C44 C 0.04217 0.65444 0.49407 0.0
C45 C 1.0025 0.68405 0.51118 0.0
C46 C 0.95205 0.65762 0.51852 0.0
N47 N 0.07064 0.57012 0.46507 0.0
H48 H 0.80769 0.86727 0.98982 0.0
H49 H 0.92491 0.86637 0.86846 0.0
H50 H 0.80939 0.97458 0.85482 0.0
H51 H 0.97073 0.84372 0.93009 0.0
C52 C 0.94358 0.81501 0.9556 0.0
C53 C 0.825 0.88359 0.95269 0.0
C54 C 0.8025 0.92364 0.9252 0.0
C55 C 0.8698 0.86408 0.93326 0.0
C56 C 0.89189 0.88355 0.88462 0.0
C57 C 0.87114 0.92384 0.85576 0.0
C58 C 0.82567 0.94322 0.87621 0.0
N59 N 0.89129 0.8241 0.96308 0.0
H60 H 0.60391 0.06509 0.46044 0.0
H61 H 0.59003 0.18844 0.56144 0.0
H62 H 0.56983 0.22616 0.4078 0.0
H63 H 0.65405 0.14037 0.59772 0.0
C64 C 0.65638 0.10432 0.57743 0.0
C65 C 0.59586 0.10633 0.46725 0.0
C66 C 0.58676 0.14346 0.42797 0.0
C67 C 0.59823 0.12269 0.51477 0.0
C68 C 0.58812 0.17579 0.52446 0.0
C69 C 0.57675 0.21309 0.4863 0.0
C70 C 0.57669 0.19695 0.43779 0.0
N71 N 0.6156 0.08654 0.55074 0.0
H72 H 0.29973 0.58161 0.23965 0.0
H73 H 0.42821 0.70516 0.24135 0.0
H74 H 0.32757 0.72227 0.12921 0.0
H75 H 0.46181 0.62496 0.26696 0.0
C76 C 0.4317 0.61033 0.29733 0.0
C77 C 0.32222 0.62011 0.22372 0.0
C78 C 0.30881 0.64891 0.18074 0.0
C79 C 0.36582 0.63966 0.24524 0.0
C80 C 0.39504 0.68964 0.22455 0.0
C81 C 0.38186 0.71996 0.18267 0.0
C82 C 0.33885 0.69887 0.16087 0.0
N83 N 0.37971 0.60938 0.28796 0.0
H84 H 0.9987 0.36201 0.63436 0.0
H85 H 0.11858 0.49394 0.64155 0.0
H86 H 0.15514 0.34244 0.58694 0.0
H87 H 0.97109 0.40795 0.71777 0.0
C88 C 0.99878 0.44496 0.71133 0.0
C89 C 0.03862 0.37912 0.62591 0.0
C90 C 0.07506 0.34596 0.60835 0.0
C91 C 0.05438 0.43333 0.63622 0.0
C92 C 0.10648 0.45401 0.62949 0.0
C93 C 0.143 0.4205 0.61335 0.0
C94 C 0.12674 0.36807 0.6 0.0
N95 N 1.01951 0.46366 0.66168 0.0
Co96 Co 0.99705 0.01719 0.5533 0.0
C97 C 1.02649 0.91196 0.55294 0.0
Co98 Co 0.06887 0.00834 0.58497 0.0
C99 C 0.89529 0.04371 0.55017 0.0
C100 C 0.92041 1.00453 0.48619 0.0
N101 N 0.93584 0.02278 0.52802 0.0
N102 N 0.85483 0.0389 0.52421 0.0
C103 C 0.87057 0.01432 0.48375 0.0
H104 H 0.89505 0.06057 0.58561 0.0
H105 H 0.94358 0.98453 0.45969 0.0
C106 C 0.03968 0.11381 0.58446 0.0
N107 N 0.13003 1.0031 0.61051 0.0
C108 C 0.17196 0.98487 0.58804 0.0
C109 C 0.14408 0.02057 0.65315 0.0
N110 N 0.21195 0.99084 0.61455 0.0
C111 C 0.19443 0.01312 0.65574 0.0
C112 C 0.08344 0.03876 0.48174 0.0
O113 O 1.00218 0.09285 0.56422 0.0
O114 O 0.07326 0.08379 0.59635 0.0
O115 O 0.10607 0.02859 0.51964 0.0
O116 O 1.03481 0.03661 0.48782 0.0
O117 O 0.0641 0.93277 0.57324 0.0
H118 H 0.11969 0.03884 0.67997 0.0
H119 H 0.17363 0.96952 0.55188 0.0
O120 O 0.99239 0.94178 0.54213 0.0
O121 O 0.95984 0.99747 0.61906 0.0
O122 O 1.03123 0.98843 0.65023 0.0
C123 C 0.98271 0.98688 0.65675 0.0
H124 H 0.84778 1.00402 0.4545 0.0
H125 H 0.21645 0.02379 0.68545 0.0
Co126 Co 0.51803 0.02502 1.0334 0.0
C127 C 0.49797 0.93144 0.10343 0.0
Co128 Co 0.55475 0.03289 0.10227 0.0
C129 C 0.5042 1.00202 0.9319 0.0
C130 C 0.43338 0.00646 0.9765 0.0
N131 N 0.48452 0.01378 0.97734 0.0
N132 N 0.46746 0.98731 0.9032 0.0
C133 C 0.42287 0.99057 0.93118 0.0
H134 H 0.54466 1.00277 0.92037 0.0
H135 H 0.40508 0.0094 1.00767 0.0
C136 C 0.57558 0.12634 1.03205 0.0
N137 N 0.58846 0.044 0.15816 0.0
C138 C 0.56909 0.05564 0.20373 0.0
C139 C 0.63963 0.05061 0.15888 0.0
N140 N 0.60608 0.06944 0.23241 0.0
C141 C 0.65048 0.06586 0.20429 0.0
C142 C 0.61626 0.99312 1.02467 0.0
O143 O 0.54676 0.09822 1.00641 0.0
O144 O 0.58247 0.10573 0.07493 0.0
O145 O 0.61409 1.00505 0.06944 0.0
O146 O 0.57741 0.99771 1.00201 0.0
O147 O 0.52645 0.95979 0.12915 0.0
H148 H 0.66778 0.04749 0.12766 0.0
H149 H 0.52871 0.05533 0.21541 0.0
O150 O 0.49045 0.95215 0.06078 0.0
O151 O 0.45845 0.05286 0.0663 0.0
O152 O 0.49515 0.05987 0.13382 0.0
C153 C 0.45613 0.06422 0.11128 0.0
H154 H 0.38512 0.97944 0.92072 0.0
H155 H 0.68833 0.07622 0.21478 0.0
Co156 Co 0.5805 0.54304 0.54897 0.0
C157 C 0.50288 0.55146 0.48721 0.0
Co158 Co 0.50296 0.51306 0.58621 0.0
C159 C 0.6888 0.5497 0.52509 0.0
C160 C 0.65785 0.60815 0.4777 0.0
N161 N 0.64458 0.56826 0.51588 0.0
N162 N 0.72908 0.57638 0.4944 0.0
C163 C 0.70995 0.61314 0.46431 0.0
H164 H 0.69165 0.51738 0.554 0.0
H165 H 0.63157 0.63268 0.46125 0.0
C166 C 0.58103 0.50498 0.64768 0.0
N167 N 0.43908 0.48613 0.62011 0.0
C168 C 0.39226 0.49402 0.608 0.0
C169 C 0.42983 0.45044 0.66171 0.0
N170 N 0.35447 0.46426 0.6401 0.0
C171 C 0.37814 0.43731 0.6742 0.0
C172 C 0.55121 0.4319 0.54146 0.0
O173 O 0.61035 0.5255 0.6088 0.0
O174 O 0.53331 0.49661 0.64529 0.0
O175 O 0.51055 0.44108 0.56715 0.0
O176 O 0.58741 0.47119 0.52942 0.0
O177 O 0.47334 0.53041 0.52598 0.0
H178 H 0.45858 0.43306 0.68104 0.0
H179 H 0.38594 0.51887 0.57497 0.0
O180 O 0.55066 0.56031 0.48979 0.0
O181 O 0.573 0.61514 0.56851 0.0
O182 O 0.49568 0.58468 0.60551 0.0
C183 C 0.53202 0.62401 0.59405 0.0
H184 H 0.7323 0.64298 0.43617 0.0
H185 H 0.35955 0.40869 0.70522 0.0
Co186 Co 0.06818 0.52673 1.02296 0.0
C187 C 0.96234 0.48021 1.03283 0.0
Co188 Co 1.02419 0.52238 0.09737 0.0
C189 C 0.08053 0.49461 0.92463 0.0
C190 C 0.12916 0.56933 0.92933 0.0
N191 N 0.09735 0.52866 0.95734 0.0
N192 N 0.09836 0.51331 0.87699 0.0
C193 C 0.12988 0.56005 0.87998 0.0
H194 H 0.05195 0.45921 0.93547 0.0
H195 H 0.14727 0.60564 0.9434 0.0
C196 C 0.12969 0.56839 0.08829 0.0
N197 N 0.99499 0.52011 0.163 0.0
C198 C 1.01083 0.55401 0.19629 0.0
C199 C 0.96595 0.47709 0.19056 0.0
N200 N 0.99543 0.53271 0.24386 0.0
C201 C 0.96614 0.48463 0.24009 0.0
C202 C 0.07546 0.43049 0.08062 0.0
O203 O 0.13168 0.55939 1.04275 0.0
O204 O 0.08712 0.55669 0.11573 0.0
O205 O 0.04669 0.45184 0.11226 0.0
O206 O 0.08811 0.45578 1.03743 0.0
O207 O 0.96156 0.4875 0.07858 0.0
H208 H 0.95012 0.44006 0.17594 0.0
H209 H 0.03681 0.59151 0.18554 0.0
O210 O 1.00402 0.49435 1.0043 0.0
O211 O 0.04859 0.59766 1.0088 0.0
O212 O 1.00222 0.59329 0.08145 0.0
C213 C 1.01839 0.61913 1.03888 0.0
H214 H 0.14964 0.58767 0.84882 0.0
H215 H 0.94989 0.45418 0.27059 0.0
C216 C 0.11579 0.07413 0.34172 0.0
C217 C 0.16965 0.08582 0.3354 0.0
H218 H 0.04681 0.051 0.39188 0.0
C219 C 0.19526 0.07815 0.37753 0.0
H220 H 0.09463 0.07861 0.31011 0.0
C221 C 0.1675 0.0619 0.42488 0.0
C222 C 0.11344 0.053 0.43129 0.0
H223 H 0.23655 0.087 0.37427 0.0
H224 H 0.1884 0.05775 0.45669 0.0
C225 C 0.08818 0.05831 0.38879 0.0
C226 C 0.52084 0.92169 0.79153 0.0
C227 C 0.48341 0.92825 0.75959 0.0
H228 H 0.54542 0.93574 0.86235 0.0
C229 C 0.44075 0.95397 0.77598 0.0
H230 H 0.55417 0.90217 0.77987 0.0
C231 C 0.43595 0.97354 0.82266 0.0
C232 C 0.47357 0.96787 0.85451 0.0
H233 H 0.41084 0.95904 0.75257 0.0
H234 H 0.40289 0.99375 0.83355 0.0
C235 C 0.51611 0.94157 0.83847 0.0
C236 C 0.5847 0.45939 0.78382 0.0
C237 C 0.63731 0.46176 0.78722 0.0
H238 H 0.52597 0.47096 0.73782 0.0
C239 C 0.67207 0.4793 0.74426 0.0
H240 H 0.55699 0.446 0.81626 0.0
C241 C 0.65417 0.49391 0.69874 0.0
C242 C 0.60125 0.49089 0.69544 0.0
H243 H 0.71289 0.48147 0.74571 0.0
H244 H 0.68169 0.50705 0.66614 0.0
C245 C 0.56691 0.47362 0.73868 0.0
C246 C 1.02191 0.53425 0.37678 0.0
C247 C 0.0655 0.57359 0.37236 0.0
H248 H 0.96412 0.49213 0.34049 0.0
C249 C 0.08388 0.60181 0.32569 0.0
H250 H 1.00808 0.51002 0.41172 0.0
C251 C 0.05962 0.59045 0.28402 0.0
C252 C 1.01643 0.54998 0.28788 0.0
H253 H 0.11767 0.63213 0.32123 0.0
H254 H 0.07621 0.61245 0.24878 0.0
C255 C 0.99727 0.52312 0.3353 0.0
C256 C 0.35665 0.09593 0.21516 0.0
C257 C 0.3144 0.10444 0.1897 0.0
H258 H 0.43429 0.07779 0.21068 0.0
C259 C 0.31948 0.09941 0.13816 0.0
H260 H 0.35457 0.09985 0.25463 0.0
C261 C 0.36522 0.08684 0.11286 0.0
C262 C 0.40774 0.07918 0.13809 0.0
H263 H 0.28777 0.10496 0.11719 0.0
H264 H 0.3672 0.08317 0.07334 0.0
C265 C 0.40267 0.08378 0.18971 0.0
C266 C 0.32251 0.92817 0.55326 0.0
C267 C 0.36408 0.95692 0.57166 0.0
H268 H 0.2413 0.91566 0.55317 0.0
C269 C 0.35499 0.99746 0.60388 0.0
H270 H 0.32851 0.8965 0.52862 0.0
C271 C 0.30519 0.00844 0.61797 0.0
C272 C 0.26335 0.97929 0.60008 0.0
H273 H 0.38624 0.02052 0.61864 0.0
H274 H 0.29961 0.04021 0.64252 0.0
C275 C 0.27263 0.93923 0.5673 0.0
C276 C 0.82544 0.41803 1.02198 0.0
C277 C 0.82586 0.41821 0.97012 0.0
H278 H 0.86761 0.4376 0.08251 0.0
C279 C 0.87185 0.4379 0.9395 0.0
H280 H 0.79063 0.40361 0.04673 0.0
C281 C 0.91599 0.45707 0.96001 0.0
C282 C 0.91544 0.45766 1.01181 0.0
H283 H 0.87391 0.43808 0.89952 0.0
H284 H 0.95052 0.47199 0.93502 0.0
C285 C 0.86955 0.43775 1.04254 0.0
C286 C 0.852 0.57369 0.54849 0.0
C287 C 0.88724 0.58204 0.50533 0.0
H288 H 0.77299 0.56444 0.57855 0.0
C289 C 0.86971 0.5821 0.45859 0.0
H290 H 0.86504 0.5746 0.58476 0.0
C291 C 0.81737 0.57787 0.45495 0.0
C292 C 0.78205 0.57248 0.49803 0.0
H293 H 0.89656 0.58949 0.4249 0.0
H294 H 0.80445 0.58092 0.41858 0.0
C295 C 0.79962 0.56817 0.54486 0.0
C296 C 0.15906 0.31475 0.07681 0.0
C297 C 0.15089 0.29123 0.12638 0.0
H298 H 0.14128 0.37663 1.02321 0.0
C299 C 0.11521 0.31155 0.16008 0.0
H300 H 0.18617 0.29977 0.05001 0.0
C301 C 0.08926 0.35538 0.14478 0.0
C302 C 0.09841 0.37999 0.09543 0.0
H303 H 0.10777 0.29426 0.19856 0.0
H304 H 0.06296 0.37084 0.172 0.0
C305 C 0.13315 0.35863 0.06147 0.0
C306 C 0.66042 0.26396 1.02234 0.0
C307 C 0.66833 0.27918 0.97075 0.0
H308 H 0.62471 0.20438 0.08208 0.0
C309 C 0.64353 0.24434 0.93978 0.0
H310 H 0.678 0.28993 0.04755 0.0
C311 C 0.61187 0.19591 0.95975 0.0
C312 C 0.60474 0.18042 1.01118 0.0
H313 H 0.64933 0.25376 0.8998 0.0
H314 H 0.59425 0.16973 0.93469 0.0
C315 C 0.62931 0.21511 1.04224 0.0
C316 C 0.97953 0.7799 0.50149 0.0
C317 C 1.01214 0.74331 0.51886 0.0
H318 H 0.95825 0.86123 0.49894 0.0
C319 C 0.05141 0.76321 0.54575 0.0
H320 H 0.94961 0.76609 0.47971 0.0
C321 C 0.05663 0.81827 0.55663 0.0
C322 C 1.02261 0.85416 0.54077 0.0
H323 H 0.07699 0.73585 0.55964 0.0
H324 H 0.08665 0.83241 0.57815 0.0
C325 C 0.98453 0.8345 0.51249 0.0
C326 C 0.55047 0.77901 0.60025 0.0
C327 C 0.51317 0.78523 0.63964 0.0
H328 H 0.58618 0.72317 0.55536 0.0
C329 C 0.48347 0.73797 0.66519 0.0
H330 H 0.57372 0.81492 0.57987 0.0
C331 C 0.48975 0.68557 0.65048 0.0
C332 C 0.52654 0.67935 0.61053 0.0
H333 H 0.4541 0.74175 0.6953 0.0
H334 H 0.46556 0.64993 0.67022 0.0
C335 C 0.5575 0.72657 0.5862 0.0
C336 C 0.95264 0.95339 0.79725 0.0
C337 C 0.89865 0.94495 0.80493 0.0
H338 H 1.02092 0.97243 0.74558 0.0
C339 C 0.87237 0.9531 0.76325 0.0
H340 H 0.9745 0.94878 0.82832 0.0
C341 C 0.8994 0.96719 0.71525 0.0
C342 C 0.95342 0.97352 0.70766 0.0
H343 H 0.83095 0.94684 0.76745 0.0
H344 H 0.87789 0.97219 0.68397 0.0
C345 C 0.97949 0.96713 0.74956 0.0
C346 C 0.63331 0.09928 0.36023 0.0
C347 C 0.59171 0.12652 0.37669 0.0
H348 H 0.66984 0.05899 0.30225 0.0
C349 C 0.55474 0.13516 0.34467 0.0
H350 H 0.66279 0.09255 0.38378 0.0
C351 C 0.5589 0.11586 0.2975 0.0
C352 C 0.60044 0.08815 0.28135 0.0
H353 H 0.52221 0.15587 0.35644 0.0
H354 H 0.53001 0.12325 0.27351 0.0
C355 C 0.63758 0.08036 0.3133 0.0
C356 C 0.50012 0.59878 0.35113 0.0
C357 C 0.4476 0.59352 0.34661 0.0
H358 H 0.55842 0.59003 0.39823 0.0
C359 C 0.41256 0.57376 0.3889 0.0
H360 H 0.52808 0.61398 0.31928 0.0
C361 C 0.4301 0.55971 0.43479 0.0
C362 C 0.48292 0.56544 0.43917 0.0
H363 H 0.37181 0.56935 0.38663 0.0
H364 H 0.40235 0.5447 0.46681 0.0
C365 C 0.51753 0.58509 0.3966 0.0
C366 C 1.02214 0.42668 0.79681 0.0
C367 C 1.02663 0.46189 0.75278 0.0
H368 H 0.0436 0.41355 0.8695 0.0
C369 C 0.05822 0.5126 0.74855 0.0
H370 H 0.9987 0.3869 0.80061 0.0
C371 C 0.08336 0.52872 0.78849 0.0
C372 C 0.07788 0.49418 0.83345 0.0
H373 H 0.06251 0.54048 0.71479 0.0
H374 H 0.10566 0.56902 0.78437 0.0
C375 C 0.04794 0.44223 0.83639 0.0
C376 C 0.71308 0.9514 0.92355 0.0
C377 C 0.75554 0.94468 0.94918 0.0
H378 H 0.63589 0.97091 0.92709 0.0
C379 C 0.75179 0.95515 0.99954 0.0
H380 H 0.71425 0.9434 0.88496 0.0
C381 C 0.70688 0.97062 1.0238 0.0
C382 C 0.664 0.97616 0.99862 0.0
H383 H 0.78381 0.95131 1.02048 0.0
H384 H 0.7058 0.97805 0.06253 0.0
C385 C 0.66789 0.96671 0.94797 0.0
C386 C 0.75006 0.11147 0.58352 0.0
C387 C 0.70688 0.08524 0.56574 0.0
H388 H 0.83118 0.11816 0.58348 0.0
C389 C 0.7129 0.04297 0.53465 0.0
H390 H 0.74646 0.14441 0.60725 0.0
C391 C 0.76132 0.02785 0.52103 0.0
C392 C 0.80481 0.05452 0.53826 0.0
H393 H 0.68031 0.02179 0.52038 0.0
H394 H 0.76456 0.99491 0.49732 0.0
C395 C 0.79853 0.09632 0.56992 0.0
C396 C 0.21671 0.60646 0.18562 0.0
C397 C 0.26327 0.62761 0.15668 0.0
H398 H 0.13867 0.5719 0.18692 0.0
C399 C 0.26561 0.62927 0.1045 0.0
H400 H 0.21319 0.60502 0.22576 0.0
C401 C 0.2226 0.61015 0.08196 0.0
C402 C 0.17596 0.58948 0.11101 0.0
H403 H 0.30097 0.64487 0.08101 0.0
H404 H 0.22586 0.61176 1.04183 0.0
C405 C 0.17373 0.58792 0.16315 0.0
C406 C 0.22536 0.4855 0.60265 0.0
C407 C 0.19726 0.4341 0.62035 0.0
H408 H 0.29835 0.53565 0.59522 0.0
C409 C 0.22097 0.39431 0.64631 0.0
H410 H 0.20762 0.51697 0.58296 0.0
C411 C 0.27206 0.40471 0.65317 0.0
C412 C 0.30092 0.45542 0.63466 0.0
H413 H 0.1999 0.35473 0.66139 0.0
H414 H 0.28914 0.37221 0.67205 0.0
C415 C 0.27708 0.49599 0.60949 0.0
C416 C 0.93301 0.73161 1.01949 0.0
C417 C 0.96265 0.76648 0.98035 0.0
H418 H 0.92799 0.65791 0.06983 0.0
C419 C 1.0117 0.75448 0.96345 0.0
H420 H 0.89513 0.74002 1.03347 0.0
C421 C 1.03016 0.70756 0.98373 0.0
C422 C 1.00039 0.6719 1.02215 0.0
H423 H 1.03542 0.78073 0.93347 0.0
H424 H 0.06762 0.69875 0.96874 0.0
C425 C 0.95196 0.68491 1.04055 0.0
C426 C 0.4212 0.78963 0.11067 0.0
C427 C 0.41293 0.77374 0.16217 0.0
H428 H 0.45454 0.85146 0.05187 0.0
C429 C 0.4347 0.80978 0.19398 0.0
H430 H 0.40604 0.76279 0.08483 0.0
C431 C 0.46372 0.86011 0.17488 0.0
C432 C 0.47101 0.87621 0.12355 0.0
H433 H 0.42849 0.79981 0.2339 0.0
H434 H 0.47917 0.88712 0.20049 0.0
C435 C 0.44952 0.84034 0.09167 0.0
C436 C 1.02192 0.26564 0.57948 0.0
C437 C 0.06165 0.28608 0.6055 0.0
H438 H 0.98374 0.19451 0.55205 0.0
C439 C 0.09118 0.24894 0.62743 0.0
H440 H 0.99852 0.29346 0.56246 0.0
C441 C 0.08321 0.19303 0.62127 0.0
C442 C 0.04511 0.17264 0.59341 0.0
H443 H 0.12127 0.26337 0.64881 0.0
H444 H 0.10749 0.16591 0.63786 0.0
C445 C 1.0137 0.2092 0.57343 0.0
C446 C 0.59828 0.31611 0.47182 0.0
C447 C 0.56759 0.26952 0.49751 0.0
H448 H 0.61781 0.40403 0.46616 0.0
C449 C 0.53057 0.27681 0.53673 0.0
H450 H 0.62744 0.31148 0.44178 0.0
C451 C 0.52458 0.32962 0.55034 0.0
C452 C 0.55628 0.37619 0.52569 0.0
H453 H 0.50651 0.24147 0.55716 0.0
H454 H 0.49592 0.33382 0.58096 0.0
C455 C 0.59302 0.36891 0.48609 0.0
loop_
_geom_bond_atom_site_label_1
_geom_bond_atom_site_label_2
_geom_bond_distance
_geom_bond_site_symmetry_2
_ccdc_geom_bond_type
H0 C5 0.930 . S
H1 C8 0.930 . S
H2 C10 0.930 . S
H3 C4 1.016 . S
C4 H3 1.016 . S
C4 N11 1.286 . S
C5 H0 0.930 . S
C5 C6 1.397 . S
C5 C7 1.361 . S
C6 C5 1.397 . S
C6 C10 1.390 . S
C7 C5 1.361 . S
C7 C8 1.393 . S
C7 N11 1.413 . S
C8 H1 0.930 . S
C8 C7 1.393 . S
C8 C9 1.399 . S
C9 C8 1.399 . S
C9 C10 1.381 . S
C10 H2 0.930 . S
C10 C6 1.390 . S
C10 C9 1.381 . S
N11 C4 1.286 . S
N11 C7 1.413 . S
H12 C17 0.930 . S
H13 C20 0.930 . S
H14 C22 0.930 . S
H15 C16 1.016 . S
C16 H15 1.016 . S
C16 N23 1.286 . S
C17 H12 0.930 . S
C17 C18 1.397 . S
C17 C19 1.361 . S
C18 C17 1.397 . S
C18 C22 1.390 . S
C19 C17 1.361 . S
C19 C20 1.393 . S
C19 N23 1.413 . S
C20 H13 0.930 . S
C20 C19 1.393 . S
C20 C21 1.399 . S
C21 C20 1.399 . S
C21 C22 1.381 . S
C22 H14 0.930 . S
C22 C18 1.390 . S
C22 C21 1.381 . S
N23 C16 1.286 . S
N23 C19 1.413 . S
H24 C29 0.930 . S
H25 C32 0.930 . S
H26 C34 0.930 . S
H27 C28 1.016 . S
C28 H27 1.016 . S
C28 N35 1.286 . S
C29 H24 0.930 . S
C29 C30 1.397 . S
C29 C31 1.361 . S
C30 C29 1.397 . S
C30 C34 1.390 . S
C31 C29 1.361 . S
C31 C32 1.393 . S
C31 N35 1.413 . S
C32 H25 0.930 . S
C32 C31 1.393 . S
C32 C33 1.399 . S
C33 C32 1.399 . S
C33 C34 1.381 . S
C34 H26 0.930 . S
C34 C30 1.390 . S
C34 C33 1.381 . S
N35 C28 1.286 . S
N35 C31 1.413 . S
H36 C41 0.930 . S
H37 C44 0.930 . S
H38 C46 0.930 . S
H39 C40 1.016 . S
C40 H39 1.016 . S
C40 N47 1.286 . S
C41 H36 0.930 . S
C41 C42 1.397 . S
C41 C43 1.361 . S
C42 C41 1.397 . S
C42 C46 1.390 . S
C43 C41 1.361 . S
C43 C44 1.393 . S
C43 N47 1.413 . S
C44 H37 0.930 . S
C44 C43 1.393 . S
C44 C45 1.399 . S
C45 C44 1.399 . S
C45 C46 1.381 . S
C46 H38 0.930 . S
C46 C42 1.390 . S
C46 C45 1.381 . S
N47 C40 1.286 . S
N47 C43 1.413 . S
H48 C53 0.930 . S
H49 C56 0.930 . S
H50 C58 0.930 . S
H51 C52 1.016 . S
C52 H51 1.016 . S
C52 N59 1.286 . S
C53 H48 0.930 . S
C53 C54 1.397 . S
C53 C55 1.361 . S
C54 C53 1.397 . S
C54 C58 1.390 . S
C55 C53 1.361 . S
C55 C56 1.393 . S
C55 N59 1.413 . S
C56 H49 0.930 . S
C56 C55 1.393 . S
C56 C57 1.399 . S
C57 C56 1.399 . S
C57 C58 1.381 . S
C58 H50 0.930 . S
C58 C54 1.390 . S
C58 C57 1.381 . S
N59 C52 1.286 . S
N59 C55 1.413 . S
H60 C65 0.930 . S
H61 C68 0.930 . S
H62 C70 0.930 . S
H63 C64 1.016 . S
C64 H63 1.016 . S
C64 N71 1.286 . S
C65 H60 0.930 . S
C65 C66 1.397 . S
C65 C67 1.361 . S
C66 C65 1.397 . S
C66 C70 1.390 . S
C67 C65 1.361 . S
C67 C68 1.393 . S
C67 N71 1.413 . S
C68 H61 0.930 . S
C68 C67 1.393 . S
C68 C69 1.399 . S
C69 C68 1.399 . S
C69 C70 1.381 . S
C70 H62 0.930 . S
C70 C66 1.390 . S
C70 C69 1.381 . S
N71 C64 1.286 . S
N71 C67 1.413 . S
H72 C77 0.930 . S
H73 C80 0.930 . S
H74 C82 0.930 . S
H75 C76 1.016 . S
C76 H75 1.016 . S
C76 N83 1.286 . S
C77 H72 0.930 . S
C77 C78 1.397 . S
C77 C79 1.361 . S
C78 C77 1.397 . S
C78 C82 1.390 . S
C79 C77 1.361 . S
C79 C80 1.393 . S
C79 N83 1.413 . S
C80 H73 0.930 . S
C80 C79 1.393 . S
C80 C81 1.399 . S
C81 C80 1.399 . S
C81 C82 1.381 . S
C82 H74 0.930 . S
C82 C78 1.390 . S
C82 C81 1.381 . S
N83 C76 1.286 . S
N83 C79 1.413 . S
H84 C89 0.930 . S
H85 C92 0.930 . S
H86 C94 0.930 . S
H87 C88 1.016 . S
C88 H87 1.016 . S
C88 N95 1.286 . S
C89 H84 0.930 . S
C89 C90 1.397 . S
C89 C91 1.361 . S
C90 C89 1.397 . S
C90 C94 1.390 . S
C91 C89 1.361 . S
C91 C92 1.393 . S
C91 N95 1.413 . S
C92 H85 0.930 . S
C92 C91 1.393 . S
C92 C93 1.399 . S
C93 C92 1.399 . S
C93 C94 1.381 . S
C94 H86 0.930 . S
C94 C90 1.390 . S
C94 C93 1.381 . S
N95 C88 1.286 . S
N95 C91 1.413 . S
Co96 N101 2.057 . S
Co96 O113 2.021 . S
Co96 O116 2.062 . S
Co96 O120 2.117 1_545 S
Co96 O121 2.020 1_545 S
C97 O117 1.259 1_655 S
C97 O120 1.258 . S
Co98 N107 2.057 . S
Co98 O114 2.117 1_565 S
Co98 O115 2.020 1_565 S
Co98 O117 2.021 . S
Co98 O122 2.062 . S
C99 N101 1.316 . S
C99 N102 1.347 . S
C99 H104 0.931 . S
C100 N101 1.375 1_565 S
C100 C103 1.350 1_565 S
C100 H105 0.930 . S
N101 Co96 2.057 . S
N101 C99 1.316 . S
N101 C100 1.375 1_545 S
N102 C99 1.347 . S
N102 C103 1.373 . S
C103 C100 1.350 1_545 S
C103 N102 1.373 . S
C103 H124 0.931 1_545 S
H104 C99 0.931 . S
H105 C100 0.930 . S
C106 O113 1.259 1_455 S
C106 O114 1.258 . S
N107 Co98 2.057 . S
N107 C108 1.316 . S
N107 C109 1.375 1_565 S
C108 N107 1.316 . S
C108 N110 1.347 . S
C108 H119 0.931 . S
C109 N107 1.375 1_545 S
C109 C111 1.350 . S
C109 H118 0.930 . S
N110 C108 1.347 . S
N110 C111 1.373 1_565 S
C111 C109 1.350 . S
C111 N110 1.373 1_545 S
C111 H125 0.931 . S
C112 O115 1.256 . S
C112 O116 1.255 1_455 S
O113 Co96 2.021 . S
O113 C106 1.259 1_655 S
O114 Co98 2.117 1_545 S
O114 C106 1.258 . S
O115 Co98 2.020 1_545 S
O115 C112 1.256 . S
O116 Co96 2.062 . S
O116 C112 1.255 1_655 S
O117 C97 1.259 1_455 S
O117 Co98 2.021 . S
H118 C109 0.930 . S
H119 C108 0.931 . S
O120 Co96 2.117 1_565 S
O120 C97 1.258 . S
O121 Co96 2.020 1_565 S
O121 C123 1.256 . S
O122 Co98 2.062 . S
O122 C123 1.255 1_455 S
C123 O121 1.256 . S
C123 O122 1.255 1_655 S
H124 C103 0.931 1_565 S
H125 C111 0.931 . S
Co126 N131 2.057 1_545 S
Co126 O143 2.021 . S
Co126 O146 2.062 1_545 S
Co126 O150 2.117 1_546 S
Co126 O151 2.020 1_556 S
C127 O147 1.259 . S
C127 O150 1.258 . S
Co128 N137 2.057 . S
Co128 O144 2.117 . S
Co128 O145 2.020 . S
Co128 O147 2.021 1_545 S
Co128 O152 2.062 . S
C129 N131 1.316 . S
C129 N132 1.347 . S
C129 H134 0.931 1_565 S
C130 N131 1.375 . S
C130 C133 1.350 . S
C130 H135 0.930 . S
N131 Co126 2.057 1_565 S
N131 C129 1.316 . S
N131 C130 1.375 . S
N132 C129 1.347 . S
N132 C133 1.373 . S
C133 C130 1.350 . S
C133 N132 1.373 . S
C133 H154 0.931 . S
H134 C129 0.931 1_545 S
H135 C130 0.930 . S
C136 O143 1.259 . S
C136 O144 1.258 1_556 S
N137 Co128 2.057 . S
N137 C138 1.316 . S
N137 C139 1.375 . S
C138 N137 1.316 . S
C138 N140 1.347 . S
C138 H149 0.931 . S
C139 N137 1.375 . S
C139 C141 1.350 . S
C139 H148 0.930 . S
N140 C138 1.347 . S
N140 C141 1.373 . S
C141 C139 1.350 . S
C141 N140 1.373 . S
C141 H155 0.931 . S
C142 O145 1.256 1_566 S
C142 O146 1.255 . S
O143 Co126 2.021 . S
O143 C136 1.259 . S
O144 Co128 2.117 . S
O144 C136 1.258 1_554 S
O145 Co128 2.020 . S
O145 C142 1.256 1_544 S
O146 Co126 2.062 1_565 S
O146 C142 1.255 . S
O147 C127 1.259 . S
O147 Co128 2.021 1_565 S
H148 C139 0.930 . S
H149 C138 0.931 . S
O150 Co126 2.117 1_564 S
O150 C127 1.258 . S
O151 Co126 2.020 1_554 S
O151 C153 1.256 . S
O152 Co128 2.062 . S
O152 C153 1.255 . S
C153 O151 1.256 . S
C153 O152 1.255 . S
H154 C133 0.931 . S
H155 C141 0.931 . S
Co156 N161 2.057 . S
Co156 O173 2.021 . S
Co156 O176 2.062 . S
Co156 O180 2.117 . S
Co156 O181 2.020 . S
C157 O177 1.259 . S
C157 O180 1.258 . S
Co158 N167 2.057 . S
Co158 O174 2.117 . S
Co158 O175 2.020 . S
Co158 O177 2.021 . S
Co158 O182 2.062 . S
C159 N161 1.316 . S
C159 N162 1.347 . S
C159 H164 0.931 . S
C160 N161 1.375 . S
C160 C163 1.350 . S
C160 H165 0.930 . S
N161 Co156 2.057 . S
N161 C159 1.316 . S
N161 C160 1.375 . S
N162 C159 1.347 . S
N162 C163 1.373 . S
C163 C160 1.350 . S
C163 N162 1.373 . S
C163 H184 0.931 . S
H164 C159 0.931 . S
H165 C160 0.930 . S
C166 O173 1.259 . S
C166 O174 1.258 . S
N167 Co158 2.057 . S
N167 C168 1.316 . S
N167 C169 1.375 . S
C168 N167 1.316 . S
C168 N170 1.347 . S
C168 H179 0.931 . S
C169 N167 1.375 . S
C169 C171 1.350 . S
C169 H178 0.930 . S
N170 C168 1.347 . S
N170 C171 1.373 . S
C171 C169 1.350 . S
C171 N170 1.373 . S
C171 H185 0.931 . S
C172 O175 1.256 . S
C172 O176 1.255 . S
O173 Co156 2.021 . S
O173 C166 1.259 . S
O174 Co158 2.117 . S
O174 C166 1.258 . S
O175 Co158 2.020 . S
O175 C172 1.256 . S
O176 Co156 2.062 . S
O176 C172 1.255 . S
O177 C157 1.259 . S
O177 Co158 2.021 . S
H178 C169 0.930 . S
H179 C168 0.931 . S
O180 Co156 2.117 . S
O180 C157 1.258 . S
O181 Co156 2.020 . S
O181 C183 1.256 . S
O182 Co158 2.062 . S
O182 C183 1.255 . S
C183 O181 1.256 . S
C183 O182 1.255 . S
H184 C163 0.931 . S
H185 C171 0.931 . S
Co186 N191 2.057 . S
Co186 O203 2.021 . S
Co186 O206 2.062 . S
Co186 O210 2.117 1_455 S
Co186 O211 2.020 . S
C187 O207 1.259 . S
C187 O210 1.258 1_554 S
Co188 N197 2.057 . S
Co188 O204 2.117 1_655 S
Co188 O205 2.020 1_655 S
Co188 O207 2.021 . S
Co188 O212 2.062 . S
C189 N191 1.316 . S
C189 N192 1.347 . S
C189 H194 0.931 . S
C190 N191 1.375 . S
C190 C193 1.350 . S
C190 H195 0.930 1_455 S
N191 Co186 2.057 . S
N191 C189 1.316 . S
N191 C190 1.375 . S
N192 C189 1.347 . S
N192 C193 1.373 . S
C193 C190 1.350 . S
C193 N192 1.373 . S
C193 H214 0.931 . S
H194 C189 0.931 . S
H195 C190 0.930 1_655 S
C196 O203 1.259 1_554 S
C196 O204 1.258 . S
N197 Co188 2.057 . S
N197 C198 1.316 . S
N197 C199 1.375 1_655 S
C198 N197 1.316 . S
C198 N200 1.347 . S
C198 H209 0.931 . S
C199 N197 1.375 1_455 S
C199 C201 1.350 . S
C199 H208 0.930 . S
N200 C198 1.347 . S
N200 C201 1.373 1_655 S
C201 C199 1.350 . S
C201 N200 1.373 1_455 S
C201 H215 0.931 . S
C202 O205 1.256 . S
C202 O206 1.255 1_554 S
O203 Co186 2.021 . S
O203 C196 1.259 1_556 S
O204 Co188 2.117 1_455 S
O204 C196 1.258 . S
O205 Co188 2.020 1_455 S
O205 C202 1.256 . S
O206 Co186 2.062 . S
O206 C202 1.255 1_556 S
O207 C187 1.259 . S
O207 Co188 2.021 . S
H208 C199 0.930 . S
H209 C198 0.931 . S
O210 Co186 2.117 1_655 S
O210 C187 1.258 1_556 S
O211 Co186 2.020 . S
O211 C213 1.256 1_455 S
O212 Co188 2.062 . S
O212 C213 1.255 1_554 S
C213 O211 1.256 1_655 S
C213 O212 1.255 1_556 S
H214 C193 0.931 . S
H215 C201 0.931 . S
C216 C217 1.387 . S
C216 H220 0.950 . S
C216 C225 1.390 . S
C217 C216 1.387 . S
C217 C219 1.387 . S
H218 C225 0.950 . S
C219 C217 1.387 . S
C219 C221 1.390 . S
C219 H223 0.950 1_545 S
H220 C216 0.950 . S
C221 C219 1.390 . S
C221 C222 1.387 . S
C221 H224 0.950 1_545 S
C222 C221 1.387 . S
C222 C225 1.387 . S
H223 C219 0.950 1_565 S
H224 C221 0.950 1_565 S
C225 C216 1.390 . S
C225 H218 0.950 . S
C225 C222 1.387 . S
C226 C227 1.387 . S
C226 H230 0.950 . S
C226 C235 1.390 . S
C227 C226 1.387 . S
C227 C229 1.387 . S
H228 C235 0.950 . S
C229 C227 1.387 . S
C229 C231 1.390 . S
C229 H233 0.950 . S
H230 C226 0.950 . S
C231 C229 1.390 . S
C231 C232 1.387 . S
C231 H234 0.950 . S
C232 C231 1.387 . S
C232 C235 1.387 . S
H233 C229 0.950 . S
H234 C231 0.950 . S
C235 C226 1.390 . S
C235 H228 0.950 . S
C235 C232 1.387 . S
C236 C237 1.387 . S
C236 H240 0.950 . S
C236 C245 1.390 . S
C237 C236 1.387 . S
C237 C239 1.387 . S
H238 C245 0.950 . S
C239 C237 1.387 . S
C239 C241 1.390 . S
C239 H243 0.950 . S
H240 C236 0.950 . S
C241 C239 1.390 . S
C241 C242 1.387 . S
C241 H244 0.950 . S
C242 C241 1.387 . S
C242 C245 1.387 . S
H243 C239 0.950 . S
H244 C241 0.950 . S
C245 C236 1.390 . S
C245 H238 0.950 . S
C245 C242 1.387 . S
C246 C247 1.387 . S
C246 H250 0.950 . S
C246 C255 1.390 . S
C247 C246 1.387 . S
C247 C249 1.387 . S
H248 C255 0.950 . S
C249 C247 1.387 . S
C249 C251 1.390 . S
C249 H253 0.950 1_655 S
H250 C246 0.950 . S
C251 C249 1.390 . S
C251 C252 1.387 . S
C251 H254 0.950 . S
C252 C251 1.387 . S
C252 C255 1.387 . S
H253 C249 0.950 1_455 S
H254 C251 0.950 . S
C255 C246 1.390 . S
C255 H248 0.950 . S
C255 C252 1.387 . S
C256 C257 1.387 . S
C256 H260 0.950 . S
C256 C265 1.390 . S
C257 C256 1.387 . S
C257 C259 1.387 . S
H258 C265 0.950 . S
C259 C257 1.387 . S
C259 C261 1.390 . S
C259 H263 0.950 . S
H260 C256 0.950 . S
C261 C259 1.390 . S
C261 C262 1.387 . S
C261 H264 0.950 . S
C262 C261 1.387 . S
C262 C265 1.387 . S
H263 C259 0.950 . S
H264 C261 0.950 . S
C265 C256 1.390 . S
C265 H258 0.950 . S
C265 C262 1.387 . S
C266 C267 1.387 . S
C266 H270 0.950 . S
C266 C275 1.390 . S
C267 C266 1.387 . S
C267 C269 1.387 . S
H268 C275 0.950 . S
C269 C267 1.387 . S
C269 C271 1.390 . S
C269 H273 0.950 . S
H270 C266 0.950 . S
C271 C269 1.390 . S
C271 C272 1.387 . S
C271 H274 0.950 . S
C272 C271 1.387 . S
C272 C275 1.387 . S
H273 C269 0.950 . S
H274 C271 0.950 . S
C275 C266 1.390 . S
C275 H268 0.950 . S
C275 C272 1.387 . S
C276 C277 1.387 . S
C276 H280 0.950 . S
C276 C285 1.390 . S
C277 C276 1.387 . S
C277 C279 1.387 . S
H278 C285 0.950 . S
C279 C277 1.387 . S
C279 C281 1.390 . S
C279 H283 0.950 . S
H280 C276 0.950 . S
C281 C279 1.390 . S
C281 C282 1.387 . S
C281 H284 0.950 . S
C282 C281 1.387 . S
C282 C285 1.387 . S
H283 C279 0.950 . S
H284 C281 0.950 . S
C285 C276 1.390 . S
C285 H278 0.950 . S
C285 C282 1.387 . S
C286 C287 1.387 . S
C286 H290 0.950 . S
C286 C295 1.390 . S
C287 C286 1.387 . S
C287 C289 1.387 . S
H288 C295 0.950 . S
C289 C287 1.387 . S
C289 C291 1.390 . S
C289 H293 0.950 . S
H290 C286 0.950 . S
C291 C289 1.390 . S
C291 C292 1.387 . S
C291 H294 0.950 . S
C292 C291 1.387 . S
C292 C295 1.387 . S
H293 C289 0.950 . S
H294 C291 0.950 . S
C295 C286 1.390 . S
C295 H288 0.950 . S
C295 C292 1.387 . S
C296 C297 1.387 . S
C296 H300 0.950 . S
C296 C305 1.390 . S
C297 C296 1.387 . S
C297 C299 1.387 . S
H298 C305 0.950 1_655 S
C299 C297 1.387 . S
C299 C301 1.390 . S
C299 H303 0.950 . S
H300 C296 0.950 . S
C301 C299 1.390 . S
C301 C302 1.387 . S
C301 H304 0.950 . S
C302 C301 1.387 . S
C302 C305 1.387 . S
H303 C299 0.950 . S
H304 C301 0.950 . S
C305 C296 1.390 . S
C305 H298 0.950 1_455 S
C305 C302 1.387 . S
C306 C307 1.387 . S
C306 H310 0.950 1_556 S
C306 C315 1.390 1_556 S
C307 C306 1.387 . S
C307 C309 1.387 . S
H308 C315 0.950 . S
C309 C307 1.387 . S
C309 C311 1.390 . S
C309 H313 0.950 . S
H310 C306 0.950 1_554 S
C311 C309 1.390 . S
C311 C312 1.387 . S
C311 H314 0.950 . S
C312 C311 1.387 . S
C312 C315 1.387 1_556 S
H313 C309 0.950 . S
H314 C311 0.950 . S
C315 C306 1.390 1_554 S
C315 H308 0.950 . S
C315 C312 1.387 1_554 S
C316 C317 1.387 . S
C316 H320 0.950 . S
C316 C325 1.390 . S
C317 C316 1.387 . S
C317 C319 1.387 . S
H318 C325 0.950 . S
C319 C317 1.387 . S
C319 C321 1.390 . S
C319 H323 0.950 1_655 S
H320 C316 0.950 . S
C321 C319 1.390 . S
C321 C322 1.387 . S
C321 H324 0.950 1_655 S
C322 C321 1.387 . S
C322 C325 1.387 . S
H323 C319 0.950 1_455 S
H324 C321 0.950 1_455 S
C325 C316 1.390 . S
C325 H318 0.950 . S
C325 C322 1.387 . S
C326 C327 1.387 . S
C326 H330 0.950 . S
C326 C335 1.390 . S
C327 C326 1.387 . S
C327 C329 1.387 . S
H328 C335 0.950 . S
C329 C327 1.387 . S
C329 C331 1.390 . S
C329 H333 0.950 . S
H330 C326 0.950 . S
C331 C329 1.390 . S
C331 C332 1.387 . S
C331 H334 0.950 . S
C332 C331 1.387 . S
C332 C335 1.387 . S
H333 C329 0.950 . S
H334 C331 0.950 . S
C335 C326 1.390 . S
C335 H328 0.950 . S
C335 C332 1.387 . S
C336 C337 1.387 . S
C336 H340 0.950 . S
C336 C345 1.390 . S
C337 C336 1.387 . S
C337 C339 1.387 1_565 S
H338 C345 0.950 . S
C339 C337 1.387 1_545 S
C339 C341 1.390 . S
C339 H343 0.950 . S
H340 C336 0.950 . S
C341 C339 1.390 . S
C341 C342 1.387 1_545 S
C341 H344 0.950 . S
C342 C341 1.387 1_565 S
C342 C345 1.387 . S
H343 C339 0.950 . S
H344 C341 0.950 . S
C345 C336 1.390 . S
C345 H338 0.950 . S
C345 C342 1.387 . S
C346 C347 1.387 . S
C346 H350 0.950 . S
C346 C355 1.390 . S
C347 C346 1.387 . S
C347 C349 1.387 . S
H348 C355 0.950 . S
C349 C347 1.387 . S
C349 C351 1.390 . S
C349 H353 0.950 . S
H350 C346 0.950 . S
C351 C349 1.390 . S
C351 C352 1.387 . S
C351 H354 0.950 . S
C352 C351 1.387 . S
C352 C355 1.387 . S
H353 C349 0.950 . S
H354 C351 0.950 . S
C355 C346 1.390 . S
C355 H348 0.950 . S
C355 C352 1.387 . S
C356 C357 1.387 . S
C356 H360 0.950 . S
C356 C365 1.390 . S
C357 C356 1.387 . S
C357 C359 1.387 . S
H358 C365 0.950 . S
C359 C357 1.387 . S
C359 C361 1.390 . S
C359 H363 0.950 . S
H360 C356 0.950 . S
C361 C359 1.390 . S
C361 C362 1.387 . S
C361 H364 0.950 . S
C362 C361 1.387 . S
C362 C365 1.387 . S
H363 C359 0.950 . S
H364 C361 0.950 . S
C365 C356 1.390 . S
C365 H358 0.950 . S
C365 C362 1.387 . S
C366 C367 1.387 . S
C366 H370 0.950 . S
C366 C375 1.390 . S
C367 C366 1.387 . S
C367 C369 1.387 . S
H368 C375 0.950 . S
C369 C367 1.387 . S
C369 C371 1.390 . S
C369 H373 0.950 . S
H370 C366 0.950 . S
C371 C369 1.390 . S
C371 C372 1.387 . S
C371 H374 0.950 . S
C372 C371 1.387 . S
C372 C375 1.387 . S
H373 C369 0.950 . S
H374 C371 0.950 . S
C375 C366 1.390 . S
C375 H368 0.950 . S
C375 C372 1.387 . S
C376 C377 1.387 1_545 S
C376 H380 0.950 . S
C376 C385 1.390 . S
C377 C376 1.387 1_565 S
C377 C379 1.387 . S
H378 C385 0.950 . S
C379 C377 1.387 . S
C379 C381 1.390 . S
C379 H383 0.950 . S
H380 C376 0.950 . S
C381 C379 1.390 . S
C381 C382 1.387 . S
C381 H384 0.950 1_556 S
C382 C381 1.387 . S
C382 C385 1.387 1_565 S
H383 C379 0.950 . S
H384 C381 0.950 1_554 S
C385 C376 1.390 . S
C385 H378 0.950 . S
C385 C382 1.387 1_545 S
C386 C387 1.387 . S
C386 H390 0.950 . S
C386 C395 1.390 . S
C387 C386 1.387 . S
C387 C389 1.387 . S
H388 C395 0.950 . S
C389 C387 1.387 . S
C389 C391 1.390 . S
C389 H393 0.950 . S
H390 C386 0.950 . S
C391 C389 1.390 . S
C391 C392 1.387 . S
C391 H394 0.950 . S
C392 C391 1.387 . S
C392 C395 1.387 . S
H393 C389 0.950 . S
H394 C391 0.950 . S
C395 C386 1.390 . S
C395 H388 0.950 . S
C395 C392 1.387 . S
C396 C397 1.387 . S
C396 H400 0.950 . S
C396 C405 1.390 . S
C397 C396 1.387 . S
C397 C399 1.387 . S
H398 C405 0.950 . S
C399 C397 1.387 . S
C399 C401 1.390 . S
C399 H403 0.950 . S
H400 C396 0.950 . S
C401 C399 1.390 . S
C401 C402 1.387 . S
C401 H404 0.950 . S
C402 C401 1.387 . S
C402 C405 1.387 . S
H403 C399 0.950 . S
H404 C401 0.950 . S
C405 C396 1.390 . S
C405 H398 0.950 . S
C405 C402 1.387 . S
C406 C407 1.387 . S
C406 H410 0.950 . S
C406 C415 1.390 . S
C407 C406 1.387 . S
C407 C409 1.387 . S
H408 C415 0.950 . S
C409 C407 1.387 . S
C409 C411 1.390 . S
C409 H413 0.950 . S
H410 C406 0.950 . S
C411 C409 1.390 . S
C411 C412 1.387 . S
C411 H414 0.950 . S
C412 C411 1.387 . S
C412 C415 1.387 . S
H413 C409 0.950 . S
H414 C411 0.950 . S
C415 C406 1.390 . S
C415 H408 0.950 . S
C415 C412 1.387 . S
C416 C417 1.387 . S
C416 H420 0.950 1_556 S
C416 C425 1.390 1_556 S
C417 C416 1.387 . S
C417 C419 1.387 . S
H418 C425 0.950 . S
C419 C417 1.387 . S
C419 C421 1.390 . S
C419 H423 0.950 . S
H420 C416 0.950 1_554 S
C421 C419 1.390 . S
C421 C422 1.387 . S
C421 H424 0.950 . S
C422 C421 1.387 . S
C422 C425 1.387 1_556 S
H423 C419 0.950 . S
H424 C421 0.950 . S
C425 C416 1.390 1_554 S
C425 H418 0.950 . S
C425 C422 1.387 1_554 S
C426 C427 1.387 . S
C426 H430 0.950 . S
C426 C435 1.390 . S
C427 C426 1.387 . S
C427 C429 1.387 . S
H428 C435 0.950 . S
C429 C427 1.387 . S
C429 C431 1.390 . S
C429 H433 0.950 . S
H430 C426 0.950 . S
C431 C429 1.390 . S
C431 C432 1.387 . S
C431 H434 0.950 . S
C432 C431 1.387 . S
C432 C435 1.387 . S
H433 C429 0.950 . S
H434 C431 0.950 . S
C435 C426 1.390 . S
C435 H428 0.950 . S
C435 C432 1.387 . S
C436 C437 1.387 . S
C436 H440 0.950 . S
C436 C445 1.390 . S
C437 C436 1.387 . S
C437 C439 1.387 . S
H438 C445 0.950 . S
C439 C437 1.387 . S
C439 C441 1.390 . S
C439 H443 0.950 . S
H440 C436 0.950 . S
C441 C439 1.390 . S
C441 C442 1.387 . S
C441 H444 0.950 . S
C442 C441 1.387 . S
C442 C445 1.387 . S
H443 C439 0.950 . S
H444 C441 0.950 . S
C445 C436 1.390 . S
C445 H438 0.950 . S
C445 C442 1.387 . S
C446 C447 1.387 . S
C446 H450 0.950 . S
C446 C455 1.390 . S
C447 C446 1.387 . S
C447 C449 1.387 . S
H448 C455 0.950 . S
C449 C447 1.387 . S
C449 C451 1.390 . S
C449 H453 0.950 . S
H450 C446 0.950 . S
C451 C449 1.390 . S
C451 C452 1.387 . S
C451 H454 0.950 . S
C452 C451 1.387 . S
C452 C455 1.387 . S
H453 C449 0.950 . S
H454 C451 0.950 . S
C455 C446 1.390 . S
C455 H448 0.950 . S
C455 C452 1.387 . S
C217 C6 2.305 . S
C222 C112 2.319 . S
C227 C18 1.354 . S
C232 N132 1.372 . S
C242 C166 2.014 . S
C237 C28 1.984 . S
C247 C40 1.075 . S
C252 N200 0.999 . S
C262 C153 2.501 . S
C257 C9 2.493 . S
C272 N110 1.114 . S
C267 C16 1.153 . S
C282 C187 2.079 1_556 S
C277 C30 2.077 . S
C292 N162 0.965 . S
C287 C42 0.951 . S
C297 C4 1.776 . S
C302 C202 1.787 . S
C312 C136 1.735 . S
C307 C33 1.722 . S
C317 C45 1.135 . S
C322 C97 1.152 . S
C327 C21 1.614 . S
C332 C183 1.641 . S
C342 C123 2.363 . S
C337 C57 2.361 . S
C347 C66 1.350 . S
C352 N140 1.359 . S
C357 C76 2.034 . S
C362 C157 2.051 . S
C367 C88 1.009 . S
C372 N192 0.968 . S
C377 C54 2.460 . S
C382 C142 2.466 . S
C392 N102 1.154 . S
C387 C64 1.181 . S
C402 C196 1.991 . S
C397 C78 1.971 . S
C412 N170 0.979 . S
C407 C93 0.968 . S
C417 C52 1.710 . S
C422 C213 1.740 . S
C432 C127 1.739 . S
C427 C81 1.716 . S
C442 C106 1.170 . S
C437 C90 1.157 . S
C447 C69 1.665 . S
C452 C172 1.680 . S
