# Generated by pormake.
# Topology zzz, (3,6)-cn, num edge types: 1
# Building blocks:
#     Node 0, Type 0, BuildingBlock: QEWDON_clean_linker_0, # of connection points: 3
#     Node 1, Type 0, BuildingBlock: QEWDON_clean_linker_0, # of connection points: 3
#     Node 2, Type 0, BuildingBlock: QEWDON_clean_linker_0, # of connection points: 3
#     Node 3, Type 0, BuildingBlock: QEWDON_clean_linker_0, # of connection points: 3
#     Node 4, Type 0, BuildingBlock: QEWDON_clean_linker_0, # of connection points: 3
#     Node 5, Type 0, BuildingBlock: QEWDON_clean_linker_0, # of connection points: 3
#     Node 6, Type 0, BuildingBlock: QEWDON_clean_linker_0, # of connection points: 3
#     Node 7, Type 0, BuildingBlock: QEWDON_clean_linker_0, # of connection points: 3
#     Node 8, Type 1, BuildingBlock: KUMBOL_clean_sbu_0, # of connection points: 6
#     Node 9, Type 1, BuildingBlock: KUMBOL_clean_sbu_0, # of connection points: 6
#     Node 10, Type 1, BuildingBlock: KUMBOL_clean_sbu_0, # of connection points: 6
#     Node 11, Type 1, BuildingBlock: KUMBOL_clean_sbu_0, # of connection points: 6
#     Edge 12, Type (0, 1), BuildingBlock: TEMPAE_clean_linker_10, # of connection points: 2
#     Edge 13, Type (0, 1), BuildingBlock: TEMPAE_clean_linker_10, # of connection points: 2
#     Edge 14, Type (0, 1), BuildingBlock: TEMPAE_clean_linker_10, # of connection points: 2
#     Edge 15, Type (0, 1), BuildingBlock: TEMPAE_clean_linker_10, # of connection points: 2
#     Edge 16, Type (0, 1), BuildingBlock: TEMPAE_clean_linker_10, # of connection points: 2
#     Edge 17, Type (0, 1), BuildingBlock: TEMPAE_clean_linker_10, # of connection points: 2
#     Edge 18, Type (0, 1), BuildingBlock: TEMPAE_clean_linker_10, # of connection points: 2
#     Edge 19, Type (0, 1), BuildingBlock: TEMPAE_clean_linker_10, # of connection points: 2
#     Edge 20, Type (0, 1), BuildingBlock: TEMPAE_clean_linker_10, # of connection points: 2
#     Edge 21, Type (0, 1), BuildingBlock: TEMPAE_clean_linker_10, # of connection points: 2
#     Edge 22, Type (0, 1), BuildingBlock: TEMPAE_clean_linker_10, # of connection points: 2
#     Edge 23, Type (0, 1), BuildingBlock: TEMPAE_clean_linker_10, # of connection points: 2
#     Edge 24, Type (0, 1), BuildingBlock: TEMPAE_clean_linker_10, # of connection points: 2
#     Edge 25, Type (0, 1), BuildingBlock: TEMPAE_clean_linker_10, # of connection points: 2
#     Edge 26, Type (0, 1), BuildingBlock: TEMPAE_clean_linker_10, # of connection points: 2
#     Edge 27, Type (0, 1), BuildingBlock: TEMPAE_clean_linker_10, # of connection points: 2
#     Edge 28, Type (0, 1), BuildingBlock: TEMPAE_clean_linker_10, # of connection points: 2
#     Edge 29, Type (0, 1), BuildingBlock: TEMPAE_clean_linker_10, # of connection points: 2
#     Edge 30, Type (0, 1), BuildingBlock: TEMPAE_clean_linker_10, # of connection points: 2
#     Edge 31, Type (0, 1), BuildingBlock: TEMPAE_clean_linker_10, # of connection points: 2
#     Edge 32, Type (0, 1), BuildingBlock: TEMPAE_clean_linker_10, # of connection points: 2
#     Edge 33, Type (0, 1), BuildingBlock: TEMPAE_clean_linker_10, # of connection points: 2
#     Edge 34, Type (0, 1), BuildingBlock: TEMPAE_clean_linker_10, # of connection points: 2
#     Edge 35, Type (0, 1), BuildingBlock: TEMPAE_clean_linker_10, # of connection points: 2
# Relax obj value: 0.113
# Max RMSD: 0.150
# Mean RMSD: 0.075
data_MOF--net-zzz--node1-KUMBOL_clean_sbu_0--node2-QEWDON_clean_linker_0--edge1-TEMPAE_clean_linker_10
_symmetry_space_group_name_H-M    P1
_symmetry_Int_Tables_number       1
_symmetry_cell_setting            triclinic
loop_
_symmetry_equiv_pos_as_xyz
'x, y, z'
_cell_length_a     55.126948
_cell_length_b     55.110904
_cell_length_c     14.501232
_cell_angle_alpha  90.729175
_cell_angle_beta   90.021874
_cell_angle_gamma 89.822344
loop_
_atom_site_label
_atom_site_type_symbol
_atom_site_fract_x
_atom_site_fract_y
_atom_site_fract_z
_atom_type_partial_charge
H0 H 0.75216 0.55966 0.14839 0.0
C1 C 0.76419 0.55568 0.20507 0.0
C2 C 0.78792 0.56456 0.20058 0.0
C3 C 0.7562 0.54245 0.28219 0.0
H4 H 0.82206 0.56812 0.27051 0.0
C5 C 0.80388 0.56091 0.27419 0.0
C6 C 0.79778 0.54646 0.34877 0.0
C7 C 0.77387 0.53689 0.35219 0.0
C8 C 0.72943 0.53585 0.29107 0.0
H9 H 0.76926 0.52546 0.40955 0.0
C10 C 0.71286 0.53525 0.21438 0.0
C11 C 0.68745 0.53192 0.2275 0.0
C12 C 0.71966 0.53205 0.37951 0.0
H13 H 0.73081 0.53304 0.44071 0.0
C14 C 0.69498 0.5278 0.39205 0.0
H15 H 0.7193 0.53781 0.14486 0.0
C16 C 0.67908 0.52785 0.31747 0.0
H17 H 0.66 0.52471 0.33052 0.0
H18 H 0.68799 0.52493 0.46082 0.0
H19 H 1.00253 0.77151 0.06198 0.0
C20 C 1.00273 0.78485 0.11735 0.0
C21 C 1.00365 0.80926 0.09361 0.0
C22 C 1.00139 0.77782 0.21007 0.0
H23 H 1.0023 0.84594 0.14086 0.0
C24 C 1.00272 0.82724 0.16246 0.0
C25 C 1.00403 0.82183 0.2568 0.0
C26 C 1.00273 0.79666 0.28038 0.0
C27 C 0.99683 0.75111 0.23006 0.0
H28 H 1.00313 0.79181 0.35239 0.0
C29 C 1.00352 0.73158 0.16769 0.0
C30 C 0.99556 0.70716 0.18127 0.0
C31 C 0.983 0.74522 0.30778 0.0
H32 H 0.977 0.75911 0.35606 0.0
C33 C 0.97528 0.72153 0.32207 0.0
H34 H 0.01493 0.73529 0.10902 0.0
C35 C 0.98098 0.70298 0.25943 0.0
H36 H 0.97326 0.68534 0.2723 0.0
H37 H 0.96406 0.71761 0.38128 0.0
H38 H 0.77336 0.9779 0.13589 0.0
C39 C 0.7596 0.98477 0.18252 0.0
C40 C 0.7356 0.97722 0.16815 0.0
C41 C 0.76569 1.0012 0.25437 0.0
H42 H 0.69911 0.97887 0.22053 0.0
C43 C 0.71763 0.98481 0.2308 0.0
C44 C 0.72223 1.00177 0.3013 0.0
C45 C 0.74649 1.00985 0.3134 0.0
C46 C 0.79192 1.00925 0.26586 0.0
H47 H 0.75003 0.02344 0.36609 0.0
C48 C 0.80917 1.00863 0.19172 0.0
C49 C 0.83375 0.01542 0.20583 0.0
C50 C 0.8003 0.0169 0.35327 0.0
H51 H 0.78845 0.01703 0.41268 0.0
C52 C 0.82437 0.02396 0.36669 0.0
H53 H 0.80373 1.0033 0.12278 0.0
C54 C 0.8409 0.02327 0.29396 0.0
H55 H 0.85953 0.02857 0.30691 0.0
H56 H 0.83034 0.02974 0.43459 0.0
H57 H 0.54132 0.78215 0.13559 0.0
C58 C 0.53514 0.7711 0.19201 0.0
C59 C 0.53312 0.74613 0.17694 0.0
C60 C 0.52996 0.78148 0.27929 0.0
H61 H 0.52565 0.71154 0.23704 0.0
C62 C 0.52656 0.73095 0.24926 0.0
C63 C 0.52257 0.73998 0.33813 0.0
C64 C 0.52402 0.76545 0.35329 0.0
C65 C 0.53247 0.80867 0.29244 0.0
H66 H 0.52038 0.77251 0.42183 0.0
C67 C 0.52957 0.82523 0.21791 0.0
C68 C 0.53462 0.85034 0.22921 0.0
C69 C 0.53946 0.81826 0.3788 0.0
H70 H 0.54254 0.80661 0.43712 0.0
C71 C 0.54354 0.84307 0.39098 0.0
H72 H 0.52393 0.81872 0.15059 0.0
C73 C 0.54128 0.8589 0.31721 0.0
H74 H 0.54476 0.87801 0.32901 0.0
H75 H 0.54899 0.85002 0.45795 0.0
H76 H 0.2809 0.48588 0.17958 0.0
C77 C 0.26898 0.48982 0.1225 0.0
C78 C 0.24511 0.48139 0.12735 0.0
C79 C 0.27727 0.50256 0.04467 0.0
H80 H 0.21092 0.47815 0.05759 0.0
C81 C 0.22925 0.48499 0.0534 0.0
C82 C 0.23563 0.49895 0.97778 0.0
C83 C 0.25974 0.50806 0.97393 0.0
C84 C 0.30417 0.50871 0.03616 0.0
H85 H 0.26464 0.51909 0.91576 0.0
C86 C 0.32058 0.50951 0.11341 0.0
C87 C 0.34608 0.51243 0.10106 0.0
C88 C 0.3142 0.51186 0.94779 0.0
H89 H 0.30316 0.5107 0.88633 0.0
C90 C 0.33897 0.51568 0.93581 0.0
H91 H 0.3139 0.50747 0.18288 0.0
C92 C 0.3547 0.51586 0.01096 0.0
H93 H 0.37382 0.51878 0.99816 0.0
H94 H 0.34616 0.51808 0.86705 0.0
H95 H 0.06138 0.28566 0.16863 0.0
C96 C 0.05444 0.27137 0.12435 0.0
C97 C 0.06491 0.24828 0.13115 0.0
C98 C 0.03495 0.27593 0.06422 0.0
H99 H 0.06558 0.21206 0.07332 0.0
C100 C 0.0578 0.23003 0.06802 0.0
C101 C 0.0386 0.23306 0.00594 0.0
C102 C 0.02672 0.25617 0.00576 0.0
C103 C 0.02435 0.30157 0.06232 0.0
H104 H 1.0114 0.25867 0.9602 0.0
C105 C 0.02603 0.31847 0.13893 0.0
C106 C 0.019 0.3433 0.1303 0.0
C107 C 0.01422 0.31014 0.9799 0.0
H108 H 1.01286 0.29853 0.91943 0.0
C109 C 1.00655 0.33419 0.97224 0.0
H110 H 0.03321 0.31271 0.20454 0.0
C111 C 1.00913 0.35057 0.04571 0.0
H112 H 1.00327 0.36916 0.03626 0.0
H113 H 0.99898 0.34036 0.90773 0.0
H114 H 0.26369 0.06747 0.15523 0.0
C115 C 0.27699 0.06057 0.10677 0.0
C116 C 0.30029 0.07071 0.10957 0.0
C117 C 0.27109 0.04182 0.04313 0.0
H118 H 0.33583 0.07038 0.04749 0.0
C119 C 0.3177 0.06283 0.0451 0.0
C120 C 0.31341 0.04366 0.98348 0.0
C121 C 0.28992 0.03319 0.98222 0.0
C122 C 0.24553 0.03136 0.04151 0.0
H123 H 0.28686 0.01786 0.93653 0.0
C124 C 0.22911 0.03327 0.11814 0.0
C125 C 0.20522 0.02369 0.11304 0.0
C126 C 0.23692 0.01983 0.96062 0.0
H127 H 0.24791 0.01862 0.89903 0.0
C128 C 0.21362 1.01006 0.95626 0.0
H129 H 0.2347 0.04166 0.18243 0.0
C130 C 0.19798 1.01186 0.0315 0.0
H131 H 0.17989 1.00435 0.02533 0.0
H132 H 0.2075 1.00124 0.89333 0.0
H133 H 0.5207 0.25706 0.1151 0.0
C134 C 0.51673 0.26931 0.05948 0.0
C135 C 0.52363 0.29349 0.07093 0.0
C136 C 0.50572 0.26111 0.97689 0.0
H137 H 0.52538 0.32872 0.00936 0.0
C138 C 0.52006 0.30993 0.99956 0.0
C139 C 0.50911 0.30309 0.91682 0.0
C140 C 0.50149 0.27861 0.90571 0.0
C141 C 0.50014 0.23426 0.96504 0.0
H142 H 0.49257 0.27346 0.84206 0.0
C143 C 0.49753 0.21831 0.04173 0.0
C144 C 0.49444 0.19292 0.02893 0.0
C145 C 0.49903 0.22388 0.87593 0.0
H146 H 0.50166 0.2347 0.81513 0.0
C147 C 0.49546 0.19903 0.86307 0.0
H148 H 0.4976 0.22533 0.11163 0.0
C149 C 0.49329 0.18369 0.93835 0.0
H150 H 0.49135 0.1644 0.92554 0.0
H151 H 0.49493 0.19152 0.79381 0.0
Gd152 Gd 0.99995 0.03186 0.563 0.0
Gd153 Gd 0.03994 0.01665 0.74425 0.0
C154 C 0.03387 0.02481 0.05719 0.0
C155 C 0.05148 0.06462 0.08388 0.0
C156 C 0.04817 0.04825 0.92758 0.0
C157 C 0.03761 0.02733 0.96141 0.0
C158 C 0.05595 0.06674 0.98903 0.0
C159 C 0.04023 0.04383 0.11775 0.0
C160 C 0.02463 1.00293 0.08978 0.0
C161 C 0.02035 0.98382 0.02799 0.0
N162 N 0.03219 1.00894 0.90142 0.0
C163 C 0.0247 0.98696 0.9339 0.0
H164 H 0.02171 0.97177 0.8879 0.0
C165 C 0.06475 0.06912 0.80074 0.0
N166 N 0.05198 0.05005 0.83525 0.0
C167 C 0.0731 0.08763 0.85916 0.0
C168 C 0.06848 0.08659 0.95358 0.0
H169 H 0.0685 0.07038 0.7281 0.0
H170 H 0.03729 0.04227 0.19134 0.0
H171 H 0.02728 0.99295 0.40721 0.0
H172 H 0.02147 1.00034 0.16275 0.0
H173 H 0.01388 0.96658 0.0529 0.0
H174 H 0.05702 0.0788 0.13183 0.0
H175 H 0.94665 0.05795 0.62557 0.0
H176 H 0.97244 0.95116 0.27587 0.0
H177 H 0.01528 0.96316 0.29223 0.0
H178 H 0.89875 0.98104 0.40743 0.0
H179 H 0.08314 0.10267 0.8311 0.0
H180 H 0.07489 0.10105 0.99859 0.0
H181 H 0.92924 0.95754 0.32087 0.0
H182 H 0.90314 0.05076 0.606 0.0
N183 N 0.9913 0.9996 0.45826 0.0
C184 C 0.97747 0.96471 0.32716 0.0
C185 C 1.00168 0.97124 0.33677 0.0
C186 C 0.95993 0.97635 0.38145 0.0
C187 C 0.96739 0.9942 0.44643 0.0
C188 C 1.00835 0.98863 0.40279 0.0
N189 N 0.9576 0.02626 0.54979 0.0
C190 C 0.95011 1.00767 0.49445 0.0
C191 C 0.91612 0.03838 0.57486 0.0
C192 C 0.90814 0.0186 0.52254 0.0
C193 C 0.94098 0.04227 0.58624 0.0
C194 C 0.92513 1.00332 0.47964 0.0
H195 H 0.88885 0.01581 0.51286 0.0
O196 O 0.98455 0.04802 0.43994 0.0
O197 O 0.02277 0.04874 0.6766 0.0
O198 O 1.00222 0.0176 0.80973 0.0
O199 O 0.97641 0.01835 0.68183 0.0
O200 O 0.98811 0.06165 0.66248 0.0
O201 O 0.01728 0.06256 0.49904 0.0
O202 O 0.06611 0.99034 0.69204 0.0
O203 O 0.02212 1.00155 0.61603 0.0
O204 O 0.0377 0.02267 0.50857 0.0
O205 O 0.05965 0.03676 0.63111 0.0
O206 O 0.02191 0.9797 0.72874 0.0
O207 O 0.07577 1.01339 0.80655 0.0
C208 C 1.00755 0.06404 0.71079 0.0
C209 C 0.91782 0.98467 0.41914 0.0
C210 C 0.93518 0.97132 0.36978 0.0
C211 C 1.00001 0.06569 0.43975 0.0
C212 C 0.99043 0.09046 0.4357 0.0
C213 C 0.96569 0.09572 0.44871 0.0
C214 C 1.00691 0.10938 0.42411 0.0
C215 C 0.99906 0.13349 0.42696 0.0
C216 C 0.9577 0.11978 0.45043 0.0
C217 C 0.97428 0.13865 0.43971 0.0
C218 C 0.98024 0.01637 0.7721 0.0
C219 C 0.01486 0.98098 0.64405 0.0
C220 C 0.08236 0.99541 0.75389 0.0
C221 C 0.09429 0.97496 0.79945 0.0
C222 C 0.11701 0.97843 0.84115 0.0
C223 C 0.08329 0.95208 0.80231 0.0
C224 C 0.09475 0.93286 0.84744 0.0
C225 C 0.12848 0.95929 0.88617 0.0
C226 C 0.11735 0.93659 0.88991 0.0
C227 C 0.05844 0.03055 0.54316 0.0
H228 H 0.95261 0.08137 0.4583 0.0
H229 H 0.02598 0.1053 0.41333 0.0
H230 H 0.93866 0.12383 0.46073 0.0
H231 H 0.96783 0.15723 0.44216 0.0
H232 H 0.1258 0.99598 0.83929 0.0
H233 H 0.06555 0.94933 0.77157 0.0
H234 H 0.14594 0.96211 0.91872 0.0
H235 H 0.12632 0.92197 0.92586 0.0
Gd236 Gd 0.51208 0.99901 0.53565 0.0
Gd237 Gd 0.51969 0.0442 0.71593 0.0
C238 C 0.46247 0.07875 0.9062 0.0
C239 C 0.46224 0.12054 0.85558 0.0
C240 C 0.48897 0.09083 0.782 0.0
C241 C 0.48 0.07284 0.83827 0.0
C242 C 0.48032 0.11491 0.79064 0.0
C243 C 0.45348 0.10254 0.91372 0.0
C244 C 0.45467 0.06068 0.96565 0.0
C245 C 0.46403 0.03731 0.95615 0.0
N246 N 0.48874 0.04979 0.82841 0.0
C247 C 0.48091 0.03213 0.88684 0.0
H248 H 0.48703 0.01376 0.88089 0.0
C249 C 0.51802 0.10289 0.67189 0.0
N250 N 0.50688 0.08508 0.72146 0.0
C251 C 0.50966 0.12682 0.6765 0.0
C252 C 0.4905 0.13281 0.73529 0.0
H253 H 0.53297 0.0985 0.62651 0.0
H254 H 0.43982 0.10724 0.96467 0.0
H255 H 0.55026 0.02394 0.38409 0.0
H256 H 0.44162 0.06466 0.01955 0.0
H257 H 0.45827 0.02319 1.0024 0.0
H258 H 0.45528 0.13888 0.86277 0.0
H259 H 0.4876 0.94626 0.60893 0.0
H260 H 0.59994 0.96931 0.29049 0.0
H261 H 0.58396 1.01131 0.28393 0.0
H262 H 0.57317 0.89794 0.44397 0.0
H263 H 0.51804 0.14064 0.63487 0.0
H264 H 0.48406 0.15136 0.73892 0.0
H265 H 0.59631 0.92732 0.35337 0.0
H266 H 0.49828 0.90296 0.61096 0.0
N267 N 0.54653 0.9894 0.44676 0.0
C268 C 0.58496 0.97474 0.33456 0.0
C269 C 0.57617 0.99848 0.3311 0.0
C270 C 0.57367 0.95801 0.39212 0.0
C271 C 0.55383 0.96584 0.44653 0.0
C272 C 0.55694 1.00557 0.38806 0.0
N273 N 0.51989 0.95688 0.53926 0.0
C274 C 0.54029 0.94914 0.49505 0.0
C275 C 0.5103 0.91577 0.57846 0.0
C276 C 0.53183 0.90774 0.53763 0.0
C277 C 0.50433 0.94044 0.57714 0.0
C278 C 0.54685 0.92436 0.49338 0.0
H279 H 0.53632 0.8886 0.53837 0.0
O280 O 0.47628 0.9938 0.47471 0.0
O281 O 0.4924 0.02346 0.63586 0.0
O282 O 0.51698 1.00602 0.77717 0.0
O283 O 0.52745 0.97902 0.65839 0.0
O284 O 0.47918 0.98872 0.61973 0.0
O285 O 0.50777 0.9953 0.38754 0.0
O286 O 0.54147 0.06891 0.79874 0.0
O287 O 0.53971 0.02096 0.61305 0.0
O288 O 0.51512 0.03701 0.475 0.0
O289 O 0.50124 0.06194 0.59298 0.0
O290 O 0.54985 0.05668 0.62177 0.0
O291 O 0.54685 0.03024 0.81049 0.0
C292 C 0.47579 1.00914 0.66238 0.0
C293 C 0.56767 0.91683 0.44494 0.0
C294 C 0.5809 0.93357 0.39363 0.0
C295 C 0.48432 0.99672 0.3913 0.0
C296 C 0.47323 0.01626 0.33661 0.0
C297 C 0.48503 0.02478 0.25727 0.0
C298 C 0.45147 0.02738 0.3653 0.0
C299 C 0.44182 0.04681 0.31591 0.0
C300 C 0.47535 0.04416 0.2082 0.0
C301 C 0.45373 0.05501 0.23699 0.0
C302 C 0.52391 0.9841 0.74708 0.0
C303 C 0.55533 0.03607 0.5845 0.0
C304 C 0.55595 0.05171 0.82563 0.0
C305 C 0.58194 0.05459 0.80355 0.0
C306 C 0.59036 0.07537 0.75789 0.0
C307 C 0.59835 0.03579 0.82288 0.0
C308 C 0.62275 0.03772 0.79711 0.0
C309 C 0.61464 0.07717 0.7318 0.0
C310 C 0.63084 0.0585 0.75176 0.0
C311 C 0.50583 0.0579 0.50447 0.0
H312 H 0.50183 0.0166 0.23349 0.0
H313 H 0.44177 0.02078 0.42495 0.0
H314 H 0.48447 0.05056 0.14712 0.0
H315 H 0.44567 0.06908 0.19568 0.0
H316 H 0.57817 0.09012 0.74113 0.0
H317 H 0.59228 0.01986 0.85933 0.0
H318 H 0.62094 0.09316 0.69661 0.0
H319 H 0.6498 0.06051 0.73382 0.0
Gd320 Gd 0.49331 0.52992 0.74915 0.0
Gd321 Gd 0.53999 0.51942 0.57673 0.0
C322 C 0.61705 0.50515 0.68235 0.0
C323 C 0.63948 0.53874 0.61799 0.0
C324 C 0.59578 0.53572 0.5946 0.0
C325 C 0.59529 0.51459 0.64533 0.0
C326 C 0.61804 0.54773 0.57902 0.0
C327 C 0.63903 0.51737 0.66858 0.0
C328 C 0.61628 0.4833 0.73001 0.0
C329 C 0.59431 0.47128 0.73949 0.0
N330 N 0.57386 0.50271 0.65532 0.0
C331 C 0.5733 0.48107 0.70085 0.0
H332 H 0.5568 0.4712 0.70995 0.0
C333 C 0.57606 0.56101 0.48818 0.0
N334 N 0.57499 0.54343 0.55411 0.0
C335 C 0.59739 0.57392 0.47278 0.0
C336 C 0.61842 0.56755 0.51989 0.0
H337 H 0.56041 0.56489 0.44637 0.0
H338 H 0.65592 0.51013 0.69488 0.0
H339 H 0.46355 0.57212 0.61653 0.0
H340 H 0.6326 0.47538 0.75853 0.0
H341 H 0.59352 0.45431 0.77615 0.0
H342 H 0.65668 0.54767 0.60636 0.0
H343 H 0.48503 0.48694 0.90804 0.0
H344 H 0.38907 0.55356 0.60361 0.0
H345 H 0.42288 0.58053 0.56286 0.0
H346 H 0.38272 0.48326 0.79009 0.0
H347 H 0.59775 0.58828 0.42257 0.0
H348 H 0.63513 0.57718 0.50623 0.0
H349 H 0.37455 0.51647 0.6829 0.0
H350 H 0.45282 0.45972 0.96251 0.0
N351 N 0.45441 0.53928 0.68646 0.0
C352 C 0.40728 0.5492 0.62602 0.0
C353 C 0.42626 0.56461 0.60394 0.0
C354 C 0.41182 0.5289 0.67993 0.0
C355 C 0.43576 0.52454 0.71072 0.0
C356 C 0.44965 0.55959 0.63563 0.0
N357 N 0.46295 0.50361 0.80589 0.0
C358 C 0.44025 0.50599 0.77146 0.0
C359 C 0.44904 0.47246 0.90813 0.0
C360 C 0.4259 0.47388 0.8699 0.0
C361 C 0.46726 0.48784 0.87666 0.0
C362 C 0.4211 0.49112 0.80227 0.0
H363 H 0.41168 0.46219 0.89528 0.0
O364 O 0.48343 0.53602 0.89249 0.0
O365 O 0.53366 0.53049 0.72369 0.0
O366 O 0.52445 0.48207 0.61435 0.0
O367 O 0.49796 0.4891 0.73724 0.0
O368 O 0.52178 0.51359 0.84172 0.0
O369 O 0.49501 0.56604 0.81004 0.0
O370 O 0.54368 0.52173 0.42823 0.0
O371 O 0.49977 0.51804 0.60347 0.0
O372 O 0.50097 0.56548 0.67413 0.0
O373 O 0.53748 0.5603 0.59566 0.0
O374 O 0.5108 0.534 0.48255 0.0
O375 O 0.55618 0.48969 0.50011 0.0
C376 C 0.54076 0.52012 0.79693 0.0
C377 C 0.39759 0.49458 0.76769 0.0
C378 C 0.39294 0.51349 0.70681 0.0
C379 C 0.49122 0.55819 0.893 0.0
C380 C 0.50977 0.56443 0.96258 0.0
C381 C 0.51474 0.54892 0.03654 0.0
C382 C 0.52324 0.58579 0.95346 0.0
C383 C 0.54157 0.59181 0.01689 0.0
C384 C 0.5328 0.55485 0.1001 0.0
C385 C 0.54608 0.57617 0.09083 0.0
C386 C 0.50997 0.47429 0.68115 0.0
C387 C 0.4921 0.5278 0.52999 0.0
C388 C 0.55286 0.50004 0.42059 0.0
C389 C 0.54376 0.4849 0.34451 0.0
C390 C 0.54506 0.49365 0.25436 0.0
C391 C 0.53588 0.46116 0.35971 0.0
C392 C 0.5307 0.44562 0.28505 0.0
C393 C 0.53849 0.47885 0.17995 0.0
C394 C 0.53172 0.45485 0.19478 0.0
C395 C 0.51932 0.5741 0.6253 0.0
H396 H 0.50468 0.53226 0.04554 0.0
H397 H 0.51885 0.59815 0.89828 0.0
H398 H 0.53627 0.54311 0.15761 0.0
H399 H 0.55951 0.58062 0.14264 0.0
H400 H 0.55176 0.51173 0.24168 0.0
H401 H 0.53466 0.45448 0.42949 0.0
H402 H 0.53959 0.48569 0.11042 0.0
H403 H 0.52831 0.44335 0.13514 0.0
Gd404 Gd 1.00923 0.50393 0.75818 0.0
Gd405 Gd 0.02409 0.54379 0.5692 0.0
C406 C 0.03074 0.62454 0.65028 0.0
C407 C 0.99612 0.64233 0.57263 0.0
C408 C 1.00457 0.59906 0.55716 0.0
C409 C 0.02414 0.60139 0.61559 0.0
C410 C 0.99079 0.61967 0.5325 0.0
C411 C 0.01618 0.64479 0.63096 0.0
C412 C 0.05252 0.62694 0.69864 0.0
C413 C 0.06753 0.6068 0.70856 0.0
N414 N 0.03812 0.58151 0.63095 0.0
C415 C 0.06013 0.58422 0.67388 0.0
H416 H 0.07233 0.56925 0.68329 0.0
C417 C 0.98487 0.57533 0.4436 0.0
N418 N 1.00063 0.57716 0.51665 0.0
C419 C 0.97045 0.59502 0.41801 0.0
C420 C 0.97306 0.6172 0.46406 0.0
H421 H 0.98305 0.55835 0.40616 0.0
H422 H 0.02093 0.66264 0.65724 0.0
H423 H 0.9633 0.47759 0.6332 0.0
H424 H 0.05838 0.64441 0.7254 0.0
H425 H 0.08477 0.60857 0.74376 0.0
H426 H 0.98561 0.65828 0.55523 0.0
H427 H 0.04964 0.49136 0.92549 0.0
H428 H 0.97707 0.40199 0.60859 0.0
H429 H 0.95167 0.43775 0.57584 0.0
H430 H 0.04772 0.38982 0.7928 0.0
H431 H 0.95752 0.59311 0.36218 0.0
H432 H 0.96215 0.63258 0.44319 0.0
H433 H 0.01372 0.38447 0.68491 0.0
H434 H 0.07465 0.45706 0.97805 0.0
N435 N 0.99619 0.46573 0.69762 0.0
C436 C 0.9827 0.41971 0.6332 0.0
C437 C 0.9682 0.43981 0.61549 0.0
C438 C 1.00366 0.42254 0.6862 0.0
C439 C 1.00979 0.44599 0.71912 0.0
C440 C 0.97505 0.46267 0.64901 0.0
N441 N 0.0325 0.47124 0.81734 0.0
C442 C 0.02875 0.44891 0.78015 0.0
C443 C 0.06204 0.45452 0.9215 0.0
C444 C 0.05955 0.43181 0.8793 0.0
C445 C 0.04793 0.47393 0.89105 0.0
C446 C 0.04229 0.4286 0.80952 0.0
H447 H 0.07026 0.41667 0.90378 0.0
O448 O 1.00399 0.49949 0.90511 0.0
O449 O 1.01137 0.54302 0.71552 0.0
O450 O 0.05979 0.53158 0.63652 0.0
O451 O 0.05034 0.50616 0.75806 0.0
O452 O 0.02632 0.5345 0.84131 0.0
O453 O 0.97309 0.50578 0.81755 0.0
O454 O 0.02804 0.54809 0.42162 0.0
O455 O 0.02195 0.50457 0.61129 0.0
O456 O 0.97359 0.51512 0.68878 0.0
O457 O 0.98295 0.54154 0.5702 0.0
O458 O 1.00679 0.5136 0.48595 0.0
O459 O 0.0598 0.54306 0.50604 0.0
C460 C 0.02151 0.55215 0.78683 0.0
C461 C 0.03735 0.40555 0.77189 0.0
C462 C 0.01799 0.40252 0.71052 0.0
C463 C 0.98128 0.50557 0.90171 0.0
C464 C 0.9736 0.52585 0.9624 0.0
C465 C 0.98908 0.535 0.03179 0.0
C466 C 0.95054 0.53625 0.95112 0.0
C467 C 0.94281 0.55519 0.00932 0.0
C468 C 0.98146 0.55402 0.08925 0.0
C469 C 0.95835 0.56399 0.07865 0.0
C470 C 0.06624 0.51787 0.7071 0.0
C471 C 1.0117 0.49575 0.53942 0.0
C472 C 0.05098 0.5428 0.42274 0.0
C473 C 0.05889 0.52266 0.3618 0.0
C474 C 0.04345 0.51321 0.29279 0.0
C475 C 0.0821 0.5126 0.37278 0.0
C476 C 0.09003 0.49373 0.31477 0.0
C477 C 0.05129 0.49424 0.2354 0.0
C478 C 0.07458 0.48467 0.24559 0.0
C479 C 0.96711 0.52924 0.61951 0.0
H480 H 1.00699 0.52739 0.04228 0.0
H481 H 0.93817 0.52896 0.89968 0.0
H482 H 0.99333 0.56074 0.14319 0.0
H483 H 0.95236 0.57819 0.12581 0.0
H484 H 0.02541 0.52054 0.28263 0.0
H485 H 0.09441 0.52006 0.4241 0.0
H486 H 0.03945 0.48727 0.18179 0.0
H487 H 0.08075 0.47055 0.19846 0.0
C488 C 0.17697 0.04853 0.21467 0.0
C489 C 0.18706 0.02594 0.1901 0.0
C490 C 0.15664 0.05032 0.27427 0.0
C491 C 0.14626 0.02904 0.31196 0.0
C492 C 0.15706 1.00627 0.28989 0.0
C493 C 0.177 1.00499 0.22875 0.0
C494 C 0.14557 0.07492 0.29353 0.0
C495 C 0.1469 0.98307 0.32802 0.0
C496 C 0.104 0.03396 0.52303 0.0
C497 C 0.08082 0.03117 0.48372 0.0
C498 C 0.12527 0.03345 0.46836 0.0
C499 C 0.12361 0.03035 0.37117 0.0
C500 C 0.10021 0.02776 0.33103 0.0
C501 C 0.07926 0.0282 0.38742 0.0
C502 C 0.14963 0.03573 0.51503 0.0
C503 C 0.09711 0.02476 0.22807 0.0
H504 H 0.18422 0.06475 0.18357 0.0
H505 H 0.18442 0.98743 0.20914 0.0
H506 H 0.12696 0.07554 0.26432 0.0
H507 H 0.14396 0.07813 0.36895 0.0
H508 H 0.15636 0.08984 0.26332 0.0
H509 H 0.15832 0.96704 0.31017 0.0
H510 H 0.14532 0.98448 0.40419 0.0
H511 H 0.12839 0.98003 0.30015 0.0
H512 H 0.10561 0.03609 0.59719 0.0
H513 H 0.06157 0.02619 0.35565 0.0
H514 H 0.15971 0.05134 0.48666 0.0
H515 H 0.16063 0.0192 0.50087 0.0
H516 H 0.14798 0.03826 0.59091 0.0
H517 H 0.09938 0.04267 0.19505 0.0
H518 H 0.07888 0.01764 0.2099 0.0
H519 H 0.11095 1.01229 0.19837 0.0
C520 C 0.47607 0.15668 0.10803 0.0
C521 C 0.49327 0.17548 0.10816 0.0
C522 C 0.47634 0.13838 0.17527 0.0
C523 C 0.49464 0.13823 0.24414 0.0
C524 C 0.51163 0.15758 0.24637 0.0
C525 C 0.51063 0.17599 0.17914 0.0
C526 C 0.45754 0.11864 0.16914 0.0
C527 C 0.53149 0.15835 0.31791 0.0
C528 C 0.48791 0.09854 0.45954 0.0
C529 C 0.50214 0.07809 0.43695 0.0
C530 C 0.4851 0.11801 0.3977 0.0
C531 C 0.49682 0.1173 0.31049 0.0
C532 C 0.51077 0.09644 0.28662 0.0
C533 C 0.51326 0.07725 0.34972 0.0
C534 C 0.46933 0.13929 0.42543 0.0
C535 C 0.52319 0.0944 0.19413 0.0
H536 H 0.46247 0.15605 0.05401 0.0
H537 H 0.52417 0.19021 0.17971 0.0
H538 H 0.46536 0.10303 0.13021 0.0
H539 H 0.45209 0.11235 0.23846 0.0
H540 H 0.44105 0.12479 0.13197 0.0
H541 H 0.54258 0.17509 0.31366 0.0
H542 H 0.5236 0.15729 0.38811 0.0
H543 H 0.5436 0.14238 0.30848 0.0
H544 H 0.47882 0.09933 0.52576 0.0
H545 H 0.52424 0.06163 0.33079 0.0
H546 H 0.45396 0.14089 0.37638 0.0
H547 H 0.47987 0.15637 0.422 0.0
H548 H 0.46192 0.13749 0.49625 0.0
H549 H 0.5095 0.0953 0.13815 0.0
H550 H 0.53358 0.07721 0.18606 0.0
H551 H 0.53576 0.10988 0.18515 0.0
C552 C 0.38677 0.49963 0.1666 0.0
C553 C 0.36439 0.51169 0.17919 0.0
C554 C 0.40565 0.50115 0.23237 0.0
C555 C 0.40248 0.51506 0.31454 0.0
C556 C 0.37956 0.52641 0.32972 0.0
C557 C 0.36085 0.52448 0.2626 0.0
C558 C 0.42947 0.4886 0.21177 0.0
C559 C 0.3749 0.54106 0.41622 0.0
C560 C 0.45144 0.50647 0.50338 0.0
C561 C 0.46761 0.52545 0.4847 0.0
C562 C 0.42965 0.50346 0.45204 0.0
C563 C 0.42393 0.51948 0.37874 0.0
C564 C 0.44005 0.53894 0.36157 0.0
C565 C 0.4615 0.54157 0.41395 0.0
C566 C 0.41308 0.48268 0.47464 0.0
C567 C 0.43501 0.55672 0.28554 0.0
H568 H 0.38978 0.48924 0.10363 0.0
H569 H 0.34379 0.53388 0.27384 0.0
H570 H 0.44391 0.50235 0.20285 0.0
H571 H 0.43485 0.47702 0.27042 0.0
H572 H 0.42862 0.47715 0.14823 0.0
H573 H 0.35716 0.55066 0.41444 0.0
H574 H 0.37498 0.52875 0.4761 0.0
H575 H 0.38948 0.55463 0.42698 0.0
H576 H 0.45609 0.49365 0.55669 0.0
H577 H 0.47384 0.55624 0.39846 0.0
H578 H 0.41316 0.46929 0.41684 0.0
H579 H 0.39418 0.48929 0.48303 0.0
H580 H 0.41865 0.47334 0.53877 0.0
H581 H 0.43547 0.54714 0.21779 0.0
H582 H 0.44843 0.57172 0.28435 0.0
H583 H 0.41661 0.56465 0.29397 0.0
C584 C 1.01185 0.36009 0.29382 0.0
C585 C 0.02215 0.36246 0.20569 0.0
C586 C 1.01137 0.37982 0.35823 0.0
C587 C 0.02167 0.40267 0.33545 0.0
C588 C 0.03325 0.40459 0.24834 0.0
C589 C 0.03318 0.38479 0.18512 0.0
C590 C 0.99869 0.37653 0.44905 0.0
C591 C 0.04494 0.42803 0.22003 0.0
C592 C 0.99639 0.46323 0.43159 0.0
C593 C 1.01349 0.47038 0.4986 0.0
C594 C 0.99831 0.44102 0.38213 0.0
C595 C 0.01829 0.42521 0.39705 0.0
C596 C 0.03556 0.43214 0.46578 0.0
C597 C 0.03301 0.45454 0.5153 0.0
C598 C 0.97913 0.43481 0.3115 0.0
C599 C 0.05729 0.41635 0.48477 0.0
H600 H 1.00305 0.34317 0.31082 0.0
H601 H 0.04135 0.38699 0.11776 0.0
H602 H 1.01008 0.3836 0.50632 0.0
H603 H 0.9815 0.38704 0.449 0.0
H604 H 0.99439 0.3572 0.46218 0.0
H605 H 0.0552 0.42614 0.15437 0.0
H606 H 0.03077 0.44214 0.2112 0.0
H607 H 0.05748 0.43449 0.27486 0.0
H608 H 0.98135 0.47533 0.41705 0.0
H609 H 0.0467 0.45996 0.56505 0.0
H610 H 0.97196 0.41633 0.32366 0.0
H611 H 0.98722 0.43479 0.24146 0.0
H612 H 0.96374 0.44788 0.31298 0.0
H613 H 0.05179 0.39711 0.4916 0.0
H614 H 0.06698 0.42213 0.54854 0.0
H615 H 0.07008 0.41734 0.42587 0.0
C616 C 0.8633 0.99204 0.10507 0.0
C617 C 0.85264 0.01426 0.13116 0.0
C618 C 0.88388 0.99106 0.04655 0.0
C619 C 0.89406 1.0128 0.01196 0.0
C620 C 0.88288 0.03523 0.03648 0.0
C621 C 0.86262 0.03569 0.09635 0.0
C622 C 0.89524 0.96675 0.02433 0.0
C623 C 0.89264 0.05888 1.00085 0.0
C624 C 0.96061 0.01568 0.93094 0.0
C625 C 0.95846 0.01381 0.83437 0.0
C626 C 0.94004 0.01467 0.98935 0.0
C627 C 0.91642 1.01222 0.95099 0.0
C628 C 0.91421 1.00991 0.85377 0.0
C629 C 0.9351 1.01036 0.79734 0.0
C630 C 0.94363 0.01658 0.09238 0.0
C631 C 0.88962 1.00749 0.80879 0.0
H632 H 0.85611 0.97545 0.13348 0.0
H633 H 0.85479 0.05295 0.11751 0.0
H634 H 0.89655 0.96406 0.94856 0.0
H635 H 0.91399 0.96618 0.05218 0.0
H636 H 0.88481 0.95146 0.05371 0.0
H637 H 0.88127 0.07465 0.02218 0.0
H638 H 0.91134 0.06177 0.02694 0.0
H639 H 0.89362 0.05823 0.92442 0.0
H640 H 0.97838 0.0183 0.96129 0.0
H641 H 0.93302 1.00813 0.7236 0.0
H642 H 0.93453 1.00125 0.12706 0.0
H643 H 0.93518 0.03357 0.11894 0.0
H644 H 0.96312 0.01655 0.11196 0.0
H645 H 0.87985 0.99167 0.83698 0.0
H646 H 0.89089 1.00529 0.73268 0.0
H647 H 0.87853 0.02386 0.82462 0.0
C648 C 0.55291 0.88456 0.13869 0.0
C649 C 0.53387 0.86793 0.15052 0.0
C650 C 0.55201 0.90261 0.07066 0.0
C651 C 0.53138 0.90458 0.01278 0.0
C652 C 0.51225 0.88758 0.02314 0.0
C653 C 0.51381 0.86938 0.09107 0.0
C654 C 0.57307 0.91989 0.06195 0.0
C655 C 0.48972 0.88911 0.96438 0.0
C656 C 0.51901 0.96705 0.90781 0.0
C657 C 0.52653 0.96393 0.8157 0.0
C658 C 0.52011 0.94792 0.97161 0.0
C659 C 0.52952 0.92495 0.94418 0.0
C660 C 0.53775 0.92181 0.85202 0.0
C661 C 0.53614 0.9412 0.78932 0.0
C662 C 0.51104 0.95234 0.06868 0.0
C663 C 0.54845 0.89796 0.81959 0.0
H664 H 0.56863 0.88352 0.18344 0.0
H665 H 0.49891 0.85685 0.09992 0.0
H666 H 0.57957 0.92017 0.98956 0.0
H667 H 0.56712 0.93858 0.0803 0.0
H668 H 0.58849 0.91494 0.10743 0.0
H669 H 0.47679 0.8742 0.97846 0.0
H670 H 0.48044 0.90672 0.97754 0.0
H671 H 0.49465 0.88847 0.89022 0.0
H672 H 0.51209 0.98446 0.93069 0.0
H673 H 0.54266 0.93853 0.7195 0.0
H674 H 0.52614 0.95009 0.11848 0.0
H675 H 0.49698 0.93877 0.08597 0.0
H676 H 0.50321 0.9708 0.07829 0.0
H677 H 0.56453 0.89341 0.86212 0.0
H678 H 0.554 0.89832 0.74597 0.0
H679 H 0.53506 0.88319 0.82856 0.0
C680 C 0.64704 0.54591 0.16439 0.0
C681 C 0.66892 0.53313 0.15052 0.0
C682 C 0.62782 0.54485 0.10005 0.0
C683 C 0.63009 0.53072 0.01808 0.0
C684 C 0.65253 0.51852 1.00188 0.0
C685 C 0.67161 0.51993 0.0676 0.0
C686 C 0.60459 0.55814 0.12202 0.0
C687 C 0.65608 0.50319 0.91651 0.0
C688 C 0.57029 0.50612 0.91706 0.0
C689 C 0.56484 0.52238 0.84592 0.0
C690 C 0.5916 0.5082 0.97073 0.0
C691 C 0.6083 0.52723 0.95447 0.0
C692 C 0.60303 0.54366 0.88198 0.0
C693 C 0.5813 0.54128 0.82976 0.0
C694 C 0.59575 0.49035 0.04728 0.0
C695 C 0.62012 0.56411 0.86058 0.0
H696 H 0.64469 0.55645 0.2274 0.0
H697 H 0.68824 0.50982 0.05583 0.0
H698 H 0.59949 0.56999 0.06383 0.0
H699 H 0.58976 0.54481 0.13124 0.0
H700 H 0.60598 0.56946 0.18574 0.0
H701 H 0.67516 0.497 0.90809 0.0
H702 H 0.64417 0.48703 0.91961 0.0
H703 H 0.65074 0.51372 0.85537 0.0
H704 H 0.5576 0.49167 0.9315 0.0
H705 H 0.57707 0.55437 0.77695 0.0
H706 H 0.59341 0.49973 0.11488 0.0
H707 H 0.61453 0.48309 0.04471 0.0
H708 H 0.58292 0.47487 0.04372 0.0
H709 H 0.61976 0.57766 0.91783 0.0
H710 H 0.61518 0.57338 0.79558 0.0
H711 H 0.63898 0.5572 0.85456 0.0
C712 C 1.00135 0.66171 0.14759 0.0
C713 C 1.00126 0.68584 0.11537 0.0
C714 C 1.00377 0.64135 0.08788 0.0
C715 C 1.00773 0.64443 0.9921 0.0
C716 C 1.00892 0.66863 0.95908 0.0
C717 C 1.00533 0.68884 0.02009 0.0
C718 C 1.00153 0.61632 0.12782 0.0
C719 C 0.01418 0.67324 0.85897 0.0
C720 C 0.03726 0.58788 0.87873 0.0
C721 C 0.01837 0.57746 0.82664 0.0
C722 C 0.03456 0.61043 0.92564 0.0
C723 C 1.01164 0.62228 0.92885 0.0
C724 C 0.99218 0.61145 0.87825 0.0
C725 C 0.99591 0.58963 0.82631 0.0
C726 C 0.05638 0.62135 0.97308 0.0
C727 C 0.96694 0.62193 0.88391 0.0
H728 H 0.99943 0.65842 0.22059 0.0
H729 H 1.00541 0.70698 0.99236 0.0
H730 H 0.9885 0.60556 0.08621 0.0
H731 H 0.01927 0.60683 0.12479 0.0
H732 H 0.99525 0.61675 0.20063 0.0
H733 H 0.01514 0.6929 0.84352 0.0
H734 H 0.0317 0.66461 0.83977 0.0
H735 H 0.99992 0.66486 0.81521 0.0
H736 H 0.05451 0.57841 0.88178 0.0
H737 H 0.98083 0.58133 0.78988 0.0
H738 H 0.05482 0.61904 0.04866 0.0
H739 H 0.05742 0.6411 0.9596 0.0
H740 H 0.07356 0.61265 0.94975 0.0
H741 H 0.95971 0.61929 0.95452 0.0
H742 H 0.95437 0.61314 0.83387 0.0
H743 H 0.96717 0.64172 0.87129 0.0
C744 C 0.06883 0.24908 0.30207 0.0
C745 C 0.07823 0.24112 0.21661 0.0
C746 C 0.06484 0.23219 0.37192 0.0
C747 C 0.06981 0.20751 0.3526 0.0
C748 C 0.08626 0.20161 0.28089 0.0
C749 C 0.09155 0.21934 0.21545 0.0
C750 C 0.05055 0.2397 0.45609 0.0
C751 C 0.09431 0.17582 0.26309 0.0
C752 C 0.03886 0.15346 0.46188 0.0
C753 C 0.01677 0.1531 0.41373 0.0
C754 C 0.0559 0.17189 0.44752 0.0
C755 C 0.05134 0.1893 0.37872 0.0
C756 C 0.02904 0.18856 0.329 0.0
C757 C 1.01192 0.17082 0.34882 0.0
C758 C 0.07857 0.17213 0.50583 0.0
C759 C 0.02358 0.2054 0.25034 0.0
H760 H 0.06048 0.26682 0.30907 0.0
H761 H 0.1015 0.21416 0.15375 0.0
H762 H 0.03087 0.23868 0.44038 0.0
H763 H 0.05445 0.22748 0.51464 0.0
H764 H 0.05479 0.25871 0.47666 0.0
H765 H 0.10894 0.1747 0.21048 0.0
H766 H 0.10098 0.16762 0.32775 0.0
H767 H 0.07866 0.16491 0.23817 0.0
H768 H 0.04273 0.13949 0.5118 0.0
H769 H 0.99508 0.17007 0.31013 0.0
H770 H 0.07373 0.1697 0.57949 0.0
H771 H 0.08917 0.1891 0.49953 0.0
H772 H 0.09022 0.15649 0.48564 0.0
H773 H 0.02374 0.22458 0.27406 0.0
H774 H 1.00566 0.20182 0.21789 0.0
H775 H 0.03762 0.2028 0.19685 0.0
C776 C 0.30583 0.07692 0.27895 0.0
C777 C 0.30883 0.08578 0.18923 0.0
C778 C 0.32488 0.07902 0.34313 0.0
C779 C 0.34733 0.08845 0.31313 0.0
C780 C 0.3476 0.10307 0.23336 0.0
C781 C 0.32751 0.10249 0.17407 0.0
C782 C 0.32228 0.0676 0.43643 0.0
C783 C 0.37034 0.11571 0.20186 0.0
C784 C 0.41302 0.07786 0.38057 0.0
C785 C 0.41722 0.05562 0.33572 0.0
C786 C 0.38947 0.08776 0.38447 0.0
C787 C 0.37021 0.07558 0.33832 0.0
C788 C 0.37449 0.05206 0.29949 0.0
C789 C 0.3979 0.04239 0.29984 0.0
C790 C 0.38581 0.11144 0.43582 0.0
C791 C 0.355 0.03754 0.2509 0.0
H792 H 0.29055 0.06537 0.29483 0.0
H793 H 0.32879 0.11107 0.10735 0.0
H794 H 0.3206 0.04762 0.42884 0.0
H795 H 0.33788 0.07189 0.48229 0.0
H796 H 0.30532 0.07421 0.46968 0.0
H797 H 0.36734 0.12633 0.13823 0.0
H798 H 0.37681 0.12829 0.25668 0.0
H799 H 0.38491 0.1022 0.18789 0.0
H800 H 0.42815 0.08779 0.41016 0.0
H801 H 0.40148 0.02502 0.26634 0.0
H802 H 0.36662 0.11752 0.43712 0.0
H803 H 0.39723 0.1257 0.40443 0.0
H804 H 0.39217 0.10942 0.50803 0.0
H805 H 0.34097 0.03199 0.30087 0.0
H806 H 0.36219 0.02076 0.21739 0.0
H807 H 0.34621 0.04863 0.19737 0.0
C808 C 0.51676 0.30448 0.23472 0.0
C809 C 0.5327 0.30312 0.15958 0.0
C810 C 0.51806 0.32418 0.29679 0.0
C811 C 0.53491 0.34286 0.27935 0.0
C812 C 0.55402 0.33868 0.2157 0.0
C813 C 0.55299 0.31827 0.1578 0.0
C814 C 0.49901 0.32692 0.37073 0.0
C815 C 0.57282 0.3578 0.19583 0.0
C816 C 0.51195 0.40604 0.24059 0.0
C817 C 0.52695 0.41932 0.3002 0.0
C818 C 0.51277 0.38072 0.23855 0.0
C819 C 0.52824 0.36835 0.30083 0.0
C820 C 0.54071 0.38155 0.36998 0.0
C821 C 0.54039 0.40696 0.36762 0.0
C822 C 0.49906 0.36757 0.16276 0.0
C823 C 0.5558 0.36911 0.44231 0.0
H824 H 0.50142 0.29224 0.23782 0.0
H825 H 0.56568 0.31657 0.10089 0.0
H826 H 0.50579 0.33799 0.42976 0.0
H827 H 0.48282 0.33615 0.34201 0.0
H828 H 0.49321 0.3089 0.39596 0.0
H829 H 0.58768 0.35067 0.15128 0.0
H830 H 0.56408 0.37325 0.16008 0.0
H831 H 0.58088 0.36489 0.26063 0.0
H832 H 0.50072 0.41548 0.19113 0.0
H833 H 0.55192 0.41691 0.41522 0.0
H834 H 0.48797 0.35273 0.19136 0.0
H835 H 0.51218 0.35943 0.11334 0.0
H836 H 0.48685 0.37984 0.12389 0.0
H837 H 0.5486 0.35086 0.45831 0.0
H838 H 0.55645 0.38018 0.50679 0.0
H839 H 0.57471 0.36699 0.41748 0.0
C840 C 0.22067 0.45122 0.21136 0.0
C841 C 0.23448 0.47252 0.21413 0.0
C842 C 0.19934 0.44957 0.26349 0.0
C843 C 0.1919 0.46982 0.31744 0.0
C844 C 0.20874 0.48857 0.33666 0.0
C845 C 0.23014 0.48966 0.28445 0.0
C846 C 0.1827 0.42832 0.24705 0.0
C847 C 0.20201 0.51001 0.3971 0.0
C848 C 0.13 0.49123 0.24096 0.0
C849 C 0.11563 0.4863 0.31726 0.0
C850 C 0.15485 0.48658 0.24213 0.0
C851 C 0.16557 0.4757 0.32068 0.0
C852 C 0.15099 0.4705 0.39842 0.0
C853 C 0.12608 0.47619 0.39619 0.0
C854 C 0.16926 0.49308 0.15757 0.0
C855 C 0.16128 0.45843 0.48267 0.0
H856 H 0.22443 0.43761 0.15852 0.0
H857 H 0.24113 0.50594 0.28801 0.0
H858 H 0.172 0.42435 0.30988 0.0
H859 H 0.16983 0.43274 0.19076 0.0
H860 H 0.19307 0.41184 0.22601 0.0
H861 H 0.21842 0.51949 0.42337 0.0
H862 H 0.19125 0.52308 0.35603 0.0
H863 H 0.19076 0.50437 0.4564 0.0
H864 H 0.12182 0.49942 0.18075 0.0
H865 H 0.11474 0.47257 0.4555 0.0
H866 H 0.17172 0.47651 0.11436 0.0
H867 H 0.18726 0.50057 0.17566 0.0
H868 H 0.15981 0.50686 0.11559 0.0
H869 H 0.16102 0.43848 0.47152 0.0
H870 H 0.15023 0.46267 0.54491 0.0
H871 H 0.18033 0.46385 0.49598 0.0
C872 C 0.99882 0.83675 0.96011 0.0
C873 C 1.01036 0.81667 0.99943 0.0
C874 C 1.01175 0.85219 0.90209 0.0
C875 C 0.03649 0.84716 0.88449 0.0
C876 C 0.04617 0.8242 0.90669 0.0
C877 C 0.03291 0.80907 0.96481 0.0
C878 C 1.00025 0.8757 0.8726 0.0
C879 C 0.07189 0.81745 0.88202 0.0
C880 C 0.07366 0.89728 0.7764 0.0
C881 C 0.08213 0.90948 0.85525 0.0
C882 C 0.05948 0.8763 0.78363 0.0
C883 C 0.05331 0.8678 0.87215 0.0
C884 C 0.06239 0.87989 0.95209 0.0
C885 C 0.07688 0.90047 0.94243 0.0
C886 C 0.0507 0.86417 0.69611 0.0
C887 C 0.05599 0.87176 0.04827 0.0
H888 H 0.981 0.84217 0.98461 0.0
H889 H 0.04166 0.79316 0.99317 0.0
H890 H 1.00641 0.89059 0.9192 0.0
H891 H 1.00586 0.88021 0.80136 0.0
H892 H 0.98014 0.87483 0.8756 0.0
H893 H 0.07471 0.79749 0.8839 0.0
H894 H 0.07659 0.8241 0.81233 0.0
H895 H 0.08446 0.82606 0.93241 0.0
H896 H 0.07796 0.90431 0.7091 0.0
H897 H 0.08328 0.91017 1.00323 0.0
H898 H 0.03706 0.8761 0.66329 0.0
H899 H 0.04247 0.84612 0.70733 0.0
H900 H 0.06599 0.86206 0.64678 0.0
H901 H 0.03607 0.87292 0.05833 0.0
H902 H 0.06485 0.88301 0.10269 0.0
H903 H 0.06151 0.85259 0.05789 0.0
C904 C 0.70643 0.95227 0.07524 0.0
C905 C 0.72765 0.96632 0.07832 0.0
C906 C 0.68959 0.95551 1.00383 0.0
C907 C 0.69535 0.97159 0.93181 0.0
C908 C 0.71965 0.97923 0.92135 0.0
C909 C 0.73561 0.97698 0.99626 0.0
C910 C 0.6642 0.94605 0.01681 0.0
C911 C 0.72723 0.9942 0.84011 0.0
C912 C 0.64459 0.99788 0.78374 0.0
C913 C 0.64046 0.01993 0.83022 0.0
C914 C 0.66254 0.98167 0.81487 0.0
C915 C 0.67587 0.9876 0.89559 0.0
C916 C 0.67091 1.0097 0.94375 0.0
C917 C 0.6535 0.02564 0.90966 0.0
C918 C 0.6678 0.95895 0.75917 0.0
C919 C 0.68409 0.01684 0.03124 0.0
H920 H 0.70094 0.94244 0.13608 0.0
H921 H 0.75257 0.98685 0.99497 0.0
H922 H 0.65348 0.95971 0.05649 0.0
H923 H 0.65493 0.94283 0.94997 0.0
H924 H 0.66431 0.92893 0.05643 0.0
H925 H 0.74706 0.99257 0.82765 0.0
H926 H 0.7173 0.98856 0.77681 0.0
H927 H 0.723 1.01359 0.85449 0.0
H928 H 0.63427 0.99368 0.72201 0.0
H929 H 0.64997 0.04272 0.94532 0.0
H930 H 0.67241 0.94343 0.8038 0.0
H931 H 0.68371 0.96221 0.71424 0.0
H932 H 0.65221 0.95387 0.71441 0.0
H933 H 0.68379 1.00165 0.08038 0.0
H934 H 0.6759 0.03304 0.06555 0.0
H935 H 0.70329 0.02104 0.0155 0.0
C936 C 0.56455 0.73105 0.06896 0.0
C937 C 0.5399 0.73448 0.08881 0.0
C938 C 0.57228 0.71001 0.02163 0.0
C939 C 0.55486 0.69226 0.99747 0.0
C940 C 0.52987 0.69838 0.99992 0.0
C941 C 0.52267 0.7197 0.04552 0.0
C942 C 0.59904 0.70487 0.01321 0.0
C943 C 0.51053 0.68056 0.97031 0.0
C944 C 0.55826 0.62661 0.92652 0.0
C945 C 0.55334 0.61592 0.01196 0.0
C946 C 0.56216 0.65171 0.92042 0.0
C947 C 0.56126 0.66612 1.00169 0.0
C948 C 0.5602 0.6547 0.08885 0.0
C949 C 0.55603 0.62978 0.09267 0.0
C950 C 0.56544 0.66298 0.82701 0.0
C951 C 0.55986 0.66872 0.17903 0.0
H952 H 0.57789 0.74284 0.10121 0.0
H953 H 0.50357 0.7228 0.05958 0.0
H954 H 0.60525 0.69474 0.07457 0.0
H955 H 0.60294 0.69357 0.95106 0.0
H956 H 0.60959 0.72198 0.00974 0.0
H957 H 0.4926 0.68953 0.96197 0.0
H958 H 0.51546 0.67151 0.90429 0.0
H959 H 0.50873 0.66632 0.02336 0.0
H960 H 0.55739 0.61565 0.86398 0.0
H961 H 0.55249 0.62176 0.15918 0.0
H962 H 0.56412 0.64935 0.77011 0.0
H963 H 0.5835 0.67174 0.82381 0.0
H964 H 0.55169 0.67736 0.81568 0.0
H965 H 0.57013 0.68588 0.17633 0.0
H966 H 0.5677 0.65768 0.23525 0.0
H967 H 0.54075 0.67286 0.19746 0.0
C968 C 0.80305 0.5574 0.04288 0.0
C969 C 0.79836 0.57408 0.11445 0.0
C970 C 0.82433 0.55932 0.99029 0.0
C971 C 0.84074 0.57837 0.01066 0.0
C972 C 0.83285 0.59815 0.06614 0.0
C973 C 0.81165 0.5957 0.11858 0.0
C974 C 0.83144 0.53856 0.92719 0.0
C975 C 0.84895 0.61978 0.08347 0.0
C976 C 0.90308 0.55768 0.08483 0.0
C977 C 0.91721 0.56271 0.00796 0.0
C978 C 0.87821 0.5622 0.08469 0.0
C979 C 0.86721 0.57313 0.00683 0.0
C980 C 0.88161 0.57876 0.92904 0.0
C981 C 0.90651 0.57293 0.92975 0.0
C982 C 0.86402 0.55531 0.16932 0.0
C983 C 0.871 0.59048 0.84466 0.0
H984 H 0.79244 0.54089 0.0382 0.0
H985 H 0.80763 0.60896 0.1724 0.0
H986 H 0.84097 0.54532 0.86538 0.0
H987 H 0.84403 0.52629 0.96419 0.0
H988 H 0.81538 0.52787 0.90479 0.0
H989 H 0.83813 0.63594 0.10484 0.0
H990 H 0.86185 0.61557 0.13988 0.0
H991 H 0.85961 0.62415 0.02094 0.0
H992 H 0.91145 0.54941 0.1445 0.0
H993 H 0.91761 0.5765 0.86972 0.0
H994 H 0.84629 0.54722 0.15104 0.0
H995 H 0.86097 0.57183 0.21228 0.0
H996 H 0.87387 0.54187 0.21157 0.0
H997 H 0.86519 0.57611 0.79529 0.0
H998 H 0.88475 0.60175 0.8093 0.0
H999 H 0.85501 0.60197 0.86159 0.0
C1000 C 1.00757 0.20178 0.94386 0.0
C1001 C 0.03147 0.21068 0.94847 0.0
C1002 C 1.00224 0.17835 0.90561 0.0
C1003 C 0.02125 0.16273 0.87336 0.0
C1004 C 0.04521 0.17208 0.87533 0.0
C1005 C 0.04986 0.19566 0.9108 0.0
C1006 C 0.97614 0.17034 0.90183 0.0
C1007 C 0.06641 0.15664 0.84442 0.0
C1008 C 1.0119 0.0928 0.85026 0.0
C1009 C 1.01287 0.08876 0.75416 0.0
C1010 C 0.01468 0.11642 0.89028 0.0
C1011 C 0.0165 0.13721 0.83343 0.0
C1012 C 0.01489 0.1334 0.73665 0.0
C1013 C 0.01385 0.10951 0.69847 0.0
C1014 C 0.0156 0.11914 0.99374 0.0
C1015 C 0.01368 0.15475 0.6731 0.0
H1016 H 0.99305 0.21272 0.97305 0.0
H1017 H 0.06843 0.20206 0.91267 0.0
H1018 H 0.97259 0.15835 0.84128 0.0
H1019 H 0.97182 0.16011 0.96508 0.0
H1020 H 0.96365 0.18617 0.89903 0.0
H1021 H 0.08369 0.16696 0.84335 0.0
H1022 H 0.06849 0.14134 0.89274 0.0
H1023 H 0.06318 0.14887 0.7746 0.0
H1024 H 1.00892 0.07743 0.89453 0.0
H1025 H 1.01294 0.10714 0.62431 0.0
H1026 H 1.00078 0.13126 0.01788 0.0
H1027 H 0.03299 0.12771 0.01455 0.0
H1028 H 0.01385 0.10146 0.029 0.0
H1029 H 1.00481 0.14973 0.6072 0.0
H1030 H 0.0323 0.16131 0.65924 0.0
H1031 H 1.00324 0.17002 0.70429 0.0
C1032 C 0.35661 0.02919 0.97849 0.0
C1033 C 0.33508 0.03409 0.93011 0.0
C1034 C 0.37898 0.02543 0.93378 0.0
C1035 C 0.38038 0.02606 0.83605 0.0
C1036 C 0.35836 0.02932 0.78585 0.0
C1037 C 0.33611 0.03364 0.83327 0.0
C1038 C 0.40098 0.02185 0.99412 0.0
C1039 C 0.35826 0.02836 0.68185 0.0
C1040 C 0.44204 0.03818 0.71677 0.0
C1041 C 0.45193 0.01472 0.70894 0.0
C1042 C 0.41898 0.04227 0.75825 0.0
C1043 C 0.40459 0.02234 0.78744 0.0
C1044 C 0.41415 0.9986 0.77528 0.0
C1045 C 0.4376 0.99518 0.73819 0.0
C1046 C 0.41029 0.06798 0.77304 0.0
C1047 C 0.39972 0.97664 0.80302 0.0
H1048 H 0.35617 0.02924 0.05303 0.0
H1049 H 0.31973 0.03745 0.79463 0.0
H1050 H 0.39655 1.00976 0.05248 0.0
H1051 H 0.41674 0.01409 0.95684 0.0
H1052 H 0.4062 0.03964 0.02456 0.0
H1053 H 0.33956 0.02769 0.65339 0.0
H1054 H 0.3674 0.04463 0.65441 0.0
H1055 H 0.36847 1.0122 0.65656 0.0
H1056 H 0.45235 0.05335 0.69097 0.0
H1057 H 0.44469 0.97688 0.73111 0.0
H1058 H 0.40677 0.07126 0.84756 0.0
H1059 H 0.39296 0.07091 0.73609 0.0
H1060 H 0.42368 0.0815 0.74876 0.0
H1061 H 0.39852 0.97599 0.87932 0.0
H1062 H 0.40808 0.95943 0.77779 0.0
H1063 H 0.38094 0.97783 0.77573 0.0
C1064 C 0.52766 0.33372 0.81227 0.0
C1065 C 0.50653 0.32277 0.8464 0.0
C1066 C 0.52729 0.35715 0.77377 0.0
C1067 C 0.50518 0.37031 0.76823 0.0
C1068 C 0.48347 0.35859 0.79612 0.0
C1069 C 0.48442 0.33516 0.83554 0.0
C1070 C 0.55101 0.36859 0.74638 0.0
C1071 C 0.45936 0.37147 0.79029 0.0
C1072 C 0.50903 0.43973 0.79244 0.0
C1073 C 0.50841 0.4476 0.70064 0.0
C1074 C 0.50789 0.4149 0.81483 0.0
C1075 C 0.5054 0.39705 0.74399 0.0
C1076 C 0.50428 0.4049 0.65093 0.0
C1077 C 0.50625 0.42995 0.63028 0.0
C1078 C 0.50979 0.40777 0.91486 0.0
C1079 C 0.50052 0.38684 0.5733 0.0
H1080 H 0.54492 0.32465 0.82242 0.0
H1081 H 0.46808 0.32728 0.8638 0.0
H1082 H 0.54937 0.37734 0.67825 0.0
H1083 H 0.55582 0.38295 0.79748 0.0
H1084 H 0.56606 0.35515 0.74329 0.0
H1085 H 0.44392 0.35879 0.79904 0.0
H1086 H 0.45826 0.38562 0.84525 0.0
H1087 H 0.45745 0.38068 0.72307 0.0
H1088 H 0.51109 0.45309 0.84732 0.0
H1089 H 0.50555 0.43577 0.5592 0.0
H1090 H 0.52563 0.39557 0.9245 0.0
H1091 H 0.4934 0.39758 0.93559 0.0
H1092 H 0.51181 0.42373 0.96179 0.0
H1093 H 0.50112 0.39549 0.5046 0.0
H1094 H 0.48262 0.37797 0.58139 0.0
H1095 H 0.51445 0.37232 0.57594 0.0
C1096 C 0.20326 0.48434 0.86729 0.0
C1097 C 0.21568 0.50395 0.90863 0.0
C1098 C 0.18038 0.48725 0.82432 0.0
C1099 C 0.16907 0.51042 0.8222 0.0
C1100 C 0.18213 0.53056 0.85916 0.0
C1101 C 0.20511 0.52711 0.90188 0.0
C1102 C 0.16755 0.46507 0.78692 0.0
C1103 C 0.17118 0.55565 0.8587 0.0
C1104 C 0.1117 0.51935 0.67055 0.0
C1105 C 0.09272 0.51627 0.73431 0.0
C1106 C 0.13647 0.51751 0.69739 0.0
C1107 C 0.14275 0.51293 0.79088 0.0
C1108 C 0.12357 0.51007 0.85517 0.0
C1109 C 0.09913 0.51186 0.82643 0.0
C1110 C 0.15595 0.52045 0.62543 0.0
C1111 C 0.12876 0.50537 0.95547 0.0
H1112 H 0.21089 0.46627 0.87348 0.0
H1113 H 0.21404 0.54234 0.93537 0.0
H1114 H 0.15201 0.46071 0.83235 0.0
H1115 H 0.16016 0.46858 0.71719 0.0
H1116 H 0.17973 0.44899 0.78297 0.0
H1117 H 0.18455 0.56981 0.87874 0.0
H1118 H 0.1639 0.55984 0.78933 0.0
H1119 H 0.15578 0.5565 0.9079 0.0
H1120 H 0.1072 0.52286 0.59919 0.0
H1121 H 0.08495 0.51027 0.87739 0.0
H1122 H 0.16864 0.50479 0.62665 0.0
H1123 H 0.16669 0.53698 0.64126 0.0
H1124 H 0.14832 0.52198 0.5548 0.0
H1125 H 0.14154 0.48991 0.96252 0.0
H1126 H 0.11206 0.50133 0.99524 0.0
H1127 H 0.13746 0.52164 0.98655 0.0
C1128 C 0.01919 0.86455 0.29447 0.0
C1129 C 1.00748 0.84328 0.32459 0.0
C1130 C 0.01932 0.88646 0.34578 0.0
C1131 C 1.00978 0.88742 0.43686 0.0
C1132 C 0.99989 0.86535 0.47211 0.0
C1133 C 0.9983 0.84399 0.41528 0.0
C1134 C 0.02919 0.90846 0.29751 0.0
C1135 C 0.99088 0.86354 0.56995 0.0
C1136 C 0.03432 0.94433 0.56702 0.0
C1137 C 1.01327 0.95791 0.58666 0.0
C1138 C 0.03338 0.92123 0.52273 0.0
C1139 C 1.01077 0.91119 0.49351 0.0
C1140 C 0.9894 0.92498 0.51345 0.0
C1141 C 0.99088 0.94753 0.5622 0.0
C1142 C 0.05702 0.90805 0.5054 0.0
C1143 C 0.96481 0.91627 0.48203 0.0
H1144 H 0.02816 0.86457 0.22813 0.0
H1145 H 0.98962 0.82795 0.44216 0.0
H1146 H 0.01893 0.91131 0.23258 0.0
H1147 H 0.02823 0.92536 0.33895 0.0
H1148 H 0.04837 0.90508 0.27752 0.0
H1149 H 0.9997 0.84786 0.60385 0.0
H1150 H 0.99433 0.88005 0.61229 0.0
H1151 H 0.9711 0.85984 0.56927 0.0
H1152 H 0.05173 0.95163 0.58783 0.0
H1153 H 0.9744 0.95722 0.58033 0.0
H1154 H 0.06425 0.91325 0.43718 0.0
H1155 H 0.05472 0.88806 0.50582 0.0
H1156 H 0.07093 0.91329 0.55709 0.0
H1157 H 0.96564 0.90931 0.4099 0.0
H1158 H 0.95092 0.93087 0.4864 0.0
H1159 H 0.95873 0.9013 0.5266 0.0
C1160 C 0.67924 0.01731 0.3042 0.0
C1161 C 0.70042 1.01165 0.35362 0.0
C1162 C 0.65674 0.02144 0.3475 0.0
C1163 C 0.65492 0.02106 0.44516 0.0
C1164 C 0.67678 0.01755 0.49642 0.0
C1165 C 0.69906 1.01247 0.4503 0.0
C1166 C 0.63492 0.02454 0.2858 0.0
C1167 C 0.67711 0.01863 0.6001 0.0
C1168 C 0.59539 0.05102 0.52555 0.0
C1169 C 0.58104 0.03126 0.55255 0.0
C1170 C 0.61982 0.04814 0.498 0.0
C1171 C 0.6303 0.02465 0.49131 0.0
C1172 C 0.61628 1.00465 0.52202 0.0
C1173 C 0.59223 1.0083 0.55512 0.0
C1174 C 0.63434 0.07037 0.47434 0.0
C1175 C 0.62648 0.97926 0.51764 0.0
H1176 H 0.67997 0.0175 0.22978 0.0
H1177 H 0.71516 1.00838 0.4902 0.0
H1178 H 0.62811 1.00627 0.26626 0.0
H1179 H 0.61998 0.03486 0.31888 0.0
H1180 H 0.63993 0.03384 0.22102 0.0
H1181 H 0.6929 0.02939 0.62471 0.0
H1182 H 0.66036 0.02668 0.62952 0.0
H1183 H 0.67943 1.00001 0.62662 0.0
H1184 H 0.58751 0.06907 0.52661 0.0
H1185 H 0.58199 0.99306 0.58074 0.0
H1186 H 0.63676 0.07125 0.39852 0.0
H1187 H 0.65264 0.06938 0.50611 0.0
H1188 H 0.62529 0.08736 0.4982 0.0
H1189 H 0.63153 0.97459 0.44544 0.0
H1190 H 0.61341 0.96557 0.54293 0.0
H1191 H 0.64325 0.97822 0.55965 0.0
C1192 C 0.53789 0.71387 0.46718 0.0
C1193 C 0.51847 0.72144 0.4117 0.0
C1194 C 0.53735 0.69141 0.51371 0.0
C1195 C 0.5169 0.67588 0.50492 0.0
C1196 C 0.49663 0.68425 0.45376 0.0
C1197 C 0.49774 0.70667 0.40753 0.0
C1198 C 0.55951 0.68349 0.56645 0.0
C1199 C 0.47434 0.6687 0.44195 0.0
C1200 C 0.52661 0.60682 0.50856 0.0
C1201 C 0.51884 0.60031 0.59704 0.0
C1202 C 0.52644 0.63113 0.47907 0.0
C1203 C 0.51784 0.6499 0.53858 0.0
C1204 C 0.5096 0.64347 0.62797 0.0
C1205 C 0.51012 0.61885 0.65592 0.0
C1206 C 0.53535 0.63667 0.38322 0.0
C1207 C 0.50013 0.6626 0.69397 0.0
H1208 H 0.5543 0.72467 0.46862 0.0
H1209 H 0.48291 0.71197 0.36289 0.0
H1210 H 0.55421 0.67563 0.6334 0.0
H1211 H 0.56919 0.66915 0.5265 0.0
H1212 H 0.57223 0.69876 0.57938 0.0
H1213 H 0.45898 0.67893 0.4114 0.0
H1214 H 0.47863 0.65303 0.39592 0.0
H1215 H 0.46851 0.66134 0.50923 0.0
H1216 H 0.53213 0.59276 0.46058 0.0
H1217 H 0.50386 0.61415 0.72422 0.0
H1218 H 0.54999 0.6504 0.3871 0.0
H1219 H 0.52039 0.64449 0.34179 0.0
H1220 H 0.54243 0.6203 0.34654 0.0
H1221 H 0.51436 0.67638 0.70756 0.0
H1222 H 0.4943 0.65481 0.76064 0.0
H1223 H 0.48448 0.67217 0.66269 0.0
C1224 C 0.82966 0.56098 0.46122 0.0
C1225 C 0.81779 0.54141 0.41737 0.0
C1226 C 0.85254 0.55825 0.50426 0.0
C1227 C 0.86441 0.53535 0.50349 0.0
C1228 C 0.85189 0.51519 0.46397 0.0
C1229 C 0.82889 0.51845 0.42143 0.0
C1230 C 0.86475 0.58035 0.54526 0.0
C1231 C 0.86344 0.49037 0.46176 0.0
C1232 C 0.93429 0.53566 0.50033 0.0
C1233 C 0.94069 0.53057 0.59189 0.0
C1234 C 0.90987 0.53712 0.47141 0.0
C1235 C 0.89071 0.53321 0.53493 0.0
C1236 C 0.89698 0.52794 0.62784 0.0
C1237 C 0.92174 0.52644 0.65482 0.0
C1238 C 0.90465 0.54256 0.3717 0.0
C1239 C 0.87755 0.52367 0.69898 0.0
H1240 H 0.8216 0.57891 0.45717 0.0
H1241 H 0.82033 0.50329 0.38605 0.0
H1242 H 0.87197 0.57635 0.61488 0.0
H1243 H 0.88036 0.58547 0.50134 0.0
H1244 H 0.85221 0.59612 0.55066 0.0
H1245 H 0.85054 0.47609 0.4386 0.0
H1246 H 0.87915 0.49038 0.41392 0.0
H1247 H 0.87041 0.48569 0.53112 0.0
H1248 H 0.94848 0.53801 0.4499 0.0
H1249 H 0.92623 0.52231 0.72567 0.0
H1250 H 0.92129 0.54732 0.33274 0.0
H1251 H 0.89153 0.55778 0.36638 0.0
H1252 H 0.89636 0.52635 0.33851 0.0
H1253 H 0.88493 0.52416 0.77031 0.0
H1254 H 0.86926 0.50562 0.68627 0.0
H1255 H 0.8629 0.53742 0.69369 0.0
loop_
_geom_bond_atom_site_label_1
_geom_bond_atom_site_label_2
_geom_bond_distance
_geom_bond_site_symmetry_2
_ccdc_geom_bond_type
H0 C1 0.949 . S
C1 H0 0.949 . S
C1 C2 1.395 . S
C1 C3 1.391 . S
C2 C1 1.395 . S
C2 C5 1.390 . S
C3 C1 1.391 . S
C3 C7 1.387 . S
C3 C8 1.491 . S
H4 C5 0.950 . S
C5 C2 1.390 . S
C5 H4 0.950 . S
C5 C6 1.378 . S
C6 C5 1.378 . S
C6 C7 1.409 . S
C7 C3 1.387 . S
C7 C6 1.409 . S
C7 H9 0.951 . S
C8 C3 1.491 . S
C8 C10 1.382 . S
C8 C12 1.404 . S
H9 C7 0.951 . S
C10 C8 1.382 . S
C10 C11 1.390 . S
C10 H15 0.949 . S
C11 C10 1.390 . S
C11 C16 1.399 . S
C12 C8 1.404 . S
C12 H13 0.950 . S
C12 C14 1.375 . S
H13 C12 0.950 . S
C14 C12 1.375 . S
C14 C16 1.382 . S
C14 H18 0.950 . S
H15 C10 0.949 . S
C16 C11 1.399 . S
C16 C14 1.382 . S
C16 H17 0.952 . S
H17 C16 0.952 . S
H18 C14 0.950 . S
H19 C20 0.949 . S
C20 H19 0.949 . S
C20 C21 1.395 . S
C20 C22 1.391 . S
C21 C20 1.395 . S
C21 C24 1.390 . S
C22 C20 1.391 . S
C22 C26 1.387 . S
C22 C27 1.491 . S
H23 C24 0.950 . S
C24 C21 1.390 . S
C24 H23 0.950 . S
C24 C25 1.378 . S
C25 C24 1.378 . S
C25 C26 1.409 . S
C26 C22 1.387 . S
C26 C25 1.409 . S
C26 H28 0.951 . S
C27 C22 1.491 . S
C27 C29 1.382 . S
C27 C31 1.404 . S
H28 C26 0.951 . S
C29 C27 1.382 . S
C29 C30 1.390 . S
C29 H34 0.949 . S
C30 C29 1.390 . S
C30 C35 1.399 . S
C31 C27 1.404 . S
C31 H32 0.950 . S
C31 C33 1.375 . S
H32 C31 0.950 . S
C33 C31 1.375 . S
C33 C35 1.382 . S
C33 H37 0.950 . S
H34 C29 0.949 . S
C35 C30 1.399 . S
C35 C33 1.382 . S
C35 H36 0.952 . S
H36 C35 0.952 . S
H37 C33 0.950 . S
H38 C39 0.949 . S
C39 H38 0.949 . S
C39 C40 1.395 . S
C39 C41 1.391 . S
C40 C39 1.395 . S
C40 C43 1.390 . S
C41 C39 1.391 . S
C41 C45 1.387 . S
C41 C46 1.491 . S
H42 C43 0.950 . S
C43 C40 1.390 . S
C43 H42 0.950 . S
C43 C44 1.378 . S
C44 C43 1.378 . S
C44 C45 1.409 . S
C45 C41 1.387 . S
C45 C44 1.409 . S
C45 H47 0.951 . S
C46 C41 1.491 . S
C46 C48 1.382 . S
C46 C50 1.404 . S
H47 C45 0.951 . S
C48 C46 1.382 . S
C48 C49 1.390 . S
C48 H53 0.949 . S
C49 C48 1.390 . S
C49 C54 1.399 . S
C50 C46 1.404 . S
C50 H51 0.950 . S
C50 C52 1.375 . S
H51 C50 0.950 . S
C52 C50 1.375 . S
C52 C54 1.382 . S
C52 H56 0.950 . S
H53 C48 0.949 . S
C54 C49 1.399 . S
C54 C52 1.382 . S
C54 H55 0.952 . S
H55 C54 0.952 . S
H56 C52 0.950 . S
H57 C58 0.949 . S
C58 H57 0.949 . S
C58 C59 1.395 . S
C58 C60 1.391 . S
C59 C58 1.395 . S
C59 C62 1.390 . S
C60 C58 1.391 . S
C60 C64 1.387 . S
C60 C65 1.491 . S
H61 C62 0.950 . S
C62 C59 1.390 . S
C62 H61 0.950 . S
C62 C63 1.378 . S
C63 C62 1.378 . S
C63 C64 1.409 . S
C64 C60 1.387 . S
C64 C63 1.409 . S
C64 H66 0.951 . S
C65 C60 1.491 . S
C65 C67 1.382 . S
C65 C69 1.404 . S
H66 C64 0.951 . S
C67 C65 1.382 . S
C67 C68 1.390 . S
C67 H72 0.949 . S
C68 C67 1.390 . S
C68 C73 1.399 . S
C69 C65 1.404 . S
C69 H70 0.950 . S
C69 C71 1.375 . S
H70 C69 0.950 . S
C71 C69 1.375 . S
C71 C73 1.382 . S
C71 H75 0.950 . S
H72 C67 0.949 . S
C73 C68 1.399 . S
C73 C71 1.382 . S
C73 H74 0.952 . S
H74 C73 0.952 . S
H75 C71 0.950 . S
H76 C77 0.949 . S
C77 H76 0.949 . S
C77 C78 1.395 . S
C77 C79 1.391 1_554 S
C78 C77 1.395 . S
C78 C81 1.390 1_554 S
C79 C77 1.391 1_556 S
C79 C83 1.387 . S
C79 C84 1.491 . S
H80 C81 0.950 . S
C81 C78 1.390 1_556 S
C81 H80 0.950 . S
C81 C82 1.378 . S
C82 C81 1.378 . S
C82 C83 1.409 . S
C83 C79 1.387 . S
C83 C82 1.409 . S
C83 H85 0.951 . S
C84 C79 1.491 . S
C84 C86 1.382 1_556 S
C84 C88 1.404 . S
H85 C83 0.951 . S
C86 C84 1.382 1_554 S
C86 C87 1.390 . S
C86 H91 0.949 . S
C87 C86 1.390 . S
C87 C92 1.399 1_554 S
C88 C84 1.404 . S
C88 H89 0.950 . S
C88 C90 1.375 . S
H89 C88 0.950 . S
C90 C88 1.375 . S
C90 C92 1.382 . S
C90 H94 0.950 . S
H91 C86 0.949 . S
C92 C87 1.399 1_556 S
C92 C90 1.382 . S
C92 H93 0.952 . S
H93 C92 0.952 . S
H94 C90 0.950 . S
H95 C96 0.949 . S
C96 H95 0.949 . S
C96 C97 1.395 . S
C96 C98 1.391 1_554 S
C97 C96 1.395 . S
C97 C100 1.390 1_554 S
C98 C96 1.391 1_556 S
C98 C102 1.387 . S
C98 C103 1.491 . S
H99 C100 0.950 . S
C100 C97 1.390 1_556 S
C100 H99 0.950 . S
C100 C101 1.378 . S
C101 C100 1.378 . S
C101 C102 1.409 . S
C102 C98 1.387 . S
C102 C101 1.409 . S
C102 H104 0.951 . S
C103 C98 1.491 . S
C103 C105 1.382 1_556 S
C103 C107 1.404 . S
H104 C102 0.951 . S
C105 C103 1.382 1_554 S
C105 C106 1.390 . S
C105 H110 0.949 . S
C106 C105 1.390 . S
C106 C111 1.399 1_554 S
C107 C103 1.404 . S
C107 H108 0.950 . S
C107 C109 1.375 . S
H108 C107 0.950 . S
C109 C107 1.375 . S
C109 C111 1.382 . S
C109 H113 0.950 . S
H110 C105 0.949 . S
C111 C106 1.399 1_556 S
C111 C109 1.382 . S
C111 H112 0.952 . S
H112 C111 0.952 . S
H113 C109 0.950 . S
H114 C115 0.949 . S
C115 H114 0.949 . S
C115 C116 1.395 . S
C115 C117 1.391 1_554 S
C116 C115 1.395 . S
C116 C119 1.390 1_554 S
C117 C115 1.391 1_556 S
C117 C121 1.387 . S
C117 C122 1.491 . S
H118 C119 0.950 . S
C119 C116 1.390 1_556 S
C119 H118 0.950 . S
C119 C120 1.378 . S
C120 C119 1.378 . S
C120 C121 1.409 . S
C121 C117 1.387 . S
C121 C120 1.409 . S
C121 H123 0.951 . S
C122 C117 1.491 . S
C122 C124 1.382 1_556 S
C122 C126 1.404 . S
H123 C121 0.951 . S
C124 C122 1.382 1_554 S
C124 C125 1.390 . S
C124 H129 0.949 . S
C125 C124 1.390 . S
C125 C130 1.399 1_554 S
C126 C122 1.404 . S
C126 H127 0.950 . S
C126 C128 1.375 . S
H127 C126 0.950 . S
C128 C126 1.375 . S
C128 C130 1.382 . S
C128 H132 0.950 . S
H129 C124 0.949 . S
C130 C125 1.399 1_556 S
C130 C128 1.382 . S
C130 H131 0.952 . S
H131 C130 0.952 . S
H132 C128 0.950 . S
H133 C134 0.949 . S
C134 H133 0.949 . S
C134 C135 1.395 . S
C134 C136 1.391 1_554 S
C135 C134 1.395 . S
C135 C138 1.390 1_554 S
C136 C134 1.391 1_556 S
C136 C140 1.387 . S
C136 C141 1.491 . S
H137 C138 0.950 . S
C138 C135 1.390 1_556 S
C138 H137 0.950 . S
C138 C139 1.378 . S
C139 C138 1.378 . S
C139 C140 1.409 . S
C140 C136 1.387 . S
C140 C139 1.409 . S
C140 H142 0.951 . S
C141 C136 1.491 . S
C141 C143 1.382 1_556 S
C141 C145 1.404 . S
H142 C140 0.951 . S
C143 C141 1.382 1_554 S
C143 C144 1.390 . S
C143 H148 0.949 . S
C144 C143 1.390 . S
C144 C149 1.399 1_554 S
C145 C141 1.404 . S
C145 H146 0.950 . S
C145 C147 1.375 . S
H146 C145 0.950 . S
C147 C145 1.375 . S
C147 C149 1.382 . S
C147 H151 0.950 . S
H148 C143 0.949 . S
C149 C144 1.399 1_556 S
C149 C147 1.382 . S
C149 H150 0.952 . S
H150 C149 0.952 . S
H151 C147 0.950 . S
Gd152 N183 2.661 . S
Gd152 N189 2.601 . S
Gd152 O196 2.545 . S
Gd152 O197 2.606 1_655 S
Gd152 O199 2.429 . S
Gd152 O200 2.545 1_655 S
Gd152 O201 2.413 . S
Gd152 O203 2.362 1_545 S
Gd152 O204 2.324 1_655 S
Gd152 C211 2.828 . S
Gd153 N162 2.661 1_565 S
Gd153 N166 2.601 1_565 S
Gd153 O197 2.362 1_565 S
Gd153 O198 2.324 1_455 S
Gd153 O202 2.545 . S
Gd153 O203 2.606 1_455 S
Gd153 O205 2.435 . S
Gd153 O206 2.545 . S
Gd153 O207 2.412 . S
Gd153 C220 2.828 . S
C154 C157 1.417 1_554 S
C154 C159 1.431 . S
C154 C160 1.412 . S
C155 C158 1.437 1_554 S
C155 C159 1.317 . S
C155 H174 0.929 . S
C156 C157 1.426 . S
C156 C158 1.413 . S
C156 N166 1.359 . S
C157 C154 1.417 1_556 S
C157 C156 1.426 . S
C157 N162 1.350 . S
C158 C155 1.437 1_556 S
C158 C156 1.413 . S
C158 C168 1.391 . S
C159 C154 1.431 . S
C159 C155 1.317 . S
C159 H170 0.930 . S
C160 C154 1.412 . S
C160 C161 1.355 . S
C160 H172 0.930 . S
C161 C160 1.355 . S
C161 C163 1.402 1_554 S
C161 H173 0.930 1_455 S
N162 Gd153 2.661 1_545 S
N162 C157 1.350 . S
N162 C163 1.307 . S
C163 C161 1.402 1_556 S
C163 N162 1.307 . S
C163 H164 0.930 1_455 S
H164 C163 0.930 1_655 S
C165 N166 1.334 1_565 S
C165 C167 1.394 . S
C165 H169 0.930 . S
N166 Gd153 2.601 1_545 S
N166 C156 1.359 . S
N166 C165 1.334 1_545 S
C167 C165 1.394 . S
C167 C168 1.359 1_565 S
C167 H179 0.930 . S
C168 C158 1.391 . S
C168 C167 1.359 1_545 S
C168 H180 0.929 . S
H169 C165 0.930 . S
H170 C159 0.930 . S
H171 C188 0.930 . S
H172 C160 0.930 . S
H173 C161 0.930 1_655 S
H174 C155 0.929 . S
H175 C193 0.930 . S
H176 C184 0.930 . S
H177 C185 0.930 . S
H178 C209 0.929 . S
H179 C167 0.930 . S
H180 C168 0.929 . S
H181 C210 0.930 . S
H182 C191 0.930 . S
N183 Gd152 2.661 . S
N183 C187 1.350 1_545 S
N183 C188 1.307 1_645 S
C184 H176 0.930 . S
C184 C185 1.355 1_655 S
C184 C186 1.412 . S
C185 H177 0.930 . S
C185 C184 1.355 1_455 S
C185 C188 1.402 . S
C186 C184 1.412 . S
C186 C187 1.417 . S
C186 C210 1.431 . S
C187 N183 1.350 1_565 S
C187 C186 1.417 . S
C187 C190 1.426 1_565 S
C188 H171 0.930 . S
C188 N183 1.307 1_465 S
C188 C185 1.402 . S
N189 Gd152 2.601 . S
N189 C190 1.359 . S
N189 C193 1.334 . S
C190 C187 1.426 1_545 S
C190 N189 1.359 . S
C190 C194 1.413 . S
C191 H182 0.930 . S
C191 C192 1.359 . S
C191 C193 1.394 . S
C192 C191 1.359 . S
C192 C194 1.391 . S
C192 H195 0.929 . S
C193 H175 0.930 . S
C193 N189 1.334 . S
C193 C191 1.394 . S
C194 C190 1.413 . S
C194 C192 1.391 . S
C194 C209 1.437 1_545 S
H195 C192 0.929 . S
O196 Gd152 2.545 . S
O196 C211 1.258 . S
O197 Gd152 2.606 1_455 S
O197 Gd153 2.362 1_545 S
O197 C208 1.284 . S
O198 Gd153 2.324 1_655 S
O198 C218 1.253 1_565 S
O199 Gd152 2.429 . S
O199 C218 1.268 . S
O200 Gd152 2.545 1_455 S
O200 C208 1.250 . S
O201 Gd152 2.413 . S
O201 C211 1.255 . S
O202 Gd153 2.545 . S
O202 C220 1.258 . S
O203 Gd152 2.362 1_565 S
O203 Gd153 2.606 1_655 S
O203 C219 1.284 . S
O204 Gd152 2.324 1_455 S
O204 C227 1.254 . S
O205 Gd153 2.435 . S
O205 C227 1.241 1_565 S
O206 Gd153 2.545 . S
O206 C219 1.250 1_455 S
O207 Gd153 2.412 . S
O207 C220 1.252 . S
C208 O197 1.284 . S
C208 O200 1.250 . S
C209 H178 0.929 . S
C209 C194 1.437 1_565 S
C209 C210 1.317 . S
C210 H181 0.930 . S
C210 C186 1.431 . S
C210 C209 1.317 . S
C211 Gd152 2.828 . S
C211 O196 1.258 . S
C211 O201 1.255 . S
C211 C212 1.497 . S
C212 C211 1.497 . S
C212 C213 1.395 . S
C212 C214 1.376 1_655 S
C213 C212 1.395 . S
C213 C216 1.398 . S
C213 H228 0.930 . S
C214 C212 1.376 1_455 S
C214 C215 1.391 1_455 S
C214 H229 0.935 . S
C215 C214 1.391 1_655 S
C215 C217 1.387 . S
C216 C213 1.398 . S
C216 C217 1.380 . S
C216 H230 0.930 . S
C217 C215 1.387 . S
C217 C216 1.380 . S
C217 H231 0.930 . S
C218 O198 1.253 1_545 S
C218 O199 1.268 . S
C219 O203 1.284 . S
C219 O206 1.250 1_655 S
C220 Gd153 2.828 . S
C220 O202 1.258 . S
C220 O207 1.252 . S
C220 C221 1.497 . S
C221 C220 1.497 . S
C221 C222 1.395 . S
C221 C223 1.380 . S
C222 C221 1.395 . S
C222 C225 1.398 . S
C222 H232 0.930 . S
C223 C221 1.380 . S
C223 C224 1.391 . S
C223 H233 0.930 1_455 S
C224 C223 1.391 . S
C224 C226 1.387 1_556 S
C225 C222 1.398 . S
C225 C226 1.380 1_556 S
C225 H234 0.930 . S
C226 C224 1.387 1_554 S
C226 C225 1.380 1_554 S
C226 H235 0.930 . S
C227 O204 1.254 . S
C227 O205 1.241 1_545 S
H228 C213 0.930 . S
H229 C214 0.935 . S
H230 C216 0.930 . S
H231 C217 0.930 . S
H232 C222 0.930 . S
H233 C223 0.930 1_655 S
H234 C225 0.930 . S
H235 C226 0.930 . S
Gd236 N267 2.661 . S
Gd236 N273 2.601 . S
Gd236 O280 2.545 . S
Gd236 O281 2.606 1_565 S
Gd236 O283 2.429 . S
Gd236 O284 2.545 1_565 S
Gd236 O285 2.412 1_565 S
Gd236 O287 2.357 1_565 S
Gd236 O288 2.324 1_565 S
Gd236 C295 2.828 . S
Gd237 N246 2.661 . S
Gd237 N250 2.601 . S
Gd237 O281 2.362 . S
Gd237 O282 2.324 1_545 S
Gd237 O286 2.545 . S
Gd237 O287 2.625 . S
Gd237 O289 2.429 . S
Gd237 O290 2.545 . S
Gd237 O291 2.412 . S
Gd237 C304 2.828 . S
C238 C241 1.417 1_554 S
C238 C243 1.431 . S
C238 C244 1.412 . S
C239 C242 1.437 1_554 S
C239 C243 1.317 . S
C239 H258 0.929 . S
C240 C241 1.426 . S
C240 C242 1.413 . S
C240 N250 1.359 . S
C241 C238 1.417 1_556 S
C241 C240 1.426 . S
C241 N246 1.350 . S
C242 C239 1.437 1_556 S
C242 C240 1.413 . S
C242 C252 1.391 . S
C243 C238 1.431 . S
C243 C239 1.317 . S
C243 H254 0.930 . S
C244 C238 1.412 . S
C244 C245 1.355 . S
C244 H256 0.930 . S
C245 C244 1.355 . S
C245 C247 1.402 1_554 S
C245 H257 0.930 1_545 S
N246 Gd237 2.661 . S
N246 C241 1.350 . S
N246 C247 1.307 . S
C247 C245 1.402 1_556 S
C247 N246 1.307 . S
C247 H248 0.930 1_545 S
H248 C247 0.930 1_565 S
C249 N250 1.334 . S
C249 C251 1.394 . S
C249 H253 0.930 . S
N250 Gd237 2.601 . S
N250 C240 1.359 . S
N250 C249 1.334 . S
C251 C249 1.394 . S
C251 C252 1.359 . S
C251 H263 0.930 . S
C252 C242 1.391 . S
C252 C251 1.359 . S
C252 H264 0.929 . S
H253 C249 0.930 . S
H254 C243 0.930 . S
H255 C272 0.930 . S
H256 C244 0.930 . S
H257 C245 0.930 1_565 S
H258 C239 0.929 . S
H259 C277 0.930 . S
H260 C268 0.930 . S
H261 C269 0.930 . S
H262 C293 0.929 . S
H263 C251 0.930 . S
H264 C252 0.929 . S
H265 C294 0.930 . S
H266 C275 0.930 . S
N267 Gd236 2.661 . S
N267 C271 1.350 . S
N267 C272 1.307 1_565 S
C268 H260 0.930 . S
C268 C269 1.355 1_565 S
C268 C270 1.412 . S
C269 H261 0.930 . S
C269 C268 1.355 1_545 S
C269 C272 1.402 . S
C270 C268 1.412 . S
C270 C271 1.417 . S
C270 C294 1.431 . S
C271 N267 1.350 . S
C271 C270 1.417 . S
C271 C274 1.426 . S
C272 H255 0.930 . S
C272 N267 1.307 1_545 S
C272 C269 1.402 . S
N273 Gd236 2.601 . S
N273 C274 1.359 . S
N273 C277 1.334 . S
C274 C271 1.426 . S
C274 N273 1.359 . S
C274 C278 1.413 . S
C275 H266 0.930 . S
C275 C276 1.359 . S
C275 C277 1.394 . S
C276 C275 1.359 . S
C276 C278 1.391 . S
C276 H279 0.929 . S
C277 H259 0.930 . S
C277 N273 1.334 . S
C277 C275 1.394 . S
C278 C274 1.413 . S
C278 C276 1.391 . S
C278 C293 1.437 . S
H279 C276 0.929 . S
O280 Gd236 2.545 . S
O280 C295 1.258 . S
O281 Gd236 2.606 1_545 S
O281 Gd237 2.362 . S
O281 C292 1.284 . S
O282 Gd237 2.324 1_565 S
O282 C302 1.254 . S
O283 Gd236 2.429 . S
O283 C302 1.268 . S
O284 Gd236 2.545 1_545 S
O284 C292 1.250 . S
O285 Gd236 2.412 1_545 S
O285 C295 1.252 1_545 S
O286 Gd237 2.545 . S
O286 C304 1.258 . S
O287 Gd236 2.357 1_545 S
O287 Gd237 2.625 . S
O287 C303 1.286 . S
O288 Gd236 2.324 1_545 S
O288 C311 1.254 . S
O289 Gd237 2.429 . S
O289 C311 1.268 . S
O290 Gd237 2.545 . S
O290 C303 1.250 . S
O291 Gd237 2.412 . S
O291 C304 1.252 . S
C292 O281 1.284 . S
C292 O284 1.250 . S
C293 H262 0.929 . S
C293 C278 1.437 . S
C293 C294 1.317 . S
C294 H265 0.930 . S
C294 C270 1.431 . S
C294 C293 1.317 . S
C295 Gd236 2.828 . S
C295 O280 1.258 . S
C295 O285 1.252 1_565 S
C295 C296 1.497 . S
C296 C295 1.497 . S
C296 C297 1.395 . S
C296 C298 1.380 1_565 S
C297 C296 1.395 . S
C297 C300 1.398 . S
C297 H312 0.930 . S
C298 C296 1.380 1_545 S
C298 C299 1.395 . S
C298 H313 0.930 . S
C299 C298 1.395 . S
C299 C301 1.345 1_545 S
C300 C297 1.398 . S
C300 C301 1.380 . S
C300 H314 0.930 . S
C301 C299 1.345 1_565 S
C301 C300 1.380 . S
C301 H315 0.930 . S
C302 O282 1.254 . S
C302 O283 1.268 . S
C303 O287 1.286 . S
C303 O290 1.250 . S
C304 Gd237 2.828 . S
C304 O286 1.258 . S
C304 O291 1.252 . S
C304 C305 1.497 . S
C305 C304 1.497 . S
C305 C306 1.395 . S
C305 C307 1.380 . S
C306 C305 1.395 . S
C306 C309 1.398 . S
C306 H316 0.930 . S
C307 C305 1.380 . S
C307 C308 1.391 . S
C307 H317 0.930 . S
C308 C307 1.391 . S
C308 C310 1.387 1_556 S
C309 C306 1.398 . S
C309 C310 1.380 1_556 S
C309 H318 0.930 . S
C310 C308 1.387 1_554 S
C310 C309 1.380 1_554 S
C310 H319 0.930 . S
C311 O288 1.254 . S
C311 O289 1.268 . S
H312 C297 0.930 . S
H313 C298 0.930 . S
H314 C300 0.930 . S
H315 C301 0.930 . S
H316 C306 0.930 . S
H317 C307 0.930 . S
H318 C309 0.930 . S
H319 C310 0.930 . S
Gd320 N351 2.661 . S
Gd320 N357 2.601 . S
Gd320 O364 2.545 . S
Gd320 O365 2.606 . S
Gd320 O367 2.429 . S
Gd320 O368 2.545 . S
Gd320 O369 2.412 . S
Gd320 O371 2.362 . S
Gd320 O372 2.324 . S
Gd320 C379 2.828 . S
Gd321 N330 2.661 . S
Gd321 N334 2.601 . S
Gd321 O365 2.362 . S
Gd321 O366 2.324 . S
Gd321 O370 2.545 . S
Gd321 O371 2.606 . S
Gd321 O373 2.429 . S
Gd321 O374 2.545 . S
Gd321 O375 2.412 . S
Gd321 C388 2.828 . S
C322 C325 1.417 . S
C322 C327 1.431 . S
C322 C328 1.412 . S
C323 C326 1.437 . S
C323 C327 1.317 . S
C323 H342 0.929 . S
C324 C325 1.426 . S
C324 C326 1.413 . S
C324 N334 1.359 . S
C325 C322 1.417 . S
C325 C324 1.426 . S
C325 N330 1.350 . S
C326 C323 1.437 . S
C326 C324 1.413 . S
C326 C336 1.391 . S
C327 C322 1.431 . S
C327 C323 1.317 . S
C327 H338 0.930 . S
C328 C322 1.412 . S
C328 C329 1.355 . S
C328 H340 0.930 . S
C329 C328 1.355 . S
C329 C331 1.402 . S
C329 H341 0.930 . S
N330 Gd321 2.661 . S
N330 C325 1.350 . S
N330 C331 1.307 . S
C331 C329 1.402 . S
C331 N330 1.307 . S
C331 H332 0.930 . S
H332 C331 0.930 . S
C333 N334 1.334 . S
C333 C335 1.394 . S
C333 H337 0.930 . S
N334 Gd321 2.601 . S
N334 C324 1.359 . S
N334 C333 1.334 . S
C335 C333 1.394 . S
C335 C336 1.359 . S
C335 H347 0.930 . S
C336 C326 1.391 . S
C336 C335 1.359 . S
C336 H348 0.929 . S
H337 C333 0.930 . S
H338 C327 0.930 . S
H339 C356 0.930 . S
H340 C328 0.930 . S
H341 C329 0.930 . S
H342 C323 0.929 . S
H343 C361 0.930 . S
H344 C352 0.930 . S
H345 C353 0.930 . S
H346 C377 0.929 . S
H347 C335 0.930 . S
H348 C336 0.929 . S
H349 C378 0.930 . S
H350 C359 0.930 . S
N351 Gd320 2.661 . S
N351 C355 1.350 . S
N351 C356 1.307 . S
C352 H344 0.930 . S
C352 C353 1.355 . S
C352 C354 1.412 . S
C353 H345 0.930 . S
C353 C352 1.355 . S
C353 C356 1.402 . S
C354 C352 1.412 . S
C354 C355 1.417 . S
C354 C378 1.431 . S
C355 N351 1.350 . S
C355 C354 1.417 . S
C355 C358 1.426 . S
C356 H339 0.930 . S
C356 N351 1.307 . S
C356 C353 1.402 . S
N357 Gd320 2.601 . S
N357 C358 1.359 . S
N357 C361 1.334 . S
C358 C355 1.426 . S
C358 N357 1.359 . S
C358 C362 1.413 . S
C359 H350 0.930 . S
C359 C360 1.359 . S
C359 C361 1.394 . S
C360 C359 1.359 . S
C360 C362 1.391 . S
C360 H363 0.929 . S
C361 H343 0.930 . S
C361 N357 1.334 . S
C361 C359 1.394 . S
C362 C358 1.413 . S
C362 C360 1.391 . S
C362 C377 1.437 . S
H363 C360 0.929 . S
O364 Gd320 2.545 . S
O364 C379 1.258 . S
O365 Gd320 2.606 . S
O365 Gd321 2.362 . S
O365 C376 1.284 . S
O366 Gd321 2.324 . S
O366 C386 1.254 . S
O367 Gd320 2.429 . S
O367 C386 1.268 . S
O368 Gd320 2.545 . S
O368 C376 1.250 . S
O369 Gd320 2.412 . S
O369 C379 1.252 . S
O370 Gd321 2.545 . S
O370 C388 1.258 . S
O371 Gd320 2.362 . S
O371 Gd321 2.606 . S
O371 C387 1.284 . S
O372 Gd320 2.324 . S
O372 C395 1.254 . S
O373 Gd321 2.429 . S
O373 C395 1.268 . S
O374 Gd321 2.545 . S
O374 C387 1.250 . S
O375 Gd321 2.412 . S
O375 C388 1.252 . S
C376 O365 1.284 . S
C376 O368 1.250 . S
C377 H346 0.929 . S
C377 C362 1.437 . S
C377 C378 1.317 . S
C378 H349 0.930 . S
C378 C354 1.431 . S
C378 C377 1.317 . S
C379 Gd320 2.828 . S
C379 O364 1.258 . S
C379 O369 1.252 . S
C379 C380 1.497 . S
C380 C379 1.497 . S
C380 C381 1.395 1_556 S
C380 C382 1.380 . S
C381 C380 1.395 1_554 S
C381 C384 1.398 . S
C381 H396 0.930 . S
C382 C380 1.380 . S
C382 C383 1.391 1_556 S
C382 H397 0.930 . S
C383 C382 1.391 1_554 S
C383 C385 1.387 . S
C384 C381 1.398 . S
C384 C385 1.380 . S
C384 H398 0.930 . S
C385 C383 1.387 . S
C385 C384 1.380 . S
C385 H399 0.930 . S
C386 O366 1.254 . S
C386 O367 1.268 . S
C387 O371 1.284 . S
C387 O374 1.250 . S
C388 Gd321 2.828 . S
C388 O370 1.258 . S
C388 O375 1.252 . S
C388 C389 1.497 . S
C389 C388 1.497 . S
C389 C390 1.395 . S
C389 C391 1.380 . S
C390 C389 1.395 . S
C390 C393 1.398 . S
C390 H400 0.930 . S
C391 C389 1.380 . S
C391 C392 1.391 . S
C391 H401 0.930 . S
C392 C391 1.391 . S
C392 C394 1.387 . S
C393 C390 1.398 . S
C393 C394 1.380 . S
C393 H402 0.930 . S
C394 C392 1.387 . S
C394 C393 1.380 . S
C394 H403 0.930 . S
C395 O372 1.254 . S
C395 O373 1.268 . S
H396 C381 0.930 . S
H397 C382 0.930 . S
H398 C384 0.930 . S
H399 C385 0.930 . S
H400 C390 0.930 . S
H401 C391 0.930 . S
H402 C393 0.930 . S
H403 C394 0.930 . S
Gd404 N435 2.661 . S
Gd404 N441 2.601 . S
Gd404 O448 2.545 . S
Gd404 O449 2.606 1_655 S
Gd404 O451 2.429 1_655 S
Gd404 O452 2.545 . S
Gd404 O453 2.412 . S
Gd404 O455 2.362 1_655 S
Gd404 O456 2.324 . S
Gd404 C463 2.828 . S
Gd405 N414 2.661 . S
Gd405 N418 2.601 . S
Gd405 O449 2.362 . S
Gd405 O450 2.324 . S
Gd405 O454 2.545 . S
Gd405 O455 2.606 . S
Gd405 O457 2.429 1_455 S
Gd405 O458 2.545 . S
Gd405 O459 2.412 . S
Gd405 C472 2.828 . S
C406 C409 1.417 . S
C406 C411 1.431 . S
C406 C412 1.412 . S
C407 C410 1.437 . S
C407 C411 1.317 . S
C407 H426 0.929 . S
C408 C409 1.426 . S
C408 C410 1.413 . S
C408 N418 1.359 . S
C409 C406 1.417 . S
C409 C408 1.426 . S
C409 N414 1.350 . S
C410 C407 1.437 . S
C410 C408 1.413 . S
C410 C420 1.391 . S
C411 C406 1.431 . S
C411 C407 1.317 . S
C411 H422 0.930 . S
C412 C406 1.412 . S
C412 C413 1.355 . S
C412 H424 0.930 . S
C413 C412 1.355 . S
C413 C415 1.402 . S
C413 H425 0.930 . S
N414 Gd405 2.661 . S
N414 C409 1.350 . S
N414 C415 1.307 . S
C415 C413 1.402 . S
C415 N414 1.307 . S
C415 H416 0.930 . S
H416 C415 0.930 . S
C417 N418 1.334 . S
C417 C419 1.394 1_455 S
C417 H421 0.930 1_455 S
N418 Gd405 2.601 . S
N418 C408 1.359 . S
N418 C417 1.334 . S
C419 C417 1.394 1_655 S
C419 C420 1.359 1_655 S
C419 H431 0.930 . S
C420 C410 1.391 . S
C420 C419 1.359 1_455 S
C420 H432 0.929 . S
H421 C417 0.930 1_655 S
H422 C411 0.930 . S
H423 C440 0.930 . S
H424 C412 0.930 . S
H425 C413 0.930 . S
H426 C407 0.929 . S
H427 C445 0.930 . S
H428 C436 0.930 . S
H429 C437 0.930 . S
H430 C461 0.929 . S
H431 C419 0.930 . S
H432 C420 0.929 . S
H433 C462 0.930 . S
H434 C443 0.930 . S
N435 Gd404 2.661 . S
N435 C439 1.350 . S
N435 C440 1.307 . S
C436 H428 0.930 . S
C436 C437 1.355 . S
C436 C438 1.412 . S
C437 H429 0.930 . S
C437 C436 1.355 . S
C437 C440 1.402 . S
C438 C436 1.412 . S
C438 C439 1.417 . S
C438 C462 1.431 . S
C439 N435 1.350 . S
C439 C438 1.417 . S
C439 C442 1.426 . S
C440 H423 0.930 . S
C440 N435 1.307 . S
C440 C437 1.402 . S
N441 Gd404 2.601 . S
N441 C442 1.359 . S
N441 C445 1.334 1_655 S
C442 C439 1.426 . S
C442 N441 1.359 . S
C442 C446 1.413 . S
C443 H434 0.930 . S
C443 C444 1.359 . S
C443 C445 1.394 . S
C444 C443 1.359 . S
C444 C446 1.391 1_455 S
C444 H447 0.929 . S
C445 H427 0.930 . S
C445 N441 1.334 1_455 S
C445 C443 1.394 . S
C446 C442 1.413 . S
C446 C444 1.391 1_655 S
C446 C461 1.437 . S
H447 C444 0.929 . S
O448 Gd404 2.545 . S
O448 C463 1.258 . S
O449 Gd404 2.606 1_455 S
O449 Gd405 2.362 . S
O449 C460 1.284 1_455 S
O450 Gd405 2.324 . S
O450 C470 1.254 . S
O451 Gd404 2.429 1_455 S
O451 C470 1.268 . S
O452 Gd404 2.545 . S
O452 C460 1.250 . S
O453 Gd404 2.412 . S
O453 C463 1.252 . S
O454 Gd405 2.545 . S
O454 C472 1.258 . S
O455 Gd404 2.362 1_455 S
O455 Gd405 2.606 . S
O455 C471 1.284 . S
O456 Gd404 2.324 . S
O456 C479 1.254 . S
O457 Gd405 2.429 1_655 S
O457 C479 1.268 . S
O458 Gd405 2.545 . S
O458 C471 1.250 . S
O459 Gd405 2.412 . S
O459 C472 1.252 . S
C460 O449 1.284 1_655 S
C460 O452 1.250 . S
C461 H430 0.929 . S
C461 C446 1.437 . S
C461 C462 1.317 . S
C462 H433 0.930 . S
C462 C438 1.431 . S
C462 C461 1.317 . S
C463 Gd404 2.828 . S
C463 O448 1.258 . S
C463 O453 1.252 . S
C463 C464 1.497 . S
C464 C463 1.497 . S
C464 C465 1.395 1_556 S
C464 C466 1.380 . S
C465 C464 1.395 1_554 S
C465 C468 1.398 . S
C465 H480 0.930 . S
C466 C464 1.380 . S
C466 C467 1.391 1_556 S
C466 H481 0.930 . S
C467 C466 1.391 1_554 S
C467 C469 1.387 . S
C468 C465 1.398 . S
C468 C469 1.380 . S
C468 H482 0.930 . S
C469 C467 1.387 . S
C469 C468 1.380 . S
C469 H483 0.930 . S
C470 O450 1.254 . S
C470 O451 1.268 . S
C471 O455 1.284 . S
C471 O458 1.250 . S
C472 Gd405 2.828 . S
C472 O454 1.258 . S
C472 O459 1.252 . S
C472 C473 1.497 . S
C473 C472 1.497 . S
C473 C474 1.395 . S
C473 C475 1.380 . S
C474 C473 1.395 . S
C474 C477 1.398 . S
C474 H484 0.930 . S
C475 C473 1.380 . S
C475 C476 1.391 . S
C475 H485 0.930 . S
C476 C475 1.391 . S
C476 C478 1.387 . S
C477 C474 1.398 . S
C477 C478 1.380 . S
C477 H486 0.930 . S
C478 C476 1.387 . S
C478 C477 1.380 . S
C478 H487 0.930 . S
C479 O456 1.254 . S
C479 O457 1.268 . S
H480 C465 0.930 . S
H481 C466 0.930 . S
H482 C468 0.930 . S
H483 C469 0.930 . S
H484 C474 0.930 . S
H485 C475 0.930 . S
H486 C477 0.930 . S
H487 C478 0.930 . S
C488 C489 1.391 . S
C488 C490 1.394 . S
C488 H504 0.931 . S
C489 C488 1.391 . S
C489 C493 1.376 . S
C490 C488 1.394 . S
C490 C491 1.369 . S
C490 C494 1.531 . S
C491 C490 1.369 . S
C491 C492 1.410 . S
C491 C499 1.503 . S
C492 C491 1.410 . S
C492 C493 1.392 . S
C492 C495 1.511 . S
C493 C489 1.376 . S
C493 C492 1.392 . S
C493 H505 0.929 . S
C494 C490 1.531 . S
C494 H506 0.960 . S
C494 H507 0.962 . S
C494 H508 0.960 . S
C495 C492 1.511 . S
C495 H509 0.961 . S
C495 H510 0.961 . S
C495 H511 0.961 . S
C496 C497 1.370 . S
C496 C498 1.363 . S
C496 H512 0.930 . S
C497 C496 1.370 . S
C497 C501 1.408 . S
C498 C496 1.363 . S
C498 C499 1.370 . S
C498 C502 1.524 . S
C499 C491 1.503 . S
C499 C498 1.370 . S
C499 C500 1.403 . S
C500 C499 1.403 . S
C500 C501 1.404 . S
C500 C503 1.539 . S
C501 C497 1.408 . S
C501 C500 1.404 . S
C501 H513 0.930 . S
C502 C498 1.524 . S
C502 H514 0.956 . S
C502 H515 0.959 1_545 S
C502 H516 0.961 1_545 S
C503 C500 1.539 . S
C503 H517 0.958 . S
C503 H518 0.961 . S
C503 H519 0.960 . S
H504 C488 0.931 . S
H505 C493 0.929 . S
H506 C494 0.960 . S
H507 C494 0.962 . S
H508 C494 0.960 . S
H509 C495 0.961 . S
H510 C495 0.961 . S
H511 C495 0.961 . S
H512 C496 0.930 . S
H513 C501 0.930 . S
H514 C502 0.956 . S
H515 C502 0.959 1_565 S
H516 C502 0.961 1_565 S
H517 C503 0.958 . S
H518 C503 0.961 . S
H519 C503 0.960 . S
C520 C521 1.391 . S
C520 C522 1.394 . S
C520 H536 0.931 . S
C521 C520 1.391 . S
C521 C525 1.376 . S
C522 C520 1.394 . S
C522 C523 1.369 . S
C522 C526 1.531 . S
C523 C522 1.369 . S
C523 C524 1.410 . S
C523 C531 1.503 . S
C524 C523 1.410 . S
C524 C525 1.392 . S
C524 C527 1.511 . S
C525 C521 1.376 . S
C525 C524 1.392 . S
C525 H537 0.929 . S
C526 C522 1.531 . S
C526 H538 0.960 . S
C526 H539 0.962 . S
C526 H540 0.960 . S
C527 C524 1.511 . S
C527 H541 0.961 . S
C527 H542 0.961 . S
C527 H543 0.961 . S
C528 C529 1.370 . S
C528 C530 1.363 . S
C528 H544 0.931 . S
C529 C528 1.370 . S
C529 C533 1.408 . S
C530 C528 1.363 . S
C530 C531 1.370 . S
C530 C534 1.524 . S
C531 C523 1.503 . S
C531 C530 1.370 . S
C531 C532 1.403 . S
C532 C531 1.403 . S
C532 C533 1.404 . S
C532 C535 1.539 . S
C533 C529 1.408 . S
C533 C532 1.404 . S
C533 H545 0.930 . S
C534 C530 1.524 . S
C534 H546 0.956 . S
C534 H547 0.961 . S
C534 H548 0.961 . S
C535 C532 1.539 . S
C535 H549 0.958 . S
C535 H550 0.961 . S
C535 H551 0.960 . S
H536 C520 0.931 . S
H537 C525 0.929 . S
H538 C526 0.960 . S
H539 C526 0.962 . S
H540 C526 0.960 . S
H541 C527 0.961 . S
H542 C527 0.961 . S
H543 C527 0.961 . S
H544 C528 0.931 . S
H545 C533 0.930 . S
H546 C534 0.956 . S
H547 C534 0.961 . S
H548 C534 0.961 . S
H549 C535 0.958 . S
H550 C535 0.961 . S
H551 C535 0.960 . S
C552 C553 1.391 . S
C552 C554 1.394 . S
C552 H568 0.931 . S
C553 C552 1.391 . S
C553 C557 1.376 . S
C554 C552 1.394 . S
C554 C555 1.369 . S
C554 C558 1.531 . S
C555 C554 1.369 . S
C555 C556 1.410 . S
C555 C563 1.503 . S
C556 C555 1.410 . S
C556 C557 1.392 . S
C556 C559 1.511 . S
C557 C553 1.376 . S
C557 C556 1.392 . S
C557 H569 0.929 . S
C558 C554 1.531 . S
C558 H570 0.960 . S
C558 H571 0.962 . S
C558 H572 0.960 . S
C559 C556 1.511 . S
C559 H573 0.961 . S
C559 H574 0.961 . S
C559 H575 0.961 . S
C560 C561 1.370 . S
C560 C562 1.363 . S
C560 H576 0.931 . S
C561 C560 1.370 . S
C561 C565 1.408 . S
C562 C560 1.363 . S
C562 C563 1.370 . S
C562 C566 1.524 . S
C563 C555 1.503 . S
C563 C562 1.370 . S
C563 C564 1.403 . S
C564 C563 1.403 . S
C564 C565 1.404 . S
C564 C567 1.539 . S
C565 C561 1.408 . S
C565 C564 1.404 . S
C565 H577 0.930 . S
C566 C562 1.524 . S
C566 H578 0.956 . S
C566 H579 0.961 . S
C566 H580 0.961 . S
C567 C564 1.539 . S
C567 H581 0.958 . S
C567 H582 0.961 . S
C567 H583 0.960 . S
H568 C552 0.931 . S
H569 C557 0.929 . S
H570 C558 0.960 . S
H571 C558 0.962 . S
H572 C558 0.960 . S
H573 C559 0.961 . S
H574 C559 0.961 . S
H575 C559 0.961 . S
H576 C560 0.931 . S
H577 C565 0.930 . S
H578 C566 0.956 . S
H579 C566 0.961 . S
H580 C566 0.961 . S
H581 C567 0.958 . S
H582 C567 0.961 . S
H583 C567 0.960 . S
C584 C585 1.391 . S
C584 C586 1.394 . S
C584 H600 0.931 . S
C585 C584 1.391 . S
C585 C589 1.376 . S
C586 C584 1.394 . S
C586 C587 1.369 . S
C586 C590 1.531 . S
C587 C586 1.369 . S
C587 C588 1.410 . S
C587 C595 1.503 . S
C588 C587 1.410 . S
C588 C589 1.392 . S
C588 C591 1.511 . S
C589 C585 1.376 . S
C589 C588 1.392 . S
C589 H601 0.929 . S
C590 C586 1.531 . S
C590 H602 0.960 . S
C590 H603 0.962 . S
C590 H604 0.960 . S
C591 C588 1.511 . S
C591 H605 0.961 . S
C591 H606 0.961 . S
C591 H607 0.961 . S
C592 C593 1.370 . S
C592 C594 1.363 . S
C592 H608 0.931 1_455 S
C593 C592 1.370 . S
C593 C597 1.408 . S
C594 C592 1.363 . S
C594 C595 1.370 . S
C594 C598 1.524 1_455 S
C595 C587 1.503 . S
C595 C594 1.370 . S
C595 C596 1.403 . S
C596 C595 1.403 . S
C596 C597 1.404 . S
C596 C599 1.539 . S
C597 C593 1.408 . S
C597 C596 1.404 . S
C597 H609 0.930 . S
C598 C594 1.524 1_655 S
C598 H610 0.956 . S
C598 H611 0.960 . S
C598 H612 0.961 . S
C599 C596 1.539 . S
C599 H613 0.958 . S
C599 H614 0.961 . S
C599 H615 0.960 . S
H600 C584 0.931 . S
H601 C589 0.929 . S
H602 C590 0.960 . S
H603 C590 0.962 . S
H604 C590 0.960 . S
H605 C591 0.961 . S
H606 C591 0.961 . S
H607 C591 0.961 . S
H608 C592 0.931 1_655 S
H609 C597 0.930 . S
H610 C598 0.956 . S
H611 C598 0.960 . S
H612 C598 0.961 . S
H613 C599 0.958 . S
H614 C599 0.961 . S
H615 C599 0.960 . S
C616 C617 1.391 . S
C616 C618 1.394 . S
C616 H632 0.931 . S
C617 C616 1.391 . S
C617 C621 1.376 . S
C618 C616 1.394 . S
C618 C619 1.369 . S
C618 C622 1.531 . S
C619 C618 1.369 . S
C619 C620 1.410 1_554 S
C619 C627 1.503 1_554 S
C620 C619 1.410 1_556 S
C620 C621 1.392 1_556 S
C620 C623 1.511 . S
C621 C617 1.376 . S
C621 C620 1.392 1_554 S
C621 H633 0.929 . S
C622 C618 1.531 . S
C622 H634 0.960 . S
C622 H635 0.962 . S
C622 H636 0.960 . S
C623 C620 1.511 . S
C623 H637 0.961 . S
C623 H638 0.961 . S
C623 H639 0.961 . S
C624 C625 1.370 1_545 S
C624 C626 1.363 . S
C624 H640 0.931 . S
C625 C624 1.370 1_565 S
C625 C629 1.408 . S
C626 C624 1.363 . S
C626 C627 1.370 1_545 S
C626 C630 1.524 . S
C627 C619 1.503 1_556 S
C627 C626 1.370 1_565 S
C627 C628 1.403 . S
C628 C627 1.403 . S
C628 C629 1.404 . S
C628 C631 1.539 . S
C629 C625 1.408 . S
C629 C628 1.404 . S
C629 H641 0.930 . S
C630 C626 1.524 . S
C630 H642 0.956 1_556 S
C630 H643 0.961 . S
C630 H644 0.961 . S
C631 C628 1.539 . S
C631 H645 0.958 . S
C631 H646 0.961 . S
C631 H647 0.960 . S
H632 C616 0.931 . S
H633 C621 0.929 . S
H634 C622 0.960 . S
H635 C622 0.962 . S
H636 C622 0.960 . S
H637 C623 0.961 . S
H638 C623 0.961 . S
H639 C623 0.961 . S
H640 C624 0.931 . S
H641 C629 0.930 . S
H642 C630 0.956 1_554 S
H643 C630 0.961 . S
H644 C630 0.961 . S
H645 C631 0.958 . S
H646 C631 0.961 . S
H647 C631 0.960 . S
C648 C649 1.391 . S
C648 C650 1.394 . S
C648 H664 0.931 . S
C649 C648 1.391 . S
C649 C653 1.376 . S
C650 C648 1.394 . S
C650 C651 1.369 1_554 S
C650 C654 1.531 1_554 S
C651 C650 1.369 1_556 S
C651 C652 1.410 1_556 S
C651 C659 1.503 . S
C652 C651 1.410 1_554 S
C652 C653 1.392 . S
C652 C655 1.511 1_554 S
C653 C649 1.376 . S
C653 C652 1.392 . S
C653 H665 0.929 . S
C654 C650 1.531 1_556 S
C654 H666 0.960 . S
C654 H667 0.962 1_556 S
C654 H668 0.960 . S
C655 C652 1.511 1_556 S
C655 H669 0.961 1_556 S
C655 H670 0.961 . S
C655 H671 0.961 . S
C656 C657 1.370 . S
C656 C658 1.363 . S
C656 H672 0.931 . S
C657 C656 1.370 . S
C657 C661 1.408 . S
C658 C656 1.363 . S
C658 C659 1.370 . S
C658 C662 1.524 1_556 S
C659 C651 1.503 . S
C659 C658 1.370 . S
C659 C660 1.403 . S
C660 C659 1.403 . S
C660 C661 1.404 . S
C660 C663 1.539 . S
C661 C657 1.408 . S
C661 C660 1.404 . S
C661 H673 0.930 . S
C662 C658 1.524 1_554 S
C662 H674 0.956 . S
C662 H675 0.961 . S
C662 H676 0.961 . S
C663 C660 1.539 . S
C663 H677 0.958 . S
C663 H678 0.961 . S
C663 H679 0.960 . S
H664 C648 0.931 . S
H665 C653 0.929 . S
H666 C654 0.960 . S
H667 C654 0.962 1_554 S
H668 C654 0.960 . S
H669 C655 0.961 1_554 S
H670 C655 0.961 . S
H671 C655 0.961 . S
H672 C656 0.931 . S
H673 C661 0.930 . S
H674 C662 0.956 . S
H675 C662 0.961 . S
H676 C662 0.961 . S
H677 C663 0.958 . S
H678 C663 0.961 . S
H679 C663 0.960 . S
C680 C681 1.391 . S
C680 C682 1.394 1_554 S
C680 H696 0.931 . S
C681 C680 1.391 . S
C681 C685 1.376 . S
C682 C680 1.394 1_556 S
C682 C683 1.369 . S
C682 C686 1.531 . S
C683 C682 1.369 . S
C683 C684 1.410 1_556 S
C683 C691 1.503 . S
C684 C683 1.410 1_554 S
C684 C685 1.392 . S
C684 C687 1.511 . S
C685 C681 1.376 . S
C685 C684 1.392 . S
C685 H697 0.929 . S
C686 C682 1.531 . S
C686 H698 0.960 . S
C686 H699 0.962 . S
C686 H700 0.960 . S
C687 C684 1.511 . S
C687 H701 0.961 . S
C687 H702 0.961 . S
C687 H703 0.961 . S
C688 C689 1.370 . S
C688 C690 1.363 . S
C688 H704 0.931 . S
C689 C688 1.370 . S
C689 C693 1.408 . S
C690 C688 1.363 . S
C690 C691 1.370 . S
C690 C694 1.524 1_556 S
C691 C683 1.503 . S
C691 C690 1.370 . S
C691 C692 1.403 . S
C692 C691 1.403 . S
C692 C693 1.404 . S
C692 C695 1.539 . S
C693 C689 1.408 . S
C693 C692 1.404 . S
C693 H705 0.930 . S
C694 C690 1.524 1_554 S
C694 H706 0.956 . S
C694 H707 0.961 . S
C694 H708 0.961 . S
C695 C692 1.539 . S
C695 H709 0.958 . S
C695 H710 0.961 . S
C695 H711 0.960 . S
H696 C680 0.931 . S
H697 C685 0.929 . S
H698 C686 0.960 . S
H699 C686 0.962 . S
H700 C686 0.960 . S
H701 C687 0.961 . S
H702 C687 0.961 . S
H703 C687 0.961 . S
H704 C688 0.931 . S
H705 C693 0.930 . S
H706 C694 0.956 . S
H707 C694 0.961 . S
H708 C694 0.961 . S
H709 C695 0.958 . S
H710 C695 0.961 . S
H711 C695 0.960 . S
C712 C713 1.391 . S
C712 C714 1.394 . S
C712 H728 0.931 . S
C713 C712 1.391 . S
C713 C717 1.376 . S
C714 C712 1.394 . S
C714 C715 1.369 . S
C714 C718 1.531 . S
C715 C714 1.369 . S
C715 C716 1.410 1_554 S
C715 C723 1.503 1_554 S
C716 C715 1.410 1_556 S
C716 C717 1.392 1_556 S
C716 C719 1.511 . S
C717 C713 1.376 . S
C717 C716 1.392 1_554 S
C717 H729 0.929 . S
C718 C714 1.531 . S
C718 H730 0.960 . S
C718 H731 0.962 . S
C718 H732 0.960 . S
C719 C716 1.511 . S
C719 H733 0.961 . S
C719 H734 0.961 . S
C719 H735 0.961 . S
C720 C721 1.370 1_455 S
C720 C722 1.363 1_455 S
C720 H736 0.931 . S
C721 C720 1.370 1_655 S
C721 C725 1.408 . S
C722 C720 1.363 1_655 S
C722 C723 1.370 . S
C722 C726 1.524 1_655 S
C723 C715 1.503 1_556 S
C723 C722 1.370 . S
C723 C724 1.403 . S
C724 C723 1.403 . S
C724 C725 1.404 . S
C724 C727 1.539 . S
C725 C721 1.408 . S
C725 C724 1.404 . S
C725 H737 0.930 . S
C726 C722 1.524 1_455 S
C726 H738 0.956 1_556 S
C726 H739 0.961 . S
C726 H740 0.961 . S
C727 C724 1.539 . S
C727 H741 0.958 . S
C727 H742 0.961 . S
C727 H743 0.960 . S
H728 C712 0.931 . S
H729 C717 0.929 . S
H730 C718 0.960 . S
H731 C718 0.962 . S
H732 C718 0.960 . S
H733 C719 0.961 . S
H734 C719 0.961 . S
H735 C719 0.961 . S
H736 C720 0.931 . S
H737 C725 0.930 . S
H738 C726 0.956 1_554 S
H739 C726 0.961 . S
H740 C726 0.961 . S
H741 C727 0.958 . S
H742 C727 0.961 . S
H743 C727 0.960 . S
C744 C745 1.391 . S
C744 C746 1.394 . S
C744 H760 0.931 . S
C745 C744 1.391 . S
C745 C749 1.376 . S
C746 C744 1.394 . S
C746 C747 1.369 . S
C746 C750 1.531 . S
C747 C746 1.369 . S
C747 C748 1.410 . S
C747 C755 1.503 . S
C748 C747 1.410 . S
C748 C749 1.392 . S
C748 C751 1.511 . S
C749 C745 1.376 . S
C749 C748 1.392 . S
C749 H761 0.929 . S
C750 C746 1.531 . S
C750 H762 0.960 1_455 S
C750 H763 0.962 . S
C750 H764 0.960 1_455 S
C751 C748 1.511 . S
C751 H765 0.961 . S
C751 H766 0.961 . S
C751 H767 0.961 . S
C752 C753 1.370 . S
C752 C754 1.363 . S
C752 H768 0.931 . S
C753 C752 1.370 . S
C753 C757 1.408 1_455 S
C754 C752 1.363 . S
C754 C755 1.370 . S
C754 C758 1.524 . S
C755 C747 1.503 . S
C755 C754 1.370 . S
C755 C756 1.403 . S
C756 C755 1.403 . S
C756 C757 1.404 1_455 S
C756 C759 1.539 1_455 S
C757 C753 1.408 1_655 S
C757 C756 1.404 1_655 S
C757 H769 0.930 . S
C758 C754 1.524 . S
C758 H770 0.956 . S
C758 H771 0.961 . S
C758 H772 0.961 . S
C759 C756 1.539 1_655 S
C759 H773 0.958 . S
C759 H774 0.961 . S
C759 H775 0.960 1_655 S
H760 C744 0.931 . S
H761 C749 0.929 . S
H762 C750 0.960 1_655 S
H763 C750 0.962 . S
H764 C750 0.960 1_655 S
H765 C751 0.961 . S
H766 C751 0.961 . S
H767 C751 0.961 . S
H768 C752 0.931 . S
H769 C757 0.930 . S
H770 C758 0.956 . S
H771 C758 0.961 . S
H772 C758 0.961 . S
H773 C759 0.958 . S
H774 C759 0.961 . S
H775 C759 0.960 1_455 S
C776 C777 1.391 . S
C776 C778 1.394 . S
C776 H792 0.931 . S
C777 C776 1.391 . S
C777 C781 1.376 . S
C778 C776 1.394 . S
C778 C779 1.369 . S
C778 C782 1.531 . S
C779 C778 1.369 . S
C779 C780 1.410 . S
C779 C787 1.503 . S
C780 C779 1.410 . S
C780 C781 1.392 . S
C780 C783 1.511 . S
C781 C777 1.376 . S
C781 C780 1.392 . S
C781 H793 0.929 1_554 S
C782 C778 1.531 . S
C782 H794 0.960 . S
C782 H795 0.962 . S
C782 H796 0.960 . S
C783 C780 1.511 . S
C783 H797 0.961 1_554 S
C783 H798 0.961 . S
C783 H799 0.961 1_554 S
C784 C785 1.370 . S
C784 C786 1.363 . S
C784 H800 0.931 . S
C785 C784 1.370 . S
C785 C789 1.408 1_545 S
C786 C784 1.363 . S
C786 C787 1.370 . S
C786 C790 1.524 . S
C787 C779 1.503 . S
C787 C786 1.370 . S
C787 C788 1.403 . S
C788 C787 1.403 . S
C788 C789 1.404 1_545 S
C788 C791 1.539 1_545 S
C789 C785 1.408 1_565 S
C789 C788 1.404 1_565 S
C789 H801 0.930 . S
C790 C786 1.524 . S
C790 H802 0.956 . S
C790 H803 0.961 . S
C790 H804 0.961 . S
C791 C788 1.539 1_565 S
C791 H805 0.958 . S
C791 H806 0.961 . S
C791 H807 0.960 . S
H792 C776 0.931 . S
H793 C781 0.929 1_556 S
H794 C782 0.960 . S
H795 C782 0.962 . S
H796 C782 0.960 . S
H797 C783 0.961 1_556 S
H798 C783 0.961 . S
H799 C783 0.961 1_556 S
H800 C784 0.931 . S
H801 C789 0.930 . S
H802 C790 0.956 . S
H803 C790 0.961 . S
H804 C790 0.961 . S
H805 C791 0.958 . S
H806 C791 0.961 . S
H807 C791 0.960 . S
C808 C809 1.391 . S
C808 C810 1.394 . S
C808 H824 0.931 . S
C809 C808 1.391 . S
C809 C813 1.376 . S
C810 C808 1.394 . S
C810 C811 1.369 . S
C810 C814 1.531 . S
C811 C810 1.369 . S
C811 C812 1.410 . S
C811 C819 1.503 . S
C812 C811 1.410 . S
C812 C813 1.392 . S
C812 C815 1.511 . S
C813 C809 1.376 . S
C813 C812 1.392 . S
C813 H825 0.929 . S
C814 C810 1.531 . S
C814 H826 0.960 . S
C814 H827 0.962 . S
C814 H828 0.960 . S
C815 C812 1.511 . S
C815 H829 0.961 . S
C815 H830 0.961 . S
C815 H831 0.961 . S
C816 C817 1.370 . S
C816 C818 1.363 . S
C816 H832 0.931 . S
C817 C816 1.370 . S
C817 C821 1.408 . S
C818 C816 1.363 . S
C818 C819 1.370 . S
C818 C822 1.524 . S
C819 C811 1.503 . S
C819 C818 1.370 . S
C819 C820 1.403 . S
C820 C819 1.403 . S
C820 C821 1.404 . S
C820 C823 1.539 . S
C821 C817 1.408 . S
C821 C820 1.404 . S
C821 H833 0.930 . S
C822 C818 1.524 . S
C822 H834 0.956 . S
C822 H835 0.961 . S
C822 H836 0.961 . S
C823 C820 1.539 . S
C823 H837 0.958 . S
C823 H838 0.961 . S
C823 H839 0.960 . S
H824 C808 0.931 . S
H825 C813 0.929 . S
H826 C814 0.960 . S
H827 C814 0.962 . S
H828 C814 0.960 . S
H829 C815 0.961 . S
H830 C815 0.961 . S
H831 C815 0.961 . S
H832 C816 0.931 . S
H833 C821 0.930 . S
H834 C822 0.956 . S
H835 C822 0.961 . S
H836 C822 0.961 . S
H837 C823 0.958 . S
H838 C823 0.961 . S
H839 C823 0.960 . S
C840 C841 1.391 . S
C840 C842 1.394 . S
C840 H856 0.931 . S
C841 C840 1.391 . S
C841 C845 1.376 . S
C842 C840 1.394 . S
C842 C843 1.369 . S
C842 C846 1.531 . S
C843 C842 1.369 . S
C843 C844 1.410 . S
C843 C851 1.503 . S
C844 C843 1.410 . S
C844 C845 1.392 . S
C844 C847 1.511 . S
C845 C841 1.376 . S
C845 C844 1.392 . S
C845 H857 0.929 . S
C846 C842 1.531 . S
C846 H858 0.960 . S
C846 H859 0.962 . S
C846 H860 0.960 . S
C847 C844 1.511 . S
C847 H861 0.961 . S
C847 H862 0.961 . S
C847 H863 0.961 . S
C848 C849 1.370 . S
C848 C850 1.363 . S
C848 H864 0.931 . S
C849 C848 1.370 . S
C849 C853 1.408 . S
C850 C848 1.363 . S
C850 C851 1.370 . S
C850 C854 1.524 . S
C851 C843 1.503 . S
C851 C850 1.370 . S
C851 C852 1.403 . S
C852 C851 1.403 . S
C852 C853 1.404 . S
C852 C855 1.539 . S
C853 C849 1.408 . S
C853 C852 1.404 . S
C853 H865 0.930 . S
C854 C850 1.524 . S
C854 H866 0.956 . S
C854 H867 0.961 . S
C854 H868 0.961 . S
C855 C852 1.539 . S
C855 H869 0.958 . S
C855 H870 0.961 . S
C855 H871 0.960 . S
H856 C840 0.931 . S
H857 C845 0.929 . S
H858 C846 0.960 . S
H859 C846 0.962 . S
H860 C846 0.960 . S
H861 C847 0.961 . S
H862 C847 0.961 . S
H863 C847 0.961 . S
H864 C848 0.931 . S
H865 C853 0.930 . S
H866 C854 0.956 . S
H867 C854 0.961 . S
H868 C854 0.961 . S
H869 C855 0.958 . S
H870 C855 0.961 . S
H871 C855 0.960 . S
C872 C873 1.391 . S
C872 C874 1.394 . S
C872 H888 0.931 . S
C873 C872 1.391 . S
C873 C877 1.376 . S
C874 C872 1.394 . S
C874 C875 1.369 . S
C874 C878 1.531 . S
C875 C874 1.369 . S
C875 C876 1.410 . S
C875 C883 1.503 . S
C876 C875 1.410 . S
C876 C877 1.392 . S
C876 C879 1.511 1_655 S
C877 C873 1.376 . S
C877 C876 1.392 . S
C877 H889 0.929 . S
C878 C874 1.531 . S
C878 H890 0.960 . S
C878 H891 0.962 . S
C878 H892 0.960 . S
C879 C876 1.511 1_455 S
C879 H893 0.961 . S
C879 H894 0.961 . S
C879 H895 0.961 . S
C880 C881 1.370 1_655 S
C880 C882 1.363 . S
C880 H896 0.931 . S
C881 C880 1.370 1_455 S
C881 C885 1.408 1_556 S
C882 C880 1.363 . S
C882 C883 1.370 1_556 S
C882 C886 1.524 . S
C883 C875 1.503 . S
C883 C882 1.370 1_554 S
C883 C884 1.403 . S
C884 C883 1.403 . S
C884 C885 1.404 1_655 S
C884 C887 1.539 . S
C885 C881 1.408 1_554 S
C885 C884 1.404 1_455 S
C885 H897 0.930 . S
C886 C882 1.524 . S
C886 H898 0.956 . S
C886 H899 0.961 . S
C886 H900 0.961 . S
C887 C884 1.539 . S
C887 H901 0.958 . S
C887 H902 0.961 1_655 S
C887 H903 0.960 . S
H888 C872 0.931 . S
H889 C877 0.929 . S
H890 C878 0.960 . S
H891 C878 0.962 . S
H892 C878 0.960 . S
H893 C879 0.961 . S
H894 C879 0.961 . S
H895 C879 0.961 . S
H896 C880 0.931 . S
H897 C885 0.930 . S
H898 C886 0.956 . S
H899 C886 0.961 . S
H900 C886 0.961 . S
H901 C887 0.958 . S
H902 C887 0.961 1_455 S
H903 C887 0.960 . S
C904 C905 1.391 . S
C904 C906 1.394 . S
C904 H920 0.931 . S
C905 C904 1.391 . S
C905 C909 1.376 . S
C906 C904 1.394 . S
C906 C907 1.369 . S
C906 C910 1.531 . S
C907 C906 1.369 . S
C907 C908 1.410 . S
C907 C915 1.503 . S
C908 C907 1.410 . S
C908 C909 1.392 . S
C908 C911 1.511 1_565 S
C909 C905 1.376 . S
C909 C908 1.392 . S
C909 H921 0.929 . S
C910 C906 1.531 . S
C910 H922 0.960 . S
C910 H923 0.962 . S
C910 H924 0.960 . S
C911 C908 1.511 1_545 S
C911 H925 0.961 1_544 S
C911 H926 0.961 1_554 S
C911 H927 0.961 . S
C912 C913 1.370 1_565 S
C912 C914 1.363 1_556 S
C912 H928 0.931 . S
C913 C912 1.370 1_545 S
C913 C917 1.408 1_556 S
C914 C912 1.363 1_554 S
C914 C915 1.370 . S
C914 C918 1.522 1_554 S
C915 C907 1.503 . S
C915 C914 1.370 . S
C915 C916 1.403 1_565 S
C916 C915 1.403 1_545 S
C916 C917 1.404 . S
C916 C919 1.539 . S
C917 C913 1.408 1_554 S
C917 C916 1.404 . S
C917 H929 0.930 . S
C918 C914 1.522 1_556 S
C918 H930 0.946 1_556 S
C918 H931 0.964 . S
C918 H932 0.970 . S
C919 C916 1.539 . S
C919 H933 0.958 . S
C919 H934 0.961 . S
C919 H935 0.960 . S
H920 C904 0.931 . S
H921 C909 0.929 . S
H922 C910 0.960 . S
H923 C910 0.962 . S
H924 C910 0.960 . S
H925 C911 0.961 1_566 S
H926 C911 0.961 1_556 S
H927 C911 0.961 . S
H928 C912 0.931 . S
H929 C917 0.930 . S
H930 C918 0.946 1_554 S
H931 C918 0.964 . S
H932 C918 0.970 . S
H933 C919 0.958 . S
H934 C919 0.961 . S
H935 C919 0.960 . S
C936 C937 1.391 . S
C936 C938 1.394 . S
C936 H952 0.931 . S
C937 C936 1.391 . S
C937 C941 1.376 . S
C938 C936 1.394 . S
C938 C939 1.369 . S
C938 C942 1.531 . S
C939 C938 1.369 . S
C939 C940 1.410 . S
C939 C947 1.503 . S
C940 C939 1.410 . S
C940 C941 1.392 . S
C940 C943 1.511 . S
C941 C937 1.376 . S
C941 C940 1.392 . S
C941 H953 0.929 . S
C942 C938 1.531 . S
C942 H954 0.960 . S
C942 H955 0.962 1_554 S
C942 H956 0.960 . S
C943 C940 1.511 . S
C943 H957 0.961 . S
C943 H958 0.961 . S
C943 H959 0.961 . S
C944 C945 1.370 1_556 S
C944 C946 1.363 1_556 S
C944 H960 0.931 . S
C945 C944 1.370 1_554 S
C945 C949 1.408 . S
C946 C944 1.363 1_554 S
C946 C947 1.370 . S
C946 C950 1.524 1_554 S
C947 C939 1.503 . S
C947 C946 1.370 . S
C947 C948 1.403 . S
C948 C947 1.403 . S
C948 C949 1.404 . S
C948 C951 1.539 . S
C949 C945 1.408 . S
C949 C948 1.404 . S
C949 H961 0.930 . S
C950 C946 1.524 1_556 S
C950 H962 0.956 . S
C950 H963 0.961 1_556 S
C950 H964 0.961 . S
C951 C948 1.539 . S
C951 H965 0.958 . S
C951 H966 0.961 . S
C951 H967 0.960 . S
H952 C936 0.931 . S
H953 C941 0.929 . S
H954 C942 0.960 . S
H955 C942 0.962 1_556 S
H956 C942 0.960 . S
H957 C943 0.961 . S
H958 C943 0.961 . S
H959 C943 0.961 . S
H960 C944 0.931 . S
H961 C949 0.930 . S
H962 C950 0.956 . S
H963 C950 0.961 1_554 S
H964 C950 0.961 . S
H965 C951 0.958 . S
H966 C951 0.961 . S
H967 C951 0.960 . S
C968 C969 1.391 . S
C968 C970 1.394 . S
C968 H984 0.931 . S
C969 C968 1.391 . S
C969 C973 1.376 . S
C970 C968 1.394 . S
C970 C971 1.369 . S
C970 C974 1.531 . S
C971 C970 1.369 . S
C971 C972 1.410 . S
C971 C979 1.503 . S
C972 C971 1.410 . S
C972 C973 1.392 . S
C972 C975 1.511 . S
C973 C969 1.376 . S
C973 C972 1.392 . S
C973 H985 0.929 . S
C974 C970 1.531 . S
C974 H986 0.960 . S
C974 H987 0.962 . S
C974 H988 0.960 . S
C975 C972 1.511 . S
C975 H989 0.961 . S
C975 H990 0.961 . S
C975 H991 0.961 . S
C976 C977 1.370 . S
C976 C978 1.363 . S
C976 H992 0.931 . S
C977 C976 1.370 . S
C977 C981 1.408 1_554 S
C978 C976 1.363 . S
C978 C979 1.370 . S
C978 C982 1.524 . S
C979 C971 1.503 . S
C979 C978 1.370 . S
C979 C980 1.403 1_554 S
C980 C979 1.403 1_556 S
C980 C981 1.404 . S
C980 C983 1.539 . S
C981 C977 1.408 1_556 S
C981 C980 1.404 . S
C981 H993 0.930 . S
C982 C978 1.524 . S
C982 H994 0.956 . S
C982 H995 0.961 . S
C982 H996 0.961 . S
C983 C980 1.539 . S
C983 H997 0.958 . S
C983 H998 0.961 . S
C983 H999 0.960 . S
H984 C968 0.931 . S
H985 C973 0.929 . S
H986 C974 0.960 . S
H987 C974 0.962 . S
H988 C974 0.960 . S
H989 C975 0.961 . S
H990 C975 0.961 . S
H991 C975 0.961 . S
H992 C976 0.931 . S
H993 C981 0.930 . S
H994 C982 0.956 . S
H995 C982 0.961 . S
H996 C982 0.961 . S
H997 C983 0.958 . S
H998 C983 0.961 . S
H999 C983 0.960 . S
C1000 C1001 1.391 . S
C1000 C1002 1.394 . S
C1000 H1016 0.931 . S
C1001 C1000 1.391 . S
C1001 C1005 1.376 . S
C1002 C1000 1.394 . S
C1002 C1003 1.369 . S
C1002 C1006 1.531 . S
C1003 C1002 1.369 . S
C1003 C1004 1.410 . S
C1003 C1011 1.503 . S
C1004 C1003 1.410 . S
C1004 C1005 1.392 . S
C1004 C1007 1.511 . S
C1005 C1001 1.376 . S
C1005 C1004 1.392 . S
C1005 H1017 0.929 . S
C1006 C1002 1.531 . S
C1006 H1018 0.960 . S
C1006 H1019 0.962 1_455 S
C1006 H1020 0.960 1_455 S
C1007 C1004 1.511 . S
C1007 H1021 0.961 . S
C1007 H1022 0.961 . S
C1007 H1023 0.961 . S
C1008 C1009 1.370 . S
C1008 C1010 1.363 . S
C1008 H1024 0.931 . S
C1009 C1008 1.370 . S
C1009 C1013 1.408 . S
C1010 C1008 1.363 . S
C1010 C1011 1.370 . S
C1010 C1014 1.524 . S
C1011 C1003 1.503 . S
C1011 C1010 1.370 . S
C1011 C1012 1.403 . S
C1012 C1011 1.403 . S
C1012 C1013 1.404 . S
C1012 C1015 1.539 . S
C1013 C1009 1.408 . S
C1013 C1012 1.404 . S
C1013 H1025 0.930 . S
C1014 C1010 1.524 . S
C1014 H1026 0.956 . S
C1014 H1027 0.961 . S
C1014 H1028 0.961 . S
C1015 C1012 1.539 . S
C1015 H1029 0.958 . S
C1015 H1030 0.961 . S
C1015 H1031 0.960 . S
H1016 C1000 0.931 . S
H1017 C1005 0.929 . S
H1018 C1006 0.960 . S
H1019 C1006 0.962 1_655 S
H1020 C1006 0.960 1_655 S
H1021 C1007 0.961 . S
H1022 C1007 0.961 . S
H1023 C1007 0.961 . S
H1024 C1008 0.931 . S
H1025 C1013 0.930 . S
H1026 C1014 0.956 . S
H1027 C1014 0.961 . S
H1028 C1014 0.961 . S
H1029 C1015 0.958 . S
H1030 C1015 0.961 . S
H1031 C1015 0.960 . S
C1032 C1033 1.391 . S
C1032 C1034 1.394 . S
C1032 H1048 0.931 . S
C1033 C1032 1.391 . S
C1033 C1037 1.376 . S
C1034 C1032 1.394 . S
C1034 C1035 1.369 . S
C1034 C1038 1.531 . S
C1035 C1034 1.369 . S
C1035 C1036 1.410 . S
C1035 C1043 1.503 . S
C1036 C1035 1.410 . S
C1036 C1037 1.392 . S
C1036 C1039 1.511 . S
C1037 C1033 1.376 . S
C1037 C1036 1.392 . S
C1037 H1049 0.929 . S
C1038 C1034 1.531 . S
C1038 H1050 0.960 . S
C1038 H1051 0.962 . S
C1038 H1052 0.960 . S
C1039 C1036 1.511 . S
C1039 H1053 0.961 . S
C1039 H1054 0.961 . S
C1039 H1055 0.961 . S
C1040 C1041 1.370 . S
C1040 C1042 1.363 . S
C1040 H1056 0.931 . S
C1041 C1040 1.370 . S
C1041 C1045 1.408 . S
C1042 C1040 1.363 . S
C1042 C1043 1.370 . S
C1042 C1046 1.524 . S
C1043 C1035 1.503 . S
C1043 C1042 1.370 . S
C1043 C1044 1.403 . S
C1044 C1043 1.403 . S
C1044 C1045 1.404 . S
C1044 C1047 1.539 1_545 S
C1045 C1041 1.408 . S
C1045 C1044 1.404 . S
C1045 H1057 0.930 1_545 S
C1046 C1042 1.524 . S
C1046 H1058 0.956 . S
C1046 H1059 0.961 . S
C1046 H1060 0.961 . S
C1047 C1044 1.539 1_565 S
C1047 H1061 0.958 . S
C1047 H1062 0.961 . S
C1047 H1063 0.960 1_565 S
H1048 C1032 0.931 . S
H1049 C1037 0.929 . S
H1050 C1038 0.960 . S
H1051 C1038 0.962 . S
H1052 C1038 0.960 . S
H1053 C1039 0.961 . S
H1054 C1039 0.961 . S
H1055 C1039 0.961 . S
H1056 C1040 0.931 . S
H1057 C1045 0.930 1_565 S
H1058 C1046 0.956 . S
H1059 C1046 0.961 . S
H1060 C1046 0.961 . S
H1061 C1047 0.958 . S
H1062 C1047 0.961 . S
H1063 C1047 0.960 1_545 S
C1064 C1065 1.391 . S
C1064 C1066 1.394 . S
C1064 H1080 0.931 . S
C1065 C1064 1.391 . S
C1065 C1069 1.376 . S
C1066 C1064 1.394 . S
C1066 C1067 1.369 . S
C1066 C1070 1.531 . S
C1067 C1066 1.369 . S
C1067 C1068 1.410 . S
C1067 C1075 1.503 . S
C1068 C1067 1.410 . S
C1068 C1069 1.392 . S
C1068 C1071 1.511 . S
C1069 C1065 1.376 . S
C1069 C1068 1.392 . S
C1069 H1081 0.929 . S
C1070 C1066 1.531 . S
C1070 H1082 0.960 . S
C1070 H1083 0.962 . S
C1070 H1084 0.960 . S
C1071 C1068 1.511 . S
C1071 H1085 0.961 . S
C1071 H1086 0.961 . S
C1071 H1087 0.961 . S
C1072 C1073 1.370 . S
C1072 C1074 1.363 . S
C1072 H1088 0.931 . S
C1073 C1072 1.370 . S
C1073 C1077 1.408 . S
C1074 C1072 1.363 . S
C1074 C1075 1.370 . S
C1074 C1078 1.524 . S
C1075 C1067 1.503 . S
C1075 C1074 1.370 . S
C1075 C1076 1.403 . S
C1076 C1075 1.403 . S
C1076 C1077 1.404 . S
C1076 C1079 1.539 . S
C1077 C1073 1.408 . S
C1077 C1076 1.404 . S
C1077 H1089 0.930 . S
C1078 C1074 1.524 . S
C1078 H1090 0.956 . S
C1078 H1091 0.961 . S
C1078 H1092 0.961 . S
C1079 C1076 1.539 . S
C1079 H1093 0.958 . S
C1079 H1094 0.961 . S
C1079 H1095 0.960 . S
H1080 C1064 0.931 . S
H1081 C1069 0.929 . S
H1082 C1070 0.960 . S
H1083 C1070 0.962 . S
H1084 C1070 0.960 . S
H1085 C1071 0.961 . S
H1086 C1071 0.961 . S
H1087 C1071 0.961 . S
H1088 C1072 0.931 . S
H1089 C1077 0.930 . S
H1090 C1078 0.956 . S
H1091 C1078 0.961 . S
H1092 C1078 0.961 . S
H1093 C1079 0.958 . S
H1094 C1079 0.961 . S
H1095 C1079 0.960 . S
C1096 C1097 1.391 . S
C1096 C1098 1.394 . S
C1096 H1112 0.931 . S
C1097 C1096 1.391 . S
C1097 C1101 1.376 . S
C1098 C1096 1.394 . S
C1098 C1099 1.369 . S
C1098 C1102 1.531 . S
C1099 C1098 1.369 . S
C1099 C1100 1.410 . S
C1099 C1107 1.503 . S
C1100 C1099 1.410 . S
C1100 C1101 1.392 . S
C1100 C1103 1.511 . S
C1101 C1097 1.376 . S
C1101 C1100 1.392 . S
C1101 H1113 0.929 . S
C1102 C1098 1.531 . S
C1102 H1114 0.960 . S
C1102 H1115 0.962 . S
C1102 H1116 0.960 . S
C1103 C1100 1.511 . S
C1103 H1117 0.961 . S
C1103 H1118 0.961 . S
C1103 H1119 0.961 . S
C1104 C1105 1.370 . S
C1104 C1106 1.363 . S
C1104 H1120 0.931 . S
C1105 C1104 1.370 . S
C1105 C1109 1.408 . S
C1106 C1104 1.363 . S
C1106 C1107 1.370 . S
C1106 C1110 1.524 . S
C1107 C1099 1.503 . S
C1107 C1106 1.370 . S
C1107 C1108 1.403 . S
C1108 C1107 1.403 . S
C1108 C1109 1.404 . S
C1108 C1111 1.539 . S
C1109 C1105 1.408 . S
C1109 C1108 1.404 . S
C1109 H1121 0.930 . S
C1110 C1106 1.524 . S
C1110 H1122 0.956 . S
C1110 H1123 0.961 . S
C1110 H1124 0.961 . S
C1111 C1108 1.539 . S
C1111 H1125 0.958 . S
C1111 H1126 0.961 1_556 S
C1111 H1127 0.960 . S
H1112 C1096 0.931 . S
H1113 C1101 0.929 . S
H1114 C1102 0.960 . S
H1115 C1102 0.962 . S
H1116 C1102 0.960 . S
H1117 C1103 0.961 . S
H1118 C1103 0.961 . S
H1119 C1103 0.961 . S
H1120 C1104 0.931 . S
H1121 C1109 0.930 . S
H1122 C1110 0.956 . S
H1123 C1110 0.961 . S
H1124 C1110 0.961 . S
H1125 C1111 0.958 . S
H1126 C1111 0.961 1_554 S
H1127 C1111 0.960 . S
C1128 C1129 1.391 . S
C1128 C1130 1.394 . S
C1128 H1144 0.931 . S
C1129 C1128 1.391 . S
C1129 C1133 1.376 . S
C1130 C1128 1.394 . S
C1130 C1131 1.369 . S
C1130 C1134 1.531 1_655 S
C1131 C1130 1.369 . S
C1131 C1132 1.410 . S
C1131 C1139 1.503 . S
C1132 C1131 1.410 . S
C1132 C1133 1.392 . S
C1132 C1135 1.511 . S
C1133 C1129 1.376 . S
C1133 C1132 1.392 . S
C1133 H1145 0.929 . S
C1134 C1130 1.531 1_455 S
C1134 H1146 0.960 . S
C1134 H1147 0.962 . S
C1134 H1148 0.960 . S
C1135 C1132 1.511 . S
C1135 H1149 0.961 . S
C1135 H1150 0.961 . S
C1135 H1151 0.961 . S
C1136 C1137 1.370 . S
C1136 C1138 1.363 . S
C1136 H1152 0.931 . S
C1137 C1136 1.370 . S
C1137 C1141 1.408 . S
C1138 C1136 1.363 . S
C1138 C1139 1.370 . S
C1138 C1142 1.524 . S
C1139 C1131 1.503 . S
C1139 C1138 1.370 . S
C1139 C1140 1.403 . S
C1140 C1139 1.403 . S
C1140 C1141 1.404 . S
C1140 C1143 1.539 . S
C1141 C1137 1.408 . S
C1141 C1140 1.404 . S
C1141 H1153 0.930 . S
C1142 C1138 1.524 . S
C1142 H1154 0.974 . S
C1142 H1155 0.961 . S
C1142 H1156 0.961 . S
C1143 C1140 1.539 . S
C1143 H1157 0.958 . S
C1143 H1158 0.961 . S
C1143 H1159 0.960 . S
H1144 C1128 0.931 . S
H1145 C1133 0.929 . S
H1146 C1134 0.960 . S
H1147 C1134 0.962 . S
H1148 C1134 0.960 . S
H1149 C1135 0.961 . S
H1150 C1135 0.961 . S
H1151 C1135 0.961 . S
H1152 C1136 0.931 . S
H1153 C1141 0.930 . S
H1154 C1142 0.974 . S
H1155 C1142 0.961 . S
H1156 C1142 0.961 . S
H1157 C1143 0.958 . S
H1158 C1143 0.961 . S
H1159 C1143 0.960 . S
C1160 C1161 1.391 . S
C1160 C1162 1.394 . S
C1160 H1176 0.931 1_565 S
C1161 C1160 1.391 . S
C1161 C1165 1.376 . S
C1162 C1160 1.394 . S
C1162 C1163 1.369 . S
C1162 C1166 1.531 1_565 S
C1163 C1162 1.369 . S
C1163 C1164 1.410 . S
C1163 C1171 1.503 . S
C1164 C1163 1.410 . S
C1164 C1165 1.392 . S
C1164 C1167 1.511 . S
C1165 C1161 1.376 . S
C1165 C1164 1.392 . S
C1165 H1177 0.929 . S
C1166 C1162 1.531 1_545 S
C1166 H1178 0.960 . S
C1166 H1179 0.962 . S
C1166 H1180 0.960 . S
C1167 C1164 1.511 . S
C1167 H1181 0.961 . S
C1167 H1182 0.961 . S
C1167 H1183 0.961 . S
C1168 C1169 1.370 . S
C1168 C1170 1.363 . S
C1168 H1184 0.931 . S
C1169 C1168 1.370 . S
C1169 C1173 1.408 . S
C1170 C1168 1.363 . S
C1170 C1171 1.370 . S
C1170 C1174 1.524 . S
C1171 C1163 1.503 . S
C1171 C1170 1.370 . S
C1171 C1172 1.403 . S
C1172 C1171 1.403 . S
C1172 C1173 1.404 . S
C1172 C1175 1.539 . S
C1173 C1169 1.408 . S
C1173 C1172 1.404 . S
C1173 H1185 0.930 . S
C1174 C1170 1.524 . S
C1174 H1186 0.956 . S
C1174 H1187 0.961 . S
C1174 H1188 0.961 . S
C1175 C1172 1.539 . S
C1175 H1189 0.958 . S
C1175 H1190 0.961 . S
C1175 H1191 0.960 . S
H1176 C1160 0.931 1_545 S
H1177 C1165 0.929 . S
H1178 C1166 0.960 . S
H1179 C1166 0.962 . S
H1180 C1166 0.960 . S
H1181 C1167 0.961 . S
H1182 C1167 0.961 . S
H1183 C1167 0.961 . S
H1184 C1168 0.931 . S
H1185 C1173 0.930 . S
H1186 C1174 0.956 . S
H1187 C1174 0.961 . S
H1188 C1174 0.961 . S
H1189 C1175 0.958 . S
H1190 C1175 0.961 . S
H1191 C1175 0.960 . S
C1192 C1193 1.391 . S
C1192 C1194 1.394 . S
C1192 H1208 0.931 . S
C1193 C1192 1.391 . S
C1193 C1197 1.376 . S
C1194 C1192 1.394 . S
C1194 C1195 1.369 . S
C1194 C1198 1.531 . S
C1195 C1194 1.369 . S
C1195 C1196 1.410 . S
C1195 C1203 1.503 . S
C1196 C1195 1.410 . S
C1196 C1197 1.392 . S
C1196 C1199 1.511 . S
C1197 C1193 1.376 . S
C1197 C1196 1.392 . S
C1197 H1209 0.929 . S
C1198 C1194 1.531 . S
C1198 H1210 0.960 . S
C1198 H1211 0.962 . S
C1198 H1212 0.960 . S
C1199 C1196 1.511 . S
C1199 H1213 0.961 . S
C1199 H1214 0.961 . S
C1199 H1215 0.961 . S
C1200 C1201 1.370 . S
C1200 C1202 1.363 . S
C1200 H1216 0.931 . S
C1201 C1200 1.370 . S
C1201 C1205 1.408 . S
C1202 C1200 1.363 . S
C1202 C1203 1.370 . S
C1202 C1206 1.524 . S
C1203 C1195 1.503 . S
C1203 C1202 1.370 . S
C1203 C1204 1.403 . S
C1204 C1203 1.403 . S
C1204 C1205 1.404 . S
C1204 C1207 1.539 . S
C1205 C1201 1.408 . S
C1205 C1204 1.404 . S
C1205 H1217 0.930 . S
C1206 C1202 1.524 . S
C1206 H1218 0.956 . S
C1206 H1219 0.961 . S
C1206 H1220 0.961 . S
C1207 C1204 1.539 . S
C1207 H1221 0.958 . S
C1207 H1222 0.961 . S
C1207 H1223 0.960 . S
H1208 C1192 0.931 . S
H1209 C1197 0.929 . S
H1210 C1198 0.960 . S
H1211 C1198 0.962 . S
H1212 C1198 0.960 . S
H1213 C1199 0.961 . S
H1214 C1199 0.961 . S
H1215 C1199 0.961 . S
H1216 C1200 0.931 . S
H1217 C1205 0.930 . S
H1218 C1206 0.956 . S
H1219 C1206 0.961 . S
H1220 C1206 0.961 . S
H1221 C1207 0.958 . S
H1222 C1207 0.961 . S
H1223 C1207 0.960 . S
C1224 C1225 1.391 . S
C1224 C1226 1.394 . S
C1224 H1240 0.931 . S
C1225 C1224 1.391 . S
C1225 C1229 1.376 . S
C1226 C1224 1.394 . S
C1226 C1227 1.369 . S
C1226 C1230 1.531 . S
C1227 C1226 1.369 . S
C1227 C1228 1.410 . S
C1227 C1235 1.503 . S
C1228 C1227 1.410 . S
C1228 C1229 1.392 . S
C1228 C1231 1.511 . S
C1229 C1225 1.376 . S
C1229 C1228 1.392 . S
C1229 H1241 0.929 . S
C1230 C1226 1.531 . S
C1230 H1242 0.960 . S
C1230 H1243 0.962 . S
C1230 H1244 0.960 . S
C1231 C1228 1.511 . S
C1231 H1245 0.961 . S
C1231 H1246 0.961 . S
C1231 H1247 0.961 . S
C1232 C1233 1.370 . S
C1232 C1234 1.363 . S
C1232 H1248 0.931 . S
C1233 C1232 1.370 . S
C1233 C1237 1.408 . S
C1234 C1232 1.363 . S
C1234 C1235 1.370 . S
C1234 C1238 1.524 . S
C1235 C1227 1.503 . S
C1235 C1234 1.370 . S
C1235 C1236 1.403 . S
C1236 C1235 1.403 . S
C1236 C1237 1.404 . S
C1236 C1239 1.539 . S
C1237 C1233 1.408 . S
C1237 C1236 1.404 . S
C1237 H1249 0.930 . S
C1238 C1234 1.524 . S
C1238 H1250 0.956 . S
C1238 H1251 0.961 . S
C1238 H1252 0.961 . S
C1239 C1236 1.539 . S
C1239 H1253 0.958 . S
C1239 H1254 0.961 . S
C1239 H1255 0.960 . S
H1240 C1224 0.931 . S
H1241 C1229 0.929 . S
H1242 C1230 0.960 . S
H1243 C1230 0.962 . S
H1244 C1230 0.960 . S
H1245 C1231 0.961 . S
H1246 C1231 0.961 . S
H1247 C1231 0.961 . S
H1248 C1232 0.931 . S
H1249 C1237 0.930 . S
H1250 C1238 0.956 . S
H1251 C1238 0.961 . S
H1252 C1238 0.961 . S
H1253 C1239 0.958 . S
H1254 C1239 0.961 . S
H1255 C1239 0.960 . S
C489 C125 1.920 . S
C497 C227 1.937 . S
C529 C311 1.950 . S
C521 C144 1.905 . S
C561 C387 1.945 . S
C553 C87 1.964 . S
C593 C471 1.913 . S
C585 C106 2.013 . S
C625 C218 1.946 1_565 S
C617 C49 1.978 . S
C649 C68 2.010 . S
C657 C302 1.966 . S
C681 C11 2.113 . S
C689 C376 1.949 . S
C713 C30 2.076 . S
C721 C460 1.915 . S
C753 C215 0.675 1_455 S
C745 C97 0.616 . S
C785 C299 0.673 . S
C777 C116 0.620 . S
C817 C392 0.660 . S
C809 C135 0.715 . S
C841 C78 0.759 . S
C849 C476 0.699 . S
C873 C21 0.625 . S
C881 C224 0.682 . S
C913 C308 0.632 . S
C905 C40 0.601 . S
C945 C383 0.627 . S
C937 C59 0.624 . S
C969 C2 0.751 . S
C977 C467 0.698 . S
C1001 C101 2.055 . S
C1009 C208 2.062 . S
C1033 C120 2.000 . S
C1041 C292 2.023 . S
C1073 C386 2.088 . S
C1065 C139 1.938 . S
C1105 C470 2.110 . S
C1097 C82 1.898 . S
C1129 C25 1.995 . S
C1137 C219 2.079 . S
C1169 C303 2.048 1_565 S
C1161 C44 1.961 . S
C1201 C395 2.078 . S
C1193 C63 1.941 . S
C1225 C6 1.959 . S
C1233 C479 2.106 . S
