# Generated by pormake.
# Topology ftw, (4,12)-cn, num edge types: 1
# Building blocks:
#     Node 0, Type 0, BuildingBlock: MIFKUJ_clean_linker_1, # of connection points: 4
#     Node 1, Type 0, BuildingBlock: MIFKUJ_clean_linker_1, # of connection points: 4
#     Node 2, Type 0, BuildingBlock: MIFKUJ_clean_linker_1, # of connection points: 4
#     Node 3, Type 1, BuildingBlock: EZIPEK_clean_sbu_0, # of connection points: 12
#     Edge 4, Type (0, 1), BuildingBlock: OJICUG_clean_linker_0, # of connection points: 2
#     Edge 5, Type (0, 1), BuildingBlock: OJICUG_clean_linker_0, # of connection points: 2
#     Edge 6, Type (0, 1), BuildingBlock: OJICUG_clean_linker_0, # of connection points: 2
#     Edge 7, Type (0, 1), BuildingBlock: OJICUG_clean_linker_0, # of connection points: 2
#     Edge 8, Type (0, 1), BuildingBlock: OJICUG_clean_linker_0, # of connection points: 2
#     Edge 9, Type (0, 1), BuildingBlock: OJICUG_clean_linker_0, # of connection points: 2
#     Edge 10, Type (0, 1), BuildingBlock: OJICUG_clean_linker_0, # of connection points: 2
#     Edge 11, Type (0, 1), BuildingBlock: OJICUG_clean_linker_0, # of connection points: 2
#     Edge 12, Type (0, 1), BuildingBlock: OJICUG_clean_linker_0, # of connection points: 2
#     Edge 13, Type (0, 1), BuildingBlock: OJICUG_clean_linker_0, # of connection points: 2
#     Edge 14, Type (0, 1), BuildingBlock: OJICUG_clean_linker_0, # of connection points: 2
#     Edge 15, Type (0, 1), BuildingBlock: OJICUG_clean_linker_0, # of connection points: 2
# Relax obj value: 0.048
# Max RMSD: 0.168
# Mean RMSD: 0.128
data_MOF--net-ftw--node1-EZIPEK_clean_sbu_0--node2-MIFKUJ_clean_linker_1--edge1-OJICUG_clean_linker_0
_symmetry_space_group_name_H-M    P1
_symmetry_Int_Tables_number       1
_symmetry_cell_setting            triclinic
loop_
_symmetry_equiv_pos_as_xyz
'x, y, z'
_cell_length_a     22.16603
_cell_length_b     23.045879
_cell_length_c     22.497785
_cell_angle_alpha  90.032946
_cell_angle_beta   90.081826
_cell_angle_gamma 89.960946
loop_
_atom_site_label
_atom_site_type_symbol
_atom_site_fract_x
_atom_site_fract_y
_atom_site_fract_z
_atom_type_partial_charge
H0 H 0.08284 0.60852 0.61716 0.0
H1 H 0.08142 0.68354 0.69373 0.0
H2 H 0.91074 0.74567 0.62634 0.0
H3 H 0.91209 0.66986 0.54979 0.0
H4 H 0.00462 0.52616 0.61793 0.0
H5 H 0.06355 0.6678 0.46854 0.0
H6 H 0.06669 0.74315 0.39163 0.0
H7 H 0.89478 0.68437 0.32428 0.0
H8 H 0.89156 0.60985 0.4012 0.0
H9 H 0.88913 0.44326 0.40218 0.0
H10 H 0.89057 0.36826 0.32558 0.0
H11 H 0.06126 0.30614 0.39295 0.0
H12 H 0.05989 0.38193 0.46953 0.0
H13 H 0.96735 0.52562 0.40141 0.0
H14 H 0.9084 0.384 0.55082 0.0
H15 H 0.90523 0.30868 0.62776 0.0
H16 H 0.07717 0.36743 0.69509 0.0
H17 H 0.08041 0.44192 0.61814 0.0
C18 C -0.00239 0.63327 0.57734 0.0
C19 C 0.04552 0.6389 0.61805 0.0
C20 C 0.04438 0.68149 0.66234 0.0
C21 C -0.00454 0.72003 0.667 0.0
C22 C 0.94918 0.71673 0.62405 0.0
C23 C 0.95011 0.67363 0.57983 0.0
C24 C -0.00715 0.57959 0.54037 0.0
C25 C -0.00233 0.52602 0.57017 0.0
C26 C 0.98063 0.57947 0.47847 0.0
C27 C 0.97728 0.63293 0.44104 0.0
C28 C 0.02568 0.67221 0.4384 0.0
C29 C 0.02764 0.71504 0.39397 0.0
C30 C 0.9815 0.71912 0.35095 0.0
C31 C 0.93174 0.68167 0.3557 0.0
C32 C 0.92958 0.63936 0.4002 0.0
C33 C 0.97436 0.41851 0.44199 0.0
C34 C 0.92645 0.41289 0.40128 0.0
C35 C 0.9276 0.37031 0.35696 0.0
C36 C 0.97653 0.33178 0.35229 0.0
C37 C 0.02281 0.33507 0.39525 0.0
C38 C 0.02186 0.37816 0.43949 0.0
C39 C 0.97912 0.47218 0.47897 0.0
C40 C 0.9743 0.52576 0.44917 0.0
C41 C -0.00865 0.47231 0.54087 0.0
C42 C -0.00531 0.41885 0.57831 0.0
C43 C 0.94627 0.37959 0.58096 0.0
C44 C 0.94429 0.33678 0.6254 0.0
C45 C -0.00957 0.33269 0.66844 0.0
C46 C 0.04021 0.37013 0.66366 0.0
C47 C 0.04238 0.41242 0.61915 0.0
H48 H 0.40902 0.13067 0.40325 0.0
H49 H 0.33167 0.13188 0.32497 0.0
H50 H 0.34415 0.94543 0.31034 0.0
H51 H 0.42244 0.94453 0.38746 0.0
H52 H 0.37861 0.05618 0.50812 0.0
H53 H 0.54988 0.10566 0.38583 0.0
H54 H 0.62865 0.10397 0.3094 0.0
H55 H 0.64571 0.91849 0.33048 0.0
H56 H 0.56787 0.92052 0.4081 0.0
H57 H 0.56289 0.92142 0.61601 0.0
H58 H 0.64023 0.9201 0.6943 0.0
H59 H 0.62784 0.10654 0.70909 0.0
H60 H 0.54956 0.10755 0.63197 0.0
H61 H 0.59337 0.99597 0.51122 0.0
H62 H 0.42211 0.94643 0.63343 0.0
H63 H 0.34333 0.94803 0.70985 0.0
H64 H 0.32619 0.13352 0.68891 0.0
H65 H 0.40405 0.13159 0.6113 0.0
C66 C 0.42133 0.03759 0.40029 0.0
C67 C 0.39637 0.09042 0.38168 0.0
C68 C 0.35226 0.09102 0.3375 0.0
C69 C 0.33201 0.03865 0.31278 0.0
C70 C 0.35909 0.98613 0.32947 0.0
C71 C 0.40398 0.98567 0.37278 0.0
C72 C 0.45645 0.03491 0.45535 0.0
C73 C 0.42601 0.04429 0.50882 0.0
C74 C 0.5169 1.0167 0.45618 0.0
C75 C 0.55321 1.01314 0.40192 0.0
C76 C 0.56952 0.0645 0.37281 0.0
C77 C 0.61467 0.06362 0.32986 0.0
C78 C 0.6431 1.01121 0.31509 0.0
C79 C 0.62409 0.95927 0.34153 0.0
C80 C 0.57971 0.96033 0.38536 0.0
C81 C 0.55063 1.0145 0.61905 0.0
C82 C 0.57556 0.96164 0.63762 0.0
C83 C 0.61966 0.96098 0.68181 0.0
C84 C 0.63993 1.01333 0.70657 0.0
C85 C 0.61288 0.06587 0.68993 0.0
C86 C 0.56799 0.06639 0.64661 0.0
C87 C 0.51553 1.01724 0.56398 0.0
C88 C 0.54596 1.00787 0.51052 0.0
C89 C 0.45508 0.03545 0.56316 0.0
C90 C 0.41875 0.03896 0.61742 0.0
C91 C 0.40246 0.98757 0.64648 0.0
C92 C 0.35729 0.98841 0.68942 0.0
C93 C 0.32884 0.04079 0.70423 0.0
C94 C 0.34784 0.09276 0.67783 0.0
C95 C 0.39221 0.09175 0.63401 0.0
H96 H 0.5306 0.66458 0.93363 0.0
H97 H 0.60763 0.74065 0.93221 0.0
H98 H 0.67049 0.6851 0.10486 0.0
H99 H 0.59318 0.60962 0.10639 0.0
H100 H 0.59524 0.5239 0.03188 0.0
H101 H 0.38299 0.61238 0.91123 0.0
H102 H 0.30818 0.6902 0.91126 0.0
H103 H 0.37152 0.74616 0.08361 0.0
H104 H 0.44622 0.66772 0.08364 0.0
H105 H 0.44134 0.38719 0.08573 0.0
H106 H 0.36429 0.31116 0.08717 0.0
H107 H 0.30142 0.36671 0.91452 0.0
H108 H 0.37876 0.44216 0.91297 0.0
H109 H 0.37672 0.52788 0.98747 0.0
H110 H 0.589 0.4394 0.10811 0.0
H111 H 0.66384 0.36161 0.10804 0.0
H112 H 0.60046 0.30565 0.9357 0.0
H113 H 0.52574 0.38406 0.93571 0.0
C114 C 0.55596 0.63146 0.02018 0.0
C115 C 0.55973 0.66989 0.97195 0.0
C116 C 0.60408 0.71305 0.97099 0.0
C117 C 0.64567 0.71811 0.01803 0.0
C118 C 0.63986 0.68143 0.06749 0.0
C119 C 0.59536 0.63868 0.06861 0.0
C120 C 0.5181 0.57857 0.01638 0.0
C121 C 0.54704 0.52477 0.02337 0.0
C122 C 0.45595 0.57973 1.00231 0.0
C123 C 0.42026 0.63408 0.99745 0.0
C124 C 0.38158 0.64204 0.94859 0.0
C125 C 0.33851 0.68622 0.94884 0.0
C126 C 0.33334 0.72364 0.99786 0.0
C127 C 0.37457 0.71803 0.04515 0.0
C128 C 0.41754 0.67343 0.04506 0.0
C129 C 0.41599 0.42032 0.99918 0.0
C130 C 0.41221 0.3819 0.04742 0.0
C131 C 0.36784 0.33875 0.04838 0.0
C132 C 0.32624 0.33371 1.00135 0.0
C133 C 0.33206 0.37037 0.95189 0.0
C134 C 0.37658 0.41311 0.95076 0.0
C135 C 0.45386 0.47321 1.00298 0.0
C136 C 0.42492 0.527 0.99599 0.0
C137 C 0.516 0.47204 0.01706 0.0
C138 C 0.55171 0.4177 0.0219 0.0
C139 C 0.59041 0.40975 0.07074 0.0
C140 C 0.63349 0.36558 0.07047 0.0
C141 C 0.63867 0.32818 0.02145 0.0
C142 C 0.59742 0.33377 0.97417 0.0
C143 C 0.55443 0.37836 0.97428 0.0
C144 C 0.98181 0.1668 0.86389 0.0
C145 C 0.98473 0.16591 0.15653 0.0
C146 C -0.01275 0.88589 0.86277 0.0
C147 C -0.00986 0.885 0.15548 0.0
C148 C 0.13615 0.88871 1.00809 0.0
C149 C 0.13043 0.16793 0.01009 0.0
C150 C 0.8415 0.88386 1.00926 0.0
C151 C 0.83584 0.16308 0.01123 0.0
C152 C 0.84108 1.01852 0.15228 0.0
C153 C 0.13283 0.03191 0.15098 0.0
C154 C 0.83914 1.01989 0.86835 0.0
C155 C 0.13088 0.0333 0.86706 0.0
Eu156 Eu 0.9836 0.13785 0.01011 0.0
O157 O 0.03766 0.079 0.06232 0.0
O158 O 0.93158 0.0779 0.9569 0.0
Eu159 Eu 0.09772 0.02784 1.00922 0.0
Eu160 Eu 0.87424 1.02397 0.01011 0.0
O161 O 0.0369 0.07921 0.957 0.0
O162 O 0.93241 0.07739 0.06327 0.0
Eu163 Eu 0.98513 0.02628 0.8971 0.0
Eu164 Eu -0.01317 1.02554 0.12224 0.0
O165 O 0.03949 0.97433 0.95612 0.0
O166 O 0.04032 0.97381 0.06239 0.0
O167 O 0.93512 0.97252 0.06228 0.0
O168 O 0.93435 0.97272 0.95706 0.0
Eu169 Eu -0.01164 0.91381 1.00923 0.0
O170 O 0.98295 0.18557 0.92042 0.0
O171 O 0.98326 0.18499 0.10014 0.0
O172 O -0.0113 0.86677 0.91915 0.0
O173 O -0.01099 0.86619 0.09896 0.0
O174 O 0.1517 0.9446 1.00897 0.0
O175 O 0.1479 0.11264 0.0104 0.0
O176 O 0.82405 0.93916 1.00895 0.0
O177 O 0.82026 0.1072 0.01034 0.0
O178 O 0.8978 1.02264 0.17175 0.0
O179 O 0.07636 0.02806 0.17096 0.0
O180 O 0.89561 1.02375 0.84837 0.0
O181 O 0.07416 0.02919 0.84758 0.0
O182 O 0.89871 0.8652 0.00992 0.0
O183 O 0.07961 0.86841 1.00773 0.0
O184 O 0.8924 0.18334 0.01159 0.0
O185 O 0.0732 0.18655 1.00942 0.0
O186 O -0.01387 0.11028 0.17303 0.0
O187 O -0.0099 0.94055 0.17239 0.0
O188 O 0.98184 0.11126 0.84695 0.0
O189 O 0.98585 0.94153 0.84629 0.0
O190 O 0.14848 0.03358 0.92351 0.0
O191 O 0.14969 0.03239 0.09438 0.0
O192 O 0.82228 1.01939 0.92495 0.0
O193 O 0.82348 1.01823 0.09583 0.0
C194 C -0.00157 0.23217 0.31117 0.0
C195 C 0.97984 0.2897 0.30175 0.0
H196 H 0.01448 0.14846 0.27339 0.0
C197 C 0.9643 0.30678 0.24352 0.0
H198 H 0.01042 0.21739 0.35533 0.0
C199 C 0.96683 0.26721 0.1961 0.0
C200 C 0.98438 0.20934 0.20579 0.0
H201 H 0.95056 0.35101 0.23447 0.0
H202 H 0.95414 0.28181 0.15207 0.0
C203 C 0.00038 0.19252 0.264 0.0
C204 C 0.74614 0.04448 0.28823 0.0
C205 C 0.69484 1.01129 0.27462 0.0
H206 H 0.83407 0.07176 0.26016 0.0
C207 C 0.6932 0.97829 0.22243 0.0
H208 H 0.74813 0.06976 0.32881 0.0
C209 C 0.74158 0.98002 0.18311 0.0
C210 C 0.79268 1.01382 0.19619 0.0
H211 H 0.65398 0.95231 0.21151 0.0
H212 H 0.73896 0.9551 0.14232 0.0
C213 C 0.79519 0.04524 0.24947 0.0
C214 C 0.96958 0.74415 0.24216 0.0
C215 C 0.98565 0.76102 0.30034 0.0
H216 H 0.95897 0.76934 0.15084 0.0
C217 C 0.00525 0.81824 0.30968 0.0
H218 H 0.95508 0.70014 0.23315 0.0
C219 C 0.0074 0.85788 0.26254 0.0
C220 C -0.00941 0.84134 0.20446 0.0
H221 H 0.01771 0.83284 0.35379 0.0
H222 H 0.02211 0.90176 0.27187 0.0
C223 C 0.97232 0.78369 0.19478 0.0
C224 C 0.22844 1.0062 0.2867 0.0
C225 C 0.28018 0.03838 0.27235 0.0
H226 H 0.13984 0.97991 0.25947 0.0
C227 C 0.28203 0.07048 0.21964 0.0
H228 H 0.22626 0.98169 0.32773 0.0
C229 C 0.23333 0.06893 0.18062 0.0
C230 C 0.18177 0.03618 0.19444 0.0
H231 H 0.32157 0.0957 0.20817 0.0
H232 H 0.23605 0.09325 0.13951 0.0
C233 C 0.17911 1.00559 0.24817 0.0
C234 C 0.00767 0.74503 0.77577 0.0
C235 C -0.00785 0.76212 0.71753 0.0
H236 H 0.01781 0.76999 0.86722 0.0
C237 C 0.97359 0.81966 0.70811 0.0
H238 H 0.02139 0.7008 0.78482 0.0
C239 C 0.97164 0.8593 0.75529 0.0
C240 C -0.01239 0.84247 0.8135 0.0
H241 H 0.96162 0.83443 0.66394 0.0
H242 H 0.95756 0.90337 0.74589 0.0
C243 C 0.00514 0.7846 0.82319 0.0
C244 C 0.27875 0.07363 0.79692 0.0
C245 C 0.27711 0.04067 0.74471 0.0
H246 H 0.23298 0.09675 0.87705 0.0
C247 C 0.22583 1.00746 0.73108 0.0
H248 H 0.31795 0.09962 0.80785 0.0
C249 C 0.17678 1.00665 0.76985 0.0
C250 C 0.17929 0.03804 0.82315 0.0
H251 H 0.22384 0.9822 0.69049 0.0
H252 H 0.13791 0.98012 0.75915 0.0
C253 C 0.23036 0.07185 0.83624 0.0
C254 C 0.96664 0.23359 0.70971 0.0
C255 C -0.01372 0.2908 0.71905 0.0
H256 H 0.94976 0.15007 0.74752 0.0
C257 C 0.00237 0.30766 0.77722 0.0
H258 H 0.95416 0.21899 0.66561 0.0
C259 C -0.00036 0.26811 0.82461 0.0
C260 C 0.98134 0.21048 0.81492 0.0
H261 H 0.0169 0.35166 0.78623 0.0
H262 H 0.01301 0.28245 0.86854 0.0
C263 C 0.9645 0.19395 0.75685 0.0
C264 C 0.68992 0.98139 0.79967 0.0
C265 C 0.69177 1.01354 0.74699 0.0
H266 H 0.7359 0.95855 0.87979 0.0
C267 C 0.74352 0.0457 0.73266 0.0
H268 H 0.65037 0.95617 0.81113 0.0
C269 C 0.79286 0.04627 0.77118 0.0
C270 C 0.7902 1.01564 0.82489 0.0
H271 H 0.74571 0.07026 0.69166 0.0
H272 H 0.83214 0.07195 0.7599 0.0
C273 C 0.73863 0.98289 0.83869 0.0
C274 C 0.21671 0.30858 0.98899 0.0
C275 C 0.27569 0.29172 1.00462 0.0
H276 H 0.12424 0.28302 0.97904 0.0
C277 C 0.28597 0.23462 0.02359 0.0
H278 H 0.20736 0.35262 0.97491 0.0
C279 C 0.23857 0.19489 0.02591 0.0
C280 C 0.17956 0.21145 0.00985 0.0
H281 H 0.33092 0.22034 0.03564 0.0
H282 H 0.24842 0.15103 0.04021 0.0
C283 C 0.16902 0.26891 0.99187 0.0
C284 C 0.29298 0.82327 0.01976 0.0
C285 C 0.28293 0.76603 1.00088 0.0
H286 H 0.25475 0.90686 0.03671 0.0
C287 C 0.22397 0.74905 0.98548 0.0
H288 H 0.33791 0.83762 0.03175 0.0
C289 C 0.17614 0.78852 0.98861 0.0
C290 C 0.18627 0.84605 1.00668 0.0
H291 H 0.21468 0.70495 0.97156 0.0
H292 H 0.13139 0.77406 0.9761 0.0
C293 C 0.24528 0.86294 0.02229 0.0
C294 C 0.74804 0.30276 0.03381 0.0
C295 C 0.68909 0.28579 0.01841 0.0
H296 H 0.84062 0.27775 0.04319 0.0
C297 C 0.67903 0.22855 0.99953 0.0
H298 H 0.75734 0.34687 0.04773 0.0
C299 C 0.72673 0.18888 0.99699 0.0
C300 C 0.78573 0.20575 0.01261 0.0
H301 H 0.6341 0.2142 0.98754 0.0
H302 H 0.71725 0.14496 0.98258 0.0
C303 C 0.79588 0.26329 0.03068 0.0
C304 C 0.68594 0.8172 0.99581 0.0
C305 C 0.69622 0.7601 0.01477 0.0
H306 H 0.7235 0.90079 0.97919 0.0
C307 C 0.7552 0.74323 0.03039 0.0
H308 H 0.64098 0.83148 0.98376 0.0
C309 C 0.80288 0.78289 0.0275 0.0
C310 C 0.79234 0.84036 1.00953 0.0
H311 H 0.76454 0.69919 0.04446 0.0
H312 H 0.84767 0.76878 0.04032 0.0
C313 C 0.73334 0.85692 0.99349 0.0
loop_
_geom_bond_atom_site_label_1
_geom_bond_atom_site_label_2
_geom_bond_distance
_geom_bond_site_symmetry_2
_ccdc_geom_bond_type
H0 C19 0.949 . S
H1 C20 0.950 . S
H2 C22 0.950 . S
H3 C23 0.950 . S
H4 C25 0.950 . S
H5 C28 0.950 . S
H6 C29 0.950 . S
H7 C31 0.951 . S
H8 C32 0.949 . S
H9 C34 0.949 . S
H10 C35 0.950 . S
H11 C37 0.950 . S
H12 C38 0.950 . S
H13 C40 0.950 . S
H14 C43 0.950 . S
H15 C44 0.950 . S
H16 C46 0.951 . S
H17 C47 0.949 . S
C18 C19 1.376 . S
C18 C23 1.386 1_455 S
C18 C24 1.483 . S
C19 H0 0.949 . S
C19 C18 1.376 . S
C19 C20 1.397 . S
C20 H1 0.950 . S
C20 C19 1.397 . S
C20 C21 1.391 . S
C21 C20 1.391 . S
C21 C22 1.405 1_455 S
C22 H2 0.950 . S
C22 C21 1.405 1_655 S
C22 C23 1.367 . S
C23 H3 0.950 . S
C23 C18 1.386 1_655 S
C23 C22 1.367 . S
C24 C18 1.483 . S
C24 C25 1.382 . S
C24 C26 1.403 1_455 S
C25 H4 0.950 . S
C25 C24 1.382 . S
C25 C41 1.411 . S
C26 C24 1.403 1_655 S
C26 C27 1.489 . S
C26 C40 1.411 . S
C27 C26 1.489 . S
C27 C28 1.383 1_655 S
C27 C32 1.382 . S
C28 H5 0.950 . S
C28 C27 1.383 1_455 S
C28 C29 1.395 . S
C29 H6 0.950 . S
C29 C28 1.395 . S
C29 C30 1.288 1_455 S
C30 C29 1.288 1_655 S
C30 C31 1.392 . S
C31 H7 0.951 . S
C31 C30 1.392 . S
C31 C32 1.392 . S
C32 H8 0.949 . S
C32 C27 1.382 . S
C32 C31 1.392 . S
C33 C34 1.376 . S
C33 C38 1.386 1_655 S
C33 C39 1.483 . S
C34 H9 0.949 . S
C34 C33 1.376 . S
C34 C35 1.397 . S
C35 H10 0.950 . S
C35 C34 1.397 . S
C35 C36 1.391 . S
C36 C35 1.391 . S
C36 C37 1.405 1_655 S
C37 H11 0.950 . S
C37 C36 1.405 1_455 S
C37 C38 1.367 . S
C38 H12 0.950 . S
C38 C33 1.386 1_455 S
C38 C37 1.367 . S
C39 C33 1.483 . S
C39 C40 1.382 . S
C39 C41 1.403 1_655 S
C40 H13 0.950 . S
C40 C26 1.411 . S
C40 C39 1.382 . S
C41 C25 1.411 . S
C41 C39 1.403 1_455 S
C41 C42 1.489 . S
C42 C41 1.489 . S
C42 C43 1.383 1_455 S
C42 C47 1.382 . S
C43 H14 0.950 . S
C43 C42 1.383 1_655 S
C43 C44 1.395 . S
C44 H15 0.950 . S
C44 C43 1.395 . S
C44 C45 1.288 1_655 S
C45 C44 1.288 1_455 S
C45 C46 1.392 . S
C46 H16 0.951 . S
C46 C45 1.392 . S
C46 C47 1.392 . S
C47 H17 0.949 . S
C47 C42 1.382 . S
C47 C46 1.392 . S
H48 C67 0.949 . S
H49 C68 0.950 . S
H50 C70 0.950 . S
H51 C71 0.950 . S
H52 C73 0.950 . S
H53 C76 0.950 . S
H54 C77 0.950 . S
H55 C79 0.951 . S
H56 C80 0.949 . S
H57 C82 0.949 . S
H58 C83 0.950 . S
H59 C85 0.950 . S
H60 C86 0.950 . S
H61 C88 0.950 . S
H62 C91 0.950 . S
H63 C92 0.950 . S
H64 C94 0.951 . S
H65 C95 0.949 . S
C66 C67 1.376 . S
C66 C71 1.386 1_545 S
C66 C72 1.483 . S
C67 H48 0.949 . S
C67 C66 1.376 . S
C67 C68 1.397 . S
C68 H49 0.950 . S
C68 C67 1.397 . S
C68 C69 1.391 . S
C69 C68 1.391 . S
C69 C70 1.405 1_545 S
C70 H50 0.950 . S
C70 C69 1.405 1_565 S
C70 C71 1.367 . S
C71 H51 0.950 . S
C71 C66 1.386 1_565 S
C71 C70 1.367 . S
C72 C66 1.483 . S
C72 C73 1.382 . S
C72 C74 1.403 1_545 S
C73 H52 0.950 . S
C73 C72 1.382 . S
C73 C89 1.411 . S
C74 C72 1.403 1_565 S
C74 C75 1.489 . S
C74 C88 1.411 . S
C75 C74 1.489 . S
C75 C76 1.383 1_565 S
C75 C80 1.382 . S
C76 H53 0.950 . S
C76 C75 1.383 1_545 S
C76 C77 1.395 . S
C77 H54 0.950 . S
C77 C76 1.395 . S
C77 C78 1.288 1_545 S
C78 C77 1.288 1_565 S
C78 C79 1.392 . S
C79 H55 0.951 . S
C79 C78 1.392 . S
C79 C80 1.392 . S
C80 H56 0.949 . S
C80 C75 1.382 . S
C80 C79 1.392 . S
C81 C82 1.376 . S
C81 C86 1.386 1_565 S
C81 C87 1.483 . S
C82 H57 0.949 . S
C82 C81 1.376 . S
C82 C83 1.397 . S
C83 H58 0.950 . S
C83 C82 1.397 . S
C83 C84 1.391 . S
C84 C83 1.391 . S
C84 C85 1.405 1_565 S
C85 H59 0.950 . S
C85 C84 1.405 1_545 S
C85 C86 1.367 . S
C86 H60 0.950 . S
C86 C81 1.386 1_545 S
C86 C85 1.367 . S
C87 C81 1.483 . S
C87 C88 1.382 . S
C87 C89 1.403 1_565 S
C88 H61 0.950 . S
C88 C74 1.411 . S
C88 C87 1.382 . S
C89 C73 1.411 . S
C89 C87 1.403 1_545 S
C89 C90 1.489 . S
C90 C89 1.489 . S
C90 C91 1.383 1_545 S
C90 C95 1.382 . S
C91 H62 0.950 . S
C91 C90 1.383 1_565 S
C91 C92 1.395 . S
C92 H63 0.950 . S
C92 C91 1.395 . S
C92 C93 1.288 1_565 S
C93 C92 1.288 1_545 S
C93 C94 1.392 . S
C94 H64 0.951 . S
C94 C93 1.392 . S
C94 C95 1.392 . S
C95 H65 0.949 . S
C95 C90 1.382 . S
C95 C94 1.392 . S
H96 C115 0.949 . S
H97 C116 0.950 . S
H98 C118 0.950 . S
H99 C119 0.950 . S
H100 C121 0.950 . S
H101 C124 0.950 . S
H102 C125 0.950 . S
H103 C127 0.951 . S
H104 C128 0.949 . S
H105 C130 0.949 . S
H106 C131 0.950 . S
H107 C133 0.950 . S
H108 C134 0.950 . S
H109 C136 0.950 . S
H110 C139 0.950 . S
H111 C140 0.950 . S
H112 C142 0.951 . S
H113 C143 0.949 . S
C114 C115 1.376 . S
C114 C119 1.386 1_556 S
C114 C120 1.483 . S
C115 H96 0.949 . S
C115 C114 1.376 . S
C115 C116 1.397 . S
C116 H97 0.950 . S
C116 C115 1.397 . S
C116 C117 1.391 . S
C117 C116 1.391 . S
C117 C118 1.405 1_556 S
C118 H98 0.950 . S
C118 C117 1.405 1_554 S
C118 C119 1.367 . S
C119 H99 0.950 . S
C119 C114 1.386 1_554 S
C119 C118 1.367 . S
C120 C114 1.483 . S
C120 C121 1.382 . S
C120 C122 1.403 1_556 S
C121 H100 0.950 . S
C121 C120 1.382 . S
C121 C137 1.411 . S
C122 C120 1.403 1_554 S
C122 C123 1.489 . S
C122 C136 1.411 . S
C123 C122 1.489 . S
C123 C124 1.383 1_554 S
C123 C128 1.382 . S
C124 H101 0.950 . S
C124 C123 1.383 1_556 S
C124 C125 1.395 . S
C125 H102 0.950 . S
C125 C124 1.395 . S
C125 C126 1.288 1_556 S
C126 C125 1.288 1_554 S
C126 C127 1.392 . S
C127 H103 0.951 . S
C127 C126 1.392 . S
C127 C128 1.392 . S
C128 H104 0.949 . S
C128 C123 1.382 . S
C128 C127 1.392 . S
C129 C130 1.376 . S
C129 C134 1.386 1_554 S
C129 C135 1.483 . S
C130 H105 0.949 . S
C130 C129 1.376 . S
C130 C131 1.397 . S
C131 H106 0.950 . S
C131 C130 1.397 . S
C131 C132 1.391 . S
C132 C131 1.391 . S
C132 C133 1.405 1_554 S
C133 H107 0.950 . S
C133 C132 1.405 1_556 S
C133 C134 1.367 . S
C134 H108 0.950 . S
C134 C129 1.386 1_556 S
C134 C133 1.367 . S
C135 C129 1.483 . S
C135 C136 1.382 . S
C135 C137 1.403 1_554 S
C136 H109 0.950 . S
C136 C122 1.411 . S
C136 C135 1.382 . S
C137 C121 1.411 . S
C137 C135 1.403 1_556 S
C137 C138 1.489 . S
C138 C137 1.489 . S
C138 C139 1.383 1_556 S
C138 C143 1.382 . S
C139 H110 0.950 . S
C139 C138 1.383 1_554 S
C139 C140 1.395 . S
C140 H111 0.950 . S
C140 C139 1.395 . S
C140 C141 1.288 1_554 S
C141 C140 1.288 1_556 S
C141 C142 1.392 . S
C142 H112 0.951 . S
C142 C141 1.392 . S
C142 C143 1.392 . S
C143 H113 0.949 . S
C143 C138 1.382 . S
C143 C142 1.392 . S
C144 O170 1.283 . S
C144 O188 1.283 . S
C145 O171 1.283 . S
C145 O186 1.283 . S
C146 O172 1.283 . S
C146 O189 1.283 . S
C147 O173 1.283 . S
C147 O187 1.283 . S
C148 O174 1.283 . S
C148 O183 1.283 . S
C149 O175 1.283 . S
C149 O185 1.283 . S
C150 O176 1.283 . S
C150 O182 1.283 . S
C151 O177 1.283 . S
C151 O184 1.283 . S
C152 O178 1.283 . S
C152 O193 1.283 . S
C153 O179 1.283 . S
C153 O191 1.283 . S
C154 O180 1.283 . S
C154 O192 1.283 . S
C155 O181 1.283 . S
C155 O190 1.283 . S
Eu156 O157 2.371 . S
Eu156 O158 2.369 1_454 S
Eu156 O161 2.370 1_554 S
Eu156 O162 2.370 1_455 S
Eu156 O170 2.362 1_554 S
Eu156 O171 2.363 . S
Eu156 O184 2.362 1_455 S
Eu156 O185 2.363 . S
O157 Eu156 2.371 . S
O157 Eu159 2.371 . S
O157 Eu164 2.371 . S
O158 Eu156 2.369 1_656 S
O158 Eu160 2.370 1_556 S
O158 Eu163 2.370 1_655 S
Eu159 O157 2.371 . S
Eu159 O161 2.370 1_554 S
Eu159 O165 2.369 1_544 S
Eu159 O166 2.370 1_545 S
Eu159 O174 2.362 1_545 S
Eu159 O175 2.364 . S
Eu159 O190 2.362 1_554 S
Eu159 O191 2.364 . S
Eu160 O158 2.370 1_554 S
Eu160 O162 2.369 . S
Eu160 O167 2.370 1_545 S
Eu160 O168 2.371 1_544 S
Eu160 O176 2.364 1_545 S
Eu160 O177 2.362 . S
Eu160 O192 2.364 1_554 S
Eu160 O193 2.362 . S
O161 Eu156 2.370 1_556 S
O161 Eu159 2.370 1_556 S
O161 Eu163 2.369 . S
O162 Eu156 2.370 1_655 S
O162 Eu160 2.369 . S
O162 Eu164 2.370 1_655 S
Eu163 O158 2.370 1_455 S
Eu163 O161 2.369 . S
Eu163 O165 2.370 1_545 S
Eu163 O168 2.371 1_445 S
Eu163 O180 2.364 1_455 S
Eu163 O181 2.362 . S
Eu163 O188 2.362 . S
Eu163 O189 2.364 1_545 S
Eu164 O157 2.371 . S
Eu164 O162 2.370 1_455 S
Eu164 O166 2.370 1_545 S
Eu164 O167 2.369 1_445 S
Eu164 O178 2.362 1_455 S
Eu164 O179 2.364 . S
Eu164 O186 2.364 . S
Eu164 O187 2.362 1_545 S
O165 Eu159 2.369 1_566 S
O165 Eu163 2.370 1_565 S
O165 Eu169 2.370 1_556 S
O166 Eu159 2.370 1_565 S
O166 Eu164 2.370 1_565 S
O166 Eu169 2.369 . S
O167 Eu160 2.370 1_565 S
O167 Eu164 2.369 1_665 S
O167 Eu169 2.370 1_655 S
O168 Eu160 2.371 1_566 S
O168 Eu163 2.371 1_665 S
O168 Eu169 2.371 1_656 S
Eu169 O165 2.370 1_554 S
Eu169 O166 2.369 . S
Eu169 O167 2.370 1_455 S
Eu169 O168 2.371 1_454 S
Eu169 O172 2.363 1_554 S
Eu169 O173 2.362 . S
Eu169 O182 2.363 1_455 S
Eu169 O183 2.362 . S
O170 C144 1.283 . S
O170 Eu156 2.362 1_556 S
O171 C145 1.283 . S
O171 Eu156 2.363 . S
O172 C146 1.283 . S
O172 Eu169 2.363 1_556 S
O173 C147 1.283 . S
O173 Eu169 2.362 . S
O174 C148 1.283 . S
O174 Eu159 2.362 1_565 S
O175 C149 1.283 . S
O175 Eu159 2.364 . S
O176 C150 1.283 . S
O176 Eu160 2.364 1_565 S
O177 C151 1.283 . S
O177 Eu160 2.362 . S
O178 C152 1.283 . S
O178 Eu164 2.362 1_655 S
O179 C153 1.283 . S
O179 Eu164 2.364 . S
O180 C154 1.283 . S
O180 Eu163 2.364 1_655 S
O181 C155 1.283 . S
O181 Eu163 2.362 . S
O182 C150 1.283 . S
O182 Eu169 2.363 1_655 S
O183 C148 1.283 . S
O183 Eu169 2.362 . S
O184 C151 1.283 . S
O184 Eu156 2.362 1_655 S
O185 C149 1.283 . S
O185 Eu156 2.363 . S
O186 C145 1.283 . S
O186 Eu164 2.364 . S
O187 C147 1.283 . S
O187 Eu164 2.362 1_565 S
O188 C144 1.283 . S
O188 Eu163 2.362 . S
O189 C146 1.283 . S
O189 Eu163 2.364 1_565 S
O190 C155 1.283 . S
O190 Eu159 2.362 1_556 S
O191 C153 1.283 . S
O191 Eu159 2.364 . S
O192 C154 1.283 . S
O192 Eu160 2.364 1_556 S
O193 C152 1.283 . S
O193 Eu160 2.362 . S
C194 C195 1.388 . S
C194 H198 0.950 . S
C194 C203 1.390 . S
C195 C194 1.388 . S
C195 C197 1.387 1_455 S
H196 C203 0.950 . S
C197 C195 1.387 1_655 S
C197 C199 1.390 . S
C197 H201 0.950 . S
H198 C194 0.950 . S
C199 C197 1.390 . S
C199 C200 1.386 1_655 S
C199 H202 0.950 . S
C200 C199 1.386 1_455 S
C200 C203 1.389 . S
H201 C197 0.950 . S
H202 C199 0.950 . S
C203 C194 1.390 . S
C203 H196 0.950 . S
C203 C200 1.389 . S
C204 C205 1.388 . S
C204 H208 0.950 . S
C204 C213 1.390 . S
C205 C204 1.388 . S
C205 C207 1.387 1_545 S
H206 C213 0.950 . S
C207 C205 1.387 1_565 S
C207 C209 1.390 . S
C207 H211 0.950 . S
H208 C204 0.950 . S
C209 C207 1.390 . S
C209 C210 1.388 1_565 S
C209 H212 0.950 . S
C210 C209 1.388 1_545 S
C210 C213 1.387 . S
H211 C207 0.950 . S
H212 C209 0.950 . S
C213 C204 1.390 . S
C213 H206 0.950 . S
C213 C210 1.387 . S
C214 C215 1.387 1_655 S
C214 H218 0.950 . S
C214 C223 1.390 . S
C215 C214 1.387 1_455 S
C215 C217 1.388 . S
H216 C223 0.950 . S
C217 C215 1.388 . S
C217 C219 1.390 . S
C217 H221 0.950 . S
H218 C214 0.950 . S
C219 C217 1.390 . S
C219 C220 1.388 . S
C219 H222 0.950 . S
C220 C219 1.388 . S
C220 C223 1.387 1_455 S
H221 C217 0.950 . S
H222 C219 0.950 . S
C223 C214 1.390 . S
C223 H216 0.950 . S
C223 C220 1.387 1_655 S
C224 C225 1.387 1_565 S
C224 H228 0.950 . S
C224 C233 1.390 . S
C225 C224 1.387 1_545 S
C225 C227 1.388 . S
H226 C233 0.950 . S
C227 C225 1.388 . S
C227 C229 1.390 . S
C227 H231 0.950 . S
H228 C224 0.950 . S
C229 C227 1.390 . S
C229 C230 1.389 . S
C229 H232 0.950 . S
C230 C229 1.389 . S
C230 C233 1.386 1_545 S
H231 C227 0.950 . S
H232 C229 0.950 . S
C233 C224 1.390 . S
C233 H226 0.950 . S
C233 C230 1.386 1_565 S
C234 C235 1.387 . S
C234 H238 0.950 . S
C234 C243 1.390 . S
C235 C234 1.387 . S
C235 C237 1.388 1_455 S
H236 C243 0.950 . S
C237 C235 1.388 1_655 S
C237 C239 1.390 . S
C237 H241 0.950 . S
H238 C234 0.950 . S
C239 C237 1.390 . S
C239 C240 1.389 1_655 S
C239 H242 0.950 . S
C240 C239 1.389 1_455 S
C240 C243 1.386 . S
H241 C237 0.950 . S
H242 C239 0.950 . S
C243 C234 1.390 . S
C243 H236 0.950 . S
C243 C240 1.386 . S
C244 C245 1.388 . S
C244 H248 0.950 . S
C244 C253 1.390 . S
C245 C244 1.388 . S
C245 C247 1.387 1_545 S
H246 C253 0.950 . S
C247 C245 1.387 1_565 S
C247 C249 1.390 . S
C247 H251 0.950 . S
H248 C244 0.950 . S
C249 C247 1.390 . S
C249 C250 1.387 1_565 S
C249 H252 0.950 . S
C250 C249 1.387 1_545 S
C250 C253 1.388 . S
H251 C247 0.950 . S
H252 C249 0.950 . S
C253 C244 1.390 . S
C253 H246 0.950 . S
C253 C250 1.388 . S
C254 C255 1.387 1_655 S
C254 H258 0.950 . S
C254 C263 1.390 . S
C255 C254 1.387 1_455 S
C255 C257 1.387 . S
H256 C263 0.950 . S
C257 C255 1.387 . S
C257 C259 1.390 . S
C257 H261 0.950 . S
H258 C254 0.950 . S
C259 C257 1.390 . S
C259 C260 1.387 . S
C259 H262 0.950 . S
C260 C259 1.387 . S
C260 C263 1.388 1_455 S
H261 C257 0.950 . S
H262 C259 0.950 . S
C263 C254 1.390 . S
C263 H256 0.950 . S
C263 C260 1.388 1_655 S
C264 C265 1.388 1_565 S
C264 H268 0.950 . S
C264 C273 1.390 . S
C265 C264 1.388 1_545 S
C265 C267 1.387 . S
H266 C273 0.950 . S
C267 C265 1.387 . S
C267 C269 1.390 . S
C267 H271 0.950 . S
H268 C264 0.950 . S
C269 C267 1.390 . S
C269 C270 1.386 . S
C269 H272 0.950 . S
C270 C269 1.386 . S
C270 C273 1.389 1_545 S
H271 C267 0.950 . S
H272 C269 0.950 . S
C273 C264 1.390 . S
C273 H266 0.950 . S
C273 C270 1.389 1_565 S
C274 C275 1.387 1_556 S
C274 H278 0.950 . S
C274 C283 1.390 . S
C275 C274 1.387 1_554 S
C275 C277 1.388 . S
H276 C283 0.950 . S
C277 C275 1.388 . S
C277 C279 1.390 . S
C277 H281 0.950 . S
H278 C274 0.950 . S
C279 C277 1.390 . S
C279 C280 1.389 . S
C279 H282 0.950 . S
C280 C279 1.389 . S
C280 C283 1.386 1_554 S
H281 C277 0.950 . S
H282 C279 0.950 . S
C283 C274 1.390 . S
C283 H276 0.950 . S
C283 C280 1.386 1_556 S
C284 C285 1.388 . S
C284 H288 0.950 . S
C284 C293 1.390 . S
C285 C284 1.388 . S
C285 C287 1.387 1_554 S
H286 C293 0.950 . S
C287 C285 1.387 1_556 S
C287 C289 1.390 . S
C287 H291 0.950 . S
H288 C284 0.950 . S
C289 C287 1.390 . S
C289 C290 1.387 1_556 S
C289 H292 0.950 . S
C290 C289 1.387 1_554 S
C290 C293 1.388 . S
H291 C287 0.950 . S
H292 C289 0.950 . S
C293 C284 1.390 . S
C293 H286 0.950 . S
C293 C290 1.388 . S
C294 C295 1.387 . S
C294 H298 0.950 . S
C294 C303 1.390 . S
C295 C294 1.387 . S
C295 C297 1.388 1_554 S
H296 C303 0.950 . S
C297 C295 1.388 1_556 S
C297 C299 1.390 . S
C297 H301 0.950 . S
H298 C294 0.950 . S
C299 C297 1.390 . S
C299 C300 1.388 1_556 S
C299 H302 0.950 . S
C300 C299 1.388 1_554 S
C300 C303 1.387 . S
H301 C297 0.950 . S
H302 C299 0.950 . S
C303 C294 1.390 . S
C303 H296 0.950 . S
C303 C300 1.387 . S
C304 C305 1.388 1_556 S
C304 H308 0.950 . S
C304 C313 1.390 . S
C305 C304 1.388 1_554 S
C305 C307 1.387 . S
H306 C313 0.950 . S
C307 C305 1.387 . S
C307 C309 1.390 . S
C307 H311 0.950 . S
H308 C304 0.950 . S
C309 C307 1.390 . S
C309 C310 1.386 . S
C309 H312 0.950 . S
C310 C309 1.386 . S
C310 C313 1.389 1_554 S
H311 C307 0.950 . S
H312 C309 0.950 . S
C313 C304 1.390 . S
C313 H306 0.950 . S
C313 C310 1.389 1_556 S
C200 C145 1.819 . S
C195 C36 1.804 1_455 S
C210 C152 1.346 . S
C205 C78 1.320 1_545 S
C220 C147 1.817 . S
C215 C30 1.784 1_455 S
C230 C153 1.348 . S
C225 C69 1.335 . S
C235 C21 1.806 . S
C240 C146 1.821 . S
C250 C155 1.346 . S
C245 C93 1.321 . S
C255 C45 1.784 . S
C260 C144 1.818 . S
C265 C84 1.338 1_545 S
C270 C154 1.351 . S
C275 C132 1.545 . S
C280 C149 1.549 . S
C285 C126 1.529 . S
C290 C148 1.550 . S
C300 C151 1.550 . S
C295 C141 1.530 1_554 S
C310 C150 1.552 . S
C305 C117 1.548 1_554 S
