# Generated by pormake.
# Topology pyr, (3,6)-cn, num edge types: 1
# Building blocks:
#     Node 0, Type 0, BuildingBlock: BETDAH_clean_linker_0, # of connection points: 3
#     Node 1, Type 0, BuildingBlock: BETDAH_clean_linker_0, # of connection points: 3
#     Node 2, Type 0, BuildingBlock: BETDAH_clean_linker_0, # of connection points: 3
#     Node 3, Type 0, BuildingBlock: BETDAH_clean_linker_0, # of connection points: 3
#     Node 4, Type 0, BuildingBlock: BETDAH_clean_linker_0, # of connection points: 3
#     Node 5, Type 0, BuildingBlock: BETDAH_clean_linker_0, # of connection points: 3
#     Node 6, Type 0, BuildingBlock: BETDAH_clean_linker_0, # of connection points: 3
#     Node 7, Type 0, BuildingBlock: BETDAH_clean_linker_0, # of connection points: 3
#     Node 8, Type 1, BuildingBlock: PAMTOO_clean_sbu_0, # of connection points: 6
#     Node 9, Type 1, BuildingBlock: PAMTOO_clean_sbu_0, # of connection points: 6
#     Node 10, Type 1, BuildingBlock: PAMTOO_clean_sbu_0, # of connection points: 6
#     Node 11, Type 1, BuildingBlock: PAMTOO_clean_sbu_0, # of connection points: 6
#     Edge 12, Type (0, 1), BuildingBlock: KIFKEQ_clean_linker_1, # of connection points: 2
#     Edge 13, Type (0, 1), BuildingBlock: KIFKEQ_clean_linker_1, # of connection points: 2
#     Edge 14, Type (0, 1), BuildingBlock: KIFKEQ_clean_linker_1, # of connection points: 2
#     Edge 15, Type (0, 1), BuildingBlock: KIFKEQ_clean_linker_1, # of connection points: 2
#     Edge 16, Type (0, 1), BuildingBlock: KIFKEQ_clean_linker_1, # of connection points: 2
#     Edge 17, Type (0, 1), BuildingBlock: KIFKEQ_clean_linker_1, # of connection points: 2
#     Edge 18, Type (0, 1), BuildingBlock: KIFKEQ_clean_linker_1, # of connection points: 2
#     Edge 19, Type (0, 1), BuildingBlock: KIFKEQ_clean_linker_1, # of connection points: 2
#     Edge 20, Type (0, 1), BuildingBlock: KIFKEQ_clean_linker_1, # of connection points: 2
#     Edge 21, Type (0, 1), BuildingBlock: KIFKEQ_clean_linker_1, # of connection points: 2
#     Edge 22, Type (0, 1), BuildingBlock: KIFKEQ_clean_linker_1, # of connection points: 2
#     Edge 23, Type (0, 1), BuildingBlock: KIFKEQ_clean_linker_1, # of connection points: 2
#     Edge 24, Type (0, 1), BuildingBlock: KIFKEQ_clean_linker_1, # of connection points: 2
#     Edge 25, Type (0, 1), BuildingBlock: KIFKEQ_clean_linker_1, # of connection points: 2
#     Edge 26, Type (0, 1), BuildingBlock: KIFKEQ_clean_linker_1, # of connection points: 2
#     Edge 27, Type (0, 1), BuildingBlock: KIFKEQ_clean_linker_1, # of connection points: 2
#     Edge 28, Type (0, 1), BuildingBlock: KIFKEQ_clean_linker_1, # of connection points: 2
#     Edge 29, Type (0, 1), BuildingBlock: KIFKEQ_clean_linker_1, # of connection points: 2
#     Edge 30, Type (0, 1), BuildingBlock: KIFKEQ_clean_linker_1, # of connection points: 2
#     Edge 31, Type (0, 1), BuildingBlock: KIFKEQ_clean_linker_1, # of connection points: 2
#     Edge 32, Type (0, 1), BuildingBlock: KIFKEQ_clean_linker_1, # of connection points: 2
#     Edge 33, Type (0, 1), BuildingBlock: KIFKEQ_clean_linker_1, # of connection points: 2
#     Edge 34, Type (0, 1), BuildingBlock: KIFKEQ_clean_linker_1, # of connection points: 2
#     Edge 35, Type (0, 1), BuildingBlock: KIFKEQ_clean_linker_1, # of connection points: 2
# Relax obj value: 0.123
# Max RMSD: 0.201
# Mean RMSD: 0.126
data_MOF--net-pyr--node1-PAMTOO_clean_sbu_0--node2-BETDAH_clean_linker_0--edge1-KIFKEQ_clean_linker_1
_symmetry_space_group_name_H-M    P1
_symmetry_Int_Tables_number       1
_symmetry_cell_setting            triclinic
loop_
_symmetry_equiv_pos_as_xyz
'x, y, z'
_cell_length_a     36.627629
_cell_length_b     40.183719
_cell_length_c     40.530862
_cell_angle_alpha  90.423594
_cell_angle_beta   90.578
_cell_angle_gamma 109.51781
loop_
_atom_site_label
_atom_site_type_symbol
_atom_site_fract_x
_atom_site_fract_y
_atom_site_fract_z
_atom_type_partial_charge
H0 H 0.38709 0.24937 0.26681 0.0
H1 H 0.41473 0.31524 0.18106 0.0
H2 H 0.34216 0.3349 0.25609 0.0
C3 C 0.38568 0.27205 0.25321 0.0
C4 C 0.36361 0.2919 0.26554 0.0
C5 C 0.40348 0.2797 0.22238 0.0
C6 C 0.40077 0.30873 0.20474 0.0
C7 C 0.37851 0.32845 0.21654 0.0
C8 C 0.3595 0.31975 0.24684 0.0
N9 N 0.37518 0.35642 0.19704 0.0
C10 C 0.34151 0.36498 0.19532 0.0
H11 H 0.26656 0.80248 0.75699 0.0
H12 H 0.15826 0.82151 0.74741 0.0
H13 H 0.19593 0.7678 0.66963 0.0
C14 C 0.24031 0.79982 0.74305 0.0
C15 C 0.23484 0.78358 0.71176 0.0
C16 C 0.21291 0.8135 0.75624 0.0
C17 C 0.17956 0.81094 0.73757 0.0
C18 C 0.17329 0.79416 0.70642 0.0
C19 C 0.20059 0.77998 0.69395 0.0
N20 N 0.14032 0.79216 0.68681 0.0
C21 C 0.12366 0.81856 0.68742 0.0
H22 H 0.70612 0.35619 0.9347 0.0
H23 H 0.69813 0.43609 0.86714 0.0
H24 H 0.60318 0.33837 0.87609 0.0
C25 C 0.69059 0.3648 0.9155 0.0
C26 C 0.65331 0.34278 0.90644 0.0
C27 C 0.70723 0.39852 0.9018 0.0
C28 C 0.68599 0.41006 0.87765 0.0
C29 C 0.6484 0.38801 0.86804 0.0
C30 C 0.63228 0.35491 0.88304 0.0
N31 N 0.62413 0.39879 0.84579 0.0
C32 C 0.63491 0.42139 0.81885 0.0
H33 H 0.84601 0.74299 0.44944 0.0
H34 H 0.92315 0.77721 0.36809 0.0
H35 H 0.83729 0.6733 0.366 0.0
C36 C 0.85674 0.73747 0.42593 0.0
C37 C 0.83836 0.70468 0.41012 0.0
C38 C 0.88734 0.76391 0.41123 0.0
C39 C 0.89959 0.75712 0.37991 0.0
C40 C 0.88234 0.72453 0.36355 0.0
C41 C 0.85138 0.6982 0.37866 0.0
N42 N 0.8961 0.72091 0.33132 0.0
C43 C 0.89247 0.69022 0.31316 0.0
H44 H 0.7664 0.80249 0.87811 0.0
H45 H 0.67683 0.75474 0.94782 0.0
H46 H 0.66376 0.83172 0.8795 0.0
C47 C 0.73827 0.7996 0.88834 0.0
C48 C 0.7167 0.8197 0.87566 0.0
C49 C 0.72427 0.7762 0.91436 0.0
C50 C 0.68792 0.77266 0.9276 0.0
C51 C 0.66607 0.79272 0.91533 0.0
C52 C 0.68049 0.81617 0.88918 0.0
N53 N 0.62996 0.78914 0.92997 0.0
C54 C 0.61537 0.81686 0.93182 0.0
H55 H 0.89007 0.25263 0.35988 0.0
H56 H 0.91094 0.30435 0.45508 0.0
H57 H 0.83726 0.33027 0.38396 0.0
C58 C 0.88628 0.27202 0.37702 0.0
C59 C 0.86237 0.29152 0.36804 0.0
C60 C 0.90355 0.27594 0.40855 0.0
C61 C 0.89842 0.30125 0.43043 0.0
C62 C 0.87446 0.32069 0.4219 0.0
C63 C 0.85616 0.31558 0.3907 0.0
N64 N 0.86803 0.34403 0.44577 0.0
C65 C 0.83456 0.35294 0.44618 0.0
H66 H 0.33488 0.74149 0.1966 0.0
H67 H 0.34463 0.66629 0.26852 0.0
H68 H 0.43708 0.76549 0.25773 0.0
C69 C 0.35127 0.73418 0.216 0.0
C70 C 0.3879 0.75763 0.22515 0.0
C71 C 0.33534 0.70131 0.23138 0.0
C72 C 0.35655 0.69168 0.25674 0.0
C73 C 0.39332 0.71521 0.26655 0.0
C74 C 0.40856 0.74784 0.25054 0.0
N75 N 0.41704 0.70723 0.2913 0.0
C76 C 0.40658 0.68076 0.31504 0.0
H77 H 0.21483 0.37042 0.70399 0.0
H78 H 0.20183 0.45547 0.76279 0.0
H79 H 0.10814 0.35664 0.7542 0.0
C80 C 0.19795 0.38022 0.72092 0.0
C81 C 0.16012 0.3587 0.7283 0.0
C82 C 0.21334 0.41514 0.73293 0.0
C83 C 0.19072 0.42837 0.75401 0.0
C84 C 0.15288 0.4069 0.76229 0.0
C85 C 0.1377 0.37255 0.74875 0.0
N86 N 0.12723 0.42057 0.77967 0.0
C87 C 0.1341 0.43809 0.81025 0.0
Dy88 Dy 0.06796 0.07121 0.5471 0.0
Dy89 Dy 0.98521 0.05361 0.58673 0.0
C90 C 0.05758 0.12443 0.60305 0.0
O91 O 0.0674 0.02862 0.58192 0.0
O92 O 0.02006 0.02983 0.61861 0.0
O93 O 0.13034 0.08563 0.54503 0.0
O94 O 0.09537 0.0718 0.50027 0.0
O95 O 0.98158 1.00251 0.56257 0.0
O96 O 0.02349 0.02584 0.52066 0.0
O97 O 0.97886 0.07711 0.53805 0.0
O98 O 0.04199 0.11071 0.52974 0.0
O99 O 0.92267 0.03259 0.58613 0.0
O100 O 0.9537 0.0605 0.62939 0.0
C101 C 0.04907 0.01943 0.60984 0.0
O102 O 0.08167 0.11106 0.58859 0.0
O103 O 0.01985 0.10945 0.60012 0.0
C104 C 0.15874 0.11104 0.4949 0.0
C105 C 0.21015 0.16281 0.45531 0.0
C106 C 0.18582 0.17207 0.47766 0.0
C107 C 0.16018 0.14631 0.49728 0.0
C108 C 0.18325 0.10183 0.47313 0.0
C109 C 0.20861 0.12737 0.45347 0.0
C110 C 0.13024 0.08283 0.51293 0.0
C111 C 0.99589 0.99934 0.53363 0.0
C112 C 1.00493 0.10395 0.52417 0.0
C113 C 0.89422 0.01602 0.63815 0.0
C114 C 0.84799 0.96859 0.68408 0.0
C115 C 0.87511 0.95919 0.66507 0.0
C116 C 0.89819 0.9828 0.64236 0.0
C117 C 0.86658 0.02515 0.65628 0.0
C118 C 0.84366 1.00168 0.67907 0.0
C119 C 0.9201 0.04234 0.61655 0.0
H120 H 0.18645 0.19913 0.47986 0.0
H121 H 0.14113 0.15374 0.51387 0.0
H122 H 0.1821 0.07461 0.47074 0.0
H123 H 0.22616 0.11903 0.43607 0.0
H124 H 0.87885 0.93375 0.66803 0.0
H125 H 0.91956 0.97543 0.62855 0.0
H126 H 0.86342 0.05085 0.65342 0.0
H127 H 0.82356 0.01004 0.69361 0.0
Dy128 Dy 0.47592 0.04519 0.05164 0.0
Dy129 Dy 0.55943 0.06366 0.09193 0.0
C130 C 0.48795 0.99185 0.10493 0.0
O131 O 0.4706 0.07016 0.09995 0.0
O132 O 0.5339 0.10385 0.10871 0.0
O133 O 0.41338 0.02419 0.05156 0.0
O134 O 0.4437 0.05164 1.00878 0.0
O135 O 0.57225 0.10149 0.04975 0.0
O136 O 0.51045 0.10077 0.03865 0.0
O137 O 0.55758 0.01983 0.05751 0.0
O138 O 0.51085 0.0218 1.01973 0.0
O139 O 0.62167 0.07666 0.09364 0.0
O140 O 0.58879 0.06794 0.13886 0.0
C141 C 0.49693 0.09757 0.11362 0.0
O142 O 0.47239 0.99464 0.07619 0.0
O143 O 0.51633 0.01834 0.11792 0.0
C144 C 0.38281 1.00861 0.99934 0.0
C145 C 0.33257 0.96263 0.9532 0.0
C146 C 0.35909 0.95153 0.97164 0.0
C147 C 0.38423 0.97448 0.9945 0.0
C148 C 0.35576 0.01939 0.98166 0.0
C149 C 0.33086 0.99663 0.95875 0.0
C150 C 0.41027 0.03414 1.0214 0.0
C151 C 0.54811 0.11499 0.03539 0.0
C152 C 0.53958 0.01101 1.02892 0.0
C153 C 0.65243 0.10747 0.14167 0.0
C154 C 0.70565 0.16337 0.17756 0.0
C155 C 0.67738 0.1696 0.15706 0.0
C156 C 0.65088 0.14178 0.13926 0.0
C157 C 0.68101 0.10131 0.16136 0.0
C158 C 0.70733 0.12893 0.17919 0.0
C159 C 0.62308 0.07729 0.12582 0.0
H160 H 0.36129 0.9256 0.96759 0.0
H161 H 0.4052 0.96589 1.00787 0.0
H162 H 0.35437 0.0457 0.98516 0.0
H163 H 0.31048 1.00574 0.94511 0.0
H164 H 0.67547 0.19583 0.15506 0.0
H165 H 0.62875 0.14686 0.12418 0.0
H166 H 0.68231 0.07487 0.16369 0.0
H167 H 0.72808 0.12292 0.19522 0.0
Dy168 Dy 0.51554 0.51645 0.54826 0.0
Dy169 Dy 0.53105 0.59235 0.5858 0.0
C170 C 0.56145 0.53303 0.6174 0.0
O171 O 0.46971 0.50584 0.58671 0.0
O172 O 0.46826 0.56198 0.59365 0.0
O173 O 0.50701 0.4606 0.54986 0.0
O174 O 0.50786 0.48608 0.50299 0.0
O175 O 0.50926 0.59808 0.53505 0.0
O176 O 0.47594 0.54029 0.52206 0.0
O177 O 0.58895 0.59631 0.56486 0.0
O178 O 0.56669 0.55479 0.52374 0.0
O179 O 0.54596 0.64914 0.58411 0.0
O180 O 0.53192 0.62213 0.63053 0.0
C181 C 0.45316 0.52781 0.59836 0.0
O182 O 0.5604 0.51937 0.58764 0.0
O183 O 0.54622 0.55783 0.62294 0.0
C184 C 0.53984 0.44478 0.5065 0.0
C185 C 0.59957 0.42109 0.48426 0.0
C186 C 0.60828 0.45336 0.5015 0.0
C187 C 0.57872 0.46507 0.51248 0.0
C188 C 0.53078 0.41259 0.48937 0.0
C189 C 0.56048 0.40074 0.47835 0.0
C190 C 0.50932 0.45796 0.51794 0.0
C191 C 0.48395 0.5742 0.51651 0.0
C192 C 0.59415 0.58183 0.53682 0.0
C193 C 0.50786 0.66824 0.62098 0.0
C194 C 0.44973 0.6974 0.63582 0.0
C195 C 0.4407 0.66555 0.61781 0.0
C196 C 0.46951 0.65122 0.61036 0.0
C197 C 0.51731 0.70023 0.63845 0.0
C198 C 0.4885 0.71479 0.64574 0.0
C199 C 0.53724 0.65154 0.61492 0.0
H200 H 0.63801 0.46934 0.507 0.0
H201 H 0.58619 0.49002 0.52575 0.0
H202 H 0.50086 0.39672 0.48446 0.0
H203 H 0.5529 0.37589 0.46496 0.0
H204 H 0.41118 0.65112 0.61019 0.0
H205 H 0.4617 0.62647 0.5968 0.0
H206 H 0.54682 0.71372 0.64676 0.0
H207 H 0.4966 0.73962 0.65921 0.0
Dy208 Dy 0.02321 0.59156 0.05318 0.0
Dy209 Dy 0.01123 0.51576 0.0893 0.0
C210 C 0.97793 0.57312 0.1212 0.0
O211 O 0.07087 0.60275 0.09102 0.0
O212 O 0.07399 0.54712 0.09709 0.0
O213 O 0.02981 0.64691 0.05786 0.0
O214 O 0.02843 0.62332 1.0096 0.0
O215 O 0.03502 0.51054 0.03952 0.0
O216 O 0.06143 0.56858 1.02417 0.0
O217 O 0.95321 0.50882 0.06578 0.0
O218 O 0.97249 0.55282 1.02739 0.0
O219 O 0.99676 0.45899 0.088 0.0
O220 O 0.01283 0.48761 0.13416 0.0
C221 C 0.08867 0.58141 0.1019 0.0
O222 O 0.97765 0.58603 0.09154 0.0
O223 O 0.99512 0.54975 0.12669 0.0
C224 C 0.99418 0.66266 1.01623 0.0
C225 C 0.93194 0.68485 0.99711 0.0
C226 C 0.92511 0.65032 1.00829 0.0
C227 C 0.95593 0.63939 1.01789 0.0
C228 C 1.00128 0.69721 1.00535 0.0
C229 C 0.97032 0.70831 0.99592 0.0
C230 C 0.02613 0.65043 1.0262 0.0
C231 C 0.05669 0.53484 1.01977 0.0
C232 C 0.94684 0.52402 0.03865 0.0
C233 C 0.0372 0.44177 0.12459 0.0
C234 C 0.09862 0.41687 0.14002 0.0
C235 C 0.10245 0.44175 0.11492 0.0
C236 C 0.07207 0.45411 0.10733 0.0
C237 C 0.03284 0.41656 0.14928 0.0
C238 C 0.06335 0.40416 0.15695 0.0
C239 C 1.00711 0.45775 0.11871 0.0
H240 H 0.89588 0.63182 1.00991 0.0
H241 H 0.94992 0.61271 1.02664 0.0
H242 H 0.03065 0.7155 1.00404 0.0
H243 H 0.97642 0.73501 0.98719 0.0
H244 H 0.1294 0.45259 0.10182 0.0
H245 H 0.07616 0.47402 0.08853 0.0
H246 H 1.00621 0.40704 0.16303 0.0
H247 H 0.05944 0.38481 0.17624 0.0
H248 H 0.39447 0.28413 0.32506 0.0
H249 H 0.28653 0.27627 0.27655 0.0
H250 H 0.35983 0.26055 0.37541 0.0
H251 H 0.25134 0.25087 0.32614 0.0
H252 H 0.19507 0.21678 0.42297 0.0
H253 H 0.23445 0.25554 0.38136 0.0
H254 H 0.32127 0.20524 0.39319 0.0
H255 H 0.28342 0.16862 0.43625 0.0
C256 C 0.36326 0.27748 0.32537 0.0
C257 C 0.34306 0.28175 0.29704 0.0
C258 C 0.34333 0.26373 0.35408 0.0
C259 C 0.30262 0.25319 0.35484 0.0
C260 C 0.28265 0.25902 0.32677 0.0
C261 C 0.30273 0.27341 0.29824 0.0
C262 C 0.22307 0.2147 0.41733 0.0
C263 C 0.23583 0.18924 0.43272 0.0
C264 C 0.24544 0.23661 0.39308 0.0
C265 C 0.28094 0.23336 0.38349 0.0
C266 C 0.29438 0.20894 0.40001 0.0
C267 C 0.27229 0.18741 0.42445 0.0
H268 H 0.24242 0.79395 0.81215 0.0
H269 H 0.20146 0.87525 0.77363 0.0
H270 H 0.26585 0.82916 0.86179 0.0
H271 H 0.22284 0.90968 0.82427 0.0
H272 H 0.32092 0.98139 0.89069 0.0
H273 H 0.28473 0.94366 0.84605 0.0
H274 H 0.2527 0.85435 0.91159 0.0
H275 H 0.29 0.8923 0.9562 0.0
C276 C 0.23786 0.81913 0.81454 0.0
C277 C 0.22077 0.83211 0.78867 0.0
C278 C 0.25084 0.83915 0.84324 0.0
C279 C 0.24669 0.87251 0.84691 0.0
C280 C 0.22722 0.88441 0.82196 0.0
C281 C 0.21449 0.86448 0.79309 0.0
C282 C 0.30566 0.9538 0.89569 0.0
C283 C 0.30833 0.93974 0.92688 0.0
C284 C 0.2847 0.93215 0.87012 0.0
C285 C 0.26565 0.89592 0.87518 0.0
C286 C 0.26746 0.88204 0.90671 0.0
C287 C 0.28877 0.90371 0.93225 0.0
H288 H 0.65147 0.49211 0.81029 0.0
H289 H 0.61364 0.39206 0.7588 0.0
H290 H 0.63922 0.52125 0.76049 0.0
H291 H 0.60007 0.42047 0.70936 0.0
H292 H 0.59732 0.4825 0.61696 0.0
H293 H 0.62155 0.45807 0.66404 0.0
H294 H 0.58681 0.52687 0.72975 0.0
H295 H 0.56387 0.55189 0.68279 0.0
C296 C 0.64121 0.4765 0.78806 0.0
C297 C 0.63405 0.43996 0.7882 0.0
C298 C 0.63362 0.49305 0.75956 0.0
C299 C 0.61824 0.47337 0.73057 0.0
C300 C 0.61238 0.43684 0.73072 0.0
C301 C 0.62014 0.42042 0.75915 0.0
C302 C 0.5952 0.49267 0.64142 0.0
C303 C 0.5785 0.51925 0.64584 0.0
C304 C 0.6089 0.47845 0.6686 0.0
C305 C 0.60622 0.49023 0.70111 0.0
C306 C 0.59015 0.51731 0.70531 0.0
C307 C 0.57663 0.53159 0.67819 0.0
H308 H 0.85401 0.67236 0.25474 0.0
H309 H 0.9445 0.65575 0.31398 0.0
H310 H 0.87071 0.64084 0.20844 0.0
H311 H 0.96207 0.62492 0.26775 0.0
H312 H 0.97124 0.55103 0.18555 0.0
H313 H 0.94605 0.57452 0.23239 0.0
H314 H 0.9203 0.64952 0.16846 0.0
H315 H 0.94471 0.62541 0.12143 0.0
C316 C 0.87693 0.6612 0.25805 0.0
C317 C 0.89747 0.66587 0.28812 0.0
C318 C 0.88697 0.64357 0.23134 0.0
C319 C 0.91805 0.63034 0.23396 0.0
C320 C 0.93767 0.63415 0.26466 0.0
C321 C 0.92758 0.65179 0.29131 0.0
C322 C 0.95993 0.57236 0.18133 0.0
C323 C 0.96018 0.58625 0.14948 0.0
C324 C 0.94565 0.58606 0.20839 0.0
C325 C 0.93114 0.61419 0.20459 0.0
C326 C 0.93066 0.62759 0.17256 0.0
C327 C 0.94492 0.61384 0.14546 0.0
H328 H 0.45369 0.25015 0.25062 0.0
H329 H 0.39213 0.25315 0.15984 0.0
H330 H 0.47768 0.20547 0.22615 0.0
H331 H 0.41623 0.20902 0.1355 0.0
H332 H 0.42351 0.09929 0.11976 0.0
H333 H 0.40329 0.14421 0.14719 0.0
H334 H 0.52136 0.19899 0.17839 0.0
H335 H 0.54193 0.15395 0.1508 0.0
C336 C 0.44559 0.24147 0.22541 0.0
C337 C 0.42115 0.25517 0.2071 0.0
C338 C 0.45941 0.2161 0.21141 0.0
C339 C 0.44849 0.20364 0.17907 0.0
C340 C 0.42472 0.21788 0.16062 0.0
C341 C 0.4113 0.24343 0.17443 0.0
C342 C 0.4452 0.12067 0.1327 0.0
C343 C 0.48438 0.12312 0.13293 0.0
C344 C 0.43361 0.14652 0.14823 0.0
C345 C 0.46084 0.17522 0.16459 0.0
C346 C 0.49979 0.17707 0.16597 0.0
C347 C 0.51152 0.15135 0.1501 0.0
H348 H 0.05345 0.81774 0.66579 0.0
H349 H 0.16353 0.88569 0.70412 0.0
H350 H 0.03402 0.86943 0.65483 0.0
H351 H 0.14428 0.93752 0.69348 0.0
H352 H 0.1193 0.01082 0.61352 0.0
H353 H 0.13547 0.96336 0.63992 0.0
H354 H 0.01965 0.92202 0.67845 0.0
H355 H 1.00333 0.96995 0.65177 0.0
C356 C 0.07302 0.84378 0.67254 0.0
C357 C 0.10988 0.84813 0.68561 0.0
C358 C 0.06191 0.87331 0.66647 0.0
C359 C 0.08772 0.90755 0.67315 0.0
C360 C 0.12394 0.9115 0.68781 0.0
C361 C 0.13492 0.88197 0.69399 0.0
C362 C 0.09745 0.99199 0.62811 0.0
C363 C 0.06001 0.99398 0.63044 0.0
C364 C 0.10681 0.96491 0.64344 0.0
C365 C 0.07881 0.93888 0.66121 0.0
C366 C 0.04174 0.94163 0.66475 0.0
C367 C 0.0325 0.96916 0.64971 0.0
H368 H 0.77182 0.38045 0.91239 0.0
H369 H 0.72908 0.46781 0.923 0.0
H370 H 0.82888 0.41212 0.94557 0.0
H371 H 0.7869 0.49998 0.95598 0.0
H372 H 0.91632 0.55491 0.99059 0.0
H373 H 0.86005 0.52735 0.95486 0.0
H374 H 0.83911 0.42876 1.00554 0.0
H375 H 0.89539 0.4563 0.04143 0.0
C376 C 0.77492 0.40672 0.9214 0.0
C377 C 0.74562 0.42142 0.91528 0.0
C378 C 0.80751 0.42475 0.94066 0.0
C379 C 0.81208 0.45825 0.95409 0.0
C380 C 0.78419 0.47413 0.94611 0.0
C381 C 0.75121 0.45585 0.92698 0.0
C382 C 0.8996 0.52739 0.99433 0.0
C383 C 0.91057 0.50779 1.0189 0.0
C384 C 0.86722 0.51166 0.97386 0.0
C385 C 0.84527 0.47577 0.97706 0.0
C386 C 0.85574 0.45635 1.00207 0.0
C387 C 0.88782 0.47221 1.02286 0.0
H388 H 0.83356 0.68371 0.4743 0.0
H389 H 0.76604 0.66853 0.38419 0.0
H390 H 0.77558 0.65174 0.50478 0.0
H391 H 0.70762 0.63645 0.41476 0.0
H392 H 0.61376 0.55909 0.47774 0.0
H393 H 0.6731 0.58411 0.44663 0.0
H394 H 0.71801 0.66357 0.52267 0.0
H395 H 0.65873 0.63834 0.55403 0.0
C396 C 0.80632 0.67308 0.46089 0.0
C397 C 0.80444 0.67893 0.42679 0.0
C398 C 0.77296 0.65499 0.47845 0.0
C399 C 0.73663 0.64203 0.46247 0.0
C400 C 0.73507 0.64597 0.42796 0.0
C401 C 0.7686 0.66421 0.41033 0.0
C402 C 0.63628 0.58186 0.48798 0.0
C403 C 0.63122 0.59668 0.51852 0.0
C404 C 0.67034 0.59633 0.46995 0.0
C405 C 0.70052 0.62592 0.48199 0.0
C406 C 0.69567 0.64049 0.51274 0.0
C407 C 0.66151 0.62611 0.53072 0.0
H408 H 0.27366 0.33708 0.2269 0.0
H409 H 0.3308 0.40997 0.15103 0.0
H410 H 0.21266 0.34752 0.21424 0.0
H411 H 0.27038 0.4209 0.13849 0.0
H412 H 0.14886 0.40061 0.09872 0.0
H413 H 0.2072 0.38754 0.11358 0.0
H414 H 0.18259 0.39458 0.21689 0.0
H415 H 0.12418 0.40791 0.20202 0.0
C416 C 0.27307 0.35563 0.2078 0.0
C417 C 0.30646 0.37291 0.18991 0.0
C418 C 0.23835 0.36165 0.20058 0.0
C419 C 0.23666 0.38482 0.17518 0.0
C420 C 0.27058 0.40247 0.15779 0.0
C421 C 0.30518 0.39651 0.1651 0.0
C422 C 0.15589 0.39941 0.12461 0.0
C423 C 0.13205 0.40559 0.14918 0.0
C424 C 0.18934 0.39197 0.13312 0.0
C425 C 0.19973 0.39046 0.16641 0.0
C426 C 0.17521 0.39537 0.19103 0.0
C427 C 0.14171 0.40291 0.1825 0.0
H428 H 0.58107 0.31388 0.93309 0.0
H429 H 0.68755 0.29278 0.917 0.0
H430 H 0.55581 0.25908 0.96382 0.0
H431 H 0.66212 0.23752 0.9468 0.0
H432 H 0.62312 0.16042 1.03186 0.0
H433 H 0.64749 0.2145 1.0001 0.0
H434 H 0.53225 0.19705 0.9611 0.0
H435 H 0.50778 0.14384 0.99376 0.0
C436 C 0.59881 0.29719 0.93562 0.0
C437 C 0.63637 0.30779 0.92267 0.0
C438 C 0.58435 0.26566 0.95326 0.0
C439 C 0.60691 0.24366 0.95815 0.0
C440 C 0.64411 0.25396 0.94435 0.0
C441 C 0.65866 0.2856 0.92701 0.0
C442 C 0.60299 0.16811 1.01649 0.0
C443 C 0.56344 0.1477 1.01551 0.0
C444 C 0.61701 0.19911 0.99803 0.0
C445 C 0.59196 0.21043 0.97781 0.0
C446 C 0.55244 0.18976 0.97672 0.0
C447 C 0.53839 0.15897 0.99538 0.0
H448 H 0.90589 0.77629 0.47699 0.0
H449 H 0.91018 0.83062 0.38484 0.0
H450 H 0.93244 0.83278 0.50587 0.0
H451 H 0.93676 0.88728 0.41378 0.0
H452 H 0.01752 0.98231 0.47275 0.0
H453 H 0.99301 0.92597 0.44309 0.0
H454 H 0.91431 0.88255 0.52261 0.0
H455 H 0.93927 0.93855 0.55251 0.0
C456 C 0.9123 0.8003 0.46286 0.0
C457 C 0.90561 0.79873 0.42852 0.0
C458 C 0.92752 0.8328 0.47948 0.0
C459 C 0.93656 0.8648 0.46231 0.0
C460 C 0.93059 0.86326 0.42785 0.0
C461 C 0.91534 0.83069 0.4112 0.0
C462 C 0.99497 0.96078 0.48394 0.0
C463 C 0.98046 0.96514 0.51513 0.0
C464 C 0.98073 0.92844 0.4668 0.0
C465 C 0.95166 0.89949 0.48038 0.0
C466 C 0.9371 0.90396 0.51152 0.0
C467 C 0.95127 0.93627 0.52863 0.0
H468 H 0.31272 0.81875 0.71391 0.0
H469 H 0.22746 0.72257 0.67705 0.0
H470 H 0.3644 0.79861 0.69427 0.0
H471 H 0.27957 0.70266 0.65678 0.0
H472 H 0.38652 0.69762 0.59883 0.0
H473 H 0.33393 0.71851 0.61539 0.0
H474 H 0.38985 0.75048 0.71024 0.0
H475 H 0.44188 0.72892 0.69417 0.0
C476 C 0.30499 0.79319 0.70174 0.0
C477 C 0.26594 0.77198 0.69754 0.0
C478 C 0.33464 0.78174 0.69042 0.0
C479 C 0.32603 0.74893 0.67431 0.0
C480 C 0.28702 0.72817 0.66899 0.0
C481 C 0.25722 0.73957 0.68056 0.0
C482 C 0.38748 0.70885 0.62332 0.0
C483 C 0.41854 0.7116 0.64515 0.0
C484 C 0.35736 0.72083 0.63274 0.0
C485 C 0.35784 0.73616 0.66406 0.0
C486 C 0.38899 0.73923 0.68575 0.0
C487 C 0.41891 0.72701 0.67647 0.0
H488 H 0.68144 0.82562 0.81726 0.0
H489 H 0.78835 0.869 0.87269 0.0
H490 H 0.71146 0.86118 0.76968 0.0
H491 H 0.81811 0.90495 0.82574 0.0
H492 H 0.87447 0.92941 0.72687 0.0
H493 H 0.84039 0.89403 0.77248 0.0
H494 H 0.73856 0.92093 0.74839 0.0
H495 H 0.77214 0.95504 0.70151 0.0
C496 C 0.71111 0.84327 0.8194 0.0
C497 C 0.73277 0.84435 0.8484 0.0
C498 C 0.72831 0.86359 0.79223 0.0
C499 C 0.76739 0.88542 0.79375 0.0
C500 C 0.78831 0.88767 0.82343 0.0
C501 C 0.77124 0.86728 0.85038 0.0
C502 C 0.84458 0.92726 0.73082 0.0
C503 C 0.82609 0.94513 0.71052 0.0
C504 C 0.82521 0.90741 0.75734 0.0
C505 C 0.78693 0.9051 0.7644 0.0
C506 C 0.768 0.92214 0.7436 0.0
C507 C 0.78738 0.94195 0.71693 0.0
H508 H 0.89237 0.29176 0.30677 0.0
H509 H 0.78473 0.27329 0.35777 0.0
H510 H 0.85666 0.27021 0.25537 0.0
H511 H 0.74875 0.25009 0.30709 0.0
H512 H 0.68833 0.21531 0.21173 0.0
H513 H 0.72844 0.25601 0.25295 0.0
H514 H 0.82109 0.21425 0.23485 0.0
H515 H 0.78214 0.17564 0.19219 0.0
C516 C 0.86101 0.28341 0.30678 0.0
C517 C 0.8412 0.28392 0.33611 0.0
C518 C 0.8405 0.27084 0.27746 0.0
C519 C 0.79972 0.2578 0.27705 0.0
C520 C 0.78007 0.26025 0.30618 0.0
C521 C 0.80063 0.2734 0.33535 0.0
C522 C 0.71771 0.21562 0.21583 0.0
C523 C 0.73179 0.19177 0.19899 0.0
C524 C 0.74056 0.23865 0.23983 0.0
C525 C 0.77786 0.23813 0.24775 0.0
C526 C 0.79269 0.21577 0.22941 0.0
C527 C 0.77006 0.1931 0.20521 0.0
H528 H 0.42708 0.6219 0.31698 0.0
H529 H 0.38924 0.69221 0.37772 0.0
H530 H 0.4406 0.59307 0.36651 0.0
H531 H 0.40213 0.66333 0.42734 0.0
H532 H 0.48491 0.64126 0.50399 0.0
H533 H 0.46002 0.66285 0.45589 0.0
H534 H 0.41655 0.55699 0.41544 0.0
H535 H 0.44205 0.53524 0.46382 0.0
C536 C 0.42052 0.63042 0.34096 0.0
C537 C 0.40666 0.65894 0.34357 0.0
C538 C 0.42832 0.61396 0.36941 0.0
C539 C 0.42286 0.62598 0.40116 0.0
C540 C 0.40729 0.65362 0.40346 0.0
C541 C 0.39941 0.66993 0.37502 0.0
C542 C 0.46982 0.62239 0.48503 0.0
C543 C 0.46569 0.58641 0.48794 0.0
C544 C 0.4552 0.63482 0.45741 0.0
C545 C 0.43607 0.61177 0.43157 0.0
C546 C 0.43135 0.57563 0.43465 0.0
C547 C 0.44577 0.56309 0.46254 0.0
H548 H 0.16887 0.50552 0.83368 0.0
H549 H 0.08789 0.40391 0.85879 0.0
H550 H 0.15503 0.53043 0.88574 0.0
H551 H 0.0728 0.42845 0.90991 0.0
H552 H 0.06861 0.47167 1.01115 0.0
H553 H 0.09251 0.44973 0.96283 0.0
H554 H 0.1079 0.54833 0.91344 0.0
H555 H 0.08527 0.57077 0.96263 0.0
C556 C 0.14848 0.48845 0.8506 0.0
C557 C 0.12989 0.45268 0.84252 0.0
C558 C 0.14011 0.50276 0.88031 0.0
C559 C 0.11269 0.48164 0.90251 0.0
C560 C 0.09466 0.44564 0.8942 0.0
C561 C 0.10319 0.43144 0.86472 0.0
C562 C 0.07737 0.48887 0.99011 0.0
C563 C 0.07468 0.523 0.9909 0.0
C564 C 0.09089 0.47612 0.9621 0.0
C565 C 0.10175 0.49684 0.93359 0.0
C566 C 0.10023 0.53149 0.93478 0.0
C567 C 0.08706 0.54442 0.96306 0.0
H568 H 0.5436 0.81505 0.94822 0.0
H569 H 0.65886 0.88526 0.92827 0.0
H570 H 0.52458 0.86548 0.96541 0.0
H571 H 0.64004 0.9359 0.94505 0.0
H572 H 0.60805 0.99866 1.03032 0.0
H573 H 0.62528 0.95375 1.00017 0.0
H574 H 0.51473 0.92202 0.94904 0.0
H575 H 0.49718 0.96725 0.97964 0.0
C576 C 0.5645 0.84146 0.94682 0.0
C577 C 0.60256 0.84664 0.93711 0.0
C578 C 0.55365 0.8703 0.95648 0.0
C579 C 0.58089 0.90465 0.95676 0.0
C580 C 0.61855 0.90973 0.94543 0.0
C581 C 0.62929 0.8809 0.93571 0.0
C582 C 0.5875 0.98241 1.01239 0.0
C583 C 0.55113 0.98634 1.00754 0.0
C584 C 0.59755 0.95684 0.99488 0.0
C585 C 0.57137 0.93432 0.97221 0.0
C586 C 0.53539 0.93889 0.96651 0.0
C587 C 0.52546 0.96488 0.98386 0.0
H588 H 0.96967 0.29033 0.4465 0.0
H589 H 0.8808 0.20483 0.39725 0.0
H590 H 0.996 0.24783 0.47127 0.0
H591 H 0.90809 0.16271 0.42075 0.0
H592 H 0.93077 0.09874 0.50752 0.0
H593 H 0.90944 0.1402 0.47592 0.0
H594 H 0.02862 0.20466 0.46068 0.0
H595 H 0.05012 0.16343 0.49291 0.0
C596 C 0.95612 0.26255 0.44058 0.0
C597 C 0.92304 0.251 0.42002 0.0
C598 C 0.97142 0.23824 0.4545 0.0
C599 C 0.95392 0.20186 0.44816 0.0
C600 C 0.92189 0.1905 0.42648 0.0
C601 C 0.90658 0.21475 0.41263 0.0
C602 C 0.95249 0.12158 0.49725 0.0
C603 C 0.99214 0.12782 0.50289 0.0
C604 C 0.94025 0.14526 0.47893 0.0
C605 C 0.96735 0.17573 0.46577 0.0
C606 C 1.00704 0.18162 0.4708 0.0
C607 C 0.01932 0.15788 0.48913 0.0
H608 H 0.31641 0.63608 0.20173 0.0
H609 H 0.26773 0.71492 0.23281 0.0
H610 H 0.25642 0.60483 0.1711 0.0
H611 H 0.20758 0.68353 0.20333 0.0
H612 H 0.13047 0.65107 0.11285 0.0
H613 H 0.18815 0.67619 0.14698 0.0
H614 H 0.18763 0.5714 0.17067 0.0
H615 H 0.13006 0.54609 0.13561 0.0
C616 C 0.29237 0.64602 0.20288 0.0
C617 C 0.29663 0.67784 0.21966 0.0
C618 C 0.25802 0.62825 0.18522 0.0
C619 C 0.22725 0.64197 0.18407 0.0
C620 C 0.2309 0.67262 0.20278 0.0
C621 C 0.26517 0.6904 0.22011 0.0
C622 C 0.14261 0.63326 0.12518 0.0
C623 C 0.12536 0.59649 0.12143 0.0
C624 C 0.17564 0.64772 0.14511 0.0
C625 C 0.19243 0.62592 0.16218 0.0
C626 C 0.17569 0.58908 0.1579 0.0
C627 C 0.14258 0.57455 0.13779 0.0
H628 H 0.23144 0.47898 0.70196 0.0
H629 H 0.28111 0.40112 0.73383 0.0
H630 H 0.28978 0.50839 0.67024 0.0
H631 H 0.33963 0.43069 0.70302 0.0
H632 H 0.41166 0.45871 0.61076 0.0
H633 H 0.35599 0.43538 0.64618 0.0
H634 H 0.35856 0.54139 0.66862 0.0
H635 H 0.41406 0.56486 0.63236 0.0
C636 C 0.25536 0.46884 0.70303 0.0
C637 C 0.25166 0.43769 0.72031 0.0
C638 C 0.28878 0.48557 0.68472 0.0
C639 C 0.31927 0.47155 0.68338 0.0
C640 C 0.31642 0.44174 0.70259 0.0
C641 C 0.28305 0.42499 0.72063 0.0
C642 C 0.40037 0.47716 0.62307 0.0
C643 C 0.41758 0.51373 0.61862 0.0
C644 C 0.36853 0.46374 0.64375 0.0
C645 C 0.35291 0.48643 0.66082 0.0
C646 C 0.3696 0.52304 0.65586 0.0
C647 C 0.40153 0.53652 0.63505 0.0
H648 H 0.7446 0.77296 0.97889 0.0
H649 H 0.76055 0.73745 0.88103 0.0
H650 H 0.79273 0.74841 1.00071 0.0
H651 H 0.80871 0.71319 0.90265 0.0
H652 H 0.87044 0.64845 0.95782 0.0
H653 H 0.81616 0.66669 0.94001 0.0
H654 H 0.86505 0.7649 0.99407 0.0
H655 H 0.9191 0.7464 1.01234 0.0
C656 C 0.75787 0.7593 0.96222 0.0
C657 C 0.74899 0.75709 0.92831 0.0
C658 C 0.78564 0.74561 0.9746 0.0
C659 C 0.80463 0.72912 0.95333 0.0
C660 C 0.7944 0.72556 0.91966 0.0
C661 C 0.76699 0.73955 0.90726 0.0
C662 C 0.86939 0.67379 0.96614 0.0
C663 C 0.89902 0.69604 0.98643 0.0
C664 C 0.83846 0.6843 0.9558 0.0
C665 C 0.83635 0.71716 0.96572 0.0
C666 C 0.86571 0.73924 0.98635 0.0
C667 C 0.89685 0.72886 0.99648 0.0
H668 H 0.42466 0.82345 0.2522 0.0
H669 H 0.38838 0.76984 0.15877 0.0
H670 H 0.44848 0.87993 0.22387 0.0
H671 H 0.41295 0.82592 0.13029 0.0
H672 H 0.42382 0.9342 0.09077 0.0
H673 H 0.40036 0.87859 0.12013 0.0
H674 H 0.49655 0.91617 0.18904 0.0
H675 H 0.51917 0.97227 0.16031 0.0
C676 C 0.42221 0.82368 0.22555 0.0
C677 C 0.40436 0.79208 0.20782 0.0
C678 C 0.43595 0.85611 0.20921 0.0
C679 C 0.43254 0.85783 0.17463 0.0
C680 C 0.41536 0.82601 0.15693 0.0
C681 C 0.40136 0.7937 0.17328 0.0
C682 C 0.43995 0.93068 0.11223 0.0
C683 C 0.47341 0.95789 0.12311 0.0
C684 C 0.42662 0.89855 0.12902 0.0
C685 C 0.44654 0.89249 0.15704 0.0
C686 C 0.47999 0.91982 0.16793 0.0
C687 C 0.49315 0.95207 0.15128 0.0
H688 H 0.08854 0.32782 0.69916 0.0
H689 H 0.19505 0.30839 0.72144 0.0
H690 H 0.06426 0.27148 0.66958 0.0
H691 H 0.17062 0.25172 0.69245 0.0
H692 H 0.13267 0.17034 0.60794 0.0
H693 H 0.15665 0.22589 0.63898 0.0
H694 H 0.04115 0.20949 0.67445 0.0
H695 H 0.01713 0.15478 0.64272 0.0
C696 C 0.10652 0.31123 0.69828 0.0
C697 C 0.14379 0.32277 0.71271 0.0
C698 C 0.0926 0.2788 0.68124 0.0
C699 C 0.11544 0.2568 0.67832 0.0
C700 C 0.1524 0.26807 0.69345 0.0
C701 C 0.16638 0.30057 0.7103 0.0
C702 C 0.1124 0.17857 0.6224 0.0
C703 C 0.0729 0.15798 0.62263 0.0
C704 C 0.1262 0.21043 0.64042 0.0
C705 C 0.10093 0.22251 0.65937 0.0
C706 C 0.0615 0.20162 0.65979 0.0
C707 C 0.04771 0.16996 0.64165 0.0
H708 H 0.80781 0.39094 0.4036 0.0
H709 H 0.78173 0.33162 0.49361 0.0
H710 H 0.74776 0.4049 0.40847 0.0
H711 H 0.72217 0.34587 0.49908 0.0
H712 H 0.60334 0.35432 0.48788 0.0
H713 H 0.65827 0.33533 0.47465 0.0
H714 H 0.72326 0.44128 0.44426 0.0
H715 H 0.66792 0.45986 0.45623 0.0
C716 C 0.78904 0.38094 0.42437 0.0
C717 C 0.79898 0.3605 0.44836 0.0
C718 C 0.75485 0.38893 0.42724 0.0
C719 C 0.73018 0.37649 0.45417 0.0
C720 C 0.74018 0.35543 0.47781 0.0
C721 C 0.77433 0.34751 0.47489 0.0
C722 C 0.62907 0.37334 0.47774 0.0
C723 C 0.63142 0.40865 0.47338 0.0
C724 C 0.66069 0.36258 0.4705 0.0
C725 C 0.69526 0.38687 0.4587 0.0
C726 C 0.69699 0.42183 0.4531 0.0
C727 C 0.66543 0.43258 0.46033 0.0
loop_
_geom_bond_atom_site_label_1
_geom_bond_atom_site_label_2
_geom_bond_distance
_geom_bond_site_symmetry_2
_ccdc_geom_bond_type
H0 C3 0.929 . S
H1 C6 0.929 . S
H2 C8 0.930 . S
C3 H0 0.929 . S
C3 C4 1.398 . S
C3 C5 1.396 . S
C4 C3 1.398 . S
C4 C8 1.407 . S
C5 C3 1.396 . S
C5 C6 1.394 . S
C6 H1 0.929 . S
C6 C5 1.394 . S
C6 C7 1.382 . S
C7 C6 1.382 . S
C7 C8 1.392 . S
C7 N9 1.420 . S
C8 H2 0.930 . S
C8 C4 1.407 . S
C8 C7 1.392 . S
N9 C7 1.420 . S
N9 C10 1.244 . S
C10 N9 1.244 . S
H11 C14 0.929 . S
H12 C17 0.929 . S
H13 C19 0.930 . S
C14 H11 0.929 . S
C14 C15 1.398 . S
C14 C16 1.396 . S
C15 C14 1.398 . S
C15 C19 1.407 . S
C16 C14 1.396 . S
C16 C17 1.394 . S
C17 H12 0.929 . S
C17 C16 1.394 . S
C17 C18 1.382 . S
C18 C17 1.382 . S
C18 C19 1.392 . S
C18 N20 1.420 . S
C19 H13 0.930 . S
C19 C15 1.407 . S
C19 C18 1.392 . S
N20 C18 1.420 . S
N20 C21 1.244 . S
C21 N20 1.244 . S
H22 C25 0.929 . S
H23 C28 0.929 . S
H24 C30 0.930 . S
C25 H22 0.929 . S
C25 C26 1.398 . S
C25 C27 1.396 . S
C26 C25 1.398 . S
C26 C30 1.407 . S
C27 C25 1.396 . S
C27 C28 1.394 . S
C28 H23 0.929 . S
C28 C27 1.394 . S
C28 C29 1.382 . S
C29 C28 1.382 . S
C29 C30 1.392 . S
C29 N31 1.420 . S
C30 H24 0.930 . S
C30 C26 1.407 . S
C30 C29 1.392 . S
N31 C29 1.420 . S
N31 C32 1.244 . S
C32 N31 1.244 . S
H33 C36 0.929 . S
H34 C39 0.929 . S
H35 C41 0.930 . S
C36 H33 0.929 . S
C36 C37 1.398 . S
C36 C38 1.396 . S
C37 C36 1.398 . S
C37 C41 1.407 . S
C38 C36 1.396 . S
C38 C39 1.394 . S
C39 H34 0.929 . S
C39 C38 1.394 . S
C39 C40 1.382 . S
C40 C39 1.382 . S
C40 C41 1.392 . S
C40 N42 1.420 . S
C41 H35 0.930 . S
C41 C37 1.407 . S
C41 C40 1.392 . S
N42 C40 1.420 . S
N42 C43 1.244 . S
C43 N42 1.244 . S
H44 C47 0.929 . S
H45 C50 0.929 . S
H46 C52 0.930 . S
C47 H44 0.929 . S
C47 C48 1.398 . S
C47 C49 1.396 . S
C48 C47 1.398 . S
C48 C52 1.407 . S
C49 C47 1.396 . S
C49 C50 1.394 . S
C50 H45 0.929 . S
C50 C49 1.394 . S
C50 C51 1.382 . S
C51 C50 1.382 . S
C51 C52 1.392 . S
C51 N53 1.420 . S
C52 H46 0.930 . S
C52 C48 1.407 . S
C52 C51 1.392 . S
N53 C51 1.420 . S
N53 C54 1.244 . S
C54 N53 1.244 . S
H55 C58 0.929 . S
H56 C61 0.929 . S
H57 C63 0.930 . S
C58 H55 0.929 . S
C58 C59 1.398 . S
C58 C60 1.396 . S
C59 C58 1.398 . S
C59 C63 1.407 . S
C60 C58 1.396 . S
C60 C61 1.394 . S
C61 H56 0.929 . S
C61 C60 1.394 . S
C61 C62 1.382 . S
C62 C61 1.382 . S
C62 C63 1.392 . S
C62 N64 1.420 . S
C63 H57 0.930 . S
C63 C59 1.407 . S
C63 C62 1.392 . S
N64 C62 1.420 . S
N64 C65 1.244 . S
C65 N64 1.244 . S
H66 C69 0.929 . S
H67 C72 0.929 . S
H68 C74 0.930 . S
C69 H66 0.929 . S
C69 C70 1.398 . S
C69 C71 1.396 . S
C70 C69 1.398 . S
C70 C74 1.407 . S
C71 C69 1.396 . S
C71 C72 1.394 . S
C72 H67 0.929 . S
C72 C71 1.394 . S
C72 C73 1.382 . S
C73 C72 1.382 . S
C73 C74 1.392 . S
C73 N75 1.420 . S
C74 H68 0.930 . S
C74 C70 1.407 . S
C74 C73 1.392 . S
N75 C73 1.420 . S
N75 C76 1.244 . S
C76 N75 1.244 . S
H77 C80 0.929 . S
H78 C83 0.929 . S
H79 C85 0.930 . S
C80 H77 0.929 . S
C80 C81 1.398 . S
C80 C82 1.396 . S
C81 C80 1.398 . S
C81 C85 1.407 . S
C82 C80 1.396 . S
C82 C83 1.394 . S
C83 H78 0.929 . S
C83 C82 1.394 . S
C83 C84 1.382 . S
C84 C83 1.382 . S
C84 C85 1.392 . S
C84 N86 1.420 . S
C85 H79 0.930 . S
C85 C81 1.407 . S
C85 C84 1.392 . S
N86 C84 1.420 . S
N86 C87 1.244 . S
C87 N86 1.244 . S
Dy88 O91 2.307 1_545 S
Dy88 O93 2.395 . S
Dy88 O94 2.379 . S
Dy88 O96 2.339 1_545 S
Dy88 O98 2.298 . S
Dy88 O102 2.275 . S
Dy88 C110 2.738 . S
Dy89 O92 2.298 1_645 S
Dy89 O95 2.275 1_545 S
Dy89 O97 2.307 . S
Dy89 O99 2.395 1_545 S
Dy89 O100 2.379 . S
Dy89 O103 2.339 1_655 S
Dy89 C119 2.738 1_545 S
C90 O102 1.254 . S
C90 O103 1.257 . S
O91 Dy88 2.307 1_565 S
O91 C101 1.266 . S
O92 Dy89 2.298 1_465 S
O92 C101 1.236 . S
O93 Dy88 2.395 . S
O93 C110 1.255 . S
O94 Dy88 2.379 . S
O94 C110 1.249 . S
O95 Dy89 2.275 1_565 S
O95 C111 1.254 . S
O96 Dy88 2.339 1_565 S
O96 C111 1.257 1_455 S
O97 Dy89 2.307 . S
O97 C112 1.266 . S
O98 Dy88 2.298 . S
O98 C112 1.236 1_455 S
O99 Dy89 2.395 1_565 S
O99 C119 1.255 . S
O100 Dy89 2.379 . S
O100 C119 1.249 1_545 S
C101 O91 1.266 . S
C101 O92 1.236 . S
O102 Dy88 2.275 . S
O102 C90 1.254 . S
O103 Dy89 2.339 1_455 S
O103 C90 1.257 . S
C104 C107 1.344 . S
C104 C108 1.328 . S
C104 C110 1.516 . S
C105 C106 1.304 . S
C105 C109 1.323 . S
C106 C105 1.304 . S
C106 C107 1.371 . S
C106 H120 0.930 . S
C107 C104 1.344 . S
C107 C106 1.371 . S
C107 H121 0.931 . S
C108 C104 1.328 . S
C108 C109 1.433 . S
C108 H122 0.931 . S
C109 C105 1.323 . S
C109 C108 1.433 . S
C109 H123 0.933 . S
C110 Dy88 2.738 . S
C110 O93 1.255 . S
C110 O94 1.249 . S
C110 C104 1.516 . S
C111 O95 1.254 . S
C111 O96 1.257 1_655 S
C112 O97 1.266 . S
C112 O98 1.236 1_655 S
C113 C116 1.344 . S
C113 C117 1.328 . S
C113 C119 1.516 . S
C114 C115 1.304 . S
C114 C118 1.323 . S
C115 C114 1.304 . S
C115 C116 1.371 . S
C115 H124 0.930 . S
C116 C113 1.344 . S
C116 C115 1.371 . S
C116 H125 0.931 . S
C117 C113 1.328 . S
C117 C118 1.433 . S
C117 H126 0.931 . S
C118 C114 1.323 . S
C118 C117 1.433 . S
C118 H127 0.933 . S
C119 Dy89 2.738 1_565 S
C119 O99 1.255 . S
C119 O100 1.249 1_565 S
C119 C113 1.516 . S
H120 C106 0.930 . S
H121 C107 0.931 . S
H122 C108 0.931 . S
H123 C109 0.933 . S
H124 C115 0.930 . S
H125 C116 0.931 . S
H126 C117 0.931 . S
H127 C118 0.933 . S
Dy128 O131 2.307 . S
Dy128 O133 2.395 1_544 S
Dy128 O134 2.379 1_554 S
Dy128 O136 2.339 1_554 S
Dy128 O138 2.298 1_544 S
Dy128 O142 2.275 1_545 S
Dy128 C150 2.738 1_544 S
Dy129 O132 2.298 . S
Dy129 O135 2.275 . S
Dy129 O137 2.307 1_545 S
Dy129 O139 2.395 . S
Dy129 O140 2.379 . S
Dy129 O143 2.339 1_545 S
Dy129 C159 2.738 . S
C130 O142 1.254 . S
C130 O143 1.257 . S
O131 Dy128 2.307 . S
O131 C141 1.266 . S
O132 Dy129 2.298 . S
O132 C141 1.236 . S
O133 Dy128 2.395 1_566 S
O133 C150 1.255 . S
O134 Dy128 2.379 1_556 S
O134 C150 1.249 1_545 S
O135 Dy129 2.275 . S
O135 C151 1.254 . S
O136 Dy128 2.339 1_556 S
O136 C151 1.257 1_556 S
O137 Dy129 2.307 1_565 S
O137 C152 1.266 . S
O138 Dy128 2.298 1_566 S
O138 C152 1.236 1_556 S
O139 Dy129 2.395 . S
O139 C159 1.255 . S
O140 Dy129 2.379 . S
O140 C159 1.249 . S
C141 O131 1.266 . S
C141 O132 1.236 . S
O142 Dy128 2.275 1_565 S
O142 C130 1.254 . S
O143 Dy129 2.339 1_565 S
O143 C130 1.257 . S
C144 C147 1.344 . S
C144 C148 1.328 . S
C144 C150 1.516 . S
C145 C146 1.304 . S
C145 C149 1.323 . S
C146 C145 1.304 . S
C146 C147 1.371 . S
C146 H160 0.930 . S
C147 C144 1.344 . S
C147 C146 1.371 . S
C147 H161 0.931 . S
C148 C144 1.328 . S
C148 C149 1.433 . S
C148 H162 0.931 . S
C149 C145 1.323 . S
C149 C148 1.433 . S
C149 H163 0.933 . S
C150 Dy128 2.738 1_566 S
C150 O133 1.255 . S
C150 O134 1.249 1_565 S
C150 C144 1.516 . S
C151 O135 1.254 . S
C151 O136 1.257 1_554 S
C152 O137 1.266 . S
C152 O138 1.236 1_554 S
C153 C156 1.344 . S
C153 C157 1.328 . S
C153 C159 1.516 . S
C154 C155 1.304 . S
C154 C158 1.323 . S
C155 C154 1.304 . S
C155 C156 1.371 . S
C155 H164 0.930 . S
C156 C153 1.344 . S
C156 C155 1.371 . S
C156 H165 0.931 . S
C157 C153 1.328 . S
C157 C158 1.433 . S
C157 H166 0.931 . S
C158 C154 1.323 . S
C158 C157 1.433 . S
C158 H167 0.933 . S
C159 Dy129 2.738 . S
C159 O139 1.255 . S
C159 O140 1.249 . S
C159 C153 1.516 . S
H160 C146 0.930 . S
H161 C147 0.931 . S
H162 C148 0.931 . S
H163 C149 0.933 . S
H164 C155 0.930 . S
H165 C156 0.931 . S
H166 C157 0.931 . S
H167 C158 0.933 . S
Dy168 O171 2.307 . S
Dy168 O173 2.395 . S
Dy168 O174 2.379 . S
Dy168 O176 2.339 . S
Dy168 O178 2.298 . S
Dy168 O182 2.275 . S
Dy168 C190 2.738 . S
Dy169 O172 2.298 . S
Dy169 O175 2.275 . S
Dy169 O177 2.307 . S
Dy169 O179 2.395 . S
Dy169 O180 2.379 . S
Dy169 O183 2.339 . S
Dy169 C199 2.738 . S
C170 O182 1.254 . S
C170 O183 1.257 . S
O171 Dy168 2.307 . S
O171 C181 1.266 . S
O172 Dy169 2.298 . S
O172 C181 1.236 . S
O173 Dy168 2.395 . S
O173 C190 1.255 . S
O174 Dy168 2.379 . S
O174 C190 1.249 . S
O175 Dy169 2.275 . S
O175 C191 1.254 . S
O176 Dy168 2.339 . S
O176 C191 1.257 . S
O177 Dy169 2.307 . S
O177 C192 1.266 . S
O178 Dy168 2.298 . S
O178 C192 1.236 . S
O179 Dy169 2.395 . S
O179 C199 1.255 . S
O180 Dy169 2.379 . S
O180 C199 1.249 . S
C181 O171 1.266 . S
C181 O172 1.236 . S
O182 Dy168 2.275 . S
O182 C170 1.254 . S
O183 Dy169 2.339 . S
O183 C170 1.257 . S
C184 C187 1.344 . S
C184 C188 1.328 . S
C184 C190 1.516 . S
C185 C186 1.304 . S
C185 C189 1.323 . S
C186 C185 1.304 . S
C186 C187 1.371 . S
C186 H200 0.930 . S
C187 C184 1.344 . S
C187 C186 1.371 . S
C187 H201 0.931 . S
C188 C184 1.328 . S
C188 C189 1.433 . S
C188 H202 0.931 . S
C189 C185 1.323 . S
C189 C188 1.433 . S
C189 H203 0.933 . S
C190 Dy168 2.738 . S
C190 O173 1.255 . S
C190 O174 1.249 . S
C190 C184 1.516 . S
C191 O175 1.254 . S
C191 O176 1.257 . S
C192 O177 1.266 . S
C192 O178 1.236 . S
C193 C196 1.344 . S
C193 C197 1.328 . S
C193 C199 1.516 . S
C194 C195 1.304 . S
C194 C198 1.323 . S
C195 C194 1.304 . S
C195 C196 1.371 . S
C195 H204 0.930 . S
C196 C193 1.344 . S
C196 C195 1.371 . S
C196 H205 0.931 . S
C197 C193 1.328 . S
C197 C198 1.433 . S
C197 H206 0.931 . S
C198 C194 1.323 . S
C198 C197 1.433 . S
C198 H207 0.933 . S
C199 Dy169 2.738 . S
C199 O179 1.255 . S
C199 O180 1.249 . S
C199 C193 1.516 . S
H200 C186 0.930 . S
H201 C187 0.931 . S
H202 C188 0.931 . S
H203 C189 0.933 . S
H204 C195 0.930 . S
H205 C196 0.931 . S
H206 C197 0.931 . S
H207 C198 0.933 . S
Dy208 O211 2.307 1_556 S
Dy208 O213 2.395 1_455 S
Dy208 O214 2.379 . S
Dy208 O216 2.339 . S
Dy208 O218 2.298 1_455 S
Dy208 O222 2.275 1_556 S
Dy208 C230 2.738 1_455 S
Dy209 O212 2.298 . S
Dy209 O215 2.275 1_554 S
Dy209 O217 2.307 1_455 S
Dy209 O219 2.395 . S
Dy209 O220 2.379 . S
Dy209 O223 2.339 . S
Dy209 C239 2.738 . S
C210 O222 1.254 . S
C210 O223 1.257 . S
O211 Dy208 2.307 1_554 S
O211 C221 1.266 . S
O212 Dy209 2.298 . S
O212 C221 1.236 . S
O213 Dy208 2.395 1_655 S
O213 C230 1.255 . S
O214 Dy208 2.379 . S
O214 C230 1.249 1_455 S
O215 Dy209 2.275 1_556 S
O215 C231 1.254 . S
O216 Dy208 2.339 . S
O216 C231 1.257 . S
O217 Dy209 2.307 1_655 S
O217 C232 1.266 1_554 S
O218 Dy208 2.298 1_655 S
O218 C232 1.236 . S
O219 Dy209 2.395 . S
O219 C239 1.255 . S
O220 Dy209 2.379 . S
O220 C239 1.249 . S
C221 O211 1.266 . S
C221 O212 1.236 . S
O222 Dy208 2.275 1_554 S
O222 C210 1.254 . S
O223 Dy209 2.339 . S
O223 C210 1.257 . S
C224 C227 1.344 . S
C224 C228 1.328 . S
C224 C230 1.516 . S
C225 C226 1.304 . S
C225 C229 1.323 . S
C226 C225 1.304 . S
C226 C227 1.371 . S
C226 H240 0.930 . S
C227 C224 1.344 . S
C227 C226 1.371 . S
C227 H241 0.931 . S
C228 C224 1.328 . S
C228 C229 1.433 . S
C228 H242 0.931 . S
C229 C225 1.323 . S
C229 C228 1.433 . S
C229 H243 0.933 . S
C230 Dy208 2.738 1_655 S
C230 O213 1.255 . S
C230 O214 1.249 1_655 S
C230 C224 1.516 . S
C231 O215 1.254 . S
C231 O216 1.257 . S
C232 O217 1.266 1_556 S
C232 O218 1.236 . S
C233 C236 1.344 . S
C233 C237 1.328 . S
C233 C239 1.516 . S
C234 C235 1.304 . S
C234 C238 1.323 . S
C235 C234 1.304 . S
C235 C236 1.371 . S
C235 H244 0.930 . S
C236 C233 1.344 . S
C236 C235 1.371 . S
C236 H245 0.931 . S
C237 C233 1.328 . S
C237 C238 1.433 . S
C237 H246 0.931 . S
C238 C234 1.323 . S
C238 C237 1.433 . S
C238 H247 0.933 . S
C239 Dy209 2.738 . S
C239 O219 1.255 . S
C239 O220 1.249 . S
C239 C233 1.516 . S
H240 C226 0.930 . S
H241 C227 0.931 . S
H242 C228 0.931 . S
H243 C229 0.933 . S
H244 C235 0.930 . S
H245 C236 0.931 . S
H246 C237 0.931 . S
H247 C238 0.933 . S
H248 C256 0.950 . S
H249 C261 0.950 . S
H250 C258 0.950 . S
H251 C260 0.950 . S
H252 C262 0.950 . S
H253 C264 0.950 . S
H254 C266 0.950 . S
H255 C267 0.950 . S
C256 H248 0.950 . S
C256 C257 1.386 . S
C256 C258 1.391 . S
C257 C256 1.386 . S
C257 C261 1.393 . S
C258 H250 0.950 . S
C258 C256 1.391 . S
C258 C259 1.400 . S
C259 C258 1.400 . S
C259 C260 1.398 . S
C259 C265 1.491 . S
C260 H251 0.950 . S
C260 C259 1.398 . S
C260 C261 1.391 . S
C261 H249 0.950 . S
C261 C257 1.393 . S
C261 C260 1.391 . S
C262 H252 0.950 . S
C262 C263 1.386 . S
C262 C264 1.391 . S
C263 C262 1.386 . S
C263 C267 1.393 . S
C264 H253 0.950 . S
C264 C262 1.391 . S
C264 C265 1.400 . S
C265 C259 1.491 . S
C265 C264 1.400 . S
C265 C266 1.398 . S
C266 H254 0.950 . S
C266 C265 1.398 . S
C266 C267 1.391 . S
C267 H255 0.950 . S
C267 C263 1.393 . S
C267 C266 1.391 . S
H268 C276 0.950 . S
H269 C281 0.950 . S
H270 C278 0.950 . S
H271 C280 0.950 . S
H272 C282 0.950 . S
H273 C284 0.950 . S
H274 C286 0.950 . S
H275 C287 0.950 . S
C276 H268 0.950 . S
C276 C277 1.386 . S
C276 C278 1.391 . S
C277 C276 1.386 . S
C277 C281 1.393 . S
C278 H270 0.950 . S
C278 C276 1.391 . S
C278 C279 1.400 . S
C279 C278 1.400 . S
C279 C280 1.398 . S
C279 C285 1.491 . S
C280 H271 0.950 . S
C280 C279 1.398 . S
C280 C281 1.391 . S
C281 H269 0.950 . S
C281 C277 1.393 . S
C281 C280 1.391 . S
C282 H272 0.950 . S
C282 C283 1.386 . S
C282 C284 1.391 . S
C283 C282 1.386 . S
C283 C287 1.393 . S
C284 H273 0.950 . S
C284 C282 1.391 . S
C284 C285 1.400 . S
C285 C279 1.491 . S
C285 C284 1.400 . S
C285 C286 1.398 . S
C286 H274 0.950 . S
C286 C285 1.398 . S
C286 C287 1.391 . S
C287 H275 0.950 . S
C287 C283 1.393 . S
C287 C286 1.391 . S
H288 C296 0.950 . S
H289 C301 0.950 . S
H290 C298 0.950 . S
H291 C300 0.950 . S
H292 C302 0.950 . S
H293 C304 0.950 . S
H294 C306 0.950 . S
H295 C307 0.950 . S
C296 H288 0.950 . S
C296 C297 1.386 . S
C296 C298 1.391 . S
C297 C296 1.386 . S
C297 C301 1.393 . S
C298 H290 0.950 . S
C298 C296 1.391 . S
C298 C299 1.400 . S
C299 C298 1.400 . S
C299 C300 1.398 . S
C299 C305 1.491 . S
C300 H291 0.950 . S
C300 C299 1.398 . S
C300 C301 1.391 . S
C301 H289 0.950 . S
C301 C297 1.393 . S
C301 C300 1.391 . S
C302 H292 0.950 . S
C302 C303 1.386 . S
C302 C304 1.391 . S
C303 C302 1.386 . S
C303 C307 1.393 . S
C304 H293 0.950 . S
C304 C302 1.391 . S
C304 C305 1.400 . S
C305 C299 1.491 . S
C305 C304 1.400 . S
C305 C306 1.398 . S
C306 H294 0.950 . S
C306 C305 1.398 . S
C306 C307 1.391 . S
C307 H295 0.950 . S
C307 C303 1.393 . S
C307 C306 1.391 . S
H308 C316 0.950 . S
H309 C321 0.950 . S
H310 C318 0.950 . S
H311 C320 0.950 . S
H312 C322 0.950 . S
H313 C324 0.950 . S
H314 C326 0.950 . S
H315 C327 0.950 . S
C316 H308 0.950 . S
C316 C317 1.386 . S
C316 C318 1.391 . S
C317 C316 1.386 . S
C317 C321 1.393 . S
C318 H310 0.950 . S
C318 C316 1.391 . S
C318 C319 1.400 . S
C319 C318 1.400 . S
C319 C320 1.398 . S
C319 C325 1.491 . S
C320 H311 0.950 . S
C320 C319 1.398 . S
C320 C321 1.391 . S
C321 H309 0.950 . S
C321 C317 1.393 . S
C321 C320 1.391 . S
C322 H312 0.950 . S
C322 C323 1.386 . S
C322 C324 1.391 . S
C323 C322 1.386 . S
C323 C327 1.393 . S
C324 H313 0.950 . S
C324 C322 1.391 . S
C324 C325 1.400 . S
C325 C319 1.491 . S
C325 C324 1.400 . S
C325 C326 1.398 . S
C326 H314 0.950 . S
C326 C325 1.398 . S
C326 C327 1.391 . S
C327 H315 0.950 . S
C327 C323 1.393 . S
C327 C326 1.391 . S
H328 C336 0.950 . S
H329 C341 0.950 . S
H330 C338 0.950 . S
H331 C340 0.950 . S
H332 C342 0.950 . S
H333 C344 0.950 . S
H334 C346 0.950 . S
H335 C347 0.950 . S
C336 H328 0.950 . S
C336 C337 1.386 . S
C336 C338 1.391 . S
C337 C336 1.386 . S
C337 C341 1.393 . S
C338 H330 0.950 . S
C338 C336 1.391 . S
C338 C339 1.400 . S
C339 C338 1.400 . S
C339 C340 1.398 . S
C339 C345 1.491 . S
C340 H331 0.950 . S
C340 C339 1.398 . S
C340 C341 1.391 . S
C341 H329 0.950 . S
C341 C337 1.393 . S
C341 C340 1.391 . S
C342 H332 0.950 . S
C342 C343 1.386 . S
C342 C344 1.391 . S
C343 C342 1.386 . S
C343 C347 1.393 . S
C344 H333 0.950 . S
C344 C342 1.391 . S
C344 C345 1.400 . S
C345 C339 1.491 . S
C345 C344 1.400 . S
C345 C346 1.398 . S
C346 H334 0.950 . S
C346 C345 1.398 . S
C346 C347 1.391 . S
C347 H335 0.950 . S
C347 C343 1.393 . S
C347 C346 1.391 . S
H348 C356 0.950 . S
H349 C361 0.950 . S
H350 C358 0.950 . S
H351 C360 0.950 . S
H352 C362 0.950 . S
H353 C364 0.950 . S
H354 C366 0.950 1_655 S
H355 C367 0.950 1_655 S
C356 H348 0.950 . S
C356 C357 1.386 . S
C356 C358 1.391 . S
C357 C356 1.386 . S
C357 C361 1.393 . S
C358 H350 0.950 . S
C358 C356 1.391 . S
C358 C359 1.400 . S
C359 C358 1.400 . S
C359 C360 1.398 . S
C359 C365 1.491 . S
C360 H351 0.950 . S
C360 C359 1.398 . S
C360 C361 1.391 . S
C361 H349 0.950 . S
C361 C357 1.393 . S
C361 C360 1.391 . S
C362 H352 0.950 . S
C362 C363 1.386 . S
C362 C364 1.391 . S
C363 C362 1.386 . S
C363 C367 1.393 . S
C364 H353 0.950 . S
C364 C362 1.391 . S
C364 C365 1.400 . S
C365 C359 1.491 . S
C365 C364 1.400 . S
C365 C366 1.398 . S
C366 H354 0.950 1_455 S
C366 C365 1.398 . S
C366 C367 1.391 . S
C367 H355 0.950 1_455 S
C367 C363 1.393 . S
C367 C366 1.391 . S
H368 C376 0.950 . S
H369 C381 0.950 . S
H370 C378 0.950 . S
H371 C380 0.950 . S
H372 C382 0.950 . S
H373 C384 0.950 . S
H374 C386 0.950 . S
H375 C387 0.950 . S
C376 H368 0.950 . S
C376 C377 1.386 . S
C376 C378 1.391 . S
C377 C376 1.386 . S
C377 C381 1.393 . S
C378 H370 0.950 . S
C378 C376 1.391 . S
C378 C379 1.400 . S
C379 C378 1.400 . S
C379 C380 1.398 . S
C379 C385 1.491 . S
C380 H371 0.950 . S
C380 C379 1.398 . S
C380 C381 1.391 . S
C381 H369 0.950 . S
C381 C377 1.393 . S
C381 C380 1.391 . S
C382 H372 0.950 . S
C382 C383 1.386 . S
C382 C384 1.391 . S
C383 C382 1.386 . S
C383 C387 1.393 . S
C384 H373 0.950 . S
C384 C382 1.391 . S
C384 C385 1.400 . S
C385 C379 1.491 . S
C385 C384 1.400 . S
C385 C386 1.398 . S
C386 H374 0.950 . S
C386 C385 1.398 . S
C386 C387 1.391 . S
C387 H375 0.950 . S
C387 C383 1.393 . S
C387 C386 1.391 . S
H388 C396 0.950 . S
H389 C401 0.950 . S
H390 C398 0.950 . S
H391 C400 0.950 . S
H392 C402 0.950 . S
H393 C404 0.950 . S
H394 C406 0.950 . S
H395 C407 0.950 . S
C396 H388 0.950 . S
C396 C397 1.386 . S
C396 C398 1.391 . S
C397 C396 1.386 . S
C397 C401 1.393 . S
C398 H390 0.950 . S
C398 C396 1.391 . S
C398 C399 1.400 . S
C399 C398 1.400 . S
C399 C400 1.398 . S
C399 C405 1.491 . S
C400 H391 0.950 . S
C400 C399 1.398 . S
C400 C401 1.391 . S
C401 H389 0.950 . S
C401 C397 1.393 . S
C401 C400 1.391 . S
C402 H392 0.950 . S
C402 C403 1.386 . S
C402 C404 1.391 . S
C403 C402 1.386 . S
C403 C407 1.393 . S
C404 H393 0.950 . S
C404 C402 1.391 . S
C404 C405 1.400 . S
C405 C399 1.491 . S
C405 C404 1.400 . S
C405 C406 1.398 . S
C406 H394 0.950 . S
C406 C405 1.398 . S
C406 C407 1.391 . S
C407 H395 0.950 . S
C407 C403 1.393 . S
C407 C406 1.391 . S
H408 C416 0.950 . S
H409 C421 0.950 . S
H410 C418 0.950 . S
H411 C420 0.950 . S
H412 C422 0.950 . S
H413 C424 0.950 . S
H414 C426 0.950 . S
H415 C427 0.950 . S
C416 H408 0.950 . S
C416 C417 1.386 . S
C416 C418 1.391 . S
C417 C416 1.386 . S
C417 C421 1.393 . S
C418 H410 0.950 . S
C418 C416 1.391 . S
C418 C419 1.400 . S
C419 C418 1.400 . S
C419 C420 1.398 . S
C419 C425 1.491 . S
C420 H411 0.950 . S
C420 C419 1.398 . S
C420 C421 1.391 . S
C421 H409 0.950 . S
C421 C417 1.393 . S
C421 C420 1.391 . S
C422 H412 0.950 . S
C422 C423 1.386 . S
C422 C424 1.391 . S
C423 C422 1.386 . S
C423 C427 1.393 . S
C424 H413 0.950 . S
C424 C422 1.391 . S
C424 C425 1.400 . S
C425 C419 1.491 . S
C425 C424 1.400 . S
C425 C426 1.398 . S
C426 H414 0.950 . S
C426 C425 1.398 . S
C426 C427 1.391 . S
C427 H415 0.950 . S
C427 C423 1.393 . S
C427 C426 1.391 . S
H428 C436 0.950 . S
H429 C441 0.950 . S
H430 C438 0.950 . S
H431 C440 0.950 . S
H432 C442 0.950 . S
H433 C444 0.950 . S
H434 C446 0.950 . S
H435 C447 0.954 . S
C436 H428 0.950 . S
C436 C437 1.386 . S
C436 C438 1.391 . S
C437 C436 1.386 . S
C437 C441 1.393 . S
C438 H430 0.950 . S
C438 C436 1.391 . S
C438 C439 1.400 . S
C439 C438 1.400 . S
C439 C440 1.398 . S
C439 C445 1.491 . S
C440 H431 0.950 . S
C440 C439 1.398 . S
C440 C441 1.391 . S
C441 H429 0.950 . S
C441 C437 1.393 . S
C441 C440 1.391 . S
C442 H432 0.950 . S
C442 C443 1.386 . S
C442 C444 1.391 . S
C443 C442 1.386 . S
C443 C447 1.393 . S
C444 H433 0.950 . S
C444 C442 1.391 . S
C444 C445 1.400 . S
C445 C439 1.491 . S
C445 C444 1.400 . S
C445 C446 1.398 . S
C446 H434 0.950 . S
C446 C445 1.398 . S
C446 C447 1.391 . S
C447 H435 0.954 . S
C447 C443 1.393 . S
C447 C446 1.391 . S
H448 C456 0.950 . S
H449 C461 0.950 . S
H450 C458 0.950 . S
H451 C460 0.950 . S
H452 C462 0.950 1_455 S
H453 C464 0.950 . S
H454 C466 0.950 . S
H455 C467 0.950 . S
C456 H448 0.950 . S
C456 C457 1.386 . S
C456 C458 1.391 . S
C457 C456 1.386 . S
C457 C461 1.393 . S
C458 H450 0.950 . S
C458 C456 1.391 . S
C458 C459 1.400 . S
C459 C458 1.400 . S
C459 C460 1.398 . S
C459 C465 1.491 . S
C460 H451 0.950 . S
C460 C459 1.398 . S
C460 C461 1.391 . S
C461 H449 0.950 . S
C461 C457 1.393 . S
C461 C460 1.391 . S
C462 H452 0.950 1_655 S
C462 C463 1.386 . S
C462 C464 1.391 . S
C463 C462 1.386 . S
C463 C467 1.393 . S
C464 H453 0.950 . S
C464 C462 1.391 . S
C464 C465 1.400 . S
C465 C459 1.491 . S
C465 C464 1.400 . S
C465 C466 1.398 . S
C466 H454 0.950 . S
C466 C465 1.398 . S
C466 C467 1.391 . S
C467 H455 0.950 . S
C467 C463 1.393 . S
C467 C466 1.391 . S
H468 C476 0.950 . S
H469 C481 0.950 . S
H470 C478 0.950 . S
H471 C480 0.950 . S
H472 C482 0.950 . S
H473 C484 0.950 . S
H474 C486 0.950 . S
H475 C487 0.950 . S
C476 H468 0.950 . S
C476 C477 1.386 . S
C476 C478 1.391 . S
C477 C476 1.386 . S
C477 C481 1.393 . S
C478 H470 0.950 . S
C478 C476 1.391 . S
C478 C479 1.400 . S
C479 C478 1.400 . S
C479 C480 1.398 . S
C479 C485 1.491 . S
C480 H471 0.950 . S
C480 C479 1.398 . S
C480 C481 1.391 . S
C481 H469 0.950 . S
C481 C477 1.393 . S
C481 C480 1.391 . S
C482 H472 0.950 . S
C482 C483 1.386 . S
C482 C484 1.391 . S
C483 C482 1.386 . S
C483 C487 1.393 . S
C484 H473 0.950 . S
C484 C482 1.391 . S
C484 C485 1.400 . S
C485 C479 1.491 . S
C485 C484 1.400 . S
C485 C486 1.398 . S
C486 H474 0.950 . S
C486 C485 1.398 . S
C486 C487 1.391 . S
C487 H475 0.950 . S
C487 C483 1.393 . S
C487 C486 1.391 . S
H488 C496 0.950 . S
H489 C501 0.950 . S
H490 C498 0.950 . S
H491 C500 0.950 . S
H492 C502 0.950 . S
H493 C504 0.950 . S
H494 C506 0.950 . S
H495 C507 0.950 . S
C496 H488 0.950 . S
C496 C497 1.386 . S
C496 C498 1.391 . S
C497 C496 1.386 . S
C497 C501 1.393 . S
C498 H490 0.950 . S
C498 C496 1.391 . S
C498 C499 1.400 . S
C499 C498 1.400 . S
C499 C500 1.398 . S
C499 C505 1.491 . S
C500 H491 0.950 . S
C500 C499 1.398 . S
C500 C501 1.391 . S
C501 H489 0.950 . S
C501 C497 1.393 . S
C501 C500 1.391 . S
C502 H492 0.950 . S
C502 C503 1.386 . S
C502 C504 1.391 . S
C503 C502 1.386 . S
C503 C507 1.393 . S
C504 H493 0.950 . S
C504 C502 1.391 . S
C504 C505 1.400 . S
C505 C499 1.491 . S
C505 C504 1.400 . S
C505 C506 1.398 . S
C506 H494 0.950 . S
C506 C505 1.398 . S
C506 C507 1.391 . S
C507 H495 0.950 . S
C507 C503 1.393 . S
C507 C506 1.391 . S
H508 C516 0.950 . S
H509 C521 0.950 . S
H510 C518 0.950 . S
H511 C520 0.950 . S
H512 C522 0.950 . S
H513 C524 0.950 . S
H514 C526 0.950 . S
H515 C527 0.950 . S
C516 H508 0.950 . S
C516 C517 1.386 . S
C516 C518 1.391 . S
C517 C516 1.386 . S
C517 C521 1.393 . S
C518 H510 0.950 . S
C518 C516 1.391 . S
C518 C519 1.400 . S
C519 C518 1.400 . S
C519 C520 1.398 . S
C519 C525 1.491 . S
C520 H511 0.950 . S
C520 C519 1.398 . S
C520 C521 1.391 . S
C521 H509 0.950 . S
C521 C517 1.393 . S
C521 C520 1.391 . S
C522 H512 0.950 . S
C522 C523 1.386 . S
C522 C524 1.391 . S
C523 C522 1.386 . S
C523 C527 1.393 . S
C524 H513 0.950 . S
C524 C522 1.391 . S
C524 C525 1.400 . S
C525 C519 1.491 . S
C525 C524 1.400 . S
C525 C526 1.398 . S
C526 H514 0.950 . S
C526 C525 1.398 . S
C526 C527 1.391 . S
C527 H515 0.950 . S
C527 C523 1.393 . S
C527 C526 1.391 . S
H528 C536 0.950 . S
H529 C541 0.950 . S
H530 C538 0.950 . S
H531 C540 0.950 . S
H532 C542 0.950 . S
H533 C544 0.950 . S
H534 C546 0.950 . S
H535 C547 0.950 . S
C536 H528 0.950 . S
C536 C537 1.386 . S
C536 C538 1.391 . S
C537 C536 1.386 . S
C537 C541 1.393 . S
C538 H530 0.950 . S
C538 C536 1.391 . S
C538 C539 1.400 . S
C539 C538 1.400 . S
C539 C540 1.398 . S
C539 C545 1.491 . S
C540 H531 0.950 . S
C540 C539 1.398 . S
C540 C541 1.391 . S
C541 H529 0.950 . S
C541 C537 1.393 . S
C541 C540 1.391 . S
C542 H532 0.950 . S
C542 C543 1.386 . S
C542 C544 1.391 . S
C543 C542 1.386 . S
C543 C547 1.393 . S
C544 H533 0.950 . S
C544 C542 1.391 . S
C544 C545 1.400 . S
C545 C539 1.491 . S
C545 C544 1.400 . S
C545 C546 1.398 . S
C546 H534 0.950 . S
C546 C545 1.398 . S
C546 C547 1.391 . S
C547 H535 0.950 . S
C547 C543 1.393 . S
C547 C546 1.391 . S
H548 C556 0.950 . S
H549 C561 0.950 . S
H550 C558 0.950 . S
H551 C560 0.950 . S
H552 C562 0.950 . S
H553 C564 0.950 . S
H554 C566 0.950 . S
H555 C567 0.950 . S
C556 H548 0.950 . S
C556 C557 1.386 . S
C556 C558 1.391 . S
C557 C556 1.386 . S
C557 C561 1.393 . S
C558 H550 0.950 . S
C558 C556 1.391 . S
C558 C559 1.400 . S
C559 C558 1.400 . S
C559 C560 1.398 . S
C559 C565 1.491 . S
C560 H551 0.950 . S
C560 C559 1.398 . S
C560 C561 1.391 . S
C561 H549 0.950 . S
C561 C557 1.393 . S
C561 C560 1.391 . S
C562 H552 0.950 . S
C562 C563 1.386 . S
C562 C564 1.391 . S
C563 C562 1.386 . S
C563 C567 1.393 . S
C564 H553 0.950 . S
C564 C562 1.391 . S
C564 C565 1.400 . S
C565 C559 1.491 . S
C565 C564 1.400 . S
C565 C566 1.398 . S
C566 H554 0.950 . S
C566 C565 1.398 . S
C566 C567 1.391 . S
C567 H555 0.950 . S
C567 C563 1.393 . S
C567 C566 1.391 . S
H568 C576 0.950 . S
H569 C581 0.950 . S
H570 C578 0.950 . S
H571 C580 0.950 . S
H572 C582 0.950 1_554 S
H573 C584 0.950 . S
H574 C586 0.950 . S
H575 C587 0.950 . S
C576 H568 0.950 . S
C576 C577 1.386 . S
C576 C578 1.391 . S
C577 C576 1.386 . S
C577 C581 1.393 . S
C578 H570 0.950 . S
C578 C576 1.391 . S
C578 C579 1.400 . S
C579 C578 1.400 . S
C579 C580 1.398 . S
C579 C585 1.491 . S
C580 H571 0.950 . S
C580 C579 1.398 . S
C580 C581 1.391 . S
C581 H569 0.950 . S
C581 C577 1.393 . S
C581 C580 1.391 . S
C582 H572 0.950 1_556 S
C582 C583 1.386 . S
C582 C584 1.391 . S
C583 C582 1.386 . S
C583 C587 1.393 . S
C584 H573 0.950 . S
C584 C582 1.391 . S
C584 C585 1.400 . S
C585 C579 1.491 . S
C585 C584 1.400 . S
C585 C586 1.398 . S
C586 H574 0.950 . S
C586 C585 1.398 . S
C586 C587 1.391 . S
C587 H575 0.950 . S
C587 C583 1.393 . S
C587 C586 1.391 . S
H588 C596 0.950 . S
H589 C601 0.950 . S
H590 C598 0.950 . S
H591 C600 0.950 . S
H592 C602 0.950 . S
H593 C604 0.950 . S
H594 C606 0.950 1_455 S
H595 C607 0.950 1_455 S
C596 H588 0.950 . S
C596 C597 1.386 . S
C596 C598 1.391 . S
C597 C596 1.386 . S
C597 C601 1.393 . S
C598 H590 0.950 . S
C598 C596 1.391 . S
C598 C599 1.400 . S
C599 C598 1.400 . S
C599 C600 1.398 . S
C599 C605 1.491 . S
C600 H591 0.950 . S
C600 C599 1.398 . S
C600 C601 1.391 . S
C601 H589 0.950 . S
C601 C597 1.393 . S
C601 C600 1.391 . S
C602 H592 0.950 . S
C602 C603 1.386 . S
C602 C604 1.391 . S
C603 C602 1.386 . S
C603 C607 1.393 . S
C604 H593 0.950 . S
C604 C602 1.391 . S
C604 C605 1.400 . S
C605 C599 1.491 . S
C605 C604 1.400 . S
C605 C606 1.398 . S
C606 H594 0.950 1_655 S
C606 C605 1.398 . S
C606 C607 1.391 . S
C607 H595 0.950 1_655 S
C607 C603 1.393 . S
C607 C606 1.391 . S
H608 C616 0.950 . S
H609 C621 0.950 . S
H610 C618 0.950 . S
H611 C620 0.950 . S
H612 C622 0.950 . S
H613 C624 0.950 . S
H614 C626 0.950 . S
H615 C627 0.950 . S
C616 H608 0.950 . S
C616 C617 1.386 . S
C616 C618 1.391 . S
C617 C616 1.386 . S
C617 C621 1.393 . S
C618 H610 0.950 . S
C618 C616 1.391 . S
C618 C619 1.400 . S
C619 C618 1.400 . S
C619 C620 1.398 . S
C619 C625 1.491 . S
C620 H611 0.950 . S
C620 C619 1.398 . S
C620 C621 1.391 . S
C621 H609 0.950 . S
C621 C617 1.393 . S
C621 C620 1.391 . S
C622 H612 0.950 . S
C622 C623 1.386 . S
C622 C624 1.391 . S
C623 C622 1.386 . S
C623 C627 1.393 . S
C624 H613 0.950 . S
C624 C622 1.391 . S
C624 C625 1.400 . S
C625 C619 1.491 . S
C625 C624 1.400 . S
C625 C626 1.398 . S
C626 H614 0.950 . S
C626 C625 1.398 . S
C626 C627 1.391 . S
C627 H615 0.950 . S
C627 C623 1.393 . S
C627 C626 1.391 . S
H628 C636 0.950 . S
H629 C641 0.950 . S
H630 C638 0.950 . S
H631 C640 0.950 . S
H632 C642 0.950 . S
H633 C644 0.950 . S
H634 C646 0.950 . S
H635 C647 0.950 . S
C636 H628 0.950 . S
C636 C637 1.386 . S
C636 C638 1.391 . S
C637 C636 1.386 . S
C637 C641 1.393 . S
C638 H630 0.950 . S
C638 C636 1.391 . S
C638 C639 1.400 . S
C639 C638 1.400 . S
C639 C640 1.398 . S
C639 C645 1.491 . S
C640 H631 0.950 . S
C640 C639 1.398 . S
C640 C641 1.391 . S
C641 H629 0.950 . S
C641 C637 1.393 . S
C641 C640 1.391 . S
C642 H632 0.950 . S
C642 C643 1.386 . S
C642 C644 1.391 . S
C643 C642 1.386 . S
C643 C647 1.393 . S
C644 H633 0.950 . S
C644 C642 1.391 . S
C644 C645 1.400 . S
C645 C639 1.491 . S
C645 C644 1.400 . S
C645 C646 1.398 . S
C646 H634 0.950 . S
C646 C645 1.398 . S
C646 C647 1.391 . S
C647 H635 0.950 . S
C647 C643 1.393 . S
C647 C646 1.391 . S
H648 C656 0.950 . S
H649 C661 0.950 . S
H650 C658 0.950 . S
H651 C660 0.950 . S
H652 C662 0.950 . S
H653 C664 0.950 . S
H654 C666 0.950 . S
H655 C667 0.950 . S
C656 H648 0.950 . S
C656 C657 1.386 . S
C656 C658 1.391 . S
C657 C656 1.386 . S
C657 C661 1.393 . S
C658 H650 0.950 . S
C658 C656 1.391 . S
C658 C659 1.400 . S
C659 C658 1.400 . S
C659 C660 1.398 . S
C659 C665 1.491 . S
C660 H651 0.950 . S
C660 C659 1.398 . S
C660 C661 1.391 . S
C661 H649 0.950 . S
C661 C657 1.393 . S
C661 C660 1.391 . S
C662 H652 0.950 . S
C662 C663 1.386 . S
C662 C664 1.391 . S
C663 C662 1.386 . S
C663 C667 1.393 . S
C664 H653 0.950 . S
C664 C662 1.391 . S
C664 C665 1.400 . S
C665 C659 1.491 . S
C665 C664 1.400 . S
C665 C666 1.398 . S
C666 H654 0.950 . S
C666 C665 1.398 . S
C666 C667 1.391 . S
C667 H655 0.950 . S
C667 C663 1.393 . S
C667 C666 1.391 . S
H668 C676 0.950 . S
H669 C681 0.950 . S
H670 C678 0.950 . S
H671 C680 0.950 . S
H672 C682 0.950 . S
H673 C684 0.950 . S
H674 C686 0.950 . S
H675 C687 0.950 . S
C676 H668 0.950 . S
C676 C677 1.386 . S
C676 C678 1.391 . S
C677 C676 1.386 . S
C677 C681 1.393 . S
C678 H670 0.950 . S
C678 C676 1.391 . S
C678 C679 1.400 . S
C679 C678 1.400 . S
C679 C680 1.398 . S
C679 C685 1.491 . S
C680 H671 0.950 . S
C680 C679 1.398 . S
C680 C681 1.391 . S
C681 H669 0.950 . S
C681 C677 1.393 . S
C681 C680 1.391 . S
C682 H672 0.950 . S
C682 C683 1.386 . S
C682 C684 1.391 . S
C683 C682 1.386 . S
C683 C687 1.393 . S
C684 H673 0.950 . S
C684 C682 1.391 . S
C684 C685 1.400 . S
C685 C679 1.491 . S
C685 C684 1.400 . S
C685 C686 1.398 . S
C686 H674 0.950 . S
C686 C685 1.398 . S
C686 C687 1.391 . S
C687 H675 0.950 . S
C687 C683 1.393 . S
C687 C686 1.391 . S
H688 C696 0.950 . S
H689 C701 0.950 . S
H690 C698 0.950 . S
H691 C700 0.950 . S
H692 C702 0.950 . S
H693 C704 0.950 . S
H694 C706 0.950 . S
H695 C707 0.950 . S
C696 H688 0.950 . S
C696 C697 1.386 . S
C696 C698 1.391 . S
C697 C696 1.386 . S
C697 C701 1.393 . S
C698 H690 0.950 . S
C698 C696 1.391 . S
C698 C699 1.400 . S
C699 C698 1.400 . S
C699 C700 1.398 . S
C699 C705 1.491 . S
C700 H691 0.950 . S
C700 C699 1.398 . S
C700 C701 1.391 . S
C701 H689 0.950 . S
C701 C697 1.393 . S
C701 C700 1.391 . S
C702 H692 0.950 . S
C702 C703 1.386 . S
C702 C704 1.391 . S
C703 C702 1.386 . S
C703 C707 1.393 . S
C704 H693 0.950 . S
C704 C702 1.391 . S
C704 C705 1.400 . S
C705 C699 1.491 . S
C705 C704 1.400 . S
C705 C706 1.398 . S
C706 H694 0.950 . S
C706 C705 1.398 . S
C706 C707 1.391 . S
C707 H695 0.950 . S
C707 C703 1.393 . S
C707 C706 1.391 . S
H708 C716 0.950 . S
H709 C721 0.950 . S
H710 C718 0.950 . S
H711 C720 0.950 . S
H712 C722 0.950 . S
H713 C724 0.950 . S
H714 C726 0.950 . S
H715 C727 0.950 . S
C716 H708 0.950 . S
C716 C717 1.386 . S
C716 C718 1.391 . S
C717 C716 1.386 . S
C717 C721 1.393 . S
C718 H710 0.950 . S
C718 C716 1.391 . S
C718 C719 1.400 . S
C719 C718 1.400 . S
C719 C720 1.398 . S
C719 C725 1.491 . S
C720 H711 0.950 . S
C720 C719 1.398 . S
C720 C721 1.391 . S
C721 H709 0.950 . S
C721 C717 1.393 . S
C721 C720 1.391 . S
C722 H712 0.950 . S
C722 C723 1.386 . S
C722 C724 1.391 . S
C723 C722 1.386 . S
C723 C727 1.393 . S
C724 H713 0.950 . S
C724 C722 1.391 . S
C724 C725 1.400 . S
C725 C719 1.491 . S
C725 C724 1.400 . S
C725 C726 1.398 . S
C726 H714 0.950 . S
C726 C725 1.398 . S
C726 C727 1.391 . S
C727 H715 0.950 . S
C727 C723 1.393 . S
C727 C726 1.391 . S
C257 C4 1.073 . S
C263 C105 1.097 . S
C277 C16 1.220 . S
C283 C145 1.278 . S
C303 C170 2.008 . S
C297 C32 2.039 . S
C317 C43 2.341 . S
C323 C210 2.292 1_655 S
C343 C141 2.151 . S
C337 C5 2.067 . S
C363 C101 1.415 . S
C357 C21 1.344 . S
C383 C232 1.630 . S
C377 C27 1.642 . S
C403 C192 1.582 . S
C397 C37 1.619 . S
C417 C10 1.202 . S
C423 C234 1.204 . S
C443 C151 2.364 1_556 S
C437 C26 2.400 . S
C457 C38 1.884 . S
C463 C111 1.863 . S
C477 C15 1.517 . S
C483 C194 1.534 . S
C503 C114 1.245 . S
C497 C48 1.207 . S
C517 C59 1.022 . S
C523 C154 1.041 . S
C537 C76 2.359 . S
C543 C191 2.292 . S
C557 C87 2.130 . S
C563 C231 2.111 . S
C577 C54 1.428 . S
C583 C152 1.475 1_556 S
C603 C112 2.117 . S
C597 C60 2.051 . S
C623 C221 1.577 . S
C617 C71 1.586 . S
C643 C181 1.632 . S
C637 C82 1.638 . S
C657 C49 1.574 . S
C663 C225 1.622 . S
C683 C130 1.812 . S
C677 C70 1.845 . S
C703 C90 2.318 . S
C697 C81 2.369 . S
C717 C65 1.187 . S
C723 C185 1.200 . S
