# Generated by pormake.
# Topology pyr, (3,6)-cn, num edge types: 1
# Building blocks:
#     Node 0, Type 0, BuildingBlock: ESEHIV_clean_linker_0, # of connection points: 3
#     Node 1, Type 0, BuildingBlock: ESEHIV_clean_linker_0, # of connection points: 3
#     Node 2, Type 0, BuildingBlock: ESEHIV_clean_linker_0, # of connection points: 3
#     Node 3, Type 0, BuildingBlock: ESEHIV_clean_linker_0, # of connection points: 3
#     Node 4, Type 0, BuildingBlock: ESEHIV_clean_linker_0, # of connection points: 3
#     Node 5, Type 0, BuildingBlock: ESEHIV_clean_linker_0, # of connection points: 3
#     Node 6, Type 0, BuildingBlock: ESEHIV_clean_linker_0, # of connection points: 3
#     Node 7, Type 0, BuildingBlock: ESEHIV_clean_linker_0, # of connection points: 3
#     Node 8, Type 1, BuildingBlock: LEVNOQ01_clean_sbu_1, # of connection points: 6
#     Node 9, Type 1, BuildingBlock: LEVNOQ01_clean_sbu_1, # of connection points: 6
#     Node 10, Type 1, BuildingBlock: LEVNOQ01_clean_sbu_1, # of connection points: 6
#     Node 11, Type 1, BuildingBlock: LEVNOQ01_clean_sbu_1, # of connection points: 6
#     Edge 12, Type (0, 1), BuildingBlock: UVAHIK_clean_linker_0, # of connection points: 2
#     Edge 13, Type (0, 1), BuildingBlock: UVAHIK_clean_linker_0, # of connection points: 2
#     Edge 14, Type (0, 1), BuildingBlock: UVAHIK_clean_linker_0, # of connection points: 2
#     Edge 15, Type (0, 1), BuildingBlock: UVAHIK_clean_linker_0, # of connection points: 2
#     Edge 16, Type (0, 1), BuildingBlock: UVAHIK_clean_linker_0, # of connection points: 2
#     Edge 17, Type (0, 1), BuildingBlock: UVAHIK_clean_linker_0, # of connection points: 2
#     Edge 18, Type (0, 1), BuildingBlock: UVAHIK_clean_linker_0, # of connection points: 2
#     Edge 19, Type (0, 1), BuildingBlock: UVAHIK_clean_linker_0, # of connection points: 2
#     Edge 20, Type (0, 1), BuildingBlock: UVAHIK_clean_linker_0, # of connection points: 2
#     Edge 21, Type (0, 1), BuildingBlock: UVAHIK_clean_linker_0, # of connection points: 2
#     Edge 22, Type (0, 1), BuildingBlock: UVAHIK_clean_linker_0, # of connection points: 2
#     Edge 23, Type (0, 1), BuildingBlock: UVAHIK_clean_linker_0, # of connection points: 2
#     Edge 24, Type (0, 1), BuildingBlock: UVAHIK_clean_linker_0, # of connection points: 2
#     Edge 25, Type (0, 1), BuildingBlock: UVAHIK_clean_linker_0, # of connection points: 2
#     Edge 26, Type (0, 1), BuildingBlock: UVAHIK_clean_linker_0, # of connection points: 2
#     Edge 27, Type (0, 1), BuildingBlock: UVAHIK_clean_linker_0, # of connection points: 2
#     Edge 28, Type (0, 1), BuildingBlock: UVAHIK_clean_linker_0, # of connection points: 2
#     Edge 29, Type (0, 1), BuildingBlock: UVAHIK_clean_linker_0, # of connection points: 2
#     Edge 30, Type (0, 1), BuildingBlock: UVAHIK_clean_linker_0, # of connection points: 2
#     Edge 31, Type (0, 1), BuildingBlock: UVAHIK_clean_linker_0, # of connection points: 2
#     Edge 32, Type (0, 1), BuildingBlock: UVAHIK_clean_linker_0, # of connection points: 2
#     Edge 33, Type (0, 1), BuildingBlock: UVAHIK_clean_linker_0, # of connection points: 2
#     Edge 34, Type (0, 1), BuildingBlock: UVAHIK_clean_linker_0, # of connection points: 2
#     Edge 35, Type (0, 1), BuildingBlock: UVAHIK_clean_linker_0, # of connection points: 2
# Relax obj value: 0.035
# Max RMSD: 0.110
# Mean RMSD: 0.045
data_MOF--net-pry--node1-LEVNOQ01_clean_sbu_1--node2-ESEHIV_clean_linker_0--edge1-UVAHIK_clean_linker_0
_symmetry_space_group_name_H-M    P1
_symmetry_Int_Tables_number       1
_symmetry_cell_setting            triclinic
loop_
_symmetry_equiv_pos_as_xyz
'x, y, z'
_cell_length_a     46.374178
_cell_length_b     44.609665
_cell_length_c     44.461954
_cell_angle_alpha  92.361639
_cell_angle_beta   91.246563
_cell_angle_gamma 93.979462
loop_
_atom_site_label
_atom_site_type_symbol
_atom_site_fract_x
_atom_site_fract_y
_atom_site_fract_z
_atom_type_partial_charge
H0 H 0.11338 0.18056 0.17186 0.0
H1 H 0.18191 0.12112 0.18087 0.0
H2 H 0.17644 0.17393 0.10257 0.0
C3 C 0.13256 0.17106 0.16315 0.0
C4 C 0.14334 0.1801 0.1353 0.0
C5 C 0.14619 0.1496 0.17968 0.0
C6 C 0.17113 0.13755 0.16824 0.0
C7 C 0.18214 0.14615 0.14048 0.0
C8 C 0.16809 0.16736 0.12409 0.0
H9 H 0.33941 0.91634 0.64323 0.0
H10 H 0.41457 0.86624 0.6327 0.0
H11 H 0.34295 0.85212 0.56918 0.0
C12 C 0.35136 0.9003 0.63055 0.0
C13 C 0.33879 0.88638 0.60403 0.0
C14 C 0.37855 0.893 0.64139 0.0
C15 C 0.39309 0.87112 0.62524 0.0
C16 C 0.38027 0.85557 0.59954 0.0
C17 C 0.35311 0.86362 0.58899 0.0
H18 H 0.67744 0.30003 0.84654 0.0
H19 H 0.70145 0.35762 0.77477 0.0
H20 H 0.63072 0.29014 0.76185 0.0
C21 C 0.67445 0.30684 0.82362 0.0
C22 C 0.65286 0.29163 0.80495 0.0
C23 C 0.69184 0.33098 0.813 0.0
C24 C 0.68744 0.33965 0.78333 0.0
C25 C 0.66524 0.32548 0.76463 0.0
C26 C 0.64832 0.30106 0.77557 0.0
H27 H 0.85771 0.65077 0.43138 0.0
H28 H 0.91253 0.65701 0.3547 0.0
H29 H 0.83209 0.60302 0.34811 0.0
C30 C 0.8621 0.64448 0.40823 0.0
C31 C 0.84217 0.62481 0.39161 0.0
C32 C 0.88735 0.65661 0.395 0.0
C33 C 0.89279 0.64837 0.36486 0.0
C34 C 0.87315 0.62868 0.34789 0.0
C35 C 0.84786 0.61722 0.36144 0.0
H36 H 0.82392 0.88909 0.84234 0.0
H37 H 0.886 0.82241 0.84656 0.0
H38 H 0.82202 0.82785 0.91482 0.0
C39 C 0.83235 0.87031 0.85349 0.0
C40 C 0.81958 0.86007 0.87995 0.0
C41 C 0.85602 0.85665 0.84111 0.0
C42 C 0.86755 0.83282 0.85588 0.0
C43 C 0.8557 0.82262 0.8828 0.0
C44 C 0.83145 0.83604 0.89439 0.0
H45 H 0.58794 0.14949 0.37303 0.0
H46 H 0.65888 0.09277 0.37356 0.0
H47 H 0.65348 0.16159 0.44352 0.0
C48 C 0.60757 0.14273 0.38367 0.0
C49 C 0.61848 0.15784 0.41042 0.0
C50 C 0.62239 0.11962 0.37 0.0
C51 C 0.64786 0.11113 0.38376 0.0
C52 C 0.65943 0.12614 0.41018 0.0
C53 C 0.64438 0.14929 0.42362 0.0
H54 H 0.28576 0.72899 0.16651 0.0
H55 H 0.29092 0.65685 0.22722 0.0
H56 H 0.34642 0.73737 0.2416 0.0
C57 C 0.29548 0.71956 0.18602 0.0
C58 C 0.31764 0.73654 0.20257 0.0
C59 C 0.28554 0.69074 0.19464 0.0
C60 C 0.29759 0.67938 0.22074 0.0
C61 C 0.31909 0.69627 0.2381 0.0
C62 C 0.32925 0.72468 0.2287 0.0
H63 H 0.07886 0.3474 0.63991 0.0
H64 H 0.1354 0.37231 0.5679 0.0
H65 H 0.1517 0.41101 0.65695 0.0
C66 C 0.097 0.36087 0.63146 0.0
C67 C 0.11386 0.38018 0.65175 0.0
C68 C 0.10462 0.35753 0.60098 0.0
C69 C 0.12915 0.37447 0.59114 0.0
C70 C 0.14681 0.39289 0.61135 0.0
C71 C 0.13858 0.39615 0.64141 0.0
O72 O 0.9886 0.01757 0.59281 0.0
Mg73 Mg 0.01984 0.04161 0.56859 0.0
O74 O 0.97527 0.98664 0.55396 0.0
Mg75 Mg -0.00294 0.00556 0.51017 0.0
O76 O 0.00334 0.05483 0.52882 0.0
O77 O 0.01723 0.0869 0.56722 0.0
O78 O 0.01957 0.0252 0.46668 0.0
O79 O 0.95092 0.01864 0.49525 0.0
Mg80 Mg 0.97749 0.97168 0.45159 0.0
O81 O 0.98959 0.95586 0.49215 0.0
O82 O 0.01164 0.99204 0.4286 0.0
O83 O 0.93831 0.99281 0.45295 0.0
O84 O 0.9757 0.92619 0.45173 0.0
C85 C 0.06366 0.00212 0.54358 0.0
C86 C 0.97376 0.99469 0.58181 0.0
C87 C 0.00712 0.08219 0.54004 0.0
C88 C 0.02419 0.01618 0.43962 0.0
C89 C 0.93272 0.01173 0.47367 0.0
C90 C 0.98468 0.92917 0.47943 0.0
O91 O 0.06009 0.02347 0.56253 0.0
O92 O 0.04336 0.99241 0.52502 0.0
O93 O 0.46892 0.05105 0.0522 0.0
Mg94 Mg 0.50934 0.05206 0.03004 0.0
O95 O 0.45241 0.0152 0.01992 0.0
Mg96 Mg 0.49794 0.00085 0.0072 0.0
O97 O 0.51135 0.04786 0.98428 0.0
O98 O 0.51446 0.0919 0.01104 0.0
O99 O 0.54416 0.98657 0.99438 0.0
O100 O 0.47956 0.98899 0.95827 0.0
Mg101 Mg 0.49797 0.92974 0.9904 0.0
O102 O 0.48355 0.95502 0.02525 0.0
O103 O 0.54344 0.93665 0.99012 0.0
O104 O 0.47439 0.93924 0.951 0.0
O105 O 0.47881 0.9051 0.02381 0.0
C106 C 0.53769 0.0236 0.06919 0.0
C107 C 0.44786 0.03457 0.04077 0.0
C108 C 0.51527 0.07716 0.98558 0.0
C109 C 0.55705 0.96232 0.99048 0.0
C110 C 0.47124 0.96551 0.94205 0.0
C111 C 0.47456 0.93039 0.03753 0.0
O112 O 0.54742 0.04523 0.0543 0.0
O113 O 0.51568 0.00761 0.05854 0.0
O114 O 0.49422 0.57199 0.55892 0.0
Mg115 Mg 0.49087 0.52829 0.57487 0.0
O116 O 0.49024 0.55897 0.51005 0.0
Mg117 Mg 0.49645 0.50659 0.50383 0.0
O118 O 0.51749 0.50362 0.55028 0.0
O119 O 0.52467 0.51193 0.59937 0.0
O120 O 0.50355 0.45431 0.50045 0.0
O121 O 0.54266 0.51907 0.48706 0.0
Mg122 Mg 0.50179 0.47895 0.44171 0.0
O123 O 0.47463 0.51064 0.45611 0.0
O124 O 0.49113 0.43542 0.45514 0.0
O125 O 0.54598 0.49513 0.44282 0.0
O126 O 0.47585 0.49234 0.40843 0.0
C127 C 0.43724 0.49383 0.54647 0.0
C128 C 0.49158 0.57902 0.53168 0.0
C129 C 0.53215 0.49909 0.57452 0.0
C130 C 0.4982 0.43166 0.48217 0.0
C131 C 0.55732 0.51196 0.46422 0.0
C132 C 0.46498 0.50993 0.42829 0.0
O133 O 0.44959 0.50471 0.57071 0.0
O134 O 0.45021 0.494 0.52137 0.0
O135 O 0.98391 0.42858 0.03722 0.0
Mg136 Mg -0.00254 0.47255 0.05292 0.0
O137 O 0.0149 0.4484 0.00685 0.0
Mg138 Mg -0.00441 0.49705 0.00424 0.0
O139 O 0.96973 0.50564 0.05004 0.0
O140 O 0.97642 0.47916 0.0913 0.0
O141 O 0.97604 0.5458 0.00261 0.0
O142 O 0.95337 0.47422 0.98382 0.0
Mg143 Mg 0.99419 0.52251 0.95852 0.0
O144 O 0.02093 0.48831 0.95773 0.0
O145 O 0.00959 0.56582 0.97538 0.0
O146 O 0.94869 0.50988 0.95195 0.0
O147 O 0.0129 0.51728 0.9186 0.0
C148 C 0.05247 0.51014 0.04644 0.0
C149 C 0.00317 0.42497 0.01828 0.0
C150 C 0.96387 0.49991 0.07785 0.0
C151 C 0.98901 0.56938 0.99277 0.0
C152 C 0.93828 0.48641 0.96414 0.0
C153 C 0.02545 0.49536 0.92996 0.0
O154 O 0.042 0.48787 0.06051 0.0
O155 O 0.03802 0.51993 0.02471 0.0
C156 C 0.12383 0.1591 0.23019 0.0
C157 C 0.13408 0.13892 0.20841 0.0
C158 C 0.11265 0.14865 0.2572 0.0
C159 C 0.08101 0.07928 0.28977 0.0
H160 H 0.101 0.11935 0.36729 0.0
C161 C 0.05774 0.01881 0.39705 0.0
C162 C 0.04294 0.03404 0.41954 0.0
C163 C 0.07057 0.03435 0.37373 0.0
C164 C 0.09505 0.10812 0.34576 0.0
H165 H 0.14019 0.09192 0.19783 0.0
H166 H 0.1213 0.07388 0.24481 0.0
H167 H 0.11904 0.14142 0.321 0.0
H168 H 0.03144 0.07777 0.4363 0.0
H169 H 0.05411 0.10528 0.39511 0.0
H170 H 0.05734 0.04592 0.31419 0.0
C171 C 0.12164 0.09774 0.24106 0.0
C172 C 0.1053 0.12075 0.31927 0.0
C173 C 0.13281 0.10814 0.21422 0.0
C174 C 0.04297 0.06555 0.4194 0.0
C175 C 0.05579 0.08122 0.39577 0.0
C176 C 0.0709 0.06672 0.31607 0.0
C177 C 0.11128 0.1178 0.26284 0.0
C178 C 0.09882 0.1061 0.29101 0.0
C179 C 0.06873 0.06552 0.37209 0.0
C180 C 0.07826 0.0806 0.34441 0.0
H181 H 0.12473 0.18298 0.22649 0.0
H182 H 0.1047 0.16466 0.27344 0.0
H183 H 0.07494 0.06782 0.26838 0.0
H184 H 0.05834 0.99456 0.39677 0.0
H185 H 0.08104 0.02171 0.35628 0.0
C186 C 0.40714 0.89076 0.69009 0.0
C187 C 0.39104 0.90733 0.67023 0.0
C188 C 0.41722 0.90347 0.71794 0.0
C189 C 0.39819 0.95462 0.7771 0.0
H190 H 0.47762 0.95274 0.80591 0.0
C191 C 0.43625 0.94783 0.90089 0.0
C192 C 0.45892 0.96827 0.91154 0.0
C193 C 0.42712 0.94712 0.87074 0.0
C194 C 0.45546 0.95379 0.79799 0.0
H195 H 0.37414 0.95098 0.66405 0.0
H196 H 0.3905 0.97241 0.71342 0.0
H197 H 0.46481 0.9377 0.75333 0.0
H198 H 0.48944 0.00449 0.89942 0.0
H199 H 0.47413 0.00239 0.84598 0.0
H200 H 0.38852 0.96882 0.82227 0.0
C201 C 0.39537 0.94964 0.70706 0.0
C202 C 0.44814 0.94503 0.76807 0.0
C203 C 0.38582 0.93719 0.6789 0.0
C204 C 0.47172 0.98873 0.89174 0.0
C205 C 0.46311 0.98743 0.86128 0.0
C206 C 0.4054 0.96272 0.80719 0.0
C207 C 0.41099 0.93281 0.72687 0.0
C208 C 0.41938 0.94499 0.75751 0.0
C209 C 0.44101 0.96631 0.85051 0.0
C210 C 0.43403 0.96201 0.81795 0.0
H211 H 0.41119 0.86757 0.68466 0.0
H212 H 0.42895 0.88994 0.73303 0.0
H213 H 0.37584 0.95456 0.76949 0.0
H214 H 0.42609 0.93181 0.91574 0.0
H215 H 0.41019 0.9305 0.86289 0.0
C216 C 0.66172 0.36885 0.73076 0.0
C217 C 0.65866 0.33763 0.73464 0.0
C218 C 0.65453 0.38074 0.70333 0.0
C219 C 0.60469 0.36828 0.64052 0.0
H220 H 0.65044 0.43523 0.60855 0.0
C221 C 0.55082 0.44875 0.56401 0.0
C222 C 0.55552 0.47851 0.57538 0.0
C223 C 0.56935 0.42693 0.57263 0.0
C224 C 0.63745 0.41642 0.61699 0.0
H225 H 0.64597 0.29449 0.71203 0.0
H226 H 0.63211 0.31568 0.66429 0.0
H227 H 0.67183 0.40458 0.6462 0.0
H228 H 0.584 0.50951 0.60273 0.0
H229 H 0.61624 0.47196 0.61773 0.0
H230 H 0.56959 0.38145 0.61331 0.0
C231 C 0.64057 0.33069 0.68266 0.0
C232 C 0.64973 0.39886 0.63849 0.0
C233 C 0.64829 0.31864 0.71008 0.0
C234 C 0.58016 0.4867 0.59344 0.0
C235 C 0.59871 0.46509 0.60191 0.0
C236 C 0.59228 0.38604 0.61923 0.0
C237 C 0.64358 0.36188 0.6791 0.0
C238 C 0.63306 0.37549 0.65143 0.0
C239 C 0.59281 0.43467 0.59277 0.0
C240 C 0.60811 0.41123 0.60833 0.0
H241 H 0.66879 0.38438 0.74923 0.0
H242 H 0.65641 0.40494 0.70148 0.0
H243 H 0.59132 0.35046 0.65021 0.0
H244 H 0.53148 0.44182 0.55077 0.0
H245 H 0.56431 0.40374 0.56501 0.0
C246 C 0.88977 0.64159 0.29607 0.0
C247 C 0.8787 0.62013 0.31593 0.0
C248 C 0.89431 0.63342 0.26588 0.0
C249 C 0.8735 0.57384 0.20714 0.0
H250 H 0.94645 0.59876 0.17163 0.0
C251 C 0.9277 0.50391 0.11768 0.0
C252 C 0.94428 0.51792 0.09553 0.0
C253 C 0.91396 0.521 0.13924 0.0
C254 C 0.92566 0.59218 0.18088 0.0
H255 H 0.86445 0.57313 0.31974 0.0
H256 H 0.87238 0.55894 0.26735 0.0
H257 H 0.93453 0.61993 0.22093 0.0
H258 H 0.95828 0.56066 0.07736 0.0
H259 H 0.93444 0.59092 0.11571 0.0
H260 H 0.86523 0.54507 0.16771 0.0
C261 C 0.87694 0.58222 0.27485 0.0
C262 C 0.91887 0.60424 0.20921 0.0
C263 C 0.87248 0.59034 0.30495 0.0
C264 C 0.94542 0.54937 0.09413 0.0
C265 C 0.93202 0.56662 0.11617 0.0
C266 C 0.8803 0.56179 0.1789 0.0
C267 C 0.8878 0.60365 0.2549 0.0
C268 C 0.89315 0.59441 0.22309 0.0
C269 C 0.91683 0.55256 0.13944 0.0
C270 C 0.90688 0.57005 0.16592 0.0
H271 H 0.89446 0.66481 0.30373 0.0
H272 H 0.90257 0.65049 0.25105 0.0
H273 H 0.85319 0.56635 0.2169 0.0
H274 H 0.92652 0.47968 0.11923 0.0
H275 H 0.90272 0.50944 0.15697 0.0
C276 C 0.23254 0.13037 0.14758 0.0
C277 C 0.2082 0.13258 0.12868 0.0
C278 C 0.25672 0.11659 0.13702 0.0
C279 C 0.29253 0.09284 0.06691 0.0
H280 H 0.33602 0.04717 0.12226 0.0
C281 C 0.39396 0.03138 0.03207 0.0
C282 C 0.41828 0.03927 0.05091 0.0
C283 C 0.36643 0.03899 0.04076 0.0
C284 C 0.32405 0.05981 0.10655 0.0
H285 H 0.19005 0.12208 0.08388 0.0
H286 H 0.23213 0.09749 0.06546 0.0
H287 H 0.29152 0.06818 0.13852 0.0
H288 H 0.43266 0.05994 0.09415 0.0
H289 H 0.38474 0.07258 0.10948 0.0
H290 H 0.32528 0.08426 0.03495 0.0
C291 C 0.23278 0.10689 0.08832 0.0
C292 C 0.29865 0.07206 0.1159 0.0
C293 C 0.20865 0.12096 0.09885 0.0
C294 C 0.41437 0.05369 0.07908 0.0
C295 C 0.3869 0.06079 0.08794 0.0
C296 C 0.31783 0.08028 0.05745 0.0
C297 C 0.25709 0.10437 0.10735 0.0
C298 C 0.28287 0.08933 0.09644 0.0
C299 C 0.36272 0.05403 0.06869 0.0
C300 C 0.33414 0.06417 0.0774 0.0
H301 H 0.23296 0.13951 0.17056 0.0
H302 H 0.27526 0.11581 0.15213 0.0
H303 H 0.28116 0.10621 0.05137 0.0
H304 H 0.39635 0.02031 0.01021 0.0
H305 H 0.34809 0.03337 0.02557 0.0
C306 C 0.28856 0.8746 0.5815 0.0
C307 C 0.31055 0.8958 0.59259 0.0
C308 C 0.26138 0.88383 0.57297 0.0
C309 C 0.21422 0.94371 0.59072 0.0
H310 H 0.17279 0.92087 0.51562 0.0
C311 C 0.11629 0.00515 0.55627 0.0
C312 C 0.09182 0.98845 0.54382 0.0
C313 C 0.14249 0.99204 0.55954 0.0
C314 C 0.18393 0.92711 0.53685 0.0
H315 H 0.32174 0.94343 0.60151 0.0
H316 H 0.27438 0.95929 0.58729 0.0
H317 H 0.21967 0.90059 0.5263 0.0
H318 H 0.07592 0.94516 0.5238 0.0
H319 H 0.12193 0.92178 0.53022 0.0
H320 H 0.17882 0.9698 0.60175 0.0
C321 C 0.278 0.93555 0.58557 0.0
C322 C 0.21074 0.91555 0.5429 0.0
C323 C 0.30509 0.92643 0.59382 0.0
C324 C 0.09445 0.95856 0.53351 0.0
C325 C 0.12078 0.94522 0.53714 0.0
C326 C 0.1875 0.95497 0.58485 0.0
C327 C 0.25571 0.91434 0.57561 0.0
C328 C 0.22637 0.92432 0.56964 0.0
C329 C 0.14491 0.96168 0.5509 0.0
C330 C 0.1723 0.94744 0.55756 0.0
H331 H 0.29201 0.85082 0.58041 0.0
H332 H 0.2445 0.86703 0.56542 0.0
H333 H 0.22549 0.9503 0.61181 0.0
H334 H 0.11514 0.02841 0.5639 0.0
H335 H 0.16083 0.0057 0.56931 0.0
C336 C 0.73213 0.33261 0.85215 0.0
C337 C 0.71419 0.34778 0.83288 0.0
C338 C 0.75409 0.34854 0.86956 0.0
C339 C 0.80058 0.41837 0.86968 0.0
H340 H 0.81845 0.40173 0.95267 0.0
C341 C 0.89117 0.48812 0.93593 0.0
C342 C 0.90964 0.47241 0.95404 0.0
C343 C 0.86529 0.47407 0.9241 0.0
C344 C 0.81391 0.40647 0.92942 0.0
H345 H 0.70422 0.39177 0.81818 0.0
H346 H 0.74267 0.41938 0.84817 0.0
H347 H 0.77709 0.37448 0.92642 0.0
H348 H 0.91496 0.42993 0.97481 0.0
H349 H 0.87018 0.40514 0.95353 0.0
H350 H 0.83762 0.44962 0.87211 0.0
C351 C 0.74008 0.39514 0.84943 0.0
C352 C 0.79019 0.39088 0.91443 0.0
C353 C 0.71812 0.37929 0.83218 0.0
C354 C 0.90117 0.44267 0.96095 0.0
C355 C 0.87539 0.42849 0.94885 0.0
C356 C 0.82434 0.43375 0.88453 0.0
C357 C 0.75859 0.37993 0.86797 0.0
C358 C 0.7833 0.39669 0.88438 0.0
C359 C 0.85739 0.44385 0.9298 0.0
C360 C 0.83136 0.42802 0.91459 0.0
H361 H 0.7298 0.30835 0.85309 0.0
H362 H 0.76815 0.33618 0.88348 0.0
H363 H 0.79615 0.42297 0.84636 0.0
H364 H 0.8969 0.51119 0.93049 0.0
H365 H 0.85164 0.48684 0.91014 0.0
C366 C 0.79927 0.6312 0.42448 0.0
C367 C 0.81494 0.61284 0.40529 0.0
C368 C 0.77293 0.62032 0.43599 0.0
C369 C 0.72683 0.54957 0.4458 0.0
H370 H 0.66456 0.6033 0.44727 0.0
C371 C 0.60635 0.50891 0.44263 0.0
C372 C 0.58796 0.52323 0.46247 0.0
C373 C 0.63512 0.51973 0.44023 0.0
C374 C 0.68185 0.58817 0.44739 0.0
H375 H 0.81557 0.5682 0.38411 0.0
H376 H 0.76923 0.54971 0.40299 0.0
H377 H 0.71306 0.62247 0.43447 0.0
H378 H 0.58539 0.55998 0.49558 0.0
H379 H 0.63578 0.57936 0.49079 0.0
H380 H 0.69509 0.51499 0.45733 0.0
C381 C 0.77746 0.57236 0.40969 0.0
C382 C 0.7097 0.59914 0.44015 0.0
C383 C 0.80389 0.58314 0.39843 0.0
C384 C 0.59906 0.54848 0.4801 0.0
C385 C 0.6278 0.55962 0.47732 0.0
C386 C 0.69892 0.53856 0.45266 0.0
C387 C 0.76149 0.59088 0.42841 0.0
C388 C 0.73247 0.57986 0.43877 0.0
C389 C 0.64605 0.54534 0.45731 0.0
C390 C 0.6761 0.55765 0.45307 0.0
H391 H 0.80696 0.65429 0.43003 0.0
H392 H 0.76146 0.6351 0.45067 0.0
H393 H 0.74392 0.53421 0.44565 0.0
H394 H 0.59851 0.48931 0.42886 0.0
H395 H 0.64866 0.50848 0.42442 0.0
C396 C 0.14484 0.22596 0.10407 0.0
C397 C 0.12868 0.20272 0.11788 0.0
C398 C 0.13099 0.24769 0.08839 0.0
C399 C 0.06091 0.28196 0.08357 0.0
H400 H 0.09112 0.31514 0.01038 0.0
C401 C -0.00024 0.36962 0.02405 0.0
C402 C 0.01633 0.3957 0.0166 0.0
C403 C 0.01308 0.3435 0.0307 0.0
C404 C 0.08249 0.30617 0.03086 0.0
H405 H 0.08529 0.18346 0.12504 0.0
H406 H 0.06113 0.2212 0.09769 0.0
H407 H 0.11526 0.2747 0.03396 0.0
H408 H 0.05963 0.41415 0.00783 0.0
H409 H 0.08308 0.3685 0.01982 0.0
H410 H 0.02853 0.31354 0.08096 0.0
C411 C 0.08452 0.22303 0.09945 0.0
C412 C 0.09635 0.28304 0.04442 0.0
C413 C 0.09836 0.20139 0.11517 0.0
C414 C 0.04629 0.39433 0.01336 0.0
C415 C 0.05972 0.36817 0.02032 0.0
C416 C 0.04711 0.30495 0.07006 0.0
C417 C 0.10063 0.24665 0.08613 0.0
C418 C 0.08573 0.2707 0.071 0.0
C419 C 0.04335 0.34291 0.03039 0.0
C420 C 0.05767 0.31739 0.04354 0.0
H421 H 0.16822 0.22781 0.10599 0.0
H422 H 0.14407 0.26576 0.07878 0.0
H423 H 0.05248 0.27352 0.10436 0.0
H424 H 0.97658 0.36994 0.02645 0.0
H425 H -0.00027 0.32418 0.03751 0.0
C426 C 0.61973 0.27092 0.84376 0.0
C427 C 0.63421 0.26669 0.81669 0.0
C428 C 0.6024 0.2474 0.85517 0.0
C429 C 0.59452 0.1666 0.85836 0.0
H430 H 0.51858 0.18076 0.88843 0.0
C431 C 0.53225 0.08085 0.9322 0.0
C432 C 0.52163 0.09436 0.95845 0.0
C433 C 0.54153 0.09862 0.90841 0.0
C434 C 0.53975 0.17639 0.88016 0.0
H435 H 0.64204 0.23478 0.78025 0.0
H436 H 0.61218 0.19312 0.80081 0.0
H437 H 0.54437 0.21896 0.85954 0.0
H438 H 0.51081 0.13674 0.97956 0.0
H439 H 0.52705 0.16729 0.93886 0.0
H440 H 0.59077 0.12487 0.88061 0.0
C441 C 0.61405 0.21477 0.8129 0.0
C442 C 0.55444 0.19825 0.86357 0.0
C443 C 0.63099 0.23853 0.80115 0.0
C444 C 0.51908 0.12558 0.95978 0.0
C445 C 0.52815 0.14316 0.93618 0.0
C446 C 0.57996 0.14482 0.87535 0.0
C447 C 0.59956 0.21905 0.83999 0.0
C448 C 0.58231 0.19396 0.85332 0.0
C449 C 0.54002 0.13009 0.91041 0.0
C450 C 0.55283 0.14996 0.88736 0.0
H451 H 0.62175 0.29248 0.85604 0.0
H452 H 0.59168 0.2512 0.87626 0.0
H453 H 0.61605 0.16281 0.85074 0.0
H454 H 0.53442 0.05682 0.93052 0.0
H455 H 0.55038 0.08783 0.88874 0.0
C456 C 0.91865 0.70479 0.39819 0.0
C457 C 0.90716 0.67912 0.41221 0.0
C458 C 0.93531 0.72727 0.41467 0.0
C459 C 0.97927 0.76718 0.45097 0.0
H460 H 0.9462 0.79566 0.52528 0.0
C461 C 0.01144 0.88543 0.49246 0.0
C462 C 0.98684 0.90167 0.49593 0.0
C463 C 0.00937 0.85416 0.49468 0.0
C464 C 0.95594 0.78787 0.50473 0.0
H465 H 0.90528 0.65637 0.4544 0.0
H466 H 0.93425 0.69593 0.48333 0.0
H467 H 0.92766 0.74778 0.50141 0.0
H468 H 0.94178 0.89903 0.50753 0.0
H469 H 0.93782 0.8448 0.51106 0.0
H470 H 0.00581 0.80813 0.45264 0.0
C471 C 0.93009 0.69869 0.45958 0.0
C472 C 0.94546 0.76026 0.49116 0.0
C473 C 0.91345 0.67609 0.44301 0.0
C474 C 0.96114 0.88691 0.50525 0.0
C475 C 0.95893 0.85568 0.50716 0.0
C476 C 0.98961 0.79478 0.46438 0.0
C477 C 0.94093 0.72471 0.44565 0.0
C478 C 0.95611 0.75032 0.46338 0.0
C479 C 0.98247 0.83872 0.4997 0.0
C480 C 0.97716 0.80619 0.4907 0.0
H481 H 0.91384 0.70816 0.37467 0.0
H482 H 0.94276 0.74728 0.40332 0.0
H483 H 0.98839 0.75981 0.42992 0.0
H484 H 0.0314 0.89642 0.48489 0.0
H485 H 0.02815 0.8419 0.48963 0.0
C486 C 0.41142 0.81166 0.60182 0.0
C487 C 0.39491 0.83033 0.58455 0.0
C488 C 0.4251 0.78794 0.5882 0.0
C489 C 0.41899 0.73185 0.52892 0.0
H490 H 0.50094 0.72502 0.54377 0.0
C491 C 0.47091 0.62015 0.50242 0.0
C492 C 0.48818 0.61116 0.52629 0.0
C493 C 0.46311 0.64995 0.50155 0.0
C494 C 0.47802 0.72648 0.53941 0.0
H495 H 0.38007 0.83818 0.539 0.0
H496 H 0.40285 0.79547 0.51558 0.0
H497 H 0.47911 0.77139 0.55875 0.0
H498 H 0.51268 0.62688 0.56667 0.0
H499 H 0.49898 0.67807 0.56555 0.0
H500 H 0.41725 0.68623 0.51176 0.0
C501 C 0.4054 0.79989 0.53966 0.0
C502 C 0.46563 0.75311 0.54784 0.0
C503 C 0.3922 0.82417 0.5532 0.0
C504 C 0.49917 0.63299 0.54803 0.0
C505 C 0.49147 0.66257 0.5472 0.0
C506 C 0.43129 0.70494 0.52094 0.0
C507 C 0.42212 0.78176 0.55708 0.0
C508 C 0.43588 0.7557 0.54346 0.0
C509 C 0.4726 0.67132 0.52451 0.0
C510 C 0.4608 0.70156 0.52707 0.0
H511 H 0.41343 0.81491 0.62605 0.0
H512 H 0.4375 0.7739 0.60216 0.0
H513 H 0.39594 0.73334 0.52546 0.0
H514 H 0.462 0.60391 0.48548 0.0
H515 H 0.44885 0.65597 0.4835 0.0
C516 C 0.87365 0.89879 0.80919 0.0
C517 C 0.8688 0.86776 0.81293 0.0
C518 C 0.88484 0.90951 0.78249 0.0
C519 C 0.89312 0.88973 0.70208 0.0
H520 H 0.94999 0.95776 0.70785 0.0
C521 C 0.95212 0.94555 0.6002 0.0
C522 C 0.95571 0.97712 0.60274 0.0
C523 C 0.94009 0.92932 0.62388 0.0
C524 C 0.93396 0.93888 0.70582 0.0
H525 H 0.87189 0.82358 0.79153 0.0
H526 H 0.89179 0.84242 0.74471 0.0
H527 H 0.93332 0.93469 0.75348 0.0
H528 H 0.94714 0.01648 0.63047 0.0
H529 H 0.92582 0.98846 0.67104 0.0
H530 H 0.89382 0.89434 0.65413 0.0
C531 C 0.88671 0.85839 0.76248 0.0
C532 C 0.92442 0.92566 0.73199 0.0
C533 C 0.8756 0.84763 0.78937 0.0
C534 C 0.94509 0.99215 0.6281 0.0
C535 C 0.93304 0.97609 0.65145 0.0
C536 C 0.90277 0.90304 0.67571 0.0
C537 C 0.89149 0.88948 0.7588 0.0
C538 C 0.90341 0.90139 0.73054 0.0
C539 C 0.93148 0.94453 0.65023 0.0
C540 C 0.92277 0.92824 0.67743 0.0
H541 H 0.86889 0.91487 0.82701 0.0
H542 H 0.88793 0.9336 0.78027 0.0
H543 H 0.87687 0.87107 0.70024 0.0
H544 H 0.9602 0.93344 0.58089 0.0
H545 H 0.93899 0.90497 0.62229 0.0
C546 C 0.58361 0.09625 0.33397 0.0
C547 C 0.61275 0.10578 0.34019 0.0
C548 C 0.575 0.0835 0.30555 0.0
C549 C 0.59666 0.08364 0.22691 0.0
H550 H 0.5477 0.00977 0.21552 0.0
C551 C 0.57635 0.03188 0.10877 0.0
C552 C 0.54775 0.022 0.10074 0.0
C553 C 0.58461 0.03743 0.13893 0.0
C554 C 0.56119 0.03055 0.21833 0.0
H555 H 0.65557 0.10979 0.32146 0.0
H556 H 0.6406 0.08772 0.27214 0.0
H557 H 0.56027 0.02998 0.26661 0.0
H558 H 0.50574 0.00825 0.11789 0.0
H559 H 0.5199 0.01877 0.17078 0.0
H560 H 0.59721 0.08499 0.17908 0.0
C561 C 0.62441 0.08995 0.28915 0.0
C562 C 0.56834 0.0421 0.24756 0.0
C563 C 0.63302 0.10236 0.31748 0.0
C564 C 0.52801 0.01568 0.12353 0.0
C565 C 0.53615 0.02177 0.15384 0.0
C566 C 0.58936 0.07232 0.19785 0.0
C567 C 0.59532 0.08052 0.28279 0.0
C568 C 0.58642 0.0686 0.25208 0.0
C569 C 0.56427 0.0339 0.16178 0.0
C570 C 0.57184 0.04542 0.1931 0.0
H571 H 0.56756 0.0985 0.3511 0.0
H572 H 0.55239 0.07659 0.30117 0.0
H573 H 0.61015 0.10443 0.22968 0.0
H574 H 0.59205 0.03665 0.09159 0.0
H575 H 0.6067 0.04575 0.14424 0.0
C576 C 0.36135 0.68371 0.27046 0.0
C577 C 0.33131 0.68342 0.2655 0.0
C578 C 0.3727 0.66874 0.29461 0.0
C579 C 0.3527 0.60554 0.34234 0.0
H580 H 0.42513 0.6307 0.3842 0.0
C581 C 0.43974 0.55786 0.43301 0.0
C582 C 0.44309 0.53004 0.4181 0.0
C583 C 0.42244 0.57876 0.42011 0.0
C584 C 0.4046 0.6236 0.37313 0.0
H585 H 0.2896 0.66898 0.283 0.0
H586 H 0.30931 0.64322 0.32531 0.0
H587 H 0.4026 0.66528 0.35107 0.0
H588 H 0.42947 0.50129 0.37912 0.0
H589 H 0.39918 0.53714 0.35699 0.0
H590 H 0.35494 0.56372 0.36384 0.0
C591 C 0.32417 0.65434 0.31019 0.0
C592 C 0.39189 0.64325 0.35385 0.0
C593 C 0.31286 0.66913 0.28599 0.0
C594 C 0.42746 0.52267 0.3911 0.0
C595 C 0.40993 0.54318 0.37848 0.0
C596 C 0.36539 0.58596 0.36152 0.0
C597 C 0.35422 0.65331 0.3144 0.0
C598 C 0.36613 0.63416 0.33767 0.0
C599 C 0.40774 0.57174 0.3924 0.0
C600 C 0.39188 0.59443 0.37648 0.0
H601 H 0.37609 0.69435 0.2549 0.0
H602 H 0.39594 0.66811 0.29693 0.0
H603 H 0.33302 0.59762 0.33008 0.0
H604 H 0.45158 0.56386 0.4538 0.0
H605 H 0.42101 0.60055 0.43145 0.0
C606 C 0.12855 0.3827 0.70646 0.0
C607 C 0.10664 0.38299 0.68412 0.0
C608 C 0.12257 0.3882 0.73675 0.0
C609 C 0.06323 0.3945 0.79123 0.0
H610 H 0.11808 0.45242 0.83275 0.0
C611 C 0.05895 0.49235 0.88748 0.0
C612 C 0.04339 0.47764 0.90996 0.0
C613 C 0.071 0.47594 0.86418 0.0
C614 C 0.10268 0.43601 0.82159 0.0
H615 H 0.06101 0.38792 0.67621 0.0
H616 H 0.05053 0.39792 0.72921 0.0
H617 H 0.12895 0.43217 0.78295 0.0
H618 H 0.0293 0.43424 0.92662 0.0
H619 H 0.05026 0.40521 0.8853 0.0
H620 H 0.03634 0.39967 0.82947 0.0
C621 C 0.07231 0.39311 0.72331 0.0
C622 C 0.10898 0.42421 0.79309 0.0
C623 C 0.0783 0.38749 0.69293 0.0
C624 C 0.04146 0.44607 0.90968 0.0
C625 C 0.05317 0.42953 0.88592 0.0
C626 C 0.05697 0.40627 0.81986 0.0
C627 C 0.09454 0.3942 0.74551 0.0
C628 C 0.08903 0.40386 0.77722 0.0
C629 C 0.06745 0.44438 0.86255 0.0
C630 C 0.0763 0.42778 0.83498 0.0
H631 H 0.1505 0.37863 0.70044 0.0
H632 H 0.14007 0.38824 0.7533 0.0
H633 H 0.04757 0.37859 0.77979 0.0
H634 H 0.06067 0.51668 0.88716 0.0
H635 H 0.08159 0.48811 0.84644 0.0
C636 C 0.79012 0.87777 0.92363 0.0
C637 C 0.79409 0.87475 0.89238 0.0
C638 C 0.76632 0.89175 0.93507 0.0
C639 C 0.69397 0.91629 0.91121 0.0
H640 H 0.69849 0.95713 0.99006 0.0
C641 C 0.59928 0.97854 0.95984 0.0
C642 C 0.58815 0.96331 0.98452 0.0
C643 C 0.62697 0.97336 0.94973 0.0
C644 C 0.69712 0.94603 0.96788 0.0
H645 H 0.7754 0.88405 0.84878 0.0
H646 H 0.73564 0.91025 0.86857 0.0
H647 H 0.74166 0.93656 0.96925 0.0
H648 H 0.59748 0.93251 0.01923 0.0
H649 H 0.64642 0.92461 0.00244 0.0
H650 H 0.6495 0.92652 0.90982 0.0
C651 C 0.75028 0.90097 0.88442 0.0
C652 C 0.7217 0.93385 0.95605 0.0
C653 C 0.77362 0.88636 0.87299 0.0
C654 C 0.60579 0.94466 0.00029 0.0
C655 C 0.6337 0.94016 0.99072 0.0
C656 C 0.66967 0.92912 0.92274 0.0
C657 C 0.74608 0.90371 0.91564 0.0
C658 C 0.72038 0.91832 0.92771 0.0
C659 C 0.64408 0.95356 0.96472 0.0
C660 C 0.67092 0.94369 0.95132 0.0
H661 H 0.80553 0.86961 0.93943 0.0
H662 H 0.76374 0.89281 0.95921 0.0
H663 H 0.69161 0.90399 0.88971 0.0
H664 H 0.58584 0.99267 0.94712 0.0
H665 H 0.63458 0.98383 0.92954 0.0
C666 C 0.69317 0.11678 0.45374 0.0
C667 C 0.6879 0.11825 0.42253 0.0
C668 C 0.71939 0.10704 0.46469 0.0
C669 C 0.77171 0.05553 0.44494 0.0
H670 H 0.8318 0.10381 0.49035 0.0
C671 C 0.88753 0.02193 0.44576 0.0
C672 C 0.90464 0.02563 0.47228 0.0
C673 C 0.8606 0.03378 0.44407 0.0
C674 C 0.81502 0.08985 0.4782 0.0
H675 H 0.70702 0.11282 0.37861 0.0
H676 H 0.75191 0.09477 0.3977 0.0
H677 H 0.78493 0.12447 0.48033 0.0
H678 H 0.90705 0.04534 0.51776 0.0
H679 H 0.85935 0.06583 0.51493 0.0
H680 H 0.80123 0.02096 0.44248 0.0
C681 C 0.73571 0.10097 0.41357 0.0
C682 C 0.7883 0.1017 0.47246 0.0
C683 C 0.70988 0.11105 0.4027 0.0
C684 C 0.89433 0.04206 0.49701 0.0
C685 C 0.86708 0.05385 0.49537 0.0
C686 C 0.79809 0.04359 0.45094 0.0
C687 C 0.74049 0.09841 0.44455 0.0
C688 C 0.76685 0.08488 0.45502 0.0
C689 C 0.84976 0.04945 0.46895 0.0
C690 C 0.82046 0.06095 0.4667 0.0
H691 H 0.67671 0.12213 0.46961 0.0
H692 H 0.72274 0.10515 0.4887 0.0
H693 H 0.75529 0.0421 0.43168 0.0
H694 H 0.89491 0.00982 0.42609 0.0
H695 H 0.84828 0.03072 0.42305 0.0
C696 C 0.24272 0.6527 0.19012 0.0
C697 C 0.26306 0.67217 0.17621 0.0
C698 C 0.22253 0.63424 0.17291 0.0
C699 C 0.18128 0.62779 0.10301 0.0
H700 H 0.17449 0.54232 0.11661 0.0
C701 C 0.09406 0.54838 0.03993 0.0
C702 C 0.08027 0.52593 0.0569 0.0
C703 C 0.11907 0.56484 0.05121 0.0
C704 C 0.1758 0.56617 0.11272 0.0
H705 H 0.27765 0.68741 0.13291 0.0
H706 H 0.24133 0.6561 0.10306 0.0
H707 H 0.21214 0.57454 0.14327 0.0
H708 H 0.0822 0.50288 0.09884 0.0
H709 H 0.12484 0.53202 0.11885 0.0
H710 H 0.14408 0.61997 0.07376 0.0
C711 C 0.24148 0.65507 0.12737 0.0
C712 C 0.19751 0.58454 0.12789 0.0
C713 C 0.26211 0.67315 0.14455 0.0
C714 C 0.09237 0.51986 0.08505 0.0
C715 C 0.11706 0.53653 0.09647 0.0
C716 C 0.15918 0.60951 0.08822 0.0
C717 C 0.22175 0.63522 0.14141 0.0
C718 C 0.20019 0.61556 0.12349 0.0
C719 C 0.13064 0.55947 0.07988 0.0
C720 C 0.15583 0.57849 0.09326 0.0
H721 H 0.2422 0.65176 0.21439 0.0
H722 H 0.20722 0.61943 0.18427 0.0
H723 H 0.18286 0.65171 0.09938 0.0
H724 H 0.08535 0.55349 0.01807 0.0
H725 H 0.12916 0.58192 0.03751 0.0
C726 C 0.17929 0.41721 0.57309 0.0
C727 C 0.17549 0.40575 0.60188 0.0
C728 C 0.20698 0.42596 0.56327 0.0
C729 C 0.26756 0.45643 0.55473 0.0
H730 H 0.32897 0.407 0.5788 0.0
C731 C 0.38841 0.47872 0.52262 0.0
C732 C 0.40722 0.48064 0.54797 0.0
C733 C 0.35951 0.46781 0.52515 0.0
C734 C 0.31201 0.42094 0.57183 0.0
H735 H 0.19789 0.39518 0.64308 0.0
H736 H 0.24568 0.41143 0.62649 0.0
H737 H 0.27922 0.39237 0.59119 0.0
H738 H 0.41083 0.47176 0.59549 0.0
H739 H 0.36089 0.45236 0.59966 0.0
H740 H 0.30078 0.48513 0.53557 0.0
C741 C 0.22741 0.41307 0.6112 0.0
C742 C 0.28356 0.41271 0.57909 0.0
C743 C 0.19988 0.40424 0.62093 0.0
C744 C 0.39686 0.47072 0.57557 0.0
C745 C 0.3683 0.45942 0.57794 0.0
C746 C 0.29614 0.46458 0.54726 0.0
C747 C 0.23139 0.4234 0.58204 0.0
C748 C 0.26109 0.43081 0.57143 0.0
C749 C 0.34926 0.45808 0.55288 0.0
C750 C 0.31868 0.44731 0.5565 0.0
H751 H 0.16091 0.41896 0.55797 0.0
H752 H 0.20932 0.43387 0.54069 0.0
H753 H 0.25075 0.47087 0.54854 0.0
H754 H 0.39581 0.48631 0.50109 0.0
H755 H 0.3452 0.46692 0.50549 0.0
C756 C 0.89941 0.79873 0.90229 0.0
C757 C 0.86918 0.79843 0.89909 0.0
C758 C 0.91232 0.77586 0.91702 0.0
C759 C 0.89831 0.71379 0.96906 0.0
H760 H 0.96564 0.68299 0.93176 0.0
C761 C 0.94632 0.60069 0.99745 0.0
C762 C 0.97626 0.59888 0.99433 0.0
C763 C 0.93335 0.62722 0.99093 0.0
C764 C 0.94719 0.69163 0.94287 0.0
H765 H 0.82877 0.77395 0.9092 0.0
H766 H 0.85135 0.73379 0.9348 0.0
H767 H 0.94268 0.72437 0.90969 0.0
H768 H 0.01642 0.62422 0.98509 0.0
H769 H 0.99405 0.67061 0.97476 0.0
H770 H 0.90274 0.68047 0.00204 0.0
C771 C 0.86506 0.75198 0.92622 0.0
C772 C 0.93395 0.71539 0.93012 0.0
C773 C 0.85212 0.77495 0.91149 0.0
C774 C 0.99325 0.62484 0.98734 0.0
C775 C 0.98037 0.65134 0.98113 0.0
C776 C 0.91163 0.68991 0.98189 0.0
C777 C 0.89535 0.75201 0.9289 0.0
C778 C 0.90937 0.72683 0.94301 0.0
C779 C 0.95015 0.65244 0.98142 0.0
C780 C 0.93629 0.67858 0.96895 0.0
H781 H 0.91317 0.81682 0.89358 0.0
H782 H 0.93568 0.77693 0.91919 0.0
H783 H 0.87955 0.72224 0.97972 0.0
H784 H 0.93265 0.58099 0.00269 0.0
H785 H 0.91002 0.62727 0.99141 0.0
C786 C 0.33312 0.76993 0.16092 0.0
C787 C 0.32929 0.76609 0.19184 0.0
C788 C 0.34491 0.79715 0.15063 0.0
C789 C 0.39366 0.86202 0.17403 0.0
H790 H 0.36873 0.89038 0.09706 0.0
C791 C 0.46979 0.91056 0.08813 0.0
C792 C 0.46013 0.92985 0.06657 0.0
C793 C 0.45195 0.90151 0.11137 0.0
C794 C 0.37565 0.88342 0.11897 0.0
H795 H 0.33436 0.78837 0.23615 0.0
H796 H 0.35556 0.83587 0.2181 0.0
H797 H 0.33886 0.85196 0.12146 0.0
H798 H 0.42548 0.95703 0.05351 0.0
H799 H 0.39375 0.94093 0.09428 0.0
H800 H 0.43107 0.89263 0.17088 0.0
C801 C 0.34937 0.81765 0.20189 0.0
C802 C 0.3587 0.86104 0.13274 0.0
C803 C 0.33735 0.79039 0.21221 0.0
C804 C 0.4334 0.94229 0.07012 0.0
C805 C 0.41522 0.93285 0.09325 0.0
C806 C 0.41065 0.88441 0.16022 0.0
C807 C 0.35337 0.82128 0.17097 0.0
C808 C 0.36815 0.84914 0.15973 0.0
C809 C 0.42381 0.91119 0.1132 0.0
C810 C 0.40248 0.89437 0.13186 0.0
H811 H 0.32776 0.75158 0.1446 0.0
H812 H 0.34833 0.79891 0.12673 0.0
H813 H 0.40155 0.85339 0.19484 0.0
H814 H 0.49031 0.90059 0.08564 0.0
H815 H 0.45926 0.88467 0.12607 0.0
C816 C 0.0593 0.32608 0.5834 0.0
C817 C 0.08888 0.3344 0.58015 0.0
C818 C 0.04566 0.30211 0.56592 0.0
C819 C 0.06563 0.23357 0.52374 0.0
H820 H 0.98281 0.22168 0.50948 0.0
C821 C 0.01961 0.11613 0.49895 0.0
C822 C 0.00153 0.10849 0.5227 0.0
C823 C 0.02407 0.14625 0.49143 0.0
C824 C 0.00605 0.22487 0.51282 0.0
H825 H 0.12673 0.32416 0.55447 0.0
H826 H 0.10256 0.28489 0.52273 0.0
H827 H 0.00433 0.27155 0.52554 0.0
H828 H 0.97102 0.12488 0.55444 0.0
H829 H 0.97838 0.17711 0.54126 0.0
H830 H 0.0674 0.18695 0.51217 0.0
C831 C 0.09006 0.29594 0.53964 0.0
C832 C 0.01837 0.25334 0.52237 0.0
C833 C 0.10387 0.31918 0.55763 0.0
C834 C 0.98494 0.13037 0.53588 0.0
C835 C 0.98918 0.16034 0.52826 0.0
C836 C 0.05342 0.20539 0.51386 0.0
C837 C 0.06109 0.28623 0.54428 0.0
C838 C 0.04823 0.25777 0.52908 0.0
C839 C 0.01049 0.16888 0.50769 0.0
C840 C 0.02338 0.20035 0.50944 0.0
H841 H 0.04673 0.33757 0.59992 0.0
H842 H 0.02336 0.2953 0.5704 0.0
H843 H 0.08857 0.23561 0.52912 0.0
H844 H 0.03291 0.09962 0.48884 0.0
H845 H 0.04034 0.15215 0.47517 0.0
C846 C 0.59379 0.20552 0.40448 0.0
C847 C 0.60379 0.18381 0.42339 0.0
C848 C 0.58006 0.23006 0.41638 0.0
C849 C 0.57077 0.27542 0.48658 0.0
H850 H 0.50758 0.30408 0.43983 0.0
C851 C 0.53355 0.39612 0.49905 0.0
C852 C 0.50519 0.40127 0.49012 0.0
C853 C 0.54287 0.36693 0.49785 0.0
C854 C 0.52476 0.29618 0.45365 0.0
H855 H 0.60732 0.17092 0.46973 0.0
H856 H 0.58298 0.21379 0.4906 0.0
H857 H 0.52877 0.25828 0.42349 0.0
H858 H 0.4637 0.38019 0.4751 0.0
H859 H 0.47935 0.32905 0.47446 0.0
H860 H 0.5665 0.3134 0.5169 0.0
C861 C 0.58607 0.21195 0.46655 0.0
C862 C 0.5373 0.27008 0.4439 0.0
C863 C 0.59996 0.18737 0.4546 0.0
C864 C 0.48564 0.37667 0.48228 0.0
C865 C 0.49478 0.34746 0.48154 0.0
C866 C 0.55806 0.30155 0.49649 0.0
C867 C 0.57582 0.23352 0.44753 0.0
C868 C 0.5609 0.25973 0.4598 0.0
C869 C 0.5239 0.34236 0.48774 0.0
C870 C 0.53522 0.3126 0.47982 0.0
H871 H 0.597 0.20382 0.38042 0.0
H872 H 0.57315 0.2466 0.40111 0.0
H873 H 0.58897 0.26814 0.49935 0.0
H874 H 0.54923 0.41485 0.50428 0.0
H875 H 0.56549 0.36405 0.50254 0.0
loop_
_geom_bond_atom_site_label_1
_geom_bond_atom_site_label_2
_geom_bond_distance
_geom_bond_site_symmetry_2
_ccdc_geom_bond_type
H0 C3 0.931 . S
H1 C6 0.928 . S
H2 C8 0.930 . S
C3 H0 0.931 . S
C3 C4 1.413 . S
C3 C5 1.360 . S
C4 C3 1.413 . S
C4 C8 1.429 . S
C5 C3 1.360 . S
C5 C6 1.372 . S
C6 H1 0.928 . S
C6 C5 1.372 . S
C6 C7 1.404 . S
C7 C6 1.404 . S
C7 C8 1.391 . S
C8 H2 0.930 . S
C8 C4 1.429 . S
C8 C7 1.391 . S
H9 C12 0.931 . S
H10 C15 0.928 . S
H11 C17 0.930 . S
C12 H9 0.931 . S
C12 C13 1.413 . S
C12 C14 1.360 . S
C13 C12 1.413 . S
C13 C17 1.429 . S
C14 C12 1.360 . S
C14 C15 1.372 . S
C15 H10 0.928 . S
C15 C14 1.372 . S
C15 C16 1.404 . S
C16 C15 1.404 . S
C16 C17 1.391 . S
C17 H11 0.930 . S
C17 C13 1.429 . S
C17 C16 1.391 . S
H18 C21 0.931 . S
H19 C24 0.928 . S
H20 C26 0.930 . S
C21 H18 0.931 . S
C21 C22 1.413 . S
C21 C23 1.360 . S
C22 C21 1.413 . S
C22 C26 1.429 . S
C23 C21 1.360 . S
C23 C24 1.372 . S
C24 H19 0.928 . S
C24 C23 1.372 . S
C24 C25 1.404 . S
C25 C24 1.404 . S
C25 C26 1.391 . S
C26 H20 0.930 . S
C26 C22 1.429 . S
C26 C25 1.391 . S
H27 C30 0.931 . S
H28 C33 0.928 . S
H29 C35 0.930 . S
C30 H27 0.931 . S
C30 C31 1.413 . S
C30 C32 1.360 . S
C31 C30 1.413 . S
C31 C35 1.429 . S
C32 C30 1.360 . S
C32 C33 1.372 . S
C33 H28 0.928 . S
C33 C32 1.372 . S
C33 C34 1.404 . S
C34 C33 1.404 . S
C34 C35 1.391 . S
C35 H29 0.930 . S
C35 C31 1.429 . S
C35 C34 1.391 . S
H36 C39 0.931 . S
H37 C42 0.928 . S
H38 C44 0.930 . S
C39 H36 0.931 . S
C39 C40 1.413 . S
C39 C41 1.360 . S
C40 C39 1.413 . S
C40 C44 1.429 . S
C41 C39 1.360 . S
C41 C42 1.372 . S
C42 H37 0.928 . S
C42 C41 1.372 . S
C42 C43 1.404 . S
C43 C42 1.404 . S
C43 C44 1.391 . S
C44 H38 0.930 . S
C44 C40 1.429 . S
C44 C43 1.391 . S
H45 C48 0.931 . S
H46 C51 0.928 . S
H47 C53 0.930 . S
C48 H45 0.931 . S
C48 C49 1.413 . S
C48 C50 1.360 . S
C49 C48 1.413 . S
C49 C53 1.429 . S
C50 C48 1.360 . S
C50 C51 1.372 . S
C51 H46 0.928 . S
C51 C50 1.372 . S
C51 C52 1.404 . S
C52 C51 1.404 . S
C52 C53 1.391 . S
C53 H47 0.930 . S
C53 C49 1.429 . S
C53 C52 1.391 . S
H54 C57 0.931 . S
H55 C60 0.928 . S
H56 C62 0.930 . S
C57 H54 0.931 . S
C57 C58 1.413 . S
C57 C59 1.360 . S
C58 C57 1.413 . S
C58 C62 1.429 . S
C59 C57 1.360 . S
C59 C60 1.372 . S
C60 H55 0.928 . S
C60 C59 1.372 . S
C60 C61 1.404 . S
C61 C60 1.404 . S
C61 C62 1.391 . S
C62 H56 0.930 . S
C62 C58 1.429 . S
C62 C61 1.391 . S
H63 C66 0.931 . S
H64 C69 0.928 . S
H65 C71 0.930 . S
C66 H63 0.931 . S
C66 C67 1.413 . S
C66 C68 1.360 . S
C67 C66 1.413 . S
C67 C71 1.429 . S
C68 C66 1.360 . S
C68 C69 1.372 . S
C69 H64 0.928 . S
C69 C68 1.372 . S
C69 C70 1.404 . S
C70 C69 1.404 . S
C70 C71 1.391 . S
C71 H65 0.930 . S
C71 C67 1.429 . S
C71 C70 1.391 . S
O72 Mg73 1.990 . S
O72 C86 1.253 1_445 S
Mg73 O72 1.990 . S
Mg73 O76 2.180 . S
Mg73 O77 2.117 . S
Mg73 O91 2.030 1_545 S
O74 Mg75 2.072 1_665 S
O74 C86 1.260 . S
Mg75 O74 2.072 1_445 S
Mg75 O76 2.099 . S
Mg75 O78 2.079 . S
Mg75 O79 2.072 1_455 S
Mg75 O81 2.099 1_445 S
Mg75 O92 2.079 1_545 S
O76 Mg73 2.180 . S
O76 Mg75 2.099 . S
O76 C87 1.279 . S
O77 Mg73 2.117 . S
O77 C87 1.250 . S
O78 Mg75 2.079 . S
O78 C88 1.264 . S
O79 Mg75 2.072 1_655 S
O79 C89 1.260 . S
Mg80 O81 2.180 . S
Mg80 O82 2.030 1_565 S
Mg80 O83 1.990 1_565 S
Mg80 O84 2.117 . S
O81 Mg75 2.099 1_665 S
O81 Mg80 2.180 . S
O81 C90 1.279 . S
O82 Mg80 2.030 1_545 S
O82 C88 1.248 1_655 S
O83 Mg80 1.990 1_545 S
O83 C89 1.253 . S
O84 Mg80 2.117 . S
O84 C90 1.250 . S
C85 O91 1.248 . S
C85 O92 1.264 . S
C86 O72 1.253 1_665 S
C86 O74 1.260 . S
C87 O76 1.279 . S
C87 O77 1.250 . S
C88 O78 1.264 . S
C88 O82 1.248 1_455 S
C89 O79 1.260 . S
C89 O83 1.253 . S
C90 O81 1.279 . S
C90 O84 1.250 . S
O91 Mg73 2.030 1_565 S
O91 C85 1.248 . S
O92 Mg75 2.079 1_565 S
O92 C85 1.264 . S
O93 Mg94 1.990 . S
O93 C107 1.253 . S
Mg94 O93 1.990 . S
Mg94 O97 2.193 . S
Mg94 O98 2.117 1_554 S
Mg94 O112 2.030 . S
O95 Mg96 2.072 . S
O95 C107 1.260 . S
Mg96 O95 2.072 . S
Mg96 O97 2.102 . S
Mg96 O99 2.079 1_554 S
Mg96 O100 2.072 1_554 S
Mg96 O102 2.099 1_545 S
Mg96 O113 2.079 . S
O97 Mg94 2.193 . S
O97 Mg96 2.102 . S
O97 C108 1.266 1_554 S
O98 Mg94 2.117 1_556 S
O98 C108 1.250 . S
O99 Mg96 2.079 1_556 S
O99 C109 1.264 1_545 S
O100 Mg96 2.072 1_556 S
O100 C110 1.260 1_545 S
Mg101 O102 2.180 1_556 S
Mg101 O103 2.030 . S
Mg101 O104 1.990 . S
Mg101 O105 2.117 1_556 S
O102 Mg96 2.099 1_565 S
O102 Mg101 2.180 1_554 S
O102 C111 1.279 . S
O103 Mg101 2.030 . S
O103 C109 1.248 . S
O104 Mg101 1.990 . S
O104 C110 1.253 . S
O105 Mg101 2.117 1_554 S
O105 C111 1.250 . S
C106 O112 1.248 . S
C106 O113 1.264 . S
C107 O93 1.253 . S
C107 O95 1.260 . S
C108 O97 1.266 1_556 S
C108 O98 1.250 . S
C109 O99 1.264 1_565 S
C109 O103 1.248 . S
C110 O100 1.260 1_565 S
C110 O104 1.253 . S
C111 O102 1.279 . S
C111 O105 1.250 . S
O112 Mg94 2.030 . S
O112 C106 1.248 . S
O113 Mg96 2.079 . S
O113 C106 1.264 . S
O114 Mg115 1.990 . S
O114 C128 1.253 . S
Mg115 O114 1.990 . S
Mg115 O118 2.180 . S
Mg115 O119 2.117 . S
Mg115 O133 2.030 . S
O116 Mg117 2.072 . S
O116 C128 1.260 . S
Mg117 O116 2.072 . S
Mg117 O118 2.099 . S
Mg117 O120 2.079 . S
Mg117 O121 2.072 . S
Mg117 O123 2.099 . S
Mg117 O134 2.079 . S
O118 Mg115 2.180 . S
O118 Mg117 2.099 . S
O118 C129 1.279 . S
O119 Mg115 2.117 . S
O119 C129 1.250 . S
O120 Mg117 2.079 . S
O120 C130 1.264 . S
O121 Mg117 2.072 . S
O121 C131 1.260 . S
Mg122 O123 2.180 . S
Mg122 O124 2.030 . S
Mg122 O125 1.990 . S
Mg122 O126 2.117 . S
O123 Mg117 2.099 . S
O123 Mg122 2.180 . S
O123 C132 1.279 . S
O124 Mg122 2.030 . S
O124 C130 1.248 . S
O125 Mg122 1.990 . S
O125 C131 1.253 . S
O126 Mg122 2.117 . S
O126 C132 1.250 . S
C127 O133 1.248 . S
C127 O134 1.264 . S
C128 O114 1.253 . S
C128 O116 1.260 . S
C129 O118 1.279 . S
C129 O119 1.250 . S
C130 O120 1.264 . S
C130 O124 1.248 . S
C131 O121 1.260 . S
C131 O125 1.253 . S
C132 O123 1.279 . S
C132 O126 1.250 . S
O133 Mg115 2.030 . S
O133 C127 1.248 . S
O134 Mg117 2.079 . S
O134 C127 1.264 . S
O135 Mg136 1.990 . S
O135 C149 1.253 . S
Mg136 O135 1.990 . S
Mg136 O139 2.180 1_455 S
Mg136 O140 2.117 1_455 S
Mg136 O154 2.030 . S
O137 Mg138 2.072 . S
O137 C149 1.260 . S
Mg138 O137 2.072 . S
Mg138 O139 2.099 1_455 S
Mg138 O141 2.079 1_454 S
Mg138 O142 2.072 1_455 S
Mg138 O144 2.099 1_554 S
Mg138 O155 2.079 . S
O139 Mg136 2.180 1_655 S
O139 Mg138 2.099 1_655 S
O139 C150 1.279 . S
O140 Mg136 2.117 1_655 S
O140 C150 1.250 . S
O141 Mg138 2.079 1_656 S
O141 C151 1.264 . S
O142 Mg138 2.072 1_655 S
O142 C152 1.260 1_554 S
Mg143 O144 2.180 1_655 S
Mg143 O145 2.030 . S
Mg143 O146 1.990 . S
Mg143 O147 2.117 . S
O144 Mg138 2.099 1_556 S
O144 Mg143 2.180 1_455 S
O144 C153 1.279 . S
O145 Mg143 2.030 . S
O145 C151 1.248 . S
O146 Mg143 1.990 . S
O146 C152 1.253 . S
O147 Mg143 2.117 . S
O147 C153 1.250 1_655 S
C148 O154 1.248 . S
C148 O155 1.264 . S
C149 O135 1.253 . S
C149 O137 1.260 . S
C150 O139 1.279 . S
C150 O140 1.250 . S
C151 O141 1.264 . S
C151 O145 1.248 . S
C152 O142 1.260 1_556 S
C152 O146 1.253 . S
C153 O144 1.279 . S
C153 O147 1.250 1_455 S
O154 Mg136 2.030 . S
O154 C148 1.248 . S
O155 Mg138 2.079 . S
O155 C148 1.264 . S
C156 C157 1.349 . S
C156 C158 1.327 . S
C156 H181 0.950 . S
C157 C156 1.349 . S
C157 C173 1.349 . S
C158 C156 1.327 . S
C158 C177 1.429 . S
C158 H182 0.950 . S
C159 C176 1.574 . S
C159 C178 1.368 . S
C159 H183 0.949 . S
H160 C164 0.949 . S
C161 C162 1.349 . S
C161 C163 1.327 . S
C161 H184 0.952 . S
C162 C161 1.349 . S
C162 C174 1.349 . S
C163 C161 1.327 . S
C163 C179 1.429 . S
C163 H185 0.950 . S
C164 H160 0.949 . S
C164 C172 1.574 . S
C164 C180 1.368 . S
H165 C173 0.950 . S
H166 C171 0.950 . S
H167 C172 0.949 . S
H168 C174 0.950 . S
H169 C175 0.950 . S
H170 C176 0.949 . S
C171 H166 0.950 . S
C171 C173 1.327 . S
C171 C177 1.429 . S
C172 C164 1.574 . S
C172 H167 0.949 . S
C172 C178 1.368 . S
C173 C157 1.349 . S
C173 H165 0.950 . S
C173 C171 1.327 . S
C174 C162 1.349 . S
C174 H168 0.950 . S
C174 C175 1.327 . S
C175 H169 0.950 . S
C175 C174 1.327 . S
C175 C179 1.429 . S
C176 C159 1.574 . S
C176 H170 0.949 . S
C176 C180 1.368 . S
C177 C158 1.429 . S
C177 C171 1.429 . S
C177 C178 1.523 . S
C178 C159 1.368 . S
C178 C172 1.368 . S
C178 C177 1.523 . S
C179 C163 1.429 . S
C179 C175 1.429 . S
C179 C180 1.523 . S
C180 C164 1.368 . S
C180 C176 1.368 . S
C180 C179 1.523 . S
H181 C156 0.950 . S
H182 C158 0.950 . S
H183 C159 0.949 . S
H184 C161 0.952 . S
H185 C163 0.950 . S
C186 C187 1.349 . S
C186 C188 1.327 . S
C186 H211 0.950 . S
C187 C186 1.349 . S
C187 C203 1.349 . S
C188 C186 1.327 . S
C188 C207 1.429 . S
C188 H212 0.950 . S
C189 C206 1.574 . S
C189 C208 1.368 . S
C189 H213 0.949 . S
H190 C194 0.949 . S
C191 C192 1.349 1_545 S
C191 C193 1.327 1_545 S
C191 H214 0.950 . S
C192 C191 1.349 1_565 S
C192 C204 1.349 . S
C193 C191 1.327 1_565 S
C193 C209 1.429 . S
C193 H215 0.950 1_565 S
C194 H190 0.949 . S
C194 C202 1.574 . S
C194 C210 1.368 . S
H195 C203 0.950 . S
H196 C201 0.950 . S
H197 C202 0.949 . S
H198 C204 0.950 . S
H199 C205 0.950 . S
H200 C206 0.949 . S
C201 H196 0.950 . S
C201 C203 1.327 . S
C201 C207 1.429 . S
C202 C194 1.574 . S
C202 H197 0.949 . S
C202 C208 1.368 . S
C203 C187 1.349 . S
C203 H195 0.950 . S
C203 C201 1.327 . S
C204 C192 1.349 . S
C204 H198 0.950 . S
C204 C205 1.327 . S
C205 H199 0.950 . S
C205 C204 1.327 . S
C205 C209 1.429 . S
C206 C189 1.574 . S
C206 H200 0.949 . S
C206 C210 1.368 . S
C207 C188 1.429 . S
C207 C201 1.429 . S
C207 C208 1.523 . S
C208 C189 1.368 . S
C208 C202 1.368 . S
C208 C207 1.523 . S
C209 C193 1.429 . S
C209 C205 1.429 . S
C209 C210 1.523 . S
C210 C194 1.368 . S
C210 C206 1.368 . S
C210 C209 1.523 . S
H211 C186 0.950 . S
H212 C188 0.950 . S
H213 C189 0.949 . S
H214 C191 0.950 . S
H215 C193 0.950 1_545 S
C216 C217 1.349 . S
C216 C218 1.327 . S
C216 H241 0.950 . S
C217 C216 1.349 . S
C217 C233 1.349 . S
C218 C216 1.327 . S
C218 C237 1.429 . S
C218 H242 0.950 . S
C219 C236 1.574 . S
C219 C238 1.368 . S
C219 H243 0.949 . S
H220 C224 0.949 . S
C221 C222 1.349 . S
C221 C223 1.327 . S
C221 H244 0.950 . S
C222 C221 1.349 . S
C222 C234 1.349 . S
C223 C221 1.327 . S
C223 C239 1.429 . S
C223 H245 0.950 . S
C224 H220 0.949 . S
C224 C232 1.574 . S
C224 C240 1.368 . S
H225 C233 0.950 . S
H226 C231 0.950 . S
H227 C232 0.949 . S
H228 C234 0.950 . S
H229 C235 0.950 . S
H230 C236 0.949 . S
C231 H226 0.950 . S
C231 C233 1.327 . S
C231 C237 1.429 . S
C232 C224 1.574 . S
C232 H227 0.949 . S
C232 C238 1.368 . S
C233 C217 1.349 . S
C233 H225 0.950 . S
C233 C231 1.327 . S
C234 C222 1.349 . S
C234 H228 0.950 . S
C234 C235 1.327 . S
C235 H229 0.950 . S
C235 C234 1.327 . S
C235 C239 1.429 . S
C236 C219 1.574 . S
C236 H230 0.949 . S
C236 C240 1.368 . S
C237 C218 1.429 . S
C237 C231 1.429 . S
C237 C238 1.523 . S
C238 C219 1.368 . S
C238 C232 1.368 . S
C238 C237 1.523 . S
C239 C223 1.429 . S
C239 C235 1.429 . S
C239 C240 1.523 . S
C240 C224 1.368 . S
C240 C236 1.368 . S
C240 C239 1.523 . S
H241 C216 0.950 . S
H242 C218 0.950 . S
H243 C219 0.949 . S
H244 C221 0.950 . S
H245 C223 0.950 . S
C246 C247 1.349 . S
C246 C248 1.327 . S
C246 H271 0.950 . S
C247 C246 1.349 . S
C247 C263 1.349 . S
C248 C246 1.327 . S
C248 C267 1.429 . S
C248 H272 0.950 . S
C249 C266 1.574 . S
C249 C268 1.368 . S
C249 H273 0.949 . S
H250 C254 0.949 . S
C251 C252 1.349 . S
C251 C253 1.327 . S
C251 H274 0.950 . S
C252 C251 1.349 . S
C252 C264 1.349 . S
C253 C251 1.327 . S
C253 C269 1.429 . S
C253 H275 0.950 . S
C254 H250 0.949 . S
C254 C262 1.574 . S
C254 C270 1.368 . S
H255 C263 0.950 . S
H256 C261 0.950 . S
H257 C262 0.949 . S
H258 C264 0.950 . S
H259 C265 0.950 . S
H260 C266 0.949 . S
C261 H256 0.950 . S
C261 C263 1.327 . S
C261 C267 1.429 . S
C262 C254 1.574 . S
C262 H257 0.949 . S
C262 C268 1.368 . S
C263 C247 1.349 . S
C263 H255 0.950 . S
C263 C261 1.327 . S
C264 C252 1.349 . S
C264 H258 0.950 . S
C264 C265 1.327 . S
C265 H259 0.950 . S
C265 C264 1.327 . S
C265 C269 1.429 . S
C266 C249 1.574 . S
C266 H260 0.949 . S
C266 C270 1.368 . S
C267 C248 1.429 . S
C267 C261 1.429 . S
C267 C268 1.523 . S
C268 C249 1.368 . S
C268 C262 1.368 . S
C268 C267 1.523 . S
C269 C253 1.429 . S
C269 C265 1.429 . S
C269 C270 1.523 . S
C270 C254 1.368 . S
C270 C266 1.368 . S
C270 C269 1.523 . S
H271 C246 0.950 . S
H272 C248 0.950 . S
H273 C249 0.949 . S
H274 C251 0.950 . S
H275 C253 0.950 . S
C276 C277 1.349 . S
C276 C278 1.327 . S
C276 H301 0.950 . S
C277 C276 1.349 . S
C277 C293 1.349 . S
C278 C276 1.327 . S
C278 C297 1.429 . S
C278 H302 0.950 . S
C279 C296 1.574 . S
C279 C298 1.368 . S
C279 H303 0.949 . S
H280 C284 0.949 . S
C281 C282 1.349 . S
C281 C283 1.327 . S
C281 H304 0.921 1_554 S
C282 C281 1.349 . S
C282 C294 1.349 . S
C283 C281 1.327 . S
C283 C299 1.429 . S
C283 H305 0.950 . S
C284 H280 0.949 . S
C284 C292 1.574 . S
C284 C300 1.368 . S
H285 C293 0.950 . S
H286 C291 0.950 . S
H287 C292 0.949 . S
H288 C294 0.950 . S
H289 C295 0.950 . S
H290 C296 0.949 . S
C291 H286 0.950 . S
C291 C293 1.327 . S
C291 C297 1.429 . S
C292 C284 1.574 . S
C292 H287 0.949 . S
C292 C298 1.368 . S
C293 C277 1.349 . S
C293 H285 0.950 . S
C293 C291 1.327 . S
C294 C282 1.349 . S
C294 H288 0.950 . S
C294 C295 1.327 . S
C295 H289 0.950 . S
C295 C294 1.327 . S
C295 C299 1.429 . S
C296 C279 1.574 . S
C296 H290 0.949 . S
C296 C300 1.368 . S
C297 C278 1.429 . S
C297 C291 1.429 . S
C297 C298 1.523 . S
C298 C279 1.368 . S
C298 C292 1.368 . S
C298 C297 1.523 . S
C299 C283 1.429 . S
C299 C295 1.429 . S
C299 C300 1.523 . S
C300 C284 1.368 . S
C300 C296 1.368 . S
C300 C299 1.523 . S
H301 C276 0.950 . S
H302 C278 0.950 . S
H303 C279 0.949 . S
H304 C281 0.921 1_556 S
H305 C283 0.950 . S
C306 C307 1.349 . S
C306 C308 1.327 . S
C306 H331 0.950 . S
C307 C306 1.349 . S
C307 C323 1.349 . S
C308 C306 1.327 . S
C308 C327 1.429 . S
C308 H332 0.950 . S
C309 C326 1.574 . S
C309 C328 1.368 . S
C309 H333 0.949 . S
H310 C314 0.949 . S
C311 C312 1.349 . S
C311 C313 1.327 . S
C311 H334 0.950 1_565 S
C312 C311 1.349 . S
C312 C324 1.349 . S
C313 C311 1.327 . S
C313 C329 1.429 . S
C313 H335 0.950 . S
C314 H310 0.949 . S
C314 C322 1.574 . S
C314 C330 1.368 . S
H315 C323 0.950 . S
H316 C321 0.950 . S
H317 C322 0.949 . S
H318 C324 0.950 . S
H319 C325 0.950 . S
H320 C326 0.949 . S
C321 H316 0.950 . S
C321 C323 1.327 . S
C321 C327 1.429 . S
C322 C314 1.574 . S
C322 H317 0.949 . S
C322 C328 1.368 . S
C323 C307 1.349 . S
C323 H315 0.950 . S
C323 C321 1.327 . S
C324 C312 1.349 . S
C324 H318 0.950 . S
C324 C325 1.327 . S
C325 H319 0.950 . S
C325 C324 1.327 . S
C325 C329 1.429 . S
C326 C309 1.574 . S
C326 H320 0.949 . S
C326 C330 1.368 . S
C327 C308 1.429 . S
C327 C321 1.429 . S
C327 C328 1.523 . S
C328 C309 1.368 . S
C328 C322 1.368 . S
C328 C327 1.523 . S
C329 C313 1.429 . S
C329 C325 1.429 . S
C329 C330 1.523 . S
C330 C314 1.368 . S
C330 C326 1.368 . S
C330 C329 1.523 . S
H331 C306 0.950 . S
H332 C308 0.950 . S
H333 C309 0.949 . S
H334 C311 0.950 1_545 S
H335 C313 0.950 . S
C336 C337 1.349 . S
C336 C338 1.327 . S
C336 H361 0.950 . S
C337 C336 1.349 . S
C337 C353 1.349 . S
C338 C336 1.327 . S
C338 C357 1.429 . S
C338 H362 0.950 . S
C339 C356 1.574 . S
C339 C358 1.368 . S
C339 H363 0.949 . S
H340 C344 0.949 . S
C341 C342 1.349 . S
C341 C343 1.327 . S
C341 H364 0.950 . S
C342 C341 1.349 . S
C342 C354 1.349 . S
C343 C341 1.327 . S
C343 C359 1.429 . S
C343 H365 0.950 . S
C344 H340 0.949 . S
C344 C352 1.574 . S
C344 C360 1.368 . S
H345 C353 0.950 . S
H346 C351 0.950 . S
H347 C352 0.949 . S
H348 C354 0.950 . S
H349 C355 0.950 . S
H350 C356 0.949 . S
C351 H346 0.950 . S
C351 C353 1.327 . S
C351 C357 1.429 . S
C352 C344 1.574 . S
C352 H347 0.949 . S
C352 C358 1.368 . S
C353 C337 1.349 . S
C353 H345 0.950 . S
C353 C351 1.327 . S
C354 C342 1.349 . S
C354 H348 0.950 . S
C354 C355 1.327 . S
C355 H349 0.950 . S
C355 C354 1.327 . S
C355 C359 1.429 . S
C356 C339 1.574 . S
C356 H350 0.949 . S
C356 C360 1.368 . S
C357 C338 1.429 . S
C357 C351 1.429 . S
C357 C358 1.523 . S
C358 C339 1.368 . S
C358 C352 1.368 . S
C358 C357 1.523 . S
C359 C343 1.429 . S
C359 C355 1.429 . S
C359 C360 1.523 . S
C360 C344 1.368 . S
C360 C356 1.368 . S
C360 C359 1.523 . S
H361 C336 0.950 . S
H362 C338 0.950 . S
H363 C339 0.949 . S
H364 C341 0.950 . S
H365 C343 0.950 . S
C366 C367 1.349 . S
C366 C368 1.327 . S
C366 H391 0.950 . S
C367 C366 1.349 . S
C367 C383 1.349 . S
C368 C366 1.327 . S
C368 C387 1.429 . S
C368 H392 0.950 . S
C369 C386 1.574 . S
C369 C388 1.368 . S
C369 H393 0.949 . S
H370 C374 0.949 . S
C371 C372 1.349 . S
C371 C373 1.327 . S
C371 H394 0.950 . S
C372 C371 1.349 . S
C372 C384 1.349 . S
C373 C371 1.327 . S
C373 C389 1.429 . S
C373 H395 0.950 . S
C374 H370 0.949 . S
C374 C382 1.574 . S
C374 C390 1.368 . S
H375 C383 0.950 . S
H376 C381 0.950 . S
H377 C382 0.949 . S
H378 C384 0.950 . S
H379 C385 0.950 . S
H380 C386 0.949 . S
C381 H376 0.950 . S
C381 C383 1.327 . S
C381 C387 1.429 . S
C382 C374 1.574 . S
C382 H377 0.949 . S
C382 C388 1.368 . S
C383 C367 1.349 . S
C383 H375 0.950 . S
C383 C381 1.327 . S
C384 C372 1.349 . S
C384 H378 0.950 . S
C384 C385 1.327 . S
C385 H379 0.950 . S
C385 C384 1.327 . S
C385 C389 1.429 . S
C386 C369 1.574 . S
C386 H380 0.949 . S
C386 C390 1.368 . S
C387 C368 1.429 . S
C387 C381 1.429 . S
C387 C388 1.523 . S
C388 C369 1.368 . S
C388 C382 1.368 . S
C388 C387 1.523 . S
C389 C373 1.429 . S
C389 C385 1.429 . S
C389 C390 1.523 . S
C390 C374 1.368 . S
C390 C386 1.368 . S
C390 C389 1.523 . S
H391 C366 0.950 . S
H392 C368 0.950 . S
H393 C369 0.949 . S
H394 C371 0.950 . S
H395 C373 0.950 . S
C396 C397 1.349 . S
C396 C398 1.327 . S
C396 H421 0.950 . S
C397 C396 1.349 . S
C397 C413 1.349 . S
C398 C396 1.327 . S
C398 C417 1.429 . S
C398 H422 0.950 . S
C399 C416 1.574 . S
C399 C418 1.368 . S
C399 H423 0.949 . S
H400 C404 0.949 . S
C401 C402 1.349 . S
C401 C403 1.327 . S
C401 H424 0.950 . S
C402 C401 1.349 . S
C402 C414 1.349 . S
C403 C401 1.327 . S
C403 C419 1.429 . S
C403 H425 0.950 . S
C404 H400 0.949 . S
C404 C412 1.574 . S
C404 C420 1.368 . S
H405 C413 0.950 . S
H406 C411 0.950 . S
H407 C412 0.949 . S
H408 C414 0.950 . S
H409 C415 0.950 . S
H410 C416 0.949 . S
C411 H406 0.950 . S
C411 C413 1.327 . S
C411 C417 1.429 . S
C412 C404 1.574 . S
C412 H407 0.949 . S
C412 C418 1.368 . S
C413 C397 1.349 . S
C413 H405 0.950 . S
C413 C411 1.327 . S
C414 C402 1.349 . S
C414 H408 0.950 . S
C414 C415 1.327 . S
C415 H409 0.950 . S
C415 C414 1.327 . S
C415 C419 1.429 . S
C416 C399 1.574 . S
C416 H410 0.949 . S
C416 C420 1.368 . S
C417 C398 1.429 . S
C417 C411 1.429 . S
C417 C418 1.523 . S
C418 C399 1.368 . S
C418 C412 1.368 . S
C418 C417 1.523 . S
C419 C403 1.429 . S
C419 C415 1.429 . S
C419 C420 1.523 . S
C420 C404 1.368 . S
C420 C416 1.368 . S
C420 C419 1.523 . S
H421 C396 0.950 . S
H422 C398 0.950 . S
H423 C399 0.949 . S
H424 C401 0.950 . S
H425 C403 0.950 . S
C426 C427 1.349 . S
C426 C428 1.327 . S
C426 H451 0.950 . S
C427 C426 1.349 . S
C427 C443 1.349 . S
C428 C426 1.327 . S
C428 C447 1.429 . S
C428 H452 0.950 . S
C429 C446 1.574 . S
C429 C448 1.368 . S
C429 H453 0.949 . S
H430 C434 0.949 . S
C431 C432 1.349 . S
C431 C433 1.327 . S
C431 H454 0.950 . S
C432 C431 1.349 . S
C432 C444 1.349 . S
C433 C431 1.327 . S
C433 C449 1.429 . S
C433 H455 0.950 . S
C434 H430 0.949 . S
C434 C442 1.574 . S
C434 C450 1.368 . S
H435 C443 0.950 . S
H436 C441 0.950 . S
H437 C442 0.949 . S
H438 C444 0.950 . S
H439 C445 0.950 . S
H440 C446 0.949 . S
C441 H436 0.950 . S
C441 C443 1.327 . S
C441 C447 1.429 . S
C442 C434 1.574 . S
C442 H437 0.949 . S
C442 C448 1.368 . S
C443 C427 1.349 . S
C443 H435 0.950 . S
C443 C441 1.327 . S
C444 C432 1.349 . S
C444 H438 0.950 . S
C444 C445 1.327 . S
C445 H439 0.950 . S
C445 C444 1.327 . S
C445 C449 1.429 . S
C446 C429 1.574 . S
C446 H440 0.949 . S
C446 C450 1.368 . S
C447 C428 1.429 . S
C447 C441 1.429 . S
C447 C448 1.523 . S
C448 C429 1.368 . S
C448 C442 1.368 . S
C448 C447 1.523 . S
C449 C433 1.429 . S
C449 C445 1.429 . S
C449 C450 1.523 . S
C450 C434 1.368 . S
C450 C446 1.368 . S
C450 C449 1.523 . S
H451 C426 0.950 . S
H452 C428 0.950 . S
H453 C429 0.949 . S
H454 C431 0.950 . S
H455 C433 0.950 . S
C456 C457 1.349 . S
C456 C458 1.327 . S
C456 H481 0.950 . S
C457 C456 1.349 . S
C457 C473 1.349 . S
C458 C456 1.327 . S
C458 C477 1.429 . S
C458 H482 0.950 . S
C459 C476 1.574 . S
C459 C478 1.368 . S
C459 H483 0.949 . S
H460 C464 0.949 . S
C461 C462 1.349 . S
C461 C463 1.327 . S
C461 H484 0.950 . S
C462 C461 1.349 . S
C462 C474 1.349 . S
C463 C461 1.327 . S
C463 C479 1.429 . S
C463 H485 0.950 . S
C464 H460 0.949 . S
C464 C472 1.574 . S
C464 C480 1.368 . S
H465 C473 0.950 . S
H466 C471 0.950 . S
H467 C472 0.949 . S
H468 C474 0.950 . S
H469 C475 0.950 . S
H470 C476 0.949 . S
C471 H466 0.950 . S
C471 C473 1.327 . S
C471 C477 1.429 . S
C472 C464 1.574 . S
C472 H467 0.949 . S
C472 C478 1.368 . S
C473 C457 1.349 . S
C473 H465 0.950 . S
C473 C471 1.327 . S
C474 C462 1.349 . S
C474 H468 0.950 . S
C474 C475 1.327 . S
C475 H469 0.950 . S
C475 C474 1.327 . S
C475 C479 1.429 . S
C476 C459 1.574 . S
C476 H470 0.949 . S
C476 C480 1.368 . S
C477 C458 1.429 . S
C477 C471 1.429 . S
C477 C478 1.523 . S
C478 C459 1.368 . S
C478 C472 1.368 . S
C478 C477 1.523 . S
C479 C463 1.429 . S
C479 C475 1.429 . S
C479 C480 1.523 . S
C480 C464 1.368 . S
C480 C476 1.368 . S
C480 C479 1.523 . S
H481 C456 0.950 . S
H482 C458 0.950 . S
H483 C459 0.949 . S
H484 C461 0.950 . S
H485 C463 0.950 . S
C486 C487 1.349 . S
C486 C488 1.327 . S
C486 H511 0.950 . S
C487 C486 1.349 . S
C487 C503 1.349 . S
C488 C486 1.327 . S
C488 C507 1.429 . S
C488 H512 0.950 . S
C489 C506 1.574 . S
C489 C508 1.368 . S
C489 H513 0.949 . S
H490 C494 0.949 . S
C491 C492 1.349 . S
C491 C493 1.327 . S
C491 H514 0.950 . S
C492 C491 1.349 . S
C492 C504 1.349 . S
C493 C491 1.327 . S
C493 C509 1.429 . S
C493 H515 0.950 . S
C494 H490 0.949 . S
C494 C502 1.574 . S
C494 C510 1.368 . S
H495 C503 0.950 . S
H496 C501 0.950 . S
H497 C502 0.949 . S
H498 C504 0.950 . S
H499 C505 0.950 . S
H500 C506 0.949 . S
C501 H496 0.950 . S
C501 C503 1.327 . S
C501 C507 1.429 . S
C502 C494 1.574 . S
C502 H497 0.949 . S
C502 C508 1.368 . S
C503 C487 1.349 . S
C503 H495 0.950 . S
C503 C501 1.327 . S
C504 C492 1.349 . S
C504 H498 0.950 . S
C504 C505 1.327 . S
C505 H499 0.950 . S
C505 C504 1.327 . S
C505 C509 1.429 . S
C506 C489 1.574 . S
C506 H500 0.949 . S
C506 C510 1.368 . S
C507 C488 1.429 . S
C507 C501 1.429 . S
C507 C508 1.523 . S
C508 C489 1.368 . S
C508 C502 1.368 . S
C508 C507 1.523 . S
C509 C493 1.429 . S
C509 C505 1.429 . S
C509 C510 1.523 . S
C510 C494 1.368 . S
C510 C506 1.368 . S
C510 C509 1.523 . S
H511 C486 0.950 . S
H512 C488 0.950 . S
H513 C489 0.949 . S
H514 C491 0.950 . S
H515 C493 0.950 . S
C516 C517 1.349 . S
C516 C518 1.327 . S
C516 H541 0.950 . S
C517 C516 1.349 . S
C517 C533 1.349 . S
C518 C516 1.327 . S
C518 C537 1.429 . S
C518 H542 0.950 . S
C519 C536 1.574 . S
C519 C538 1.368 . S
C519 H543 0.949 . S
H520 C524 0.949 . S
C521 C522 1.349 . S
C521 C523 1.327 . S
C521 H544 0.950 . S
C522 C521 1.349 . S
C522 C534 1.349 . S
C523 C521 1.327 . S
C523 C539 1.429 . S
C523 H545 0.950 . S
C524 H520 0.949 . S
C524 C532 1.574 . S
C524 C540 1.368 . S
H525 C533 0.950 . S
H526 C531 0.950 . S
H527 C532 0.949 . S
H528 C534 0.950 1_545 S
H529 C535 0.950 . S
H530 C536 0.949 . S
C531 H526 0.950 . S
C531 C533 1.327 . S
C531 C537 1.429 . S
C532 C524 1.574 . S
C532 H527 0.949 . S
C532 C538 1.368 . S
C533 C517 1.349 . S
C533 H525 0.950 . S
C533 C531 1.327 . S
C534 C522 1.349 . S
C534 H528 0.950 1_565 S
C534 C535 1.327 . S
C535 H529 0.950 . S
C535 C534 1.327 . S
C535 C539 1.429 . S
C536 C519 1.574 . S
C536 H530 0.949 . S
C536 C540 1.368 . S
C537 C518 1.429 . S
C537 C531 1.429 . S
C537 C538 1.523 . S
C538 C519 1.368 . S
C538 C532 1.368 . S
C538 C537 1.523 . S
C539 C523 1.429 . S
C539 C535 1.429 . S
C539 C540 1.523 . S
C540 C524 1.368 . S
C540 C536 1.368 . S
C540 C539 1.523 . S
H541 C516 0.950 . S
H542 C518 0.950 . S
H543 C519 0.949 . S
H544 C521 0.950 . S
H545 C523 0.950 . S
C546 C547 1.349 . S
C546 C548 1.327 . S
C546 H571 0.950 . S
C547 C546 1.349 . S
C547 C563 1.349 . S
C548 C546 1.327 . S
C548 C567 1.429 . S
C548 H572 0.950 . S
C549 C566 1.574 . S
C549 C568 1.368 . S
C549 H573 0.949 . S
H550 C554 0.949 . S
C551 C552 1.349 . S
C551 C553 1.327 . S
C551 H574 0.950 . S
C552 C551 1.349 . S
C552 C564 1.349 . S
C553 C551 1.327 . S
C553 C569 1.429 . S
C553 H575 0.950 . S
C554 H550 0.949 . S
C554 C562 1.574 . S
C554 C570 1.368 . S
H555 C563 0.950 . S
H556 C561 0.950 . S
H557 C562 0.949 . S
H558 C564 0.950 . S
H559 C565 0.950 . S
H560 C566 0.949 . S
C561 H556 0.950 . S
C561 C563 1.327 . S
C561 C567 1.429 . S
C562 C554 1.574 . S
C562 H557 0.949 . S
C562 C568 1.368 . S
C563 C547 1.349 . S
C563 H555 0.950 . S
C563 C561 1.327 . S
C564 C552 1.349 . S
C564 H558 0.950 . S
C564 C565 1.327 . S
C565 H559 0.950 . S
C565 C564 1.327 . S
C565 C569 1.429 . S
C566 C549 1.574 . S
C566 H560 0.949 . S
C566 C570 1.368 . S
C567 C548 1.429 . S
C567 C561 1.429 . S
C567 C568 1.523 . S
C568 C549 1.368 . S
C568 C562 1.368 . S
C568 C567 1.523 . S
C569 C553 1.429 . S
C569 C565 1.429 . S
C569 C570 1.523 . S
C570 C554 1.368 . S
C570 C566 1.368 . S
C570 C569 1.523 . S
H571 C546 0.950 . S
H572 C548 0.950 . S
H573 C549 0.949 . S
H574 C551 0.950 . S
H575 C553 0.950 . S
C576 C577 1.349 . S
C576 C578 1.327 . S
C576 H601 0.950 . S
C577 C576 1.349 . S
C577 C593 1.349 . S
C578 C576 1.327 . S
C578 C597 1.429 . S
C578 H602 0.950 . S
C579 C596 1.574 . S
C579 C598 1.368 . S
C579 H603 0.949 . S
H580 C584 0.949 . S
C581 C582 1.349 . S
C581 C583 1.327 . S
C581 H604 0.950 . S
C582 C581 1.349 . S
C582 C594 1.349 . S
C583 C581 1.327 . S
C583 C599 1.429 . S
C583 H605 0.950 . S
C584 H580 0.949 . S
C584 C592 1.574 . S
C584 C600 1.368 . S
H585 C593 0.950 . S
H586 C591 0.950 . S
H587 C592 0.949 . S
H588 C594 0.950 . S
H589 C595 0.950 . S
H590 C596 0.949 . S
C591 H586 0.950 . S
C591 C593 1.327 . S
C591 C597 1.429 . S
C592 C584 1.574 . S
C592 H587 0.949 . S
C592 C598 1.368 . S
C593 C577 1.349 . S
C593 H585 0.950 . S
C593 C591 1.327 . S
C594 C582 1.349 . S
C594 H588 0.950 . S
C594 C595 1.327 . S
C595 H589 0.950 . S
C595 C594 1.327 . S
C595 C599 1.429 . S
C596 C579 1.574 . S
C596 H590 0.949 . S
C596 C600 1.368 . S
C597 C578 1.429 . S
C597 C591 1.429 . S
C597 C598 1.523 . S
C598 C579 1.368 . S
C598 C592 1.368 . S
C598 C597 1.523 . S
C599 C583 1.429 . S
C599 C595 1.429 . S
C599 C600 1.523 . S
C600 C584 1.368 . S
C600 C596 1.368 . S
C600 C599 1.523 . S
H601 C576 0.950 . S
H602 C578 0.950 . S
H603 C579 0.949 . S
H604 C581 0.950 . S
H605 C583 0.950 . S
C606 C607 1.349 . S
C606 C608 1.327 . S
C606 H631 0.950 . S
C607 C606 1.349 . S
C607 C623 1.349 . S
C608 C606 1.327 . S
C608 C627 1.429 . S
C608 H632 0.950 . S
C609 C626 1.574 . S
C609 C628 1.368 . S
C609 H633 0.949 . S
H610 C614 0.949 . S
C611 C612 1.349 . S
C611 C613 1.327 . S
C611 H634 0.950 . S
C612 C611 1.349 . S
C612 C624 1.349 . S
C613 C611 1.327 . S
C613 C629 1.429 . S
C613 H635 0.950 . S
C614 H610 0.949 . S
C614 C622 1.574 . S
C614 C630 1.368 . S
H615 C623 0.950 . S
H616 C621 0.950 . S
H617 C622 0.949 . S
H618 C624 0.950 . S
H619 C625 0.950 . S
H620 C626 0.949 . S
C621 H616 0.950 . S
C621 C623 1.327 . S
C621 C627 1.429 . S
C622 C614 1.574 . S
C622 H617 0.949 . S
C622 C628 1.368 . S
C623 C607 1.349 . S
C623 H615 0.950 . S
C623 C621 1.327 . S
C624 C612 1.349 . S
C624 H618 0.950 . S
C624 C625 1.327 . S
C625 H619 0.950 . S
C625 C624 1.327 . S
C625 C629 1.429 . S
C626 C609 1.574 . S
C626 H620 0.949 . S
C626 C630 1.368 . S
C627 C608 1.429 . S
C627 C621 1.429 . S
C627 C628 1.523 . S
C628 C609 1.368 . S
C628 C622 1.368 . S
C628 C627 1.523 . S
C629 C613 1.429 . S
C629 C625 1.429 . S
C629 C630 1.523 . S
C630 C614 1.368 . S
C630 C626 1.368 . S
C630 C629 1.523 . S
H631 C606 0.950 . S
H632 C608 0.950 . S
H633 C609 0.949 . S
H634 C611 0.950 . S
H635 C613 0.950 . S
C636 C637 1.349 . S
C636 C638 1.327 . S
C636 H661 0.950 . S
C637 C636 1.349 . S
C637 C653 1.349 . S
C638 C636 1.327 . S
C638 C657 1.429 . S
C638 H662 0.950 . S
C639 C656 1.574 . S
C639 C658 1.368 . S
C639 H663 0.949 . S
H640 C644 0.949 . S
C641 C642 1.349 . S
C641 C643 1.327 . S
C641 H664 0.950 . S
C642 C641 1.349 . S
C642 C654 1.349 . S
C643 C641 1.327 . S
C643 C659 1.429 . S
C643 H665 0.950 . S
C644 H640 0.949 . S
C644 C652 1.574 . S
C644 C660 1.368 . S
H645 C653 0.950 . S
H646 C651 0.950 . S
H647 C652 0.949 . S
H648 C654 0.950 1_554 S
H649 C655 0.950 . S
H650 C656 0.949 . S
C651 H646 0.950 . S
C651 C653 1.327 . S
C651 C657 1.429 . S
C652 C644 1.574 . S
C652 H647 0.949 . S
C652 C658 1.368 . S
C653 C637 1.349 . S
C653 H645 0.950 . S
C653 C651 1.327 . S
C654 C642 1.349 . S
C654 H648 0.950 1_556 S
C654 C655 1.327 . S
C655 H649 0.950 . S
C655 C654 1.327 . S
C655 C659 1.429 . S
C656 C639 1.574 . S
C656 H650 0.949 . S
C656 C660 1.368 . S
C657 C638 1.429 . S
C657 C651 1.429 . S
C657 C658 1.523 . S
C658 C639 1.368 . S
C658 C652 1.368 . S
C658 C657 1.523 . S
C659 C643 1.429 . S
C659 C655 1.429 . S
C659 C660 1.523 . S
C660 C644 1.368 . S
C660 C656 1.368 . S
C660 C659 1.523 . S
H661 C636 0.950 . S
H662 C638 0.950 . S
H663 C639 0.949 . S
H664 C641 0.950 . S
H665 C643 0.950 . S
C666 C667 1.349 . S
C666 C668 1.327 . S
C666 H691 0.950 . S
C667 C666 1.349 . S
C667 C683 1.349 . S
C668 C666 1.327 . S
C668 C687 1.429 . S
C668 H692 0.950 . S
C669 C686 1.574 . S
C669 C688 1.368 . S
C669 H693 0.949 . S
H670 C674 0.949 . S
C671 C672 1.349 . S
C671 C673 1.327 . S
C671 H694 0.950 . S
C672 C671 1.349 . S
C672 C684 1.349 . S
C673 C671 1.327 . S
C673 C689 1.429 . S
C673 H695 0.950 . S
C674 H670 0.949 . S
C674 C682 1.574 . S
C674 C690 1.368 . S
H675 C683 0.950 . S
H676 C681 0.950 . S
H677 C682 0.949 . S
H678 C684 0.950 . S
H679 C685 0.950 . S
H680 C686 0.949 . S
C681 H676 0.950 . S
C681 C683 1.327 . S
C681 C687 1.429 . S
C682 C674 1.574 . S
C682 H677 0.949 . S
C682 C688 1.368 . S
C683 C667 1.349 . S
C683 H675 0.950 . S
C683 C681 1.327 . S
C684 C672 1.349 . S
C684 H678 0.950 . S
C684 C685 1.327 . S
C685 H679 0.950 . S
C685 C684 1.327 . S
C685 C689 1.429 . S
C686 C669 1.574 . S
C686 H680 0.949 . S
C686 C690 1.368 . S
C687 C668 1.429 . S
C687 C681 1.429 . S
C687 C688 1.523 . S
C688 C669 1.368 . S
C688 C682 1.368 . S
C688 C687 1.523 . S
C689 C673 1.429 . S
C689 C685 1.429 . S
C689 C690 1.523 . S
C690 C674 1.368 . S
C690 C686 1.368 . S
C690 C689 1.523 . S
H691 C666 0.950 . S
H692 C668 0.950 . S
H693 C669 0.949 . S
H694 C671 0.950 . S
H695 C673 0.950 . S
C696 C697 1.349 . S
C696 C698 1.327 . S
C696 H721 0.950 . S
C697 C696 1.349 . S
C697 C713 1.349 . S
C698 C696 1.327 . S
C698 C717 1.429 . S
C698 H722 0.950 . S
C699 C716 1.574 . S
C699 C718 1.368 . S
C699 H723 0.949 . S
H700 C704 0.949 . S
C701 C702 1.349 . S
C701 C703 1.327 . S
C701 H724 0.950 1_554 S
C702 C701 1.349 . S
C702 C714 1.349 . S
C703 C701 1.327 . S
C703 C719 1.429 . S
C703 H725 0.950 . S
C704 H700 0.949 . S
C704 C712 1.574 . S
C704 C720 1.368 . S
H705 C713 0.950 . S
H706 C711 0.950 . S
H707 C712 0.949 . S
H708 C714 0.950 . S
H709 C715 0.950 . S
H710 C716 0.949 . S
C711 H706 0.950 . S
C711 C713 1.327 . S
C711 C717 1.429 . S
C712 C704 1.574 . S
C712 H707 0.949 . S
C712 C718 1.368 . S
C713 C697 1.349 . S
C713 H705 0.950 . S
C713 C711 1.327 . S
C714 C702 1.349 . S
C714 H708 0.950 . S
C714 C715 1.327 . S
C715 H709 0.950 . S
C715 C714 1.327 . S
C715 C719 1.429 . S
C716 C699 1.574 . S
C716 H710 0.949 . S
C716 C720 1.368 . S
C717 C698 1.429 . S
C717 C711 1.429 . S
C717 C718 1.523 . S
C718 C699 1.368 . S
C718 C712 1.368 . S
C718 C717 1.523 . S
C719 C703 1.429 . S
C719 C715 1.429 . S
C719 C720 1.523 . S
C720 C704 1.368 . S
C720 C716 1.368 . S
C720 C719 1.523 . S
H721 C696 0.950 . S
H722 C698 0.950 . S
H723 C699 0.949 . S
H724 C701 0.950 1_556 S
H725 C703 0.950 . S
C726 C727 1.349 . S
C726 C728 1.327 . S
C726 H751 0.950 . S
C727 C726 1.349 . S
C727 C743 1.349 . S
C728 C726 1.327 . S
C728 C747 1.429 . S
C728 H752 0.950 . S
C729 C746 1.574 . S
C729 C748 1.368 . S
C729 H753 0.949 . S
H730 C734 0.949 . S
C731 C732 1.349 . S
C731 C733 1.327 . S
C731 H754 0.950 . S
C732 C731 1.349 . S
C732 C744 1.349 . S
C733 C731 1.327 . S
C733 C749 1.429 . S
C733 H755 0.950 . S
C734 H730 0.949 . S
C734 C742 1.574 . S
C734 C750 1.368 . S
H735 C743 0.950 . S
H736 C741 0.950 . S
H737 C742 0.949 . S
H738 C744 0.950 . S
H739 C745 0.950 . S
H740 C746 0.949 . S
C741 H736 0.950 . S
C741 C743 1.327 . S
C741 C747 1.429 . S
C742 C734 1.574 . S
C742 H737 0.949 . S
C742 C748 1.368 . S
C743 C727 1.349 . S
C743 H735 0.950 . S
C743 C741 1.327 . S
C744 C732 1.349 . S
C744 H738 0.950 . S
C744 C745 1.327 . S
C745 H739 0.950 . S
C745 C744 1.327 . S
C745 C749 1.429 . S
C746 C729 1.574 . S
C746 H740 0.949 . S
C746 C750 1.368 . S
C747 C728 1.429 . S
C747 C741 1.429 . S
C747 C748 1.523 . S
C748 C729 1.368 . S
C748 C742 1.368 . S
C748 C747 1.523 . S
C749 C733 1.429 . S
C749 C745 1.429 . S
C749 C750 1.523 . S
C750 C734 1.368 . S
C750 C746 1.368 . S
C750 C749 1.523 . S
H751 C726 0.950 . S
H752 C728 0.950 . S
H753 C729 0.949 . S
H754 C731 0.950 . S
H755 C733 0.950 . S
C756 C757 1.349 . S
C756 C758 1.327 . S
C756 H781 0.950 . S
C757 C756 1.349 . S
C757 C773 1.349 . S
C758 C756 1.327 . S
C758 C777 1.429 . S
C758 H782 0.950 . S
C759 C776 1.574 . S
C759 C778 1.368 . S
C759 H783 0.949 . S
H760 C764 0.949 . S
C761 C762 1.349 . S
C761 C763 1.327 . S
C761 H784 0.950 1_556 S
C762 C761 1.349 . S
C762 C774 1.349 . S
C763 C761 1.327 . S
C763 C779 1.429 . S
C763 H785 0.950 . S
C764 H760 0.949 . S
C764 C772 1.574 . S
C764 C780 1.368 . S
H765 C773 0.950 . S
H766 C771 0.950 . S
H767 C772 0.949 . S
H768 C774 0.950 . S
H769 C775 0.950 . S
H770 C776 0.949 . S
C771 H766 0.950 . S
C771 C773 1.327 . S
C771 C777 1.429 . S
C772 C764 1.574 . S
C772 H767 0.949 . S
C772 C778 1.368 . S
C773 C757 1.349 . S
C773 H765 0.950 . S
C773 C771 1.327 . S
C774 C762 1.349 . S
C774 H768 0.950 . S
C774 C775 1.327 . S
C775 H769 0.950 . S
C775 C774 1.327 . S
C775 C779 1.429 . S
C776 C759 1.574 . S
C776 H770 0.949 . S
C776 C780 1.368 . S
C777 C758 1.429 . S
C777 C771 1.429 . S
C777 C778 1.523 . S
C778 C759 1.368 . S
C778 C772 1.368 . S
C778 C777 1.523 . S
C779 C763 1.429 . S
C779 C775 1.429 . S
C779 C780 1.523 . S
C780 C764 1.368 . S
C780 C776 1.368 . S
C780 C779 1.523 . S
H781 C756 0.950 . S
H782 C758 0.950 . S
H783 C759 0.949 . S
H784 C761 0.950 1_554 S
H785 C763 0.950 . S
C786 C787 1.349 . S
C786 C788 1.327 . S
C786 H811 0.950 . S
C787 C786 1.349 . S
C787 C803 1.349 . S
C788 C786 1.327 . S
C788 C807 1.429 . S
C788 H812 0.950 . S
C789 C806 1.574 . S
C789 C808 1.368 . S
C789 H813 0.949 . S
H790 C794 0.949 . S
C791 C792 1.349 . S
C791 C793 1.327 . S
C791 H814 0.950 . S
C792 C791 1.349 . S
C792 C804 1.349 . S
C793 C791 1.327 . S
C793 C809 1.429 . S
C793 H815 0.950 . S
C794 H790 0.949 . S
C794 C802 1.574 . S
C794 C810 1.368 . S
H795 C803 0.950 . S
H796 C801 0.950 . S
H797 C802 0.949 . S
H798 C804 0.950 . S
H799 C805 0.950 . S
H800 C806 0.949 . S
C801 H796 0.950 . S
C801 C803 1.327 . S
C801 C807 1.429 . S
C802 C794 1.574 . S
C802 H797 0.949 . S
C802 C808 1.368 . S
C803 C787 1.349 . S
C803 H795 0.950 . S
C803 C801 1.327 . S
C804 C792 1.349 . S
C804 H798 0.950 . S
C804 C805 1.327 . S
C805 H799 0.950 . S
C805 C804 1.327 . S
C805 C809 1.429 . S
C806 C789 1.574 . S
C806 H800 0.949 . S
C806 C810 1.368 . S
C807 C788 1.429 . S
C807 C801 1.429 . S
C807 C808 1.523 . S
C808 C789 1.368 . S
C808 C802 1.368 . S
C808 C807 1.523 . S
C809 C793 1.429 . S
C809 C805 1.429 . S
C809 C810 1.523 . S
C810 C794 1.368 . S
C810 C806 1.368 . S
C810 C809 1.523 . S
H811 C786 0.950 . S
H812 C788 0.950 . S
H813 C789 0.949 . S
H814 C791 0.950 . S
H815 C793 0.950 . S
C816 C817 1.349 . S
C816 C818 1.327 . S
C816 H841 0.950 . S
C817 C816 1.349 . S
C817 C833 1.349 . S
C818 C816 1.327 . S
C818 C837 1.429 . S
C818 H842 0.950 . S
C819 C836 1.574 . S
C819 C838 1.368 . S
C819 H843 0.949 . S
H820 C824 0.949 . S
C821 C822 1.349 . S
C821 C823 1.327 . S
C821 H844 0.950 . S
C822 C821 1.349 . S
C822 C834 1.349 . S
C823 C821 1.327 . S
C823 C839 1.429 . S
C823 H845 0.950 . S
C824 H820 0.949 . S
C824 C832 1.574 . S
C824 C840 1.368 . S
H825 C833 0.950 . S
H826 C831 0.950 . S
H827 C832 0.949 . S
H828 C834 0.950 1_655 S
H829 C835 0.955 . S
H830 C836 0.949 . S
C831 H826 0.950 . S
C831 C833 1.327 . S
C831 C837 1.429 . S
C832 C824 1.574 . S
C832 H827 0.949 . S
C832 C838 1.368 . S
C833 C817 1.349 . S
C833 H825 0.950 . S
C833 C831 1.327 . S
C834 C822 1.349 . S
C834 H828 0.950 1_455 S
C834 C835 1.327 . S
C835 H829 0.955 . S
C835 C834 1.327 . S
C835 C839 1.429 . S
C836 C819 1.574 . S
C836 H830 0.949 . S
C836 C840 1.368 . S
C837 C818 1.429 . S
C837 C831 1.429 . S
C837 C838 1.523 . S
C838 C819 1.368 . S
C838 C832 1.368 . S
C838 C837 1.523 . S
C839 C823 1.429 . S
C839 C835 1.429 . S
C839 C840 1.523 . S
C840 C824 1.368 . S
C840 C836 1.368 . S
C840 C839 1.523 . S
H841 C816 0.950 . S
H842 C818 0.950 . S
H843 C819 0.949 . S
H844 C821 0.950 . S
H845 C823 0.950 . S
C846 C847 1.349 . S
C846 C848 1.327 . S
C846 H871 0.950 . S
C847 C846 1.349 . S
C847 C863 1.349 . S
C848 C846 1.327 . S
C848 C867 1.429 . S
C848 H872 0.950 . S
C849 C866 1.574 . S
C849 C868 1.368 . S
C849 H873 0.949 . S
H850 C854 0.949 . S
C851 C852 1.349 . S
C851 C853 1.327 . S
C851 H874 0.950 . S
C852 C851 1.349 . S
C852 C864 1.349 . S
C853 C851 1.327 . S
C853 C869 1.429 . S
C853 H875 0.950 . S
C854 H850 0.949 . S
C854 C862 1.574 . S
C854 C870 1.368 . S
H855 C863 0.950 . S
H856 C861 0.950 . S
H857 C862 0.949 . S
H858 C864 0.950 . S
H859 C865 0.950 . S
H860 C866 0.949 . S
C861 H856 0.950 . S
C861 C863 1.327 . S
C861 C867 1.429 . S
C862 C854 1.574 . S
C862 H857 0.949 . S
C862 C868 1.368 . S
C863 C847 1.349 . S
C863 H855 0.950 . S
C863 C861 1.327 . S
C864 C852 1.349 . S
C864 H858 0.950 . S
C864 C865 1.327 . S
C865 H859 0.950 . S
C865 C864 1.327 . S
C865 C869 1.429 . S
C866 C849 1.574 . S
C866 H860 0.949 . S
C866 C870 1.368 . S
C867 C848 1.429 . S
C867 C861 1.429 . S
C867 C868 1.523 . S
C868 C849 1.368 . S
C868 C862 1.368 . S
C868 C867 1.523 . S
C869 C853 1.429 . S
C869 C865 1.429 . S
C869 C870 1.523 . S
C870 C854 1.368 . S
C870 C866 1.368 . S
C870 C869 1.523 . S
H871 C846 0.950 . S
H872 C848 0.950 . S
H873 C849 0.949 . S
H874 C851 0.950 . S
H875 C853 0.950 . S
C157 C5 1.605 . S
C162 C88 1.567 . S
C187 C14 1.466 . S
C192 C110 1.398 . S
C222 C129 1.197 . S
C217 C25 1.413 . S
C247 C34 1.728 . S
C252 C150 1.444 . S
C282 C107 1.722 . S
C277 C7 1.779 . S
C312 C85 1.624 . S
C307 C13 1.678 . S
C342 C152 1.260 . S
C337 C23 1.330 . S
C372 C131 1.347 . S
C367 C31 1.405 . S
C397 C4 1.728 . S
C402 C149 1.665 . S
C432 C108 1.307 . S
C427 C22 1.568 . S
C457 C32 1.603 . S
C462 C90 1.401 . S
C487 C16 1.464 . S
C492 C128 1.428 . S
C522 C86 1.550 . S
C517 C41 1.605 . S
C547 C50 1.305 . S
C552 C106 1.259 . S
C577 C61 1.479 . S
C582 C132 1.263 . S
C607 C67 1.650 . S
C612 C153 1.369 . S
C637 C40 1.731 . S
C642 C109 1.685 . S
C672 C89 1.669 . S
C667 C52 1.739 . S
C702 C148 1.188 . S
C697 C59 1.241 . S
C732 C127 1.437 . S
C727 C70 1.492 . S
C757 C43 1.535 . S
C762 C151 1.487 . S
C792 C111 1.260 . S
C787 C58 1.489 . S
C822 C87 1.235 . S
C817 C68 1.419 . S
C847 C49 1.411 . S
C852 C130 1.374 . S
