# Generated by pormake.
# Topology dag, (6,3)-cn, num edge types: 1
# Building blocks:
#     Node 0, Type 0, BuildingBlock: OJICUG_clean_sbu_0, # of connection points: 6
#     Node 1, Type 0, BuildingBlock: OJICUG_clean_sbu_0, # of connection points: 6
#     Node 2, Type 0, BuildingBlock: OJICUG_clean_sbu_0, # of connection points: 6
#     Node 3, Type 0, BuildingBlock: OJICUG_clean_sbu_0, # of connection points: 6
#     Node 4, Type 1, BuildingBlock: PAMTOO_clean_linker_0, # of connection points: 3
#     Node 5, Type 1, BuildingBlock: PAMTOO_clean_linker_0, # of connection points: 3
#     Node 6, Type 1, BuildingBlock: PAMTOO_clean_linker_0, # of connection points: 3
#     Node 7, Type 1, BuildingBlock: PAMTOO_clean_linker_0, # of connection points: 3
#     Node 8, Type 1, BuildingBlock: PAMTOO_clean_linker_0, # of connection points: 3
#     Node 9, Type 1, BuildingBlock: PAMTOO_clean_linker_0, # of connection points: 3
#     Node 10, Type 1, BuildingBlock: PAMTOO_clean_linker_0, # of connection points: 3
#     Node 11, Type 1, BuildingBlock: PAMTOO_clean_linker_0, # of connection points: 3
#     Edge 12, Type (0, 1), BuildingBlock: MIFKUJ_clean_linker_0, # of connection points: 2
#     Edge 13, Type (0, 1), BuildingBlock: MIFKUJ_clean_linker_0, # of connection points: 2
#     Edge 14, Type (0, 1), BuildingBlock: MIFKUJ_clean_linker_0, # of connection points: 2
#     Edge 15, Type (0, 1), BuildingBlock: MIFKUJ_clean_linker_0, # of connection points: 2
#     Edge 16, Type (0, 1), BuildingBlock: MIFKUJ_clean_linker_0, # of connection points: 2
#     Edge 17, Type (0, 1), BuildingBlock: MIFKUJ_clean_linker_0, # of connection points: 2
#     Edge 18, Type (0, 1), BuildingBlock: MIFKUJ_clean_linker_0, # of connection points: 2
#     Edge 19, Type (0, 1), BuildingBlock: MIFKUJ_clean_linker_0, # of connection points: 2
#     Edge 20, Type (0, 1), BuildingBlock: MIFKUJ_clean_linker_0, # of connection points: 2
#     Edge 21, Type (0, 1), BuildingBlock: MIFKUJ_clean_linker_0, # of connection points: 2
#     Edge 22, Type (0, 1), BuildingBlock: MIFKUJ_clean_linker_0, # of connection points: 2
#     Edge 23, Type (0, 1), BuildingBlock: MIFKUJ_clean_linker_0, # of connection points: 2
#     Edge 24, Type (0, 1), BuildingBlock: MIFKUJ_clean_linker_0, # of connection points: 2
#     Edge 25, Type (0, 1), BuildingBlock: MIFKUJ_clean_linker_0, # of connection points: 2
#     Edge 26, Type (0, 1), BuildingBlock: MIFKUJ_clean_linker_0, # of connection points: 2
#     Edge 27, Type (0, 1), BuildingBlock: MIFKUJ_clean_linker_0, # of connection points: 2
#     Edge 28, Type (0, 1), BuildingBlock: MIFKUJ_clean_linker_0, # of connection points: 2
#     Edge 29, Type (0, 1), BuildingBlock: MIFKUJ_clean_linker_0, # of connection points: 2
#     Edge 30, Type (0, 1), BuildingBlock: MIFKUJ_clean_linker_0, # of connection points: 2
#     Edge 31, Type (0, 1), BuildingBlock: MIFKUJ_clean_linker_0, # of connection points: 2
#     Edge 32, Type (0, 1), BuildingBlock: MIFKUJ_clean_linker_0, # of connection points: 2
#     Edge 33, Type (0, 1), BuildingBlock: MIFKUJ_clean_linker_0, # of connection points: 2
#     Edge 34, Type (0, 1), BuildingBlock: MIFKUJ_clean_linker_0, # of connection points: 2
#     Edge 35, Type (0, 1), BuildingBlock: MIFKUJ_clean_linker_0, # of connection points: 2
# Relax obj value: 0.097
# Max RMSD: 0.113
# Mean RMSD: 0.089
data_MOF--net-dag--node1-OJICUG_clean_sbu_0--node2-PAMTOO_clean_linker_0--edge1-MIFKUJ_clean_linker_0
_symmetry_space_group_name_H-M    P1
_symmetry_Int_Tables_number       1
_symmetry_cell_setting            triclinic
loop_
_symmetry_equiv_pos_as_xyz
'x, y, z'
_cell_length_a     48.295418
_cell_length_b     49.641031
_cell_length_c     50.582566
_cell_angle_alpha  89.959749
_cell_angle_beta   94.296128
_cell_angle_gamma 89.972701
loop_
_atom_site_label
_atom_site_type_symbol
_atom_site_fract_x
_atom_site_fract_y
_atom_site_fract_z
_atom_type_partial_charge
Sc0 Sc 0.1244 0.87653 0.00033 0.0
Sc1 Sc 0.13518 0.80964 0.98228 0.0
Sc2 Sc 0.19218 0.8512 0.00245 0.0
O3 O 0.15069 0.84568 0.99507 0.0
C4 C 0.17578 0.908 0.97861 0.0
C5 C 0.09895 0.85239 0.94655 0.0
C6 C 0.18839 0.81589 0.94941 0.0
C7 C 0.08891 0.82641 0.01907 0.0
C8 C 0.16583 0.88076 0.05129 0.0
C9 C 0.18461 0.79183 0.02455 0.0
O10 O 0.15174 0.90709 0.98708 0.0
O11 O 0.10562 0.82833 0.95329 0.0
O12 O 0.20164 0.83074 0.96653 0.0
O13 O 0.09242 0.85127 0.01444 0.0
O14 O 0.1866 0.87245 0.03935 0.0
O15 O 0.16282 0.78695 0.00958 0.0
O16 O 0.14121 0.88153 0.0404 0.0
O17 O 0.10495 0.80824 0.01141 0.0
O18 O 0.19683 0.81452 0.02498 0.0
O19 O 0.10646 0.87285 0.96044 0.0
O20 O 0.19246 0.88824 0.98022 0.0
O21 O 0.16388 0.80748 0.95201 0.0
Sc22 Sc 0.68656 0.65058 0.50046 0.0
Sc23 Sc 0.63508 0.69832 0.47928 0.0
Sc24 Sc 0.61568 0.63412 0.50038 0.0
O25 O 0.6458 0.66103 0.49342 0.0
C26 C 0.66018 0.59622 0.47584 0.0
C27 C 0.68649 0.68274 0.44592 0.0
C28 C 0.59037 0.66168 0.44675 0.0
C29 C 0.68647 0.7118 0.52034 0.0
C30 C 0.65999 0.62401 0.54985 0.0
C31 C 0.58998 0.68857 0.52126 0.0
O32 O 0.68082 0.611 0.48319 0.0
O33 O 0.66526 0.69672 0.4503 0.0
O34 O 0.59175 0.64298 0.46394 0.0
O35 O 0.69745 0.68862 0.51887 0.0
O36 O 0.63612 0.62185 0.53763 0.0
O37 O 0.60346 0.70383 0.50665 0.0
O38 O 0.68046 0.63496 0.53957 0.0
O39 O 0.66364 0.71807 0.5077 0.0
O40 O 0.59276 0.66309 0.52158 0.0
O41 O 0.69656 0.66487 0.46195 0.0
O42 O 0.63529 0.60247 0.4797 0.0
O43 O 0.60516 0.68285 0.44912 0.0
Sc44 Sc 0.86649 0.19069 0.05542 0.0
Sc45 Sc 0.81062 0.14643 0.03821 0.0
Sc46 Sc 0.87956 0.12411 0.0361 0.0
O47 O 0.85221 0.15376 0.0433 0.0
C48 C 0.91033 0.17529 0.01384 0.0
C49 C 0.81555 0.2059 0.01441 0.0
C50 C 0.8335 0.11738 0.9879 0.0
C51 C 0.81468 0.18222 0.09051 0.0
C52 C 0.90743 0.15079 0.08908 0.0
C53 C 0.83274 0.09075 0.06328 0.0
O54 O 0.89771 0.19253 0.02708 0.0
O55 O 0.80278 0.18382 0.0173 0.0
O56 O 0.8581 0.11461 0.99843 0.0
O57 O 0.8372 0.19365 0.08535 0.0
O58 O 0.90358 0.13115 0.07305 0.0
O59 O 0.81354 0.10801 0.05847 0.0
O60 O 0.89564 0.17357 0.08531 0.0
O61 O 0.80282 0.16444 0.07557 0.0
O62 O 0.85713 0.09402 0.0561 0.0
O63 O 0.8389 0.21119 0.02662 0.0
O64 O 0.90573 0.15019 0.01525 0.0
O65 O 0.81405 0.1279 3e-05 0.0
Sc66 Sc 0.37765 0.36994 0.5339 0.0
Sc67 Sc 0.30806 0.34928 0.53636 0.0
Sc68 Sc 0.36298 0.30472 0.55589 0.0
O69 O 0.34954 0.3413 0.542 0.0
C70 C 0.40654 0.31732 0.51293 0.0
C71 C 0.33105 0.37783 0.486 0.0
C72 C 0.3117 0.28839 0.51581 0.0
C73 C 0.33182 0.4049 0.56052 0.0
C74 C 0.40594 0.34394 0.58719 0.0
C75 C 0.31135 0.31603 0.59036 0.0
O76 O 0.40172 0.34249 0.51206 0.0
O77 O 0.31172 0.36615 0.49736 0.0
O78 O 0.33519 0.28343 0.52791 0.0
O79 O 0.35667 0.40044 0.55501 0.0
O80 O 0.39201 0.3222 0.58555 0.0
O81 O 0.29983 0.33355 0.57481 0.0
O82 O 0.40345 0.36238 0.56972 0.0
O83 O 0.31201 0.38865 0.55442 0.0
O84 O 0.33344 0.30373 0.58543 0.0
O85 O 0.35535 0.38089 0.49708 0.0
O86 O 0.39461 0.3014 0.52816 0.0
O87 O 0.29931 0.31087 0.51761 0.0
H88 H 0.12429 0.04479 0.24757 0.0
H89 H 0.13398 0.10763 0.30605 0.0
H90 H 0.19203 0.04182 0.3078 0.0
H91 H 0.18033 0.06083 0.36201 0.0
C92 C 0.17286 0.08142 0.35644 0.0
O93 O 0.17862 0.08688 0.33071 0.0
H94 H 0.15005 0.0821 0.35842 0.0
C95 C 0.13531 0.05332 0.26508 0.0
C96 C 0.15884 0.04011 0.27672 0.0
C97 C 0.12625 0.07774 0.2753 0.0
C98 C 0.14059 0.08869 0.29794 0.0
C99 C 0.16421 0.07564 0.30966 0.0
C100 C 0.17352 0.05154 0.29889 0.0
H101 H 0.35215 0.67781 0.62013 0.0
H102 H 0.29422 0.67711 0.68061 0.0
H103 H 0.34048 0.74881 0.66698 0.0
H104 H 0.34198 0.73234 0.72046 0.0
C105 C 0.32095 0.72339 0.72158 0.0
O106 O 0.30619 0.72591 0.69726 0.0
H107 H 0.32347 0.70172 0.72688 0.0
C108 C 0.34136 0.68844 0.635 0.0
C109 C 0.34841 0.7153 0.64124 0.0
C110 C 0.3217 0.67451 0.64887 0.0
C111 C 0.3086 0.68783 0.66896 0.0
C112 C 0.31572 0.71447 0.67554 0.0
C113 C 0.33503 0.72832 0.66135 0.0
H114 H 0.84227 0.83768 0.1396 0.0
H115 H 0.78306 0.81697 0.19547 0.0
H116 H 0.83952 0.75682 0.17027 0.0
H117 H 0.78731 0.73325 0.17979 0.0
C118 C 0.77893 0.74881 0.19285 0.0
O119 O 0.79964 0.7667 0.20097 0.0
H120 H 0.76164 0.75947 0.18137 0.0
C121 C 0.83297 0.8226 0.15167 0.0
C122 C 0.84321 0.79614 0.15238 0.0
C123 C 0.81138 0.83022 0.16704 0.0
C124 C 0.79967 0.81122 0.18335 0.0
C125 C 0.80994 0.78477 0.18441 0.0
C126 C 0.83173 0.7773 0.16912 0.0
H127 H 0.6176 0.43889 0.74579 0.0
H128 H 0.64763 0.37451 0.7969 0.0
H129 H 0.70196 0.43988 0.78053 0.0
H130 H 0.7331 0.38811 0.78989 0.0
C131 C 0.71565 0.37703 0.79809 0.0
O132 O 0.69711 0.39528 0.8073 0.0
H133 H 0.70555 0.36449 0.78183 0.0
C134 C 0.63424 0.4301 0.75857 0.0
C135 C 0.66044 0.44255 0.76117 0.0
C136 C 0.62957 0.4055 0.77104 0.0
C137 C 0.65087 0.39375 0.78747 0.0
C138 C 0.67667 0.40661 0.79134 0.0
C139 C 0.6815 0.43087 0.77818 0.0
H140 H 0.65199 0.31371 0.42271 0.0
H141 H 0.65955 0.25056 0.36594 0.0
H142 H 0.70743 0.32278 0.36045 0.0
H143 H 0.68074 0.3047 0.31143 0.0
C144 C 0.68103 0.2825 0.31453 0.0
O145 O 0.6949 0.27643 0.33861 0.0
H146 H 0.65911 0.27547 0.31426 0.0
C147 C 0.66232 0.30555 0.40627 0.0
C148 C 0.68085 0.3217 0.39313 0.0
C149 C 0.65451 0.27993 0.39667 0.0
C150 C 0.66619 0.26984 0.3742 0.0
C151 C 0.68543 0.2853 0.36145 0.0
C152 C 0.693 0.31094 0.37104 0.0
H153 H 0.1654 0.16625 0.91166 0.0
H154 H 0.16236 0.23992 0.86648 0.0
H155 H 0.22766 0.18275 0.85742 0.0
H156 H 0.24259 0.24278 0.86006 0.0
C157 C 0.22429 0.24997 0.84728 0.0
O158 O 0.20619 0.229 0.84145 0.0
H159 H 0.21374 0.26598 0.85819 0.0
C160 C 0.17446 0.17989 0.89794 0.0
C161 C 0.19855 0.17199 0.88611 0.0
C162 C 0.16105 0.2043 0.8911 0.0
C163 C 0.17225 0.22097 0.87217 0.0
C164 C 0.19632 0.21328 0.86033 0.0
C165 C 0.20936 0.18875 0.86709 0.0
H166 H 0.36353 0.56678 0.30565 0.0
H167 H 0.35652 0.61777 0.2367 0.0
H168 H 0.29655 0.55513 0.2456 0.0
H169 H 0.3078 0.56585 0.18808 0.0
C170 C 0.31622 0.58655 0.19123 0.0
O171 O 0.31076 0.59546 0.2161 0.0
H172 H 0.33902 0.58582 0.18923 0.0
C173 C 0.35261 0.57257 0.28698 0.0
C174 C 0.32883 0.55828 0.2775 0.0
C175 C 0.36291 0.59387 0.27236 0.0
C176 C 0.34912 0.60104 0.248 0.0
C177 C 0.32519 0.58709 0.23848 0.0
C178 C 0.31524 0.56558 0.25303 0.0
H179 H 0.87808 0.95723 0.79248 0.0
H180 H 0.86765 0.89558 0.73271 0.0
H181 H 0.80233 0.95277 0.74242 0.0
H182 H 0.78043 0.90053 0.73231 0.0
C183 C 0.79849 0.89057 0.72397 0.0
O184 O 0.81694 0.90992 0.71668 0.0
H185 H 0.80845 0.87725 0.7397 0.0
C186 C 0.86597 0.94806 0.77594 0.0
C187 C 0.83924 0.95784 0.76877 0.0
C188 C 0.87667 0.92582 0.76293 0.0
C189 C 0.86012 0.91324 0.74253 0.0
C190 C 0.83346 0.92314 0.73505 0.0
C191 C 0.82324 0.94573 0.74782 0.0
H192 H 0.2146 0.89758 0.0777 0.0
H193 H 0.2202 0.91894 0.12146 0.0
H194 H 0.13285 0.90778 0.13074 0.0
H195 H 0.127 0.88706 0.0871 0.0
H196 H 0.1471 0.95809 0.13981 0.0
H197 H 0.18386 0.87131 0.16683 0.0
H198 H 0.21525 0.83223 0.16547 0.0
H199 H 0.28564 0.88359 0.18358 0.0
H200 H 0.25467 0.92306 0.18469 0.0
H201 H 0.12941 0.99436 0.26679 0.0
H202 H 0.13914 0.95986 0.23431 0.0
H203 H 0.21872 0.99628 0.22433 0.0
H204 H 0.20908 0.0309 0.25711 0.0
H205 H 0.21307 0.93429 0.2163 0.0
H206 H 0.17566 0.0212 0.18652 0.0
H207 H 0.14366 0.05953 0.19003 0.0
H208 H 0.0738 0.00634 0.17771 0.0
H209 H 0.10548 0.9676 0.17451 0.0
C210 C 0.19669 0.89936 0.08925 0.0
C211 C 0.1703 0.89092 0.07879 0.0
C212 C 0.19994 0.91148 0.11429 0.0
C213 C 0.17692 0.91498 0.12937 0.0
C214 C 0.15086 0.90547 0.11938 0.0
C215 C 0.14756 0.89364 0.09439 0.0
C216 C 0.17915 0.93045 0.15452 0.0
C217 C 0.1614 0.95263 0.15653 0.0
C218 C 0.19834 0.92389 0.17616 0.0
C219 C 0.21697 0.90019 0.17555 0.0
C220 C 0.20605 0.87431 0.17029 0.0
C221 C 0.22376 0.85208 0.16961 0.0
C222 C 0.25243 0.85544 0.17436 0.0
C223 C 0.26343 0.88103 0.17987 0.0
C224 C 0.24581 0.90333 0.18054 0.0
C225 C 0.14945 0.99431 0.25848 0.0
C226 C 0.16839 0.01533 0.2641 0.0
C227 C 0.15503 0.97458 0.24004 0.0
C228 C 0.17949 0.97579 0.22678 0.0
C229 C 0.19981 0.995 0.23451 0.0
C230 C 0.19427 0.01475 0.25315 0.0
C231 C 0.18063 0.96123 0.20143 0.0
C232 C 0.19899 0.93958 0.19938 0.0
C233 C 0.16202 0.96814 0.17958 0.0
C234 C 0.14292 0.99151 0.18048 0.0
C235 C 0.15348 0.01767 0.18468 0.0
C236 C 0.1354 0.03947 0.18661 0.0
C237 C 0.1067 0.03537 0.18417 0.0
C238 C 0.09604 0.00948 0.17963 0.0
C239 C 0.11404 0.9876 0.17771 0.0
H240 H 0.09274 0.05226 0.18575 0.0
H241 H 0.26611 0.8382 0.17383 0.0
H242 H 0.57703 0.74215 0.52635 0.0
H243 H 0.54029 0.76152 0.55124 0.0
H244 H 0.5187 0.68201 0.57738 0.0
H245 H 0.55546 0.66261 0.55323 0.0
H246 H 0.48629 0.75456 0.54452 0.0
H247 H 0.49522 0.68193 0.63613 0.0
H248 H 0.53225 0.66067 0.6652 0.0
H249 H 0.58934 0.72251 0.6455 0.0
H250 H 0.55256 0.7444 0.61662 0.0
H251 H 0.3614 0.71263 0.58955 0.0
H252 H 0.40558 0.72418 0.57241 0.0
H253 H 0.43324 0.75949 0.64778 0.0
H254 H 0.38972 0.74633 0.6656 0.0
H255 H 0.46921 0.72597 0.63583 0.0
H256 H 0.42672 0.79783 0.58847 0.0
H257 H 0.39121 0.82267 0.56066 0.0
H258 H 0.40383 0.77038 0.49507 0.0
H259 H 0.43912 0.74493 0.52257 0.0
C260 C 0.56469 0.72882 0.5377 0.0
C261 C 0.5692 0.70078 0.53774 0.0
C262 C 0.54369 0.73995 0.55186 0.0
C263 C 0.52698 0.72327 0.56642 0.0
C264 C 0.53173 0.69537 0.56678 0.0
C265 C 0.5527 0.68426 0.55276 0.0
C266 C 0.50321 0.73434 0.5798 0.0
C267 C 0.48262 0.74868 0.56461 0.0
C268 C 0.49897 0.72765 0.60637 0.0
C269 C 0.52109 0.71478 0.62411 0.0
C270 C 0.5156 0.69114 0.63815 0.0
C271 C 0.53657 0.67893 0.65456 0.0
C272 C 0.56313 0.69021 0.65717 0.0
C273 C 0.56877 0.71376 0.64342 0.0
C274 C 0.54787 0.72605 0.627 0.0
C275 C 0.37672 0.7232 0.60238 0.0
C276 C 0.37217 0.72811 0.62906 0.0
C277 C 0.40189 0.73022 0.59242 0.0
C278 C 0.42283 0.74283 0.60876 0.0
C279 C 0.41744 0.74975 0.63479 0.0
C280 C 0.39238 0.7424 0.64489 0.0
C281 C 0.45141 0.74463 0.59994 0.0
C282 C 0.47301 0.73267 0.61602 0.0
C283 C 0.45677 0.75417 0.57445 0.0
C284 C 0.43559 0.76942 0.55766 0.0
C285 C 0.42182 0.79151 0.56817 0.0
C286 C 0.40174 0.80572 0.55244 0.0
C287 C 0.39526 0.7981 0.52612 0.0
C288 C 0.4089 0.77628 0.51546 0.0
C289 C 0.429 0.76199 0.53109 0.0
H290 H 0.3797 0.80913 0.51398 0.0
H291 H 0.57935 0.68071 0.66986 0.0
H292 H 0.78418 0.07575 0.0846 0.0
H293 H 0.77471 0.03326 0.10696 0.0
H294 H 0.85818 0.00646 0.09668 0.0
H295 H 0.8678 0.04843 0.07435 0.0
H296 H 0.82142 0.96832 0.08193 0.0
H297 H 0.84142 0.02615 0.15636 0.0
H298 H 0.83652 0.06647 0.18405 0.0
H299 H 0.75174 0.0455 0.19437 0.0
H300 H 0.75606 0.00518 0.16643 0.0
H301 H 0.83407 0.872 0.19518 0.0
H302 H 0.8299 0.91962 0.18265 0.0
H303 H 0.76587 0.89931 0.12188 0.0
H304 H 0.7702 0.85165 0.13438 0.0
H305 H 0.79055 0.96154 0.17315 0.0
H306 H 0.78763 0.92484 0.06492 0.0
H307 H 0.79967 0.88426 0.03998 0.0
H308 H 0.86221 0.86348 0.10139 0.0
H309 H 0.85082 0.90408 0.12651 0.0
C310 C 0.80053 0.06084 0.08715 0.0
C311 C 0.82672 0.06553 0.07753 0.0
C312 C 0.79511 0.03662 0.10003 0.0
C313 C 0.81576 0.01673 0.10348 0.0
C314 C 0.84191 0.02148 0.09411 0.0
C315 C 0.84737 0.04559 0.08138 0.0
C316 C 0.81017 0.99054 0.11613 0.0
C317 C 0.81442 0.96691 0.10178 0.0
C318 C 0.80164 0.98865 0.14224 0.0
C319 C 0.79895 0.01283 0.15904 0.0
C320 C 0.82165 0.03027 0.16433 0.0
C321 C 0.819 0.05309 0.18012 0.0
C322 C 0.7938 0.0586 0.19089 0.0
C323 C 0.77123 0.04123 0.18596 0.0
C324 C 0.77377 0.01838 0.17017 0.0
C325 C 0.8182 0.87799 0.18005 0.0
C326 C 0.80225 0.85847 0.16584 0.0
C327 C 0.81584 0.90513 0.17287 0.0
C328 C 0.79779 0.91289 0.15118 0.0
C329 C 0.77995 0.89366 0.13865 0.0
C330 C 0.7823 0.86654 0.14585 0.0
C331 C 0.80134 0.93953 0.13871 0.0
C332 C 0.79694 0.96311 0.1531 0.0
C333 C 0.81069 0.94148 0.11292 0.0
C334 C 0.81811 0.91732 0.0977 0.0
C335 C 0.80401 0.91165 0.07303 0.0
C336 C 0.81072 0.88864 0.05889 0.0
C337 C 0.83162 0.87126 0.06916 0.0
C338 C 0.84597 0.87692 0.09353 0.0
C339 C 0.83937 0.8999 0.10773 0.0
H340 H 0.83675 0.85343 0.05822 0.0
H341 H 0.79178 0.07628 0.20311 0.0
H342 H 0.45257 0.37477 0.58904 0.0
H343 H 0.48718 0.38076 0.62611 0.0
H344 H 0.43976 0.32924 0.67463 0.0
H345 H 0.40566 0.32207 0.63695 0.0
H346 H 0.48696 0.40248 0.67073 0.0
H347 H 0.48212 0.29861 0.72226 0.0
H348 H 0.47129 0.25125 0.71084 0.0
H349 H 0.49366 0.26495 0.63136 0.0
H350 H 0.50493 0.31227 0.64241 0.0
H351 H 0.57717 0.41952 0.78196 0.0
H352 H 0.53412 0.40329 0.75853 0.0
H353 H 0.5811 0.34489 0.71719 0.0
H354 H 0.6238 0.36017 0.74169 0.0
H355 H 0.53123 0.326 0.72102 0.0
H356 H 0.56995 0.40957 0.69296 0.0
H357 H 0.58733 0.45603 0.69928 0.0
H358 H 0.50736 0.48148 0.72156 0.0
H359 H 0.48958 0.43506 0.71565 0.0
C360 C 0.44951 0.36467 0.60759 0.0
C361 C 0.42646 0.34786 0.61006 0.0
C362 C 0.4693 0.36817 0.62884 0.0
C363 C 0.4663 0.35531 0.65321 0.0
C364 C 0.44292 0.33893 0.65591 0.0
C365 C 0.42338 0.33494 0.63441 0.0
C366 C 0.48776 0.35931 0.67556 0.0
C367 C 0.49645 0.3857 0.68178 0.0
C368 C 0.50054 0.33749 0.6899 0.0
C369 C 0.49402 0.30904 0.68309 0.0
C370 C 0.48477 0.29148 0.70237 0.0
C371 C 0.47856 0.26465 0.69596 0.0
C372 C 0.48168 0.25513 0.67036 0.0
C373 C 0.49113 0.27238 0.65115 0.0
C374 C 0.49741 0.29921 0.65746 0.0
C375 C 0.57798 0.40242 0.76874 0.0
C376 C 0.60358 0.391 0.76352 0.0
C377 C 0.5535 0.39331 0.75519 0.0
C378 C 0.55449 0.3734 0.73552 0.0
C379 C 0.57979 0.36032 0.73218 0.0
C380 C 0.60418 0.36901 0.74618 0.0
C381 C 0.53048 0.36906 0.71585 0.0
C382 C 0.52132 0.34271 0.7102 0.0
C383 C 0.5181 0.39079 0.70113 0.0
C384 C 0.52853 0.41882 0.70415 0.0
C385 C 0.55611 0.42507 0.69931 0.0
C386 C 0.56604 0.45137 0.70282 0.0
C387 C 0.54849 0.47165 0.71092 0.0
C388 C 0.52093 0.46572 0.71535 0.0
C389 C 0.51091 0.43942 0.71191 0.0
H390 H 0.55623 0.49197 0.71372 0.0
H391 H 0.47684 0.23436 0.66543 0.0
H392 H 0.70693 0.56506 0.48155 0.0
H393 H 0.71316 0.51969 0.46417 0.0
H394 H 0.63137 0.52338 0.42352 0.0
H395 H 0.62462 0.56819 0.44177 0.0
H396 H 0.63596 0.47898 0.4477 0.0
H397 H 0.69348 0.52588 0.39058 0.0
H398 H 0.7308 0.55649 0.37875 0.0
H399 H 0.79142 0.5065 0.42149 0.0
H400 H 0.7544 0.47577 0.43389 0.0
H401 H 0.68543 0.36496 0.35989 0.0
H402 H 0.68468 0.41268 0.37127 0.0
H403 H 0.68079 0.3923 0.45375 0.0
H404 H 0.683 0.34446 0.44287 0.0
H405 H 0.71849 0.44539 0.40507 0.0
H406 H 0.63013 0.43451 0.47671 0.0
H407 H 0.58665 0.40936 0.48112 0.0
H408 H 0.58105 0.39195 0.39777 0.0
H409 H 0.6244 0.41707 0.39284 0.0
C410 C 0.69043 0.55629 0.46863 0.0
C411 C 0.66522 0.57007 0.46315 0.0
C412 C 0.69406 0.5304 0.4586 0.0
C413 C 0.6728 0.5181 0.44239 0.0
C414 C 0.64802 0.53232 0.43612 0.0
C415 C 0.64419 0.55795 0.44654 0.0
C416 C 0.67545 0.48976 0.43349 0.0
C417 C 0.65407 0.47172 0.43841 0.0
C418 C 0.69878 0.48028 0.42087 0.0
C419 C 0.72112 0.49865 0.41337 0.0
C420 C 0.71474 0.52152 0.39763 0.0
C421 C 0.73585 0.53887 0.39079 0.0
C422 C 0.76346 0.53347 0.39941 0.0
C423 C 0.77002 0.51067 0.41484 0.0
C424 C 0.74898 0.49326 0.42176 0.0
C425 C 0.68532 0.37049 0.38058 0.0
C426 C 0.68422 0.35067 0.40044 0.0
C427 C 0.68461 0.39784 0.38699 0.0
C428 C 0.68231 0.40594 0.41327 0.0
C429 C 0.6822 0.38639 0.43328 0.0
C430 C 0.68338 0.35904 0.42697 0.0
C431 C 0.67919 0.43481 0.41971 0.0
C432 C 0.70051 0.45281 0.41446 0.0
C433 C 0.65537 0.44453 0.43125 0.0
C434 C 0.63068 0.42742 0.43449 0.0
C435 C 0.61971 0.42516 0.45936 0.0
C436 C 0.595 0.41105 0.46192 0.0
C437 C 0.58098 0.39925 0.4397 0.0
C438 C 0.59186 0.4012 0.41494 0.0
C439 C 0.61662 0.4152 0.41229 0.0
H440 H 0.56184 0.38837 0.44171 0.0
H441 H 0.77977 0.54694 0.3941 0.0
H442 H 0.94465 0.14388 0.98651 0.0
H443 H 0.98361 0.15803 0.96227 0.0
H444 H 0.96497 0.24131 0.97778 0.0
H445 H 0.92605 0.22722 0.00297 0.0
H446 H 0.99055 0.1861 0.92014 0.0
H447 H 0.02692 0.27578 0.9855 0.0
H448 H 0.02337 0.29286 0.03096 0.0
H449 H 0.01393 0.21202 0.05919 0.0
H450 H 0.01775 0.19449 0.01399 0.0
H451 H 0.11426 0.22711 0.86623 0.0
H452 H 0.069 0.23288 0.88413 0.0
H453 H 0.10227 0.20127 0.95943 0.0
H454 H 0.14782 0.19695 0.94222 0.0
H455 H 0.06601 0.23875 0.96776 0.0
H456 H 0.06902 0.16044 0.9112 0.0
H457 H 0.07548 0.13637 0.86945 0.0
H458 H 0.01049 0.18347 0.82949 0.0
H459 H 0.00387 0.208 0.87101 0.0
C460 C 0.94859 0.16526 0.9847 0.0
C461 C 0.93235 0.1844 0.997 0.0
C462 C 0.97087 0.17333 0.97065 0.0
C463 C 0.97741 0.20071 0.9684 0.0
C464 C 0.96054 0.22003 0.9796 0.0
C465 C 0.93827 0.21194 0.99394 0.0
C466 C 0.00289 0.20843 0.9556 0.0
C467 C 0.00688 0.19797 0.9304 0.0
C468 C 0.02436 0.22363 0.96907 0.0
C469 C 0.02223 0.23391 0.99634 0.0
C470 C 0.02412 0.26168 0.00144 0.0
C471 C 0.02207 0.27143 0.02715 0.0
C472 C 0.01831 0.25355 0.04793 0.0
C473 C 0.01672 0.22586 0.04307 0.0
C474 C 0.0188 0.21602 0.01741 0.0
C475 C 0.11216 0.22214 0.88683 0.0
C476 C 0.13458 0.2112 0.90269 0.0
C477 C 0.08619 0.22521 0.89696 0.0
C478 C 0.08211 0.21703 0.92297 0.0
C479 C 0.10486 0.20765 0.93928 0.0
C480 C 0.13084 0.20487 0.92929 0.0
C481 C 0.05391 0.21579 0.93265 0.0
C482 C 0.04937 0.22756 0.95718 0.0
C483 C 0.03228 0.20091 0.91903 0.0
C484 C 0.03623 0.18627 0.89407 0.0
C485 C 0.05628 0.16578 0.89345 0.0
C486 C 0.05995 0.15205 0.86985 0.0
C487 C 0.04349 0.15847 0.8468 0.0
C488 C 0.02327 0.17858 0.84734 0.0
C489 C 0.01955 0.1924 0.87089 0.0
H490 H 0.04635 0.14781 0.82855 0.0
H491 H 0.0167 0.26113 0.06781 0.0
H492 H 0.28174 0.37721 0.45488 0.0
H493 H 0.27176 0.39918 0.41181 0.0
H494 H 0.3564 0.42732 0.4139 0.0
H495 H 0.36669 0.40514 0.45625 0.0
H496 H 0.27252 0.4505 0.39992 0.0
H497 H 0.37936 0.43358 0.35496 0.0
H498 H 0.4142 0.39745 0.35316 0.0
H499 H 0.35204 0.33816 0.36643 0.0
H500 H 0.3167 0.37387 0.36791 0.0
H501 H 0.32113 0.55872 0.33017 0.0
H502 H 0.31034 0.52065 0.35804 0.0
H503 H 0.30239 0.46914 0.28919 0.0
H504 H 0.31375 0.50741 0.26111 0.0
H505 H 0.33581 0.44709 0.32712 0.0
H506 H 0.24543 0.48233 0.32276 0.0
H507 H 0.20844 0.51653 0.3231 0.0
H508 H 0.23287 0.53482 0.40447 0.0
H509 H 0.2703 0.50104 0.40453 0.0
C510 C 0.29832 0.38777 0.44598 0.0
C511 C 0.32502 0.3894 0.45912 0.0
C512 C 0.29256 0.40033 0.42137 0.0
C513 C 0.31342 0.41459 0.40941 0.0
C514 C 0.34011 0.4159 0.42236 0.0
C515 C 0.34591 0.40333 0.44678 0.0
C516 C 0.3072 0.43003 0.38451 0.0
C517 C 0.2861 0.44953 0.38381 0.0
C518 C 0.32428 0.42814 0.36302 0.0
C519 C 0.34536 0.40647 0.36163 0.0
C520 C 0.37304 0.41283 0.35727 0.0
C521 C 0.39291 0.39241 0.35637 0.0
C522 C 0.38535 0.36553 0.35972 0.0
C523 C 0.35788 0.359 0.3639 0.0
C524 C 0.33793 0.37933 0.36481 0.0
C525 C 0.31676 0.53936 0.32092 0.0
C526 C 0.3185 0.53594 0.29353 0.0
C527 C 0.31031 0.51765 0.33682 0.0
C528 C 0.30531 0.49206 0.32569 0.0
C529 C 0.30604 0.48875 0.29816 0.0
C530 C 0.31239 0.5106 0.28215 0.0
C531 C 0.3023 0.46859 0.34344 0.0
C532 C 0.3217 0.44758 0.34282 0.0
C533 C 0.28329 0.46876 0.36342 0.0
C534 C 0.26076 0.48915 0.36361 0.0
C535 C 0.24305 0.49376 0.34069 0.0
C536 C 0.22198 0.51307 0.34081 0.0
C537 C 0.21832 0.52785 0.36378 0.0
C538 C 0.23571 0.52333 0.38669 0.0
C539 C 0.25683 0.50406 0.38667 0.0
H540 H 0.20199 0.54279 0.36384 0.0
H541 H 0.40077 0.34977 0.35905 0.0
H542 H 0.09202 0.89891 0.91816 0.0
H543 H 0.0583 0.90793 0.88089 0.0
H544 H 0.03009 0.82555 0.88275 0.0
H545 H 0.06444 0.81612 0.91974 0.0
H546 H 0.02939 0.84388 0.8321 0.0
H547 H 0.99562 0.87384 0.91357 0.0
H548 H 0.99736 0.89801 0.95624 0.0
H549 H 0.0053 0.97335 0.91574 0.0
H550 H 0.00401 0.94958 0.87284 0.0
H551 H 0.89033 0.87352 0.77509 0.0
H552 H 0.93282 0.85765 0.79986 0.0
H553 H 0.96696 0.93786 0.79812 0.0
H554 H 0.92468 0.95375 0.77339 0.0
H555 H 0.96451 0.91862 0.84812 0.0
H556 H 0.99585 0.88696 0.76554 0.0
H557 H 0.9923 0.86133 0.72369 0.0
H558 H 0.98596 0.78748 0.76706 0.0
H559 H 0.98907 0.81271 0.80917 0.0
C560 C 0.07886 0.8826 0.9105 0.0
C561 C 0.08061 0.8569 0.92218 0.0
C562 C 0.0596 0.88779 0.88917 0.0
C563 C 0.04128 0.86756 0.87942 0.0
C564 C 0.04396 0.84148 0.89004 0.0
C565 C 0.06353 0.83615 0.91123 0.0
C566 C 0.01808 0.87434 0.85965 0.0
C567 C 0.01501 0.86004 0.83565 0.0
C568 C -0.0006 0.8955 0.86427 0.0
C569 C -2e-05 0.9099 0.89002 0.0
C570 C 0.99793 0.89554 0.91379 0.0
C571 C 0.99882 0.90917 0.93801 0.0
C572 C 0.00151 0.93719 0.93871 0.0
C573 C 0.00325 0.95165 0.91517 0.0
C574 C 0.00243 0.93811 0.8909 0.0
C575 C 0.90729 0.88753 0.77925 0.0
C576 C 0.90415 0.91492 0.77259 0.0
C577 C 0.93152 0.87846 0.79343 0.0
C578 C 0.95296 0.89663 0.80095 0.0
C579 C 0.95059 0.92356 0.79264 0.0
C580 C 0.92645 0.93261 0.77856 0.0
C581 C 0.97614 0.88865 0.82023 0.0
C582 C 0.97899 0.90258 0.84439 0.0
C583 C 0.99424 0.86697 0.81581 0.0
C584 C 0.99242 0.85177 0.7905 0.0
C585 C 0.99344 0.86528 0.76615 0.0
C586 C 0.99157 0.85081 0.74238 0.0
C587 C 0.98883 0.8228 0.74271 0.0
C588 C 0.98805 0.80918 0.76683 0.0
C589 C 0.98989 0.82355 0.79065 0.0
H590 H 0.98739 0.81164 0.72428 0.0
H591 H 0.00219 0.94771 0.95748 0.0
H592 H 0.86893 0.09275 0.95585 0.0
H593 H 0.85876 0.07614 0.911 0.0
H594 H 0.77442 0.10465 0.91168 0.0
H595 H 0.7843 0.12117 0.95701 0.0
H596 H 0.77551 0.05418 0.89466 0.0
H597 H 0.81753 0.13492 0.87019 0.0
H598 H 0.85175 0.17186 0.87212 0.0
H599 H 0.91578 0.11632 0.85396 0.0
H600 H 0.88203 0.07899 0.85217 0.0
H601 H 0.81989 0.00782 0.75347 0.0
H602 H 0.80588 0.04425 0.78283 0.0
H603 H 0.81891 0.99106 0.85016 0.0
H604 H 0.83284 0.95511 0.82113 0.0
H605 H 0.83908 0.06664 0.82298 0.0
H606 H 0.77514 0.0037 0.89527 0.0
H607 H 0.73951 0.96808 0.89214 0.0
H608 H 0.71531 0.99155 0.81202 0.0
H609 H 0.75048 0.0276 0.81476 0.0
C610 C 0.84823 0.09572 0.94651 0.0
C611 C 0.82739 0.10813 0.96021 0.0
C612 C 0.84252 0.08643 0.92069 0.0
C613 C 0.81594 0.08951 0.90782 0.0
C614 C 0.79512 0.1022 0.92121 0.0
C615 C 0.80081 0.11154 0.94714 0.0
C616 C 0.8097 0.0771 0.88139 0.0
C617 C 0.78908 0.05719 0.87878 0.0
C618 C 0.82673 0.08175 0.86026 0.0
C619 C 0.8472 0.10413 0.8611 0.0
C620 C 0.83893 0.13056 0.86675 0.0
C621 C 0.85825 0.15157 0.8678 0.0
C622 C 0.88592 0.14643 0.86321 0.0
C623 C 0.89432 0.12027 0.85748 0.0
C624 C 0.87508 0.09919 0.85637 0.0
C625 C 0.81916 0.00396 0.77449 0.0
C626 C 0.8275 0.97888 0.78521 0.0
C627 C 0.81125 0.02467 0.79118 0.0
C628 C 0.81108 0.02025 0.81862 0.0
C629 C 0.8184 0.9948 0.82902 0.0
C630 C 0.82655 0.97434 0.81249 0.0
C631 C 0.80627 0.04251 0.83721 0.0
C632 C 0.82484 0.06426 0.83841 0.0
C633 C 0.78705 0.03984 0.85683 0.0
C634 C 0.76553 0.01838 0.85523 0.0
C635 C 0.76207 0.00145 0.87705 0.0
C636 C 0.74199 0.98112 0.87532 0.0
C637 C 0.72517 0.97754 0.85189 0.0
C638 C 0.72838 0.99431 0.83014 0.0
C639 C 0.74842 0.01467 0.83176 0.0
H640 H 0.70966 0.96178 0.8506 0.0
H641 H 0.90085 0.16272 0.86407 0.0
H642 H 0.43393 0.3436 0.47516 0.0
H643 H 0.47404 0.32774 0.45311 0.0
H644 H 0.46982 0.25114 0.49291 0.0
H645 H 0.42935 0.26666 0.51484 0.0
H646 H 0.52259 0.31507 0.47753 0.0
H647 H 0.49939 0.20269 0.45426 0.0
H648 H 0.45916 0.17347 0.44194 0.0
H649 H 0.41439 0.2412 0.40747 0.0
H650 H 0.45446 0.27072 0.41924 0.0
H651 H 0.64849 0.26561 0.44793 0.0
H652 H 0.6041 0.25925 0.4675 0.0
H653 H 0.56151 0.26085 0.38943 0.0
H654 H 0.60591 0.26629 0.36983 0.0
H655 H 0.53195 0.23205 0.42425 0.0
H656 H 0.57771 0.31867 0.41975 0.0
H657 H 0.61766 0.34913 0.42837 0.0
H658 H 0.61407 0.33783 0.51217 0.0
H659 H 0.57446 0.30673 0.50404 0.0
C660 C 0.44122 0.32323 0.47898 0.0
C661 C 0.42854 0.30651 0.49699 0.0
C662 C 0.4642 0.31422 0.46637 0.0
C663 C 0.47496 0.28831 0.47144 0.0
C664 C 0.46169 0.27112 0.48852 0.0
C665 C 0.43859 0.28008 0.5011 0.0
C666 C 0.50135 0.28027 0.46051 0.0
C667 C 0.52457 0.29686 0.46595 0.0
C668 C 0.50396 0.25658 0.44533 0.0
C669 C 0.47983 0.23896 0.43792 0.0
C670 C 0.48098 0.21132 0.44398 0.0
C671 C 0.45821 0.19471 0.4371 0.0
C672 C 0.43419 0.20549 0.42402 0.0
C673 C 0.43295 0.23289 0.4177 0.0
C674 C 0.45567 0.24958 0.42452 0.0
C675 C 0.62976 0.26324 0.43496 0.0
C676 C 0.63043 0.26672 0.40748 0.0
C677 C 0.60444 0.25969 0.44611 0.0
C678 C 0.57951 0.26036 0.42992 0.0
C679 C 0.5805 0.26041 0.40226 0.0
C680 C 0.60588 0.26351 0.39108 0.0
C681 C 0.55303 0.26676 0.4415 0.0
C682 C 0.52989 0.25001 0.43615 0.0
C683 C 0.55019 0.29069 0.45632 0.0
C684 C 0.57336 0.31012 0.46127 0.0
C685 C 0.58554 0.32255 0.44001 0.0
C686 C 0.60818 0.33984 0.44481 0.0
C687 C 0.61852 0.34527 0.47078 0.0
C688 C 0.60613 0.33351 0.49205 0.0
C689 C 0.5836 0.31601 0.48737 0.0
H690 H 0.63601 0.35875 0.47441 0.0
H691 H 0.41658 0.1926 0.41872 0.0
H692 H 0.2005 0.91588 0.93234 0.0
H693 H 0.21121 0.95928 0.91216 0.0
H694 H 0.18314 0.00064 0.9804 0.0
H695 H 0.1706 0.95756 -0.00061 0.0
H696 H 0.1629 0.02471 0.94043 0.0
H697 H 0.25629 0.99192 0.96472 0.0
H698 H 0.29454 0.95899 0.96422 0.0
H699 H 0.29313 0.96548 0.87947 0.0
H700 H 0.25474 0.99833 0.87947 0.0
H701 H 0.21363 0.15208 0.93501 0.0
H702 H 0.22004 0.1046 0.94666 0.0
H703 H 0.21563 0.08362 0.86376 0.0
H704 H 0.20926 0.13135 0.85194 0.0
H705 H 0.25269 0.04823 0.90452 0.0
H706 H 0.15913 0.08316 0.88237 0.0
H707 H 0.12439 0.11921 0.88561 0.0
H708 H 0.12834 0.1094 0.97015 0.0
H709 H 0.16364 0.07372 0.96745 0.0
C710 C 0.19685 0.93434 0.94296 0.0
C711 C 0.1847 0.93358 0.9673 0.0
C712 C 0.20312 0.95912 0.93154 0.0
C713 C 0.19829 0.98339 0.94483 0.0
C714 C 0.1869 0.98233 0.96958 0.0
C715 C 0.17983 0.95773 0.98051 0.0
C716 C 0.20369 0.0101 0.93281 0.0
C717 C 0.18267 0.0297 0.9328 0.0
C718 C 0.22914 0.01671 0.92202 0.0
C719 C 0.25252 0.99738 0.92208 0.0
C720 C 0.26409 0.98624 0.94598 0.0
C721 C 0.2858 0.96761 0.94579 0.0
C722 C 0.29622 0.9601 0.92182 0.0
C723 C 0.28504 0.97131 0.89801 0.0
C724 C 0.26335 0.98997 0.8981 0.0
C725 C 0.2151 0.13744 0.91929 0.0
C726 C 0.21057 0.14519 0.89262 0.0
C727 C 0.21891 0.11039 0.92594 0.0
C728 C 0.218 0.09069 0.90604 0.0
C729 C 0.21654 0.09862 0.87934 0.0
C730 C 0.21283 0.12583 0.87264 0.0
C731 C 0.21232 0.06249 0.91324 0.0
C732 C 0.233 0.04282 0.91206 0.0
C733 C 0.18668 0.05572 0.92324 0.0
C734 C 0.16414 0.0759 0.92471 0.0
C735 C 0.15263 0.08874 0.90165 0.0
C736 C 0.13286 0.10912 0.90339 0.0
C737 C 0.12418 0.11661 0.92807 0.0
C738 C 0.1351 0.10358 0.95104 0.0
C739 C 0.15497 0.08327 0.94942 0.0
H740 H 0.10901 0.1325 0.92941 0.0
H741 H 0.31298 0.94564 0.92171 0.0
H742 H 0.55291 0.62109 0.43697 0.0
H743 H 0.51952 0.6157 0.39902 0.0
H744 H 0.54881 0.68898 0.36473 0.0
H745 H 0.5823 0.69492 0.40319 0.0
H746 H 0.49318 0.68724 0.36123 0.0
H747 H 0.56497 0.62828 0.33838 0.0
H748 H 0.60041 0.59279 0.34598 0.0
H749 H 0.53695 0.53528 0.36056 0.0
H750 H 0.50114 0.57049 0.35345 0.0
H751 H 0.41115 0.60206 0.24854 0.0
H752 H 0.45476 0.62083 0.26908 0.0
H753 H 0.41449 0.63659 0.3408 0.0
H754 H 0.37123 0.6177 0.32051 0.0
H755 H 0.48318 0.5998 0.31397 0.0
H756 H 0.44201 0.693 0.36961 0.0
H757 H 0.40745 0.72917 0.36124 0.0
H758 H 0.41216 0.71987 0.27731 0.0
H759 H 0.44706 0.68394 0.28515 0.0
C760 C 0.55248 0.63609 0.42138 0.0
C761 C 0.57043 0.65844 0.42318 0.0
C762 C 0.53341 0.63285 0.39956 0.0
C763 C 0.53199 0.65166 0.37879 0.0
C764 C 0.5497 0.67413 0.38048 0.0
C765 C 0.56882 0.67747 0.40246 0.0
C766 C 0.51112 0.64805 0.35602 0.0
C767 C 0.49116 0.66826 0.35065 0.0
C768 C 0.50894 0.62354 0.34168 0.0
C769 C 0.53035 0.6021 0.34543 0.0
C770 C 0.55857 0.60809 0.3433 0.0
C771 C 0.57873 0.58802 0.34753 0.0
C772 C 0.57094 0.56181 0.35376 0.0
C773 C 0.54295 0.55559 0.3557 0.0
C774 C 0.5227 0.57559 0.35151 0.0
C775 C 0.41159 0.61008 0.26848 0.0
C776 C 0.388 0.60843 0.28304 0.0
C777 C 0.43644 0.62066 0.28019 0.0
C778 C 0.43778 0.63024 0.30638 0.0
C779 C 0.41383 0.62963 0.32046 0.0
C780 C 0.3892 0.61873 0.30894 0.0
C781 C 0.46455 0.63846 0.32023 0.0
C782 C 0.48559 0.61906 0.32401 0.0
C783 C 0.46789 0.66381 0.33283 0.0
C784 C 0.44708 0.68564 0.328 0.0
C785 C 0.43582 0.69877 0.34937 0.0
C786 C 0.41613 0.71922 0.34471 0.0
C787 C 0.40757 0.72677 0.31876 0.0
C788 C 0.41874 0.71394 0.2974 0.0
C789 C 0.43845 0.6935 0.30195 0.0
H790 H 0.39232 0.7426 0.3152 0.0
H791 H 0.58659 0.54631 0.35708 0.0
H792 H 0.28088 0.42703 0.56817 0.0
H793 H 0.27147 0.47066 0.58826 0.0
H794 H 0.35944 0.48419 0.60339 0.0
H795 H 0.36907 0.44078 0.58357 0.0
H796 H 0.33025 0.49888 0.6456 0.0
H797 H 0.32479 0.51152 0.55004 0.0
H798 H 0.30613 0.50249 0.50417 0.0
H799 H 0.22447 0.52476 0.52452 0.0
H800 H 0.24262 0.53358 0.57064 0.0
H801 H 0.36112 0.63583 0.64654 0.0
H802 H 0.35452 0.58804 0.63693 0.0
H803 H 0.26567 0.59921 0.63102 0.0
H804 H 0.27225 0.64753 0.64057 0.0
H805 H 0.28481 0.57014 0.58875 0.0
H806 H 0.29313 0.56605 0.68262 0.0
H807 H 0.31292 0.57613 0.72786 0.0
H808 H 0.38959 0.53836 0.71087 0.0
H809 H 0.37042 0.52841 0.66537 0.0
C810 C 0.29822 0.43919 0.57598 0.0
C811 C 0.32575 0.43048 0.57405 0.0
C812 C 0.29279 0.46413 0.58739 0.0
C813 C 0.31477 0.48071 0.59713 0.0
C814 C 0.34217 0.47167 0.59602 0.0
C815 C 0.34763 0.44689 0.58452 0.0
C816 C 0.30965 0.50804 0.60744 0.0
C817 C 0.32032 0.51449 0.63321 0.0
C818 C 0.29587 0.52814 0.59153 0.0
C819 C 0.28498 0.52285 0.56384 0.0
C820 C 0.30281 0.51425 0.54478 0.0
C821 C 0.29234 0.50922 0.51874 0.0
C822 C 0.26411 0.51295 0.51146 0.0
C823 C 0.24631 0.5218 0.5302 0.0
C824 C 0.25668 0.52683 0.55629 0.0
C825 C 0.34016 0.62813 0.64318 0.0
C826 C 0.31718 0.64537 0.64405 0.0
C827 C 0.33641 0.60079 0.63794 0.0
C828 C 0.3096 0.59005 0.63351 0.0
C829 C 0.28652 0.60713 0.63452 0.0
C830 C 0.29028 0.63461 0.64003 0.0
C831 C 0.30627 0.56119 0.62661 0.0
C832 C 0.29406 0.55442 0.60146 0.0
C833 C 0.3187 0.5408 0.64308 0.0
C834 C 0.33034 0.5466 0.6705 0.0
C835 C 0.31428 0.56005 0.68846 0.0
C836 C 0.32538 0.56572 0.71417 0.0
C837 C 0.3525 0.55792 0.72223 0.0
C838 C 0.36857 0.54439 0.7046 0.0
C839 C 0.35758 0.53869 0.67885 0.0
H840 H 0.36106 0.56233 0.74214 0.0
H841 H 0.25605 0.50906 0.49128 0.0
H842 H 0.08306 0.7835 0.05236 0.0
H843 H 0.0421 0.77208 0.076 0.0
H844 H 0.99805 0.83956 0.03886 0.0
H845 H 0.03919 0.85176 0.01659 0.0
H846 H 0.98854 0.83963 0.0868 0.0
H847 H 0.98702 0.77011 0.02044 0.0
H848 H 0.00557 0.73204 0.99589 0.0
H849 H 0.01463 0.68544 0.06757 0.0
H850 H 0.99644 0.72338 0.09261 0.0
H851 H 0.85015 0.81005 0.10119 0.0
H852 H 0.89303 0.8075 0.07864 0.0
H853 H 0.93245 0.76372 0.14482 0.0
H854 H 0.88975 0.76691 0.16802 0.0
H855 H 0.94597 0.74862 0.08656 0.0
H856 H 0.94391 0.82163 0.15124 0.0
H857 H 0.92031 0.85978 0.17123 0.0
H858 H 0.91392 0.90068 0.0962 0.0
H859 H 0.9369 0.86245 0.07561 0.0
C860 C 0.06457 0.7958 0.04932 0.0
C861 C 0.0643 0.8186 0.03283 0.0
C862 C 0.04112 0.78919 0.06268 0.0
C863 C 0.01682 0.80481 0.05907 0.0
C864 C 0.01655 0.82729 0.04219 0.0
C865 C 0.04008 0.83426 0.02943 0.0
C866 C 0.99176 0.79856 0.07329 0.0
C867 C 0.97927 0.81971 0.0865 0.0
C868 C 0.97975 0.7725 0.07345 0.0
C869 C 0.99069 0.74969 0.05844 0.0
C870 C 0.99318 0.75182 0.031 0.0
C871 C 0.00359 0.73026 0.01699 0.0
C872 C 0.01136 0.70637 0.03018 0.0
C873 C 0.00866 0.70398 0.05739 0.0
C874 C 0.99828 0.72549 0.0715 0.0
C875 C 0.8678 0.7995 0.11079 0.0
C876 C 0.86683 0.78919 0.1366 0.0
C877 C 0.89215 0.79785 0.09778 0.0
C878 C 0.91581 0.78562 0.11024 0.0
C879 C 0.91425 0.77312 0.13494 0.0
C880 C 0.88988 0.77497 0.14813 0.0
C881 C 0.9429 0.78977 0.09926 0.0
C882 C 0.95566 0.76834 0.08689 0.0
C883 C 0.95492 0.8157 0.09927 0.0
C884 C 0.94194 0.83908 0.11185 0.0
C885 C 0.9373 0.83867 0.13896 0.0
C886 C 0.92404 0.86031 0.1504 0.0
C887 C 0.91561 0.88264 0.135 0.0
C888 C 0.92051 0.8834 0.10813 0.0
C889 C 0.93362 0.86173 0.09656 0.0
H890 H 0.9053 0.89935 0.14387 0.0
H891 H 0.01941 0.6897 0.0193 0.0
H892 H 0.70451 0.62979 0.58691 0.0
H893 H 0.71097 0.60807 0.63054 0.0
H894 H 0.63139 0.56901 0.61655 0.0
H895 H 0.62444 0.59108 0.57384 0.0
H896 H 0.63662 0.58461 0.66506 0.0
H897 H 0.69615 0.53775 0.60628 0.0
H898 H 0.73458 0.53467 0.5769 0.0
H899 H 0.79197 0.56221 0.64007 0.0
H900 H 0.75377 0.56572 0.66973 0.0
H901 H 0.64155 0.45142 0.70973 0.0
H902 H 0.648 0.49107 0.6827 0.0
H903 H 0.70003 0.52679 0.74615 0.0
H904 H 0.69243 0.48744 0.77433 0.0
H905 H 0.71665 0.52296 0.68339 0.0
H906 H 0.65311 0.5583 0.74437 0.0
H907 H 0.61215 0.55523 0.77054 0.0
H908 H 0.5595 0.54409 0.69916 0.0
H909 H 0.60023 0.54649 0.67262 0.0
C910 C 0.68834 0.61672 0.59327 0.0
C911 C 0.66401 0.61212 0.57678 0.0
C912 C 0.69208 0.60427 0.61819 0.0
C913 C 0.67177 0.58669 0.62679 0.0
C914 C 0.64731 0.5826 0.61052 0.0
C915 C 0.64342 0.5952 0.58594 0.0
C916 C 0.67589 0.57135 0.65203 0.0
C917 C 0.65431 0.57138 0.66918 0.0
C918 C 0.6992 0.55444 0.65786 0.0
C919 C 0.7221 0.55236 0.64007 0.0
C920 C 0.71694 0.54334 0.61382 0.0
C921 C 0.73867 0.54148 0.59714 0.0
C922 C 0.76568 0.54834 0.60658 0.0
C923 C 0.77102 0.55698 0.63276 0.0
C924 C 0.74935 0.55891 0.64951 0.0
C925 C 0.65395 0.46782 0.71831 0.0
C926 C 0.66593 0.46643 0.74451 0.0
C927 C 0.65788 0.49034 0.70265 0.0
C928 C 0.6743 0.5118 0.71256 0.0
C929 C 0.68723 0.51033 0.73828 0.0
C930 C 0.68293 0.48783 0.75426 0.0
C931 C 0.67698 0.5357 0.69556 0.0
C932 C 0.69965 0.53712 0.67987 0.0
C933 C 0.65439 0.55352 0.69066 0.0
C934 C 0.62978 0.55242 0.70653 0.0
C935 C 0.63284 0.55495 0.73428 0.0
C936 C 0.60965 0.55335 0.74918 0.0
C937 C 0.58324 0.54941 0.73652 0.0
C938 C 0.57997 0.54713 0.70894 0.0
C939 C 0.6031 0.54862 0.69396 0.0
H940 H 0.56532 0.54815 0.74809 0.0
H941 H 0.78248 0.54688 0.59365 0.0
H942 H 0.93534 0.10487 0.1049 0.0
H943 H 0.96817 0.09875 0.14334 0.0
H944 H 0.95617 0.18135 0.16632 0.0
H945 H 0.9234 0.18788 0.12755 0.0
H946 H 0.0101 0.16892 0.16835 0.0
H947 H 0.92967 0.13078 0.20179 0.0
H948 H 0.88785 0.10222 0.20088 0.0
H949 H 0.93826 0.03136 0.19626 0.0
H950 H 0.98036 0.0595 0.19671 0.0
H951 H 0.07919 0.0969 0.29592 0.0
H952 H 0.03814 0.11644 0.27114 0.0
H953 H 0.07909 0.10938 0.19852 0.0
H954 H 0.11984 0.09014 0.22306 0.0
H955 H 0.00531 0.09193 0.2305 0.0
H956 H 0.06125 0.16188 0.15892 0.0
H957 H 0.10237 0.1914 0.16031 0.0
H958 H 0.09873 0.20153 0.24427 0.0
H959 H 0.05734 0.17241 0.24335 0.0
C960 C 0.93949 0.12177 0.11813 0.0
C961 C 0.9267 0.14691 0.11303 0.0
C962 C 0.95817 0.11816 0.14025 0.0
C963 C 0.96434 0.13949 0.1579 0.0
C964 C 0.95159 0.16458 0.153 0.0
C965 C 0.93284 0.16825 0.13083 0.0
C966 C 0.9853 0.13574 0.18057 0.0
C967 C 0.00892 0.15228 0.18213 0.0
C968 C 0.98343 0.1144 0.19894 0.0
C969 C 0.9582 0.0973 0.19917 0.0
C970 C 0.93184 0.10912 0.20045 0.0
C971 C 0.90808 0.093 0.20002 0.0
C972 C 0.91039 0.065 0.19848 0.0
C973 C 0.93649 0.05306 0.19746 0.0
C974 C 0.96033 0.06909 0.19785 0.0
C975 C 0.07946 0.09998 0.27474 0.0
C976 C 0.10253 0.09196 0.26131 0.0
C977 C 0.05604 0.11096 0.26062 0.0
C978 C 0.05567 0.11449 0.23304 0.0
C979 C 0.07904 0.10713 0.21982 0.0
C980 C 0.10223 0.09599 0.23381 0.0
C981 C 0.03052 0.1244 0.21745 0.0
C982 C 0.00617 0.10895 0.21713 0.0
C983 C 0.03155 0.14693 0.20042 0.0
C984 C 0.05624 0.16482 0.20107 0.0
C985 C 0.0691 0.17054 0.17766 0.0
C986 C 0.09249 0.18718 0.17837 0.0
C987 C 0.10319 0.19829 0.20237 0.0
C988 C 0.09047 0.19285 0.2257 0.0
C989 C 0.06706 0.17624 0.2251 0.0
H990 H 0.12131 0.21115 0.20287 0.0
H991 H 0.89196 0.05255 0.1981 0.0
H992 H 0.23406 0.79229 0.05476 0.0
H993 H 0.2552 0.75569 0.08139 0.0
H994 H 0.18456 0.70507 0.05988 0.0
H995 H 0.16304 0.74166 0.03315 0.0
H996 H 0.20163 0.70226 0.11342 0.0
H997 H 0.24237 0.69534 0.03016 0.0
H998 H 0.26646 0.71209 0.99214 0.0
H999 H 0.3375 0.733 0.0442 0.0
H1000 H 0.31366 0.71674 0.08262 0.0
H1001 H 0.2659 0.58177 0.16269 0.0
H1002 H 0.24275 0.615 0.13266 0.0
H1003 H 0.31289 0.6684 0.1461 0.0
H1004 H 0.33622 0.63493 0.17574 0.0
H1005 H 0.29475 0.66803 0.09475 0.0
H1006 H 0.25387 0.67737 0.17801 0.0
H1007 H 0.23003 0.66174 0.21663 0.0
H1008 H 0.15966 0.63738 0.16531 0.0
H1009 H 0.18326 0.65254 0.12632 0.0
C1010 C 0.22288 0.77344 0.05571 0.0
C1011 C 0.19686 0.76992 0.04165 0.0
C1012 C 0.23509 0.7525 0.07088 0.0
C1013 C 0.2216 0.72758 0.07232 0.0
C1014 C 0.19535 0.72414 0.05891 0.0
C1015 C 0.18314 0.74506 0.0436 0.0
C1016 C 0.23509 0.70514 0.08774 0.0
C1017 C 0.22178 0.69444 0.1091 0.0
C1018 C 0.26164 0.6954 0.08239 0.0
C1019 C 0.27612 0.70503 0.0593 0.0
C1020 C 0.26304 0.7037 0.03354 0.0
C1021 C 0.27667 0.71308 0.0119 0.0
C1022 C 0.30347 0.72366 0.01576 0.0
C1023 C 0.31673 0.72482 0.04125 0.0
C1024 C 0.30318 0.7155 0.06296 0.0
C1025 C 0.27647 0.60045 0.15884 0.0
C1026 C 0.30297 0.60572 0.17107 0.0
C1027 C 0.26319 0.61948 0.1419 0.0
C1028 C 0.276 0.64429 0.13732 0.0
C1029 C 0.30268 0.64937 0.14926 0.0
C1030 C 0.31598 0.6303 0.16612 0.0
C1031 C 0.26141 0.66525 0.12062 0.0
C1032 C 0.27451 0.6757 0.099 0.0
C1033 C 0.23473 0.67485 0.12582 0.0
C1034 C 0.22046 0.66582 0.14923 0.0
C1035 C 0.2334 0.66848 0.17494 0.0
C1036 C 0.21992 0.65974 0.1969 0.0
C1037 C 0.19338 0.6485 0.19342 0.0
C1038 C 0.18024 0.64605 0.16797 0.0
C1039 C 0.19365 0.65473 0.14594 0.0
H1040 H 0.18297 0.64175 0.21045 0.0
H1041 H 0.31398 0.73091 0.99898 0.0
H1042 H 0.66743 0.76172 0.53348 0.0
H1043 H 0.68922 0.79356 0.56535 0.0
H1044 H 0.7589 0.73975 0.57975 0.0
H1045 H 0.7371 0.70756 0.54828 0.0
H1046 H 0.74076 0.75666 0.62502 0.0
H1047 H 0.76444 0.79848 0.54441 0.0
H1048 H 0.7556 0.8176 0.49956 0.0
H1049 H 0.7022 0.87753 0.52984 0.0
H1050 H 0.71042 0.85854 0.57483 0.0
H1051 H 0.82433 0.84686 0.70422 0.0
H1052 H 0.80788 0.81809 0.66687 0.0
H1053 H 0.73531 0.86839 0.65305 0.0
H1054 H 0.75195 0.89733 0.69023 0.0
H1055 H 0.75653 0.85345 0.60676 0.0
H1056 H 0.73105 0.81026 0.68662 0.0
H1057 H 0.73946 0.79105 0.73148 0.0
H1058 H 0.79606 0.73346 0.70224 0.0
H1059 H 0.78827 0.75258 0.65725 0.0
C1060 C 0.68751 0.75672 0.54321 0.0
C1061 C 0.70046 0.732 0.53831 0.0
C1062 C 0.7 0.77503 0.56136 0.0
C1063 C 0.7258 0.76914 0.57477 0.0
C1064 C 0.73898 0.74471 0.56962 0.0
C1065 C 0.72647 0.72634 0.55157 0.0
C1066 C 0.73836 0.78776 0.5952 0.0
C1067 C 0.74466 0.77771 0.62088 0.0
C1068 C 0.74277 0.81539 0.58998 0.0
C1069 C 0.73785 0.82692 0.56295 0.0
C1070 C 0.75064 0.8156 0.54147 0.0
C1071 C 0.74577 0.82644 0.51603 0.0
C1072 C 0.7283 0.84872 0.51184 0.0
C1073 C 0.71571 0.86026 0.53311 0.0
C1074 C 0.72049 0.84948 0.55859 0.0
C1075 C 0.80491 0.85171 0.69311 0.0
C1076 C 0.789 0.8738 0.70034 0.0
C1077 C 0.79554 0.83533 0.67185 0.0
C1078 C 0.77013 0.84086 0.65751 0.0
C1079 C 0.75488 0.8637 0.66397 0.0
C1080 C 0.76428 0.88009 0.68523 0.0
C1081 C 0.75895 0.82226 0.63646 0.0
C1082 C 0.75281 0.83233 0.61076 0.0
C1083 C 0.75465 0.79462 0.64162 0.0
C1084 C 0.7593 0.78304 0.66864 0.0
C1085 C 0.74546 0.79364 0.6898 0.0
C1086 C 0.75008 0.78274 0.71525 0.0
C1087 C 0.76835 0.7611 0.71972 0.0
C1088 C 0.78196 0.75026 0.69875 0.0
C1089 C 0.77743 0.7611 0.67327 0.0
H1090 H 0.7719 0.75269 0.73943 0.0
H1091 H 0.72456 0.85709 0.49213 0.0
H1092 H 0.76783 0.16124 0.11002 0.0
H1093 H 0.7458 0.17523 0.14967 0.0
H1094 H 0.80954 0.23508 0.16581 0.0
H1095 H 0.83202 0.22102 0.12647 0.0
H1096 H 0.79781 0.20901 0.21044 0.0
H1097 H 0.74653 0.25277 0.13726 0.0
H1098 H 0.71944 0.25486 0.094 0.0
H1099 H 0.65717 0.20358 0.12359 0.0
H1100 H 0.6841 0.2009 0.16694 0.0
H1101 H 0.73014 0.29718 0.29561 0.0
H1102 H 0.7536 0.27664 0.25925 0.0
H1103 H 0.68811 0.21762 0.24869 0.0
H1104 H 0.6646 0.23824 0.28497 0.0
H1105 H 0.70004 0.24059 0.20203 0.0
H1106 H 0.75038 0.19941 0.27648 0.0
H1107 H 0.77759 0.19813 0.3197 0.0
H1108 H 0.84173 0.24537 0.28786 0.0
H1109 H 0.81471 0.24727 0.24453 0.0
C1110 C 0.77724 0.17735 0.122 0.0
C1111 C 0.8016 0.19015 0.1149 0.0
C1112 C 0.76457 0.18534 0.14464 0.0
C1113 C 0.77587 0.2064 0.16047 0.0
C1114 C 0.80049 0.2188 0.15382 0.0
C1115 C 0.81323 0.21078 0.13124 0.0
C1116 C 0.76171 0.21599 0.18365 0.0
C1117 C 0.77652 0.21617 0.2086 0.0
C1118 C 0.73375 0.22473 0.18126 0.0
C1119 C 0.71748 0.2264 0.15524 0.0
C1120 C 0.72717 0.24177 0.13447 0.0
C1121 C 0.71183 0.24309 0.10995 0.0
C1122 C 0.68664 0.2293 0.10602 0.0
C1123 C 0.67671 0.21422 0.12664 0.0
C1124 C 0.69199 0.2128 0.1512 0.0
C1125 C 0.7209 0.27978 0.28549 0.0
C1126 C 0.69552 0.26942 0.29271 0.0
C1127 C 0.73431 0.26799 0.2649 0.0
C1128 C 0.72263 0.24554 0.25141 0.0
C1129 C 0.69741 0.23496 0.25886 0.0
C1130 C 0.68404 0.24671 0.2795 0.0
C1131 C 0.73618 0.23379 0.22882 0.0
C1132 C 0.72126 0.23324 0.20394 0.0
C1133 C 0.76406 0.22482 0.23128 0.0
C1134 C 0.78039 0.22369 0.25731 0.0
C1135 C 0.77018 0.20972 0.27875 0.0
C1136 C 0.78559 0.20885 0.30326 0.0
C1137 C 0.81134 0.22171 0.30654 0.0
C1138 C 0.82176 0.23543 0.2853 0.0
C1139 C 0.80642 0.23639 0.26075 0.0
H1140 H 0.82324 0.22101 0.32553 0.0
H1141 H 0.67479 0.23035 0.08702 0.0
H1142 H 0.26378 0.33676 0.60927 0.0
H1143 H 0.24538 0.32751 0.6522 0.0
H1144 H 0.31361 0.27325 0.672 0.0
H1145 H 0.3318 0.28186 0.62933 0.0
H1146 H 0.26594 0.25189 0.68475 0.0
H1147 H 0.31271 0.3379 0.69634 0.0
H1148 H 0.32123 0.38549 0.68551 0.0
H1149 H 0.23713 0.40527 0.69998 0.0
H1150 H 0.22801 0.3577 0.71057 0.0
H1151 H 0.2707 0.23687 0.82236 0.0
H1152 H 0.28252 0.2507 0.77809 0.0
H1153 H 0.20872 0.29996 0.76966 0.0
H1154 H 0.19714 0.28644 0.81423 0.0
H1155 H 0.25339 0.32499 0.74967 0.0
H1156 H 0.20794 0.23941 0.74166 0.0
H1157 H 0.19979 0.19185 0.75282 0.0
H1158 H 0.2815 0.17118 0.73141 0.0
H1159 H 0.29031 0.21871 0.7205 0.0
C1160 C 0.27479 0.32276 0.62272 0.0
C1161 C 0.2993 0.3101 0.61581 0.0
C1162 C 0.2643 0.3176 0.64728 0.0
C1163 C 0.27829 0.29988 0.66536 0.0
C1164 C 0.30247 0.28696 0.65833 0.0
C1165 C 0.31287 0.29199 0.63387 0.0
C1166 C 0.26814 0.29466 0.69178 0.0
C1167 C 0.26339 0.26786 0.699 0.0
C1168 C 0.26404 0.31558 0.71009 0.0
C1169 C 0.26959 0.3442 0.70395 0.0
C1170 C 0.29598 0.35236 0.69703 0.0
C1171 C 0.30093 0.37934 0.69096 0.0
C1172 C 0.27971 0.39838 0.69197 0.0
C1173 C 0.25353 0.39049 0.69915 0.0
C1174 C 0.24846 0.36354 0.7052 0.0
C1175 C 0.25737 0.25107 0.81122 0.0
C1176 C 0.2333 0.26099 0.8217 0.0
C1177 C 0.26397 0.25879 0.78593 0.0
C1178 C 0.2463 0.27611 0.77053 0.0
C1179 C 0.22263 0.28663 0.78127 0.0
C1180 C 0.21607 0.27896 0.80664 0.0
C1181 C 0.252 0.28217 0.7428 0.0
C1182 C 0.25573 0.30907 0.73532 0.0
C1183 C 0.2552 0.26134 0.7242 0.0
C1184 C 0.24985 0.23267 0.73045 0.0
C1185 C 0.22424 0.22475 0.73949 0.0
C1186 C 0.21949 0.1978 0.74576 0.0
C1187 C 0.24013 0.17851 0.74287 0.0
C1188 C 0.26554 0.18614 0.73365 0.0
C1189 C 0.27041 0.21308 0.7274 0.0
H1190 H 0.23642 0.15765 0.74774 0.0
H1191 H 0.28358 0.41925 0.68726 0.0
H1192 H 0.73126 0.65659 0.42699 0.0
H1193 H 0.74911 0.66165 0.38314 0.0
H1194 H 0.68729 0.72248 0.363 0.0
H1195 H 0.66932 0.71763 0.40634 0.0
H1196 H 0.68968 0.68438 0.32415 0.0
H1197 H 0.75327 0.73999 0.37928 0.0
H1198 H 0.78783 0.74842 0.41675 0.0
H1199 H 0.84181 0.68881 0.38679 0.0
H1200 H 0.80737 0.67978 0.3493 0.0
H1201 H 0.7332 0.76214 0.21878 0.0
H1202 H 0.71921 0.74386 0.26072 0.0
H1203 H 0.78871 0.68896 0.26392 0.0
H1204 H 0.8028 0.70741 0.22188 0.0
H1205 H 0.78518 0.71537 0.31036 0.0
H1206 H 0.72427 0.66448 0.25166 0.0
H1207 H 0.68982 0.6563 0.21406 0.0
H1208 H 0.6308 0.70623 0.25041 0.0
H1209 H 0.66503 0.71506 0.28805 0.0
C1210 C 0.7216 0.67118 0.4133 0.0
C1211 C 0.69884 0.68669 0.42025 0.0
C1212 C 0.73182 0.67401 0.38827 0.0
C1213 C 0.71944 0.69239 0.36987 0.0
C1214 C 0.697 0.70805 0.37687 0.0
C1215 C 0.68686 0.70532 0.40178 0.0
C1216 C 0.72945 0.69548 0.34311 0.0
C1217 C 0.71052 0.69126 0.32109 0.0
C1218 C 0.75692 0.70352 0.33919 0.0
C1219 C 0.77761 0.70897 0.36169 0.0
C1220 C 0.7724 0.72851 0.38082 0.0
C1221 C 0.79199 0.73344 0.40203 0.0
C1222 C 0.81696 0.71909 0.40421 0.0
C1223 C 0.82243 0.69986 0.38512 0.0
C1224 C 0.80289 0.69484 0.36388 0.0
C1225 C 0.7451 0.7458 0.22821 0.0
C1226 C 0.76867 0.7357 0.21696 0.0
C1227 C 0.73714 0.73537 0.2521 0.0
C1228 C 0.75272 0.71479 0.26522 0.0
C1229 C 0.7763 0.70468 0.25399 0.0
C1230 C 0.78422 0.71506 0.23 0.0
C1231 C 0.74511 0.70512 0.29139 0.0
C1232 C 0.76448 0.70801 0.31332 0.0
C1233 C 0.71803 0.69582 0.29523 0.0
C1234 C 0.69732 0.69058 0.27262 0.0
C1235 C 0.70402 0.6739 0.25155 0.0
C1236 C 0.68452 0.66911 0.23024 0.0
C1237 C 0.65816 0.68078 0.22982 0.0
C1238 C 0.65123 0.69722 0.25075 0.0
C1239 C 0.67067 0.70209 0.2721 0.0
H1240 H 0.64308 0.67704 0.21331 0.0
H1241 H 0.8321 0.72294 0.42064 0.0
H1242 H 0.76459 0.20399 0.98677 0.0
H1243 H 0.7466 0.23405 0.95136 0.0
H1244 H 0.82114 0.28194 0.96132 0.0
H1245 H 0.83918 0.25228 0.99711 0.0
H1246 H 0.77533 0.31322 0.95314 0.0
H1247 H 0.81318 0.23469 0.91317 0.0
H1248 H 0.81783 0.18572 0.90654 0.0
H1249 H 0.73198 0.18096 0.87804 0.0
H1250 H 0.72662 0.2298 0.88511 0.0
H1251 H 0.76418 0.38121 0.82958 0.0
H1252 H 0.78026 0.35257 0.86716 0.0
H1253 H 0.70584 0.30462 0.85536 0.0
H1254 H 0.68998 0.33307 0.81747 0.0
H1255 H 0.75103 0.27312 0.86458 0.0
H1256 H 0.71272 0.35088 0.90466 0.0
H1257 H 0.70682 0.39938 0.91313 0.0
H1258 H 0.79255 0.40531 0.94182 0.0
H1259 H 0.79907 0.3569 0.93316 0.0
C1260 C 0.7771 0.22104 0.98165 0.0
C1261 C 0.80347 0.22555 0.99468 0.0
C1262 C 0.7668 0.23816 0.96132 0.0
C1263 C 0.78276 0.25993 0.9534 0.0
C1264 C 0.80854 0.26518 0.96706 0.0
C1265 C 0.81883 0.24815 0.9875 0.0
C1266 C 0.77304 0.27664 0.93024 0.0
C1267 C 0.77034 0.30452 0.9337 0.0
C1268 C 0.76598 0.26514 0.90501 0.0
C1269 C 0.76944 0.2359 0.89991 0.0
C1270 C 0.79525 0.22319 0.90561 0.0
C1271 C 0.79802 0.19545 0.90177 0.0
C1272 C 0.77521 0.18024 0.8919 0.0
C1273 C 0.74962 0.19276 0.88572 0.0
C1274 C 0.74671 0.22048 0.88965 0.0
C1275 C 0.75144 0.3644 0.83493 0.0
C1276 C 0.72609 0.35898 0.82051 0.0
C1277 C 0.76052 0.34818 0.85645 0.0
C1278 C 0.74415 0.32657 0.86417 0.0
C1279 C 0.71883 0.32112 0.84968 0.0
C1280 C 0.70979 0.33731 0.82812 0.0
C1281 C 0.75336 0.30976 0.88746 0.0
C1282 C 0.75601 0.28184 0.88401 0.0
C1283 C 0.76033 0.32121 0.91271 0.0
C1284 C 0.75645 0.35031 0.91801 0.0
C1285 C 0.73037 0.36257 0.91257 0.0
C1286 C 0.72691 0.39003 0.91745 0.0
C1287 C 0.74931 0.40543 0.92794 0.0
C1288 C 0.77522 0.39337 0.93366 0.0
C1289 C 0.77881 0.36591 0.92879 0.0
H1290 H 0.74658 0.42669 0.93171 0.0
H1291 H 0.77734 0.15876 0.88905 0.0
H1292 H 0.26161 0.29083 0.48662 0.0
H1293 H 0.23863 0.25521 0.46003 0.0
H1294 H 0.30725 0.20168 0.48067 0.0
H1295 H 0.33066 0.23729 0.50709 0.0
H1296 H 0.2907 0.19854 0.42852 0.0
H1297 H 0.24723 0.19571 0.51071 0.0
H1298 H 0.22279 0.21449 0.54764 0.0
H1299 H 0.1543 0.23756 0.4933 0.0
H1300 H 0.17851 0.21925 0.45598 0.0
H1301 H 0.22312 0.07758 0.38518 0.0
H1302 H 0.24704 0.11237 0.41268 0.0
H1303 H 0.17887 0.16708 0.39398 0.0
H1304 H 0.15477 0.13209 0.36684 0.0
H1305 H 0.19556 0.16906 0.44581 0.0
H1306 H 0.23914 0.17233 0.36358 0.0
H1307 H 0.26364 0.1539 0.32655 0.0
H1308 H 0.33196 0.13022 0.38082 0.0
H1309 H 0.30767 0.14818 0.41825 0.0
C1310 C 0.2719 0.27152 0.48554 0.0
C1311 C 0.29796 0.26694 0.49918 0.0
C1312 C 0.25865 0.25113 0.47038 0.0
C1313 C 0.27106 0.22569 0.46867 0.0
C1314 C 0.29727 0.22116 0.4818 0.0
C1315 C 0.31058 0.24155 0.49696 0.0
C1316 C 0.25665 0.2038 0.4532 0.0
C1317 C 0.27005 0.19181 0.43253 0.0
C1318 C 0.22948 0.19545 0.4581 0.0
C1319 C 0.2148 0.20633 0.48052 0.0
C1320 C 0.22704 0.20497 0.50661 0.0
C1321 C 0.21322 0.2155 0.52762 0.0
C1322 C 0.18704 0.22727 0.52281 0.0
C1323 C 0.17459 0.22846 0.49699 0.0
C1324 C 0.18835 0.21799 0.47591 0.0
C1325 C 0.2132 0.09696 0.38724 0.0
C1326 C 0.18697 0.10214 0.37437 0.0
C1327 C 0.22692 0.11686 0.40274 0.0
C1328 C 0.21481 0.14239 0.40522 0.0
C1329 C 0.18852 0.1475 0.39242 0.0
C1330 C 0.17479 0.12759 0.37698 0.0
C1331 C 0.22956 0.16383 0.42106 0.0
C1332 C 0.21622 0.17574 0.44182 0.0
C1333 C 0.25678 0.17211 0.41623 0.0
C1334 C 0.27145 0.16135 0.39375 0.0
C1335 C 0.25928 0.16299 0.36765 0.0
C1336 C 0.27315 0.15267 0.34658 0.0
C1337 C 0.29931 0.14083 0.35134 0.0
C1338 C 0.31168 0.13936 0.37717 0.0
C1339 C 0.29788 0.14962 0.39832 0.0
H1340 H 0.31001 0.13285 0.335 0.0
H1341 H 0.17637 0.23541 0.5391 0.0
H1342 H 0.24147 0.82706 0.93676 0.0
H1343 H 0.26335 0.81382 0.89671 0.0
H1344 H 0.18768 0.77445 0.8671 0.0
H1345 H 0.16576 0.78715 0.90708 0.0
H1346 H 0.23202 0.74308 0.86192 0.0
H1347 H 0.20655 0.83521 0.84258 0.0
H1348 H 0.2054 0.88398 0.85169 0.0
H1349 H 0.29429 0.88746 0.8526 0.0
H1350 H 0.29601 0.83861 0.84385 0.0
H1351 H 0.26641 0.71793 0.73163 0.0
H1352 H 0.24292 0.73672 0.76877 0.0
H1353 H 0.31878 0.77655 0.79726 0.0
H1354 H 0.34207 0.75835 0.75978 0.0
H1355 H 0.2745 0.80856 0.8028 0.0
H1356 H 0.30056 0.71714 0.8237 0.0
H1357 H 0.30277 0.66815 0.81609 0.0
H1358 H 0.21385 0.6633 0.81372 0.0
H1359 H 0.21109 0.71235 0.82095 0.0
C1360 C 0.22945 0.81562 0.92173 0.0
C1361 C 0.20185 0.80815 0.92519 0.0
C1362 C 0.24195 0.80819 0.8988 0.0
C1363 C 0.22702 0.79339 0.87886 0.0
C1364 C 0.19954 0.78589 0.88226 0.0
C1365 C 0.18706 0.79321 0.90516 0.0
C1366 C 0.24017 0.785 0.85469 0.0
C1367 C 0.24094 0.75743 0.84878 0.0
C1368 C 0.25246 0.80372 0.838 0.0
C1369 C 0.25142 0.83319 0.8428 0.0
C1370 C 0.22587 0.84634 0.84488 0.0
C1371 C 0.22511 0.874 0.84996 0.0
C1372 C 0.24976 0.8888 0.85279 0.0
C1373 C 0.27522 0.87597 0.85043 0.0
C1374 C 0.27609 0.8483 0.84538 0.0
C1375 C 0.27783 0.73112 0.74558 0.0
C1376 C 0.30588 0.73698 0.74278 0.0
C1377 C 0.26451 0.74169 0.76683 0.0
C1378 C 0.27923 0.75778 0.78591 0.0
C1379 C 0.30705 0.76424 0.78272 0.0
C1380 C 0.32033 0.75381 0.76138 0.0
C1381 C 0.26608 0.76666 0.80993 0.0
C1382 C 0.26543 0.79426 0.81589 0.0
C1383 C 0.25399 0.74798 0.8268 0.0
C1384 C 0.25561 0.71845 0.8226 0.0
C1385 C 0.28147 0.70566 0.82136 0.0
C1386 C 0.28282 0.67787 0.81715 0.0
C1387 C 0.25847 0.66263 0.81435 0.0
C1388 C 0.2327 0.67514 0.81585 0.0
C1389 C 0.23123 0.70292 0.82002 0.0
H1390 H 0.25956 0.64112 0.81109 0.0
H1391 H 0.24914 0.9102 0.85677 0.0
loop_
_geom_bond_atom_site_label_1
_geom_bond_atom_site_label_2
_geom_bond_distance
_geom_bond_site_symmetry_2
_ccdc_geom_bond_type
Sc0 O3 2.033 . S
Sc0 O10 2.105 1_554 S
Sc0 O13 2.105 . S
Sc0 O16 2.105 . S
Sc0 O19 2.105 1_554 S
Sc1 O3 2.016 1_556 S
Sc1 O11 2.105 . S
Sc1 O15 2.105 1_556 S
Sc1 O17 2.105 1_556 S
Sc1 O21 2.105 . S
Sc2 O3 2.029 . S
Sc2 O12 2.105 1_554 S
Sc2 O14 2.105 . S
Sc2 O18 2.105 . S
Sc2 O20 2.105 1_554 S
O3 Sc0 2.033 . S
O3 Sc1 2.016 1_554 S
O3 Sc2 2.029 . S
C4 O10 1.268 . S
C4 O20 1.268 . S
C5 O11 1.268 . S
C5 O19 1.268 . S
C6 O12 1.268 . S
C6 O21 1.268 . S
C7 O13 1.268 . S
C7 O17 1.268 . S
C8 O14 1.268 . S
C8 O16 1.268 . S
C9 O15 1.268 . S
C9 O18 1.268 . S
O10 Sc0 2.105 1_556 S
O10 C4 1.268 . S
O11 Sc1 2.105 . S
O11 C5 1.268 . S
O12 Sc2 2.105 1_556 S
O12 C6 1.268 . S
O13 Sc0 2.105 . S
O13 C7 1.268 . S
O14 Sc2 2.105 . S
O14 C8 1.268 . S
O15 Sc1 2.105 1_554 S
O15 C9 1.268 . S
O16 Sc0 2.105 . S
O16 C8 1.268 . S
O17 Sc1 2.105 1_554 S
O17 C7 1.268 . S
O18 Sc2 2.105 . S
O18 C9 1.268 . S
O19 Sc0 2.105 1_556 S
O19 C5 1.268 . S
O20 Sc2 2.105 1_556 S
O20 C4 1.268 . S
O21 Sc1 2.105 . S
O21 C6 1.268 . S
Sc22 O25 2.025 . S
Sc22 O32 2.105 . S
Sc22 O35 2.105 . S
Sc22 O38 2.105 . S
Sc22 O41 2.105 . S
Sc23 O25 2.025 . S
Sc23 O33 2.105 . S
Sc23 O37 2.105 . S
Sc23 O39 2.105 . S
Sc23 O43 2.105 . S
Sc24 O25 2.025 . S
Sc24 O34 2.105 . S
Sc24 O36 2.105 . S
Sc24 O40 2.105 . S
Sc24 O42 2.105 . S
O25 Sc22 2.025 . S
O25 Sc23 2.025 . S
O25 Sc24 2.025 . S
C26 O32 1.268 . S
C26 O42 1.268 . S
C27 O33 1.268 . S
C27 O41 1.268 . S
C28 O34 1.268 . S
C28 O43 1.268 . S
C29 O35 1.268 . S
C29 O39 1.268 . S
C30 O36 1.268 . S
C30 O38 1.268 . S
C31 O37 1.268 . S
C31 O40 1.268 . S
O32 Sc22 2.105 . S
O32 C26 1.268 . S
O33 Sc23 2.105 . S
O33 C27 1.268 . S
O34 Sc24 2.105 . S
O34 C28 1.268 . S
O35 Sc22 2.105 . S
O35 C29 1.268 . S
O36 Sc24 2.105 . S
O36 C30 1.268 . S
O37 Sc23 2.105 . S
O37 C31 1.268 . S
O38 Sc22 2.105 . S
O38 C30 1.268 . S
O39 Sc23 2.105 . S
O39 C29 1.268 . S
O40 Sc24 2.105 . S
O40 C31 1.268 . S
O41 Sc22 2.105 . S
O41 C27 1.268 . S
O42 Sc24 2.105 . S
O42 C26 1.268 . S
O43 Sc23 2.105 . S
O43 C28 1.268 . S
Sc44 O47 2.025 . S
Sc44 O54 2.105 . S
Sc44 O57 2.105 . S
Sc44 O60 2.105 . S
Sc44 O63 2.105 . S
Sc45 O47 2.025 . S
Sc45 O55 2.105 . S
Sc45 O59 2.105 . S
Sc45 O61 2.105 . S
Sc45 O65 2.105 1_554 S
Sc46 O47 2.025 . S
Sc46 O56 2.105 1_554 S
Sc46 O58 2.105 . S
Sc46 O62 2.105 . S
Sc46 O64 2.105 . S
O47 Sc44 2.025 . S
O47 Sc45 2.025 . S
O47 Sc46 2.025 . S
C48 O54 1.268 . S
C48 O64 1.268 . S
C49 O55 1.268 . S
C49 O63 1.268 . S
C50 O56 1.268 . S
C50 O65 1.268 . S
C51 O57 1.268 . S
C51 O61 1.268 . S
C52 O58 1.268 . S
C52 O60 1.268 . S
C53 O59 1.268 . S
C53 O62 1.268 . S
O54 Sc44 2.105 . S
O54 C48 1.268 . S
O55 Sc45 2.105 . S
O55 C49 1.268 . S
O56 Sc46 2.105 1_556 S
O56 C50 1.268 . S
O57 Sc44 2.105 . S
O57 C51 1.268 . S
O58 Sc46 2.105 . S
O58 C52 1.268 . S
O59 Sc45 2.105 . S
O59 C53 1.268 . S
O60 Sc44 2.105 . S
O60 C52 1.268 . S
O61 Sc45 2.105 . S
O61 C51 1.268 . S
O62 Sc46 2.105 . S
O62 C53 1.268 . S
O63 Sc44 2.105 . S
O63 C49 1.268 . S
O64 Sc46 2.105 . S
O64 C48 1.268 . S
O65 Sc45 2.105 1_556 S
O65 C50 1.268 . S
Sc66 O69 2.025 . S
Sc66 O76 2.105 . S
Sc66 O79 2.105 . S
Sc66 O82 2.105 . S
Sc66 O85 2.105 . S
Sc67 O69 2.025 . S
Sc67 O77 2.105 . S
Sc67 O81 2.105 . S
Sc67 O83 2.105 . S
Sc67 O87 2.105 . S
Sc68 O69 2.025 . S
Sc68 O78 2.105 . S
Sc68 O80 2.105 . S
Sc68 O84 2.105 . S
Sc68 O86 2.105 . S
O69 Sc66 2.025 . S
O69 Sc67 2.025 . S
O69 Sc68 2.025 . S
C70 O76 1.268 . S
C70 O86 1.268 . S
C71 O77 1.268 . S
C71 O85 1.268 . S
C72 O78 1.268 . S
C72 O87 1.268 . S
C73 O79 1.268 . S
C73 O83 1.268 . S
C74 O80 1.268 . S
C74 O82 1.268 . S
C75 O81 1.268 . S
C75 O84 1.268 . S
O76 Sc66 2.105 . S
O76 C70 1.268 . S
O77 Sc67 2.105 . S
O77 C71 1.268 . S
O78 Sc68 2.105 . S
O78 C72 1.268 . S
O79 Sc66 2.105 . S
O79 C73 1.268 . S
O80 Sc68 2.105 . S
O80 C74 1.268 . S
O81 Sc67 2.105 . S
O81 C75 1.268 . S
O82 Sc66 2.105 . S
O82 C74 1.268 . S
O83 Sc67 2.105 . S
O83 C73 1.268 . S
O84 Sc68 2.105 . S
O84 C75 1.268 . S
O85 Sc66 2.105 . S
O85 C71 1.268 . S
O86 Sc68 2.105 . S
O86 C70 1.268 . S
O87 Sc67 2.105 . S
O87 C72 1.268 . S
H88 C95 0.929 . S
H89 C98 0.930 . S
H90 C100 0.929 . S
H91 C92 0.969 . S
C92 H91 0.969 . S
C92 O93 1.550 . S
C92 H94 0.973 . S
O93 C92 1.550 . S
O93 C99 1.412 . S
H94 C92 0.973 . S
C95 H88 0.929 . S
C95 C96 1.400 . S
C95 C97 1.364 . S
C96 C95 1.400 . S
C96 C100 1.377 . S
C97 C95 1.364 . S
C97 C98 1.374 . S
C98 H89 0.930 . S
C98 C97 1.374 . S
C98 C99 1.383 . S
C99 O93 1.412 . S
C99 C98 1.383 . S
C99 C100 1.394 . S
C100 H90 0.929 . S
C100 C96 1.377 . S
C100 C99 1.394 . S
H101 C108 0.929 . S
H102 C111 0.930 . S
H103 C113 0.929 . S
H104 C105 0.969 . S
C105 H104 0.969 . S
C105 O106 1.550 . S
C105 H107 0.973 . S
O106 C105 1.550 . S
O106 C112 1.412 . S
H107 C105 0.973 . S
C108 H101 0.929 . S
C108 C109 1.400 . S
C108 C110 1.364 . S
C109 C108 1.400 . S
C109 C113 1.377 . S
C110 C108 1.364 . S
C110 C111 1.374 . S
C111 H102 0.930 . S
C111 C110 1.374 . S
C111 C112 1.383 . S
C112 O106 1.412 . S
C112 C111 1.383 . S
C112 C113 1.394 . S
C113 H103 0.929 . S
C113 C109 1.377 . S
C113 C112 1.394 . S
H114 C121 0.929 . S
H115 C124 0.930 . S
H116 C126 0.929 . S
H117 C118 0.969 . S
C118 H117 0.969 . S
C118 O119 1.550 . S
C118 H120 0.973 . S
O119 C118 1.550 . S
O119 C125 1.412 . S
H120 C118 0.973 . S
C121 H114 0.929 . S
C121 C122 1.400 . S
C121 C123 1.364 . S
C122 C121 1.400 . S
C122 C126 1.377 . S
C123 C121 1.364 . S
C123 C124 1.374 . S
C124 H115 0.930 . S
C124 C123 1.374 . S
C124 C125 1.383 . S
C125 O119 1.412 . S
C125 C124 1.383 . S
C125 C126 1.394 . S
C126 H116 0.929 . S
C126 C122 1.377 . S
C126 C125 1.394 . S
H127 C134 0.929 . S
H128 C137 0.930 . S
H129 C139 0.929 . S
H130 C131 0.969 . S
C131 H130 0.969 . S
C131 O132 1.550 . S
C131 H133 0.973 . S
O132 C131 1.550 . S
O132 C138 1.412 . S
H133 C131 0.973 . S
C134 H127 0.929 . S
C134 C135 1.400 . S
C134 C136 1.364 . S
C135 C134 1.400 . S
C135 C139 1.377 . S
C136 C134 1.364 . S
C136 C137 1.374 . S
C137 H128 0.930 . S
C137 C136 1.374 . S
C137 C138 1.383 . S
C138 O132 1.412 . S
C138 C137 1.383 . S
C138 C139 1.394 . S
C139 H129 0.929 . S
C139 C135 1.377 . S
C139 C138 1.394 . S
H140 C147 0.929 . S
H141 C150 0.930 . S
H142 C152 0.929 . S
H143 C144 0.969 . S
C144 H143 0.969 . S
C144 O145 1.550 . S
C144 H146 0.973 . S
O145 C144 1.550 . S
O145 C151 1.412 . S
H146 C144 0.973 . S
C147 H140 0.929 . S
C147 C148 1.400 . S
C147 C149 1.364 . S
C148 C147 1.400 . S
C148 C152 1.377 . S
C149 C147 1.364 . S
C149 C150 1.374 . S
C150 H141 0.930 . S
C150 C149 1.374 . S
C150 C151 1.383 . S
C151 O145 1.412 . S
C151 C150 1.383 . S
C151 C152 1.394 . S
C152 H142 0.929 . S
C152 C148 1.377 . S
C152 C151 1.394 . S
H153 C160 0.929 . S
H154 C163 0.930 . S
H155 C165 0.929 . S
H156 C157 0.969 . S
C157 H156 0.969 . S
C157 O158 1.550 . S
C157 H159 0.973 . S
O158 C157 1.550 . S
O158 C164 1.412 . S
H159 C157 0.973 . S
C160 H153 0.929 . S
C160 C161 1.400 . S
C160 C162 1.364 . S
C161 C160 1.400 . S
C161 C165 1.377 . S
C162 C160 1.364 . S
C162 C163 1.374 . S
C163 H154 0.930 . S
C163 C162 1.374 . S
C163 C164 1.383 . S
C164 O158 1.412 . S
C164 C163 1.383 . S
C164 C165 1.394 . S
C165 H155 0.929 . S
C165 C161 1.377 . S
C165 C164 1.394 . S
H166 C173 0.929 . S
H167 C176 0.930 . S
H168 C178 0.929 . S
H169 C170 0.969 . S
C170 H169 0.969 . S
C170 O171 1.550 . S
C170 H172 0.973 . S
O171 C170 1.550 . S
O171 C177 1.412 . S
H172 C170 0.973 . S
C173 H166 0.929 . S
C173 C174 1.400 . S
C173 C175 1.364 . S
C174 C173 1.400 . S
C174 C178 1.377 . S
C175 C173 1.364 . S
C175 C176 1.374 . S
C176 H167 0.930 . S
C176 C175 1.374 . S
C176 C177 1.383 . S
C177 O171 1.412 . S
C177 C176 1.383 . S
C177 C178 1.394 . S
C178 H168 0.929 . S
C178 C174 1.377 . S
C178 C177 1.394 . S
H179 C186 0.929 . S
H180 C189 0.930 . S
H181 C191 0.929 . S
H182 C183 0.969 . S
C183 H182 0.969 . S
C183 O184 1.550 . S
C183 H185 0.973 . S
O184 C183 1.550 . S
O184 C190 1.412 . S
H185 C183 0.973 . S
C186 H179 0.929 . S
C186 C187 1.400 . S
C186 C188 1.364 . S
C187 C186 1.400 . S
C187 C191 1.377 . S
C188 C186 1.364 . S
C188 C189 1.374 . S
C189 H180 0.930 . S
C189 C188 1.374 . S
C189 C190 1.383 . S
C190 O184 1.412 . S
C190 C189 1.383 . S
C190 C191 1.394 . S
C191 H181 0.929 . S
C191 C187 1.377 . S
C191 C190 1.394 . S
H192 C210 0.951 . S
H193 C212 0.951 . S
H194 C214 0.950 . S
H195 C215 0.950 . S
H196 C217 0.950 . S
H197 C220 0.950 . S
H198 C221 0.950 . S
H199 C223 0.950 . S
H200 C224 0.950 . S
H201 C225 0.951 . S
H202 C227 0.951 1_565 S
H203 C229 0.950 . S
H204 C230 0.950 . S
H205 C232 0.950 . S
H206 C235 0.950 . S
H207 C236 0.950 . S
H208 C238 0.950 . S
H209 C239 0.950 . S
C210 H192 0.951 . S
C210 C211 1.366 . S
C210 C212 1.388 . S
C211 C210 1.366 . S
C211 C215 1.385 . S
C212 H193 0.951 . S
C212 C210 1.388 . S
C212 C213 1.366 . S
C213 C212 1.366 . S
C213 C214 1.414 . S
C213 C216 1.499 . S
C214 H194 0.950 . S
C214 C213 1.414 . S
C214 C215 1.374 . S
C215 H195 0.950 . S
C215 C211 1.385 . S
C215 C214 1.374 . S
C216 C213 1.499 . S
C216 C217 1.373 . S
C216 C218 1.389 . S
C217 H196 0.950 . S
C217 C216 1.373 . S
C217 C233 1.377 . S
C218 C216 1.389 . S
C218 C219 1.524 . S
C218 C232 1.377 . S
C219 C218 1.524 . S
C219 C220 1.397 . S
C219 C224 1.363 . S
C220 H197 0.950 . S
C220 C219 1.397 . S
C220 C221 1.334 . S
C221 H198 0.950 . S
C221 C220 1.334 . S
C221 C222 1.287 . S
C222 C221 1.287 . S
C222 C223 1.524 . S
C222 H241 0.913 . S
C223 H199 0.950 . S
C223 C222 1.524 . S
C223 C224 1.415 . S
C224 H200 0.950 . S
C224 C219 1.363 . S
C224 C223 1.415 . S
C225 H201 0.951 . S
C225 C226 1.366 . S
C225 C227 1.388 . S
C226 C225 1.366 . S
C226 C230 1.385 . S
C227 H202 0.951 1_545 S
C227 C225 1.388 . S
C227 C228 1.366 . S
C228 C227 1.366 . S
C228 C229 1.414 . S
C228 C231 1.499 1_545 S
C229 H203 0.950 . S
C229 C228 1.414 . S
C229 C230 1.374 . S
C230 H204 0.950 . S
C230 C226 1.385 . S
C230 C229 1.374 . S
C231 C228 1.499 1_565 S
C231 C232 1.373 . S
C231 C233 1.389 . S
C232 H205 0.950 . S
C232 C218 1.377 . S
C232 C231 1.373 . S
C233 C217 1.377 . S
C233 C231 1.389 . S
C233 C234 1.524 1_565 S
C234 C233 1.524 1_545 S
C234 C235 1.397 . S
C234 C239 1.363 1_545 S
C235 H206 0.950 . S
C235 C234 1.397 . S
C235 C236 1.334 . S
C236 H207 0.950 . S
C236 C235 1.334 . S
C236 C237 1.287 . S
C237 C236 1.287 . S
C237 C238 1.524 . S
C237 H240 0.999 . S
C238 H208 0.950 . S
C238 C237 1.524 . S
C238 C239 1.415 1_545 S
C239 H209 0.950 . S
C239 C234 1.363 1_565 S
C239 C238 1.415 1_565 S
H240 C237 0.999 . S
H241 C222 0.913 . S
H242 C260 0.951 . S
H243 C262 0.951 . S
H244 C264 0.950 . S
H245 C265 0.950 . S
H246 C267 0.950 . S
H247 C270 0.950 . S
H248 C271 0.950 . S
H249 C273 0.950 . S
H250 C274 0.950 . S
H251 C275 0.951 . S
H252 C277 0.951 . S
H253 C279 0.950 . S
H254 C280 0.950 . S
H255 C282 0.950 . S
H256 C285 0.950 . S
H257 C286 0.950 . S
H258 C288 0.950 . S
H259 C289 0.950 . S
C260 H242 0.951 . S
C260 C261 1.366 . S
C260 C262 1.388 . S
C261 C260 1.366 . S
C261 C265 1.385 . S
C262 H243 0.951 . S
C262 C260 1.388 . S
C262 C263 1.366 . S
C263 C262 1.366 . S
C263 C264 1.414 . S
C263 C266 1.499 . S
C264 H244 0.950 . S
C264 C263 1.414 . S
C264 C265 1.374 . S
C265 H245 0.950 . S
C265 C261 1.385 . S
C265 C264 1.374 . S
C266 C263 1.499 . S
C266 C267 1.373 . S
C266 C268 1.389 . S
C267 H246 0.950 . S
C267 C266 1.373 . S
C267 C283 1.377 . S
C268 C266 1.389 . S
C268 C269 1.524 . S
C268 C282 1.377 . S
C269 C268 1.524 . S
C269 C270 1.397 . S
C269 C274 1.363 . S
C270 H247 0.950 . S
C270 C269 1.397 . S
C270 C271 1.334 . S
C271 H248 0.950 . S
C271 C270 1.334 . S
C271 C272 1.287 . S
C272 C271 1.287 . S
C272 C273 1.524 . S
C272 H291 0.913 . S
C273 H249 0.950 . S
C273 C272 1.524 . S
C273 C274 1.415 . S
C274 H250 0.950 . S
C274 C269 1.363 . S
C274 C273 1.415 . S
C275 H251 0.951 . S
C275 C276 1.366 . S
C275 C277 1.388 . S
C276 C275 1.366 . S
C276 C280 1.385 . S
C277 H252 0.951 . S
C277 C275 1.388 . S
C277 C278 1.366 . S
C278 C277 1.366 . S
C278 C279 1.414 . S
C278 C281 1.499 . S
C279 H253 0.950 . S
C279 C278 1.414 . S
C279 C280 1.374 . S
C280 H254 0.950 . S
C280 C276 1.385 . S
C280 C279 1.374 . S
C281 C278 1.499 . S
C281 C282 1.373 . S
C281 C283 1.389 . S
C282 H255 0.950 . S
C282 C268 1.377 . S
C282 C281 1.373 . S
C283 C267 1.377 . S
C283 C281 1.389 . S
C283 C284 1.524 . S
C284 C283 1.524 . S
C284 C285 1.397 . S
C284 C289 1.363 . S
C285 H256 0.950 . S
C285 C284 1.397 . S
C285 C286 1.334 . S
C286 H257 0.950 . S
C286 C285 1.334 . S
C286 C287 1.287 . S
C287 C286 1.287 . S
C287 C288 1.524 . S
C287 H290 0.999 . S
C288 H258 0.950 . S
C288 C287 1.524 . S
C288 C289 1.415 . S
C289 H259 0.950 . S
C289 C284 1.363 . S
C289 C288 1.415 . S
H290 C287 0.999 . S
H291 C272 0.913 . S
H292 C310 0.951 . S
H293 C312 0.951 . S
H294 C314 0.950 . S
H295 C315 0.950 . S
H296 C317 0.950 . S
H297 C320 0.950 . S
H298 C321 0.950 . S
H299 C323 0.950 . S
H300 C324 0.950 1_565 S
H301 C325 0.951 . S
H302 C327 0.951 . S
H303 C329 0.950 . S
H304 C330 0.950 . S
H305 C332 0.950 . S
H306 C335 0.950 . S
H307 C336 0.950 . S
H308 C338 0.950 . S
H309 C339 0.950 . S
C310 H292 0.951 . S
C310 C311 1.366 . S
C310 C312 1.388 . S
C311 C310 1.366 . S
C311 C315 1.385 . S
C312 H293 0.951 . S
C312 C310 1.388 . S
C312 C313 1.366 . S
C313 C312 1.366 . S
C313 C314 1.414 . S
C313 C316 1.499 1_545 S
C314 H294 0.950 . S
C314 C313 1.414 . S
C314 C315 1.374 . S
C315 H295 0.950 . S
C315 C311 1.385 . S
C315 C314 1.374 . S
C316 C313 1.499 1_565 S
C316 C317 1.373 . S
C316 C318 1.389 . S
C317 H296 0.950 . S
C317 C316 1.373 . S
C317 C333 1.377 . S
C318 C316 1.389 . S
C318 C319 1.524 1_565 S
C318 C332 1.377 . S
C319 C318 1.524 1_545 S
C319 C320 1.397 . S
C319 C324 1.363 . S
C320 H297 0.950 . S
C320 C319 1.397 . S
C320 C321 1.334 . S
C321 H298 0.950 . S
C321 C320 1.334 . S
C321 C322 1.287 . S
C322 C321 1.287 . S
C322 C323 1.524 . S
C322 H341 0.913 . S
C323 H299 0.950 . S
C323 C322 1.524 . S
C323 C324 1.415 . S
C324 H300 0.950 1_545 S
C324 C319 1.363 . S
C324 C323 1.415 . S
C325 H301 0.951 . S
C325 C326 1.366 . S
C325 C327 1.388 . S
C326 C325 1.366 . S
C326 C330 1.385 . S
C327 H302 0.951 . S
C327 C325 1.388 . S
C327 C328 1.366 . S
C328 C327 1.366 . S
C328 C329 1.414 . S
C328 C331 1.499 . S
C329 H303 0.950 . S
C329 C328 1.414 . S
C329 C330 1.374 . S
C330 H304 0.950 . S
C330 C326 1.385 . S
C330 C329 1.374 . S
C331 C328 1.499 . S
C331 C332 1.373 . S
C331 C333 1.389 . S
C332 H305 0.950 . S
C332 C318 1.377 . S
C332 C331 1.373 . S
C333 C317 1.377 . S
C333 C331 1.389 . S
C333 C334 1.524 . S
C334 C333 1.524 . S
C334 C335 1.397 . S
C334 C339 1.363 . S
C335 H306 0.950 . S
C335 C334 1.397 . S
C335 C336 1.334 . S
C336 H307 0.950 . S
C336 C335 1.334 . S
C336 C337 1.287 . S
C337 C336 1.287 . S
C337 C338 1.524 . S
C337 H340 0.999 . S
C338 H308 0.950 . S
C338 C337 1.524 . S
C338 C339 1.415 . S
C339 H309 0.950 . S
C339 C334 1.363 . S
C339 C338 1.415 . S
H340 C337 0.999 . S
H341 C322 0.913 . S
H342 C360 0.951 . S
H343 C362 0.951 . S
H344 C364 0.950 . S
H345 C365 0.950 . S
H346 C367 0.950 . S
H347 C370 0.950 . S
H348 C371 0.950 . S
H349 C373 0.950 . S
H350 C374 0.950 . S
H351 C375 0.951 . S
H352 C377 0.951 . S
H353 C379 0.950 . S
H354 C380 0.950 . S
H355 C382 0.950 . S
H356 C385 0.950 . S
H357 C386 0.950 . S
H358 C388 0.950 . S
H359 C389 0.950 . S
C360 H342 0.951 . S
C360 C361 1.366 . S
C360 C362 1.388 . S
C361 C360 1.366 . S
C361 C365 1.385 . S
C362 H343 0.951 . S
C362 C360 1.388 . S
C362 C363 1.366 . S
C363 C362 1.366 . S
C363 C364 1.414 . S
C363 C366 1.499 . S
C364 H344 0.950 . S
C364 C363 1.414 . S
C364 C365 1.374 . S
C365 H345 0.950 . S
C365 C361 1.385 . S
C365 C364 1.374 . S
C366 C363 1.499 . S
C366 C367 1.373 . S
C366 C368 1.389 . S
C367 H346 0.950 . S
C367 C366 1.373 . S
C367 C383 1.377 . S
C368 C366 1.389 . S
C368 C369 1.524 . S
C368 C382 1.377 . S
C369 C368 1.524 . S
C369 C370 1.397 . S
C369 C374 1.363 . S
C370 H347 0.950 . S
C370 C369 1.397 . S
C370 C371 1.334 . S
C371 H348 0.950 . S
C371 C370 1.334 . S
C371 C372 1.287 . S
C372 C371 1.287 . S
C372 C373 1.524 . S
C372 H391 0.913 . S
C373 H349 0.950 . S
C373 C372 1.524 . S
C373 C374 1.415 . S
C374 H350 0.950 . S
C374 C369 1.363 . S
C374 C373 1.415 . S
C375 H351 0.951 . S
C375 C376 1.366 . S
C375 C377 1.388 . S
C376 C375 1.366 . S
C376 C380 1.385 . S
C377 H352 0.951 . S
C377 C375 1.388 . S
C377 C378 1.366 . S
C378 C377 1.366 . S
C378 C379 1.414 . S
C378 C381 1.499 . S
C379 H353 0.950 . S
C379 C378 1.414 . S
C379 C380 1.374 . S
C380 H354 0.950 . S
C380 C376 1.385 . S
C380 C379 1.374 . S
C381 C378 1.499 . S
C381 C382 1.373 . S
C381 C383 1.389 . S
C382 H355 0.950 . S
C382 C368 1.377 . S
C382 C381 1.373 . S
C383 C367 1.377 . S
C383 C381 1.389 . S
C383 C384 1.524 . S
C384 C383 1.524 . S
C384 C385 1.397 . S
C384 C389 1.363 . S
C385 H356 0.950 . S
C385 C384 1.397 . S
C385 C386 1.334 . S
C386 H357 0.950 . S
C386 C385 1.334 . S
C386 C387 1.287 . S
C387 C386 1.287 . S
C387 C388 1.524 . S
C387 H390 0.999 . S
C388 H358 0.950 . S
C388 C387 1.524 . S
C388 C389 1.415 . S
C389 H359 0.950 . S
C389 C384 1.363 . S
C389 C388 1.415 . S
H390 C387 0.999 . S
H391 C372 0.913 . S
H392 C410 0.951 . S
H393 C412 0.951 . S
H394 C414 0.950 . S
H395 C415 0.950 . S
H396 C417 0.950 . S
H397 C420 0.950 . S
H398 C421 0.950 . S
H399 C423 0.950 . S
H400 C424 0.950 . S
H401 C425 0.951 . S
H402 C427 0.951 . S
H403 C429 0.950 . S
H404 C430 0.950 . S
H405 C432 0.950 . S
H406 C435 0.950 . S
H407 C436 0.950 . S
H408 C438 0.950 . S
H409 C439 0.950 . S
C410 H392 0.951 . S
C410 C411 1.366 . S
C410 C412 1.388 . S
C411 C410 1.366 . S
C411 C415 1.385 . S
C412 H393 0.951 . S
C412 C410 1.388 . S
C412 C413 1.366 . S
C413 C412 1.366 . S
C413 C414 1.414 . S
C413 C416 1.499 . S
C414 H394 0.950 . S
C414 C413 1.414 . S
C414 C415 1.374 . S
C415 H395 0.950 . S
C415 C411 1.385 . S
C415 C414 1.374 . S
C416 C413 1.499 . S
C416 C417 1.373 . S
C416 C418 1.389 . S
C417 H396 0.950 . S
C417 C416 1.373 . S
C417 C433 1.377 . S
C418 C416 1.389 . S
C418 C419 1.524 . S
C418 C432 1.377 . S
C419 C418 1.524 . S
C419 C420 1.397 . S
C419 C424 1.363 . S
C420 H397 0.950 . S
C420 C419 1.397 . S
C420 C421 1.334 . S
C421 H398 0.950 . S
C421 C420 1.334 . S
C421 C422 1.287 . S
C422 C421 1.287 . S
C422 C423 1.524 . S
C422 H441 0.913 . S
C423 H399 0.950 . S
C423 C422 1.524 . S
C423 C424 1.415 . S
C424 H400 0.950 . S
C424 C419 1.363 . S
C424 C423 1.415 . S
C425 H401 0.951 . S
C425 C426 1.366 . S
C425 C427 1.388 . S
C426 C425 1.366 . S
C426 C430 1.385 . S
C427 H402 0.951 . S
C427 C425 1.388 . S
C427 C428 1.366 . S
C428 C427 1.366 . S
C428 C429 1.414 . S
C428 C431 1.499 . S
C429 H403 0.950 . S
C429 C428 1.414 . S
C429 C430 1.374 . S
C430 H404 0.950 . S
C430 C426 1.385 . S
C430 C429 1.374 . S
C431 C428 1.499 . S
C431 C432 1.373 . S
C431 C433 1.389 . S
C432 H405 0.950 . S
C432 C418 1.377 . S
C432 C431 1.373 . S
C433 C417 1.377 . S
C433 C431 1.389 . S
C433 C434 1.524 . S
C434 C433 1.524 . S
C434 C435 1.397 . S
C434 C439 1.363 . S
C435 H406 0.950 . S
C435 C434 1.397 . S
C435 C436 1.334 . S
C436 H407 0.950 . S
C436 C435 1.334 . S
C436 C437 1.287 . S
C437 C436 1.287 . S
C437 C438 1.524 . S
C437 H440 0.999 . S
C438 H408 0.950 . S
C438 C437 1.524 . S
C438 C439 1.415 . S
C439 H409 0.950 . S
C439 C434 1.363 . S
C439 C438 1.415 . S
H440 C437 0.999 . S
H441 C422 0.913 . S
H442 C460 0.951 1_554 S
H443 C462 0.951 1_455 S
H444 C464 0.950 . S
H445 C465 0.950 . S
H446 C467 0.950 1_655 S
H447 C470 0.950 . S
H448 C471 0.950 . S
H449 C473 0.950 . S
H450 C474 0.950 1_556 S
H451 C475 0.951 . S
H452 C477 0.951 . S
H453 C479 0.950 . S
H454 C480 0.950 . S
H455 C482 0.950 . S
H456 C485 0.950 . S
H457 C486 0.950 . S
H458 C488 0.950 1_655 S
H459 C489 0.950 1_655 S
C460 H442 0.951 1_556 S
C460 C461 1.366 . S
C460 C462 1.388 . S
C461 C460 1.366 . S
C461 C465 1.385 . S
C462 H443 0.951 1_655 S
C462 C460 1.388 . S
C462 C463 1.366 . S
C463 C462 1.366 . S
C463 C464 1.414 . S
C463 C466 1.499 1_655 S
C464 H444 0.950 . S
C464 C463 1.414 . S
C464 C465 1.374 . S
C465 H445 0.950 . S
C465 C461 1.385 . S
C465 C464 1.374 . S
C466 C463 1.499 1_455 S
C466 C467 1.373 . S
C466 C468 1.389 . S
C467 H446 0.950 1_455 S
C467 C466 1.373 . S
C467 C483 1.377 . S
C468 C466 1.389 . S
C468 C469 1.524 . S
C468 C482 1.377 . S
C469 C468 1.524 . S
C469 C470 1.397 . S
C469 C474 1.363 1_556 S
C470 H447 0.950 . S
C470 C469 1.397 . S
C470 C471 1.334 1_556 S
C471 H448 0.950 . S
C471 C470 1.334 1_554 S
C471 C472 1.287 . S
C472 C471 1.287 . S
C472 C473 1.524 . S
C472 H491 0.913 . S
C473 H449 0.950 . S
C473 C472 1.524 . S
C473 C474 1.415 . S
C474 H450 0.950 1_554 S
C474 C469 1.363 1_554 S
C474 C473 1.415 . S
C475 H451 0.951 . S
C475 C476 1.366 . S
C475 C477 1.388 . S
C476 C475 1.366 . S
C476 C480 1.385 . S
C477 H452 0.951 . S
C477 C475 1.388 . S
C477 C478 1.366 . S
C478 C477 1.366 . S
C478 C479 1.414 . S
C478 C481 1.499 . S
C479 H453 0.950 . S
C479 C478 1.414 . S
C479 C480 1.374 . S
C480 H454 0.950 . S
C480 C476 1.385 . S
C480 C479 1.374 . S
C481 C478 1.499 . S
C481 C482 1.373 . S
C481 C483 1.389 . S
C482 H455 0.950 . S
C482 C468 1.377 . S
C482 C481 1.373 . S
C483 C467 1.377 . S
C483 C481 1.389 . S
C483 C484 1.524 . S
C484 C483 1.524 . S
C484 C485 1.397 . S
C484 C489 1.363 . S
C485 H456 0.950 . S
C485 C484 1.397 . S
C485 C486 1.334 . S
C486 H457 0.950 . S
C486 C485 1.334 . S
C486 C487 1.287 . S
C487 C486 1.287 . S
C487 C488 1.524 . S
C487 H490 0.999 . S
C488 H458 0.950 1_455 S
C488 C487 1.524 . S
C488 C489 1.415 . S
C489 H459 0.950 1_455 S
C489 C484 1.363 . S
C489 C488 1.415 . S
H490 C487 0.999 . S
H491 C472 0.913 . S
H492 C510 0.951 . S
H493 C512 0.951 . S
H494 C514 0.950 . S
H495 C515 0.950 . S
H496 C517 0.950 . S
H497 C520 0.950 . S
H498 C521 0.950 . S
H499 C523 0.950 . S
H500 C524 0.950 . S
H501 C525 0.951 . S
H502 C527 0.951 . S
H503 C529 0.950 . S
H504 C530 0.950 . S
H505 C532 0.950 . S
H506 C535 0.950 . S
H507 C536 0.950 . S
H508 C538 0.950 . S
H509 C539 0.950 . S
C510 H492 0.951 . S
C510 C511 1.366 . S
C510 C512 1.388 . S
C511 C510 1.366 . S
C511 C515 1.385 . S
C512 H493 0.951 . S
C512 C510 1.388 . S
C512 C513 1.366 . S
C513 C512 1.366 . S
C513 C514 1.414 . S
C513 C516 1.499 . S
C514 H494 0.950 . S
C514 C513 1.414 . S
C514 C515 1.374 . S
C515 H495 0.950 . S
C515 C511 1.385 . S
C515 C514 1.374 . S
C516 C513 1.499 . S
C516 C517 1.373 . S
C516 C518 1.389 . S
C517 H496 0.950 . S
C517 C516 1.373 . S
C517 C533 1.377 . S
C518 C516 1.389 . S
C518 C519 1.524 . S
C518 C532 1.377 . S
C519 C518 1.524 . S
C519 C520 1.397 . S
C519 C524 1.363 . S
C520 H497 0.950 . S
C520 C519 1.397 . S
C520 C521 1.334 . S
C521 H498 0.950 . S
C521 C520 1.334 . S
C521 C522 1.287 . S
C522 C521 1.287 . S
C522 C523 1.524 . S
C522 H541 0.913 . S
C523 H499 0.950 . S
C523 C522 1.524 . S
C523 C524 1.415 . S
C524 H500 0.950 . S
C524 C519 1.363 . S
C524 C523 1.415 . S
C525 H501 0.951 . S
C525 C526 1.366 . S
C525 C527 1.388 . S
C526 C525 1.366 . S
C526 C530 1.385 . S
C527 H502 0.951 . S
C527 C525 1.388 . S
C527 C528 1.366 . S
C528 C527 1.366 . S
C528 C529 1.414 . S
C528 C531 1.499 . S
C529 H503 0.950 . S
C529 C528 1.414 . S
C529 C530 1.374 . S
C530 H504 0.950 . S
C530 C526 1.385 . S
C530 C529 1.374 . S
C531 C528 1.499 . S
C531 C532 1.373 . S
C531 C533 1.389 . S
C532 H505 0.950 . S
C532 C518 1.377 . S
C532 C531 1.373 . S
C533 C517 1.377 . S
C533 C531 1.389 . S
C533 C534 1.524 . S
C534 C533 1.524 . S
C534 C535 1.397 . S
C534 C539 1.363 . S
C535 H506 0.950 . S
C535 C534 1.397 . S
C535 C536 1.334 . S
C536 H507 0.950 . S
C536 C535 1.334 . S
C536 C537 1.287 . S
C537 C536 1.287 . S
C537 C538 1.524 . S
C537 H540 0.999 . S
C538 H508 0.950 . S
C538 C537 1.524 . S
C538 C539 1.415 . S
C539 H509 0.950 . S
C539 C534 1.363 . S
C539 C538 1.415 . S
H540 C537 0.999 . S
H541 C522 0.913 . S
H542 C560 0.951 . S
H543 C562 0.951 . S
H544 C564 0.950 . S
H545 C565 0.950 . S
H546 C567 0.947 1_455 S
H547 C570 0.950 . S
H548 C571 0.950 . S
H549 C573 0.950 . S
H550 C574 0.950 . S
H551 C575 0.951 . S
H552 C577 0.951 . S
H553 C579 0.950 . S
H554 C580 0.950 . S
H555 C582 0.950 . S
H556 C585 0.950 . S
H557 C586 0.950 . S
H558 C588 0.950 . S
H559 C589 0.950 . S
C560 H542 0.951 . S
C560 C561 1.366 . S
C560 C562 1.388 . S
C561 C560 1.366 . S
C561 C565 1.385 . S
C562 H543 0.951 . S
C562 C560 1.388 . S
C562 C563 1.366 . S
C563 C562 1.366 . S
C563 C564 1.414 . S
C563 C566 1.499 1_455 S
C564 H544 0.950 . S
C564 C563 1.414 . S
C564 C565 1.374 . S
C565 H545 0.950 . S
C565 C561 1.385 . S
C565 C564 1.374 . S
C566 C563 1.499 1_655 S
C566 C567 1.373 . S
C566 C568 1.389 . S
C567 H546 0.947 1_655 S
C567 C566 1.373 . S
C567 C583 1.377 . S
C568 C566 1.389 . S
C568 C569 1.524 . S
C568 C582 1.377 . S
C569 C568 1.524 . S
C569 C570 1.397 . S
C569 C574 1.363 . S
C570 H547 0.950 . S
C570 C569 1.397 . S
C570 C571 1.334 . S
C571 H548 0.950 . S
C571 C570 1.334 . S
C571 C572 1.287 . S
C572 C571 1.287 . S
C572 C573 1.524 . S
C572 H591 0.913 . S
C573 H549 0.950 . S
C573 C572 1.524 . S
C573 C574 1.415 . S
C574 H550 0.950 . S
C574 C569 1.363 . S
C574 C573 1.415 . S
C575 H551 0.951 . S
C575 C576 1.366 . S
C575 C577 1.388 . S
C576 C575 1.366 . S
C576 C580 1.385 . S
C577 H552 0.951 . S
C577 C575 1.388 . S
C577 C578 1.366 . S
C578 C577 1.366 . S
C578 C579 1.414 . S
C578 C581 1.499 . S
C579 H553 0.950 . S
C579 C578 1.414 . S
C579 C580 1.374 . S
C580 H554 0.950 . S
C580 C576 1.385 . S
C580 C579 1.374 . S
C581 C578 1.499 . S
C581 C582 1.373 . S
C581 C583 1.389 . S
C582 H555 0.950 . S
C582 C568 1.377 . S
C582 C581 1.373 . S
C583 C567 1.377 . S
C583 C581 1.389 . S
C583 C584 1.524 . S
C584 C583 1.524 . S
C584 C585 1.397 . S
C584 C589 1.363 . S
C585 H556 0.950 . S
C585 C584 1.397 . S
C585 C586 1.334 . S
C586 H557 0.950 . S
C586 C585 1.334 . S
C586 C587 1.287 . S
C587 C586 1.287 . S
C587 C588 1.524 . S
C587 H590 0.999 . S
C588 H558 0.950 . S
C588 C587 1.524 . S
C588 C589 1.415 . S
C589 H559 0.950 . S
C589 C584 1.363 . S
C589 C588 1.415 . S
H590 C587 0.999 . S
H591 C572 0.913 . S
H592 C610 0.951 . S
H593 C612 0.951 . S
H594 C614 0.950 . S
H595 C615 0.950 . S
H596 C617 0.950 . S
H597 C620 0.950 . S
H598 C621 0.950 . S
H599 C623 0.950 . S
H600 C624 0.950 . S
H601 C625 0.951 . S
H602 C627 0.951 1_545 S
H603 C629 0.950 . S
H604 C630 0.950 . S
H605 C632 0.950 . S
H606 C635 0.950 . S
H607 C636 0.950 . S
H608 C638 0.967 . S
H609 C639 0.950 . S
C610 H592 0.951 . S
C610 C611 1.366 . S
C610 C612 1.388 . S
C611 C610 1.366 . S
C611 C615 1.385 . S
C612 H593 0.951 . S
C612 C610 1.388 . S
C612 C613 1.366 . S
C613 C612 1.366 . S
C613 C614 1.414 . S
C613 C616 1.499 . S
C614 H594 0.950 . S
C614 C613 1.414 . S
C614 C615 1.374 . S
C615 H595 0.950 . S
C615 C611 1.385 . S
C615 C614 1.374 . S
C616 C613 1.499 . S
C616 C617 1.373 . S
C616 C618 1.389 . S
C617 H596 0.950 . S
C617 C616 1.373 . S
C617 C633 1.377 . S
C618 C616 1.389 . S
C618 C619 1.524 . S
C618 C632 1.377 . S
C619 C618 1.524 . S
C619 C620 1.397 . S
C619 C624 1.363 . S
C620 H597 0.950 . S
C620 C619 1.397 . S
C620 C621 1.334 . S
C621 H598 0.950 . S
C621 C620 1.334 . S
C621 C622 1.287 . S
C622 C621 1.287 . S
C622 C623 1.524 . S
C622 H641 0.913 . S
C623 H599 0.950 . S
C623 C622 1.524 . S
C623 C624 1.415 . S
C624 H600 0.950 . S
C624 C619 1.363 . S
C624 C623 1.415 . S
C625 H601 0.951 . S
C625 C626 1.366 . S
C625 C627 1.388 . S
C626 C625 1.366 . S
C626 C630 1.385 . S
C627 H602 0.951 1_565 S
C627 C625 1.388 . S
C627 C628 1.366 . S
C628 C627 1.366 . S
C628 C629 1.414 . S
C628 C631 1.499 1_565 S
C629 H603 0.950 . S
C629 C628 1.414 . S
C629 C630 1.374 . S
C630 H604 0.950 . S
C630 C626 1.385 . S
C630 C629 1.374 . S
C631 C628 1.499 1_545 S
C631 C632 1.373 . S
C631 C633 1.389 . S
C632 H605 0.950 . S
C632 C618 1.377 . S
C632 C631 1.373 . S
C633 C617 1.377 . S
C633 C631 1.389 . S
C633 C634 1.524 1_545 S
C634 C633 1.524 1_565 S
C634 C635 1.397 . S
C634 C639 1.363 1_565 S
C635 H606 0.950 . S
C635 C634 1.397 . S
C635 C636 1.334 . S
C636 H607 0.950 . S
C636 C635 1.334 . S
C636 C637 1.287 . S
C637 C636 1.287 . S
C637 C638 1.524 . S
C637 H640 0.999 . S
C638 H608 0.967 . S
C638 C637 1.524 . S
C638 C639 1.415 1_565 S
C639 H609 0.950 . S
C639 C634 1.363 1_545 S
C639 C638 1.415 1_545 S
H640 C637 0.999 . S
H641 C622 0.913 . S
H642 C660 0.951 . S
H643 C662 0.951 . S
H644 C664 0.950 . S
H645 C665 0.950 . S
H646 C667 0.950 . S
H647 C670 0.950 . S
H648 C671 0.950 . S
H649 C673 0.950 . S
H650 C674 0.950 . S
H651 C675 0.951 . S
H652 C677 0.951 . S
H653 C679 0.950 . S
H654 C680 0.950 . S
H655 C682 0.950 . S
H656 C685 0.950 . S
H657 C686 0.950 . S
H658 C688 0.950 . S
H659 C689 0.950 . S
C660 H642 0.951 . S
C660 C661 1.366 . S
C660 C662 1.388 . S
C661 C660 1.366 . S
C661 C665 1.385 . S
C662 H643 0.951 . S
C662 C660 1.388 . S
C662 C663 1.366 . S
C663 C662 1.366 . S
C663 C664 1.414 . S
C663 C666 1.499 . S
C664 H644 0.950 . S
C664 C663 1.414 . S
C664 C665 1.374 . S
C665 H645 0.950 . S
C665 C661 1.385 . S
C665 C664 1.374 . S
C666 C663 1.499 . S
C666 C667 1.373 . S
C666 C668 1.389 . S
C667 H646 0.950 . S
C667 C666 1.373 . S
C667 C683 1.377 . S
C668 C666 1.389 . S
C668 C669 1.524 . S
C668 C682 1.377 . S
C669 C668 1.524 . S
C669 C670 1.397 . S
C669 C674 1.363 . S
C670 H647 0.950 . S
C670 C669 1.397 . S
C670 C671 1.334 . S
C671 H648 0.950 . S
C671 C670 1.334 . S
C671 C672 1.287 . S
C672 C671 1.287 . S
C672 C673 1.524 . S
C672 H691 0.913 . S
C673 H649 0.950 . S
C673 C672 1.524 . S
C673 C674 1.415 . S
C674 H650 0.950 . S
C674 C669 1.363 . S
C674 C673 1.415 . S
C675 H651 0.951 . S
C675 C676 1.366 . S
C675 C677 1.388 . S
C676 C675 1.366 . S
C676 C680 1.385 . S
C677 H652 0.951 . S
C677 C675 1.388 . S
C677 C678 1.366 . S
C678 C677 1.366 . S
C678 C679 1.414 . S
C678 C681 1.499 . S
C679 H653 0.950 . S
C679 C678 1.414 . S
C679 C680 1.374 . S
C680 H654 0.950 . S
C680 C676 1.385 . S
C680 C679 1.374 . S
C681 C678 1.499 . S
C681 C682 1.373 . S
C681 C683 1.389 . S
C682 H655 0.950 . S
C682 C668 1.377 . S
C682 C681 1.373 . S
C683 C667 1.377 . S
C683 C681 1.389 . S
C683 C684 1.524 . S
C684 C683 1.524 . S
C684 C685 1.397 . S
C684 C689 1.363 . S
C685 H656 0.950 . S
C685 C684 1.397 . S
C685 C686 1.334 . S
C686 H657 0.950 . S
C686 C685 1.334 . S
C686 C687 1.287 . S
C687 C686 1.287 . S
C687 C688 1.524 . S
C687 H690 0.999 . S
C688 H658 0.950 . S
C688 C687 1.524 . S
C688 C689 1.415 . S
C689 H659 0.950 . S
C689 C684 1.363 . S
C689 C688 1.415 . S
H690 C687 0.999 . S
H691 C672 0.913 . S
H692 C710 0.951 . S
H693 C712 0.951 . S
H694 C714 0.950 . S
H695 C715 0.950 . S
H696 C717 0.950 . S
H697 C720 0.950 . S
H698 C721 0.950 . S
H699 C723 0.950 . S
H700 C724 0.950 . S
H701 C725 0.951 . S
H702 C727 0.951 . S
H703 C729 0.950 . S
H704 C730 0.950 . S
H705 C732 0.950 . S
H706 C735 0.950 . S
H707 C736 0.950 . S
H708 C738 0.950 1_554 S
H709 C739 0.950 . S
C710 H692 0.951 . S
C710 C711 1.366 . S
C710 C712 1.388 . S
C711 C710 1.366 . S
C711 C715 1.385 . S
C712 H693 0.951 . S
C712 C710 1.388 . S
C712 C713 1.366 . S
C713 C712 1.366 . S
C713 C714 1.414 . S
C713 C716 1.499 1_565 S
C714 H694 0.950 . S
C714 C713 1.414 . S
C714 C715 1.374 . S
C715 H695 0.950 . S
C715 C711 1.385 . S
C715 C714 1.374 . S
C716 C713 1.499 1_545 S
C716 C717 1.373 . S
C716 C718 1.389 . S
C717 H696 0.950 . S
C717 C716 1.373 . S
C717 C733 1.377 . S
C718 C716 1.389 . S
C718 C719 1.524 1_545 S
C718 C732 1.377 . S
C719 C718 1.524 1_565 S
C719 C720 1.397 . S
C719 C724 1.363 . S
C720 H697 0.950 . S
C720 C719 1.397 . S
C720 C721 1.334 . S
C721 H698 0.950 . S
C721 C720 1.334 . S
C721 C722 1.287 . S
C722 C721 1.287 . S
C722 C723 1.524 . S
C722 H741 0.913 . S
C723 H699 0.950 . S
C723 C722 1.524 . S
C723 C724 1.415 . S
C724 H700 0.950 . S
C724 C719 1.363 . S
C724 C723 1.415 . S
C725 H701 0.951 . S
C725 C726 1.366 . S
C725 C727 1.388 . S
C726 C725 1.366 . S
C726 C730 1.385 . S
C727 H702 0.951 . S
C727 C725 1.388 . S
C727 C728 1.366 . S
C728 C727 1.366 . S
C728 C729 1.414 . S
C728 C731 1.499 . S
C729 H703 0.950 . S
C729 C728 1.414 . S
C729 C730 1.374 . S
C730 H704 0.950 . S
C730 C726 1.385 . S
C730 C729 1.374 . S
C731 C728 1.499 . S
C731 C732 1.373 . S
C731 C733 1.389 . S
C732 H705 0.950 . S
C732 C718 1.377 . S
C732 C731 1.373 . S
C733 C717 1.377 . S
C733 C731 1.389 . S
C733 C734 1.524 . S
C734 C733 1.524 . S
C734 C735 1.397 . S
C734 C739 1.363 . S
C735 H706 0.950 . S
C735 C734 1.397 . S
C735 C736 1.334 . S
C736 H707 0.950 . S
C736 C735 1.334 . S
C736 C737 1.287 . S
C737 C736 1.287 . S
C737 C738 1.524 . S
C737 H740 0.999 . S
C738 H708 0.950 1_556 S
C738 C737 1.524 . S
C738 C739 1.415 . S
C739 H709 0.950 . S
C739 C734 1.363 . S
C739 C738 1.415 . S
H740 C737 0.999 . S
H741 C722 0.913 . S
H742 C760 0.951 . S
H743 C762 0.951 . S
H744 C764 0.950 . S
H745 C765 0.950 . S
H746 C767 0.950 . S
H747 C770 0.950 . S
H748 C771 0.950 . S
H749 C773 0.950 . S
H750 C774 0.950 . S
H751 C775 0.951 . S
H752 C777 0.951 . S
H753 C779 0.950 . S
H754 C780 0.950 . S
H755 C782 0.950 . S
H756 C785 0.950 . S
H757 C786 0.950 . S
H758 C788 0.950 . S
H759 C789 0.950 . S
C760 H742 0.951 . S
C760 C761 1.366 . S
C760 C762 1.388 . S
C761 C760 1.366 . S
C761 C765 1.385 . S
C762 H743 0.951 . S
C762 C760 1.388 . S
C762 C763 1.366 . S
C763 C762 1.366 . S
C763 C764 1.414 . S
C763 C766 1.499 . S
C764 H744 0.950 . S
C764 C763 1.414 . S
C764 C765 1.374 . S
C765 H745 0.950 . S
C765 C761 1.385 . S
C765 C764 1.374 . S
C766 C763 1.499 . S
C766 C767 1.373 . S
C766 C768 1.389 . S
C767 H746 0.950 . S
C767 C766 1.373 . S
C767 C783 1.377 . S
C768 C766 1.389 . S
C768 C769 1.524 . S
C768 C782 1.377 . S
C769 C768 1.524 . S
C769 C770 1.397 . S
C769 C774 1.363 . S
C770 H747 0.950 . S
C770 C769 1.397 . S
C770 C771 1.334 . S
C771 H748 0.950 . S
C771 C770 1.334 . S
C771 C772 1.287 . S
C772 C771 1.287 . S
C772 C773 1.524 . S
C772 H791 0.913 . S
C773 H749 0.950 . S
C773 C772 1.524 . S
C773 C774 1.415 . S
C774 H750 0.950 . S
C774 C769 1.363 . S
C774 C773 1.415 . S
C775 H751 0.951 . S
C775 C776 1.366 . S
C775 C777 1.388 . S
C776 C775 1.366 . S
C776 C780 1.385 . S
C777 H752 0.951 . S
C777 C775 1.388 . S
C777 C778 1.366 . S
C778 C777 1.366 . S
C778 C779 1.414 . S
C778 C781 1.499 . S
C779 H753 0.950 . S
C779 C778 1.414 . S
C779 C780 1.374 . S
C780 H754 0.950 . S
C780 C776 1.385 . S
C780 C779 1.374 . S
C781 C778 1.499 . S
C781 C782 1.373 . S
C781 C783 1.389 . S
C782 H755 0.950 . S
C782 C768 1.377 . S
C782 C781 1.373 . S
C783 C767 1.377 . S
C783 C781 1.389 . S
C783 C784 1.524 . S
C784 C783 1.524 . S
C784 C785 1.397 . S
C784 C789 1.363 . S
C785 H756 0.950 . S
C785 C784 1.397 . S
C785 C786 1.334 . S
C786 H757 0.950 . S
C786 C785 1.334 . S
C786 C787 1.287 . S
C787 C786 1.287 . S
C787 C788 1.524 . S
C787 H790 0.999 . S
C788 H758 0.950 . S
C788 C787 1.524 . S
C788 C789 1.415 . S
C789 H759 0.950 . S
C789 C784 1.363 . S
C789 C788 1.415 . S
H790 C787 0.999 . S
H791 C772 0.913 . S
H792 C810 0.951 . S
H793 C812 0.951 . S
H794 C814 0.950 . S
H795 C815 0.950 . S
H796 C817 0.950 . S
H797 C820 0.950 . S
H798 C821 0.950 . S
H799 C823 0.950 . S
H800 C824 0.950 . S
H801 C825 0.951 . S
H802 C827 0.951 . S
H803 C829 0.950 . S
H804 C830 0.950 . S
H805 C832 0.950 . S
H806 C835 0.950 . S
H807 C836 0.950 . S
H808 C838 0.950 . S
H809 C839 0.950 . S
C810 H792 0.951 . S
C810 C811 1.366 . S
C810 C812 1.388 . S
C811 C810 1.366 . S
C811 C815 1.385 . S
C812 H793 0.951 . S
C812 C810 1.388 . S
C812 C813 1.366 . S
C813 C812 1.366 . S
C813 C814 1.414 . S
C813 C816 1.499 . S
C814 H794 0.950 . S
C814 C813 1.414 . S
C814 C815 1.374 . S
C815 H795 0.950 . S
C815 C811 1.385 . S
C815 C814 1.374 . S
C816 C813 1.499 . S
C816 C817 1.373 . S
C816 C818 1.389 . S
C817 H796 0.950 . S
C817 C816 1.373 . S
C817 C833 1.377 . S
C818 C816 1.389 . S
C818 C819 1.524 . S
C818 C832 1.377 . S
C819 C818 1.524 . S
C819 C820 1.397 . S
C819 C824 1.363 . S
C820 H797 0.950 . S
C820 C819 1.397 . S
C820 C821 1.334 . S
C821 H798 0.950 . S
C821 C820 1.334 . S
C821 C822 1.287 . S
C822 C821 1.287 . S
C822 C823 1.524 . S
C822 H841 0.913 . S
C823 H799 0.950 . S
C823 C822 1.524 . S
C823 C824 1.415 . S
C824 H800 0.950 . S
C824 C819 1.363 . S
C824 C823 1.415 . S
C825 H801 0.951 . S
C825 C826 1.366 . S
C825 C827 1.388 . S
C826 C825 1.366 . S
C826 C830 1.385 . S
C827 H802 0.951 . S
C827 C825 1.388 . S
C827 C828 1.366 . S
C828 C827 1.366 . S
C828 C829 1.414 . S
C828 C831 1.499 . S
C829 H803 0.950 . S
C829 C828 1.414 . S
C829 C830 1.374 . S
C830 H804 0.950 . S
C830 C826 1.385 . S
C830 C829 1.374 . S
C831 C828 1.499 . S
C831 C832 1.373 . S
C831 C833 1.389 . S
C832 H805 0.950 . S
C832 C818 1.377 . S
C832 C831 1.373 . S
C833 C817 1.377 . S
C833 C831 1.389 . S
C833 C834 1.524 . S
C834 C833 1.524 . S
C834 C835 1.397 . S
C834 C839 1.363 . S
C835 H806 0.950 . S
C835 C834 1.397 . S
C835 C836 1.334 . S
C836 H807 0.950 . S
C836 C835 1.334 . S
C836 C837 1.287 . S
C837 C836 1.287 . S
C837 C838 1.524 . S
C837 H840 0.999 . S
C838 H808 0.950 . S
C838 C837 1.524 . S
C838 C839 1.415 . S
C839 H809 0.950 . S
C839 C834 1.363 . S
C839 C838 1.415 . S
H840 C837 0.999 . S
H841 C822 0.913 . S
H842 C860 0.951 . S
H843 C862 0.951 . S
H844 C864 0.950 1_655 S
H845 C865 0.950 . S
H846 C867 0.950 . S
H847 C870 0.950 . S
H848 C871 0.950 . S
H849 C873 0.950 . S
H850 C874 0.950 . S
H851 C875 0.951 . S
H852 C877 0.951 . S
H853 C879 0.950 . S
H854 C880 0.950 . S
H855 C882 0.950 . S
H856 C885 0.950 . S
H857 C886 0.950 . S
H858 C888 0.950 . S
H859 C889 0.950 . S
C860 H842 0.951 . S
C860 C861 1.366 . S
C860 C862 1.388 . S
C861 C860 1.366 . S
C861 C865 1.385 . S
C862 H843 0.951 . S
C862 C860 1.388 . S
C862 C863 1.366 . S
C863 C862 1.366 . S
C863 C864 1.414 . S
C863 C866 1.499 1_455 S
C864 H844 0.950 1_455 S
C864 C863 1.414 . S
C864 C865 1.374 . S
C865 H845 0.950 . S
C865 C861 1.385 . S
C865 C864 1.374 . S
C866 C863 1.499 1_655 S
C866 C867 1.373 . S
C866 C868 1.389 . S
C867 H846 0.950 . S
C867 C866 1.373 . S
C867 C883 1.377 . S
C868 C866 1.389 . S
C868 C869 1.524 1_655 S
C868 C882 1.377 . S
C869 C868 1.524 1_455 S
C869 C870 1.397 . S
C869 C874 1.363 . S
C870 H847 0.950 . S
C870 C869 1.397 . S
C870 C871 1.334 . S
C871 H848 0.950 . S
C871 C870 1.334 . S
C871 C872 1.287 . S
C872 C871 1.287 . S
C872 C873 1.524 . S
C872 H891 0.913 . S
C873 H849 0.950 . S
C873 C872 1.524 . S
C873 C874 1.415 . S
C874 H850 0.950 . S
C874 C869 1.363 . S
C874 C873 1.415 . S
C875 H851 0.951 . S
C875 C876 1.366 . S
C875 C877 1.388 . S
C876 C875 1.366 . S
C876 C880 1.385 . S
C877 H852 0.951 . S
C877 C875 1.388 . S
C877 C878 1.366 . S
C878 C877 1.366 . S
C878 C879 1.414 . S
C878 C881 1.499 . S
C879 H853 0.950 . S
C879 C878 1.414 . S
C879 C880 1.374 . S
C880 H854 0.950 . S
C880 C876 1.385 . S
C880 C879 1.374 . S
C881 C878 1.499 . S
C881 C882 1.373 . S
C881 C883 1.389 . S
C882 H855 0.950 . S
C882 C868 1.377 . S
C882 C881 1.373 . S
C883 C867 1.377 . S
C883 C881 1.389 . S
C883 C884 1.524 . S
C884 C883 1.524 . S
C884 C885 1.397 . S
C884 C889 1.363 . S
C885 H856 0.950 . S
C885 C884 1.397 . S
C885 C886 1.334 . S
C886 H857 0.950 . S
C886 C885 1.334 . S
C886 C887 1.287 . S
C887 C886 1.287 . S
C887 C888 1.524 . S
C887 H890 0.999 . S
C888 H858 0.950 . S
C888 C887 1.524 . S
C888 C889 1.415 . S
C889 H859 0.950 . S
C889 C884 1.363 . S
C889 C888 1.415 . S
H890 C887 0.999 . S
H891 C872 0.913 . S
H892 C910 0.951 . S
H893 C912 0.951 . S
H894 C914 0.950 . S
H895 C915 0.950 . S
H896 C917 0.950 . S
H897 C920 0.950 . S
H898 C921 0.950 . S
H899 C923 0.950 . S
H900 C924 0.950 . S
H901 C925 0.951 . S
H902 C927 0.951 . S
H903 C929 0.950 . S
H904 C930 0.950 . S
H905 C932 0.950 . S
H906 C935 0.950 . S
H907 C936 0.950 . S
H908 C938 0.950 . S
H909 C939 0.950 . S
C910 H892 0.951 . S
C910 C911 1.366 . S
C910 C912 1.388 . S
C911 C910 1.366 . S
C911 C915 1.385 . S
C912 H893 0.951 . S
C912 C910 1.388 . S
C912 C913 1.366 . S
C913 C912 1.366 . S
C913 C914 1.414 . S
C913 C916 1.499 . S
C914 H894 0.950 . S
C914 C913 1.414 . S
C914 C915 1.374 . S
C915 H895 0.950 . S
C915 C911 1.385 . S
C915 C914 1.374 . S
C916 C913 1.499 . S
C916 C917 1.373 . S
C916 C918 1.389 . S
C917 H896 0.950 . S
C917 C916 1.373 . S
C917 C933 1.377 . S
C918 C916 1.389 . S
C918 C919 1.524 . S
C918 C932 1.377 . S
C919 C918 1.524 . S
C919 C920 1.397 . S
C919 C924 1.363 . S
C920 H897 0.950 . S
C920 C919 1.397 . S
C920 C921 1.334 . S
C921 H898 0.950 . S
C921 C920 1.334 . S
C921 C922 1.287 . S
C922 C921 1.287 . S
C922 C923 1.524 . S
C922 H941 0.913 . S
C923 H899 0.950 . S
C923 C922 1.524 . S
C923 C924 1.415 . S
C924 H900 0.950 . S
C924 C919 1.363 . S
C924 C923 1.415 . S
C925 H901 0.951 . S
C925 C926 1.366 . S
C925 C927 1.388 . S
C926 C925 1.366 . S
C926 C930 1.385 . S
C927 H902 0.951 . S
C927 C925 1.388 . S
C927 C928 1.366 . S
C928 C927 1.366 . S
C928 C929 1.414 . S
C928 C931 1.499 . S
C929 H903 0.950 . S
C929 C928 1.414 . S
C929 C930 1.374 . S
C930 H904 0.950 . S
C930 C926 1.385 . S
C930 C929 1.374 . S
C931 C928 1.499 . S
C931 C932 1.373 . S
C931 C933 1.389 . S
C932 H905 0.950 . S
C932 C918 1.377 . S
C932 C931 1.373 . S
C933 C917 1.377 . S
C933 C931 1.389 . S
C933 C934 1.524 . S
C934 C933 1.524 . S
C934 C935 1.397 . S
C934 C939 1.363 . S
C935 H906 0.950 . S
C935 C934 1.397 . S
C935 C936 1.334 . S
C936 H907 0.950 . S
C936 C935 1.334 . S
C936 C937 1.287 . S
C937 C936 1.287 . S
C937 C938 1.524 . S
C937 H940 0.999 . S
C938 H908 0.950 . S
C938 C937 1.524 . S
C938 C939 1.415 . S
C939 H909 0.950 . S
C939 C934 1.363 . S
C939 C938 1.415 . S
H940 C937 0.999 . S
H941 C922 0.913 . S
H942 C960 0.951 . S
H943 C962 0.951 . S
H944 C964 0.950 . S
H945 C965 0.950 . S
H946 C967 0.950 . S
H947 C970 0.950 . S
H948 C971 0.950 . S
H949 C973 0.950 1_455 S
H950 C974 0.950 . S
H951 C975 0.951 . S
H952 C977 0.951 . S
H953 C979 0.950 . S
H954 C980 0.950 . S
H955 C982 0.950 . S
H956 C985 0.950 . S
H957 C986 0.950 . S
H958 C988 0.950 . S
H959 C989 0.950 . S
C960 H942 0.951 . S
C960 C961 1.366 . S
C960 C962 1.388 . S
C961 C960 1.366 . S
C961 C965 1.385 . S
C962 H943 0.951 . S
C962 C960 1.388 . S
C962 C963 1.366 . S
C963 C962 1.366 . S
C963 C964 1.414 . S
C963 C966 1.487 1_655 S
C964 H944 0.950 . S
C964 C963 1.414 . S
C964 C965 1.374 . S
C965 H945 0.950 . S
C965 C961 1.385 . S
C965 C964 1.374 . S
C966 C963 1.487 1_455 S
C966 C967 1.381 . S
C966 C968 1.395 . S
C967 H946 0.950 . S
C967 C966 1.381 . S
C967 C983 1.377 . S
C968 C966 1.395 . S
C968 C969 1.524 1_455 S
C968 C982 1.377 . S
C969 C968 1.524 1_655 S
C969 C970 1.397 . S
C969 C974 1.363 1_655 S
C970 H947 0.950 . S
C970 C969 1.397 . S
C970 C971 1.334 . S
C971 H948 0.950 . S
C971 C970 1.334 . S
C971 C972 1.287 . S
C972 C971 1.287 . S
C972 C973 1.524 . S
C972 H991 0.913 . S
C973 H949 0.950 1_655 S
C973 C972 1.524 . S
C973 C974 1.415 1_655 S
C974 H950 0.950 . S
C974 C969 1.363 1_455 S
C974 C973 1.415 1_455 S
C975 H951 0.951 . S
C975 C976 1.366 . S
C975 C977 1.388 . S
C976 C975 1.366 . S
C976 C980 1.385 . S
C977 H952 0.951 . S
C977 C975 1.388 . S
C977 C978 1.366 . S
C978 C977 1.366 . S
C978 C979 1.414 . S
C978 C981 1.499 . S
C979 H953 0.950 . S
C979 C978 1.414 . S
C979 C980 1.374 . S
C980 H954 0.950 . S
C980 C976 1.385 . S
C980 C979 1.374 . S
C981 C978 1.499 . S
C981 C982 1.373 . S
C981 C983 1.389 . S
C982 H955 0.950 . S
C982 C968 1.377 . S
C982 C981 1.373 . S
C983 C967 1.377 . S
C983 C981 1.389 . S
C983 C984 1.524 . S
C984 C983 1.524 . S
C984 C985 1.397 . S
C984 C989 1.363 . S
C985 H956 0.950 . S
C985 C984 1.397 . S
C985 C986 1.334 . S
C986 H957 0.950 . S
C986 C985 1.334 . S
C986 C987 1.287 . S
C987 C986 1.287 . S
C987 C988 1.524 . S
C987 H990 0.999 . S
C988 H958 0.950 . S
C988 C987 1.524 . S
C988 C989 1.415 . S
C989 H959 0.950 . S
C989 C984 1.363 . S
C989 C988 1.415 . S
H990 C987 0.999 . S
H991 C972 0.913 . S
H992 C1010 0.951 . S
H993 C1012 0.951 . S
H994 C1014 0.950 . S
H995 C1015 0.950 . S
H996 C1017 0.950 . S
H997 C1020 0.950 . S
H998 C1021 0.950 . S
H999 C1023 0.950 . S
H1000 C1024 0.950 . S
H1001 C1025 0.951 . S
H1002 C1027 0.951 . S
H1003 C1029 0.950 . S
H1004 C1030 0.950 . S
H1005 C1032 0.950 . S
H1006 C1035 0.950 . S
H1007 C1036 0.950 . S
H1008 C1038 0.950 . S
H1009 C1039 0.950 . S
C1010 H992 0.951 . S
C1010 C1011 1.366 . S
C1010 C1012 1.388 . S
C1011 C1010 1.366 . S
C1011 C1015 1.385 . S
C1012 H993 0.951 . S
C1012 C1010 1.388 . S
C1012 C1013 1.366 . S
C1013 C1012 1.366 . S
C1013 C1014 1.414 . S
C1013 C1016 1.499 . S
C1014 H994 0.950 . S
C1014 C1013 1.414 . S
C1014 C1015 1.374 . S
C1015 H995 0.950 . S
C1015 C1011 1.385 . S
C1015 C1014 1.374 . S
C1016 C1013 1.499 . S
C1016 C1017 1.373 . S
C1016 C1018 1.389 . S
C1017 H996 0.950 . S
C1017 C1016 1.373 . S
C1017 C1033 1.377 . S
C1018 C1016 1.389 . S
C1018 C1019 1.524 . S
C1018 C1032 1.377 . S
C1019 C1018 1.524 . S
C1019 C1020 1.397 . S
C1019 C1024 1.363 . S
C1020 H997 0.950 . S
C1020 C1019 1.397 . S
C1020 C1021 1.334 . S
C1021 H998 0.950 . S
C1021 C1020 1.334 . S
C1021 C1022 1.287 . S
C1022 C1021 1.287 . S
C1022 C1023 1.524 . S
C1022 H1041 0.913 1_554 S
C1023 H999 0.950 . S
C1023 C1022 1.524 . S
C1023 C1024 1.415 . S
C1024 H1000 0.950 . S
C1024 C1019 1.363 . S
C1024 C1023 1.415 . S
C1025 H1001 0.951 . S
C1025 C1026 1.366 . S
C1025 C1027 1.388 . S
C1026 C1025 1.366 . S
C1026 C1030 1.385 . S
C1027 H1002 0.951 . S
C1027 C1025 1.388 . S
C1027 C1028 1.366 . S
C1028 C1027 1.366 . S
C1028 C1029 1.414 . S
C1028 C1031 1.499 . S
C1029 H1003 0.950 . S
C1029 C1028 1.414 . S
C1029 C1030 1.374 . S
C1030 H1004 0.950 . S
C1030 C1026 1.385 . S
C1030 C1029 1.374 . S
C1031 C1028 1.499 . S
C1031 C1032 1.373 . S
C1031 C1033 1.389 . S
C1032 H1005 0.950 . S
C1032 C1018 1.377 . S
C1032 C1031 1.373 . S
C1033 C1017 1.377 . S
C1033 C1031 1.389 . S
C1033 C1034 1.524 . S
C1034 C1033 1.524 . S
C1034 C1035 1.397 . S
C1034 C1039 1.363 . S
C1035 H1006 0.950 . S
C1035 C1034 1.397 . S
C1035 C1036 1.334 . S
C1036 H1007 0.950 . S
C1036 C1035 1.334 . S
C1036 C1037 1.287 . S
C1037 C1036 1.287 . S
C1037 C1038 1.524 . S
C1037 H1040 0.999 . S
C1038 H1008 0.950 . S
C1038 C1037 1.524 . S
C1038 C1039 1.415 . S
C1039 H1009 0.950 . S
C1039 C1034 1.363 . S
C1039 C1038 1.415 . S
H1040 C1037 0.999 . S
H1041 C1022 0.913 1_556 S
H1042 C1060 0.951 . S
H1043 C1062 0.951 . S
H1044 C1064 0.950 . S
H1045 C1065 0.950 . S
H1046 C1067 0.950 . S
H1047 C1070 0.950 . S
H1048 C1071 0.950 . S
H1049 C1073 0.950 . S
H1050 C1074 0.950 . S
H1051 C1075 0.951 . S
H1052 C1077 0.951 . S
H1053 C1079 0.950 . S
H1054 C1080 0.950 . S
H1055 C1082 0.950 . S
H1056 C1085 0.950 . S
H1057 C1086 0.950 . S
H1058 C1088 0.950 . S
H1059 C1089 0.950 . S
C1060 H1042 0.951 . S
C1060 C1061 1.366 . S
C1060 C1062 1.388 . S
C1061 C1060 1.366 . S
C1061 C1065 1.385 . S
C1062 H1043 0.951 . S
C1062 C1060 1.388 . S
C1062 C1063 1.366 . S
C1063 C1062 1.366 . S
C1063 C1064 1.414 . S
C1063 C1066 1.499 . S
C1064 H1044 0.950 . S
C1064 C1063 1.414 . S
C1064 C1065 1.374 . S
C1065 H1045 0.950 . S
C1065 C1061 1.385 . S
C1065 C1064 1.374 . S
C1066 C1063 1.499 . S
C1066 C1067 1.373 . S
C1066 C1068 1.389 . S
C1067 H1046 0.950 . S
C1067 C1066 1.373 . S
C1067 C1083 1.377 . S
C1068 C1066 1.389 . S
C1068 C1069 1.524 . S
C1068 C1082 1.377 . S
C1069 C1068 1.524 . S
C1069 C1070 1.397 . S
C1069 C1074 1.363 . S
C1070 H1047 0.950 . S
C1070 C1069 1.397 . S
C1070 C1071 1.334 . S
C1071 H1048 0.950 . S
C1071 C1070 1.334 . S
C1071 C1072 1.287 . S
C1072 C1071 1.287 . S
C1072 C1073 1.524 . S
C1072 H1091 0.913 . S
C1073 H1049 0.950 . S
C1073 C1072 1.524 . S
C1073 C1074 1.415 . S
C1074 H1050 0.950 . S
C1074 C1069 1.363 . S
C1074 C1073 1.415 . S
C1075 H1051 0.951 . S
C1075 C1076 1.366 . S
C1075 C1077 1.388 . S
C1076 C1075 1.366 . S
C1076 C1080 1.385 . S
C1077 H1052 0.951 . S
C1077 C1075 1.388 . S
C1077 C1078 1.366 . S
C1078 C1077 1.366 . S
C1078 C1079 1.414 . S
C1078 C1081 1.499 . S
C1079 H1053 0.950 . S
C1079 C1078 1.414 . S
C1079 C1080 1.374 . S
C1080 H1054 0.950 . S
C1080 C1076 1.385 . S
C1080 C1079 1.374 . S
C1081 C1078 1.499 . S
C1081 C1082 1.373 . S
C1081 C1083 1.389 . S
C1082 H1055 0.950 . S
C1082 C1068 1.377 . S
C1082 C1081 1.373 . S
C1083 C1067 1.377 . S
C1083 C1081 1.389 . S
C1083 C1084 1.524 . S
C1084 C1083 1.524 . S
C1084 C1085 1.397 . S
C1084 C1089 1.363 . S
C1085 H1056 0.950 . S
C1085 C1084 1.397 . S
C1085 C1086 1.334 . S
C1086 H1057 0.950 . S
C1086 C1085 1.334 . S
C1086 C1087 1.287 . S
C1087 C1086 1.287 . S
C1087 C1088 1.524 . S
C1087 H1090 0.999 . S
C1088 H1058 0.950 . S
C1088 C1087 1.524 . S
C1088 C1089 1.415 . S
C1089 H1059 0.950 . S
C1089 C1084 1.363 . S
C1089 C1088 1.415 . S
H1090 C1087 0.999 . S
H1091 C1072 0.913 . S
H1092 C1110 0.951 . S
H1093 C1112 0.951 . S
H1094 C1114 0.950 . S
H1095 C1115 0.950 . S
H1096 C1117 0.950 . S
H1097 C1120 0.950 . S
H1098 C1121 0.950 . S
H1099 C1123 0.950 . S
H1100 C1124 0.950 . S
H1101 C1125 0.951 . S
H1102 C1127 0.951 . S
H1103 C1129 0.950 . S
H1104 C1130 0.950 . S
H1105 C1132 0.950 . S
H1106 C1135 0.950 . S
H1107 C1136 0.950 . S
H1108 C1138 0.950 . S
H1109 C1139 0.950 . S
C1110 H1092 0.951 . S
C1110 C1111 1.366 . S
C1110 C1112 1.388 . S
C1111 C1110 1.366 . S
C1111 C1115 1.385 . S
C1112 H1093 0.951 . S
C1112 C1110 1.388 . S
C1112 C1113 1.366 . S
C1113 C1112 1.366 . S
C1113 C1114 1.414 . S
C1113 C1116 1.499 . S
C1114 H1094 0.950 . S
C1114 C1113 1.414 . S
C1114 C1115 1.374 . S
C1115 H1095 0.950 . S
C1115 C1111 1.385 . S
C1115 C1114 1.374 . S
C1116 C1113 1.499 . S
C1116 C1117 1.373 . S
C1116 C1118 1.389 . S
C1117 H1096 0.950 . S
C1117 C1116 1.373 . S
C1117 C1133 1.377 . S
C1118 C1116 1.389 . S
C1118 C1119 1.524 . S
C1118 C1132 1.377 . S
C1119 C1118 1.524 . S
C1119 C1120 1.397 . S
C1119 C1124 1.363 . S
C1120 H1097 0.950 . S
C1120 C1119 1.397 . S
C1120 C1121 1.334 . S
C1121 H1098 0.950 . S
C1121 C1120 1.334 . S
C1121 C1122 1.287 . S
C1122 C1121 1.287 . S
C1122 C1123 1.524 . S
C1122 H1141 0.913 . S
C1123 H1099 0.950 . S
C1123 C1122 1.524 . S
C1123 C1124 1.415 . S
C1124 H1100 0.950 . S
C1124 C1119 1.363 . S
C1124 C1123 1.415 . S
C1125 H1101 0.951 . S
C1125 C1126 1.366 . S
C1125 C1127 1.388 . S
C1126 C1125 1.366 . S
C1126 C1130 1.385 . S
C1127 H1102 0.951 . S
C1127 C1125 1.388 . S
C1127 C1128 1.366 . S
C1128 C1127 1.366 . S
C1128 C1129 1.414 . S
C1128 C1131 1.499 . S
C1129 H1103 0.950 . S
C1129 C1128 1.414 . S
C1129 C1130 1.374 . S
C1130 H1104 0.950 . S
C1130 C1126 1.385 . S
C1130 C1129 1.374 . S
C1131 C1128 1.499 . S
C1131 C1132 1.373 . S
C1131 C1133 1.389 . S
C1132 H1105 0.950 . S
C1132 C1118 1.377 . S
C1132 C1131 1.373 . S
C1133 C1117 1.377 . S
C1133 C1131 1.389 . S
C1133 C1134 1.524 . S
C1134 C1133 1.524 . S
C1134 C1135 1.397 . S
C1134 C1139 1.363 . S
C1135 H1106 0.950 . S
C1135 C1134 1.397 . S
C1135 C1136 1.334 . S
C1136 H1107 0.950 . S
C1136 C1135 1.334 . S
C1136 C1137 1.287 . S
C1137 C1136 1.287 . S
C1137 C1138 1.524 . S
C1137 H1140 0.999 . S
C1138 H1108 0.950 . S
C1138 C1137 1.524 . S
C1138 C1139 1.415 . S
C1139 H1109 0.950 . S
C1139 C1134 1.363 . S
C1139 C1138 1.415 . S
H1140 C1137 0.999 . S
H1141 C1122 0.913 . S
H1142 C1160 0.951 . S
H1143 C1162 0.951 . S
H1144 C1164 0.950 . S
H1145 C1165 0.950 . S
H1146 C1167 0.950 . S
H1147 C1170 0.950 . S
H1148 C1171 0.950 . S
H1149 C1173 0.950 . S
H1150 C1174 0.950 . S
H1151 C1175 0.951 . S
H1152 C1177 0.951 . S
H1153 C1179 0.950 . S
H1154 C1180 0.950 . S
H1155 C1182 0.950 . S
H1156 C1185 0.950 . S
H1157 C1186 0.950 . S
H1158 C1188 0.950 . S
H1159 C1189 0.950 . S
C1160 H1142 0.951 . S
C1160 C1161 1.366 . S
C1160 C1162 1.388 . S
C1161 C1160 1.366 . S
C1161 C1165 1.385 . S
C1162 H1143 0.951 . S
C1162 C1160 1.388 . S
C1162 C1163 1.366 . S
C1163 C1162 1.366 . S
C1163 C1164 1.414 . S
C1163 C1166 1.499 . S
C1164 H1144 0.950 . S
C1164 C1163 1.414 . S
C1164 C1165 1.374 . S
C1165 H1145 0.950 . S
C1165 C1161 1.385 . S
C1165 C1164 1.374 . S
C1166 C1163 1.499 . S
C1166 C1167 1.373 . S
C1166 C1168 1.389 . S
C1167 H1146 0.950 . S
C1167 C1166 1.373 . S
C1167 C1183 1.377 . S
C1168 C1166 1.389 . S
C1168 C1169 1.524 . S
C1168 C1182 1.377 . S
C1169 C1168 1.524 . S
C1169 C1170 1.397 . S
C1169 C1174 1.363 . S
C1170 H1147 0.950 . S
C1170 C1169 1.397 . S
C1170 C1171 1.334 . S
C1171 H1148 0.950 . S
C1171 C1170 1.334 . S
C1171 C1172 1.287 . S
C1172 C1171 1.287 . S
C1172 C1173 1.524 . S
C1172 H1191 0.913 . S
C1173 H1149 0.950 . S
C1173 C1172 1.524 . S
C1173 C1174 1.415 . S
C1174 H1150 0.950 . S
C1174 C1169 1.363 . S
C1174 C1173 1.415 . S
C1175 H1151 0.951 . S
C1175 C1176 1.366 . S
C1175 C1177 1.388 . S
C1176 C1175 1.366 . S
C1176 C1180 1.385 . S
C1177 H1152 0.951 . S
C1177 C1175 1.388 . S
C1177 C1178 1.366 . S
C1178 C1177 1.366 . S
C1178 C1179 1.414 . S
C1178 C1181 1.499 . S
C1179 H1153 0.950 . S
C1179 C1178 1.414 . S
C1179 C1180 1.374 . S
C1180 H1154 0.950 . S
C1180 C1176 1.385 . S
C1180 C1179 1.374 . S
C1181 C1178 1.499 . S
C1181 C1182 1.373 . S
C1181 C1183 1.389 . S
C1182 H1155 0.950 . S
C1182 C1168 1.377 . S
C1182 C1181 1.373 . S
C1183 C1167 1.377 . S
C1183 C1181 1.389 . S
C1183 C1184 1.524 . S
C1184 C1183 1.524 . S
C1184 C1185 1.397 . S
C1184 C1189 1.363 . S
C1185 H1156 0.950 . S
C1185 C1184 1.397 . S
C1185 C1186 1.334 . S
C1186 H1157 0.950 . S
C1186 C1185 1.334 . S
C1186 C1187 1.287 . S
C1187 C1186 1.287 . S
C1187 C1188 1.524 . S
C1187 H1190 0.999 . S
C1188 H1158 0.950 . S
C1188 C1187 1.524 . S
C1188 C1189 1.415 . S
C1189 H1159 0.950 . S
C1189 C1184 1.363 . S
C1189 C1188 1.415 . S
H1190 C1187 0.999 . S
H1191 C1172 0.913 . S
H1192 C1210 0.951 . S
H1193 C1212 0.951 . S
H1194 C1214 0.950 . S
H1195 C1215 0.950 . S
H1196 C1217 0.950 . S
H1197 C1220 0.950 . S
H1198 C1221 0.950 . S
H1199 C1223 0.950 . S
H1200 C1224 0.950 . S
H1201 C1225 0.951 . S
H1202 C1227 0.951 . S
H1203 C1229 0.950 . S
H1204 C1230 0.950 . S
H1205 C1232 0.950 . S
H1206 C1235 0.950 . S
H1207 C1236 0.950 . S
H1208 C1238 0.950 . S
H1209 C1239 0.950 . S
C1210 H1192 0.951 . S
C1210 C1211 1.366 . S
C1210 C1212 1.388 . S
C1211 C1210 1.366 . S
C1211 C1215 1.385 . S
C1212 H1193 0.951 . S
C1212 C1210 1.388 . S
C1212 C1213 1.366 . S
C1213 C1212 1.366 . S
C1213 C1214 1.414 . S
C1213 C1216 1.499 . S
C1214 H1194 0.950 . S
C1214 C1213 1.414 . S
C1214 C1215 1.374 . S
C1215 H1195 0.950 . S
C1215 C1211 1.385 . S
C1215 C1214 1.374 . S
C1216 C1213 1.499 . S
C1216 C1217 1.373 . S
C1216 C1218 1.389 . S
C1217 H1196 0.950 . S
C1217 C1216 1.373 . S
C1217 C1233 1.377 . S
C1218 C1216 1.389 . S
C1218 C1219 1.524 . S
C1218 C1232 1.377 . S
C1219 C1218 1.524 . S
C1219 C1220 1.397 . S
C1219 C1224 1.363 . S
C1220 H1197 0.950 . S
C1220 C1219 1.397 . S
C1220 C1221 1.334 . S
C1221 H1198 0.950 . S
C1221 C1220 1.334 . S
C1221 C1222 1.287 . S
C1222 C1221 1.287 . S
C1222 C1223 1.524 . S
C1222 H1241 0.913 . S
C1223 H1199 0.950 . S
C1223 C1222 1.524 . S
C1223 C1224 1.415 . S
C1224 H1200 0.950 . S
C1224 C1219 1.363 . S
C1224 C1223 1.415 . S
C1225 H1201 0.951 . S
C1225 C1226 1.366 . S
C1225 C1227 1.388 . S
C1226 C1225 1.366 . S
C1226 C1230 1.385 . S
C1227 H1202 0.951 . S
C1227 C1225 1.388 . S
C1227 C1228 1.366 . S
C1228 C1227 1.366 . S
C1228 C1229 1.414 . S
C1228 C1231 1.499 . S
C1229 H1203 0.950 . S
C1229 C1228 1.414 . S
C1229 C1230 1.374 . S
C1230 H1204 0.950 . S
C1230 C1226 1.385 . S
C1230 C1229 1.374 . S
C1231 C1228 1.499 . S
C1231 C1232 1.373 . S
C1231 C1233 1.389 . S
C1232 H1205 0.950 . S
C1232 C1218 1.377 . S
C1232 C1231 1.373 . S
C1233 C1217 1.377 . S
C1233 C1231 1.389 . S
C1233 C1234 1.524 . S
C1234 C1233 1.524 . S
C1234 C1235 1.397 . S
C1234 C1239 1.363 . S
C1235 H1206 0.950 . S
C1235 C1234 1.397 . S
C1235 C1236 1.334 . S
C1236 H1207 0.950 . S
C1236 C1235 1.334 . S
C1236 C1237 1.287 . S
C1237 C1236 1.287 . S
C1237 C1238 1.524 . S
C1237 H1240 0.999 . S
C1238 H1208 0.950 . S
C1238 C1237 1.524 . S
C1238 C1239 1.415 . S
C1239 H1209 0.950 . S
C1239 C1234 1.363 . S
C1239 C1238 1.415 . S
H1240 C1237 0.999 . S
H1241 C1222 0.913 . S
H1242 C1260 0.951 1_554 S
H1243 C1262 0.951 . S
H1244 C1264 0.950 . S
H1245 C1265 0.950 . S
H1246 C1267 0.950 . S
H1247 C1270 0.950 . S
H1248 C1271 0.950 . S
H1249 C1273 0.950 . S
H1250 C1274 0.950 . S
H1251 C1275 0.951 . S
H1252 C1277 0.951 . S
H1253 C1279 0.950 . S
H1254 C1280 0.950 . S
H1255 C1282 0.950 . S
H1256 C1285 0.950 . S
H1257 C1286 0.950 . S
H1258 C1288 0.950 . S
H1259 C1289 0.950 . S
C1260 H1242 0.951 1_556 S
C1260 C1261 1.366 . S
C1260 C1262 1.388 . S
C1261 C1260 1.366 . S
C1261 C1265 1.385 . S
C1262 H1243 0.951 . S
C1262 C1260 1.388 . S
C1262 C1263 1.366 . S
C1263 C1262 1.366 . S
C1263 C1264 1.414 . S
C1263 C1266 1.499 . S
C1264 H1244 0.950 . S
C1264 C1263 1.414 . S
C1264 C1265 1.374 . S
C1265 H1245 0.950 . S
C1265 C1261 1.385 . S
C1265 C1264 1.374 . S
C1266 C1263 1.499 . S
C1266 C1267 1.373 . S
C1266 C1268 1.389 . S
C1267 H1246 0.950 . S
C1267 C1266 1.373 . S
C1267 C1283 1.377 . S
C1268 C1266 1.389 . S
C1268 C1269 1.524 . S
C1268 C1282 1.377 . S
C1269 C1268 1.524 . S
C1269 C1270 1.397 . S
C1269 C1274 1.363 . S
C1270 H1247 0.950 . S
C1270 C1269 1.397 . S
C1270 C1271 1.334 . S
C1271 H1248 0.950 . S
C1271 C1270 1.334 . S
C1271 C1272 1.287 . S
C1272 C1271 1.287 . S
C1272 C1273 1.524 . S
C1272 H1291 0.913 . S
C1273 H1249 0.950 . S
C1273 C1272 1.524 . S
C1273 C1274 1.415 . S
C1274 H1250 0.950 . S
C1274 C1269 1.363 . S
C1274 C1273 1.415 . S
C1275 H1251 0.951 . S
C1275 C1276 1.366 . S
C1275 C1277 1.388 . S
C1276 C1275 1.366 . S
C1276 C1280 1.385 . S
C1277 H1252 0.951 . S
C1277 C1275 1.388 . S
C1277 C1278 1.366 . S
C1278 C1277 1.366 . S
C1278 C1279 1.414 . S
C1278 C1281 1.499 . S
C1279 H1253 0.950 . S
C1279 C1278 1.414 . S
C1279 C1280 1.374 . S
C1280 H1254 0.950 . S
C1280 C1276 1.385 . S
C1280 C1279 1.374 . S
C1281 C1278 1.499 . S
C1281 C1282 1.373 . S
C1281 C1283 1.389 . S
C1282 H1255 0.950 . S
C1282 C1268 1.377 . S
C1282 C1281 1.373 . S
C1283 C1267 1.377 . S
C1283 C1281 1.389 . S
C1283 C1284 1.524 . S
C1284 C1283 1.524 . S
C1284 C1285 1.397 . S
C1284 C1289 1.363 . S
C1285 H1256 0.950 . S
C1285 C1284 1.397 . S
C1285 C1286 1.334 . S
C1286 H1257 0.950 . S
C1286 C1285 1.334 . S
C1286 C1287 1.287 . S
C1287 C1286 1.287 . S
C1287 C1288 1.524 . S
C1287 H1290 0.999 . S
C1288 H1258 0.950 . S
C1288 C1287 1.524 . S
C1288 C1289 1.415 . S
C1289 H1259 0.950 . S
C1289 C1284 1.363 . S
C1289 C1288 1.415 . S
H1290 C1287 0.999 . S
H1291 C1272 0.913 . S
H1292 C1310 0.951 . S
H1293 C1312 0.951 . S
H1294 C1314 0.950 . S
H1295 C1315 0.950 . S
H1296 C1317 0.950 . S
H1297 C1320 0.950 . S
H1298 C1321 0.950 . S
H1299 C1323 0.950 . S
H1300 C1324 0.950 . S
H1301 C1325 0.951 . S
H1302 C1327 0.951 . S
H1303 C1329 0.950 . S
H1304 C1330 0.950 . S
H1305 C1332 0.950 . S
H1306 C1335 0.950 . S
H1307 C1336 0.950 . S
H1308 C1338 0.950 . S
H1309 C1339 0.950 . S
C1310 H1292 0.951 . S
C1310 C1311 1.366 . S
C1310 C1312 1.388 . S
C1311 C1310 1.366 . S
C1311 C1315 1.385 . S
C1312 H1293 0.951 . S
C1312 C1310 1.388 . S
C1312 C1313 1.366 . S
C1313 C1312 1.366 . S
C1313 C1314 1.414 . S
C1313 C1316 1.499 . S
C1314 H1294 0.950 . S
C1314 C1313 1.414 . S
C1314 C1315 1.374 . S
C1315 H1295 0.950 . S
C1315 C1311 1.385 . S
C1315 C1314 1.374 . S
C1316 C1313 1.499 . S
C1316 C1317 1.373 . S
C1316 C1318 1.389 . S
C1317 H1296 0.950 . S
C1317 C1316 1.373 . S
C1317 C1333 1.377 . S
C1318 C1316 1.389 . S
C1318 C1319 1.524 . S
C1318 C1332 1.377 . S
C1319 C1318 1.524 . S
C1319 C1320 1.397 . S
C1319 C1324 1.363 . S
C1320 H1297 0.950 . S
C1320 C1319 1.397 . S
C1320 C1321 1.334 . S
C1321 H1298 0.950 . S
C1321 C1320 1.334 . S
C1321 C1322 1.287 . S
C1322 C1321 1.287 . S
C1322 C1323 1.524 . S
C1322 H1341 0.913 . S
C1323 H1299 0.950 . S
C1323 C1322 1.524 . S
C1323 C1324 1.415 . S
C1324 H1300 0.950 . S
C1324 C1319 1.363 . S
C1324 C1323 1.415 . S
C1325 H1301 0.951 . S
C1325 C1326 1.366 . S
C1325 C1327 1.388 . S
C1326 C1325 1.366 . S
C1326 C1330 1.385 . S
C1327 H1302 0.951 . S
C1327 C1325 1.388 . S
C1327 C1328 1.366 . S
C1328 C1327 1.366 . S
C1328 C1329 1.414 . S
C1328 C1331 1.499 . S
C1329 H1303 0.950 . S
C1329 C1328 1.414 . S
C1329 C1330 1.374 . S
C1330 H1304 0.950 . S
C1330 C1326 1.385 . S
C1330 C1329 1.374 . S
C1331 C1328 1.499 . S
C1331 C1332 1.373 . S
C1331 C1333 1.389 . S
C1332 H1305 0.950 . S
C1332 C1318 1.377 . S
C1332 C1331 1.373 . S
C1333 C1317 1.377 . S
C1333 C1331 1.389 . S
C1333 C1334 1.524 . S
C1334 C1333 1.524 . S
C1334 C1335 1.397 . S
C1334 C1339 1.363 . S
C1335 H1306 0.950 . S
C1335 C1334 1.397 . S
C1335 C1336 1.334 . S
C1336 H1307 0.950 . S
C1336 C1335 1.334 . S
C1336 C1337 1.287 . S
C1337 C1336 1.287 . S
C1337 C1338 1.524 . S
C1337 H1340 0.999 . S
C1338 H1308 0.950 . S
C1338 C1337 1.524 . S
C1338 C1339 1.415 . S
C1339 H1309 0.950 . S
C1339 C1334 1.363 . S
C1339 C1338 1.415 . S
H1340 C1337 0.999 . S
H1341 C1322 0.913 . S
H1342 C1360 0.951 . S
H1343 C1362 0.951 . S
H1344 C1364 0.950 . S
H1345 C1365 0.950 . S
H1346 C1367 0.950 . S
H1347 C1370 0.950 . S
H1348 C1371 0.950 . S
H1349 C1373 0.950 . S
H1350 C1374 0.950 . S
H1351 C1375 0.951 . S
H1352 C1377 0.951 . S
H1353 C1379 0.950 . S
H1354 C1380 0.950 . S
H1355 C1382 0.950 . S
H1356 C1385 0.950 . S
H1357 C1386 0.950 . S
H1358 C1388 0.950 . S
H1359 C1389 0.950 . S
C1360 H1342 0.951 . S
C1360 C1361 1.366 . S
C1360 C1362 1.388 . S
C1361 C1360 1.366 . S
C1361 C1365 1.385 . S
C1362 H1343 0.951 . S
C1362 C1360 1.388 . S
C1362 C1363 1.366 . S
C1363 C1362 1.366 . S
C1363 C1364 1.414 . S
C1363 C1366 1.499 . S
C1364 H1344 0.950 . S
C1364 C1363 1.414 . S
C1364 C1365 1.374 . S
C1365 H1345 0.950 . S
C1365 C1361 1.385 . S
C1365 C1364 1.374 . S
C1366 C1363 1.499 . S
C1366 C1367 1.373 . S
C1366 C1368 1.389 . S
C1367 H1346 0.950 . S
C1367 C1366 1.373 . S
C1367 C1383 1.377 . S
C1368 C1366 1.389 . S
C1368 C1369 1.524 . S
C1368 C1382 1.377 . S
C1369 C1368 1.524 . S
C1369 C1370 1.397 . S
C1369 C1374 1.363 . S
C1370 H1347 0.950 . S
C1370 C1369 1.397 . S
C1370 C1371 1.334 . S
C1371 H1348 0.950 . S
C1371 C1370 1.334 . S
C1371 C1372 1.287 . S
C1372 C1371 1.287 . S
C1372 C1373 1.524 . S
C1372 H1391 0.913 . S
C1373 H1349 0.950 . S
C1373 C1372 1.524 . S
C1373 C1374 1.415 . S
C1374 H1350 0.950 . S
C1374 C1369 1.363 . S
C1374 C1373 1.415 . S
C1375 H1351 0.951 . S
C1375 C1376 1.366 . S
C1375 C1377 1.388 . S
C1376 C1375 1.366 . S
C1376 C1380 1.385 . S
C1377 H1352 0.951 . S
C1377 C1375 1.388 . S
C1377 C1378 1.366 . S
C1378 C1377 1.366 . S
C1378 C1379 1.414 . S
C1378 C1381 1.499 . S
C1379 H1353 0.950 . S
C1379 C1378 1.414 . S
C1379 C1380 1.374 . S
C1380 H1354 0.950 . S
C1380 C1376 1.385 . S
C1380 C1379 1.374 . S
C1381 C1378 1.499 . S
C1381 C1382 1.373 . S
C1381 C1383 1.389 . S
C1382 H1355 0.950 . S
C1382 C1368 1.377 . S
C1382 C1381 1.373 . S
C1383 C1367 1.377 . S
C1383 C1381 1.389 . S
C1383 C1384 1.524 . S
C1384 C1383 1.524 . S
C1384 C1385 1.397 . S
C1384 C1389 1.363 . S
C1385 H1356 0.950 . S
C1385 C1384 1.397 . S
C1385 C1386 1.334 . S
C1386 H1357 0.950 . S
C1386 C1385 1.334 . S
C1386 C1387 1.287 . S
C1387 C1386 1.287 . S
C1387 C1388 1.524 . S
C1387 H1390 0.999 . S
C1388 H1358 0.950 . S
C1388 C1387 1.524 . S
C1388 C1389 1.415 . S
C1389 H1359 0.950 . S
C1389 C1384 1.363 . S
C1389 C1388 1.415 . S
H1390 C1387 0.999 . S
H1391 C1372 0.913 . S
C211 C8 1.234 . S
C226 C96 1.210 . S
C261 C31 1.139 . S
C276 C109 1.127 . S
C311 C53 1.370 . S
C326 C123 1.351 . S
C376 C136 1.291 . S
C361 C74 1.315 . S
C426 C148 1.209 . S
C411 C26 1.203 . S
C461 C48 1.360 1_556 S
C476 C162 1.311 . S
C511 C71 1.181 . S
C526 C174 1.157 . S
C561 C5 1.315 . S
C576 C188 1.291 . S
C611 C50 1.181 . S
C626 C187 1.154 . S
C676 C149 1.309 . S
C661 C70 1.359 . S
C726 C161 1.212 . S
C711 C4 1.203 . S
C761 C28 1.315 . S
C776 C175 1.294 . S
C826 C110 1.349 . S
C811 C73 1.371 . S
C861 C7 1.139 . S
C876 C122 1.131 . S
C926 C135 1.205 . S
C911 C30 1.234 . S
C976 C97 1.293 . S
C961 C52 1.314 . S
C1026 C170 1.265 . S
C1011 C9 1.306 . S
C1076 C183 1.230 . S
C1061 C29 1.306 . S
C1111 C51 1.363 . S
C1126 C144 1.316 . S
C1176 C157 1.351 . S
C1161 C75 1.363 . S
C1226 C118 1.263 . S
C1211 C27 1.298 . S
C1261 C49 1.361 1_556 S
C1276 C131 1.280 . S
C1326 C92 1.319 . S
C1311 C72 1.362 . S
C1376 C105 1.229 . S
C1361 C6 1.297 . S
