# Generated by pormake.
# Topology pts, (4,4)-cn, num edge types: 1
# Building blocks:
#     Node 0, Type 0, BuildingBlock: NAHDIM_clean_linker_0, # of connection points: 4
#     Node 1, Type 0, BuildingBlock: NAHDIM_clean_linker_0, # of connection points: 4
#     Node 2, Type 1, BuildingBlock: QUQFOY_clean_sbu_1, # of connection points: 4
#     Node 3, Type 1, BuildingBlock: QUQFOY_clean_sbu_1, # of connection points: 4
#     Edge 4, Type (0, 1), BuildingBlock: KIFKEQ_clean_linker_1, # of connection points: 2
#     Edge 5, Type (0, 1), BuildingBlock: KIFKEQ_clean_linker_1, # of connection points: 2
#     Edge 6, Type (0, 1), BuildingBlock: KIFKEQ_clean_linker_1, # of connection points: 2
#     Edge 7, Type (0, 1), BuildingBlock: KIFKEQ_clean_linker_1, # of connection points: 2
#     Edge 8, Type (0, 1), BuildingBlock: KIFKEQ_clean_linker_1, # of connection points: 2
#     Edge 9, Type (0, 1), BuildingBlock: KIFKEQ_clean_linker_1, # of connection points: 2
#     Edge 10, Type (0, 1), BuildingBlock: KIFKEQ_clean_linker_1, # of connection points: 2
#     Edge 11, Type (0, 1), BuildingBlock: KIFKEQ_clean_linker_1, # of connection points: 2
# Relax obj value: 0.113
# Max RMSD: 0.244
# Mean RMSD: 0.150
data_MOF--net-pts--node1-QUQFOY_clean_sbu_1--node2-NAHDIM_clean_linker_0--edge1-KIFKEQ_clean_linker_1
_symmetry_space_group_name_H-M    P1
_symmetry_Int_Tables_number       1
_symmetry_cell_setting            triclinic
loop_
_symmetry_equiv_pos_as_xyz
'x, y, z'
_cell_length_a     30.558339
_cell_length_b     33.974695
_cell_length_c     56.591543
_cell_angle_alpha  90.296594
_cell_angle_beta   89.270702
_cell_angle_gamma 89.908037
loop_
_atom_site_label
_atom_site_type_symbol
_atom_site_fract_x
_atom_site_fract_y
_atom_site_fract_z
_atom_type_partial_charge
C0 C 0.75692 0.12205 0.09453 0.0
C1 C 0.73807 0.09007 0.11067 0.0
C2 C 0.69376 0.04702 0.08513 0.0
C3 C 0.69172 0.00934 0.07526 0.0
C4 C 0.65559 0.99735 0.06207 0.0
C5 C 0.62075 0.024 0.05851 0.0
C6 C 0.62257 0.06234 0.0683 0.0
C7 C 0.65909 0.07353 0.08156 0.0
C8 C 0.65459 0.95615 0.05198 0.0
C9 C 0.58598 0.09147 0.06463 0.0
C10 C 0.33106 0.87944 0.10095 0.0
C11 C 0.35015 0.91477 0.11416 0.0
C12 C 0.39539 0.95252 0.08587 0.0
C13 C 0.3986 0.9889 0.07468 0.0
C14 C 0.43583 0.99902 0.06139 0.0
C15 C 0.47041 0.97153 0.05884 0.0
C16 C 0.46729 0.93436 0.06989 0.0
C17 C 0.42981 0.92521 0.0834 0.0
C18 C 0.43822 0.03921 0.05018 0.0
C19 C 0.50346 0.90432 0.06728 0.0
C20 C 0.39831 0.93175 0.91198 0.0
C21 C 0.39846 0.97206 0.91761 0.0
C22 C 0.43558 0.98987 0.92723 0.0
C23 C 0.47345 0.96695 0.9311 0.0
C24 C 0.47441 0.92697 0.92399 0.0
C25 C 0.43677 0.90994 0.91433 0.0
C26 C 0.43383 0.03284 0.93407 0.0
C27 C 0.51453 0.9019 0.92757 0.0
C28 C 0.76803 0.15738 0.91624 0.0
C29 C 0.75117 0.11655 0.90943 0.0
C30 C 0.67571 0.09361 0.91191 0.0
C31 C 0.6337 0.1082 0.91631 0.0
C32 C 0.60108 0.08424 0.92624 0.0
C33 C 0.61062 0.04436 0.93122 0.0
C34 C 0.65218 0.02864 0.92512 0.0
C35 C 0.68449 0.05353 0.91565 0.0
C36 C 0.5569 0.1019 0.93212 0.0
C37 C 0.66288 0.98593 0.9294 0.0
C38 C 0.5824 0.01145 0.04461 0.0
C39 C 0.54616 0.99649 0.05686 0.0
C40 C 0.50987 0.98219 0.04479 0.0
C41 C 0.51033 0.98115 0.01982 0.0
C42 C 0.47567 0.96445 0.00715 0.0
C43 C 0.47592 0.96455 0.98257 0.0
C44 C 0.51043 0.98208 0.96972 0.0
C45 C 0.51016 0.98371 0.94475 0.0
C46 C 0.5439 0.00296 0.93256 0.0
C47 C 0.57843 0.02044 0.94473 0.0
C48 C 0.58021 0.01768 0.96965 0.0
C49 C 0.61514 0.0339 0.98242 0.0
C50 C 0.61637 0.03128 0.00692 0.0
C51 C 0.58203 0.01349 0.01968 0.0
C52 C 0.54616 0.99764 0.00723 0.0
C53 C 0.54577 0.99886 0.98217 0.0
C54 C 0.29932 0.88562 0.9239 0.0
C55 C 0.31916 0.92157 0.91152 0.0
O56 O 0.72992 0.05624 0.0977 0.0
O57 O 0.70701 0.11914 0.90445 0.0
O58 O 0.36176 0.91295 0.90448 0.0
O59 O 0.3583 0.94521 0.09854 0.0
H60 H 0.70727 0.10088 0.11919 0.0
H61 H 0.73332 0.12946 0.08048 0.0
H62 H 0.78788 0.11182 0.08597 0.0
H63 H 0.76353 0.14923 0.10488 0.0
H64 H 0.71867 0.98918 0.07806 0.0
H65 H 0.6603 0.10297 0.08886 0.0
H66 H 0.62444 0.94082 0.05807 0.0
H67 H 0.6835 0.93847 0.05717 0.0
H68 H 0.65367 0.95752 0.03239 0.0
H69 H 0.59308 0.12071 0.07257 0.0
H70 H 0.55526 0.07995 0.07265 0.0
H71 H 0.58027 0.09522 0.04543 0.0
H72 H 0.38098 0.90582 0.12294 0.0
H73 H 0.32449 0.85493 0.11342 0.0
H74 H 0.35452 0.86878 0.08721 0.0
H75 H 0.30005 0.88772 0.09219 0.0
H76 H 0.3718 0.00965 0.07664 0.0
H77 H 0.42755 0.89667 0.09169 0.0
H78 H 0.46937 0.05393 0.05488 0.0
H79 H 0.41049 0.05845 0.05574 0.0
H80 H 0.43773 0.03604 0.03065 0.0
H81 H 0.49477 0.87573 0.07553 0.0
H82 H 0.53356 0.91572 0.07569 0.0
H83 H 0.51115 0.8993 0.04827 0.0
H84 H 0.31823 0.94528 0.92517 0.0
H85 H 0.36959 0.9897 0.91479 0.0
H86 H 0.43666 0.87904 0.90947 0.0
H87 H 0.43753 0.03591 0.95349 0.0
H88 H 0.40264 0.04707 0.92892 0.0
H89 H 0.46143 0.04876 0.92553 0.0
H90 H 0.51119 0.87215 0.91956 0.0
H91 H 0.52038 0.89862 0.94678 0.0
H92 H 0.5437 0.91656 0.91972 0.0
H93 H 0.75632 0.09751 0.92515 0.0
H94 H 0.80351 0.15603 0.92024 0.0
H95 H 0.75026 0.16816 0.93225 0.0
H96 H 0.76281 0.17875 0.90174 0.0
H97 H 0.62711 0.139 0.91291 0.0
H98 H 0.7166 0.04174 0.91141 0.0
H99 H 0.54902 0.09767 0.95114 0.0
H100 H 0.53137 0.08658 0.92179 0.0
H101 H 0.5554 0.13385 0.9281 0.0
H102 H 0.69426 0.97701 0.9208 0.0
H103 H 0.63626 0.96684 0.92269 0.0
H104 H 0.6654 0.9808 0.94869 0.0
H105 H 0.54598 0.99644 0.07604 0.0
H106 H 0.44805 0.95097 0.01612 0.0
H107 H 0.44835 0.95117 0.97382 0.0
H108 H 0.5427 0.00522 0.91347 0.0
H109 H 0.64213 0.04863 0.97363 0.0
H110 H 0.6442 0.04405 0.01578 0.0
H111 H 0.26394 0.89044 0.92769 0.0
H112 H 0.31611 0.8808 0.94095 0.0
H113 H 0.3036 0.85854 0.91306 0.0
C114 C 0.12758 0.29654 0.58034 0.0
C115 C 0.11391 0.3147 0.60418 0.0
C116 C 0.0697 0.37214 0.59264 0.0
C117 C 0.02702 0.38652 0.59069 0.0
C118 C 0.01862 0.42314 0.58028 0.0
C119 C 0.05397 0.44602 0.57173 0.0
C120 C 0.09738 0.43231 0.57431 0.0
C121 C 0.10484 0.39548 0.58463 0.0
C122 C 0.97196 0.43692 0.57779 0.0
C123 C 0.13589 0.45622 0.56561 0.0
C124 C 0.95718 0.7393 0.58374 0.0
C125 C 0.97037 0.72236 0.6077 0.0
C126 C 0.01364 0.66397 0.59594 0.0
C127 C 0.05616 0.64942 0.59291 0.0
C128 C 0.06402 0.61286 0.58197 0.0
C129 C 0.02827 0.59021 0.57404 0.0
C130 C 0.98503 0.60391 0.57794 0.0
C131 C 0.97811 0.64068 0.58875 0.0
C132 C 0.11051 0.59903 0.57811 0.0
C133 C 0.94612 0.58019 0.56997 0.0
C134 C 0.04485 0.67083 0.42602 0.0
C135 C 0.08358 0.65149 0.4326 0.0
C136 C 0.08223 0.61389 0.44271 0.0
C137 C 0.04142 0.59524 0.44648 0.0
C138 C 0.0025 0.61408 0.43936 0.0
C139 C 0.00478 0.65165 0.42919 0.0
C140 C 0.12441 0.59447 0.44999 0.0
C141 C 0.95847 0.59496 0.44314 0.0
C142 C 0.98257 0.29554 0.42848 0.0
C143 C 0.00043 0.31549 0.40607 0.0
C144 C 0.03598 0.37532 0.42138 0.0
C145 C 0.07625 0.39318 0.42582 0.0
C146 C 0.07859 0.42999 0.43713 0.0
C147 C 0.03954 0.44931 0.44423 0.0
C148 C -0.00139 0.43207 0.43918 0.0
C149 C 0.99718 0.39532 0.4278 0.0
C150 C 0.12275 0.44774 0.44212 0.0
C151 C 0.95632 0.45206 0.44641 0.0
C152 C 0.04571 0.48296 0.5586 0.0
C153 C 0.04095 0.51812 0.57136 0.0
C154 C 0.03591 0.55405 0.55974 0.0
C155 C 0.03688 0.55523 0.53475 0.0
C156 C 0.03429 0.5911 0.52253 0.0
C157 C 0.03537 0.59198 0.49797 0.0
C158 C 0.03831 0.55699 0.48464 0.0
C159 C 0.03947 0.5576 0.45965 0.0
C160 C 0.04043 0.52221 0.44691 0.0
C161 C 0.04126 0.48599 0.45855 0.0
C162 C 0.04225 0.48489 0.48352 0.0
C163 C 0.04496 0.44905 0.49576 0.0
C164 C 0.04634 0.44832 0.52031 0.0
C165 C 0.04416 0.48336 0.53363 0.0
C166 C 0.04043 0.5197 0.52168 0.0
C167 C 0.04032 0.52053 0.49659 0.0
C168 C 0.09451 0.75228 0.43564 0.0
C169 C 0.07997 0.73222 0.41268 0.0
O170 O 0.07517 0.33565 0.60202 0.0
O171 O 0.03627 0.33879 0.41131 0.0
O172 O 0.04437 0.70791 0.41695 0.0
O173 O 0.00869 0.70065 0.60543 0.0
H174 H 0.14028 0.33465 0.61033 0.0
H175 H 0.13405 0.31992 0.56714 0.0
H176 H 0.10137 0.27713 0.57346 0.0
H177 H 0.15804 0.279 0.58227 0.0
H178 H 0.00011 0.3685 0.597 0.0
H179 H 0.13816 0.38515 0.58601 0.0
H180 H 0.96771 0.46595 0.58662 0.0
H181 H 0.94809 0.41586 0.58555 0.0
H182 H 0.96448 0.44088 0.55879 0.0
H183 H 0.1677 0.44333 0.57091 0.0
H184 H 0.13363 0.48677 0.57261 0.0
H185 H 0.13526 0.4579 0.54603 0.0
H186 H 0.94358 0.70322 0.61449 0.0
H187 H 0.92716 0.75757 0.58578 0.0
H188 H 0.95012 0.71525 0.57102 0.0
H189 H 0.98388 0.75771 0.57621 0.0
H190 H 0.08338 0.66736 0.59863 0.0
H191 H 0.94489 0.65106 0.59111 0.0
H192 H 0.11746 0.59623 0.55887 0.0
H193 H 0.11483 0.56946 0.58602 0.0
H194 H 0.1347 0.61952 0.58594 0.0
H195 H 0.91461 0.59288 0.57641 0.0
H196 H 0.94879 0.54944 0.57636 0.0
H197 H 0.94571 0.57913 0.55036 0.0
H198 H 0.10793 0.71462 0.40556 0.0
H199 H 0.11502 0.66555 0.43035 0.0
H200 H 0.97507 0.66659 0.42401 0.0
H201 H 0.125 0.59192 0.46954 0.0
H202 H 0.15372 0.61127 0.44412 0.0
H203 H 0.12644 0.56423 0.44251 0.0
H204 H 0.93132 0.61289 0.43596 0.0
H205 H 0.95251 0.59052 0.46234 0.0
H206 H 0.95819 0.56551 0.43454 0.0
H207 H 0.97402 0.33397 0.39854 0.0
H208 H 0.95524 0.27543 0.42398 0.0
H209 H 0.96985 0.31782 0.44122 0.0
H210 H 0.0086 0.27844 0.43736 0.0
H211 H 0.10601 0.37778 0.42071 0.0
H212 H 0.9656 0.38237 0.42442 0.0
H213 H 0.12745 0.44962 0.46152 0.0
H214 H 0.12431 0.47816 0.43508 0.0
H215 H 0.14999 0.4302 0.43421 0.0
H216 H 0.92708 0.43573 0.44028 0.0
H217 H 0.95536 0.48231 0.4391 0.0
H218 H 0.95454 0.45468 0.46597 0.0
H219 H 0.04122 0.51753 0.59053 0.0
H220 H 0.0318 0.61898 0.53179 0.0
H221 H 0.03351 0.62049 0.48959 0.0
H222 H 0.04054 0.52286 0.42774 0.0
H223 H 0.0465 0.42111 0.4865 0.0
H224 H 0.04877 0.41986 0.52871 0.0
H225 H 0.12148 0.77334 0.43192 0.0
H226 H 0.1067 0.73008 0.44829 0.0
H227 H 0.06687 0.76831 0.44427 0.0
O228 O 0.97769 0.99843 0.23836 0.0
Cd229 Cd 0.03243 0.98021 0.25631 0.0
Cd230 Cd 0.05488 0.05786 0.25361 0.0
O231 O 0.99804 0.06035 0.23456 0.0
O232 O 0.01995 0.92523 0.26604 0.0
O233 O 0.03301 0.97304 0.29163 0.0
C234 C 0.02527 0.93624 0.28762 0.0
C235 C 0.06001 0.1044 0.28379 0.0
C236 C 0.97086 0.03292 0.23062 0.0
C237 C 0.11744 1.00083 0.23143 0.0
O238 O 0.11037 0.03674 0.23664 0.0
O239 O 0.09013 0.97448 0.23745 0.0
O240 O 0.06654 0.11369 0.26197 0.0
O241 O 0.05214 0.06793 0.28864 0.0
O242 O 0.9921 0.06775 0.77633 0.0
Cd243 Cd 0.05193 0.06258 0.75973 0.0
Cd244 Cd 0.0309 0.9843 0.75835 0.0
O245 O 0.97712 0.00434 0.77754 0.0
O246 O 0.0684 0.11723 0.75106 0.0
O247 O 0.05757 0.07025 0.72457 0.0
C248 C 0.06718 0.10648 0.72921 0.0
C249 C 0.0179 0.93816 0.72856 0.0
C250 C 0.96717 0.03975 0.78263 0.0
C251 C 0.11292 0.00675 0.78368 0.0
O252 O 0.08952 0.979 0.77567 0.0
O253 O 0.10296 0.04245 0.77989 0.0
O254 O 0.01524 0.92904 0.75059 0.0
O255 O 0.02789 0.97402 0.72327 0.0
H256 H 0.34514 0.89296 0.16074 0.0
H257 H 0.28148 0.96686 0.10964 0.0
H258 H 0.2925 0.91489 0.19112 0.0
H259 H 0.22953 0.98904 0.13994 0.0
H260 H 0.17099 0.04879 0.20532 0.0
H261 H 0.23011 0.02882 0.1783 0.0
H262 H 0.21032 0.90741 0.19782 0.0
H263 H 0.15123 0.92716 0.22475 0.0
C264 C 0.32022 0.91417 0.15611 0.0
C265 C 0.31811 0.92891 0.13299 0.0
C266 C 0.2901 0.92659 0.17342 0.0
C267 C 0.2574 0.95407 0.16792 0.0
C268 C 0.25502 0.96851 0.14477 0.0
C269 C 0.28471 0.95575 0.12744 0.0
C270 C 0.17963 0.01791 0.20408 0.0
C271 C 0.15624 0.98953 0.21704 0.0
C272 C 0.21327 0.00649 0.18853 0.0
C273 C 0.22454 0.96657 0.1859 0.0
C274 C 0.20246 0.9384 0.19961 0.0
C275 C 0.16848 0.94973 0.21492 0.0
H276 H 0.16784 0.29526 0.64074 0.0
H277 H 0.04673 0.26107 0.60804 0.0
H278 H 0.1583 0.24339 0.67005 0.0
H279 H 0.03694 0.20922 0.6375 0.0
H280 H 0.05777 0.09671 0.68138 0.0
H281 H 0.0702 0.14582 0.65051 0.0
H282 H 0.10797 0.23059 0.70357 0.0
H283 H 0.096 0.18178 0.73425 0.0
C284 C 0.13906 0.27676 0.63992 0.0
C285 C 0.10766 0.28261 0.62237 0.0
C286 C 0.13356 0.24711 0.65669 0.0
C287 C 0.09675 0.22238 0.65615 0.0
C288 C 0.06579 0.22763 0.63827 0.0
C289 C 0.07118 0.25746 0.62156 0.0
C290 C 0.06894 0.12578 0.6864 0.0
C291 C 0.07589 0.13535 0.71025 0.0
C292 C 0.0758 0.15393 0.66876 0.0
C293 C 0.09009 0.19204 0.67463 0.0
C294 C 0.09748 0.20136 0.69845 0.0
C295 C 0.09036 0.1734 0.71605 0.0
H296 H 0.74369 0.1233 0.1548 0.0
H297 H 0.80659 0.03708 0.10939 0.0
H298 H 0.79674 0.10912 0.18577 0.0
H299 H 0.85895 0.02265 0.14032 0.0
H300 H 0.91719 0.97947 0.20931 0.0
H301 H 0.85836 0.99292 0.18165 0.0
H302 H 0.87913 0.11777 0.19043 0.0
H303 H 0.938 0.10451 0.21803 0.0
C304 C 0.76853 0.10106 0.15158 0.0
C305 C 0.77029 0.08061 0.12993 0.0
C306 C 0.79889 0.09308 0.1692 0.0
C307 C 0.8315 0.06442 0.16552 0.0
C308 C 0.83355 0.04427 0.14381 0.0
C309 C 0.80361 0.05258 0.12611 0.0
C310 C 0.90888 0.00979 0.20557 0.0
C311 C 0.93244 0.04092 0.21574 0.0
C312 C 0.87539 0.01745 0.18964 0.0
C313 C 0.86445 0.05636 0.18383 0.0
C314 C 0.88676 0.0875 0.19472 0.0
C315 C 0.92059 0.07987 0.21041 0.0
H316 H 0.91654 0.74504 0.64448 0.0
H317 H 0.03866 0.77502 0.60991 0.0
H318 H 0.92686 0.79862 0.67275 0.0
H319 H 0.04922 0.82862 0.63835 0.0
H320 H 0.0291 0.94454 0.68052 0.0
H321 H 0.0169 0.89345 0.65063 0.0
H322 H 0.97726 0.81258 0.70548 0.0
H323 H 0.989 0.86331 0.73515 0.0
C324 C 0.94572 0.76298 0.64304 0.0
C325 C 0.97717 0.75546 0.62527 0.0
C326 C 0.95166 0.79361 0.65922 0.0
C327 C 0.98898 0.81766 0.65785 0.0
C328 C 0.02 0.81073 0.63975 0.0
C329 C 0.01416 0.77992 0.62362 0.0
C330 C 0.01763 0.91588 0.68614 0.0
C331 C 0.00998 0.90798 0.71019 0.0
C332 C 0.01089 0.88661 0.66906 0.0
C333 C 0.99602 0.84905 0.67572 0.0
C334 C 0.98817 0.84136 0.69975 0.0
C335 C 0.99515 0.87042 0.71678 0.0
H336 H 0.2802 0.87632 0.87639 0.0
H337 H 0.30113 0.99689 0.89791 0.0
H338 H 0.23445 0.89844 0.84455 0.0
H339 H 0.25967 0.01947 0.8644 0.0
H340 H 0.13777 0.04722 0.8226 0.0
H341 H 0.19044 0.02727 0.85187 0.0
H342 H 0.22517 0.92601 0.80867 0.0
H343 H 0.16926 0.94462 0.78051 0.0
C344 C 0.27529 0.90763 0.87428 0.0
C345 C 0.29299 0.93477 0.89037 0.0
C346 C 0.24961 0.92051 0.85558 0.0
C347 C 0.2425 0.96097 0.85181 0.0
C348 C 0.2628 0.98808 0.86704 0.0
C349 C 0.28722 0.97513 0.88618 0.0
C350 C 0.15708 0.02093 0.81932 0.0
C351 C 0.14942 0.99733 0.79942 0.0
C352 C 0.18767 0.00948 0.83606 0.0
C353 C 0.21237 0.97471 0.83294 0.0
C354 C 0.20611 0.95229 0.81222 0.0
C355 C 0.17442 0.96313 0.79587 0.0
H356 H 0.96606 0.30335 0.36207 0.0
H357 H 0.06498 0.2588 0.40881 0.0
H358 H 0.98548 0.2528 0.333 0.0
H359 H 0.08381 0.20751 0.37977 0.0
H360 H 0.05337 0.09519 0.33186 0.0
H361 H 0.04327 0.14708 0.36168 0.0
H362 H 0.05213 0.23516 0.30715 0.0
H363 H 0.06253 0.18374 0.27744 0.0
C364 C 0.99202 0.28281 0.3661 0.0
C365 C 0.01377 0.28487 0.3878 0.0
C366 C 0.00321 0.25396 0.34944 0.0
C367 C 0.03609 0.22626 0.35418 0.0
C368 C 0.0581 0.22834 0.37578 0.0
C369 C 0.04736 0.25764 0.39234 0.0
C370 C 0.05374 0.12565 0.3263 0.0
C371 C 0.0585 0.13533 0.30228 0.0
C372 C 0.04811 0.1553 0.34336 0.0
C373 C 0.04658 0.19504 0.33664 0.0
C374 C 0.05272 0.20472 0.31275 0.0
C375 C 0.05887 0.17522 0.29578 0.0
H376 H 0.7472 0.14045 0.86315 0.0
H377 H 0.81236 0.05755 0.90835 0.0
H378 H 0.7933 0.11903 0.82979 0.0
H379 H 0.85846 0.03617 0.87513 0.0
H380 H 0.91581 0.98758 0.80708 0.0
H381 H 0.85751 0.00296 0.83559 0.0
H382 H 0.87286 0.12679 0.82085 0.0
H383 H 0.9308 0.11159 0.79231 0.0
C384 C 0.77102 0.1173 0.86582 0.0
C385 C 0.77631 0.10063 0.88828 0.0
C386 C 0.79744 0.10515 0.8468 0.0
C387 C 0.82948 0.07597 0.84987 0.0
C388 C 0.83367 0.05836 0.87215 0.0
C389 C 0.80749 0.07071 0.89119 0.0
C390 C 0.90626 0.01804 0.80963 0.0
C391 C 0.92821 0.0484 0.79758 0.0
C392 C 0.87305 0.02682 0.82605 0.0
C393 C 0.86084 0.06607 0.83054 0.0
C394 C 0.88129 0.09624 0.81763 0.0
C395 C 0.9147 0.08752 0.80138 0.0
H396 H 0.01537 0.78924 0.41509 0.0
H397 H 0.11663 0.74303 0.36872 0.0
H398 H 0.99775 0.83927 0.3856 0.0
H399 H 0.09831 0.79223 0.3392 0.0
H400 H 0.02191 0.85659 0.28295 0.0
H401 H 0.0313 0.80735 0.31357 0.0
H402 H 0.03954 0.89923 0.36626 0.0
H403 H 0.03052 0.94901 0.33547 0.0
C404 C 0.03389 0.78985 0.39866 0.0
C405 C 0.0678 0.76254 0.39435 0.0
C406 C 0.02378 0.8184 0.38183 0.0
C407 C 0.04669 0.81953 0.36019 0.0
C408 C 0.07994 0.7918 0.3557 0.0
C409 C 0.09051 0.76374 0.37262 0.0
C410 C 0.0252 0.86643 0.30108 0.0
C411 C 0.02579 0.90676 0.30677 0.0
C412 C 0.03077 0.83817 0.31857 0.0
C413 C 0.03651 0.84955 0.34219 0.0
C414 C 0.03504 0.88975 0.34815 0.0
C415 C 0.03001 0.91817 0.33054 0.0
loop_
_geom_bond_atom_site_label_1
_geom_bond_atom_site_label_2
_geom_bond_distance
_geom_bond_site_symmetry_2
_ccdc_geom_bond_type
C0 C1 1.560 . S
C0 H61 0.959 . S
C0 H62 0.959 . S
C0 H63 0.960 . S
C1 C0 1.560 . S
C1 O56 1.426 . S
C1 H60 0.980 . S
C2 C3 1.407 1_545 S
C2 C7 1.418 . S
C2 O56 1.334 . S
C3 C2 1.407 1_565 S
C3 C4 1.360 . S
C3 H64 0.929 . S
C4 C3 1.360 . S
C4 C5 1.401 1_565 S
C4 C8 1.527 . S
C5 C4 1.401 1_545 S
C5 C6 1.405 . S
C5 C38 1.587 1_545 S
C6 C5 1.405 . S
C6 C7 1.332 . S
C6 C9 1.496 . S
C7 C2 1.418 . S
C7 C6 1.332 . S
C7 H65 0.929 . S
C8 C4 1.527 . S
C8 H66 0.959 . S
C8 H67 0.961 . S
C8 H68 0.961 . S
C9 C6 1.496 . S
C9 H69 0.960 . S
C9 H70 0.960 . S
C9 H71 0.961 . S
C10 C11 1.517 . S
C10 H73 0.961 1_565 S
C10 H74 0.960 . S
C10 H75 0.959 . S
C11 C10 1.517 . S
C11 O59 1.468 . S
C11 H72 0.980 1_565 S
C12 C13 1.349 1_565 S
C12 C17 1.367 . S
C12 O59 1.408 . S
C13 C12 1.349 1_545 S
C13 C14 1.407 . S
C13 H76 0.930 . S
C14 C13 1.407 . S
C14 C15 1.449 1_545 S
C14 C18 1.535 . S
C15 C14 1.449 1_565 S
C15 C16 1.384 . S
C15 C40 1.553 . S
C16 C15 1.384 . S
C16 C17 1.364 . S
C16 C19 1.450 . S
C17 C12 1.367 . S
C17 C16 1.364 . S
C17 H77 0.931 . S
C18 C14 1.535 . S
C18 H78 0.959 . S
C18 H79 0.961 . S
C18 H80 0.959 . S
C19 C16 1.450 . S
C19 H81 0.960 . S
C19 H82 0.960 . S
C19 H83 0.960 . S
C20 C21 1.309 1_565 S
C20 C25 1.304 . S
C20 O58 1.435 . S
C21 C20 1.309 1_545 S
C21 C22 1.476 . S
C21 H85 0.930 . S
C22 C21 1.476 . S
C22 C23 1.400 1_545 S
C22 C26 1.567 . S
C23 C22 1.400 1_565 S
C23 C24 1.373 . S
C23 C45 1.432 . S
C24 C23 1.373 . S
C24 C25 1.339 . S
C24 C27 1.530 . S
C25 C20 1.304 . S
C25 C24 1.339 . S
C25 H86 0.930 . S
C26 C22 1.567 . S
C26 H87 0.961 . S
C26 H88 0.960 . S
C26 H89 0.958 . S
C27 C24 1.530 . S
C27 H90 0.961 . S
C27 H91 0.960 . S
C27 H92 0.960 . S
C28 C29 1.530 . S
C28 H94 0.961 . S
C28 H95 0.961 . S
C28 H96 0.959 . S
C29 C28 1.530 . S
C29 O57 1.412 . S
C29 H93 0.980 . S
C30 C31 1.288 . S
C30 C35 1.377 1_545 S
C30 O57 1.393 . S
C31 C30 1.288 . S
C31 C32 1.369 . S
C31 H97 0.932 . S
C32 C31 1.369 . S
C32 C33 1.398 . S
C32 C36 1.527 . S
C33 C32 1.398 . S
C33 C34 1.380 1_545 S
C33 C47 1.497 . S
C34 C33 1.380 1_565 S
C34 C35 1.383 . S
C34 C37 1.603 . S
C35 C30 1.377 1_565 S
C35 C34 1.383 . S
C35 H98 0.929 . S
C36 C32 1.527 . S
C36 H99 0.961 . S
C36 H100 0.959 . S
C36 H101 0.959 . S
C37 C34 1.603 . S
C37 H102 0.960 . S
C37 H103 0.962 . S
C37 H104 0.961 . S
C38 C5 1.587 1_565 S
C38 C39 1.360 . S
C38 C51 1.412 . S
C39 C38 1.360 . S
C39 C40 1.365 . S
C39 H105 0.929 . S
C40 C15 1.553 . S
C40 C39 1.365 . S
C40 C41 1.404 . S
C41 C40 1.404 . S
C41 C42 1.395 . S
C41 C52 1.451 . S
C42 C41 1.395 . S
C42 C43 1.328 . S
C42 H106 0.930 . S
C43 C42 1.328 . S
C43 C44 1.455 1_554 S
C43 H107 0.926 1_554 S
C44 C43 1.455 1_556 S
C44 C45 1.445 . S
C44 C53 1.395 . S
C45 C23 1.432 . S
C45 C44 1.445 . S
C45 C46 1.370 . S
C46 C45 1.370 . S
C46 C47 1.438 1_565 S
C46 H108 0.930 . S
C47 C33 1.497 . S
C47 C46 1.438 1_545 S
C47 C48 1.358 1_545 S
C48 C47 1.358 1_565 S
C48 C49 1.399 1_565 S
C48 C53 1.450 . S
C49 C48 1.399 1_545 S
C49 C50 1.347 1_556 S
C49 H109 0.929 . S
C50 C49 1.347 1_554 S
C50 C51 1.455 1_545 S
C50 H110 0.930 . S
C51 C38 1.412 . S
C51 C50 1.455 1_565 S
C51 C52 1.331 . S
C52 C41 1.451 . S
C52 C51 1.331 . S
C52 C53 1.497 1_554 S
C53 C44 1.395 . S
C53 C48 1.450 . S
C53 C52 1.497 1_556 S
C54 C55 1.582 1_565 S
C54 H111 0.962 . S
C54 H112 0.959 . S
C54 H113 0.958 . S
C55 C54 1.582 1_545 S
C55 O58 1.458 1_545 S
C55 H84 0.980 . S
O56 C1 1.426 . S
O56 C2 1.334 . S
O57 C29 1.412 . S
O57 C30 1.393 . S
O58 C20 1.435 . S
O58 C55 1.458 1_565 S
O59 C11 1.468 . S
O59 C12 1.408 . S
H60 C1 0.980 . S
H61 C0 0.959 . S
H62 C0 0.959 . S
H63 C0 0.960 . S
H64 C3 0.929 . S
H65 C7 0.929 . S
H66 C8 0.959 . S
H67 C8 0.961 . S
H68 C8 0.961 . S
H69 C9 0.960 . S
H70 C9 0.960 . S
H71 C9 0.961 . S
H72 C11 0.980 1_545 S
H73 C10 0.961 1_545 S
H74 C10 0.960 . S
H75 C10 0.959 . S
H76 C13 0.930 . S
H77 C17 0.931 . S
H78 C18 0.959 . S
H79 C18 0.961 . S
H80 C18 0.959 . S
H81 C19 0.960 . S
H82 C19 0.960 . S
H83 C19 0.960 . S
H84 C55 0.980 . S
H85 C21 0.930 . S
H86 C25 0.930 . S
H87 C26 0.961 . S
H88 C26 0.960 . S
H89 C26 0.958 . S
H90 C27 0.961 . S
H91 C27 0.960 . S
H92 C27 0.960 . S
H93 C29 0.980 . S
H94 C28 0.961 . S
H95 C28 0.961 . S
H96 C28 0.959 . S
H97 C31 0.932 . S
H98 C35 0.929 . S
H99 C36 0.961 . S
H100 C36 0.959 . S
H101 C36 0.959 . S
H102 C37 0.960 . S
H103 C37 0.962 . S
H104 C37 0.961 . S
H105 C39 0.929 . S
H106 C42 0.930 . S
H107 C43 0.926 1_556 S
H108 C46 0.930 . S
H109 C49 0.929 . S
H110 C50 0.930 . S
H111 C54 0.962 . S
H112 C54 0.959 . S
H113 C54 0.958 . S
C114 C115 1.560 . S
C114 H175 0.959 . S
C114 H176 0.959 . S
C114 H177 0.960 . S
C115 C114 1.560 . S
C115 O170 1.426 . S
C115 H174 0.980 . S
C116 C117 1.407 . S
C116 C121 1.418 . S
C116 O170 1.334 . S
C117 C116 1.407 . S
C117 C118 1.360 . S
C117 H178 0.929 . S
C118 C117 1.360 . S
C118 C119 1.401 . S
C118 C122 1.527 1_455 S
C119 C118 1.401 . S
C119 C120 1.405 . S
C119 C152 1.587 . S
C120 C119 1.405 . S
C120 C121 1.332 . S
C120 C123 1.496 . S
C121 C116 1.418 . S
C121 C120 1.332 . S
C121 H179 0.929 . S
C122 C118 1.527 1_655 S
C122 H180 0.959 . S
C122 H181 0.961 . S
C122 H182 0.961 . S
C123 C120 1.496 . S
C123 H183 0.960 . S
C123 H184 0.960 . S
C123 H185 0.961 . S
C124 C125 1.517 . S
C124 H187 0.961 . S
C124 H188 0.960 1_455 S
C124 H189 0.959 . S
C125 C124 1.517 . S
C125 O173 1.468 1_455 S
C125 H186 0.980 . S
C126 C127 1.349 1_655 S
C126 C131 1.367 . S
C126 O173 1.408 . S
C127 C126 1.349 1_455 S
C127 C128 1.407 . S
C127 H190 0.930 . S
C128 C127 1.407 . S
C128 C129 1.449 . S
C128 C132 1.535 . S
C129 C128 1.449 . S
C129 C130 1.384 1_455 S
C129 C154 1.553 . S
C130 C129 1.384 1_655 S
C130 C131 1.364 . S
C130 C133 1.450 . S
C131 C126 1.367 . S
C131 C130 1.364 . S
C131 H191 0.931 . S
C132 C128 1.535 . S
C132 H192 0.959 . S
C132 H193 0.961 . S
C132 H194 0.959 . S
C133 C130 1.450 . S
C133 H195 0.960 . S
C133 H196 0.960 . S
C133 H197 0.960 . S
C134 C135 1.309 . S
C134 C139 1.304 1_455 S
C134 O172 1.435 . S
C135 C134 1.309 . S
C135 C136 1.476 . S
C135 H199 0.930 . S
C136 C135 1.476 . S
C136 C137 1.400 . S
C136 C140 1.567 . S
C137 C136 1.400 . S
C137 C138 1.373 1_455 S
C137 C159 1.432 . S
C138 C137 1.373 1_655 S
C138 C139 1.339 . S
C138 C141 1.530 . S
C139 C134 1.304 1_655 S
C139 C138 1.339 . S
C139 H200 0.930 . S
C140 C136 1.567 . S
C140 H201 0.961 . S
C140 H202 0.960 . S
C140 H203 0.958 . S
C141 C138 1.530 . S
C141 H204 0.961 . S
C141 H205 0.960 . S
C141 H206 0.960 . S
C142 C143 1.530 . S
C142 H208 0.961 . S
C142 H209 0.961 . S
C142 H210 0.959 . S
C143 C142 1.530 . S
C143 O171 1.412 . S
C143 H207 0.980 . S
C144 C145 1.288 . S
C144 C149 1.377 . S
C144 O171 1.393 . S
C145 C144 1.288 . S
C145 C146 1.369 . S
C145 H211 0.932 . S
C146 C145 1.369 . S
C146 C147 1.398 . S
C146 C150 1.527 . S
C147 C146 1.398 . S
C147 C148 1.380 . S
C147 C161 1.497 . S
C148 C147 1.380 . S
C148 C149 1.383 . S
C148 C151 1.603 1_455 S
C149 C144 1.377 . S
C149 C148 1.383 . S
C149 H212 0.929 . S
C150 C146 1.527 . S
C150 H213 0.961 . S
C150 H214 0.959 . S
C150 H215 0.959 . S
C151 C148 1.603 1_655 S
C151 H216 0.960 . S
C151 H217 0.962 . S
C151 H218 0.961 . S
C152 C119 1.587 . S
C152 C153 1.360 . S
C152 C165 1.412 . S
C153 C152 1.360 . S
C153 C154 1.365 . S
C153 H219 0.929 . S
C154 C129 1.553 . S
C154 C153 1.365 . S
C154 C155 1.404 . S
C155 C154 1.404 . S
C155 C156 1.395 . S
C155 C166 1.451 . S
C156 C155 1.395 . S
C156 C157 1.322 . S
C156 H220 0.930 . S
C157 C156 1.322 . S
C157 C158 1.459 . S
C157 H221 0.929 . S
C158 C157 1.459 . S
C158 C159 1.445 . S
C158 C167 1.395 . S
C159 C137 1.432 . S
C159 C158 1.445 . S
C159 C160 1.370 . S
C160 C159 1.370 . S
C160 C161 1.438 . S
C160 H222 0.930 . S
C161 C147 1.497 . S
C161 C160 1.438 . S
C161 C162 1.360 . S
C162 C161 1.360 . S
C162 C163 1.401 . S
C162 C167 1.446 . S
C163 C162 1.401 . S
C163 C164 1.347 . S
C163 H223 0.929 . S
C164 C163 1.347 . S
C164 C165 1.455 . S
C164 H224 0.930 . S
C165 C152 1.412 . S
C165 C164 1.455 . S
C165 C166 1.331 . S
C166 C155 1.451 . S
C166 C165 1.331 . S
C166 C167 1.497 . S
C167 C158 1.395 . S
C167 C162 1.446 . S
C167 C166 1.497 . S
C168 C169 1.582 . S
C168 H225 0.962 . S
C168 H226 0.959 . S
C168 H227 0.958 1_455 S
C169 C168 1.582 . S
C169 O172 1.458 . S
C169 H198 0.980 . S
O170 C115 1.426 . S
O170 C116 1.334 . S
O171 C143 1.412 . S
O171 C144 1.393 . S
O172 C134 1.435 . S
O172 C169 1.458 . S
O173 C125 1.468 1_655 S
O173 C126 1.408 . S
H174 C115 0.980 . S
H175 C114 0.959 . S
H176 C114 0.959 . S
H177 C114 0.960 . S
H178 C117 0.929 . S
H179 C121 0.929 . S
H180 C122 0.959 . S
H181 C122 0.961 . S
H182 C122 0.961 . S
H183 C123 0.960 . S
H184 C123 0.960 . S
H185 C123 0.961 . S
H186 C125 0.980 . S
H187 C124 0.961 . S
H188 C124 0.960 1_655 S
H189 C124 0.959 . S
H190 C127 0.930 . S
H191 C131 0.931 . S
H192 C132 0.959 . S
H193 C132 0.961 . S
H194 C132 0.959 . S
H195 C133 0.960 . S
H196 C133 0.960 . S
H197 C133 0.960 . S
H198 C169 0.980 . S
H199 C135 0.930 . S
H200 C139 0.930 . S
H201 C140 0.961 . S
H202 C140 0.960 . S
H203 C140 0.958 . S
H204 C141 0.961 . S
H205 C141 0.960 . S
H206 C141 0.960 . S
H207 C143 0.980 . S
H208 C142 0.961 . S
H209 C142 0.961 . S
H210 C142 0.959 . S
H211 C145 0.932 . S
H212 C149 0.929 . S
H213 C150 0.961 . S
H214 C150 0.959 . S
H215 C150 0.959 . S
H216 C151 0.960 . S
H217 C151 0.962 . S
H218 C151 0.961 . S
H219 C153 0.929 . S
H220 C156 0.930 . S
H221 C157 0.929 . S
H222 C160 0.930 . S
H223 C163 0.929 . S
H224 C164 0.930 . S
H225 C168 0.962 . S
H226 C168 0.959 . S
H227 C168 0.958 1_655 S
O228 Cd229 2.223 . S
O228 C236 1.315 1_455 S
Cd229 O228 2.223 . S
Cd229 O232 2.297 . S
Cd229 O233 2.439 . S
Cd229 O239 2.240 1_565 S
Cd230 O231 2.240 1_455 S
Cd230 O238 2.223 . S
Cd230 O240 2.297 . S
Cd230 O241 2.439 . S
O231 Cd230 2.240 1_655 S
O231 C236 1.279 1_545 S
O232 Cd229 2.297 . S
O232 C234 1.247 . S
O233 Cd229 2.439 . S
O233 C234 1.208 . S
C234 O232 1.247 . S
C234 O233 1.208 . S
C235 O240 1.247 . S
C235 O241 1.208 . S
C236 O228 1.315 1_655 S
C236 O231 1.279 1_565 S
C237 O238 1.315 . S
C237 O239 1.279 . S
O238 Cd230 2.223 . S
O238 C237 1.315 . S
O239 Cd229 2.240 1_545 S
O239 C237 1.279 . S
O240 Cd230 2.297 . S
O240 C235 1.247 . S
O241 Cd230 2.439 . S
O241 C235 1.208 . S
O242 Cd243 2.223 . S
O242 C250 1.315 1_455 S
Cd243 O242 2.223 . S
Cd243 O246 2.297 . S
Cd243 O247 2.439 . S
Cd243 O253 2.240 . S
Cd244 O245 2.240 1_465 S
Cd244 O252 2.223 . S
Cd244 O254 2.297 . S
Cd244 O255 2.439 . S
O245 Cd244 2.240 1_645 S
O245 C250 1.279 . S
O246 Cd243 2.297 . S
O246 C248 1.247 . S
O247 Cd243 2.439 . S
O247 C248 1.208 . S
C248 O246 1.247 . S
C248 O247 1.208 . S
C249 O254 1.247 . S
C249 O255 1.208 . S
C250 O242 1.315 1_655 S
C250 O245 1.279 . S
C251 O252 1.315 . S
C251 O253 1.279 1_565 S
O252 Cd244 2.223 . S
O252 C251 1.315 . S
O253 Cd243 2.240 . S
O253 C251 1.279 1_545 S
O254 Cd244 2.297 . S
O254 C249 1.247 . S
O255 Cd244 2.439 . S
O255 C249 1.208 . S
H256 C264 0.950 . S
H257 C269 0.944 1_565 S
H258 C266 0.950 . S
H259 C268 0.950 . S
H260 C270 0.950 . S
H261 C272 0.950 . S
H262 C274 0.950 . S
H263 C275 0.950 . S
C264 H256 0.950 . S
C264 C265 1.386 . S
C264 C266 1.391 . S
C265 C264 1.386 . S
C265 C269 1.393 . S
C266 H258 0.950 . S
C266 C264 1.391 . S
C266 C267 1.400 . S
C267 C266 1.400 . S
C267 C268 1.398 . S
C267 C273 1.491 . S
C268 H259 0.950 . S
C268 C267 1.398 . S
C268 C269 1.391 . S
C269 H257 0.944 1_545 S
C269 C265 1.393 . S
C269 C268 1.391 . S
C270 H260 0.950 . S
C270 C271 1.386 . S
C270 C272 1.391 . S
C271 C270 1.386 . S
C271 C275 1.393 . S
C272 H261 0.950 . S
C272 C270 1.391 . S
C272 C273 1.400 . S
C273 C267 1.491 . S
C273 C272 1.400 . S
C273 C274 1.398 . S
C274 H262 0.950 . S
C274 C273 1.398 . S
C274 C275 1.391 . S
C275 H263 0.950 . S
C275 C271 1.393 . S
C275 C274 1.391 . S
H276 C284 0.950 1_655 S
H277 C289 0.950 . S
H278 C286 0.950 1_655 S
H279 C288 0.950 . S
H280 C290 0.950 . S
H281 C292 0.950 . S
H282 C294 0.950 . S
H283 C295 0.950 . S
C284 H276 0.950 1_455 S
C284 C285 1.386 . S
C284 C286 1.391 . S
C285 C284 1.386 . S
C285 C289 1.393 . S
C286 H278 0.950 1_455 S
C286 C284 1.391 . S
C286 C287 1.400 . S
C287 C286 1.400 . S
C287 C288 1.398 . S
C287 C293 1.491 . S
C288 H279 0.950 . S
C288 C287 1.398 . S
C288 C289 1.391 . S
C289 H277 0.950 . S
C289 C285 1.393 . S
C289 C288 1.391 . S
C290 H280 0.950 . S
C290 C291 1.386 . S
C290 C292 1.391 . S
C291 C290 1.386 . S
C291 C295 1.393 1_455 S
C292 H281 0.950 . S
C292 C290 1.391 . S
C292 C293 1.400 . S
C293 C287 1.491 . S
C293 C292 1.400 . S
C293 C294 1.398 1_455 S
C294 H282 0.950 . S
C294 C293 1.398 1_655 S
C294 C295 1.391 . S
C295 H283 0.950 . S
C295 C291 1.393 1_655 S
C295 C294 1.391 . S
H296 C304 0.950 . S
H297 C309 0.950 . S
H298 C306 0.950 . S
H299 C308 0.950 . S
H300 C310 0.950 1_455 S
H301 C312 0.950 . S
H302 C314 0.950 . S
H303 C315 0.948 1_565 S
C304 H296 0.950 . S
C304 C305 1.386 . S
C304 C306 1.391 . S
C305 C304 1.386 . S
C305 C309 1.393 . S
C306 H298 0.950 . S
C306 C304 1.391 . S
C306 C307 1.400 . S
C307 C306 1.400 . S
C307 C308 1.398 . S
C307 C313 1.491 . S
C308 H299 0.950 . S
C308 C307 1.398 . S
C308 C309 1.391 . S
C309 H297 0.950 . S
C309 C305 1.393 . S
C309 C308 1.391 . S
C310 H300 0.950 1_655 S
C310 C311 1.386 . S
C310 C312 1.391 . S
C311 C310 1.386 . S
C311 C315 1.393 . S
C312 H301 0.950 . S
C312 C310 1.391 . S
C312 C313 1.400 . S
C313 C307 1.491 . S
C313 C312 1.400 . S
C313 C314 1.398 . S
C314 H302 0.950 . S
C314 C313 1.398 . S
C314 C315 1.392 . S
C315 H303 0.948 1_545 S
C315 C311 1.393 . S
C315 C314 1.392 . S
H316 C324 0.950 . S
H317 C329 0.950 1_655 S
H318 C326 0.950 . S
H319 C328 0.950 1_655 S
H320 C330 0.950 . S
H321 C332 0.950 1_655 S
H322 C334 0.950 . S
H323 C335 0.950 . S
C324 H316 0.950 . S
C324 C325 1.386 . S
C324 C326 1.391 . S
C325 C324 1.386 . S
C325 C329 1.393 . S
C326 H318 0.950 . S
C326 C324 1.391 . S
C326 C327 1.400 . S
C327 C326 1.400 . S
C327 C328 1.398 . S
C327 C333 1.491 . S
C328 H319 0.950 1_455 S
C328 C327 1.398 . S
C328 C329 1.391 . S
C329 H317 0.950 1_455 S
C329 C325 1.393 . S
C329 C328 1.391 . S
C330 H320 0.950 . S
C330 C331 1.386 . S
C330 C332 1.391 . S
C331 C330 1.386 . S
C331 C335 1.393 . S
C332 H321 0.950 1_455 S
C332 C330 1.391 . S
C332 C333 1.400 . S
C333 C327 1.491 . S
C333 C332 1.400 . S
C333 C334 1.398 . S
C334 H322 0.950 . S
C334 C333 1.398 . S
C334 C335 1.391 . S
C335 H323 0.950 . S
C335 C331 1.393 . S
C335 C334 1.391 . S
H336 C344 0.950 . S
H337 C349 0.950 . S
H338 C346 0.950 . S
H339 C348 0.950 . S
H340 C350 0.950 . S
H341 C352 0.950 . S
H342 C354 0.950 . S
H343 C355 0.950 . S
C344 H336 0.950 . S
C344 C345 1.386 1_565 S
C344 C346 1.391 . S
C345 C344 1.386 1_545 S
C345 C349 1.393 . S
C346 H338 0.950 . S
C346 C344 1.391 . S
C346 C347 1.400 1_565 S
C347 C346 1.400 1_545 S
C347 C348 1.398 . S
C347 C353 1.491 . S
C348 H339 0.950 . S
C348 C347 1.398 . S
C348 C349 1.391 . S
C349 H337 0.950 . S
C349 C345 1.393 . S
C349 C348 1.391 . S
C350 H340 0.950 . S
C350 C351 1.386 1_545 S
C350 C352 1.391 . S
C351 C350 1.386 1_565 S
C351 C355 1.393 . S
C352 H341 0.950 . S
C352 C350 1.391 . S
C352 C353 1.400 . S
C353 C347 1.491 . S
C353 C352 1.400 . S
C353 C354 1.398 1_545 S
C354 H342 0.950 . S
C354 C353 1.398 1_565 S
C354 C355 1.391 . S
C355 H343 0.950 . S
C355 C351 1.393 . S
C355 C354 1.391 . S
H356 C364 0.950 1_655 S
H357 C369 0.950 . S
H358 C366 0.936 1_655 S
H359 C368 0.950 . S
H360 C370 0.950 . S
H361 C372 0.950 . S
H362 C374 0.950 . S
H363 C375 0.950 . S
C364 H356 0.950 1_455 S
C364 C365 1.386 . S
C364 C366 1.391 . S
C365 C364 1.386 . S
C365 C369 1.393 . S
C366 H358 0.936 1_455 S
C366 C364 1.391 . S
C366 C367 1.400 . S
C367 C366 1.400 . S
C367 C368 1.398 . S
C367 C373 1.491 . S
C368 H359 0.950 . S
C368 C367 1.398 . S
C368 C369 1.391 . S
C369 H357 0.950 . S
C369 C365 1.393 . S
C369 C368 1.391 . S
C370 H360 0.950 . S
C370 C371 1.386 . S
C370 C372 1.391 . S
C371 C370 1.386 . S
C371 C375 1.393 . S
C372 H361 0.950 . S
C372 C370 1.391 . S
C372 C373 1.400 . S
C373 C367 1.491 . S
C373 C372 1.400 . S
C373 C374 1.398 . S
C374 H362 0.950 . S
C374 C373 1.398 . S
C374 C375 1.391 . S
C375 H363 0.950 . S
C375 C371 1.393 . S
C375 C374 1.391 . S
H376 C384 0.950 . S
H377 C389 0.950 . S
H378 C386 0.950 . S
H379 C388 0.950 . S
H380 C390 0.950 . S
H381 C392 0.950 . S
H382 C394 0.950 . S
H383 C395 0.950 . S
C384 H376 0.950 . S
C384 C385 1.386 . S
C384 C386 1.391 . S
C385 C384 1.386 . S
C385 C389 1.393 1_545 S
C386 H378 0.950 . S
C386 C384 1.391 . S
C386 C387 1.400 . S
C387 C386 1.400 . S
C387 C388 1.398 1_545 S
C387 C393 1.491 . S
C388 H379 0.950 . S
C388 C387 1.398 1_565 S
C388 C389 1.391 . S
C389 H377 0.950 . S
C389 C385 1.393 1_565 S
C389 C388 1.391 . S
C390 H380 0.950 . S
C390 C391 1.386 1_565 S
C390 C392 1.391 . S
C391 C390 1.386 1_545 S
C391 C395 1.393 . S
C392 H381 0.950 . S
C392 C390 1.391 . S
C392 C393 1.400 1_565 S
C393 C387 1.491 . S
C393 C392 1.400 1_545 S
C393 C394 1.398 . S
C394 H382 0.950 . S
C394 C393 1.398 . S
C394 C395 1.391 . S
C395 H383 0.950 . S
C395 C391 1.393 . S
C395 C394 1.391 . S
H396 C404 0.950 1_655 S
H397 C409 0.950 . S
H398 C406 0.950 1_655 S
H399 C408 0.950 . S
H400 C410 0.950 . S
H401 C412 0.950 . S
H402 C414 0.950 . S
H403 C415 0.950 . S
C404 H396 0.950 1_455 S
C404 C405 1.386 . S
C404 C406 1.391 . S
C405 C404 1.386 . S
C405 C409 1.393 . S
C406 H398 0.950 1_455 S
C406 C404 1.391 . S
C406 C407 1.400 . S
C407 C406 1.400 . S
C407 C408 1.398 . S
C407 C413 1.491 . S
C408 H399 0.950 . S
C408 C407 1.398 . S
C408 C409 1.391 . S
C409 H397 0.950 . S
C409 C405 1.393 . S
C409 C408 1.391 . S
C410 H400 0.950 . S
C410 C411 1.386 . S
C410 C412 1.391 . S
C411 C410 1.386 . S
C411 C415 1.393 1_455 S
C412 H401 0.950 . S
C412 C410 1.391 . S
C412 C413 1.400 . S
C413 C407 1.491 . S
C413 C412 1.400 . S
C413 C414 1.398 1_455 S
C414 H402 0.950 . S
C414 C413 1.398 1_655 S
C414 C415 1.391 . S
C415 H403 0.950 . S
C415 C411 1.393 1_655 S
C415 C414 1.391 . S
C271 C237 1.612 . S
C265 C11 1.037 1_545 S
C291 C248 1.383 . S
C285 C115 1.224 . S
C311 C236 1.428 1_545 S
C305 C1 1.152 . S
C331 C249 1.534 . S
C325 C125 1.065 . S
C351 C251 1.665 . S
C345 C55 1.178 . S
C371 C235 1.475 . S
C365 C143 1.190 . S
C391 C250 1.520 . S
C385 C29 1.180 . S
C405 C169 1.176 . S
C411 C234 1.624 . S
