# Generated by pormake.
# Topology nom, (4,4)-cn, num edge types: 1
# Building blocks:
#     Node 0, Type 0, BuildingBlock: NAHDIM_clean_linker_0, # of connection points: 4
#     Node 1, Type 0, BuildingBlock: NAHDIM_clean_linker_0, # of connection points: 4
#     Node 2, Type 0, BuildingBlock: NAHDIM_clean_linker_0, # of connection points: 4
#     Node 3, Type 0, BuildingBlock: NAHDIM_clean_linker_0, # of connection points: 4
#     Node 4, Type 0, BuildingBlock: NAHDIM_clean_linker_0, # of connection points: 4
#     Node 5, Type 0, BuildingBlock: NAHDIM_clean_linker_0, # of connection points: 4
#     Node 6, Type 1, BuildingBlock: QUQFOY_clean_sbu_3, # of connection points: 4
#     Node 7, Type 1, BuildingBlock: QUQFOY_clean_sbu_3, # of connection points: 4
#     Node 8, Type 1, BuildingBlock: QUQFOY_clean_sbu_3, # of connection points: 4
#     Node 9, Type 1, BuildingBlock: QUQFOY_clean_sbu_3, # of connection points: 4
#     Node 10, Type 1, BuildingBlock: QUQFOY_clean_sbu_3, # of connection points: 4
#     Node 11, Type 1, BuildingBlock: QUQFOY_clean_sbu_3, # of connection points: 4
#     Edge 12, Type (0, 1), BuildingBlock: XIVTED_clean_linker_0, # of connection points: 2
#     Edge 13, Type (0, 1), BuildingBlock: XIVTED_clean_linker_0, # of connection points: 2
#     Edge 14, Type (0, 1), BuildingBlock: XIVTED_clean_linker_0, # of connection points: 2
#     Edge 15, Type (0, 1), BuildingBlock: XIVTED_clean_linker_0, # of connection points: 2
#     Edge 16, Type (0, 1), BuildingBlock: XIVTED_clean_linker_0, # of connection points: 2
#     Edge 17, Type (0, 1), BuildingBlock: XIVTED_clean_linker_0, # of connection points: 2
#     Edge 18, Type (0, 1), BuildingBlock: XIVTED_clean_linker_0, # of connection points: 2
#     Edge 19, Type (0, 1), BuildingBlock: XIVTED_clean_linker_0, # of connection points: 2
#     Edge 20, Type (0, 1), BuildingBlock: XIVTED_clean_linker_0, # of connection points: 2
#     Edge 21, Type (0, 1), BuildingBlock: XIVTED_clean_linker_0, # of connection points: 2
#     Edge 22, Type (0, 1), BuildingBlock: XIVTED_clean_linker_0, # of connection points: 2
#     Edge 23, Type (0, 1), BuildingBlock: XIVTED_clean_linker_0, # of connection points: 2
#     Edge 24, Type (0, 1), BuildingBlock: XIVTED_clean_linker_0, # of connection points: 2
#     Edge 25, Type (0, 1), BuildingBlock: XIVTED_clean_linker_0, # of connection points: 2
#     Edge 26, Type (0, 1), BuildingBlock: XIVTED_clean_linker_0, # of connection points: 2
#     Edge 27, Type (0, 1), BuildingBlock: XIVTED_clean_linker_0, # of connection points: 2
#     Edge 28, Type (0, 1), BuildingBlock: XIVTED_clean_linker_0, # of connection points: 2
#     Edge 29, Type (0, 1), BuildingBlock: XIVTED_clean_linker_0, # of connection points: 2
#     Edge 30, Type (0, 1), BuildingBlock: XIVTED_clean_linker_0, # of connection points: 2
#     Edge 31, Type (0, 1), BuildingBlock: XIVTED_clean_linker_0, # of connection points: 2
#     Edge 32, Type (0, 1), BuildingBlock: XIVTED_clean_linker_0, # of connection points: 2
#     Edge 33, Type (0, 1), BuildingBlock: XIVTED_clean_linker_0, # of connection points: 2
#     Edge 34, Type (0, 1), BuildingBlock: XIVTED_clean_linker_0, # of connection points: 2
#     Edge 35, Type (0, 1), BuildingBlock: XIVTED_clean_linker_0, # of connection points: 2
# Relax obj value: 0.048
# Max RMSD: 0.130
# Mean RMSD: 0.099
data_MOF--net-nom--node1-QUQFOY_clean_sbu_3--node2-NAHDIM_clean_linker_0--edge1-XIVTED_clean_linker_0
_symmetry_space_group_name_H-M    P1
_symmetry_Int_Tables_number       1
_symmetry_cell_setting            triclinic
loop_
_symmetry_equiv_pos_as_xyz
'x, y, z'
_cell_length_a     57.885651
_cell_length_b     59.279355
_cell_length_c     70.502704
_cell_angle_alpha  90.113562
_cell_angle_beta   90.148889
_cell_angle_gamma 119.96915
loop_
_atom_site_label
_atom_site_type_symbol
_atom_site_fract_x
_atom_site_fract_y
_atom_site_fract_z
_atom_type_partial_charge
C0 C 0.1667 0.58498 0.24366 0.0
C1 C 0.17098 0.60135 0.26158 0.0
C2 C 0.12459 0.58676 0.27086 0.0
C3 C 0.11859 0.56212 0.27767 0.0
C4 C 0.09267 0.54398 0.28349 0.0
C5 C 0.07232 0.55052 0.28245 0.0
C6 C 0.07832 0.57537 0.27584 0.0
C7 C 0.10446 0.59322 0.27024 0.0
C8 C 0.08695 0.5177 0.29065 0.0
C9 C 0.05706 0.58294 0.27454 0.0
C10 C 0.9721 0.41769 0.18924 0.0
C11 C 0.961 0.43396 0.19795 0.0
C12 C 0.96268 0.44137 0.23184 0.0
C13 C 0.96434 0.46577 0.23243 0.0
C14 C 0.97608 0.4825 0.248 0.0
C15 C 0.9868 0.4748 0.2631 0.0
C16 C 0.98454 0.44987 0.26268 0.0
C17 C 0.97192 0.43323 0.24718 0.0
C18 C 0.97761 0.50867 0.2481 0.0
C19 C 0.99632 0.44116 0.2782 0.0
C20 C 0.88454 0.42525 0.36701 0.0
C21 C 0.88739 0.44731 0.35756 0.0
C22 C 0.91281 0.46837 0.35356 0.0
C23 C 0.93573 0.4669 0.35859 0.0
C24 C 0.93283 0.44494 0.36857 0.0
C25 C 0.9072 0.42459 0.37294 0.0
C26 C 0.91513 0.49201 0.34372 0.0
C27 C 0.95673 0.44267 0.37429 0.0
C28 C 0.12121 0.63675 0.40942 0.0
C29 C 0.10591 0.60739 0.41295 0.0
C30 C 0.05983 0.57972 0.40296 0.0
C31 C 0.03945 0.58312 0.3954 0.0
C32 C 0.0208 0.56493 0.38259 0.0
C33 C 0.0223 0.54253 0.3777 0.0
C34 C 0.04166 0.53804 0.3865 0.0
C35 C 0.0604 0.55683 0.39893 0.0
C36 C 0.0002 0.57015 0.3737 0.0
C37 C 0.0431 0.51381 0.38229 0.0
C38 C 0.04463 0.53111 0.2879 0.0
C39 C 0.02839 0.51299 0.27423 0.0
C40 C 0.00232 0.49364 0.27842 0.0
C41 C 0.99204 0.49227 0.29684 0.0
C42 C 0.96594 0.47312 0.3016 0.0
C43 C 0.95634 0.47146 0.31993 0.0
C44 C 0.97223 0.48929 0.33411 0.0
C45 C 0.96268 0.48777 0.35281 0.0
C46 C 0.97922 0.50559 0.3666 0.0
C47 C 0.00521 0.52496 0.36227 0.0
C48 C 0.01497 0.527 0.34361 0.0
C49 C 0.04092 0.54649 0.33871 0.0
C50 C 0.05066 0.5479 0.32049 0.0
C51 C 0.03477 0.53004 0.30638 0.0
C52 C 0.00839 0.51049 0.31088 0.0
C53 C -0.00153 0.509 0.32952 0.0
C54 C 0.82265 0.36559 0.35976 0.0
C55 C 0.83776 0.39536 0.35941 0.0
O56 O 0.14924 0.60475 0.26459 0.0
O57 O 0.07887 0.59899 0.41383 0.0
O58 O 0.8603 0.40432 0.37071 0.0
O59 O 0.95292 0.4257 0.21637 0.0
H60 H 0.1738 0.59146 0.27403 0.0
H61 H 0.14899 0.5653 0.2452 0.0
H62 H 0.16358 0.59447 0.2311 0.0
H63 H 0.1843 0.58259 0.24111 0.0
H64 H 0.13388 0.55676 0.27842 0.0
H65 H 0.10925 0.61226 0.26506 0.0
H66 H 0.07251 0.50222 0.28099 0.0
H67 H 0.10522 0.51608 0.29159 0.0
H68 H 0.07764 0.51407 0.3049 0.0
H69 H 0.06482 0.6028 0.26866 0.0
H70 H 0.04042 0.56879 0.26541 0.0
H71 H 0.04878 0.58223 0.28885 0.0
H72 H 0.97769 0.45456 0.19789 0.0
H73 H 0.9787 0.424 0.17444 0.0
H74 H 0.98958 0.42036 0.19763 0.0
H75 H 0.95682 0.39666 0.18921 0.0
H76 H 0.95662 0.47174 0.22063 0.0
H77 H 0.97036 0.41424 0.24656 0.0
H78 H -0.00149 0.52417 0.24553 0.0
H79 H 0.96473 0.51002 0.23697 0.0
H80 H 0.97159 0.51248 0.26215 0.0
H81 H 0.99537 0.42243 0.27472 0.0
H82 H 0.01746 0.45619 0.28077 0.0
H83 H 0.98528 0.43866 0.29159 0.0
H84 H 0.84367 0.40133 0.34441 0.0
H85 H 0.86983 0.4482 0.35343 0.0
H86 H 0.90471 0.40759 0.38046 0.0
H87 H 0.92124 0.49229 0.32878 0.0
H88 H 0.89595 0.49205 0.34373 0.0
H89 H 0.93065 0.51012 0.3507 0.0
H90 H 0.95095 0.42326 0.38032 0.0
H91 H 0.96981 0.44613 0.36185 0.0
H92 H 0.96856 0.45776 0.38509 0.0
H93 H 0.11028 0.59822 0.40069 0.0
H94 H 0.14297 0.64395 0.40854 0.0
H95 H 0.11461 0.64109 0.39578 0.0
H96 H 0.11753 0.64734 0.42097 0.0
H97 H 0.03895 0.60068 0.39891 0.0
H98 H 0.07563 0.55377 0.40537 0.0
H99 H 0.00254 0.57122 0.35805 0.0
H100 H 0.97991 0.55383 0.37688 0.0
H101 H 0.0018 0.58858 0.37891 0.0
H102 H 0.05644 0.5113 0.39237 0.0
H103 H 0.02291 0.49631 0.38293 0.0
H104 H 0.05081 0.515 0.36771 0.0
H105 H 0.03626 0.51382 0.26013 0.0
H106 H 0.95274 0.45902 0.29125 0.0
H107 H 0.93625 0.45599 0.32281 0.0
H108 H 0.9719 0.5041 0.38097 0.0
H109 H 0.05409 0.56085 0.34893 0.0
H110 H 0.07086 0.56317 0.31761 0.0
H111 H 0.81603 0.35837 0.3744 0.0
H112 H 0.80493 0.35766 0.35026 0.0
H113 H 0.83584 0.35822 0.35472 0.0
C114 C 0.38432 0.87995 0.57569 0.0
C115 C 0.39296 0.86608 0.56139 0.0
C116 C 0.41502 0.89932 0.5373 0.0
C117 C 0.44142 0.90446 0.53782 0.0
C118 C 0.46233 0.92827 0.53121 0.0
C119 C 0.45665 0.94739 0.52425 0.0
C120 C 0.42992 0.94212 0.52373 0.0
C121 C 0.40939 0.91784 0.52987 0.0
C122 C 0.49048 0.93302 0.53169 0.0
C123 C 0.42298 0.96217 0.51697 0.0
C124 C 0.58414 0.10652 0.61716 0.0
C125 C 0.58158 0.09088 0.60015 0.0
C126 C 0.55045 0.07069 0.57366 0.0
C127 C 0.52871 0.06945 0.56412 0.0
C128 C 0.51627 0.05191 0.54912 0.0
C129 C 0.52616 0.03544 0.54342 0.0
C130 C 0.54825 0.0366 0.55298 0.0
C131 C 0.56018 0.05421 0.56807 0.0
C132 C 0.49247 0.0509 0.53944 0.0
C133 C 0.55917 0.01922 0.54723 0.0
C134 C 0.58126 0.12896 0.43707 0.0
C135 C 0.55676 0.12147 0.44575 0.0
C136 C 0.53881 0.09517 0.44964 0.0
C137 C 0.54603 0.07614 0.44529 0.0
C138 C 0.57052 0.08368 0.43605 0.0
C139 C 0.58764 0.11004 0.43175 0.0
C140 C 0.51233 0.08788 0.45859 0.0
C141 C 0.5789 0.06403 0.43113 0.0
C142 C 0.3876 0.87984 0.3974 0.0
C143 C 0.41653 0.9002 0.39311 0.0
C144 C 0.43915 0.94568 0.40374 0.0
C145 C 0.4336 0.96441 0.41091 0.0
C146 C 0.45225 0.985 0.42221 0.0
C147 C 0.47717 0.98696 0.42611 0.0
C148 C 0.48381 0.96939 0.41748 0.0
C149 C 0.46467 0.94884 0.40635 0.0
C150 C 0.44477 0.00377 0.43085 0.0
C151 C 0.51059 0.97157 0.42083 0.0
C152 C 0.47866 0.97322 0.51814 0.0
C153 C 0.49344 0.99138 0.53225 0.0
C154 C 0.51303 0.01673 0.52764 0.0
C155 C 0.51823 0.02439 0.50844 0.0
C156 C 0.53785 0.04975 0.50334 0.0
C157 C 0.54165 0.05754 0.48445 0.0
C158 C 0.52587 0.04032 0.46996 0.0
C159 C 0.52827 0.04853 0.45085 0.0
C160 C 0.51261 0.03066 0.43678 0.0
C161 C 0.49442 0.00478 0.44131 0.0
C162 C 0.49145 0.99636 0.46036 0.0
C163 C 0.47298 0.97052 0.46541 0.0
C164 C 0.46926 0.96271 0.48426 0.0
C165 C 0.4836 0.98048 0.49883 0.0
C166 C 0.50313 0.0063 0.494 0.0
C167 C 0.507 0.01427 0.47474 0.0
C168 C 0.63811 0.18631 0.44975 0.0
C169 C 0.60785 0.17364 0.44768 0.0
O170 O 0.39452 0.87644 0.54351 0.0
O171 O 0.41926 0.92474 0.39467 0.0
O172 O 0.59915 0.15437 0.43389 0.0
O173 O 0.56126 0.08795 0.58818 0.0
H174 H 0.41274 0.86903 0.56581 0.0
H175 H 0.39889 0.90118 0.57576 0.0
H176 H 0.36437 0.87701 0.57184 0.0
H177 H 0.38354 0.87253 0.59026 0.0
H178 H 0.44562 0.88972 0.54308 0.0
H179 H 0.38885 0.91348 0.52942 0.0
H180 H 0.50217 0.94806 0.54256 0.0
H181 H 0.49117 0.91509 0.53516 0.0
H182 H 0.50027 0.9405 0.51778 0.0
H183 H 0.40211 0.95667 0.52047 0.0
H184 H 0.43663 0.98148 0.5234 0.0
H185 H 0.42531 0.96418 0.50135 0.0
H186 H 0.60055 0.09582 0.59281 0.0
H187 H 0.57253 0.078 0.641 0.0
H188 H 0.6047 0.12425 0.61629 0.0
H189 H 0.57347 0.11768 0.61396 0.0
H190 H 0.52137 0.08223 0.56859 0.0
H191 H 0.57703 0.055 0.57539 0.0
H192 H 0.49749 0.05724 0.52448 0.0
H193 H 0.47547 0.03061 0.53928 0.0
H194 H 0.48605 0.06361 0.54652 0.0
H195 H 0.57742 0.02354 0.55534 0.0
H196 H 0.54381 0.99856 0.54961 0.0
H197 H 0.56391 0.02154 0.53185 0.0
H198 H 0.59911 0.165 0.46174 0.0
H199 H 0.5517 0.13624 0.44942 0.0
H200 H 0.60656 0.11613 0.42486 0.0
H201 H 0.51298 0.0838 0.47387 0.0
H202 H 0.50753 0.10378 0.45738 0.0
H203 H 0.49601 0.07001 0.45189 0.0
H204 H 0.59962 0.07339 0.42565 0.0
H205 H 0.57743 0.05233 0.44383 0.0
H206 H 0.56526 0.05043 0.42014 0.0
H207 H 0.4291 0.89755 0.40386 0.0
H208 H 0.38483 0.8599 0.39661 0.0
H209 H 0.38236 0.88294 0.41194 0.0
H210 H 0.37381 0.88134 0.38715 0.0
H211 H 0.41406 0.96212 0.4084 0.0
H212 H 0.46955 0.93508 0.40003 0.0
H213 H 0.44361 0.00152 0.44651 0.0
H214 H 0.46038 0.02411 0.4277 0.0
H215 H 0.42529 0.00058 0.42549 0.0
H216 H 0.51405 0.95874 0.41116 0.0
H217 H 0.52679 0.99202 0.41887 0.0
H218 H 0.51173 0.96603 0.43569 0.0
H219 H 0.48912 0.98592 0.54705 0.0
H220 H 0.55026 0.06396 0.51392 0.0
H221 H 0.55688 0.07737 0.48139 0.0
H222 H 0.5142 0.03709 0.4222 0.0
H223 H 0.46092 0.95603 0.45489 0.0
H224 H 0.45467 0.94265 0.4873 0.0
H225 H 0.64815 0.19529 0.43615 0.0
H226 H 0.64557 0.20155 0.46098 0.0
H227 H 0.64342 0.17137 0.45381 0.0
C228 C 0.53358 0.40309 0.73477 0.0
C229 C 0.55577 0.40909 0.72038 0.0
C230 C 0.54388 0.43117 0.69668 0.0
C231 C 0.56485 0.45699 0.69729 0.0
C232 C 0.56084 0.47745 0.69153 0.0
C233 C 0.53517 0.4719 0.68544 0.0
C234 C 0.51398 0.44572 0.68488 0.0
C235 C 0.51887 0.42565 0.69005 0.0
C236 C 0.58398 0.505 0.69206 0.0
C237 C 0.48603 0.43879 0.67914 0.0
C238 C 0.46257 0.55464 0.78588 0.0
C239 C 0.46567 0.54281 0.76831 0.0
C240 C 0.49629 0.55074 0.74233 0.0
C241 C 0.47719 0.53042 0.73094 0.0
C242 C 0.48462 0.52282 0.71429 0.0
C243 C 0.51172 0.53586 0.70878 0.0
C244 C 0.53091 0.55684 0.71984 0.0
C245 C 0.52289 0.5641 0.73647 0.0
C246 C 0.46352 0.50035 0.70283 0.0
C247 C 0.55989 0.57119 0.71424 0.0
C248 C 0.47209 0.5995 0.60623 0.0
C249 C 0.4545 0.57568 0.61482 0.0
C250 C 0.46208 0.55688 0.61794 0.0
C251 C 0.48807 0.56242 0.61285 0.0
C252 C 0.50555 0.5862 0.60376 0.0
C253 C 0.4971 0.60426 0.60029 0.0
C254 C 0.44236 0.53122 0.62678 0.0
C255 C 0.5333 0.59274 0.598 0.0
C256 C 0.49326 0.39051 0.564 0.0
C257 C 0.50984 0.41917 0.55841 0.0
C258 C 0.49574 0.45024 0.56628 0.0
C259 C 0.47328 0.44847 0.57497 0.0
C260 C 0.47562 0.46811 0.58728 0.0
C261 C 0.50099 0.49036 0.59041 0.0
C262 C 0.52336 0.49329 0.58022 0.0
C263 C 0.52056 0.47297 0.56841 0.0
C264 C 0.45121 0.4645 0.59764 0.0
C265 C 0.55041 0.51728 0.58252 0.0
C266 C 0.53014 0.49346 0.68051 0.0
C267 C 0.52718 0.50732 0.69545 0.0
C268 C 0.51983 0.52613 0.69213 0.0
C269 C 0.51625 0.53208 0.67334 0.0
C270 C 0.50974 0.5515 0.66949 0.0
C271 C 0.50439 0.55595 0.65104 0.0
C272 C 0.50465 0.54066 0.63583 0.0
C273 C 0.49712 0.54354 0.61725 0.0
C274 C 0.49706 0.52758 0.60258 0.0
C275 C 0.50447 0.50881 0.6059 0.0
C276 C 0.51265 0.50608 0.62428 0.0
C277 C 0.52065 0.48766 0.62806 0.0
C278 C 0.52754 0.48431 0.64632 0.0
C279 C 0.52567 0.49848 0.66165 0.0
C280 C 0.51846 0.51771 0.65809 0.0
C281 C 0.51225 0.52172 0.63934 0.0
C282 C 0.46468 0.65391 0.61756 0.0
C283 C 0.45061 0.62428 0.61547 0.0
O284 O 0.54726 0.41121 0.70241 0.0
O285 O 0.4931 0.42945 0.5564 0.0
O286 O 0.46546 0.61817 0.60329 0.0
O287 O 0.48979 0.55753 0.7591 0.0
H288 H 0.57382 0.42773 0.72445 0.0
H289 H 0.52866 0.41896 0.73482 0.0
H290 H 0.51529 0.38451 0.73106 0.0
H291 H 0.54002 0.40162 0.74935 0.0
H292 H 0.58437 0.46108 0.70206 0.0
H293 H 0.5029 0.40555 0.68959 0.0
H294 H 0.58085 0.51594 0.70361 0.0
H295 H 0.60329 0.50572 0.6946 0.0
H296 H 0.58517 0.51503 0.6785 0.0
H297 H 0.47107 0.4187 0.68349 0.0
H298 H 0.48048 0.45256 0.68549 0.0
H299 H 0.48496 0.43997 0.6635 0.0
H300 H 0.45921 0.52169 0.76929 0.0
H301 H 0.4604 0.54081 0.79764 0.0
H302 H 0.48327 0.57021 0.79032 0.0
H303 H 0.42986 0.56295 0.77869 0.0
H304 H 0.45643 0.52018 0.73505 0.0
H305 H 0.53748 0.57987 0.74523 0.0
H306 H 0.46255 0.50702 0.68831 0.0
H307 H 0.4688 0.48481 0.7015 0.0
H308 H 0.44342 0.49184 0.70932 0.0
H309 H 0.57205 0.58829 0.72353 0.0
H310 H 0.56803 0.55776 0.71507 0.0
H311 H 0.56186 0.57786 0.69932 0.0
H312 H 0.44994 0.61622 0.62987 0.0
H313 H 0.43477 0.57167 0.61889 0.0
H314 H 0.51035 0.62259 0.59343 0.0
H315 H 0.44828 0.53074 0.64169 0.0
H316 H 0.42179 0.52816 0.62677 0.0
H317 H 0.44227 0.5148 0.61909 0.0
H318 H 0.54519 0.61292 0.59254 0.0
H319 H 0.54397 0.59042 0.61029 0.0
H320 H 0.53203 0.57902 0.58676 0.0
H321 H 0.52443 0.42915 0.57016 0.0
H322 H 0.50631 0.38185 0.56573 0.0
H323 H 0.48312 0.38884 0.5777 0.0
H324 H 0.47783 0.37927 0.55307 0.0
H325 H 0.45415 0.43097 0.57289 0.0
H326 H 0.53777 0.47459 0.56111 0.0
H327 H 0.4545 0.46497 0.6132 0.0
H328 H 0.44763 0.48076 0.59417 0.0
H329 H 0.43305 0.44583 0.59389 0.0
H330 H 0.56449 0.51863 0.5713 0.0
H331 H 0.54863 0.53508 0.58213 0.0
H332 H 0.55893 0.51674 0.59652 0.0
H333 H 0.52925 0.50243 0.70995 0.0
H334 H 0.50856 0.56335 0.68073 0.0
H335 H 0.49941 0.57111 0.64893 0.0
H336 H 0.49052 0.52934 0.5885 0.0
H337 H 0.52158 0.47547 0.61699 0.0
H338 H 0.53363 0.46993 0.64834 0.0
H339 H 0.46558 0.66315 0.60367 0.0
H340 H 0.45406 0.65964 0.6279 0.0
H341 H 0.48535 0.66139 0.62284 0.0
C342 C 0.14358 0.51306 0.89317 0.0
C343 C 0.16003 0.54135 0.8863 0.0
C344 C 0.13126 0.53851 0.86067 0.0
C345 C 0.12363 0.55729 0.86292 0.0
C346 C 0.09793 0.55182 0.85768 0.0
C347 C 0.07946 0.52678 0.85056 0.0
C348 C 0.08751 0.50797 0.84791 0.0
C349 C 0.11365 0.51441 0.85257 0.0
C350 C 0.09029 0.5725 0.86037 0.0
C351 C 0.06838 0.48074 0.84093 0.0
C352 C 0.92389 0.43536 0.95538 0.0
C353 C 0.94503 0.44331 0.94096 0.0
C354 C 0.96469 0.47466 0.91514 0.0
C355 C 0.97278 0.45961 0.90468 0.0
C356 C 0.98631 0.46863 0.88747 0.0
C357 C 0.99246 0.49349 0.88073 0.0
C358 C 0.98464 0.50885 0.89129 0.0
C359 C 0.97057 0.49907 0.9083 0.0
C360 C 0.99435 0.45166 0.8766 0.0
C361 C 0.99137 0.53563 0.88468 0.0
C362 C 0.87435 0.45558 0.79254 0.0
C363 C 0.88386 0.43797 0.79379 0.0
C364 C 0.91113 0.4466 0.79192 0.0
C365 C 0.92921 0.47336 0.78887 0.0
C366 C 0.91944 0.49076 0.78627 0.0
C367 C 0.89202 0.48155 0.78799 0.0
C368 C 0.9208 0.42735 0.79413 0.0
C369 C 0.93814 0.51932 0.78265 0.0
C370 C 0.10841 0.50229 0.73067 0.0
C371 C 0.09561 0.51552 0.71968 0.0
C372 C 0.0501 0.49747 0.73019 0.0
C373 C 0.03344 0.4741 0.73942 0.0
C374 C 0.0162 0.47299 0.7538 0.0
C375 C 0.01529 0.49574 0.75861 0.0
C376 C 0.0306 0.51891 0.7482 0.0
C377 C 0.04806 0.51958 0.73415 0.0
C378 C -0.00013 0.44783 0.76442 0.0
C379 C 0.02939 0.54322 0.75253 0.0
C380 C 0.05109 0.51931 0.84787 0.0
C381 C 0.03551 0.51363 0.86417 0.0
C382 C 0.00801 0.5035 0.863 0.0
C383 C 0.99563 0.49976 0.84507 0.0
C384 C 0.96806 0.49005 0.84339 0.0
C385 C 0.95592 0.48551 0.82566 0.0
C386 C 0.97073 0.48966 0.80893 0.0
C387 C 0.95829 0.48363 0.79087 0.0
C388 C 0.97333 0.48658 0.77461 0.0
C389 C 0.00077 0.49593 0.77588 0.0
C390 C 0.01377 0.50331 0.79372 0.0
C391 C 0.04152 0.51377 0.79542 0.0
C392 C 0.05395 0.52002 0.81309 0.0
C393 C 0.03901 0.51513 0.82979 0.0
C394 C 0.01114 0.50521 0.8284 0.0
C395 C -0.00142 0.49966 0.81032 0.0
C396 C 0.81366 0.43573 0.81849 0.0
C397 C 0.83111 0.4278 0.80731 0.0
O398 O 0.15511 0.54291 0.86723 0.0
O399 O 0.06845 0.49845 0.71783 0.0
O400 O 0.84851 0.44842 0.79602 0.0
O401 O 0.95116 0.46628 0.93175 0.0
H402 H 0.15425 0.55372 0.89467 0.0
H403 H 0.12193 0.50619 0.89195 0.0
H404 H 0.1482 0.50009 0.88456 0.0
H405 H 0.14783 0.51146 0.90832 0.0
H406 H 0.13766 0.576 0.86908 0.0
H407 H 0.12002 0.50017 0.85089 0.0
H408 H 0.07715 0.56764 0.87294 0.0
H409 H 0.10801 0.59208 0.86263 0.0
H410 H 0.079 0.57321 0.84784 0.0
H411 H 0.07618 0.46724 0.84339 0.0
H412 H 0.04876 0.47272 0.84805 0.0
H413 H 0.06509 0.48122 0.82547 0.0
H414 H 0.96283 0.44192 0.94522 0.0
H415 H 0.93363 0.4355 0.96931 0.0
H416 H 0.92242 0.45322 0.95886 0.0
H417 H 0.88989 0.39871 0.94334 0.0
H418 H 0.96861 0.44076 0.90983 0.0
H419 H 0.96432 0.51059 0.91647 0.0
H420 H 0.98836 0.45023 0.86148 0.0
H421 H 0.01638 0.46059 0.8771 0.0
H422 H 0.98531 0.43169 0.88253 0.0
H423 H 0.98471 0.54553 0.89486 0.0
H424 H 0.01325 0.54785 0.88269 0.0
H425 H 0.98175 0.53414 0.87073 0.0
H426 H 0.84243 0.42343 0.81809 0.0
H427 H 0.87016 0.4176 0.79656 0.0
H428 H 0.88439 0.49487 0.78667 0.0
H429 H 0.93186 0.43111 0.80773 0.0
H430 H 0.90411 0.40689 0.79409 0.0
H431 H 0.93477 0.42982 0.78251 0.0
H432 H 0.9273 0.53003 0.77982 0.0
H433 H 0.95131 0.52822 0.79519 0.0
H434 H 0.9511 0.52175 0.77034 0.0
H435 H 0.0994 0.53311 0.72794 0.0
H436 H 0.13025 0.51568 0.73212 0.0
H437 H 0.0997 0.49708 0.74511 0.0
H438 H 0.10483 0.48421 0.72333 0.0
H439 H 0.03495 0.45706 0.73597 0.0
H440 H 0.06045 0.53743 0.72646 0.0
H441 H 0.00552 0.45078 0.77967 0.0
H442 H 0.97841 0.4418 0.76344 0.0
H443 H 0.00266 0.43183 0.75881 0.0
H444 H 0.03967 0.55847 0.74158 0.0
H445 H 0.00831 0.53855 0.75354 0.0
H446 H 0.03904 0.55121 0.76647 0.0
H447 H 0.04473 0.5158 0.87799 0.0
H448 H 0.95556 0.48588 0.85577 0.0
H449 H 0.93464 0.47814 0.82531 0.0
H450 H 0.96349 0.48102 0.76089 0.0
H451 H 0.054 0.51725 0.78313 0.0
H452 H 0.07536 0.52814 0.81354 0.0
H453 H 0.80233 0.44148 0.8088 0.0
H454 H 0.79937 0.41936 0.82753 0.0
H455 H 0.8264 0.45257 0.82784 0.0
C456 C 0.42388 0.86873 0.89775 0.0
C457 C 0.43041 0.86221 0.91735 0.0
C458 C 0.46154 0.90503 0.93136 0.0
C459 C 0.44231 0.91215 0.93573 0.0
C460 C 0.44977 0.93643 0.94395 0.0
C461 C 0.47702 0.95422 0.94755 0.0
C462 C 0.49647 0.94728 0.94301 0.0
C463 C 0.48839 0.92263 0.93518 0.0
C464 C 0.42852 0.94324 0.94857 0.0
C465 C 0.52579 0.96603 0.94616 0.0
C466 C 0.5449 0.09876 0.85295 0.0
C467 C 0.5342 0.08056 0.86918 0.0
C468 C 0.51611 0.07565 0.9004 0.0
C469 C 0.53598 0.07656 0.91228 0.0
C470 C 0.52936 0.06092 0.92847 0.0
C471 C 0.50217 0.04463 0.9332 0.0
C472 C 0.48211 0.04524 0.92204 0.0
C473 C 0.48937 0.06083 0.90569 0.0
C474 C 0.55149 0.06087 0.93986 0.0
C475 C 0.453 0.02856 0.92688 0.0
C476 C 0.53936 0.12856 0.04503 0.0
C477 C 0.55758 0.12508 0.03414 0.0
C478 C 0.55172 0.1001 0.02835 0.0
C479 C 0.52667 0.07832 0.03298 0.0
C480 C 0.50859 0.0818 0.0444 0.0
C481 C 0.51545 0.10691 0.05058 0.0
C482 C 0.5722 0.0971 0.01712 0.0
C483 C 0.48179 0.05911 0.04974 0.0
C484 C 0.52399 0.89482 0.06749 0.0
C485 C 0.51043 0.91018 0.0735 0.0
C486 C 0.52535 0.95526 0.06521 0.0
C487 C 0.54712 0.97628 0.05663 0.0
C488 C 0.54395 0.99477 0.04632 0.0
C489 C 0.51842 0.9924 0.04505 0.0
C490 C 0.49672 0.97232 0.05502 0.0
C491 C 0.50036 0.95378 0.06491 0.0
C492 C 0.56764 0.0162 0.03614 0.0
C493 C 0.46952 0.9699 0.05459 0.0
C494 C 0.48514 0.98055 0.95512 0.0
C495 C 0.48754 -0.00056 0.94223 0.0
C496 C 0.49499 0.02468 0.94818 0.0
C497 C 0.4991 0.03107 0.96768 0.0
C498 C 0.5047 0.05565 0.97433 0.0
C499 C 0.51035 0.06227 0.99342 0.0
C500 C 0.5114 0.04483 0.00644 0.0
C501 C 0.51913 0.05202 0.02558 0.0
C502 C 0.52053 0.03433 0.03797 0.0
C503 C 0.51405 0.0094 0.03185 0.0
C504 C 0.50552 0.00159 0.01294 0.0
C505 C 0.49819 0.9764 0.00644 0.0
C506 C 0.49062 0.96917 0.98767 0.0
C507 C 0.49108 0.98713 0.9745 0.0
C508 C 0.49803 0.01249 0.98079 0.0
C509 C 0.50475 0.01957 0.00012 0.0
C510 C 0.53896 0.18823 0.04098 0.0
C511 C 0.55461 0.17396 0.0383 0.0
O512 O 0.45531 0.88172 0.92335 0.0
O513 O 0.52902 0.93654 0.07331 0.0
O514 O 0.54426 0.15259 0.05023 0.0
O515 O 0.52239 0.08769 0.8833 0.0
H516 H 0.4149 0.86018 0.92756 0.0
H517 H 0.42313 0.88707 0.89841 0.0
H518 H 0.43929 0.87126 0.88726 0.0
H519 H 0.40411 0.85291 0.89281 0.0
H520 H 0.42145 0.89909 0.93273 0.0
H521 H 0.50311 0.91709 0.93172 0.0
H522 H 0.43076 0.95917 0.93913 0.0
H523 H 0.40806 0.92638 0.94675 0.0
H524 H 0.43092 0.9504 0.96342 0.0
H525 H 0.53849 0.95844 0.94048 0.0
H526 H 0.5316 0.98495 0.93926 0.0
H527 H 0.52987 0.96979 0.96157 0.0
H528 H 0.52279 0.05942 0.86552 0.0
H529 H 0.58914 0.1152 0.85529 0.0
H530 H 0.53324 0.08717 0.84014 0.0
H531 H 0.5351 0.11114 0.85349 0.0
H532 H 0.55674 0.08892 0.90865 0.0
H533 H 0.47416 0.06055 0.89654 0.0
H534 H 0.55247 0.06916 0.95416 0.0
H535 H 0.54753 0.04065 0.94174 0.0
H536 H 0.57129 0.07252 0.93304 0.0
H537 H 0.4404 0.03478 0.91911 0.0
H538 H 0.44626 0.00802 0.92301 0.0
H539 H 0.44993 0.02928 0.94236 0.0
H540 H 0.55172 0.16736 0.0232 0.0
H541 H 0.57644 0.14187 0.03027 0.0
H542 H 0.50169 0.10988 0.05918 0.0
H543 H 0.56622 0.09383 0.00195 0.0
H544 H 0.59229 0.11472 0.01814 0.0
H545 H 0.5735 0.08002 0.02213 0.0
H546 H 0.46905 0.06543 0.05714 0.0
H547 H 0.47112 0.04787 0.03686 0.0
H548 H 0.48471 0.04581 0.05923 0.0
H549 H 0.49444 0.90557 0.0628 0.0
H550 H 0.50943 0.87358 0.0676 0.0
H551 H 0.53189 0.90041 0.05286 0.0
H552 H 0.54086 0.89891 0.07714 0.0
H553 H 0.56641 0.97747 0.05727 0.0
H554 H 0.48366 0.93803 0.0722 0.0
H555 H 0.56355 0.01477 0.02065 0.0
H556 H 0.57103 0.03545 0.041 0.0
H557 H 0.58616 0.01536 0.03858 0.0
H558 H 0.45572 0.95544 0.06502 0.0
H559 H 0.47122 0.98907 0.05761 0.0
H560 H 0.46073 0.96372 0.0402 0.0
H561 H 0.48439 0.99464 0.92723 0.0
H562 H 0.50485 0.07002 0.96479 0.0
H563 H 0.5145 0.08148 -0.00227 0.0
H564 H 0.52722 0.04019 0.05247 0.0
H565 H 0.4982 0.96194 0.01578 0.0
H566 H 0.4851 0.94951 0.9835 0.0
H567 H 0.54057 0.19506 0.05587 0.0
H568 H 0.54663 0.20525 0.03132 0.0
H569 H 0.51758 0.17489 0.03759 0.0
C570 C 0.61622 0.48187 0.07843 0.0
C571 C 0.60762 0.45579 0.08845 0.0
C572 C 0.58443 0.46387 0.11364 0.0
C573 C 0.55716 0.44717 0.11058 0.0
C574 C 0.53858 0.45459 0.11601 0.0
C575 C 0.54772 0.47956 0.12412 0.0
C576 C 0.57543 0.4964 0.12721 0.0
C577 C 0.59334 0.48793 0.1224 0.0
C578 C 0.50927 0.43595 0.11275 0.0
C579 C 0.58644 0.5236 0.13509 0.0
C580 C 0.5021 0.58644 0.02395 0.0
C581 C 0.51224 0.57641 0.03907 0.0
C582 C 0.49531 0.54428 0.06452 0.0
C583 C 0.51839 0.55725 0.0758 0.0
C584 C 0.52086 0.54618 0.09266 0.0
C585 C 0.50007 0.52133 0.0982 0.0
C586 C 0.47674 0.50823 0.08697 0.0
C587 C 0.47454 0.52006 0.07034 0.0
C588 C 0.54608 0.56081 0.10428 0.0
C589 C 0.45445 0.48157 0.09235 0.0
C590 C 0.43129 0.56156 0.19864 0.0
C591 C 0.45741 0.57734 0.19212 0.0
C592 C 0.47448 0.56713 0.18968 0.0
C593 C 0.46481 0.54036 0.19324 0.0
C594 C 0.43867 0.52464 0.20035 0.0
C595 C 0.42239 0.53563 0.20327 0.0
C596 C 0.50268 0.58489 0.1831 0.0
C597 C 0.42773 0.49613 0.20452 0.0
C598 C 0.6084 0.49351 0.24175 0.0
C599 C 0.58341 0.48431 0.25389 0.0
C600 C 0.55999 0.50679 0.2443 0.0
C601 C 0.56829 0.5305 0.23524 0.0
C602 C 0.55167 0.53324 0.22208 0.0
C603 C 0.52595 0.51184 0.21836 0.0
C604 C 0.51667 0.48849 0.22871 0.0
C605 C 0.53391 0.48615 0.24155 0.0
C606 C 0.56206 0.55859 0.21151 0.0
C607 C 0.48903 0.46568 0.22553 0.0
C608 C 0.52864 0.48883 0.12803 0.0
C609 C 0.51929 0.49663 0.11253 0.0
C610 C 0.504 0.50863 0.11502 0.0
C611 C 0.49673 0.51203 0.13347 0.0
C612 C 0.4806 0.52322 0.13648 0.0
C613 C 0.47472 0.52769 0.15478 0.0
C614 C 0.48578 0.52225 0.17073 0.0
C615 C 0.48178 0.52864 0.18935 0.0
C616 C 0.49439 0.52429 0.20472 0.0
C617 C 0.51033 0.513 0.20207 0.0
C618 C 0.5133 0.50512 0.18374 0.0
C619 C 0.52817 0.49255 0.18074 0.0
C620 C 0.53213 0.48606 0.16257 0.0
C621 C 0.52237 0.49289 0.14663 0.0
C622 C 0.50653 0.50472 0.14935 0.0
C623 C 0.5016 0.51043 0.16797 0.0
C624 C 0.38062 0.57255 0.1823 0.0
C625 C 0.4104 0.58547 0.18685 0.0
O626 O 0.60261 0.4576 0.10746 0.0
O627 O 0.57758 0.50425 0.25551 0.0
O628 O 0.41425 0.57084 0.20048 0.0
O629 O 0.49242 0.55442 0.048 0.0
H630 H 0.58915 0.44025 0.08156 0.0
H631 H 0.60001 0.4867 0.07904 0.0
H632 H 0.63431 0.49782 0.08534 0.0
H633 H 0.62049 0.48087 0.0632 0.0
H634 H 0.55052 0.42843 0.1039 0.0
H635 H 0.61457 0.50061 0.1246 0.0
H636 H 0.5022 0.4429 0.10066 0.0
H637 H 0.50517 0.41595 0.10945 0.0
H638 H 0.4976 0.43522 0.12545 0.0
H639 H 0.60797 0.53611 0.13185 0.0
H640 H 0.57555 0.53309 0.12934 0.0
H641 H 0.58423 0.52262 0.15074 0.0
H642 H 0.53039 0.57525 0.03558 0.0
H643 H 0.51146 0.58441 0.01049 0.0
H644 H 0.48135 0.57037 0.0201 0.0
H645 H 0.50981 0.62495 0.03531 0.0
H646 H 0.53467 0.57598 0.07151 0.0
H647 H 0.45679 0.5102 0.06158 0.0
H648 H 0.54122 0.56112 0.11947 0.0
H649 H 0.55783 0.55073 0.1032 0.0
H650 H 0.55875 0.58119 0.0994 0.0
H651 H 0.43751 0.47399 0.08216 0.0
H652 H 0.46211 0.46774 0.09293 0.0
H653 H 0.44703 0.48229 0.10672 0.0
H654 H 0.4206 0.58567 0.1734 0.0
H655 H 0.46444 0.59766 0.18905 0.0
H656 H 0.40226 0.52377 0.20853 0.0
H657 H 0.50447 0.58076 0.16798 0.0
H658 H 0.50853 0.60576 0.18441 0.0
H659 H 0.51692 0.58141 0.19141 0.0
H660 H 0.40629 0.48612 0.2084 0.0
H661 H 0.43022 0.4862 0.19197 0.0
H662 H 0.4391 0.49406 0.21644 0.0
H663 H 0.56685 0.46704 0.24667 0.0
H664 H 0.61344 0.47779 0.24036 0.0
H665 H 0.60477 0.49863 0.22733 0.0
H666 H 0.62563 0.51098 0.24816 0.0
H667 H 0.58833 0.54644 0.23782 0.0
H668 H 0.52719 0.46814 0.24924 0.0
H669 H 0.5632 0.55521 0.19613 0.0
H670 H 0.54809 0.56616 0.21322 0.0
H671 H 0.58214 0.57365 0.21654 0.0
H672 H 0.48363 0.45023 0.23634 0.0
H673 H 0.47412 0.47226 0.22587 0.0
H674 H 0.48795 0.45717 0.21129 0.0
H675 H 0.52536 0.49476 0.09832 0.0
H676 H 0.47233 0.52861 0.12471 0.0
H677 H 0.46204 0.53617 0.15622 0.0
H678 H 0.49215 0.53018 0.21886 0.0
H679 H 0.537 0.48761 0.1924 0.0
H680 H 0.54362 0.4763 0.16113 0.0
H681 H 0.36912 0.57154 0.19518 0.0
H682 H 0.377 0.58365 0.17114 0.0
H683 H 0.37328 0.55244 0.17697 0.0
C684 C 0.69414 0.42801 0.40626 0.0
O685 O 0.69721 0.44807 0.41498 0.0
Cd686 Cd 0.65757 0.45027 0.42225 0.0
O687 O 0.67098 0.40839 0.40401 0.0
Cd688 Cd 0.62407 0.39119 0.41283 0.0
C689 C 0.62267 0.43102 0.37984 0.0
O690 O 0.6276 0.41484 0.44219 0.0
O691 O 0.58934 0.39639 0.42773 0.0
O692 O 0.62363 0.35573 0.42974 0.0
C693 C 0.6031 0.40848 0.4422 0.0
O694 O 0.63664 0.44898 0.39174 0.0
C695 C 0.60757 0.3376 0.41883 0.0
O696 O 0.61561 0.40737 0.38336 0.0
O697 O 0.59857 0.34413 0.40466 0.0
C698 C 0.2714 0.58673 0.56795 0.0
O699 O 0.25461 0.56622 0.5593 0.0
Cd700 Cd 0.21124 0.56111 0.55225 0.0
O701 O 0.26645 0.60509 0.57076 0.0
Cd702 Cd 0.23278 0.61761 0.56334 0.0
C703 C 0.19148 0.57355 0.59491 0.0
O704 O 0.21459 0.59612 0.53261 0.0
O705 O 0.19186 0.61 0.54814 0.0
O706 O 0.26606 0.65879 0.54972 0.0
C707 C 0.19537 0.60074 0.53288 0.0
O708 O 0.18835 0.55656 0.58252 0.0
C709 C 0.26472 0.67309 0.56257 0.0
O710 O 0.20757 0.5976 0.59196 0.0
O711 O 0.24822 0.66166 0.5759 0.0
C712 C 0.69514 0.26607 0.74123 0.0
O713 O 0.69787 0.24657 0.73741 0.0
Cd714 Cd 0.6615 0.20543 0.72621 0.0
O715 O 0.67245 0.2645 0.73995 0.0
Cd716 Cd 0.62539 0.23418 0.7324 0.0
C717 C 0.61915 0.18849 0.76452 0.0
O718 O 0.63496 0.2151 0.70562 0.0
O719 O 0.59333 0.19717 0.71303 0.0
O720 O 0.62011 0.26791 0.7167 0.0
C721 C 0.61112 0.19743 0.70239 0.0
O722 O 0.63403 0.18398 0.75374 0.0
C723 C 0.60495 0.26899 0.72919 0.0
O724 O 0.61434 0.20685 0.76095 0.0
O725 O 0.59869 0.25341 0.74308 0.0
C726 C 0.34967 0.58925 0.91154 0.0
O727 O 0.35362 0.57272 0.9202 0.0
Cd728 Cd 0.39781 0.5807 0.92536 0.0
O729 O 0.36911 0.61145 0.90701 0.0
Cd730 Cd 0.41817 0.63871 0.91148 0.0
C731 C 0.42436 0.59904 0.88024 0.0
O732 O 0.41884 0.62118 0.9422 0.0
O733 O 0.4576 0.64543 0.92995 0.0
O734 O 0.40616 0.67069 0.92079 0.0
C735 C 0.4439 0.6324 0.94405 0.0
O736 O 0.41518 0.58218 0.89345 0.0
C737 C 0.42376 0.68937 0.91113 0.0
O738 O 0.42727 0.6216 0.8827 0.0
O739 O 0.43931 0.68468 0.90132 0.0
C740 C 0.76053 0.42405 0.06809 0.0
O741 O 0.78204 0.44202 0.06106 0.0
Cd742 Cd 0.81967 0.43648 0.05548 0.0
O743 O 0.75747 0.40156 0.07119 0.0
Cd744 Cd 0.78097 0.37675 0.06561 0.0
C745 C 0.82862 0.41251 0.09802 0.0
O746 O 0.80297 0.3982 0.03637 0.0
O747 O 0.81587 0.37292 0.04867 0.0
O748 O 0.74222 0.3439 0.04911 0.0
C749 C 0.81699 0.38732 0.03499 0.0
O750 O 0.83626 0.43091 0.08603 0.0
C751 C 0.73634 0.32548 0.06064 0.0
O752 O 0.80811 0.39037 0.09473 0.0
O753 O 0.7514 0.33059 0.07508 0.0
C754 C 0.34256 0.76654 0.23465 0.0
O755 O 0.34248 0.78657 0.22837 0.0
Cd756 Cd 0.38356 0.82556 0.22079 0.0
O757 O 0.36435 0.76629 0.23606 0.0
Cd758 Cd 0.4125 0.79349 0.22945 0.0
C759 C 0.41822 0.83671 0.26289 0.0
O760 O 0.40917 0.81402 0.20054 0.0
O761 O 0.44859 0.83063 0.21298 0.0
O762 O 0.41141 0.75804 0.21206 0.0
C763 C 0.43402 0.82986 0.19922 0.0
O764 O 0.40606 0.8432 0.25094 0.0
C765 C 0.42613 0.75392 0.22317 0.0
O766 O 0.42241 0.81795 0.25937 0.0
O767 O 0.43502 0.76837 0.23781 0.0
H768 H 0.17707 0.64574 0.24405 0.0
H769 H 0.33609 0.72239 0.25175 0.0
H770 H 0.22183 0.61588 0.27306 0.0
H771 H 0.29135 0.75718 0.22995 0.0
H772 H 0.29434 0.6833 0.25966 0.0
H773 H 0.21853 0.68679 0.23877 0.0
C774 C 0.1956 0.648 0.24956 0.0
C775 C 0.19597 0.62759 0.25937 0.0
C776 C 0.29362 0.6995 0.25321 0.0
C777 C 0.24354 0.67421 0.25295 0.0
C778 C 0.31748 0.72185 0.24864 0.0
C779 C 0.31726 0.7431 0.24007 0.0
C780 C 0.26925 0.69821 0.24907 0.0
C781 C 0.2925 0.74127 0.2365 0.0
C782 C 0.21925 0.67137 0.24648 0.0
C783 C 0.22063 0.63129 0.26573 0.0
N784 N 0.26948 0.71915 0.24092 0.0
N785 N 0.24341 0.6541 0.26238 0.0
H786 H 0.59406 0.20101 0.47182 0.0
H787 H 0.59174 0.29733 0.39327 0.0
H788 H 0.60633 0.19352 0.41237 0.0
H789 H 0.60845 0.31637 0.45266 0.0
H790 H 0.58628 0.2541 0.39972 0.0
H791 H 0.58819 0.23815 0.46453 0.0
C792 C 0.59497 0.20689 0.45718 0.0
C793 C 0.6004 0.19402 0.44267 0.0
C794 C 0.59084 0.26771 0.41132 0.0
C795 C 0.59418 0.23678 0.43423 0.0
C796 C 0.59381 0.29225 0.40768 0.0
C797 C 0.60079 0.31045 0.42244 0.0
C798 C 0.59443 0.26135 0.42988 0.0
C799 C 0.60336 0.303 0.44084 0.0
C800 C 0.59178 0.22815 0.45303 0.0
C801 C 0.60185 0.20273 0.42394 0.0
N802 N 0.60023 0.27907 0.44402 0.0
N803 N 0.59886 0.22366 0.42025 0.0
H804 H 0.42967 0.60795 0.57898 0.0
H805 H 0.29992 0.61525 0.59839 0.0
H806 H 0.40765 0.61816 0.63544 0.0
H807 H 0.3001 0.56452 0.55449 0.0
H808 H 0.34212 0.62094 0.61039 0.0
H809 H 0.38467 0.5956 0.5679 0.0
C810 C 0.41531 0.60725 0.58911 0.0
C811 C 0.42237 0.61393 0.60825 0.0
C812 C 0.33286 0.60844 0.59819 0.0
C813 C 0.37128 0.60061 0.59549 0.0
C814 C 0.30888 0.60531 0.59126 0.0
C815 C 0.29657 0.58946 0.57538 0.0
C816 C 0.34501 0.59614 0.58894 0.0
C817 C 0.30896 0.57687 0.56679 0.0
C818 C 0.38966 0.60021 0.58276 0.0
C819 C 0.40298 0.61303 0.62062 0.0
N820 N 0.33276 0.58076 0.57353 0.0
N821 N 0.37845 0.60685 0.61399 0.0
H822 H 0.82246 0.37803 0.8115 0.0
H823 H 0.70138 0.31465 0.73932 0.0
H824 H 0.80102 0.42379 0.77584 0.0
H825 H 0.74084 0.27344 0.75872 0.0
H826 H 0.7372 0.35467 0.7532 0.0
H827 H 0.79227 0.33914 0.79307 0.0
C828 C 0.81153 0.37987 0.79968 0.0
C829 C 0.81408 0.40406 0.79521 0.0
C830 C 0.73819 0.33695 0.75426 0.0
C831 C 0.77939 0.35978 0.77428 0.0
C832 C 0.71771 0.31408 0.74641 0.0
C833 C 0.71807 0.29068 0.748 0.0
C834 C 0.75897 0.33636 0.76412 0.0
C835 C 0.73982 0.29109 0.75719 0.0
C836 C 0.7944 0.35774 0.78916 0.0
C837 C 0.79948 0.40545 0.77978 0.0
N838 N 0.75927 0.31354 0.76516 0.0
N839 N 0.78254 0.38356 0.76999 0.0
H840 H 0.3916 0.81471 0.93032 0.0
H841 H 0.46131 0.73489 0.89428 0.0
H842 H 0.46773 0.85123 0.90209 0.0
H843 H 0.3905 0.70261 0.92884 0.0
H844 H 0.46356 0.77734 0.89559 0.0
H845 H 0.39029 0.77301 0.92852 0.0
C846 C 0.40815 0.81394 0.92386 0.0
C847 C 0.43 0.83651 0.91663 0.0
C848 C 0.44757 0.76093 0.90288 0.0
C849 C 0.42853 0.7887 0.91424 0.0
C850 C 0.44625 0.73672 0.90211 0.0
C851 C 0.4257 0.7152 0.91147 0.0
C852 C 0.42811 0.76351 0.913 0.0
C853 C 0.40673 0.71865 0.92143 0.0
C854 C 0.40739 0.79012 0.92279 0.0
C855 C 0.45069 0.83431 0.90806 0.0
N856 N 0.40839 0.74229 0.9219 0.0
N857 N 0.44947 0.8108 0.90711 0.0
H858 H 0.64019 0.45197 0.11627 0.0
H859 H 0.74655 0.45417 0.04745 0.0
H860 H 0.62454 0.44327 0.05593 0.0
H861 H 0.72362 0.40414 0.09644 0.0
H862 H 0.70788 0.45997 0.05251 0.0
H863 H 0.67657 0.44292 0.11144 0.0
C864 C 0.64422 0.4481 0.10201 0.0
C865 C 0.62927 0.44862 0.08639 0.0
C866 C 0.71145 0.44778 0.06213 0.0
C867 C 0.67143 0.43906 0.08094 0.0
C868 C 0.73351 0.44464 0.05937 0.0
C869 C 0.73818 0.42869 0.07158 0.0
C870 C 0.6945 0.43553 0.07752 0.0
C871 C 0.72058 0.41654 0.0867 0.0
C872 C 0.66502 0.44294 0.09934 0.0
C873 C 0.63571 0.4434 0.06831 0.0
N874 N 0.69959 0.42046 0.08941 0.0
N875 N 0.6566 0.43928 0.06602 0.0
H876 H 0.385 0.83095 0.58929 0.0
H877 H 0.28777 0.70371 0.5317 0.0
H878 H 0.35588 0.83499 0.53366 0.0
H879 H 0.28158 0.7072 0.59248 0.0
H880 H 0.31833 0.75088 0.53133 0.0
H881 H 0.35259 0.78415 0.59003 0.0
C882 C 0.37186 0.82201 0.57725 0.0
C883 C 0.37331 0.837 0.56141 0.0
C884 C 0.31015 0.74129 0.54471 0.0
C885 C 0.33659 0.78355 0.56206 0.0
C886 C 0.29282 0.71444 0.54496 0.0
C887 C 0.28215 0.70163 0.56215 0.0
C888 C 0.31737 0.75528 0.56184 0.0
C889 C 0.28928 0.71641 0.57892 0.0
C890 C 0.35337 0.7954 0.57771 0.0
C891 C 0.35578 0.82436 0.54614 0.0
N892 N 0.30674 0.74248 0.57839 0.0
N893 N 0.33833 0.79833 0.54679 0.0
H894 H 0.54607 0.37064 0.69334 0.0
H895 H 0.58989 0.28951 0.75814 0.0
H896 H 0.58158 0.39864 0.74856 0.0
H897 H 0.60016 0.29263 0.69743 0.0
H898 H 0.57787 0.3237 0.75586 0.0
H899 H 0.55753 0.33626 0.69549 0.0
C900 C 0.55635 0.36971 0.7059 0.0
C901 C 0.56306 0.38779 0.7208 0.0
C902 C 0.58269 0.31678 0.74307 0.0
C903 C 0.5754 0.34789 0.72345 0.0
C904 C 0.58934 0.2972 0.74433 0.0
C905 C 0.59603 0.28831 0.72794 0.0
C906 C 0.58211 0.32701 0.72526 0.0
C907 C 0.59522 0.29905 0.7104 0.0
C908 C 0.56282 0.35002 0.70708 0.0
C909 C 0.57608 0.38517 0.73677 0.0
N910 N 0.5882 0.31774 0.70949 0.0
N911 N 0.58163 0.36547 0.73776 0.0
H912 H 0.18659 0.55421 0.92014 0.0
H913 H 0.33232 0.60583 0.88146 0.0
H914 H 0.20008 0.55022 0.86031 0.0
H915 H 0.30486 0.55901 0.93207 0.0
H916 H 0.28633 0.59558 0.87493 0.0
H917 H 0.23315 0.56649 0.92639 0.0
C918 C 0.19941 0.55621 0.90834 0.0
C919 C 0.18939 0.55123 0.88971 0.0
C920 C 0.29052 0.58762 0.88744 0.0
C921 C 0.24249 0.56558 0.89674 0.0
C922 C 0.31662 0.59348 0.8912 0.0
C923 C 0.32223 0.58311 0.90727 0.0
C924 C 0.2702 0.57199 0.90015 0.0
C925 C 0.30125 0.56717 0.91944 0.0
C926 C 0.22582 0.56308 0.91192 0.0
C927 C 0.20686 0.55402 0.87489 0.0
N928 N 0.27612 0.56229 0.91574 0.0
N929 N 0.23265 0.5612 0.87873 0.0
H930 H 0.58089 0.18952 0.07287 0.0
H931 H 0.7116 0.30549 0.02704 0.0
H932 H 0.59441 0.20073 0.01266 0.0
H933 H 0.70667 0.28719 0.0866 0.0
H934 H 0.66954 0.26549 0.02167 0.0
H935 H 0.6274 0.22336 0.07854 0.0
C936 C 0.59382 0.19878 0.06086 0.0
C937 C 0.58391 0.19222 0.04226 0.0
C938 C 0.67767 0.26998 0.03591 0.0
C939 C 0.6368 0.23117 0.04861 0.0
C940 C 0.7017 0.29289 0.03899 0.0
C941 C 0.71248 0.29976 0.05732 0.0
C942 C 0.66395 0.25392 0.05132 0.0
C943 C 0.69896 0.28258 0.07225 0.0
C944 C 0.6203 0.2181 0.0641 0.0
C945 C 0.60131 0.20509 0.0272 0.0
N946 N 0.67514 0.26057 0.06898 0.0
N947 N 0.62681 0.22404 0.03071 0.0
H948 H 0.43364 0.62997 0.1658 0.0
H949 H 0.43499 0.72362 0.24836 0.0
H950 H 0.40907 0.60335 0.22301 0.0
H951 H 0.4291 0.73559 0.18863 0.0
H952 H 0.43729 0.68423 0.24058 0.0
H953 H 0.44417 0.67373 0.17549 0.0
C954 C 0.431 0.63351 0.1805 0.0
C955 C 0.42068 0.6131 0.19364 0.0
C956 C 0.43587 0.69576 0.22922 0.0
C957 C 0.43225 0.66297 0.20479 0.0
C958 C 0.43472 0.71824 0.23364 0.0
C959 C 0.43158 0.73262 0.2191 0.0
C960 C 0.43438 0.6881 0.21016 0.0
C961 C 0.43119 0.72483 0.20026 0.0
C962 C 0.43688 0.65841 0.18601 0.0
C963 C 0.41725 0.61864 0.21248 0.0
N964 N 0.43248 0.70309 0.19634 0.0
N965 N 0.42289 0.64306 0.21749 0.0
H966 H 0.83381 0.41301 0.3953 0.0
H967 H 0.69471 0.40139 0.37512 0.0
H968 H 0.80001 0.39944 0.33899 0.0
H969 H 0.74581 0.45218 0.41948 0.0
H970 H 0.73195 0.39743 0.36293 0.0
H971 H 0.80098 0.42494 0.40585 0.0
C972 C 0.81979 0.41295 0.38508 0.0
C973 C 0.81979 0.4055 0.36614 0.0
C974 C 0.7351 0.40961 0.37524 0.0
C975 C 0.78183 0.41832 0.37829 0.0
C976 C 0.71384 0.41176 0.38227 0.0
C977 C 0.71721 0.42702 0.39839 0.0
C978 C 0.75979 0.4223 0.38464 0.0
C979 C 0.74247 0.44025 0.407 0.0
C980 C 0.80109 0.41975 0.39113 0.0
C981 C 0.80079 0.40528 0.35364 0.0
N982 N 0.76278 0.43727 0.40018 0.0
N983 N 0.78238 0.41129 0.35997 0.0
H984 H 0.14036 0.58857 0.41722 0.0
H985 H 0.15285 0.60863 0.52979 0.0
H986 H 0.09403 0.61327 0.44989 0.0
H987 H 0.2004 0.58521 0.49717 0.0
H988 H 0.1281 0.60633 0.50109 0.0
H989 H 0.15952 0.58312 0.44665 0.0
C990 C 0.13394 0.59246 0.43064 0.0
C991 C 0.11542 0.60115 0.43116 0.0
C992 C 0.14383 0.60153 0.5002 0.0
C993 C 0.13759 0.59544 0.46488 0.0
C994 C 0.15798 0.60283 0.5166 0.0
C995 C 0.1789 0.59732 0.51586 0.0
C996 C 0.15066 0.59476 0.48286 0.0
C997 C 0.18453 0.58976 0.49839 0.0
C998 C 0.14494 0.58945 0.44743 0.0
C999 C 0.10806 0.60629 0.4489 0.0
N1000 N 0.17062 0.58888 0.48255 0.0
N1001 N 0.11925 0.60347 0.46504 0.0
H1002 H 0.52426 0.06284 0.61687 0.0
H1003 H 0.64601 0.18594 0.68482 0.0
H1004 H 0.62186 0.08378 0.62305 0.0
H1005 H 0.56207 0.16011 0.68953 0.0
H1006 H 0.63516 0.14959 0.66322 0.0
H1007 H 0.53702 0.10047 0.64695 0.0
C1008 C 0.54325 0.07161 0.6242 0.0
C1009 C 0.57326 0.07206 0.61433 0.0
C1010 C 0.61915 0.15187 0.66905 0.0
C1011 C 0.58528 0.11315 0.65088 0.0
C1012 C 0.62531 0.17269 0.68124 0.0
C1013 C 0.60489 0.17608 0.68889 0.0
C1014 C 0.59245 0.13457 0.66435 0.0
C1015 C 0.5784 0.1582 0.68392 0.0
C1016 C 0.55183 0.09585 0.64196 0.0
C1017 C 0.60479 0.08484 0.6281 0.0
N1018 N 0.57294 0.13825 0.67183 0.0
N1019 N 0.60805 0.10616 0.64406 0.0
H1020 H 0.47795 0.59847 0.75585 0.0
H1021 H 0.41073 0.55025 0.86781 0.0
H1022 H 0.408 0.50548 0.77631 0.0
H1023 H 0.4502 0.63054 0.84978 0.0
H1024 H 0.41667 0.53751 0.8361 0.0
H1025 H 0.47215 0.61412 0.79373 0.0
C1026 C 0.46309 0.58497 0.7656 0.0
C1027 C 0.44637 0.54891 0.76272 0.0
C1028 C 0.4241 0.55791 0.83912 0.0
C1029 C 0.4389 0.56945 0.80565 0.0
C1030 C 0.42086 0.56526 0.85725 0.0
C1031 C 0.42984 0.59153 0.86146 0.0
C1032 C 0.43663 0.57694 0.82514 0.0
C1033 C 0.44281 0.61006 0.84713 0.0
C1034 C 0.46055 0.59399 0.78929 0.0
C1035 C 0.41895 0.52634 0.77849 0.0
N1036 N 0.44584 0.6024 0.82954 0.0
N1037 N 0.42002 0.53902 0.79917 0.0
H1038 H 0.89843 0.44334 0.91875 0.0
H1039 H 0.85104 0.36856 0.02843 0.0
H1040 H 0.93547 0.38971 0.95082 0.0
H1041 H 0.82165 0.41592 0.00347 0.0
H1042 H 0.87869 0.37595 0.0003 0.0
H1043 H 0.86429 0.43055 0.95153 0.0
C1044 C 0.89767 0.42995 0.92947 0.0
C1045 C 0.92419 0.4212 0.9325 0.0
C1046 C 0.86617 0.3847 0.00103 0.0
C1047 C 0.88152 0.40489 0.96902 0.0
C1048 C 0.85041 0.3805 0.01705 0.0
C1049 C 0.83403 0.39165 0.01828 0.0
C1050 C 0.86541 0.40004 0.98619 0.0
C1051 C 0.83399 0.40696 0.00313 0.0
C1052 C 0.87802 0.42328 0.95024 0.0
C1053 C 0.92097 0.39609 0.94968 0.0
N1054 N 0.84943 0.41068 0.98768 0.0
N1055 N 0.90121 0.39257 0.96721 0.0
H1056 H 0.45762 0.88103 0.08313 0.0
H1057 H 0.48653 0.86453 0.19162 0.0
H1058 H 0.53629 0.92027 0.10803 0.0
H1059 H 0.40756 0.83062 0.16732 0.0
H1060 H 0.50509 0.88737 0.16177 0.0
H1061 H 0.43874 0.86462 0.11445 0.0
C1062 C 0.47087 0.88638 0.09527 0.0
C1063 C 0.49851 0.902 0.09304 0.0
C1064 C 0.48369 0.87509 0.16303 0.0
C1065 C 0.47718 0.88303 0.12888 0.0
C1066 C 0.47308 0.86205 0.18006 0.0
C1067 C 0.44548 0.84548 0.1819 0.0
C1068 C 0.46656 0.87142 0.14771 0.0
C1069 C 0.42899 0.84306 0.16649 0.0
C1070 C 0.46012 0.877 0.11313 0.0
C1071 C 0.51485 0.90828 0.10919 0.0
N1072 N 0.4398 0.85573 0.15001 0.0
N1073 N 0.50395 0.89862 0.12642 0.0
H1074 H 0.61083 0.51579 0.28425 0.0
H1075 H 0.59376 0.3987 0.35034 0.0
H1076 H 0.567 0.43509 0.26723 0.0
H1077 H 0.63458 0.47945 0.36773 0.0
H1078 H 0.58303 0.41134 0.32002 0.0
H1079 H 0.61918 0.50261 0.31517 0.0
C1080 C 0.60273 0.49526 0.28714 0.0
C1081 C 0.58778 0.47644 0.27333 0.0
C1082 C 0.59428 0.42626 0.33051 0.0
C1083 C 0.59763 0.4612 0.30852 0.0
C1084 C 0.60041 0.41906 0.34783 0.0
C1085 C 0.61519 0.43804 0.36161 0.0
C1086 C 0.60302 0.45263 0.32693 0.0
C1087 C 0.62322 0.46412 0.35755 0.0
C1088 C 0.60756 0.48773 0.30475 0.0
C1089 C 0.57827 0.45015 0.27761 0.0
N1090 N 0.6171 0.47063 0.34058 0.0
N1091 N 0.58334 0.44329 0.29484 0.0
H1092 H 0.41173 0.92072 0.35913 0.0
H1093 H 0.4348 0.82281 0.29525 0.0
H1094 H 0.43627 0.86865 0.38231 0.0
H1095 H 0.41793 0.88095 0.27311 0.0
H1096 H 0.4403 0.84205 0.32691 0.0
H1097 H 0.41854 0.90921 0.32728 0.0
C1098 C 0.41906 0.90722 0.35751 0.0
C1099 C 0.4238 0.89586 0.37339 0.0
C1100 C 0.43572 0.85076 0.31505 0.0
C1101 C 0.43083 0.88189 0.33686 0.0
C1102 C 0.43263 0.83981 0.29697 0.0
C1103 C 0.42544 0.85 0.28155 0.0
C1104 C 0.43153 0.87196 0.31767 0.0
C1105 C 0.42301 0.87214 0.28461 0.0
C1106 C 0.42285 0.90054 0.3393 0.0
C1107 C 0.43268 0.87802 0.37041 0.0
N1108 N 0.42577 0.88217 0.30231 0.0
N1109 N 0.43569 0.87138 0.35248 0.0
H1110 H 0.49001 0.40861 0.52189 0.0
H1111 H 0.62644 0.43114 0.47613 0.0
H1112 H 0.5628 0.43481 0.55369 0.0
H1113 H 0.55167 0.39803 0.4457 0.0
H1114 H 0.60473 0.43722 0.50381 0.0
H1115 H 0.51353 0.40922 0.49291 0.0
C1116 C 0.51105 0.41482 0.52269 0.0
C1117 C 0.52457 0.42184 0.54014 0.0
C1118 C 0.59311 0.42875 0.49104 0.0
C1119 C 0.55152 0.42225 0.50719 0.0
C1120 C 0.6055 0.4253 0.47523 0.0
C1121 C 0.59078 0.41386 0.45864 0.0
C1122 C 0.56581 0.42072 0.49025 0.0
C1123 C 0.56374 0.40676 0.45825 0.0
C1124 C 0.52444 0.41508 0.50619 0.0
C1125 C 0.55172 0.42942 0.54048 0.0
N1126 N 0.5521 0.41019 0.47384 0.0
N1127 N 0.56429 0.42934 0.52426 0.0
H1128 H 0.08875 0.48508 0.68817 0.0
H1129 H 0.19401 0.60421 0.62486 0.0
H1130 H 0.13173 0.56475 0.70762 0.0
H1131 H 0.15482 0.52405 0.60617 0.0
H1132 H 0.16979 0.5902 0.65472 0.0
H1133 H 0.11118 0.49903 0.65746 0.0
C1134 C 0.10274 0.50554 0.68587 0.0
C1135 C 0.10817 0.52386 0.70033 0.0
C1136 C 0.16646 0.57566 0.64409 0.0
C1137 C 0.13411 0.53993 0.66541 0.0
C1138 C 0.18029 0.58366 0.627 0.0
C1139 C 0.17653 0.56528 0.61296 0.0
C1140 C 0.14867 0.54909 0.64722 0.0
C1141 C 0.15842 0.53891 0.61658 0.0
C1142 C 0.11559 0.51349 0.6684 0.0
C1143 C 0.12676 0.55007 0.69677 0.0
N1144 N 0.14519 0.53161 0.63336 0.0
N1145 N 0.13904 0.55732 0.67967 0.0
H1146 H 0.57133 0.1346 0.8882 0.0
H1147 H 0.60981 0.13921 0.76979 0.0
H1148 H 0.56325 0.0579 0.84827 0.0
H1149 H 0.60168 0.19987 0.79749 0.0
H1150 H 0.59284 0.11259 0.79817 0.0
H1151 H 0.58514 0.16324 0.85289 0.0
C1152 C 0.57413 0.12653 0.87521 0.0
C1153 C 0.56151 0.09108 0.87165 0.0
C1154 C 0.59457 0.13163 0.79803 0.0
C1155 C 0.58036 0.12683 0.8318 0.0
C1156 C 0.6044 0.14691 0.78186 0.0
C1157 C 0.60738 0.17189 0.78136 0.0
C1158 C 0.58811 0.14154 0.81394 0.0
C1159 C 0.59972 0.18073 0.79733 0.0
C1160 C 0.5807 0.14323 0.85322 0.0
C1161 C 0.56919 0.07823 0.85006 0.0
N1162 N 0.59074 0.16566 0.81314 0.0
N1163 N 0.5756 0.0972 0.83188 0.0
H1164 H 0.5622 0.62711 0.02981 0.0
H1165 H 0.41861 0.60694 0.97631 0.0
H1166 H 0.46823 0.58294 0.05932 0.0
H1167 H 0.49689 0.65009 0.95136 0.0
H1168 H 0.43862 0.60059 0.0048 0.0
H1169 H 0.53857 0.63965 -0.00164 0.0
C1170 C 0.54188 0.6233 0.03032 0.0
C1171 C 0.51665 0.59975 0.04708 0.0
C1172 C 0.45143 0.61152 0.99313 0.0
C1173 C 0.49157 0.61766 0.01078 0.0
C1174 C 0.44004 0.61513 0.97684 0.0
C1175 C 0.45613 0.62904 0.96142 0.0
C1176 C 0.47907 0.6218 0.99399 0.0
C1177 C 0.48377 0.63924 0.96292 0.0
C1178 C 0.52668 0.62938 0.01055 0.0
C1179 C 0.48254 0.5952 0.04878 0.0
N1180 N 0.49442 0.63533 0.97895 0.0
N1181 N 0.47309 0.60282 0.02924 0.0
H1182 H 0.91007 0.39184 0.19403 0.0
H1183 H 0.871 0.45813 0.1106 0.0
H1184 H 0.96018 0.4706 0.17471 0.0
H1185 H 0.82364 0.37671 0.12493 0.0
H1186 H 0.90055 0.4643 0.13715 0.0
H1187 H 0.87512 0.3872 0.1719 0.0
C1188 C 0.91352 0.40824 0.18531 0.0
C1189 C 0.93802 0.43163 0.18617 0.0
C1190 C 0.88362 0.44509 0.1346 0.0
C1191 C 0.89836 0.42647 0.16079 0.0
C1192 C 0.86667 0.44153 0.1194 0.0
C1193 C 0.84492 0.41677 0.11534 0.0
C1194 C 0.87896 0.42374 0.14586 0.0
C1195 C 0.84024 0.39611 0.12744 0.0
C1196 C 0.89365 0.40558 0.17266 0.0
C1197 C 0.94158 0.45226 0.1745 0.0
N1198 N 0.85727 0.40001 0.14206 0.0
N1199 N 0.92205 0.44915 0.16226 0.0
loop_
_geom_bond_atom_site_label_1
_geom_bond_atom_site_label_2
_geom_bond_distance
_geom_bond_site_symmetry_2
_ccdc_geom_bond_type
C0 C1 1.560 . S
C0 H61 0.959 . S
C0 H62 0.959 . S
C0 H63 0.960 . S
C1 C0 1.560 . S
C1 O56 1.426 . S
C1 H60 0.980 . S
C2 C3 1.407 . S
C2 C7 1.418 . S
C2 O56 1.334 . S
C3 C2 1.407 . S
C3 C4 1.360 . S
C3 H64 0.929 . S
C4 C3 1.360 . S
C4 C5 1.401 . S
C4 C8 1.527 . S
C5 C4 1.401 . S
C5 C6 1.405 . S
C5 C38 1.587 . S
C6 C5 1.405 . S
C6 C7 1.332 . S
C6 C9 1.496 . S
C7 C2 1.418 . S
C7 C6 1.332 . S
C7 H65 0.929 . S
C8 C4 1.527 . S
C8 H66 0.959 . S
C8 H67 0.961 . S
C8 H68 0.961 . S
C9 C6 1.496 . S
C9 H69 0.960 . S
C9 H70 0.960 . S
C9 H71 0.961 . S
C10 C11 1.517 . S
C10 H73 0.961 . S
C10 H74 0.960 . S
C10 H75 0.959 . S
C11 C10 1.517 . S
C11 O59 1.468 . S
C11 H72 0.980 . S
C12 C13 1.349 . S
C12 C17 1.367 . S
C12 O59 1.408 . S
C13 C12 1.349 . S
C13 C14 1.407 . S
C13 H76 0.930 . S
C14 C13 1.407 . S
C14 C15 1.449 . S
C14 C18 1.535 . S
C15 C14 1.449 . S
C15 C16 1.384 . S
C15 C40 1.553 1_655 S
C16 C15 1.384 . S
C16 C17 1.364 . S
C16 C19 1.450 . S
C17 C12 1.367 . S
C17 C16 1.364 . S
C17 H77 0.931 . S
C18 C14 1.535 . S
C18 H78 0.959 1_655 S
C18 H79 0.961 1_655 S
C18 H80 0.959 . S
C19 C16 1.450 . S
C19 H81 0.960 . S
C19 H82 0.960 1_655 S
C19 H83 0.960 . S
C20 C21 1.309 . S
C20 C25 1.304 . S
C20 O58 1.435 . S
C21 C20 1.309 . S
C21 C22 1.476 . S
C21 H85 0.930 . S
C22 C21 1.476 . S
C22 C23 1.400 . S
C22 C26 1.567 . S
C23 C22 1.400 . S
C23 C24 1.373 . S
C23 C45 1.432 . S
C24 C23 1.373 . S
C24 C25 1.339 . S
C24 C27 1.530 . S
C25 C20 1.304 . S
C25 C24 1.339 . S
C25 H86 0.930 . S
C26 C22 1.567 . S
C26 H87 0.961 . S
C26 H88 0.960 . S
C26 H89 0.958 . S
C27 C24 1.530 . S
C27 H90 0.961 . S
C27 H91 0.960 . S
C27 H92 0.960 . S
C28 C29 1.530 . S
C28 H94 0.961 . S
C28 H95 0.961 . S
C28 H96 0.959 . S
C29 C28 1.530 . S
C29 O57 1.412 . S
C29 H93 0.980 . S
C30 C31 1.288 . S
C30 C35 1.377 . S
C30 O57 1.393 . S
C31 C30 1.288 . S
C31 C32 1.369 . S
C31 H97 0.932 . S
C32 C31 1.369 . S
C32 C33 1.398 . S
C32 C36 1.527 . S
C33 C32 1.398 . S
C33 C34 1.380 . S
C33 C47 1.497 . S
C34 C33 1.380 . S
C34 C35 1.383 . S
C34 C37 1.603 . S
C35 C30 1.377 . S
C35 C34 1.383 . S
C35 H98 0.929 . S
C36 C32 1.527 . S
C36 H99 0.961 . S
C36 H100 0.991 . S
C36 H101 0.959 . S
C37 C34 1.603 . S
C37 H102 0.960 . S
C37 H103 0.962 . S
C37 H104 0.961 . S
C38 C5 1.587 . S
C38 C39 1.360 . S
C38 C51 1.412 . S
C39 C38 1.360 . S
C39 C40 1.365 . S
C39 H105 0.929 . S
C40 C15 1.553 1_455 S
C40 C39 1.365 . S
C40 C41 1.404 . S
C41 C40 1.404 . S
C41 C42 1.395 1_455 S
C41 C52 1.451 . S
C42 C41 1.395 1_655 S
C42 C43 1.322 . S
C42 H106 0.930 . S
C43 C42 1.322 . S
C43 C44 1.459 . S
C43 H107 0.929 . S
C44 C43 1.459 . S
C44 C45 1.445 . S
C44 C53 1.395 1_655 S
C45 C23 1.432 . S
C45 C44 1.445 . S
C45 C46 1.370 . S
C46 C45 1.370 . S
C46 C47 1.438 1_655 S
C46 H108 0.930 . S
C47 C33 1.497 . S
C47 C46 1.438 1_455 S
C47 C48 1.360 . S
C48 C47 1.360 . S
C48 C49 1.401 . S
C48 C53 1.446 . S
C49 C48 1.401 . S
C49 C50 1.347 . S
C49 H109 0.929 . S
C50 C49 1.347 . S
C50 C51 1.455 . S
C50 H110 0.930 . S
C51 C38 1.412 . S
C51 C50 1.455 . S
C51 C52 1.331 . S
C52 C41 1.451 . S
C52 C51 1.331 . S
C52 C53 1.497 . S
C53 C44 1.395 1_455 S
C53 C48 1.446 . S
C53 C52 1.497 . S
C54 C55 1.582 . S
C54 H111 0.962 . S
C54 H112 0.959 . S
C54 H113 0.958 . S
C55 C54 1.582 . S
C55 O58 1.458 . S
C55 H84 0.980 . S
O56 C1 1.426 . S
O56 C2 1.334 . S
O57 C29 1.412 . S
O57 C30 1.393 . S
O58 C20 1.435 . S
O58 C55 1.458 . S
O59 C11 1.468 . S
O59 C12 1.408 . S
H60 C1 0.980 . S
H61 C0 0.959 . S
H62 C0 0.959 . S
H63 C0 0.960 . S
H64 C3 0.929 . S
H65 C7 0.929 . S
H66 C8 0.959 . S
H67 C8 0.961 . S
H68 C8 0.961 . S
H69 C9 0.960 . S
H70 C9 0.960 . S
H71 C9 0.961 . S
H72 C11 0.980 . S
H73 C10 0.961 . S
H74 C10 0.960 . S
H75 C10 0.959 . S
H76 C13 0.930 . S
H77 C17 0.931 . S
H78 C18 0.959 1_455 S
H79 C18 0.961 1_455 S
H80 C18 0.959 . S
H81 C19 0.960 . S
H82 C19 0.960 1_455 S
H83 C19 0.960 . S
H84 C55 0.980 . S
H85 C21 0.930 . S
H86 C25 0.930 . S
H87 C26 0.961 . S
H88 C26 0.960 . S
H89 C26 0.958 . S
H90 C27 0.961 . S
H91 C27 0.960 . S
H92 C27 0.960 . S
H93 C29 0.980 . S
H94 C28 0.961 . S
H95 C28 0.961 . S
H96 C28 0.959 . S
H97 C31 0.932 . S
H98 C35 0.929 . S
H99 C36 0.961 . S
H100 C36 0.991 . S
H101 C36 0.959 . S
H102 C37 0.960 . S
H103 C37 0.962 . S
H104 C37 0.961 . S
H105 C39 0.929 . S
H106 C42 0.930 . S
H107 C43 0.929 . S
H108 C46 0.930 . S
H109 C49 0.929 . S
H110 C50 0.930 . S
H111 C54 0.962 . S
H112 C54 0.959 . S
H113 C54 0.958 . S
C114 C115 1.560 . S
C114 H175 0.959 . S
C114 H176 0.959 . S
C114 H177 0.960 . S
C115 C114 1.560 . S
C115 O170 1.426 . S
C115 H174 0.980 . S
C116 C117 1.407 . S
C116 C121 1.418 . S
C116 O170 1.334 . S
C117 C116 1.407 . S
C117 C118 1.360 . S
C117 H178 0.929 . S
C118 C117 1.360 . S
C118 C119 1.401 . S
C118 C122 1.527 . S
C119 C118 1.401 . S
C119 C120 1.405 . S
C119 C152 1.587 . S
C120 C119 1.405 . S
C120 C121 1.332 . S
C120 C123 1.496 . S
C121 C116 1.418 . S
C121 C120 1.332 . S
C121 H179 0.929 . S
C122 C118 1.527 . S
C122 H180 0.959 . S
C122 H181 0.961 . S
C122 H182 0.961 . S
C123 C120 1.496 . S
C123 H183 0.960 . S
C123 H184 0.960 . S
C123 H185 0.961 . S
C124 C125 1.517 . S
C124 H187 0.961 . S
C124 H188 0.960 . S
C124 H189 0.959 . S
C125 C124 1.517 . S
C125 O173 1.468 . S
C125 H186 0.980 . S
C126 C127 1.349 . S
C126 C131 1.367 . S
C126 O173 1.408 . S
C127 C126 1.349 . S
C127 C128 1.407 . S
C127 H190 0.930 . S
C128 C127 1.407 . S
C128 C129 1.449 . S
C128 C132 1.535 . S
C129 C128 1.449 . S
C129 C130 1.384 . S
C129 C154 1.553 . S
C130 C129 1.384 . S
C130 C131 1.364 . S
C130 C133 1.450 . S
C131 C126 1.367 . S
C131 C130 1.364 . S
C131 H191 0.931 . S
C132 C128 1.535 . S
C132 H192 0.959 . S
C132 H193 0.961 . S
C132 H194 0.959 . S
C133 C130 1.450 . S
C133 H195 0.960 . S
C133 H196 0.960 . S
C133 H197 0.960 . S
C134 C135 1.309 . S
C134 C139 1.304 . S
C134 O172 1.435 . S
C135 C134 1.309 . S
C135 C136 1.476 . S
C135 H199 0.930 . S
C136 C135 1.476 . S
C136 C137 1.400 . S
C136 C140 1.567 . S
C137 C136 1.400 . S
C137 C138 1.373 . S
C137 C159 1.432 . S
C138 C137 1.373 . S
C138 C139 1.339 . S
C138 C141 1.530 . S
C139 C134 1.304 . S
C139 C138 1.339 . S
C139 H200 0.930 . S
C140 C136 1.567 . S
C140 H201 0.961 . S
C140 H202 0.960 . S
C140 H203 0.958 . S
C141 C138 1.530 . S
C141 H204 0.961 . S
C141 H205 0.960 . S
C141 H206 0.960 . S
C142 C143 1.530 . S
C142 H208 0.961 . S
C142 H209 0.961 . S
C142 H210 0.959 . S
C143 C142 1.530 . S
C143 O171 1.412 . S
C143 H207 0.980 . S
C144 C145 1.288 . S
C144 C149 1.377 . S
C144 O171 1.393 . S
C145 C144 1.288 . S
C145 C146 1.369 . S
C145 H211 0.932 . S
C146 C145 1.369 . S
C146 C147 1.398 . S
C146 C150 1.527 1_565 S
C147 C146 1.398 . S
C147 C148 1.380 . S
C147 C161 1.497 1_565 S
C148 C147 1.380 . S
C148 C149 1.383 . S
C148 C151 1.603 . S
C149 C144 1.377 . S
C149 C148 1.383 . S
C149 H212 0.929 . S
C150 C146 1.527 1_545 S
C150 H213 0.961 . S
C150 H214 0.959 . S
C150 H215 0.959 1_545 S
C151 C148 1.603 . S
C151 H216 0.960 . S
C151 H217 0.962 . S
C151 H218 0.961 . S
C152 C119 1.587 . S
C152 C153 1.360 . S
C152 C165 1.412 . S
C153 C152 1.360 . S
C153 C154 1.365 1_565 S
C153 H219 0.929 . S
C154 C129 1.553 . S
C154 C153 1.365 1_545 S
C154 C155 1.404 . S
C155 C154 1.404 . S
C155 C156 1.395 . S
C155 C166 1.451 . S
C156 C155 1.395 . S
C156 C157 1.322 . S
C156 H220 0.930 . S
C157 C156 1.322 . S
C157 C158 1.459 . S
C157 H221 0.929 . S
C158 C157 1.459 . S
C158 C159 1.445 . S
C158 C167 1.395 . S
C159 C137 1.432 . S
C159 C158 1.445 . S
C159 C160 1.370 . S
C160 C159 1.370 . S
C160 C161 1.438 . S
C160 H222 0.930 . S
C161 C147 1.497 1_545 S
C161 C160 1.438 . S
C161 C162 1.360 1_545 S
C162 C161 1.360 1_565 S
C162 C163 1.401 . S
C162 C167 1.446 1_565 S
C163 C162 1.401 . S
C163 C164 1.347 . S
C163 H223 0.929 . S
C164 C163 1.347 . S
C164 C165 1.455 . S
C164 H224 0.930 . S
C165 C152 1.412 . S
C165 C164 1.455 . S
C165 C166 1.331 1_565 S
C166 C155 1.451 . S
C166 C165 1.331 1_545 S
C166 C167 1.497 . S
C167 C158 1.395 . S
C167 C162 1.446 1_545 S
C167 C166 1.497 . S
C168 C169 1.582 . S
C168 H225 0.962 . S
C168 H226 0.959 . S
C168 H227 0.958 . S
C169 C168 1.582 . S
C169 O172 1.458 . S
C169 H198 0.980 . S
O170 C115 1.426 . S
O170 C116 1.334 . S
O171 C143 1.412 . S
O171 C144 1.393 . S
O172 C134 1.435 . S
O172 C169 1.458 . S
O173 C125 1.468 . S
O173 C126 1.408 . S
H174 C115 0.980 . S
H175 C114 0.959 . S
H176 C114 0.959 . S
H177 C114 0.960 . S
H178 C117 0.929 . S
H179 C121 0.929 . S
H180 C122 0.959 . S
H181 C122 0.961 . S
H182 C122 0.961 . S
H183 C123 0.960 . S
H184 C123 0.960 . S
H185 C123 0.961 . S
H186 C125 0.980 . S
H187 C124 0.961 . S
H188 C124 0.960 . S
H189 C124 0.959 . S
H190 C127 0.930 . S
H191 C131 0.931 . S
H192 C132 0.959 . S
H193 C132 0.961 . S
H194 C132 0.959 . S
H195 C133 0.960 . S
H196 C133 0.960 . S
H197 C133 0.960 . S
H198 C169 0.980 . S
H199 C135 0.930 . S
H200 C139 0.930 . S
H201 C140 0.961 . S
H202 C140 0.960 . S
H203 C140 0.958 . S
H204 C141 0.961 . S
H205 C141 0.960 . S
H206 C141 0.960 . S
H207 C143 0.980 . S
H208 C142 0.961 . S
H209 C142 0.961 . S
H210 C142 0.959 . S
H211 C145 0.932 . S
H212 C149 0.929 . S
H213 C150 0.961 . S
H214 C150 0.959 . S
H215 C150 0.959 1_565 S
H216 C151 0.960 . S
H217 C151 0.962 . S
H218 C151 0.961 . S
H219 C153 0.929 . S
H220 C156 0.930 . S
H221 C157 0.929 . S
H222 C160 0.930 . S
H223 C163 0.929 . S
H224 C164 0.930 . S
H225 C168 0.962 . S
H226 C168 0.959 . S
H227 C168 0.958 . S
C228 C229 1.560 . S
C228 H289 0.959 . S
C228 H290 0.959 . S
C228 H291 0.960 . S
C229 C228 1.560 . S
C229 O284 1.426 . S
C229 H288 0.980 . S
C230 C231 1.407 . S
C230 C235 1.418 . S
C230 O284 1.334 . S
C231 C230 1.407 . S
C231 C232 1.360 . S
C231 H292 0.929 . S
C232 C231 1.360 . S
C232 C233 1.401 . S
C232 C236 1.527 . S
C233 C232 1.401 . S
C233 C234 1.405 . S
C233 C266 1.587 . S
C234 C233 1.405 . S
C234 C235 1.332 . S
C234 C237 1.496 . S
C235 C230 1.418 . S
C235 C234 1.332 . S
C235 H293 0.929 . S
C236 C232 1.527 . S
C236 H294 0.959 . S
C236 H295 0.961 . S
C236 H296 0.961 . S
C237 C234 1.496 . S
C237 H297 0.960 . S
C237 H298 0.960 . S
C237 H299 0.961 . S
C238 C239 1.517 . S
C238 H301 0.961 . S
C238 H302 0.960 . S
C238 H303 0.959 . S
C239 C238 1.517 . S
C239 O287 1.468 . S
C239 H300 0.980 . S
C240 C241 1.349 . S
C240 C245 1.367 . S
C240 O287 1.408 . S
C241 C240 1.349 . S
C241 C242 1.407 . S
C241 H304 0.930 . S
C242 C241 1.407 . S
C242 C243 1.449 . S
C242 C246 1.535 . S
C243 C242 1.449 . S
C243 C244 1.384 . S
C243 C268 1.553 . S
C244 C243 1.384 . S
C244 C245 1.364 . S
C244 C247 1.450 . S
C245 C240 1.367 . S
C245 C244 1.364 . S
C245 H305 0.931 . S
C246 C242 1.535 . S
C246 H306 0.959 . S
C246 H307 0.961 . S
C246 H308 0.959 . S
C247 C244 1.450 . S
C247 H309 0.960 . S
C247 H310 0.960 . S
C247 H311 0.960 . S
C248 C249 1.309 . S
C248 C253 1.304 . S
C248 O286 1.435 . S
C249 C248 1.309 . S
C249 C250 1.476 . S
C249 H313 0.930 . S
C250 C249 1.476 . S
C250 C251 1.400 . S
C250 C254 1.567 . S
C251 C250 1.400 . S
C251 C252 1.373 . S
C251 C273 1.432 . S
C252 C251 1.373 . S
C252 C253 1.339 . S
C252 C255 1.530 . S
C253 C248 1.304 . S
C253 C252 1.339 . S
C253 H314 0.930 . S
C254 C250 1.567 . S
C254 H315 0.961 . S
C254 H316 0.960 . S
C254 H317 0.958 . S
C255 C252 1.530 . S
C255 H318 0.961 . S
C255 H319 0.960 . S
C255 H320 0.960 . S
C256 C257 1.530 . S
C256 H322 0.961 . S
C256 H323 0.961 . S
C256 H324 0.959 . S
C257 C256 1.530 . S
C257 O285 1.412 . S
C257 H321 0.980 . S
C258 C259 1.288 . S
C258 C263 1.377 . S
C258 O285 1.393 . S
C259 C258 1.288 . S
C259 C260 1.369 . S
C259 H325 0.932 . S
C260 C259 1.369 . S
C260 C261 1.398 . S
C260 C264 1.527 . S
C261 C260 1.398 . S
C261 C262 1.380 . S
C261 C275 1.497 . S
C262 C261 1.380 . S
C262 C263 1.383 . S
C262 C265 1.603 . S
C263 C258 1.377 . S
C263 C262 1.383 . S
C263 H326 0.929 . S
C264 C260 1.527 . S
C264 H327 0.961 . S
C264 H328 0.959 . S
C264 H329 0.959 . S
C265 C262 1.603 . S
C265 H330 0.960 . S
C265 H331 0.962 . S
C265 H332 0.961 . S
C266 C233 1.587 . S
C266 C267 1.360 . S
C266 C279 1.412 . S
C267 C266 1.360 . S
C267 C268 1.365 . S
C267 H333 0.929 . S
C268 C243 1.553 . S
C268 C267 1.365 . S
C268 C269 1.404 . S
C269 C268 1.404 . S
C269 C270 1.395 . S
C269 C280 1.451 . S
C270 C269 1.395 . S
C270 C271 1.322 . S
C270 H334 0.930 . S
C271 C270 1.322 . S
C271 C272 1.459 . S
C271 H335 0.929 . S
C272 C271 1.459 . S
C272 C273 1.445 . S
C272 C281 1.395 . S
C273 C251 1.432 . S
C273 C272 1.445 . S
C273 C274 1.370 . S
C274 C273 1.370 . S
C274 C275 1.438 . S
C274 H336 0.930 . S
C275 C261 1.497 . S
C275 C274 1.438 . S
C275 C276 1.360 . S
C276 C275 1.360 . S
C276 C277 1.401 . S
C276 C281 1.446 . S
C277 C276 1.401 . S
C277 C278 1.347 . S
C277 H337 0.929 . S
C278 C277 1.347 . S
C278 C279 1.455 . S
C278 H338 0.930 . S
C279 C266 1.412 . S
C279 C278 1.455 . S
C279 C280 1.331 . S
C280 C269 1.451 . S
C280 C279 1.331 . S
C280 C281 1.497 . S
C281 C272 1.395 . S
C281 C276 1.446 . S
C281 C280 1.497 . S
C282 C283 1.582 . S
C282 H339 0.962 . S
C282 H340 0.959 . S
C282 H341 0.958 . S
C283 C282 1.582 . S
C283 O286 1.458 . S
C283 H312 0.980 . S
O284 C229 1.426 . S
O284 C230 1.334 . S
O285 C257 1.412 . S
O285 C258 1.393 . S
O286 C248 1.435 . S
O286 C283 1.458 . S
O287 C239 1.468 . S
O287 C240 1.408 . S
H288 C229 0.980 . S
H289 C228 0.959 . S
H290 C228 0.959 . S
H291 C228 0.960 . S
H292 C231 0.929 . S
H293 C235 0.929 . S
H294 C236 0.959 . S
H295 C236 0.961 . S
H296 C236 0.961 . S
H297 C237 0.960 . S
H298 C237 0.960 . S
H299 C237 0.961 . S
H300 C239 0.980 . S
H301 C238 0.961 . S
H302 C238 0.960 . S
H303 C238 0.959 . S
H304 C241 0.930 . S
H305 C245 0.931 . S
H306 C246 0.959 . S
H307 C246 0.961 . S
H308 C246 0.959 . S
H309 C247 0.960 . S
H310 C247 0.960 . S
H311 C247 0.960 . S
H312 C283 0.980 . S
H313 C249 0.930 . S
H314 C253 0.930 . S
H315 C254 0.961 . S
H316 C254 0.960 . S
H317 C254 0.958 . S
H318 C255 0.961 . S
H319 C255 0.960 . S
H320 C255 0.960 . S
H321 C257 0.980 . S
H322 C256 0.961 . S
H323 C256 0.961 . S
H324 C256 0.959 . S
H325 C259 0.932 . S
H326 C263 0.929 . S
H327 C264 0.961 . S
H328 C264 0.959 . S
H329 C264 0.959 . S
H330 C265 0.960 . S
H331 C265 0.962 . S
H332 C265 0.961 . S
H333 C267 0.929 . S
H334 C270 0.930 . S
H335 C271 0.929 . S
H336 C274 0.930 . S
H337 C277 0.929 . S
H338 C278 0.930 . S
H339 C282 0.962 . S
H340 C282 0.959 . S
H341 C282 0.958 . S
C342 C343 1.560 . S
C342 H403 0.959 . S
C342 H404 0.959 . S
C342 H405 0.960 . S
C343 C342 1.560 . S
C343 O398 1.426 . S
C343 H402 0.980 . S
C344 C345 1.407 . S
C344 C349 1.418 . S
C344 O398 1.334 . S
C345 C344 1.407 . S
C345 C346 1.360 . S
C345 H406 0.929 . S
C346 C345 1.360 . S
C346 C347 1.401 . S
C346 C350 1.527 . S
C347 C346 1.401 . S
C347 C348 1.405 . S
C347 C380 1.587 . S
C348 C347 1.405 . S
C348 C349 1.332 . S
C348 C351 1.496 . S
C349 C344 1.418 . S
C349 C348 1.332 . S
C349 H407 0.929 . S
C350 C346 1.527 . S
C350 H408 0.959 . S
C350 H409 0.961 . S
C350 H410 0.961 . S
C351 C348 1.496 . S
C351 H411 0.960 . S
C351 H412 0.960 . S
C351 H413 0.961 . S
C352 C353 1.517 . S
C352 H415 0.961 . S
C352 H416 0.960 . S
C352 H417 0.959 . S
C353 C352 1.517 . S
C353 O401 1.468 . S
C353 H414 0.980 . S
C354 C355 1.349 . S
C354 C359 1.367 . S
C354 O401 1.408 . S
C355 C354 1.349 . S
C355 C356 1.407 . S
C355 H418 0.930 . S
C356 C355 1.407 . S
C356 C357 1.449 . S
C356 C360 1.535 . S
C357 C356 1.449 . S
C357 C358 1.384 . S
C357 C382 1.553 1_655 S
C358 C357 1.384 . S
C358 C359 1.364 . S
C358 C361 1.450 . S
C359 C354 1.367 . S
C359 C358 1.364 . S
C359 H419 0.931 . S
C360 C356 1.535 . S
C360 H420 0.959 1_655 S
C360 H421 0.961 1_655 S
C360 H422 0.959 . S
C361 C358 1.450 . S
C361 H423 0.960 . S
C361 H424 0.960 1_655 S
C361 H425 0.960 . S
C362 C363 1.309 . S
C362 C367 1.304 . S
C362 O400 1.435 . S
C363 C362 1.309 . S
C363 C364 1.476 . S
C363 H427 0.930 . S
C364 C363 1.476 . S
C364 C365 1.400 . S
C364 C368 1.567 . S
C365 C364 1.400 . S
C365 C366 1.373 . S
C365 C387 1.432 . S
C366 C365 1.373 . S
C366 C367 1.339 . S
C366 C369 1.530 . S
C367 C362 1.304 . S
C367 C366 1.339 . S
C367 H428 0.930 . S
C368 C364 1.567 . S
C368 H429 0.961 . S
C368 H430 0.960 . S
C368 H431 0.958 . S
C369 C366 1.530 . S
C369 H432 0.961 . S
C369 H433 0.960 . S
C369 H434 0.960 . S
C370 C371 1.530 . S
C370 H436 0.961 . S
C370 H437 0.961 . S
C370 H438 0.959 . S
C371 C370 1.530 . S
C371 O399 1.412 . S
C371 H435 0.980 . S
C372 C373 1.288 . S
C372 C377 1.377 . S
C372 O399 1.393 . S
C373 C372 1.288 . S
C373 C374 1.369 . S
C373 H439 0.932 . S
C374 C373 1.369 . S
C374 C375 1.398 . S
C374 C378 1.527 . S
C375 C374 1.398 . S
C375 C376 1.380 . S
C375 C389 1.497 . S
C376 C375 1.380 . S
C376 C377 1.383 . S
C376 C379 1.603 . S
C377 C372 1.377 . S
C377 C376 1.383 . S
C377 H440 0.929 . S
C378 C374 1.527 . S
C378 H441 0.961 . S
C378 H442 0.959 1_455 S
C378 H443 0.959 . S
C379 C376 1.603 . S
C379 H444 0.960 . S
C379 H445 0.962 . S
C379 H446 0.961 . S
C380 C347 1.587 . S
C380 C381 1.360 . S
C380 C393 1.412 . S
C381 C380 1.360 . S
C381 C382 1.365 . S
C381 H447 0.929 . S
C382 C357 1.553 1_455 S
C382 C381 1.365 . S
C382 C383 1.402 1_455 S
C383 C382 1.402 1_655 S
C383 C384 1.402 . S
C383 C394 1.446 1_655 S
C384 C383 1.402 . S
C384 C385 1.322 . S
C384 H448 0.930 . S
C385 C384 1.322 . S
C385 C386 1.459 . S
C385 H449 0.929 . S
C386 C385 1.459 . S
C386 C387 1.445 . S
C386 C395 1.395 1_655 S
C387 C365 1.432 . S
C387 C386 1.445 . S
C387 C388 1.370 . S
C388 C387 1.370 . S
C388 C389 1.438 1_655 S
C388 H450 0.930 . S
C389 C375 1.497 . S
C389 C388 1.438 1_455 S
C389 C390 1.360 . S
C390 C389 1.360 . S
C390 C391 1.401 . S
C390 C395 1.446 . S
C391 C390 1.401 . S
C391 C392 1.347 . S
C391 H451 0.929 . S
C392 C391 1.347 . S
C392 C393 1.455 . S
C392 H452 0.930 . S
C393 C380 1.412 . S
C393 C392 1.455 . S
C393 C394 1.331 . S
C394 C383 1.446 1_455 S
C394 C393 1.331 . S
C394 C395 1.497 . S
C395 C386 1.395 1_455 S
C395 C390 1.446 . S
C395 C394 1.497 . S
C396 C397 1.582 . S
C396 H453 0.962 . S
C396 H454 0.959 . S
C396 H455 0.958 . S
C397 C396 1.582 . S
C397 O400 1.458 . S
C397 H426 0.980 . S
O398 C343 1.426 . S
O398 C344 1.334 . S
O399 C371 1.412 . S
O399 C372 1.393 . S
O400 C362 1.435 . S
O400 C397 1.458 . S
O401 C353 1.468 . S
O401 C354 1.408 . S
H402 C343 0.980 . S
H403 C342 0.959 . S
H404 C342 0.959 . S
H405 C342 0.960 . S
H406 C345 0.929 . S
H407 C349 0.929 . S
H408 C350 0.959 . S
H409 C350 0.961 . S
H410 C350 0.961 . S
H411 C351 0.960 . S
H412 C351 0.960 . S
H413 C351 0.961 . S
H414 C353 0.980 . S
H415 C352 0.961 . S
H416 C352 0.960 . S
H417 C352 0.959 . S
H418 C355 0.930 . S
H419 C359 0.931 . S
H420 C360 0.959 1_455 S
H421 C360 0.961 1_455 S
H422 C360 0.959 . S
H423 C361 0.960 . S
H424 C361 0.960 1_455 S
H425 C361 0.960 . S
H426 C397 0.980 . S
H427 C363 0.930 . S
H428 C367 0.930 . S
H429 C368 0.961 . S
H430 C368 0.960 . S
H431 C368 0.958 . S
H432 C369 0.961 . S
H433 C369 0.960 . S
H434 C369 0.960 . S
H435 C371 0.980 . S
H436 C370 0.961 . S
H437 C370 0.961 . S
H438 C370 0.959 . S
H439 C373 0.932 . S
H440 C377 0.929 . S
H441 C378 0.961 . S
H442 C378 0.959 1_655 S
H443 C378 0.959 . S
H444 C379 0.960 . S
H445 C379 0.962 . S
H446 C379 0.961 . S
H447 C381 0.929 . S
H448 C384 0.930 . S
H449 C385 0.929 . S
H450 C388 0.930 . S
H451 C391 0.929 . S
H452 C392 0.930 . S
H453 C396 0.962 . S
H454 C396 0.959 . S
H455 C396 0.958 . S
C456 C457 1.560 . S
C456 H517 0.959 . S
C456 H518 0.959 . S
C456 H519 0.960 . S
C457 C456 1.560 . S
C457 O512 1.426 . S
C457 H516 0.980 . S
C458 C459 1.407 . S
C458 C463 1.418 . S
C458 O512 1.334 . S
C459 C458 1.407 . S
C459 C460 1.360 . S
C459 H520 0.929 . S
C460 C459 1.360 . S
C460 C461 1.401 . S
C460 C464 1.527 . S
C461 C460 1.401 . S
C461 C462 1.405 . S
C461 C494 1.587 . S
C462 C461 1.405 . S
C462 C463 1.332 . S
C462 C465 1.496 . S
C463 C458 1.418 . S
C463 C462 1.332 . S
C463 H521 0.929 . S
C464 C460 1.527 . S
C464 H522 0.959 . S
C464 H523 0.961 . S
C464 H524 0.961 . S
C465 C462 1.496 . S
C465 H525 0.960 . S
C465 H526 0.960 . S
C465 H527 0.961 . S
C466 C467 1.517 . S
C466 H529 0.961 . S
C466 H530 0.960 . S
C466 H531 0.959 . S
C467 C466 1.517 . S
C467 O515 1.468 . S
C467 H528 0.980 . S
C468 C469 1.349 . S
C468 C473 1.367 . S
C468 O515 1.408 . S
C469 C468 1.349 . S
C469 C470 1.407 . S
C469 H532 0.930 . S
C470 C469 1.407 . S
C470 C471 1.449 . S
C470 C474 1.535 . S
C471 C470 1.449 . S
C471 C472 1.384 . S
C471 C496 1.553 . S
C472 C471 1.384 . S
C472 C473 1.364 . S
C472 C475 1.450 . S
C473 C468 1.367 . S
C473 C472 1.364 . S
C473 H533 0.931 . S
C474 C470 1.535 . S
C474 H534 0.959 . S
C474 H535 0.961 . S
C474 H536 0.959 . S
C475 C472 1.450 . S
C475 H537 0.960 . S
C475 H538 0.960 . S
C475 H539 0.960 . S
C476 C477 1.309 . S
C476 C481 1.304 . S
C476 O514 1.435 . S
C477 C476 1.309 . S
C477 C478 1.476 . S
C477 H541 0.930 . S
C478 C477 1.476 . S
C478 C479 1.400 . S
C478 C482 1.567 . S
C479 C478 1.400 . S
C479 C480 1.373 . S
C479 C501 1.432 . S
C480 C479 1.373 . S
C480 C481 1.339 . S
C480 C483 1.530 . S
C481 C476 1.304 . S
C481 C480 1.339 . S
C481 H542 0.930 . S
C482 C478 1.567 . S
C482 H543 0.961 . S
C482 H544 0.960 . S
C482 H545 0.958 . S
C483 C480 1.530 . S
C483 H546 0.961 . S
C483 H547 0.960 . S
C483 H548 0.960 . S
C484 C485 1.530 . S
C484 H550 0.961 . S
C484 H551 0.961 . S
C484 H552 0.959 . S
C485 C484 1.530 . S
C485 O513 1.412 . S
C485 H549 0.980 . S
C486 C487 1.288 . S
C486 C491 1.377 . S
C486 O513 1.393 . S
C487 C486 1.288 . S
C487 C488 1.369 . S
C487 H553 0.932 . S
C488 C487 1.369 . S
C488 C489 1.398 . S
C488 C492 1.527 1_565 S
C489 C488 1.398 . S
C489 C490 1.380 . S
C489 C503 1.497 1_565 S
C490 C489 1.380 . S
C490 C491 1.383 . S
C490 C493 1.603 . S
C491 C486 1.377 . S
C491 C490 1.383 . S
C491 H554 0.929 . S
C492 C488 1.527 1_545 S
C492 H555 0.961 1_545 S
C492 H556 0.959 . S
C492 H557 0.959 1_545 S
C493 C490 1.603 . S
C493 H558 0.960 . S
C493 H559 0.962 . S
C493 H560 0.961 . S
C494 C461 1.587 . S
C494 C495 1.360 . S
C494 C507 1.412 . S
C495 C494 1.360 . S
C495 C496 1.365 1_565 S
C495 H561 0.929 . S
C496 C471 1.553 . S
C496 C495 1.365 1_545 S
C496 C497 1.404 . S
C497 C496 1.404 . S
C497 C498 1.395 . S
C497 C508 1.426 1_545 S
C498 C497 1.395 . S
C498 C499 1.322 . S
C498 H562 0.930 . S
C499 C498 1.322 . S
C499 C500 1.459 . S
C499 H563 0.929 . S
C500 C499 1.459 . S
C500 C501 1.445 1_556 S
C500 C509 1.395 . S
C501 C479 1.432 . S
C501 C500 1.445 1_554 S
C501 C502 1.370 . S
C502 C501 1.370 . S
C502 C503 1.438 . S
C502 H564 0.930 . S
C503 C489 1.497 1_545 S
C503 C502 1.438 . S
C503 C504 1.360 1_545 S
C504 C503 1.360 1_565 S
C504 C505 1.401 . S
C504 C509 1.446 1_564 S
C505 C504 1.401 . S
C505 C506 1.347 1_554 S
C505 H565 0.929 . S
C506 C505 1.347 1_556 S
C506 C507 1.455 . S
C506 H566 0.930 . S
C507 C494 1.412 . S
C507 C506 1.455 . S
C507 C508 1.366 . S
C508 C497 1.426 1_565 S
C508 C507 1.366 . S
C508 C509 1.484 1_565 S
C509 C500 1.395 . S
C509 C504 1.446 1_546 S
C509 C508 1.484 1_545 S
C510 C511 1.582 . S
C510 H567 0.962 . S
C510 H568 0.959 . S
C510 H569 0.958 . S
C511 C510 1.582 . S
C511 O514 1.458 . S
C511 H540 0.980 . S
O512 C457 1.426 . S
O512 C458 1.334 . S
O513 C485 1.412 . S
O513 C486 1.393 . S
O514 C476 1.435 . S
O514 C511 1.458 . S
O515 C467 1.468 . S
O515 C468 1.408 . S
H516 C457 0.980 . S
H517 C456 0.959 . S
H518 C456 0.959 . S
H519 C456 0.960 . S
H520 C459 0.929 . S
H521 C463 0.929 . S
H522 C464 0.959 . S
H523 C464 0.961 . S
H524 C464 0.961 . S
H525 C465 0.960 . S
H526 C465 0.960 . S
H527 C465 0.961 . S
H528 C467 0.980 . S
H529 C466 0.961 . S
H530 C466 0.960 . S
H531 C466 0.959 . S
H532 C469 0.930 . S
H533 C473 0.931 . S
H534 C474 0.959 . S
H535 C474 0.961 . S
H536 C474 0.959 . S
H537 C475 0.960 . S
H538 C475 0.960 . S
H539 C475 0.960 . S
H540 C511 0.980 . S
H541 C477 0.930 . S
H542 C481 0.930 . S
H543 C482 0.961 . S
H544 C482 0.960 . S
H545 C482 0.958 . S
H546 C483 0.961 . S
H547 C483 0.960 . S
H548 C483 0.960 . S
H549 C485 0.980 . S
H550 C484 0.961 . S
H551 C484 0.961 . S
H552 C484 0.959 . S
H553 C487 0.932 . S
H554 C491 0.929 . S
H555 C492 0.961 1_565 S
H556 C492 0.959 . S
H557 C492 0.959 1_565 S
H558 C493 0.960 . S
H559 C493 0.962 . S
H560 C493 0.961 . S
H561 C495 0.929 . S
H562 C498 0.930 . S
H563 C499 0.929 . S
H564 C502 0.930 . S
H565 C505 0.929 . S
H566 C506 0.930 . S
H567 C510 0.962 . S
H568 C510 0.959 . S
H569 C510 0.958 . S
C570 C571 1.560 . S
C570 H631 0.959 . S
C570 H632 0.959 . S
C570 H633 0.960 . S
C571 C570 1.560 . S
C571 O626 1.426 . S
C571 H630 0.980 . S
C572 C573 1.407 . S
C572 C577 1.418 . S
C572 O626 1.334 . S
C573 C572 1.407 . S
C573 C574 1.360 . S
C573 H634 0.929 . S
C574 C573 1.360 . S
C574 C575 1.401 . S
C574 C578 1.527 . S
C575 C574 1.401 . S
C575 C576 1.405 . S
C575 C608 1.587 . S
C576 C575 1.405 . S
C576 C577 1.332 . S
C576 C579 1.496 . S
C577 C572 1.418 . S
C577 C576 1.332 . S
C577 H635 0.929 . S
C578 C574 1.527 . S
C578 H636 0.959 . S
C578 H637 0.961 . S
C578 H638 0.961 . S
C579 C576 1.496 . S
C579 H639 0.960 . S
C579 H640 0.960 . S
C579 H641 0.961 . S
C580 C581 1.517 . S
C580 H643 0.961 . S
C580 H644 0.960 . S
C580 H645 0.959 . S
C581 C580 1.517 . S
C581 O629 1.468 . S
C581 H642 0.980 . S
C582 C583 1.349 . S
C582 C587 1.367 . S
C582 O629 1.408 . S
C583 C582 1.349 . S
C583 C584 1.407 . S
C583 H646 0.930 . S
C584 C583 1.407 . S
C584 C585 1.449 . S
C584 C588 1.535 . S
C585 C584 1.449 . S
C585 C586 1.384 . S
C585 C610 1.553 . S
C586 C585 1.384 . S
C586 C587 1.364 . S
C586 C589 1.450 . S
C587 C582 1.367 . S
C587 C586 1.364 . S
C587 H647 0.931 . S
C588 C584 1.535 . S
C588 H648 0.959 . S
C588 H649 0.961 . S
C588 H650 0.959 . S
C589 C586 1.450 . S
C589 H651 0.960 . S
C589 H652 0.960 . S
C589 H653 0.960 . S
C590 C591 1.309 . S
C590 C595 1.304 . S
C590 O628 1.435 . S
C591 C590 1.309 . S
C591 C592 1.476 . S
C591 H655 0.930 . S
C592 C591 1.476 . S
C592 C593 1.400 . S
C592 C596 1.567 . S
C593 C592 1.400 . S
C593 C594 1.373 . S
C593 C615 1.432 . S
C594 C593 1.373 . S
C594 C595 1.339 . S
C594 C597 1.530 . S
C595 C590 1.304 . S
C595 C594 1.339 . S
C595 H656 0.930 . S
C596 C592 1.567 . S
C596 H657 0.961 . S
C596 H658 0.960 . S
C596 H659 0.958 . S
C597 C594 1.530 . S
C597 H660 0.961 . S
C597 H661 0.960 . S
C597 H662 0.960 . S
C598 C599 1.530 . S
C598 H664 0.961 . S
C598 H665 0.961 . S
C598 H666 0.959 . S
C599 C598 1.530 . S
C599 O627 1.412 . S
C599 H663 0.980 . S
C600 C601 1.288 . S
C600 C605 1.377 . S
C600 O627 1.393 . S
C601 C600 1.288 . S
C601 C602 1.369 . S
C601 H667 0.932 . S
C602 C601 1.369 . S
C602 C603 1.398 . S
C602 C606 1.527 . S
C603 C602 1.398 . S
C603 C604 1.380 . S
C603 C617 1.497 . S
C604 C603 1.380 . S
C604 C605 1.383 . S
C604 C607 1.603 . S
C605 C600 1.377 . S
C605 C604 1.383 . S
C605 H668 0.929 . S
C606 C602 1.527 . S
C606 H669 0.961 . S
C606 H670 0.959 . S
C606 H671 0.959 . S
C607 C604 1.603 . S
C607 H672 0.960 . S
C607 H673 0.962 . S
C607 H674 0.961 . S
C608 C575 1.587 . S
C608 C609 1.360 . S
C608 C621 1.412 . S
C609 C608 1.360 . S
C609 C610 1.365 . S
C609 H675 0.929 . S
C610 C585 1.553 . S
C610 C609 1.365 . S
C610 C611 1.404 . S
C611 C610 1.404 . S
C611 C612 1.395 . S
C611 C622 1.451 . S
C612 C611 1.395 . S
C612 C613 1.322 . S
C612 H676 0.930 . S
C613 C612 1.322 . S
C613 C614 1.459 . S
C613 H677 0.929 . S
C614 C613 1.459 . S
C614 C615 1.445 . S
C614 C623 1.395 . S
C615 C593 1.432 . S
C615 C614 1.445 . S
C615 C616 1.370 . S
C616 C615 1.370 . S
C616 C617 1.438 . S
C616 H678 0.930 . S
C617 C603 1.497 . S
C617 C616 1.438 . S
C617 C618 1.360 . S
C618 C617 1.360 . S
C618 C619 1.401 . S
C618 C623 1.446 . S
C619 C618 1.401 . S
C619 C620 1.347 . S
C619 H679 0.929 . S
C620 C619 1.347 . S
C620 C621 1.455 . S
C620 H680 0.930 . S
C621 C608 1.412 . S
C621 C620 1.455 . S
C621 C622 1.331 . S
C622 C611 1.451 . S
C622 C621 1.331 . S
C622 C623 1.497 . S
C623 C614 1.395 . S
C623 C618 1.446 . S
C623 C622 1.497 . S
C624 C625 1.582 . S
C624 H681 0.962 . S
C624 H682 0.959 . S
C624 H683 0.958 . S
C625 C624 1.582 . S
C625 O628 1.458 . S
C625 H654 0.980 . S
O626 C571 1.426 . S
O626 C572 1.334 . S
O627 C599 1.412 . S
O627 C600 1.393 . S
O628 C590 1.435 . S
O628 C625 1.458 . S
O629 C581 1.468 . S
O629 C582 1.408 . S
H630 C571 0.980 . S
H631 C570 0.959 . S
H632 C570 0.959 . S
H633 C570 0.960 . S
H634 C573 0.929 . S
H635 C577 0.929 . S
H636 C578 0.959 . S
H637 C578 0.961 . S
H638 C578 0.961 . S
H639 C579 0.960 . S
H640 C579 0.960 . S
H641 C579 0.961 . S
H642 C581 0.980 . S
H643 C580 0.961 . S
H644 C580 0.960 . S
H645 C580 0.959 . S
H646 C583 0.930 . S
H647 C587 0.931 . S
H648 C588 0.959 . S
H649 C588 0.961 . S
H650 C588 0.959 . S
H651 C589 0.960 . S
H652 C589 0.960 . S
H653 C589 0.960 . S
H654 C625 0.980 . S
H655 C591 0.930 . S
H656 C595 0.930 . S
H657 C596 0.961 . S
H658 C596 0.960 . S
H659 C596 0.958 . S
H660 C597 0.961 . S
H661 C597 0.960 . S
H662 C597 0.960 . S
H663 C599 0.980 . S
H664 C598 0.961 . S
H665 C598 0.961 . S
H666 C598 0.959 . S
H667 C601 0.932 . S
H668 C605 0.929 . S
H669 C606 0.961 . S
H670 C606 0.959 . S
H671 C606 0.959 . S
H672 C607 0.960 . S
H673 C607 0.962 . S
H674 C607 0.961 . S
H675 C609 0.929 . S
H676 C612 0.930 . S
H677 C613 0.929 . S
H678 C616 0.930 . S
H679 C619 0.929 . S
H680 C620 0.930 . S
H681 C624 0.962 . S
H682 C624 0.959 . S
H683 C624 0.958 . S
C684 O685 1.306 . S
C684 O687 1.160 . S
O685 C684 1.306 . S
O685 Cd686 2.228 . S
Cd686 O685 2.228 . S
Cd686 O690 2.273 . S
Cd686 O694 2.277 . S
O687 C684 1.160 . S
O687 Cd688 2.203 . S
Cd688 O687 2.203 . S
Cd688 O690 2.411 . S
Cd688 O691 2.333 . S
Cd688 O692 2.352 . S
Cd688 O696 2.277 . S
Cd688 O697 2.356 . S
C689 O694 1.209 . S
C689 O696 1.226 . S
O690 Cd686 2.273 . S
O690 Cd688 2.411 . S
O690 C693 1.320 . S
O691 Cd688 2.333 . S
O691 C693 1.214 . S
O692 Cd688 2.352 . S
O692 C695 1.258 . S
C693 O690 1.320 . S
C693 O691 1.214 . S
O694 Cd686 2.277 . S
O694 C689 1.209 . S
C695 O692 1.258 . S
C695 O697 1.282 . S
O696 Cd688 2.277 . S
O696 C689 1.226 . S
O697 Cd688 2.356 . S
O697 C695 1.282 . S
C698 O699 1.306 . S
C698 O701 1.160 . S
O699 C698 1.306 . S
O699 Cd700 2.228 . S
Cd700 O699 2.228 . S
Cd700 O704 2.273 . S
Cd700 O708 2.277 . S
O701 C698 1.160 . S
O701 Cd702 2.203 . S
Cd702 O701 2.203 . S
Cd702 O704 2.411 . S
Cd702 O705 2.333 . S
Cd702 O706 2.352 . S
Cd702 O710 2.277 . S
Cd702 O711 2.356 . S
C703 O708 1.209 . S
C703 O710 1.226 . S
O704 Cd700 2.273 . S
O704 Cd702 2.411 . S
O704 C707 1.320 . S
O705 Cd702 2.333 . S
O705 C707 1.214 . S
O706 Cd702 2.352 . S
O706 C709 1.258 . S
C707 O704 1.320 . S
C707 O705 1.214 . S
O708 Cd700 2.277 . S
O708 C703 1.209 . S
C709 O706 1.258 . S
C709 O711 1.282 . S
O710 Cd702 2.277 . S
O710 C703 1.226 . S
O711 Cd702 2.356 . S
O711 C709 1.282 . S
C712 O713 1.306 . S
C712 O715 1.160 . S
O713 C712 1.306 . S
O713 Cd714 2.228 . S
Cd714 O713 2.228 . S
Cd714 O718 2.273 . S
Cd714 O722 2.277 . S
O715 C712 1.160 . S
O715 Cd716 2.203 . S
Cd716 O715 2.203 . S
Cd716 O718 2.411 . S
Cd716 O719 2.333 . S
Cd716 O720 2.352 . S
Cd716 O724 2.277 . S
Cd716 O725 2.356 . S
C717 O722 1.209 . S
C717 O724 1.226 . S
O718 Cd714 2.273 . S
O718 Cd716 2.411 . S
O718 C721 1.320 . S
O719 Cd716 2.333 . S
O719 C721 1.214 . S
O720 Cd716 2.352 . S
O720 C723 1.258 . S
C721 O718 1.320 . S
C721 O719 1.214 . S
O722 Cd714 2.277 . S
O722 C717 1.209 . S
C723 O720 1.258 . S
C723 O725 1.282 . S
O724 Cd716 2.277 . S
O724 C717 1.226 . S
O725 Cd716 2.356 . S
O725 C723 1.282 . S
C726 O727 1.306 . S
C726 O729 1.160 . S
O727 C726 1.306 . S
O727 Cd728 2.228 . S
Cd728 O727 2.228 . S
Cd728 O732 2.273 . S
Cd728 O736 2.277 . S
O729 C726 1.160 . S
O729 Cd730 2.203 . S
Cd730 O729 2.203 . S
Cd730 O732 2.411 . S
Cd730 O733 2.333 . S
Cd730 O734 2.352 . S
Cd730 O738 2.277 . S
Cd730 O739 2.356 . S
C731 O736 1.209 . S
C731 O738 1.226 . S
O732 Cd728 2.273 . S
O732 Cd730 2.411 . S
O732 C735 1.320 . S
O733 Cd730 2.333 . S
O733 C735 1.214 . S
O734 Cd730 2.352 . S
O734 C737 1.258 . S
C735 O732 1.320 . S
C735 O733 1.214 . S
O736 Cd728 2.277 . S
O736 C731 1.209 . S
C737 O734 1.258 . S
C737 O739 1.282 . S
O738 Cd730 2.277 . S
O738 C731 1.226 . S
O739 Cd730 2.356 . S
O739 C737 1.282 . S
C740 O741 1.306 . S
C740 O743 1.160 . S
O741 C740 1.306 . S
O741 Cd742 2.228 . S
Cd742 O741 2.228 . S
Cd742 O746 2.273 . S
Cd742 O750 2.277 . S
O743 C740 1.160 . S
O743 Cd744 2.203 . S
Cd744 O743 2.203 . S
Cd744 O746 2.411 . S
Cd744 O747 2.333 . S
Cd744 O748 2.352 . S
Cd744 O752 2.277 . S
Cd744 O753 2.356 . S
C745 O750 1.209 . S
C745 O752 1.226 . S
O746 Cd742 2.273 . S
O746 Cd744 2.411 . S
O746 C749 1.320 . S
O747 Cd744 2.333 . S
O747 C749 1.214 . S
O748 Cd744 2.352 . S
O748 C751 1.258 . S
C749 O746 1.320 . S
C749 O747 1.214 . S
O750 Cd742 2.277 . S
O750 C745 1.209 . S
C751 O748 1.258 . S
C751 O753 1.282 . S
O752 Cd744 2.277 . S
O752 C745 1.226 . S
O753 Cd744 2.356 . S
O753 C751 1.282 . S
C754 O755 1.306 . S
C754 O757 1.160 . S
O755 C754 1.306 . S
O755 Cd756 2.228 . S
Cd756 O755 2.228 . S
Cd756 O760 2.273 . S
Cd756 O764 2.277 . S
O757 C754 1.160 . S
O757 Cd758 2.203 . S
Cd758 O757 2.203 . S
Cd758 O760 2.411 . S
Cd758 O761 2.333 . S
Cd758 O762 2.352 . S
Cd758 O766 2.277 . S
Cd758 O767 2.356 . S
C759 O764 1.209 . S
C759 O766 1.226 . S
O760 Cd756 2.273 . S
O760 Cd758 2.411 . S
O760 C763 1.320 . S
O761 Cd758 2.333 . S
O761 C763 1.214 . S
O762 Cd758 2.352 . S
O762 C765 1.258 . S
C763 O760 1.320 . S
C763 O761 1.214 . S
O764 Cd756 2.277 . S
O764 C759 1.209 . S
C765 O762 1.258 . S
C765 O767 1.282 . S
O766 Cd758 2.277 . S
O766 C759 1.226 . S
O767 Cd758 2.356 . S
O767 C765 1.282 . S
H768 C774 0.930 . S
H769 C778 0.930 . S
H770 C783 0.929 . S
H771 C781 0.929 . S
H772 C776 0.929 . S
H773 C782 0.929 . S
C774 H768 0.930 . S
C774 C775 1.367 . S
C774 C782 1.378 . S
C775 C774 1.367 . S
C775 C783 1.433 . S
C776 H772 0.929 . S
C776 C778 1.378 . S
C776 C780 1.350 . S
C777 C780 1.463 . S
C777 C782 1.350 . S
C777 N785 1.427 . S
C778 H769 0.930 . S
C778 C776 1.378 . S
C778 C779 1.367 . S
C779 C778 1.367 . S
C779 C781 1.433 . S
C780 C776 1.350 . S
C780 C777 1.463 . S
C780 N784 1.427 . S
C781 H771 0.929 . S
C781 C779 1.433 . S
C781 N784 1.384 . S
C782 H773 0.929 . S
C782 C774 1.378 . S
C782 C777 1.350 . S
C783 H770 0.929 . S
C783 C775 1.433 . S
C783 N785 1.384 . S
N784 C780 1.427 . S
N784 C781 1.384 . S
N785 C777 1.427 . S
N785 C783 1.384 . S
H786 C792 0.930 . S
H787 C796 0.930 . S
H788 C801 0.929 . S
H789 C799 0.929 . S
H790 C794 0.929 . S
H791 C800 0.929 . S
C792 H786 0.930 . S
C792 C793 1.367 . S
C792 C800 1.378 . S
C793 C792 1.367 . S
C793 C801 1.433 . S
C794 H790 0.929 . S
C794 C796 1.378 . S
C794 C798 1.350 . S
C795 C798 1.463 . S
C795 C800 1.350 . S
C795 N803 1.427 . S
C796 H787 0.930 . S
C796 C794 1.378 . S
C796 C797 1.367 . S
C797 C796 1.367 . S
C797 C799 1.433 . S
C798 C794 1.350 . S
C798 C795 1.463 . S
C798 N802 1.427 . S
C799 H789 0.929 . S
C799 C797 1.433 . S
C799 N802 1.384 . S
C800 H791 0.929 . S
C800 C792 1.378 . S
C800 C795 1.350 . S
C801 H788 0.929 . S
C801 C793 1.433 . S
C801 N803 1.384 . S
N802 C798 1.427 . S
N802 C799 1.384 . S
N803 C795 1.427 . S
N803 C801 1.384 . S
H804 C810 0.930 . S
H805 C814 0.930 . S
H806 C819 0.929 . S
H807 C817 0.929 . S
H808 C812 0.929 . S
H809 C818 0.929 . S
C810 H804 0.930 . S
C810 C811 1.367 . S
C810 C818 1.378 . S
C811 C810 1.367 . S
C811 C819 1.433 . S
C812 H808 0.929 . S
C812 C814 1.378 . S
C812 C816 1.350 . S
C813 C816 1.463 . S
C813 C818 1.350 . S
C813 N821 1.427 . S
C814 H805 0.930 . S
C814 C812 1.378 . S
C814 C815 1.367 . S
C815 C814 1.367 . S
C815 C817 1.433 . S
C816 C812 1.350 . S
C816 C813 1.463 . S
C816 N820 1.427 . S
C817 H807 0.929 . S
C817 C815 1.433 . S
C817 N820 1.384 . S
C818 H809 0.929 . S
C818 C810 1.378 . S
C818 C813 1.350 . S
C819 H806 0.929 . S
C819 C811 1.433 . S
C819 N821 1.384 . S
N820 C816 1.427 . S
N820 C817 1.384 . S
N821 C813 1.427 . S
N821 C819 1.384 . S
H822 C828 0.930 . S
H823 C832 0.930 . S
H824 C837 0.929 . S
H825 C835 0.929 . S
H826 C830 0.929 . S
H827 C836 0.929 . S
C828 H822 0.930 . S
C828 C829 1.367 . S
C828 C836 1.378 . S
C829 C828 1.367 . S
C829 C837 1.433 . S
C830 H826 0.929 . S
C830 C832 1.378 . S
C830 C834 1.350 . S
C831 C834 1.463 . S
C831 C836 1.350 . S
C831 N839 1.427 . S
C832 H823 0.930 . S
C832 C830 1.378 . S
C832 C833 1.367 . S
C833 C832 1.367 . S
C833 C835 1.433 . S
C834 C830 1.350 . S
C834 C831 1.463 . S
C834 N838 1.427 . S
C835 H825 0.929 . S
C835 C833 1.433 . S
C835 N838 1.384 . S
C836 H827 0.929 . S
C836 C828 1.378 . S
C836 C831 1.350 . S
C837 H824 0.929 . S
C837 C829 1.433 . S
C837 N839 1.384 . S
N838 C834 1.427 . S
N838 C835 1.384 . S
N839 C831 1.427 . S
N839 C837 1.384 . S
H840 C846 0.930 . S
H841 C850 0.930 . S
H842 C855 0.929 . S
H843 C853 0.929 . S
H844 C848 0.929 . S
H845 C854 0.929 . S
C846 H840 0.930 . S
C846 C847 1.367 . S
C846 C854 1.378 . S
C847 C846 1.367 . S
C847 C855 1.433 . S
C848 H844 0.929 . S
C848 C850 1.378 . S
C848 C852 1.350 . S
C849 C852 1.463 . S
C849 C854 1.350 . S
C849 N857 1.427 . S
C850 H841 0.930 . S
C850 C848 1.378 . S
C850 C851 1.367 . S
C851 C850 1.367 . S
C851 C853 1.433 . S
C852 C848 1.350 . S
C852 C849 1.463 . S
C852 N856 1.427 . S
C853 H843 0.929 . S
C853 C851 1.433 . S
C853 N856 1.384 . S
C854 H845 0.929 . S
C854 C846 1.378 . S
C854 C849 1.350 . S
C855 H842 0.929 . S
C855 C847 1.433 . S
C855 N857 1.384 . S
N856 C852 1.427 . S
N856 C853 1.384 . S
N857 C849 1.427 . S
N857 C855 1.384 . S
H858 C864 0.930 . S
H859 C868 0.930 . S
H860 C873 0.929 . S
H861 C871 0.929 . S
H862 C866 0.929 . S
H863 C872 0.929 . S
C864 H858 0.930 . S
C864 C865 1.367 . S
C864 C872 1.378 . S
C865 C864 1.367 . S
C865 C873 1.433 . S
C866 H862 0.929 . S
C866 C868 1.378 . S
C866 C870 1.350 . S
C867 C870 1.463 . S
C867 C872 1.350 . S
C867 N875 1.427 . S
C868 H859 0.930 . S
C868 C866 1.378 . S
C868 C869 1.367 . S
C869 C868 1.367 . S
C869 C871 1.433 . S
C870 C866 1.350 . S
C870 C867 1.463 . S
C870 N874 1.427 . S
C871 H861 0.929 . S
C871 C869 1.433 . S
C871 N874 1.384 . S
C872 H863 0.929 . S
C872 C864 1.378 . S
C872 C867 1.350 . S
C873 H860 0.929 . S
C873 C865 1.433 . S
C873 N875 1.384 . S
N874 C870 1.427 . S
N874 C871 1.384 . S
N875 C867 1.427 . S
N875 C873 1.384 . S
H876 C882 0.930 . S
H877 C886 0.930 . S
H878 C891 0.929 . S
H879 C889 0.929 . S
H880 C884 0.929 . S
H881 C890 0.929 . S
C882 H876 0.930 . S
C882 C883 1.367 . S
C882 C890 1.378 . S
C883 C882 1.367 . S
C883 C891 1.433 . S
C884 H880 0.929 . S
C884 C886 1.378 . S
C884 C888 1.350 . S
C885 C888 1.463 . S
C885 C890 1.350 . S
C885 N893 1.427 . S
C886 H877 0.930 . S
C886 C884 1.378 . S
C886 C887 1.367 . S
C887 C886 1.367 . S
C887 C889 1.433 . S
C888 C884 1.350 . S
C888 C885 1.463 . S
C888 N892 1.427 . S
C889 H879 0.929 . S
C889 C887 1.433 . S
C889 N892 1.384 . S
C890 H881 0.929 . S
C890 C882 1.378 . S
C890 C885 1.350 . S
C891 H878 0.929 . S
C891 C883 1.433 . S
C891 N893 1.384 . S
N892 C888 1.427 . S
N892 C889 1.384 . S
N893 C885 1.427 . S
N893 C891 1.384 . S
H894 C900 0.930 . S
H895 C904 0.930 . S
H896 C909 0.929 . S
H897 C907 0.929 . S
H898 C902 0.929 . S
H899 C908 0.929 . S
C900 H894 0.930 . S
C900 C901 1.367 . S
C900 C908 1.378 . S
C901 C900 1.367 . S
C901 C909 1.433 . S
C902 H898 0.929 . S
C902 C904 1.378 . S
C902 C906 1.350 . S
C903 C906 1.463 . S
C903 C908 1.350 . S
C903 N911 1.427 . S
C904 H895 0.930 . S
C904 C902 1.378 . S
C904 C905 1.367 . S
C905 C904 1.367 . S
C905 C907 1.433 . S
C906 C902 1.350 . S
C906 C903 1.463 . S
C906 N910 1.427 . S
C907 H897 0.929 . S
C907 C905 1.433 . S
C907 N910 1.384 . S
C908 H899 0.929 . S
C908 C900 1.378 . S
C908 C903 1.350 . S
C909 H896 0.929 . S
C909 C901 1.433 . S
C909 N911 1.384 . S
N910 C906 1.427 . S
N910 C907 1.384 . S
N911 C903 1.427 . S
N911 C909 1.384 . S
H912 C918 0.930 . S
H913 C922 0.930 . S
H914 C927 0.929 . S
H915 C925 0.929 . S
H916 C920 0.929 . S
H917 C926 0.929 . S
C918 H912 0.930 . S
C918 C919 1.367 . S
C918 C926 1.378 . S
C919 C918 1.367 . S
C919 C927 1.433 . S
C920 H916 0.929 . S
C920 C922 1.378 . S
C920 C924 1.350 . S
C921 C924 1.463 . S
C921 C926 1.350 . S
C921 N929 1.427 . S
C922 H913 0.930 . S
C922 C920 1.378 . S
C922 C923 1.367 . S
C923 C922 1.367 . S
C923 C925 1.433 . S
C924 C920 1.350 . S
C924 C921 1.463 . S
C924 N928 1.427 . S
C925 H915 0.929 . S
C925 C923 1.433 . S
C925 N928 1.384 . S
C926 H917 0.929 . S
C926 C918 1.378 . S
C926 C921 1.350 . S
C927 H914 0.929 . S
C927 C919 1.433 . S
C927 N929 1.384 . S
N928 C924 1.427 . S
N928 C925 1.384 . S
N929 C921 1.427 . S
N929 C927 1.384 . S
H930 C936 0.930 . S
H931 C940 0.930 . S
H932 C945 0.929 . S
H933 C943 0.929 . S
H934 C938 0.929 . S
H935 C944 0.929 . S
C936 H930 0.930 . S
C936 C937 1.367 . S
C936 C944 1.378 . S
C937 C936 1.367 . S
C937 C945 1.433 . S
C938 H934 0.929 . S
C938 C940 1.378 . S
C938 C942 1.350 . S
C939 C942 1.463 . S
C939 C944 1.350 . S
C939 N947 1.427 . S
C940 H931 0.930 . S
C940 C938 1.378 . S
C940 C941 1.367 . S
C941 C940 1.367 . S
C941 C943 1.433 . S
C942 C938 1.350 . S
C942 C939 1.463 . S
C942 N946 1.427 . S
C943 H933 0.929 . S
C943 C941 1.433 . S
C943 N946 1.384 . S
C944 H935 0.929 . S
C944 C936 1.378 . S
C944 C939 1.350 . S
C945 H932 0.929 . S
C945 C937 1.433 . S
C945 N947 1.384 . S
N946 C942 1.427 . S
N946 C943 1.384 . S
N947 C939 1.427 . S
N947 C945 1.384 . S
H948 C954 0.930 . S
H949 C958 0.930 . S
H950 C963 0.929 . S
H951 C961 0.929 . S
H952 C956 0.929 . S
H953 C962 0.929 . S
C954 H948 0.930 . S
C954 C955 1.367 . S
C954 C962 1.378 . S
C955 C954 1.367 . S
C955 C963 1.433 . S
C956 H952 0.929 . S
C956 C958 1.378 . S
C956 C960 1.350 . S
C957 C960 1.463 . S
C957 C962 1.350 . S
C957 N965 1.427 . S
C958 H949 0.930 . S
C958 C956 1.378 . S
C958 C959 1.367 . S
C959 C958 1.367 . S
C959 C961 1.433 . S
C960 C956 1.350 . S
C960 C957 1.463 . S
C960 N964 1.427 . S
C961 H951 0.929 . S
C961 C959 1.433 . S
C961 N964 1.384 . S
C962 H953 0.929 . S
C962 C954 1.378 . S
C962 C957 1.350 . S
C963 H950 0.929 . S
C963 C955 1.433 . S
C963 N965 1.384 . S
N964 C960 1.427 . S
N964 C961 1.384 . S
N965 C957 1.427 . S
N965 C963 1.384 . S
H966 C972 0.930 . S
H967 C976 0.930 . S
H968 C981 0.929 . S
H969 C979 0.929 . S
H970 C974 0.929 . S
H971 C980 0.929 . S
C972 H966 0.930 . S
C972 C973 1.367 . S
C972 C980 1.378 . S
C973 C972 1.367 . S
C973 C981 1.433 . S
C974 H970 0.929 . S
C974 C976 1.378 . S
C974 C978 1.350 . S
C975 C978 1.463 . S
C975 C980 1.350 . S
C975 N983 1.427 . S
C976 H967 0.930 . S
C976 C974 1.378 . S
C976 C977 1.367 . S
C977 C976 1.367 . S
C977 C979 1.433 . S
C978 C974 1.350 . S
C978 C975 1.463 . S
C978 N982 1.427 . S
C979 H969 0.929 . S
C979 C977 1.433 . S
C979 N982 1.384 . S
C980 H971 0.929 . S
C980 C972 1.378 . S
C980 C975 1.350 . S
C981 H968 0.929 . S
C981 C973 1.433 . S
C981 N983 1.384 . S
N982 C978 1.427 . S
N982 C979 1.384 . S
N983 C975 1.427 . S
N983 C981 1.384 . S
H984 C990 0.930 . S
H985 C994 0.930 . S
H986 C999 0.929 . S
H987 C997 0.929 . S
H988 C992 0.929 . S
H989 C998 0.929 . S
C990 H984 0.930 . S
C990 C991 1.367 . S
C990 C998 1.378 . S
C991 C990 1.367 . S
C991 C999 1.433 . S
C992 H988 0.929 . S
C992 C994 1.378 . S
C992 C996 1.350 . S
C993 C996 1.463 . S
C993 C998 1.350 . S
C993 N1001 1.427 . S
C994 H985 0.930 . S
C994 C992 1.378 . S
C994 C995 1.367 . S
C995 C994 1.367 . S
C995 C997 1.433 . S
C996 C992 1.350 . S
C996 C993 1.463 . S
C996 N1000 1.427 . S
C997 H987 0.929 . S
C997 C995 1.433 . S
C997 N1000 1.384 . S
C998 H989 0.929 . S
C998 C990 1.378 . S
C998 C993 1.350 . S
C999 H986 0.929 . S
C999 C991 1.433 . S
C999 N1001 1.384 . S
N1000 C996 1.427 . S
N1000 C997 1.384 . S
N1001 C993 1.427 . S
N1001 C999 1.384 . S
H1002 C1008 0.930 . S
H1003 C1012 0.930 . S
H1004 C1017 0.929 . S
H1005 C1015 0.929 . S
H1006 C1010 0.929 . S
H1007 C1016 0.929 . S
C1008 H1002 0.930 . S
C1008 C1009 1.367 . S
C1008 C1016 1.378 . S
C1009 C1008 1.367 . S
C1009 C1017 1.433 . S
C1010 H1006 0.929 . S
C1010 C1012 1.378 . S
C1010 C1014 1.350 . S
C1011 C1014 1.463 . S
C1011 C1016 1.350 . S
C1011 N1019 1.427 . S
C1012 H1003 0.930 . S
C1012 C1010 1.378 . S
C1012 C1013 1.367 . S
C1013 C1012 1.367 . S
C1013 C1015 1.433 . S
C1014 C1010 1.350 . S
C1014 C1011 1.463 . S
C1014 N1018 1.427 . S
C1015 H1005 0.929 . S
C1015 C1013 1.433 . S
C1015 N1018 1.384 . S
C1016 H1007 0.929 . S
C1016 C1008 1.378 . S
C1016 C1011 1.350 . S
C1017 H1004 0.929 . S
C1017 C1009 1.433 . S
C1017 N1019 1.384 . S
N1018 C1014 1.427 . S
N1018 C1015 1.384 . S
N1019 C1011 1.427 . S
N1019 C1017 1.384 . S
H1020 C1026 0.930 . S
H1021 C1030 0.930 . S
H1022 C1035 0.929 . S
H1023 C1033 0.929 . S
H1024 C1028 0.929 . S
H1025 C1034 0.929 . S
C1026 H1020 0.930 . S
C1026 C1027 1.367 . S
C1026 C1034 1.378 . S
C1027 C1026 1.367 . S
C1027 C1035 1.433 . S
C1028 H1024 0.929 . S
C1028 C1030 1.378 . S
C1028 C1032 1.350 . S
C1029 C1032 1.463 . S
C1029 C1034 1.350 . S
C1029 N1037 1.427 . S
C1030 H1021 0.930 . S
C1030 C1028 1.378 . S
C1030 C1031 1.367 . S
C1031 C1030 1.367 . S
C1031 C1033 1.433 . S
C1032 C1028 1.350 . S
C1032 C1029 1.463 . S
C1032 N1036 1.427 . S
C1033 H1023 0.929 . S
C1033 C1031 1.433 . S
C1033 N1036 1.384 . S
C1034 H1025 0.929 . S
C1034 C1026 1.378 . S
C1034 C1029 1.350 . S
C1035 H1022 0.929 . S
C1035 C1027 1.433 . S
C1035 N1037 1.384 . S
N1036 C1032 1.427 . S
N1036 C1033 1.384 . S
N1037 C1029 1.427 . S
N1037 C1035 1.384 . S
H1038 C1044 0.930 . S
H1039 C1048 0.930 . S
H1040 C1053 0.929 . S
H1041 C1051 0.929 . S
H1042 C1046 0.929 1_556 S
H1043 C1052 0.929 . S
C1044 H1038 0.930 . S
C1044 C1045 1.367 . S
C1044 C1052 1.378 . S
C1045 C1044 1.367 . S
C1045 C1053 1.433 . S
C1046 H1042 0.929 1_554 S
C1046 C1048 1.378 . S
C1046 C1050 1.350 1_554 S
C1047 C1050 1.463 . S
C1047 C1052 1.350 . S
C1047 N1055 1.427 . S
C1048 H1039 0.930 . S
C1048 C1046 1.378 . S
C1048 C1049 1.367 . S
C1049 C1048 1.367 . S
C1049 C1051 1.433 . S
C1050 C1046 1.350 1_556 S
C1050 C1047 1.463 . S
C1050 N1054 1.427 1_556 S
C1051 H1041 0.929 . S
C1051 C1049 1.433 . S
C1051 N1054 1.384 . S
C1052 H1043 0.929 . S
C1052 C1044 1.378 . S
C1052 C1047 1.350 . S
C1053 H1040 0.929 . S
C1053 C1045 1.433 . S
C1053 N1055 1.384 . S
N1054 C1050 1.427 1_554 S
N1054 C1051 1.384 . S
N1055 C1047 1.427 . S
N1055 C1053 1.384 . S
H1056 C1062 0.930 . S
H1057 C1066 0.930 . S
H1058 C1071 0.929 . S
H1059 C1069 0.929 . S
H1060 C1064 0.929 . S
H1061 C1070 0.929 . S
C1062 H1056 0.930 . S
C1062 C1063 1.367 . S
C1062 C1070 1.378 . S
C1063 C1062 1.367 . S
C1063 C1071 1.433 . S
C1064 H1060 0.929 . S
C1064 C1066 1.378 . S
C1064 C1068 1.350 . S
C1065 C1068 1.463 . S
C1065 C1070 1.350 . S
C1065 N1073 1.427 . S
C1066 H1057 0.930 . S
C1066 C1064 1.378 . S
C1066 C1067 1.367 . S
C1067 C1066 1.367 . S
C1067 C1069 1.433 . S
C1068 C1064 1.350 . S
C1068 C1065 1.463 . S
C1068 N1072 1.427 . S
C1069 H1059 0.929 . S
C1069 C1067 1.433 . S
C1069 N1072 1.384 . S
C1070 H1061 0.929 . S
C1070 C1062 1.378 . S
C1070 C1065 1.350 . S
C1071 H1058 0.929 . S
C1071 C1063 1.433 . S
C1071 N1073 1.384 . S
N1072 C1068 1.427 . S
N1072 C1069 1.384 . S
N1073 C1065 1.427 . S
N1073 C1071 1.384 . S
H1074 C1080 0.930 . S
H1075 C1084 0.930 . S
H1076 C1089 0.929 . S
H1077 C1087 0.929 . S
H1078 C1082 0.929 . S
H1079 C1088 0.929 . S
C1080 H1074 0.930 . S
C1080 C1081 1.367 . S
C1080 C1088 1.378 . S
C1081 C1080 1.367 . S
C1081 C1089 1.433 . S
C1082 H1078 0.929 . S
C1082 C1084 1.378 . S
C1082 C1086 1.350 . S
C1083 C1086 1.463 . S
C1083 C1088 1.350 . S
C1083 N1091 1.427 . S
C1084 H1075 0.930 . S
C1084 C1082 1.378 . S
C1084 C1085 1.367 . S
C1085 C1084 1.367 . S
C1085 C1087 1.433 . S
C1086 C1082 1.350 . S
C1086 C1083 1.463 . S
C1086 N1090 1.427 . S
C1087 H1077 0.929 . S
C1087 C1085 1.433 . S
C1087 N1090 1.384 . S
C1088 H1079 0.929 . S
C1088 C1080 1.378 . S
C1088 C1083 1.350 . S
C1089 H1076 0.929 . S
C1089 C1081 1.433 . S
C1089 N1091 1.384 . S
N1090 C1086 1.427 . S
N1090 C1087 1.384 . S
N1091 C1083 1.427 . S
N1091 C1089 1.384 . S
H1092 C1098 0.930 . S
H1093 C1102 0.930 . S
H1094 C1107 0.929 . S
H1095 C1105 0.929 . S
H1096 C1100 0.929 . S
H1097 C1106 0.929 . S
C1098 H1092 0.930 . S
C1098 C1099 1.367 . S
C1098 C1106 1.378 . S
C1099 C1098 1.367 . S
C1099 C1107 1.433 . S
C1100 H1096 0.929 . S
C1100 C1102 1.378 . S
C1100 C1104 1.350 . S
C1101 C1104 1.463 . S
C1101 C1106 1.350 . S
C1101 N1109 1.427 . S
C1102 H1093 0.930 . S
C1102 C1100 1.378 . S
C1102 C1103 1.367 . S
C1103 C1102 1.367 . S
C1103 C1105 1.433 . S
C1104 C1100 1.350 . S
C1104 C1101 1.463 . S
C1104 N1108 1.427 . S
C1105 H1095 0.929 . S
C1105 C1103 1.433 . S
C1105 N1108 1.384 . S
C1106 H1097 0.929 . S
C1106 C1098 1.378 . S
C1106 C1101 1.350 . S
C1107 H1094 0.929 . S
C1107 C1099 1.433 . S
C1107 N1109 1.384 . S
N1108 C1104 1.427 . S
N1108 C1105 1.384 . S
N1109 C1101 1.427 . S
N1109 C1107 1.384 . S
H1110 C1116 0.930 . S
H1111 C1120 0.930 . S
H1112 C1125 0.929 . S
H1113 C1123 0.929 . S
H1114 C1118 0.929 . S
H1115 C1124 0.929 . S
C1116 H1110 0.930 . S
C1116 C1117 1.367 . S
C1116 C1124 1.378 . S
C1117 C1116 1.367 . S
C1117 C1125 1.433 . S
C1118 H1114 0.929 . S
C1118 C1120 1.378 . S
C1118 C1122 1.350 . S
C1119 C1122 1.463 . S
C1119 C1124 1.350 . S
C1119 N1127 1.427 . S
C1120 H1111 0.930 . S
C1120 C1118 1.378 . S
C1120 C1121 1.367 . S
C1121 C1120 1.367 . S
C1121 C1123 1.433 . S
C1122 C1118 1.350 . S
C1122 C1119 1.463 . S
C1122 N1126 1.427 . S
C1123 H1113 0.929 . S
C1123 C1121 1.433 . S
C1123 N1126 1.384 . S
C1124 H1115 0.929 . S
C1124 C1116 1.378 . S
C1124 C1119 1.350 . S
C1125 H1112 0.929 . S
C1125 C1117 1.433 . S
C1125 N1127 1.384 . S
N1126 C1122 1.427 . S
N1126 C1123 1.384 . S
N1127 C1119 1.427 . S
N1127 C1125 1.384 . S
H1128 C1134 0.930 . S
H1129 C1138 0.930 . S
H1130 C1143 0.929 . S
H1131 C1141 0.929 . S
H1132 C1136 0.929 . S
H1133 C1142 0.929 . S
C1134 H1128 0.930 . S
C1134 C1135 1.367 . S
C1134 C1142 1.378 . S
C1135 C1134 1.367 . S
C1135 C1143 1.433 . S
C1136 H1132 0.929 . S
C1136 C1138 1.378 . S
C1136 C1140 1.350 . S
C1137 C1140 1.463 . S
C1137 C1142 1.350 . S
C1137 N1145 1.427 . S
C1138 H1129 0.930 . S
C1138 C1136 1.378 . S
C1138 C1139 1.367 . S
C1139 C1138 1.367 . S
C1139 C1141 1.433 . S
C1140 C1136 1.350 . S
C1140 C1137 1.463 . S
C1140 N1144 1.427 . S
C1141 H1131 0.929 . S
C1141 C1139 1.433 . S
C1141 N1144 1.384 . S
C1142 H1133 0.929 . S
C1142 C1134 1.378 . S
C1142 C1137 1.350 . S
C1143 H1130 0.929 . S
C1143 C1135 1.433 . S
C1143 N1145 1.384 . S
N1144 C1140 1.427 . S
N1144 C1141 1.384 . S
N1145 C1137 1.427 . S
N1145 C1143 1.384 . S
H1146 C1152 0.930 . S
H1147 C1156 0.930 . S
H1148 C1161 0.929 . S
H1149 C1159 0.929 . S
H1150 C1154 0.929 . S
H1151 C1160 0.929 . S
C1152 H1146 0.930 . S
C1152 C1153 1.367 . S
C1152 C1160 1.378 . S
C1153 C1152 1.367 . S
C1153 C1161 1.433 . S
C1154 H1150 0.929 . S
C1154 C1156 1.378 . S
C1154 C1158 1.350 . S
C1155 C1158 1.463 . S
C1155 C1160 1.350 . S
C1155 N1163 1.427 . S
C1156 H1147 0.930 . S
C1156 C1154 1.378 . S
C1156 C1157 1.367 . S
C1157 C1156 1.367 . S
C1157 C1159 1.433 . S
C1158 C1154 1.350 . S
C1158 C1155 1.463 . S
C1158 N1162 1.427 . S
C1159 H1149 0.929 . S
C1159 C1157 1.433 . S
C1159 N1162 1.384 . S
C1160 H1151 0.929 . S
C1160 C1152 1.378 . S
C1160 C1155 1.350 . S
C1161 H1148 0.929 . S
C1161 C1153 1.433 . S
C1161 N1163 1.384 . S
N1162 C1158 1.427 . S
N1162 C1159 1.384 . S
N1163 C1155 1.427 . S
N1163 C1161 1.384 . S
H1164 C1170 0.930 . S
H1165 C1174 0.930 . S
H1166 C1179 0.929 . S
H1167 C1177 0.929 . S
H1168 C1172 0.929 . S
H1169 C1178 0.929 . S
C1170 H1164 0.930 . S
C1170 C1171 1.367 . S
C1170 C1178 1.378 . S
C1171 C1170 1.367 . S
C1171 C1179 1.433 . S
C1172 H1168 0.929 . S
C1172 C1174 1.378 . S
C1172 C1176 1.350 . S
C1173 C1176 1.463 1_554 S
C1173 C1178 1.350 . S
C1173 N1181 1.427 . S
C1174 H1165 0.930 . S
C1174 C1172 1.378 . S
C1174 C1175 1.367 . S
C1175 C1174 1.367 . S
C1175 C1177 1.433 . S
C1176 C1172 1.350 . S
C1176 C1173 1.463 1_556 S
C1176 N1180 1.427 . S
C1177 H1167 0.929 . S
C1177 C1175 1.433 . S
C1177 N1180 1.384 . S
C1178 H1169 0.929 . S
C1178 C1170 1.378 . S
C1178 C1173 1.350 . S
C1179 H1166 0.929 . S
C1179 C1171 1.433 . S
C1179 N1181 1.384 . S
N1180 C1176 1.427 . S
N1180 C1177 1.384 . S
N1181 C1173 1.427 . S
N1181 C1179 1.384 . S
H1182 C1188 0.930 . S
H1183 C1192 0.930 . S
H1184 C1197 0.929 . S
H1185 C1195 0.929 . S
H1186 C1190 0.929 . S
H1187 C1196 0.929 . S
C1188 H1182 0.930 . S
C1188 C1189 1.367 . S
C1188 C1196 1.378 . S
C1189 C1188 1.367 . S
C1189 C1197 1.433 . S
C1190 H1186 0.929 . S
C1190 C1192 1.378 . S
C1190 C1194 1.350 . S
C1191 C1194 1.463 . S
C1191 C1196 1.350 . S
C1191 N1199 1.427 . S
C1192 H1183 0.930 . S
C1192 C1190 1.378 . S
C1192 C1193 1.367 . S
C1193 C1192 1.367 . S
C1193 C1195 1.433 . S
C1194 C1190 1.350 . S
C1194 C1191 1.463 . S
C1194 N1198 1.427 . S
C1195 H1185 0.929 . S
C1195 C1193 1.433 . S
C1195 N1198 1.384 . S
C1196 H1187 0.929 . S
C1196 C1188 1.378 . S
C1196 C1191 1.350 . S
C1197 H1184 0.929 . S
C1197 C1189 1.433 . S
C1197 N1199 1.384 . S
N1198 C1194 1.427 . S
N1198 C1195 1.384 . S
N1199 C1191 1.427 . S
N1199 C1197 1.384 . S
C779 C754 1.732 . S
C775 C1 1.310 . S
C793 C169 1.473 . S
C797 C695 1.802 . S
C811 C283 1.515 . S
C815 C698 1.827 . S
C829 C397 1.288 . S
C833 C712 1.616 . S
C851 C737 1.611 . S
C847 C457 1.196 . S
C865 C571 1.168 . S
C869 C740 1.520 . S
C883 C115 1.209 . S
C887 C709 1.630 . S
C901 C229 1.192 . S
C905 C723 1.584 . S
C919 C343 1.094 . S
C923 C726 1.455 . S
C941 C751 1.684 . S
C937 C511 1.406 . S
C959 C765 1.730 . S
C955 C625 1.405 . S
C977 C684 1.811 . S
C973 C55 1.502 . S
C991 C29 1.144 . S
C995 C707 1.410 . S
C1009 C125 0.966 . S
C1013 C721 1.526 . S
C1031 C731 1.467 . S
C1027 C239 0.898 . S
C1045 C353 0.860 . S
C1049 C749 1.428 . S
C1067 C763 1.387 . S
C1063 C485 1.100 . S
C1085 C689 1.448 . S
C1081 C599 1.158 . S
C1103 C759 1.483 . S
C1099 C143 1.199 . S
C1117 C257 1.152 . S
C1121 C693 1.453 . S
C1139 C703 1.395 . S
C1135 C371 1.122 . S
C1153 C467 0.985 . S
C1157 C717 1.501 . S
C1171 C581 0.922 . S
C1175 C735 1.469 . S
C1189 C11 0.965 . S
C1193 C745 1.536 . S
