# Generated by pormake.
# Topology ctn, (3,4)-cn, num edge types: 1
# Building blocks:
#     Node 0, Type 0, BuildingBlock: ESEHIV_clean_linker_0, # of connection points: 3
#     Node 1, Type 0, BuildingBlock: ESEHIV_clean_linker_0, # of connection points: 3
#     Node 2, Type 0, BuildingBlock: ESEHIV_clean_linker_0, # of connection points: 3
#     Node 3, Type 0, BuildingBlock: ESEHIV_clean_linker_0, # of connection points: 3
#     Node 4, Type 0, BuildingBlock: ESEHIV_clean_linker_0, # of connection points: 3
#     Node 5, Type 0, BuildingBlock: ESEHIV_clean_linker_0, # of connection points: 3
#     Node 6, Type 0, BuildingBlock: ESEHIV_clean_linker_0, # of connection points: 3
#     Node 7, Type 0, BuildingBlock: ESEHIV_clean_linker_0, # of connection points: 3
#     Node 8, Type 0, BuildingBlock: ESEHIV_clean_linker_0, # of connection points: 3
#     Node 9, Type 0, BuildingBlock: ESEHIV_clean_linker_0, # of connection points: 3
#     Node 10, Type 0, BuildingBlock: ESEHIV_clean_linker_0, # of connection points: 3
#     Node 11, Type 0, BuildingBlock: ESEHIV_clean_linker_0, # of connection points: 3
#     Node 12, Type 0, BuildingBlock: ESEHIV_clean_linker_0, # of connection points: 3
#     Node 13, Type 0, BuildingBlock: ESEHIV_clean_linker_0, # of connection points: 3
#     Node 14, Type 0, BuildingBlock: ESEHIV_clean_linker_0, # of connection points: 3
#     Node 15, Type 0, BuildingBlock: ESEHIV_clean_linker_0, # of connection points: 3
#     Node 16, Type 1, BuildingBlock: UXUYUI_clean_sbu_0, # of connection points: 4
#     Node 17, Type 1, BuildingBlock: UXUYUI_clean_sbu_0, # of connection points: 4
#     Node 18, Type 1, BuildingBlock: UXUYUI_clean_sbu_0, # of connection points: 4
#     Node 19, Type 1, BuildingBlock: UXUYUI_clean_sbu_0, # of connection points: 4
#     Node 20, Type 1, BuildingBlock: UXUYUI_clean_sbu_0, # of connection points: 4
#     Node 21, Type 1, BuildingBlock: UXUYUI_clean_sbu_0, # of connection points: 4
#     Node 22, Type 1, BuildingBlock: UXUYUI_clean_sbu_0, # of connection points: 4
#     Node 23, Type 1, BuildingBlock: UXUYUI_clean_sbu_0, # of connection points: 4
#     Node 24, Type 1, BuildingBlock: UXUYUI_clean_sbu_0, # of connection points: 4
#     Node 25, Type 1, BuildingBlock: UXUYUI_clean_sbu_0, # of connection points: 4
#     Node 26, Type 1, BuildingBlock: UXUYUI_clean_sbu_0, # of connection points: 4
#     Node 27, Type 1, BuildingBlock: UXUYUI_clean_sbu_0, # of connection points: 4
#     Edge 28, Type (0, 1), BuildingBlock: OJICUG_clean_linker_0, # of connection points: 2
#     Edge 29, Type (0, 1), BuildingBlock: OJICUG_clean_linker_0, # of connection points: 2
#     Edge 30, Type (0, 1), BuildingBlock: OJICUG_clean_linker_0, # of connection points: 2
#     Edge 31, Type (0, 1), BuildingBlock: OJICUG_clean_linker_0, # of connection points: 2
#     Edge 32, Type (0, 1), BuildingBlock: OJICUG_clean_linker_0, # of connection points: 2
#     Edge 33, Type (0, 1), BuildingBlock: OJICUG_clean_linker_0, # of connection points: 2
#     Edge 34, Type (0, 1), BuildingBlock: OJICUG_clean_linker_0, # of connection points: 2
#     Edge 35, Type (0, 1), BuildingBlock: OJICUG_clean_linker_0, # of connection points: 2
#     Edge 36, Type (0, 1), BuildingBlock: OJICUG_clean_linker_0, # of connection points: 2
#     Edge 37, Type (0, 1), BuildingBlock: OJICUG_clean_linker_0, # of connection points: 2
#     Edge 38, Type (0, 1), BuildingBlock: OJICUG_clean_linker_0, # of connection points: 2
#     Edge 39, Type (0, 1), BuildingBlock: OJICUG_clean_linker_0, # of connection points: 2
#     Edge 40, Type (0, 1), BuildingBlock: OJICUG_clean_linker_0, # of connection points: 2
#     Edge 41, Type (0, 1), BuildingBlock: OJICUG_clean_linker_0, # of connection points: 2
#     Edge 42, Type (0, 1), BuildingBlock: OJICUG_clean_linker_0, # of connection points: 2
#     Edge 43, Type (0, 1), BuildingBlock: OJICUG_clean_linker_0, # of connection points: 2
#     Edge 44, Type (0, 1), BuildingBlock: OJICUG_clean_linker_0, # of connection points: 2
#     Edge 45, Type (0, 1), BuildingBlock: OJICUG_clean_linker_0, # of connection points: 2
#     Edge 46, Type (0, 1), BuildingBlock: OJICUG_clean_linker_0, # of connection points: 2
#     Edge 47, Type (0, 1), BuildingBlock: OJICUG_clean_linker_0, # of connection points: 2
#     Edge 48, Type (0, 1), BuildingBlock: OJICUG_clean_linker_0, # of connection points: 2
#     Edge 49, Type (0, 1), BuildingBlock: OJICUG_clean_linker_0, # of connection points: 2
#     Edge 50, Type (0, 1), BuildingBlock: OJICUG_clean_linker_0, # of connection points: 2
#     Edge 51, Type (0, 1), BuildingBlock: OJICUG_clean_linker_0, # of connection points: 2
#     Edge 52, Type (0, 1), BuildingBlock: OJICUG_clean_linker_0, # of connection points: 2
#     Edge 53, Type (0, 1), BuildingBlock: OJICUG_clean_linker_0, # of connection points: 2
#     Edge 54, Type (0, 1), BuildingBlock: OJICUG_clean_linker_0, # of connection points: 2
#     Edge 55, Type (0, 1), BuildingBlock: OJICUG_clean_linker_0, # of connection points: 2
#     Edge 56, Type (0, 1), BuildingBlock: OJICUG_clean_linker_0, # of connection points: 2
#     Edge 57, Type (0, 1), BuildingBlock: OJICUG_clean_linker_0, # of connection points: 2
#     Edge 58, Type (0, 1), BuildingBlock: OJICUG_clean_linker_0, # of connection points: 2
#     Edge 59, Type (0, 1), BuildingBlock: OJICUG_clean_linker_0, # of connection points: 2
#     Edge 60, Type (0, 1), BuildingBlock: OJICUG_clean_linker_0, # of connection points: 2
#     Edge 61, Type (0, 1), BuildingBlock: OJICUG_clean_linker_0, # of connection points: 2
#     Edge 62, Type (0, 1), BuildingBlock: OJICUG_clean_linker_0, # of connection points: 2
#     Edge 63, Type (0, 1), BuildingBlock: OJICUG_clean_linker_0, # of connection points: 2
#     Edge 64, Type (0, 1), BuildingBlock: OJICUG_clean_linker_0, # of connection points: 2
#     Edge 65, Type (0, 1), BuildingBlock: OJICUG_clean_linker_0, # of connection points: 2
#     Edge 66, Type (0, 1), BuildingBlock: OJICUG_clean_linker_0, # of connection points: 2
#     Edge 67, Type (0, 1), BuildingBlock: OJICUG_clean_linker_0, # of connection points: 2
#     Edge 68, Type (0, 1), BuildingBlock: OJICUG_clean_linker_0, # of connection points: 2
#     Edge 69, Type (0, 1), BuildingBlock: OJICUG_clean_linker_0, # of connection points: 2
#     Edge 70, Type (0, 1), BuildingBlock: OJICUG_clean_linker_0, # of connection points: 2
#     Edge 71, Type (0, 1), BuildingBlock: OJICUG_clean_linker_0, # of connection points: 2
#     Edge 72, Type (0, 1), BuildingBlock: OJICUG_clean_linker_0, # of connection points: 2
#     Edge 73, Type (0, 1), BuildingBlock: OJICUG_clean_linker_0, # of connection points: 2
#     Edge 74, Type (0, 1), BuildingBlock: OJICUG_clean_linker_0, # of connection points: 2
#     Edge 75, Type (0, 1), BuildingBlock: OJICUG_clean_linker_0, # of connection points: 2
# Relax obj value: 0.000
# Max RMSD: 0.006
# Mean RMSD: 0.004
data_MOF--net-ctn--node1-UXUYUI_clean_sbu_0--node2-ESEHIV_clean_linker_0--edge1-OJICUG_clean_linker_0
_symmetry_space_group_name_H-M    P1
_symmetry_Int_Tables_number       1
_symmetry_cell_setting            triclinic
loop_
_symmetry_equiv_pos_as_xyz
'x, y, z'
_cell_length_a     49.834781
_cell_length_b     49.872596
_cell_length_c     49.801076
_cell_angle_alpha  89.90988
_cell_angle_beta   90.135847
_cell_angle_gamma 90.077135
loop_
_atom_site_label
_atom_site_type_symbol
_atom_site_fract_x
_atom_site_fract_y
_atom_site_fract_z
_atom_type_partial_charge
H0 H 0.00602 0.07456 0.04967 0.0
H1 H 0.05065 0.00474 0.07365 0.0
H2 H 0.07476 0.04965 1.00396 0.0
C3 C 0.02248 0.06077 0.04645 0.0
C4 C 0.03989 0.06478 0.0246 0.0
C5 C 0.02612 0.03912 0.06423 0.0
C6 C 0.04763 0.02141 0.06 0.0
C7 C 0.06534 0.02506 0.03834 0.0
C8 C 0.06123 0.04675 0.02072 0.0
H9 H 0.30042 0.68647 0.2557 0.0
H10 H 0.32347 0.75643 0.21076 0.0
H11 H 0.25424 0.71072 0.18675 0.0
C12 C 0.29677 0.70042 0.23939 0.0
C13 C 0.27491 0.69616 0.22197 0.0
C14 C 0.31458 0.72195 0.23535 0.0
C15 C 0.31023 0.73941 0.21358 0.0
C16 C 0.28853 0.73556 0.19588 0.0
C17 C 0.27098 0.71388 0.20029 0.0
H18 H 0.96067 0.50492 0.07492 0.0
H19 H 0.00524 0.43515 0.05122 0.0
H20 H 0.93525 0.45883 0.00645 0.0
C21 C 0.96344 0.48809 0.06149 0.0
C22 C 0.94546 0.48427 0.03999 0.0
C23 C 0.9849 0.47031 0.06589 0.0
C24 C 0.98835 0.44853 0.04835 0.0
C25 C 0.97074 0.44438 0.02663 0.0
C26 C 0.94935 0.46235 0.02266 0.0
H27 H 0.68692 0.75377 0.21049 0.0
H28 H 0.75687 0.79835 0.18675 0.0
H29 H 0.71132 0.82313 0.25565 0.0
C30 C 0.70067 0.77031 0.21367 0.0
C31 C 0.69651 0.78791 0.23532 0.0
C32 C 0.72239 0.7739 0.19603 0.0
C33 C 0.7401 0.79548 0.20027 0.0
C34 C 0.73628 0.81344 0.22168 0.0
C35 C 0.71443 0.80942 0.2391 0.0
H36 H 0.00572 0.93473 0.45943 0.0
H37 H 0.05086 1.00431 0.43556 0.0
H38 H 0.07521 0.95878 0.50485 0.0
C39 C 0.0226 0.94813 0.46237 0.0
C40 C 0.03998 0.94408 0.48431 0.0
C41 C 0.0263 0.96984 0.44469 0.0
C42 C 0.04781 0.98758 0.44913 0.0
C43 C 0.06546 0.9839 0.47091 0.0
C44 C 0.06131 0.96213 0.48842 0.0
H45 H 0.18759 0.75507 0.79965 0.0
H46 H 0.25725 0.71008 0.8236 0.0
H47 H 0.21101 0.68538 0.75485 0.0
C48 C 0.20096 0.7382 0.79686 0.0
C49 C 0.19667 0.72069 0.77517 0.0
C50 C 0.22276 0.73459 0.81449 0.0
C51 C 0.24044 0.71306 0.8101 0.0
C52 C 0.23656 0.69528 0.7885 0.0
C53 C 0.21462 0.69934 0.77112 0.0
H54 H 0.936 0.54966 0.50565 0.0
H55 H 0.00506 0.57472 0.46033 0.0
H56 H 0.96046 0.50492 0.43615 0.0
C57 C 0.94962 0.54681 0.48897 0.0
C58 C 0.94557 0.52515 0.47135 0.0
C59 C 0.97103 0.56485 0.48522 0.0
C60 C 0.98855 0.56092 0.46346 0.0
C61 C 0.98496 0.53932 0.44567 0.0
C62 C 0.9634 0.52157 0.4498 0.0
H63 H 0.75467 0.79941 0.82403 0.0
H64 H 0.80041 0.82377 0.75497 0.0
H65 H 0.82391 0.75407 0.80018 0.0
C66 C 0.77158 0.7966 0.81069 0.0
C67 C 0.78883 0.77466 0.81476 0.0
C68 C 0.77548 0.81444 0.78913 0.0
C69 C 0.7971 0.81007 0.77154 0.0
C70 C 0.81456 0.78821 0.77519 0.0
C71 C 0.81017 0.77056 0.79681 0.0
H72 H 0.25396 0.29927 0.32438 0.0
H73 H 0.30046 0.3242 0.25605 0.0
H74 H 0.32367 0.25429 0.30102 0.0
C75 C 0.27105 0.29658 0.31125 0.0
C76 C 0.28834 0.27468 0.31541 0.0
C77 C 0.27514 0.31457 0.28985 0.0
C78 C 0.29697 0.31038 0.27249 0.0
C79 C 0.31443 0.28853 0.27618 0.0
C80 C 0.30988 0.27075 0.29765 0.0
H81 H 0.46073 1.00423 0.57489 0.0
H82 H 0.50595 0.93512 0.55032 0.0
H83 H 0.43618 0.95921 0.50542 0.0
C84 C 0.46375 0.98765 0.56119 0.0
C85 C 0.44582 0.98391 0.53966 0.0
C86 C 0.48551 0.97016 0.56525 0.0
C87 C 0.48925 0.9487 0.54735 0.0
C88 C 0.47157 0.94458 0.52568 0.0
C89 C 0.44992 0.96229 0.52203 0.0
H90 H 0.18763 0.25358 0.71133 0.0
H91 H 0.25695 0.29887 0.68689 0.0
H92 H 0.21122 0.32371 0.75564 0.0
C93 C 0.20118 0.27034 0.71422 0.0
C94 C 0.19682 0.28815 0.73564 0.0
C95 C 0.22278 0.27404 0.69644 0.0
C96 C 0.24026 0.29587 0.70047 0.0
C97 C 0.23633 0.31391 0.7218 0.0
C98 C 0.2145 0.30987 0.73922 0.0
H99 H 0.79952 0.18646 0.75675 0.0
H100 H 0.8242 0.25491 0.7102 0.0
H101 H 0.75384 0.21044 0.68741 0.0
C102 C 0.79646 0.19993 0.73994 0.0
C103 C 0.77473 0.19556 0.72238 0.0
C104 C 0.81435 0.22143 0.73592 0.0
C105 C 0.81014 0.23875 0.71397 0.0
C106 C 0.7885 0.23483 0.69623 0.0
C107 C 0.77092 0.2132 0.70063 0.0
H108 H 0.5059 0.57412 0.54982 0.0
H109 H 0.55076 0.50457 0.57428 0.0
H110 H 0.5749 0.54931 0.50448 0.0
C111 C 0.52243 0.56037 0.54675 0.0
C112 C 0.53992 0.56436 0.52496 0.0
C113 C 0.52612 0.53884 0.56465 0.0
C114 C 0.54771 0.52117 0.56054 0.0
C115 C 0.56543 0.52478 0.53889 0.0
C116 C 0.56133 0.54641 0.5212 0.0
H117 H 0.5077 0.43186 0.9583 0.0
H118 H 0.55237 0.50187 0.9348 0.0
H119 H 0.57735 0.45578 1.0035 0.0
C120 C 0.52454 0.44531 0.96123 0.0
C121 C 0.54227 0.44095 0.98283 0.0
C122 C 0.52782 0.46741 0.94396 0.0
C123 C 0.54928 0.48522 0.94845 0.0
C124 C 0.56734 0.48118 0.96983 0.0
C125 C 0.56359 0.45901 0.98693 0.0
H126 H 0.68585 0.25288 0.30225 0.0
H127 H 0.75672 0.20912 0.32448 0.0
H128 H 0.71141 0.18553 0.25485 0.0
C129 C 0.69987 0.23676 0.29847 0.0
C130 C 0.69583 0.21974 0.27627 0.0
C131 C 0.72186 0.23326 0.31587 0.0
C132 C 0.73982 0.21208 0.31108 0.0
C133 C 0.73613 0.19462 0.28921 0.0
C134 C 0.7142 0.19878 0.27183 0.0
H135 H 0.43679 0.04954 0.00657 0.0
H136 H 0.50557 0.07488 0.96091 0.0
H137 H 0.46104 0.00499 0.93692 0.0
C138 C 0.45036 0.04678 0.98984 0.0
C139 C 0.44625 0.02517 0.97217 0.0
C140 C 0.47169 0.06492 0.986 0.0
C141 C 0.48914 0.06102 0.96416 0.0
C142 C 0.48556 0.03938 0.94642 0.0
C143 C 0.46402 0.02162 0.95059 0.0
Li144 Li 0.28067 0.89711 1.00037 0.0
Li145 Li 0.25967 0.86326 0.02989 0.0
Li146 Li 0.25133 0.86325 0.9795 0.0
Li147 Li 0.23036 0.89708 0.00893 0.0
C148 C 0.31178 0.85235 0.99431 0.0
N149 N 0.36521 0.84267 0.98319 0.0
C150 C 0.32913 0.8438 0.01467 0.0
C151 C 0.32151 0.85552 0.9682 0.0
C152 C 0.3561 0.83913 0.00868 0.0
C153 C 0.34861 0.85065 0.96301 0.0
C154 C 0.26421 0.90808 0.06129 0.0
C155 C 0.24688 0.91 0.10643 0.0
N156 N 0.27144 0.91786 0.11544 0.0
C157 C 0.28918 0.91651 0.07096 0.0
C158 C 0.2428 0.90509 0.07912 0.0
C159 C 0.29247 0.92123 0.09841 0.0
C160 C 0.30962 0.94054 0.97775 0.0
N161 N 0.31161 0.91956 0.99511 0.0
C162 C 0.35705 0.93147 0.00539 0.0
C163 C 0.3347 0.91488 0.00897 0.0
C164 C 0.35566 0.95319 0.98743 0.0
C165 C 0.3315 0.95759 0.97349 0.0
H166 H 0.29091 0.94425 0.96739 0.0
H167 H 0.33572 0.89844 0.02307 0.0
C168 C 0.24776 0.81995 0.06487 0.0
N169 N 0.26484 0.84087 0.06091 0.0
C170 C 0.25098 0.80295 0.08699 0.0
C171 C 0.28963 0.829 0.10041 0.0
C172 C 0.28559 0.84554 0.07808 0.0
C173 C 0.27219 0.80732 0.10513 0.0
H174 H 0.23176 0.81623 0.05066 0.0
H175 H 0.29926 0.86192 0.07429 0.0
C176 C 0.24669 0.90806 0.94799 0.0
N177 N 0.23918 0.91781 0.89383 0.0
C178 C 0.22163 0.91627 0.9384 0.0
C179 C 0.26804 0.90527 0.93008 0.0
C180 C 0.2182 0.92098 0.91094 0.0
C181 C 0.26383 0.91016 0.90277 0.0
C182 C 0.19918 0.85223 0.01504 0.0
C183 C 0.18186 0.84378 0.99462 0.0
C184 C 0.18938 0.85522 0.04113 0.0
C185 C 0.15487 0.83904 1.00053 0.0
C186 C 0.16227 0.85029 0.04625 0.0
N187 N 0.14571 0.84241 0.026 0.0
C188 C 0.26329 0.81986 0.94484 0.0
C189 C 0.22552 0.84529 0.9313 0.0
C190 C 0.26013 0.80273 0.92285 0.0
N191 N 0.24621 0.84076 0.94858 0.0
C192 C 0.22153 0.82861 0.90911 0.0
C193 C 0.23896 0.80695 0.90463 0.0
H194 H 0.27924 0.81625 0.95913 0.0
H195 H 0.21185 0.86167 0.9349 0.0
C196 C 0.20169 0.9405 0.03156 0.0
N197 N 0.19949 0.91952 0.01428 0.0
C198 C 0.17988 0.95752 0.03601 0.0
C199 C 0.15397 0.93142 0.0044 0.0
C200 C 0.17626 0.91485 1.00064 0.0
C201 C 0.15558 0.95311 0.02232 0.0
H202 H 0.2205 0.94422 0.04173 0.0
H203 H 0.17507 0.89842 0.9866 0.0
O204 O 0.28535 0.85725 0.99986 0.0
O205 O 0.26069 0.90313 0.03448 0.0
O206 O 0.25035 0.90315 0.9748 0.0
O207 O 0.22563 0.85719 0.00957 0.0
H208 H 0.32193 0.84092 0.0349 0.0
H209 H 0.30827 0.86147 0.95209 0.0
H210 H 0.36978 0.83269 0.02429 0.0
H211 H 0.35641 0.85315 0.94291 0.0
H212 H 0.23049 0.90765 0.12045 0.0
H213 H 0.3059 0.91925 0.05746 0.0
H214 H 0.2232 0.89924 0.07193 0.0
H215 H 0.31174 0.92758 0.10618 0.0
H216 H 0.37529 0.9272 0.01647 0.0
H217 H 0.32932 0.97435 0.95981 0.0
H218 H 0.23734 0.78623 0.08955 0.0
H219 H 0.30616 0.83324 0.1139 0.0
H220 H 0.20495 0.91885 0.95196 0.0
H221 H 0.28771 0.89959 0.9372 0.0
H222 H 0.19886 0.92716 0.90324 0.0
H223 H 0.28017 0.90796 0.88869 0.0
H224 H 0.18911 0.84104 0.97439 0.0
H225 H 0.20259 0.86108 0.05731 0.0
H226 H 0.14122 0.83268 0.98486 0.0
H227 H 0.15442 0.85264 0.06634 0.0
H228 H 0.27377 0.78603 0.92048 0.0
H229 H 0.20503 0.83273 0.89553 0.0
H230 H 0.18221 0.97426 0.04964 0.0
H231 H 0.13563 0.92716 0.99351 0.0
Li232 Li 0.1136 0.50975 0.28113 0.0
Li233 Li 0.14748 0.48011 0.26057 0.0
Li234 Li 0.14741 0.53034 0.25164 0.0
Li235 Li 0.11356 0.50058 0.23092 0.0
C236 C 0.15835 0.51601 0.31241 0.0
N237 N 0.16789 0.52713 0.36595 0.0
C238 C 0.16667 0.49566 0.32986 0.0
C239 C 0.15534 0.54211 0.32212 0.0
C240 C 0.17127 0.50165 0.35688 0.0
C241 C 0.16013 0.5473 0.34927 0.0
C242 C 0.1025 0.44868 0.26521 0.0
C243 C 0.10039 0.40349 0.24814 0.0
N244 N 0.09242 0.39468 0.27272 0.0
C245 C 0.09397 0.43923 0.29021 0.0
C246 C 0.10545 0.43072 0.24392 0.0
C247 C 0.08909 0.41184 0.29364 0.0
C248 C 0.07023 0.53276 0.30964 0.0
N249 N 0.09111 0.51537 0.31192 0.0
C250 C 0.07896 0.50554 0.35738 0.0
C251 C 0.09562 0.50172 0.33516 0.0
C252 C 0.05733 0.52353 0.35568 0.0
C253 C 0.05312 0.53726 0.33137 0.0
H254 H 0.06664 0.54295 0.29081 0.0
H255 H 0.11198 0.48759 0.33641 0.0
C256 C 0.1911 0.44554 0.24924 0.0
N257 N 0.16997 0.44927 0.26605 0.0
C258 C 0.20813 0.42352 0.25256 0.0
C259 C 0.18172 0.40976 0.29077 0.0
C260 C 0.16515 0.43199 0.28665 0.0
C261 C 0.20358 0.40525 0.27358 0.0
H262 H 0.19492 0.45983 0.23336 0.0
H263 H 0.14861 0.4356 0.30013 0.0
C264 C 0.1026 0.56159 0.24656 0.0
N265 N 0.09293 0.61557 0.23849 0.0
C266 C 0.09405 0.57084 0.22145 0.0
C267 C 0.10577 0.57975 0.26767 0.0
C268 C 0.08938 0.59822 0.21774 0.0
C269 C 0.10092 0.60697 0.26316 0.0
C270 C 0.15849 0.49416 0.19994 0.0
C271 C 0.16684 0.51434 0.18232 0.0
C272 C 0.15567 0.46792 0.19055 0.0
C273 C 0.17165 0.50803 0.15544 0.0
C274 C 0.16067 0.4624 0.16353 0.0
N275 N 0.16845 0.48241 0.14667 0.0
C276 C 0.1907 0.56541 0.26331 0.0
C277 C 0.16515 0.57824 0.22528 0.0
C278 C 0.20768 0.58749 0.25996 0.0
N279 N 0.16981 0.56128 0.24619 0.0
C280 C 0.18166 0.60053 0.22113 0.0
C281 C 0.20331 0.60543 0.2386 0.0
H282 H 0.19439 0.55137 0.27945 0.0
H283 H 0.14877 0.57433 0.2116 0.0
C284 C 0.07 0.47766 0.20234 0.0
N285 N 0.09106 0.49487 0.20004 0.0
C286 C 0.05289 0.47308 0.18053 0.0
C287 C 0.07909 0.50441 0.15443 0.0
C288 C 0.09575 0.5083 0.17672 0.0
C289 C 0.05729 0.48658 0.15613 0.0
H290 H 0.06627 0.46767 0.22124 0.0
H291 H 0.11223 0.52231 0.17546 0.0
O292 O 0.15352 0.51046 0.28593 0.0
O293 O 0.10759 0.47542 0.26155 0.0
O294 O 0.1075 0.53487 0.2505 0.0
O295 O 0.15347 0.50003 0.2263 0.0
H296 H 0.1694 0.47543 0.32268 0.0
H297 H 0.14956 0.55822 0.30882 0.0
H298 H 0.17753 0.48604 0.37063 0.0
H299 H 0.15776 0.5674 0.35705 0.0
H300 H 0.1027 0.38937 0.23184 0.0
H301 H 0.09126 0.45283 0.30683 0.0
H302 H 0.11138 0.43774 0.22429 0.0
H303 H 0.08266 0.40424 0.31294 0.0
H304 H 0.0831 0.49462 0.37573 0.0
H305 H 0.03643 0.55095 0.32896 0.0
H306 H 0.225 0.42115 0.2391 0.0
H307 H 0.17734 0.39615 0.30715 0.0
H308 H 0.09118 0.55708 0.20497 0.0
H309 H 0.11174 0.5729 0.28737 0.0
H310 H 0.08294 0.60566 0.19835 0.0
H311 H 0.10342 0.62125 0.27931 0.0
H312 H 0.16944 0.53469 0.18927 0.0
H313 H 0.14989 0.45194 0.20401 0.0
H314 H 0.17793 0.5235 0.14156 0.0
H315 H 0.15845 0.44218 0.15599 0.0
H316 H 0.22439 0.59017 0.27365 0.0
H317 H 0.1774 0.61388 0.20449 0.0
H318 H 0.03607 0.45953 0.18294 0.0
H319 H 0.08335 0.51515 0.136 0.0
Li320 Li 0.73028 0.6121 1.00102 0.0
Li321 Li 0.75124 0.64605 0.03058 0.0
Li322 Li 0.75992 0.64639 0.98034 0.0
Li323 Li 0.78039 0.61253 0.01016 0.0
C324 C 0.70022 0.65882 0.99262 0.0
N325 N 0.64882 0.67282 0.97711 0.0
C326 C 0.68202 0.66861 0.01152 0.0
C327 C 0.6924 0.65659 0.96575 0.0
C328 C 0.65609 0.67546 1.00331 0.0
C329 C 0.6663 0.66365 0.95833 0.0
C330 C 0.7438 0.6025 0.06187 0.0
C331 C 0.75641 0.60288 0.10866 0.0
N332 N 0.731 0.59556 0.1154 0.0
C333 C 0.71789 0.59473 0.06924 0.0
C334 C 0.7633 0.60637 0.08171 0.0
C335 C 0.71178 0.5914 0.09641 0.0
C336 C 0.70391 0.56567 0.98218 0.0
N337 N 0.69975 0.58921 0.99526 0.0
C338 C 0.65313 0.57876 1.0004 0.0
C339 C 0.675 0.59587 0.00456 0.0
C340 C 0.65676 0.55438 0.98674 0.0
C341 C 0.68263 0.54795 0.97759 0.0
H342 H 0.72384 0.56059 0.97534 0.0
H343 H 0.67225 0.6142 0.01568 0.0
C344 C 0.76421 0.68788 0.06687 0.0
N345 N 0.74578 0.66848 0.06145 0.0
C346 C 0.76091 0.70486 0.08892 0.0
C347 C 0.71961 0.68179 0.09941 0.0
C348 C 0.72368 0.6653 0.07711 0.0
C349 C 0.73835 0.70199 0.10559 0.0
H350 H 0.78137 0.69038 0.05388 0.0
H351 H 0.70907 0.65005 0.07223 0.0
C352 C 0.7619 0.60003 0.94914 0.0
N353 N 0.76408 0.58659 0.89536 0.0
C354 C 0.78606 0.5916 0.93774 0.0
C355 C 0.73876 0.60115 0.93328 0.0
C356 C 0.78679 0.58503 0.91049 0.0
C357 C 0.74029 0.5944 0.90612 0.0
C358 C 0.81228 0.65566 0.01517 0.0
C359 C 0.82908 0.66382 0.99426 0.0
C360 C 0.82312 0.65091 0.04064 0.0
C361 C 0.85657 0.66665 0.99908 0.0
C362 C 0.8507 0.65393 0.04466 0.0
N363 N 0.86673 0.66164 0.02396 0.0
C364 C 0.74989 0.69138 0.94704 0.0
C365 C 0.78439 0.66307 0.93104 0.0
C366 C 0.75315 0.70858 0.9251 0.0
N367 N 0.76523 0.66898 0.9495 0.0
C368 C 0.78843 0.67977 0.90883 0.0
C369 C 0.77268 0.70294 0.90557 0.0
H370 H 0.73514 0.696 0.96222 0.0
H371 H 0.79696 0.64566 0.9338 0.0
C372 C 0.80997 0.57071 0.03483 0.0
N373 N 0.8112 0.59005 0.01559 0.0
C374 C 0.83176 0.55364 0.03926 0.0
C375 C 0.85575 0.57653 1.00391 0.0
C376 C 0.83345 0.59312 1.00012 0.0
C377 C 0.85512 0.55639 0.0237 0.0
H378 H 0.79191 0.56832 0.04657 0.0
H379 H 0.83389 0.60839 0.98473 0.0
O380 O 0.72567 0.6519 1.00036 0.0
O381 O 0.75007 0.60609 0.03538 0.0
O382 O 0.76086 0.60662 0.97579 0.0
O383 O 0.78536 0.65247 0.01075 0.0
H384 H 0.68779 0.67078 0.03234 0.0
H385 H 0.7064 0.64979 0.95073 0.0
H386 H 0.64176 0.68289 0.01777 0.0
H387 H 0.65997 0.66194 0.9376 0.0
H388 H 0.77128 0.60595 0.12422 0.0
H389 H 0.7026 0.59145 0.05418 0.0
H390 H 0.78354 0.612 0.07636 0.0
H391 H 0.69176 0.58555 0.1024 0.0
H392 H 0.6337 0.58432 0.00832 0.0
H393 H 0.68639 0.52952 0.96679 0.0
H394 H 0.77565 0.72042 0.09253 0.0
H395 H 0.70204 0.67861 0.11176 0.0
H396 H 0.8041 0.59031 0.94975 0.0
H397 H 0.71975 0.60686 0.9419 0.0
H398 H 0.8054 0.57868 0.90137 0.0
H399 H 0.72253 0.59526 0.89362 0.0
H400 H 0.82103 0.66781 0.97449 0.0
H401 H 0.81037 0.64495 0.05712 0.0
H402 H 0.86983 0.6728 0.98304 0.0
H403 H 0.85937 0.65017 0.06424 0.0
H404 H 0.74034 0.72602 0.92341 0.0
H405 H 0.80414 0.67486 0.89468 0.0
H406 H 0.8301 0.53813 0.05441 0.0
H407 H 0.87335 0.57962 0.99159 0.0
Li408 Li 0.86407 0.02972 0.25862 0.0
Li409 Li 0.89793 1.00001 0.27937 0.0
Li410 Li 0.8978 0.00918 0.22912 0.0
Li411 Li 0.86394 0.97947 0.24987 0.0
C412 C 0.90894 0.06105 0.26344 0.0
N413 N 0.91873 0.11505 0.27119 0.0
C414 C 0.9175 0.07037 0.28849 0.0
C415 C 0.90581 0.07915 0.24222 0.0
C416 C 0.92223 0.09776 0.29204 0.0
C417 C 0.91073 0.10638 0.24656 0.0
C418 C 0.85313 0.99351 0.31048 0.0
C419 C 0.85126 0.96175 0.34702 0.0
N420 N 0.84343 0.98171 0.36384 0.0
C421 C 0.84474 0.01363 0.32806 0.0
C422 C 0.85612 0.96729 0.31996 0.0
C423 C 0.84006 0.00729 0.35498 0.0
C424 C 0.82091 0.06496 0.24692 0.0
N425 N 0.84177 0.06068 0.26405 0.0
C426 C 0.83001 0.09976 0.28927 0.0
C427 C 0.84647 0.0775 0.28502 0.0
C428 C 0.80838 0.10479 0.27182 0.0
C429 C 0.80399 0.08703 0.25035 0.0
H430 H 0.81718 0.05104 0.23072 0.0
H431 H 0.86283 0.07348 0.29871 0.0
C432 C 0.94146 0.9771 0.30801 0.0
N433 N 0.92047 0.99436 0.31023 0.0
C434 C 0.95856 0.97254 0.32983 0.0
C435 C 0.93251 1.00396 0.35579 0.0
C436 C 0.91586 0.00783 0.33349 0.0
C437 C 0.95423 0.98609 0.35417 0.0
H438 H 0.94513 0.96706 0.28917 0.0
H439 H 0.89943 0.02187 0.33469 0.0
C440 C 0.85295 0.01535 0.19792 0.0
N441 N 0.84326 0.02644 0.14437 0.0
C442 C 0.8445 0.99499 0.18059 0.0
C443 C 0.85602 0.04143 0.18811 0.0
C444 C 0.83982 1.00097 0.15356 0.0
C445 C 0.85116 0.04662 0.16096 0.0
C446 C 0.90888 0.94815 0.24511 0.0
C447 C 0.9173 0.93882 0.22006 0.0
C448 C 0.90603 0.9301 0.26639 0.0
C449 C 0.92214 0.91146 0.21658 0.0
C450 C 0.91105 0.90289 0.26212 0.0
N451 N 0.9189 0.8942 0.23749 0.0
C452 C 0.94124 0.03216 0.20053 0.0
C453 C 0.91562 1.0013 0.17502 0.0
C454 C 0.95833 0.0367 0.17877 0.0
N455 N 0.92025 0.01484 0.19827 0.0
C456 C 0.93226 0.00516 0.15278 0.0
C457 C 0.954 0.02307 0.15446 0.0
H458 H 0.94492 0.04226 0.21937 0.0
H459 H 0.89918 0.98722 0.17379 0.0
C460 C 0.8205 0.94459 0.26156 0.0
N461 N 0.84147 0.94851 0.24458 0.0
C462 C 0.80354 0.92246 0.25841 0.0
C463 C 0.8297 0.90897 0.21999 0.0
C464 C 0.8462 0.93131 0.22396 0.0
C465 C 0.808 0.90426 0.23736 0.0
H466 H 0.81674 0.95881 0.27746 0.0
H467 H 0.86262 0.93506 0.21035 0.0
O468 O 0.90398 0.03431 0.25966 0.0
O469 O 0.85803 0.9994 0.28409 0.0
O470 O 0.85785 0.00981 0.22441 0.0
O471 O 0.90383 0.97487 0.24882 0.0
H472 H 0.92034 0.05666 0.30506 0.0
H473 H 0.89984 0.07223 0.22256 0.0
H474 H 0.92868 0.10526 0.31138 0.0
H475 H 0.90827 0.1206 0.23032 0.0
H476 H 0.85362 0.94156 0.35462 0.0
H477 H 0.84199 0.03395 0.32105 0.0
H478 H 0.86194 0.95136 0.30654 0.0
H479 H 0.83374 0.02272 0.36883 0.0
H480 H 0.83428 0.11297 0.30599 0.0
H481 H 0.7873 0.08981 0.23667 0.0
H482 H 0.97532 0.95895 0.32749 0.0
H483 H 0.92831 0.01474 0.37416 0.0
H484 H 0.8417 0.97477 0.18786 0.0
H485 H 0.86191 0.05755 0.20133 0.0
H486 H 0.83345 0.98536 0.13989 0.0
H487 H 0.85358 0.0667 0.15309 0.0
H488 H 0.91994 0.9525 0.20344 0.0
H489 H 0.90019 0.93702 0.28606 0.0
H490 H 0.92848 0.90395 0.19724 0.0
H491 H 0.9088 0.8887 0.27841 0.0
H492 H 0.9751 0.05033 0.18117 0.0
H493 H 0.92804 0.99432 0.13442 0.0
H494 H 0.78679 0.91993 0.272 0.0
H495 H 0.83401 0.89543 0.20358 0.0
Li496 Li 0.25145 0.1459 0.53121 0.0
Li497 Li 0.23053 0.11213 0.50154 0.0
Li498 Li 0.28077 0.11219 0.51051 0.0
Li499 Li 0.25997 0.14611 0.48086 0.0
C500 C 0.24657 0.10129 0.56262 0.0
N501 N 0.23877 0.09205 0.61678 0.0
C502 C 0.22156 0.09274 0.57198 0.0
C503 C 0.26773 0.1047 0.58077 0.0
C504 C 0.21798 0.08828 0.59944 0.0
C505 C 0.26336 0.10006 0.60808 0.0
C506 C 0.19954 0.15714 0.49498 0.0
C507 C 0.16325 0.1599 0.46295 0.0
N508 N 0.14635 0.16738 0.48298 0.0
C509 C 0.18189 0.1652 0.51517 0.0
C510 C 0.19023 0.15476 0.4686 0.0
C511 C 0.15504 0.17016 0.50873 0.0
C512 C 0.26351 0.18898 0.56633 0.0
N513 N 0.24623 0.16826 0.56219 0.0
C514 C 0.22132 0.18031 0.60141 0.0
C515 C 0.22533 0.16377 0.57914 0.0
C516 C 0.23894 0.20181 0.60629 0.0
C517 C 0.26031 0.20598 0.58838 0.0
H518 H 0.27966 0.19253 0.55231 0.0
H519 H 0.21154 0.14751 0.57524 0.0
C520 C 0.2019 0.06863 0.47871 0.0
N521 N 0.19965 0.08963 0.49593 0.0
C522 C 0.18009 0.05157 0.47411 0.0
C523 C 0.15412 0.07764 0.50551 0.0
C524 C 0.1764 0.09427 0.50939 0.0
C525 C 0.15576 0.05593 0.48761 0.0
H526 H 0.22074 0.06491 0.4687 0.0
H527 H 0.17519 0.1107 0.52343 0.0
C528 C 0.31213 0.15676 0.51624 0.0
N529 N 0.36591 0.16601 0.52638 0.0
C530 C 0.32916 0.16497 0.49552 0.0
C531 C 0.32238 0.15371 0.5422 0.0
C532 C 0.3563 0.16943 0.50102 0.0
C533 C 0.34964 0.15835 0.54691 0.0
C534 C 0.26419 0.10106 0.44944 0.0
C535 C 0.28897 0.09227 0.43977 0.0
C536 C 0.24269 0.10415 0.43164 0.0
C537 C 0.29198 0.08729 0.41234 0.0
C538 C 0.24648 0.09897 0.40436 0.0
N539 N 0.27086 0.09076 0.39534 0.0
C540 C 0.30963 0.06901 0.53368 0.0
C541 C 0.33461 0.09407 0.50196 0.0
C542 C 0.33141 0.05191 0.53809 0.0
N543 N 0.31162 0.08972 0.51599 0.0
C544 C 0.35687 0.07743 0.50568 0.0
C545 C 0.35548 0.05597 0.52397 0.0
H546 H 0.291 0.06555 0.54418 0.0
H547 H 0.33562 0.11029 0.48761 0.0
C548 C 0.24871 0.19022 0.4468 0.0
N549 N 0.26514 0.16869 0.44996 0.0
C550 C 0.25181 0.20744 0.42485 0.0
C551 C 0.28897 0.18032 0.40989 0.0
C552 C 0.28512 0.16362 0.43213 0.0
C553 C 0.2722 0.20265 0.40599 0.0
H554 H 0.23324 0.19415 0.46144 0.0
H555 H 0.29844 0.14686 0.43538 0.0
O556 O 0.25038 0.106 0.53581 0.0
O557 O 0.22586 0.15199 0.50097 0.0
O558 O 0.28553 0.15209 0.51116 0.0
O559 O 0.26095 0.10626 0.47621 0.0
H560 H 0.20505 0.08969 0.55823 0.0
H561 H 0.28735 0.11072 0.57384 0.0
H562 H 0.19867 0.08183 0.60697 0.0
H563 H 0.27953 0.10275 0.62235 0.0
H564 H 0.15578 0.15803 0.44263 0.0
H565 H 0.18877 0.16745 0.53563 0.0
H566 H 0.20372 0.14924 0.45261 0.0
H567 H 0.14113 0.17621 0.52421 0.0
H568 H 0.20468 0.17619 0.61474 0.0
H569 H 0.27411 0.22256 0.59105 0.0
H570 H 0.18245 0.03481 0.46052 0.0
H571 H 0.13575 0.08185 0.51627 0.0
H572 H 0.32156 0.16773 0.47538 0.0
H573 H 0.30942 0.14799 0.55858 0.0
H574 H 0.36973 0.1756 0.48513 0.0
H575 H 0.35784 0.15594 0.56689 0.0
H576 H 0.30574 0.08946 0.45324 0.0
H577 H 0.22322 0.11026 0.43884 0.0
H578 H 0.3111 0.08066 0.40457 0.0
H579 H 0.23002 0.10139 0.39037 0.0
H580 H 0.32923 0.03536 0.55201 0.0
H581 H 0.37503 0.08144 0.49447 0.0
H582 H 0.23823 0.22423 0.42261 0.0
H583 H 0.30529 0.1761 0.39623 0.0
Li584 Li 0.39821 0.50003 0.78 0.0
Li585 Li 0.36437 0.52993 0.75939 0.0
Li586 Li 0.36411 0.47972 0.75044 0.0
Li587 Li 0.39803 0.50941 0.7298 0.0
C588 C 0.35336 0.49384 0.81118 0.0
N589 N 0.34355 0.48244 0.86461 0.0
C590 C 0.34525 0.51416 0.82866 0.0
C591 C 0.35601 0.46763 0.8208 0.0
C592 C 0.34051 0.50802 0.85562 0.0
C593 C 0.3511 0.46229 0.84789 0.0
C594 C 0.40935 0.56108 0.76454 0.0
C595 C 0.41127 0.60661 0.74822 0.0
N596 N 0.41931 0.61496 0.77295 0.0
C597 C 0.41795 0.57007 0.7897 0.0
C598 C 0.40627 0.57945 0.74354 0.0
C599 C 0.42277 0.5974 0.79359 0.0
C600 C 0.44183 0.47681 0.80816 0.0
N601 N 0.42086 0.49402 0.81076 0.0
C602 C 0.43317 0.50292 0.8564 0.0
C603 C 0.41639 0.50714 0.83425 0.0
C604 C 0.45486 0.48505 0.85438 0.0
C605 C 0.45905 0.4719 0.82981 0.0
H606 H 0.44541 0.46706 0.78914 0.0
H607 H 0.39998 0.52117 0.83576 0.0
C608 C 0.321 0.56482 0.74777 0.0
N609 N 0.34202 0.56088 0.76479 0.0
C610 C 0.304 0.58685 0.75102 0.0
C611 C 0.33024 0.60025 0.78956 0.0
C612 C 0.34678 0.57801 0.7855 0.0
C613 C 0.30847 0.60494 0.77219 0.0
H614 H 0.31723 0.55067 0.73178 0.0
H615 H 0.36325 0.57426 0.79912 0.0
C616 C 0.40886 0.44824 0.74574 0.0
N617 N 0.41851 0.39418 0.73837 0.0
C618 C 0.41738 0.43876 0.72078 0.0
C619 C 0.4057 0.43027 0.76706 0.0
C620 C 0.42203 0.41135 0.71742 0.0
C621 C 0.41055 0.40302 0.76291 0.0
C622 C 0.35329 0.51593 0.69866 0.0
C623 C 0.34483 0.49574 0.68113 0.0
C624 C 0.35645 0.54209 0.68907 0.0
C625 C 0.34024 0.50195 0.65415 0.0
C626 C 0.35167 0.54751 0.66195 0.0
N627 N 0.34377 0.52749 0.64518 0.0
C628 C 0.32059 0.44493 0.76198 0.0
C629 C 0.34622 0.43179 0.72427 0.0
C630 C 0.30357 0.42286 0.75872 0.0
N631 N 0.34156 0.44889 0.745 0.0
C632 C 0.32965 0.40951 0.7202 0.0
C633 C 0.30797 0.40476 0.73758 0.0
H634 H 0.3169 0.45907 0.77797 0.0
H635 H 0.36264 0.43557 0.71067 0.0
C636 C 0.44131 0.53252 0.70102 0.0
N637 N 0.42043 0.51505 0.69892 0.0
C638 C 0.45836 0.53699 0.67921 0.0
C639 C 0.43244 0.5051 0.65349 0.0
C640 C 0.41584 0.50132 0.67578 0.0
C641 C 0.45408 0.52315 0.65501 0.0
H642 H 0.44495 0.54278 0.71977 0.0
H643 H 0.39948 0.48714 0.67467 0.0
O644 O 0.35829 0.49952 0.78475 0.0
O645 O 0.40433 0.53441 0.76043 0.0
O646 O 0.40397 0.475 0.74933 0.0
O647 O 0.35811 0.51016 0.72512 0.0
H648 H 0.34278 0.53447 0.82155 0.0
H649 H 0.36161 0.45155 0.80746 0.0
H650 H 0.33442 0.52361 0.8694 0.0
H651 H 0.3532 0.44211 0.8556 0.0
H652 H 0.40883 0.62104 0.73216 0.0
H653 H 0.42075 0.55615 0.8061 0.0
H654 H 0.40025 0.5728 0.7238 0.0
H655 H 0.42925 0.60465 0.81301 0.0
H656 H 0.42908 0.51341 0.87496 0.0
H657 H 0.47579 0.45834 0.82715 0.0
H658 H 0.2872 0.58937 0.73742 0.0
H659 H 0.33458 0.61372 0.80605 0.0
H660 H 0.42024 0.45236 0.70414 0.0
H661 H 0.39977 0.43731 0.78665 0.0
H662 H 0.42845 0.40372 0.69816 0.0
H663 H 0.40806 0.38889 0.77923 0.0
H664 H 0.34198 0.47546 0.68823 0.0
H665 H 0.36234 0.55807 0.70245 0.0
H666 H 0.33388 0.48647 0.64033 0.0
H667 H 0.35416 0.56765 0.65426 0.0
H668 H 0.28684 0.4203 0.77232 0.0
H669 H 0.33392 0.39604 0.70372 0.0
H670 H 0.47505 0.55073 0.68148 0.0
H671 H 0.42826 0.4941 0.63522 0.0
Li672 Li 0.7805 0.39661 0.50059 0.0
Li673 Li 0.75978 0.36284 0.53042 0.0
Li674 Li 0.75113 0.36272 0.48011 0.0
Li675 Li 0.73028 0.39666 0.50946 0.0
C676 C 0.81189 0.35221 0.49536 0.0
N677 N 0.86573 0.34333 0.48564 0.0
C678 C 0.82886 0.34401 0.51619 0.0
C679 C 0.82223 0.35545 0.4695 0.0
C680 C 0.85604 0.33973 0.5109 0.0
C681 C 0.84952 0.351 0.46501 0.0
C682 C 0.76397 0.40822 0.56156 0.0
C683 C 0.74611 0.41098 0.60645 0.0
N684 N 0.77052 0.41917 0.61558 0.0
C685 C 0.78878 0.417 0.57133 0.0
C686 C 0.74238 0.40548 0.5792 0.0
C687 C 0.79173 0.42231 0.59872 0.0
C688 C 0.80947 0.43958 0.47712 0.0
N689 N 0.81138 0.41908 0.49505 0.0
C690 C 0.85663 0.43153 0.50553 0.0
C691 C 0.83434 0.4149 0.50928 0.0
C692 C 0.85531 0.4528 0.48702 0.0
C693 C 0.83128 0.45667 0.47269 0.0
H694 H 0.79086 0.44289 0.46643 0.0
H695 H 0.8353 0.39883 0.5238 0.0
C696 C 0.74877 0.31871 0.56445 0.0
N697 N 0.76504 0.3404 0.56139 0.0
C698 C 0.75196 0.30152 0.58642 0.0
C699 C 0.78895 0.32898 0.60156 0.0
C700 C 0.78498 0.34566 0.57932 0.0
C701 C 0.77232 0.30649 0.60538 0.0
H702 H 0.73334 0.31462 0.54972 0.0
H703 H 0.7982 0.36253 0.57613 0.0
C704 C 0.74591 0.40682 0.44831 0.0
N705 N 0.73741 0.41506 0.39405 0.0
C706 C 0.7207 0.41486 0.43897 0.0
C707 C 0.7669 0.40342 0.43009 0.0
C708 C 0.71677 0.41882 0.41146 0.0
C709 C 0.76218 0.40755 0.40273 0.0
C710 C 0.69941 0.35149 0.51663 0.0
C711 C 0.68149 0.3431 0.4967 0.0
C712 C 0.6905 0.354 0.54309 0.0
C713 C 0.65478 0.33796 0.50347 0.0
C714 C 0.66364 0.34868 0.54907 0.0
N715 N 0.64647 0.34088 0.5293 0.0
C716 C 0.76336 0.3196 0.44526 0.0
C717 C 0.72455 0.34393 0.43265 0.0
C718 C 0.76006 0.30228 0.42345 0.0
N719 N 0.74581 0.34003 0.44938 0.0
C720 C 0.72042 0.32703 0.41064 0.0
C721 C 0.7383 0.30582 0.40579 0.0
H722 H 0.77979 0.31651 0.45912 0.0
H723 H 0.71058 0.35999 0.43651 0.0
C724 C 0.70184 0.44043 0.53174 0.0
N725 N 0.69944 0.41912 0.5149 0.0
C726 C 0.68005 0.45746 0.53622 0.0
C727 C 0.65376 0.43073 0.50546 0.0
C728 C 0.67603 0.41413 0.5017 0.0
C729 C 0.65557 0.45274 0.52297 0.0
H730 H 0.7208 0.44441 0.54154 0.0
H731 H 0.67469 0.39746 0.48796 0.0
O732 O 0.78526 0.35673 0.50023 0.0
O733 O 0.76079 0.40272 0.53482 0.0
O734 O 0.75006 0.40261 0.47516 0.0
O735 O 0.72561 0.35681 0.51031 0.0
H736 H 0.82119 0.3411 0.53625 0.0
H737 H 0.80932 0.3612 0.45304 0.0
H738 H 0.86943 0.33356 0.52687 0.0
H739 H 0.8578 0.35356 0.44511 0.0
H740 H 0.72957 0.40884 0.62032 0.0
H741 H 0.80564 0.41956 0.55797 0.0
H742 H 0.72288 0.39941 0.57191 0.0
H743 H 0.81087 0.42893 0.60657 0.0
H744 H 0.87476 0.42764 0.51691 0.0
H745 H 0.82914 0.47307 0.45858 0.0
H746 H 0.73849 0.28461 0.58858 0.0
H747 H 0.80525 0.33335 0.61529 0.0
H748 H 0.7043 0.41789 0.45277 0.0
H749 H 0.78667 0.39779 0.43699 0.0
H750 H 0.69731 0.42486 0.40395 0.0
H751 H 0.77824 0.40486 0.38841 0.0
H752 H 0.68807 0.34073 0.47619 0.0
H753 H 0.70421 0.35976 0.55888 0.0
H754 H 0.64067 0.33166 0.4882 0.0
H755 H 0.65647 0.35066 0.56946 0.0
H756 H 0.77409 0.28594 0.42079 0.0
H757 H 0.70347 0.33065 0.39748 0.0
H758 H 0.68252 0.47446 0.5495 0.0
H759 H 0.63527 0.42625 0.4949 0.0
Li760 Li 0.64722 0.97965 0.76059 0.0
Li761 Li 0.61332 0.00922 0.78128 0.0
Li762 Li 0.61329 1.00011 0.73103 0.0
Li763 Li 0.64709 0.02989 0.75178 0.0
C764 C 0.60244 0.94816 0.76555 0.0
N765 N 0.59281 0.89415 0.77361 0.0
C766 C 0.594 0.93888 0.79065 0.0
C767 C 0.60552 0.93001 0.74444 0.0
C768 C 0.58935 0.91149 0.79436 0.0
C769 C 0.60069 0.90278 0.74894 0.0
C770 C 0.65826 0.01551 0.81246 0.0
C771 C 0.66031 0.04681 0.8493 0.0
N772 N 0.6682 0.02663 0.86593 0.0
C773 C 0.66671 0.99516 0.82985 0.0
C774 C 0.65532 0.0416 0.82219 0.0
C775 C 0.67152 1.00116 0.85683 0.0
C776 C 0.69078 0.94515 0.74894 0.0
N777 N 0.66979 0.94885 0.76593 0.0
C778 C 0.68189 0.90941 0.79061 0.0
C779 C 0.6652 0.93158 0.7866 0.0
C780 C 0.70361 0.90495 0.77324 0.0
C781 C 0.70791 0.92319 0.75214 0.0
H782 H 0.69442 0.95942 0.73301 0.0
H783 H 0.64876 0.93515 0.80021 0.0
C784 C 0.56996 0.03217 0.80989 0.0
N785 N 0.59092 0.01487 0.81214 0.0
C786 C 0.553 0.03679 0.83172 0.0
C787 C 0.57914 0.00534 0.85776 0.0
C788 C 0.59564 1.00141 0.83545 0.0
C789 C 0.55745 0.02326 0.8561 0.0
H790 H 0.5662 0.04222 0.79101 0.0
H791 H 0.61206 0.98734 0.83669 0.0
C792 C 0.65807 0.99396 0.69996 0.0
N793 N 0.6677 0.98257 0.64654 0.0
C794 C 0.66642 0.01423 0.68245 0.0
C795 C 0.65507 0.9678 0.69038 0.0
C796 C 0.67107 0.0081 0.6555 0.0
C797 C 0.6599 0.96247 0.66329 0.0
C798 C 0.6022 0.06112 0.74696 0.0
C799 C 0.59356 0.07056 0.72196 0.0
C800 C 0.60539 0.07911 0.76821 0.0
C801 C 0.58882 0.09795 0.71848 0.0
C802 C 0.60045 0.10636 0.76395 0.0
N803 N 0.59238 0.11514 0.73936 0.0
C804 C 0.57012 0.97685 0.70205 0.0
C805 C 0.59545 0.00825 0.67694 0.0
C806 C 0.55317 0.97229 0.68012 0.0
N807 N 0.59089 0.99445 0.70007 0.0
C808 C 0.57895 1.00439 0.65453 0.0
C809 C 0.55743 0.98619 0.65592 0.0
H810 H 0.5665 0.96653 0.72079 0.0
H811 H 0.61173 0.02252 0.67593 0.0
C812 C 0.69039 0.0649 0.76346 0.0
N813 N 0.66943 0.06085 0.7464 0.0
C814 C 0.70735 0.08702 0.76016 0.0
C815 C 0.68119 0.10023 0.72148 0.0
C816 C 0.66469 0.07791 0.72559 0.0
C817 C 0.70289 0.10504 0.7389 0.0
H818 H 0.69416 0.05079 0.77951 0.0
H819 H 0.64827 0.07406 0.71194 0.0
O820 O 0.6073 0.9749 0.76162 0.0
O821 O 0.65324 0.00995 0.78601 0.0
O822 O 0.65319 0.99965 0.72638 0.0
O823 O 0.60718 0.03438 0.75067 0.0
H824 H 0.59118 0.95263 0.80713 0.0
H825 H 0.6114 0.93688 0.72474 0.0
H826 H 0.58299 0.90403 0.81374 0.0
H827 H 0.60312 0.88851 0.73279 0.0
H828 H 0.658 0.0669 0.85709 0.0
H829 H 0.6694 0.97493 0.82265 0.0
H830 H 0.64945 0.05771 0.80893 0.0
H831 H 0.67788 0.98555 0.87054 0.0
H832 H 0.6777 0.89581 0.80706 0.0
H833 H 0.72467 0.92084 0.73854 0.0
H834 H 0.53626 0.05041 0.82934 0.0
H835 H 0.58344 0.99457 0.87617 0.0
H836 H 0.66916 0.03451 0.68954 0.0
H837 H 0.64927 0.95176 0.70373 0.0
H838 H 0.67736 0.02365 0.6417 0.0
H839 H 0.65754 0.94232 0.6556 0.0
H840 H 0.59066 0.05693 0.70537 0.0
H841 H 0.61141 0.07211 0.78784 0.0
H842 H 0.58231 0.10553 0.69918 0.0
H843 H 0.60296 0.1205 0.78021 0.0
H844 H 0.53656 0.95844 0.68228 0.0
H845 H 0.58311 0.01543 0.63627 0.0
H846 H 0.7241 0.08964 0.7738 0.0
H847 H 0.67689 0.11365 0.70491 0.0
Li848 Li 0.03098 0.25983 0.86319 0.0
Li849 Li 1.00152 0.28069 0.89718 0.0
Li850 Li 0.01059 0.23061 0.89685 0.0
Li851 Li 0.98076 0.25104 0.86298 0.0
C852 C 0.0623 0.26738 0.90692 0.0
N853 N 0.11573 0.28047 0.91414 0.0
C854 C 0.06959 0.29337 0.91449 0.0
C855 C 0.08216 0.24795 0.90341 0.0
C856 C 0.09671 0.29961 0.91796 0.0
C857 C 0.10906 0.25499 0.90703 0.0
C858 C 0.99333 0.31079 0.85034 0.0
C859 C 0.95951 0.34509 0.84591 0.0
N860 N 0.9784 0.36232 0.83635 0.0
C861 C 0.01234 0.32874 0.84017 0.0
C862 C 0.96665 0.31893 0.85297 0.0
C863 C 1.00442 0.35474 0.83333 0.0
C864 C 0.06706 0.24692 0.82126 0.0
N865 N 0.06181 0.26529 0.8407 0.0
C866 C 0.09996 0.2913 0.8274 0.0
C867 C 0.07765 0.28729 0.84389 0.0
C868 C 0.106 0.27259 0.8072 0.0
C869 C 0.08914 0.25015 0.80428 0.0
H870 H 0.05394 0.22985 0.81872 0.0
H871 H 0.07289 0.30188 0.85916 0.0
C872 C 0.98274 0.30714 0.94357 0.0
N873 N 0.99579 0.31124 0.91996 0.0
C874 C 0.9781 0.32848 0.96112 0.0
C875 C 1.00078 0.35792 0.93 0.0
C876 C 0.00501 0.33599 0.91308 0.0
C877 C 0.98714 0.35435 0.95443 0.0
H878 H 0.97593 0.28721 0.94881 0.0
H879 H 0.01612 0.3387 0.89471 0.0
C880 C 0.01585 0.1989 0.85358 0.0
N881 N 0.02536 0.14468 0.84738 0.0
C882 C 0.99525 0.18185 0.84508 0.0
C883 C 0.04139 0.18843 0.85853 0.0
C884 C 1.00043 0.15448 0.84215 0.0
C885 C 0.04577 0.16096 0.8554 0.0
C886 C 0.94964 0.24875 0.90927 0.0
C887 C 0.93831 0.22444 0.91747 0.0
C888 C 0.93371 0.27177 0.90824 0.0
C889 C 0.91104 0.22344 0.92387 0.0
C890 C 0.90654 0.26996 0.91482 0.0
N891 N 0.89585 0.24602 0.92239 0.0
C892 C 0.03514 0.20091 0.93878 0.0
C893 C 1.00064 0.17743 0.91598 0.0
C894 C 0.03955 0.17898 0.95575 0.0
N895 N 0.01602 0.19974 0.9193 0.0
C896 C 1.0044 0.15502 0.93246 0.0
C897 C 0.02406 0.15558 0.95275 0.0
H898 H 0.04682 0.219 0.94135 0.0
H899 H 0.98534 0.17704 0.90058 0.0
C900 C 0.94656 0.2615 0.81857 0.0
N901 N 0.9498 0.2456 0.84056 0.0
C902 C 0.92438 0.25812 0.80167 0.0
C903 C 0.90961 0.2215 0.8298 0.0
C904 C 0.93198 0.22573 0.84627 0.0
C905 C 0.90553 0.23788 0.80717 0.0
H906 H 0.96134 0.27669 0.81398 0.0
H907 H 0.9353 0.21286 0.86341 0.0
O908 O 0.03584 0.26097 0.90321 0.0
O909 O 1.00079 0.2853 0.85729 0.0
O910 O 0.01107 0.2257 0.85688 0.0
O911 O 0.9763 0.25007 0.90282 0.0
H912 H 0.0545 0.3086 0.9175 0.0
H913 H 0.07687 0.22766 0.89797 0.0
H914 H 0.10264 0.31969 0.92365 0.0
H915 H 0.12465 0.24018 0.90424 0.0
H916 H 0.93894 0.35166 0.84792 0.0
H917 H 0.033 0.32274 0.83769 0.0
H918 H 0.95154 0.30513 0.86009 0.0
H919 H 0.01897 0.36889 0.8256 0.0
H920 H 0.11245 0.30879 0.83059 0.0
H921 H 0.09264 0.23544 0.78871 0.0
H922 H 0.96734 0.32478 0.97963 0.0
H923 H 0.00861 0.37736 0.92425 0.0
H924 H 0.97545 0.18961 0.84089 0.0
H925 H 0.05764 0.20138 0.86474 0.0
H926 H 0.98463 0.14103 0.83574 0.0
H927 H 0.06541 0.15258 0.85933 0.0
H928 H 0.95037 0.20649 0.9187 0.0
H929 H 0.94227 0.29089 0.9027 0.0
H930 H 0.90198 0.2047 0.93004 0.0
H931 H 0.89398 0.28762 0.91402 0.0
H932 H 0.0546 0.18058 0.97139 0.0
H933 H 0.99215 0.13738 0.92917 0.0
H934 H 0.9223 0.27088 0.78417 0.0
H935 H 0.89558 0.20569 0.83484 0.0
Li936 Li 0.53098 0.75943 0.36326 0.0
Li937 Li 0.50144 0.78009 0.39717 0.0
Li938 Li 0.51049 0.72993 0.39702 0.0
Li939 Li 0.48069 0.75065 0.36316 0.0
C940 C 0.56254 0.76459 0.40769 0.0
N941 N 0.61666 0.77319 0.41645 0.0
C942 C 0.57168 0.78969 0.41621 0.0
C943 C 0.58089 0.74375 0.40407 0.0
C944 C 0.59913 0.79367 0.42042 0.0
C945 C 0.60817 0.74852 0.40847 0.0
C946 C 0.49455 0.81107 0.35191 0.0
C947 C 0.4623 0.84698 0.34882 0.0
N948 N 0.4822 0.86404 0.34122 0.0
C949 C 0.51461 0.82888 0.34372 0.0
C950 C 0.46812 0.8201 0.35417 0.0
C951 C 0.508 0.85561 0.33854 0.0
C952 C 0.56601 0.74747 0.32017 0.0
N953 N 0.56185 0.76483 0.34077 0.0
C954 C 0.60098 0.78989 0.32848 0.0
C955 C 0.57873 0.78586 0.34507 0.0
C956 C 0.6059 0.77217 0.30713 0.0
C957 C 0.58804 0.75069 0.30313 0.0
H958 H 0.55206 0.73122 0.31677 0.0
H959 H 0.57483 0.7997 0.36125 0.0
C960 C 0.47893 0.80842 0.44096 0.0
N961 N 0.49585 0.81086 0.4197 0.0
C962 C 0.47439 0.83015 0.45804 0.0
C963 C 0.50522 0.85646 0.43148 0.0
C964 C 0.50905 0.83425 0.41483 0.0
C965 C 0.48765 0.85461 0.45344 0.0
H966 H 0.46913 0.78947 0.44485 0.0
H967 H 0.52286 0.83562 0.39821 0.0
C968 C 0.51593 0.6987 0.35252 0.0
N969 N 0.5258 0.64493 0.34357 0.0
C970 C 0.49515 0.6817 0.34434 0.0
C971 C 0.54182 0.68842 0.35569 0.0
C972 C 0.50052 0.65456 0.34003 0.0
C973 C 0.54638 0.66117 0.35121 0.0
C974 C 0.44946 0.74643 0.40851 0.0
C975 C 0.43966 0.72172 0.41745 0.0
C976 C 0.43185 0.76801 0.40551 0.0
C977 C 0.41227 0.71886 0.42268 0.0
C978 C 0.4046 0.76437 0.41094 0.0
N979 N 0.39544 0.74005 0.4193 0.0
C980 C 0.53411 0.70073 0.43985 0.0
C981 C 0.50172 0.67614 0.41521 0.0
C982 C 0.53858 0.67883 0.45683 0.0
N983 N 0.51605 0.69899 0.41941 0.0
C984 C 0.5055 0.65377 0.43173 0.0
C985 C 0.52415 0.65491 0.45293 0.0
H986 H 0.54488 0.71926 0.44319 0.0
H987 H 0.48711 0.67533 0.39918 0.0
C988 C 0.44656 0.76165 0.31897 0.0
N989 N 0.44974 0.74536 0.34066 0.0
C990 C 0.42455 0.75845 0.30182 0.0
C991 C 0.4096 0.72144 0.32932 0.0
C992 C 0.43189 0.7254 0.34596 0.0
C993 C 0.40566 0.73808 0.30684 0.0
H994 H 0.46122 0.7771 0.31487 0.0
H995 H 0.43517 0.71218 0.36284 0.0
O996 O 0.53575 0.76039 0.40322 0.0
O997 O 0.50071 0.78485 0.35725 0.0
O998 O 0.51099 0.7253 0.35706 0.0
O999 O 0.47621 0.74953 0.40307 0.0
H1000 H 0.55779 0.80596 0.41942 0.0
H1001 H 0.57413 0.72407 0.39807 0.0
H1002 H 0.60649 0.81305 0.42684 0.0
H1003 H 0.62259 0.73259 0.40561 0.0
H1004 H 0.44194 0.85424 0.3506 0.0
H1005 H 0.5351 0.82221 0.34154 0.0
H1006 H 0.45223 0.80648 0.35977 0.0
H1007 H 0.52337 0.86965 0.33239 0.0
H1008 H 0.61427 0.80661 0.33247 0.0
H1009 H 0.59073 0.7368 0.28666 0.0
H1010 H 0.46105 0.82764 0.475 0.0
H1011 H 0.51578 0.87494 0.42708 0.0
H1012 H 0.47507 0.68932 0.34148 0.0
H1013 H 0.55824 0.70136 0.36142 0.0
H1014 H 0.48458 0.64115 0.33388 0.0
H1015 H 0.56631 0.65294 0.35373 0.0
H1016 H 0.453 0.70488 0.42021 0.0
H1017 H 0.43917 0.78743 0.3993 0.0
H1018 H 0.40439 0.69979 0.42943 0.0
H1019 H 0.39075 0.78089 0.40859 0.0
H1020 H 0.5528 0.68083 0.47319 0.0
H1021 H 0.49404 0.63573 0.42783 0.0
H1022 H 0.42228 0.77193 0.2849 0.0
H1023 H 0.39593 0.70514 0.33373 0.0
Li1024 Li 0.00956 0.77975 0.61365 0.0
Li1025 Li 0.98004 0.75873 0.64758 0.0
Li1026 Li 0.03025 0.74991 0.64782 0.0
Li1027 Li 1.00036 0.72967 0.61388 0.0
C1028 C 0.01804 0.80953 0.66058 0.0
N1029 N 0.03354 0.86083 0.67482 0.0
C1030 C 0.99919 0.82762 0.67066 0.0
C1031 C 0.04485 0.81741 0.65818 0.0
C1032 C 0.00739 0.8535 0.67763 0.0
C1033 C 0.05227 0.84345 0.66536 0.0
C1034 C 0.94872 0.76632 0.60389 0.0
C1035 C 0.90199 0.75366 0.60399 0.0
N1036 N 0.89523 0.77908 0.59674 0.0
C1037 C 0.94133 0.79224 0.59617 0.0
C1038 C 0.92893 0.74679 0.60758 0.0
C1039 C 0.91418 0.79832 0.59275 0.0
C1040 C 0.02835 0.80653 0.56732 0.0
N1041 N 0.01527 0.81042 0.59093 0.0
C1042 C 0.01002 0.85711 0.58095 0.0
C1043 C 0.00591 0.83507 0.59784 0.0
C1044 C 0.02369 0.85376 0.55652 0.0
C1045 C 0.03288 0.82799 0.54981 0.0
H1046 H 0.03526 0.78669 0.56205 0.0
H1047 H 0.99478 0.8376 0.61622 0.0
C1048 C 0.94377 0.74584 0.68949 0.0
N1049 N 0.94922 0.76422 0.67005 0.0
C1050 C 0.92173 0.74921 0.70647 0.0
C1051 C 0.91132 0.79047 0.68329 0.0
C1052 C 0.9336 0.78633 0.66681 0.0
C1053 C 0.9051 0.77179 0.70354 0.0
H1054 H 0.95673 0.72866 0.69205 0.0
H1055 H 0.93852 0.80091 0.65153 0.0
C1056 C 0.06133 0.74796 0.60137 0.0
N1057 N 0.11504 0.74549 0.58791 0.0
C1058 C 0.0726 0.72377 0.59291 0.0
C1059 C 0.07728 0.771 0.6025 0.0
C1060 C 0.09982 0.72289 0.58634 0.0
C1061 C 0.10441 0.76932 0.59574 0.0
C1062 C 0.99523 0.6977 0.6571 0.0
C1063 C 0.01601 0.68076 0.66532 0.0
C1064 C 0.9697 0.68707 0.65236 0.0
C1065 C 0.011 0.65334 0.6682 0.0
C1066 C 0.96549 0.65954 0.65544 0.0
N1067 N 0.98607 0.64338 0.6632 0.0
C1068 C 0.06389 0.75976 0.69269 0.0
C1069 C 0.0794 0.72505 0.66435 0.0
C1070 C 0.08592 0.75636 0.70978 0.0
N1071 N 0.06115 0.74439 0.67033 0.0
C1072 C 0.10169 0.72087 0.68095 0.0
C1073 C 0.10525 0.73666 0.70407 0.0
H1074 H 0.04888 0.77464 0.69737 0.0
H1075 H 0.07641 0.71247 0.64698 0.0
C1076 C 0.97575 0.70026 0.57183 0.0
N1077 N 0.99486 0.69895 0.59131 0.0
C1078 C 0.97134 0.67849 0.55471 0.0
C1079 C 0.00646 0.65438 0.57788 0.0
C1080 C 0.01023 0.67665 0.59449 0.0
C1081 C 0.98681 0.65509 0.55756 0.0
H1082 H 0.96409 0.71835 0.56935 0.0
H1083 H 0.02553 0.67615 0.60988 0.0
O1084 O 0.01031 0.78415 0.65353 0.0
O1085 O 0.9752 0.76006 0.60758 0.0
O1086 O 0.03471 0.74915 0.60797 0.0
O1087 O 0.99983 0.72457 0.65386 0.0
H1088 H 0.97843 0.82181 0.67296 0.0
H1089 H 0.05984 0.80349 0.65115 0.0
H1090 H 0.99297 0.86775 0.68528 0.0
H1091 H 0.07295 0.84982 0.66352 0.0
H1092 H 0.88646 0.73878 0.60693 0.0
H1093 H 0.95637 0.80754 0.59302 0.0
H1094 H 0.93429 0.72655 0.61315 0.0
H1095 H 0.90817 0.81834 0.58694 0.0
H1096 H 1.00207 0.87645 0.58672 0.0
H1097 H 0.04367 0.82446 0.5313 0.0
H1098 H 0.91809 0.73451 0.72208 0.0
H1099 H 0.899 0.80806 0.68005 0.0
H1100 H 0.06052 0.70581 0.59161 0.0
H1101 H 0.06877 0.79004 0.60823 0.0
H1102 H 0.10884 0.70424 0.57997 0.0
H1103 H 0.11699 0.787 0.59661 0.0
H1104 H 0.03581 0.68866 0.66931 0.0
H1105 H 0.95332 0.69993 0.64637 0.0
H1106 H 0.02694 0.63998 0.6744 0.0
H1107 H 0.94587 0.65103 0.65168 0.0
H1108 H 0.08784 0.76921 0.72719 0.0
H1109 H 0.11566 0.70504 0.67599 0.0
H1110 H 0.95631 0.68021 0.53907 0.0
H1111 H 0.0187 0.63674 0.58106 0.0
Li1112 Li 0.50963 0.27831 0.11421 0.0
Li1113 Li 0.47945 0.26039 0.14725 0.0
Li1114 Li 0.52992 0.25057 0.14949 0.0
Li1115 Li 0.49911 0.23082 0.11384 0.0
C1116 C 0.51523 0.31206 0.15584 0.0
N1117 N 0.52523 0.36646 0.1596 0.0
C1118 C 0.49596 0.33054 0.14728 0.0
C1119 C 0.53961 0.32126 0.16633 0.0
C1120 C 0.5014 0.35795 0.1493 0.0
C1121 C 0.54426 0.34884 0.16809 0.0
C1122 C 0.44765 0.26627 0.1053 0.0
C1123 C 0.40164 0.25122 0.10696 0.0
N1124 N 0.39327 0.27665 0.10175 0.0
C1125 C 0.43857 0.29225 0.09986 0.0
C1126 C 0.42904 0.24557 0.10876 0.0
C1127 C 0.41101 0.29708 0.09817 0.0
C1128 C 0.50167 0.31053 0.06794 0.0
N1129 N 0.51728 0.30796 0.09023 0.0
C1130 C 0.54287 0.3466 0.07745 0.0
C1131 C 0.53801 0.32516 0.09488 0.0
C1132 C 0.52648 0.35029 0.05473 0.0
C1133 C 0.5058 0.33169 0.04997 0.0
H1134 H 0.48595 0.29609 0.06407 0.0
H1135 H 0.55096 0.32217 0.11202 0.0
C1136 C 0.44284 0.24684 0.18864 0.0
N1137 N 0.44868 0.26601 0.17009 0.0
C1138 C 0.42101 0.24992 0.20597 0.0
C1139 C 0.41155 0.29253 0.18498 0.0
C1140 C 0.43365 0.28869 0.1682 0.0
C1141 C 0.40495 0.27303 0.20431 0.0
H1142 H 0.45532 0.22922 0.19025 0.0
H1143 H 0.4387 0.30391 0.15369 0.0
C1144 C 0.55329 0.25735 0.09264 0.0
N1145 N 0.58902 0.27905 0.05629 0.0
C1146 C 0.54822 0.25545 0.0651 0.0
C1147 C 0.57658 0.27011 0.10172 0.0
C1148 C 0.56652 0.26662 0.04704 0.0
C1149 C 0.5944 0.28097 0.08301 0.0
C1150 C 0.49512 0.19869 0.15702 0.0
C1151 C 0.51691 0.1827 0.16448 0.0
C1152 C 0.47008 0.18682 0.15257 0.0
C1153 C 0.51338 0.15501 0.16694 0.0
C1154 C 0.46737 0.15906 0.1552 0.0
N1155 N 0.4889 0.14385 0.16225 0.0
C1156 C 0.56074 0.25618 0.19698 0.0
C1157 C 0.58021 0.22803 0.16406 0.0
C1158 C 0.58279 0.25245 0.21396 0.0
N1159 N 0.56 0.24427 0.17245 0.0
C1160 C 0.60242 0.22332 0.18063 0.0
C1161 C 0.60398 0.23582 0.20584 0.0
H1162 H 0.54423 0.26874 0.20327 0.0
H1163 H 0.57904 0.21872 0.14448 0.0
C1164 C 0.47439 0.20059 0.07231 0.0
N1165 N 0.49401 0.20003 0.09131 0.0
C1166 C 0.4704 0.17866 0.05531 0.0
C1167 C 0.50721 0.15607 0.07734 0.0
C1168 C 0.51059 0.17852 0.09382 0.0
C1169 C 0.48685 0.15588 0.05772 0.0
H1170 H 0.46203 0.21823 0.07007 0.0
H1171 H 0.52653 0.17883 0.10856 0.0
O1172 O 0.51031 0.28513 0.15393 0.0
O1173 O 0.47458 0.26113 0.10724 0.0
O1174 O 0.53533 0.24714 0.11064 0.0
O1175 O 0.49828 0.2258 0.15413 0.0
H1176 H 0.47727 0.32381 0.13862 0.0
H1177 H 0.55493 0.30731 0.17273 0.0
H1178 H 0.48672 0.37246 0.14257 0.0
H1179 H 0.56306 0.35623 0.17609 0.0
H1180 H 0.38704 0.23539 0.10968 0.0
H1181 H 0.45257 0.30863 0.0974 0.0
H1182 H 0.43565 0.22535 0.11278 0.0
H1183 H 0.40372 0.31711 0.09413 0.0
H1184 H 0.5595 0.35997 0.08159 0.0
H1185 H 0.49262 0.33365 0.03277 0.0
H1186 H 0.41712 0.23456 0.22085 0.0
H1187 H 0.39966 0.31053 0.18264 0.0
H1188 H 0.53021 0.24569 0.05782 0.0
H1189 H 0.58065 0.27194 0.123 0.0
H1190 H 0.5628 0.26546 0.02566 0.0
H1191 H 0.61243 0.29106 0.08974 0.0
H1192 H 0.53639 0.19152 0.16816 0.0
H1193 H 0.45292 0.19891 0.14715 0.0
H1194 H 0.53012 0.14238 0.17255 0.0
H1195 H 0.44813 0.14961 0.15167 0.0
H1196 H 0.58315 0.2622 0.23338 0.0
H1197 H 0.61842 0.21044 0.17363 0.0
H1198 H 0.45489 0.17981 0.04009 0.0
H1199 H 0.52032 0.13899 0.08012 0.0
C1200 C 0.25291 0.76181 0.84475 0.0
C1201 C 0.22697 0.75325 0.83752 0.0
H1202 H 0.27702 0.78562 0.87126 0.0
C1203 C 0.20502 0.76265 0.85252 0.0
H1204 H 0.27025 0.75535 0.83341 0.0
C1205 C 0.2089 0.78012 0.87413 0.0
C1206 C 0.23484 0.78859 0.8814 0.0
H1207 H 0.1848 0.75615 0.84784 0.0
H1208 H 0.19157 0.78661 0.88548 0.0
C1209 C 0.2568 0.77921 0.86644 0.0
C1210 C 0.0122 0.5572 0.40707 0.0
C1211 C 1.00369 0.53532 0.42275 0.0
H1212 H 0.03587 0.57071 0.37384 0.0
C1213 C 0.01313 0.50956 0.4163 0.0
H1214 H 0.00513 0.57727 0.41133 0.0
C1215 C 0.03062 0.50577 0.3947 0.0
C1216 C 0.03903 0.52763 0.37893 0.0
H1217 H 0.00717 0.49231 0.42812 0.0
H1218 H 0.03724 0.48562 0.39013 0.0
C1219 C 0.02961 0.55339 0.3854 0.0
C1220 C 0.77856 0.76648 0.86349 0.0
C1221 C 0.7847 0.75623 0.83796 0.0
H1222 H 0.77057 0.75793 0.9048 0.0
C1223 C 0.78692 0.72831 0.8348 0.0
H1224 H 0.77713 0.7879 0.8667 0.0
C1225 C 0.78297 0.71105 0.85664 0.0
C1226 C 0.77683 0.72128 0.88223 0.0
H1227 H 0.7913 0.71976 0.81532 0.0
H1228 H 0.78433 0.68964 0.85334 0.0
C1229 C 0.77474 0.74925 0.88534 0.0
C1230 C 0.99919 0.95217 0.40584 0.0
C1231 C 0.00768 0.97398 0.42161 0.0
H1232 H 0.97562 0.93883 0.3724 0.0
C1233 C 0.99828 0.99978 0.41512 0.0
H1234 H 0.00622 0.93208 0.41015 0.0
C1235 C 0.98086 1.00367 0.39339 0.0
C1236 C 0.97249 0.98188 0.37753 0.0
H1237 H 1.00422 0.01697 0.427 0.0
H1238 H 0.97425 0.02384 0.38879 0.0
C1239 C 0.98187 0.95608 0.38404 0.0
C1240 C 0.20498 0.24582 0.65844 0.0
C1241 C 0.22693 0.25527 0.67353 0.0
H1242 H 0.19153 0.22195 0.62534 0.0
C1243 C 0.25287 0.24677 0.66643 0.0
H1244 H 0.18477 0.25228 0.66304 0.0
C1245 C 0.25676 0.22941 0.64473 0.0
C1246 C 0.2348 0.22003 0.62961 0.0
H1247 H 0.27021 0.25329 0.67785 0.0
H1248 H 0.27697 0.22305 0.64001 0.0
C1249 C 0.20886 0.22842 0.63679 0.0
C1250 C 0.49902 0.55676 0.60323 0.0
C1251 C 0.5075 0.53485 0.58769 0.0
H1252 H 0.47544 0.57032 0.63644 0.0
C1253 C 0.49812 0.50908 0.59436 0.0
H1254 H 0.50605 0.57684 0.5988 0.0
C1255 C 0.48071 0.50532 0.61604 0.0
C1256 C 0.47232 0.52721 0.63168 0.0
H1257 H 0.50406 0.49181 0.58265 0.0
H1258 H 0.47412 0.48516 0.62079 0.0
C1259 C 0.48169 0.55299 0.62499 0.0
C1260 C 0.78739 0.2811 0.67596 0.0
C1261 C 0.78434 0.25322 0.67299 0.0
H1262 H 0.78551 0.31973 0.65726 0.0
C1263 C 0.77731 0.24302 0.64762 0.0
H1264 H 0.79244 0.28964 0.69531 0.0
C1265 C 0.77344 0.26025 0.62577 0.0
C1266 C 0.77642 0.28815 0.62872 0.0
H1267 H 0.77521 0.22162 0.64454 0.0
H1268 H 0.76854 0.25161 0.60643 0.0
C1269 C 0.78344 0.29835 0.65412 0.0
C1270 C 0.51288 0.95233 0.60387 0.0
C1271 C 0.50422 0.97422 0.58827 0.0
H1272 H 0.53652 0.93888 0.63723 0.0
C1273 C 0.51342 1.00004 0.59495 0.0
H1274 H 0.506 0.93221 0.59942 0.0
C1275 C 0.53078 1.00388 0.61673 0.0
C1276 C 0.5393 0.98202 0.63245 0.0
H1277 H 0.50734 0.0173 0.58321 0.0
H1278 H 0.53721 0.02408 0.6215 0.0
C1279 C 0.53016 0.95619 0.62572 0.0
C1280 C 0.84545 0.25165 0.76203 0.0
C1281 C 0.83759 0.22563 0.75442 0.0
H1282 H 0.8728 0.2759 0.78475 0.0
C1283 C 0.8522 0.20368 0.76452 0.0
H1284 H 0.83443 0.26902 0.75503 0.0
C1285 C 0.87407 0.20764 0.78175 0.0
C1286 C 0.882 0.23365 0.78919 0.0
H1287 H 0.84707 0.18338 0.75875 0.0
H1288 H 0.8851 0.19031 0.78883 0.0
C1289 C 0.86743 0.25561 0.77912 0.0
C1290 C 0.45382 0.90584 0.49859 0.0
C1291 C 0.47565 0.92169 0.50695 0.0
H1292 H 0.44044 0.87241 0.47511 0.0
C1293 C 0.50141 0.91544 0.49739 0.0
H1294 H 0.43375 0.90997 0.50576 0.0
C1295 C 0.50527 0.89384 0.47991 0.0
C1296 C 0.48348 0.87787 0.47169 0.0
H1297 H 0.51861 0.92739 0.50325 0.0
H1298 H 0.52542 0.88942 0.47315 0.0
C1299 C 0.4577 0.88415 0.48124 0.0
C1300 C 0.16706 0.25846 0.76368 0.0
C1301 C 0.1737 0.28418 0.75416 0.0
H1302 H 0.14098 0.23469 0.78817 0.0
C1303 C 0.158 0.30608 0.76237 0.0
H1304 H 0.17897 0.24121 0.75807 0.0
C1305 C 0.13615 0.30235 0.77958 0.0
C1306 C 0.12946 0.27661 0.78908 0.0
H1307 H 0.1623 0.32611 0.75509 0.0
H1308 H 0.1242 0.31961 0.78504 0.0
C1309 C 0.14525 0.25472 0.78093 0.0
C1310 C 0.55789 0.60269 0.49735 0.0
C1311 C 0.53591 0.58737 0.50625 0.0
H1312 H 0.57149 0.63574 0.47347 0.0
C1313 C 0.51006 0.59432 0.49726 0.0
H1314 H 0.57805 0.59806 0.50407 0.0
C1315 C 0.50627 0.61607 0.47988 0.0
C1316 C 0.52823 0.63148 0.4711 0.0
H1317 H 0.49272 0.5828 0.5035 0.0
H1318 H 0.48605 0.62104 0.47364 0.0
C1319 C 0.5541 0.62448 0.48003 0.0
C1320 C 0.84403 0.7582 0.74737 0.0
C1321 C 0.83761 0.78401 0.75665 0.0
H1322 H 0.86987 0.73415 0.72302 0.0
C1323 C 0.85346 0.80578 0.74821 0.0
H1324 H 0.83202 0.74105 0.75319 0.0
C1325 C 0.87524 0.80184 0.73099 0.0
C1326 C 0.88171 0.77601 0.72169 0.0
H1327 H 0.84933 0.82587 0.75531 0.0
H1328 H 0.88731 0.81901 0.72537 0.0
C1329 C 0.86577 0.75425 0.73008 0.0
C1330 C 0.02898 0.89551 0.49274 0.0
C1331 C 0.0359 0.92093 0.50284 0.0
H1332 H 0.01952 0.85458 0.50163 0.0
C1333 C 0.03886 0.92404 0.53076 0.0
H1334 H 0.02681 0.89233 0.47133 0.0
C1335 C 0.03491 0.90231 0.54813 0.0
C1336 C 0.02799 0.87689 0.53803 0.0
H1337 H 0.04393 0.94338 0.53924 0.0
H1338 H 0.03756 0.90539 0.5695 0.0
C1339 C 0.02511 0.87378 0.5101 0.0
C1340 C 0.17614 0.72215 0.72894 0.0
C1341 C 0.17327 0.7246 0.75691 0.0
H1342 H 0.15723 0.72457 0.69037 0.0
C1343 C 0.14787 0.73088 0.76736 0.0
H1344 H 0.19551 0.71765 0.72023 0.0
C1345 C 0.12588 0.73467 0.75028 0.0
C1346 C 0.12872 0.73242 0.72226 0.0
H1347 H 0.14489 0.73249 0.78883 0.0
H1348 H 0.10654 0.73899 0.75912 0.0
C1349 C 0.15415 0.72608 0.71183 0.0
C1350 C 1.00096 0.59522 0.51245 0.0
C1351 C 0.97505 0.58784 0.50395 0.0
H1352 H 0.02503 0.62223 0.53562 0.0
C1353 C 0.95302 0.60265 0.51341 0.0
H1354 H 0.01837 0.5841 0.50582 0.0
C1355 C 0.95681 0.62432 0.53084 0.0
C1356 C 0.98273 0.63178 0.53926 0.0
H1357 H 0.9328 0.59773 0.50708 0.0
H1358 H 0.93935 0.63509 0.5379 0.0
C1359 C 1.00475 0.61691 0.52985 0.0
C1360 C 0.76442 0.85138 0.20363 0.0
C1361 C 0.75493 0.83652 0.22571 0.0
H1362 H 0.78823 0.88444 0.18998 0.0
C1363 C 0.76325 0.84404 0.25165 0.0
H1364 H 0.7581 0.84646 0.18341 0.0
C1365 C 0.78048 0.86591 0.25542 0.0
C1366 C 0.7899 0.88078 0.23334 0.0
H1367 H 0.75671 0.83281 0.26908 0.0
H1368 H 0.78669 0.87095 0.27564 0.0
C1369 C 0.78171 0.87319 0.2074 0.0
C1370 C 0.76452 0.15655 0.30649 0.0
C1371 C 0.75499 0.17185 0.28472 0.0
H1372 H 0.78846 0.12335 0.31951 0.0
C1373 C 0.7634 0.16504 0.25866 0.0
H1374 H 0.75812 0.16091 0.32679 0.0
C1375 C 0.78075 0.1434 0.25448 0.0
C1376 C 0.79021 0.12807 0.27626 0.0
H1377 H 0.75682 0.17662 0.24146 0.0
H1378 H 0.78703 0.13888 0.23418 0.0
C1379 C 0.78193 0.13498 0.30232 0.0
C1380 C 0.40762 0.99809 0.95408 0.0
C1381 C 0.42323 0.00648 0.97609 0.0
H1382 H 0.37429 0.97465 0.94033 0.0
C1383 C 0.41657 0.99701 1.00184 0.0
H1384 H 0.41204 0.0052 0.934 0.0
C1385 C 0.39481 0.97962 0.00549 0.0
C1386 C 0.37909 0.97136 0.9835 0.0
H1387 H 0.42832 1.00288 0.01919 0.0
H1388 H 0.39006 0.97296 0.02564 0.0
C1389 C 0.3858 0.9808 0.95774 0.0
C1390 C 0.24857 0.34531 0.25966 0.0
C1391 C 0.25667 0.33772 0.28567 0.0
H1392 H 0.2253 0.37221 0.23548 0.0
C1393 C 0.24701 0.35248 0.30767 0.0
H1394 H 0.25524 0.33415 0.24228 0.0
C1395 C 0.22974 0.37425 0.30376 0.0
C1396 C 0.22174 0.38188 0.27775 0.0
H1397 H 0.25314 0.3475 0.32794 0.0
H1398 H 0.22305 0.38542 0.32113 0.0
C1399 C 0.23137 0.36713 0.25575 0.0
C1400 C 0.10417 0.0112 0.45339 0.0
C1401 C 0.08843 1.00258 0.47517 0.0
H1402 H 0.13756 0.03483 0.44019 0.0
C1403 C 0.09489 0.01183 0.50106 0.0
H1404 H 0.09991 1.00426 0.43323 0.0
C1405 C 0.11656 0.02926 0.50507 0.0
C1406 C 0.13241 0.03774 0.48331 0.0
H1407 H 0.08304 0.00576 0.51823 0.0
H1408 H 0.12115 0.03577 0.5253 0.0
C1409 C 0.12593 0.02851 0.45742 0.0
C1410 C 0.74661 0.15745 0.70472 0.0
C1411 C 0.75608 0.17253 0.72665 0.0
H1412 H 0.72277 0.12428 0.69138 0.0
C1413 C 0.74771 0.16532 0.75264 0.0
H1414 H 0.75297 0.16214 0.68447 0.0
C1415 C 0.73044 0.14352 0.75661 0.0
C1416 C 0.72103 0.12843 0.73468 0.0
H1417 H 0.75423 0.17673 0.76995 0.0
H1418 H 0.72418 0.1387 0.77686 0.0
C1419 C 0.72928 0.13572 0.70868 0.0
C1420 C 0.40736 0.01114 0.55762 0.0
C1421 C 0.42277 1.00251 0.53565 0.0
H1422 H 0.3743 0.03485 0.57123 0.0
C1423 C 0.41596 0.01174 0.50983 0.0
H1424 H 0.4119 1.00422 0.57775 0.0
C1425 C 0.39427 0.02916 0.50606 0.0
C1426 C 0.37879 0.0377 0.52802 0.0
H1427 H 0.42756 0.0057 0.4925 0.0
H1428 H 0.38942 0.03563 0.48586 0.0
C1429 C 0.38562 0.02848 0.55385 0.0
C1430 C 0.59459 0.49646 0.50908 0.0
C1431 C 0.58833 0.50606 0.53485 0.0
H1432 H 0.62066 0.47224 0.48511 0.0
C1433 C 0.60422 0.49779 0.55671 0.0
H1434 H 0.58261 0.50225 0.49186 0.0
C1435 C 0.62595 0.48049 0.55287 0.0
C1436 C 0.63224 0.47091 0.52709 0.0
H1437 H 0.60008 0.50499 0.57678 0.0
H1438 H 0.63772 0.47444 0.57015 0.0
C1439 C 0.61623 0.47903 0.50526 0.0
C1440 C 0.70427 0.26057 0.35454 0.0
C1441 C 0.72609 0.25177 0.33901 0.0
H1442 H 0.691 0.28419 0.38782 0.0
C1443 C 0.75198 0.26093 0.34567 0.0
H1444 H 0.68412 0.25359 0.3503 0.0
C1445 C 0.75593 0.27842 0.36727 0.0
C1446 C 0.7341 0.28727 0.38273 0.0
H1447 H 0.7692 0.25493 0.3339 0.0
H1448 H 0.77609 0.28535 0.37161 0.0
C1449 C 0.70821 0.27813 0.37608 0.0
C1450 C 0.51369 0.00956 0.91709 0.0
C1451 C 0.50424 0.03533 0.92346 0.0
H1452 H 0.53768 0.98552 0.8909 0.0
C1453 C 0.51263 0.05715 0.90763 0.0
H1454 H 0.50783 0.99236 0.92903 0.0
C1455 C 0.5299 0.05326 0.88586 0.0
C1456 C 0.53931 0.02747 0.87946 0.0
H1457 H 0.50554 0.07723 0.91183 0.0
H1458 H 0.53606 0.07052 0.87416 0.0
C1459 C 0.53105 0.00569 0.89541 0.0
C1460 C 0.2771 0.26624 0.36392 0.0
C1461 C 0.28408 0.25614 0.33853 0.0
H1462 H 0.26838 0.2575 0.40506 0.0
C1463 C 0.28709 0.22828 0.33548 0.0
H1464 H 0.27507 0.28762 0.3671 0.0
C1465 C 0.28317 0.21095 0.35727 0.0
C1466 C 0.27621 0.22105 0.38269 0.0
H1467 H 0.2921 0.2198 0.31613 0.0
H1468 H 0.28525 0.18958 0.35409 0.0
C1469 C 0.27324 0.24893 0.38571 0.0
C1470 C 0.49941 0.49777 0.9152 0.0
C1471 C 0.50889 0.47188 0.92118 0.0
H1472 H 0.47511 0.52224 0.88949 0.0
C1473 C 0.50025 0.45032 0.90515 0.0
H1474 H 0.50546 0.51478 0.92729 0.0
C1475 C 0.48271 0.45458 0.88358 0.0
C1476 C 0.47327 0.48047 0.87756 0.0
H1477 H 0.50734 0.43017 0.90906 0.0
H1478 H 0.47637 0.43751 0.87172 0.0
C1479 C 0.48177 0.502 0.89371 0.0
C1480 C 0.75223 0.74583 0.16663 0.0
C1481 C 0.72645 0.75524 0.17306 0.0
H1482 H 0.77615 0.72134 0.1408 0.0
C1483 C 0.70459 0.74683 0.15726 0.0
H1484 H 0.76945 0.7516 0.17862 0.0
C1485 C 0.70843 0.72954 0.1355 0.0
C1486 C 0.73422 0.72016 0.129 0.0
H1487 H 0.68453 0.75401 0.16141 0.0
H1488 H 0.69119 0.72396 0.12346 0.0
C1489 C 0.75607 0.72848 0.14491 0.0
C1490 C 0.99911 0.05688 0.10296 0.0
C1491 C 0.0075 0.03505 0.08725 0.0
H1492 H 0.97559 0.07029 0.13627 0.0
C1493 C 0.99801 0.00927 0.09372 0.0
H1494 H 0.00623 0.07696 0.09867 0.0
C1495 C 0.98057 0.00542 0.11538 0.0
C1496 C 0.97227 0.02723 0.13117 0.0
H1497 H 1.00387 0.99206 0.08188 0.0
H1498 H 0.97388 0.98526 0.11996 0.0
C1499 C 0.98176 0.05301 0.12469 0.0
C1500 C 0.30624 0.76355 0.15767 0.0
C1501 C 0.2843 0.75411 0.17273 0.0
H1502 H 0.31964 0.78737 0.1245 0.0
C1503 C 0.25834 0.76248 0.16541 0.0
H1504 H 0.32647 0.75719 0.16244 0.0
C1505 C 0.25441 0.77973 0.14356 0.0
C1506 C 0.27636 0.78914 0.12853 0.0
H1507 H 0.24101 0.75598 0.17679 0.0
H1508 H 0.23418 0.78601 0.13868 0.0
C1509 C 0.30232 0.78086 0.13589 0.0
C1510 C 0.01209 0.45267 0.1047 0.0
C1511 C 1.00368 0.47446 0.08884 0.0
H1512 H 0.03565 0.43933 0.13816 0.0
C1513 C 0.01325 0.50024 0.09515 0.0
H1514 H 0.00492 0.43258 0.10053 0.0
C1515 C 0.03074 0.50414 0.11682 0.0
C1516 C 0.03902 0.48237 0.13279 0.0
H1517 H 0.00738 0.51742 0.08319 0.0
H1518 H 0.03747 0.5243 0.12129 0.0
C1519 C 0.02949 0.45658 0.12644 0.0
C1520 C 0.33501 0.72308 0.28165 0.0
C1521 C 0.33787 0.72609 0.25372 0.0
H1522 H 0.35386 0.72498 0.32028 0.0
C1523 C 0.36319 0.73305 0.24342 0.0
H1524 H 0.3157 0.71809 0.29027 0.0
C1525 C 0.3851 0.73692 0.2606 0.0
C1526 C 0.38226 0.73399 0.28856 0.0
H1527 H 0.36621 0.7351 0.22198 0.0
H1528 H 0.40439 0.74179 0.25189 0.0
C1529 C 0.35691 0.72702 0.29885 0.0
C1530 C 0.98176 0.39586 0.01822 0.0
C1531 C 0.97469 0.42125 0.00813 0.0
H1532 H 0.9914 0.35502 0.00932 0.0
C1533 C 0.97159 0.42441 0.98022 0.0
H1534 H 0.98406 0.39265 0.03962 0.0
C1535 C 0.97558 0.40276 0.96285 0.0
C1536 C 0.98269 0.37738 0.97294 0.0
H1537 H 0.96639 0.44374 0.97175 0.0
H1538 H 0.97286 0.40587 0.94148 0.0
C1539 C 0.98567 0.3742 1.00086 0.0
C1540 C 0.66616 0.75803 0.26256 0.0
C1541 C 0.6734 0.7839 0.25389 0.0
H1542 H 0.63958 0.73407 0.28637 0.0
C1543 C 0.65833 0.80589 0.26303 0.0
H1544 H 0.67757 0.74068 0.25628 0.0
C1545 C 0.63658 0.8021 0.28035 0.0
C1546 C 0.62928 0.77622 0.28894 0.0
H1547 H 0.66305 0.82605 0.25643 0.0
H1548 H 0.62515 0.81945 0.28661 0.0
C1549 C 0.64437 0.75424 0.27984 0.0
C1550 C 0.00994 0.0953 0.99756 0.0
C1551 C 0.03586 0.08786 0.00594 0.0
H1552 H 0.98585 0.12248 0.97461 0.0
C1553 C 0.05789 0.10276 0.99647 0.0
H1554 H 0.99253 0.08411 1.0042 0.0
C1555 C 0.05409 0.12458 0.97917 0.0
C1556 C 0.02815 0.1321 0.97089 0.0
H1557 H 0.07812 0.0978 1.00271 0.0
H1558 H 0.07155 0.13543 0.97212 0.0
C1559 C 0.00613 0.11712 0.98029 0.0
C1560 C 0.35378 0.3063 0.2501 0.0
C1561 C 0.33762 0.28451 0.25782 0.0
H1562 H 0.38788 0.31975 0.22782 0.0
C1563 C 0.34377 0.25888 0.24789 0.0
H1564 H 0.34984 0.32623 0.25773 0.0
C1565 C 0.36549 0.25516 0.23052 0.0
C1566 C 0.38172 0.27695 0.22277 0.0
H1567 H 0.33151 0.24174 0.25321 0.0
H1568 H 0.36929 0.23522 0.22285 0.0
C1569 C 0.37559 0.30256 0.23287 0.0
C1570 C 0.54141 0.42067 0.02913 0.0
C1571 C 0.5384 0.41766 1.00121 0.0
H1572 H 0.53962 0.40204 0.06783 0.0
C1573 C 0.53162 0.39226 0.991 0.0
H1574 H 0.54622 0.44004 0.0377 0.0
C1575 C 0.52792 0.37041 0.00828 0.0
C1576 C 0.53083 0.37343 0.03623 0.0
H1577 H 0.52954 0.38916 0.96958 0.0
H1578 H 0.5231 0.35107 0.99968 0.0
C1579 C 0.53765 0.39885 0.04641 0.0
C1580 C 0.66311 0.24983 0.25186 0.0
C1581 C 0.6724 0.22383 0.25787 0.0
H1582 H 0.63422 0.27392 0.23089 0.0
C1583 C 0.65897 0.20181 0.24627 0.0
H1584 H 0.67318 0.26735 0.25983 0.0
C1585 C 0.637 0.2057 0.22914 0.0
C1586 C 0.62761 0.23165 0.22357 0.0
H1587 H 0.66509 0.18147 0.25074 0.0
H1588 H 0.62698 0.18836 0.22068 0.0
C1589 C 0.64085 0.25367 0.23513 0.0
C1590 C 0.50149 0.09602 0.01264 0.0
C1591 C 0.47559 0.08804 0.00464 0.0
H1592 H 0.52541 0.12369 0.03517 0.0
C1593 C 0.45344 0.10242 0.01447 0.0
H1594 H 0.51902 0.08525 0.00575 0.0
C1595 C 0.45708 0.12421 0.03178 0.0
C1596 C 0.48298 0.13232 0.03964 0.0
H1597 H 0.43321 0.09709 0.00853 0.0
H1598 H 0.4395 0.13458 0.03914 0.0
C1599 C 0.50514 0.11789 0.02986 0.0
C1600 C 0.26438 0.35193 0.70376 0.0
C1601 C 0.25491 0.33705 0.72582 0.0
H1602 H 0.28817 0.38503 0.69014 0.0
C1603 C 0.26323 0.34453 0.75176 0.0
H1604 H 0.25806 0.34702 0.68353 0.0
C1605 C 0.28044 0.3664 0.75556 0.0
C1606 C 0.28985 0.38131 0.73351 0.0
H1607 H 0.2567 0.33327 0.76918 0.0
H1608 H 0.28667 0.3714 0.77579 0.0
C1609 C 0.28165 0.37375 0.70755 0.0
C1610 C 0.26488 0.65734 0.80628 0.0
C1611 C 0.25519 0.67226 0.78431 0.0
H1612 H 0.2889 0.62436 0.81971 0.0
C1613 C 0.26333 0.66492 0.75831 0.0
H1614 H 0.25868 0.6621 0.82655 0.0
C1615 C 0.28062 0.64319 0.75438 0.0
C1616 C 0.29028 0.62827 0.77636 0.0
H1617 H 0.2566 0.67619 0.74095 0.0
H1618 H 0.28671 0.63829 0.73412 0.0
C1619 C 0.28222 0.63566 0.80236 0.0
C1620 C 0.91585 0.4972 0.50118 0.0
C1621 C 0.92262 0.50637 0.47534 0.0
H1622 H 0.88933 0.47337 0.52515 0.0
C1623 C 0.9072 0.49759 0.45336 0.0
H1624 H 0.92746 0.50336 0.51852 0.0
C1625 C 0.88547 0.48019 0.45712 0.0
C1626 C 0.87865 0.47107 0.48297 0.0
H1627 H 0.91168 0.50446 0.43322 0.0
H1628 H 0.87413 0.47372 0.43972 0.0
C1629 C 0.89417 0.47975 0.50494 0.0
C1630 C 0.74863 0.84507 0.75908 0.0
C1631 C 0.757 0.83761 0.78503 0.0
H1632 H 0.72504 0.87183 0.73503 0.0
C1633 C 0.74756 0.85246 0.80707 0.0
H1634 H 0.75512 0.83384 0.74167 0.0
C1635 C 0.7302 0.87417 0.80325 0.0
C1636 C 0.72189 0.88166 0.7773 0.0
H1637 H 0.75391 0.84758 0.8273 0.0
H1638 H 0.72366 0.88539 0.82064 0.0
C1639 C 0.73133 0.86684 0.75526 0.0
C1640 C 0.58673 0.52783 0.97145 0.0
C1641 C 0.59024 0.49997 0.97416 0.0
H1642 H 0.60486 0.56675 0.97305 0.0
C1643 C 0.61581 0.49018 0.98101 0.0
H1644 H 0.56725 0.53607 0.96644 0.0
C1645 C 0.63732 0.50779 0.98505 0.0
C1646 C 0.63383 0.53565 0.98237 0.0
H1647 H 0.61932 0.46884 0.98298 0.0
H1648 H 0.65665 0.49954 0.99058 0.0
C1649 C 0.60824 0.54544 0.97554 0.0
C1650 C 0.24815 0.66574 0.25225 0.0
C1651 C 0.25639 0.67302 0.22623 0.0
H1652 H 0.22474 0.63908 0.27652 0.0
C1653 C 0.2469 0.65793 0.20433 0.0
H1654 H 0.25473 0.67714 0.26955 0.0
C1655 C 0.22963 0.63615 0.20832 0.0
C1656 C 0.22146 0.62883 0.23434 0.0
H1657 H 0.25318 0.66265 0.18406 0.0
H1658 H 0.22309 0.62472 0.19103 0.0
C1659 C 0.23093 0.64391 0.25625 0.0
C1660 C 0.915 0.51118 0.00982 0.0
C1661 C 0.92247 0.50296 0.03581 0.0
H1662 H 0.88791 0.5341 0.98557 0.0
C1663 C 0.90771 0.51265 0.05779 0.0
H1664 H 0.92607 0.50434 0.99244 0.0
C1665 C 0.88603 0.53003 0.05388 0.0
C1666 C 0.87848 0.53816 0.02788 0.0
H1667 H 0.91268 0.50653 0.07808 0.0
H1668 H 0.8753 0.53725 0.07131 0.0
C1669 C 0.8933 0.52854 0.0059 0.0
C1670 C 0.104 0.99786 0.05614 0.0
C1671 C 0.08825 0.00635 0.03426 0.0
H1672 H 0.13737 0.97435 0.0696 0.0
C1673 C 0.09469 0.99699 0.00844 0.0
H1674 H 0.09975 0.00488 0.07625 0.0
C1675 C 0.11636 0.97961 0.0046 0.0
C1676 C 0.13222 0.97125 0.02646 0.0
H1677 H 0.08283 1.00295 0.99119 0.0
H1678 H 0.12093 0.97303 0.98441 0.0
C1679 C 0.12574 0.98058 0.05228 0.0
loop_
_geom_bond_atom_site_label_1
_geom_bond_atom_site_label_2
_geom_bond_distance
_geom_bond_site_symmetry_2
_ccdc_geom_bond_type
H0 C3 0.931 1_655 S
H1 C6 0.928 1_565 S
H2 C8 0.930 1_556 S
C3 H0 0.931 1_455 S
C3 C4 1.413 . S
C3 C5 1.360 . S
C4 C3 1.413 . S
C4 C8 1.429 . S
C5 C3 1.360 . S
C5 C6 1.372 . S
C6 H1 0.928 1_545 S
C6 C5 1.372 . S
C6 C7 1.404 . S
C7 C6 1.404 . S
C7 C8 1.391 . S
C8 H2 0.930 1_554 S
C8 C4 1.429 . S
C8 C7 1.391 . S
H9 C12 0.931 . S
H10 C15 0.928 . S
H11 C17 0.930 . S
C12 H9 0.931 . S
C12 C13 1.413 . S
C12 C14 1.360 . S
C13 C12 1.413 . S
C13 C17 1.429 . S
C14 C12 1.360 . S
C14 C15 1.372 . S
C15 H10 0.928 . S
C15 C14 1.372 . S
C15 C16 1.404 . S
C16 C15 1.404 . S
C16 C17 1.391 . S
C17 H11 0.930 . S
C17 C13 1.429 . S
C17 C16 1.391 . S
H18 C21 0.931 . S
H19 C24 0.928 1_455 S
H20 C26 0.930 1_556 S
C21 H18 0.931 . S
C21 C22 1.413 . S
C21 C23 1.360 . S
C22 C21 1.413 . S
C22 C26 1.429 . S
C23 C21 1.360 . S
C23 C24 1.372 . S
C24 H19 0.928 1_655 S
C24 C23 1.372 . S
C24 C25 1.404 . S
C25 C24 1.404 . S
C25 C26 1.391 . S
C26 H20 0.930 1_554 S
C26 C22 1.429 . S
C26 C25 1.391 . S
H27 C30 0.931 . S
H28 C33 0.928 . S
H29 C35 0.930 . S
C30 H27 0.931 . S
C30 C31 1.413 . S
C30 C32 1.360 . S
C31 C30 1.413 . S
C31 C35 1.429 . S
C32 C30 1.360 . S
C32 C33 1.372 . S
C33 H28 0.928 . S
C33 C32 1.372 . S
C33 C34 1.404 . S
C34 C33 1.404 . S
C34 C35 1.391 . S
C35 H29 0.930 . S
C35 C31 1.429 . S
C35 C34 1.391 . S
H36 C39 0.931 1_655 S
H37 C42 0.928 1_545 S
H38 C44 0.930 . S
C39 H36 0.931 1_455 S
C39 C40 1.413 . S
C39 C41 1.360 . S
C40 C39 1.413 . S
C40 C44 1.429 . S
C41 C39 1.360 . S
C41 C42 1.372 . S
C42 H37 0.928 1_565 S
C42 C41 1.372 . S
C42 C43 1.404 . S
C43 C42 1.404 . S
C43 C44 1.391 . S
C44 H38 0.930 . S
C44 C40 1.429 . S
C44 C43 1.391 . S
H45 C48 0.931 . S
H46 C51 0.928 . S
H47 C53 0.930 . S
C48 H45 0.931 . S
C48 C49 1.413 . S
C48 C50 1.360 . S
C49 C48 1.413 . S
C49 C53 1.429 . S
C50 C48 1.360 . S
C50 C51 1.372 . S
C51 H46 0.928 . S
C51 C50 1.372 . S
C51 C52 1.404 . S
C52 C51 1.404 . S
C52 C53 1.391 . S
C53 H47 0.930 . S
C53 C49 1.429 . S
C53 C52 1.391 . S
H54 C57 0.931 . S
H55 C60 0.928 1_455 S
H56 C62 0.930 . S
C57 H54 0.931 . S
C57 C58 1.413 . S
C57 C59 1.360 . S
C58 C57 1.413 . S
C58 C62 1.429 . S
C59 C57 1.360 . S
C59 C60 1.372 . S
C60 H55 0.928 1_655 S
C60 C59 1.372 . S
C60 C61 1.404 . S
C61 C60 1.404 . S
C61 C62 1.391 . S
C62 H56 0.930 . S
C62 C58 1.429 . S
C62 C61 1.391 . S
H63 C66 0.931 . S
H64 C69 0.928 . S
H65 C71 0.930 . S
C66 H63 0.931 . S
C66 C67 1.413 . S
C66 C68 1.360 . S
C67 C66 1.413 . S
C67 C71 1.429 . S
C68 C66 1.360 . S
C68 C69 1.372 . S
C69 H64 0.928 . S
C69 C68 1.372 . S
C69 C70 1.404 . S
C70 C69 1.404 . S
C70 C71 1.391 . S
C71 H65 0.930 . S
C71 C67 1.429 . S
C71 C70 1.391 . S
H72 C75 0.931 . S
H73 C78 0.928 . S
H74 C80 0.930 . S
C75 H72 0.931 . S
C75 C76 1.413 . S
C75 C77 1.360 . S
C76 C75 1.413 . S
C76 C80 1.429 . S
C77 C75 1.360 . S
C77 C78 1.372 . S
C78 H73 0.928 . S
C78 C77 1.372 . S
C78 C79 1.404 . S
C79 C78 1.404 . S
C79 C80 1.391 . S
C80 H74 0.930 . S
C80 C76 1.429 . S
C80 C79 1.391 . S
H81 C84 0.931 1_545 S
H82 C87 0.928 . S
H83 C89 0.930 . S
C84 H81 0.931 1_565 S
C84 C85 1.413 . S
C84 C86 1.360 . S
C85 C84 1.413 . S
C85 C89 1.429 . S
C86 C84 1.360 . S
C86 C87 1.372 . S
C87 H82 0.928 . S
C87 C86 1.372 . S
C87 C88 1.404 . S
C88 C87 1.404 . S
C88 C89 1.391 . S
C89 H83 0.930 . S
C89 C85 1.429 . S
C89 C88 1.391 . S
H90 C93 0.931 . S
H91 C96 0.928 . S
H92 C98 0.930 . S
C93 H90 0.931 . S
C93 C94 1.413 . S
C93 C95 1.360 . S
C94 C93 1.413 . S
C94 C98 1.429 . S
C95 C93 1.360 . S
C95 C96 1.372 . S
C96 H91 0.928 . S
C96 C95 1.372 . S
C96 C97 1.404 . S
C97 C96 1.404 . S
C97 C98 1.391 . S
C98 H92 0.930 . S
C98 C94 1.429 . S
C98 C97 1.391 . S
H99 C102 0.931 . S
H100 C105 0.928 . S
H101 C107 0.930 . S
C102 H99 0.931 . S
C102 C103 1.413 . S
C102 C104 1.360 . S
C103 C102 1.413 . S
C103 C107 1.429 . S
C104 C102 1.360 . S
C104 C105 1.372 . S
C105 H100 0.928 . S
C105 C104 1.372 . S
C105 C106 1.404 . S
C106 C105 1.404 . S
C106 C107 1.391 . S
C107 H101 0.930 . S
C107 C103 1.429 . S
C107 C106 1.391 . S
H108 C111 0.931 . S
H109 C114 0.928 . S
H110 C116 0.930 . S
C111 H108 0.931 . S
C111 C112 1.413 . S
C111 C113 1.360 . S
C112 C111 1.413 . S
C112 C116 1.429 . S
C113 C111 1.360 . S
C113 C114 1.372 . S
C114 H109 0.928 . S
C114 C113 1.372 . S
C114 C115 1.404 . S
C115 C114 1.404 . S
C115 C116 1.391 . S
C116 H110 0.930 . S
C116 C112 1.429 . S
C116 C115 1.391 . S
H117 C120 0.931 . S
H118 C123 0.928 . S
H119 C125 0.930 1_554 S
C120 H117 0.931 . S
C120 C121 1.413 . S
C120 C122 1.360 . S
C121 C120 1.413 . S
C121 C125 1.429 . S
C122 C120 1.360 . S
C122 C123 1.372 . S
C123 H118 0.928 . S
C123 C122 1.372 . S
C123 C124 1.404 . S
C124 C123 1.404 . S
C124 C125 1.391 . S
C125 H119 0.930 1_556 S
C125 C121 1.429 . S
C125 C124 1.391 . S
H126 C129 0.931 . S
H127 C132 0.928 . S
H128 C134 0.930 . S
C129 H126 0.931 . S
C129 C130 1.413 . S
C129 C131 1.360 . S
C130 C129 1.413 . S
C130 C134 1.429 . S
C131 C129 1.360 . S
C131 C132 1.372 . S
C132 H127 0.928 . S
C132 C131 1.372 . S
C132 C133 1.404 . S
C133 C132 1.404 . S
C133 C134 1.391 . S
C134 H128 0.930 . S
C134 C130 1.429 . S
C134 C133 1.391 . S
H135 C138 0.931 1_554 S
H136 C141 0.928 . S
H137 C143 0.930 1_565 S
C138 H135 0.931 1_556 S
C138 C139 1.413 . S
C138 C140 1.360 . S
C139 C138 1.413 . S
C139 C143 1.429 . S
C140 C138 1.360 . S
C140 C141 1.372 . S
C141 H136 0.928 . S
C141 C140 1.372 . S
C141 C142 1.404 . S
C142 C141 1.404 . S
C142 C143 1.391 . S
C143 H137 0.930 1_545 S
C143 C139 1.429 . S
C143 C142 1.391 . S
Li144 N161 1.990 . S
Li144 O204 1.956 . S
Li144 O205 1.970 1_556 S
Li144 O206 1.961 . S
Li145 N169 1.990 . S
Li145 O204 1.970 1_554 S
Li145 O205 1.956 . S
Li145 O207 1.961 . S
Li146 N191 1.990 . S
Li146 O204 1.961 . S
Li146 O206 1.956 . S
Li146 O207 1.970 1_556 S
Li147 N197 1.990 . S
Li147 O205 1.961 . S
Li147 O206 1.970 1_554 S
Li147 O207 1.956 . S
C148 C150 1.348 1_556 S
C148 C151 1.356 . S
C148 O204 1.325 . S
N149 C152 1.314 1_556 S
N149 C153 1.279 . S
C150 C148 1.348 1_554 S
C150 C152 1.353 . S
C150 H208 0.929 . S
C151 C148 1.356 . S
C151 C153 1.358 . S
C151 H209 0.930 . S
C152 N149 1.314 1_554 S
C152 C150 1.353 . S
C152 H210 0.930 . S
C153 N149 1.279 . S
C153 C151 1.358 . S
C153 H211 0.930 . S
C154 C157 1.348 . S
C154 C158 1.356 . S
C154 O205 1.325 . S
C155 N156 1.279 . S
C155 C158 1.358 . S
C155 H212 0.930 . S
N156 C155 1.279 . S
N156 C159 1.314 . S
C157 C154 1.348 . S
C157 C159 1.353 . S
C157 H213 0.929 . S
C158 C154 1.356 . S
C158 C155 1.358 . S
C158 H214 0.930 . S
C159 N156 1.314 . S
C159 C157 1.353 . S
C159 H215 0.930 . S
C160 N161 1.314 . S
C160 C165 1.353 . S
C160 H166 0.930 . S
N161 Li144 1.990 . S
N161 C160 1.314 . S
N161 C163 1.279 . S
C162 C163 1.358 . S
C162 C164 1.356 . S
C162 H216 0.930 . S
C163 N161 1.279 . S
C163 C162 1.358 . S
C163 H167 0.930 . S
C164 C162 1.356 . S
C164 C165 1.348 . S
C165 C160 1.353 . S
C165 C164 1.348 . S
C165 H217 0.929 . S
H166 C160 0.930 . S
H167 C163 0.930 . S
C168 N169 1.314 . S
C168 C170 1.353 . S
C168 H174 0.930 . S
N169 Li145 1.990 . S
N169 C168 1.314 . S
N169 C172 1.279 . S
C170 C168 1.353 . S
C170 C173 1.348 . S
C170 H218 0.929 . S
C171 C172 1.358 . S
C171 C173 1.356 . S
C171 H219 0.930 . S
C172 N169 1.279 . S
C172 C171 1.358 . S
C172 H175 0.930 . S
C173 C170 1.348 . S
C173 C171 1.356 . S
H174 C168 0.930 . S
H175 C172 0.930 . S
C176 C178 1.348 . S
C176 C179 1.356 . S
C176 O206 1.325 . S
N177 C180 1.314 . S
N177 C181 1.279 . S
C178 C176 1.348 . S
C178 C180 1.353 . S
C178 H220 0.929 . S
C179 C176 1.356 . S
C179 C181 1.358 . S
C179 H221 0.930 . S
C180 N177 1.314 . S
C180 C178 1.353 . S
C180 H222 0.930 . S
C181 N177 1.279 . S
C181 C179 1.358 . S
C181 H223 0.930 . S
C182 C183 1.348 1_554 S
C182 C184 1.356 . S
C182 O207 1.325 . S
C183 C182 1.348 1_556 S
C183 C185 1.353 . S
C183 H224 0.929 . S
C184 C182 1.356 . S
C184 C186 1.358 . S
C184 H225 0.930 . S
C185 C183 1.353 . S
C185 N187 1.314 1_556 S
C185 H226 0.930 . S
C186 C184 1.358 . S
C186 N187 1.279 . S
C186 H227 0.930 . S
N187 C185 1.314 1_554 S
N187 C186 1.279 . S
C188 C190 1.353 . S
C188 N191 1.314 . S
C188 H194 0.930 . S
C189 N191 1.279 . S
C189 C192 1.358 . S
C189 H195 0.930 . S
C190 C188 1.353 . S
C190 C193 1.348 . S
C190 H228 0.929 . S
N191 Li146 1.990 . S
N191 C188 1.314 . S
N191 C189 1.279 . S
C192 C189 1.358 . S
C192 C193 1.356 . S
C192 H229 0.930 . S
C193 C190 1.348 . S
C193 C192 1.356 . S
H194 C188 0.930 . S
H195 C189 0.930 . S
C196 N197 1.314 . S
C196 C198 1.353 . S
C196 H202 0.930 . S
N197 Li147 1.990 . S
N197 C196 1.314 . S
N197 C200 1.279 . S
C198 C196 1.353 . S
C198 C201 1.348 . S
C198 H230 0.929 . S
C199 C200 1.358 . S
C199 C201 1.356 . S
C199 H231 0.930 . S
C200 N197 1.279 . S
C200 C199 1.358 . S
C200 H203 0.930 . S
C201 C198 1.348 . S
C201 C199 1.356 . S
H202 C196 0.930 . S
H203 C200 0.930 . S
O204 Li144 1.956 . S
O204 Li145 1.970 1_556 S
O204 Li146 1.961 . S
O204 C148 1.325 . S
O205 Li144 1.970 1_554 S
O205 Li145 1.956 . S
O205 Li147 1.961 . S
O205 C154 1.325 . S
O206 Li144 1.961 . S
O206 Li146 1.956 . S
O206 Li147 1.970 1_556 S
O206 C176 1.325 . S
O207 Li145 1.961 . S
O207 Li146 1.970 1_554 S
O207 Li147 1.956 . S
O207 C182 1.325 . S
H208 C150 0.929 . S
H209 C151 0.930 . S
H210 C152 0.930 . S
H211 C153 0.930 . S
H212 C155 0.930 . S
H213 C157 0.929 . S
H214 C158 0.930 . S
H215 C159 0.930 . S
H216 C162 0.930 . S
H217 C165 0.929 . S
H218 C170 0.929 . S
H219 C171 0.930 . S
H220 C178 0.929 . S
H221 C179 0.930 . S
H222 C180 0.930 . S
H223 C181 0.930 . S
H224 C183 0.929 . S
H225 C184 0.930 . S
H226 C185 0.930 . S
H227 C186 0.930 . S
H228 C190 0.929 . S
H229 C192 0.930 . S
H230 C198 0.929 . S
H231 C199 0.930 . S
Li232 N249 1.990 . S
Li232 O292 1.956 . S
Li232 O293 1.970 . S
Li232 O294 1.961 . S
Li233 N257 1.990 . S
Li233 O292 1.970 . S
Li233 O293 1.956 . S
Li233 O295 1.961 . S
Li234 N279 1.990 . S
Li234 O292 1.961 . S
Li234 O294 1.956 . S
Li234 O295 1.970 . S
Li235 N285 1.990 . S
Li235 O293 1.961 . S
Li235 O294 1.970 . S
Li235 O295 1.956 . S
C236 C238 1.348 . S
C236 C239 1.356 . S
C236 O292 1.325 . S
N237 C240 1.314 . S
N237 C241 1.279 . S
C238 C236 1.348 . S
C238 C240 1.353 . S
C238 H296 0.929 . S
C239 C236 1.356 . S
C239 C241 1.358 . S
C239 H297 0.930 . S
C240 N237 1.314 . S
C240 C238 1.353 . S
C240 H298 0.930 . S
C241 N237 1.279 . S
C241 C239 1.358 . S
C241 H299 0.930 . S
C242 C245 1.348 . S
C242 C246 1.356 . S
C242 O293 1.325 . S
C243 N244 1.279 . S
C243 C246 1.358 . S
C243 H300 0.930 . S
N244 C243 1.279 . S
N244 C247 1.314 . S
C245 C242 1.348 . S
C245 C247 1.353 . S
C245 H301 0.929 . S
C246 C242 1.356 . S
C246 C243 1.358 . S
C246 H302 0.930 . S
C247 N244 1.314 . S
C247 C245 1.353 . S
C247 H303 0.930 . S
C248 N249 1.314 . S
C248 C253 1.353 . S
C248 H254 0.930 . S
N249 Li232 1.990 . S
N249 C248 1.314 . S
N249 C251 1.279 . S
C250 C251 1.358 . S
C250 C252 1.356 . S
C250 H304 0.930 . S
C251 N249 1.279 . S
C251 C250 1.358 . S
C251 H255 0.930 . S
C252 C250 1.356 . S
C252 C253 1.348 . S
C253 C248 1.353 . S
C253 C252 1.348 . S
C253 H305 0.929 . S
H254 C248 0.930 . S
H255 C251 0.930 . S
C256 N257 1.314 . S
C256 C258 1.353 . S
C256 H262 0.930 . S
N257 Li233 1.990 . S
N257 C256 1.314 . S
N257 C260 1.279 . S
C258 C256 1.353 . S
C258 C261 1.348 . S
C258 H306 0.929 . S
C259 C260 1.358 . S
C259 C261 1.356 . S
C259 H307 0.930 . S
C260 N257 1.279 . S
C260 C259 1.358 . S
C260 H263 0.930 . S
C261 C258 1.348 . S
C261 C259 1.356 . S
H262 C256 0.930 . S
H263 C260 0.930 . S
C264 C266 1.348 . S
C264 C267 1.356 . S
C264 O294 1.325 . S
N265 C268 1.314 . S
N265 C269 1.279 . S
C266 C264 1.348 . S
C266 C268 1.353 . S
C266 H308 0.929 . S
C267 C264 1.356 . S
C267 C269 1.358 . S
C267 H309 0.930 . S
C268 N265 1.314 . S
C268 C266 1.353 . S
C268 H310 0.930 . S
C269 N265 1.279 . S
C269 C267 1.358 . S
C269 H311 0.930 . S
C270 C271 1.348 . S
C270 C272 1.356 . S
C270 O295 1.325 . S
C271 C270 1.348 . S
C271 C273 1.353 . S
C271 H312 0.929 . S
C272 C270 1.356 . S
C272 C274 1.358 . S
C272 H313 0.930 . S
C273 C271 1.353 . S
C273 N275 1.314 . S
C273 H314 0.930 . S
C274 C272 1.358 . S
C274 N275 1.279 . S
C274 H315 0.930 . S
N275 C273 1.314 . S
N275 C274 1.279 . S
C276 C278 1.353 . S
C276 N279 1.314 . S
C276 H282 0.930 . S
C277 N279 1.279 . S
C277 C280 1.358 . S
C277 H283 0.930 . S
C278 C276 1.353 . S
C278 C281 1.348 . S
C278 H316 0.929 . S
N279 Li234 1.990 . S
N279 C276 1.314 . S
N279 C277 1.279 . S
C280 C277 1.358 . S
C280 C281 1.356 . S
C280 H317 0.930 . S
C281 C278 1.348 . S
C281 C280 1.356 . S
H282 C276 0.930 . S
H283 C277 0.930 . S
C284 N285 1.314 . S
C284 C286 1.353 . S
C284 H290 0.930 . S
N285 Li235 1.990 . S
N285 C284 1.314 . S
N285 C288 1.279 . S
C286 C284 1.353 . S
C286 C289 1.348 . S
C286 H318 0.929 . S
C287 C288 1.358 . S
C287 C289 1.356 . S
C287 H319 0.930 . S
C288 N285 1.279 . S
C288 C287 1.358 . S
C288 H291 0.930 . S
C289 C286 1.348 . S
C289 C287 1.356 . S
H290 C284 0.930 . S
H291 C288 0.930 . S
O292 Li232 1.956 . S
O292 Li233 1.970 . S
O292 Li234 1.961 . S
O292 C236 1.325 . S
O293 Li232 1.970 . S
O293 Li233 1.956 . S
O293 Li235 1.961 . S
O293 C242 1.325 . S
O294 Li232 1.961 . S
O294 Li234 1.956 . S
O294 Li235 1.970 . S
O294 C264 1.325 . S
O295 Li233 1.961 . S
O295 Li234 1.970 . S
O295 Li235 1.956 . S
O295 C270 1.325 . S
H296 C238 0.929 . S
H297 C239 0.930 . S
H298 C240 0.930 . S
H299 C241 0.930 . S
H300 C243 0.930 . S
H301 C245 0.929 . S
H302 C246 0.930 . S
H303 C247 0.930 . S
H304 C250 0.930 . S
H305 C253 0.929 . S
H306 C258 0.929 . S
H307 C259 0.930 . S
H308 C266 0.929 . S
H309 C267 0.930 . S
H310 C268 0.930 . S
H311 C269 0.930 . S
H312 C271 0.929 . S
H313 C272 0.930 . S
H314 C273 0.930 . S
H315 C274 0.930 . S
H316 C278 0.929 . S
H317 C280 0.930 . S
H318 C286 0.929 . S
H319 C287 0.930 . S
Li320 N337 1.990 . S
Li320 O380 1.956 . S
Li320 O381 1.970 1_556 S
Li320 O382 1.961 . S
Li321 N345 1.990 . S
Li321 O380 1.970 1_554 S
Li321 O381 1.956 . S
Li321 O383 1.961 . S
Li322 N367 1.990 . S
Li322 O380 1.961 . S
Li322 O382 1.956 . S
Li322 O383 1.970 1_556 S
Li323 N373 1.990 . S
Li323 O381 1.961 . S
Li323 O382 1.970 1_554 S
Li323 O383 1.956 . S
C324 C326 1.348 1_556 S
C324 C327 1.356 . S
C324 O380 1.325 . S
N325 C328 1.314 1_556 S
N325 C329 1.279 . S
C326 C324 1.348 1_554 S
C326 C328 1.353 . S
C326 H384 0.929 . S
C327 C324 1.356 . S
C327 C329 1.358 . S
C327 H385 0.930 . S
C328 N325 1.314 1_554 S
C328 C326 1.353 . S
C328 H386 0.930 . S
C329 N325 1.279 . S
C329 C327 1.358 . S
C329 H387 0.930 . S
C330 C333 1.348 . S
C330 C334 1.356 . S
C330 O381 1.325 . S
C331 N332 1.279 . S
C331 C334 1.358 . S
C331 H388 0.930 . S
N332 C331 1.279 . S
N332 C335 1.314 . S
C333 C330 1.348 . S
C333 C335 1.353 . S
C333 H389 0.929 . S
C334 C330 1.356 . S
C334 C331 1.358 . S
C334 H390 0.930 . S
C335 N332 1.314 . S
C335 C333 1.353 . S
C335 H391 0.930 . S
C336 N337 1.314 . S
C336 C341 1.353 . S
C336 H342 0.930 . S
N337 Li320 1.990 . S
N337 C336 1.314 . S
N337 C339 1.279 . S
C338 C339 1.358 . S
C338 C340 1.356 . S
C338 H392 0.930 . S
C339 N337 1.279 . S
C339 C338 1.358 . S
C339 H343 0.930 . S
C340 C338 1.356 . S
C340 C341 1.348 . S
C341 C336 1.353 . S
C341 C340 1.348 . S
C341 H393 0.929 . S
H342 C336 0.930 . S
H343 C339 0.930 . S
C344 N345 1.314 . S
C344 C346 1.353 . S
C344 H350 0.930 . S
N345 Li321 1.990 . S
N345 C344 1.314 . S
N345 C348 1.279 . S
C346 C344 1.353 . S
C346 C349 1.348 . S
C346 H394 0.929 . S
C347 C348 1.358 . S
C347 C349 1.356 . S
C347 H395 0.930 . S
C348 N345 1.279 . S
C348 C347 1.358 . S
C348 H351 0.930 . S
C349 C346 1.348 . S
C349 C347 1.356 . S
H350 C344 0.930 . S
H351 C348 0.930 . S
C352 C354 1.348 . S
C352 C355 1.356 . S
C352 O382 1.325 . S
N353 C356 1.314 . S
N353 C357 1.279 . S
C354 C352 1.348 . S
C354 C356 1.353 . S
C354 H396 0.929 . S
C355 C352 1.356 . S
C355 C357 1.358 . S
C355 H397 0.930 . S
C356 N353 1.314 . S
C356 C354 1.353 . S
C356 H398 0.930 . S
C357 N353 1.279 . S
C357 C355 1.358 . S
C357 H399 0.930 . S
C358 C359 1.348 1_554 S
C358 C360 1.356 . S
C358 O383 1.325 . S
C359 C358 1.348 1_556 S
C359 C361 1.353 . S
C359 H400 0.929 . S
C360 C358 1.356 . S
C360 C362 1.358 . S
C360 H401 0.930 . S
C361 C359 1.353 . S
C361 N363 1.314 1_556 S
C361 H402 0.930 . S
C362 C360 1.358 . S
C362 N363 1.279 . S
C362 H403 0.930 . S
N363 C361 1.314 1_554 S
N363 C362 1.279 . S
C364 C366 1.353 . S
C364 N367 1.314 . S
C364 H370 0.930 . S
C365 N367 1.279 . S
C365 C368 1.358 . S
C365 H371 0.930 . S
C366 C364 1.353 . S
C366 C369 1.348 . S
C366 H404 0.929 . S
N367 Li322 1.990 . S
N367 C364 1.314 . S
N367 C365 1.279 . S
C368 C365 1.358 . S
C368 C369 1.356 . S
C368 H405 0.930 . S
C369 C366 1.348 . S
C369 C368 1.356 . S
H370 C364 0.930 . S
H371 C365 0.930 . S
C372 N373 1.314 . S
C372 C374 1.353 . S
C372 H378 0.930 . S
N373 Li323 1.990 . S
N373 C372 1.314 . S
N373 C376 1.279 . S
C374 C372 1.353 . S
C374 C377 1.348 . S
C374 H406 0.929 . S
C375 C376 1.358 . S
C375 C377 1.356 . S
C375 H407 0.930 . S
C376 N373 1.279 . S
C376 C375 1.358 . S
C376 H379 0.930 . S
C377 C374 1.348 . S
C377 C375 1.356 . S
H378 C372 0.930 . S
H379 C376 0.930 . S
O380 Li320 1.956 . S
O380 Li321 1.970 1_556 S
O380 Li322 1.961 . S
O380 C324 1.325 . S
O381 Li320 1.970 1_554 S
O381 Li321 1.956 . S
O381 Li323 1.961 . S
O381 C330 1.325 . S
O382 Li320 1.961 . S
O382 Li322 1.956 . S
O382 Li323 1.970 1_556 S
O382 C352 1.325 . S
O383 Li321 1.961 . S
O383 Li322 1.970 1_554 S
O383 Li323 1.956 . S
O383 C358 1.325 . S
H384 C326 0.929 . S
H385 C327 0.930 . S
H386 C328 0.930 . S
H387 C329 0.930 . S
H388 C331 0.930 . S
H389 C333 0.929 . S
H390 C334 0.930 . S
H391 C335 0.930 . S
H392 C338 0.930 . S
H393 C341 0.929 . S
H394 C346 0.929 . S
H395 C347 0.930 . S
H396 C354 0.929 . S
H397 C355 0.930 . S
H398 C356 0.930 . S
H399 C357 0.930 . S
H400 C359 0.929 . S
H401 C360 0.930 . S
H402 C361 0.930 . S
H403 C362 0.930 . S
H404 C366 0.929 . S
H405 C368 0.930 . S
H406 C374 0.929 . S
H407 C375 0.930 . S
Li408 N425 1.990 . S
Li408 O468 1.956 . S
Li408 O469 1.970 1_545 S
Li408 O470 1.961 . S
Li409 N433 1.990 . S
Li409 O468 1.970 1_565 S
Li409 O469 1.956 . S
Li409 O471 1.961 . S
Li410 N455 1.990 . S
Li410 O468 1.961 . S
Li410 O470 1.956 . S
Li410 O471 1.970 1_545 S
Li411 N461 1.990 . S
Li411 O469 1.961 . S
Li411 O470 1.970 1_565 S
Li411 O471 1.956 . S
C412 C414 1.348 . S
C412 C415 1.356 . S
C412 O468 1.325 . S
N413 C416 1.314 . S
N413 C417 1.279 . S
C414 C412 1.348 . S
C414 C416 1.353 . S
C414 H472 0.929 . S
C415 C412 1.356 . S
C415 C417 1.358 . S
C415 H473 0.930 . S
C416 N413 1.314 . S
C416 C414 1.353 . S
C416 H474 0.930 . S
C417 N413 1.279 . S
C417 C415 1.358 . S
C417 H475 0.930 . S
C418 C421 1.348 1_565 S
C418 C422 1.356 . S
C418 O469 1.325 . S
C419 N420 1.279 . S
C419 C422 1.358 . S
C419 H476 0.930 . S
N420 C419 1.279 . S
N420 C423 1.314 1_565 S
C421 C418 1.348 1_545 S
C421 C423 1.353 . S
C421 H477 0.929 . S
C422 C418 1.356 . S
C422 C419 1.358 . S
C422 H478 0.930 . S
C423 N420 1.314 1_545 S
C423 C421 1.353 . S
C423 H479 0.930 . S
C424 N425 1.314 . S
C424 C429 1.353 . S
C424 H430 0.930 . S
N425 Li408 1.990 . S
N425 C424 1.314 . S
N425 C427 1.279 . S
C426 C427 1.358 . S
C426 C428 1.356 . S
C426 H480 0.930 . S
C427 N425 1.279 . S
C427 C426 1.358 . S
C427 H431 0.930 . S
C428 C426 1.356 . S
C428 C429 1.348 . S
C429 C424 1.353 . S
C429 C428 1.348 . S
C429 H481 0.929 . S
H430 C424 0.930 . S
H431 C427 0.930 . S
C432 N433 1.314 . S
C432 C434 1.353 . S
C432 H438 0.930 . S
N433 Li409 1.990 . S
N433 C432 1.314 . S
N433 C436 1.279 . S
C434 C432 1.353 . S
C434 C437 1.348 . S
C434 H482 0.929 . S
C435 C436 1.358 . S
C435 C437 1.356 . S
C435 H483 0.930 . S
C436 N433 1.279 . S
C436 C435 1.358 . S
C436 H439 0.930 . S
C437 C434 1.348 . S
C437 C435 1.356 . S
H438 C432 0.930 . S
H439 C436 0.930 . S
C440 C442 1.348 1_545 S
C440 C443 1.356 . S
C440 O470 1.325 . S
N441 C444 1.314 1_545 S
N441 C445 1.279 . S
C442 C440 1.348 1_565 S
C442 C444 1.353 . S
C442 H484 0.929 . S
C443 C440 1.356 . S
C443 C445 1.358 . S
C443 H485 0.930 . S
C444 N441 1.314 1_565 S
C444 C442 1.353 . S
C444 H486 0.930 . S
C445 N441 1.279 . S
C445 C443 1.358 . S
C445 H487 0.930 . S
C446 C447 1.348 . S
C446 C448 1.356 . S
C446 O471 1.325 . S
C447 C446 1.348 . S
C447 C449 1.353 . S
C447 H488 0.929 . S
C448 C446 1.356 . S
C448 C450 1.358 . S
C448 H489 0.930 . S
C449 C447 1.353 . S
C449 N451 1.314 . S
C449 H490 0.930 . S
C450 C448 1.358 . S
C450 N451 1.279 . S
C450 H491 0.930 . S
N451 C449 1.314 . S
N451 C450 1.279 . S
C452 C454 1.353 . S
C452 N455 1.314 . S
C452 H458 0.930 . S
C453 N455 1.279 . S
C453 C456 1.358 . S
C453 H459 0.930 . S
C454 C452 1.353 . S
C454 C457 1.348 . S
C454 H492 0.929 . S
N455 Li410 1.990 . S
N455 C452 1.314 . S
N455 C453 1.279 . S
C456 C453 1.358 . S
C456 C457 1.356 . S
C456 H493 0.930 . S
C457 C454 1.348 . S
C457 C456 1.356 . S
H458 C452 0.930 . S
H459 C453 0.930 . S
C460 N461 1.314 . S
C460 C462 1.353 . S
C460 H466 0.930 . S
N461 Li411 1.990 . S
N461 C460 1.314 . S
N461 C464 1.279 . S
C462 C460 1.353 . S
C462 C465 1.348 . S
C462 H494 0.929 . S
C463 C464 1.358 . S
C463 C465 1.356 . S
C463 H495 0.930 . S
C464 N461 1.279 . S
C464 C463 1.358 . S
C464 H467 0.930 . S
C465 C462 1.348 . S
C465 C463 1.356 . S
H466 C460 0.930 . S
H467 C464 0.930 . S
O468 Li408 1.956 . S
O468 Li409 1.970 1_545 S
O468 Li410 1.961 . S
O468 C412 1.325 . S
O469 Li408 1.970 1_565 S
O469 Li409 1.956 . S
O469 Li411 1.961 . S
O469 C418 1.325 . S
O470 Li408 1.961 . S
O470 Li410 1.956 . S
O470 Li411 1.970 1_545 S
O470 C440 1.325 . S
O471 Li409 1.961 . S
O471 Li410 1.970 1_565 S
O471 Li411 1.956 . S
O471 C446 1.325 . S
H472 C414 0.929 . S
H473 C415 0.930 . S
H474 C416 0.930 . S
H475 C417 0.930 . S
H476 C419 0.930 . S
H477 C421 0.929 . S
H478 C422 0.930 . S
H479 C423 0.930 . S
H480 C426 0.930 . S
H481 C429 0.929 . S
H482 C434 0.929 . S
H483 C435 0.930 . S
H484 C442 0.929 . S
H485 C443 0.930 . S
H486 C444 0.930 . S
H487 C445 0.930 . S
H488 C447 0.929 . S
H489 C448 0.930 . S
H490 C449 0.930 . S
H491 C450 0.930 . S
H492 C454 0.929 . S
H493 C456 0.930 . S
H494 C462 0.929 . S
H495 C463 0.930 . S
Li496 N513 1.990 . S
Li496 O556 1.956 . S
Li496 O557 1.970 . S
Li496 O558 1.961 . S
Li497 N521 1.990 . S
Li497 O556 1.970 . S
Li497 O557 1.956 . S
Li497 O559 1.961 . S
Li498 N543 1.990 . S
Li498 O556 1.961 . S
Li498 O558 1.956 . S
Li498 O559 1.970 . S
Li499 N549 1.990 . S
Li499 O557 1.961 . S
Li499 O558 1.970 . S
Li499 O559 1.956 . S
C500 C502 1.348 . S
C500 C503 1.356 . S
C500 O556 1.325 . S
N501 C504 1.314 . S
N501 C505 1.279 . S
C502 C500 1.348 . S
C502 C504 1.353 . S
C502 H560 0.929 . S
C503 C500 1.356 . S
C503 C505 1.358 . S
C503 H561 0.930 . S
C504 N501 1.314 . S
C504 C502 1.353 . S
C504 H562 0.930 . S
C505 N501 1.279 . S
C505 C503 1.358 . S
C505 H563 0.930 . S
C506 C509 1.348 . S
C506 C510 1.356 . S
C506 O557 1.325 . S
C507 N508 1.279 . S
C507 C510 1.358 . S
C507 H564 0.930 . S
N508 C507 1.279 . S
N508 C511 1.314 . S
C509 C506 1.348 . S
C509 C511 1.353 . S
C509 H565 0.929 . S
C510 C506 1.356 . S
C510 C507 1.358 . S
C510 H566 0.930 . S
C511 N508 1.314 . S
C511 C509 1.353 . S
C511 H567 0.930 . S
C512 N513 1.314 . S
C512 C517 1.353 . S
C512 H518 0.930 . S
N513 Li496 1.990 . S
N513 C512 1.314 . S
N513 C515 1.279 . S
C514 C515 1.358 . S
C514 C516 1.356 . S
C514 H568 0.930 . S
C515 N513 1.279 . S
C515 C514 1.358 . S
C515 H519 0.930 . S
C516 C514 1.356 . S
C516 C517 1.348 . S
C517 C512 1.353 . S
C517 C516 1.348 . S
C517 H569 0.929 . S
H518 C512 0.930 . S
H519 C515 0.930 . S
C520 N521 1.314 . S
C520 C522 1.353 . S
C520 H526 0.930 . S
N521 Li497 1.990 . S
N521 C520 1.314 . S
N521 C524 1.279 . S
C522 C520 1.353 . S
C522 C525 1.348 . S
C522 H570 0.929 . S
C523 C524 1.358 . S
C523 C525 1.356 . S
C523 H571 0.930 . S
C524 N521 1.279 . S
C524 C523 1.358 . S
C524 H527 0.930 . S
C525 C522 1.348 . S
C525 C523 1.356 . S
H526 C520 0.930 . S
H527 C524 0.930 . S
C528 C530 1.348 . S
C528 C531 1.356 . S
C528 O558 1.325 . S
N529 C532 1.314 . S
N529 C533 1.279 . S
C530 C528 1.348 . S
C530 C532 1.353 . S
C530 H572 0.929 . S
C531 C528 1.356 . S
C531 C533 1.358 . S
C531 H573 0.930 . S
C532 N529 1.314 . S
C532 C530 1.353 . S
C532 H574 0.930 . S
C533 N529 1.279 . S
C533 C531 1.358 . S
C533 H575 0.930 . S
C534 C535 1.348 . S
C534 C536 1.356 . S
C534 O559 1.325 . S
C535 C534 1.348 . S
C535 C537 1.353 . S
C535 H576 0.929 . S
C536 C534 1.356 . S
C536 C538 1.358 . S
C536 H577 0.930 . S
C537 C535 1.353 . S
C537 N539 1.314 . S
C537 H578 0.930 . S
C538 C536 1.358 . S
C538 N539 1.279 . S
C538 H579 0.930 . S
N539 C537 1.314 . S
N539 C538 1.279 . S
C540 C542 1.353 . S
C540 N543 1.314 . S
C540 H546 0.930 . S
C541 N543 1.279 . S
C541 C544 1.358 . S
C541 H547 0.930 . S
C542 C540 1.353 . S
C542 C545 1.348 . S
C542 H580 0.929 . S
N543 Li498 1.990 . S
N543 C540 1.314 . S
N543 C541 1.279 . S
C544 C541 1.358 . S
C544 C545 1.356 . S
C544 H581 0.930 . S
C545 C542 1.348 . S
C545 C544 1.356 . S
H546 C540 0.930 . S
H547 C541 0.930 . S
C548 N549 1.314 . S
C548 C550 1.353 . S
C548 H554 0.930 . S
N549 Li499 1.990 . S
N549 C548 1.314 . S
N549 C552 1.279 . S
C550 C548 1.353 . S
C550 C553 1.348 . S
C550 H582 0.929 . S
C551 C552 1.358 . S
C551 C553 1.356 . S
C551 H583 0.930 . S
C552 N549 1.279 . S
C552 C551 1.358 . S
C552 H555 0.930 . S
C553 C550 1.348 . S
C553 C551 1.356 . S
H554 C548 0.930 . S
H555 C552 0.930 . S
O556 Li496 1.956 . S
O556 Li497 1.970 . S
O556 Li498 1.961 . S
O556 C500 1.325 . S
O557 Li496 1.970 . S
O557 Li497 1.956 . S
O557 Li499 1.961 . S
O557 C506 1.325 . S
O558 Li496 1.961 . S
O558 Li498 1.956 . S
O558 Li499 1.970 . S
O558 C528 1.325 . S
O559 Li497 1.961 . S
O559 Li498 1.970 . S
O559 Li499 1.956 . S
O559 C534 1.325 . S
H560 C502 0.929 . S
H561 C503 0.930 . S
H562 C504 0.930 . S
H563 C505 0.930 . S
H564 C507 0.930 . S
H565 C509 0.929 . S
H566 C510 0.930 . S
H567 C511 0.930 . S
H568 C514 0.930 . S
H569 C517 0.929 . S
H570 C522 0.929 . S
H571 C523 0.930 . S
H572 C530 0.929 . S
H573 C531 0.930 . S
H574 C532 0.930 . S
H575 C533 0.930 . S
H576 C535 0.929 . S
H577 C536 0.930 . S
H578 C537 0.930 . S
H579 C538 0.930 . S
H580 C542 0.929 . S
H581 C544 0.930 . S
H582 C550 0.929 . S
H583 C551 0.930 . S
Li584 N601 1.990 . S
Li584 O644 1.956 . S
Li584 O645 1.970 . S
Li584 O646 1.961 . S
Li585 N609 1.990 . S
Li585 O644 1.970 . S
Li585 O645 1.956 . S
Li585 O647 1.961 . S
Li586 N631 1.990 . S
Li586 O644 1.961 . S
Li586 O646 1.956 . S
Li586 O647 1.970 . S
Li587 N637 1.990 . S
Li587 O645 1.961 . S
Li587 O646 1.970 . S
Li587 O647 1.956 . S
C588 C590 1.348 . S
C588 C591 1.356 . S
C588 O644 1.325 . S
N589 C592 1.314 . S
N589 C593 1.279 . S
C590 C588 1.348 . S
C590 C592 1.353 . S
C590 H648 0.929 . S
C591 C588 1.356 . S
C591 C593 1.358 . S
C591 H649 0.930 . S
C592 N589 1.314 . S
C592 C590 1.353 . S
C592 H650 0.930 . S
C593 N589 1.279 . S
C593 C591 1.358 . S
C593 H651 0.930 . S
C594 C597 1.348 . S
C594 C598 1.356 . S
C594 O645 1.325 . S
C595 N596 1.279 . S
C595 C598 1.358 . S
C595 H652 0.930 . S
N596 C595 1.279 . S
N596 C599 1.314 . S
C597 C594 1.348 . S
C597 C599 1.353 . S
C597 H653 0.929 . S
C598 C594 1.356 . S
C598 C595 1.358 . S
C598 H654 0.930 . S
C599 N596 1.314 . S
C599 C597 1.353 . S
C599 H655 0.930 . S
C600 N601 1.314 . S
C600 C605 1.353 . S
C600 H606 0.930 . S
N601 Li584 1.990 . S
N601 C600 1.314 . S
N601 C603 1.279 . S
C602 C603 1.358 . S
C602 C604 1.356 . S
C602 H656 0.930 . S
C603 N601 1.279 . S
C603 C602 1.358 . S
C603 H607 0.930 . S
C604 C602 1.356 . S
C604 C605 1.348 . S
C605 C600 1.353 . S
C605 C604 1.348 . S
C605 H657 0.929 . S
H606 C600 0.930 . S
H607 C603 0.930 . S
C608 N609 1.314 . S
C608 C610 1.353 . S
C608 H614 0.930 . S
N609 Li585 1.990 . S
N609 C608 1.314 . S
N609 C612 1.279 . S
C610 C608 1.353 . S
C610 C613 1.348 . S
C610 H658 0.929 . S
C611 C612 1.358 . S
C611 C613 1.356 . S
C611 H659 0.930 . S
C612 N609 1.279 . S
C612 C611 1.358 . S
C612 H615 0.930 . S
C613 C610 1.348 . S
C613 C611 1.356 . S
H614 C608 0.930 . S
H615 C612 0.930 . S
C616 C618 1.348 . S
C616 C619 1.356 . S
C616 O646 1.325 . S
N617 C620 1.314 . S
N617 C621 1.279 . S
C618 C616 1.348 . S
C618 C620 1.353 . S
C618 H660 0.929 . S
C619 C616 1.356 . S
C619 C621 1.358 . S
C619 H661 0.930 . S
C620 N617 1.314 . S
C620 C618 1.353 . S
C620 H662 0.930 . S
C621 N617 1.279 . S
C621 C619 1.358 . S
C621 H663 0.930 . S
C622 C623 1.348 . S
C622 C624 1.356 . S
C622 O647 1.325 . S
C623 C622 1.348 . S
C623 C625 1.353 . S
C623 H664 0.929 . S
C624 C622 1.356 . S
C624 C626 1.358 . S
C624 H665 0.930 . S
C625 C623 1.353 . S
C625 N627 1.314 . S
C625 H666 0.930 . S
C626 C624 1.358 . S
C626 N627 1.279 . S
C626 H667 0.930 . S
N627 C625 1.314 . S
N627 C626 1.279 . S
C628 C630 1.353 . S
C628 N631 1.314 . S
C628 H634 0.930 . S
C629 N631 1.279 . S
C629 C632 1.358 . S
C629 H635 0.930 . S
C630 C628 1.353 . S
C630 C633 1.348 . S
C630 H668 0.929 . S
N631 Li586 1.990 . S
N631 C628 1.314 . S
N631 C629 1.279 . S
C632 C629 1.358 . S
C632 C633 1.356 . S
C632 H669 0.930 . S
C633 C630 1.348 . S
C633 C632 1.356 . S
H634 C628 0.930 . S
H635 C629 0.930 . S
C636 N637 1.314 . S
C636 C638 1.353 . S
C636 H642 0.930 . S
N637 Li587 1.990 . S
N637 C636 1.314 . S
N637 C640 1.279 . S
C638 C636 1.353 . S
C638 C641 1.348 . S
C638 H670 0.929 . S
C639 C640 1.358 . S
C639 C641 1.356 . S
C639 H671 0.930 . S
C640 N637 1.279 . S
C640 C639 1.358 . S
C640 H643 0.930 . S
C641 C638 1.348 . S
C641 C639 1.356 . S
H642 C636 0.930 . S
H643 C640 0.930 . S
O644 Li584 1.956 . S
O644 Li585 1.970 . S
O644 Li586 1.961 . S
O644 C588 1.325 . S
O645 Li584 1.970 . S
O645 Li585 1.956 . S
O645 Li587 1.961 . S
O645 C594 1.325 . S
O646 Li584 1.961 . S
O646 Li586 1.956 . S
O646 Li587 1.970 . S
O646 C616 1.325 . S
O647 Li585 1.961 . S
O647 Li586 1.970 . S
O647 Li587 1.956 . S
O647 C622 1.325 . S
H648 C590 0.929 . S
H649 C591 0.930 . S
H650 C592 0.930 . S
H651 C593 0.930 . S
H652 C595 0.930 . S
H653 C597 0.929 . S
H654 C598 0.930 . S
H655 C599 0.930 . S
H656 C602 0.930 . S
H657 C605 0.929 . S
H658 C610 0.929 . S
H659 C611 0.930 . S
H660 C618 0.929 . S
H661 C619 0.930 . S
H662 C620 0.930 . S
H663 C621 0.930 . S
H664 C623 0.929 . S
H665 C624 0.930 . S
H666 C625 0.930 . S
H667 C626 0.930 . S
H668 C630 0.929 . S
H669 C632 0.930 . S
H670 C638 0.929 . S
H671 C639 0.930 . S
Li672 N689 1.990 . S
Li672 O732 1.956 . S
Li672 O733 1.970 . S
Li672 O734 1.961 . S
Li673 N697 1.990 . S
Li673 O732 1.970 . S
Li673 O733 1.956 . S
Li673 O735 1.961 . S
Li674 N719 1.990 . S
Li674 O732 1.961 . S
Li674 O734 1.956 . S
Li674 O735 1.970 . S
Li675 N725 1.990 . S
Li675 O733 1.961 . S
Li675 O734 1.970 . S
Li675 O735 1.956 . S
C676 C678 1.348 . S
C676 C679 1.356 . S
C676 O732 1.325 . S
N677 C680 1.314 . S
N677 C681 1.279 . S
C678 C676 1.348 . S
C678 C680 1.353 . S
C678 H736 0.929 . S
C679 C676 1.356 . S
C679 C681 1.358 . S
C679 H737 0.930 . S
C680 N677 1.314 . S
C680 C678 1.353 . S
C680 H738 0.930 . S
C681 N677 1.279 . S
C681 C679 1.358 . S
C681 H739 0.930 . S
C682 C685 1.348 . S
C682 C686 1.356 . S
C682 O733 1.325 . S
C683 N684 1.279 . S
C683 C686 1.358 . S
C683 H740 0.930 . S
N684 C683 1.279 . S
N684 C687 1.314 . S
C685 C682 1.348 . S
C685 C687 1.353 . S
C685 H741 0.929 . S
C686 C682 1.356 . S
C686 C683 1.358 . S
C686 H742 0.930 . S
C687 N684 1.314 . S
C687 C685 1.353 . S
C687 H743 0.930 . S
C688 N689 1.314 . S
C688 C693 1.353 . S
C688 H694 0.930 . S
N689 Li672 1.990 . S
N689 C688 1.314 . S
N689 C691 1.279 . S
C690 C691 1.358 . S
C690 C692 1.356 . S
C690 H744 0.930 . S
C691 N689 1.279 . S
C691 C690 1.358 . S
C691 H695 0.930 . S
C692 C690 1.356 . S
C692 C693 1.348 . S
C693 C688 1.353 . S
C693 C692 1.348 . S
C693 H745 0.929 . S
H694 C688 0.930 . S
H695 C691 0.930 . S
C696 N697 1.314 . S
C696 C698 1.353 . S
C696 H702 0.930 . S
N697 Li673 1.990 . S
N697 C696 1.314 . S
N697 C700 1.279 . S
C698 C696 1.353 . S
C698 C701 1.348 . S
C698 H746 0.929 . S
C699 C700 1.358 . S
C699 C701 1.356 . S
C699 H747 0.930 . S
C700 N697 1.279 . S
C700 C699 1.358 . S
C700 H703 0.930 . S
C701 C698 1.348 . S
C701 C699 1.356 . S
H702 C696 0.930 . S
H703 C700 0.930 . S
C704 C706 1.348 . S
C704 C707 1.356 . S
C704 O734 1.325 . S
N705 C708 1.314 . S
N705 C709 1.279 . S
C706 C704 1.348 . S
C706 C708 1.353 . S
C706 H748 0.929 . S
C707 C704 1.356 . S
C707 C709 1.358 . S
C707 H749 0.930 . S
C708 N705 1.314 . S
C708 C706 1.353 . S
C708 H750 0.930 . S
C709 N705 1.279 . S
C709 C707 1.358 . S
C709 H751 0.930 . S
C710 C711 1.348 . S
C710 C712 1.356 . S
C710 O735 1.325 . S
C711 C710 1.348 . S
C711 C713 1.353 . S
C711 H752 0.929 . S
C712 C710 1.356 . S
C712 C714 1.358 . S
C712 H753 0.930 . S
C713 C711 1.353 . S
C713 N715 1.314 . S
C713 H754 0.930 . S
C714 C712 1.358 . S
C714 N715 1.279 . S
C714 H755 0.930 . S
N715 C713 1.314 . S
N715 C714 1.279 . S
C716 C718 1.353 . S
C716 N719 1.314 . S
C716 H722 0.930 . S
C717 N719 1.279 . S
C717 C720 1.358 . S
C717 H723 0.930 . S
C718 C716 1.353 . S
C718 C721 1.348 . S
C718 H756 0.929 . S
N719 Li674 1.990 . S
N719 C716 1.314 . S
N719 C717 1.279 . S
C720 C717 1.358 . S
C720 C721 1.356 . S
C720 H757 0.930 . S
C721 C718 1.348 . S
C721 C720 1.356 . S
H722 C716 0.930 . S
H723 C717 0.930 . S
C724 N725 1.314 . S
C724 C726 1.353 . S
C724 H730 0.930 . S
N725 Li675 1.990 . S
N725 C724 1.314 . S
N725 C728 1.279 . S
C726 C724 1.353 . S
C726 C729 1.348 . S
C726 H758 0.929 . S
C727 C728 1.358 . S
C727 C729 1.356 . S
C727 H759 0.930 . S
C728 N725 1.279 . S
C728 C727 1.358 . S
C728 H731 0.930 . S
C729 C726 1.348 . S
C729 C727 1.356 . S
H730 C724 0.930 . S
H731 C728 0.930 . S
O732 Li672 1.956 . S
O732 Li673 1.970 . S
O732 Li674 1.961 . S
O732 C676 1.325 . S
O733 Li672 1.970 . S
O733 Li673 1.956 . S
O733 Li675 1.961 . S
O733 C682 1.325 . S
O734 Li672 1.961 . S
O734 Li674 1.956 . S
O734 Li675 1.970 . S
O734 C704 1.325 . S
O735 Li673 1.961 . S
O735 Li674 1.970 . S
O735 Li675 1.956 . S
O735 C710 1.325 . S
H736 C678 0.929 . S
H737 C679 0.930 . S
H738 C680 0.930 . S
H739 C681 0.930 . S
H740 C683 0.930 . S
H741 C685 0.929 . S
H742 C686 0.930 . S
H743 C687 0.930 . S
H744 C690 0.930 . S
H745 C693 0.929 . S
H746 C698 0.929 . S
H747 C699 0.930 . S
H748 C706 0.929 . S
H749 C707 0.930 . S
H750 C708 0.930 . S
H751 C709 0.930 . S
H752 C711 0.929 . S
H753 C712 0.930 . S
H754 C713 0.930 . S
H755 C714 0.930 . S
H756 C718 0.929 . S
H757 C720 0.930 . S
H758 C726 0.929 . S
H759 C727 0.930 . S
Li760 N777 1.990 . S
Li760 O820 1.956 . S
Li760 O821 1.970 1_565 S
Li760 O822 1.961 . S
Li761 N785 1.990 . S
Li761 O820 1.970 1_545 S
Li761 O821 1.956 . S
Li761 O823 1.961 . S
Li762 N807 1.990 . S
Li762 O820 1.961 . S
Li762 O822 1.956 . S
Li762 O823 1.970 1_565 S
Li763 N813 1.990 . S
Li763 O821 1.961 . S
Li763 O822 1.970 1_545 S
Li763 O823 1.956 . S
C764 C766 1.348 . S
C764 C767 1.356 . S
C764 O820 1.325 . S
N765 C768 1.314 . S
N765 C769 1.279 . S
C766 C764 1.348 . S
C766 C768 1.353 . S
C766 H824 0.929 . S
C767 C764 1.356 . S
C767 C769 1.358 . S
C767 H825 0.930 . S
C768 N765 1.314 . S
C768 C766 1.353 . S
C768 H826 0.930 . S
C769 N765 1.279 . S
C769 C767 1.358 . S
C769 H827 0.930 . S
C770 C773 1.348 1_545 S
C770 C774 1.356 . S
C770 O821 1.325 . S
C771 N772 1.279 . S
C771 C774 1.358 . S
C771 H828 0.930 . S
N772 C771 1.279 . S
N772 C775 1.314 1_545 S
C773 C770 1.348 1_565 S
C773 C775 1.353 . S
C773 H829 0.929 . S
C774 C770 1.356 . S
C774 C771 1.358 . S
C774 H830 0.930 . S
C775 N772 1.314 1_565 S
C775 C773 1.353 . S
C775 H831 0.930 . S
C776 N777 1.314 . S
C776 C781 1.353 . S
C776 H782 0.930 . S
N777 Li760 1.990 . S
N777 C776 1.314 . S
N777 C779 1.279 . S
C778 C779 1.358 . S
C778 C780 1.356 . S
C778 H832 0.930 . S
C779 N777 1.279 . S
C779 C778 1.358 . S
C779 H783 0.930 . S
C780 C778 1.356 . S
C780 C781 1.348 . S
C781 C776 1.353 . S
C781 C780 1.348 . S
C781 H833 0.929 . S
H782 C776 0.930 . S
H783 C779 0.930 . S
C784 N785 1.314 . S
C784 C786 1.353 . S
C784 H790 0.930 . S
N785 Li761 1.990 . S
N785 C784 1.314 . S
N785 C788 1.279 . S
C786 C784 1.353 . S
C786 C789 1.348 . S
C786 H834 0.929 . S
C787 C788 1.358 . S
C787 C789 1.356 . S
C787 H835 0.930 . S
C788 N785 1.279 . S
C788 C787 1.358 . S
C788 H791 0.930 . S
C789 C786 1.348 . S
C789 C787 1.356 . S
H790 C784 0.930 . S
H791 C788 0.930 . S
C792 C794 1.348 1_565 S
C792 C795 1.356 . S
C792 O822 1.325 . S
N793 C796 1.314 1_565 S
N793 C797 1.279 . S
C794 C792 1.348 1_545 S
C794 C796 1.353 . S
C794 H836 0.929 . S
C795 C792 1.356 . S
C795 C797 1.358 . S
C795 H837 0.930 . S
C796 N793 1.314 1_545 S
C796 C794 1.353 . S
C796 H838 0.930 . S
C797 N793 1.279 . S
C797 C795 1.358 . S
C797 H839 0.930 . S
C798 C799 1.348 . S
C798 C800 1.356 . S
C798 O823 1.325 . S
C799 C798 1.348 . S
C799 C801 1.353 . S
C799 H840 0.929 . S
C800 C798 1.356 . S
C800 C802 1.358 . S
C800 H841 0.930 . S
C801 C799 1.353 . S
C801 N803 1.314 . S
C801 H842 0.930 . S
C802 C800 1.358 . S
C802 N803 1.279 . S
C802 H843 0.930 . S
N803 C801 1.314 . S
N803 C802 1.279 . S
C804 C806 1.353 . S
C804 N807 1.314 . S
C804 H810 0.930 . S
C805 N807 1.279 . S
C805 C808 1.358 . S
C805 H811 0.930 . S
C806 C804 1.353 . S
C806 C809 1.348 . S
C806 H844 0.929 . S
N807 Li762 1.990 . S
N807 C804 1.314 . S
N807 C805 1.279 . S
C808 C805 1.358 . S
C808 C809 1.356 . S
C808 H845 0.930 . S
C809 C806 1.348 . S
C809 C808 1.356 . S
H810 C804 0.930 . S
H811 C805 0.930 . S
C812 N813 1.314 . S
C812 C814 1.353 . S
C812 H818 0.930 . S
N813 Li763 1.990 . S
N813 C812 1.314 . S
N813 C816 1.279 . S
C814 C812 1.353 . S
C814 C817 1.348 . S
C814 H846 0.929 . S
C815 C816 1.358 . S
C815 C817 1.356 . S
C815 H847 0.930 . S
C816 N813 1.279 . S
C816 C815 1.358 . S
C816 H819 0.930 . S
C817 C814 1.348 . S
C817 C815 1.356 . S
H818 C812 0.930 . S
H819 C816 0.930 . S
O820 Li760 1.956 . S
O820 Li761 1.970 1_565 S
O820 Li762 1.961 . S
O820 C764 1.325 . S
O821 Li760 1.970 1_545 S
O821 Li761 1.956 . S
O821 Li763 1.961 . S
O821 C770 1.325 . S
O822 Li760 1.961 . S
O822 Li762 1.956 . S
O822 Li763 1.970 1_565 S
O822 C792 1.325 . S
O823 Li761 1.961 . S
O823 Li762 1.970 1_545 S
O823 Li763 1.956 . S
O823 C798 1.325 . S
H824 C766 0.929 . S
H825 C767 0.930 . S
H826 C768 0.930 . S
H827 C769 0.930 . S
H828 C771 0.930 . S
H829 C773 0.929 . S
H830 C774 0.930 . S
H831 C775 0.930 . S
H832 C778 0.930 . S
H833 C781 0.929 . S
H834 C786 0.929 . S
H835 C787 0.930 . S
H836 C794 0.929 . S
H837 C795 0.930 . S
H838 C796 0.930 . S
H839 C797 0.930 . S
H840 C799 0.929 . S
H841 C800 0.930 . S
H842 C801 0.930 . S
H843 C802 0.930 . S
H844 C806 0.929 . S
H845 C808 0.930 . S
H846 C814 0.929 . S
H847 C815 0.930 . S
Li848 N865 1.990 . S
Li848 O908 1.956 . S
Li848 O909 1.970 1_455 S
Li848 O910 1.961 . S
Li849 N873 1.990 . S
Li849 O908 1.970 1_655 S
Li849 O909 1.956 . S
Li849 O911 1.961 . S
Li850 N895 1.990 . S
Li850 O908 1.961 . S
Li850 O910 1.956 . S
Li850 O911 1.970 1_455 S
Li851 N901 1.990 . S
Li851 O909 1.961 . S
Li851 O910 1.970 1_655 S
Li851 O911 1.956 . S
C852 C854 1.348 . S
C852 C855 1.356 . S
C852 O908 1.325 . S
N853 C856 1.314 . S
N853 C857 1.279 . S
C854 C852 1.348 . S
C854 C856 1.353 . S
C854 H912 0.929 . S
C855 C852 1.356 . S
C855 C857 1.358 . S
C855 H913 0.930 . S
C856 N853 1.314 . S
C856 C854 1.353 . S
C856 H914 0.930 . S
C857 N853 1.279 . S
C857 C855 1.358 . S
C857 H915 0.930 . S
C858 C861 1.348 1_655 S
C858 C862 1.356 . S
C858 O909 1.325 . S
C859 N860 1.279 . S
C859 C862 1.358 . S
C859 H916 0.930 . S
N860 C859 1.279 . S
N860 C863 1.314 1_655 S
C861 C858 1.348 1_455 S
C861 C863 1.353 . S
C861 H917 0.929 . S
C862 C858 1.356 . S
C862 C859 1.358 . S
C862 H918 0.930 . S
C863 N860 1.314 1_455 S
C863 C861 1.353 . S
C863 H919 0.930 . S
C864 N865 1.314 . S
C864 C869 1.353 . S
C864 H870 0.930 . S
N865 Li848 1.990 . S
N865 C864 1.314 . S
N865 C867 1.279 . S
C866 C867 1.358 . S
C866 C868 1.356 . S
C866 H920 0.930 . S
C867 N865 1.279 . S
C867 C866 1.358 . S
C867 H871 0.930 . S
C868 C866 1.356 . S
C868 C869 1.348 . S
C869 C864 1.353 . S
C869 C868 1.348 . S
C869 H921 0.929 . S
H870 C864 0.930 . S
H871 C867 0.930 . S
C872 N873 1.314 . S
C872 C874 1.353 . S
C872 H878 0.930 . S
N873 Li849 1.990 . S
N873 C872 1.314 . S
N873 C876 1.279 . S
C874 C872 1.353 . S
C874 C877 1.348 . S
C874 H922 0.929 . S
C875 C876 1.358 . S
C875 C877 1.356 . S
C875 H923 0.930 . S
C876 N873 1.279 . S
C876 C875 1.358 . S
C876 H879 0.930 . S
C877 C874 1.348 . S
C877 C875 1.356 . S
H878 C872 0.930 . S
H879 C876 0.930 . S
C880 C882 1.348 1_455 S
C880 C883 1.356 . S
C880 O910 1.325 . S
N881 C884 1.314 1_455 S
N881 C885 1.279 . S
C882 C880 1.348 1_655 S
C882 C884 1.353 . S
C882 H924 0.929 . S
C883 C880 1.356 . S
C883 C885 1.358 . S
C883 H925 0.930 . S
C884 N881 1.314 1_655 S
C884 C882 1.353 . S
C884 H926 0.930 . S
C885 N881 1.279 . S
C885 C883 1.358 . S
C885 H927 0.930 . S
C886 C887 1.348 . S
C886 C888 1.356 . S
C886 O911 1.325 . S
C887 C886 1.348 . S
C887 C889 1.353 . S
C887 H928 0.929 . S
C888 C886 1.356 . S
C888 C890 1.358 . S
C888 H929 0.930 . S
C889 C887 1.353 . S
C889 N891 1.314 . S
C889 H930 0.930 . S
C890 C888 1.358 . S
C890 N891 1.279 . S
C890 H931 0.930 . S
N891 C889 1.314 . S
N891 C890 1.279 . S
C892 C894 1.353 . S
C892 N895 1.314 . S
C892 H898 0.930 . S
C893 N895 1.279 . S
C893 C896 1.358 . S
C893 H899 0.930 . S
C894 C892 1.353 . S
C894 C897 1.348 . S
C894 H932 0.929 . S
N895 Li850 1.990 . S
N895 C892 1.314 . S
N895 C893 1.279 . S
C896 C893 1.358 . S
C896 C897 1.356 . S
C896 H933 0.930 . S
C897 C894 1.348 . S
C897 C896 1.356 . S
H898 C892 0.930 . S
H899 C893 0.930 . S
C900 N901 1.314 . S
C900 C902 1.353 . S
C900 H906 0.930 . S
N901 Li851 1.990 . S
N901 C900 1.314 . S
N901 C904 1.279 . S
C902 C900 1.353 . S
C902 C905 1.348 . S
C902 H934 0.929 . S
C903 C904 1.358 . S
C903 C905 1.356 . S
C903 H935 0.930 . S
C904 N901 1.279 . S
C904 C903 1.358 . S
C904 H907 0.930 . S
C905 C902 1.348 . S
C905 C903 1.356 . S
H906 C900 0.930 . S
H907 C904 0.930 . S
O908 Li848 1.956 . S
O908 Li849 1.970 1_455 S
O908 Li850 1.961 . S
O908 C852 1.325 . S
O909 Li848 1.970 1_655 S
O909 Li849 1.956 . S
O909 Li851 1.961 . S
O909 C858 1.325 . S
O910 Li848 1.961 . S
O910 Li850 1.956 . S
O910 Li851 1.970 1_455 S
O910 C880 1.325 . S
O911 Li849 1.961 . S
O911 Li850 1.970 1_655 S
O911 Li851 1.956 . S
O911 C886 1.325 . S
H912 C854 0.929 . S
H913 C855 0.930 . S
H914 C856 0.930 . S
H915 C857 0.930 . S
H916 C859 0.930 . S
H917 C861 0.929 . S
H918 C862 0.930 . S
H919 C863 0.930 . S
H920 C866 0.930 . S
H921 C869 0.929 . S
H922 C874 0.929 . S
H923 C875 0.930 . S
H924 C882 0.929 . S
H925 C883 0.930 . S
H926 C884 0.930 . S
H927 C885 0.930 . S
H928 C887 0.929 . S
H929 C888 0.930 . S
H930 C889 0.930 . S
H931 C890 0.930 . S
H932 C894 0.929 . S
H933 C896 0.930 . S
H934 C902 0.929 . S
H935 C903 0.930 . S
Li936 N953 1.990 . S
Li936 O996 1.956 . S
Li936 O997 1.970 . S
Li936 O998 1.961 . S
Li937 N961 1.990 . S
Li937 O996 1.970 . S
Li937 O997 1.956 . S
Li937 O999 1.961 . S
Li938 N983 1.990 . S
Li938 O996 1.961 . S
Li938 O998 1.956 . S
Li938 O999 1.970 . S
Li939 N989 1.990 . S
Li939 O997 1.961 . S
Li939 O998 1.970 . S
Li939 O999 1.956 . S
C940 C942 1.348 . S
C940 C943 1.356 . S
C940 O996 1.325 . S
N941 C944 1.314 . S
N941 C945 1.279 . S
C942 C940 1.348 . S
C942 C944 1.353 . S
C942 H1000 0.929 . S
C943 C940 1.356 . S
C943 C945 1.358 . S
C943 H1001 0.930 . S
C944 N941 1.314 . S
C944 C942 1.353 . S
C944 H1002 0.930 . S
C945 N941 1.279 . S
C945 C943 1.358 . S
C945 H1003 0.930 . S
C946 C949 1.348 . S
C946 C950 1.356 . S
C946 O997 1.325 . S
C947 N948 1.279 . S
C947 C950 1.358 . S
C947 H1004 0.930 . S
N948 C947 1.279 . S
N948 C951 1.314 . S
C949 C946 1.348 . S
C949 C951 1.353 . S
C949 H1005 0.929 . S
C950 C946 1.356 . S
C950 C947 1.358 . S
C950 H1006 0.930 . S
C951 N948 1.314 . S
C951 C949 1.353 . S
C951 H1007 0.930 . S
C952 N953 1.314 . S
C952 C957 1.353 . S
C952 H958 0.930 . S
N953 Li936 1.990 . S
N953 C952 1.314 . S
N953 C955 1.279 . S
C954 C955 1.358 . S
C954 C956 1.356 . S
C954 H1008 0.930 . S
C955 N953 1.279 . S
C955 C954 1.358 . S
C955 H959 0.930 . S
C956 C954 1.356 . S
C956 C957 1.348 . S
C957 C952 1.353 . S
C957 C956 1.348 . S
C957 H1009 0.929 . S
H958 C952 0.930 . S
H959 C955 0.930 . S
C960 N961 1.314 . S
C960 C962 1.353 . S
C960 H966 0.930 . S
N961 Li937 1.990 . S
N961 C960 1.314 . S
N961 C964 1.279 . S
C962 C960 1.353 . S
C962 C965 1.348 . S
C962 H1010 0.929 . S
C963 C964 1.358 . S
C963 C965 1.356 . S
C963 H1011 0.930 . S
C964 N961 1.279 . S
C964 C963 1.358 . S
C964 H967 0.930 . S
C965 C962 1.348 . S
C965 C963 1.356 . S
H966 C960 0.930 . S
H967 C964 0.930 . S
C968 C970 1.348 . S
C968 C971 1.356 . S
C968 O998 1.325 . S
N969 C972 1.314 . S
N969 C973 1.279 . S
C970 C968 1.348 . S
C970 C972 1.353 . S
C970 H1012 0.929 . S
C971 C968 1.356 . S
C971 C973 1.358 . S
C971 H1013 0.930 . S
C972 N969 1.314 . S
C972 C970 1.353 . S
C972 H1014 0.930 . S
C973 N969 1.279 . S
C973 C971 1.358 . S
C973 H1015 0.930 . S
C974 C975 1.348 . S
C974 C976 1.356 . S
C974 O999 1.325 . S
C975 C974 1.348 . S
C975 C977 1.353 . S
C975 H1016 0.929 . S
C976 C974 1.356 . S
C976 C978 1.358 . S
C976 H1017 0.930 . S
C977 C975 1.353 . S
C977 N979 1.314 . S
C977 H1018 0.930 . S
C978 C976 1.358 . S
C978 N979 1.279 . S
C978 H1019 0.930 . S
N979 C977 1.314 . S
N979 C978 1.279 . S
C980 C982 1.353 . S
C980 N983 1.314 . S
C980 H986 0.930 . S
C981 N983 1.279 . S
C981 C984 1.358 . S
C981 H987 0.930 . S
C982 C980 1.353 . S
C982 C985 1.348 . S
C982 H1020 0.929 . S
N983 Li938 1.990 . S
N983 C980 1.314 . S
N983 C981 1.279 . S
C984 C981 1.358 . S
C984 C985 1.356 . S
C984 H1021 0.930 . S
C985 C982 1.348 . S
C985 C984 1.356 . S
H986 C980 0.930 . S
H987 C981 0.930 . S
C988 N989 1.314 . S
C988 C990 1.353 . S
C988 H994 0.930 . S
N989 Li939 1.990 . S
N989 C988 1.314 . S
N989 C992 1.279 . S
C990 C988 1.353 . S
C990 C993 1.348 . S
C990 H1022 0.929 . S
C991 C992 1.358 . S
C991 C993 1.356 . S
C991 H1023 0.930 . S
C992 N989 1.279 . S
C992 C991 1.358 . S
C992 H995 0.930 . S
C993 C990 1.348 . S
C993 C991 1.356 . S
H994 C988 0.930 . S
H995 C992 0.930 . S
O996 Li936 1.956 . S
O996 Li937 1.970 . S
O996 Li938 1.961 . S
O996 C940 1.325 . S
O997 Li936 1.970 . S
O997 Li937 1.956 . S
O997 Li939 1.961 . S
O997 C946 1.325 . S
O998 Li936 1.961 . S
O998 Li938 1.956 . S
O998 Li939 1.970 . S
O998 C968 1.325 . S
O999 Li937 1.961 . S
O999 Li938 1.970 . S
O999 Li939 1.956 . S
O999 C974 1.325 . S
H1000 C942 0.929 . S
H1001 C943 0.930 . S
H1002 C944 0.930 . S
H1003 C945 0.930 . S
H1004 C947 0.930 . S
H1005 C949 0.929 . S
H1006 C950 0.930 . S
H1007 C951 0.930 . S
H1008 C954 0.930 . S
H1009 C957 0.929 . S
H1010 C962 0.929 . S
H1011 C963 0.930 . S
H1012 C970 0.929 . S
H1013 C971 0.930 . S
H1014 C972 0.930 . S
H1015 C973 0.930 . S
H1016 C975 0.929 . S
H1017 C976 0.930 . S
H1018 C977 0.930 . S
H1019 C978 0.930 . S
H1020 C982 0.929 . S
H1021 C984 0.930 . S
H1022 C990 0.929 . S
H1023 C991 0.930 . S
Li1024 N1041 1.990 . S
Li1024 O1084 1.956 . S
Li1024 O1085 1.970 1_455 S
Li1024 O1086 1.961 . S
Li1025 N1049 1.990 . S
Li1025 O1084 1.970 1_655 S
Li1025 O1085 1.956 . S
Li1025 O1087 1.961 . S
Li1026 N1071 1.990 . S
Li1026 O1084 1.961 . S
Li1026 O1086 1.956 . S
Li1026 O1087 1.970 1_455 S
Li1027 N1077 1.990 . S
Li1027 O1085 1.961 . S
Li1027 O1086 1.970 1_655 S
Li1027 O1087 1.956 . S
C1028 C1030 1.348 1_455 S
C1028 C1031 1.356 . S
C1028 O1084 1.325 . S
N1029 C1032 1.314 1_455 S
N1029 C1033 1.279 . S
C1030 C1028 1.348 1_655 S
C1030 C1032 1.353 . S
C1030 H1088 0.929 . S
C1031 C1028 1.356 . S
C1031 C1033 1.358 . S
C1031 H1089 0.930 . S
C1032 N1029 1.314 1_655 S
C1032 C1030 1.353 . S
C1032 H1090 0.930 . S
C1033 N1029 1.279 . S
C1033 C1031 1.358 . S
C1033 H1091 0.930 . S
C1034 C1037 1.348 . S
C1034 C1038 1.356 . S
C1034 O1085 1.325 . S
C1035 N1036 1.279 . S
C1035 C1038 1.358 . S
C1035 H1092 0.930 . S
N1036 C1035 1.279 . S
N1036 C1039 1.314 . S
C1037 C1034 1.348 . S
C1037 C1039 1.353 . S
C1037 H1093 0.929 . S
C1038 C1034 1.356 . S
C1038 C1035 1.358 . S
C1038 H1094 0.930 . S
C1039 N1036 1.314 . S
C1039 C1037 1.353 . S
C1039 H1095 0.930 . S
C1040 N1041 1.314 . S
C1040 C1045 1.353 . S
C1040 H1046 0.930 . S
N1041 Li1024 1.990 . S
N1041 C1040 1.314 . S
N1041 C1043 1.279 . S
C1042 C1043 1.358 . S
C1042 C1044 1.356 . S
C1042 H1096 0.930 . S
C1043 N1041 1.279 . S
C1043 C1042 1.358 . S
C1043 H1047 0.930 . S
C1044 C1042 1.356 . S
C1044 C1045 1.348 . S
C1045 C1040 1.353 . S
C1045 C1044 1.348 . S
C1045 H1097 0.929 . S
H1046 C1040 0.930 . S
H1047 C1043 0.930 . S
C1048 N1049 1.314 . S
C1048 C1050 1.353 . S
C1048 H1054 0.930 . S
N1049 Li1025 1.990 . S
N1049 C1048 1.314 . S
N1049 C1052 1.279 . S
C1050 C1048 1.353 . S
C1050 C1053 1.348 . S
C1050 H1098 0.929 . S
C1051 C1052 1.358 . S
C1051 C1053 1.356 . S
C1051 H1099 0.930 . S
C1052 N1049 1.279 . S
C1052 C1051 1.358 . S
C1052 H1055 0.930 . S
C1053 C1050 1.348 . S
C1053 C1051 1.356 . S
H1054 C1048 0.930 . S
H1055 C1052 0.930 . S
C1056 C1058 1.348 . S
C1056 C1059 1.356 . S
C1056 O1086 1.325 . S
N1057 C1060 1.314 . S
N1057 C1061 1.279 . S
C1058 C1056 1.348 . S
C1058 C1060 1.353 . S
C1058 H1100 0.929 . S
C1059 C1056 1.356 . S
C1059 C1061 1.358 . S
C1059 H1101 0.930 . S
C1060 N1057 1.314 . S
C1060 C1058 1.353 . S
C1060 H1102 0.930 . S
C1061 N1057 1.279 . S
C1061 C1059 1.358 . S
C1061 H1103 0.930 . S
C1062 C1063 1.348 1_655 S
C1062 C1064 1.356 . S
C1062 O1087 1.325 . S
C1063 C1062 1.348 1_455 S
C1063 C1065 1.353 . S
C1063 H1104 0.929 . S
C1064 C1062 1.356 . S
C1064 C1066 1.358 . S
C1064 H1105 0.930 . S
C1065 C1063 1.353 . S
C1065 N1067 1.314 1_455 S
C1065 H1106 0.930 . S
C1066 C1064 1.358 . S
C1066 N1067 1.279 . S
C1066 H1107 0.930 . S
N1067 C1065 1.314 1_655 S
N1067 C1066 1.279 . S
C1068 C1070 1.353 . S
C1068 N1071 1.314 . S
C1068 H1074 0.930 . S
C1069 N1071 1.279 . S
C1069 C1072 1.358 . S
C1069 H1075 0.930 . S
C1070 C1068 1.353 . S
C1070 C1073 1.348 . S
C1070 H1108 0.929 . S
N1071 Li1026 1.990 . S
N1071 C1068 1.314 . S
N1071 C1069 1.279 . S
C1072 C1069 1.358 . S
C1072 C1073 1.356 . S
C1072 H1109 0.930 . S
C1073 C1070 1.348 . S
C1073 C1072 1.356 . S
H1074 C1068 0.930 . S
H1075 C1069 0.930 . S
C1076 N1077 1.314 . S
C1076 C1078 1.353 . S
C1076 H1082 0.930 . S
N1077 Li1027 1.990 . S
N1077 C1076 1.314 . S
N1077 C1080 1.279 . S
C1078 C1076 1.353 . S
C1078 C1081 1.348 . S
C1078 H1110 0.929 . S
C1079 C1080 1.358 . S
C1079 C1081 1.356 . S
C1079 H1111 0.930 . S
C1080 N1077 1.279 . S
C1080 C1079 1.358 . S
C1080 H1083 0.930 . S
C1081 C1078 1.348 . S
C1081 C1079 1.356 . S
H1082 C1076 0.930 . S
H1083 C1080 0.930 . S
O1084 Li1024 1.956 . S
O1084 Li1025 1.970 1_455 S
O1084 Li1026 1.961 . S
O1084 C1028 1.325 . S
O1085 Li1024 1.970 1_655 S
O1085 Li1025 1.956 . S
O1085 Li1027 1.961 . S
O1085 C1034 1.325 . S
O1086 Li1024 1.961 . S
O1086 Li1026 1.956 . S
O1086 Li1027 1.970 1_455 S
O1086 C1056 1.325 . S
O1087 Li1025 1.961 . S
O1087 Li1026 1.970 1_655 S
O1087 Li1027 1.956 . S
O1087 C1062 1.325 . S
H1088 C1030 0.929 . S
H1089 C1031 0.930 . S
H1090 C1032 0.930 . S
H1091 C1033 0.930 . S
H1092 C1035 0.930 . S
H1093 C1037 0.929 . S
H1094 C1038 0.930 . S
H1095 C1039 0.930 . S
H1096 C1042 0.930 . S
H1097 C1045 0.929 . S
H1098 C1050 0.929 . S
H1099 C1051 0.930 . S
H1100 C1058 0.929 . S
H1101 C1059 0.930 . S
H1102 C1060 0.930 . S
H1103 C1061 0.930 . S
H1104 C1063 0.929 . S
H1105 C1064 0.930 . S
H1106 C1065 0.930 . S
H1107 C1066 0.930 . S
H1108 C1070 0.929 . S
H1109 C1072 0.930 . S
H1110 C1078 0.929 . S
H1111 C1079 0.930 . S
Li1112 N1129 1.990 . S
Li1112 O1172 1.956 . S
Li1112 O1173 1.970 . S
Li1112 O1174 1.961 . S
Li1113 N1137 1.990 . S
Li1113 O1172 1.970 . S
Li1113 O1173 1.956 . S
Li1113 O1175 1.961 . S
Li1114 N1159 1.990 . S
Li1114 O1172 1.961 . S
Li1114 O1174 1.956 . S
Li1114 O1175 1.970 . S
Li1115 N1165 1.990 . S
Li1115 O1173 1.961 . S
Li1115 O1174 1.970 . S
Li1115 O1175 1.956 . S
C1116 C1118 1.348 . S
C1116 C1119 1.356 . S
C1116 O1172 1.325 . S
N1117 C1120 1.314 . S
N1117 C1121 1.279 . S
C1118 C1116 1.348 . S
C1118 C1120 1.353 . S
C1118 H1176 0.929 . S
C1119 C1116 1.356 . S
C1119 C1121 1.358 . S
C1119 H1177 0.930 . S
C1120 N1117 1.314 . S
C1120 C1118 1.353 . S
C1120 H1178 0.930 . S
C1121 N1117 1.279 . S
C1121 C1119 1.358 . S
C1121 H1179 0.930 . S
C1122 C1125 1.348 . S
C1122 C1126 1.356 . S
C1122 O1173 1.325 . S
C1123 N1124 1.279 . S
C1123 C1126 1.358 . S
C1123 H1180 0.930 . S
N1124 C1123 1.279 . S
N1124 C1127 1.314 . S
C1125 C1122 1.348 . S
C1125 C1127 1.353 . S
C1125 H1181 0.929 . S
C1126 C1122 1.356 . S
C1126 C1123 1.358 . S
C1126 H1182 0.930 . S
C1127 N1124 1.314 . S
C1127 C1125 1.353 . S
C1127 H1183 0.930 . S
C1128 N1129 1.314 . S
C1128 C1133 1.353 . S
C1128 H1134 0.930 . S
N1129 Li1112 1.990 . S
N1129 C1128 1.314 . S
N1129 C1131 1.279 . S
C1130 C1131 1.358 . S
C1130 C1132 1.356 . S
C1130 H1184 0.930 . S
C1131 N1129 1.279 . S
C1131 C1130 1.358 . S
C1131 H1135 0.930 . S
C1132 C1130 1.356 . S
C1132 C1133 1.348 . S
C1133 C1128 1.353 . S
C1133 C1132 1.348 . S
C1133 H1185 0.929 . S
H1134 C1128 0.930 . S
H1135 C1131 0.930 . S
C1136 N1137 1.314 . S
C1136 C1138 1.353 . S
C1136 H1142 0.930 . S
N1137 Li1113 1.990 . S
N1137 C1136 1.314 . S
N1137 C1140 1.279 . S
C1138 C1136 1.353 . S
C1138 C1141 1.348 . S
C1138 H1186 0.929 . S
C1139 C1140 1.358 . S
C1139 C1141 1.356 . S
C1139 H1187 0.930 . S
C1140 N1137 1.279 . S
C1140 C1139 1.358 . S
C1140 H1143 0.930 . S
C1141 C1138 1.348 . S
C1141 C1139 1.356 . S
H1142 C1136 0.930 . S
H1143 C1140 0.930 . S
C1144 C1146 1.348 . S
C1144 C1147 1.356 . S
C1144 O1174 1.325 . S
N1145 C1148 1.314 . S
N1145 C1149 1.279 . S
C1146 C1144 1.348 . S
C1146 C1148 1.353 . S
C1146 H1188 0.929 . S
C1147 C1144 1.356 . S
C1147 C1149 1.358 . S
C1147 H1189 0.930 . S
C1148 N1145 1.314 . S
C1148 C1146 1.353 . S
C1148 H1190 0.930 . S
C1149 N1145 1.279 . S
C1149 C1147 1.358 . S
C1149 H1191 0.930 . S
C1150 C1151 1.348 . S
C1150 C1152 1.356 . S
C1150 O1175 1.325 . S
C1151 C1150 1.348 . S
C1151 C1153 1.353 . S
C1151 H1192 0.929 . S
C1152 C1150 1.356 . S
C1152 C1154 1.358 . S
C1152 H1193 0.930 . S
C1153 C1151 1.353 . S
C1153 N1155 1.314 . S
C1153 H1194 0.930 . S
C1154 C1152 1.358 . S
C1154 N1155 1.279 . S
C1154 H1195 0.930 . S
N1155 C1153 1.314 . S
N1155 C1154 1.279 . S
C1156 C1158 1.353 . S
C1156 N1159 1.314 . S
C1156 H1162 0.930 . S
C1157 N1159 1.279 . S
C1157 C1160 1.358 . S
C1157 H1163 0.930 . S
C1158 C1156 1.353 . S
C1158 C1161 1.348 . S
C1158 H1196 0.929 . S
N1159 Li1114 1.990 . S
N1159 C1156 1.314 . S
N1159 C1157 1.279 . S
C1160 C1157 1.358 . S
C1160 C1161 1.356 . S
C1160 H1197 0.930 . S
C1161 C1158 1.348 . S
C1161 C1160 1.356 . S
H1162 C1156 0.930 . S
H1163 C1157 0.930 . S
C1164 N1165 1.314 . S
C1164 C1166 1.353 . S
C1164 H1170 0.930 . S
N1165 Li1115 1.990 . S
N1165 C1164 1.314 . S
N1165 C1168 1.279 . S
C1166 C1164 1.353 . S
C1166 C1169 1.348 . S
C1166 H1198 0.929 . S
C1167 C1168 1.358 . S
C1167 C1169 1.356 . S
C1167 H1199 0.930 . S
C1168 N1165 1.279 . S
C1168 C1167 1.358 . S
C1168 H1171 0.930 . S
C1169 C1166 1.348 . S
C1169 C1167 1.356 . S
H1170 C1164 0.930 . S
H1171 C1168 0.930 . S
O1172 Li1112 1.956 . S
O1172 Li1113 1.970 . S
O1172 Li1114 1.961 . S
O1172 C1116 1.325 . S
O1173 Li1112 1.970 . S
O1173 Li1113 1.956 . S
O1173 Li1115 1.961 . S
O1173 C1122 1.325 . S
O1174 Li1112 1.961 . S
O1174 Li1114 1.956 . S
O1174 Li1115 1.970 . S
O1174 C1144 1.325 . S
O1175 Li1113 1.961 . S
O1175 Li1114 1.970 . S
O1175 Li1115 1.956 . S
O1175 C1150 1.325 . S
H1176 C1118 0.929 . S
H1177 C1119 0.930 . S
H1178 C1120 0.930 . S
H1179 C1121 0.930 . S
H1180 C1123 0.930 . S
H1181 C1125 0.929 . S
H1182 C1126 0.930 . S
H1183 C1127 0.930 . S
H1184 C1130 0.930 . S
H1185 C1133 0.929 . S
H1186 C1138 0.929 . S
H1187 C1139 0.930 . S
H1188 C1146 0.929 . S
H1189 C1147 0.930 . S
H1190 C1148 0.930 . S
H1191 C1149 0.930 . S
H1192 C1151 0.929 . S
H1193 C1152 0.930 . S
H1194 C1153 0.930 . S
H1195 C1154 0.930 . S
H1196 C1158 0.929 . S
H1197 C1160 0.930 . S
H1198 C1166 0.929 . S
H1199 C1167 0.930 . S
C1200 C1201 1.387 . S
C1200 H1204 0.950 . S
C1200 C1209 1.390 . S
C1201 C1200 1.387 . S
C1201 C1203 1.387 . S
H1202 C1209 0.950 . S
C1203 C1201 1.387 . S
C1203 C1205 1.390 . S
C1203 H1207 0.950 . S
H1204 C1200 0.950 . S
C1205 C1203 1.390 . S
C1205 C1206 1.387 . S
C1205 H1208 0.950 . S
C1206 C1205 1.387 . S
C1206 C1209 1.387 . S
H1207 C1203 0.950 . S
H1208 C1205 0.950 . S
C1209 C1200 1.390 . S
C1209 H1202 0.950 . S
C1209 C1206 1.387 . S
C1210 C1211 1.387 . S
C1210 H1214 0.950 . S
C1210 C1219 1.390 . S
C1211 C1210 1.387 . S
C1211 C1213 1.387 . S
H1212 C1219 0.950 . S
C1213 C1211 1.387 . S
C1213 C1215 1.390 . S
C1213 H1217 0.950 . S
H1214 C1210 0.950 . S
C1215 C1213 1.390 . S
C1215 C1216 1.387 . S
C1215 H1218 0.950 . S
C1216 C1215 1.387 . S
C1216 C1219 1.387 . S
H1217 C1213 0.950 . S
H1218 C1215 0.950 . S
C1219 C1210 1.390 . S
C1219 H1212 0.950 . S
C1219 C1216 1.387 . S
C1220 C1221 1.387 . S
C1220 H1224 0.950 . S
C1220 C1229 1.390 . S
C1221 C1220 1.387 . S
C1221 C1223 1.387 . S
H1222 C1229 0.950 . S
C1223 C1221 1.387 . S
C1223 C1225 1.390 . S
C1223 H1227 0.950 . S
H1224 C1220 0.950 . S
C1225 C1223 1.390 . S
C1225 C1226 1.387 . S
C1225 H1228 0.950 . S
C1226 C1225 1.387 . S
C1226 C1229 1.387 . S
H1227 C1223 0.950 . S
H1228 C1225 0.950 . S
C1229 C1220 1.390 . S
C1229 H1222 0.950 . S
C1229 C1226 1.387 . S
C1230 C1231 1.387 . S
C1230 H1234 0.950 . S
C1230 C1239 1.390 . S
C1231 C1230 1.387 . S
C1231 C1233 1.387 1_565 S
H1232 C1239 0.950 . S
C1233 C1231 1.387 1_545 S
C1233 C1235 1.390 . S
C1233 H1237 0.950 1_655 S
H1234 C1230 0.950 . S
C1235 C1233 1.390 . S
C1235 C1236 1.387 1_545 S
C1235 H1238 0.950 . S
C1236 C1235 1.387 1_565 S
C1236 C1239 1.387 . S
H1237 C1233 0.950 1_455 S
H1238 C1235 0.950 . S
C1239 C1230 1.390 . S
C1239 H1232 0.950 . S
C1239 C1236 1.387 . S
C1240 C1241 1.387 . S
C1240 H1244 0.950 . S
C1240 C1249 1.390 . S
C1241 C1240 1.387 . S
C1241 C1243 1.387 . S
H1242 C1249 0.950 . S
C1243 C1241 1.387 . S
C1243 C1245 1.390 . S
C1243 H1247 0.950 . S
H1244 C1240 0.950 . S
C1245 C1243 1.390 . S
C1245 C1246 1.387 . S
C1245 H1248 0.950 . S
C1246 C1245 1.387 . S
C1246 C1249 1.387 . S
H1247 C1243 0.950 . S
H1248 C1245 0.950 . S
C1249 C1240 1.390 . S
C1249 H1242 0.950 . S
C1249 C1246 1.387 . S
C1250 C1251 1.387 . S
C1250 H1254 0.950 . S
C1250 C1259 1.390 . S
C1251 C1250 1.387 . S
C1251 C1253 1.387 . S
H1252 C1259 0.950 . S
C1253 C1251 1.387 . S
C1253 C1255 1.390 . S
C1253 H1257 0.950 . S
H1254 C1250 0.950 . S
C1255 C1253 1.390 . S
C1255 C1256 1.387 . S
C1255 H1258 0.950 . S
C1256 C1255 1.387 . S
C1256 C1259 1.387 . S
H1257 C1253 0.950 . S
H1258 C1255 0.950 . S
C1259 C1250 1.390 . S
C1259 H1252 0.950 . S
C1259 C1256 1.387 . S
C1260 C1261 1.387 . S
C1260 H1264 0.950 . S
C1260 C1269 1.390 . S
C1261 C1260 1.387 . S
C1261 C1263 1.387 . S
H1262 C1269 0.950 . S
C1263 C1261 1.387 . S
C1263 C1265 1.390 . S
C1263 H1267 0.950 . S
H1264 C1260 0.950 . S
C1265 C1263 1.390 . S
C1265 C1266 1.387 . S
C1265 H1268 0.950 . S
C1266 C1265 1.387 . S
C1266 C1269 1.387 . S
H1267 C1263 0.950 . S
H1268 C1265 0.950 . S
C1269 C1260 1.390 . S
C1269 H1262 0.950 . S
C1269 C1266 1.387 . S
C1270 C1271 1.387 . S
C1270 H1274 0.950 . S
C1270 C1279 1.390 . S
C1271 C1270 1.387 . S
C1271 C1273 1.387 1_565 S
H1272 C1279 0.950 . S
C1273 C1271 1.387 1_545 S
C1273 C1275 1.390 . S
C1273 H1277 0.950 . S
H1274 C1270 0.950 . S
C1275 C1273 1.390 . S
C1275 C1276 1.387 1_545 S
C1275 H1278 0.950 . S
C1276 C1275 1.387 1_565 S
C1276 C1279 1.387 . S
H1277 C1273 0.950 . S
H1278 C1275 0.950 . S
C1279 C1270 1.390 . S
C1279 H1272 0.950 . S
C1279 C1276 1.387 . S
C1280 C1281 1.387 . S
C1280 H1284 0.950 . S
C1280 C1289 1.390 . S
C1281 C1280 1.387 . S
C1281 C1283 1.387 . S
H1282 C1289 0.950 . S
C1283 C1281 1.387 . S
C1283 C1285 1.390 . S
C1283 H1287 0.950 . S
H1284 C1280 0.950 . S
C1285 C1283 1.390 . S
C1285 C1286 1.387 . S
C1285 H1288 0.950 . S
C1286 C1285 1.387 . S
C1286 C1289 1.387 . S
H1287 C1283 0.950 . S
H1288 C1285 0.950 . S
C1289 C1280 1.390 . S
C1289 H1282 0.950 . S
C1289 C1286 1.387 . S
C1290 C1291 1.387 . S
C1290 H1294 0.950 . S
C1290 C1299 1.390 . S
C1291 C1290 1.387 . S
C1291 C1293 1.387 . S
H1292 C1299 0.950 . S
C1293 C1291 1.387 . S
C1293 C1295 1.390 . S
C1293 H1297 0.950 . S
H1294 C1290 0.950 . S
C1295 C1293 1.390 . S
C1295 C1296 1.387 . S
C1295 H1298 0.950 . S
C1296 C1295 1.387 . S
C1296 C1299 1.387 . S
H1297 C1293 0.950 . S
H1298 C1295 0.950 . S
C1299 C1290 1.390 . S
C1299 H1292 0.950 . S
C1299 C1296 1.387 . S
C1300 C1301 1.387 . S
C1300 H1304 0.950 . S
C1300 C1309 1.390 . S
C1301 C1300 1.387 . S
C1301 C1303 1.387 . S
H1302 C1309 0.950 . S
C1303 C1301 1.387 . S
C1303 C1305 1.390 . S
C1303 H1307 0.950 . S
H1304 C1300 0.950 . S
C1305 C1303 1.390 . S
C1305 C1306 1.387 . S
C1305 H1308 0.950 . S
C1306 C1305 1.387 . S
C1306 C1309 1.387 . S
H1307 C1303 0.950 . S
H1308 C1305 0.950 . S
C1309 C1300 1.390 . S
C1309 H1302 0.950 . S
C1309 C1306 1.387 . S
C1310 C1311 1.387 . S
C1310 H1314 0.950 . S
C1310 C1319 1.390 . S
C1311 C1310 1.387 . S
C1311 C1313 1.387 . S
H1312 C1319 0.950 . S
C1313 C1311 1.387 . S
C1313 C1315 1.390 . S
C1313 H1317 0.950 . S
H1314 C1310 0.950 . S
C1315 C1313 1.390 . S
C1315 C1316 1.387 . S
C1315 H1318 0.950 . S
C1316 C1315 1.387 . S
C1316 C1319 1.387 . S
H1317 C1313 0.950 . S
H1318 C1315 0.950 . S
C1319 C1310 1.390 . S
C1319 H1312 0.950 . S
C1319 C1316 1.387 . S
C1320 C1321 1.387 . S
C1320 H1324 0.950 . S
C1320 C1329 1.390 . S
C1321 C1320 1.387 . S
C1321 C1323 1.387 . S
H1322 C1329 0.950 . S
C1323 C1321 1.387 . S
C1323 C1325 1.390 . S
C1323 H1327 0.950 . S
H1324 C1320 0.950 . S
C1325 C1323 1.390 . S
C1325 C1326 1.387 . S
C1325 H1328 0.950 . S
C1326 C1325 1.387 . S
C1326 C1329 1.387 . S
H1327 C1323 0.950 . S
H1328 C1325 0.950 . S
C1329 C1320 1.390 . S
C1329 H1322 0.950 . S
C1329 C1326 1.387 . S
C1330 C1331 1.387 . S
C1330 H1334 0.950 . S
C1330 C1339 1.390 . S
C1331 C1330 1.387 . S
C1331 C1333 1.387 . S
H1332 C1339 0.950 1_655 S
C1333 C1331 1.387 . S
C1333 C1335 1.390 . S
C1333 H1337 0.950 . S
H1334 C1330 0.950 . S
C1335 C1333 1.390 . S
C1335 C1336 1.387 . S
C1335 H1338 0.950 . S
C1336 C1335 1.387 . S
C1336 C1339 1.387 . S
H1337 C1333 0.950 . S
H1338 C1335 0.950 . S
C1339 C1330 1.390 . S
C1339 H1332 0.950 1_455 S
C1339 C1336 1.387 . S
C1340 C1341 1.387 . S
C1340 H1344 0.950 . S
C1340 C1349 1.390 . S
C1341 C1340 1.387 . S
C1341 C1343 1.387 . S
H1342 C1349 0.950 . S
C1343 C1341 1.387 . S
C1343 C1345 1.390 . S
C1343 H1347 0.950 . S
H1344 C1340 0.950 . S
C1345 C1343 1.390 . S
C1345 C1346 1.387 . S
C1345 H1348 0.950 . S
C1346 C1345 1.387 . S
C1346 C1349 1.387 . S
H1347 C1343 0.950 . S
H1348 C1345 0.950 . S
C1349 C1340 1.390 . S
C1349 H1342 0.950 . S
C1349 C1346 1.387 . S
C1350 C1351 1.387 1_455 S
C1350 H1354 0.950 . S
C1350 C1359 1.390 . S
C1351 C1350 1.387 1_655 S
C1351 C1353 1.387 . S
H1352 C1359 0.950 . S
C1353 C1351 1.387 . S
C1353 C1355 1.390 . S
C1353 H1357 0.950 . S
H1354 C1350 0.950 . S
C1355 C1353 1.390 . S
C1355 C1356 1.387 . S
C1355 H1358 0.950 . S
C1356 C1355 1.387 . S
C1356 C1359 1.387 1_655 S
H1357 C1353 0.950 . S
H1358 C1355 0.950 . S
C1359 C1350 1.390 . S
C1359 H1352 0.950 . S
C1359 C1356 1.387 1_455 S
C1360 C1361 1.387 . S
C1360 H1364 0.950 . S
C1360 C1369 1.390 . S
C1361 C1360 1.387 . S
C1361 C1363 1.387 . S
H1362 C1369 0.950 . S
C1363 C1361 1.387 . S
C1363 C1365 1.390 . S
C1363 H1367 0.950 . S
H1364 C1360 0.950 . S
C1365 C1363 1.390 . S
C1365 C1366 1.387 . S
C1365 H1368 0.950 . S
C1366 C1365 1.387 . S
C1366 C1369 1.387 . S
H1367 C1363 0.950 . S
H1368 C1365 0.950 . S
C1369 C1360 1.390 . S
C1369 H1362 0.950 . S
C1369 C1366 1.387 . S
C1370 C1371 1.387 . S
C1370 H1374 0.950 . S
C1370 C1379 1.390 . S
C1371 C1370 1.387 . S
C1371 C1373 1.387 . S
H1372 C1379 0.950 . S
C1373 C1371 1.387 . S
C1373 C1375 1.390 . S
C1373 H1377 0.950 . S
H1374 C1370 0.950 . S
C1375 C1373 1.390 . S
C1375 C1376 1.387 . S
C1375 H1378 0.950 . S
C1376 C1375 1.387 . S
C1376 C1379 1.387 . S
H1377 C1373 0.950 . S
H1378 C1375 0.950 . S
C1379 C1370 1.390 . S
C1379 H1372 0.950 . S
C1379 C1376 1.387 . S
C1380 C1381 1.387 . S
C1380 H1384 0.950 1_565 S
C1380 C1389 1.390 . S
C1381 C1380 1.387 . S
C1381 C1383 1.387 1_556 S
H1382 C1389 0.950 . S
C1383 C1381 1.387 1_554 S
C1383 C1385 1.390 . S
C1383 H1387 0.950 . S
H1384 C1380 0.950 1_545 S
C1385 C1383 1.390 . S
C1385 C1386 1.387 1_554 S
C1385 H1388 0.950 . S
C1386 C1385 1.387 1_556 S
C1386 C1389 1.387 . S
H1387 C1383 0.950 . S
H1388 C1385 0.950 . S
C1389 C1380 1.390 . S
C1389 H1382 0.950 . S
C1389 C1386 1.387 . S
C1390 C1391 1.387 . S
C1390 H1394 0.950 . S
C1390 C1399 1.390 . S
C1391 C1390 1.387 . S
C1391 C1393 1.387 . S
H1392 C1399 0.950 . S
C1393 C1391 1.387 . S
C1393 C1395 1.390 . S
C1393 H1397 0.950 . S
H1394 C1390 0.950 . S
C1395 C1393 1.390 . S
C1395 C1396 1.387 . S
C1395 H1398 0.950 . S
C1396 C1395 1.387 . S
C1396 C1399 1.387 . S
H1397 C1393 0.950 . S
H1398 C1395 0.950 . S
C1399 C1390 1.390 . S
C1399 H1392 0.950 . S
C1399 C1396 1.387 . S
C1400 C1401 1.387 . S
C1400 H1404 0.950 . S
C1400 C1409 1.390 . S
C1401 C1400 1.387 . S
C1401 C1403 1.387 . S
H1402 C1409 0.950 . S
C1403 C1401 1.387 . S
C1403 C1405 1.390 . S
C1403 H1407 0.950 . S
H1404 C1400 0.950 . S
C1405 C1403 1.390 . S
C1405 C1406 1.387 . S
C1405 H1408 0.950 . S
C1406 C1405 1.387 . S
C1406 C1409 1.387 . S
H1407 C1403 0.950 . S
H1408 C1405 0.950 . S
C1409 C1400 1.390 . S
C1409 H1402 0.950 . S
C1409 C1406 1.387 . S
C1410 C1411 1.387 . S
C1410 H1414 0.950 . S
C1410 C1419 1.390 . S
C1411 C1410 1.387 . S
C1411 C1413 1.387 . S
H1412 C1419 0.950 . S
C1413 C1411 1.387 . S
C1413 C1415 1.390 . S
C1413 H1417 0.950 . S
H1414 C1410 0.950 . S
C1415 C1413 1.390 . S
C1415 C1416 1.387 . S
C1415 H1418 0.950 . S
C1416 C1415 1.387 . S
C1416 C1419 1.387 . S
H1417 C1413 0.950 . S
H1418 C1415 0.950 . S
C1419 C1410 1.390 . S
C1419 H1412 0.950 . S
C1419 C1416 1.387 . S
C1420 C1421 1.387 . S
C1420 H1424 0.950 . S
C1420 C1429 1.390 . S
C1421 C1420 1.387 . S
C1421 C1423 1.387 . S
H1422 C1429 0.950 . S
C1423 C1421 1.387 . S
C1423 C1425 1.390 . S
C1423 H1427 0.948 . S
H1424 C1420 0.950 . S
C1425 C1423 1.390 . S
C1425 C1426 1.387 . S
C1425 H1428 0.950 . S
C1426 C1425 1.387 . S
C1426 C1429 1.387 . S
H1427 C1423 0.948 . S
H1428 C1425 0.950 . S
C1429 C1420 1.390 . S
C1429 H1422 0.950 . S
C1429 C1426 1.387 . S
C1430 C1431 1.387 . S
C1430 H1434 0.950 . S
C1430 C1439 1.390 . S
C1431 C1430 1.387 . S
C1431 C1433 1.387 . S
H1432 C1439 0.950 . S
C1433 C1431 1.387 . S
C1433 C1435 1.390 . S
C1433 H1437 0.950 . S
H1434 C1430 0.950 . S
C1435 C1433 1.390 . S
C1435 C1436 1.387 . S
C1435 H1438 0.950 . S
C1436 C1435 1.387 . S
C1436 C1439 1.387 . S
H1437 C1433 0.950 . S
H1438 C1435 0.950 . S
C1439 C1430 1.390 . S
C1439 H1432 0.950 . S
C1439 C1436 1.387 . S
C1440 C1441 1.387 . S
C1440 H1444 0.950 . S
C1440 C1449 1.390 . S
C1441 C1440 1.387 . S
C1441 C1443 1.387 . S
H1442 C1449 0.950 . S
C1443 C1441 1.387 . S
C1443 C1445 1.390 . S
C1443 H1447 0.950 . S
H1444 C1440 0.950 . S
C1445 C1443 1.390 . S
C1445 C1446 1.387 . S
C1445 H1448 0.950 . S
C1446 C1445 1.387 . S
C1446 C1449 1.387 . S
H1447 C1443 0.950 . S
H1448 C1445 0.950 . S
C1449 C1440 1.390 . S
C1449 H1442 0.950 . S
C1449 C1446 1.387 . S
C1450 C1451 1.387 1_565 S
C1450 H1454 0.950 . S
C1450 C1459 1.390 . S
C1451 C1450 1.387 1_545 S
C1451 C1453 1.387 . S
H1452 C1459 0.950 . S
C1453 C1451 1.387 . S
C1453 C1455 1.390 . S
C1453 H1457 0.950 . S
H1454 C1450 0.950 . S
C1455 C1453 1.390 . S
C1455 C1456 1.387 . S
C1455 H1458 0.950 . S
C1456 C1455 1.387 . S
C1456 C1459 1.387 1_545 S
H1457 C1453 0.950 . S
H1458 C1455 0.950 . S
C1459 C1450 1.390 . S
C1459 H1452 0.950 . S
C1459 C1456 1.387 1_565 S
C1460 C1461 1.387 . S
C1460 H1464 0.950 . S
C1460 C1469 1.390 . S
C1461 C1460 1.387 . S
C1461 C1463 1.387 . S
H1462 C1469 0.950 . S
C1463 C1461 1.387 . S
C1463 C1465 1.390 . S
C1463 H1467 0.950 . S
H1464 C1460 0.950 . S
C1465 C1463 1.390 . S
C1465 C1466 1.387 . S
C1465 H1468 0.950 . S
C1466 C1465 1.387 . S
C1466 C1469 1.387 . S
H1467 C1463 0.950 . S
H1468 C1465 0.950 . S
C1469 C1460 1.390 . S
C1469 H1462 0.950 . S
C1469 C1466 1.387 . S
C1470 C1471 1.387 . S
C1470 H1474 0.950 . S
C1470 C1479 1.390 . S
C1471 C1470 1.387 . S
C1471 C1473 1.387 . S
H1472 C1479 0.950 . S
C1473 C1471 1.387 . S
C1473 C1475 1.390 . S
C1473 H1477 0.950 . S
H1474 C1470 0.950 . S
C1475 C1473 1.390 . S
C1475 C1476 1.387 . S
C1475 H1478 0.950 . S
C1476 C1475 1.387 . S
C1476 C1479 1.387 . S
H1477 C1473 0.950 . S
H1478 C1475 0.950 . S
C1479 C1470 1.390 . S
C1479 H1472 0.950 . S
C1479 C1476 1.387 . S
C1480 C1481 1.387 . S
C1480 H1484 0.950 . S
C1480 C1489 1.390 . S
C1481 C1480 1.387 . S
C1481 C1483 1.387 . S
H1482 C1489 0.950 . S
C1483 C1481 1.387 . S
C1483 C1485 1.390 . S
C1483 H1487 0.950 . S
H1484 C1480 0.950 . S
C1485 C1483 1.390 . S
C1485 C1486 1.387 . S
C1485 H1488 0.950 . S
C1486 C1485 1.387 . S
C1486 C1489 1.387 . S
H1487 C1483 0.950 . S
H1488 C1485 0.950 . S
C1489 C1480 1.390 . S
C1489 H1482 0.950 . S
C1489 C1486 1.387 . S
C1490 C1491 1.387 . S
C1490 H1494 0.950 . S
C1490 C1499 1.390 . S
C1491 C1490 1.387 . S
C1491 C1493 1.387 1_545 S
H1492 C1499 0.950 . S
C1493 C1491 1.387 1_565 S
C1493 C1495 1.390 . S
C1493 H1497 0.959 . S
H1494 C1490 0.950 . S
C1495 C1493 1.390 . S
C1495 C1496 1.387 1_565 S
C1495 H1498 0.950 . S
C1496 C1495 1.387 1_545 S
C1496 C1499 1.387 . S
H1497 C1493 0.959 . S
H1498 C1495 0.950 . S
C1499 C1490 1.390 . S
C1499 H1492 0.950 . S
C1499 C1496 1.387 . S
C1500 C1501 1.387 . S
C1500 H1504 0.950 . S
C1500 C1509 1.390 . S
C1501 C1500 1.387 . S
C1501 C1503 1.387 . S
H1502 C1509 0.950 . S
C1503 C1501 1.387 . S
C1503 C1505 1.390 . S
C1503 H1507 0.950 . S
H1504 C1500 0.950 . S
C1505 C1503 1.390 . S
C1505 C1506 1.387 . S
C1505 H1508 0.950 . S
C1506 C1505 1.387 . S
C1506 C1509 1.387 . S
H1507 C1503 0.950 . S
H1508 C1505 0.950 . S
C1509 C1500 1.390 . S
C1509 H1502 0.950 . S
C1509 C1506 1.387 . S
C1510 C1511 1.387 . S
C1510 H1514 0.950 . S
C1510 C1519 1.390 . S
C1511 C1510 1.387 . S
C1511 C1513 1.387 . S
H1512 C1519 0.950 . S
C1513 C1511 1.387 . S
C1513 C1515 1.390 . S
C1513 H1517 0.950 . S
H1514 C1510 0.950 . S
C1515 C1513 1.390 . S
C1515 C1516 1.387 . S
C1515 H1518 0.950 . S
C1516 C1515 1.387 . S
C1516 C1519 1.387 . S
H1517 C1513 0.950 . S
H1518 C1515 0.950 . S
C1519 C1510 1.390 . S
C1519 H1512 0.950 . S
C1519 C1516 1.387 . S
C1520 C1521 1.387 . S
C1520 H1524 0.950 . S
C1520 C1529 1.390 . S
C1521 C1520 1.387 . S
C1521 C1523 1.387 . S
H1522 C1529 0.950 . S
C1523 C1521 1.387 . S
C1523 C1525 1.390 . S
C1523 H1527 0.950 . S
H1524 C1520 0.950 . S
C1525 C1523 1.390 . S
C1525 C1526 1.387 . S
C1525 H1528 0.950 . S
C1526 C1525 1.387 . S
C1526 C1529 1.387 . S
H1527 C1523 0.950 . S
H1528 C1525 0.950 . S
C1529 C1520 1.390 . S
C1529 H1522 0.950 . S
C1529 C1526 1.387 . S
C1530 C1531 1.387 1_554 S
C1530 H1534 0.950 1_655 S
C1530 C1539 1.390 1_554 S
C1531 C1530 1.387 1_556 S
C1531 C1533 1.387 . S
H1532 C1539 0.950 1_455 S
C1533 C1531 1.387 . S
C1533 C1535 1.390 . S
C1533 H1537 0.950 . S
H1534 C1530 0.950 1_455 S
C1535 C1533 1.390 . S
C1535 C1536 1.387 . S
C1535 H1538 0.950 . S
C1536 C1535 1.387 . S
C1536 C1539 1.387 . S
H1537 C1533 0.950 . S
H1538 C1535 0.950 . S
C1539 C1530 1.390 1_556 S
C1539 H1532 0.950 1_655 S
C1539 C1536 1.387 . S
C1540 C1541 1.387 . S
C1540 H1544 0.950 . S
C1540 C1549 1.390 . S
C1541 C1540 1.387 . S
C1541 C1543 1.387 . S
H1542 C1549 0.950 . S
C1543 C1541 1.387 . S
C1543 C1545 1.390 . S
C1543 H1547 0.950 . S
H1544 C1540 0.950 . S
C1545 C1543 1.390 . S
C1545 C1546 1.387 . S
C1545 H1548 0.950 . S
C1546 C1545 1.387 . S
C1546 C1549 1.387 . S
H1547 C1543 0.950 . S
H1548 C1545 0.950 . S
C1549 C1540 1.390 . S
C1549 H1542 0.950 . S
C1549 C1546 1.387 . S
C1550 C1551 1.358 1_655 S
C1550 H1554 0.976 1_556 S
C1550 C1559 1.394 . S
C1551 C1550 1.358 1_455 S
C1551 C1553 1.387 . S
H1552 C1559 0.950 . S
C1553 C1551 1.387 . S
C1553 C1555 1.390 . S
C1553 H1557 0.950 . S
H1554 C1550 0.976 1_554 S
C1555 C1553 1.390 . S
C1555 C1556 1.387 . S
C1555 H1558 0.950 . S
C1556 C1555 1.387 . S
C1556 C1559 1.387 1_455 S
H1557 C1553 0.950 . S
H1558 C1555 0.950 . S
C1559 C1550 1.394 . S
C1559 H1552 0.950 . S
C1559 C1556 1.387 1_655 S
C1560 C1561 1.387 . S
C1560 H1564 0.950 . S
C1560 C1569 1.390 . S
C1561 C1560 1.387 . S
C1561 C1563 1.387 . S
H1562 C1569 0.950 . S
C1563 C1561 1.387 . S
C1563 C1565 1.390 . S
C1563 H1567 0.950 . S
H1564 C1560 0.950 . S
C1565 C1563 1.390 . S
C1565 C1566 1.387 . S
C1565 H1568 0.950 . S
C1566 C1565 1.387 . S
C1566 C1569 1.387 . S
H1567 C1563 0.950 . S
H1568 C1565 0.950 . S
C1569 C1560 1.390 . S
C1569 H1562 0.950 . S
C1569 C1566 1.387 . S
C1570 C1571 1.387 . S
C1570 H1574 0.950 . S
C1570 C1579 1.390 . S
C1571 C1570 1.387 . S
C1571 C1573 1.387 1_554 S
H1572 C1579 0.950 . S
C1573 C1571 1.387 1_556 S
C1573 C1575 1.390 1_556 S
C1573 H1577 0.950 . S
H1574 C1570 0.950 . S
C1575 C1573 1.390 1_554 S
C1575 C1576 1.387 . S
C1575 H1578 0.952 . S
C1576 C1575 1.387 . S
C1576 C1579 1.387 . S
H1577 C1573 0.950 . S
H1578 C1575 0.952 . S
C1579 C1570 1.390 . S
C1579 H1572 0.950 . S
C1579 C1576 1.387 . S
C1580 C1581 1.387 . S
C1580 H1584 0.950 . S
C1580 C1589 1.390 . S
C1581 C1580 1.387 . S
C1581 C1583 1.387 . S
H1582 C1589 0.950 . S
C1583 C1581 1.387 . S
C1583 C1585 1.390 . S
C1583 H1587 0.950 . S
H1584 C1580 0.950 . S
C1585 C1583 1.390 . S
C1585 C1586 1.387 . S
C1585 H1588 0.950 . S
C1586 C1585 1.387 . S
C1586 C1589 1.387 . S
H1587 C1583 0.950 . S
H1588 C1585 0.950 . S
C1589 C1580 1.390 . S
C1589 H1582 0.950 . S
C1589 C1586 1.387 . S
C1590 C1591 1.387 . S
C1590 H1594 0.950 1_554 S
C1590 C1599 1.390 . S
C1591 C1590 1.387 . S
C1591 C1593 1.387 . S
H1592 C1599 0.950 . S
C1593 C1591 1.387 . S
C1593 C1595 1.390 . S
C1593 H1597 0.950 . S
H1594 C1590 0.950 1_556 S
C1595 C1593 1.390 . S
C1595 C1596 1.387 . S
C1595 H1598 0.950 . S
C1596 C1595 1.387 . S
C1596 C1599 1.387 . S
H1597 C1593 0.950 . S
H1598 C1595 0.950 . S
C1599 C1590 1.390 . S
C1599 H1592 0.950 . S
C1599 C1596 1.387 . S
C1600 C1601 1.387 . S
C1600 H1604 0.950 . S
C1600 C1609 1.390 . S
C1601 C1600 1.387 . S
C1601 C1603 1.387 . S
H1602 C1609 0.950 . S
C1603 C1601 1.387 . S
C1603 C1605 1.390 . S
C1603 H1607 0.950 . S
H1604 C1600 0.950 . S
C1605 C1603 1.390 . S
C1605 C1606 1.387 . S
C1605 H1608 0.950 . S
C1606 C1605 1.387 . S
C1606 C1609 1.387 . S
H1607 C1603 0.950 . S
H1608 C1605 0.950 . S
C1609 C1600 1.390 . S
C1609 H1602 0.950 . S
C1609 C1606 1.387 . S
C1610 C1611 1.387 . S
C1610 H1614 0.950 . S
C1610 C1619 1.390 . S
C1611 C1610 1.387 . S
C1611 C1613 1.387 . S
H1612 C1619 0.950 . S
C1613 C1611 1.387 . S
C1613 C1615 1.390 . S
C1613 H1617 0.950 . S
H1614 C1610 0.950 . S
C1615 C1613 1.390 . S
C1615 C1616 1.387 . S
C1615 H1618 0.950 . S
C1616 C1615 1.387 . S
C1616 C1619 1.387 . S
H1617 C1613 0.950 . S
H1618 C1615 0.950 . S
C1619 C1610 1.390 . S
C1619 H1612 0.950 . S
C1619 C1616 1.387 . S
C1620 C1621 1.387 . S
C1620 H1624 0.950 . S
C1620 C1629 1.390 . S
C1621 C1620 1.387 . S
C1621 C1623 1.387 . S
H1622 C1629 0.950 . S
C1623 C1621 1.387 . S
C1623 C1625 1.390 . S
C1623 H1627 0.950 . S
H1624 C1620 0.950 . S
C1625 C1623 1.390 . S
C1625 C1626 1.387 . S
C1625 H1628 0.950 . S
C1626 C1625 1.387 . S
C1626 C1629 1.387 . S
H1627 C1623 0.950 . S
H1628 C1625 0.950 . S
C1629 C1620 1.390 . S
C1629 H1622 0.950 . S
C1629 C1626 1.387 . S
C1630 C1631 1.387 . S
C1630 H1634 0.950 . S
C1630 C1639 1.390 . S
C1631 C1630 1.387 . S
C1631 C1633 1.387 . S
H1632 C1639 0.950 . S
C1633 C1631 1.387 . S
C1633 C1635 1.390 . S
C1633 H1637 0.950 . S
H1634 C1630 0.950 . S
C1635 C1633 1.390 . S
C1635 C1636 1.387 . S
C1635 H1638 0.950 . S
C1636 C1635 1.387 . S
C1636 C1639 1.387 . S
H1637 C1633 0.950 . S
H1638 C1635 0.950 . S
C1639 C1630 1.390 . S
C1639 H1632 0.950 . S
C1639 C1636 1.387 . S
C1640 C1641 1.387 . S
C1640 H1644 0.950 . S
C1640 C1649 1.390 . S
C1641 C1640 1.387 . S
C1641 C1643 1.387 . S
H1642 C1649 0.950 . S
C1643 C1641 1.387 . S
C1643 C1645 1.390 . S
C1643 H1647 0.950 . S
H1644 C1640 0.950 . S
C1645 C1643 1.390 . S
C1645 C1646 1.387 . S
C1645 H1648 0.950 1_556 S
C1646 C1645 1.387 . S
C1646 C1649 1.387 . S
H1647 C1643 0.950 . S
H1648 C1645 0.950 1_554 S
C1649 C1640 1.390 . S
C1649 H1642 0.950 . S
C1649 C1646 1.387 . S
C1650 C1651 1.387 . S
C1650 H1654 0.950 . S
C1650 C1659 1.390 . S
C1651 C1650 1.387 . S
C1651 C1653 1.387 . S
H1652 C1659 0.950 . S
C1653 C1651 1.387 . S
C1653 C1655 1.390 . S
C1653 H1657 0.950 . S
H1654 C1650 0.950 . S
C1655 C1653 1.390 . S
C1655 C1656 1.387 . S
C1655 H1658 0.950 . S
C1656 C1655 1.387 . S
C1656 C1659 1.387 . S
H1657 C1653 0.950 . S
H1658 C1655 0.950 . S
C1659 C1650 1.390 . S
C1659 H1652 0.950 . S
C1659 C1656 1.387 . S
C1660 C1661 1.399 . S
C1660 H1664 0.940 1_554 S
C1660 C1669 1.389 1_554 S
C1661 C1660 1.399 . S
C1661 C1663 1.387 . S
H1662 C1669 0.950 . S
C1663 C1661 1.387 . S
C1663 C1665 1.390 . S
C1663 H1667 0.950 . S
H1664 C1660 0.940 1_556 S
C1665 C1663 1.390 . S
C1665 C1666 1.387 . S
C1665 H1668 0.950 . S
C1666 C1665 1.387 . S
C1666 C1669 1.387 1_554 S
H1667 C1663 0.950 . S
H1668 C1665 0.950 . S
C1669 C1660 1.389 1_556 S
C1669 H1662 0.950 . S
C1669 C1666 1.387 1_556 S
C1670 C1671 1.387 . S
C1670 H1674 0.950 1_565 S
C1670 C1679 1.390 . S
C1671 C1670 1.387 . S
C1671 C1673 1.370 1_554 S
H1672 C1679 0.950 . S
C1673 C1671 1.370 1_556 S
C1673 C1675 1.392 . S
C1673 H1677 0.965 . S
H1674 C1670 0.950 1_545 S
C1675 C1673 1.392 . S
C1675 C1676 1.387 1_556 S
C1675 H1678 0.950 . S
C1676 C1675 1.387 1_554 S
C1676 C1679 1.387 . S
H1677 C1673 0.965 . S
H1678 C1675 0.950 . S
C1679 C1670 1.390 . S
C1679 H1672 0.950 . S
C1679 C1676 1.387 . S
C1206 C193 1.509 . S
C1201 C50 1.510 . S
C1216 C252 1.500 . S
C1211 C61 1.498 1_455 S
C1221 C67 1.508 . S
C1226 C369 1.508 . S
C1236 C437 1.506 . S
C1231 C41 1.504 1_655 S
C1246 C516 1.501 . S
C1241 C95 1.500 . S
C1256 C641 1.516 . S
C1251 C113 1.513 . S
C1261 C106 1.492 . S
C1266 C701 1.492 . S
C1276 C809 1.515 . S
C1271 C86 1.515 . S
C1281 C104 1.498 . S
C1286 C905 1.500 . S
C1296 C965 1.513 . S
C1291 C88 1.513 . S
C1301 C94 1.515 . S
C1306 C868 1.514 . S
C1316 C985 1.504 . S
C1311 C112 1.502 . S
C1321 C70 1.497 . S
C1326 C1053 1.499 . S
C1331 C40 1.511 . S
C1336 C1044 1.512 . S
C1341 C49 1.508 . S
C1346 C1073 1.507 . S
C1351 C59 1.512 . S
C1356 C1081 1.515 . S
C1361 C34 1.497 . S
C1366 C465 1.497 . S
C1371 C133 1.500 . S
C1376 C428 1.501 . S
C1386 C164 1.513 . S
C1381 C139 1.511 1_565 S
C1396 C261 1.509 . S
C1391 C77 1.509 . S
C1401 C43 1.498 1_545 S
C1406 C525 1.500 . S
C1416 C817 1.504 . S
C1411 C103 1.500 . S
C1426 C545 1.523 . S
C1421 C85 1.522 1_545 S
C1436 C729 1.499 . S
C1431 C115 1.497 . S
C1446 C721 1.509 . S
C1441 C131 1.509 . S
C1451 C142 1.499 . S
C1456 C789 1.500 . S
C1461 C76 1.508 . S
C1466 C553 1.508 . S
C1476 C604 1.506 . S
C1471 C122 1.504 . S
C1481 C32 1.500 . S
C1486 C349 1.500 . S
C1496 C457 1.516 . S
C1491 C5 1.513 1_655 S
C1506 C173 1.492 . S
C1501 C16 1.491 . S
C1516 C289 1.515 . S
C1511 C23 1.514 1_455 S
C1521 C14 1.498 . S
C1526 C993 1.498 . S
C1531 C25 1.513 1_556 S
C1536 C877 1.514 . S
C1541 C31 1.516 . S
C1546 C956 1.516 . S
C1551 C4 1.502 1_556 S
C1556 C897 1.504 . S
C1566 C1141 1.498 . S
C1561 C79 1.498 . S
C1576 C1132 1.512 . S
C1571 C121 1.510 1_554 S
C1586 C1161 1.508 . S
C1581 C130 1.508 . S
C1591 C140 1.512 1_554 S
C1596 C1169 1.515 . S
C1601 C97 1.497 . S
C1606 C633 1.497 . S
C1616 C613 1.501 . S
C1611 C52 1.500 . S
C1626 C692 1.513 . S
C1621 C58 1.511 . S
C1636 C780 1.509 . S
C1631 C68 1.512 . S
C1641 C124 1.498 . S
C1646 C340 1.500 . S
C1656 C281 1.504 . S
C1651 C13 1.503 . S
C1661 C22 1.522 . S
C1666 C377 1.523 . S
C1676 C201 1.498 . S
C1671 C7 1.496 1_565 S
