# Generated by pormake.
# Topology eea, (3,6)-cn, num edge types: 1
# Building blocks:
#     Node 0, Type 0, BuildingBlock: BETDAH_clean_linker_0, # of connection points: 3
#     Node 1, Type 0, BuildingBlock: BETDAH_clean_linker_0, # of connection points: 3
#     Node 2, Type 0, BuildingBlock: BETDAH_clean_linker_0, # of connection points: 3
#     Node 3, Type 0, BuildingBlock: BETDAH_clean_linker_0, # of connection points: 3
#     Node 4, Type 0, BuildingBlock: BETDAH_clean_linker_0, # of connection points: 3
#     Node 5, Type 0, BuildingBlock: BETDAH_clean_linker_0, # of connection points: 3
#     Node 6, Type 0, BuildingBlock: BETDAH_clean_linker_0, # of connection points: 3
#     Node 7, Type 0, BuildingBlock: BETDAH_clean_linker_0, # of connection points: 3
#     Node 8, Type 0, BuildingBlock: BETDAH_clean_linker_0, # of connection points: 3
#     Node 9, Type 0, BuildingBlock: BETDAH_clean_linker_0, # of connection points: 3
#     Node 10, Type 0, BuildingBlock: BETDAH_clean_linker_0, # of connection points: 3
#     Node 11, Type 0, BuildingBlock: BETDAH_clean_linker_0, # of connection points: 3
#     Node 12, Type 0, BuildingBlock: BETDAH_clean_linker_0, # of connection points: 3
#     Node 13, Type 0, BuildingBlock: BETDAH_clean_linker_0, # of connection points: 3
#     Node 14, Type 0, BuildingBlock: BETDAH_clean_linker_0, # of connection points: 3
#     Node 15, Type 0, BuildingBlock: BETDAH_clean_linker_0, # of connection points: 3
#     Node 16, Type 0, BuildingBlock: BETDAH_clean_linker_0, # of connection points: 3
#     Node 17, Type 0, BuildingBlock: BETDAH_clean_linker_0, # of connection points: 3
#     Node 18, Type 1, BuildingBlock: CUWYAW_clean_sbu_0, # of connection points: 6
#     Node 19, Type 1, BuildingBlock: CUWYAW_clean_sbu_0, # of connection points: 6
#     Node 20, Type 1, BuildingBlock: CUWYAW_clean_sbu_0, # of connection points: 6
#     Node 21, Type 1, BuildingBlock: CUWYAW_clean_sbu_0, # of connection points: 6
#     Node 22, Type 1, BuildingBlock: CUWYAW_clean_sbu_0, # of connection points: 6
#     Node 23, Type 1, BuildingBlock: CUWYAW_clean_sbu_0, # of connection points: 6
#     Node 24, Type 1, BuildingBlock: CUWYAW_clean_sbu_0, # of connection points: 6
#     Node 25, Type 1, BuildingBlock: CUWYAW_clean_sbu_0, # of connection points: 6
#     Node 26, Type 1, BuildingBlock: CUWYAW_clean_sbu_0, # of connection points: 6
#     Edge 27, Type (0, 1), BuildingBlock: XIVTED_clean_linker_0, # of connection points: 2
#     Edge 28, Type (0, 1), BuildingBlock: XIVTED_clean_linker_0, # of connection points: 2
#     Edge 29, Type (0, 1), BuildingBlock: XIVTED_clean_linker_0, # of connection points: 2
#     Edge 30, Type (0, 1), BuildingBlock: XIVTED_clean_linker_0, # of connection points: 2
#     Edge 31, Type (0, 1), BuildingBlock: XIVTED_clean_linker_0, # of connection points: 2
#     Edge 32, Type (0, 1), BuildingBlock: XIVTED_clean_linker_0, # of connection points: 2
#     Edge 33, Type (0, 1), BuildingBlock: XIVTED_clean_linker_0, # of connection points: 2
#     Edge 34, Type (0, 1), BuildingBlock: XIVTED_clean_linker_0, # of connection points: 2
#     Edge 35, Type (0, 1), BuildingBlock: XIVTED_clean_linker_0, # of connection points: 2
#     Edge 36, Type (0, 1), BuildingBlock: XIVTED_clean_linker_0, # of connection points: 2
#     Edge 37, Type (0, 1), BuildingBlock: XIVTED_clean_linker_0, # of connection points: 2
#     Edge 38, Type (0, 1), BuildingBlock: XIVTED_clean_linker_0, # of connection points: 2
#     Edge 39, Type (0, 1), BuildingBlock: XIVTED_clean_linker_0, # of connection points: 2
#     Edge 40, Type (0, 1), BuildingBlock: XIVTED_clean_linker_0, # of connection points: 2
#     Edge 41, Type (0, 1), BuildingBlock: XIVTED_clean_linker_0, # of connection points: 2
#     Edge 42, Type (0, 1), BuildingBlock: XIVTED_clean_linker_0, # of connection points: 2
#     Edge 43, Type (0, 1), BuildingBlock: XIVTED_clean_linker_0, # of connection points: 2
#     Edge 44, Type (0, 1), BuildingBlock: XIVTED_clean_linker_0, # of connection points: 2
#     Edge 45, Type (0, 1), BuildingBlock: XIVTED_clean_linker_0, # of connection points: 2
#     Edge 46, Type (0, 1), BuildingBlock: XIVTED_clean_linker_0, # of connection points: 2
#     Edge 47, Type (0, 1), BuildingBlock: XIVTED_clean_linker_0, # of connection points: 2
#     Edge 48, Type (0, 1), BuildingBlock: XIVTED_clean_linker_0, # of connection points: 2
#     Edge 49, Type (0, 1), BuildingBlock: XIVTED_clean_linker_0, # of connection points: 2
#     Edge 50, Type (0, 1), BuildingBlock: XIVTED_clean_linker_0, # of connection points: 2
#     Edge 51, Type (0, 1), BuildingBlock: XIVTED_clean_linker_0, # of connection points: 2
#     Edge 52, Type (0, 1), BuildingBlock: XIVTED_clean_linker_0, # of connection points: 2
#     Edge 53, Type (0, 1), BuildingBlock: XIVTED_clean_linker_0, # of connection points: 2
#     Edge 54, Type (0, 1), BuildingBlock: XIVTED_clean_linker_0, # of connection points: 2
#     Edge 55, Type (0, 1), BuildingBlock: XIVTED_clean_linker_0, # of connection points: 2
#     Edge 56, Type (0, 1), BuildingBlock: XIVTED_clean_linker_0, # of connection points: 2
#     Edge 57, Type (0, 1), BuildingBlock: XIVTED_clean_linker_0, # of connection points: 2
#     Edge 58, Type (0, 1), BuildingBlock: XIVTED_clean_linker_0, # of connection points: 2
#     Edge 59, Type (0, 1), BuildingBlock: XIVTED_clean_linker_0, # of connection points: 2
#     Edge 60, Type (0, 1), BuildingBlock: XIVTED_clean_linker_0, # of connection points: 2
#     Edge 61, Type (0, 1), BuildingBlock: XIVTED_clean_linker_0, # of connection points: 2
#     Edge 62, Type (0, 1), BuildingBlock: XIVTED_clean_linker_0, # of connection points: 2
#     Edge 63, Type (0, 1), BuildingBlock: XIVTED_clean_linker_0, # of connection points: 2
#     Edge 64, Type (0, 1), BuildingBlock: XIVTED_clean_linker_0, # of connection points: 2
#     Edge 65, Type (0, 1), BuildingBlock: XIVTED_clean_linker_0, # of connection points: 2
#     Edge 66, Type (0, 1), BuildingBlock: XIVTED_clean_linker_0, # of connection points: 2
#     Edge 67, Type (0, 1), BuildingBlock: XIVTED_clean_linker_0, # of connection points: 2
#     Edge 68, Type (0, 1), BuildingBlock: XIVTED_clean_linker_0, # of connection points: 2
#     Edge 69, Type (0, 1), BuildingBlock: XIVTED_clean_linker_0, # of connection points: 2
#     Edge 70, Type (0, 1), BuildingBlock: XIVTED_clean_linker_0, # of connection points: 2
#     Edge 71, Type (0, 1), BuildingBlock: XIVTED_clean_linker_0, # of connection points: 2
#     Edge 72, Type (0, 1), BuildingBlock: XIVTED_clean_linker_0, # of connection points: 2
#     Edge 73, Type (0, 1), BuildingBlock: XIVTED_clean_linker_0, # of connection points: 2
#     Edge 74, Type (0, 1), BuildingBlock: XIVTED_clean_linker_0, # of connection points: 2
#     Edge 75, Type (0, 1), BuildingBlock: XIVTED_clean_linker_0, # of connection points: 2
#     Edge 76, Type (0, 1), BuildingBlock: XIVTED_clean_linker_0, # of connection points: 2
#     Edge 77, Type (0, 1), BuildingBlock: XIVTED_clean_linker_0, # of connection points: 2
#     Edge 78, Type (0, 1), BuildingBlock: XIVTED_clean_linker_0, # of connection points: 2
#     Edge 79, Type (0, 1), BuildingBlock: XIVTED_clean_linker_0, # of connection points: 2
#     Edge 80, Type (0, 1), BuildingBlock: XIVTED_clean_linker_0, # of connection points: 2
# Relax obj value: 0.056
# Max RMSD: 0.205
# Mean RMSD: 0.144
data_MOF--net-eea--node1-CUWYAW_clean_sbu_0--node2-BETDAH_clean_linker_0--edge1-XIVTED_clean_linker_0
_symmetry_space_group_name_H-M    P1
_symmetry_Int_Tables_number       1
_symmetry_cell_setting            triclinic
loop_
_symmetry_equiv_pos_as_xyz
'x, y, z'
_cell_length_a     55.020917
_cell_length_b     54.684913
_cell_length_c     70.161276
_cell_angle_alpha  93.379837
_cell_angle_beta   93.49215
_cell_angle_gamma 119.89844
loop_
_atom_site_label
_atom_site_type_symbol
_atom_site_fract_x
_atom_site_fract_y
_atom_site_fract_z
_atom_type_partial_charge
H0 H 0.22869 0.06596 0.42132 0.0
H1 H 0.24932 0.15305 0.42123 0.0
H2 H 0.22239 0.09885 0.36828 0.0
C3 C 0.23068 0.08337 0.41362 0.0
C4 C 0.22385 0.07895 0.39365 0.0
C5 C 0.24006 0.11003 0.42375 0.0
C6 C 0.2416 0.13225 0.41371 0.0
C7 C 0.23521 0.12807 0.39364 0.0
C8 C 0.2266 0.1016 0.38378 0.0
N9 N 0.23957 0.1506 0.3827 0.0
C10 C 0.23285 0.17121 0.38797 0.0
H11 H 0.93933 0.18583 0.43144 0.0
H12 H 0.8629 0.10627 0.414 0.0
H13 H 0.92205 0.1472 0.37334 0.0
C14 C 0.92574 0.16864 0.42052 0.0
C15 C 0.93388 0.16941 0.40186 0.0
C16 C 0.90006 0.14605 0.42511 0.0
C17 C 0.88288 0.12359 0.41082 0.0
C18 C 0.8909 0.12421 0.39213 0.0
C19 C 0.91608 0.14716 0.38778 0.0
N20 N 0.87392 0.10267 0.37707 0.0
C21 C 0.85334 0.0752 0.37956 0.0
H22 H 0.83766 0.76069 0.44071 0.0
H23 H 0.89862 0.73488 0.43106 0.0
H24 H 0.86063 0.75439 0.3838 0.0
C25 C 0.85071 0.75722 0.43122 0.0
C26 C 0.84743 0.75961 0.41149 0.0
C27 C 0.86905 0.74824 0.43854 0.0
C28 C 0.88472 0.74228 0.42586 0.0
C29 C 0.88165 0.7446 0.4062 0.0
C30 C 0.86309 0.75319 0.3991 0.0
N31 N 0.89381 0.73421 0.39318 0.0
C32 C 0.92158 0.7501 0.38918 0.0
H33 H 0.06656 0.25041 0.57717 0.0
H34 H 0.137 0.23839 0.59168 0.0
H35 H 0.07431 0.21934 0.63072 0.0
C36 C 0.07777 0.24382 0.58689 0.0
C37 C 0.06739 0.23472 0.60447 0.0
C38 C 0.10304 0.24546 0.58213 0.0
C39 C 0.11776 0.23759 0.59525 0.0
C40 C 0.10729 0.22822 0.6128 0.0
C41 C 0.0823 0.2269 0.61723 0.0
N42 N 0.12091 0.2197 0.62646 0.0
C43 C 0.14636 0.22058 0.62496 0.0
H44 H 0.7656 0.82943 0.5929 0.0
H45 H 0.75772 0.90348 0.6035 0.0
H46 H 0.77868 0.86875 0.65053 0.0
C47 C 0.7664 0.84581 0.60282 0.0
C48 C 0.77277 0.84623 0.62262 0.0
C49 C 0.7611 0.86646 0.5957 0.0
C50 C 0.76232 0.88779 0.60868 0.0
C51 C 0.76827 0.88817 0.62847 0.0
C52 C 0.77336 0.86749 0.63525 0.0
N53 N 0.76868 0.90859 0.64211 0.0
C54 C 0.77464 0.93554 0.6383 0.0
H55 H 0.17312 0.93703 0.58191 0.0
H56 H 0.11757 0.84704 0.57878 0.0
H57 H 0.12741 0.8993 0.63003 0.0
C58 C 0.15805 0.91869 0.58841 0.0
C59 C 0.15193 0.9219 0.60732 0.0
C60 C 0.14535 0.89193 0.57783 0.0
C61 C 0.12675 0.86798 0.58647 0.0
C62 C 0.12008 0.8706 0.60512 0.0
C63 C 0.1324 0.89755 0.6155 0.0
N64 N 0.10321 0.84546 0.61368 0.0
C65 C 0.07992 0.8404 0.62314 0.0
H66 H 0.905 0.40448 0.75643 0.0
H67 H 0.92727 0.49193 0.75548 0.0
H68 H 0.89863 0.43653 0.703 0.0
C69 C 0.90722 0.42182 0.74854 0.0
C70 C 0.89999 0.41701 0.7286 0.0
C71 C 0.91721 0.44877 0.75842 0.0
C72 C 0.9191 0.47091 0.74815 0.0
C73 C 0.91244 0.46637 0.72812 0.0
C74 C 0.90314 0.4396 0.71849 0.0
N75 N 0.91712 0.48884 0.71703 0.0
C76 C 0.90935 0.50879 0.72181 0.0
H77 H 0.6079 0.51505 0.76542 0.0
H78 H 0.53178 0.43489 0.74911 0.0
H79 H 0.5906 0.47415 0.70795 0.0
C80 C 0.59437 0.49748 0.75473 0.0
C81 C 0.60245 0.49753 0.73609 0.0
C82 C 0.56886 0.47501 0.75963 0.0
C83 C 0.55164 0.4521 0.74566 0.0
C84 C 0.55953 0.45199 0.72699 0.0
C85 C 0.58466 0.47472 0.72234 0.0
N86 N 0.54257 0.42974 0.71232 0.0
C87 C 0.52105 0.40294 0.71533 0.0
H88 H 0.50773 0.10137 0.77699 0.0
H89 H 0.56972 0.07716 0.76678 0.0
H90 H 0.52162 0.08391 0.71929 0.0
C91 C 0.51908 0.0959 0.76715 0.0
C92 C 0.51268 0.09454 0.74724 0.0
C93 C 0.53924 0.08919 0.77447 0.0
C94 C 0.55412 0.08241 0.76154 0.0
C95 C 0.54789 0.08094 0.7417 0.0
C96 C 0.52698 0.08647 0.73467 0.0
N97 N 0.56004 0.07061 0.7286 0.0
C98 C 0.5885 0.08527 0.72603 0.0
H99 H 0.73384 0.57498 0.90963 0.0
H100 H 0.81362 0.58117 0.9262 0.0
H101 H 0.75386 0.56232 0.9672 0.0
C102 C 0.74812 0.57378 0.92034 0.0
C103 C 0.73985 0.56694 0.93881 0.0
C104 C 0.77497 0.57956 0.91571 0.0
C105 C 0.79318 0.57739 0.92964 0.0
C106 C 0.78523 0.57086 0.94813 0.0
C107 C 0.75905 0.56631 0.95263 0.0
N108 N 0.80309 0.5693 0.96286 0.0
C109 C 0.82685 0.56731 0.96012 0.0
H110 H 0.4357 0.16706 0.92813 0.0
H111 H 0.41385 0.23184 0.93924 0.0
H112 H 0.44269 0.20255 0.98596 0.0
C113 C 0.43376 0.1818 0.93805 0.0
C114 C 0.44126 0.18333 0.95779 0.0
C115 C 0.42355 0.19903 0.93114 0.0
C116 C 0.42137 0.21819 0.94428 0.0
C117 C 0.42821 0.2193 0.96402 0.0
C118 C 0.43777 0.20171 0.97065 0.0
N119 N 0.42479 0.23723 0.97764 0.0
C120 C 0.43162 0.26474 0.97479 0.0
H121 H 0.83603 0.27556 0.9202 0.0
H122 H 0.78526 0.18443 0.9155 0.0
H123 H 0.80301 0.23281 0.97011 0.0
C124 C 0.82337 0.25611 0.92662 0.0
C125 C 0.82091 0.25737 0.94641 0.0
C126 C 0.81058 0.2299 0.91524 0.0
C127 C 0.79462 0.2049 0.92387 0.0
C128 C 0.79131 0.20594 0.94348 0.0
C129 C 0.80465 0.23215 0.95479 0.0
N130 N 0.77707 0.18023 0.95194 0.0
C131 C 0.75195 0.17178 0.95995 0.0
H132 H 0.58245 0.74686 0.08808 0.0
H133 H 0.56345 0.8144 0.09107 0.0
H134 H 0.53036 0.7524 0.04217 0.0
C135 C 0.5724 0.75753 0.08168 0.0
C136 C 0.55678 0.74673 0.06352 0.0
C137 C 0.57451 0.7816 0.09196 0.0
C138 C 0.56174 0.7957 0.08346 0.0
C139 C 0.54629 0.78522 0.06529 0.0
C140 C 0.5435 0.7607 0.05574 0.0
N141 N 0.53224 0.79788 0.05619 0.0
C142 C 0.53592 0.82446 0.06152 0.0
H143 H 0.2715 0.84821 0.09518 0.0
H144 H 0.20281 0.76334 0.07751 0.0
H145 H 0.26277 0.80893 0.03833 0.0
C146 C 0.26046 0.83 0.08452 0.0
C147 C 0.27034 0.83151 0.06636 0.0
C148 C 0.23589 0.8056 0.08871 0.0
C149 C 0.22146 0.78239 0.07444 0.0
C150 C 0.23114 0.78381 0.05623 0.0
C151 C 0.25532 0.80832 0.05234 0.0
N152 N 0.21721 0.76124 0.04129 0.0
C153 C 0.19564 0.73401 0.04335 0.0
H154 H 0.17525 0.43055 0.1099 0.0
H155 H 0.23785 0.40717 0.09981 0.0
H156 H 0.19718 0.42415 0.05269 0.0
C157 C 0.18834 0.42739 0.10027 0.0
C158 C 0.18438 0.42929 0.08054 0.0
C159 C 0.20748 0.41934 0.10748 0.0
C160 C 0.22332 0.41385 0.09466 0.0
C161 C 0.21958 0.41572 0.07498 0.0
C162 C 0.20013 0.42327 0.068 0.0
N163 N 0.23229 0.40619 0.06183 0.0
C164 C 0.26035 0.42241 0.05851 0.0
H165 H 0.3958 0.90522 0.24223 0.0
H166 H 0.47471 0.91 0.25945 0.0
H167 H 0.41323 0.88918 0.29939 0.0
C168 C 0.40959 0.90336 0.25298 0.0
C169 C 0.40054 0.89559 0.27115 0.0
C170 C 0.43657 0.90918 0.24869 0.0
C171 C 0.45418 0.9062 0.26266 0.0
C172 C 0.44543 0.89868 0.28086 0.0
C173 C 0.41908 0.894 0.28503 0.0
N174 N 0.46257 0.89604 0.29558 0.0
C175 C 0.48714 0.89547 0.29313 0.0
H176 H 0.10054 0.50038 0.26261 0.0
H177 H 0.07898 0.56533 0.27418 0.0
H178 H 0.10647 0.53454 0.32063 0.0
C179 C 0.09845 0.51493 0.27261 0.0
C180 C 0.1056 0.51601 0.29235 0.0
C181 C 0.08852 0.53247 0.26581 0.0
C182 C 0.08621 0.5514 0.27909 0.0
C183 C 0.09252 0.55192 0.29882 0.0
C184 C 0.10186 0.53409 0.30533 0.0
N185 N 0.08861 0.56936 0.31254 0.0
C186 C 0.09636 0.59732 0.3104 0.0
H187 H 0.50196 0.61111 0.25396 0.0
H188 H 0.44966 0.52007 0.24842 0.0
H189 H 0.4685 0.56765 0.30349 0.0
C190 C 0.48889 0.59157 0.26016 0.0
C191 C 0.48645 0.59249 0.27995 0.0
C192 C 0.47569 0.56555 0.24856 0.0
C193 C 0.45926 0.54044 0.25696 0.0
C194 C 0.45605 0.5412 0.27659 0.0
C195 C 0.46986 0.56722 0.28814 0.0
N196 N 0.44183 0.51534 0.28489 0.0
C197 C 0.41636 0.5064 0.2925 0.0
C198 C 0.53832 0.03592 0.07602 0.0
Eu199 Eu 0.52224 0.03111 0.03962 0.0
C200 C 0.52727 0.02109 0.09301 0.0
C201 C 0.53736 0.03628 0.11122 0.0
C202 C 0.52743 0.02274 0.12765 0.0
C203 C 0.5072 0.99366 0.12619 0.0
C204 C 0.49687 0.97853 0.10783 0.0
C205 C 0.50683 0.99215 0.09136 0.0
C206 C 0.50821 0.0654 0.02156 0.0
C207 C 0.455 0.98439 0.02996 0.0
C208 C 0.48041 0.00587 0.96143 0.0
Eu209 Eu 0.49631 0.01044 0.99784 0.0
C210 C 0.49224 0.01948 0.94409 0.0
C211 C 0.51833 0.02384 0.93899 0.0
C212 C 0.52832 0.03554 0.92195 0.0
C213 C 0.51258 0.04336 0.90984 0.0
C214 C 0.48685 0.03962 0.91527 0.0
C215 C 0.47676 0.02771 0.93219 0.0
C216 C 0.50821 0.97507 0.01614 0.0
C217 C 0.56387 0.05694 0.00765 0.0
O218 O 0.54432 0.02255 0.0627 0.0
O219 O 0.5258 0.04891 0.06899 0.0
O220 O 0.53044 0.07489 0.03378 0.0
O221 O 0.49403 0.03877 0.02023 0.0
O222 O 0.47799 0.99475 0.04221 0.0
O223 O 0.45618 0.9907 0.01201 0.0
O224 O 0.47638 0.02119 0.97451 0.0
O225 O 0.49024 0.99067 0.96878 0.0
O226 O 0.48633 0.96644 0.00376 0.0
O227 O 0.52361 0.00168 0.01744 0.0
O228 O 0.54106 0.04591 0.99516 0.0
O229 O 0.56246 0.05159 0.02577 0.0
H230 H 0.55298 0.05868 0.11274 0.0
H231 H 0.53544 0.03519 0.1415 0.0
H232 H 0.48145 0.95608 0.10619 0.0
H233 H 0.49872 0.98007 0.07738 0.0
H234 H 0.53087 0.01797 0.94803 0.0
H235 H 0.54836 0.03845 0.91824 0.0
H236 H 0.47407 0.04513 0.90614 0.0
H237 H 0.45661 0.02456 0.93585 0.0
C238 C 0.00195 0.52141 0.0667 0.0
Eu239 Eu 0.99702 0.49992 0.03154 0.0
C240 C 0.01151 0.51971 0.08649 0.0
C241 C 0.99188 0.50954 0.10004 0.0
C242 C 1.00053 0.5094 0.11915 0.0
C243 C 0.02912 0.51974 0.12523 0.0
C244 C 0.04872 0.52941 0.11155 0.0
C245 C 0.04002 0.5294 0.09238 0.0
C246 C 0.95632 0.44739 0.01633 0.0
C247 C 0.03661 0.4713 0.0275 0.0
C248 C 0.99863 0.45738 0.95738 0.0
Eu249 Eu 0.00504 0.48105 0.9921 0.0
C250 C 0.98942 0.45851 0.93753 0.0
C251 C 0.98653 0.48132 0.93212 0.0
C252 C 0.97913 0.4824 0.91283 0.0
C253 C 0.97459 0.46071 0.89874 0.0
C254 C 0.97679 0.43759 0.90445 0.0
C255 C 0.98417 0.43655 0.92364 0.0
C256 C 0.04587 0.53367 0.00707 0.0
C257 C 0.96788 0.51243 0.99602 0.0
O258 O 0.0211 0.53338 0.05484 0.0
O259 O 0.97893 0.49917 0.05846 0.0
O260 O 0.95119 0.46506 0.02588 0.0
O261 O 0.98243 0.45775 0.01574 0.0
O262 O 0.03104 0.48852 0.03795 0.0
O263 O 0.02493 0.46142 0.0097 0.0
O264 O 0.97916 0.44734 0.9692 0.0
O265 O 0.02217 0.47939 0.96522 0.0
O266 O 0.05075 0.51643 0.99674 0.0
O267 O 0.01983 0.52318 0.00795 0.0
O268 O 0.97255 0.49459 0.98546 0.0
O269 O 0.97904 0.52129 0.01402 0.0
H270 H 0.9698 0.502 0.0959 0.0
H271 H 0.98475 0.50128 0.12917 0.0
H272 H 0.07093 0.53778 0.11574 0.0
H273 H 0.05571 0.53745 0.08228 0.0
H274 H 0.99042 0.49842 0.94273 0.0
H275 H 0.9777 0.50053 0.9089 0.0
H276 H 0.97284 0.42023 0.89407 0.0
H277 H 0.9861 0.41869 0.92761 0.0
C278 C 0.47042 0.4845 0.94315 0.0
Eu279 Eu 0.48946 0.50693 0.9785 0.0
C280 C 0.48201 0.4843 0.92486 0.0
C281 C 0.50935 0.50535 0.92193 0.0
C282 C 0.52005 0.50469 0.90443 0.0
C283 C 0.50363 0.4829 0.88962 0.0
C284 C 0.4763 0.46179 0.89274 0.0
C285 C 0.46562 0.46252 0.91021 0.0
C286 C 0.50714 0.56057 0.9933 0.0
C287 C 0.5574 0.53053 0.98594 0.0
C288 C 0.53841 0.54465 0.055 0.0
Eu289 Eu 0.51862 0.52286 0.01962 0.0
C290 C 0.52892 0.54627 0.07395 0.0
C291 C 0.50635 0.5227 0.08066 0.0
C292 C 0.49888 0.52472 0.09917 0.0
C293 C 0.5138 0.55035 0.11124 0.0
C294 C 0.53583 0.57406 0.10415 0.0
C295 C 0.54333 0.57199 0.08573 0.0
C296 C 0.50214 0.46981 0.00437 0.0
C297 C 0.45052 0.49857 0.01222 0.0
O298 O 0.47583 0.47158 0.95646 0.0
O299 O 0.47291 0.50855 0.94991 0.0
O300 O 0.48417 0.54545 0.98179 0.0
O301 O 0.52032 0.54743 0.99551 0.0
O302 O 0.53395 0.51676 0.97406 0.0
O303 O 0.55742 0.53845 0.00411 0.0
O304 O 0.53319 0.55801 0.04198 0.0
O305 O 0.53469 0.52013 0.04808 0.0
O306 O 0.52511 0.4853 0.01577 0.0
O307 O 0.48816 0.48223 0.00255 0.0
O308 O 0.47402 0.513 0.02403 0.0
O309 O 0.45073 0.49065 0.9941 0.0
H310 H 0.52237 0.52225 0.93315 0.0
H311 H 0.54129 0.52106 0.90258 0.0
H312 H 0.46297 0.44494 0.88157 0.0
H313 H 0.44449 0.44608 0.91226 0.0
H314 H 0.49477 0.50266 0.07173 0.0
H315 H 0.48192 0.506 0.1042 0.0
H316 H 0.54737 0.59429 0.11285 0.0
H317 H 0.56065 0.59047 0.08074 0.0
C318 C 0.20388 0.36952 0.40861 0.0
Eu319 Eu 0.18742 0.36284 0.37209 0.0
C320 C 0.19328 0.3548 0.42571 0.0
C321 C 0.20408 0.36986 0.44392 0.0
C322 C 0.19425 0.35637 0.4604 0.0
C323 C 0.17337 0.3275 0.45896 0.0
C324 C 0.16251 0.31248 0.44059 0.0
C325 C 0.1724 0.32602 0.4241 0.0
C326 C 0.17237 0.39563 0.35301 0.0
C327 C 0.12062 0.31501 0.36293 0.0
C328 C 0.14498 0.33204 0.29411 0.0
Eu329 Eu 0.16175 0.34004 0.33067 0.0
C330 C 0.15608 0.34353 0.27613 0.0
C331 C 0.14487 0.32575 0.2589 0.0
C332 C 0.15471 0.33608 0.24155 0.0
C333 C 0.17599 0.36446 0.2411 0.0
C334 C 0.18732 0.38224 0.25847 0.0
C335 C 0.1775 0.37182 0.27587 0.0
C336 C 0.17557 0.30668 0.35008 0.0
C337 C 0.22873 0.38841 0.3399 0.0
O338 O 0.2108 0.3566 0.39559 0.0
O339 O 0.19016 0.38111 0.40117 0.0
O340 O 0.19455 0.40586 0.36534 0.0
O341 O 0.15855 0.36899 0.35211 0.0
O342 O 0.1437 0.3259 0.37513 0.0
O343 O 0.12167 0.32071 0.34487 0.0
O344 O 0.14143 0.34859 0.30646 0.0
O345 O 0.15555 0.31803 0.30227 0.0
O346 O 0.15332 0.29691 0.33787 0.0
O347 O 0.19016 0.3333 0.35075 0.0
O348 O 0.20589 0.37624 0.32739 0.0
O349 O 0.22754 0.38384 0.35817 0.0
H350 H 0.2201 0.39213 0.4454 0.0
H351 H 0.20273 0.3687 0.47426 0.0
H352 H 0.14662 0.29018 0.43896 0.0
H353 H 0.16384 0.31403 0.41012 0.0
H354 H 0.12831 0.30387 0.25884 0.0
H355 H 0.14523 0.32194 0.22843 0.0
H356 H 0.2039 0.40412 0.25863 0.0
H357 H 0.18654 0.38585 0.28907 0.0
C358 C 0.66662 0.85619 0.39914 0.0
Eu359 Eu 0.66359 0.83604 0.36388 0.0
C360 C 0.67881 0.8569 0.41852 0.0
C361 C 0.68805 0.83794 0.42283 0.0
C362 C 0.699 0.83873 0.44155 0.0
C363 C 0.70101 0.85861 0.45619 0.0
C364 C 0.69197 0.87772 0.45165 0.0
C365 C 0.68097 0.87684 0.43299 0.0
C366 C 0.62431 0.78393 0.34712 0.0
C367 C 0.70472 0.80928 0.35967 0.0
C368 C 0.67061 0.80057 0.28892 0.0
Eu369 Eu 0.67418 0.82029 0.32437 0.0
C370 C 0.66201 0.80371 0.26924 0.0
C371 C 0.68198 0.81333 0.25589 0.0
C372 C 0.67419 0.81507 0.23691 0.0
C373 C 0.64613 0.80694 0.23075 0.0
C374 C 0.62623 0.79779 0.24426 0.0
C375 C 0.63409 0.79623 0.26331 0.0
C376 C 0.71337 0.87256 0.34101 0.0
C377 C 0.6342 0.84856 0.32853 0.0
O378 O 0.68443 0.87047 0.38703 0.0
O379 O 0.64606 0.8316 0.39131 0.0
O380 O 0.61819 0.80059 0.35699 0.0
O381 O 0.65058 0.79497 0.34703 0.0
O382 O 0.69852 0.82588 0.37027 0.0
O383 O 0.69373 0.80008 0.34167 0.0
O384 O 0.65084 0.788 0.30028 0.0
O385 O 0.69349 0.82225 0.29783 0.0
O386 O 0.71942 0.85628 0.33064 0.0
O387 O 0.68712 0.86128 0.34121 0.0
O388 O 0.64059 0.83235 0.31766 0.0
O389 O 0.64409 0.85638 0.3468 0.0
H390 H 0.68668 0.82249 0.41176 0.0
H391 H 0.70605 0.82393 0.44455 0.0
H392 H 0.69285 0.89302 0.46261 0.0
H393 H 0.6739 0.89161 0.42989 0.0
H394 H 0.70364 0.81924 0.2601 0.0
H395 H 0.69021 0.8227 0.22703 0.0
H396 H 0.60437 0.79105 0.24002 0.0
H397 H 0.61817 0.78871 0.27326 0.0
C398 C 0.13065 0.81687 0.26943 0.0
Eu399 Eu 0.14863 0.83833 0.30502 0.0
C400 C 0.14233 0.81452 0.25154 0.0
C401 C 0.12804 0.81318 0.23395 0.0
C402 C 0.13878 0.81138 0.21672 0.0
C403 C 0.16407 0.8108 0.21671 0.0
C404 C 0.17844 0.81228 0.23445 0.0
C405 C 0.16769 0.81418 0.25172 0.0
C406 C 0.16395 0.89104 0.32065 0.0
C407 C 0.21658 0.86213 0.31362 0.0
C408 C 0.20105 0.88822 0.38131 0.0
Eu409 Eu 0.17903 0.8577 0.34846 0.0
C410 C 0.1958 0.88591 0.40156 0.0
C411 C 0.17486 0.86051 0.40757 0.0
C412 C 0.16948 0.85904 0.42684 0.0
C413 C 0.18492 0.88298 0.44038 0.0
C414 C 0.20596 0.90832 0.43418 0.0
C415 C 0.21132 0.90973 0.41495 0.0
C416 C 0.15792 0.80125 0.33893 0.0
C417 C 0.11018 0.82761 0.33968 0.0
O418 O 0.13215 0.80231 0.28318 0.0
O419 O 0.13644 0.8424 0.27576 0.0
O420 O 0.14116 0.87559 0.309 0.0
O421 O 0.17768 0.87848 0.32277 0.0
O422 O 0.19354 0.84952 0.30125 0.0
O423 O 0.21661 0.86937 0.33199 0.0
O424 O 0.18205 0.88964 0.36995 0.0
O425 O 0.20959 0.87168 0.37368 0.0
O426 O 0.17167 0.81433 0.35551 0.0
O427 O 0.15636 0.81894 0.3291 0.0
O428 O 0.13327 0.84459 0.35148 0.0
O429 O 0.11089 0.81934 0.32168 0.0
H430 H 0.10857 0.81369 0.23354 0.0
H431 H 0.12742 0.81089 0.20341 0.0
H432 H 0.19782 0.81163 0.23501 0.0
H433 H 0.17915 0.81535 0.26518 0.0
H434 H 0.1626 0.84193 0.39734 0.0
H435 H 0.15334 0.83912 0.43114 0.0
H436 H 0.21791 0.92729 0.44411 0.0
H437 H 0.2274 0.92957 0.41049 0.0
C438 C 0.86928 0.7009 0.74019 0.0
Eu439 Eu 0.85305 0.6932 0.70357 0.0
C440 C 0.85918 0.68652 0.7575 0.0
C441 C 0.86941 0.70231 0.7755 0.0
C442 C 0.86027 0.68923 0.7922 0.0
C443 C 0.84069 0.66 0.79124 0.0
C444 C 0.83025 0.64424 0.77307 0.0
C445 C 0.83943 0.6574 0.75633 0.0
C446 C 0.83772 0.72486 0.68346 0.0
C447 C 0.78681 0.64376 0.6941 0.0
C448 C 0.81251 0.65705 0.62539 0.0
Eu449 Eu 0.82863 0.66858 0.66214 0.0
C450 C 0.82135 0.66947 0.6073 0.0
C451 C 0.8099 0.65188 0.59002 0.0
C452 C 0.81836 0.66278 0.57258 0.0
C453 C 0.83852 0.69157 0.57209 0.0
C454 C 0.84983 0.70927 0.5895 0.0
C455 C 0.84138 0.69826 0.607 0.0
C456 C 0.84359 0.63724 0.68306 0.0
C457 C 0.89404 0.7202 0.67138 0.0
O458 O 0.87701 0.68839 0.72744 0.0
O459 O 0.85475 0.71143 0.73245 0.0
O460 O 0.85845 0.73552 0.697 0.0
O461 O 0.82439 0.69816 0.68242 0.0
O462 O 0.80959 0.65584 0.70663 0.0
O463 O 0.78816 0.64849 0.67585 0.0
O464 O 0.80355 0.6695 0.63721 0.0
O465 O 0.82871 0.64914 0.63416 0.0
O466 O 0.8214 0.62641 0.67075 0.0
O467 O 0.85743 0.6638 0.68316 0.0
O468 O 0.87116 0.70718 0.65891 0.0
O469 O 0.89321 0.7155 0.68964 0.0
H470 H 0.8845 0.72485 0.77665 0.0
H471 H 0.86835 0.70213 0.80589 0.0
H472 H 0.81533 0.62168 0.7718 0.0
H473 H 0.83125 0.64486 0.74251 0.0
H474 H 0.7944 0.62961 0.59 0.0
H475 H 0.80888 0.64868 0.55944 0.0
H476 H 0.86554 0.73147 0.58961 0.0
H477 H 0.85056 0.71212 0.62026 0.0
C478 C 0.32364 0.17832 0.73384 0.0
Eu479 Eu 0.32369 0.16201 0.69815 0.0
C480 C 0.33636 0.18077 0.75341 0.0
C481 C 0.34733 0.16351 0.75859 0.0
C482 C 0.3578 0.16539 0.77767 0.0
C483 C 0.35734 0.1845 0.79181 0.0
C484 C 0.34698 0.20221 0.78632 0.0
C485 C 0.33659 0.20033 0.76733 0.0
C486 C 0.28434 0.11312 0.67756 0.0
C487 C 0.36651 0.13739 0.69246 0.0
C488 C 0.33983 0.14066 0.62193 0.0
Eu489 Eu 0.33814 0.15299 0.65809 0.0
C490 C 0.32456 0.13653 0.60288 0.0
C491 C 0.3192 0.15732 0.59623 0.0
C492 C 0.30769 0.1543 0.57729 0.0
C493 C 0.30127 0.13041 0.56467 0.0
C494 C 0.30542 0.10905 0.57173 0.0
C495 C 0.31704 0.11215 0.59059 0.0
C496 C 0.37675 0.20188 0.67915 0.0
C497 C 0.29534 0.17706 0.66354 0.0
O498 O 0.34009 0.19533 0.72206 0.0
O499 O 0.30631 0.15272 0.72559 0.0
O500 O 0.27841 0.12743 0.68993 0.0
O501 O 0.31067 0.12372 0.67778 0.0
O502 O 0.35742 0.15019 0.70424 0.0
O503 O 0.35913 0.13281 0.67376 0.0
O504 O 0.32734 0.12136 0.63367 0.0
O505 O 0.3536 0.16643 0.63064 0.0
O506 O 0.38323 0.18673 0.66798 0.0
O507 O 0.3504 0.19123 0.67812 0.0
O508 O 0.30244 0.16201 0.65217 0.0
O509 O 0.30444 0.18346 0.68198 0.0
H510 H 0.34737 0.1483 0.74799 0.0
H511 H 0.3655 0.15136 0.78145 0.0
H512 H 0.34683 0.21754 0.79675 0.0
H513 H 0.32835 0.21394 0.76354 0.0
H514 H 0.32466 0.17632 0.60545 0.0
H515 H 0.30491 0.17122 0.57235 0.0
H516 H 0.30011 0.09006 0.56257 0.0
H517 H 0.32085 0.09578 0.59543 0.0
C518 C 0.79769 0.15039 0.60786 0.0
Eu519 Eu 0.81642 0.17228 0.64335 0.0
C520 C 0.80962 0.14966 0.58979 0.0
C521 C 0.83737 0.17003 0.58716 0.0
C522 C 0.84828 0.1691 0.56979 0.0
C523 C 0.83165 0.1477 0.55481 0.0
C524 C 0.80395 0.12717 0.55766 0.0
C525 C 0.79307 0.12818 0.57499 0.0
C526 C 0.83278 0.22555 0.65839 0.0
C527 C 0.88465 0.19827 0.65037 0.0
C528 C 0.86669 0.21268 0.7194 0.0
Eu529 Eu 0.84627 0.18938 0.68437 0.0
C530 C 0.85812 0.21342 0.73878 0.0
C531 C 0.83659 0.18921 0.74568 0.0
C532 C 0.82993 0.19049 0.76454 0.0
C533 C 0.84465 0.216 0.77676 0.0
C534 C 0.86567 0.24029 0.76951 0.0
C535 C 0.87234 0.23896 0.75075 0.0
C536 C 0.83166 0.13677 0.66924 0.0
C537 C 0.77754 0.16217 0.67733 0.0
O538 O 0.80167 0.13673 0.62126 0.0
O539 O 0.80128 0.17494 0.61457 0.0
O540 O 0.80943 0.20988 0.64736 0.0
O541 O 0.84656 0.21302 0.66012 0.0
O542 O 0.86099 0.18207 0.63904 0.0
O543 O 0.88451 0.20757 0.66816 0.0
O544 O 0.85837 0.22415 0.70661 0.0
O545 O 0.86542 0.18929 0.71243 0.0
O546 O 0.85447 0.15287 0.68067 0.0
O547 O 0.81683 0.14829 0.66744 0.0
O548 O 0.80104 0.17714 0.68911 0.0
O549 O 0.77789 0.15474 0.65912 0.0
H550 H 0.85055 0.18669 0.59849 0.0
H551 H 0.8698 0.18501 0.56816 0.0
H552 H 0.79047 0.11062 0.54635 0.0
H553 H 0.77161 0.11225 0.57681 0.0
H554 H 0.82521 0.16929 0.7366 0.0
H555 H 0.81375 0.17134 0.76967 0.0
H556 H 0.87701 0.26042 0.77834 0.0
H557 H 0.88886 0.25791 0.74561 0.0
H558 H 0.2797 0.85836 0.03354 0.0
H559 H 0.44413 0.96428 0.06523 0.0
H560 H 0.32073 0.86247 0.08902 0.0
H561 H 0.40282 0.9584 0.0094 0.0
H562 H 0.39872 0.92938 0.07501 0.0
H563 H 0.32406 0.89731 0.02533 0.0
C564 C 0.29806 0.8675 0.04402 0.0
C565 C 0.29654 0.85692 0.06194 0.0
C566 C 0.39957 0.93582 0.06065 0.0
C567 C 0.34751 0.90173 0.05264 0.0
C568 C 0.42552 0.95579 0.05503 0.0
C569 C 0.42738 0.96427 0.0364 0.0
C570 C 0.37523 0.92416 0.04756 0.0
C571 C 0.40248 0.95248 0.02387 0.0
C572 C 0.32338 0.88983 0.03934 0.0
C573 C 0.32088 0.87001 0.07508 0.0
N574 N 0.3775 0.93299 0.02966 0.0
N575 N 0.34541 0.89158 0.07012 0.0
H576 H 0.17135 0.46815 0.09608 0.0
H577 H 0.05134 0.43434 0.01131 0.0
H578 H 0.14744 0.40512 0.04781 0.0
H579 H 0.06884 0.49103 0.06234 0.0
H580 H 0.08699 0.42397 0.0243 0.0
H581 H 0.13456 0.47753 0.08377 0.0
C582 C 0.15835 0.45623 0.08292 0.0
C583 C 0.16262 0.43586 0.07296 0.0
C584 C 0.08297 0.4386 0.0327 0.0
C585 C 0.12054 0.44666 0.05869 0.0
C586 C 0.06256 0.44452 0.02529 0.0
C587 C 0.05704 0.46361 0.03573 0.0
C588 C 0.09815 0.45194 0.05066 0.0
C589 C 0.07232 0.47614 0.05378 0.0
C590 C 0.13739 0.46166 0.07587 0.0
C591 C 0.14531 0.42135 0.05584 0.0
N592 N 0.09224 0.47017 0.06063 0.0
N593 N 0.12508 0.42704 0.04927 0.0
H594 H 0.55513 0.69999 0.07821 0.0
H595 H 0.48198 0.59235 0.98879 0.0
H596 H 0.55008 0.7327 0.02433 0.0
H597 H 0.55447 0.59459 0.01801 0.0
H598 H 0.49706 0.63933 0.00533 0.0
H599 H 0.54625 0.65614 0.06025 0.0
C600 C 0.55253 0.69833 0.06269 0.0
C601 C 0.55317 0.72037 0.05291 0.0
C602 C 0.50951 0.62934 0.00809 0.0
C603 C 0.54174 0.66958 0.0325 0.0
C604 C 0.50096 0.60264 0.99874 0.0
C605 C 0.51667 0.58933 0.00241 0.0
C606 C 0.53344 0.64234 0.02153 0.0
C607 C 0.54128 0.60374 0.01527 0.0
C608 C 0.54725 0.67313 0.05251 0.0
C609 C 0.54891 0.71622 0.03268 0.0
N610 N 0.54869 0.62932 0.02469 0.0
N611 N 0.54287 0.69116 0.02318 0.0
H612 H 0.81896 0.30587 0.94294 0.0
H613 H 0.90034 0.4282 0.00746 0.0
H614 H 0.86119 0.2716 0.97624 0.0
H615 H 0.96283 0.40292 0.00388 0.0
H616 H 0.86455 0.3817 0.99127 0.0
H617 H 0.85012 0.35268 0.96073 0.0
C618 C 0.83454 0.3082 0.95422 0.0
C619 C 0.83738 0.28492 0.95835 0.0
C620 C 0.88613 0.38643 0.99395 0.0
C621 C 0.87321 0.33818 0.97847 0.0
C622 C 0.90648 0.41282 0.00329 0.0
C623 C 0.93453 0.41935 0.0069 0.0
C624 C 0.89388 0.36635 0.98849 0.0
C625 C 0.94142 0.39871 0.00123 0.0
C626 C 0.8522 0.3348 0.96438 0.0
C627 C 0.85812 0.289 0.97288 0.0
N628 N 0.92116 0.373 0.99244 0.0
N629 N 0.87556 0.31525 0.98224 0.0
H630 H 0.70767 0.59009 0.92619 0.0
H631 H 0.6036 0.53499 0.00599 0.0
H632 H 0.7069 0.52946 0.9634 0.0
H633 H 0.57235 0.54044 0.94942 0.0
H634 H 0.64748 0.54342 0.99348 0.0
H635 H 0.66252 0.5811 0.93678 0.0
C636 C 0.69809 0.57477 0.93642 0.0
C637 C 0.71156 0.56082 0.94405 0.0
C638 C 0.631 0.54284 0.98386 0.0
C639 C 0.6605 0.5514 0.95663 0.0
C640 C 0.6061 0.53823 0.99099 0.0
C641 C 0.58436 0.53696 0.97869 0.0
C642 C 0.63444 0.54693 0.96444 0.0
C643 C 0.58858 0.54109 0.95932 0.0
C644 C 0.67241 0.56985 0.94252 0.0
C645 C 0.69802 0.5415 0.95751 0.0
N646 N 0.6133 0.54615 0.95278 0.0
N647 N 0.67352 0.53768 0.96355 0.0
H648 H 0.42091 0.12642 0.94909 0.0
H649 H 0.5375 0.123 0.02141 0.0
H650 H 0.4873 0.20044 0.98356 0.0
H651 H 0.45957 0.04816 0.99853 0.0
H652 H 0.52263 0.15202 0.0044 0.0
H653 H 0.43838 0.09757 0.96351 0.0
C654 C 0.43932 0.13661 0.95954 0.0
C655 C 0.45258 0.16579 0.96526 0.0
C656 C 0.50885 0.12923 0.00304 0.0
C657 C 0.47258 0.13304 0.98183 0.0
C658 C 0.51732 0.1127 0.01274 0.0
C659 C 0.49979 0.08318 0.01127 0.0
C660 C 0.48272 0.11608 0.99173 0.0
C661 C 0.47386 0.07085 0.99985 0.0
C662 C 0.44916 0.12015 0.96786 0.0
C663 C 0.47625 0.17793 0.97896 0.0
N664 N 0.46611 0.08735 0.9905 0.0
N665 N 0.48547 0.16151 0.98679 0.0
H666 H 0.70156 0.15339 0.93984 0.0
H667 H 0.61556 0.08398 0.02887 0.0
H668 H 0.74097 0.16076 0.99647 0.0
H669 H 0.576 0.0735 0.97155 0.0
H670 H 0.66138 0.11467 0.01777 0.0
H671 H 0.65512 0.12709 0.95171 0.0
C672 C 0.7003 0.14975 0.95485 0.0
C673 C 0.72482 0.15922 0.9673 0.0
C674 C 0.64268 0.10573 0.00762 0.0
C675 C 0.67212 0.12894 0.98093 0.0
C676 C 0.61645 0.08813 0.01395 0.0
C677 C 0.5918 0.07597 1.00113 0.0
C678 C 0.64441 0.11128 0.98831 0.0
C679 C 0.59439 0.08229 0.98197 0.0
C680 C 0.67388 0.13466 0.96161 0.0
C681 C 0.72237 0.15384 0.98653 0.0
N682 N 0.6202 0.09943 0.97615 0.0
N683 N 0.69643 0.13893 0.99277 0.0
H684 H 0.87699 0.60152 0.98039 0.0
H685 H 0.93158 0.49162 0.96284 0.0
H686 H 0.83084 0.52432 0.94237 0.0
H687 H 0.96384 0.55775 0.00998 0.0
H688 H 0.90001 0.5081 0.95069 0.0
H689 H 0.91495 0.59094 0.98649 0.0
C690 C 0.87525 0.58264 0.97302 0.0
C691 C 0.85109 0.56375 0.96086 0.0
C692 C 0.91418 0.51908 0.96361 0.0
C693 C 0.89382 0.55114 0.968 0.0
C694 C 0.93221 0.50974 0.97054 0.0
C695 C 0.95013 0.52313 0.98758 0.0
C696 C 0.91434 0.54214 0.9737 0.0
C697 C 0.95014 0.54654 0.99693 0.0
C698 C 0.89674 0.57648 0.97659 0.0
C699 C 0.8494 0.53939 0.95178 0.0
N700 N 0.93247 0.55522 0.9899 0.0
N701 N 0.87046 0.53361 0.95564 0.0
H702 H 0.39984 0.28965 0.97087 0.0
H703 H 0.53239 0.443 0.00422 0.0
H704 H 0.48539 0.30697 0.97904 0.0
H705 H 0.44971 0.4298 0.98725 0.0
H706 H 0.51555 0.39338 0.9936 0.0
H707 H 0.41736 0.34094 0.9751 0.0
C708 C 0.42234 0.3044 0.97323 0.0
C709 C 0.44135 0.29449 0.97459 0.0
C710 C 0.50107 0.40129 0.99204 0.0
C711 C 0.46145 0.35263 0.97975 0.0
C712 C 0.51068 0.42961 0.99816 0.0
C713 C 0.49232 0.44035 0.99675 0.0
C714 C 0.47277 0.38343 0.98464 0.0
C715 C 0.46447 0.42221 0.98865 0.0
C716 C 0.43233 0.33356 0.97569 0.0
C717 C 0.4702 0.31406 0.97785 0.0
N718 N 0.45542 0.3945 0.98306 0.0
N719 N 0.4794 0.34224 0.98048 0.0
H720 H 0.20354 0.68951 0.03886 0.0
H721 H 0.03817 0.57528 0.02417 0.0
H722 H 0.13941 0.71193 0.0446 0.0
H723 H 0.10287 0.55776 0.00822 0.0
H724 H 0.07478 0.62389 0.03612 0.0
H725 H 0.16679 0.63949 0.03242 0.0
C726 C 0.18164 0.6837 0.03907 0.0
C727 C 0.17426 0.70451 0.0423 0.0
C728 C 0.08095 0.60936 0.03008 0.0
C729 C 0.13217 0.64768 0.03465 0.0
C730 C 0.0601 0.58165 0.02327 0.0
C731 C 0.06757 0.56263 0.01506 0.0
C732 C 0.10945 0.61798 0.02876 0.0
C733 C 0.09623 0.57186 0.01431 0.0
C734 C 0.16068 0.65525 0.03528 0.0
C735 C 0.14574 0.69624 0.04225 0.0
N736 N 0.11611 0.59889 0.02102 0.0
N737 N 0.12562 0.66838 0.03837 0.0
H738 H 0.27289 0.43067 0.02231 0.0
H739 H 0.43968 0.50287 0.04968 0.0
H740 H 0.31065 0.44591 0.08055 0.0
H741 H 0.39858 0.47455 0.9918 0.0
H742 H 0.39361 0.48673 0.0615 0.0
H743 H 0.31978 0.45158 0.01111 0.0
C744 C 0.29123 0.43872 0.03272 0.0
C745 C 0.28822 0.43674 0.0523 0.0
C746 C 0.39474 0.48415 0.04622 0.0
C747 C 0.3418 0.4604 0.03972 0.0
C748 C 0.42103 0.4934 0.03944 0.0
C749 C 0.42304 0.48995 0.01969 0.0
C750 C 0.3703 0.47153 0.03317 0.0
C751 C 0.39812 0.47751 0.00714 0.0
C752 C 0.31795 0.45054 0.02636 0.0
C753 C 0.31237 0.44723 0.06531 0.0
N754 N 0.37286 0.46876 0.01409 0.0
N755 N 0.33827 0.45861 0.05878 0.0
H756 H 0.57863 0.87703 0.05701 0.0
H757 H 0.4693 0.92292 0.02438 0.0
H758 H 0.49104 0.83002 0.06666 0.0
H759 H 0.55821 0.98401 0.03402 0.0
H760 H 0.4775 0.88943 0.04109 0.0
H761 H 0.57312 0.9178 0.05042 0.0
C762 C 0.5585 0.87572 0.05833 0.0
C763 C 0.53525 0.85047 0.06246 0.0
C764 C 0.49525 0.91024 0.03978 0.0
C765 C 0.52852 0.89619 0.05438 0.0
C766 C 0.49058 0.92928 0.03012 0.0
C767 C 0.51319 0.95602 0.02763 0.0
C768 C 0.52285 0.91773 0.04664 0.0
C769 C 0.54029 0.96343 0.03557 0.0
C770 C 0.5553 0.89885 0.05448 0.0
C771 C 0.50946 0.84935 0.06364 0.0
N772 N 0.54448 0.94415 0.04446 0.0
N773 N 0.50665 0.87175 0.05932 0.0
H774 H 0.9437 0.19711 0.36941 0.0
H775 H 0.11006 0.29508 0.39828 0.0
H776 H 0.98579 0.1959 0.423 0.0
H777 H 0.06824 0.28995 0.34281 0.0
H778 H 0.06449 0.26144 0.40856 0.0
H779 H 0.98882 0.23376 0.36046 0.0
C780 C 0.96245 0.20454 0.3793 0.0
C781 C 0.96095 0.19318 0.39692 0.0
C782 C 0.06528 0.26774 0.39416 0.0
C783 C 0.0128 0.23545 0.38681 0.0
C784 C 0.09132 0.28699 0.38826 0.0
C785 C 0.09306 0.29533 0.3696 0.0
C786 C 0.04074 0.25676 0.38134 0.0
C787 C 0.06799 0.2841 0.3573 0.0
C788 C 0.98822 0.22557 0.37421 0.0
C789 C 0.98589 0.20413 0.40933 0.0
N790 N 0.04293 0.26539 0.36338 0.0
N791 N 0.0108 0.22454 0.40399 0.0
H792 H 0.81141 0.73667 0.3783 0.0
H793 H 0.73508 0.8271 0.39522 0.0
H794 H 0.83483 0.79886 0.42703 0.0
H795 H 0.72047 0.77337 0.34314 0.0
H796 H 0.76968 0.81505 0.40805 0.0
H797 H 0.7765 0.74838 0.36596 0.0
C798 C 0.80945 0.75301 0.38634 0.0
C799 C 0.82632 0.76693 0.4037 0.0
C800 C 0.75887 0.80589 0.39383 0.0
C801 C 0.78577 0.78006 0.38977 0.0
C802 C 0.73903 0.81268 0.3865 0.0
C803 C 0.72484 0.80128 0.36803 0.0
C804 C 0.7645 0.78746 0.38265 0.0
C805 C 0.7309 0.78274 0.35742 0.0
C806 C 0.7893 0.75953 0.37933 0.0
C807 C 0.82218 0.7874 0.41368 0.0
N808 N 0.75025 0.77643 0.36488 0.0
N809 N 0.80234 0.79334 0.40658 0.0
H810 H 0.24702 0.04518 0.39781 0.0
H811 H 0.13416 0.91892 0.32107 0.0
H812 H 0.18027 0.04926 0.36524 0.0
H813 H 0.21285 0.92658 0.34307 0.0
H814 H 0.14842 0.96487 0.33882 0.0
H815 H 0.23219 0.99942 0.3799 0.0
C816 C 0.22912 0.03634 0.38696 0.0
C817 C 0.21483 0.05101 0.38301 0.0
C818 C 0.16255 0.95647 0.33974 0.0
C819 C 0.19784 0.99873 0.36236 0.0
C820 C 0.15442 0.9303 0.32962 0.0
C821 C 0.17227 0.91891 0.33077 0.0
C822 C 0.18861 0.97117 0.35113 0.0
C823 C 0.19834 0.93451 0.34197 0.0
C824 C 0.22079 0.01033 0.37664 0.0
C825 C 0.19201 0.03875 0.36861 0.0
N826 N 0.20565 0.95975 0.35181 0.0
N827 N 0.18415 0.01326 0.35885 0.0
H828 H 0.48045 0.63921 0.28205 0.0
H829 H 0.63375 0.74153 0.33455 0.0
H830 H 0.53287 0.60748 0.30441 0.0
H831 H 0.56756 0.76146 0.33889 0.0
H832 H 0.5987 0.69394 0.31965 0.0
H833 H 0.51341 0.68598 0.2995 0.0
C834 C 0.49872 0.64209 0.29088 0.0
C835 C 0.50394 0.61961 0.29208 0.0
C836 C 0.59186 0.70871 0.32394 0.0
C837 C 0.54196 0.67283 0.3114 0.0
C838 C 0.61182 0.73586 0.33234 0.0
C839 C 0.60344 0.75532 0.338 0.0
C840 C 0.56342 0.70121 0.32081 0.0
C841 C 0.5748 0.74696 0.33481 0.0
C842 C 0.51748 0.66866 0.30076 0.0
C843 C 0.52805 0.62432 0.3034 0.0
N844 N 0.5558 0.72057 0.32626 0.0
N845 N 0.54638 0.65052 0.31246 0.0
H846 H 0.36613 0.85671 0.29448 0.0
H847 H 0.2324 0.87263 0.27733 0.0
H848 H 0.36934 0.91988 0.25879 0.0
H849 H 0.26181 0.86465 0.33379 0.0
H850 H 0.27706 0.88093 0.26591 0.0
H851 H 0.32175 0.84971 0.30462 0.0
C852 C 0.35773 0.86928 0.2888 0.0
C853 C 0.37209 0.88943 0.276 0.0
C854 C 0.27363 0.87748 0.28079 0.0
C855 C 0.32044 0.88041 0.28706 0.0
C856 C 0.24825 0.87266 0.2873 0.0
C857 C 0.24354 0.86809 0.30656 0.0
C858 C 0.29392 0.8768 0.2935 0.0
C859 C 0.26471 0.86833 0.31889 0.0
C860 C 0.33225 0.86505 0.29454 0.0
C861 C 0.35917 0.90403 0.26857 0.0
N862 N 0.28886 0.87226 0.31209 0.0
N863 N 0.334 0.89918 0.27418 0.0
H864 H 0.15156 0.53322 0.31815 0.0
H865 H 0.12406 0.37723 0.32912 0.0
H866 H 0.08581 0.45917 0.28335 0.0
H867 H 0.19969 0.45324 0.35368 0.0
H868 H 0.10894 0.40642 0.31266 0.0
H869 H 0.16881 0.50397 0.33183 0.0
C870 C 0.14079 0.51075 0.31337 0.0
C871 C 0.11712 0.49854 0.29969 0.0
C872 C 0.12893 0.41671 0.32154 0.0
C873 C 0.13672 0.46486 0.31532 0.0
C874 C 0.13759 0.40007 0.33091 0.0
C875 C 0.16321 0.41288 0.3427 0.0
C876 C 0.14588 0.44639 0.32419 0.0
C877 C 0.17975 0.44254 0.34474 0.0
C878 C 0.15071 0.49409 0.32112 0.0
C879 C 0.10419 0.46942 0.29381 0.0
N880 N 0.17074 0.45829 0.33565 0.0
N881 N 0.114 0.45349 0.3018 0.0
H882 H 0.3659 0.48527 0.27177 0.0
H883 H 0.28022 0.41769 0.36125 0.0
H884 H 0.40516 0.49701 0.32915 0.0
H885 H 0.24059 0.40378 0.30351 0.0
H886 H 0.32575 0.44914 0.35011 0.0
H887 H 0.31942 0.45816 0.28347 0.0
C888 C 0.36458 0.48241 0.2869 0.0
C889 C 0.38907 0.49335 0.29962 0.0
C890 C 0.3071 0.43927 0.33987 0.0
C891 C 0.33637 0.46216 0.31306 0.0
C892 C 0.28103 0.42124 0.34622 0.0
C893 C 0.25645 0.40789 0.33329 0.0
C894 C 0.30875 0.44407 0.32042 0.0
C895 C 0.25893 0.41348 0.314 0.0
C896 C 0.33815 0.46686 0.29356 0.0
C897 C 0.38657 0.48895 0.319 0.0
N898 N 0.28461 0.43107 0.30815 0.0
N899 N 0.36064 0.47357 0.32515 0.0
H900 H 0.53633 0.93065 0.31419 0.0
H901 H 0.59897 0.82797 0.29485 0.0
H902 H 0.49398 0.85476 0.27471 0.0
H903 H 0.62729 0.89172 0.34321 0.0
H904 H 0.56593 0.84277 0.28289 0.0
H905 H 0.57583 0.92234 0.32019 0.0
C906 C 0.53574 0.91256 0.3065 0.0
C907 C 0.51221 0.89335 0.29395 0.0
C908 C 0.57957 0.85361 0.29603 0.0
C909 C 0.55672 0.88332 0.30094 0.0
C910 C 0.59845 0.84523 0.30285 0.0
C911 C 0.61567 0.85841 0.32018 0.0
C912 C 0.5782 0.87552 0.30653 0.0
C913 C 0.61416 0.8807 0.32992 0.0
C914 C 0.55812 0.90769 0.31 0.0
C915 C 0.51203 0.87004 0.28443 0.0
N916 N 0.59571 0.88846 0.323 0.0
N917 N 0.53393 0.86549 0.28823 0.0
H918 H 0.14543 0.63789 0.32862 0.0
H919 H 0.11862 0.76591 0.30914 0.0
H920 H 0.0708 0.62447 0.29509 0.0
H921 H 0.17696 0.76923 0.35451 0.0
H922 H 0.10454 0.71612 0.29967 0.0
H923 H 0.16167 0.68856 0.33374 0.0
C924 C 0.13268 0.64583 0.32216 0.0
C925 C 0.10688 0.62736 0.31147 0.0
C926 C 0.12052 0.72788 0.31162 0.0
C927 C 0.12495 0.68499 0.31738 0.0
C928 C 0.12865 0.75624 0.31692 0.0
C929 C 0.14906 0.7716 0.33252 0.0
C930 C 0.13322 0.71514 0.32192 0.0
C931 C 0.16109 0.75807 0.34242 0.0
C932 C 0.14182 0.67465 0.32515 0.0
C933 C 0.0909 0.63835 0.30341 0.0
N934 N 0.15306 0.73069 0.33692 0.0
N935 N 0.10016 0.6666 0.30659 0.0
H936 H 0.79702 0.05096 0.38141 0.0
H937 H 0.77055 0.89794 0.34387 0.0
H938 H 0.86352 0.03223 0.37471 0.0
H939 H 0.70339 0.91285 0.35763 0.0
H940 H 0.8049 0.94668 0.35666 0.0
H941 H 0.7622 1.00011 0.37467 0.0
C942 C 0.8042 0.03596 0.37888 0.0
C943 C 0.83294 0.04541 0.37867 0.0
C944 C 0.78267 0.93931 0.35702 0.0
C945 C 0.79362 0.98772 0.37058 0.0
C946 C 0.76307 0.91151 0.34966 0.0
C947 C 0.73416 0.90151 0.34958 0.0
C948 C 0.77329 0.95737 0.3642 0.0
C949 C 0.72555 0.91984 0.35738 0.0
C950 C 0.78442 0.00704 0.37496 0.0
C951 C 0.84142 0.02551 0.37508 0.0
N952 N 0.74504 0.947 0.36423 0.0
N953 N 0.82183 0.99759 0.37101 0.0
H954 H 0.97216 0.78173 0.41068 0.0
H955 H 0.05793 0.79605 0.31958 0.0
H956 H 0.93338 0.74876 0.3528 0.0
H957 H 0.09863 0.83555 0.37642 0.0
H958 H 0.01225 0.77876 0.33175 0.0
H959 H 0.01888 0.80214 0.39875 0.0
C960 C 0.97362 0.77904 0.39545 0.0
C961 C 0.94923 0.76376 0.38261 0.0
C962 C 0.03115 0.79127 0.34159 0.0
C963 C 0.00207 0.78655 0.3689 0.0
C964 C 0.05733 0.80113 0.33464 0.0
C965 C 0.08228 0.81729 0.34697 0.0
C966 C 0.02974 0.79742 0.36107 0.0
C967 C 0.08 0.8232 0.36635 0.0
C968 C 1.00016 0.79059 0.38864 0.0
C969 C 0.95189 0.76055 0.36307 0.0
N970 N 0.0542 0.8132 0.37281 0.0
N971 N 0.97785 0.77177 0.3568 0.0
H972 H 0.17971 0.16115 0.38624 0.0
H973 H 0.22646 0.32191 0.36986 0.0
H974 H 0.2664 0.22824 0.39089 0.0
H975 H 0.14322 0.25034 0.35322 0.0
H976 H 0.24027 0.29005 0.38407 0.0
H977 H 0.16479 0.19588 0.38109 0.0
C978 C 0.19554 0.18338 0.38666 0.0
C979 C 0.22421 0.1921 0.38906 0.0
C980 C 0.21892 0.2814 0.37746 0.0
C981 C 0.20754 0.23172 0.38273 0.0
C982 C 0.21104 0.29955 0.36939 0.0
C983 C 0.18379 0.28859 0.36016 0.0
C984 C 0.19928 0.25222 0.3764 0.0
C985 C 0.16456 0.25954 0.35999 0.0
C986 C 0.18708 0.20315 0.38357 0.0
C987 C 0.24405 0.22093 0.3892 0.0
N988 N 0.1727 0.24235 0.36789 0.0
N989 N 0.23536 0.23978 0.38589 0.0
H990 H 0.65417 0.52537 0.75752 0.0
H991 H 0.7348 0.61681 0.67334 0.0
H992 H 0.61256 0.5234 0.70279 0.0
H993 H 0.77583 0.62489 0.72972 0.0
H994 H 0.68981 0.58282 0.68406 0.0
H995 H 0.69878 0.56241 0.74795 0.0
C996 C 0.65433 0.5329 0.74357 0.0
C997 C 0.62953 0.52109 0.73092 0.0
C998 C 0.70863 0.59209 0.69412 0.0
C999 C 0.68068 0.56326 0.71974 0.0
C1000 C 0.73439 0.61152 0.68799 0.0
C1001 C 0.75922 0.62374 0.70061 0.0
C1002 C 0.70762 0.58465 0.71301 0.0
C1003 C 0.75727 0.61604 0.71946 0.0
C1004 C 0.67987 0.55394 0.73806 0.0
C1005 C 0.63118 0.53148 0.71291 0.0
N1006 N 0.73195 0.59692 0.72506 0.0
N1007 N 0.65628 0.55184 0.70785 0.0
H1008 H 0.46289 0.08263 0.76196 0.0
H1009 H 0.40287 0.1275 0.6731 0.0
H1010 H 0.51132 0.11988 0.71474 0.0
H1011 H 0.37677 0.12944 0.7297 0.0
H1012 H 0.43815 0.11676 0.68652 0.0
H1013 H 0.427 0.0927 0.74891 0.0
C1014 C 0.46622 0.09314 0.74897 0.0
C1015 C 0.49045 0.10049 0.73954 0.0
C1016 C 0.42465 0.11949 0.69598 0.0
C1017 C 0.44877 0.11117 0.72423 0.0
C1018 C 0.40437 0.12542 0.68832 0.0
C1019 C 0.38683 0.12937 0.70031 0.0
C1020 C 0.42712 0.11701 0.71569 0.0
C1021 C 0.38992 0.12665 0.71996 0.0
C1022 C 0.44555 0.09868 0.74148 0.0
C1023 C 0.49293 0.11335 0.72242 0.0
N1024 N 0.4096 0.12049 0.72704 0.0
N1025 N 0.47231 0.11812 0.71528 0.0
H1026 H 0.92182 0.3821 0.73279 0.0
H1027 H 0.80424 0.25477 0.65883 0.0
H1028 H 0.85544 0.38751 0.70082 0.0
H1029 H 0.88291 0.26121 0.67943 0.0
H1030 H 0.82033 0.3017 0.67581 0.0
H1031 H 0.90523 0.33556 0.71543 0.0
C1032 C 0.90364 0.37339 0.72218 0.0
C1033 C 0.88996 0.38865 0.71824 0.0
C1034 C 0.83404 0.29281 0.67657 0.0
C1035 C 0.87092 0.33548 0.69824 0.0
C1036 C 0.82488 0.26609 0.6669 0.0
C1037 C 0.84218 0.25407 0.6679 0.0
C1038 C 0.86059 0.3074 0.68738 0.0
C1039 C 0.86876 0.26959 0.67849 0.0
C1040 C 0.8943 0.34693 0.71218 0.0
C1041 C 0.86672 0.37653 0.70417 0.0
N1042 N 0.87708 0.29535 0.68791 0.0
N1043 N 0.85785 0.35058 0.69472 0.0
H1044 H 0.16835 0.97404 0.59449 0.0
H1045 H 0.24517 0.06771 0.69383 0.0
H1046 H 0.17125 0.93541 0.64591 0.0
H1047 H 0.27517 0.09531 0.63942 0.0
H1048 H 0.21024 0.02081 0.6774 0.0
H1049 H 0.19964 0.02066 0.61187 0.0
C1050 C 0.17546 0.97523 0.60942 0.0
C1051 C 0.16747 0.95048 0.61856 0.0
C1052 C 0.22456 0.03714 0.66911 0.0
C1053 C 0.20275 0.00412 0.63868 0.0
C1054 C 0.24438 0.0638 0.67842 0.0
C1055 C 0.26333 0.08502 0.66792 0.0
C1056 C 0.22325 0.03211 0.64911 0.0
C1057 C 0.26142 0.07918 0.64802 0.0
C1058 C 0.19326 0.00193 0.61933 0.0
C1059 C 0.17665 0.95372 0.6382 0.0
N1060 N 0.2416 0.0533 0.63921 0.0
N1061 N 0.19387 0.98004 0.64759 0.0
H1062 H 0.01677 0.21248 0.58224 0.0
H1063 H 0.93761 0.23153 0.66909 0.0
H1064 H 0.05783 0.25306 0.63873 0.0
H1065 H 0.89414 0.18381 0.61455 0.0
H1066 H 0.98238 0.24349 0.65697 0.0
H1067 H 0.9723 0.20609 0.59248 0.0
C1068 C 0.01648 0.22035 0.59672 0.0
C1069 C 0.04093 0.23306 0.60973 0.0
C1070 C 0.96307 0.23048 0.64761 0.0
C1071 C 0.99023 0.22565 0.62157 0.0
C1072 C 0.93744 0.22362 0.65454 0.0
C1073 C 0.91199 0.20648 0.64288 0.0
C1074 C 0.96338 0.22015 0.62887 0.0
C1075 C 0.9132 0.19699 0.62409 0.0
C1076 C 0.99109 0.21654 0.60259 0.0
C1077 C 0.03936 0.24271 0.62834 0.0
N1078 N 0.93846 0.20387 0.6177 0.0
N1079 N 0.01445 0.23869 0.63372 0.0
H1080 H 0.80092 0.82181 0.60603 0.0
H1081 H 0.82954 0.76555 0.70063 0.0
H1082 H 0.76039 0.82247 0.6568 0.0
H1083 H 0.8225 0.72246 0.64541 0.0
H1084 H 0.81136 0.79313 0.68508 0.0
H1085 H 0.81495 0.7903 0.6202 0.0
C1086 C 0.79463 0.81517 0.62001 0.0
C1087 C 0.77963 0.82523 0.63026 0.0
C1088 C 0.81363 0.77748 0.6764 0.0
C1089 C 0.79656 0.78997 0.64672 0.0
C1090 C 0.8241 0.76193 0.68522 0.0
C1091 C 0.82703 0.74153 0.67422 0.0
C1092 C 0.80688 0.77312 0.65641 0.0
C1093 C 0.81987 0.73758 0.65433 0.0
C1094 C 0.80285 0.79732 0.62811 0.0
C1095 C 0.77262 0.81609 0.64851 0.0
N1096 N 0.81035 0.75347 0.64596 0.0
N1097 N 0.78147 0.79933 0.65625 0.0
H1098 H 0.0715 0.83176 0.66033 0.0
H1099 H 0.90396 0.73777 0.63538 0.0
H1100 H 0.02862 0.82181 0.60452 0.0
H1101 H 0.94628 0.74991 0.69197 0.0
H1102 H 0.94908 0.77091 0.62439 0.0
H1103 H 0.02564 0.80496 0.67294 0.0
C1104 C 0.05233 0.8244 0.65088 0.0
C1105 C 0.05355 0.82908 0.63148 0.0
C1106 C 0.94851 0.76644 0.63923 0.0
C1107 C 0.00124 0.79791 0.64552 0.0
C1108 C 0.92271 0.74742 0.64554 0.0
C1109 C 0.92125 0.74083 0.66463 0.0
C1110 C 0.97319 0.77898 0.65208 0.0
C1111 C 0.94633 0.7542 0.67711 0.0
C1112 C 0.02619 0.80896 0.658 0.0
C1113 C 0.02834 0.81878 0.61964 0.0
N1114 N 0.97124 0.7725 0.67059 0.0
N1115 N 0.00317 0.80349 0.62681 0.0
H1116 H 0.1914 0.25316 0.65041 0.0
H1117 H 0.26433 0.16066 0.62825 0.0
H1118 H 0.1586 0.1849 0.60494 0.0
H1119 H 0.28312 0.21535 0.68057 0.0
H1120 H 0.2311 0.17507 0.61622 0.0
H1121 H 0.23126 0.24589 0.658 0.0
C1122 C 0.19304 0.23704 0.64178 0.0
C1123 C 0.17205 0.21964 0.62704 0.0
C1124 C 0.24265 0.18401 0.63028 0.0
C1125 C 0.21695 0.21074 0.63578 0.0
C1126 C 0.26163 0.17582 0.63716 0.0
C1127 C 0.27632 0.18659 0.65554 0.0
C1128 C 0.23855 0.20328 0.64179 0.0
C1129 C 0.27204 0.20625 0.66641 0.0
C1130 C 0.2156 0.23273 0.64618 0.0
C1131 C 0.17465 0.19879 0.61636 0.0
N1132 N 0.25351 0.21388 0.65939 0.0
N1133 N 0.19667 0.19474 0.62103 0.0
H1134 H 0.82761 0.97933 0.64061 0.0
H1135 H 0.7802 0.0959 0.65137 0.0
H1136 H 0.74072 0.95813 0.63542 0.0
H1137 H 0.86388 0.11201 0.66872 0.0
H1138 H 0.76622 0.04693 0.63987 0.0
H1139 H 0.84219 0.02976 0.64489 0.0
C1140 C 0.81167 0.98547 0.64001 0.0
C1141 C 0.78305 0.96493 0.63763 0.0
C1142 C 0.78768 0.06126 0.64608 0.0
C1143 C 0.79932 0.02218 0.64285 0.0
C1144 C 0.79565 0.08915 0.65261 0.0
C1145 C 0.82314 0.10782 0.66115 0.0
C1146 C 0.80743 0.05217 0.648 0.0
C1147 C 0.8424 0.09815 0.66239 0.0
C1148 C 0.81993 0.01415 0.64257 0.0
C1149 C 0.76304 0.97361 0.63714 0.0
N1150 N 0.83416 0.07097 0.65594 0.0
N1151 N 0.77155 0.00169 0.63987 0.0
H1152 H 0.46471 0.38135 0.71525 0.0
H1153 H 0.43345 0.22473 0.6851 0.0
H1154 H 0.52894 0.35829 0.71451 0.0
H1155 H 0.36746 0.24345 0.69459 0.0
H1156 H 0.46849 0.27313 0.69797 0.0
H1157 H 0.4284 0.33079 0.71001 0.0
C1158 C 0.47105 0.3655 0.71436 0.0
C1159 C 0.4996 0.37363 0.71534 0.0
C1160 C 0.44636 0.26668 0.69743 0.0
C1161 C 0.45862 0.31622 0.709 0.0
C1162 C 0.42636 0.23905 0.69004 0.0
C1163 C 0.3976 0.23025 0.68862 0.0
C1164 C 0.43759 0.28584 0.70322 0.0
C1165 C 0.3895 0.24952 0.69537 0.0
C1166 C 0.45042 0.33674 0.71131 0.0
C1167 C 0.50701 0.35263 0.71389 0.0
N1168 N 0.40943 0.27658 0.70217 0.0
N1169 N 0.48664 0.32487 0.71061 0.0
H1170 H 0.63877 0.11163 0.7485 0.0
H1171 H 0.72555 0.13563 0.65691 0.0
H1172 H 0.60134 0.08851 0.68982 0.0
H1173 H 0.76625 0.16638 0.71476 0.0
H1174 H 0.68003 0.11845 0.66916 0.0
H1175 H 0.68586 0.13215 0.73699 0.0
C1176 C 0.6406 0.11106 0.73321 0.0
C1177 C 0.61649 0.09852 0.71999 0.0
C1178 C 0.69887 0.12901 0.67922 0.0
C1179 C 0.66967 0.12154 0.70678 0.0
C1180 C 0.72497 0.13882 0.67222 0.0
C1181 C 0.74986 0.15243 0.68481 0.0
C1182 C 0.69742 0.13263 0.69903 0.0
C1183 C 0.74762 0.15602 0.70451 0.0
C1184 C 0.66734 0.1227 0.72665 0.0
C1185 C 0.61962 0.09809 0.70038 0.0
N1186 N 0.72184 0.14607 0.71103 0.0
N1187 N 0.64571 0.10935 0.69436 0.0
H1188 H 0.85547 0.49639 0.72044 0.0
H1189 H 0.89512 0.6549 0.70277 0.0
H1190 H 0.9409 0.56596 0.72413 0.0
H1191 H 0.8131 0.581 0.68707 0.0
H1192 H 0.911 0.62479 0.71729 0.0
H1193 H 0.83838 0.52943 0.71529 0.0
C1194 C 0.87056 0.51881 0.72063 0.0
C1195 C 0.8995 0.52871 0.72275 0.0
C1196 C 0.88945 0.61525 0.71083 0.0
C1197 C 0.88036 0.56642 0.71646 0.0
C1198 C 0.8804 0.6324 0.70259 0.0
C1199 C 0.85291 0.62027 0.69351 0.0
C1200 C 0.87076 0.58589 0.71008 0.0
C1201 C 0.8346 0.59109 0.69372 0.0
C1202 C 0.86087 0.53761 0.71755 0.0
C1203 C 0.91837 0.55774 0.72264 0.0
N1204 N 0.84389 0.57486 0.70176 0.0
N1205 N 0.90848 0.57565 0.71934 0.0
H1206 H 0.40709 0.8917 0.21265 0.0
H1207 H 0.5382 0.00143 0.16041 0.0
H1208 H 0.4894 0.95042 0.24198 0.0
H1209 H 0.45335 0.95314 0.13227 0.0
H1210 H 0.52122 0.97967 0.18974 0.0
H1211 H 0.42416 0.91082 0.18245 0.0
C1212 C 0.42873 0.90861 0.21278 0.0
C1213 C 0.4468 0.91945 0.22996 0.0
C1214 C 0.50629 0.97378 0.17715 0.0
C1215 C 0.46654 0.9412 0.19536 0.0
C1216 C 0.51595 0.98633 0.1604 0.0
C1217 C 0.49715 0.97936 0.14384 0.0
C1218 C 0.47757 0.95397 0.17746 0.0
C1219 C 0.46866 0.95905 0.14462 0.0
C1220 C 0.43848 0.91942 0.1955 0.0
C1221 C 0.47477 0.94105 0.22912 0.0
N1222 N 0.45972 0.94715 0.16117 0.0
N1223 N 0.48372 0.9512 0.21215 0.0
H1224 H 0.04329 0.5347 0.24934 0.0
H1225 H 0.06993 0.50943 0.14093 0.0
H1226 H 0.11362 0.52549 0.23471 0.0
H1227 H 0.00977 0.53384 0.15674 0.0
H1228 H 0.0849 0.51266 0.17502 0.0
H1229 H 0.02929 0.53177 0.2153 0.0
C1230 C 0.05597 0.5323 0.23899 0.0
C1231 C 0.07983 0.53055 0.24499 0.0
C1232 C 0.06841 0.51728 0.17099 0.0
C1233 C 0.0635 0.52663 0.20578 0.0
C1234 C 0.05992 0.51557 0.15152 0.0
C1235 C 0.03844 0.52126 0.14588 0.0
C1236 C 0.05528 0.52466 0.18494 0.0
C1237 C 0.02602 0.52873 0.16032 0.0
C1238 C 0.04783 0.53045 0.21951 0.0
C1239 C 0.09493 0.52669 0.2308 0.0
N1240 N 0.03458 0.53017 0.17912 0.0
N1241 N 0.08652 0.52486 0.21187 0.0
H1242 H 0.52569 0.59467 0.23312 0.0
H1243 H 0.46174 0.52637 0.12502 0.0
H1244 H 0.4377 0.53336 0.21742 0.0
H1245 H 0.55072 0.57869 0.14337 0.0
H1246 H 0.4518 0.5302 0.15828 0.0
H1247 H 0.53444 0.59135 0.19969 0.0
C1248 C 0.50812 0.58072 0.22259 0.0
C1249 C 0.48088 0.56437 0.22807 0.0
C1250 C 0.47348 0.54086 0.15498 0.0
C1251 C 0.49085 0.56011 0.18969 0.0
C1252 C 0.47919 0.53856 0.13601 0.0
C1253 C 0.50712 0.55234 0.13131 0.0
C1254 C 0.49585 0.55707 0.16936 0.0
C1255 C 0.52883 0.56814 0.14618 0.0
C1256 C 0.51318 0.57865 0.2035 0.0
C1257 C 0.45906 0.5462 0.21383 0.0
N1258 N 0.52273 0.57008 0.16446 0.0
N1259 N 0.46451 0.54458 0.19528 0.0
H1260 H 0.90632 0.47681 0.78762 0.0
H1261 H 0.9955 0.44713 0.8681 0.0
H1262 H 0.95119 0.4324 0.77638 0.0
H1263 H 0.93964 0.47804 0.88217 0.0
H1264 H 0.98313 0.44676 0.83417 0.0
H1265 H 0.92197 0.48264 0.82204 0.0
C1266 C 0.91958 0.46846 0.79239 0.0
C1267 C 0.92721 0.45381 0.77918 0.0
C1268 C 0.97354 0.45366 0.84463 0.0
C1269 C 0.94519 0.46044 0.81832 0.0
C1270 C 0.9805 0.45374 0.86405 0.0
C1271 C 0.96827 0.4622 0.87805 0.0
C1272 C 0.95419 0.46217 0.83899 0.0
C1273 C 0.9496 0.47136 0.87188 0.0
C1274 C 0.92839 0.47168 0.81199 0.0
C1275 C 0.94438 0.44337 0.78609 0.0
N1276 N 0.94298 0.47094 0.85278 0.0
N1277 N 0.95272 0.44686 0.80513 0.0
H1278 H 0.54363 0.43122 0.78219 0.0
H1279 H 0.53428 0.5275 0.86887 0.0
H1280 H 0.57369 0.5207 0.78166 0.0
H1281 H 0.49819 0.43688 0.86763 0.0
H1282 H 0.55118 0.5258 0.83768 0.0
H1283 H 0.52852 0.43312 0.81403 0.0
C1284 C 0.54698 0.45125 0.78872 0.0
C1285 C 0.55998 0.47584 0.77918 0.0
C1286 C 0.53959 0.50628 0.84423 0.0
C1287 C 0.54297 0.47822 0.81578 0.0
C1288 C 0.53009 0.50726 0.86211 0.0
C1289 C 0.51472 0.48228 0.87089 0.0
C1290 C 0.53378 0.48013 0.83502 0.0
C1291 C 0.5096 0.45661 0.86129 0.0
C1292 C 0.53847 0.45235 0.80696 0.0
C1293 C 0.56415 0.50128 0.78854 0.0
N1294 N 0.5191 0.4562 0.8439 0.0
N1295 N 0.55566 0.50179 0.80627 0.0
H1296 H 0.54594 0.04877 0.79158 0.0
H1297 H 0.51232 0.08789 0.89397 0.0
H1298 H 0.53923 0.1231 0.80514 0.0
H1299 H 0.53435 0.02325 0.88311 0.0
H1300 H 0.5241 0.10246 0.86192 0.0
H1301 H 0.54468 0.04089 0.82543 0.0
C1302 C 0.54476 0.06379 0.80169 0.0
C1303 C 0.54245 0.08654 0.79537 0.0
C1304 C 0.52664 0.08528 0.86661 0.0
C1305 C 0.54024 0.07712 0.83424 0.0
C1306 C 0.51978 0.07686 0.88486 0.0
C1307 C 0.52217 0.05419 0.89117 0.0
C1308 C 0.53567 0.07072 0.85444 0.0
C1309 C 0.53233 0.04093 0.87888 0.0
C1310 C 0.54381 0.05912 0.82105 0.0
C1311 C 0.54047 0.10494 0.80923 0.0
N1312 N 0.53841 0.04918 0.86104 0.0
N1313 N 0.53909 0.09965 0.82794 0.0
H1314 H 0.15788 0.28125 0.57549 0.0
H1315 H 0.11896 0.28888 0.46493 0.0
H1316 H 0.07348 0.23344 0.5466 0.0
H1317 H 0.20381 0.33382 0.49322 0.0
H1318 H 0.10209 0.26716 0.49439 0.0
H1319 H 0.1753 0.29949 0.54522 0.0
C1320 C 0.14303 0.27436 0.56275 0.0
C1321 C 0.11413 0.25583 0.56364 0.0
C1322 C 0.12441 0.28171 0.49414 0.0
C1323 C 0.13392 0.27698 0.52892 0.0
C1324 C 0.13409 0.29401 0.47727 0.0
C1325 C 0.16286 0.31334 0.47657 0.0
C1326 C 0.1436 0.28875 0.5105 0.0
C1327 C 0.1814 0.31943 0.49315 0.0
C1328 C 0.15298 0.28493 0.54548 0.0
C1329 C 0.09586 0.24801 0.54668 0.0
N1330 N 0.17145 0.30726 0.50942 0.0
N1331 N 0.10604 0.25868 0.53006 0.0
H1332 H 0.77895 0.91094 0.57357 0.0
H1333 H 0.68989 0.81354 0.47667 0.0
H1334 H 0.7268 0.81983 0.57005 0.0
H1335 H 0.73675 0.90502 0.48147 0.0
H1336 H 0.70595 0.81517 0.51025 0.0
H1337 H 0.76588 0.90899 0.53938 0.0
C1338 C 0.76468 0.89052 0.56563 0.0
C1339 C 0.75391 0.86552 0.57476 0.0
C1340 C 0.71279 0.83489 0.50394 0.0
C1341 C 0.73907 0.8631 0.53548 0.0
C1342 C 0.70378 0.83396 0.48472 0.0
C1343 C 0.71187 0.85918 0.47624 0.0
C1344 C 0.73009 0.86123 0.51478 0.0
C1345 C 0.72963 0.88505 0.48748 0.0
C1346 C 0.75734 0.88941 0.54607 0.0
C1347 C 0.7359 0.83963 0.56362 0.0
N1348 N 0.73808 0.8854 0.50615 0.0
N1349 N 0.729 0.8391 0.5446 0.0
H1350 H 0.19685 0.91759 0.56367 0.0
H1351 H 0.13338 0.85603 0.45459 0.0
H1352 H 0.10848 0.85959 0.54645 0.0
H1353 H 0.22247 0.9075 0.4728 0.0
H1354 H 0.12382 0.8563 0.48813 0.0
H1355 H 0.20662 0.9139 0.53044 0.0
C1356 C 0.17949 0.90412 0.55288 0.0
C1357 C 0.15178 0.88901 0.55783 0.0
C1358 C 0.14547 0.86744 0.48479 0.0
C1359 C 0.16282 0.88452 0.51972 0.0
C1360 C 0.15097 0.86716 0.46563 0.0
C1361 C 0.1788 0.88187 0.46079 0.0
C1362 C 0.16792 0.88262 0.49928 0.0
C1363 C 0.20067 0.89627 0.47576 0.0
C1364 C 0.18509 0.90189 0.53392 0.0
C1365 C 0.13018 0.87148 0.5433 0.0
N1366 N 0.19475 0.89636 0.49429 0.0
N1367 N 0.13613 0.86984 0.5249 0.0
H1368 H 0.62356 0.78455 0.10644 0.0
H1369 H 0.60789 0.82116 0.21569 0.0
H1370 H 0.5571 0.79881 0.12327 0.0
H1371 H 0.6645 0.79255 0.19875 0.0
H1372 H 0.59259 0.81868 0.1818 0.0
H1373 H 0.64279 0.79367 0.14006 0.0
C1374 C 0.61306 0.78972 0.11719 0.0
C1375 C 0.58847 0.7906 0.11199 0.0
C1376 C 0.60847 0.8131 0.18553 0.0
C1377 C 0.61052 0.80125 0.1506 0.0
C1378 C 0.61711 0.81435 0.20489 0.0
C1379 C 0.63749 0.80696 0.21019 0.0
C1380 C 0.6203 0.80448 0.17129 0.0
C1381 C 0.64904 0.79883 0.19546 0.0
C1382 C 0.6241 0.79499 0.1364 0.0
C1383 C 0.57618 0.79804 0.12655 0.0
N1384 N 0.64023 0.79773 0.17675 0.0
N1385 N 0.5872 0.80286 0.14519 0.0
H1386 H 0.18086 0.78253 0.0967 0.0
H1387 H 0.21935 0.83739 0.20857 0.0
H1388 H 0.26613 0.82678 0.12433 0.0
H1389 H 0.13458 0.77976 0.18256 0.0
H1390 H 0.23702 0.83482 0.17782 0.0
H1391 H 0.1636 0.78236 0.12793 0.0
C1392 C 0.19599 0.79198 0.10933 0.0
C1393 C 0.22505 0.80469 0.10778 0.0
C1394 C 0.21456 0.82267 0.17887 0.0
C1395 C 0.20534 0.80502 0.1437 0.0
C1396 C 0.20444 0.824 0.19648 0.0
C1397 C 0.17536 0.80886 0.19823 0.0
C1398 C 0.1955 0.80619 0.16282 0.0
C1399 C 0.1571 0.79224 0.18189 0.0
C1400 C 0.18609 0.79202 0.12718 0.0
C1401 C 0.24358 0.8171 0.12472 0.0
N1402 N 0.16745 0.79145 0.1649 0.0
N1403 N 0.23343 0.81703 0.14192 0.0
H1404 H 0.2099 0.37528 0.1224 0.0
H1405 H 0.18733 0.41554 0.22884 0.0
H1406 H 0.20721 0.45101 0.13931 0.0
H1407 H 0.18655 0.33831 0.21082 0.0
H1408 H 0.19973 0.43147 0.19716 0.0
H1409 H 0.20677 0.36421 0.15565 0.0
C1410 C 0.20914 0.38987 0.13315 0.0
C1411 C 0.20871 0.41408 0.12799 0.0
C1412 C 0.19702 0.41112 0.20017 0.0
C1413 C 0.20453 0.40118 0.16615 0.0
C1414 C 0.1901 0.40208 0.21831 0.0
C1415 C 0.18565 0.37543 0.22246 0.0
C1416 C 0.19957 0.39342 0.18607 0.0
C1417 C 0.18927 0.35878 0.20815 0.0
C1418 C 0.2071 0.38338 0.15214 0.0
C1419 C 0.2072 0.4319 0.14257 0.0
N1420 N 0.19587 0.36798 0.1906 0.0
N1421 N 0.20499 0.425 0.16094 0.0
H1422 H 0.74441 0.56059 0.88002 0.0
H1423 H 0.87276 0.66962 0.82529 0.0
H1424 H 0.82725 0.62069 0.90798 0.0
H1425 H 0.78753 0.61885 0.79813 0.0
H1426 H 0.85698 0.64876 0.85508 0.0
H1427 H 0.76031 0.57865 0.84934 0.0
C1428 C 0.76591 0.57757 0.87974 0.0
C1429 C 0.78448 0.58912 0.89669 0.0
C1430 C 0.8417 0.64212 0.84262 0.0
C1431 C 0.80289 0.60968 0.86153 0.0
C1432 C 0.85067 0.65415 0.82559 0.0
C1433 C 0.83141 0.64623 0.80917 0.0
C1434 C 0.8132 0.62188 0.84334 0.0
C1435 C 0.80318 0.6255 0.81037 0.0
C1436 C 0.775 0.58778 0.86219 0.0
C1437 C 0.81225 0.61079 0.89533 0.0
N1438 N 0.79491 0.61414 0.82717 0.0
N1439 N 0.82055 0.62036 0.87811 0.0
H1440 H 0.44884 0.19288 0.89996 0.0
H1441 H 0.33252 0.18903 0.82339 0.0
H1442 H 0.37701 0.19902 0.91495 0.0
H1443 H 0.40344 0.1822 0.80706 0.0
H1444 H 0.3487 0.19232 0.85702 0.0
H1445 H 0.43264 0.18825 0.86593 0.0
C1446 C 0.42962 0.19315 0.89611 0.0
C1447 C 0.41434 0.19647 0.91037 0.0
C1448 C 0.36078 0.1901 0.84612 0.0
C1449 C 0.39578 0.19137 0.87146 0.0
C1450 C 0.35163 0.18838 0.82688 0.0
C1451 C 0.36678 0.18559 0.81233 0.0
C1452 C 0.38534 0.18902 0.85101 0.0
C1453 C 0.39102 0.18419 0.81777 0.0
C1454 C 0.42046 0.19063 0.87668 0.0
C1455 C 0.38976 0.197 0.90451 0.0
N1456 N 0.39962 0.18603 0.83668 0.0
N1457 N 0.38129 0.19448 0.88555 0.0
H1458 H 0.85999 0.2595 0.89915 0.0
H1459 H 0.79334 0.19024 0.79156 0.0
H1460 H 0.77216 0.19679 0.88454 0.0
H1461 H 0.88248 0.24469 0.80845 0.0
H1462 H 0.78452 0.19343 0.82515 0.0
H1463 H 0.86788 0.25612 0.8655 0.0
C1464 C 0.84228 0.2452 0.88882 0.0
C1465 C 0.81533 0.22849 0.89467 0.0
C1466 C 0.806 0.20467 0.82147 0.0
C1467 C 0.82431 0.22421 0.85605 0.0
C1468 C 0.81107 0.20274 0.80231 0.0
C1469 C 0.8387 0.21733 0.79709 0.0
C1470 C 0.8287 0.22135 0.83554 0.0
C1471 C 0.86079 0.2335 0.81167 0.0
C1472 C 0.84685 0.24311 0.86961 0.0
C1473 C 0.79332 0.20991 0.88068 0.0
N1474 N 0.8553 0.23509 0.83016 0.0
N1475 N 0.79828 0.2083 0.86201 0.0
H1476 H 0.27402 0.09344 0.44149 0.0
H1477 H 0.26474 0.14605 0.5483 0.0
H1478 H 0.22892 0.13747 0.45327 0.0
H1479 H 0.31683 0.11071 0.53372 0.0
H1480 H 0.2505 0.14285 0.514 0.0
H1481 H 0.28883 0.09908 0.4756 0.0
C1482 C 0.26712 0.10423 0.45131 0.0
C1483 C 0.24993 0.11472 0.44454 0.0
C1484 C 0.26503 0.1358 0.51837 0.0
C1485 C 0.26709 0.12151 0.48383 0.0
C1486 C 0.27324 0.13769 0.53794 0.0
C1487 C 0.29185 0.1284 0.54399 0.0
C1488 C 0.27551 0.12455 0.50476 0.0
C1489 C 0.30197 0.11755 0.52986 0.0
C1490 C 0.27573 0.10758 0.47082 0.0
C1491 C 0.24219 0.12908 0.4579 0.0
N1492 N 0.29365 0.1159 0.511 0.0
N1493 N 0.25068 0.13191 0.47697 0.0
H1494 H 0.90537 0.19155 0.44761 0.0
H1495 H 0.82513 0.10148 0.53239 0.0
H1496 H 0.8735 0.10161 0.44708 0.0
H1497 H 0.86359 0.19245 0.53455 0.0
H1498 H 0.84223 0.10085 0.50109 0.0
H1499 H 0.8901 0.19208 0.47944 0.0
C1500 C 0.89539 0.17192 0.45424 0.0
C1501 C 0.89088 0.1465 0.44461 0.0
C1502 C 0.84701 0.12096 0.50844 0.0
C1503 C 0.87282 0.14691 0.4811 0.0
C1504 C 0.83713 0.12132 0.52627 0.0
C1505 C 0.84285 0.14706 0.53612 0.0
C1506 C 0.86263 0.14649 0.50029 0.0
C1507 C 0.85889 0.17215 0.5276 0.0
C1508 C 0.88651 0.17222 0.47241 0.0
C1509 C 0.8772 0.12165 0.45383 0.0
N1510 N 0.8681 0.17121 0.51017 0.0
N1511 N 0.86865 0.12247 0.47154 0.0
H1512 H 0.87049 0.70355 0.45321 0.0
H1513 H 0.84733 0.74199 0.5599 0.0
H1514 H 0.86819 0.77938 0.47055 0.0
H1515 H 0.85003 0.66672 0.54163 0.0
H1516 H 0.85886 0.75825 0.52815 0.0
H1517 H 0.86718 0.6921 0.48631 0.0
C1518 C 0.86976 0.71808 0.46402 0.0
C1519 C 0.86959 0.74249 0.45901 0.0
C1520 C 0.85708 0.73825 0.53113 0.0
C1521 C 0.86512 0.72908 0.49707 0.0
C1522 C 0.85064 0.72903 0.54929 0.0
C1523 C 0.84742 0.70281 0.55339 0.0
C1524 C 0.86039 0.72116 0.51697 0.0
C1525 C 0.85174 0.6868 0.53901 0.0
C1526 C 0.86761 0.71137 0.48294 0.0
C1527 C 0.868 0.76014 0.47368 0.0
N1528 N 0.85785 0.69616 0.52147 0.0
N1529 N 0.86567 0.75301 0.492 0.0
loop_
_geom_bond_atom_site_label_1
_geom_bond_atom_site_label_2
_geom_bond_distance
_geom_bond_site_symmetry_2
_ccdc_geom_bond_type
H0 C3 0.929 . S
H1 C6 0.929 . S
H2 C8 0.930 . S
C3 H0 0.929 . S
C3 C4 1.398 . S
C3 C5 1.396 . S
C4 C3 1.398 . S
C4 C8 1.407 . S
C5 C3 1.396 . S
C5 C6 1.394 . S
C6 H1 0.929 . S
C6 C5 1.394 . S
C6 C7 1.382 . S
C7 C6 1.382 . S
C7 C8 1.392 . S
C7 N9 1.420 . S
C8 H2 0.930 . S
C8 C4 1.407 . S
C8 C7 1.392 . S
N9 C7 1.420 . S
N9 C10 1.244 . S
C10 N9 1.244 . S
H11 C14 0.929 . S
H12 C17 0.929 . S
H13 C19 0.930 . S
C14 H11 0.929 . S
C14 C15 1.398 . S
C14 C16 1.396 . S
C15 C14 1.398 . S
C15 C19 1.407 . S
C16 C14 1.396 . S
C16 C17 1.394 . S
C17 H12 0.929 . S
C17 C16 1.394 . S
C17 C18 1.382 . S
C18 C17 1.382 . S
C18 C19 1.392 . S
C18 N20 1.420 . S
C19 H13 0.930 . S
C19 C15 1.407 . S
C19 C18 1.392 . S
N20 C18 1.420 . S
N20 C21 1.244 . S
C21 N20 1.244 . S
H22 C25 0.929 . S
H23 C28 0.929 . S
H24 C30 0.930 . S
C25 H22 0.929 . S
C25 C26 1.398 . S
C25 C27 1.396 . S
C26 C25 1.398 . S
C26 C30 1.407 . S
C27 C25 1.396 . S
C27 C28 1.394 . S
C28 H23 0.929 . S
C28 C27 1.394 . S
C28 C29 1.382 . S
C29 C28 1.382 . S
C29 C30 1.392 . S
C29 N31 1.420 . S
C30 H24 0.930 . S
C30 C26 1.407 . S
C30 C29 1.392 . S
N31 C29 1.420 . S
N31 C32 1.244 . S
C32 N31 1.244 . S
H33 C36 0.929 . S
H34 C39 0.929 . S
H35 C41 0.930 . S
C36 H33 0.929 . S
C36 C37 1.398 . S
C36 C38 1.396 . S
C37 C36 1.398 . S
C37 C41 1.407 . S
C38 C36 1.396 . S
C38 C39 1.394 . S
C39 H34 0.929 . S
C39 C38 1.394 . S
C39 C40 1.382 . S
C40 C39 1.382 . S
C40 C41 1.392 . S
C40 N42 1.420 . S
C41 H35 0.930 . S
C41 C37 1.407 . S
C41 C40 1.392 . S
N42 C40 1.420 . S
N42 C43 1.244 . S
C43 N42 1.244 . S
H44 C47 0.929 . S
H45 C50 0.929 . S
H46 C52 0.930 . S
C47 H44 0.929 . S
C47 C48 1.398 . S
C47 C49 1.396 . S
C48 C47 1.398 . S
C48 C52 1.407 . S
C49 C47 1.396 . S
C49 C50 1.394 . S
C50 H45 0.929 . S
C50 C49 1.394 . S
C50 C51 1.382 . S
C51 C50 1.382 . S
C51 C52 1.392 . S
C51 N53 1.420 . S
C52 H46 0.930 . S
C52 C48 1.407 . S
C52 C51 1.392 . S
N53 C51 1.420 . S
N53 C54 1.244 . S
C54 N53 1.244 . S
H55 C58 0.929 . S
H56 C61 0.929 . S
H57 C63 0.930 . S
C58 H55 0.929 . S
C58 C59 1.398 . S
C58 C60 1.396 . S
C59 C58 1.398 . S
C59 C63 1.407 . S
C60 C58 1.396 . S
C60 C61 1.394 . S
C61 H56 0.929 . S
C61 C60 1.394 . S
C61 C62 1.382 . S
C62 C61 1.382 . S
C62 C63 1.392 . S
C62 N64 1.420 . S
C63 H57 0.930 . S
C63 C59 1.407 . S
C63 C62 1.392 . S
N64 C62 1.420 . S
N64 C65 1.244 . S
C65 N64 1.244 . S
H66 C69 0.929 . S
H67 C72 0.929 . S
H68 C74 0.930 . S
C69 H66 0.929 . S
C69 C70 1.398 . S
C69 C71 1.396 . S
C70 C69 1.398 . S
C70 C74 1.407 . S
C71 C69 1.396 . S
C71 C72 1.394 . S
C72 H67 0.929 . S
C72 C71 1.394 . S
C72 C73 1.382 . S
C73 C72 1.382 . S
C73 C74 1.392 . S
C73 N75 1.420 . S
C74 H68 0.930 . S
C74 C70 1.407 . S
C74 C73 1.392 . S
N75 C73 1.420 . S
N75 C76 1.244 . S
C76 N75 1.244 . S
H77 C80 0.929 . S
H78 C83 0.929 . S
H79 C85 0.930 . S
C80 H77 0.929 . S
C80 C81 1.398 . S
C80 C82 1.396 . S
C81 C80 1.398 . S
C81 C85 1.407 . S
C82 C80 1.396 . S
C82 C83 1.394 . S
C83 H78 0.929 . S
C83 C82 1.394 . S
C83 C84 1.382 . S
C84 C83 1.382 . S
C84 C85 1.392 . S
C84 N86 1.420 . S
C85 H79 0.930 . S
C85 C81 1.407 . S
C85 C84 1.392 . S
N86 C84 1.420 . S
N86 C87 1.244 . S
C87 N86 1.244 . S
H88 C91 0.929 . S
H89 C94 0.929 . S
H90 C96 0.930 . S
C91 H88 0.929 . S
C91 C92 1.398 . S
C91 C93 1.396 . S
C92 C91 1.398 . S
C92 C96 1.407 . S
C93 C91 1.396 . S
C93 C94 1.394 . S
C94 H89 0.929 . S
C94 C93 1.394 . S
C94 C95 1.382 . S
C95 C94 1.382 . S
C95 C96 1.392 . S
C95 N97 1.420 . S
C96 H90 0.930 . S
C96 C92 1.407 . S
C96 C95 1.392 . S
N97 C95 1.420 . S
N97 C98 1.244 . S
C98 N97 1.244 . S
H99 C102 0.929 . S
H100 C105 0.929 . S
H101 C107 0.930 . S
C102 H99 0.929 . S
C102 C103 1.398 . S
C102 C104 1.396 . S
C103 C102 1.398 . S
C103 C107 1.407 . S
C104 C102 1.396 . S
C104 C105 1.394 . S
C105 H100 0.929 . S
C105 C104 1.394 . S
C105 C106 1.382 . S
C106 C105 1.382 . S
C106 C107 1.392 . S
C106 N108 1.420 . S
C107 H101 0.930 . S
C107 C103 1.407 . S
C107 C106 1.392 . S
N108 C106 1.420 . S
N108 C109 1.244 . S
C109 N108 1.244 . S
H110 C113 0.929 . S
H111 C116 0.929 . S
H112 C118 0.930 . S
C113 H110 0.929 . S
C113 C114 1.398 . S
C113 C115 1.396 . S
C114 C113 1.398 . S
C114 C118 1.407 . S
C115 C113 1.396 . S
C115 C116 1.394 . S
C116 H111 0.929 . S
C116 C115 1.394 . S
C116 C117 1.382 . S
C117 C116 1.382 . S
C117 C118 1.392 . S
C117 N119 1.420 . S
C118 H112 0.930 . S
C118 C114 1.407 . S
C118 C117 1.392 . S
N119 C117 1.420 . S
N119 C120 1.244 . S
C120 N119 1.244 . S
H121 C124 0.929 . S
H122 C127 0.929 . S
H123 C129 0.930 . S
C124 H121 0.929 . S
C124 C125 1.398 . S
C124 C126 1.396 . S
C125 C124 1.398 . S
C125 C129 1.407 . S
C126 C124 1.396 . S
C126 C127 1.394 . S
C127 H122 0.929 . S
C127 C126 1.394 . S
C127 C128 1.382 . S
C128 C127 1.382 . S
C128 C129 1.392 . S
C128 N130 1.420 . S
C129 H123 0.930 . S
C129 C125 1.407 . S
C129 C128 1.392 . S
N130 C128 1.420 . S
N130 C131 1.244 . S
C131 N130 1.244 . S
H132 C135 0.929 . S
H133 C138 0.929 . S
H134 C140 0.930 . S
C135 H132 0.929 . S
C135 C136 1.398 . S
C135 C137 1.396 . S
C136 C135 1.398 . S
C136 C140 1.407 . S
C137 C135 1.396 . S
C137 C138 1.394 . S
C138 H133 0.929 . S
C138 C137 1.394 . S
C138 C139 1.382 . S
C139 C138 1.382 . S
C139 C140 1.392 . S
C139 N141 1.420 . S
C140 H134 0.930 . S
C140 C136 1.407 . S
C140 C139 1.392 . S
N141 C139 1.420 . S
N141 C142 1.244 . S
C142 N141 1.244 . S
H143 C146 0.929 . S
H144 C149 0.929 . S
H145 C151 0.930 . S
C146 H143 0.929 . S
C146 C147 1.398 . S
C146 C148 1.396 . S
C147 C146 1.398 . S
C147 C151 1.407 . S
C148 C146 1.396 . S
C148 C149 1.394 . S
C149 H144 0.929 . S
C149 C148 1.394 . S
C149 C150 1.382 . S
C150 C149 1.382 . S
C150 C151 1.392 . S
C150 N152 1.420 . S
C151 H145 0.930 . S
C151 C147 1.407 . S
C151 C150 1.392 . S
N152 C150 1.420 . S
N152 C153 1.244 . S
C153 N152 1.244 . S
H154 C157 0.929 . S
H155 C160 0.929 . S
H156 C162 0.930 . S
C157 H154 0.929 . S
C157 C158 1.398 . S
C157 C159 1.396 . S
C158 C157 1.398 . S
C158 C162 1.407 . S
C159 C157 1.396 . S
C159 C160 1.394 . S
C160 H155 0.929 . S
C160 C159 1.394 . S
C160 C161 1.382 . S
C161 C160 1.382 . S
C161 C162 1.392 . S
C161 N163 1.420 . S
C162 H156 0.930 . S
C162 C158 1.407 . S
C162 C161 1.392 . S
N163 C161 1.420 . S
N163 C164 1.244 . S
C164 N163 1.244 . S
H165 C168 0.929 . S
H166 C171 0.929 . S
H167 C173 0.930 . S
C168 H165 0.929 . S
C168 C169 1.398 . S
C168 C170 1.396 . S
C169 C168 1.398 . S
C169 C173 1.407 . S
C170 C168 1.396 . S
C170 C171 1.394 . S
C171 H166 0.929 . S
C171 C170 1.394 . S
C171 C172 1.382 . S
C172 C171 1.382 . S
C172 C173 1.392 . S
C172 N174 1.420 . S
C173 H167 0.930 . S
C173 C169 1.407 . S
C173 C172 1.392 . S
N174 C172 1.420 . S
N174 C175 1.244 . S
C175 N174 1.244 . S
H176 C179 0.929 . S
H177 C182 0.929 . S
H178 C184 0.930 . S
C179 H176 0.929 . S
C179 C180 1.398 . S
C179 C181 1.396 . S
C180 C179 1.398 . S
C180 C184 1.407 . S
C181 C179 1.396 . S
C181 C182 1.394 . S
C182 H177 0.929 . S
C182 C181 1.394 . S
C182 C183 1.382 . S
C183 C182 1.382 . S
C183 C184 1.392 . S
C183 N185 1.420 . S
C184 H178 0.930 . S
C184 C180 1.407 . S
C184 C183 1.392 . S
N185 C183 1.420 . S
N185 C186 1.244 . S
C186 N185 1.244 . S
H187 C190 0.929 . S
H188 C193 0.929 . S
H189 C195 0.930 . S
C190 H187 0.929 . S
C190 C191 1.398 . S
C190 C192 1.396 . S
C191 C190 1.398 . S
C191 C195 1.407 . S
C192 C190 1.396 . S
C192 C193 1.394 . S
C193 H188 0.929 . S
C193 C192 1.394 . S
C193 C194 1.382 . S
C194 C193 1.382 . S
C194 C195 1.392 . S
C194 N196 1.420 . S
C195 H189 0.930 . S
C195 C191 1.407 . S
C195 C194 1.392 . S
N196 C194 1.420 . S
N196 C197 1.244 . S
C197 N196 1.244 . S
C198 Eu199 2.835 . S
C198 C200 1.500 1_545 S
C198 O218 1.257 1_545 S
C198 O219 1.260 . S
Eu199 C198 2.835 . S
Eu199 O218 2.473 1_545 S
Eu199 O219 2.480 . S
Eu199 O220 2.430 . S
Eu199 O221 2.670 1_554 S
Eu199 O222 2.394 1_545 S
Eu199 O227 2.355 1_545 S
Eu199 O229 2.374 . S
C200 C198 1.500 1_565 S
C200 C201 1.377 1_565 S
C200 C205 1.377 . S
C201 C200 1.377 1_545 S
C201 C202 1.400 . S
C201 H230 0.931 . S
C202 C201 1.400 . S
C202 C203 1.361 1_545 S
C202 H231 0.948 . S
C203 C202 1.361 1_565 S
C203 C204 1.394 . S
C204 C203 1.394 . S
C204 C205 1.378 . S
C204 H232 0.931 . S
C205 C200 1.377 . S
C205 C204 1.378 . S
C205 H233 0.931 . S
C206 O220 1.259 . S
C206 O221 1.270 1_554 S
C207 O222 1.251 . S
C207 O223 1.251 1_554 S
C208 Eu209 2.835 1_545 S
C208 C210 1.500 . S
C208 O224 1.257 . S
C208 O225 1.260 1_545 S
Eu209 C208 2.835 1_565 S
Eu209 O221 2.355 1_565 S
Eu209 O223 2.374 . S
Eu209 O224 2.473 1_565 S
Eu209 O225 2.480 . S
Eu209 O226 2.430 . S
Eu209 O227 2.670 1_556 S
Eu209 O228 2.394 1_565 S
C210 C208 1.500 . S
C210 C211 1.377 . S
C210 C215 1.377 . S
C211 C210 1.377 . S
C211 C212 1.395 . S
C211 H234 0.931 1_545 S
C212 C211 1.395 . S
C212 C213 1.383 . S
C212 H235 0.931 1_545 S
C213 C212 1.383 . S
C213 C214 1.394 . S
C214 C213 1.394 . S
C214 C215 1.378 . S
C214 H236 0.931 . S
C215 C210 1.377 . S
C215 C214 1.378 . S
C215 H237 0.931 . S
C216 O226 1.259 1_554 S
C216 O227 1.270 . S
C217 O228 1.251 . S
C217 O229 1.251 1_556 S
O218 C198 1.257 1_565 S
O218 Eu199 2.473 1_565 S
O219 C198 1.260 . S
O219 Eu199 2.480 . S
O220 Eu199 2.430 . S
O220 C206 1.259 . S
O221 Eu199 2.670 1_556 S
O221 C206 1.270 1_556 S
O221 Eu209 2.355 1_545 S
O222 Eu199 2.394 1_565 S
O222 C207 1.251 . S
O223 C207 1.251 1_556 S
O223 Eu209 2.374 . S
O224 C208 1.257 . S
O224 Eu209 2.473 1_545 S
O225 C208 1.260 1_565 S
O225 Eu209 2.480 . S
O226 Eu209 2.430 . S
O226 C216 1.259 1_556 S
O227 Eu199 2.355 1_565 S
O227 Eu209 2.670 1_554 S
O227 C216 1.270 . S
O228 Eu209 2.394 1_545 S
O228 C217 1.251 . S
O229 Eu199 2.374 . S
O229 C217 1.251 1_554 S
H230 C201 0.931 . S
H231 C202 0.948 . S
H232 C204 0.931 . S
H233 C205 0.931 . S
H234 C211 0.931 1_565 S
H235 C212 0.931 1_565 S
H236 C214 0.931 . S
H237 C215 0.931 . S
C238 Eu239 2.835 1_455 S
C238 C240 1.500 . S
C238 O258 1.257 . S
C238 O259 1.260 1_455 S
Eu239 C238 2.835 1_655 S
Eu239 O258 2.473 1_655 S
Eu239 O259 2.480 . S
Eu239 O260 2.430 . S
Eu239 O261 2.670 1_554 S
Eu239 O262 2.394 1_655 S
Eu239 O267 2.355 1_655 S
Eu239 O269 2.374 . S
C240 C238 1.500 . S
C240 C241 1.377 . S
C240 C245 1.377 . S
C241 C240 1.377 . S
C241 C242 1.395 . S
C241 H270 0.931 1_455 S
C242 C241 1.395 . S
C242 C243 1.383 . S
C242 H271 0.944 . S
C243 C242 1.383 . S
C243 C244 1.394 . S
C244 C243 1.394 . S
C244 C245 1.378 . S
C244 H272 0.931 . S
C245 C240 1.377 . S
C245 C244 1.378 . S
C245 H273 0.931 . S
C246 O260 1.259 . S
C246 O261 1.270 1_554 S
C247 O262 1.251 . S
C247 O263 1.251 . S
C248 Eu249 2.835 1_655 S
C248 C250 1.500 . S
C248 O264 1.257 . S
C248 O265 1.260 1_655 S
Eu249 C248 2.835 1_455 S
Eu249 O261 2.355 1_455 S
Eu249 O263 2.374 1_556 S
Eu249 O264 2.473 1_455 S
Eu249 O265 2.480 . S
Eu249 O266 2.430 . S
Eu249 O267 2.670 1_556 S
Eu249 O268 2.394 1_455 S
C250 C248 1.500 . S
C250 C251 1.379 . S
C250 C255 1.377 . S
C251 C250 1.379 . S
C251 C252 1.398 . S
C251 H274 0.925 1_655 S
C252 C251 1.398 . S
C252 C253 1.383 . S
C252 H275 0.931 1_655 S
C253 C252 1.383 . S
C253 C254 1.394 . S
C254 C253 1.394 . S
C254 C255 1.378 . S
C254 H276 0.931 . S
C255 C250 1.377 . S
C255 C254 1.378 . S
C255 H277 0.931 . S
C256 O266 1.259 1_554 S
C256 O267 1.270 . S
C257 O268 1.251 . S
C257 O269 1.251 1_556 S
O258 C238 1.257 . S
O258 Eu239 2.473 1_455 S
O259 C238 1.260 1_655 S
O259 Eu239 2.480 . S
O260 Eu239 2.430 . S
O260 C246 1.259 . S
O261 Eu239 2.670 1_556 S
O261 C246 1.270 1_556 S
O261 Eu249 2.355 1_655 S
O262 Eu239 2.394 1_455 S
O262 C247 1.251 . S
O263 C247 1.251 . S
O263 Eu249 2.374 1_554 S
O264 C248 1.257 . S
O264 Eu249 2.473 1_655 S
O265 C248 1.260 1_455 S
O265 Eu249 2.480 . S
O266 Eu249 2.430 . S
O266 C256 1.259 1_556 S
O267 Eu239 2.355 1_455 S
O267 Eu249 2.670 1_554 S
O267 C256 1.270 . S
O268 Eu249 2.394 1_655 S
O268 C257 1.251 . S
O269 Eu239 2.374 . S
O269 C257 1.251 1_554 S
H270 C241 0.931 1_655 S
H271 C242 0.944 . S
H272 C244 0.931 . S
H273 C245 0.931 . S
H274 C251 0.925 1_455 S
H275 C252 0.931 1_455 S
H276 C254 0.931 . S
H277 C255 0.931 . S
C278 Eu279 2.835 . S
C278 C280 1.500 . S
C278 O298 1.257 . S
C278 O299 1.260 . S
Eu279 C278 2.835 . S
Eu279 O298 2.473 . S
Eu279 O299 2.480 . S
Eu279 O300 2.430 . S
Eu279 O301 2.670 1_556 S
Eu279 O302 2.394 . S
Eu279 O307 2.355 1_556 S
Eu279 O309 2.374 1_556 S
C280 C278 1.500 . S
C280 C281 1.377 . S
C280 C285 1.377 . S
C281 C280 1.377 . S
C281 C282 1.395 . S
C281 H310 0.931 . S
C282 C281 1.395 . S
C282 C283 1.383 . S
C282 H311 0.931 . S
C283 C282 1.383 . S
C283 C284 1.394 . S
C284 C283 1.394 . S
C284 C285 1.378 . S
C284 H312 0.931 . S
C285 C280 1.377 . S
C285 C284 1.378 . S
C285 H313 0.931 . S
C286 O300 1.259 1_554 S
C286 O301 1.270 . S
C287 O302 1.251 . S
C287 O303 1.251 1_556 S
C288 Eu289 2.835 . S
C288 C290 1.500 . S
C288 O304 1.257 . S
C288 O305 1.260 . S
Eu289 C288 2.835 . S
Eu289 O301 2.355 . S
Eu289 O303 2.374 . S
Eu289 O304 2.473 . S
Eu289 O305 2.480 . S
Eu289 O306 2.430 . S
Eu289 O307 2.670 . S
Eu289 O308 2.394 . S
C290 C288 1.500 . S
C290 C291 1.377 . S
C290 C295 1.377 . S
C291 C290 1.377 . S
C291 C292 1.395 . S
C291 H314 0.931 . S
C292 C291 1.395 . S
C292 C293 1.383 . S
C292 H315 0.931 . S
C293 C292 1.383 . S
C293 C294 1.394 . S
C294 C293 1.394 . S
C294 C295 1.378 . S
C294 H316 0.931 . S
C295 C290 1.377 . S
C295 C294 1.378 . S
C295 H317 0.931 . S
C296 O306 1.259 . S
C296 O307 1.270 . S
C297 O308 1.251 . S
C297 O309 1.251 . S
O298 C278 1.257 . S
O298 Eu279 2.473 . S
O299 C278 1.260 . S
O299 Eu279 2.480 . S
O300 Eu279 2.430 . S
O300 C286 1.259 1_556 S
O301 Eu279 2.670 1_554 S
O301 C286 1.270 . S
O301 Eu289 2.355 . S
O302 Eu279 2.394 . S
O302 C287 1.251 . S
O303 C287 1.251 1_554 S
O303 Eu289 2.374 . S
O304 C288 1.257 . S
O304 Eu289 2.473 . S
O305 C288 1.260 . S
O305 Eu289 2.480 . S
O306 Eu289 2.430 . S
O306 C296 1.259 . S
O307 Eu279 2.355 1_554 S
O307 Eu289 2.670 . S
O307 C296 1.270 . S
O308 Eu289 2.394 . S
O308 C297 1.251 . S
O309 Eu279 2.374 1_554 S
O309 C297 1.251 . S
H310 C281 0.931 . S
H311 C282 0.931 . S
H312 C284 0.931 . S
H313 C285 0.931 . S
H314 C291 0.931 . S
H315 C292 0.931 . S
H316 C294 0.931 . S
H317 C295 0.931 . S
C318 Eu319 2.835 . S
C318 C320 1.500 . S
C318 O338 1.257 . S
C318 O339 1.260 . S
Eu319 C318 2.835 . S
Eu319 O338 2.473 . S
Eu319 O339 2.480 . S
Eu319 O340 2.430 . S
Eu319 O341 2.670 . S
Eu319 O342 2.394 . S
Eu319 O347 2.355 . S
Eu319 O349 2.374 . S
C320 C318 1.500 . S
C320 C321 1.377 . S
C320 C325 1.377 . S
C321 C320 1.377 . S
C321 C322 1.395 . S
C321 H350 0.931 . S
C322 C321 1.395 . S
C322 C323 1.383 . S
C322 H351 0.931 . S
C323 C322 1.383 . S
C323 C324 1.394 . S
C324 C323 1.394 . S
C324 C325 1.378 . S
C324 H352 0.931 . S
C325 C320 1.377 . S
C325 C324 1.378 . S
C325 H353 0.931 . S
C326 O340 1.259 . S
C326 O341 1.270 . S
C327 O342 1.251 . S
C327 O343 1.251 . S
C328 Eu329 2.835 . S
C328 C330 1.500 . S
C328 O344 1.257 . S
C328 O345 1.260 . S
Eu329 C328 2.835 . S
Eu329 O341 2.355 . S
Eu329 O343 2.374 . S
Eu329 O344 2.473 . S
Eu329 O345 2.480 . S
Eu329 O346 2.430 . S
Eu329 O347 2.670 . S
Eu329 O348 2.394 . S
C330 C328 1.500 . S
C330 C331 1.377 . S
C330 C335 1.377 . S
C331 C330 1.377 . S
C331 C332 1.395 . S
C331 H354 0.931 . S
C332 C331 1.395 . S
C332 C333 1.383 . S
C332 H355 0.931 . S
C333 C332 1.383 . S
C333 C334 1.394 . S
C334 C333 1.394 . S
C334 C335 1.378 . S
C334 H356 0.931 . S
C335 C330 1.377 . S
C335 C334 1.378 . S
C335 H357 0.931 . S
C336 O346 1.259 . S
C336 O347 1.270 . S
C337 O348 1.251 . S
C337 O349 1.251 . S
O338 C318 1.257 . S
O338 Eu319 2.473 . S
O339 C318 1.260 . S
O339 Eu319 2.480 . S
O340 Eu319 2.430 . S
O340 C326 1.259 . S
O341 Eu319 2.670 . S
O341 C326 1.270 . S
O341 Eu329 2.355 . S
O342 Eu319 2.394 . S
O342 C327 1.251 . S
O343 C327 1.251 . S
O343 Eu329 2.374 . S
O344 C328 1.257 . S
O344 Eu329 2.473 . S
O345 C328 1.260 . S
O345 Eu329 2.480 . S
O346 Eu329 2.430 . S
O346 C336 1.259 . S
O347 Eu319 2.355 . S
O347 Eu329 2.670 . S
O347 C336 1.270 . S
O348 Eu329 2.394 . S
O348 C337 1.251 . S
O349 Eu319 2.374 . S
O349 C337 1.251 . S
H350 C321 0.931 . S
H351 C322 0.931 . S
H352 C324 0.931 . S
H353 C325 0.931 . S
H354 C331 0.931 . S
H355 C332 0.931 . S
H356 C334 0.931 . S
H357 C335 0.931 . S
C358 Eu359 2.835 . S
C358 C360 1.500 . S
C358 O378 1.257 . S
C358 O379 1.260 . S
Eu359 C358 2.835 . S
Eu359 O378 2.473 . S
Eu359 O379 2.480 . S
Eu359 O380 2.430 . S
Eu359 O381 2.670 . S
Eu359 O382 2.394 . S
Eu359 O387 2.355 . S
Eu359 O389 2.374 . S
C360 C358 1.500 . S
C360 C361 1.377 . S
C360 C365 1.377 . S
C361 C360 1.377 . S
C361 C362 1.395 . S
C361 H390 0.931 . S
C362 C361 1.395 . S
C362 C363 1.383 . S
C362 H391 0.931 . S
C363 C362 1.383 . S
C363 C364 1.394 . S
C364 C363 1.394 . S
C364 C365 1.378 . S
C364 H392 0.931 . S
C365 C360 1.377 . S
C365 C364 1.378 . S
C365 H393 0.931 . S
C366 O380 1.259 . S
C366 O381 1.270 . S
C367 O382 1.251 . S
C367 O383 1.251 . S
C368 Eu369 2.835 . S
C368 C370 1.500 . S
C368 O384 1.257 . S
C368 O385 1.260 . S
Eu369 C368 2.835 . S
Eu369 O381 2.355 . S
Eu369 O383 2.374 . S
Eu369 O384 2.473 . S
Eu369 O385 2.480 . S
Eu369 O386 2.430 . S
Eu369 O387 2.670 . S
Eu369 O388 2.394 . S
C370 C368 1.500 . S
C370 C371 1.377 . S
C370 C375 1.377 . S
C371 C370 1.377 . S
C371 C372 1.395 . S
C371 H394 0.931 . S
C372 C371 1.395 . S
C372 C373 1.383 . S
C372 H395 0.931 . S
C373 C372 1.383 . S
C373 C374 1.394 . S
C374 C373 1.394 . S
C374 C375 1.378 . S
C374 H396 0.931 . S
C375 C370 1.377 . S
C375 C374 1.378 . S
C375 H397 0.931 . S
C376 O386 1.259 . S
C376 O387 1.270 . S
C377 O388 1.251 . S
C377 O389 1.251 . S
O378 C358 1.257 . S
O378 Eu359 2.473 . S
O379 C358 1.260 . S
O379 Eu359 2.480 . S
O380 Eu359 2.430 . S
O380 C366 1.259 . S
O381 Eu359 2.670 . S
O381 C366 1.270 . S
O381 Eu369 2.355 . S
O382 Eu359 2.394 . S
O382 C367 1.251 . S
O383 C367 1.251 . S
O383 Eu369 2.374 . S
O384 C368 1.257 . S
O384 Eu369 2.473 . S
O385 C368 1.260 . S
O385 Eu369 2.480 . S
O386 Eu369 2.430 . S
O386 C376 1.259 . S
O387 Eu359 2.355 . S
O387 Eu369 2.670 . S
O387 C376 1.270 . S
O388 Eu369 2.394 . S
O388 C377 1.251 . S
O389 Eu359 2.374 . S
O389 C377 1.251 . S
H390 C361 0.931 . S
H391 C362 0.931 . S
H392 C364 0.931 . S
H393 C365 0.931 . S
H394 C371 0.931 . S
H395 C372 0.931 . S
H396 C374 0.931 . S
H397 C375 0.931 . S
C398 Eu399 2.835 . S
C398 C400 1.500 . S
C398 O418 1.257 . S
C398 O419 1.260 . S
Eu399 C398 2.835 . S
Eu399 O418 2.473 . S
Eu399 O419 2.480 . S
Eu399 O420 2.430 . S
Eu399 O421 2.670 . S
Eu399 O422 2.394 . S
Eu399 O427 2.355 . S
Eu399 O429 2.374 . S
C400 C398 1.500 . S
C400 C401 1.377 . S
C400 C405 1.377 . S
C401 C400 1.377 . S
C401 C402 1.395 . S
C401 H430 0.931 . S
C402 C401 1.395 . S
C402 C403 1.383 . S
C402 H431 0.931 . S
C403 C402 1.383 . S
C403 C404 1.394 . S
C404 C403 1.394 . S
C404 C405 1.378 . S
C404 H432 0.931 . S
C405 C400 1.377 . S
C405 C404 1.378 . S
C405 H433 0.931 . S
C406 O420 1.259 . S
C406 O421 1.270 . S
C407 O422 1.251 . S
C407 O423 1.251 . S
C408 Eu409 2.835 . S
C408 C410 1.500 . S
C408 O424 1.257 . S
C408 O425 1.260 . S
Eu409 C408 2.835 . S
Eu409 O421 2.355 . S
Eu409 O423 2.374 . S
Eu409 O424 2.473 . S
Eu409 O425 2.480 . S
Eu409 O426 2.430 . S
Eu409 O427 2.670 . S
Eu409 O428 2.394 . S
C410 C408 1.500 . S
C410 C411 1.377 . S
C410 C415 1.377 . S
C411 C410 1.377 . S
C411 C412 1.395 . S
C411 H434 0.931 . S
C412 C411 1.395 . S
C412 C413 1.383 . S
C412 H435 0.931 . S
C413 C412 1.383 . S
C413 C414 1.394 . S
C414 C413 1.394 . S
C414 C415 1.378 . S
C414 H436 0.931 . S
C415 C410 1.377 . S
C415 C414 1.378 . S
C415 H437 0.931 . S
C416 O426 1.259 . S
C416 O427 1.270 . S
C417 O428 1.251 . S
C417 O429 1.251 . S
O418 C398 1.257 . S
O418 Eu399 2.473 . S
O419 C398 1.260 . S
O419 Eu399 2.480 . S
O420 Eu399 2.430 . S
O420 C406 1.259 . S
O421 Eu399 2.670 . S
O421 C406 1.270 . S
O421 Eu409 2.355 . S
O422 Eu399 2.394 . S
O422 C407 1.251 . S
O423 C407 1.251 . S
O423 Eu409 2.374 . S
O424 C408 1.257 . S
O424 Eu409 2.473 . S
O425 C408 1.260 . S
O425 Eu409 2.480 . S
O426 Eu409 2.430 . S
O426 C416 1.259 . S
O427 Eu399 2.355 . S
O427 Eu409 2.670 . S
O427 C416 1.270 . S
O428 Eu409 2.394 . S
O428 C417 1.251 . S
O429 Eu399 2.374 . S
O429 C417 1.251 . S
H430 C401 0.931 . S
H431 C402 0.931 . S
H432 C404 0.931 . S
H433 C405 0.931 . S
H434 C411 0.931 . S
H435 C412 0.931 . S
H436 C414 0.931 . S
H437 C415 0.931 . S
C438 Eu439 2.835 . S
C438 C440 1.500 . S
C438 O458 1.257 . S
C438 O459 1.260 . S
Eu439 C438 2.835 . S
Eu439 O458 2.473 . S
Eu439 O459 2.480 . S
Eu439 O460 2.430 . S
Eu439 O461 2.670 . S
Eu439 O462 2.394 . S
Eu439 O467 2.355 . S
Eu439 O469 2.374 . S
C440 C438 1.500 . S
C440 C441 1.377 . S
C440 C445 1.377 . S
C441 C440 1.377 . S
C441 C442 1.395 . S
C441 H470 0.931 . S
C442 C441 1.395 . S
C442 C443 1.383 . S
C442 H471 0.931 . S
C443 C442 1.383 . S
C443 C444 1.394 . S
C444 C443 1.394 . S
C444 C445 1.378 . S
C444 H472 0.931 . S
C445 C440 1.377 . S
C445 C444 1.378 . S
C445 H473 0.931 . S
C446 O460 1.259 . S
C446 O461 1.270 . S
C447 O462 1.251 . S
C447 O463 1.251 . S
C448 Eu449 2.835 . S
C448 C450 1.500 . S
C448 O464 1.257 . S
C448 O465 1.260 . S
Eu449 C448 2.835 . S
Eu449 O461 2.355 . S
Eu449 O463 2.374 . S
Eu449 O464 2.473 . S
Eu449 O465 2.480 . S
Eu449 O466 2.430 . S
Eu449 O467 2.670 . S
Eu449 O468 2.394 . S
C450 C448 1.500 . S
C450 C451 1.377 . S
C450 C455 1.377 . S
C451 C450 1.377 . S
C451 C452 1.395 . S
C451 H474 0.931 . S
C452 C451 1.395 . S
C452 C453 1.383 . S
C452 H475 0.931 . S
C453 C452 1.383 . S
C453 C454 1.394 . S
C454 C453 1.394 . S
C454 C455 1.378 . S
C454 H476 0.931 . S
C455 C450 1.377 . S
C455 C454 1.378 . S
C455 H477 0.931 . S
C456 O466 1.259 . S
C456 O467 1.270 . S
C457 O468 1.251 . S
C457 O469 1.251 . S
O458 C438 1.257 . S
O458 Eu439 2.473 . S
O459 C438 1.260 . S
O459 Eu439 2.480 . S
O460 Eu439 2.430 . S
O460 C446 1.259 . S
O461 Eu439 2.670 . S
O461 C446 1.270 . S
O461 Eu449 2.355 . S
O462 Eu439 2.394 . S
O462 C447 1.251 . S
O463 C447 1.251 . S
O463 Eu449 2.374 . S
O464 C448 1.257 . S
O464 Eu449 2.473 . S
O465 C448 1.260 . S
O465 Eu449 2.480 . S
O466 Eu449 2.430 . S
O466 C456 1.259 . S
O467 Eu439 2.355 . S
O467 Eu449 2.670 . S
O467 C456 1.270 . S
O468 Eu449 2.394 . S
O468 C457 1.251 . S
O469 Eu439 2.374 . S
O469 C457 1.251 . S
H470 C441 0.931 . S
H471 C442 0.931 . S
H472 C444 0.931 . S
H473 C445 0.931 . S
H474 C451 0.931 . S
H475 C452 0.931 . S
H476 C454 0.931 . S
H477 C455 0.931 . S
C478 Eu479 2.835 . S
C478 C480 1.500 . S
C478 O498 1.257 . S
C478 O499 1.260 . S
Eu479 C478 2.835 . S
Eu479 O498 2.473 . S
Eu479 O499 2.480 . S
Eu479 O500 2.430 . S
Eu479 O501 2.670 . S
Eu479 O502 2.394 . S
Eu479 O507 2.355 . S
Eu479 O509 2.374 . S
C480 C478 1.500 . S
C480 C481 1.377 . S
C480 C485 1.377 . S
C481 C480 1.377 . S
C481 C482 1.395 . S
C481 H510 0.931 . S
C482 C481 1.395 . S
C482 C483 1.383 . S
C482 H511 0.931 . S
C483 C482 1.383 . S
C483 C484 1.394 . S
C484 C483 1.394 . S
C484 C485 1.378 . S
C484 H512 0.931 . S
C485 C480 1.377 . S
C485 C484 1.378 . S
C485 H513 0.931 . S
C486 O500 1.259 . S
C486 O501 1.270 . S
C487 O502 1.251 . S
C487 O503 1.251 . S
C488 Eu489 2.835 . S
C488 C490 1.500 . S
C488 O504 1.257 . S
C488 O505 1.260 . S
Eu489 C488 2.835 . S
Eu489 O501 2.355 . S
Eu489 O503 2.374 . S
Eu489 O504 2.473 . S
Eu489 O505 2.480 . S
Eu489 O506 2.430 . S
Eu489 O507 2.670 . S
Eu489 O508 2.394 . S
C490 C488 1.500 . S
C490 C491 1.377 . S
C490 C495 1.377 . S
C491 C490 1.377 . S
C491 C492 1.395 . S
C491 H514 0.931 . S
C492 C491 1.395 . S
C492 C493 1.383 . S
C492 H515 0.931 . S
C493 C492 1.383 . S
C493 C494 1.394 . S
C494 C493 1.394 . S
C494 C495 1.378 . S
C494 H516 0.931 . S
C495 C490 1.377 . S
C495 C494 1.378 . S
C495 H517 0.931 . S
C496 O506 1.259 . S
C496 O507 1.270 . S
C497 O508 1.251 . S
C497 O509 1.251 . S
O498 C478 1.257 . S
O498 Eu479 2.473 . S
O499 C478 1.260 . S
O499 Eu479 2.480 . S
O500 Eu479 2.430 . S
O500 C486 1.259 . S
O501 Eu479 2.670 . S
O501 C486 1.270 . S
O501 Eu489 2.355 . S
O502 Eu479 2.394 . S
O502 C487 1.251 . S
O503 C487 1.251 . S
O503 Eu489 2.374 . S
O504 C488 1.257 . S
O504 Eu489 2.473 . S
O505 C488 1.260 . S
O505 Eu489 2.480 . S
O506 Eu489 2.430 . S
O506 C496 1.259 . S
O507 Eu479 2.355 . S
O507 Eu489 2.670 . S
O507 C496 1.270 . S
O508 Eu489 2.394 . S
O508 C497 1.251 . S
O509 Eu479 2.374 . S
O509 C497 1.251 . S
H510 C481 0.931 . S
H511 C482 0.931 . S
H512 C484 0.931 . S
H513 C485 0.931 . S
H514 C491 0.931 . S
H515 C492 0.931 . S
H516 C494 0.931 . S
H517 C495 0.931 . S
C518 Eu519 2.835 . S
C518 C520 1.500 . S
C518 O538 1.257 . S
C518 O539 1.260 . S
Eu519 C518 2.835 . S
Eu519 O538 2.473 . S
Eu519 O539 2.480 . S
Eu519 O540 2.430 . S
Eu519 O541 2.670 . S
Eu519 O542 2.394 . S
Eu519 O547 2.355 . S
Eu519 O549 2.374 . S
C520 C518 1.500 . S
C520 C521 1.377 . S
C520 C525 1.377 . S
C521 C520 1.377 . S
C521 C522 1.395 . S
C521 H550 0.931 . S
C522 C521 1.395 . S
C522 C523 1.383 . S
C522 H551 0.931 . S
C523 C522 1.383 . S
C523 C524 1.394 . S
C524 C523 1.394 . S
C524 C525 1.378 . S
C524 H552 0.931 . S
C525 C520 1.377 . S
C525 C524 1.378 . S
C525 H553 0.931 . S
C526 O540 1.259 . S
C526 O541 1.270 . S
C527 O542 1.251 . S
C527 O543 1.251 . S
C528 Eu529 2.835 . S
C528 C530 1.500 . S
C528 O544 1.257 . S
C528 O545 1.260 . S
Eu529 C528 2.835 . S
Eu529 O541 2.355 . S
Eu529 O543 2.374 . S
Eu529 O544 2.473 . S
Eu529 O545 2.480 . S
Eu529 O546 2.430 . S
Eu529 O547 2.670 . S
Eu529 O548 2.394 . S
C530 C528 1.500 . S
C530 C531 1.377 . S
C530 C535 1.377 . S
C531 C530 1.377 . S
C531 C532 1.395 . S
C531 H554 0.931 . S
C532 C531 1.395 . S
C532 C533 1.383 . S
C532 H555 0.931 . S
C533 C532 1.383 . S
C533 C534 1.394 . S
C534 C533 1.394 . S
C534 C535 1.378 . S
C534 H556 0.931 . S
C535 C530 1.377 . S
C535 C534 1.378 . S
C535 H557 0.931 . S
C536 O546 1.259 . S
C536 O547 1.270 . S
C537 O548 1.251 . S
C537 O549 1.251 . S
O538 C518 1.257 . S
O538 Eu519 2.473 . S
O539 C518 1.260 . S
O539 Eu519 2.480 . S
O540 Eu519 2.430 . S
O540 C526 1.259 . S
O541 Eu519 2.670 . S
O541 C526 1.270 . S
O541 Eu529 2.355 . S
O542 Eu519 2.394 . S
O542 C527 1.251 . S
O543 C527 1.251 . S
O543 Eu529 2.374 . S
O544 C528 1.257 . S
O544 Eu529 2.473 . S
O545 C528 1.260 . S
O545 Eu529 2.480 . S
O546 Eu529 2.430 . S
O546 C536 1.259 . S
O547 Eu519 2.355 . S
O547 Eu529 2.670 . S
O547 C536 1.270 . S
O548 Eu529 2.394 . S
O548 C537 1.251 . S
O549 Eu519 2.374 . S
O549 C537 1.251 . S
H550 C521 0.931 . S
H551 C522 0.931 . S
H552 C524 0.931 . S
H553 C525 0.931 . S
H554 C531 0.931 . S
H555 C532 0.931 . S
H556 C534 0.931 . S
H557 C535 0.931 . S
H558 C564 0.930 . S
H559 C568 0.930 . S
H560 C573 0.929 . S
H561 C571 0.929 . S
H562 C566 0.929 . S
H563 C572 0.929 . S
C564 H558 0.930 . S
C564 C565 1.367 . S
C564 C572 1.378 . S
C565 C564 1.367 . S
C565 C573 1.433 . S
C566 H562 0.929 . S
C566 C568 1.378 . S
C566 C570 1.350 . S
C567 C570 1.463 . S
C567 C572 1.350 . S
C567 N575 1.427 . S
C568 H559 0.930 . S
C568 C566 1.378 . S
C568 C569 1.367 . S
C569 C568 1.367 . S
C569 C571 1.433 . S
C570 C566 1.350 . S
C570 C567 1.463 . S
C570 N574 1.427 . S
C571 H561 0.929 . S
C571 C569 1.433 . S
C571 N574 1.384 . S
C572 H563 0.929 . S
C572 C564 1.378 . S
C572 C567 1.350 . S
C573 H560 0.929 . S
C573 C565 1.433 . S
C573 N575 1.384 . S
N574 C570 1.427 . S
N574 C571 1.384 . S
N575 C567 1.427 . S
N575 C573 1.384 . S
H576 C582 0.930 . S
H577 C586 0.930 . S
H578 C591 0.929 . S
H579 C589 0.929 . S
H580 C584 0.929 . S
H581 C590 0.929 . S
C582 H576 0.930 . S
C582 C583 1.367 . S
C582 C590 1.378 . S
C583 C582 1.367 . S
C583 C591 1.433 . S
C584 H580 0.929 . S
C584 C586 1.378 . S
C584 C588 1.350 . S
C585 C588 1.463 . S
C585 C590 1.350 . S
C585 N593 1.427 . S
C586 H577 0.930 . S
C586 C584 1.378 . S
C586 C587 1.367 . S
C587 C586 1.367 . S
C587 C589 1.433 . S
C588 C584 1.350 . S
C588 C585 1.463 . S
C588 N592 1.427 . S
C589 H579 0.929 . S
C589 C587 1.433 . S
C589 N592 1.384 . S
C590 H581 0.929 . S
C590 C582 1.378 . S
C590 C585 1.350 . S
C591 H578 0.929 . S
C591 C583 1.433 . S
C591 N593 1.384 . S
N592 C588 1.427 . S
N592 C589 1.384 . S
N593 C585 1.427 . S
N593 C591 1.384 . S
H594 C600 0.930 . S
H595 C604 0.930 1_556 S
H596 C609 0.929 . S
H597 C607 0.929 . S
H598 C602 0.929 1_556 S
H599 C608 0.929 . S
C600 H594 0.930 . S
C600 C601 1.367 . S
C600 C608 1.378 . S
C601 C600 1.367 . S
C601 C609 1.433 . S
C602 H598 0.929 1_554 S
C602 C604 1.378 . S
C602 C606 1.350 . S
C603 C606 1.463 . S
C603 C608 1.350 . S
C603 N611 1.427 . S
C604 H595 0.930 1_554 S
C604 C602 1.378 . S
C604 C605 1.367 . S
C605 C604 1.367 . S
C605 C607 1.433 . S
C606 C602 1.350 . S
C606 C603 1.463 . S
C606 N610 1.427 . S
C607 H597 0.929 . S
C607 C605 1.433 . S
C607 N610 1.384 . S
C608 H599 0.929 . S
C608 C600 1.378 . S
C608 C603 1.350 . S
C609 H596 0.929 . S
C609 C601 1.433 . S
C609 N611 1.384 . S
N610 C606 1.427 . S
N610 C607 1.384 . S
N611 C603 1.427 . S
N611 C609 1.384 . S
H612 C618 0.930 . S
H613 C622 0.930 . S
H614 C627 0.929 . S
H615 C625 0.929 . S
H616 C620 0.929 . S
H617 C626 0.929 . S
C618 H612 0.930 . S
C618 C619 1.367 . S
C618 C626 1.378 . S
C619 C618 1.367 . S
C619 C627 1.433 . S
C620 H616 0.929 . S
C620 C622 1.378 . S
C620 C624 1.350 1_554 S
C621 C624 1.463 . S
C621 C626 1.350 . S
C621 N629 1.427 . S
C622 H613 0.930 . S
C622 C620 1.378 . S
C622 C623 1.367 1_554 S
C623 C622 1.367 1_556 S
C623 C625 1.433 . S
C624 C620 1.350 1_556 S
C624 C621 1.463 . S
C624 N628 1.427 . S
C625 H615 0.929 . S
C625 C623 1.433 . S
C625 N628 1.384 . S
C626 H617 0.929 . S
C626 C618 1.378 . S
C626 C621 1.350 . S
C627 H614 0.929 . S
C627 C619 1.433 . S
C627 N629 1.384 . S
N628 C624 1.427 . S
N628 C625 1.384 . S
N629 C621 1.427 . S
N629 C627 1.384 . S
H630 C636 0.930 . S
H631 C640 0.930 1_554 S
H632 C645 0.929 . S
H633 C643 0.929 . S
H634 C638 0.929 . S
H635 C644 0.929 . S
C636 H630 0.930 . S
C636 C637 1.367 . S
C636 C644 1.378 . S
C637 C636 1.367 . S
C637 C645 1.433 . S
C638 H634 0.929 . S
C638 C640 1.378 . S
C638 C642 1.350 . S
C639 C642 1.463 . S
C639 C644 1.350 . S
C639 N647 1.427 . S
C640 H631 0.930 1_556 S
C640 C638 1.378 . S
C640 C641 1.367 . S
C641 C640 1.367 . S
C641 C643 1.433 . S
C642 C638 1.350 . S
C642 C639 1.463 . S
C642 N646 1.427 . S
C643 H633 0.929 . S
C643 C641 1.433 . S
C643 N646 1.384 . S
C644 H635 0.929 . S
C644 C636 1.378 . S
C644 C639 1.350 . S
C645 H632 0.929 . S
C645 C637 1.433 . S
C645 N647 1.384 . S
N646 C642 1.427 . S
N646 C643 1.384 . S
N647 C639 1.427 . S
N647 C645 1.384 . S
H648 C654 0.930 . S
H649 C658 0.930 . S
H650 C663 0.929 . S
H651 C661 0.929 . S
H652 C656 0.929 . S
H653 C662 0.929 . S
C654 H648 0.930 . S
C654 C655 1.367 . S
C654 C662 1.378 . S
C655 C654 1.367 . S
C655 C663 1.433 . S
C656 H652 0.929 . S
C656 C658 1.378 . S
C656 C660 1.350 1_554 S
C657 C660 1.463 . S
C657 C662 1.350 . S
C657 N665 1.427 . S
C658 H649 0.930 . S
C658 C656 1.378 . S
C658 C659 1.366 1_554 S
C659 C658 1.366 1_556 S
C659 C661 1.435 . S
C660 C656 1.350 1_556 S
C660 C657 1.463 . S
C660 N664 1.427 . S
C661 H651 0.929 . S
C661 C659 1.435 . S
C661 N664 1.384 . S
C662 H653 0.929 . S
C662 C654 1.378 . S
C662 C657 1.350 . S
C663 H650 0.929 . S
C663 C655 1.433 . S
C663 N665 1.384 . S
N664 C660 1.427 . S
N664 C661 1.384 . S
N665 C657 1.427 . S
N665 C663 1.384 . S
H666 C672 0.930 . S
H667 C676 0.918 1_554 S
H668 C681 0.929 . S
H669 C679 0.929 . S
H670 C674 0.929 1_554 S
H671 C680 0.929 . S
C672 H666 0.930 . S
C672 C673 1.367 . S
C672 C680 1.378 . S
C673 C672 1.367 . S
C673 C681 1.433 . S
C674 H670 0.929 1_556 S
C674 C676 1.384 . S
C674 C678 1.350 . S
C675 C678 1.463 . S
C675 C680 1.350 . S
C675 N683 1.427 . S
C676 H667 0.918 1_556 S
C676 C674 1.384 . S
C676 C677 1.374 . S
C677 C676 1.374 . S
C677 C679 1.433 . S
C678 C674 1.350 . S
C678 C675 1.463 . S
C678 N682 1.427 . S
C679 H669 0.929 . S
C679 C677 1.433 . S
C679 N682 1.384 . S
C680 H671 0.929 . S
C680 C672 1.378 . S
C680 C675 1.350 . S
C681 H668 0.929 . S
C681 C673 1.433 . S
C681 N683 1.384 . S
N682 C678 1.427 . S
N682 C679 1.384 . S
N683 C675 1.427 . S
N683 C681 1.384 . S
H684 C690 0.930 . S
H685 C694 0.930 . S
H686 C699 0.929 . S
H687 C697 0.929 1_554 S
H688 C692 0.929 . S
H689 C698 0.929 . S
C690 H684 0.930 . S
C690 C691 1.367 . S
C690 C698 1.378 . S
C691 C690 1.367 . S
C691 C699 1.433 . S
C692 H688 0.929 . S
C692 C694 1.378 . S
C692 C696 1.350 . S
C693 C696 1.463 . S
C693 C698 1.350 . S
C693 N701 1.427 . S
C694 H685 0.930 . S
C694 C692 1.378 . S
C694 C695 1.367 . S
C695 C694 1.367 . S
C695 C697 1.433 . S
C696 C692 1.350 . S
C696 C693 1.463 . S
C696 N700 1.427 . S
C697 H687 0.929 1_556 S
C697 C695 1.433 . S
C697 N700 1.384 . S
C698 H689 0.929 . S
C698 C690 1.378 . S
C698 C693 1.350 . S
C699 H686 0.929 . S
C699 C691 1.433 . S
C699 N701 1.384 . S
N700 C696 1.427 . S
N700 C697 1.384 . S
N701 C693 1.427 . S
N701 C699 1.384 . S
H702 C708 0.930 . S
H703 C712 0.930 . S
H704 C717 0.929 . S
H705 C715 0.929 . S
H706 C710 0.929 . S
H707 C716 0.929 . S
C708 H702 0.930 . S
C708 C709 1.367 . S
C708 C716 1.378 . S
C709 C708 1.367 . S
C709 C717 1.433 1_556 S
C710 H706 0.929 . S
C710 C712 1.378 . S
C710 C714 1.350 1_554 S
C711 C714 1.463 . S
C711 C716 1.350 . S
C711 N719 1.427 1_556 S
C712 H703 0.930 . S
C712 C710 1.378 . S
C712 C713 1.367 . S
C713 C712 1.367 . S
C713 C715 1.433 1_554 S
C714 C710 1.350 1_556 S
C714 C711 1.463 . S
C714 N718 1.427 . S
C715 H705 0.929 . S
C715 C713 1.433 1_556 S
C715 N718 1.384 . S
C716 H707 0.929 . S
C716 C708 1.378 . S
C716 C711 1.350 . S
C717 H704 0.929 . S
C717 C709 1.433 1_554 S
C717 N719 1.384 . S
N718 C714 1.427 . S
N718 C715 1.384 . S
N719 C711 1.427 1_554 S
N719 C717 1.384 . S
H720 C726 0.930 . S
H721 C730 0.930 . S
H722 C735 0.929 . S
H723 C733 0.929 . S
H724 C728 0.929 . S
H725 C734 0.929 . S
C726 H720 0.930 . S
C726 C727 1.367 . S
C726 C734 1.378 . S
C727 C726 1.367 . S
C727 C735 1.433 . S
C728 H724 0.929 . S
C728 C730 1.378 . S
C728 C732 1.350 . S
C729 C732 1.463 . S
C729 C734 1.350 . S
C729 N737 1.427 . S
C730 H721 0.930 . S
C730 C728 1.378 . S
C730 C731 1.367 . S
C731 C730 1.367 . S
C731 C733 1.433 . S
C732 C728 1.350 . S
C732 C729 1.463 . S
C732 N736 1.427 . S
C733 H723 0.929 . S
C733 C731 1.433 . S
C733 N736 1.384 . S
C734 H725 0.929 . S
C734 C726 1.378 . S
C734 C729 1.350 . S
C735 H722 0.929 . S
C735 C727 1.433 . S
C735 N737 1.384 . S
N736 C732 1.427 . S
N736 C733 1.384 . S
N737 C729 1.427 . S
N737 C735 1.384 . S
H738 C744 0.930 . S
H739 C748 0.930 . S
H740 C753 0.929 . S
H741 C751 0.929 . S
H742 C746 0.929 . S
H743 C752 0.929 . S
C744 H738 0.930 . S
C744 C745 1.367 . S
C744 C752 1.378 . S
C745 C744 1.367 . S
C745 C753 1.433 . S
C746 H742 0.929 . S
C746 C748 1.378 . S
C746 C750 1.350 . S
C747 C750 1.463 . S
C747 C752 1.350 . S
C747 N755 1.427 . S
C748 H739 0.930 . S
C748 C746 1.378 . S
C748 C749 1.367 . S
C749 C748 1.367 . S
C749 C751 1.433 . S
C750 C746 1.350 . S
C750 C747 1.463 . S
C750 N754 1.427 . S
C751 H741 0.929 . S
C751 C749 1.433 . S
C751 N754 1.384 . S
C752 H743 0.929 . S
C752 C744 1.378 . S
C752 C747 1.350 . S
C753 H740 0.929 . S
C753 C745 1.433 . S
C753 N755 1.384 . S
N754 C750 1.427 . S
N754 C751 1.384 . S
N755 C747 1.427 . S
N755 C753 1.384 . S
H756 C762 0.930 . S
H757 C766 0.930 1_556 S
H758 C771 0.929 . S
H759 C769 0.929 . S
H760 C764 0.929 . S
H761 C770 0.929 . S
C762 H756 0.930 . S
C762 C763 1.367 . S
C762 C770 1.378 . S
C763 C762 1.367 . S
C763 C771 1.433 . S
C764 H760 0.929 . S
C764 C766 1.378 . S
C764 C768 1.350 . S
C765 C768 1.463 . S
C765 C770 1.350 . S
C765 N773 1.427 . S
C766 H757 0.930 1_554 S
C766 C764 1.378 . S
C766 C767 1.367 . S
C767 C766 1.367 . S
C767 C769 1.433 . S
C768 C764 1.350 . S
C768 C765 1.463 . S
C768 N772 1.427 . S
C769 H759 0.929 . S
C769 C767 1.433 . S
C769 N772 1.384 . S
C770 H761 0.929 . S
C770 C762 1.378 . S
C770 C765 1.350 . S
C771 H758 0.929 . S
C771 C763 1.433 . S
C771 N773 1.384 . S
N772 C768 1.427 . S
N772 C769 1.384 . S
N773 C765 1.427 . S
N773 C771 1.384 . S
H774 C780 0.930 . S
H775 C784 0.930 . S
H776 C789 0.929 . S
H777 C787 0.929 . S
H778 C782 0.929 . S
H779 C788 0.929 . S
C780 H774 0.930 . S
C780 C781 1.367 . S
C780 C788 1.378 . S
C781 C780 1.367 . S
C781 C789 1.433 . S
C782 H778 0.929 . S
C782 C784 1.378 . S
C782 C786 1.350 . S
C783 C786 1.463 1_655 S
C783 C788 1.350 . S
C783 N791 1.427 . S
C784 H775 0.930 . S
C784 C782 1.378 . S
C784 C785 1.367 . S
C785 C784 1.367 . S
C785 C787 1.433 . S
C786 C782 1.350 . S
C786 C783 1.463 1_455 S
C786 N790 1.427 . S
C787 H777 0.929 . S
C787 C785 1.433 . S
C787 N790 1.384 . S
C788 H779 0.929 . S
C788 C780 1.378 . S
C788 C783 1.350 . S
C789 H776 0.929 . S
C789 C781 1.433 . S
C789 N791 1.384 . S
N790 C786 1.427 . S
N790 C787 1.384 . S
N791 C783 1.427 . S
N791 C789 1.384 . S
H792 C798 0.930 . S
H793 C802 0.930 . S
H794 C807 0.929 . S
H795 C805 0.929 . S
H796 C800 0.929 . S
H797 C806 0.929 . S
C798 H792 0.930 . S
C798 C799 1.367 . S
C798 C806 1.378 . S
C799 C798 1.367 . S
C799 C807 1.433 . S
C800 H796 0.929 . S
C800 C802 1.378 . S
C800 C804 1.350 . S
C801 C804 1.463 . S
C801 C806 1.350 . S
C801 N809 1.427 . S
C802 H793 0.930 . S
C802 C800 1.378 . S
C802 C803 1.367 . S
C803 C802 1.367 . S
C803 C805 1.433 . S
C804 C800 1.350 . S
C804 C801 1.463 . S
C804 N808 1.427 . S
C805 H795 0.929 . S
C805 C803 1.433 . S
C805 N808 1.384 . S
C806 H797 0.929 . S
C806 C798 1.378 . S
C806 C801 1.350 . S
C807 H794 0.929 . S
C807 C799 1.433 . S
C807 N809 1.384 . S
N808 C804 1.427 . S
N808 C805 1.384 . S
N809 C801 1.427 . S
N809 C807 1.384 . S
H810 C816 0.930 . S
H811 C820 0.930 . S
H812 C825 0.929 . S
H813 C823 0.929 . S
H814 C818 0.929 . S
H815 C824 0.929 . S
C816 H810 0.930 . S
C816 C817 1.367 . S
C816 C824 1.378 . S
C817 C816 1.367 . S
C817 C825 1.433 . S
C818 H814 0.929 . S
C818 C820 1.378 . S
C818 C822 1.350 1_565 S
C819 C822 1.463 . S
C819 C824 1.350 . S
C819 N827 1.427 . S
C820 H811 0.930 . S
C820 C818 1.378 . S
C820 C821 1.367 . S
C821 C820 1.367 . S
C821 C823 1.433 . S
C822 C818 1.350 1_545 S
C822 C819 1.463 . S
C822 N826 1.402 1_545 S
C823 H813 0.929 . S
C823 C821 1.433 . S
C823 N826 1.431 . S
C824 H815 0.929 . S
C824 C816 1.378 . S
C824 C819 1.350 . S
C825 H812 0.929 . S
C825 C817 1.433 . S
C825 N827 1.384 . S
N826 C822 1.402 1_565 S
N826 C823 1.431 . S
N827 C819 1.427 . S
N827 C825 1.384 . S
H828 C834 0.930 . S
H829 C838 0.930 . S
H830 C843 0.929 . S
H831 C841 0.929 . S
H832 C836 0.929 . S
H833 C842 0.929 . S
C834 H828 0.930 . S
C834 C835 1.367 . S
C834 C842 1.378 . S
C835 C834 1.367 . S
C835 C843 1.433 . S
C836 H832 0.929 . S
C836 C838 1.378 . S
C836 C840 1.350 . S
C837 C840 1.463 . S
C837 C842 1.350 . S
C837 N845 1.427 . S
C838 H829 0.930 . S
C838 C836 1.378 . S
C838 C839 1.367 . S
C839 C838 1.367 . S
C839 C841 1.433 . S
C840 C836 1.350 . S
C840 C837 1.463 . S
C840 N844 1.427 . S
C841 H831 0.929 . S
C841 C839 1.433 . S
C841 N844 1.384 . S
C842 H833 0.929 . S
C842 C834 1.378 . S
C842 C837 1.350 . S
C843 H830 0.929 . S
C843 C835 1.433 . S
C843 N845 1.384 . S
N844 C840 1.427 . S
N844 C841 1.384 . S
N845 C837 1.427 . S
N845 C843 1.384 . S
H846 C852 0.930 . S
H847 C856 0.930 . S
H848 C861 0.929 . S
H849 C859 0.929 . S
H850 C854 0.929 . S
H851 C860 0.929 . S
C852 H846 0.930 . S
C852 C853 1.367 . S
C852 C860 1.378 . S
C853 C852 1.367 . S
C853 C861 1.433 . S
C854 H850 0.929 . S
C854 C856 1.378 . S
C854 C858 1.350 . S
C855 C858 1.463 . S
C855 C860 1.350 . S
C855 N863 1.427 . S
C856 H847 0.930 . S
C856 C854 1.378 . S
C856 C857 1.367 . S
C857 C856 1.367 . S
C857 C859 1.433 . S
C858 C854 1.350 . S
C858 C855 1.463 . S
C858 N862 1.427 . S
C859 H849 0.929 . S
C859 C857 1.433 . S
C859 N862 1.384 . S
C860 H851 0.929 . S
C860 C852 1.378 . S
C860 C855 1.350 . S
C861 H848 0.929 . S
C861 C853 1.433 . S
C861 N863 1.384 . S
N862 C858 1.427 . S
N862 C859 1.384 . S
N863 C855 1.427 . S
N863 C861 1.384 . S
H864 C870 0.930 . S
H865 C874 0.930 . S
H866 C879 0.929 . S
H867 C877 0.929 . S
H868 C872 0.929 . S
H869 C878 0.929 . S
C870 H864 0.930 . S
C870 C871 1.367 . S
C870 C878 1.378 . S
C871 C870 1.367 . S
C871 C879 1.433 . S
C872 H868 0.929 . S
C872 C874 1.378 . S
C872 C876 1.350 . S
C873 C876 1.463 . S
C873 C878 1.350 . S
C873 N881 1.427 . S
C874 H865 0.930 . S
C874 C872 1.378 . S
C874 C875 1.367 . S
C875 C874 1.367 . S
C875 C877 1.433 . S
C876 C872 1.350 . S
C876 C873 1.463 . S
C876 N880 1.427 . S
C877 H867 0.929 . S
C877 C875 1.433 . S
C877 N880 1.384 . S
C878 H869 0.929 . S
C878 C870 1.378 . S
C878 C873 1.350 . S
C879 H866 0.929 . S
C879 C871 1.433 . S
C879 N881 1.384 . S
N880 C876 1.427 . S
N880 C877 1.384 . S
N881 C873 1.427 . S
N881 C879 1.384 . S
H882 C888 0.930 . S
H883 C892 0.930 . S
H884 C897 0.929 . S
H885 C895 0.929 . S
H886 C890 0.929 . S
H887 C896 0.929 . S
C888 H882 0.930 . S
C888 C889 1.367 . S
C888 C896 1.378 . S
C889 C888 1.367 . S
C889 C897 1.433 . S
C890 H886 0.929 . S
C890 C892 1.378 . S
C890 C894 1.350 . S
C891 C894 1.463 . S
C891 C896 1.350 . S
C891 N899 1.427 . S
C892 H883 0.930 . S
C892 C890 1.378 . S
C892 C893 1.367 . S
C893 C892 1.367 . S
C893 C895 1.433 . S
C894 C890 1.350 . S
C894 C891 1.463 . S
C894 N898 1.427 . S
C895 H885 0.929 . S
C895 C893 1.433 . S
C895 N898 1.384 . S
C896 H887 0.929 . S
C896 C888 1.378 . S
C896 C891 1.350 . S
C897 H884 0.929 . S
C897 C889 1.433 . S
C897 N899 1.384 . S
N898 C894 1.427 . S
N898 C895 1.384 . S
N899 C891 1.427 . S
N899 C897 1.384 . S
H900 C906 0.930 . S
H901 C910 0.930 . S
H902 C915 0.929 . S
H903 C913 0.929 . S
H904 C908 0.929 . S
H905 C914 0.929 . S
C906 H900 0.930 . S
C906 C907 1.367 . S
C906 C914 1.378 . S
C907 C906 1.367 . S
C907 C915 1.433 . S
C908 H904 0.929 . S
C908 C910 1.378 . S
C908 C912 1.350 . S
C909 C912 1.463 . S
C909 C914 1.350 . S
C909 N917 1.427 . S
C910 H901 0.930 . S
C910 C908 1.378 . S
C910 C911 1.367 . S
C911 C910 1.367 . S
C911 C913 1.433 . S
C912 C908 1.350 . S
C912 C909 1.463 . S
C912 N916 1.427 . S
C913 H903 0.929 . S
C913 C911 1.433 . S
C913 N916 1.384 . S
C914 H905 0.929 . S
C914 C906 1.378 . S
C914 C909 1.350 . S
C915 H902 0.929 . S
C915 C907 1.433 . S
C915 N917 1.384 . S
N916 C912 1.427 . S
N916 C913 1.384 . S
N917 C909 1.427 . S
N917 C915 1.384 . S
H918 C924 0.930 . S
H919 C928 0.930 . S
H920 C933 0.929 . S
H921 C931 0.929 . S
H922 C926 0.929 . S
H923 C932 0.929 . S
C924 H918 0.930 . S
C924 C925 1.367 . S
C924 C932 1.378 . S
C925 C924 1.367 . S
C925 C933 1.433 . S
C926 H922 0.929 . S
C926 C928 1.378 . S
C926 C930 1.350 . S
C927 C930 1.463 . S
C927 C932 1.350 . S
C927 N935 1.427 . S
C928 H919 0.930 . S
C928 C926 1.378 . S
C928 C929 1.367 . S
C929 C928 1.367 . S
C929 C931 1.433 . S
C930 C926 1.350 . S
C930 C927 1.463 . S
C930 N934 1.427 . S
C931 H921 0.929 . S
C931 C929 1.433 . S
C931 N934 1.384 . S
C932 H923 0.929 . S
C932 C924 1.378 . S
C932 C927 1.350 . S
C933 H920 0.929 . S
C933 C925 1.433 . S
C933 N935 1.384 . S
N934 C930 1.427 . S
N934 C931 1.384 . S
N935 C927 1.427 . S
N935 C933 1.384 . S
H936 C942 0.930 . S
H937 C946 0.930 . S
H938 C951 0.929 . S
H939 C949 0.929 . S
H940 C944 0.929 . S
H941 C950 0.929 . S
C942 H936 0.930 . S
C942 C943 1.367 . S
C942 C950 1.378 1_545 S
C943 C942 1.367 . S
C943 C951 1.433 . S
C944 H940 0.929 . S
C944 C946 1.378 . S
C944 C948 1.350 . S
C945 C948 1.463 . S
C945 C950 1.350 . S
C945 N953 1.427 . S
C946 H937 0.930 . S
C946 C944 1.378 . S
C946 C947 1.367 . S
C947 C946 1.367 . S
C947 C949 1.433 . S
C948 C944 1.350 . S
C948 C945 1.463 . S
C948 N952 1.427 . S
C949 H939 0.929 . S
C949 C947 1.433 . S
C949 N952 1.384 . S
C950 H941 0.929 . S
C950 C942 1.378 1_565 S
C950 C945 1.350 . S
C951 H938 0.929 . S
C951 C943 1.433 . S
C951 N953 1.384 1_545 S
N952 C948 1.427 . S
N952 C949 1.384 . S
N953 C945 1.427 . S
N953 C951 1.384 1_565 S
H954 C960 0.930 . S
H955 C964 0.930 . S
H956 C969 0.929 . S
H957 C967 0.929 . S
H958 C962 0.929 . S
H959 C968 0.929 . S
C960 H954 0.930 . S
C960 C961 1.367 1_455 S
C960 C968 1.378 . S
C961 C960 1.367 1_655 S
C961 C969 1.433 . S
C962 H958 0.929 . S
C962 C964 1.378 . S
C962 C966 1.350 . S
C963 C966 1.463 . S
C963 C968 1.350 . S
C963 N971 1.427 . S
C964 H955 0.930 . S
C964 C962 1.378 . S
C964 C965 1.367 . S
C965 C964 1.367 . S
C965 C967 1.433 . S
C966 C962 1.350 . S
C966 C963 1.463 . S
C966 N970 1.427 . S
C967 H957 0.929 . S
C967 C965 1.433 . S
C967 N970 1.384 . S
C968 H959 0.929 . S
C968 C960 1.378 . S
C968 C963 1.350 . S
C969 H956 0.929 . S
C969 C961 1.433 . S
C969 N971 1.384 1_655 S
N970 C966 1.427 . S
N970 C967 1.384 . S
N971 C963 1.427 . S
N971 C969 1.384 1_455 S
H972 C978 0.930 . S
H973 C982 0.930 . S
H974 C987 0.929 . S
H975 C985 0.929 . S
H976 C980 0.929 . S
H977 C986 0.929 . S
C978 H972 0.930 . S
C978 C979 1.367 . S
C978 C986 1.378 . S
C979 C978 1.367 . S
C979 C987 1.433 . S
C980 H976 0.929 . S
C980 C982 1.378 . S
C980 C984 1.350 . S
C981 C984 1.463 . S
C981 C986 1.350 . S
C981 N989 1.427 . S
C982 H973 0.930 . S
C982 C980 1.378 . S
C982 C983 1.367 . S
C983 C982 1.367 . S
C983 C985 1.433 . S
C984 C980 1.350 . S
C984 C981 1.463 . S
C984 N988 1.427 . S
C985 H975 0.929 . S
C985 C983 1.433 . S
C985 N988 1.384 . S
C986 H977 0.929 . S
C986 C978 1.378 . S
C986 C981 1.350 . S
C987 H974 0.929 . S
C987 C979 1.433 . S
C987 N989 1.384 . S
N988 C984 1.427 . S
N988 C985 1.384 . S
N989 C981 1.427 . S
N989 C987 1.384 . S
H990 C996 0.930 . S
H991 C1000 0.930 . S
H992 C1005 0.929 . S
H993 C1003 0.929 . S
H994 C998 0.929 . S
H995 C1004 0.929 . S
C996 H990 0.930 . S
C996 C997 1.367 . S
C996 C1004 1.378 . S
C997 C996 1.367 . S
C997 C1005 1.433 . S
C998 H994 0.929 . S
C998 C1000 1.378 . S
C998 C1002 1.350 . S
C999 C1002 1.463 . S
C999 C1004 1.350 . S
C999 N1007 1.427 . S
C1000 H991 0.930 . S
C1000 C998 1.378 . S
C1000 C1001 1.367 . S
C1001 C1000 1.367 . S
C1001 C1003 1.433 . S
C1002 C998 1.350 . S
C1002 C999 1.463 . S
C1002 N1006 1.427 . S
C1003 H993 0.929 . S
C1003 C1001 1.433 . S
C1003 N1006 1.384 . S
C1004 H995 0.929 . S
C1004 C996 1.378 . S
C1004 C999 1.350 . S
C1005 H992 0.929 . S
C1005 C997 1.433 . S
C1005 N1007 1.384 . S
N1006 C1002 1.427 . S
N1006 C1003 1.384 . S
N1007 C999 1.427 . S
N1007 C1005 1.384 . S
H1008 C1014 0.930 . S
H1009 C1018 0.930 . S
H1010 C1023 0.929 . S
H1011 C1021 0.929 . S
H1012 C1016 0.929 . S
H1013 C1022 0.929 . S
C1014 H1008 0.930 . S
C1014 C1015 1.367 . S
C1014 C1022 1.378 . S
C1015 C1014 1.367 . S
C1015 C1023 1.433 . S
C1016 H1012 0.929 . S
C1016 C1018 1.378 . S
C1016 C1020 1.350 . S
C1017 C1020 1.463 . S
C1017 C1022 1.350 . S
C1017 N1025 1.427 . S
C1018 H1009 0.930 . S
C1018 C1016 1.378 . S
C1018 C1019 1.367 . S
C1019 C1018 1.367 . S
C1019 C1021 1.433 . S
C1020 C1016 1.350 . S
C1020 C1017 1.463 . S
C1020 N1024 1.427 . S
C1021 H1011 0.929 . S
C1021 C1019 1.433 . S
C1021 N1024 1.384 . S
C1022 H1013 0.929 . S
C1022 C1014 1.378 . S
C1022 C1017 1.350 . S
C1023 H1010 0.929 . S
C1023 C1015 1.433 . S
C1023 N1025 1.384 . S
N1024 C1020 1.427 . S
N1024 C1021 1.384 . S
N1025 C1017 1.427 . S
N1025 C1023 1.384 . S
H1026 C1032 0.930 . S
H1027 C1036 0.930 . S
H1028 C1041 0.929 . S
H1029 C1039 0.929 . S
H1030 C1034 0.929 . S
H1031 C1040 0.929 . S
C1032 H1026 0.930 . S
C1032 C1033 1.367 . S
C1032 C1040 1.378 . S
C1033 C1032 1.367 . S
C1033 C1041 1.433 . S
C1034 H1030 0.929 . S
C1034 C1036 1.378 . S
C1034 C1038 1.350 . S
C1035 C1038 1.463 . S
C1035 C1040 1.350 . S
C1035 N1043 1.427 . S
C1036 H1027 0.930 . S
C1036 C1034 1.378 . S
C1036 C1037 1.367 . S
C1037 C1036 1.367 . S
C1037 C1039 1.433 . S
C1038 C1034 1.350 . S
C1038 C1035 1.463 . S
C1038 N1042 1.427 . S
C1039 H1029 0.929 . S
C1039 C1037 1.433 . S
C1039 N1042 1.384 . S
C1040 H1031 0.929 . S
C1040 C1032 1.378 . S
C1040 C1035 1.350 . S
C1041 H1028 0.929 . S
C1041 C1033 1.433 . S
C1041 N1043 1.384 . S
N1042 C1038 1.427 . S
N1042 C1039 1.384 . S
N1043 C1035 1.427 . S
N1043 C1041 1.384 . S
H1044 C1050 0.930 . S
H1045 C1054 0.930 . S
H1046 C1059 0.929 . S
H1047 C1057 0.929 . S
H1048 C1052 0.929 . S
H1049 C1058 0.929 . S
C1050 H1044 0.930 . S
C1050 C1051 1.367 . S
C1050 C1058 1.378 . S
C1051 C1050 1.367 . S
C1051 C1059 1.433 . S
C1052 H1048 0.929 . S
C1052 C1054 1.378 . S
C1052 C1056 1.350 . S
C1053 C1056 1.463 1_565 S
C1053 C1058 1.350 . S
C1053 N1061 1.427 . S
C1054 H1045 0.930 . S
C1054 C1052 1.378 . S
C1054 C1055 1.367 . S
C1055 C1054 1.367 . S
C1055 C1057 1.433 . S
C1056 C1052 1.350 . S
C1056 C1053 1.463 1_545 S
C1056 N1060 1.427 . S
C1057 H1047 0.929 . S
C1057 C1055 1.433 . S
C1057 N1060 1.384 . S
C1058 H1049 0.929 . S
C1058 C1050 1.378 . S
C1058 C1053 1.350 . S
C1059 H1046 0.929 . S
C1059 C1051 1.433 . S
C1059 N1061 1.384 . S
N1060 C1056 1.427 . S
N1060 C1057 1.384 . S
N1061 C1053 1.427 . S
N1061 C1059 1.384 . S
H1062 C1068 0.930 . S
H1063 C1072 0.930 . S
H1064 C1077 0.929 . S
H1065 C1075 0.929 . S
H1066 C1070 0.929 1_455 S
H1067 C1076 0.929 . S
C1068 H1062 0.930 . S
C1068 C1069 1.367 . S
C1068 C1076 1.378 . S
C1069 C1068 1.367 . S
C1069 C1077 1.433 . S
C1070 H1066 0.929 1_655 S
C1070 C1072 1.378 . S
C1070 C1074 1.350 . S
C1071 C1074 1.463 1_455 S
C1071 C1076 1.350 . S
C1071 N1079 1.427 . S
C1072 H1063 0.930 . S
C1072 C1070 1.378 . S
C1072 C1073 1.367 . S
C1073 C1072 1.367 . S
C1073 C1075 1.433 . S
C1074 C1070 1.350 . S
C1074 C1071 1.463 1_655 S
C1074 N1078 1.427 . S
C1075 H1065 0.929 . S
C1075 C1073 1.433 . S
C1075 N1078 1.384 . S
C1076 H1067 0.929 . S
C1076 C1068 1.378 . S
C1076 C1071 1.350 . S
C1077 H1064 0.929 . S
C1077 C1069 1.433 . S
C1077 N1079 1.384 . S
N1078 C1074 1.427 . S
N1078 C1075 1.384 . S
N1079 C1071 1.427 . S
N1079 C1077 1.384 . S
H1080 C1086 0.930 . S
H1081 C1090 0.930 . S
H1082 C1095 0.929 . S
H1083 C1093 0.929 . S
H1084 C1088 0.929 . S
H1085 C1094 0.929 . S
C1086 H1080 0.930 . S
C1086 C1087 1.367 . S
C1086 C1094 1.378 . S
C1087 C1086 1.367 . S
C1087 C1095 1.433 . S
C1088 H1084 0.929 . S
C1088 C1090 1.378 . S
C1088 C1092 1.350 . S
C1089 C1092 1.463 . S
C1089 C1094 1.350 . S
C1089 N1097 1.427 . S
C1090 H1081 0.930 . S
C1090 C1088 1.378 . S
C1090 C1091 1.367 . S
C1091 C1090 1.367 . S
C1091 C1093 1.433 . S
C1092 C1088 1.350 . S
C1092 C1089 1.463 . S
C1092 N1096 1.427 . S
C1093 H1083 0.929 . S
C1093 C1091 1.433 . S
C1093 N1096 1.384 . S
C1094 H1085 0.929 . S
C1094 C1086 1.378 . S
C1094 C1089 1.350 . S
C1095 H1082 0.929 . S
C1095 C1087 1.433 . S
C1095 N1097 1.384 . S
N1096 C1092 1.427 . S
N1096 C1093 1.384 . S
N1097 C1089 1.427 . S
N1097 C1095 1.384 . S
H1098 C1104 0.930 . S
H1099 C1108 0.930 . S
H1100 C1113 0.929 . S
H1101 C1111 0.929 . S
H1102 C1106 0.929 . S
H1103 C1112 0.929 . S
C1104 H1098 0.930 . S
C1104 C1105 1.367 . S
C1104 C1112 1.378 1_455 S
C1105 C1104 1.367 . S
C1105 C1113 1.433 . S
C1106 H1102 0.929 . S
C1106 C1108 1.378 . S
C1106 C1110 1.350 . S
C1107 C1110 1.463 . S
C1107 C1112 1.350 . S
C1107 N1115 1.427 . S
C1108 H1099 0.930 . S
C1108 C1106 1.378 . S
C1108 C1109 1.367 . S
C1109 C1108 1.367 . S
C1109 C1111 1.433 . S
C1110 C1106 1.350 . S
C1110 C1107 1.463 . S
C1110 N1114 1.427 . S
C1111 H1101 0.929 . S
C1111 C1109 1.433 . S
C1111 N1114 1.384 . S
C1112 H1103 0.929 . S
C1112 C1104 1.378 1_655 S
C1112 C1107 1.350 . S
C1113 H1100 0.929 . S
C1113 C1105 1.433 . S
C1113 N1115 1.384 1_455 S
N1114 C1110 1.427 . S
N1114 C1111 1.384 . S
N1115 C1107 1.427 . S
N1115 C1113 1.384 1_655 S
H1116 C1122 0.930 . S
H1117 C1126 0.930 . S
H1118 C1131 0.929 . S
H1119 C1129 0.929 . S
H1120 C1124 0.929 . S
H1121 C1130 0.929 . S
C1122 H1116 0.930 . S
C1122 C1123 1.367 . S
C1122 C1130 1.378 . S
C1123 C1122 1.367 . S
C1123 C1131 1.433 . S
C1124 H1120 0.929 . S
C1124 C1126 1.378 . S
C1124 C1128 1.350 . S
C1125 C1128 1.463 . S
C1125 C1130 1.350 . S
C1125 N1133 1.427 . S
C1126 H1117 0.930 . S
C1126 C1124 1.378 . S
C1126 C1127 1.367 . S
C1127 C1126 1.367 . S
C1127 C1129 1.433 . S
C1128 C1124 1.350 . S
C1128 C1125 1.463 . S
C1128 N1132 1.427 . S
C1129 H1119 0.929 . S
C1129 C1127 1.433 . S
C1129 N1132 1.384 . S
C1130 H1121 0.929 . S
C1130 C1122 1.378 . S
C1130 C1125 1.350 . S
C1131 H1118 0.929 . S
C1131 C1123 1.433 . S
C1131 N1133 1.384 . S
N1132 C1128 1.427 . S
N1132 C1129 1.384 . S
N1133 C1125 1.427 . S
N1133 C1131 1.384 . S
H1134 C1140 0.930 . S
H1135 C1144 0.930 . S
H1136 C1149 0.929 . S
H1137 C1147 0.929 . S
H1138 C1142 0.929 . S
H1139 C1148 0.929 . S
C1140 H1134 0.930 . S
C1140 C1141 1.367 . S
C1140 C1148 1.378 1_565 S
C1141 C1140 1.367 . S
C1141 C1149 1.433 . S
C1142 H1138 0.929 . S
C1142 C1144 1.378 . S
C1142 C1146 1.350 . S
C1143 C1146 1.463 . S
C1143 C1148 1.350 . S
C1143 N1151 1.427 . S
C1144 H1135 0.930 . S
C1144 C1142 1.378 . S
C1144 C1145 1.367 . S
C1145 C1144 1.367 . S
C1145 C1147 1.433 . S
C1146 C1142 1.350 . S
C1146 C1143 1.463 . S
C1146 N1150 1.427 . S
C1147 H1137 0.929 . S
C1147 C1145 1.433 . S
C1147 N1150 1.384 . S
C1148 H1139 0.929 . S
C1148 C1140 1.378 1_545 S
C1148 C1143 1.350 . S
C1149 H1136 0.929 . S
C1149 C1141 1.433 . S
C1149 N1151 1.384 1_565 S
N1150 C1146 1.427 . S
N1150 C1147 1.384 . S
N1151 C1143 1.427 . S
N1151 C1149 1.384 1_545 S
H1152 C1158 0.930 . S
H1153 C1162 0.930 . S
H1154 C1167 0.929 . S
H1155 C1165 0.929 . S
H1156 C1160 0.929 . S
H1157 C1166 0.929 . S
C1158 H1152 0.930 . S
C1158 C1159 1.367 . S
C1158 C1166 1.378 . S
C1159 C1158 1.367 . S
C1159 C1167 1.433 . S
C1160 H1156 0.929 . S
C1160 C1162 1.378 . S
C1160 C1164 1.350 . S
C1161 C1164 1.463 . S
C1161 C1166 1.350 . S
C1161 N1169 1.427 . S
C1162 H1153 0.930 . S
C1162 C1160 1.378 . S
C1162 C1163 1.367 . S
C1163 C1162 1.367 . S
C1163 C1165 1.433 . S
C1164 C1160 1.350 . S
C1164 C1161 1.463 . S
C1164 N1168 1.427 . S
C1165 H1155 0.929 . S
C1165 C1163 1.433 . S
C1165 N1168 1.384 . S
C1166 H1157 0.929 . S
C1166 C1158 1.378 . S
C1166 C1161 1.350 . S
C1167 H1154 0.929 . S
C1167 C1159 1.433 . S
C1167 N1169 1.384 . S
N1168 C1164 1.427 . S
N1168 C1165 1.384 . S
N1169 C1161 1.427 . S
N1169 C1167 1.384 . S
H1170 C1176 0.930 . S
H1171 C1180 0.930 . S
H1172 C1185 0.929 . S
H1173 C1183 0.929 . S
H1174 C1178 0.929 . S
H1175 C1184 0.929 . S
C1176 H1170 0.930 . S
C1176 C1177 1.367 . S
C1176 C1184 1.378 . S
C1177 C1176 1.367 . S
C1177 C1185 1.433 . S
C1178 H1174 0.929 . S
C1178 C1180 1.378 . S
C1178 C1182 1.350 . S
C1179 C1182 1.463 . S
C1179 C1184 1.350 . S
C1179 N1187 1.427 . S
C1180 H1171 0.930 . S
C1180 C1178 1.378 . S
C1180 C1181 1.367 . S
C1181 C1180 1.367 . S
C1181 C1183 1.433 . S
C1182 C1178 1.350 . S
C1182 C1179 1.463 . S
C1182 N1186 1.427 . S
C1183 H1173 0.929 . S
C1183 C1181 1.433 . S
C1183 N1186 1.384 . S
C1184 H1175 0.929 . S
C1184 C1176 1.378 . S
C1184 C1179 1.350 . S
C1185 H1172 0.929 . S
C1185 C1177 1.433 . S
C1185 N1187 1.384 . S
N1186 C1182 1.427 . S
N1186 C1183 1.384 . S
N1187 C1179 1.427 . S
N1187 C1185 1.384 . S
H1188 C1194 0.930 . S
H1189 C1198 0.930 . S
H1190 C1203 0.929 . S
H1191 C1201 0.929 . S
H1192 C1196 0.929 . S
H1193 C1202 0.929 . S
C1194 H1188 0.930 . S
C1194 C1195 1.367 . S
C1194 C1202 1.378 . S
C1195 C1194 1.367 . S
C1195 C1203 1.433 . S
C1196 H1192 0.929 . S
C1196 C1198 1.378 . S
C1196 C1200 1.350 . S
C1197 C1200 1.463 . S
C1197 C1202 1.350 . S
C1197 N1205 1.427 . S
C1198 H1189 0.930 . S
C1198 C1196 1.378 . S
C1198 C1199 1.367 . S
C1199 C1198 1.367 . S
C1199 C1201 1.433 . S
C1200 C1196 1.350 . S
C1200 C1197 1.463 . S
C1200 N1204 1.427 . S
C1201 H1191 0.929 . S
C1201 C1199 1.433 . S
C1201 N1204 1.384 . S
C1202 H1193 0.929 . S
C1202 C1194 1.378 . S
C1202 C1197 1.350 . S
C1203 H1190 0.929 . S
C1203 C1195 1.433 . S
C1203 N1205 1.384 . S
N1204 C1200 1.427 . S
N1204 C1201 1.384 . S
N1205 C1197 1.427 . S
N1205 C1203 1.384 . S
H1206 C1212 0.930 . S
H1207 C1216 0.930 1_545 S
H1208 C1221 0.929 . S
H1209 C1219 0.929 . S
H1210 C1214 0.929 . S
H1211 C1220 0.929 . S
C1212 H1206 0.930 . S
C1212 C1213 1.367 . S
C1212 C1220 1.378 . S
C1213 C1212 1.367 . S
C1213 C1221 1.433 . S
C1214 H1210 0.929 . S
C1214 C1216 1.378 . S
C1214 C1218 1.350 . S
C1215 C1218 1.463 . S
C1215 C1220 1.350 . S
C1215 N1223 1.427 . S
C1216 H1207 0.930 1_565 S
C1216 C1214 1.378 . S
C1216 C1217 1.367 . S
C1217 C1216 1.367 . S
C1217 C1219 1.433 . S
C1218 C1214 1.350 . S
C1218 C1215 1.463 . S
C1218 N1222 1.427 . S
C1219 H1209 0.929 . S
C1219 C1217 1.433 . S
C1219 N1222 1.384 . S
C1220 H1211 0.929 . S
C1220 C1212 1.378 . S
C1220 C1215 1.350 . S
C1221 H1208 0.929 . S
C1221 C1213 1.433 . S
C1221 N1223 1.384 . S
N1222 C1218 1.427 . S
N1222 C1219 1.384 . S
N1223 C1215 1.427 . S
N1223 C1221 1.384 . S
H1224 C1230 0.930 . S
H1225 C1234 0.930 . S
H1226 C1239 0.929 . S
H1227 C1237 0.929 . S
H1228 C1232 0.929 . S
H1229 C1238 0.929 . S
C1230 H1224 0.930 . S
C1230 C1231 1.367 . S
C1230 C1238 1.378 . S
C1231 C1230 1.367 . S
C1231 C1239 1.433 . S
C1232 H1228 0.929 . S
C1232 C1234 1.378 . S
C1232 C1236 1.350 . S
C1233 C1236 1.463 . S
C1233 C1238 1.350 . S
C1233 N1241 1.427 . S
C1234 H1225 0.930 . S
C1234 C1232 1.378 . S
C1234 C1235 1.367 . S
C1235 C1234 1.367 . S
C1235 C1237 1.433 . S
C1236 C1232 1.350 . S
C1236 C1233 1.463 . S
C1236 N1240 1.427 . S
C1237 H1227 0.929 . S
C1237 C1235 1.433 . S
C1237 N1240 1.384 . S
C1238 H1229 0.929 . S
C1238 C1230 1.378 . S
C1238 C1233 1.350 . S
C1239 H1226 0.929 . S
C1239 C1231 1.433 . S
C1239 N1241 1.384 . S
N1240 C1236 1.427 . S
N1240 C1237 1.384 . S
N1241 C1233 1.427 . S
N1241 C1239 1.384 . S
H1242 C1248 0.930 . S
H1243 C1252 0.930 . S
H1244 C1257 0.929 . S
H1245 C1255 0.929 . S
H1246 C1250 0.929 . S
H1247 C1256 0.929 . S
C1248 H1242 0.930 . S
C1248 C1249 1.367 . S
C1248 C1256 1.378 . S
C1249 C1248 1.367 . S
C1249 C1257 1.433 . S
C1250 H1246 0.929 . S
C1250 C1252 1.378 . S
C1250 C1254 1.350 . S
C1251 C1254 1.463 . S
C1251 C1256 1.350 . S
C1251 N1259 1.427 . S
C1252 H1243 0.930 . S
C1252 C1250 1.378 . S
C1252 C1253 1.367 . S
C1253 C1252 1.367 . S
C1253 C1255 1.433 . S
C1254 C1250 1.350 . S
C1254 C1251 1.463 . S
C1254 N1258 1.427 . S
C1255 H1245 0.929 . S
C1255 C1253 1.433 . S
C1255 N1258 1.384 . S
C1256 H1247 0.929 . S
C1256 C1248 1.378 . S
C1256 C1251 1.350 . S
C1257 H1244 0.929 . S
C1257 C1249 1.433 . S
C1257 N1259 1.384 . S
N1258 C1254 1.427 . S
N1258 C1255 1.384 . S
N1259 C1251 1.427 . S
N1259 C1257 1.384 . S
H1260 C1266 0.930 . S
H1261 C1270 0.930 . S
H1262 C1275 0.929 . S
H1263 C1273 0.929 . S
H1264 C1268 0.929 . S
H1265 C1274 0.929 . S
C1266 H1260 0.930 . S
C1266 C1267 1.367 . S
C1266 C1274 1.378 . S
C1267 C1266 1.367 . S
C1267 C1275 1.433 . S
C1268 H1264 0.929 . S
C1268 C1270 1.378 . S
C1268 C1272 1.350 . S
C1269 C1272 1.463 . S
C1269 C1274 1.350 . S
C1269 N1277 1.427 . S
C1270 H1261 0.930 . S
C1270 C1268 1.378 . S
C1270 C1271 1.367 . S
C1271 C1270 1.367 . S
C1271 C1273 1.433 . S
C1272 C1268 1.350 . S
C1272 C1269 1.463 . S
C1272 N1276 1.427 . S
C1273 H1263 0.929 . S
C1273 C1271 1.433 . S
C1273 N1276 1.384 . S
C1274 H1265 0.929 . S
C1274 C1266 1.378 . S
C1274 C1269 1.350 . S
C1275 H1262 0.929 . S
C1275 C1267 1.433 . S
C1275 N1277 1.384 . S
N1276 C1272 1.427 . S
N1276 C1273 1.384 . S
N1277 C1269 1.427 . S
N1277 C1275 1.384 . S
H1278 C1284 0.930 . S
H1279 C1288 0.930 . S
H1280 C1293 0.929 . S
H1281 C1291 0.929 . S
H1282 C1286 0.929 . S
H1283 C1292 0.929 . S
C1284 H1278 0.930 . S
C1284 C1285 1.367 . S
C1284 C1292 1.378 . S
C1285 C1284 1.367 . S
C1285 C1293 1.433 . S
C1286 H1282 0.929 . S
C1286 C1288 1.378 . S
C1286 C1290 1.350 . S
C1287 C1290 1.463 . S
C1287 C1292 1.350 . S
C1287 N1295 1.427 . S
C1288 H1279 0.930 . S
C1288 C1286 1.378 . S
C1288 C1289 1.367 . S
C1289 C1288 1.367 . S
C1289 C1291 1.433 . S
C1290 C1286 1.350 . S
C1290 C1287 1.463 . S
C1290 N1294 1.427 . S
C1291 H1281 0.929 . S
C1291 C1289 1.433 . S
C1291 N1294 1.384 . S
C1292 H1283 0.929 . S
C1292 C1284 1.378 . S
C1292 C1287 1.350 . S
C1293 H1280 0.929 . S
C1293 C1285 1.433 . S
C1293 N1295 1.384 . S
N1294 C1290 1.427 . S
N1294 C1291 1.384 . S
N1295 C1287 1.427 . S
N1295 C1293 1.384 . S
H1296 C1302 0.930 . S
H1297 C1306 0.930 . S
H1298 C1311 0.929 . S
H1299 C1309 0.929 . S
H1300 C1304 0.929 . S
H1301 C1310 0.929 . S
C1302 H1296 0.930 . S
C1302 C1303 1.367 . S
C1302 C1310 1.378 . S
C1303 C1302 1.367 . S
C1303 C1311 1.433 . S
C1304 H1300 0.929 . S
C1304 C1306 1.378 . S
C1304 C1308 1.350 . S
C1305 C1308 1.463 . S
C1305 C1310 1.350 . S
C1305 N1313 1.427 . S
C1306 H1297 0.930 . S
C1306 C1304 1.378 . S
C1306 C1307 1.367 . S
C1307 C1306 1.367 . S
C1307 C1309 1.433 . S
C1308 C1304 1.350 . S
C1308 C1305 1.463 . S
C1308 N1312 1.427 . S
C1309 H1299 0.929 . S
C1309 C1307 1.433 . S
C1309 N1312 1.384 . S
C1310 H1301 0.929 . S
C1310 C1302 1.378 . S
C1310 C1305 1.350 . S
C1311 H1298 0.929 . S
C1311 C1303 1.433 . S
C1311 N1313 1.384 . S
N1312 C1308 1.427 . S
N1312 C1309 1.384 . S
N1313 C1305 1.427 . S
N1313 C1311 1.384 . S
H1314 C1320 0.930 . S
H1315 C1324 0.930 . S
H1316 C1329 0.929 . S
H1317 C1327 0.929 . S
H1318 C1322 0.929 . S
H1319 C1328 0.929 . S
C1320 H1314 0.930 . S
C1320 C1321 1.367 . S
C1320 C1328 1.378 . S
C1321 C1320 1.367 . S
C1321 C1329 1.433 . S
C1322 H1318 0.929 . S
C1322 C1324 1.378 . S
C1322 C1326 1.350 . S
C1323 C1326 1.463 . S
C1323 C1328 1.350 . S
C1323 N1331 1.427 . S
C1324 H1315 0.930 . S
C1324 C1322 1.378 . S
C1324 C1325 1.367 . S
C1325 C1324 1.367 . S
C1325 C1327 1.433 . S
C1326 C1322 1.350 . S
C1326 C1323 1.463 . S
C1326 N1330 1.427 . S
C1327 H1317 0.929 . S
C1327 C1325 1.433 . S
C1327 N1330 1.384 . S
C1328 H1319 0.929 . S
C1328 C1320 1.378 . S
C1328 C1323 1.350 . S
C1329 H1316 0.929 . S
C1329 C1321 1.433 . S
C1329 N1331 1.384 . S
N1330 C1326 1.427 . S
N1330 C1327 1.384 . S
N1331 C1323 1.427 . S
N1331 C1329 1.384 . S
H1332 C1338 0.930 . S
H1333 C1342 0.930 . S
H1334 C1347 0.929 . S
H1335 C1345 0.929 . S
H1336 C1340 0.929 . S
H1337 C1346 0.929 . S
C1338 H1332 0.930 . S
C1338 C1339 1.367 . S
C1338 C1346 1.378 . S
C1339 C1338 1.367 . S
C1339 C1347 1.433 . S
C1340 H1336 0.929 . S
C1340 C1342 1.378 . S
C1340 C1344 1.350 . S
C1341 C1344 1.463 . S
C1341 C1346 1.350 . S
C1341 N1349 1.427 . S
C1342 H1333 0.930 . S
C1342 C1340 1.378 . S
C1342 C1343 1.367 . S
C1343 C1342 1.367 . S
C1343 C1345 1.433 . S
C1344 C1340 1.350 . S
C1344 C1341 1.463 . S
C1344 N1348 1.427 . S
C1345 H1335 0.929 . S
C1345 C1343 1.433 . S
C1345 N1348 1.384 . S
C1346 H1337 0.929 . S
C1346 C1338 1.378 . S
C1346 C1341 1.350 . S
C1347 H1334 0.929 . S
C1347 C1339 1.433 . S
C1347 N1349 1.384 . S
N1348 C1344 1.427 . S
N1348 C1345 1.384 . S
N1349 C1341 1.427 . S
N1349 C1347 1.384 . S
H1350 C1356 0.930 . S
H1351 C1360 0.930 . S
H1352 C1365 0.929 . S
H1353 C1363 0.929 . S
H1354 C1358 0.929 . S
H1355 C1364 0.929 . S
C1356 H1350 0.930 . S
C1356 C1357 1.367 . S
C1356 C1364 1.378 . S
C1357 C1356 1.367 . S
C1357 C1365 1.433 . S
C1358 H1354 0.929 . S
C1358 C1360 1.378 . S
C1358 C1362 1.350 . S
C1359 C1362 1.463 . S
C1359 C1364 1.350 . S
C1359 N1367 1.427 . S
C1360 H1351 0.930 . S
C1360 C1358 1.378 . S
C1360 C1361 1.367 . S
C1361 C1360 1.367 . S
C1361 C1363 1.433 . S
C1362 C1358 1.350 . S
C1362 C1359 1.463 . S
C1362 N1366 1.427 . S
C1363 H1353 0.929 . S
C1363 C1361 1.433 . S
C1363 N1366 1.384 . S
C1364 H1355 0.929 . S
C1364 C1356 1.378 . S
C1364 C1359 1.350 . S
C1365 H1352 0.929 . S
C1365 C1357 1.433 . S
C1365 N1367 1.384 . S
N1366 C1362 1.427 . S
N1366 C1363 1.384 . S
N1367 C1359 1.427 . S
N1367 C1365 1.384 . S
H1368 C1374 0.930 . S
H1369 C1378 0.930 . S
H1370 C1383 0.929 . S
H1371 C1381 0.929 . S
H1372 C1376 0.929 . S
H1373 C1382 0.929 . S
C1374 H1368 0.930 . S
C1374 C1375 1.367 . S
C1374 C1382 1.378 . S
C1375 C1374 1.367 . S
C1375 C1383 1.433 . S
C1376 H1372 0.929 . S
C1376 C1378 1.378 . S
C1376 C1380 1.350 . S
C1377 C1380 1.463 . S
C1377 C1382 1.350 . S
C1377 N1385 1.427 . S
C1378 H1369 0.930 . S
C1378 C1376 1.378 . S
C1378 C1379 1.367 . S
C1379 C1378 1.367 . S
C1379 C1381 1.433 . S
C1380 C1376 1.350 . S
C1380 C1377 1.463 . S
C1380 N1384 1.427 . S
C1381 H1371 0.929 . S
C1381 C1379 1.433 . S
C1381 N1384 1.384 . S
C1382 H1373 0.929 . S
C1382 C1374 1.378 . S
C1382 C1377 1.350 . S
C1383 H1370 0.929 . S
C1383 C1375 1.433 . S
C1383 N1385 1.384 . S
N1384 C1380 1.427 . S
N1384 C1381 1.384 . S
N1385 C1377 1.427 . S
N1385 C1383 1.384 . S
H1386 C1392 0.930 . S
H1387 C1396 0.930 . S
H1388 C1401 0.929 . S
H1389 C1399 0.929 . S
H1390 C1394 0.929 . S
H1391 C1400 0.929 . S
C1392 H1386 0.930 . S
C1392 C1393 1.367 . S
C1392 C1400 1.378 . S
C1393 C1392 1.367 . S
C1393 C1401 1.433 . S
C1394 H1390 0.929 . S
C1394 C1396 1.378 . S
C1394 C1398 1.350 . S
C1395 C1398 1.463 . S
C1395 C1400 1.350 . S
C1395 N1403 1.427 . S
C1396 H1387 0.930 . S
C1396 C1394 1.378 . S
C1396 C1397 1.367 . S
C1397 C1396 1.367 . S
C1397 C1399 1.433 . S
C1398 C1394 1.350 . S
C1398 C1395 1.463 . S
C1398 N1402 1.427 . S
C1399 H1389 0.929 . S
C1399 C1397 1.433 . S
C1399 N1402 1.384 . S
C1400 H1391 0.929 . S
C1400 C1392 1.378 . S
C1400 C1395 1.350 . S
C1401 H1388 0.929 . S
C1401 C1393 1.433 . S
C1401 N1403 1.384 . S
N1402 C1398 1.427 . S
N1402 C1399 1.384 . S
N1403 C1395 1.427 . S
N1403 C1401 1.384 . S
H1404 C1410 0.930 . S
H1405 C1414 0.930 . S
H1406 C1419 0.929 . S
H1407 C1417 0.929 . S
H1408 C1412 0.929 . S
H1409 C1418 0.929 . S
C1410 H1404 0.930 . S
C1410 C1411 1.367 . S
C1410 C1418 1.378 . S
C1411 C1410 1.367 . S
C1411 C1419 1.433 . S
C1412 H1408 0.929 . S
C1412 C1414 1.378 . S
C1412 C1416 1.350 . S
C1413 C1416 1.463 . S
C1413 C1418 1.350 . S
C1413 N1421 1.427 . S
C1414 H1405 0.930 . S
C1414 C1412 1.378 . S
C1414 C1415 1.367 . S
C1415 C1414 1.367 . S
C1415 C1417 1.433 . S
C1416 C1412 1.350 . S
C1416 C1413 1.463 . S
C1416 N1420 1.427 . S
C1417 H1407 0.929 . S
C1417 C1415 1.433 . S
C1417 N1420 1.384 . S
C1418 H1409 0.929 . S
C1418 C1410 1.378 . S
C1418 C1413 1.350 . S
C1419 H1406 0.929 . S
C1419 C1411 1.433 . S
C1419 N1421 1.384 . S
N1420 C1416 1.427 . S
N1420 C1417 1.384 . S
N1421 C1413 1.427 . S
N1421 C1419 1.384 . S
H1422 C1428 0.930 . S
H1423 C1432 0.930 . S
H1424 C1437 0.929 . S
H1425 C1435 0.929 . S
H1426 C1430 0.929 . S
H1427 C1436 0.929 . S
C1428 H1422 0.930 . S
C1428 C1429 1.367 . S
C1428 C1436 1.378 . S
C1429 C1428 1.367 . S
C1429 C1437 1.433 . S
C1430 H1426 0.929 . S
C1430 C1432 1.378 . S
C1430 C1434 1.350 . S
C1431 C1434 1.463 . S
C1431 C1436 1.350 . S
C1431 N1439 1.427 . S
C1432 H1423 0.930 . S
C1432 C1430 1.378 . S
C1432 C1433 1.367 . S
C1433 C1432 1.367 . S
C1433 C1435 1.433 . S
C1434 C1430 1.350 . S
C1434 C1431 1.463 . S
C1434 N1438 1.427 . S
C1435 H1425 0.929 . S
C1435 C1433 1.433 . S
C1435 N1438 1.384 . S
C1436 H1427 0.929 . S
C1436 C1428 1.378 . S
C1436 C1431 1.350 . S
C1437 H1424 0.929 . S
C1437 C1429 1.433 . S
C1437 N1439 1.384 . S
N1438 C1434 1.427 . S
N1438 C1435 1.384 . S
N1439 C1431 1.427 . S
N1439 C1437 1.384 . S
H1440 C1446 0.930 . S
H1441 C1450 0.930 . S
H1442 C1455 0.929 . S
H1443 C1453 0.929 . S
H1444 C1448 0.929 . S
H1445 C1454 0.929 . S
C1446 H1440 0.930 . S
C1446 C1447 1.367 . S
C1446 C1454 1.378 . S
C1447 C1446 1.367 . S
C1447 C1455 1.433 . S
C1448 H1444 0.929 . S
C1448 C1450 1.378 . S
C1448 C1452 1.350 . S
C1449 C1452 1.463 . S
C1449 C1454 1.350 . S
C1449 N1457 1.427 . S
C1450 H1441 0.930 . S
C1450 C1448 1.378 . S
C1450 C1451 1.367 . S
C1451 C1450 1.367 . S
C1451 C1453 1.433 . S
C1452 C1448 1.350 . S
C1452 C1449 1.463 . S
C1452 N1456 1.427 . S
C1453 H1443 0.929 . S
C1453 C1451 1.433 . S
C1453 N1456 1.384 . S
C1454 H1445 0.929 . S
C1454 C1446 1.378 . S
C1454 C1449 1.350 . S
C1455 H1442 0.929 . S
C1455 C1447 1.433 . S
C1455 N1457 1.384 . S
N1456 C1452 1.427 . S
N1456 C1453 1.384 . S
N1457 C1449 1.427 . S
N1457 C1455 1.384 . S
H1458 C1464 0.930 . S
H1459 C1468 0.930 . S
H1460 C1473 0.929 . S
H1461 C1471 0.929 . S
H1462 C1466 0.929 . S
H1463 C1472 0.929 . S
C1464 H1458 0.930 . S
C1464 C1465 1.367 . S
C1464 C1472 1.378 . S
C1465 C1464 1.367 . S
C1465 C1473 1.433 . S
C1466 H1462 0.929 . S
C1466 C1468 1.378 . S
C1466 C1470 1.350 . S
C1467 C1470 1.463 . S
C1467 C1472 1.350 . S
C1467 N1475 1.427 . S
C1468 H1459 0.930 . S
C1468 C1466 1.378 . S
C1468 C1469 1.367 . S
C1469 C1468 1.367 . S
C1469 C1471 1.433 . S
C1470 C1466 1.350 . S
C1470 C1467 1.463 . S
C1470 N1474 1.427 . S
C1471 H1461 0.929 . S
C1471 C1469 1.433 . S
C1471 N1474 1.384 . S
C1472 H1463 0.929 . S
C1472 C1464 1.378 . S
C1472 C1467 1.350 . S
C1473 H1460 0.929 . S
C1473 C1465 1.433 . S
C1473 N1475 1.384 . S
N1474 C1470 1.427 . S
N1474 C1471 1.384 . S
N1475 C1467 1.427 . S
N1475 C1473 1.384 . S
H1476 C1482 0.930 . S
H1477 C1486 0.930 . S
H1478 C1491 0.929 . S
H1479 C1489 0.929 . S
H1480 C1484 0.929 . S
H1481 C1490 0.929 . S
C1482 H1476 0.930 . S
C1482 C1483 1.367 . S
C1482 C1490 1.378 . S
C1483 C1482 1.367 . S
C1483 C1491 1.433 . S
C1484 H1480 0.929 . S
C1484 C1486 1.378 . S
C1484 C1488 1.350 . S
C1485 C1488 1.463 . S
C1485 C1490 1.350 . S
C1485 N1493 1.427 . S
C1486 H1477 0.930 . S
C1486 C1484 1.378 . S
C1486 C1487 1.367 . S
C1487 C1486 1.367 . S
C1487 C1489 1.433 . S
C1488 C1484 1.350 . S
C1488 C1485 1.463 . S
C1488 N1492 1.427 . S
C1489 H1479 0.929 . S
C1489 C1487 1.433 . S
C1489 N1492 1.384 . S
C1490 H1481 0.929 . S
C1490 C1482 1.378 . S
C1490 C1485 1.350 . S
C1491 H1478 0.929 . S
C1491 C1483 1.433 . S
C1491 N1493 1.384 . S
N1492 C1488 1.427 . S
N1492 C1489 1.384 . S
N1493 C1485 1.427 . S
N1493 C1491 1.384 . S
H1494 C1500 0.930 . S
H1495 C1504 0.930 . S
H1496 C1509 0.929 . S
H1497 C1507 0.929 . S
H1498 C1502 0.929 . S
H1499 C1508 0.929 . S
C1500 H1494 0.930 . S
C1500 C1501 1.367 . S
C1500 C1508 1.378 . S
C1501 C1500 1.367 . S
C1501 C1509 1.433 . S
C1502 H1498 0.929 . S
C1502 C1504 1.378 . S
C1502 C1506 1.350 . S
C1503 C1506 1.463 . S
C1503 C1508 1.350 . S
C1503 N1511 1.427 . S
C1504 H1495 0.930 . S
C1504 C1502 1.378 . S
C1504 C1505 1.367 . S
C1505 C1504 1.367 . S
C1505 C1507 1.433 . S
C1506 C1502 1.350 . S
C1506 C1503 1.463 . S
C1506 N1510 1.427 . S
C1507 H1497 0.929 . S
C1507 C1505 1.433 . S
C1507 N1510 1.384 . S
C1508 H1499 0.929 . S
C1508 C1500 1.378 . S
C1508 C1503 1.350 . S
C1509 H1496 0.929 . S
C1509 C1501 1.433 . S
C1509 N1511 1.384 . S
N1510 C1506 1.427 . S
N1510 C1507 1.384 . S
N1511 C1503 1.427 . S
N1511 C1509 1.384 . S
H1512 C1518 0.930 . S
H1513 C1522 0.930 . S
H1514 C1527 0.929 . S
H1515 C1525 0.929 . S
H1516 C1520 0.929 . S
H1517 C1526 0.929 . S
C1518 H1512 0.930 . S
C1518 C1519 1.367 . S
C1518 C1526 1.378 . S
C1519 C1518 1.367 . S
C1519 C1527 1.433 . S
C1520 H1516 0.929 . S
C1520 C1522 1.378 . S
C1520 C1524 1.350 . S
C1521 C1524 1.463 . S
C1521 C1526 1.350 . S
C1521 N1529 1.427 . S
C1522 H1513 0.930 . S
C1522 C1520 1.378 . S
C1522 C1523 1.367 . S
C1523 C1522 1.367 . S
C1523 C1525 1.433 . S
C1524 C1520 1.350 . S
C1524 C1521 1.463 . S
C1524 N1528 1.427 . S
C1525 H1515 0.929 . S
C1525 C1523 1.433 . S
C1525 N1528 1.384 . S
C1526 H1517 0.929 . S
C1526 C1518 1.378 . S
C1526 C1521 1.350 . S
C1527 H1514 0.929 . S
C1527 C1519 1.433 . S
C1527 N1529 1.384 . S
N1528 C1524 1.427 . S
N1528 C1525 1.384 . S
N1529 C1521 1.427 . S
N1529 C1527 1.384 . S
C565 C147 1.661 . S
C569 C207 1.657 . S
C583 C158 1.776 . S
C587 C247 1.768 . S
C601 C136 1.590 . S
C605 C286 1.558 . S
C619 C125 1.475 . S
C623 C246 1.435 1_556 S
C641 C287 1.498 . S
C637 C103 1.501 . S
C655 C114 1.363 . S
C659 C206 1.336 1_556 S
C677 C217 1.630 . S
C673 C131 1.645 . S
C695 C257 1.645 . S
C691 C109 1.660 . S
C709 C120 1.645 . S
C713 C296 1.658 . S
C727 C153 1.506 . S
C731 C256 1.508 . S
C745 C164 1.459 . S
C749 C297 1.435 . S
C767 C216 1.472 . S
C763 C142 1.459 . S
C785 C327 1.654 . S
C781 C15 1.660 . S
C799 C26 1.780 . S
C803 C367 1.774 . S
C817 C4 1.598 . S
C821 C406 1.564 . S
C835 C191 1.475 . S
C839 C366 1.436 . S
C853 C169 1.501 . S
C857 C407 1.496 . S
C871 C180 1.361 . S
C875 C326 1.349 . S
C889 C197 1.646 . S
C893 C337 1.631 . S
C907 C175 1.660 . S
C911 C377 1.645 . S
C929 C416 1.669 . S
C925 C186 1.654 . S
C943 C21 1.498 . S
C947 C376 1.498 . S
C965 C417 1.434 . S
C961 C32 1.456 . S
C979 C10 1.458 . S
C983 C336 1.478 . S
C1001 C447 1.651 . S
C997 C81 1.655 . S
C1015 C92 1.777 . S
C1019 C487 1.771 . S
C1037 C526 1.557 . S
C1033 C70 1.593 . S
C1055 C486 1.436 . S
C1051 C59 1.475 . S
C1073 C527 1.495 . S
C1069 C37 1.501 . S
C1087 C48 1.358 . S
C1091 C446 1.340 . S
C1105 C65 1.646 . S
C1109 C457 1.625 . S
C1123 C43 1.660 . S
C1127 C497 1.644 . S
C1145 C536 1.669 . S
C1141 C54 1.654 . S
C1159 C87 1.506 . S
C1163 C496 1.500 . S
C1177 C98 1.456 . S
C1181 C537 1.433 . S
C1195 C76 1.460 . S
C1199 C456 1.479 . S
C1213 C170 1.496 . S
C1217 C203 1.489 . S
C1235 C243 1.924 . S
C1231 C181 1.925 . S
C1249 C192 1.553 . S
C1253 C293 1.571 . S
C1267 C71 1.768 . S
C1271 C253 1.781 . S
C1285 C82 1.672 . S
C1289 C283 1.676 . S
C1307 C213 1.325 . S
C1303 C93 1.318 . S
C1321 C38 1.498 . S
C1325 C323 1.489 . S
C1339 C49 1.919 . S
C1343 C363 1.919 . S
C1357 C60 1.552 . S
C1361 C413 1.571 . S
C1375 C137 1.764 . S
C1379 C373 1.780 . S
C1397 C403 1.676 . S
C1393 C148 1.675 . S
C1411 C159 1.319 . S
C1415 C333 1.325 . S
C1429 C104 1.495 . S
C1433 C443 1.487 . S
C1447 C115 1.917 . S
C1451 C483 1.916 . S
C1469 C533 1.571 . S
C1465 C126 1.552 . S
C1483 C5 1.763 . S
C1487 C493 1.780 . S
C1501 C16 1.674 . S
C1505 C523 1.675 . S
C1519 C27 1.319 . S
C1523 C453 1.325 . S
