# Generated by pormake.
# Topology tsx, (6,3)-cn, num edge types: 1
# Building blocks:
#     Node 0, Type 0, BuildingBlock: VOLQOD_clean_sbu_1, # of connection points: 6
#     Node 1, Type 0, BuildingBlock: VOLQOD_clean_sbu_1, # of connection points: 6
#     Node 2, Type 1, BuildingBlock: BELTOD_clean_linker_0, # of connection points: 3
#     Node 3, Type 1, BuildingBlock: BELTOD_clean_linker_0, # of connection points: 3
#     Node 4, Type 1, BuildingBlock: BELTOD_clean_linker_0, # of connection points: 3
#     Node 5, Type 1, BuildingBlock: BELTOD_clean_linker_0, # of connection points: 3
#     Edge 6, Type (0, 1), BuildingBlock: XIVTED_clean_linker_0, # of connection points: 2
#     Edge 7, Type (0, 1), BuildingBlock: XIVTED_clean_linker_0, # of connection points: 2
#     Edge 8, Type (0, 1), BuildingBlock: XIVTED_clean_linker_0, # of connection points: 2
#     Edge 9, Type (0, 1), BuildingBlock: XIVTED_clean_linker_0, # of connection points: 2
#     Edge 10, Type (0, 1), BuildingBlock: XIVTED_clean_linker_0, # of connection points: 2
#     Edge 11, Type (0, 1), BuildingBlock: XIVTED_clean_linker_0, # of connection points: 2
#     Edge 12, Type (0, 1), BuildingBlock: XIVTED_clean_linker_0, # of connection points: 2
#     Edge 13, Type (0, 1), BuildingBlock: XIVTED_clean_linker_0, # of connection points: 2
#     Edge 14, Type (0, 1), BuildingBlock: XIVTED_clean_linker_0, # of connection points: 2
#     Edge 15, Type (0, 1), BuildingBlock: XIVTED_clean_linker_0, # of connection points: 2
#     Edge 16, Type (0, 1), BuildingBlock: XIVTED_clean_linker_0, # of connection points: 2
#     Edge 17, Type (0, 1), BuildingBlock: XIVTED_clean_linker_0, # of connection points: 2
# Relax obj value: 0.067
# Max RMSD: 0.102
# Mean RMSD: 0.074
data_MOF--net-tsx--node1-VOLQOD_clean_sbu_1--node2-BELTOD_clean_linker_0--edge1-XIVTED_clean_linker_0
_symmetry_space_group_name_H-M    P1
_symmetry_Int_Tables_number       1
_symmetry_cell_setting            triclinic
loop_
_symmetry_equiv_pos_as_xyz
'x, y, z'
_cell_length_a     23.259269
_cell_length_b     24.050785
_cell_length_c     45.082525
_cell_angle_alpha  91.07013
_cell_angle_beta   90.278232
_cell_angle_gamma 90.182266
loop_
_atom_site_label
_atom_site_type_symbol
_atom_site_fract_x
_atom_site_fract_y
_atom_site_fract_z
_atom_type_partial_charge
O0 O 0.99038 0.9716 0.07583 0.0
Zn1 Zn 0.01815 0.97329 0.0342 0.0
O2 O 0.95656 0.99137 0.00685 0.0
Zn3 Zn 0.94499 0.92822 0.97988 0.0
Zn4 Zn 0.88586 0.00663 0.02956 0.0
Zn5 Zn 0.97946 0.05571 0.98368 0.0
O6 O 0.95185 0.95017 0.9375 0.0
O7 O 0.98414 0.03703 0.93968 0.0
O8 O 0.05575 0.90071 0.02407 0.0
O9 O 0.00512 0.86916 0.98553 0.0
O10 O 0.86783 0.89406 0.98598 0.0
O11 O 0.82579 0.94659 0.02065 0.0
O12 O 0.85391 0.08267 0.01924 0.0
O13 O 0.07999 0.03112 0.03366 0.0
O14 O 0.9211 0.11589 0.98932 0.0
O15 O 0.05603 0.0874 0.99724 0.0
C16 C 0.945 0.98821 0.08883 0.0
C17 C 0.96997 0.99354 0.92475 0.0
C18 C 0.82518 0.90493 0.00267 0.0
C19 C 0.0463 0.86402 0.00395 0.0
C20 C 0.87405 0.12155 0.00339 0.0
C21 C 0.09026 0.07327 0.01789 0.0
O22 O 0.90196 0.006 0.07417 0.0
O23 O 0.52633 0.48777 0.57281 0.0
Zn24 Zn 0.55297 0.48266 0.53072 0.0
O25 O 0.49207 0.49999 0.50274 0.0
Zn26 Zn 0.47589 0.43462 0.47783 0.0
Zn27 Zn 0.42358 0.52174 0.52553 0.0
Zn28 Zn 0.51728 0.55984 0.47694 0.0
O29 O 0.4848 0.45015 0.4344 0.0
O30 O 0.5234 0.53454 0.43387 0.0
O31 O 0.58534 0.40674 0.52327 0.0
O32 O 0.53148 0.3729 0.48639 0.0
O33 O 0.3964 0.40624 0.48513 0.0
O34 O 0.36041 0.46447 0.51906 0.0
O35 O 0.3947 0.59651 0.51209 0.0
O36 O 0.61737 0.53752 0.52766 0.0
O37 O 0.45959 0.62156 0.47876 0.0
O38 O 0.5939 0.59166 0.49019 0.0
C39 C 0.48209 0.50819 0.58533 0.0
C40 C 0.50656 0.49042 0.4203 0.0
C41 C 0.3557 0.42151 0.50218 0.0
C42 C 0.57249 0.36778 0.50493 0.0
C43 C 0.41375 0.63103 0.49334 0.0
C44 C 0.62826 0.57819 0.51092 0.0
O45 O 0.43992 0.52612 0.57009 0.0
P46 P 0.06859 0.10258 0.4011 0.0
H47 H 0.03807 0.1813 0.44837 0.0
H48 H 0.94768 0.20134 0.47347 0.0
H49 H 0.8667 0.06446 0.42549 0.0
H50 H 0.95694 0.04609 0.39973 0.0
H51 H 0.19257 0.09071 0.40791 0.0
H52 H 0.25244 0.01822 0.42909 0.0
H53 H 0.09958 0.92626 0.45232 0.0
H54 H 0.04016 -0.0002 0.43195 0.0
H55 H 0.03263 0.16709 0.35042 0.0
H56 H 0.06049 0.9943 0.36969 0.0
O57 O 0.10529 0.16231 0.40048 0.0
H58 H 0.00357 0.14141 0.2998 0.0
H59 H 0.03023 0.96811 0.31946 0.0
C60 C 0.00358 0.11335 0.42163 0.0
C61 C 0.00086 0.15557 0.44333 0.0
C62 C 0.94924 0.16648 0.45794 0.0
C63 C 0.89967 0.13475 0.45132 0.0
C64 C 0.90369 0.09037 0.43068 0.0
C65 C 0.95526 0.07981 0.41595 0.0
C66 C 0.11201 0.05088 0.41862 0.0
C67 C 0.17199 0.05532 0.41794 0.0
C68 C 0.20615 0.01361 0.42988 0.0
C69 C 0.18083 0.96626 0.44231 0.0
C70 C 0.12052 0.9625 0.44335 0.0
C71 C 0.08642 0.00445 0.43155 0.0
C72 C 0.05009 0.08279 0.36356 0.0
C73 C 0.03279 0.12363 0.34368 0.0
C74 C 0.01549 0.1088 0.31487 0.0
C75 C 0.01467 0.05267 0.30551 0.0
C76 C 0.03129 0.01178 0.32575 0.0
C77 C 0.04866 0.02672 0.35454 0.0
P78 P 0.1023 0.93665 0.6084 0.0
H79 H 0.095 0.86157 0.55675 0.0
H80 H 0.01712 0.80225 0.53693 0.0
H81 H 0.90369 0.86603 0.60495 0.0
H82 H 0.98071 0.92543 0.6243 0.0
H83 H 0.16398 0.0366 0.62623 0.0
H84 H 0.17876 0.12604 0.6029 0.0
H85 H 0.07899 0.06986 0.52695 0.0
H86 H 0.06342 0.98017 0.55074 0.0
H87 H 0.12892 0.87144 0.66072 0.0
H88 H 0.04248 0.02506 0.64148 0.0
O89 O 0.16314 0.90073 0.60453 0.0
H90 H 0.10646 0.88423 0.7134 0.0
H91 H 0.0199 0.03814 0.69399 0.0
C92 C 0.04405 0.89676 0.59244 0.0
C93 C 0.05323 0.86291 0.56725 0.0
C94 C 0.00877 0.82938 0.55586 0.0
C95 C 0.95481 0.82915 0.56972 0.0
C96 C 0.94524 0.86481 0.5942 0.0
C97 C 0.98935 0.89874 0.60528 0.0
C98 C 0.11145 0.0023 0.59059 0.0
C99 C 0.14445 0.04374 0.60478 0.0
C100 C 0.15264 0.09492 0.59148 0.0
C101 C 0.12904 0.10521 0.56338 0.0
C102 C 0.09711 0.06312 0.54877 0.0
C103 C 0.0882 0.01195 0.56237 0.0
C104 C 0.08877 0.94802 0.64735 0.0
C105 C 0.10575 0.90825 0.66789 0.0
C106 C 0.09248 0.9154 0.69793 0.0
C107 C 0.06171 0.96241 0.70786 0.0
C108 C 0.0446 0.00208 0.68712 0.0
C109 C 0.05758 0.99467 0.6571 0.0
P110 P 0.56303 0.60508 0.90445 0.0
H111 H 0.53058 0.69021 0.94817 0.0
H112 H 0.43882 0.71495 0.97075 0.0
H113 H 0.35695 0.57779 0.92353 0.0
H114 H 0.44897 0.554 0.90058 0.0
H115 H 0.66238 0.53874 0.88849 0.0
H116 H 0.7133 0.46389 0.91307 0.0
H117 H 0.59551 0.47575 0.98678 0.0
H118 H 0.54404 0.55012 0.96174 0.0
H119 H 0.54708 0.67506 0.85306 0.0
H120 H 0.54484 0.49976 0.87129 0.0
O121 O 0.60608 0.66068 0.90646 0.0
H122 H 0.52653 0.65463 0.80071 0.0
H123 H 0.52401 0.47891 0.81899 0.0
C124 C 0.49602 0.62135 0.92209 0.0
C125 C 0.49285 0.66556 0.94264 0.0
C126 C 0.44045 0.67922 0.95581 0.0
C127 C 0.39045 0.64851 0.94879 0.0
C128 C 0.39445 0.60281 0.92899 0.0
C129 C 0.44695 0.5892 0.91586 0.0
C130 C 0.59878 0.54913 0.9229 0.0
C131 C 0.6473 0.52499 0.90984 0.0
C132 C 0.67668 0.4826 0.9241 0.0
C133 C 0.65846 0.46391 0.95193 0.0
C134 C 0.61008 0.48869 0.96519 0.0
C135 C 0.58066 0.53126 0.95084 0.0
C136 C 0.54911 0.5889 0.86586 0.0
C137 C 0.5425 0.63212 0.84573 0.0
C138 C 0.53017 0.6204 0.81586 0.0
C139 C 0.52393 0.5651 0.80561 0.0
C140 C 0.52953 0.52189 0.82606 0.0
C141 C 0.54155 0.53374 0.85596 0.0
P142 P 0.59549 0.40551 0.10042 0.0
H143 H 0.5696 0.34129 0.04664 0.0
H144 H 0.48434 0.28878 0.0301 0.0
H145 H 0.39611 0.33928 0.11024 0.0
H146 H 0.48082 0.39177 0.12649 0.0
H147 H 0.68971 0.44919 0.06487 0.0
H148 H 0.70174 0.53532 0.03791 0.0
H149 H 0.52849 0.58357 0.06081 0.0
H150 H 0.51654 0.49649 0.08766 0.0
H151 H 0.59932 0.33374 0.15135 0.0
H152 H 0.5822 0.50948 0.1363 0.0
O153 O 0.65191 0.3642 0.09436 0.0
H154 H 0.58734 0.3503 0.20458 0.0
H155 H 0.56841 0.52619 0.18927 0.0
C156 C 0.532 0.36906 0.08811 0.0
C157 C 0.53181 0.34097 0.06059 0.0
C158 C 0.48306 0.31138 0.05109 0.0
C159 C 0.43393 0.30948 0.06908 0.0
C160 C 0.43379 0.33922 0.09621 0.0
C161 C 0.48228 0.36916 0.10553 0.0
C162 C 0.60256 0.46699 0.07863 0.0
C163 C 0.65406 0.47792 0.06386 0.0
C164 C 0.66068 0.52701 0.04819 0.0
C165 C 0.61606 0.5663 0.04732 0.0
C166 C 0.56371 0.55424 0.0613 0.0
C167 C 0.55688 0.50466 0.07664 0.0
C168 C 0.59177 0.42022 0.13978 0.0
C169 C 0.5933 0.37595 0.15952 0.0
C170 C 0.58585 0.38546 0.18994 0.0
C171 C 0.57643 0.43958 0.20126 0.0
C172 C 0.57607 0.48406 0.1814 0.0
C173 C 0.58361 0.47445 0.15094 0.0
H174 H 0.16308 0.06453 0.0652 0.0
H175 H 0.38009 0.30246 0.01478 0.0
H176 H 0.13608 0.15882 0.98574 0.0
H177 H 0.374 0.2376 0.1033 0.0
H178 H 0.29689 0.2441 1.00114 0.0
H179 H 0.2472 0.12138 0.0768 0.0
C180 C 0.17491 0.09709 0.05009 0.0
C181 C 0.14227 0.10696 0.02446 0.0
C182 C 0.31377 0.24284 0.02355 0.0
C183 C 0.23893 0.17239 0.03772 0.0
C184 C 0.36129 0.27584 0.03128 0.0
C185 C 0.38366 0.27497 0.06024 0.0
C186 C 0.28913 0.20829 0.04484 0.0
C187 C 0.35761 0.24006 0.08084 0.0
C188 C 0.22291 0.1297 0.05682 0.0
C189 C 0.15983 0.14988 0.00579 0.0
N190 N 0.3119 0.208 0.07272 0.0
N191 N 0.20711 0.18103 0.01277 0.0
H192 H 0.05077 0.78617 0.95875 0.0
H193 H 0.36511 0.68624 0.00506 0.0
H194 H 0.13727 0.83756 0.03976 0.0
H195 H 0.28711 0.65213 0.91953 0.0
H196 H 0.27464 0.72694 0.02202 0.0
H197 H 0.12904 0.72135 0.94838 0.0
C198 C 0.0857 0.78324 0.97462 0.0
C199 C 0.08788 0.8181 0.99993 0.0
C200 C 0.27713 0.70995 0.99965 0.0
C201 C 0.17781 0.74426 0.98804 0.0
C202 C 0.32884 0.68695 0.98991 0.0
C203 C 0.33396 0.66644 0.9607 0.0
C204 C 0.23022 0.71266 0.98 0.0
C205 C 0.28514 0.66727 0.94226 0.0
C206 C 0.1305 0.74632 0.96861 0.0
C207 C 0.13412 0.81211 0.01975 0.0
N208 N 0.23553 0.69061 0.95211 0.0
N209 N 0.17756 0.77644 0.01321 0.0
H210 H 0.8012 0.82257 0.96191 0.0
H211 H 0.58889 0.66815 0.07114 0.0
H212 H 0.73956 0.89477 0.04414 0.0
H213 H 0.66895 0.5906 0.99486 0.0
H214 H 0.6238 0.75853 0.05492 0.0
H215 H 0.73364 0.74586 0.96722 0.0
C216 C 0.77287 0.82275 0.98091 0.0
C217 C 0.77695 0.86463 0.00296 0.0
C218 C 0.63285 0.72189 0.04144 0.0
C219 C 0.69971 0.77637 0.00928 0.0
C220 C 0.61258 0.6703 0.05056 0.0
C221 C 0.62684 0.62169 0.03455 0.0
C222 C 0.66765 0.72483 0.01616 0.0
C223 C 0.65797 0.62693 0.00817 0.0
C224 C 0.73426 0.77884 0.98391 0.0
C225 C 0.73837 0.86308 0.02678 0.0
N226 N 0.67796 0.67747 1.0 0.0
N227 N 0.702 0.81909 0.02958 0.0
H228 H 0.91622 0.21982 0.98377 0.0
H229 H 0.61356 0.37434 0.98125 0.0
H230 H 0.76139 0.14528 0.01772 0.0
H231 H 0.77456 0.44892 0.95586 0.0
H232 H 0.66636 0.29338 0.99914 0.0
H233 H 0.86474 0.3063 0.97705 0.0
C234 C 0.87127 0.22163 0.98987 0.0
C235 C 0.84294 0.17491 1.00101 0.0
C236 C 0.69009 0.32771 0.98988 0.0
C237 C 0.78325 0.27448 0.99324 0.0
C238 C 0.66003 0.37406 0.97981 0.0
C239 C 0.68965 0.41796 0.96646 0.0
C240 C 0.75008 0.32539 0.98652 0.0
C241 C 0.74982 0.41537 0.96521 0.0
C242 C 0.84186 0.27128 0.98613 0.0
C243 C 0.78483 0.18021 0.00892 0.0
N244 N 0.77788 0.36971 0.97479 0.0
N245 N 0.75665 0.22899 0.00458 0.0
H246 H 0.67504 0.66091 0.4771 0.0
H247 H 0.89295 0.7595 0.60398 0.0
H248 H 0.69992 0.57308 0.55886 0.0
H249 H 0.91375 0.80944 0.51327 0.0
H250 H 0.81637 0.69583 0.58822 0.0
H251 H 0.75783 0.7202 0.49 0.0
C252 C 0.69802 0.65386 0.49764 0.0
C253 C 0.6803 0.6121 0.51699 0.0
C254 C 0.83777 0.72048 0.57169 0.0
C255 C 0.77431 0.67992 0.5319 0.0
C256 C 0.88115 0.75706 0.58071 0.0
C257 C 0.9093 0.78986 0.55988 0.0
C258 C 0.82181 0.71711 0.54164 0.0
C259 C 0.89302 0.78464 0.52994 0.0
C260 C 0.74527 0.68759 0.50492 0.0
C261 C 0.71184 0.60471 0.54325 0.0
N262 N 0.84984 0.74921 0.52169 0.0
N263 N 0.7569 0.63859 0.55003 0.0
H264 H 0.65912 0.33838 0.54285 0.0
H265 H 0.79505 0.13472 0.42317 0.0
H266 H 0.57172 0.28461 0.46253 0.0
H267 H 0.87533 0.17371 0.50764 0.0
H268 H 0.70629 0.1763 0.44103 0.0
H269 H 0.73123 0.26656 0.53436 0.0
C270 C 0.65457 0.31095 0.52365 0.0
C271 C 0.60996 0.31834 0.50303 0.0
C272 C 0.74299 0.17503 0.45587 0.0
C273 C 0.69275 0.23633 0.49303 0.0
C274 C 0.79377 0.15088 0.44574 0.0
C275 C 0.8432 0.15147 0.46376 0.0
C276 C 0.74171 0.20064 0.48409 0.0
C277 C 0.83879 0.17367 0.49268 0.0
C278 C 0.69579 0.26986 0.51883 0.0
C279 C 0.6058 0.28098 0.47881 0.0
N280 N 0.78922 0.19816 0.50179 0.0
N281 N 0.64728 0.24222 0.47421 0.0
H282 H 0.32455 0.33423 0.46565 0.0
H283 H 0.12062 0.20963 0.58765 0.0
H284 H 0.27105 0.42471 0.54436 0.0
H285 H 0.16617 0.12233 0.50673 0.0
H286 H 0.15954 0.29528 0.56743 0.0
H287 H 0.25176 0.26381 0.4753 0.0
C288 C 0.29691 0.33977 0.48474 0.0
C289 C 0.30482 0.38486 0.50461 0.0
C290 C 0.16018 0.2577 0.55383 0.0
C291 C 0.22166 0.30395 0.51593 0.0
C292 C 0.13807 0.20881 0.5654 0.0
C293 C 0.14133 0.15875 0.54905 0.0
C294 C 0.18647 0.25634 0.52586 0.0
C295 C 0.16324 0.16003 0.52014 0.0
C296 C 0.25525 0.2995 0.49022 0.0
C297 C 0.26705 0.39029 0.52866 0.0
N298 N 0.18603 0.20788 0.50967 0.0
N299 N 0.22781 0.34974 0.53395 0.0
H300 H 0.43997 0.71203 0.45388 0.0
H301 H 0.1657 0.90033 0.49102 0.0
H302 H 0.31457 0.66859 0.52001 0.0
H303 H 0.27833 0.92506 0.41649 0.0
H304 H 0.2237 0.8202 0.50524 0.0
H305 H 0.38561 0.79566 0.44349 0.0
C306 C 0.40104 0.72008 0.46632 0.0
C307 C 0.3817 0.6829 0.48776 0.0
C308 C 0.23576 0.84341 0.48586 0.0
C309 C 0.31899 0.77905 0.47586 0.0
C310 C 0.20258 0.88901 0.47766 0.0
C311 C 0.2171 0.91956 0.45249 0.0
C312 C 0.28382 0.82837 0.46881 0.0
C313 C 0.2659 0.90344 0.43631 0.0
C314 C 0.36994 0.76794 0.46032 0.0
C315 C 0.33099 0.69589 0.50319 0.0
N316 N 0.29732 0.85897 0.44471 0.0
N317 N 0.30127 0.74288 0.49688 0.0
H318 H 0.87385 0.04729 0.12656 0.0
H319 H 0.06359 0.97373 0.26919 0.0
H320 H 0.0173 0.93381 0.12597 0.0
H321 H 0.92805 0.09595 0.27115 0.0
H322 H 0.03897 0.95121 0.2178 0.0
H323 H 0.88463 0.05809 0.18057 0.0
C324 C 0.90701 0.02406 0.1378 0.0
C325 C 0.94511 0.99007 0.12167 0.0
C326 C 0.01433 0.98279 0.22946 0.0
C327 C 0.95788 0.00243 0.18324 0.0
C328 C 0.02818 0.99545 0.25894 0.0
C329 C -0.00195 0.037 0.27456 0.0
C330 C 0.97006 0.01193 0.2153 0.0
C331 C 0.9531 0.06427 0.25984 0.0
C332 C 0.91334 0.03045 0.16858 0.0
C333 C 0.98737 0.96103 0.13739 0.0
N334 N 0.94063 0.05145 0.23099 0.0
N335 N 0.99279 0.96815 0.16718 0.0
H336 H 0.94531 0.90724 0.88643 0.0
H337 H 0.06717 0.05718 0.74265 0.0
H338 H 0.01299 0.07474 0.88863 0.0
H339 H 0.02052 0.88354 0.74524 0.0
H340 H 0.0407 0.06735 0.79499 0.0
H341 H 0.96497 0.9012 0.83354 0.0
C342 C 0.96403 0.94297 0.8758 0.0
C343 C 0.97781 0.99152 0.89215 0.0
C344 C 0.03628 0.02705 0.78409 0.0
C345 C 0.00075 0.98462 0.8313 0.0
C346 C 0.05114 0.02126 0.7542 0.0
C347 C 0.04625 0.96936 0.7396 0.0
C348 C 0.016 0.98068 0.79941 0.0
C349 C 0.02577 0.92412 0.75572 0.0
C350 C 0.97541 0.93937 0.84552 0.0
C351 C 0.0018 0.03643 0.87697 0.0
N352 N 0.01135 0.93086 0.78471 0.0
N353 N 0.01272 0.03182 0.8474 0.0
H354 H 0.40961 0.56952 0.62136 0.0
H355 H 0.57248 0.48352 0.77082 0.0
H356 H 0.55388 0.45723 0.62437 0.0
H357 H 0.45074 0.6183 0.76738 0.0
H358 H 0.5572 0.4658 0.71787 0.0
H359 H 0.41537 0.58056 0.67554 0.0
C360 C 0.44213 0.54684 0.63338 0.0
C361 C 0.48154 0.51268 0.61822 0.0
C362 C 0.53364 0.49917 0.72868 0.0
C363 C 0.48832 0.52508 0.68012 0.0
C364 C 0.54208 0.50907 0.759 0.0
C365 C 0.513 0.55259 0.7736 0.0
C366 C 0.49563 0.53282 0.71272 0.0
C367 C 0.47467 0.58479 0.75695 0.0
C368 C 0.44554 0.55334 0.66428 0.0
C369 C 0.52285 0.48439 0.635 0.0
N370 N 0.46713 0.5743 0.72741 0.0
N371 N 0.52517 0.49129 0.66494 0.0
H372 H 0.46989 0.4052 0.3837 0.0
H373 H 0.61486 0.52576 0.23736 0.0
H374 H 0.56051 0.56213 0.38242 0.0
H375 H 0.51274 0.37563 0.23875 0.0
H376 H 0.5958 0.54031 0.29028 0.0
H377 H 0.48566 0.39414 0.33055 0.0
C378 C 0.49299 0.4375 0.37226 0.0
C379 C 0.51398 0.48467 0.38769 0.0
C380 C 0.57756 0.50421 0.27898 0.0
C381 C 0.53247 0.47202 0.32651 0.0
C382 C 0.58822 0.49598 0.24871 0.0
C383 C 0.5656 0.44923 0.23349 0.0
C384 C 0.54403 0.46545 0.29422 0.0
C385 C 0.53198 0.41173 0.24956 0.0
C386 C 0.502 0.43111 0.34182 0.0
C387 C 0.54351 0.52508 0.3715 0.0
N388 N 0.52232 0.42064 0.27896 0.0
N389 N 0.55205 0.51773 0.34184 0.0
loop_
_geom_bond_atom_site_label_1
_geom_bond_atom_site_label_2
_geom_bond_distance
_geom_bond_site_symmetry_2
_ccdc_geom_bond_type
O0 Zn1 1.953 . S
O0 C16 1.225 1_565 S
Zn1 O0 1.953 . S
Zn1 O2 1.949 1_565 S
Zn1 O8 1.919 . S
Zn1 O13 1.924 1_565 S
O2 Zn1 1.949 1_545 S
O2 Zn3 1.923 1_444 S
O2 Zn4 1.950 1_455 S
O2 Zn5 1.945 1_554 S
Zn3 O2 1.923 1_666 S
Zn3 O6 1.933 . S
Zn3 O9 1.941 1_655 S
Zn3 O10 1.965 . S
Zn4 O2 1.950 1_655 S
Zn4 O11 1.938 1_545 S
Zn4 O12 1.906 . S
Zn4 O22 1.953 . S
Zn5 O2 1.945 1_556 S
Zn5 O7 1.932 . S
Zn5 O14 1.977 1_455 S
Zn5 O15 1.910 . S
O6 Zn3 1.933 . S
O6 C17 1.226 1_665 S
O7 Zn5 1.932 . S
O7 C17 1.307 . S
O8 Zn1 1.919 . S
O8 C19 1.253 1_554 S
O9 Zn3 1.941 1_455 S
O9 C19 1.283 . S
O10 Zn3 1.965 . S
O10 C18 1.303 1_556 S
O11 Zn4 1.938 1_565 S
O11 C18 1.247 . S
O12 Zn4 1.906 . S
O12 C20 1.304 1_554 S
O13 Zn1 1.924 1_545 S
O13 C21 1.311 . S
O14 Zn5 1.977 1_655 S
O14 C20 1.272 . S
O15 Zn5 1.910 . S
O15 C21 1.231 1_556 S
C16 O0 1.225 1_545 S
C16 O22 1.298 1_455 S
C17 O6 1.226 1_445 S
C17 O7 1.307 . S
C18 O10 1.303 1_554 S
C18 O11 1.247 . S
C19 O8 1.253 1_556 S
C19 O9 1.283 . S
C20 O12 1.304 1_556 S
C20 O14 1.272 . S
C21 O13 1.311 . S
C21 O15 1.231 1_554 S
O22 Zn4 1.953 . S
O22 C16 1.298 1_655 S
O23 Zn24 1.953 . S
O23 C39 1.225 . S
Zn24 O23 1.953 . S
Zn24 O25 1.949 . S
Zn24 O31 1.919 . S
Zn24 O36 1.924 . S
O25 Zn24 1.949 . S
O25 Zn26 1.923 . S
O25 Zn27 1.950 . S
O25 Zn28 1.945 . S
Zn26 O25 1.923 . S
Zn26 O29 1.933 . S
Zn26 O32 1.941 . S
Zn26 O33 1.965 . S
Zn27 O25 1.950 . S
Zn27 O34 1.938 . S
Zn27 O35 1.906 . S
Zn27 O45 1.953 . S
Zn28 O25 1.945 . S
Zn28 O30 1.932 . S
Zn28 O37 1.977 . S
Zn28 O38 1.910 . S
O29 Zn26 1.933 . S
O29 C40 1.226 . S
O30 Zn28 1.932 . S
O30 C40 1.307 . S
O31 Zn24 1.919 . S
O31 C42 1.253 . S
O32 Zn26 1.941 . S
O32 C42 1.283 . S
O33 Zn26 1.965 . S
O33 C41 1.303 . S
O34 Zn27 1.938 . S
O34 C41 1.247 . S
O35 Zn27 1.906 . S
O35 C43 1.304 . S
O36 Zn24 1.924 . S
O36 C44 1.311 . S
O37 Zn28 1.977 . S
O37 C43 1.272 . S
O38 Zn28 1.910 . S
O38 C44 1.231 . S
C39 O23 1.225 . S
C39 O45 1.298 . S
C40 O29 1.226 . S
C40 O30 1.307 . S
C41 O33 1.303 . S
C41 O34 1.247 . S
C42 O31 1.253 . S
C42 O32 1.283 . S
C43 O35 1.304 . S
C43 O37 1.272 . S
C44 O36 1.311 . S
C44 O38 1.231 . S
O45 Zn27 1.953 . S
O45 C39 1.298 . S
P46 O57 1.490 . S
P46 C60 1.812 1_455 S
P46 C66 1.803 1_545 S
P46 C72 1.819 . S
H47 C61 0.941 1_455 S
H48 C62 0.939 . S
H49 C64 0.940 . S
H50 C65 0.940 . S
H51 C67 0.939 1_545 S
H52 C68 0.942 . S
H53 C70 0.940 . S
H54 C71 0.939 . S
H55 C73 0.941 . S
H56 C77 0.939 . S
O57 P46 1.490 . S
H58 C74 0.939 . S
H59 C76 0.940 . S
C60 P46 1.812 1_655 S
C60 C61 1.389 . S
C60 C65 1.391 . S
C61 H47 0.941 1_655 S
C61 C60 1.389 . S
C61 C62 1.397 . S
C62 H48 0.939 . S
C62 C61 1.397 . S
C62 C63 1.378 . S
C63 C62 1.378 . S
C63 C64 1.378 . S
C64 H49 0.940 . S
C64 C63 1.378 . S
C64 C65 1.396 . S
C65 H50 0.940 . S
C65 C60 1.391 . S
C65 C64 1.396 . S
C66 P46 1.803 1_565 S
C66 C67 1.378 . S
C66 C71 1.400 . S
C67 H51 0.939 1_565 S
C67 C66 1.378 . S
C67 C68 1.361 . S
C68 H52 0.942 . S
C68 C67 1.361 . S
C68 C69 1.369 . S
C69 C68 1.369 . S
C69 C70 1.404 . S
C70 H53 0.940 . S
C70 C69 1.404 . S
C70 C71 1.389 . S
C71 H54 0.939 . S
C71 C66 1.400 . S
C71 C70 1.389 . S
C72 P46 1.819 . S
C72 C73 1.391 . S
C72 C77 1.391 1_545 S
C73 H55 0.941 . S
C73 C72 1.391 . S
C73 C74 1.396 . S
C74 H58 0.939 . S
C74 C73 1.396 . S
C74 C75 1.397 . S
C75 C74 1.397 . S
C75 C76 1.385 1_545 S
C76 H59 0.940 . S
C76 C75 1.385 1_565 S
C76 C77 1.388 . S
C77 H56 0.939 . S
C77 C72 1.391 1_565 S
C77 C76 1.388 . S
P78 O89 1.490 . S
P78 C92 1.812 . S
P78 C98 1.803 1_565 S
P78 C104 1.819 . S
H79 C93 0.941 . S
H80 C94 0.939 . S
H81 C96 0.940 . S
H82 C97 0.940 . S
H83 C99 0.946 . S
H84 C100 0.942 . S
H85 C102 0.940 . S
H86 C103 0.939 . S
H87 C105 0.941 . S
H88 C109 0.939 . S
O89 P78 1.490 . S
H90 C106 0.939 . S
H91 C108 0.940 . S
C92 P78 1.812 . S
C92 C93 1.389 . S
C92 C97 1.391 1_455 S
C93 H79 0.941 . S
C93 C92 1.389 . S
C93 C94 1.397 1_455 S
C94 H80 0.939 . S
C94 C93 1.397 1_655 S
C94 C95 1.378 . S
C95 C94 1.378 . S
C95 C96 1.378 . S
C96 H81 0.940 . S
C96 C95 1.378 . S
C96 C97 1.396 . S
C97 H82 0.940 . S
C97 C92 1.391 1_655 S
C97 C96 1.396 . S
C98 P78 1.803 1_545 S
C98 C99 1.378 . S
C98 C103 1.400 . S
C99 H83 0.946 . S
C99 C98 1.378 . S
C99 C100 1.361 . S
C100 H84 0.942 . S
C100 C99 1.361 . S
C100 C101 1.369 . S
C101 C100 1.369 . S
C101 C102 1.404 . S
C102 H85 0.940 . S
C102 C101 1.404 . S
C102 C103 1.389 . S
C103 H86 0.939 . S
C103 C98 1.400 . S
C103 C102 1.389 . S
C104 P78 1.819 . S
C104 C105 1.391 . S
C104 C109 1.391 1_565 S
C105 H87 0.941 . S
C105 C104 1.391 . S
C105 C106 1.396 . S
C106 H90 0.939 . S
C106 C105 1.396 . S
C106 C107 1.397 . S
C107 C106 1.397 . S
C107 C108 1.385 1_565 S
C108 H91 0.940 . S
C108 C107 1.385 1_545 S
C108 C109 1.388 . S
C109 H88 0.939 . S
C109 C104 1.391 1_545 S
C109 C108 1.388 . S
P110 O121 1.490 . S
P110 C124 1.812 . S
P110 C130 1.803 . S
P110 C136 1.819 . S
H111 C125 0.941 . S
H112 C126 0.939 . S
H113 C128 0.940 . S
H114 C129 0.940 . S
H115 C131 0.939 . S
H116 C132 0.942 . S
H117 C134 0.940 . S
H118 C135 0.939 . S
H119 C137 0.941 . S
H120 C141 0.939 . S
O121 P110 1.490 . S
H122 C138 0.939 . S
H123 C140 0.940 . S
C124 P110 1.812 . S
C124 C125 1.389 . S
C124 C129 1.391 . S
C125 H111 0.941 . S
C125 C124 1.389 . S
C125 C126 1.397 . S
C126 H112 0.939 . S
C126 C125 1.397 . S
C126 C127 1.378 . S
C127 C126 1.378 . S
C127 C128 1.378 . S
C128 H113 0.940 . S
C128 C127 1.378 . S
C128 C129 1.396 . S
C129 H114 0.940 . S
C129 C124 1.391 . S
C129 C128 1.396 . S
C130 P110 1.803 . S
C130 C131 1.378 . S
C130 C135 1.400 . S
C131 H115 0.939 . S
C131 C130 1.378 . S
C131 C132 1.361 . S
C132 H116 0.942 . S
C132 C131 1.361 . S
C132 C133 1.369 . S
C133 C132 1.369 . S
C133 C134 1.404 . S
C134 H117 0.940 . S
C134 C133 1.404 . S
C134 C135 1.389 . S
C135 H118 0.939 . S
C135 C130 1.400 . S
C135 C134 1.389 . S
C136 P110 1.819 . S
C136 C137 1.391 . S
C136 C141 1.391 . S
C137 H119 0.941 . S
C137 C136 1.391 . S
C137 C138 1.396 . S
C138 H122 0.939 . S
C138 C137 1.396 . S
C138 C139 1.397 . S
C139 C138 1.397 . S
C139 C140 1.385 . S
C140 H123 0.940 . S
C140 C139 1.385 . S
C140 C141 1.388 . S
C141 H120 0.939 . S
C141 C136 1.391 . S
C141 C140 1.388 . S
P142 O153 1.490 . S
P142 C156 1.812 . S
P142 C162 1.803 . S
P142 C168 1.819 . S
H143 C157 0.941 . S
H144 C158 0.939 . S
H145 C160 0.940 . S
H146 C161 0.940 . S
H147 C163 0.939 . S
H148 C164 0.942 . S
H149 C166 0.940 . S
H150 C167 0.939 . S
H151 C169 0.941 . S
H152 C173 0.939 . S
O153 P142 1.490 . S
H154 C170 0.939 . S
H155 C172 0.940 . S
C156 P142 1.812 . S
C156 C157 1.389 . S
C156 C161 1.391 . S
C157 H143 0.941 . S
C157 C156 1.389 . S
C157 C158 1.397 . S
C158 H144 0.939 . S
C158 C157 1.397 . S
C158 C159 1.378 . S
C159 C158 1.378 . S
C159 C160 1.378 . S
C160 H145 0.940 . S
C160 C159 1.378 . S
C160 C161 1.396 . S
C161 H146 0.940 . S
C161 C156 1.391 . S
C161 C160 1.396 . S
C162 P142 1.803 . S
C162 C163 1.378 . S
C162 C167 1.400 . S
C163 H147 0.939 . S
C163 C162 1.378 . S
C163 C164 1.361 . S
C164 H148 0.942 . S
C164 C163 1.361 . S
C164 C165 1.369 . S
C165 C164 1.369 . S
C165 C166 1.404 . S
C166 H149 0.940 . S
C166 C165 1.404 . S
C166 C167 1.389 . S
C167 H150 0.939 . S
C167 C162 1.400 . S
C167 C166 1.389 . S
C168 P142 1.819 . S
C168 C169 1.391 . S
C168 C173 1.391 . S
C169 H151 0.941 . S
C169 C168 1.391 . S
C169 C170 1.396 . S
C170 H154 0.939 . S
C170 C169 1.396 . S
C170 C171 1.397 . S
C171 C170 1.397 . S
C171 C172 1.385 . S
C172 H155 0.940 . S
C172 C171 1.385 . S
C172 C173 1.388 . S
C173 H152 0.939 . S
C173 C168 1.391 . S
C173 C172 1.388 . S
H174 C180 0.930 . S
H175 C184 0.930 . S
H176 C189 0.929 1_556 S
H177 C187 0.929 . S
H178 C182 0.929 . S
H179 C188 0.929 . S
C180 H174 0.930 . S
C180 C181 1.367 . S
C180 C188 1.378 . S
C181 C180 1.367 . S
C181 C189 1.433 . S
C182 H178 0.929 . S
C182 C184 1.378 . S
C182 C186 1.350 . S
C183 C186 1.463 . S
C183 C188 1.350 . S
C183 N191 1.427 . S
C184 H175 0.930 . S
C184 C182 1.378 . S
C184 C185 1.367 . S
C185 C184 1.367 . S
C185 C187 1.433 . S
C186 C182 1.350 . S
C186 C183 1.463 . S
C186 N190 1.427 . S
C187 H177 0.929 . S
C187 C185 1.433 . S
C187 N190 1.384 . S
C188 H179 0.929 . S
C188 C180 1.378 . S
C188 C183 1.350 . S
C189 H176 0.929 1_554 S
C189 C181 1.433 . S
C189 N191 1.384 . S
N190 C186 1.427 . S
N190 C187 1.384 . S
N191 C183 1.427 . S
N191 C189 1.384 . S
H192 C198 0.930 . S
H193 C202 0.930 . S
H194 C207 0.929 . S
H195 C205 0.929 . S
H196 C200 0.929 . S
H197 C206 0.929 . S
C198 H192 0.930 . S
C198 C199 1.367 . S
C198 C206 1.378 . S
C199 C198 1.367 . S
C199 C207 1.433 1_556 S
C200 H196 0.929 . S
C200 C202 1.378 . S
C200 C204 1.350 . S
C201 C204 1.463 . S
C201 C206 1.350 . S
C201 N209 1.427 . S
C202 H193 0.930 . S
C202 C200 1.378 . S
C202 C203 1.367 . S
C203 C202 1.367 . S
C203 C205 1.433 . S
C204 C200 1.350 . S
C204 C201 1.463 . S
C204 N208 1.427 . S
C205 H195 0.929 . S
C205 C203 1.433 . S
C205 N208 1.384 . S
C206 H197 0.929 . S
C206 C198 1.378 . S
C206 C201 1.350 . S
C207 H194 0.929 . S
C207 C199 1.433 1_554 S
C207 N209 1.384 1_554 S
N208 C204 1.427 . S
N208 C205 1.384 . S
N209 C201 1.427 . S
N209 C207 1.384 1_556 S
H210 C216 0.930 1_556 S
H211 C220 0.930 . S
H212 C225 0.929 . S
H213 C223 0.929 . S
H214 C218 0.929 . S
H215 C224 0.929 1_556 S
C216 H210 0.930 1_554 S
C216 C217 1.367 . S
C216 C224 1.378 . S
C217 C216 1.367 . S
C217 C225 1.433 . S
C218 H214 0.929 . S
C218 C220 1.378 . S
C218 C222 1.350 . S
C219 C222 1.463 . S
C219 C224 1.350 . S
C219 N227 1.427 . S
C220 H211 0.930 . S
C220 C218 1.378 . S
C220 C221 1.367 . S
C221 C220 1.367 . S
C221 C223 1.433 . S
C222 C218 1.350 . S
C222 C219 1.463 . S
C222 N226 1.427 . S
C223 H213 0.929 . S
C223 C221 1.433 . S
C223 N226 1.384 . S
C224 H215 0.929 1_554 S
C224 C216 1.378 . S
C224 C219 1.350 . S
C225 H212 0.929 . S
C225 C217 1.433 . S
C225 N227 1.384 . S
N226 C222 1.427 . S
N226 C223 1.384 . S
N227 C219 1.427 . S
N227 C225 1.384 . S
H228 C234 0.930 1_554 S
H229 C238 0.930 . S
H230 C243 0.929 . S
H231 C241 0.929 . S
H232 C236 0.929 . S
H233 C242 0.942 . S
C234 H228 0.930 1_556 S
C234 C235 1.367 . S
C234 C242 1.378 . S
C235 C234 1.367 . S
C235 C243 1.433 . S
C236 H232 0.929 . S
C236 C238 1.378 . S
C236 C240 1.350 . S
C237 C240 1.463 . S
C237 C242 1.350 . S
C237 N245 1.427 . S
C238 H229 0.930 . S
C238 C236 1.378 . S
C238 C239 1.367 . S
C239 C238 1.367 . S
C239 C241 1.433 . S
C240 C236 1.350 . S
C240 C237 1.463 . S
C240 N244 1.427 . S
C241 H231 0.929 . S
C241 C239 1.433 . S
C241 N244 1.384 . S
C242 H233 0.942 . S
C242 C234 1.378 . S
C242 C237 1.350 . S
C243 H230 0.929 . S
C243 C235 1.433 . S
C243 N245 1.384 . S
N244 C240 1.427 . S
N244 C241 1.384 . S
N245 C237 1.427 . S
N245 C243 1.384 . S
H246 C252 0.930 . S
H247 C256 0.930 . S
H248 C261 0.929 . S
H249 C259 0.929 . S
H250 C254 0.929 . S
H251 C260 0.929 . S
C252 H246 0.930 . S
C252 C253 1.367 . S
C252 C260 1.378 . S
C253 C252 1.367 . S
C253 C261 1.433 . S
C254 H250 0.929 . S
C254 C256 1.378 . S
C254 C258 1.350 . S
C255 C258 1.463 . S
C255 C260 1.350 . S
C255 N263 1.427 . S
C256 H247 0.930 . S
C256 C254 1.378 . S
C256 C257 1.367 . S
C257 C256 1.367 . S
C257 C259 1.433 . S
C258 C254 1.350 . S
C258 C255 1.463 . S
C258 N262 1.427 . S
C259 H249 0.929 . S
C259 C257 1.433 . S
C259 N262 1.384 . S
C260 H251 0.929 . S
C260 C252 1.378 . S
C260 C255 1.350 . S
C261 H248 0.929 . S
C261 C253 1.433 . S
C261 N263 1.384 . S
N262 C258 1.427 . S
N262 C259 1.384 . S
N263 C255 1.427 . S
N263 C261 1.384 . S
H264 C270 0.930 . S
H265 C274 0.930 . S
H266 C279 0.929 . S
H267 C277 0.929 . S
H268 C272 0.929 . S
H269 C278 0.929 . S
C270 H264 0.930 . S
C270 C271 1.367 . S
C270 C278 1.378 . S
C271 C270 1.367 . S
C271 C279 1.433 . S
C272 H268 0.929 . S
C272 C274 1.378 . S
C272 C276 1.350 . S
C273 C276 1.463 . S
C273 C278 1.350 . S
C273 N281 1.427 . S
C274 H265 0.930 . S
C274 C272 1.378 . S
C274 C275 1.367 . S
C275 C274 1.367 . S
C275 C277 1.433 . S
C276 C272 1.350 . S
C276 C273 1.463 . S
C276 N280 1.427 . S
C277 H267 0.929 . S
C277 C275 1.433 . S
C277 N280 1.384 . S
C278 H269 0.929 . S
C278 C270 1.378 . S
C278 C273 1.350 . S
C279 H266 0.929 . S
C279 C271 1.433 . S
C279 N281 1.384 . S
N280 C276 1.427 . S
N280 C277 1.384 . S
N281 C273 1.427 . S
N281 C279 1.384 . S
H282 C288 0.930 . S
H283 C292 0.930 . S
H284 C297 0.929 . S
H285 C295 0.929 . S
H286 C290 0.929 . S
H287 C296 0.929 . S
C288 H282 0.930 . S
C288 C289 1.367 . S
C288 C296 1.378 . S
C289 C288 1.367 . S
C289 C297 1.433 . S
C290 H286 0.929 . S
C290 C292 1.378 . S
C290 C294 1.350 . S
C291 C294 1.463 . S
C291 C296 1.350 . S
C291 N299 1.427 . S
C292 H283 0.930 . S
C292 C290 1.378 . S
C292 C293 1.367 . S
C293 C292 1.367 . S
C293 C295 1.433 . S
C294 C290 1.350 . S
C294 C291 1.463 . S
C294 N298 1.427 . S
C295 H285 0.929 . S
C295 C293 1.433 . S
C295 N298 1.384 . S
C296 H287 0.929 . S
C296 C288 1.378 . S
C296 C291 1.350 . S
C297 H284 0.929 . S
C297 C289 1.433 . S
C297 N299 1.384 . S
N298 C294 1.427 . S
N298 C295 1.384 . S
N299 C291 1.427 . S
N299 C297 1.384 . S
H300 C306 0.930 . S
H301 C310 0.930 . S
H302 C315 0.929 . S
H303 C313 0.929 . S
H304 C308 0.929 . S
H305 C314 0.929 . S
C306 H300 0.930 . S
C306 C307 1.367 . S
C306 C314 1.378 . S
C307 C306 1.367 . S
C307 C315 1.433 . S
C308 H304 0.929 . S
C308 C310 1.378 . S
C308 C312 1.350 . S
C309 C312 1.463 . S
C309 C314 1.350 . S
C309 N317 1.427 . S
C310 H301 0.930 . S
C310 C308 1.378 . S
C310 C311 1.367 . S
C311 C310 1.367 . S
C311 C313 1.433 . S
C312 C308 1.350 . S
C312 C309 1.463 . S
C312 N316 1.427 . S
C313 H303 0.929 . S
C313 C311 1.433 . S
C313 N316 1.384 . S
C314 H305 0.929 . S
C314 C306 1.378 . S
C314 C309 1.350 . S
C315 H302 0.929 . S
C315 C307 1.433 . S
C315 N317 1.384 . S
N316 C312 1.427 . S
N316 C313 1.384 . S
N317 C309 1.427 . S
N317 C315 1.384 . S
H318 C324 0.930 . S
H319 C328 0.930 . S
H320 C333 0.929 . S
H321 C331 0.929 . S
H322 C326 0.929 . S
H323 C332 0.929 . S
C324 H318 0.930 . S
C324 C325 1.367 1_655 S
C324 C332 1.378 . S
C325 C324 1.367 1_455 S
C325 C333 1.433 1_545 S
C326 H322 0.929 . S
C326 C328 1.378 . S
C326 C330 1.350 1_565 S
C327 C330 1.463 . S
C327 C332 1.350 1_455 S
C327 N335 1.427 1_545 S
C328 H319 0.930 . S
C328 C326 1.378 . S
C328 C329 1.360 1_565 S
C329 C328 1.360 1_545 S
C329 C331 1.440 1_455 S
C330 C326 1.350 1_545 S
C330 C327 1.463 . S
C330 N334 1.427 1_455 S
C331 H321 0.929 . S
C331 C329 1.440 1_655 S
C331 N334 1.384 . S
C332 H323 0.929 . S
C332 C324 1.378 . S
C332 C327 1.350 1_655 S
C333 H320 0.929 . S
C333 C325 1.433 1_565 S
C333 N335 1.384 . S
N334 C330 1.427 1_655 S
N334 C331 1.384 . S
N335 C327 1.427 1_565 S
N335 C333 1.384 . S
H336 C342 0.930 . S
H337 C346 0.930 . S
H338 C351 0.929 . S
H339 C349 0.929 . S
H340 C344 0.929 . S
H341 C350 0.929 . S
C342 H336 0.930 . S
C342 C343 1.367 1_665 S
C342 C350 1.378 . S
C343 C342 1.367 1_445 S
C343 C351 1.433 . S
C344 H340 0.929 . S
C344 C346 1.378 . S
C344 C348 1.350 . S
C345 C348 1.463 . S
C345 C350 1.350 1_445 S
C345 N353 1.427 . S
C346 H337 0.930 . S
C346 C344 1.378 . S
C346 C347 1.367 . S
C347 C346 1.367 . S
C347 C349 1.433 1_445 S
C348 C344 1.350 . S
C348 C345 1.463 . S
C348 N352 1.427 1_445 S
C349 H339 0.929 . S
C349 C347 1.433 1_665 S
C349 N352 1.384 . S
C350 H341 0.929 . S
C350 C342 1.378 . S
C350 C345 1.350 1_665 S
C351 H338 0.929 . S
C351 C343 1.433 . S
C351 N353 1.384 . S
N352 C348 1.427 1_665 S
N352 C349 1.384 . S
N353 C345 1.427 . S
N353 C351 1.384 . S
H354 C360 0.930 . S
H355 C364 0.930 . S
H356 C369 0.929 . S
H357 C367 0.929 . S
H358 C362 0.929 . S
H359 C368 0.929 . S
C360 H354 0.930 . S
C360 C361 1.367 . S
C360 C368 1.378 . S
C361 C360 1.367 . S
C361 C369 1.433 . S
C362 H358 0.929 . S
C362 C364 1.378 . S
C362 C366 1.350 . S
C363 C366 1.463 . S
C363 C368 1.350 . S
C363 N371 1.427 . S
C364 H355 0.930 . S
C364 C362 1.378 . S
C364 C365 1.367 . S
C365 C364 1.367 . S
C365 C367 1.433 . S
C366 C362 1.350 . S
C366 C363 1.463 . S
C366 N370 1.427 . S
C367 H357 0.929 . S
C367 C365 1.433 . S
C367 N370 1.384 . S
C368 H359 0.929 . S
C368 C360 1.378 . S
C368 C363 1.350 . S
C369 H356 0.929 . S
C369 C361 1.433 . S
C369 N371 1.384 . S
N370 C366 1.427 . S
N370 C367 1.384 . S
N371 C363 1.427 . S
N371 C369 1.384 . S
H372 C378 0.930 . S
H373 C382 0.930 . S
H374 C387 0.929 . S
H375 C385 0.929 . S
H376 C380 0.929 . S
H377 C386 0.929 . S
C378 H372 0.930 . S
C378 C379 1.367 . S
C378 C386 1.378 . S
C379 C378 1.367 . S
C379 C387 1.433 . S
C380 H376 0.929 . S
C380 C382 1.378 . S
C380 C384 1.350 . S
C381 C384 1.463 . S
C381 C386 1.350 . S
C381 N389 1.427 . S
C382 H373 0.930 . S
C382 C380 1.378 . S
C382 C383 1.367 . S
C383 C382 1.367 . S
C383 C385 1.433 . S
C384 C380 1.350 . S
C384 C381 1.463 . S
C384 N388 1.427 . S
C385 H375 0.929 . S
C385 C383 1.433 . S
C385 N388 1.384 . S
C386 H377 0.929 . S
C386 C378 1.378 . S
C386 C381 1.350 . S
C387 H374 0.929 . S
C387 C379 1.433 . S
C387 N389 1.384 . S
N388 C384 1.427 . S
N388 C385 1.384 . S
N389 C381 1.427 . S
N389 C387 1.384 . S
C185 C159 1.433 . S
C181 C21 1.442 . S
C199 C19 1.437 . S
C203 C127 1.423 . S
C217 C18 1.404 . S
C221 C165 1.392 . S
C235 C20 1.421 . S
C239 C133 1.402 . S
C253 C44 1.438 . S
C257 C95 1.430 . S
C271 C42 1.430 . S
C275 C63 1.416 . S
C293 C101 1.388 . S
C289 C41 1.400 . S
C311 C69 1.405 . S
C307 C43 1.423 . S
C325 C16 1.496 . S
C329 C75 1.462 . S
C343 C17 1.461 . S
C347 C107 1.433 1_545 S
C365 C139 1.458 . S
C361 C39 1.496 . S
C379 C40 1.461 . S
C383 C171 1.431 . S
