# Generated by pormake.
# Topology anh, (6,3)-cn, num edge types: 1
# Building blocks:
#     Node 0, Type 0, BuildingBlock: VOLQOD_clean_sbu_1, # of connection points: 6
#     Node 1, Type 0, BuildingBlock: VOLQOD_clean_sbu_1, # of connection points: 6
#     Node 2, Type 0, BuildingBlock: VOLQOD_clean_sbu_1, # of connection points: 6
#     Node 3, Type 1, BuildingBlock: ESEHIV_clean_linker_0, # of connection points: 3
#     Node 4, Type 1, BuildingBlock: ESEHIV_clean_linker_0, # of connection points: 3
#     Node 5, Type 1, BuildingBlock: ESEHIV_clean_linker_0, # of connection points: 3
#     Node 6, Type 1, BuildingBlock: ESEHIV_clean_linker_0, # of connection points: 3
#     Node 7, Type 1, BuildingBlock: ESEHIV_clean_linker_0, # of connection points: 3
#     Node 8, Type 1, BuildingBlock: ESEHIV_clean_linker_0, # of connection points: 3
#     Edge 9, Type (0, 1), BuildingBlock: TEMPAE_clean_linker_10, # of connection points: 2
#     Edge 10, Type (0, 1), BuildingBlock: TEMPAE_clean_linker_10, # of connection points: 2
#     Edge 11, Type (0, 1), BuildingBlock: TEMPAE_clean_linker_10, # of connection points: 2
#     Edge 12, Type (0, 1), BuildingBlock: TEMPAE_clean_linker_10, # of connection points: 2
#     Edge 13, Type (0, 1), BuildingBlock: TEMPAE_clean_linker_10, # of connection points: 2
#     Edge 14, Type (0, 1), BuildingBlock: TEMPAE_clean_linker_10, # of connection points: 2
#     Edge 15, Type (0, 1), BuildingBlock: TEMPAE_clean_linker_10, # of connection points: 2
#     Edge 16, Type (0, 1), BuildingBlock: TEMPAE_clean_linker_10, # of connection points: 2
#     Edge 17, Type (0, 1), BuildingBlock: TEMPAE_clean_linker_10, # of connection points: 2
#     Edge 18, Type (0, 1), BuildingBlock: TEMPAE_clean_linker_10, # of connection points: 2
#     Edge 19, Type (0, 1), BuildingBlock: TEMPAE_clean_linker_10, # of connection points: 2
#     Edge 20, Type (0, 1), BuildingBlock: TEMPAE_clean_linker_10, # of connection points: 2
#     Edge 21, Type (0, 1), BuildingBlock: TEMPAE_clean_linker_10, # of connection points: 2
#     Edge 22, Type (0, 1), BuildingBlock: TEMPAE_clean_linker_10, # of connection points: 2
#     Edge 23, Type (0, 1), BuildingBlock: TEMPAE_clean_linker_10, # of connection points: 2
#     Edge 24, Type (0, 1), BuildingBlock: TEMPAE_clean_linker_10, # of connection points: 2
#     Edge 25, Type (0, 1), BuildingBlock: TEMPAE_clean_linker_10, # of connection points: 2
#     Edge 26, Type (0, 1), BuildingBlock: TEMPAE_clean_linker_10, # of connection points: 2
# Relax obj value: 0.167
# Max RMSD: 0.230
# Mean RMSD: 0.114
data_MOF--net-anh--node1-VOLQOD_clean_sbu_1--node2-ESEHIV_clean_linker_0--edge1-TEMPAE_clean_linker_10
_symmetry_space_group_name_H-M    P1
_symmetry_Int_Tables_number       1
_symmetry_cell_setting            triclinic
loop_
_symmetry_equiv_pos_as_xyz
'x, y, z'
_cell_length_a     27.507461
_cell_length_b     27.296806
_cell_length_c     58.696031
_cell_angle_alpha  90.051787
_cell_angle_beta   89.610459
_cell_angle_gamma 120.49336
loop_
_atom_site_label
_atom_site_type_symbol
_atom_site_fract_x
_atom_site_fract_y
_atom_site_fract_z
_atom_type_partial_charge
O0 O 0.97917 0.54928 0.20747 0.0
Zn1 Zn 0.98099 0.5697 0.17458 0.0
O2 O -0.00702 0.51884 0.15535 0.0
Zn3 Zn 0.93357 0.48292 0.13323 0.0
Zn4 Zn -0.00594 0.46072 0.1741 0.0
Zn5 Zn 0.06249 0.56118 0.13844 0.0
O6 O 0.96236 0.49088 0.1012 0.0
O7 O 0.04896 0.56496 0.10501 0.0
O8 O 0.90774 0.56585 0.16719 0.0
O9 O 0.88539 0.51789 0.13457 0.0
O10 O 0.88067 0.40121 0.1411 0.0
O11 O 0.9209 0.38707 0.17101 0.0
O12 O 0.05766 0.44894 0.1646 0.0
O13 O 0.04623 0.64991 0.17176 0.0
O14 O 0.10622 0.52091 0.14058 0.0
O15 O 0.10796 0.6406 0.15035 0.0
C16 C -0.01001 0.5153 0.21808 0.0
C17 C 0.00832 0.53002 0.09258 0.0
C18 C 0.88018 0.36949 0.15707 0.0
C19 C 0.87679 0.54619 0.14965 0.0
C20 C 0.09914 0.47683 0.15103 0.0
C21 C 0.09497 0.67082 0.16263 0.0
O22 O 0.0002 0.48078 0.20742 0.0
O23 O 0.47389 0.03791 0.45094 0.0
Zn24 Zn 0.45502 0.02417 0.48429 0.0
O25 O 0.50772 0.00708 0.49951 0.0
Zn26 Zn 0.54835 0.06239 0.5231 0.0
Zn27 Zn 0.56218 0.00843 0.47768 0.0
Zn28 Zn 0.46595 0.93289 0.51353 0.0
O29 O 0.54054 0.02621 0.5537 0.0
O30 O 0.47291 0.93711 0.54759 0.0
O31 O 0.45567 0.09211 0.49832 0.0
O32 O 0.51642 0.11285 0.5265 0.0
O33 O 0.62965 0.11465 0.51459 0.0
O34 O 0.63779 0.07834 0.48196 0.0
O35 O 0.57106 0.93973 0.48115 0.0
O36 O 0.37555 0.9573 0.48572 0.0
O37 O 0.4968 0.88473 0.50316 0.0
O38 O 0.3845 0.89312 0.50542 0.0
C39 C 0.50569 0.02896 0.43783 0.0
C40 C 0.50622 0.97632 0.56103 0.0
C41 C 0.65868 0.11634 0.49732 0.0
C42 C 0.48178 0.12174 0.51565 0.0
C43 C 0.53897 0.89275 0.49123 0.0
C44 C 0.35426 0.90787 0.49445 0.0
O45 O 0.53909 0.01366 0.44568 0.0
O46 O 0.46545 0.4765 0.78796 0.0
Zn47 Zn 0.44989 0.44208 0.8195 0.0
O48 O 0.5108 0.48985 0.84009 0.0
Zn49 Zn 0.48586 0.52038 0.86409 0.0
Zn50 Zn 0.56962 0.55156 0.82265 0.0
Zn51 Zn 0.53932 0.44688 0.85479 0.0
O52 O 0.50413 0.50495 0.89553 0.0
O53 O 0.51439 0.43106 0.88761 0.0
O54 O 0.37564 0.4303 0.83097 0.0
O55 O 0.40235 0.48127 0.86277 0.0
O56 O 0.51247 0.603 0.85891 0.0
O57 O 0.56674 0.62234 0.8282 0.0
O58 O 0.64552 0.56553 0.83138 0.0
O59 O 0.4445 0.36602 0.81629 0.0
O60 O 0.62394 0.492 0.8541 0.0
O61 O 0.51175 0.37251 0.83905 0.0
C62 C 0.51227 0.50971 0.77808 0.0
C63 C 0.50737 0.4621 0.90188 0.0
C64 C 0.54304 0.63711 0.84319 0.0
C65 C 0.36402 0.44819 0.84906 0.0
C66 C 0.66024 0.53796 0.84427 0.0
C67 C 0.47281 0.34517 0.82462 0.0
O68 O 0.55818 0.53649 0.78907 0.0
H69 H 0.38717 0.98435 0.26667 0.0
H70 H 0.56242 0.11396 0.26227 0.0
H71 H 0.46671 0.04348 0.20118 0.0
C72 C 0.42429 0.01195 0.25655 0.0
C73 C 0.421 0.00918 0.23269 0.0
C74 C 0.4751 0.04962 0.26743 0.0
C75 C 0.52251 0.08591 0.2541 0.0
C76 C 0.51962 0.0842 0.23021 0.0
C77 C 0.46875 0.04575 0.21962 0.0
H78 H 0.53929 0.61691 0.60208 0.0
H79 H 0.49277 0.44082 0.60529 0.0
H80 H 0.51315 0.52114 0.54053 0.0
C81 C 0.52885 0.57748 0.5937 0.0
C82 C 0.52982 0.57558 0.56972 0.0
C83 C 0.51421 0.52871 0.60684 0.0
C84 C 0.50125 0.47809 0.59557 0.0
C85 C 0.50079 0.47528 0.57174 0.0
C86 C 0.51489 0.52395 0.55895 0.0
H87 H -0.00163 0.60263 0.91697 0.0
H88 H 0.08198 0.50573 0.91961 0.0
H89 H 0.05108 0.55761 0.85509 0.0
C90 C 0.01905 0.58295 0.90841 0.0
C91 C 0.02063 0.58232 0.88443 0.0
C92 C 0.04159 0.55603 0.92142 0.0
C93 C 0.06588 0.52835 0.91003 0.0
C94 C 0.06972 0.52946 0.88622 0.0
C95 C 0.04825 0.5574 0.87352 0.0
H96 H 0.92067 0.43591 0.39442 0.0
H97 H 0.04806 0.61309 0.39113 0.0
H98 H -0.01174 0.53086 0.45614 0.0
C99 C 0.94823 0.4759 0.40285 0.0
C100 C 0.94931 0.47813 0.42676 0.0
C101 C 0.9842 0.52422 0.38983 0.0
C102 C 0.02085 0.57523 0.40102 0.0
C103 C 0.02272 0.57794 0.4249 0.0
C104 C -0.01333 0.52925 0.43768 0.0
H105 H 0.44052 0.00888 0.72732 0.0
H106 H 0.46649 0.86844 0.73892 0.0
H107 H 0.4518 0.95999 0.79574 0.0
C108 C 0.44474 0.98045 0.73895 0.0
C109 C 0.44458 0.98909 0.76249 0.0
C110 C 0.45244 0.93692 0.73029 0.0
C111 C 0.45946 0.90144 0.74552 0.0
C112 C 0.45915 0.90939 0.76918 0.0
C113 C 0.45123 0.95305 0.77753 0.0
H114 H 0.35199 0.36097 0.07118 0.0
H115 H 0.52599 0.40515 0.07441 0.0
H116 H 0.43712 0.39688 0.1356 0.0
C117 C 0.38903 0.37076 0.08096 0.0
C118 C 0.38843 0.37801 0.1047 0.0
C119 C 0.43836 0.38004 0.06962 0.0
C120 C 0.48643 0.39434 0.08268 0.0
C121 C 0.48571 0.40009 0.10635 0.0
C122 C 0.43668 0.39114 0.1173 0.0
C123 C 0.13933 0.41486 0.16021 0.0
C124 C 0.13844 0.45614 0.14627 0.0
C125 C 0.17624 0.39475 0.15547 0.0
C126 C 0.21243 0.41606 0.13625 0.0
C127 C 0.21097 0.45695 0.12192 0.0
C128 C 0.17427 0.47673 0.12719 0.0
C129 C 0.17734 0.35166 0.17123 0.0
C130 C 0.24871 0.48041 0.10114 0.0
C131 C 0.35262 0.42357 0.13165 0.0
C132 C 0.34101 0.3806 0.11573 0.0
C133 C 0.30999 0.4326 0.13985 0.0
C134 C 0.25452 0.39868 0.13158 0.0
C135 C 0.24166 0.35319 0.11653 0.0
C136 C 0.28511 0.34445 0.10887 0.0
C137 C 0.32529 0.48125 0.15608 0.0
C138 C 0.1829 0.31624 0.10733 0.0
H139 H 0.11167 0.39873 0.17496 0.0
H140 H 0.17338 0.50811 0.11617 0.0
H141 H 0.17085 0.31405 0.16144 0.0
H142 H 0.21931 0.37042 0.17939 0.0
H143 H 0.14455 0.33726 0.18481 0.0
H144 H 0.24026 0.50981 0.09115 0.0
H145 H 0.29357 0.50373 0.10639 0.0
H146 H 0.24278 0.44515 0.08987 0.0
H147 H 0.3957 0.45253 0.1368 0.0
H148 H 0.27562 0.31057 0.09689 0.0
H149 H 0.29425 0.46762 0.17028 0.0
H150 H 0.32436 0.5163 0.14692 0.0
H151 H 0.36806 0.49815 0.16336 0.0
H152 H 0.15114 0.30198 0.12127 0.0
H153 H 0.17816 0.27826 0.09832 0.0
H154 H 0.17336 0.34132 0.09518 0.0
C155 C 0.72785 0.21908 0.50391 0.0
C156 C 0.71397 0.16797 0.49293 0.0
C157 C 0.77243 0.27109 0.49592 0.0
C158 C 0.80413 0.27169 0.47673 0.0
C159 C 0.79396 0.21983 0.46707 0.0
C160 C 0.74875 0.16851 0.47523 0.0
C161 C 0.78204 0.32553 0.5067 0.0
C162 C 0.82763 0.2187 0.44686 0.0
C163 C 0.85478 0.39395 0.43504 0.0
C164 C 0.91218 0.4265 0.44023 0.0
C165 C 0.81912 0.344 0.44712 0.0
C166 C 0.84163 0.32596 0.46467 0.0
C167 C 0.89951 0.35895 0.47017 0.0
C168 C 0.93417 0.40914 0.45791 0.0
C169 C 0.7574 0.31027 0.44092 0.0
C170 C 0.92496 0.34066 0.48862 0.0
H171 H 0.70134 0.21907 0.51766 0.0
H172 H 0.73874 0.12907 0.46687 0.0
H173 H 0.82772 0.35588 0.50904 0.0
H174 H 0.76559 0.34607 0.49527 0.0
H175 H 0.76034 0.3178 0.52347 0.0
H176 H 0.82062 0.17545 0.44372 0.0
H177 H 0.81503 0.23276 0.4314 0.0
H178 H 0.87337 0.24844 0.44942 0.0
H179 H 0.83774 0.40778 0.42153 0.0
H180 H 0.97875 0.43414 0.46177 0.0
H181 H 0.73087 0.30447 0.45616 0.0
H182 H 0.74654 0.26735 0.43493 0.0
H183 H 0.74636 0.33121 0.42734 0.0
H184 H 0.90148 0.33375 0.50487 0.0
H185 H 0.97014 0.37244 0.49149 0.0
H186 H 0.92135 0.29957 0.48392 0.0
C187 C 0.50268 0.69951 0.85091 0.0
C188 C 0.54278 0.69063 0.83969 0.0
C189 C 0.49141 0.74147 0.84334 0.0
C190 C 0.52106 0.77508 0.82418 0.0
C191 C 0.56557 0.77027 0.81436 0.0
C192 C 0.57602 0.72815 0.82229 0.0
C193 C 0.44434 0.74611 0.85452 0.0
C194 C 0.59861 0.80582 0.79405 0.0
C195 C 0.44542 0.81554 0.78135 0.0
C196 C 0.47047 0.87412 0.785 0.0
C197 C 0.45997 0.78247 0.79467 0.0
C198 C 0.50031 0.80863 0.81217 0.0
C199 C 0.52366 0.86719 0.81672 0.0
C200 C 0.50866 0.89939 0.80297 0.0
C201 C 0.43383 0.71993 0.78937 0.0
C202 C 0.56624 0.8963 0.83541 0.0
H203 H 0.4771 0.67108 0.86453 0.0
H204 H 0.60773 0.7222 0.81377 0.0
H205 H 0.45586 0.79122 0.85621 0.0
H206 H 0.40612 0.72449 0.84376 0.0
H207 H 0.43351 0.72587 0.87165 0.0
H208 H 0.63632 0.80218 0.79034 0.0
H209 H 0.57116 0.7916 0.77881 0.0
H210 H 0.61251 0.85123 0.79687 0.0
H211 H 0.4151 0.79571 0.76775 0.0
H212 H 0.52852 0.94479 0.80576 0.0
H213 H 0.41428 0.69415 0.80495 0.0
H214 H 0.46706 0.71109 0.78351 0.0
H215 H 0.40113 0.70569 0.77596 0.0
H216 H 0.55179 0.87101 0.85139 0.0
H217 H 0.57407 0.93972 0.8389 0.0
H218 H 0.60681 0.89973 0.83039 0.0
C219 C 0.80518 0.5534 0.12719 0.0
C220 C 0.82361 0.54606 0.14836 0.0
C221 C 0.74846 0.53617 0.12379 0.0
C222 C 0.70937 0.50955 0.14189 0.0
C223 C 0.72869 0.5066 0.16384 0.0
C224 C 0.7861 0.52561 0.16689 0.0
C225 C 0.72967 0.54152 0.10027 0.0
C226 C 0.68826 0.47804 0.18348 0.0
C227 C 0.56147 0.47723 0.1292 0.0
C228 C 0.53884 0.42368 0.11901 0.0
C229 C 0.61627 0.50491 0.13796 0.0
C230 C 0.64835 0.47771 0.13673 0.0
C231 C 0.62394 0.4218 0.12792 0.0
C232 C 0.56955 0.39572 0.11882 0.0
C233 C 0.64108 0.56459 0.14703 0.0
C234 C 0.65641 0.39079 0.12688 0.0
H235 H 0.83449 0.56922 0.11291 0.0
H236 H 0.80045 0.51928 0.1832 0.0
H237 H 0.70728 0.49904 0.09211 0.0
H238 H 0.69981 0.5575 0.10127 0.0
H239 H 0.76586 0.57055 0.08918 0.0
H240 H 0.71036 0.48939 0.20011 0.0
H241 H 0.65495 0.48953 0.18382 0.0
H242 H 0.66713 0.43124 0.1814 0.0
H243 H 0.53747 0.49879 0.1291 0.0
H244 H 0.55156 0.35417 0.11096 0.0
H245 H 0.6723 0.59502 0.13456 0.0
H246 H 0.6637 0.56956 0.16321 0.0
H247 H 0.60828 0.57626 0.14997 0.0
H248 H 0.69107 0.41163 0.11416 0.0
H249 H 0.62919 0.34546 0.12204 0.0
H250 H 0.67583 0.39271 0.14361 0.0
C251 C 0.27288 0.80868 0.49764 0.0
C252 C 0.29516 0.86431 0.48938 0.0
C253 C 0.22205 0.76406 0.48929 0.0
C254 C 0.19264 0.77547 0.47241 0.0
C255 C 0.212 0.83221 0.46562 0.0
C256 C 0.26325 0.87609 0.47416 0.0
C257 C 0.20266 0.70411 0.49704 0.0
C258 C 0.18115 0.84608 0.44795 0.0
C259 C 0.12102 0.65888 0.42876 0.0
C260 C 0.06492 0.63068 0.4364 0.0
C261 C 0.16255 0.70702 0.44003 0.0
C262 C 0.14754 0.72758 0.4594 0.0
C263 C 0.09069 0.70027 0.46687 0.0
C264 C 0.04994 0.65177 0.45531 0.0
C265 C 0.22286 0.73475 0.43161 0.0
C266 C 0.07322 0.72151 0.48729 0.0
H267 H 0.29675 0.79923 0.50967 0.0
H268 H 0.27973 0.91905 0.4679 0.0
H269 H 0.15683 0.68084 0.50096 0.0
H270 H 0.20986 0.6809 0.48313 0.0
H271 H 0.22572 0.70319 0.51236 0.0
H272 H 0.19548 0.89216 0.44765 0.0
H273 H 0.1889 0.8339 0.43086 0.0
H274 H 0.13497 0.82164 0.45114 0.0
H275 H 0.1328 0.6422 0.41433 0.0
H276 H 0.0064 0.63024 0.46109 0.0
H277 H 0.2497 0.73187 0.44495 0.0
H278 H 0.23957 0.78052 0.42812 0.0
H279 H 0.22702 0.7146 0.41584 0.0
H280 H 0.09223 0.71568 0.50291 0.0
H281 H 0.02667 0.69874 0.48961 0.0
H282 H 0.08905 0.76768 0.48555 0.0
C283 C 0.42001 0.25812 0.80054 0.0
C284 C 0.46175 0.28891 0.8168 0.0
C285 C 0.41177 0.20648 0.79198 0.0
C286 C 0.44619 0.18539 0.79985 0.0
C287 C 0.48717 0.21531 0.81674 0.0
C288 C 0.49439 0.26667 0.82504 0.0
C289 C 0.36752 0.17545 0.77402 0.0
C290 C 0.52473 0.19408 0.8255 0.0
C291 C 0.40711 0.03245 0.78993 0.0
C292 C 0.44184 0.03844 0.77129 0.0
C293 C 0.40678 0.07977 0.79908 0.0
C294 C 0.44225 0.13412 0.78937 0.0
C295 C 0.47651 0.14017 0.77026 0.0
C296 C 0.4759 0.09222 0.76146 0.0
C297 C 0.36948 0.07186 0.81939 0.0
C298 C 0.51515 0.19756 0.75953 0.0
H299 H 0.3944 0.27482 0.79415 0.0
H300 H 0.52658 0.28997 0.83767 0.0
H301 H 0.38822 0.17548 0.75772 0.0
H302 H 0.33938 0.13041 0.77908 0.0
H303 H 0.34137 0.19519 0.77101 0.0
H304 H 0.55237 0.22075 0.83955 0.0
H305 H 0.49882 0.14969 0.83171 0.0
H306 H 0.5518 0.19395 0.81142 0.0
H307 H 0.38039 0.99076 0.79741 0.0
H308 H 0.50344 0.0971 0.74726 0.0
H309 H 0.3425 0.09031 0.8158 0.0
H310 H 0.39595 0.09481 0.83427 0.0
H311 H 0.34196 0.02636 0.82406 0.0
H312 H 0.49083 0.21824 0.75475 0.0
H313 H 0.53703 0.19449 0.74409 0.0
H314 H 0.54746 0.22566 0.77201 0.0
C315 C 0.60489 0.86168 0.50317 0.0
C316 C 0.55445 0.8489 0.49253 0.0
C317 C 0.61116 0.81826 0.51284 0.0
C318 C 0.56626 0.76127 0.51128 0.0
C319 C 0.51862 0.74799 0.49783 0.0
C320 C 0.51284 0.79225 0.4889 0.0
C321 C 0.66253 0.83419 0.52709 0.0
C322 C 0.47066 0.68758 0.49512 0.0
C323 C 0.57499 0.63708 0.53525 0.0
C324 C 0.54442 0.62665 0.55574 0.0
C325 C 0.58413 0.68186 0.52077 0.0
C326 C 0.56324 0.71767 0.52718 0.0
C327 C 0.53507 0.70931 0.54838 0.0
C328 C 0.52543 0.66353 0.56225 0.0
C329 C 0.61377 0.68912 0.49821 0.0
C330 C 0.51296 0.74735 0.55603 0.0
H331 H 0.6367 0.90575 0.50614 0.0
H332 H 0.47384 0.78273 0.48066 0.0
H333 H 0.65167 0.83422 0.54533 0.0
H334 H 0.67671 0.80297 0.52502 0.0
H335 H 0.69805 0.87721 0.52264 0.0
H336 H 0.44248 0.68355 0.48087 0.0
H337 H 0.48692 0.65835 0.49202 0.0
H338 H 0.44517 0.67369 0.51105 0.0
H339 H 0.59096 0.60956 0.5303 0.0
H340 H 0.50116 0.65554 0.57783 0.0
H341 H 0.64621 0.73432 0.49525 0.0
H342 H 0.58266 0.67612 0.48424 0.0
H343 H 0.6342 0.66299 0.49716 0.0
H344 H 0.5467 0.79267 0.55479 0.0
H345 H 0.49682 0.73837 0.57385 0.0
H346 H 0.47813 0.7412 0.54474 0.0
C347 C 0.76176 0.60117 0.83348 0.0
C348 C 0.72073 0.55956 0.84794 0.0
C349 C 0.8191 0.61936 0.83618 0.0
C350 C 0.83532 0.59531 0.85375 0.0
C351 C 0.79428 0.55528 0.86901 0.0
C352 C 0.73749 0.53775 0.86584 0.0
C353 C 0.86162 0.66207 0.81959 0.0
C354 C 0.80999 0.52913 0.88821 0.0
C355 C 0.95221 0.56386 0.85337 0.0
C356 C -0.01445 0.59899 0.87117 0.0
C357 C 0.9067 0.56765 0.84514 0.0
C358 C 0.8938 0.60672 0.85526 0.0
C359 C 0.93162 0.64739 0.87092 0.0
C360 C 0.97755 0.6433 0.87861 0.0
C361 C 0.86822 0.52462 0.82784 0.0
C362 C 0.91998 0.69074 0.88159 0.0
H363 H 0.74902 0.61836 0.81963 0.0
H364 H 0.70607 0.50631 0.87729 0.0
H365 H 0.90158 0.69218 0.82823 0.0
H366 H 0.87164 0.63934 0.8064 0.0
H367 H 0.84502 0.68665 0.81089 0.0
H368 H 0.77345 0.50163 0.89944 0.0
H369 H 0.82681 0.50295 0.88109 0.0
H370 H 0.8436 0.56289 0.89878 0.0
H371 H 0.95788 0.52955 0.84734 0.0
H372 H 0.00449 0.67202 0.89174 0.0
H373 H 0.85355 0.54451 0.81527 0.0
H374 H 0.83045 0.49031 0.8367 0.0
H375 H 0.88941 0.505 0.81857 0.0
H376 H 0.9024 0.70767 0.86895 0.0
H377 H 0.95873 0.72671 0.88903 0.0
H378 H 0.88827 0.67012 0.89545 0.0
C379 C 0.19485 0.75088 0.16079 0.0
C380 C 0.13924 0.72947 0.16848 0.0
C381 C 0.23912 0.8019 0.16936 0.0
C382 C 0.2274 0.8323 0.1859 0.0
C383 C 0.17094 0.81338 0.19236 0.0
C384 C 0.12744 0.76205 0.18359 0.0
C385 C 0.29885 0.82089 0.16198 0.0
C386 C 0.15681 0.84512 0.20977 0.0
C387 C 0.34201 0.9091 0.22951 0.0
C388 C 0.36901 0.96518 0.22145 0.0
C389 C 0.29501 0.86583 0.21835 0.0
C390 C 0.27453 0.87899 0.19862 0.0
C391 C 0.30069 0.93575 0.19066 0.0
C392 C 0.34788 0.97829 0.20216 0.0
C393 C 0.26835 0.80569 0.22733 0.0
C394 C 0.27959 0.95124 0.16977 0.0
H395 H 0.20437 0.72639 0.14893 0.0
H396 H 0.08454 0.74623 0.18944 0.0
H397 H 0.32198 0.86679 0.15761 0.0
H398 H 0.3215 0.81477 0.17626 0.0
H399 H 0.30027 0.79658 0.14705 0.0
H400 H 0.11095 0.83001 0.21027 0.0
H401 H 0.16966 0.83896 0.22691 0.0
H402 H 0.18033 0.89141 0.2061 0.0
H403 H 0.35875 0.89865 0.2442 0.0
H404 H 0.36845 0.02178 0.19603 0.0
H405 H 0.27222 0.77819 0.21438 0.0
H406 H 0.22269 0.78821 0.23061 0.0
H407 H 0.28822 0.80306 0.24334 0.0
H408 H 0.2853 0.93046 0.15457 0.0
H409 H 0.30215 -0.00212 0.16675 0.0
H410 H 0.23378 0.93546 0.17148 0.0
C411 C 0.50181 0.19985 0.5427 0.0
C412 C 0.47423 0.16922 0.52307 0.0
C413 C 0.49938 0.24772 0.54929 0.0
C414 C 0.46831 0.26538 0.536 0.0
C415 C 0.43859 0.23367 0.51664 0.0
C416 C 0.44198 0.18583 0.51033 0.0
C417 C 0.53164 0.28044 0.57011 0.0
C418 C 0.40467 0.25123 0.50226 0.0
C419 C 0.44138 0.36991 0.56756 0.0
C420 C 0.48748 0.42171 0.56028 0.0
C421 C 0.43199 0.31833 0.55853 0.0
C422 C 0.46997 0.31886 0.54202 0.0
C423 C 0.51466 0.37121 0.53367 0.0
C424 C 0.52284 0.42213 0.5429 0.0
C425 C 0.38356 0.2633 0.56766 0.0
C426 C 0.55625 0.37343 0.51617 0.0
H427 H 0.52646 0.18715 0.55279 0.0
H428 H 0.42039 0.16226 0.49519 0.0
H429 H 0.56474 0.32409 0.56509 0.0
H430 H 0.50292 0.28446 0.58233 0.0
H431 H 0.55217 0.25983 0.57899 0.0
H432 H 0.38002 0.21928 0.48897 0.0
H433 H 0.37522 0.25764 0.51313 0.0
H434 H 0.4334 0.2924 0.49376 0.0
H435 H 0.41347 0.36973 0.58074 0.0
H436 H 0.55864 0.46219 0.53733 0.0
H437 H 0.4002 0.24236 0.57876 0.0
H438 H 0.36055 0.23362 0.55352 0.0
H439 H 0.3533 0.27022 0.57778 0.0
H440 H 0.58277 0.3581 0.52397 0.0
H441 H 0.58442 0.41717 0.50957 0.0
H442 H 0.53378 0.34507 0.50163 0.0
C443 C 0.26628 0.41726 0.83578 0.0
C444 C 0.30615 0.4363 0.85331 0.0
C445 C 0.21617 0.4185 0.83841 0.0
C446 C 0.20668 0.43991 0.85886 0.0
C447 C 0.24419 0.45377 0.87734 0.0
C448 C 0.29323 0.45127 0.87438 0.0
C449 C 0.17586 0.4012 0.8187 0.0
C450 C 0.23544 0.47643 0.89956 0.0
C451 C 0.14547 0.53513 0.8614 0.0
C452 C 0.09752 0.50221 0.8748 0.0
C453 C 0.17912 0.5132 0.85412 0.0
C454 C 0.16349 0.45678 0.86015 0.0
C455 C 0.11173 0.42151 0.87155 0.0
C456 C 0.0796 0.44504 0.87911 0.0
C457 C 0.23421 0.55233 0.84205 0.0
C458 C 0.09265 0.36055 0.87744 0.0
H459 H 0.27566 0.4048 0.81954 0.0
H460 H 0.32324 0.46462 0.8882 0.0
H461 H 0.13144 0.38009 0.82476 0.0
H462 H 0.18456 0.43962 0.80892 0.0
H463 H 0.18079 0.37208 0.80693 0.0
H464 H 0.26653 0.48144 0.9127 0.0
H465 H 0.23955 0.51854 0.8966 0.0
H466 H 0.19246 0.44765 0.90641 0.0
H467 H 0.15887 0.57931 0.85807 0.0
H468 H 0.04173 0.41949 0.88918 0.0
H469 H 0.23951 0.53113 0.82691 0.0
H470 H 0.26982 0.56293 0.85371 0.0
H471 H 0.23707 0.59261 0.8365 0.0
H472 H 0.10335 0.33993 0.86356 0.0
H473 H 0.04646 0.33551 0.88074 0.0
H474 H 0.11448 0.3593 0.89306 0.0
C475 C 0.77674 0.30424 0.15187 0.0
C476 C 0.82748 0.31541 0.16197 0.0
C477 C 0.72467 0.26102 0.16028 0.0
C478 C 0.72352 0.22795 0.17904 0.0
C479 C 0.77462 0.23552 0.1879 0.0
C480 C 0.82608 0.27932 0.17927 0.0
C481 C 0.67108 0.25422 0.15035 0.0
C482 C 0.77504 0.20052 0.20772 0.0
C483 C 0.60404 0.17889 0.22177 0.0
C484 C 0.57051 0.1212 0.21639 0.0
C485 C 0.65345 0.2142 0.20943 0.0
C486 C 0.66976 0.19109 0.19134 0.0
C487 C 0.63566 0.13304 0.18559 0.0
C488 C 0.58626 0.09869 0.1982 0.0
C489 C 0.68854 0.27614 0.21594 0.0
C490 C 0.65191 0.10708 0.16643 0.0
H491 H 0.77733 0.33175 0.13842 0.0
H492 H 0.86511 0.28724 0.18699 0.0
H493 H 0.63902 0.20865 0.14814 0.0
H494 H 0.65312 0.27267 0.16224 0.0
H495 H 0.67871 0.27615 0.13364 0.0
H496 H 0.8175 0.20615 0.21049 0.0
H497 H 0.762 0.21346 0.22347 0.0
H498 H 0.74446 0.15473 0.20498 0.0
H499 H 0.5915 0.19642 0.23566 0.0
H500 H 0.56061 0.05389 0.19417 0.0
H501 H 0.6941 0.3035 0.20103 0.0
H502 H 0.73115 0.28587 0.22127 0.0
H503 H 0.66916 0.28762 0.23008 0.0
H504 H 0.6583 0.13127 0.15043 0.0
H505 H 0.61949 0.06184 0.16348 0.0
H506 H 0.69251 0.10964 0.17041 0.0
C507 C 0.04471 0.58868 0.05733 0.0
C508 C 0.01449 0.53504 0.06764 0.0
C509 C 0.04949 0.59407 0.03355 0.0
C510 C 0.02509 0.5445 0.01993 0.0
C511 C -0.00445 0.49017 0.03034 0.0
C512 C -0.01023 0.48614 0.05411 0.0
C513 C 0.07977 0.65269 0.02299 0.0
C514 C 0.9705 0.43636 0.01638 0.0
C515 C -0.00925 0.55061 0.95796 0.0
C516 C 0.03806 0.55489 0.94677 0.0
C517 C -0.0132 0.54891 0.9818 0.0
C518 C 0.03016 0.54934 0.99476 0.0
C519 C 0.07779 0.55321 0.98367 0.0
C520 C 0.08166 0.55702 0.95986 0.0
C521 C 0.93596 0.54618 0.99309 0.0
C522 C 0.12425 0.55241 0.99694 0.0
H523 H 0.06339 0.62648 0.06786 0.0
H524 H 0.96682 0.44465 0.06216 0.0
H525 H 0.11627 0.6585 0.01269 0.0
H526 H 0.05099 0.65761 0.01129 0.0
H527 H 0.09522 0.68688 0.03599 0.0
H528 H 0.95093 0.3975 0.02719 0.0
H529 H 0.93789 0.43442 0.0048 0.0
H530 H 0.00371 0.43625 0.00558 0.0
H531 H 0.95616 0.54764 0.94815 0.0
H532 H 0.11897 0.56155 0.9515 0.0
H533 H 0.94966 0.58041 0.00597 0.0
H534 H 0.91096 0.50506 0.00218 0.0
H535 H 0.90811 0.55053 0.98065 0.0
H536 H 0.14385 0.589 0.00879 0.0
H537 H 0.15774 0.55421 0.98567 0.0
H538 H 0.10642 0.51315 0.00744 0.0
C539 C 0.45975 0.04223 0.40364 0.0
C540 C 0.50296 0.03559 0.41292 0.0
C541 C 0.45544 0.04667 0.38003 0.0
C542 C 0.49554 0.04487 0.36538 0.0
C543 C 0.53991 0.03935 0.37463 0.0
C544 C 0.54296 0.03453 0.3983 0.0
C545 C 0.40728 0.05208 0.37075 0.0
C546 C 0.58372 0.03776 0.3595 0.0
C547 C 0.45374 -0.00308 0.30443 0.0
C548 C 0.47941 0.04885 0.29262 0.0
C549 C 0.45827 -0.00487 0.32814 0.0
C550 C 0.48978 0.04649 0.34031 0.0
C551 C 0.51585 0.0991 0.32855 0.0
C552 C 0.51016 0.09967 0.30483 0.0
C553 C 0.42969 0.9382 0.34012 0.0
C554 C 0.54992 0.15469 0.34101 0.0
H555 H 0.42857 0.04299 0.41479 0.0
H556 H 0.5767 0.0298 0.40532 0.0
H557 H 0.42382 0.09056 0.35987 0.0
H558 H 0.38021 0.01489 0.35986 0.0
H559 H 0.38069 0.05468 0.38448 0.0
H560 H 0.61692 0.03577 0.36943 0.0
H561 H 0.5632 0.00013 0.34818 0.0
H562 H 0.60412 0.07602 0.3484 0.0
H563 H 0.43082 0.95741 0.29509 0.0
H564 H 0.52959 0.13996 0.29583 0.0
H565 H 0.40031 0.93716 0.35342 0.0
H566 H 0.46164 0.93165 0.34882 0.0
H567 H 0.40561 0.9023 0.32821 0.0
H568 H 0.52312 0.15961 0.35394 0.0
H569 H 0.56776 0.19191 0.32932 0.0
H570 H 0.58511 0.15488 0.35022 0.0
C571 C 0.47635 0.53046 0.74283 0.0
C572 C 0.51353 0.51678 0.75327 0.0
C573 C 0.47727 0.53735 0.71912 0.0
C574 C 0.51455 0.52781 0.70563 0.0
C575 C 0.55202 0.51373 0.71621 0.0
C576 C 0.55183 0.50954 0.74001 0.0
C577 C 0.43832 0.55462 0.70851 0.0
C578 C 0.59098 0.50128 0.70237 0.0
C579 C 0.47329 0.48165 0.64451 0.0
C580 C 0.5126 0.53009 0.63225 0.0
C581 C 0.47363 0.48038 0.66836 0.0
C582 C 0.51248 0.52962 0.68039 0.0
C583 C 0.55043 0.5796 0.66829 0.0
C584 C 0.55081 0.57893 0.64437 0.0
C585 C 0.43332 0.42578 0.68063 0.0
C586 C 0.59119 0.63353 0.6806 0.0
H587 H 0.44723 0.53664 0.75327 0.0
H588 H 0.58033 0.49872 0.74825 0.0
H589 H 0.46263 0.59198 0.69719 0.0
H590 H 0.4066 0.51955 0.69783 0.0
H591 H 0.41572 0.56537 0.72153 0.0
H592 H 0.61725 0.49063 0.71324 0.0
H593 H 0.56585 0.46508 0.69074 0.0
H594 H 0.61935 0.53849 0.69161 0.0
H595 H 0.44228 0.4442 0.63549 0.0
H596 H 0.5819 0.61646 0.63526 0.0
H597 H 0.40516 0.43264 0.69211 0.0
H598 H 0.45734 0.4121 0.6914 0.0
H599 H 0.4068 0.39078 0.6687 0.0
H600 H 0.56848 0.64402 0.69363 0.0
H601 H 0.61366 0.67026 0.66879 0.0
H602 H 0.62299 0.6274 0.68964 0.0
C603 C 0.46864 0.90907 0.59416 0.0
C604 C 0.50239 0.96466 0.58579 0.0
C605 C 0.46061 0.89827 0.61766 0.0
C606 C 0.48656 0.94422 0.63308 0.0
C607 C 0.5223 0.00011 0.62479 0.0
C608 C 0.52998 0.00962 0.60125 0.0
C609 C 0.42286 0.83803 0.62593 0.0
C610 C 0.55064 0.05024 0.64075 0.0
C611 C 0.42032 0.9373 0.69058 0.0
C612 C 0.45697 0.93152 0.70533 0.0
C613 C 0.42822 0.93926 0.66693 0.0
C614 C 0.47364 0.93487 0.65782 0.0
C615 C 0.50902 0.92603 0.67253 0.0
C616 C 0.50041 0.9247 0.69616 0.0
C617 C 0.38948 0.94858 0.65176 0.0
C618 C 0.55754 0.92065 0.6634 0.0
H619 H 0.44755 0.87399 0.58234 0.0
H620 H 0.5562 0.05269 0.59497 0.0
H621 H 0.44434 0.82739 0.63931 0.0
H622 H 0.38404 0.83383 0.6337 0.0
H623 H 0.41042 0.80658 0.61192 0.0
H624 H 0.57944 0.09053 0.63163 0.0
H625 H 0.51816 0.05549 0.64992 0.0
H626 H 0.5752 0.04269 0.65376 0.0
H627 H 0.38611 0.9416 0.69759 0.0
H628 H 0.52921 0.92073 0.70747 0.0
H629 H 0.37165 0.9156 0.63831 0.0
H630 H 0.4138 0.99043 0.6431 0.0
H631 H 0.35413 0.94761 0.66142 0.0
H632 H 0.54323 0.88936 0.6493 0.0
H633 H 0.57687 0.90736 0.67679 0.0
H634 H 0.59052 0.96217 0.65635 0.0
C635 C 0.46022 0.38924 0.93221 0.0
C636 C 0.49852 0.44565 0.92605 0.0
C637 C 0.44761 0.3735 0.95519 0.0
C638 C 0.47574 0.41483 0.97231 0.0
C639 C 0.51614 0.47145 0.9661 0.0
C640 C 0.52613 0.48649 0.94297 0.0
C641 C 0.40267 0.31334 0.96111 0.0
C642 C 0.54842 0.51626 0.98387 0.0
C643 C 0.4136 0.40243 0.03128 0.0
C644 C 0.44241 0.38189 0.04419 0.0
C645 C 0.42176 0.41026 0.00766 0.0
C646 C 0.46151 0.3997 0.99673 0.0
C647 C 0.48973 0.37768 0.00941 0.0
C648 C 0.47886 0.36781 0.03286 0.0
C649 C 0.38929 0.43187 0.99456 0.0
C650 C 0.53343 0.36714 -0.00155 0.0
H651 H 0.43843 0.35793 0.919 0.0
H652 H 0.5559 0.53004 0.93808 0.0
H653 H 0.4197 0.29393 0.97281 0.0
H654 H 0.36728 0.3137 0.97015 0.0
H655 H 0.38577 0.28604 0.94578 0.0
H656 H 0.58176 0.55683 0.9762 0.0
H657 H 0.51908 0.52491 0.99374 0.0
H658 H 0.56838 0.50083 0.99607 0.0
H659 H 0.38615 0.41465 0.03962 0.0
H660 H 0.50031 0.3505 0.04241 0.0
H661 H 0.37068 0.40602 0.97901 0.0
H662 H 0.41828 0.47632 0.989 0.0
H663 H 0.35487 0.43087 0.00494 0.0
H664 H 0.51525 0.33835 0.98364 0.0
H665 H 0.55034 0.34824 0.01053 0.0
H666 H 0.56903 0.4079 0.99196 0.0
C667 C -0.01395 0.55835 0.25514 0.0
C668 C -0.01009 0.51573 0.2433 0.0
C669 C 0.98503 0.55909 0.279 0.0
C670 C -0.01239 0.51599 0.29135 0.0
C671 C -0.00848 0.47284 0.27957 0.0
C672 C -0.00718 0.47332 0.25566 0.0
C673 C 0.98129 0.60606 0.291 0.0
C674 C -0.00593 0.42607 0.29222 0.0
C675 C 0.03632 0.54793 0.35261 0.0
C676 C 0.98488 0.52114 0.36459 0.0
C677 C 0.03783 0.54619 0.32877 0.0
C678 C -0.01334 0.51652 0.31663 0.0
C679 C 0.93461 0.48867 0.32859 0.0
C680 C 0.93433 0.49146 0.35245 0.0
C681 C 0.09414 0.57651 0.31658 0.0
C682 C 0.87921 0.45654 0.31617 0.0
H683 H 0.98399 0.59143 0.24576 0.0
H684 H -0.00442 0.44011 0.24666 0.0
H685 H 0.94298 0.58769 0.30196 0.0
H686 H 0.01823 0.62988 0.30228 0.0
H687 H 0.97977 0.63649 0.27888 0.0
H688 H -0.00326 0.39549 0.28052 0.0
H689 H 0.03129 0.44461 0.30357 0.0
H690 H 0.95607 0.40245 0.3032 0.0
H691 H 0.07559 0.57004 0.36192 0.0
H692 H 0.89443 0.47114 0.3616 0.0
H693 H 0.09584 0.6095 0.30503 0.0
H694 H 0.09949 0.54602 0.30588 0.0
H695 H 0.13009 0.59719 0.32857 0.0
H696 H 0.87359 0.48608 0.30502 0.0
H697 H 0.84257 0.43547 0.32803 0.0
H698 H 0.87926 0.42371 0.30502 0.0
loop_
_geom_bond_atom_site_label_1
_geom_bond_atom_site_label_2
_geom_bond_distance
_geom_bond_site_symmetry_2
_ccdc_geom_bond_type
O0 Zn1 1.953 . S
O0 C16 1.225 1_655 S
Zn1 O0 1.953 . S
Zn1 O2 1.949 1_655 S
Zn1 O8 1.919 . S
Zn1 O13 1.924 1_655 S
O2 Zn1 1.949 1_455 S
O2 Zn3 1.923 1_455 S
O2 Zn4 1.950 . S
O2 Zn5 1.945 . S
Zn3 O2 1.923 1_655 S
Zn3 O6 1.933 . S
Zn3 O9 1.941 . S
Zn3 O10 1.965 . S
Zn4 O2 1.950 . S
Zn4 O11 1.938 1_455 S
Zn4 O12 1.906 . S
Zn4 O22 1.953 . S
Zn5 O2 1.945 . S
Zn5 O7 1.932 . S
Zn5 O14 1.977 . S
Zn5 O15 1.910 . S
O6 Zn3 1.933 . S
O6 C17 1.226 1_655 S
O7 Zn5 1.932 . S
O7 C17 1.307 . S
O8 Zn1 1.919 . S
O8 C19 1.253 . S
O9 Zn3 1.941 . S
O9 C19 1.283 . S
O10 Zn3 1.965 . S
O10 C18 1.303 . S
O11 Zn4 1.938 1_655 S
O11 C18 1.247 . S
O12 Zn4 1.906 . S
O12 C20 1.304 . S
O13 Zn1 1.924 1_455 S
O13 C21 1.311 . S
O14 Zn5 1.977 . S
O14 C20 1.272 . S
O15 Zn5 1.910 . S
O15 C21 1.231 . S
C16 O0 1.225 1_455 S
C16 O22 1.298 . S
C17 O6 1.226 1_455 S
C17 O7 1.307 . S
C18 O10 1.303 . S
C18 O11 1.247 . S
C19 O8 1.253 . S
C19 O9 1.283 . S
C20 O12 1.304 . S
C20 O14 1.272 . S
C21 O13 1.311 . S
C21 O15 1.231 . S
O22 Zn4 1.953 . S
O22 C16 1.298 . S
O23 Zn24 1.953 . S
O23 C39 1.225 . S
Zn24 O23 1.953 . S
Zn24 O25 1.949 . S
Zn24 O31 1.919 . S
Zn24 O36 1.924 1_545 S
O25 Zn24 1.949 . S
O25 Zn26 1.923 . S
O25 Zn27 1.950 1_545 S
O25 Zn28 1.945 1_545 S
Zn26 O25 1.923 . S
Zn26 O29 1.933 . S
Zn26 O32 1.941 . S
Zn26 O33 1.965 . S
Zn27 O25 1.950 1_565 S
Zn27 O34 1.938 1_565 S
Zn27 O35 1.906 . S
Zn27 O45 1.953 . S
Zn28 O25 1.945 1_565 S
Zn28 O30 1.932 . S
Zn28 O37 1.977 . S
Zn28 O38 1.910 . S
O29 Zn26 1.933 . S
O29 C40 1.226 . S
O30 Zn28 1.932 . S
O30 C40 1.307 1_565 S
O31 Zn24 1.919 . S
O31 C42 1.253 . S
O32 Zn26 1.941 . S
O32 C42 1.283 . S
O33 Zn26 1.965 . S
O33 C41 1.303 . S
O34 Zn27 1.938 1_545 S
O34 C41 1.247 . S
O35 Zn27 1.906 . S
O35 C43 1.304 . S
O36 Zn24 1.924 1_565 S
O36 C44 1.311 . S
O37 Zn28 1.977 . S
O37 C43 1.272 . S
O38 Zn28 1.910 . S
O38 C44 1.231 . S
C39 O23 1.225 . S
C39 O45 1.298 1_545 S
C40 O29 1.226 . S
C40 O30 1.307 1_545 S
C41 O33 1.303 . S
C41 O34 1.247 . S
C42 O31 1.253 . S
C42 O32 1.283 . S
C43 O35 1.304 . S
C43 O37 1.272 . S
C44 O36 1.311 . S
C44 O38 1.231 . S
O45 Zn27 1.953 . S
O45 C39 1.298 1_565 S
O46 Zn47 1.953 . S
O46 C62 1.225 . S
Zn47 O46 1.953 . S
Zn47 O48 1.949 . S
Zn47 O54 1.919 . S
Zn47 O59 1.924 . S
O48 Zn47 1.949 . S
O48 Zn49 1.923 . S
O48 Zn50 1.950 . S
O48 Zn51 1.945 . S
Zn49 O48 1.923 . S
Zn49 O52 1.933 . S
Zn49 O55 1.941 . S
Zn49 O56 1.965 . S
Zn50 O48 1.950 . S
Zn50 O57 1.938 . S
Zn50 O58 1.906 . S
Zn50 O68 1.953 . S
Zn51 O48 1.945 . S
Zn51 O53 1.932 . S
Zn51 O60 1.977 . S
Zn51 O61 1.910 . S
O52 Zn49 1.933 . S
O52 C63 1.226 . S
O53 Zn51 1.932 . S
O53 C63 1.307 . S
O54 Zn47 1.919 . S
O54 C65 1.253 . S
O55 Zn49 1.941 . S
O55 C65 1.283 . S
O56 Zn49 1.965 . S
O56 C64 1.303 . S
O57 Zn50 1.938 . S
O57 C64 1.247 . S
O58 Zn50 1.906 . S
O58 C66 1.304 . S
O59 Zn47 1.924 . S
O59 C67 1.311 . S
O60 Zn51 1.977 . S
O60 C66 1.272 . S
O61 Zn51 1.910 . S
O61 C67 1.231 . S
C62 O46 1.225 . S
C62 O68 1.298 . S
C63 O52 1.226 . S
C63 O53 1.307 . S
C64 O56 1.303 . S
C64 O57 1.247 . S
C65 O54 1.253 . S
C65 O55 1.283 . S
C66 O58 1.304 . S
C66 O60 1.272 . S
C67 O59 1.311 . S
C67 O61 1.231 . S
O68 Zn50 1.953 . S
O68 C62 1.298 . S
H69 C72 0.931 . S
H70 C75 0.928 . S
H71 C77 0.930 . S
C72 H69 0.931 . S
C72 C73 1.413 . S
C72 C74 1.360 1_565 S
C73 C72 1.413 . S
C73 C77 1.429 1_565 S
C74 C72 1.360 1_545 S
C74 C75 1.372 . S
C75 H70 0.928 . S
C75 C74 1.372 . S
C75 C76 1.404 . S
C76 C75 1.404 . S
C76 C77 1.391 . S
C77 H71 0.930 . S
C77 C73 1.429 1_545 S
C77 C76 1.391 . S
H78 C81 0.931 . S
H79 C84 0.928 . S
H80 C86 0.930 . S
C81 H78 0.931 . S
C81 C82 1.413 . S
C81 C83 1.360 . S
C82 C81 1.413 . S
C82 C86 1.429 . S
C83 C81 1.360 . S
C83 C84 1.372 . S
C84 H79 0.928 . S
C84 C83 1.372 . S
C84 C85 1.404 . S
C85 C84 1.404 . S
C85 C86 1.391 . S
C86 H80 0.930 . S
C86 C82 1.429 . S
C86 C85 1.391 . S
H87 C90 0.931 . S
H88 C93 0.928 . S
H89 C95 0.930 . S
C90 H87 0.931 . S
C90 C91 1.413 . S
C90 C92 1.360 1_655 S
C91 C90 1.413 . S
C91 C95 1.429 1_655 S
C92 C90 1.360 1_455 S
C92 C93 1.372 . S
C93 H88 0.928 . S
C93 C92 1.372 . S
C93 C94 1.404 . S
C94 C93 1.404 . S
C94 C95 1.391 . S
C95 H89 0.930 . S
C95 C91 1.429 1_455 S
C95 C94 1.391 . S
H96 C99 0.931 . S
H97 C102 0.928 . S
H98 C104 0.930 . S
C99 H96 0.931 . S
C99 C100 1.413 . S
C99 C101 1.360 1_655 S
C100 C99 1.413 . S
C100 C104 1.429 1_655 S
C101 C99 1.360 1_455 S
C101 C102 1.372 . S
C102 H97 0.928 . S
C102 C101 1.372 . S
C102 C103 1.404 . S
C103 C102 1.404 . S
C103 C104 1.391 . S
C104 H98 0.930 . S
C104 C100 1.429 1_455 S
C104 C103 1.391 . S
H105 C108 0.931 . S
H106 C111 0.928 . S
H107 C113 0.930 . S
C108 H105 0.931 . S
C108 C109 1.413 . S
C108 C110 1.353 1_545 S
C109 C108 1.413 . S
C109 C113 1.410 1_545 S
C110 C108 1.353 1_565 S
C110 C111 1.379 . S
C111 H106 0.928 . S
C111 C110 1.379 . S
C111 C112 1.404 . S
C112 C111 1.404 . S
C112 C113 1.409 . S
C113 H107 0.930 . S
C113 C109 1.410 1_565 S
C113 C112 1.409 . S
H114 C117 0.931 . S
H115 C120 0.928 . S
H116 C122 0.930 . S
C117 H114 0.931 . S
C117 C118 1.413 . S
C117 C119 1.360 . S
C118 C117 1.413 . S
C118 C122 1.429 . S
C119 C117 1.360 . S
C119 C120 1.372 . S
C120 H115 0.928 . S
C120 C119 1.372 . S
C120 C121 1.404 . S
C121 C120 1.404 . S
C121 C122 1.391 . S
C122 H116 0.930 . S
C122 C118 1.429 . S
C122 C121 1.391 . S
C123 C124 1.391 . S
C123 C125 1.394 . S
C123 H139 0.931 . S
C124 C123 1.391 . S
C124 C128 1.376 . S
C125 C123 1.394 . S
C125 C126 1.369 . S
C125 C129 1.531 . S
C126 C125 1.369 . S
C126 C127 1.410 . S
C126 C134 1.503 . S
C127 C126 1.410 . S
C127 C128 1.392 . S
C127 C130 1.511 . S
C128 C124 1.376 . S
C128 C127 1.392 . S
C128 H140 0.929 . S
C129 C125 1.531 . S
C129 H141 0.960 . S
C129 H142 0.962 . S
C129 H143 0.960 . S
C130 C127 1.511 . S
C130 H144 0.961 . S
C130 H145 0.961 . S
C130 H146 0.961 . S
C131 C132 1.370 . S
C131 C133 1.363 . S
C131 H147 0.931 . S
C132 C131 1.370 . S
C132 C136 1.408 . S
C133 C131 1.363 . S
C133 C134 1.370 . S
C133 C137 1.524 . S
C134 C126 1.503 . S
C134 C133 1.370 . S
C134 C135 1.403 . S
C135 C134 1.403 . S
C135 C136 1.404 . S
C135 C138 1.539 . S
C136 C132 1.408 . S
C136 C135 1.404 . S
C136 H148 0.930 . S
C137 C133 1.524 . S
C137 H149 0.956 . S
C137 H150 0.961 . S
C137 H151 0.961 . S
C138 C135 1.539 . S
C138 H152 0.958 . S
C138 H153 0.961 . S
C138 H154 0.960 . S
H139 C123 0.931 . S
H140 C128 0.929 . S
H141 C129 0.960 . S
H142 C129 0.962 . S
H143 C129 0.960 . S
H144 C130 0.961 . S
H145 C130 0.961 . S
H146 C130 0.961 . S
H147 C131 0.931 . S
H148 C136 0.930 . S
H149 C137 0.956 . S
H150 C137 0.961 . S
H151 C137 0.961 . S
H152 C138 0.958 . S
H153 C138 0.961 . S
H154 C138 0.960 . S
C155 C156 1.391 . S
C155 C157 1.394 . S
C155 H171 0.931 . S
C156 C155 1.391 . S
C156 C160 1.376 . S
C157 C155 1.394 . S
C157 C158 1.369 . S
C157 C161 1.531 . S
C158 C157 1.369 . S
C158 C159 1.410 . S
C158 C166 1.503 . S
C159 C158 1.410 . S
C159 C160 1.392 . S
C159 C162 1.511 . S
C160 C156 1.376 . S
C160 C159 1.392 . S
C160 H172 0.929 . S
C161 C157 1.531 . S
C161 H173 0.960 . S
C161 H174 0.962 . S
C161 H175 0.960 . S
C162 C159 1.511 . S
C162 H176 0.961 . S
C162 H177 0.961 . S
C162 H178 0.961 . S
C163 C164 1.370 . S
C163 C165 1.363 . S
C163 H179 0.931 . S
C164 C163 1.370 . S
C164 C168 1.408 . S
C165 C163 1.363 . S
C165 C166 1.370 . S
C165 C169 1.524 . S
C166 C158 1.503 . S
C166 C165 1.370 . S
C166 C167 1.403 . S
C167 C166 1.403 . S
C167 C168 1.404 . S
C167 C170 1.539 . S
C168 C164 1.408 . S
C168 C167 1.404 . S
C168 H180 0.930 . S
C169 C165 1.524 . S
C169 H181 0.956 . S
C169 H182 0.961 . S
C169 H183 0.961 . S
C170 C167 1.539 . S
C170 H184 0.958 . S
C170 H185 0.961 . S
C170 H186 0.960 . S
H171 C155 0.931 . S
H172 C160 0.929 . S
H173 C161 0.960 . S
H174 C161 0.962 . S
H175 C161 0.960 . S
H176 C162 0.961 . S
H177 C162 0.961 . S
H178 C162 0.961 . S
H179 C163 0.931 . S
H180 C168 0.930 . S
H181 C169 0.956 . S
H182 C169 0.961 . S
H183 C169 0.961 . S
H184 C170 0.958 . S
H185 C170 0.961 . S
H186 C170 0.960 . S
C187 C188 1.391 . S
C187 C189 1.394 . S
C187 H203 0.931 . S
C188 C187 1.391 . S
C188 C192 1.376 . S
C189 C187 1.394 . S
C189 C190 1.369 . S
C189 C193 1.531 . S
C190 C189 1.369 . S
C190 C191 1.410 . S
C190 C198 1.503 . S
C191 C190 1.410 . S
C191 C192 1.392 . S
C191 C194 1.511 . S
C192 C188 1.376 . S
C192 C191 1.392 . S
C192 H204 0.929 . S
C193 C189 1.531 . S
C193 H205 0.960 . S
C193 H206 0.962 . S
C193 H207 0.960 . S
C194 C191 1.511 . S
C194 H208 0.961 . S
C194 H209 0.961 . S
C194 H210 0.961 . S
C195 C196 1.370 . S
C195 C197 1.363 . S
C195 H211 0.931 . S
C196 C195 1.370 . S
C196 C200 1.408 . S
C197 C195 1.363 . S
C197 C198 1.370 . S
C197 C201 1.524 . S
C198 C190 1.503 . S
C198 C197 1.370 . S
C198 C199 1.403 . S
C199 C198 1.403 . S
C199 C200 1.404 . S
C199 C202 1.539 . S
C200 C196 1.408 . S
C200 C199 1.404 . S
C200 H212 0.930 . S
C201 C197 1.524 . S
C201 H213 0.956 . S
C201 H214 0.961 . S
C201 H215 0.961 . S
C202 C199 1.539 . S
C202 H216 0.958 . S
C202 H217 0.961 . S
C202 H218 0.960 . S
H203 C187 0.931 . S
H204 C192 0.929 . S
H205 C193 0.960 . S
H206 C193 0.962 . S
H207 C193 0.960 . S
H208 C194 0.961 . S
H209 C194 0.961 . S
H210 C194 0.961 . S
H211 C195 0.931 . S
H212 C200 0.930 . S
H213 C201 0.956 . S
H214 C201 0.961 . S
H215 C201 0.961 . S
H216 C202 0.958 . S
H217 C202 0.961 . S
H218 C202 0.960 . S
C219 C220 1.391 . S
C219 C221 1.394 . S
C219 H235 0.931 . S
C220 C219 1.391 . S
C220 C224 1.376 . S
C221 C219 1.394 . S
C221 C222 1.369 . S
C221 C225 1.531 . S
C222 C221 1.369 . S
C222 C223 1.410 . S
C222 C230 1.503 . S
C223 C222 1.410 . S
C223 C224 1.392 . S
C223 C226 1.511 . S
C224 C220 1.376 . S
C224 C223 1.392 . S
C224 H236 0.929 . S
C225 C221 1.531 . S
C225 H237 0.960 . S
C225 H238 0.962 . S
C225 H239 0.960 . S
C226 C223 1.511 . S
C226 H240 0.961 . S
C226 H241 0.961 . S
C226 H242 0.961 . S
C227 C228 1.370 . S
C227 C229 1.363 . S
C227 H243 0.931 . S
C228 C227 1.370 . S
C228 C232 1.408 . S
C229 C227 1.363 . S
C229 C230 1.370 . S
C229 C233 1.524 . S
C230 C222 1.503 . S
C230 C229 1.370 . S
C230 C231 1.403 . S
C231 C230 1.403 . S
C231 C232 1.404 . S
C231 C234 1.539 . S
C232 C228 1.408 . S
C232 C231 1.404 . S
C232 H244 0.930 . S
C233 C229 1.524 . S
C233 H245 0.956 . S
C233 H246 0.961 . S
C233 H247 0.961 . S
C234 C231 1.539 . S
C234 H248 0.958 . S
C234 H249 0.961 . S
C234 H250 0.960 . S
H235 C219 0.931 . S
H236 C224 0.929 . S
H237 C225 0.960 . S
H238 C225 0.962 . S
H239 C225 0.960 . S
H240 C226 0.961 . S
H241 C226 0.961 . S
H242 C226 0.961 . S
H243 C227 0.931 . S
H244 C232 0.930 . S
H245 C233 0.956 . S
H246 C233 0.961 . S
H247 C233 0.961 . S
H248 C234 0.958 . S
H249 C234 0.961 . S
H250 C234 0.960 . S
C251 C252 1.391 . S
C251 C253 1.394 . S
C251 H267 0.931 . S
C252 C251 1.391 . S
C252 C256 1.376 . S
C253 C251 1.394 . S
C253 C254 1.369 . S
C253 C257 1.531 . S
C254 C253 1.369 . S
C254 C255 1.410 . S
C254 C262 1.503 . S
C255 C254 1.410 . S
C255 C256 1.392 . S
C255 C258 1.511 . S
C256 C252 1.376 . S
C256 C255 1.392 . S
C256 H268 0.929 . S
C257 C253 1.531 . S
C257 H269 0.960 . S
C257 H270 0.962 . S
C257 H271 0.960 . S
C258 C255 1.511 . S
C258 H272 0.961 . S
C258 H273 0.961 . S
C258 H274 0.961 . S
C259 C260 1.370 . S
C259 C261 1.363 . S
C259 H275 0.931 . S
C260 C259 1.370 . S
C260 C264 1.408 . S
C261 C259 1.363 . S
C261 C262 1.370 . S
C261 C265 1.524 . S
C262 C254 1.503 . S
C262 C261 1.370 . S
C262 C263 1.403 . S
C263 C262 1.403 . S
C263 C264 1.404 . S
C263 C266 1.539 . S
C264 C260 1.408 . S
C264 C263 1.404 . S
C264 H276 0.930 . S
C265 C261 1.524 . S
C265 H277 0.956 . S
C265 H278 0.961 . S
C265 H279 0.961 . S
C266 C263 1.539 . S
C266 H280 0.958 . S
C266 H281 0.961 . S
C266 H282 0.960 . S
H267 C251 0.931 . S
H268 C256 0.929 . S
H269 C257 0.960 . S
H270 C257 0.962 . S
H271 C257 0.960 . S
H272 C258 0.961 . S
H273 C258 0.961 . S
H274 C258 0.961 . S
H275 C259 0.931 . S
H276 C264 0.930 . S
H277 C265 0.956 . S
H278 C265 0.961 . S
H279 C265 0.961 . S
H280 C266 0.958 . S
H281 C266 0.961 . S
H282 C266 0.960 . S
C283 C284 1.391 . S
C283 C285 1.394 . S
C283 H299 0.931 . S
C284 C283 1.391 . S
C284 C288 1.376 . S
C285 C283 1.394 . S
C285 C286 1.369 . S
C285 C289 1.531 . S
C286 C285 1.369 . S
C286 C287 1.410 . S
C286 C294 1.503 . S
C287 C286 1.410 . S
C287 C288 1.392 . S
C287 C290 1.511 . S
C288 C284 1.376 . S
C288 C287 1.392 . S
C288 H300 0.929 . S
C289 C285 1.531 . S
C289 H301 0.960 . S
C289 H302 0.962 . S
C289 H303 0.960 . S
C290 C287 1.511 . S
C290 H304 0.961 . S
C290 H305 0.961 . S
C290 H306 0.961 . S
C291 C292 1.370 . S
C291 C293 1.363 . S
C291 H307 0.931 . S
C292 C291 1.370 . S
C292 C296 1.408 . S
C293 C291 1.363 . S
C293 C294 1.370 . S
C293 C297 1.524 . S
C294 C286 1.503 . S
C294 C293 1.370 . S
C294 C295 1.403 . S
C295 C294 1.403 . S
C295 C296 1.404 . S
C295 C298 1.539 . S
C296 C292 1.408 . S
C296 C295 1.404 . S
C296 H308 0.930 . S
C297 C293 1.524 . S
C297 H309 0.956 . S
C297 H310 0.961 . S
C297 H311 0.961 . S
C298 C295 1.539 . S
C298 H312 0.958 . S
C298 H313 0.961 . S
C298 H314 0.960 . S
H299 C283 0.931 . S
H300 C288 0.929 . S
H301 C289 0.960 . S
H302 C289 0.962 . S
H303 C289 0.960 . S
H304 C290 0.961 . S
H305 C290 0.961 . S
H306 C290 0.961 . S
H307 C291 0.931 . S
H308 C296 0.930 . S
H309 C297 0.956 . S
H310 C297 0.961 . S
H311 C297 0.961 . S
H312 C298 0.958 . S
H313 C298 0.961 . S
H314 C298 0.960 . S
C315 C316 1.391 . S
C315 C317 1.394 . S
C315 H331 0.931 . S
C316 C315 1.391 . S
C316 C320 1.376 . S
C317 C315 1.394 . S
C317 C318 1.369 . S
C317 C321 1.531 . S
C318 C317 1.369 . S
C318 C319 1.410 . S
C318 C326 1.503 . S
C319 C318 1.410 . S
C319 C320 1.392 . S
C319 C322 1.511 . S
C320 C316 1.376 . S
C320 C319 1.392 . S
C320 H332 0.929 . S
C321 C317 1.531 . S
C321 H333 0.960 . S
C321 H334 0.962 . S
C321 H335 0.960 . S
C322 C319 1.511 . S
C322 H336 0.961 . S
C322 H337 0.961 . S
C322 H338 0.961 . S
C323 C324 1.370 . S
C323 C325 1.363 . S
C323 H339 0.931 . S
C324 C323 1.370 . S
C324 C328 1.408 . S
C325 C323 1.363 . S
C325 C326 1.370 . S
C325 C329 1.524 . S
C326 C318 1.503 . S
C326 C325 1.370 . S
C326 C327 1.403 . S
C327 C326 1.403 . S
C327 C328 1.404 . S
C327 C330 1.539 . S
C328 C324 1.408 . S
C328 C327 1.404 . S
C328 H340 0.930 . S
C329 C325 1.524 . S
C329 H341 0.956 . S
C329 H342 0.961 . S
C329 H343 0.961 . S
C330 C327 1.539 . S
C330 H344 0.958 . S
C330 H345 0.961 . S
C330 H346 0.960 . S
H331 C315 0.931 . S
H332 C320 0.929 . S
H333 C321 0.960 . S
H334 C321 0.962 . S
H335 C321 0.960 . S
H336 C322 0.961 . S
H337 C322 0.961 . S
H338 C322 0.961 . S
H339 C323 0.931 . S
H340 C328 0.930 . S
H341 C329 0.956 . S
H342 C329 0.961 . S
H343 C329 0.961 . S
H344 C330 0.958 . S
H345 C330 0.961 . S
H346 C330 0.960 . S
C347 C348 1.391 . S
C347 C349 1.394 . S
C347 H363 0.931 . S
C348 C347 1.391 . S
C348 C352 1.376 . S
C349 C347 1.394 . S
C349 C350 1.369 . S
C349 C353 1.531 . S
C350 C349 1.369 . S
C350 C351 1.410 . S
C350 C358 1.503 . S
C351 C350 1.410 . S
C351 C352 1.392 . S
C351 C354 1.511 . S
C352 C348 1.376 . S
C352 C351 1.392 . S
C352 H364 0.929 . S
C353 C349 1.531 . S
C353 H365 0.960 . S
C353 H366 0.962 . S
C353 H367 0.960 . S
C354 C351 1.511 . S
C354 H368 0.961 . S
C354 H369 0.961 . S
C354 H370 0.961 . S
C355 C356 1.370 . S
C355 C357 1.363 . S
C355 H371 0.931 . S
C356 C355 1.370 . S
C356 C360 1.408 . S
C357 C355 1.363 . S
C357 C358 1.370 . S
C357 C361 1.524 . S
C358 C350 1.503 . S
C358 C357 1.370 . S
C358 C359 1.403 . S
C359 C358 1.403 . S
C359 C360 1.404 . S
C359 C362 1.539 . S
C360 C356 1.408 . S
C360 C359 1.404 . S
C360 H372 0.930 . S
C361 C357 1.524 . S
C361 H373 0.956 . S
C361 H374 0.961 . S
C361 H375 0.961 . S
C362 C359 1.539 . S
C362 H376 0.958 . S
C362 H377 0.961 . S
C362 H378 0.960 . S
H363 C347 0.931 . S
H364 C352 0.929 . S
H365 C353 0.960 . S
H366 C353 0.962 . S
H367 C353 0.960 . S
H368 C354 0.961 . S
H369 C354 0.961 . S
H370 C354 0.961 . S
H371 C355 0.931 . S
H372 C360 0.930 . S
H373 C361 0.956 . S
H374 C361 0.961 . S
H375 C361 0.961 . S
H376 C362 0.958 . S
H377 C362 0.961 . S
H378 C362 0.960 . S
C379 C380 1.391 . S
C379 C381 1.394 . S
C379 H395 0.931 . S
C380 C379 1.391 . S
C380 C384 1.376 . S
C381 C379 1.394 . S
C381 C382 1.369 . S
C381 C385 1.531 . S
C382 C381 1.369 . S
C382 C383 1.410 . S
C382 C390 1.503 . S
C383 C382 1.410 . S
C383 C384 1.392 . S
C383 C386 1.511 . S
C384 C380 1.376 . S
C384 C383 1.392 . S
C384 H396 0.929 . S
C385 C381 1.531 . S
C385 H397 0.960 . S
C385 H398 0.962 . S
C385 H399 0.960 . S
C386 C383 1.511 . S
C386 H400 0.961 . S
C386 H401 0.961 . S
C386 H402 0.961 . S
C387 C388 1.370 . S
C387 C389 1.363 . S
C387 H403 0.931 . S
C388 C387 1.370 . S
C388 C392 1.408 . S
C389 C387 1.363 . S
C389 C390 1.370 . S
C389 C393 1.524 . S
C390 C382 1.503 . S
C390 C389 1.370 . S
C390 C391 1.403 . S
C391 C390 1.403 . S
C391 C392 1.404 . S
C391 C394 1.539 . S
C392 C388 1.408 . S
C392 C391 1.404 . S
C392 H404 0.930 . S
C393 C389 1.524 . S
C393 H405 0.956 . S
C393 H406 0.961 . S
C393 H407 0.961 . S
C394 C391 1.539 . S
C394 H408 0.958 . S
C394 H409 0.961 . S
C394 H410 0.960 . S
H395 C379 0.931 . S
H396 C384 0.929 . S
H397 C385 0.960 . S
H398 C385 0.962 . S
H399 C385 0.960 . S
H400 C386 0.961 . S
H401 C386 0.961 . S
H402 C386 0.961 . S
H403 C387 0.931 . S
H404 C392 0.930 . S
H405 C393 0.956 . S
H406 C393 0.961 . S
H407 C393 0.961 . S
H408 C394 0.958 . S
H409 C394 0.961 . S
H410 C394 0.960 . S
C411 C412 1.391 . S
C411 C413 1.394 . S
C411 H427 0.931 . S
C412 C411 1.391 . S
C412 C416 1.376 . S
C413 C411 1.394 . S
C413 C414 1.369 . S
C413 C417 1.531 . S
C414 C413 1.369 . S
C414 C415 1.410 . S
C414 C422 1.503 . S
C415 C414 1.410 . S
C415 C416 1.392 . S
C415 C418 1.511 . S
C416 C412 1.376 . S
C416 C415 1.392 . S
C416 H428 0.929 . S
C417 C413 1.531 . S
C417 H429 0.960 . S
C417 H430 0.962 . S
C417 H431 0.960 . S
C418 C415 1.511 . S
C418 H432 0.961 . S
C418 H433 0.961 . S
C418 H434 0.961 . S
C419 C420 1.370 . S
C419 C421 1.363 . S
C419 H435 0.931 . S
C420 C419 1.370 . S
C420 C424 1.408 . S
C421 C419 1.363 . S
C421 C422 1.370 . S
C421 C425 1.524 . S
C422 C414 1.503 . S
C422 C421 1.370 . S
C422 C423 1.403 . S
C423 C422 1.403 . S
C423 C424 1.404 . S
C423 C426 1.539 . S
C424 C420 1.408 . S
C424 C423 1.404 . S
C424 H436 0.930 . S
C425 C421 1.524 . S
C425 H437 0.956 . S
C425 H438 0.961 . S
C425 H439 0.961 . S
C426 C423 1.539 . S
C426 H440 0.958 . S
C426 H441 0.961 . S
C426 H442 0.960 . S
H427 C411 0.931 . S
H428 C416 0.929 . S
H429 C417 0.960 . S
H430 C417 0.962 . S
H431 C417 0.960 . S
H432 C418 0.961 . S
H433 C418 0.961 . S
H434 C418 0.961 . S
H435 C419 0.931 . S
H436 C424 0.930 . S
H437 C425 0.956 . S
H438 C425 0.961 . S
H439 C425 0.961 . S
H440 C426 0.958 . S
H441 C426 0.961 . S
H442 C426 0.960 . S
C443 C444 1.391 . S
C443 C445 1.394 . S
C443 H459 0.931 . S
C444 C443 1.391 . S
C444 C448 1.376 . S
C445 C443 1.394 . S
C445 C446 1.369 . S
C445 C449 1.531 . S
C446 C445 1.369 . S
C446 C447 1.410 . S
C446 C454 1.503 . S
C447 C446 1.410 . S
C447 C448 1.392 . S
C447 C450 1.511 . S
C448 C444 1.376 . S
C448 C447 1.392 . S
C448 H460 0.929 . S
C449 C445 1.531 . S
C449 H461 0.960 . S
C449 H462 0.962 . S
C449 H463 0.960 . S
C450 C447 1.511 . S
C450 H464 0.961 . S
C450 H465 0.961 . S
C450 H466 0.961 . S
C451 C452 1.370 . S
C451 C453 1.363 . S
C451 H467 0.931 . S
C452 C451 1.370 . S
C452 C456 1.408 . S
C453 C451 1.363 . S
C453 C454 1.370 . S
C453 C457 1.524 . S
C454 C446 1.503 . S
C454 C453 1.370 . S
C454 C455 1.403 . S
C455 C454 1.403 . S
C455 C456 1.404 . S
C455 C458 1.539 . S
C456 C452 1.408 . S
C456 C455 1.404 . S
C456 H468 0.930 . S
C457 C453 1.524 . S
C457 H469 0.956 . S
C457 H470 0.961 . S
C457 H471 0.961 . S
C458 C455 1.539 . S
C458 H472 0.958 . S
C458 H473 0.961 . S
C458 H474 0.960 . S
H459 C443 0.931 . S
H460 C448 0.929 . S
H461 C449 0.960 . S
H462 C449 0.962 . S
H463 C449 0.960 . S
H464 C450 0.961 . S
H465 C450 0.961 . S
H466 C450 0.961 . S
H467 C451 0.931 . S
H468 C456 0.930 . S
H469 C457 0.956 . S
H470 C457 0.961 . S
H471 C457 0.961 . S
H472 C458 0.958 . S
H473 C458 0.961 . S
H474 C458 0.960 . S
C475 C476 1.391 . S
C475 C477 1.394 . S
C475 H491 0.931 . S
C476 C475 1.391 . S
C476 C480 1.376 . S
C477 C475 1.394 . S
C477 C478 1.369 . S
C477 C481 1.531 . S
C478 C477 1.369 . S
C478 C479 1.410 . S
C478 C486 1.503 . S
C479 C478 1.410 . S
C479 C480 1.392 . S
C479 C482 1.511 . S
C480 C476 1.376 . S
C480 C479 1.392 . S
C480 H492 0.929 . S
C481 C477 1.531 . S
C481 H493 0.960 . S
C481 H494 0.962 . S
C481 H495 0.960 . S
C482 C479 1.511 . S
C482 H496 0.961 . S
C482 H497 0.961 . S
C482 H498 0.961 . S
C483 C484 1.370 . S
C483 C485 1.363 . S
C483 H499 0.931 . S
C484 C483 1.370 . S
C484 C488 1.408 . S
C485 C483 1.363 . S
C485 C486 1.370 . S
C485 C489 1.524 . S
C486 C478 1.503 . S
C486 C485 1.370 . S
C486 C487 1.403 . S
C487 C486 1.403 . S
C487 C488 1.404 . S
C487 C490 1.539 . S
C488 C484 1.408 . S
C488 C487 1.404 . S
C488 H500 0.930 . S
C489 C485 1.524 . S
C489 H501 0.956 . S
C489 H502 0.961 . S
C489 H503 0.961 . S
C490 C487 1.539 . S
C490 H504 0.958 . S
C490 H505 0.961 . S
C490 H506 0.960 . S
H491 C475 0.931 . S
H492 C480 0.929 . S
H493 C481 0.960 . S
H494 C481 0.962 . S
H495 C481 0.960 . S
H496 C482 0.961 . S
H497 C482 0.961 . S
H498 C482 0.961 . S
H499 C483 0.931 . S
H500 C488 0.930 . S
H501 C489 0.956 . S
H502 C489 0.961 . S
H503 C489 0.961 . S
H504 C490 0.958 . S
H505 C490 0.961 . S
H506 C490 0.960 . S
C507 C508 1.391 1_655 S
C507 C509 1.394 . S
C507 H523 0.931 . S
C508 C507 1.391 1_455 S
C508 C512 1.376 . S
C509 C507 1.394 . S
C509 C510 1.360 1_655 S
C509 C513 1.539 . S
C510 C509 1.360 1_455 S
C510 C511 1.410 . S
C510 C518 1.503 . S
C511 C510 1.410 . S
C511 C512 1.392 . S
C511 C514 1.511 . S
C512 C508 1.376 . S
C512 C511 1.392 . S
C512 H524 0.929 . S
C513 C509 1.539 . S
C513 H525 0.960 . S
C513 H526 0.962 . S
C513 H527 0.960 . S
C514 C511 1.511 . S
C514 H528 0.961 . S
C514 H529 0.961 . S
C514 H530 0.961 . S
C515 C516 1.370 1_655 S
C515 C517 1.363 . S
C515 H531 0.931 . S
C516 C515 1.370 1_455 S
C516 C520 1.408 . S
C517 C515 1.363 . S
C517 C518 1.370 1_656 S
C517 C521 1.524 1_556 S
C518 C510 1.503 . S
C518 C517 1.370 1_454 S
C518 C519 1.403 1_554 S
C519 C518 1.403 1_556 S
C519 C520 1.404 . S
C519 C522 1.539 1_556 S
C520 C516 1.408 . S
C520 C519 1.404 . S
C520 H532 0.930 . S
C521 C517 1.524 1_554 S
C521 H533 0.956 . S
C521 H534 0.961 . S
C521 H535 0.961 1_554 S
C522 C519 1.539 1_554 S
C522 H536 0.958 . S
C522 H537 0.961 1_554 S
C522 H538 0.960 . S
H523 C507 0.931 . S
H524 C512 0.929 . S
H525 C513 0.960 . S
H526 C513 0.962 . S
H527 C513 0.960 . S
H528 C514 0.961 . S
H529 C514 0.961 . S
H530 C514 0.961 . S
H531 C515 0.931 . S
H532 C520 0.930 . S
H533 C521 0.956 . S
H534 C521 0.961 . S
H535 C521 0.961 1_556 S
H536 C522 0.958 . S
H537 C522 0.961 1_556 S
H538 C522 0.960 . S
C539 C540 1.391 1_565 S
C539 C541 1.394 . S
C539 H555 0.931 . S
C540 C539 1.391 1_545 S
C540 C544 1.376 . S
C541 C539 1.394 . S
C541 C542 1.369 1_565 S
C541 C545 1.531 . S
C542 C541 1.369 1_545 S
C542 C543 1.410 . S
C542 C550 1.503 . S
C543 C542 1.410 . S
C543 C544 1.392 . S
C543 C546 1.511 . S
C544 C540 1.376 . S
C544 C543 1.392 . S
C544 H556 0.929 . S
C545 C541 1.531 . S
C545 H557 0.970 . S
C545 H558 0.962 . S
C545 H559 0.960 . S
C546 C543 1.511 . S
C546 H560 0.961 . S
C546 H561 0.961 . S
C546 H562 0.961 . S
C547 C548 1.370 1_565 S
C547 C549 1.363 . S
C547 H563 0.931 . S
C548 C547 1.370 1_545 S
C548 C552 1.408 . S
C549 C547 1.363 . S
C549 C550 1.370 1_565 S
C549 C553 1.524 . S
C550 C542 1.503 . S
C550 C549 1.370 1_545 S
C550 C551 1.403 . S
C551 C550 1.403 . S
C551 C552 1.404 . S
C551 C554 1.539 . S
C552 C548 1.408 . S
C552 C551 1.404 . S
C552 H564 0.930 . S
C553 C549 1.524 . S
C553 H565 0.956 . S
C553 H566 0.961 . S
C553 H567 0.961 . S
C554 C551 1.539 . S
C554 H568 0.958 . S
C554 H569 0.961 . S
C554 H570 0.960 . S
H555 C539 0.931 . S
H556 C544 0.929 . S
H557 C545 0.970 . S
H558 C545 0.962 . S
H559 C545 0.960 . S
H560 C546 0.961 . S
H561 C546 0.961 . S
H562 C546 0.961 . S
H563 C547 0.931 . S
H564 C552 0.930 . S
H565 C553 0.956 . S
H566 C553 0.961 . S
H567 C553 0.961 . S
H568 C554 0.958 . S
H569 C554 0.961 . S
H570 C554 0.960 . S
C571 C572 1.391 . S
C571 C573 1.394 . S
C571 H587 0.931 . S
C572 C571 1.391 . S
C572 C576 1.376 . S
C573 C571 1.394 . S
C573 C574 1.369 . S
C573 C577 1.531 . S
C574 C573 1.369 . S
C574 C575 1.410 . S
C574 C582 1.503 . S
C575 C574 1.410 . S
C575 C576 1.392 . S
C575 C578 1.511 . S
C576 C572 1.376 . S
C576 C575 1.392 . S
C576 H588 0.929 . S
C577 C573 1.531 . S
C577 H589 0.960 . S
C577 H590 0.962 . S
C577 H591 0.960 . S
C578 C575 1.511 . S
C578 H592 0.961 . S
C578 H593 0.961 . S
C578 H594 0.961 . S
C579 C580 1.370 . S
C579 C581 1.363 . S
C579 H595 0.931 . S
C580 C579 1.370 . S
C580 C584 1.408 . S
C581 C579 1.363 . S
C581 C582 1.370 . S
C581 C585 1.524 . S
C582 C574 1.503 . S
C582 C581 1.370 . S
C582 C583 1.403 . S
C583 C582 1.403 . S
C583 C584 1.404 . S
C583 C586 1.539 . S
C584 C580 1.408 . S
C584 C583 1.404 . S
C584 H596 0.930 . S
C585 C581 1.524 . S
C585 H597 0.956 . S
C585 H598 0.961 . S
C585 H599 0.961 . S
C586 C583 1.539 . S
C586 H600 0.958 . S
C586 H601 0.961 . S
C586 H602 0.960 . S
H587 C571 0.931 . S
H588 C576 0.929 . S
H589 C577 0.960 . S
H590 C577 0.962 . S
H591 C577 0.960 . S
H592 C578 0.961 . S
H593 C578 0.961 . S
H594 C578 0.961 . S
H595 C579 0.931 . S
H596 C584 0.930 . S
H597 C585 0.956 . S
H598 C585 0.961 . S
H599 C585 0.961 . S
H600 C586 0.958 . S
H601 C586 0.961 . S
H602 C586 0.960 . S
C603 C604 1.391 1_565 S
C603 C605 1.394 . S
C603 H619 0.931 . S
C604 C603 1.391 1_545 S
C604 C608 1.376 . S
C605 C603 1.394 . S
C605 C606 1.369 . S
C605 C609 1.531 . S
C606 C605 1.369 . S
C606 C607 1.410 1_565 S
C606 C614 1.503 . S
C607 C606 1.410 1_545 S
C607 C608 1.392 . S
C607 C610 1.511 . S
C608 C604 1.376 . S
C608 C607 1.392 . S
C608 H620 0.929 . S
C609 C605 1.531 . S
C609 H621 0.960 . S
C609 H622 0.962 . S
C609 H623 0.960 . S
C610 C607 1.511 . S
C610 H624 0.961 . S
C610 H625 0.961 . S
C610 H626 0.961 . S
C611 C612 1.355 1_545 S
C611 C613 1.363 . S
C611 H627 0.931 . S
C612 C611 1.355 1_565 S
C612 C616 1.425 . S
C613 C611 1.363 . S
C613 C614 1.370 1_545 S
C613 C617 1.524 . S
C614 C606 1.503 . S
C614 C613 1.370 1_565 S
C614 C615 1.403 . S
C615 C614 1.403 . S
C615 C616 1.404 . S
C615 C618 1.539 . S
C616 C612 1.425 . S
C616 C615 1.404 . S
C616 H628 0.930 . S
C617 C613 1.524 . S
C617 H629 0.956 . S
C617 H630 0.961 . S
C617 H631 0.961 . S
C618 C615 1.539 . S
C618 H632 0.958 . S
C618 H633 0.961 . S
C618 H634 0.960 . S
H619 C603 0.931 . S
H620 C608 0.929 . S
H621 C609 0.960 . S
H622 C609 0.962 . S
H623 C609 0.960 . S
H624 C610 0.961 . S
H625 C610 0.961 . S
H626 C610 0.961 . S
H627 C611 0.931 . S
H628 C616 0.930 . S
H629 C617 0.956 . S
H630 C617 0.961 . S
H631 C617 0.961 . S
H632 C618 0.958 . S
H633 C618 0.961 . S
H634 C618 0.960 . S
C635 C636 1.391 . S
C635 C637 1.394 . S
C635 H651 0.931 . S
C636 C635 1.391 . S
C636 C640 1.376 . S
C637 C635 1.394 . S
C637 C638 1.369 . S
C637 C641 1.531 . S
C638 C637 1.369 . S
C638 C639 1.410 . S
C638 C646 1.503 . S
C639 C638 1.410 . S
C639 C640 1.392 . S
C639 C642 1.511 . S
C640 C636 1.376 . S
C640 C639 1.392 . S
C640 H652 0.929 . S
C641 C637 1.531 . S
C641 H653 0.960 . S
C641 H654 0.962 . S
C641 H655 0.960 . S
C642 C639 1.511 . S
C642 H656 0.961 . S
C642 H657 0.961 . S
C642 H658 0.961 . S
C643 C644 1.370 . S
C643 C645 1.363 . S
C643 H659 0.931 . S
C644 C643 1.370 . S
C644 C648 1.408 . S
C645 C643 1.363 . S
C645 C646 1.370 1_554 S
C645 C649 1.524 1_554 S
C646 C638 1.503 . S
C646 C645 1.370 1_556 S
C646 C647 1.403 1_556 S
C647 C646 1.403 1_554 S
C647 C648 1.404 . S
C647 C650 1.539 1_554 S
C648 C644 1.408 . S
C648 C647 1.404 . S
C648 H660 0.930 . S
C649 C645 1.524 1_556 S
C649 H661 0.956 . S
C649 H662 0.961 . S
C649 H663 0.961 1_556 S
C650 C647 1.539 1_556 S
C650 H664 0.958 . S
C650 H665 0.961 1_556 S
C650 H666 0.960 . S
H651 C635 0.931 . S
H652 C640 0.929 . S
H653 C641 0.960 . S
H654 C641 0.962 . S
H655 C641 0.960 . S
H656 C642 0.961 . S
H657 C642 0.961 . S
H658 C642 0.961 . S
H659 C643 0.931 . S
H660 C648 0.930 . S
H661 C649 0.956 . S
H662 C649 0.961 . S
H663 C649 0.961 1_554 S
H664 C650 0.958 . S
H665 C650 0.961 1_554 S
H666 C650 0.960 . S
C667 C668 1.389 1_655 S
C667 C669 1.394 . S
C667 H683 0.931 . S
C668 C667 1.389 1_455 S
C668 C672 1.378 . S
C669 C667 1.394 . S
C669 C670 1.369 . S
C669 C673 1.531 . S
C670 C669 1.369 . S
C670 C671 1.410 1_655 S
C670 C678 1.503 . S
C671 C670 1.410 1_455 S
C671 C672 1.392 . S
C671 C674 1.511 . S
C672 C668 1.378 . S
C672 C671 1.392 . S
C672 H684 0.929 . S
C673 C669 1.531 . S
C673 H685 0.960 . S
C673 H686 0.962 . S
C673 H687 0.960 . S
C674 C671 1.511 . S
C674 H688 0.961 . S
C674 H689 0.961 . S
C674 H690 0.961 . S
C675 C676 1.370 . S
C675 C677 1.363 . S
C675 H691 0.931 . S
C676 C675 1.370 . S
C676 C680 1.409 1_455 S
C677 C675 1.363 . S
C677 C678 1.370 1_455 S
C677 C681 1.524 . S
C678 C670 1.503 . S
C678 C677 1.370 1_655 S
C678 C679 1.403 . S
C679 C678 1.403 . S
C679 C680 1.404 . S
C679 C682 1.539 . S
C680 C676 1.409 1_655 S
C680 C679 1.404 . S
C680 H692 0.930 . S
C681 C677 1.524 . S
C681 H693 0.956 . S
C681 H694 0.961 . S
C681 H695 0.961 . S
C682 C679 1.539 . S
C682 H696 0.958 . S
C682 H697 0.961 . S
C682 H698 0.960 . S
H683 C667 0.931 . S
H684 C672 0.929 . S
H685 C673 0.960 . S
H686 C673 0.962 . S
H687 C673 0.960 . S
H688 C674 0.961 . S
H689 C674 0.961 . S
H690 C674 0.961 . S
H691 C675 0.931 . S
H692 C680 0.930 . S
H693 C681 0.956 . S
H694 C681 0.961 . S
H695 C681 0.961 . S
H696 C682 0.958 . S
H697 C682 0.961 . S
H698 C682 0.960 . S
C124 C20 1.246 . S
C132 C118 1.259 . S
C156 C41 1.288 . S
C164 C100 1.289 . S
C188 C64 1.296 . S
C196 C112 1.296 . S
C220 C19 1.213 . S
C228 C121 1.296 . S
C260 C103 1.276 . S
C252 C44 1.268 . S
C292 C109 1.281 . S
C284 C67 1.255 . S
C316 C43 1.206 . S
C324 C82 1.266 . S
C348 C66 1.254 . S
C356 C91 1.258 . S
C380 C21 1.294 . S
C388 C73 1.285 . S
C420 C85 1.288 . S
C412 C42 1.216 . S
C452 C94 1.287 . S
C444 C65 1.269 . S
C476 C18 1.278 . S
C484 C76 1.266 . S
C516 C92 1.469 . S
C508 C17 1.466 . S
C540 C39 1.460 . S
C548 C74 1.466 . S
C572 C62 1.479 . S
C580 C83 1.481 . S
C612 C110 1.453 . S
C604 C40 1.446 . S
C644 C119 1.469 . S
C636 C63 1.466 . S
C668 C16 1.463 . S
C676 C101 1.466 . S
