# Generated by pormake.
# Topology apo, (3,6)-cn, num edge types: 1
# Building blocks:
#     Node 0, Type 0, BuildingBlock: MIDCAF_clean_linker_0, # of connection points: 3
#     Node 1, Type 0, BuildingBlock: MIDCAF_clean_linker_0, # of connection points: 3
#     Node 2, Type 0, BuildingBlock: MIDCAF_clean_linker_0, # of connection points: 3
#     Node 3, Type 0, BuildingBlock: MIDCAF_clean_linker_0, # of connection points: 3
#     Node 4, Type 0, BuildingBlock: MIDCAF_clean_linker_0, # of connection points: 3
#     Node 5, Type 0, BuildingBlock: MIDCAF_clean_linker_0, # of connection points: 3
#     Node 6, Type 0, BuildingBlock: MIDCAF_clean_linker_0, # of connection points: 3
#     Node 7, Type 0, BuildingBlock: MIDCAF_clean_linker_0, # of connection points: 3
#     Node 8, Type 1, BuildingBlock: KUMBOL_clean_sbu_1, # of connection points: 6
#     Node 9, Type 1, BuildingBlock: KUMBOL_clean_sbu_1, # of connection points: 6
#     Node 10, Type 1, BuildingBlock: KUMBOL_clean_sbu_1, # of connection points: 6
#     Node 11, Type 1, BuildingBlock: KUMBOL_clean_sbu_1, # of connection points: 6
#     Edge 12, Type (0, 1), BuildingBlock: XIVTED_clean_linker_0, # of connection points: 2
#     Edge 13, Type (0, 1), BuildingBlock: XIVTED_clean_linker_0, # of connection points: 2
#     Edge 14, Type (0, 1), BuildingBlock: XIVTED_clean_linker_0, # of connection points: 2
#     Edge 15, Type (0, 1), BuildingBlock: XIVTED_clean_linker_0, # of connection points: 2
#     Edge 16, Type (0, 1), BuildingBlock: XIVTED_clean_linker_0, # of connection points: 2
#     Edge 17, Type (0, 1), BuildingBlock: XIVTED_clean_linker_0, # of connection points: 2
#     Edge 18, Type (0, 1), BuildingBlock: XIVTED_clean_linker_0, # of connection points: 2
#     Edge 19, Type (0, 1), BuildingBlock: XIVTED_clean_linker_0, # of connection points: 2
#     Edge 20, Type (0, 1), BuildingBlock: XIVTED_clean_linker_0, # of connection points: 2
#     Edge 21, Type (0, 1), BuildingBlock: XIVTED_clean_linker_0, # of connection points: 2
#     Edge 22, Type (0, 1), BuildingBlock: XIVTED_clean_linker_0, # of connection points: 2
#     Edge 23, Type (0, 1), BuildingBlock: XIVTED_clean_linker_0, # of connection points: 2
#     Edge 24, Type (0, 1), BuildingBlock: XIVTED_clean_linker_0, # of connection points: 2
#     Edge 25, Type (0, 1), BuildingBlock: XIVTED_clean_linker_0, # of connection points: 2
#     Edge 26, Type (0, 1), BuildingBlock: XIVTED_clean_linker_0, # of connection points: 2
#     Edge 27, Type (0, 1), BuildingBlock: XIVTED_clean_linker_0, # of connection points: 2
#     Edge 28, Type (0, 1), BuildingBlock: XIVTED_clean_linker_0, # of connection points: 2
#     Edge 29, Type (0, 1), BuildingBlock: XIVTED_clean_linker_0, # of connection points: 2
#     Edge 30, Type (0, 1), BuildingBlock: XIVTED_clean_linker_0, # of connection points: 2
#     Edge 31, Type (0, 1), BuildingBlock: XIVTED_clean_linker_0, # of connection points: 2
#     Edge 32, Type (0, 1), BuildingBlock: XIVTED_clean_linker_0, # of connection points: 2
#     Edge 33, Type (0, 1), BuildingBlock: XIVTED_clean_linker_0, # of connection points: 2
#     Edge 34, Type (0, 1), BuildingBlock: XIVTED_clean_linker_0, # of connection points: 2
#     Edge 35, Type (0, 1), BuildingBlock: XIVTED_clean_linker_0, # of connection points: 2
# Relax obj value: 0.009
# Max RMSD: 0.095
# Mean RMSD: 0.075
data_MOF--net-apo--node1-KUMBOL_clean_sbu_1--node2-MIDCAF_clean_linker_0--edge1-XIVTED_clean_linker_0
_symmetry_space_group_name_H-M    P1
_symmetry_Int_Tables_number       1
_symmetry_cell_setting            triclinic
loop_
_symmetry_equiv_pos_as_xyz
'x, y, z'
_cell_length_a     29.186142
_cell_length_b     52.376486
_cell_length_c     64.290651
_cell_angle_alpha  90.018746
_cell_angle_beta   89.968262
_cell_angle_gamma 90.461505
loop_
_atom_site_label
_atom_site_type_symbol
_atom_site_fract_x
_atom_site_fract_y
_atom_site_fract_z
_atom_type_partial_charge
C0 C 0.35525 0.39239 0.48573 0.0
C1 C 0.33183 0.37578 0.4993 0.0
C2 C 0.30062 0.35798 0.49083 0.0
C3 C 0.29211 0.35737 0.46937 0.0
H4 H 0.20708 0.32374 0.41933 0.0
H5 H 0.16548 0.28967 0.40076 0.0
H6 H 0.23996 0.308 0.34466 0.0
H7 H 0.28058 0.34214 0.36285 0.0
H8 H 0.28446 0.40941 0.36141 0.0
H9 H 0.31105 0.44558 0.34069 0.0
H10 H 0.39873 0.46978 0.39116 0.0
H11 H 0.37233 0.4336 0.41198 0.0
H12 H 0.36509 0.40523 0.45455 0.0
H13 H 0.3803 0.40595 0.4916 0.0
H14 H 0.28172 0.34503 0.50084 0.0
H15 H 0.2672 0.34379 0.4634 0.0
N16 N 0.28 0.35603 0.42399 0.0
N17 N 0.28679 0.377 0.39182 0.0
N18 N 0.31922 0.39526 0.42162 0.0
C19 C 0.27153 0.35677 0.40316 0.0
C20 C 0.31041 0.39639 0.40092 0.0
C21 C 0.30421 0.37523 0.4333 0.0
C22 C 0.24701 0.33564 0.39254 0.0
C23 C 0.21456 0.32041 0.40305 0.0
C24 C 0.19064 0.30106 0.39245 0.0
C25 C 0.1997 0.29627 0.37134 0.0
C26 C 0.23257 0.31124 0.36097 0.0
C27 C 0.25563 0.33085 0.37138 0.0
C28 C 0.32633 0.41851 0.38838 0.0
C29 C 0.30942 0.4224 0.36814 0.0
C30 C 0.32438 0.44323 0.35629 0.0
C31 C 0.35695 0.46049 0.36431 0.0
C32 C 0.37387 0.45665 0.38452 0.0
C33 C 0.35855 0.43598 0.39647 0.0
C34 C 0.31449 0.37463 0.45593 0.0
C35 C 0.34659 0.3919 0.46439 0.0
C36 C 0.1535 0.10284 0.9869 0.0
C37 C 0.17694 0.11971 1.00024 0.0
C38 C 0.20742 0.1377 0.9915 0.0
C39 C 0.21534 0.1382 0.96998 0.0
H40 H 0.29819 0.17206 0.91954 0.0
H41 H 0.33885 0.20612 0.90055 0.0
H42 H 0.26697 0.18508 0.8444 0.0
H43 H 0.22725 0.151 0.86301 0.0
H44 H 0.22684 0.0824 0.86378 0.0
H45 H 0.1998 0.04593 0.84342 0.0
H46 H 0.10291 0.02689 0.89184 0.0
H47 H 0.13002 0.06323 0.91236 0.0
H48 H 0.14309 0.08968 0.95585 0.0
H49 H 0.12902 0.08912 0.993 0.0
H50 H 0.22629 0.15087 1.00134 0.0
H51 H 0.23978 0.15189 0.9638 0.0
N52 N 0.22703 0.13886 0.92453 0.0
N53 N 0.22016 0.11732 0.89261 0.0
N54 N 0.18788 0.09956 0.92265 0.0
C55 C 0.23538 0.13777 0.9037 0.0
C56 C 0.1966 0.09809 0.90196 0.0
C57 C 0.20295 0.11979 0.93409 0.0
C58 C 0.2596 0.15881 0.89277 0.0
C59 C 0.2911 0.17478 0.90315 0.0
C60 C 0.31448 0.19414 0.89231 0.0
C61 C 0.30585 0.1982 0.87106 0.0
C62 C 0.27401 0.18244 0.8608 0.0
C63 C 0.25147 0.16285 0.87147 0.0
C64 C 0.18051 0.07579 0.88969 0.0
C65 C 0.19979 0.07045 0.87012 0.0
C66 C 0.18457 0.04948 0.85851 0.0
C67 C 0.14928 0.03362 0.86606 0.0
C68 C 0.12998 0.03892 0.8856 0.0
C69 C 0.14567 0.05966 0.89737 0.0
C70 C 0.19304 0.12065 0.95676 0.0
C71 C 0.16153 0.10325 0.9655 0.0
C72 C 0.84547 0.11414 0.51777 0.0
C73 C 0.83015 0.13619 0.50751 0.0
C74 C 0.80464 0.15412 0.51887 0.0
C75 C 0.79502 0.15025 0.53993 0.0
H76 H 0.71816 0.17983 0.58933 0.0
H77 H 0.6751 0.21107 0.60948 0.0
H78 H 0.71875 0.17466 0.66636 0.0
H79 H 0.76015 0.14315 0.64636 0.0
H80 H 0.7795 0.08315 0.64178 0.0
H81 H 0.80681 0.04663 0.6611 0.0
H82 H 0.89736 0.02738 0.61036 0.0
H83 H 0.86886 0.06382 0.59058 0.0
H84 H 0.84849 0.09312 0.5463 0.0
H85 H 0.86551 0.10004 0.50956 0.0
H86 H 0.79154 0.17109 0.51141 0.0
H87 H 0.77526 0.16455 0.54805 0.0
N88 N 0.77671 0.14237 0.58357 0.0
N89 N 0.78264 0.11784 0.61386 0.0
N90 N 0.81539 0.10317 0.58283 0.0
C91 C 0.76775 0.13921 0.60416 0.0
C92 C 0.80631 0.0997 0.6034 0.0
C93 C 0.80057 0.12446 0.57277 0.0
C94 C 0.7424 0.15881 0.61617 0.0
C95 C 0.71851 0.17851 0.60614 0.0
C96 C 0.69398 0.19652 0.61772 0.0
C97 C 0.69303 0.19534 0.6396 0.0
C98 C 0.71765 0.17588 0.64956 0.0
C99 C 0.74174 0.15782 0.63803 0.0
C100 C 0.82223 0.07663 0.61464 0.0
C101 C 0.80521 0.07119 0.63463 0.0
C102 C 0.82111 0.05025 0.64582 0.0
C103 C 0.85481 0.0342 0.63745 0.0
C104 C 0.87118 0.03924 0.61725 0.0
C105 C 0.85498 0.0602 0.60594 0.0
C106 C 0.81058 0.1283 0.55028 0.0
C107 C 0.83586 0.11025 0.5389 0.0
C108 C 0.65908 0.38201 0.0203 0.0
C109 C 0.67153 0.35922 0.0103 0.0
C110 C 0.69524 0.34065 0.02174 0.0
C111 C 0.70558 0.34454 0.04273 0.0
H112 H 0.78747 0.31692 0.09189 0.0
H113 H 0.83187 0.28614 0.11183 0.0
H114 H 0.77941 0.31824 0.16895 0.0
H115 H 0.73667 0.3494 0.14916 0.0
H116 H 0.68887 0.4016 0.14846 0.0
H117 H 0.66229 0.4387 0.16731 0.0
H118 H 0.63365 0.4768 0.10919 0.0
H119 H 0.65913 0.43911 0.09017 0.0
H120 H 0.65861 0.40353 0.04862 0.0
H121 H 0.64056 0.39663 0.01197 0.0
H122 H 0.70607 0.32307 0.01443 0.0
H123 H 0.72361 0.32967 0.05099 0.0
N124 N 0.72548 0.35267 0.08625 0.0
N125 N 0.71678 0.37629 0.11691 0.0
N126 N 0.68616 0.39165 0.08567 0.0
C127 C 0.73304 0.35535 0.107 0.0
C128 C 0.69348 0.39457 0.10643 0.0
C129 C 0.7019 0.37068 0.07546 0.0
C130 C 0.75872 0.3358 0.11889 0.0
C131 C 0.78541 0.31736 0.10871 0.0
C132 C 0.81074 0.29961 0.12017 0.0
C133 C 0.80967 0.29975 0.14207 0.0
C134 C 0.78213 0.31788 0.15215 0.0
C135 C 0.75726 0.33572 0.14075 0.0
C136 C 0.6764 0.41733 0.11774 0.0
C137 C 0.67697 0.41784 0.13961 0.0
C138 C 0.66194 0.43927 0.15047 0.0
C139 C 0.64625 0.46094 0.13982 0.0
C140 C 0.64515 0.46038 0.11793 0.0
C141 C 0.65995 0.43879 0.10701 0.0
C142 C 0.69241 0.36711 0.0529 0.0
C143 C 0.66927 0.38588 0.04137 0.0
C144 C 0.65672 0.60198 0.51935 0.0
C145 C 0.6783 0.61992 0.50627 0.0
C146 C 0.70775 0.63825 0.51526 0.0
C147 C 0.71663 0.63802 0.5367 0.0
H148 H 0.7656 0.68273 0.58856 0.0
H149 H 0.80769 0.71609 0.60737 0.0
H150 H 0.82795 0.66427 0.65871 0.0
H151 H 0.78667 0.63105 0.64005 0.0
H152 H 0.73601 0.57933 0.64207 0.0
H153 H 0.71005 0.54283 0.66248 0.0
H154 H 0.61731 0.52107 0.61315 0.0
H155 H 0.64302 0.55769 0.59265 0.0
H156 H 0.64884 0.58728 0.55012 0.0
H157 H 0.63307 0.58793 0.51307 0.0
H158 H 0.72523 0.65223 0.50565 0.0
H159 H 0.74039 0.65199 0.543 0.0
N160 N 0.73359 0.63623 0.5816 0.0
N161 N 0.73178 0.61292 0.61277 0.0
N162 N 0.69464 0.59684 0.58325 0.0
C163 C 0.74544 0.63397 0.60201 0.0
C164 C 0.70636 0.5943 0.60358 0.0
C165 C 0.70818 0.61765 0.57209 0.0
C166 C 0.77255 0.65417 0.61277 0.0
C167 C 0.77932 0.6784 0.60379 0.0
C168 C 0.8032 0.69757 0.61462 0.0
C169 C 0.82121 0.69283 0.63453 0.0
C170 C 0.81506 0.66848 0.6433 0.0
C171 C 0.79099 0.64946 0.63261 0.0
C172 C 0.69149 0.57158 0.61571 0.0
C173 C 0.71015 0.56678 0.63549 0.0
C174 C 0.69553 0.54573 0.64717 0.0
C175 C 0.66163 0.52908 0.63944 0.0
C176 C 0.64321 0.5337 0.6196 0.0
C177 C 0.65813 0.55463 0.60782 0.0
C178 C 0.69634 0.61942 0.54963 0.0
C179 C 0.66568 0.60169 0.54069 0.0
C180 C 0.8354 0.89237 0.01607 0.0
C181 C 0.81872 0.8712 0.00483 0.0
C182 C 0.7958 0.85163 0.01573 0.0
C183 C 0.78887 0.8534 0.0372 0.0
H184 H 0.73754 0.81238 0.08831 0.0
H185 H 0.6944 0.77975 0.10751 0.0
H186 H 0.68358 0.83094 0.15991 0.0
H187 H 0.72604 0.86341 0.14093 0.0
H188 H 0.81201 0.90226 0.145 0.0
H189 H 0.84039 0.93766 0.16582 0.0
H190 H 0.86336 0.98198 0.11016 0.0
H191 H 0.83485 0.94624 0.08898 0.0
H192 H 0.8412 0.91093 0.04564 0.0
H193 H 0.85277 0.90793 0.00816 0.0
H194 H 0.78312 0.83487 0.00764 0.0
H195 H 0.77075 0.83798 0.04494 0.0
N196 N 0.77124 0.85849 0.0812 0.0
N197 N 0.77878 0.88089 0.11253 0.0
N198 N 0.81165 0.89753 0.08211 0.0
C199 C 0.76247 0.8604 0.10191 0.0
C200 C 0.80338 0.89949 0.10288 0.0
C201 C 0.79578 0.87699 0.07115 0.0
C202 C 0.73541 0.84054 0.11305 0.0
C203 C 0.72574 0.81671 0.10388 0.0
C204 C 0.70125 0.79797 0.11491 0.0
C205 C 0.68547 0.80281 0.1352 0.0
C206 C 0.69471 0.82672 0.14421 0.0
C207 C 0.71944 0.84529 0.13333 0.0
C208 C 0.82117 0.92135 0.11526 0.0
C209 C 0.823 0.91949 0.13707 0.0
C210 C 0.8395 0.93975 0.14906 0.0
C211 C 0.85421 0.96253 0.13962 0.0
C212 C 0.852 0.96465 0.11783 0.0
C213 C 0.83598 0.94415 0.10573 0.0
C214 C 0.80467 0.87481 0.04841 0.0
C215 C 0.82845 0.89416 0.03758 0.0
C216 C 0.17358 0.88206 0.49124 0.0
C217 C 0.17158 0.85707 0.49931 0.0
C218 C 0.17634 0.83645 0.48544 0.0
C219 C 0.18473 0.84066 0.46432 0.0
H220 H 0.27723 0.81302 0.41792 0.0
H221 H 0.3212 0.78183 0.39817 0.0
H222 H 0.28713 0.82108 0.34118 0.0
H223 H 0.24471 0.85254 0.36085 0.0
H224 H 0.22916 0.91342 0.36689 0.0
H225 H 0.20376 0.95027 0.34739 0.0
H226 H 0.10637 0.96783 0.39589 0.0
H227 H 0.13296 0.93111 0.41586 0.0
H228 H 0.1834 0.90571 0.46434 0.0
H229 H 0.17063 0.89846 0.50138 0.0
H230 H 0.17371 0.81693 0.49084 0.0
H231 H 0.18882 0.82429 0.45421 0.0
N232 N 0.22158 0.85157 0.42326 0.0
N233 N 0.21974 0.87714 0.39345 0.0
N234 N 0.18635 0.89179 0.42437 0.0
C235 C 0.23231 0.85514 0.40291 0.0
C236 C 0.19681 0.89555 0.40396 0.0
C237 C 0.19865 0.86979 0.43411 0.0
C238 C 0.25765 0.83544 0.39102 0.0
C239 C 0.2791 0.81496 0.40117 0.0
C240 C 0.30417 0.79699 0.38982 0.0
C241 C 0.30813 0.799 0.36806 0.0
C242 C 0.28584 0.81921 0.35795 0.0
C243 C 0.26116 0.83723 0.36926 0.0
C244 C 0.18281 0.9191 0.39289 0.0
C245 C 0.20241 0.92513 0.37351 0.0
C246 C 0.18762 0.94625 0.36222 0.0
C247 C 0.15245 0.96186 0.36987 0.0
C248 C 0.13371 0.95632 0.38956 0.0
C249 C 0.14884 0.93521 0.40099 0.0
C250 C 0.18766 0.86558 0.45637 0.0
C251 C 0.18118 0.88625 0.46998 0.0
C252 C 0.34589 0.61194 0.98703 0.0
C253 C 0.33586 0.63516 0.99693 0.0
C254 C 0.31278 0.6541 0.9856 0.0
C255 C 0.30007 0.64994 0.9649 0.0
H256 H 0.24115 0.68571 0.91324 0.0
H257 H 0.20217 0.71801 0.8925 0.0
H258 H 0.17754 0.66212 0.84426 0.0
H259 H 0.21726 0.63021 0.86457 0.0
H260 H 0.26349 0.57715 0.86631 0.0
H261 H 0.2899 0.54025 0.84703 0.0
H262 H 0.38984 0.52508 0.89495 0.0
H263 H 0.36232 0.56171 0.91466 0.0
H264 H 0.34177 0.58968 0.9592 0.0
H265 H 0.36398 0.59705 0.99525 0.0
H266 H 0.3039 0.67207 0.99283 0.0
H267 H 0.28223 0.66497 0.95675 0.0
N268 N 0.27177 0.64003 0.92242 0.0
N269 N 0.27141 0.61385 0.89285 0.0
N270 N 0.30894 0.6004 0.92307 0.0
C271 C 0.25896 0.6359 0.90235 0.0
C272 C 0.29641 0.59604 0.90302 0.0
C273 C 0.29657 0.62229 0.93294 0.0
C274 C 0.23282 0.65536 0.89054 0.0
C275 C 0.22724 0.6803 0.89824 0.0
C276 C 0.20469 0.69881 0.88638 0.0
C277 C 0.18708 0.69279 0.86658 0.0
C278 C 0.19158 0.66766 0.8592 0.0
C279 C 0.21422 0.64925 0.87096 0.0
C280 C 0.31101 0.57258 0.89198 0.0
C281 C 0.29098 0.56593 0.87283 0.0
C282 C 0.30634 0.54479 0.86169 0.0
C283 C 0.34248 0.52982 0.86926 0.0
C284 C 0.36171 0.53603 0.8887 0.0
C285 C 0.34605 0.55713 0.89997 0.0
C286 C 0.31019 0.62674 0.95495 0.0
C287 C 0.33333 0.6078 0.96629 0.0
C288 C 0.85946 0.1122 0.25058 0.0
C289 C 0.85817 0.06831 0.26264 0.0
C290 C 0.87895 0.09274 0.26227 0.0
C291 C 0.81885 0.06354 0.25061 0.0
C292 C 0.81973 0.10755 0.23866 0.0
C293 C 0.7997 0.08309 0.23866 0.0
N294 N 0.88043 0.13549 0.2503 0.0
C295 C 0.86246 0.15523 0.23924 0.0
C296 C 0.8016 0.12759 0.22691 0.0
C297 C 0.82294 0.15156 0.2273 0.0
Gd298 Gd 0.06585 0.13617 0.23774 0.0
Gd299 Gd 0.94693 0.13974 0.27042 0.0
N300 N 0.9176 0.09778 0.27351 0.0
C301 C 0.87697 0.04952 0.27542 0.0
C302 C 0.93345 0.08013 0.28732 0.0
C303 C 0.91424 0.05561 0.2881 0.0
H304 H 0.95977 0.08493 0.29835 0.0
H305 H 0.92765 0.04159 0.29881 0.0
H306 H 0.04831 0.18883 0.20751 0.0
H307 H 0.87838 0.17387 0.23983 0.0
H308 H 0.07628 0.23294 0.20544 0.0
H309 H 0.86199 0.03054 0.27617 0.0
H310 H 0.80269 0.04485 0.25062 0.0
H311 H 0.13765 0.10578 0.26931 0.0
H312 H 0.77111 0.12477 0.21755 0.0
H313 H 0.80891 0.16722 0.21843 0.0
H314 H 0.2018 0.23593 0.25331 0.0
H315 H 0.7693 0.07912 0.22951 0.0
H316 H 0.24251 0.15859 0.28825 0.0
H317 H 0.20833 0.11522 0.28926 0.0
N318 N 0.13223 0.14344 0.25735 0.0
C319 C 0.15094 0.16725 0.25616 0.0
C320 C 0.15246 0.12475 0.26885 0.0
C321 C 0.2117 0.15452 0.27941 0.0
C322 C 0.19245 0.13002 0.28007 0.0
C323 C 0.19097 0.17351 0.2674 0.0
H324 H 0.23924 0.20369 0.27512 0.0
N325 N 0.09086 0.17881 0.23316 0.0
C326 C 0.12915 0.18555 0.24408 0.0
C327 C 0.12735 0.2279 0.22918 0.0
C328 C 0.14788 0.21042 0.24264 0.0
C329 C 0.07382 0.19506 0.21851 0.0
C330 C 0.09076 0.22001 0.21675 0.0
O331 O 0.94602 0.12177 0.23819 0.0
O332 O 0.01651 0.10303 0.23546 0.0
O333 O 0.08408 0.13495 0.20443 0.0
O334 O 0.12088 0.11212 0.22729 0.0
O335 O 0.00658 0.11894 0.28548 0.0
O336 O 0.04867 0.10232 0.25808 0.0
O337 O 0.06753 0.15236 0.27045 0.0
O338 O 0.99814 0.17208 0.27349 0.0
O339 O 0.92983 0.13972 0.30376 0.0
O340 O 0.89311 0.16412 0.2819 0.0
O341 O 0.00441 0.15531 0.22274 0.0
O342 O 0.96701 0.17349 0.2506 0.0
C343 C 0.97273 0.10378 0.231 0.0
C344 C 0.03598 0.10237 0.27776 0.0
C345 C 0.14751 0.1082 0.19184 0.0
C346 C 0.1692 0.10153 0.15549 0.0
C347 C 0.21339 0.08209 0.18325 0.0
C348 C 0.18446 0.09288 0.19801 0.0
C349 C 0.2058 0.08628 0.16216 0.0
C350 C 0.14028 0.11275 0.17047 0.0
C351 C 0.11686 0.11879 0.20797 0.0
C352 C 0.18724 0.21686 0.25413 0.0
C353 C 0.20872 0.19847 0.26646 0.0
H354 H 0.14074 0.24717 0.22762 0.0
C355 C 0.04117 0.16966 0.27892 0.0
C356 C 0.9763 0.17241 0.23061 0.0
C357 C 0.86874 0.16686 0.31788 0.0
C358 C 0.84868 0.171 0.35469 0.0
C359 C 0.80724 0.19505 0.32851 0.0
C360 C 0.83418 0.18438 0.31292 0.0
C361 C 0.81448 0.18853 0.34924 0.0
C362 C 0.87557 0.15997 0.33886 0.0
C363 C 0.89784 0.1566 0.30101 0.0
H364 H 0.24174 0.07036 0.18819 0.0
H365 H 0.19109 0.08915 0.2143 0.0
H366 H 0.22889 0.07771 0.151 0.0
H367 H 0.11179 0.1244 0.16549 0.0
H368 H 0.78072 0.20851 0.3245 0.0
H369 H 0.82799 0.19 0.29696 0.0
H370 H 0.79294 0.19703 0.36105 0.0
H371 H 0.90225 0.14659 0.34292 0.0
C372 C 0.65315 0.37558 0.75627 0.0
C373 C 0.65873 0.41948 0.76816 0.0
C374 C 0.63422 0.3962 0.7668 0.0
C375 C 0.70181 0.42185 0.75857 0.0
C376 C 0.6964 0.37791 0.74663 0.0
C377 C 0.72058 0.40114 0.74784 0.0
N378 N 0.62848 0.35352 0.75481 0.0
C379 C 0.64552 0.33286 0.74457 0.0
C380 C 0.71381 0.3569 0.73581 0.0
C381 C 0.68829 0.33425 0.73484 0.0
Gd382 Gd 0.44254 0.3592 0.7363 0.0
Gd383 Gd 0.55766 0.35287 0.7719 0.0
N384 N 0.59193 0.39353 0.77562 0.0
C385 C 0.63945 0.43966 0.77929 0.0
C386 C 0.57445 0.41269 0.78756 0.0
C387 C 0.59741 0.43613 0.78925 0.0
H388 H 0.54367 0.40999 0.79643 0.0
H389 H 0.58298 0.45133 0.79853 0.0
H390 H 0.46385 0.30909 0.70379 0.0
H391 H 0.62654 0.31511 0.74432 0.0
H392 H 0.4369 0.26511 0.69893 0.0
H393 H 0.65722 0.45782 0.78072 0.0
H394 H 0.72099 0.43962 0.75942 0.0
H395 H 0.36621 0.38722 0.76714 0.0
H396 H 0.7469 0.35794 0.7282 0.0
H397 H 0.70166 0.31783 0.72669 0.0
H398 H 0.30617 0.25819 0.74364 0.0
H399 H 0.75381 0.4033 0.7405 0.0
H400 H 0.25992 0.33287 0.78097 0.0
H401 H 0.2931 0.37626 0.78472 0.0
N402 N 0.37382 0.35042 0.75376 0.0
C403 C 0.35571 0.32665 0.75105 0.0
C404 C 0.35173 0.36828 0.76545 0.0
C405 C 0.29177 0.33762 0.77316 0.0
C406 C 0.31043 0.36214 0.77535 0.0
C407 C 0.3144 0.31952 0.76093 0.0
H408 H 0.26563 0.28873 0.76597 0.0
N409 N 0.4186 0.31695 0.72902 0.0
C410 C 0.37922 0.3093 0.7387 0.0
C411 C 0.38326 0.26817 0.72176 0.0
C412 C 0.361 0.28455 0.73558 0.0
C413 C 0.43737 0.30192 0.71392 0.0
C414 C 0.42103 0.2771 0.71055 0.0
O415 O 0.56491 0.37415 0.74115 0.0
O416 O 0.49366 0.39156 0.73718 0.0
O417 O 0.42763 0.36298 0.70279 0.0
O418 O 0.39005 0.38498 0.72594 0.0
O419 O 0.49747 0.37414 0.7862 0.0
O420 O 0.45822 0.39164 0.75829 0.0
O421 O 0.43614 0.34149 0.76837 0.0
O422 O 0.50471 0.32131 0.77131 0.0
O423 O 0.568 0.35216 0.80591 0.0
O424 O 0.60602 0.32674 0.78528 0.0
O425 O 0.50578 0.34122 0.72191 0.0
O426 O 0.53848 0.32097 0.74994 0.0
C427 C 0.53725 0.39066 0.7324 0.0
C428 C 0.46823 0.39066 0.77827 0.0
C429 C 0.36758 0.39205 0.69025 0.0
C430 C 0.34767 0.39987 0.65385 0.0
C431 C 0.30783 0.42229 0.6815 0.0
C432 C 0.33414 0.40975 0.69632 0.0
C433 C 0.31457 0.41749 0.66043 0.0
C434 C 0.37395 0.38694 0.66889 0.0
C435 C 0.39567 0.37962 0.70643 0.0
C436 C 0.32038 0.27719 0.74576 0.0
C437 C 0.29715 0.29462 0.75839 0.0
H438 H 0.37033 0.24903 0.71892 0.0
C439 C 0.46208 0.32422 0.77711 0.0
C440 C 0.53293 0.3237 0.72978 0.0
C441 C 0.62299 0.32243 0.8219 0.0
C442 C 0.63973 0.31867 0.85907 0.0
C443 C 0.67501 0.28976 0.83431 0.0
C444 C 0.65232 0.30178 0.81803 0.0
C445 C 0.66873 0.29805 0.85467 0.0
C446 C 0.61709 0.33102 0.84253 0.0
C447 C 0.59845 0.33418 0.80422 0.0
H448 H 0.28218 0.43586 0.68636 0.0
H449 H 0.32829 0.41404 0.71258 0.0
H450 H 0.29353 0.42744 0.64922 0.0
H451 H 0.39973 0.37344 0.66397 0.0
H452 H 0.69751 0.2739 0.83113 0.0
H453 H 0.65765 0.29473 0.80238 0.0
H454 H 0.68702 0.28845 0.86703 0.0
H455 H 0.59449 0.34686 0.84576 0.0
C456 C 0.85817 0.82701 0.74777 0.0
C457 C 0.86132 0.78345 0.76043 0.0
C458 C 0.8796 0.80847 0.75973 0.0
C459 C 0.82265 0.77717 0.74841 0.0
C460 C 0.81902 0.82087 0.73589 0.0
C461 C 0.80158 0.79582 0.73618 0.0
N462 N 0.87665 0.85092 0.74721 0.0
C463 C 0.85695 0.8698 0.73574 0.0
C464 C 0.79889 0.84005 0.72386 0.0
C465 C 0.81786 0.86463 0.72386 0.0
Gd466 Gd 0.06167 0.85622 0.73542 0.0
Gd467 Gd 0.94202 0.85786 0.76759 0.0
N468 N 0.91743 0.81501 0.77105 0.0
C469 C 0.88173 0.7656 0.7736 0.0
C470 C 0.93458 0.79828 0.78529 0.0
C471 C 0.91795 0.77321 0.78638 0.0
H472 H 0.95989 0.80421 0.79646 0.0
H473 H 0.93243 0.75993 0.79742 0.0
H474 H 0.04588 0.90846 0.70471 0.0
H475 H 0.87144 0.88884 0.73582 0.0
H476 H 0.07435 0.95248 0.7024 0.0
H477 H 0.86867 0.74622 0.77462 0.0
H478 H 0.80841 0.758 0.74868 0.0
H479 H 0.13265 0.82589 0.7675 0.0
H480 H 0.76878 0.83607 0.71453 0.0
H481 H 0.80242 0.87959 0.71468 0.0
H482 H 0.19875 0.95555 0.75087 0.0
H483 H 0.77168 0.79069 0.72706 0.0
H484 H 0.23711 0.87859 0.7869 0.0
H485 H 0.20235 0.83536 0.78805 0.0
N486 N 0.1275 0.86346 0.75547 0.0
C487 C 0.14669 0.88716 0.75412 0.0
C488 C 0.14726 0.84486 0.7672 0.0
C489 C 0.20652 0.87453 0.77791 0.0
C490 C 0.1869 0.85013 0.77867 0.0
C491 C 0.18651 0.8934 0.76552 0.0
H492 H 0.23509 0.92344 0.77319 0.0
N493 N 0.08746 0.89867 0.73068 0.0
C494 C 0.12557 0.90538 0.74173 0.0
C495 C 0.12476 0.94754 0.72645 0.0
C496 C 0.14471 0.93015 0.74016 0.0
C497 C 0.07104 0.9148 0.7158 0.0
C498 C 0.08836 0.93964 0.71391 0.0
O499 O 0.94247 0.84153 0.73492 0.0
O500 O 0.01281 0.82275 0.73235 0.0
O501 O 0.07994 0.85523 0.70216 0.0
O502 O 0.11785 0.83291 0.72505 0.0
O503 O 0.00349 0.83918 0.78301 0.0
O504 O 0.0442 0.82228 0.75551 0.0
O505 O 0.06177 0.87408 0.7677 0.0
O506 O 0.99014 0.89146 0.77038 0.0
O507 O 0.92292 0.85801 0.80082 0.0
O508 O 0.88607 0.88118 0.7782 0.0
O509 O 0.00064 0.87572 0.72027 0.0
O510 O 0.95893 0.89218 0.74778 0.0
C511 C 0.96939 0.82397 0.72725 0.0
C512 C 0.0335 0.82291 0.77538 0.0
C513 C 0.14474 0.82959 0.68957 0.0
C514 C 0.16734 0.82407 0.65316 0.0
C515 C 0.21365 0.80612 0.68094 0.0
C516 C 0.18334 0.8156 0.69571 0.0
C517 C 0.20587 0.81032 0.65986 0.0
C518 C 0.13692 0.83389 0.66821 0.0
C519 C 0.11358 0.83961 0.70572 0.0
C520 C 0.18387 0.93656 0.7518 0.0
C521 C 0.20472 0.91824 0.76442 0.0
H522 H 0.13846 0.96673 0.72478 0.0
C523 C 0.03365 0.89111 0.77538 0.0
C524 C 0.97145 0.89232 0.72809 0.0
C525 C 0.8589 0.88416 0.81368 0.0
C526 C 0.83196 0.88648 0.8497 0.0
C527 C 0.79311 0.91022 0.82253 0.0
C528 C 0.82363 0.90083 0.8078 0.0
C529 C 0.79706 0.90307 0.8433 0.0
C530 C 0.86326 0.87721 0.8348 0.0
C531 C 0.88997 0.87412 0.79745 0.0
H532 H 0.24345 0.79554 0.68586 0.0
H533 H 0.19041 0.81209 0.712 0.0
H534 H 0.23052 0.80304 0.64879 0.0
H535 H 0.10703 0.84446 0.66333 0.0
H536 H 0.76615 0.92305 0.81781 0.0
H537 H 0.8194 0.90659 0.79174 0.0
H538 H 0.77295 0.91073 0.85445 0.0
H539 H 0.89016 0.86432 0.83957 0.0
C540 C 0.64403 0.67586 0.25226 0.0
C541 C 0.63365 0.718 0.26704 0.0
C542 C 0.61947 0.69229 0.26498 0.0
C543 C 0.67082 0.72719 0.25525 0.0
C544 C 0.68215 0.68482 0.24085 0.0
C545 C 0.69499 0.71065 0.24219 0.0
N546 N 0.63005 0.6511 0.25076 0.0
C547 C 0.6538 0.634 0.23899 0.0
C548 C 0.70617 0.66753 0.22839 0.0
C549 C 0.69213 0.64197 0.22758 0.0
Gd550 Gd 0.4465 0.6442 0.23659 0.0
Gd551 Gd 0.56488 0.63951 0.26998 0.0
N552 N 0.58339 0.68287 0.27615 0.0
C553 C 0.61116 0.73348 0.28147 0.0
C554 C 0.56527 0.69712 0.2919 0.0
C555 C 0.57761 0.7228 0.29432 0.0
H556 H 0.54233 0.68873 0.30315 0.0
H557 H 0.562 0.73416 0.30643 0.0
H558 H 0.45487 0.5839 0.2178 0.0
H559 H 0.64261 0.6143 0.23821 0.0
H560 H 0.41027 0.54406 0.21839 0.0
H561 H 0.62105 0.7533 0.28354 0.0
H562 H 0.68181 0.74695 0.25649 0.0
H563 H 0.38267 0.68739 0.26151 0.0
H564 H 0.73565 0.67369 0.21939 0.0
H565 H 0.71061 0.62846 0.21807 0.0
H566 H 0.27408 0.56525 0.25614 0.0
H567 H 0.72394 0.71796 0.23339 0.0
H568 H 0.25935 0.65056 0.28204 0.0
H569 H 0.30878 0.68909 0.28016 0.0
N570 N 0.3765 0.64801 0.25416 0.0
C571 C 0.34935 0.6268 0.25449 0.0
C572 C 0.36213 0.67028 0.26293 0.0
C573 C 0.29205 0.64964 0.2741 0.0
C574 C 0.31993 0.6714 0.27316 0.0
C575 C 0.30648 0.62701 0.26463 0.0
H576 H 0.24655 0.60448 0.27284 0.0
N577 N 0.40721 0.60477 0.23597 0.0
C578 C 0.365 0.60461 0.24505 0.0
C579 C 0.35479 0.56012 0.23602 0.0
C580 C 0.33796 0.58216 0.24554 0.0
C581 C 0.42298 0.58355 0.22607 0.0
C582 C 0.39733 0.56089 0.22612 0.0
O583 O 0.56599 0.65496 0.23703 0.0
O584 O 0.49851 0.67612 0.23668 0.0
O585 O 0.4387 0.64352 0.20234 0.0
O586 O 0.39755 0.66868 0.22192 0.0
O587 O 0.50116 0.6552 0.2857 0.0
O588 O 0.46788 0.67581 0.25825 0.0
O589 O 0.44303 0.62088 0.26637 0.0
O590 O 0.5164 0.60596 0.2722 0.0
O591 O 0.58549 0.63783 0.30291 0.0
O592 O 0.62096 0.61536 0.2794 0.0
O593 O 0.50396 0.62107 0.22195 0.0
O594 O 0.55104 0.60617 0.24862 0.0
C595 C 0.53999 0.67299 0.22953 0.0
C596 C 0.4728 0.67239 0.27833 0.0
C597 C 0.38281 0.67192 0.18515 0.0
C598 C 0.36825 0.67509 0.14777 0.0
C599 C 0.32998 0.70367 0.17182 0.0
C600 C 0.3522 0.69215 0.18847 0.0
C601 C 0.33801 0.6953 0.15162 0.0
C602 C 0.39043 0.66321 0.16467 0.0
C603 C 0.40703 0.66095 0.20325 0.0
C604 C 0.29523 0.58234 0.25559 0.0
C605 C 0.27954 0.60468 0.2651 0.0
H606 H 0.33506 0.54251 0.23606 0.0
C607 C 0.47182 0.60484 0.27503 0.0
C608 C 0.53532 0.60536 0.22935 0.0
C609 C 0.6495 0.61115 0.31462 0.0
C610 C 0.67164 0.60344 0.35078 0.0
C611 C 0.71655 0.58568 0.32247 0.0
C612 C 0.68707 0.59659 0.30802 0.0
C613 C 0.70886 0.58895 0.34368 0.0
C614 C 0.64219 0.61482 0.33612 0.0
C615 C 0.61802 0.62175 0.29884 0.0
H616 H 0.30653 0.71921 0.1746 0.0
H617 H 0.34553 0.69931 0.20398 0.0
H618 H 0.3201 0.70451 0.13895 0.0
H619 H 0.41399 0.6477 0.16184 0.0
H620 H 0.74539 0.57452 0.31721 0.0
H621 H 0.69372 0.59355 0.29163 0.0
H622 H 0.73232 0.58025 0.3546 0.0
H623 H 0.61319 0.62585 0.34143 0.0
H624 H 0.1247 0.00975 0.38242 0.0
H625 H 0.07667 0.05775 0.26627 0.0
H626 H 0.1392 0.96267 0.32769 0.0
H627 H 0.03687 0.10083 0.32051 0.0
H628 H 0.10502 0.02407 0.28888 0.0
H629 H 0.0964 0.04439 0.36038 0.0
C630 C 0.12179 0.00661 0.36582 0.0
C631 C 0.13473 0.98323 0.35693 0.0
C632 C 0.09007 0.04086 0.29588 0.0
C633 C 0.10291 0.02293 0.33161 0.0
C634 C 0.07401 0.06019 0.28296 0.0
C635 C 0.05416 0.08213 0.2915 0.0
C636 C 0.08662 0.04347 0.31757 0.0
C637 C 0.05163 0.08415 0.31326 0.0
C638 C 0.10583 0.02645 0.35324 0.0
C639 C 0.13064 0.98046 0.33526 0.0
N640 N 0.06769 0.06506 0.32557 0.0
N641 N 0.11525 4e-05 0.3234 0.0
H642 H 0.37335 0.48276 0.8823 0.0
H643 H 0.42308 0.43382 0.76662 0.0
H644 H 0.35425 0.52824 0.827 0.0
H645 H 0.46818 0.39289 0.8211 0.0
H646 H 0.39214 0.46693 0.78896 0.0
H647 H 0.40379 0.44833 0.86061 0.0
C648 C 0.37565 0.48558 0.86565 0.0
C649 C 0.36089 0.50847 0.8565 0.0
C650 C 0.40881 0.45074 0.79609 0.0
C651 C 0.39516 0.469 0.8316 0.0
C652 C 0.42642 0.43172 0.78331 0.0
C653 C 0.44851 0.41052 0.79197 0.0
C654 C 0.41297 0.44864 0.81777 0.0
C655 C 0.45167 0.40896 0.81374 0.0
C656 C 0.39285 0.46586 0.85328 0.0
C657 C 0.36424 0.51083 0.83478 0.0
N658 N 0.43409 0.42778 0.82592 0.0
N659 N 0.38089 0.49138 0.82313 0.0
H660 H 0.71151 0.49518 0.66265 0.0
H661 H 0.49068 0.42916 0.71333 0.0
H662 H 0.57277 0.51395 0.64574 0.0
H663 H 0.62598 0.39702 0.71833 0.0
H664 H 0.52117 0.46191 0.6902 0.0
H665 H 0.68195 0.46077 0.68489 0.0
C666 C 0.67485 0.49205 0.66362 0.0
C667 C 0.64454 0.50746 0.65232 0.0
C668 C 0.54427 0.44772 0.69638 0.0
C669 C 0.61055 0.46821 0.67773 0.0
C670 C 0.52692 0.42899 0.70968 0.0
C671 C 0.55594 0.41041 0.71813 0.0
C672 C 0.59114 0.44812 0.69151 0.0
C673 C 0.60249 0.41119 0.71259 0.0
C674 C 0.65804 0.47234 0.67622 0.0
C675 C 0.59739 0.50239 0.65399 0.0
N676 N 0.61872 0.42982 0.69973 0.0
N677 N 0.58187 0.48333 0.66654 0.0
H678 H 0.91686 0.95956 0.17092 0.0
H679 H 0.89551 0.10522 0.2066 0.0
H680 H 0.83248 0.01347 0.13815 0.0
H681 H 0.00616 0.05599 0.22499 0.0
H682 H 0.86561 0.07098 0.18417 0.0
H683 H 0.94423 0.99397 0.19345 0.0
C684 C 0.90408 0.97869 0.1685 0.0
C685 C 0.87234 0.98369 0.15267 0.0
C686 C 0.89645 0.06774 0.19311 0.0
C687 C 0.90342 0.02323 0.17847 0.0
C688 C 0.91328 0.08717 0.20603 0.0
C689 C 0.95331 0.0834 0.21768 0.0
C690 C 0.91968 0.04438 0.19201 0.0
C691 C 0.97537 0.05978 0.21616 0.0
C692 C 0.91982 -0.00166 0.18131 0.0
C693 C 0.85723 0.00888 0.15008 0.0
N694 N 0.9582 0.04118 0.20363 0.0
N695 N 0.8727 0.02773 0.16295 0.0
H696 H 0.8787 0.98577 0.62462 0.0
H697 H 0.93507 0.93786 0.73999 0.0
H698 H 0.87333 0.03369 0.67922 0.0
H699 H 0.96644 0.89335 0.68538 0.0
H700 H 0.90711 0.97197 0.71771 0.0
H701 H 0.9072 0.9508 0.64627 0.0
C702 C 0.88371 0.98903 0.6411 0.0
C703 C 0.87319 0.01274 0.65009 0.0
C704 C 0.92012 0.95477 0.71054 0.0
C705 C 0.9052 0.97267 0.67497 0.0
C706 C 0.93591 0.9352 0.72328 0.0
C707 C 0.95333 0.91275 0.71453 0.0
C708 C 0.92134 0.95189 0.68883 0.0
C709 C 0.95362 0.91045 0.69276 0.0
C710 C 0.89976 0.969 0.65346 0.0
C711 C 0.87995 0.01566 0.67161 0.0
N712 N 0.93785 0.92979 0.68063 0.0
N713 N 0.89532 0.9959 0.68326 0.0
H714 H 0.57455 0.49337 0.13138 0.0
H715 H 0.59972 0.56927 0.23844 0.0
H716 H 0.68403 0.48113 0.17533 0.0
H717 H 0.51281 0.59525 0.18848 0.0
H718 H 0.62821 0.53564 0.21589 0.0
H719 H 0.54915 0.52979 0.1522 0.0
C720 C 0.59352 0.49841 0.14528 0.0
C721 C 0.63131 0.48391 0.15166 0.0
C722 C 0.603 0.54873 0.20981 0.0
C723 C 0.60189 0.52536 0.17572 0.0
C724 C 0.58657 0.56799 0.22272 0.0
C725 C 0.55349 0.58516 0.21545 0.0
C726 C 0.58607 0.54632 0.18947 0.0
C727 C 0.53807 0.58242 0.19484 0.0
C728 C 0.57883 0.51915 0.1572 0.0
C729 C 0.65412 0.49128 0.16999 0.0
N730 N 0.55424 0.56326 0.18262 0.0
N731 N 0.6389 0.51133 0.18139 0.0
H732 H 0.44549 0.47651 0.35883 0.0
H733 H 0.38307 0.59685 0.28839 0.0
H734 H 0.30688 0.49366 0.34058 0.0
H735 H 0.51896 0.56519 0.29231 0.0
H736 H 0.35428 0.56169 0.30981 0.0
H737 H 0.47298 0.51189 0.33727 0.0
C738 C 0.42083 0.48784 0.35037 0.0
C739 C 0.37385 0.48215 0.35148 0.0
C740 C 0.39034 0.56242 0.30587 0.0
C741 C 0.40505 0.52262 0.32671 0.0
C742 C 0.4068 0.58243 0.2935 0.0
C743 C 0.45343 0.58386 0.28817 0.0
C744 C 0.42088 0.54397 0.3133 0.0
C745 C 0.48271 0.56492 0.29589 0.0
C746 C 0.43655 0.50791 0.33796 0.0
C747 C 0.34343 0.49727 0.33999 0.0
N748 N 0.46599 0.54585 0.30809 0.0
N749 N 0.35954 0.51689 0.32814 0.0
H750 H 0.06031 0.02128 0.85732 0.0
H751 H 0.11596 0.89288 0.7961 0.0
H752 H 0.19888 0.99688 0.84594 0.0
H753 H 0.99109 0.93505 0.78725 0.0
H754 H 0.14537 0.92755 0.81804 0.0
H755 H 0.03217 0.98601 0.8357 0.0
C756 C 0.08476 0.00837 0.85037 0.0
C757 C 0.13195 0.01198 0.85338 0.0
C758 C 0.11164 0.92921 0.81118 0.0
C759 C 0.10008 0.97163 0.8287 0.0
C760 C 0.09503 0.90956 0.79849 0.0
C761 C 0.05153 0.91133 0.78935 0.0
C762 C 0.08399 0.95046 0.81521 0.0
C763 C 0.02496 0.93288 0.79384 0.0
C764 C 0.06873 0.98838 0.83794 0.0
C765 C 0.16222 0.99485 0.84385 0.0
N766 N 0.04156 0.95155 0.80649 0.0
N767 N 0.14577 0.97531 0.832 0.0
H768 H 0.16971 0.07607 0.02335 0.0
H769 H 0.1557 0.14628 0.13397 0.0
H770 H 0.17129 0.15813 0.02961 0.0
H771 H 0.16662 0.06489 0.1255 0.0
H772 H 0.15315 0.15152 0.09594 0.0
H773 H 0.16093 0.07216 0.0608 0.0
C774 C 0.16773 0.09333 0.03257 0.0
C775 C 0.17107 0.11749 0.0232 0.0
C776 C 0.15577 0.13252 0.10245 0.0
C777 C 0.16174 0.1131 0.06649 0.0
C778 C 0.15688 0.12953 0.12411 0.0
C779 C 0.16182 0.10514 0.13284 0.0
C780 C 0.15928 0.11094 0.08953 0.0
C781 C 0.16348 0.08407 0.1194 0.0
C782 C 0.163 0.09107 0.05405 0.0
C783 C 0.1693 0.13912 0.03614 0.0
N784 N 0.16242 0.08747 0.09849 0.0
N785 N 0.1648 0.13642 0.05714 0.0
H786 H 0.33673 0.33737 0.52868 0.0
H787 H 0.35833 0.43578 0.62367 0.0
H788 H 0.34201 0.41939 0.52232 0.0
H789 H 0.35101 0.35427 0.6326 0.0
H790 H 0.35884 0.42926 0.58615 0.0
H791 H 0.34647 0.34226 0.56639 0.0
C792 C 0.33992 0.35638 0.53516 0.0
C793 C 0.33866 0.37799 0.52221 0.0
C794 C 0.3574 0.41271 0.59623 0.0
C795 C 0.35025 0.38369 0.56531 0.0
C796 C 0.35714 0.41645 0.61767 0.0
C797 C 0.35415 0.39554 0.63123 0.0
C798 C 0.35432 0.38783 0.58813 0.0
C799 C 0.35338 0.37089 0.62264 0.0
C800 C 0.34578 0.35914 0.55668 0.0
C801 C 0.34352 0.40212 0.53153 0.0
N802 N 0.35294 0.3677 0.60159 0.0
N803 N 0.34896 0.40428 0.55242 0.0
H804 H 0.63913 0.31505 0.99276 0.0
H805 H 0.64664 0.36706 0.87552 0.0
H806 H 0.67616 0.39267 0.97724 0.0
H807 H 0.62067 0.28867 0.8926 0.0
H808 H 0.64809 0.37852 0.91262 0.0
H809 H 0.62379 0.30663 0.95614 0.0
C810 C 0.64415 0.33034 0.98163 0.0
C811 C 0.65957 0.35452 0.9881 0.0
C812 C 0.64162 0.35887 0.90821 0.0
C813 C 0.64159 0.34504 0.94593 0.0
C814 C 0.64046 0.35238 0.88707 0.0
C815 C 0.634 0.32685 0.88103 0.0
C816 C 0.63601 0.33969 0.92334 0.0
C817 C 0.62643 0.30852 0.8966 0.0
C818 C 0.6351 0.32556 0.96069 0.0
C819 C 0.66428 0.37375 0.97297 0.0
N820 N 0.62795 0.31526 0.91698 0.0
N821 N 0.65569 0.36855 0.95257 0.0
H822 H 0.85432 0.18116 0.48851 0.0
H823 H 0.85553 0.12365 0.37286 0.0
H824 H 0.82977 0.10141 0.4753 0.0
H825 H 0.85688 0.20406 0.38724 0.0
H826 H 0.85742 0.11415 0.41031 0.0
H827 H 0.8659 0.18889 0.45149 0.0
C828 C 0.85126 0.16524 0.47782 0.0
C829 C 0.8404 0.14064 0.48508 0.0
C830 C 0.85769 0.13386 0.40524 0.0
C831 C 0.85423 0.14936 0.44247 0.0
C832 C 0.85693 0.13927 0.38389 0.0
C833 C 0.8556 0.16467 0.37698 0.0
C834 C 0.85752 0.15403 0.41969 0.0
C835 C 0.8572 0.18421 0.39192 0.0
C836 C 0.85815 0.16966 0.45666 0.0
C837 C 0.83819 0.12068 0.47046 0.0
N838 N 0.85786 0.17849 0.41251 0.0
N839 N 0.8447 0.1255 0.44985 0.0
H840 H 0.755 0.85479 0.97647 0.0
H841 H 0.90656 0.88832 0.87583 0.0
H842 H 0.89269 0.88508 0.98044 0.0
H843 H 0.76291 0.8686 0.87429 0.0
H844 H 0.9063 0.88171 0.91374 0.0
H845 H 0.76144 0.85439 0.9387 0.0
C846 C 0.78685 0.8611 0.96943 0.0
C847 C 0.82333 0.87002 0.98175 0.0
C848 C 0.87498 0.87861 0.90505 0.0
C849 C 0.83074 0.86994 0.93822 0.0
C850 C 0.87523 0.88219 0.88344 0.0
C851 C 0.83461 0.87919 0.87199 0.0
C852 C 0.8339 0.8718 0.91516 0.0
C853 C 0.79484 0.87141 0.88258 0.0
C854 C 0.7904 0.86103 0.94779 0.0
C855 C 0.86346 0.87836 0.97159 0.0
N856 N 0.79545 0.86811 0.90352 0.0
N857 N 0.86606 0.87818 0.95043 0.0
H858 H 0.66927 0.65935 0.47803 0.0
H859 H 0.66982 0.56551 0.37968 0.0
H860 H 0.67329 0.57712 0.48191 0.0
H861 H 0.65695 0.64711 0.37364 0.0
H862 H 0.66673 0.56986 0.41739 0.0
H863 H 0.66172 0.65588 0.44011 0.0
C864 C 0.66852 0.64059 0.47096 0.0
C865 C 0.67188 0.6185 0.48327 0.0
C866 C 0.66425 0.58688 0.40791 0.0
C867 C 0.66296 0.61441 0.43989 0.0
C868 C 0.66605 0.58438 0.38635 0.0
C869 C 0.66406 0.606 0.37354 0.0
C870 C 0.66085 0.61125 0.41689 0.0
C871 C 0.65854 0.62996 0.383 0.0
C872 C 0.66392 0.63863 0.44932 0.0
C873 C 0.67015 0.5947 0.4732 0.0
N874 N 0.65763 0.63199 0.40414 0.0
N875 N 0.66603 0.59333 0.45219 0.0
H876 H 0.37162 0.67876 0.01424 0.0
H877 H 0.36177 0.62672 0.13141 0.0
H878 H 0.33033 0.60186 0.02998 0.0
H879 H 0.39007 0.70491 0.11451 0.0
H880 H 0.36112 0.61528 0.0943 0.0
H881 H 0.38834 0.68688 0.05082 0.0
C882 C 0.36602 0.66356 0.0254 0.0
C883 C 0.34898 0.63969 0.01901 0.0
C884 C 0.36803 0.63487 0.09875 0.0
C885 C 0.36849 0.64879 0.06108 0.0
C886 C 0.36876 0.64134 0.1199 0.0
C887 C 0.37555 0.66682 0.12596 0.0
C888 C 0.37436 0.65404 0.08366 0.0
C889 C 0.38412 0.68509 0.11046 0.0
C890 C 0.37585 0.66816 0.0463 0.0
C891 C 0.34351 0.62054 0.03416 0.0
N892 N 0.38293 0.6784 0.09007 0.0
N893 N 0.35286 0.62556 0.05451 0.0
H894 H 0.12185 0.88458 0.5283 0.0
H895 H 0.17951 0.78964 0.62172 0.0
H896 H 0.20976 0.81892 0.52276 0.0
H897 H 0.13823 0.86743 0.63275 0.0
H898 H 0.1768 0.79752 0.58441 0.0
H899 H 0.11575 0.87647 0.56576 0.0
C900 C 0.13993 0.86852 0.53485 0.0
C901 C 0.16625 0.85238 0.52212 0.0
C902 C 0.16819 0.81287 0.59497 0.0
C903 C 0.15837 0.84274 0.56495 0.0
C904 C 0.16982 0.80841 0.6163 0.0
C905 C 0.15998 0.82805 0.63046 0.0
C906 C 0.15624 0.8371 0.58755 0.0
C907 C 0.14617 0.85174 0.62243 0.0
C908 C 0.13615 0.86385 0.55623 0.0
C909 C 0.18819 0.83162 0.53163 0.0
N910 N 0.145 0.85568 0.60147 0.0
N911 N 0.18363 0.82741 0.55236 0.0
H912 H 0.2369 0.25746 0.34899 0.0
H913 H 0.00598 0.2147 0.29379 0.0
H914 H 0.10705 0.28907 0.36731 0.0
H915 H 0.12157 0.16449 0.30013 0.0
H916 H 0.04289 0.24455 0.31815 0.0
H917 H 0.19636 0.22556 0.32791 0.0
C918 C 0.19978 0.25753 0.34863 0.0
C919 C 0.17517 0.2758 0.35988 0.0
C920 C 0.06005 0.22695 0.31416 0.0
C921 C 0.12865 0.23971 0.33563 0.0
C922 C 0.03908 0.20994 0.30026 0.0
C923 C 0.06133 0.18735 0.29445 0.0
C924 C 0.10368 0.22142 0.32209 0.0
C925 C 0.10396 0.18208 0.3035 0.0
C926 C 0.17669 0.23933 0.33668 0.0
C927 C 0.12714 0.27512 0.35895 0.0
N928 N 0.12399 0.19909 0.31665 0.0
N929 N 0.10535 0.25752 0.34681 0.0
H930 H 0.26743 0.23531 0.8473 0.0
H931 H 0.49976 0.28123 0.79449 0.0
H932 H 0.39824 0.20726 0.86789 0.0
H933 H 0.37851 0.32776 0.79606 0.0
H934 H 0.46317 0.25172 0.81918 0.0
H935 H 0.30699 0.26714 0.82581 0.0
C936 C 0.30454 0.236 0.84735 0.0
C937 C 0.32969 0.21872 0.85935 0.0
C938 C 0.44469 0.26843 0.81407 0.0
C939 C 0.37518 0.25479 0.83463 0.0
C940 C 0.46545 0.28525 0.79995 0.0
C941 C 0.44167 0.3067 0.79273 0.0
C942 C 0.39971 0.27299 0.82082 0.0
C943 C 0.39753 0.31106 0.80057 0.0
C944 C 0.32708 0.25418 0.83515 0.0
C945 C 0.3777 0.22041 0.85893 0.0
N946 N 0.3778 0.29424 0.81398 0.0
N947 N 0.39899 0.23797 0.84656 0.0
H948 H 0.64398 0.18672 0.67541 0.0
H949 H 0.55669 0.33012 0.68884 0.0
H950 H 0.68092 0.24686 0.63246 0.0
H951 H 0.55858 0.27491 0.7386 0.0
H952 H 0.59392 0.29889 0.66601 0.0
H953 H 0.60418 0.21787 0.69681 0.0
C954 C 0.64402 0.20649 0.67048 0.0
C955 C 0.66651 0.21412 0.65215 0.0
C956 C 0.58615 0.29366 0.68193 0.0
C957 C 0.61986 0.24995 0.67654 0.0
C958 C 0.56479 0.3114 0.69491 0.0
C959 C 0.55474 0.3051 0.71564 0.0
C960 C 0.59687 0.26934 0.68968 0.0
C961 C 0.56604 0.28063 0.72277 0.0
C962 C 0.621 0.22426 0.6827 0.0
C963 C 0.66392 0.23997 0.64635 0.0
N964 N 0.58635 0.26365 0.7098 0.0
N965 N 0.64111 0.25696 0.65852 0.0
H966 H 0.85424 0.30815 0.17911 0.0
H967 H 0.95894 0.16805 0.18883 0.0
H968 H 0.8288 0.24926 0.13341 0.0
H969 H 0.94424 0.21961 0.2407 0.0
H970 H 0.92034 0.19921 0.16646 0.0
H971 H 0.89618 0.27747 0.20008 0.0
C972 C 0.85714 0.28875 0.17349 0.0
C973 C 0.83726 0.28132 0.15449 0.0
C974 C 0.92568 0.20367 0.18273 0.0
C975 C 0.88647 0.24609 0.17839 0.0
C976 C 0.94787 0.18599 0.19546 0.0
C977 C 0.95468 0.19126 0.21664 0.0
C978 C 0.91083 0.22691 0.19121 0.0
C979 C 0.93944 0.21471 0.22448 0.0
C980 C 0.88141 0.27126 0.18546 0.0
C981 C 0.84368 0.256 0.14783 0.0
N982 N 0.91837 0.23168 0.21176 0.0
N983 N 0.86766 0.2393 0.15977 0.0
H984 H 0.7975 0.74318 0.63874 0.0
H985 H 0.00202 0.77647 0.71782 0.0
H986 H 0.89959 0.68887 0.65782 0.0
H987 H 0.89295 0.82848 0.70302 0.0
H988 H 0.96787 0.74502 0.69416 0.0
H989 H 0.83504 0.77566 0.66031 0.0
C990 C 0.82809 0.73815 0.64728 0.0
C991 C 0.8453 0.71322 0.64651 0.0
C992 C 0.95136 0.76331 0.6961 0.0
C993 C 0.88825 0.75026 0.67143 0.0
C994 C 0.97094 0.78129 0.70955 0.0
C995 C 0.94998 0.80501 0.71257 0.0
C996 C 0.9107 0.76915 0.68546 0.0
C997 C 0.90974 0.81023 0.70146 0.0
C998 C 0.84933 0.75666 0.65972 0.0
C999 C 0.88475 0.70774 0.65815 0.0
N1000 N 0.89138 0.79246 0.68844 0.0
N1001 N 0.90481 0.72606 0.67013 0.0
H1002 H 0.60885 0.80867 0.15929 0.0
H1003 H 0.61395 0.66626 0.20413 0.0
H1004 H 0.70516 0.75186 0.13883 0.0
H1005 H 0.50944 0.72079 0.21974 0.0
H1006 H 0.64775 0.69721 0.18006 0.0
H1007 H 0.5715 0.7766 0.18122 0.0
C1008 C 0.62209 0.78941 0.15939 0.0
C1009 C 0.66036 0.78297 0.14729 0.0
C1010 C 0.61732 0.7024 0.18867 0.0
C1011 C 0.6177 0.7461 0.17239 0.0
C1012 C 0.5982 0.68479 0.20253 0.0
C1013 C 0.55922 0.69109 0.21416 0.0
C1014 C 0.59724 0.72651 0.18637 0.0
C1015 C 0.53959 0.71516 0.21112 0.0
C1016 C 0.60064 0.77108 0.17186 0.0
C1017 C 0.67559 0.75762 0.14779 0.0
N1018 N 0.55896 0.73205 0.1976 0.0
N1019 N 0.65443 0.74016 0.16025 0.0
H1020 H 0.36309 0.80851 0.33427 0.0
H1021 H 0.44372 0.66414 0.31833 0.0
H1022 H 0.31661 0.74703 0.37397 0.0
H1023 H 0.45324 0.72227 0.27102 0.0
H1024 H 0.40563 0.69495 0.34135 0.0
H1025 H 0.40486 0.77777 0.31328 0.0
C1026 C 0.36139 0.78853 0.33855 0.0
C1027 C 0.33564 0.78039 0.35583 0.0
C1028 C 0.41612 0.70091 0.32593 0.0
C1029 C 0.38444 0.74501 0.33194 0.0
C1030 C 0.43796 0.68341 0.31287 0.0
C1031 C 0.45119 0.69068 0.29274 0.0
C1032 C 0.40827 0.72589 0.31887 0.0
C1033 C 0.44305 0.71583 0.28635 0.0
C1034 C 0.38552 0.77098 0.32659 0.0
C1035 C 0.33611 0.75427 0.36089 0.0
N1036 N 0.42219 0.73251 0.29937 0.0
N1037 N 0.36001 0.73749 0.34897 0.0
H1038 H 0.19484 0.69923 0.82442 0.0
H1039 H 0.03402 0.82218 0.81821 0.0
H1040 H 0.12948 0.73179 0.87842 0.0
H1041 H 0.08277 0.7807 0.76466 0.0
H1042 H 0.07145 0.79097 0.84084 0.0
H1043 H 0.15712 0.73072 0.80265 0.0
C1044 C 0.17227 0.71288 0.83173 0.0
C1045 C 0.16505 0.71259 0.85333 0.0
C1046 C 0.07386 0.78872 0.82413 0.0
C1047 C 0.12209 0.74921 0.82835 0.0
C1048 C 0.05246 0.8065 0.8112 0.0
C1049 C 0.05522 0.8041 0.78947 0.0
C1050 C 0.09843 0.76847 0.81528 0.0
C1051 C 0.07978 0.78344 0.78129 0.0
C1052 C 0.15089 0.731 0.81925 0.0
C1053 C 0.13636 0.73132 0.86188 0.0
N1054 N 0.10045 0.76653 0.79418 0.0
N1055 N 0.11586 0.74884 0.84937 0.0
loop_
_geom_bond_atom_site_label_1
_geom_bond_atom_site_label_2
_geom_bond_distance
_geom_bond_site_symmetry_2
_ccdc_geom_bond_type
C0 C1 1.384 . S
C0 H13 0.947 . S
C0 C35 1.382 . S
C1 C0 1.384 . S
C1 C2 1.378 . S
C2 C1 1.378 . S
C2 C3 1.378 . S
C2 H14 0.952 . S
C3 C2 1.378 . S
C3 H15 0.950 . S
C3 C34 1.383 . S
H4 C23 0.947 . S
H5 C24 0.946 . S
H6 C26 0.953 . S
H7 C27 0.945 . S
H8 C29 0.952 . S
H9 C30 0.949 . S
H10 C32 0.950 . S
H11 C33 0.948 . S
H12 C35 0.951 . S
H13 C0 0.947 . S
H14 C2 0.952 . S
H15 C3 0.950 . S
N16 C19 1.382 . S
N16 C21 1.363 . S
N17 C19 1.371 . S
N17 C20 1.372 . S
N18 C20 1.361 . S
N18 C21 1.377 . S
C19 N16 1.382 . S
C19 N17 1.371 . S
C19 C22 1.480 . S
C20 N17 1.372 . S
C20 N18 1.361 . S
C20 C28 1.457 . S
C21 N16 1.363 . S
C21 N18 1.377 . S
C21 C34 1.479 . S
C22 C19 1.480 . S
C22 C23 1.383 . S
C22 C27 1.385 . S
C23 H4 0.947 . S
C23 C22 1.383 . S
C23 C24 1.388 . S
C24 H5 0.946 . S
C24 C23 1.388 . S
C24 C25 1.384 . S
C25 C24 1.384 . S
C25 C26 1.377 . S
C26 H6 0.953 . S
C26 C25 1.377 . S
C26 C27 1.369 . S
C27 H7 0.945 . S
C27 C22 1.385 . S
C27 C26 1.369 . S
C28 C20 1.457 . S
C28 C29 1.372 . S
C28 C33 1.364 . S
C29 H8 0.952 . S
C29 C28 1.372 . S
C29 C30 1.389 . S
C30 H9 0.949 . S
C30 C29 1.389 . S
C30 C31 1.387 . S
C31 C30 1.387 . S
C31 C32 1.372 . S
C32 H10 0.950 . S
C32 C31 1.372 . S
C32 C33 1.379 . S
C33 H11 0.948 . S
C33 C28 1.364 . S
C33 C32 1.379 . S
C34 C3 1.383 . S
C34 C21 1.479 . S
C34 C35 1.398 . S
C35 C0 1.382 . S
C35 H12 0.951 . S
C35 C34 1.398 . S
C36 C37 1.384 . S
C36 H49 0.947 . S
C36 C71 1.382 . S
C37 C36 1.384 . S
C37 C38 1.378 . S
C38 C37 1.378 . S
C38 C39 1.378 . S
C38 H50 0.952 . S
C39 C38 1.378 . S
C39 H51 0.950 . S
C39 C70 1.383 . S
H40 C59 0.947 . S
H41 C60 0.946 . S
H42 C62 0.953 . S
H43 C63 0.945 . S
H44 C65 0.952 . S
H45 C66 0.949 . S
H46 C68 0.950 . S
H47 C69 0.948 . S
H48 C71 0.951 . S
H49 C36 0.947 . S
H50 C38 0.952 . S
H51 C39 0.950 . S
N52 C55 1.382 . S
N52 C57 1.363 . S
N53 C55 1.371 . S
N53 C56 1.372 . S
N54 C56 1.361 . S
N54 C57 1.377 . S
C55 N52 1.382 . S
C55 N53 1.371 . S
C55 C58 1.480 . S
C56 N53 1.372 . S
C56 N54 1.361 . S
C56 C64 1.457 . S
C57 N52 1.363 . S
C57 N54 1.377 . S
C57 C70 1.479 . S
C58 C55 1.480 . S
C58 C59 1.383 . S
C58 C63 1.385 . S
C59 H40 0.947 . S
C59 C58 1.383 . S
C59 C60 1.388 . S
C60 H41 0.946 . S
C60 C59 1.388 . S
C60 C61 1.384 . S
C61 C60 1.384 . S
C61 C62 1.377 . S
C62 H42 0.953 . S
C62 C61 1.377 . S
C62 C63 1.369 . S
C63 H43 0.945 . S
C63 C58 1.385 . S
C63 C62 1.369 . S
C64 C56 1.457 . S
C64 C65 1.372 . S
C64 C69 1.364 . S
C65 H44 0.952 . S
C65 C64 1.372 . S
C65 C66 1.389 . S
C66 H45 0.949 . S
C66 C65 1.389 . S
C66 C67 1.387 . S
C67 C66 1.387 . S
C67 C68 1.372 . S
C68 H46 0.950 . S
C68 C67 1.372 . S
C68 C69 1.379 . S
C69 H47 0.948 . S
C69 C64 1.364 . S
C69 C68 1.379 . S
C70 C39 1.383 . S
C70 C57 1.479 . S
C70 C71 1.398 . S
C71 C36 1.382 . S
C71 H48 0.951 . S
C71 C70 1.398 . S
C72 C73 1.384 . S
C72 H85 0.947 . S
C72 C107 1.382 . S
C73 C72 1.384 . S
C73 C74 1.378 . S
C74 C73 1.378 . S
C74 C75 1.378 . S
C74 H86 0.952 . S
C75 C74 1.378 . S
C75 H87 0.950 . S
C75 C106 1.383 . S
H76 C95 0.947 . S
H77 C96 0.946 . S
H78 C98 0.953 . S
H79 C99 0.945 . S
H80 C101 0.952 . S
H81 C102 0.949 . S
H82 C104 0.950 . S
H83 C105 0.948 . S
H84 C107 0.951 . S
H85 C72 0.947 . S
H86 C74 0.952 . S
H87 C75 0.950 . S
N88 C91 1.382 . S
N88 C93 1.363 . S
N89 C91 1.371 . S
N89 C92 1.372 . S
N90 C92 1.361 . S
N90 C93 1.377 . S
C91 N88 1.382 . S
C91 N89 1.371 . S
C91 C94 1.480 . S
C92 N89 1.372 . S
C92 N90 1.361 . S
C92 C100 1.457 . S
C93 N88 1.363 . S
C93 N90 1.377 . S
C93 C106 1.479 . S
C94 C91 1.480 . S
C94 C95 1.383 . S
C94 C99 1.385 . S
C95 H76 0.947 . S
C95 C94 1.383 . S
C95 C96 1.388 . S
C96 H77 0.946 . S
C96 C95 1.388 . S
C96 C97 1.384 . S
C97 C96 1.384 . S
C97 C98 1.377 . S
C98 H78 0.953 . S
C98 C97 1.377 . S
C98 C99 1.369 . S
C99 H79 0.945 . S
C99 C94 1.385 . S
C99 C98 1.369 . S
C100 C92 1.457 . S
C100 C101 1.372 . S
C100 C105 1.364 . S
C101 H80 0.952 . S
C101 C100 1.372 . S
C101 C102 1.389 . S
C102 H81 0.949 . S
C102 C101 1.389 . S
C102 C103 1.387 . S
C103 C102 1.387 . S
C103 C104 1.372 . S
C104 H82 0.950 . S
C104 C103 1.372 . S
C104 C105 1.379 . S
C105 H83 0.948 . S
C105 C100 1.364 . S
C105 C104 1.379 . S
C106 C75 1.383 . S
C106 C93 1.479 . S
C106 C107 1.398 . S
C107 C72 1.382 . S
C107 H84 0.951 . S
C107 C106 1.398 . S
C108 C109 1.384 . S
C108 H121 0.947 . S
C108 C143 1.382 . S
C109 C108 1.384 . S
C109 C110 1.378 . S
C110 C109 1.378 . S
C110 C111 1.378 . S
C110 H122 0.952 . S
C111 C110 1.378 . S
C111 H123 0.950 . S
C111 C142 1.383 . S
H112 C131 0.947 . S
H113 C132 0.946 . S
H114 C134 0.953 . S
H115 C135 0.945 . S
H116 C137 0.952 . S
H117 C138 0.949 . S
H118 C140 0.950 . S
H119 C141 0.948 . S
H120 C143 0.951 . S
H121 C108 0.947 . S
H122 C110 0.952 . S
H123 C111 0.950 . S
N124 C127 1.382 . S
N124 C129 1.363 . S
N125 C127 1.371 . S
N125 C128 1.372 . S
N126 C128 1.361 . S
N126 C129 1.377 . S
C127 N124 1.382 . S
C127 N125 1.371 . S
C127 C130 1.480 . S
C128 N125 1.372 . S
C128 N126 1.361 . S
C128 C136 1.457 . S
C129 N124 1.363 . S
C129 N126 1.377 . S
C129 C142 1.479 . S
C130 C127 1.480 . S
C130 C131 1.383 . S
C130 C135 1.385 . S
C131 H112 0.947 . S
C131 C130 1.383 . S
C131 C132 1.388 . S
C132 H113 0.946 . S
C132 C131 1.388 . S
C132 C133 1.384 . S
C133 C132 1.384 . S
C133 C134 1.377 . S
C134 H114 0.953 . S
C134 C133 1.377 . S
C134 C135 1.369 . S
C135 H115 0.945 . S
C135 C130 1.385 . S
C135 C134 1.369 . S
C136 C128 1.457 . S
C136 C137 1.372 . S
C136 C141 1.364 . S
C137 H116 0.952 . S
C137 C136 1.372 . S
C137 C138 1.389 . S
C138 H117 0.949 . S
C138 C137 1.389 . S
C138 C139 1.387 . S
C139 C138 1.387 . S
C139 C140 1.372 . S
C140 H118 0.950 . S
C140 C139 1.372 . S
C140 C141 1.379 . S
C141 H119 0.948 . S
C141 C136 1.364 . S
C141 C140 1.379 . S
C142 C111 1.383 . S
C142 C129 1.479 . S
C142 C143 1.398 . S
C143 C108 1.382 . S
C143 H120 0.951 . S
C143 C142 1.398 . S
C144 C145 1.384 . S
C144 H157 0.947 . S
C144 C179 1.382 . S
C145 C144 1.384 . S
C145 C146 1.378 . S
C146 C145 1.378 . S
C146 C147 1.378 . S
C146 H158 0.952 . S
C147 C146 1.378 . S
C147 H159 0.950 . S
C147 C178 1.383 . S
H148 C167 0.947 . S
H149 C168 0.946 . S
H150 C170 0.953 . S
H151 C171 0.945 . S
H152 C173 0.952 . S
H153 C174 0.949 . S
H154 C176 0.950 . S
H155 C177 0.948 . S
H156 C179 0.951 . S
H157 C144 0.947 . S
H158 C146 0.952 . S
H159 C147 0.950 . S
N160 C163 1.382 . S
N160 C165 1.363 . S
N161 C163 1.371 . S
N161 C164 1.372 . S
N162 C164 1.361 . S
N162 C165 1.377 . S
C163 N160 1.382 . S
C163 N161 1.371 . S
C163 C166 1.480 . S
C164 N161 1.372 . S
C164 N162 1.361 . S
C164 C172 1.457 . S
C165 N160 1.363 . S
C165 N162 1.377 . S
C165 C178 1.479 . S
C166 C163 1.480 . S
C166 C167 1.383 . S
C166 C171 1.385 . S
C167 H148 0.947 . S
C167 C166 1.383 . S
C167 C168 1.388 . S
C168 H149 0.946 . S
C168 C167 1.388 . S
C168 C169 1.384 . S
C169 C168 1.384 . S
C169 C170 1.377 . S
C170 H150 0.953 . S
C170 C169 1.377 . S
C170 C171 1.369 . S
C171 H151 0.945 . S
C171 C166 1.385 . S
C171 C170 1.369 . S
C172 C164 1.457 . S
C172 C173 1.372 . S
C172 C177 1.364 . S
C173 H152 0.952 . S
C173 C172 1.372 . S
C173 C174 1.389 . S
C174 H153 0.949 . S
C174 C173 1.389 . S
C174 C175 1.387 . S
C175 C174 1.387 . S
C175 C176 1.372 . S
C176 H154 0.950 . S
C176 C175 1.372 . S
C176 C177 1.379 . S
C177 H155 0.948 . S
C177 C172 1.364 . S
C177 C176 1.379 . S
C178 C147 1.383 . S
C178 C165 1.479 . S
C178 C179 1.398 . S
C179 C144 1.382 . S
C179 H156 0.951 . S
C179 C178 1.398 . S
C180 C181 1.384 . S
C180 H193 0.947 . S
C180 C215 1.382 . S
C181 C180 1.384 . S
C181 C182 1.378 . S
C182 C181 1.378 . S
C182 C183 1.378 . S
C182 H194 0.952 . S
C183 C182 1.378 . S
C183 H195 0.950 . S
C183 C214 1.383 . S
H184 C203 0.947 . S
H185 C204 0.946 . S
H186 C206 0.953 . S
H187 C207 0.945 . S
H188 C209 0.952 . S
H189 C210 0.949 . S
H190 C212 0.950 . S
H191 C213 0.948 . S
H192 C215 0.951 . S
H193 C180 0.947 . S
H194 C182 0.952 . S
H195 C183 0.950 . S
N196 C199 1.382 . S
N196 C201 1.363 . S
N197 C199 1.371 . S
N197 C200 1.372 . S
N198 C200 1.361 . S
N198 C201 1.377 . S
C199 N196 1.382 . S
C199 N197 1.371 . S
C199 C202 1.480 . S
C200 N197 1.372 . S
C200 N198 1.361 . S
C200 C208 1.457 . S
C201 N196 1.363 . S
C201 N198 1.377 . S
C201 C214 1.479 . S
C202 C199 1.480 . S
C202 C203 1.383 . S
C202 C207 1.385 . S
C203 H184 0.947 . S
C203 C202 1.383 . S
C203 C204 1.388 . S
C204 H185 0.946 . S
C204 C203 1.388 . S
C204 C205 1.384 . S
C205 C204 1.384 . S
C205 C206 1.377 . S
C206 H186 0.953 . S
C206 C205 1.377 . S
C206 C207 1.369 . S
C207 H187 0.945 . S
C207 C202 1.385 . S
C207 C206 1.369 . S
C208 C200 1.457 . S
C208 C209 1.372 . S
C208 C213 1.364 . S
C209 H188 0.952 . S
C209 C208 1.372 . S
C209 C210 1.389 . S
C210 H189 0.949 . S
C210 C209 1.389 . S
C210 C211 1.387 . S
C211 C210 1.387 . S
C211 C212 1.372 . S
C212 H190 0.950 . S
C212 C211 1.372 . S
C212 C213 1.379 . S
C213 H191 0.948 . S
C213 C208 1.364 . S
C213 C212 1.379 . S
C214 C183 1.383 . S
C214 C201 1.479 . S
C214 C215 1.398 . S
C215 C180 1.382 . S
C215 H192 0.951 . S
C215 C214 1.398 . S
C216 C217 1.384 . S
C216 H229 0.947 . S
C216 C251 1.382 . S
C217 C216 1.384 . S
C217 C218 1.378 . S
C218 C217 1.378 . S
C218 C219 1.378 . S
C218 H230 0.952 . S
C219 C218 1.378 . S
C219 H231 0.950 . S
C219 C250 1.383 . S
H220 C239 0.947 . S
H221 C240 0.946 . S
H222 C242 0.953 . S
H223 C243 0.945 . S
H224 C245 0.952 . S
H225 C246 0.949 . S
H226 C248 0.950 . S
H227 C249 0.948 . S
H228 C251 0.951 . S
H229 C216 0.947 . S
H230 C218 0.952 . S
H231 C219 0.950 . S
N232 C235 1.382 . S
N232 C237 1.363 . S
N233 C235 1.371 . S
N233 C236 1.372 . S
N234 C236 1.361 . S
N234 C237 1.377 . S
C235 N232 1.382 . S
C235 N233 1.371 . S
C235 C238 1.480 . S
C236 N233 1.372 . S
C236 N234 1.361 . S
C236 C244 1.457 . S
C237 N232 1.363 . S
C237 N234 1.377 . S
C237 C250 1.479 . S
C238 C235 1.480 . S
C238 C239 1.383 . S
C238 C243 1.385 . S
C239 H220 0.947 . S
C239 C238 1.383 . S
C239 C240 1.388 . S
C240 H221 0.946 . S
C240 C239 1.388 . S
C240 C241 1.384 . S
C241 C240 1.384 . S
C241 C242 1.377 . S
C242 H222 0.953 . S
C242 C241 1.377 . S
C242 C243 1.369 . S
C243 H223 0.945 . S
C243 C238 1.385 . S
C243 C242 1.369 . S
C244 C236 1.457 . S
C244 C245 1.372 . S
C244 C249 1.364 . S
C245 H224 0.952 . S
C245 C244 1.372 . S
C245 C246 1.389 . S
C246 H225 0.949 . S
C246 C245 1.389 . S
C246 C247 1.387 . S
C247 C246 1.387 . S
C247 C248 1.372 . S
C248 H226 0.950 . S
C248 C247 1.372 . S
C248 C249 1.379 . S
C249 H227 0.948 . S
C249 C244 1.364 . S
C249 C248 1.379 . S
C250 C219 1.383 . S
C250 C237 1.479 . S
C250 C251 1.398 . S
C251 C216 1.382 . S
C251 H228 0.951 . S
C251 C250 1.398 . S
C252 C253 1.384 . S
C252 H265 0.947 . S
C252 C287 1.382 . S
C253 C252 1.384 . S
C253 C254 1.378 . S
C254 C253 1.378 . S
C254 C255 1.378 . S
C254 H266 0.952 . S
C255 C254 1.378 . S
C255 H267 0.950 . S
C255 C286 1.383 . S
H256 C275 0.947 . S
H257 C276 0.946 . S
H258 C278 0.953 . S
H259 C279 0.945 . S
H260 C281 0.952 . S
H261 C282 0.949 . S
H262 C284 0.950 . S
H263 C285 0.948 . S
H264 C287 0.951 . S
H265 C252 0.947 . S
H266 C254 0.952 . S
H267 C255 0.950 . S
N268 C271 1.382 . S
N268 C273 1.363 . S
N269 C271 1.371 . S
N269 C272 1.372 . S
N270 C272 1.361 . S
N270 C273 1.377 . S
C271 N268 1.382 . S
C271 N269 1.371 . S
C271 C274 1.480 . S
C272 N269 1.372 . S
C272 N270 1.361 . S
C272 C280 1.457 . S
C273 N268 1.363 . S
C273 N270 1.377 . S
C273 C286 1.479 . S
C274 C271 1.480 . S
C274 C275 1.383 . S
C274 C279 1.385 . S
C275 H256 0.947 . S
C275 C274 1.383 . S
C275 C276 1.388 . S
C276 H257 0.946 . S
C276 C275 1.388 . S
C276 C277 1.384 . S
C277 C276 1.384 . S
C277 C278 1.377 . S
C278 H258 0.953 . S
C278 C277 1.377 . S
C278 C279 1.369 . S
C279 H259 0.945 . S
C279 C274 1.385 . S
C279 C278 1.369 . S
C280 C272 1.457 . S
C280 C281 1.372 . S
C280 C285 1.364 . S
C281 H260 0.952 . S
C281 C280 1.372 . S
C281 C282 1.389 . S
C282 H261 0.949 . S
C282 C281 1.389 . S
C282 C283 1.387 . S
C283 C282 1.387 . S
C283 C284 1.372 . S
C284 H262 0.950 . S
C284 C283 1.372 . S
C284 C285 1.379 . S
C285 H263 0.948 . S
C285 C280 1.364 . S
C285 C284 1.379 . S
C286 C255 1.383 . S
C286 C273 1.479 . S
C286 C287 1.398 . S
C287 C252 1.382 . S
C287 H264 0.951 . S
C287 C286 1.398 . S
C288 C290 1.422 . S
C288 C292 1.415 . S
C288 N294 1.369 . S
C289 C290 1.421 . S
C289 C291 1.417 . S
C289 C301 1.422 . S
C290 C288 1.422 . S
C290 C289 1.421 . S
C290 N300 1.359 . S
C291 C289 1.417 . S
C291 C293 1.329 . S
C291 H310 0.930 . S
C292 C288 1.415 . S
C292 C293 1.437 . S
C292 C296 1.413 . S
C293 C291 1.329 . S
C293 C292 1.437 . S
C293 H315 0.929 . S
N294 C288 1.369 . S
N294 C295 1.338 . S
N294 Gd299 2.622 . S
C295 N294 1.338 . S
C295 C297 1.378 . S
C295 H307 0.929 . S
C296 C292 1.413 . S
C296 C297 1.348 . S
C296 H312 0.931 . S
C297 C295 1.378 . S
C297 C296 1.348 . S
C297 H313 0.930 . S
Gd298 N318 2.622 . S
Gd298 N325 2.570 . S
Gd298 O332 2.353 . S
Gd298 O333 2.468 . S
Gd298 O334 2.427 . S
Gd298 O336 2.388 . S
Gd298 O337 2.386 . S
Gd298 O341 2.309 . S
Gd298 C351 2.805 . S
Gd299 N294 2.622 . S
Gd299 N300 2.570 . S
Gd299 O331 2.386 . S
Gd299 O335 2.307 1_655 S
Gd299 O338 2.344 1_655 S
Gd299 O339 2.468 . S
Gd299 O340 2.427 . S
Gd299 O342 2.388 . S
Gd299 C363 2.805 . S
N300 C290 1.359 . S
N300 Gd299 2.570 . S
N300 C302 1.343 . S
C301 C289 1.422 . S
C301 C303 1.321 . S
C301 H309 0.931 . S
C302 N300 1.343 . S
C302 C303 1.390 . S
C302 H304 0.931 . S
C303 C301 1.321 . S
C303 C302 1.390 . S
C303 H305 0.930 . S
H304 C302 0.931 . S
H305 C303 0.930 . S
H306 C329 0.931 . S
H307 C295 0.929 . S
H308 C330 0.930 . S
H309 C301 0.931 . S
H310 C291 0.930 . S
H311 C320 0.929 . S
H312 C296 0.931 . S
H313 C297 0.930 . S
H314 C352 0.930 . S
H315 C293 0.929 . S
H316 C321 0.931 . S
H317 C322 0.930 . S
N318 Gd298 2.622 . S
N318 C319 1.369 . S
N318 C320 1.338 . S
C319 N318 1.369 . S
C319 C323 1.415 . S
C319 C326 1.422 . S
C320 H311 0.929 . S
C320 N318 1.338 . S
C320 C322 1.378 . S
C321 H316 0.931 . S
C321 C322 1.348 . S
C321 C323 1.413 . S
C322 H317 0.930 . S
C322 C320 1.378 . S
C322 C321 1.348 . S
C323 C319 1.415 . S
C323 C321 1.413 . S
C323 C353 1.437 . S
H324 C353 0.929 . S
N325 Gd298 2.570 . S
N325 C326 1.359 . S
N325 C329 1.343 . S
C326 C319 1.422 . S
C326 N325 1.359 . S
C326 C328 1.421 . S
C327 C328 1.422 . S
C327 C330 1.321 . S
C327 H354 0.931 . S
C328 C326 1.421 . S
C328 C327 1.422 . S
C328 C352 1.417 . S
C329 H306 0.931 . S
C329 N325 1.343 . S
C329 C330 1.390 . S
C330 H308 0.930 . S
C330 C327 1.321 . S
C330 C329 1.390 . S
O331 Gd299 2.386 . S
O331 C343 1.265 . S
O332 Gd298 2.353 . S
O332 C343 1.242 1_455 S
O333 Gd298 2.468 . S
O333 C351 1.263 . S
O334 Gd298 2.427 . S
O334 C351 1.252 . S
O335 Gd299 2.307 1_455 S
O335 C344 1.261 . S
O336 Gd298 2.388 . S
O336 C344 1.252 . S
O337 Gd298 2.386 . S
O337 C355 1.265 . S
O338 Gd299 2.344 1_455 S
O338 C355 1.253 . S
O339 Gd299 2.468 . S
O339 C363 1.263 . S
O340 Gd299 2.427 . S
O340 C363 1.252 . S
O341 Gd298 2.309 . S
O341 C356 1.259 1_455 S
O342 Gd299 2.388 . S
O342 C356 1.252 . S
C343 O331 1.265 . S
C343 O332 1.242 1_655 S
C344 O335 1.261 . S
C344 O336 1.252 . S
C345 C348 1.394 . S
C345 C350 1.370 . S
C345 C351 1.500 . S
C346 C349 1.383 . S
C346 C350 1.395 . S
C347 C348 1.396 . S
C347 C349 1.365 . S
C347 H364 0.929 . S
C348 C345 1.394 . S
C348 C347 1.396 . S
C348 H365 0.930 . S
C349 C346 1.383 . S
C349 C347 1.365 . S
C349 H366 0.931 . S
C350 C345 1.370 . S
C350 C346 1.395 . S
C350 H367 0.930 . S
C351 Gd298 2.805 . S
C351 O333 1.263 . S
C351 O334 1.252 . S
C351 C345 1.500 . S
C352 H314 0.930 . S
C352 C328 1.417 . S
C352 C353 1.329 . S
C353 C323 1.437 . S
C353 H324 0.929 . S
C353 C352 1.329 . S
H354 C327 0.931 . S
C355 O337 1.265 . S
C355 O338 1.253 . S
C356 O341 1.259 1_655 S
C356 O342 1.252 . S
C357 C360 1.394 . S
C357 C362 1.370 . S
C357 C363 1.500 . S
C358 C361 1.383 . S
C358 C362 1.395 . S
C359 C360 1.396 . S
C359 C361 1.365 . S
C359 H368 0.929 . S
C360 C357 1.394 . S
C360 C359 1.396 . S
C360 H369 0.930 . S
C361 C358 1.383 . S
C361 C359 1.365 . S
C361 H370 0.931 . S
C362 C357 1.370 . S
C362 C358 1.395 . S
C362 H371 0.930 . S
C363 Gd299 2.805 . S
C363 O339 1.263 . S
C363 O340 1.252 . S
C363 C357 1.500 . S
H364 C347 0.929 . S
H365 C348 0.930 . S
H366 C349 0.931 . S
H367 C350 0.930 . S
H368 C359 0.929 . S
H369 C360 0.930 . S
H370 C361 0.931 . S
H371 C362 0.930 . S
C372 C374 1.422 . S
C372 C376 1.415 . S
C372 N378 1.369 . S
C373 C374 1.421 . S
C373 C375 1.417 . S
C373 C385 1.422 . S
C374 C372 1.422 . S
C374 C373 1.421 . S
C374 N384 1.359 . S
C375 C373 1.417 . S
C375 C377 1.329 . S
C375 H394 0.930 . S
C376 C372 1.415 . S
C376 C377 1.437 . S
C376 C380 1.413 . S
C377 C375 1.329 . S
C377 C376 1.437 . S
C377 H399 0.929 . S
N378 C372 1.369 . S
N378 C379 1.338 . S
N378 Gd383 2.622 . S
C379 N378 1.338 . S
C379 C381 1.378 . S
C379 H391 0.929 . S
C380 C376 1.413 . S
C380 C381 1.348 . S
C380 H396 0.931 . S
C381 C379 1.378 . S
C381 C380 1.348 . S
C381 H397 0.930 . S
Gd382 N402 2.622 . S
Gd382 N409 2.570 . S
Gd382 O416 2.353 . S
Gd382 O417 2.468 . S
Gd382 O418 2.427 . S
Gd382 O420 2.388 . S
Gd382 O421 2.386 . S
Gd382 O425 2.307 . S
Gd382 C435 2.805 . S
Gd383 N378 2.622 . S
Gd383 N384 2.570 . S
Gd383 O415 2.386 . S
Gd383 O419 2.307 . S
Gd383 O422 2.353 . S
Gd383 O423 2.468 . S
Gd383 O424 2.427 . S
Gd383 O426 2.388 . S
Gd383 C447 2.805 . S
N384 C374 1.359 . S
N384 Gd383 2.570 . S
N384 C386 1.343 . S
C385 C373 1.422 . S
C385 C387 1.321 . S
C385 H393 0.931 . S
C386 N384 1.343 . S
C386 C387 1.390 . S
C386 H388 0.931 . S
C387 C385 1.321 . S
C387 C386 1.390 . S
C387 H389 0.930 . S
H388 C386 0.931 . S
H389 C387 0.930 . S
H390 C413 0.931 . S
H391 C379 0.929 . S
H392 C414 0.930 . S
H393 C385 0.931 . S
H394 C375 0.930 . S
H395 C404 0.929 . S
H396 C380 0.931 . S
H397 C381 0.930 . S
H398 C436 0.930 . S
H399 C377 0.929 . S
H400 C405 0.931 . S
H401 C406 0.930 . S
N402 Gd382 2.622 . S
N402 C403 1.369 . S
N402 C404 1.338 . S
C403 N402 1.369 . S
C403 C407 1.415 . S
C403 C410 1.422 . S
C404 H395 0.929 . S
C404 N402 1.338 . S
C404 C406 1.378 . S
C405 H400 0.931 . S
C405 C406 1.348 . S
C405 C407 1.413 . S
C406 H401 0.930 . S
C406 C404 1.378 . S
C406 C405 1.348 . S
C407 C403 1.415 . S
C407 C405 1.413 . S
C407 C437 1.437 . S
H408 C437 0.929 . S
N409 Gd382 2.570 . S
N409 C410 1.359 . S
N409 C413 1.343 . S
C410 C403 1.422 . S
C410 N409 1.359 . S
C410 C412 1.421 . S
C411 C412 1.422 . S
C411 C414 1.321 . S
C411 H438 0.931 . S
C412 C410 1.421 . S
C412 C411 1.422 . S
C412 C436 1.417 . S
C413 H390 0.931 . S
C413 N409 1.343 . S
C413 C414 1.390 . S
C414 H392 0.930 . S
C414 C411 1.321 . S
C414 C413 1.390 . S
O415 Gd383 2.386 . S
O415 C427 1.265 . S
O416 Gd382 2.353 . S
O416 C427 1.242 . S
O417 Gd382 2.468 . S
O417 C435 1.263 . S
O418 Gd382 2.427 . S
O418 C435 1.252 . S
O419 Gd383 2.307 . S
O419 C428 1.261 . S
O420 Gd382 2.388 . S
O420 C428 1.252 . S
O421 Gd382 2.386 . S
O421 C439 1.265 . S
O422 Gd383 2.353 . S
O422 C439 1.242 . S
O423 Gd383 2.468 . S
O423 C447 1.263 . S
O424 Gd383 2.427 . S
O424 C447 1.252 . S
O425 Gd382 2.307 . S
O425 C440 1.261 . S
O426 Gd383 2.388 . S
O426 C440 1.252 . S
C427 O415 1.265 . S
C427 O416 1.242 . S
C428 O419 1.261 . S
C428 O420 1.252 . S
C429 C432 1.394 . S
C429 C434 1.370 . S
C429 C435 1.500 . S
C430 C433 1.383 . S
C430 C434 1.395 . S
C431 C432 1.396 . S
C431 C433 1.365 . S
C431 H448 0.929 . S
C432 C429 1.394 . S
C432 C431 1.396 . S
C432 H449 0.930 . S
C433 C430 1.383 . S
C433 C431 1.365 . S
C433 H450 0.931 . S
C434 C429 1.370 . S
C434 C430 1.395 . S
C434 H451 0.930 . S
C435 Gd382 2.805 . S
C435 O417 1.263 . S
C435 O418 1.252 . S
C435 C429 1.500 . S
C436 H398 0.930 . S
C436 C412 1.417 . S
C436 C437 1.329 . S
C437 C407 1.437 . S
C437 H408 0.929 . S
C437 C436 1.329 . S
H438 C411 0.931 . S
C439 O421 1.265 . S
C439 O422 1.242 . S
C440 O425 1.261 . S
C440 O426 1.252 . S
C441 C444 1.394 . S
C441 C446 1.370 . S
C441 C447 1.500 . S
C442 C445 1.383 . S
C442 C446 1.395 . S
C443 C444 1.396 . S
C443 C445 1.365 . S
C443 H452 0.929 . S
C444 C441 1.394 . S
C444 C443 1.396 . S
C444 H453 0.930 . S
C445 C442 1.383 . S
C445 C443 1.365 . S
C445 H454 0.931 . S
C446 C441 1.370 . S
C446 C442 1.395 . S
C446 H455 0.930 . S
C447 Gd383 2.805 . S
C447 O423 1.263 . S
C447 O424 1.252 . S
C447 C441 1.500 . S
H448 C431 0.929 . S
H449 C432 0.930 . S
H450 C433 0.931 . S
H451 C434 0.930 . S
H452 C443 0.929 . S
H453 C444 0.930 . S
H454 C445 0.931 . S
H455 C446 0.930 . S
C456 C458 1.422 . S
C456 C460 1.415 . S
C456 N462 1.369 . S
C457 C458 1.421 . S
C457 C459 1.417 . S
C457 C469 1.422 . S
C458 C456 1.422 . S
C458 C457 1.421 . S
C458 N468 1.359 . S
C459 C457 1.417 . S
C459 C461 1.329 . S
C459 H478 0.930 . S
C460 C456 1.415 . S
C460 C461 1.437 . S
C460 C464 1.413 . S
C461 C459 1.329 . S
C461 C460 1.437 . S
C461 H483 0.929 . S
N462 C456 1.369 . S
N462 C463 1.338 . S
N462 Gd467 2.622 . S
C463 N462 1.338 . S
C463 C465 1.378 . S
C463 H475 0.929 . S
C464 C460 1.413 . S
C464 C465 1.348 . S
C464 H480 0.931 . S
C465 C463 1.378 . S
C465 C464 1.348 . S
C465 H481 0.930 . S
Gd466 N486 2.622 . S
Gd466 N493 2.570 . S
Gd466 O500 2.353 . S
Gd466 O501 2.468 . S
Gd466 O502 2.427 . S
Gd466 O504 2.388 . S
Gd466 O505 2.386 . S
Gd466 O509 2.307 . S
Gd466 C519 2.805 . S
Gd467 N462 2.622 . S
Gd467 N468 2.570 . S
Gd467 O499 2.386 . S
Gd467 O503 2.307 1_655 S
Gd467 O506 2.353 1_655 S
Gd467 O507 2.468 . S
Gd467 O508 2.427 . S
Gd467 O510 2.388 . S
Gd467 C531 2.805 . S
N468 C458 1.359 . S
N468 Gd467 2.570 . S
N468 C470 1.343 . S
C469 C457 1.422 . S
C469 C471 1.321 . S
C469 H477 0.931 . S
C470 N468 1.343 . S
C470 C471 1.390 . S
C470 H472 0.931 . S
C471 C469 1.321 . S
C471 C470 1.390 . S
C471 H473 0.930 . S
H472 C470 0.931 . S
H473 C471 0.930 . S
H474 C497 0.931 . S
H475 C463 0.929 . S
H476 C498 0.930 . S
H477 C469 0.931 . S
H478 C459 0.930 . S
H479 C488 0.929 . S
H480 C464 0.931 . S
H481 C465 0.930 . S
H482 C520 0.930 . S
H483 C461 0.929 . S
H484 C489 0.931 . S
H485 C490 0.930 . S
N486 Gd466 2.622 . S
N486 C487 1.369 . S
N486 C488 1.338 . S
C487 N486 1.369 . S
C487 C491 1.415 . S
C487 C494 1.422 . S
C488 H479 0.929 . S
C488 N486 1.338 . S
C488 C490 1.378 . S
C489 H484 0.931 . S
C489 C490 1.348 . S
C489 C491 1.413 . S
C490 H485 0.930 . S
C490 C488 1.378 . S
C490 C489 1.348 . S
C491 C487 1.415 . S
C491 C489 1.413 . S
C491 C521 1.437 . S
H492 C521 0.929 . S
N493 Gd466 2.570 . S
N493 C494 1.359 . S
N493 C497 1.343 . S
C494 C487 1.422 . S
C494 N493 1.359 . S
C494 C496 1.421 . S
C495 C496 1.422 . S
C495 C498 1.321 . S
C495 H522 0.931 . S
C496 C494 1.421 . S
C496 C495 1.422 . S
C496 C520 1.417 . S
C497 H474 0.931 . S
C497 N493 1.343 . S
C497 C498 1.390 . S
C498 H476 0.930 . S
C498 C495 1.321 . S
C498 C497 1.390 . S
O499 Gd467 2.386 . S
O499 C511 1.265 . S
O500 Gd466 2.353 . S
O500 C511 1.242 1_455 S
O501 Gd466 2.468 . S
O501 C519 1.263 . S
O502 Gd466 2.427 . S
O502 C519 1.252 . S
O503 Gd467 2.307 1_455 S
O503 C512 1.261 . S
O504 Gd466 2.388 . S
O504 C512 1.252 . S
O505 Gd466 2.386 . S
O505 C523 1.265 . S
O506 Gd467 2.353 1_455 S
O506 C523 1.242 . S
O507 Gd467 2.468 . S
O507 C531 1.263 . S
O508 Gd467 2.427 . S
O508 C531 1.252 . S
O509 Gd466 2.307 . S
O509 C524 1.261 1_455 S
O510 Gd467 2.388 . S
O510 C524 1.252 . S
C511 O499 1.265 . S
C511 O500 1.242 1_655 S
C512 O503 1.261 . S
C512 O504 1.252 . S
C513 C516 1.394 . S
C513 C518 1.370 . S
C513 C519 1.500 . S
C514 C517 1.383 . S
C514 C518 1.395 . S
C515 C516 1.396 . S
C515 C517 1.365 . S
C515 H532 0.929 . S
C516 C513 1.394 . S
C516 C515 1.396 . S
C516 H533 0.930 . S
C517 C514 1.383 . S
C517 C515 1.365 . S
C517 H534 0.931 . S
C518 C513 1.370 . S
C518 C514 1.395 . S
C518 H535 0.930 . S
C519 Gd466 2.805 . S
C519 O501 1.263 . S
C519 O502 1.252 . S
C519 C513 1.500 . S
C520 H482 0.930 . S
C520 C496 1.417 . S
C520 C521 1.329 . S
C521 C491 1.437 . S
C521 H492 0.929 . S
C521 C520 1.329 . S
H522 C495 0.931 . S
C523 O505 1.265 . S
C523 O506 1.242 . S
C524 O509 1.261 1_655 S
C524 O510 1.252 . S
C525 C528 1.394 . S
C525 C530 1.370 . S
C525 C531 1.500 . S
C526 C529 1.383 . S
C526 C530 1.395 . S
C527 C528 1.396 . S
C527 C529 1.365 . S
C527 H536 0.929 . S
C528 C525 1.394 . S
C528 C527 1.396 . S
C528 H537 0.930 . S
C529 C526 1.383 . S
C529 C527 1.365 . S
C529 H538 0.931 . S
C530 C525 1.370 . S
C530 C526 1.395 . S
C530 H539 0.930 . S
C531 Gd467 2.805 . S
C531 O507 1.263 . S
C531 O508 1.252 . S
C531 C525 1.500 . S
H532 C515 0.929 . S
H533 C516 0.930 . S
H534 C517 0.931 . S
H535 C518 0.930 . S
H536 C527 0.929 . S
H537 C528 0.930 . S
H538 C529 0.931 . S
H539 C530 0.930 . S
C540 C542 1.422 . S
C540 C544 1.415 . S
C540 N546 1.369 . S
C541 C542 1.421 . S
C541 C543 1.417 . S
C541 C553 1.422 . S
C542 C540 1.422 . S
C542 C541 1.421 . S
C542 N552 1.359 . S
C543 C541 1.417 . S
C543 C545 1.329 . S
C543 H562 0.930 . S
C544 C540 1.415 . S
C544 C545 1.437 . S
C544 C548 1.413 . S
C545 C543 1.329 . S
C545 C544 1.437 . S
C545 H567 0.929 . S
N546 C540 1.369 . S
N546 C547 1.338 . S
N546 Gd551 2.622 . S
C547 N546 1.338 . S
C547 C549 1.378 . S
C547 H559 0.929 . S
C548 C544 1.413 . S
C548 C549 1.348 . S
C548 H564 0.931 . S
C549 C547 1.378 . S
C549 C548 1.348 . S
C549 H565 0.930 . S
Gd550 N570 2.622 . S
Gd550 N577 2.570 . S
Gd550 O584 2.353 . S
Gd550 O585 2.468 . S
Gd550 O586 2.427 . S
Gd550 O588 2.388 . S
Gd550 O589 2.386 . S
Gd550 O593 2.307 . S
Gd550 C603 2.805 . S
Gd551 N546 2.622 . S
Gd551 N552 2.570 . S
Gd551 O583 2.386 . S
Gd551 O587 2.307 . S
Gd551 O590 2.353 . S
Gd551 O591 2.468 . S
Gd551 O592 2.427 . S
Gd551 O594 2.388 . S
Gd551 C615 2.805 . S
N552 C542 1.359 . S
N552 Gd551 2.570 . S
N552 C554 1.343 . S
C553 C541 1.422 . S
C553 C555 1.321 . S
C553 H561 0.931 . S
C554 N552 1.343 . S
C554 C555 1.390 . S
C554 H556 0.931 . S
C555 C553 1.321 . S
C555 C554 1.390 . S
C555 H557 0.930 . S
H556 C554 0.931 . S
H557 C555 0.930 . S
H558 C581 0.931 . S
H559 C547 0.929 . S
H560 C582 0.930 . S
H561 C553 0.931 . S
H562 C543 0.930 . S
H563 C572 0.929 . S
H564 C548 0.931 . S
H565 C549 0.930 . S
H566 C604 0.930 . S
H567 C545 0.929 . S
H568 C573 0.931 . S
H569 C574 0.930 . S
N570 Gd550 2.622 . S
N570 C571 1.369 . S
N570 C572 1.338 . S
C571 N570 1.369 . S
C571 C575 1.415 . S
C571 C578 1.422 . S
C572 H563 0.929 . S
C572 N570 1.338 . S
C572 C574 1.378 . S
C573 H568 0.931 . S
C573 C574 1.348 . S
C573 C575 1.413 . S
C574 H569 0.930 . S
C574 C572 1.378 . S
C574 C573 1.348 . S
C575 C571 1.415 . S
C575 C573 1.413 . S
C575 C605 1.437 . S
H576 C605 0.929 . S
N577 Gd550 2.570 . S
N577 C578 1.359 . S
N577 C581 1.343 . S
C578 C571 1.422 . S
C578 N577 1.359 . S
C578 C580 1.421 . S
C579 C580 1.422 . S
C579 C582 1.321 . S
C579 H606 0.931 . S
C580 C578 1.421 . S
C580 C579 1.422 . S
C580 C604 1.417 . S
C581 H558 0.931 . S
C581 N577 1.343 . S
C581 C582 1.390 . S
C582 H560 0.930 . S
C582 C579 1.321 . S
C582 C581 1.390 . S
O583 Gd551 2.386 . S
O583 C595 1.265 . S
O584 Gd550 2.353 . S
O584 C595 1.242 . S
O585 Gd550 2.468 . S
O585 C603 1.263 . S
O586 Gd550 2.427 . S
O586 C603 1.252 . S
O587 Gd551 2.307 . S
O587 C596 1.261 . S
O588 Gd550 2.388 . S
O588 C596 1.252 . S
O589 Gd550 2.386 . S
O589 C607 1.265 . S
O590 Gd551 2.353 . S
O590 C607 1.242 . S
O591 Gd551 2.468 . S
O591 C615 1.263 . S
O592 Gd551 2.427 . S
O592 C615 1.252 . S
O593 Gd550 2.307 . S
O593 C608 1.261 . S
O594 Gd551 2.388 . S
O594 C608 1.252 . S
C595 O583 1.265 . S
C595 O584 1.242 . S
C596 O587 1.261 . S
C596 O588 1.252 . S
C597 C600 1.394 . S
C597 C602 1.370 . S
C597 C603 1.500 . S
C598 C601 1.383 . S
C598 C602 1.395 . S
C599 C600 1.396 . S
C599 C601 1.365 . S
C599 H616 0.929 . S
C600 C597 1.394 . S
C600 C599 1.396 . S
C600 H617 0.930 . S
C601 C598 1.383 . S
C601 C599 1.365 . S
C601 H618 0.931 . S
C602 C597 1.370 . S
C602 C598 1.395 . S
C602 H619 0.930 . S
C603 Gd550 2.805 . S
C603 O585 1.263 . S
C603 O586 1.252 . S
C603 C597 1.500 . S
C604 H566 0.930 . S
C604 C580 1.417 . S
C604 C605 1.329 . S
C605 C575 1.437 . S
C605 H576 0.929 . S
C605 C604 1.329 . S
H606 C579 0.931 . S
C607 O589 1.265 . S
C607 O590 1.242 . S
C608 O593 1.261 . S
C608 O594 1.252 . S
C609 C612 1.394 . S
C609 C614 1.370 . S
C609 C615 1.500 . S
C610 C613 1.383 . S
C610 C614 1.395 . S
C611 C612 1.396 . S
C611 C613 1.365 . S
C611 H620 0.929 . S
C612 C609 1.394 . S
C612 C611 1.396 . S
C612 H621 0.930 . S
C613 C610 1.383 . S
C613 C611 1.365 . S
C613 H622 0.931 . S
C614 C609 1.370 . S
C614 C610 1.395 . S
C614 H623 0.930 . S
C615 Gd551 2.805 . S
C615 O591 1.263 . S
C615 O592 1.252 . S
C615 C609 1.500 . S
H616 C599 0.929 . S
H617 C600 0.930 . S
H618 C601 0.931 . S
H619 C602 0.930 . S
H620 C611 0.929 . S
H621 C612 0.930 . S
H622 C613 0.931 . S
H623 C614 0.930 . S
H624 C630 0.930 . S
H625 C634 0.930 . S
H626 C639 0.929 . S
H627 C637 0.929 . S
H628 C632 0.929 . S
H629 C638 0.929 . S
C630 H624 0.930 . S
C630 C631 1.367 1_545 S
C630 C638 1.378 . S
C631 C630 1.367 1_565 S
C631 C639 1.433 . S
C632 H628 0.929 . S
C632 C634 1.378 . S
C632 C636 1.350 . S
C633 C636 1.463 . S
C633 C638 1.350 . S
C633 N641 1.427 . S
C634 H625 0.930 . S
C634 C632 1.378 . S
C634 C635 1.367 . S
C635 C634 1.367 . S
C635 C637 1.433 . S
C636 C632 1.350 . S
C636 C633 1.463 . S
C636 N640 1.427 . S
C637 H627 0.929 . S
C637 C635 1.433 . S
C637 N640 1.384 . S
C638 H629 0.929 . S
C638 C630 1.378 . S
C638 C633 1.350 . S
C639 H626 0.929 . S
C639 C631 1.433 . S
C639 N641 1.384 1_565 S
N640 C636 1.427 . S
N640 C637 1.384 . S
N641 C633 1.427 . S
N641 C639 1.384 1_545 S
H642 C648 0.930 . S
H643 C652 0.930 . S
H644 C657 0.929 . S
H645 C655 0.929 . S
H646 C650 0.929 . S
H647 C656 0.929 . S
C648 H642 0.930 . S
C648 C649 1.367 . S
C648 C656 1.378 . S
C649 C648 1.367 . S
C649 C657 1.433 . S
C650 H646 0.929 . S
C650 C652 1.378 . S
C650 C654 1.350 . S
C651 C654 1.463 . S
C651 C656 1.350 . S
C651 N659 1.427 . S
C652 H643 0.930 . S
C652 C650 1.378 . S
C652 C653 1.367 . S
C653 C652 1.367 . S
C653 C655 1.433 . S
C654 C650 1.350 . S
C654 C651 1.463 . S
C654 N658 1.427 . S
C655 H645 0.929 . S
C655 C653 1.433 . S
C655 N658 1.384 . S
C656 H647 0.929 . S
C656 C648 1.378 . S
C656 C651 1.350 . S
C657 H644 0.929 . S
C657 C649 1.433 . S
C657 N659 1.384 . S
N658 C654 1.427 . S
N658 C655 1.384 . S
N659 C651 1.427 . S
N659 C657 1.384 . S
H660 C666 0.930 . S
H661 C670 0.930 . S
H662 C675 0.929 . S
H663 C673 0.929 . S
H664 C668 0.929 . S
H665 C674 0.929 . S
C666 H660 0.930 . S
C666 C667 1.367 . S
C666 C674 1.378 . S
C667 C666 1.367 . S
C667 C675 1.433 . S
C668 H664 0.929 . S
C668 C670 1.378 . S
C668 C672 1.350 . S
C669 C672 1.463 . S
C669 C674 1.350 . S
C669 N677 1.427 . S
C670 H661 0.930 . S
C670 C668 1.378 . S
C670 C671 1.367 . S
C671 C670 1.367 . S
C671 C673 1.433 . S
C672 C668 1.350 . S
C672 C669 1.463 . S
C672 N676 1.427 . S
C673 H663 0.929 . S
C673 C671 1.433 . S
C673 N676 1.384 . S
C674 H665 0.929 . S
C674 C666 1.378 . S
C674 C669 1.350 . S
C675 H662 0.929 . S
C675 C667 1.433 . S
C675 N677 1.384 . S
N676 C672 1.427 . S
N676 C673 1.384 . S
N677 C669 1.427 . S
N677 C675 1.384 . S
H678 C684 0.930 . S
H679 C688 0.930 . S
H680 C693 0.929 . S
H681 C691 0.929 . S
H682 C686 0.929 . S
H683 C692 0.929 . S
C684 H678 0.930 . S
C684 C685 1.367 . S
C684 C692 1.378 1_565 S
C685 C684 1.367 . S
C685 C693 1.433 1_565 S
C686 H682 0.929 . S
C686 C688 1.378 . S
C686 C690 1.350 . S
C687 C690 1.463 . S
C687 C692 1.350 . S
C687 N695 1.427 . S
C688 H679 0.930 . S
C688 C686 1.378 . S
C688 C689 1.367 . S
C689 C688 1.367 . S
C689 C691 1.433 . S
C690 C686 1.350 . S
C690 C687 1.463 . S
C690 N694 1.427 . S
C691 H681 0.929 . S
C691 C689 1.433 . S
C691 N694 1.384 . S
C692 H683 0.929 . S
C692 C684 1.378 1_545 S
C692 C687 1.350 . S
C693 H680 0.929 . S
C693 C685 1.433 1_545 S
C693 N695 1.384 . S
N694 C690 1.427 . S
N694 C691 1.384 . S
N695 C687 1.427 . S
N695 C693 1.384 . S
H696 C702 0.930 . S
H697 C706 0.930 1_455 S
H698 C711 0.929 . S
H699 C709 0.929 . S
H700 C704 0.929 . S
H701 C710 0.929 . S
C702 H696 0.930 . S
C702 C703 1.367 1_565 S
C702 C710 1.378 . S
C703 C702 1.367 1_545 S
C703 C711 1.433 . S
C704 H700 0.929 . S
C704 C706 1.378 . S
C704 C708 1.350 . S
C705 C708 1.463 . S
C705 C710 1.350 . S
C705 N713 1.427 . S
C706 H697 0.930 1_655 S
C706 C704 1.378 . S
C706 C707 1.367 . S
C707 C706 1.367 . S
C707 C709 1.433 . S
C708 C704 1.350 . S
C708 C705 1.463 . S
C708 N712 1.427 . S
C709 H699 0.929 . S
C709 C707 1.433 . S
C709 N712 1.384 . S
C710 H701 0.929 . S
C710 C702 1.378 . S
C710 C705 1.350 . S
C711 H698 0.929 . S
C711 C703 1.433 . S
C711 N713 1.384 1_545 S
N712 C708 1.427 . S
N712 C709 1.384 . S
N713 C705 1.427 . S
N713 C711 1.384 1_565 S
H714 C720 0.930 . S
H715 C724 0.930 . S
H716 C729 0.929 . S
H717 C727 0.929 . S
H718 C722 0.929 . S
H719 C728 0.929 . S
C720 H714 0.930 . S
C720 C721 1.367 . S
C720 C728 1.378 . S
C721 C720 1.367 . S
C721 C729 1.433 . S
C722 H718 0.929 . S
C722 C724 1.378 . S
C722 C726 1.350 . S
C723 C726 1.463 . S
C723 C728 1.350 . S
C723 N731 1.427 . S
C724 H715 0.930 . S
C724 C722 1.378 . S
C724 C725 1.367 . S
C725 C724 1.367 . S
C725 C727 1.433 . S
C726 C722 1.350 . S
C726 C723 1.463 . S
C726 N730 1.427 . S
C727 H717 0.929 . S
C727 C725 1.433 . S
C727 N730 1.384 . S
C728 H719 0.929 . S
C728 C720 1.378 . S
C728 C723 1.350 . S
C729 H716 0.929 . S
C729 C721 1.433 . S
C729 N731 1.384 . S
N730 C726 1.427 . S
N730 C727 1.384 . S
N731 C723 1.427 . S
N731 C729 1.384 . S
H732 C738 0.930 . S
H733 C742 0.930 . S
H734 C747 0.929 . S
H735 C745 0.929 . S
H736 C740 0.929 . S
H737 C746 0.929 . S
C738 H732 0.930 . S
C738 C739 1.367 . S
C738 C746 1.378 . S
C739 C738 1.367 . S
C739 C747 1.433 . S
C740 H736 0.929 . S
C740 C742 1.378 . S
C740 C744 1.350 . S
C741 C744 1.463 . S
C741 C746 1.350 . S
C741 N749 1.427 . S
C742 H733 0.930 . S
C742 C740 1.378 . S
C742 C743 1.367 . S
C743 C742 1.367 . S
C743 C745 1.433 . S
C744 C740 1.350 . S
C744 C741 1.463 . S
C744 N748 1.427 . S
C745 H735 0.929 . S
C745 C743 1.433 . S
C745 N748 1.384 . S
C746 H737 0.929 . S
C746 C738 1.378 . S
C746 C741 1.350 . S
C747 H734 0.929 . S
C747 C739 1.433 . S
C747 N749 1.384 . S
N748 C744 1.427 . S
N748 C745 1.384 . S
N749 C741 1.427 . S
N749 C747 1.384 . S
H750 C756 0.930 . S
H751 C760 0.930 . S
H752 C765 0.929 . S
H753 C763 0.929 . S
H754 C758 0.929 . S
H755 C764 0.929 . S
C756 H750 0.930 . S
C756 C757 1.367 1_565 S
C756 C764 1.378 . S
C757 C756 1.367 1_545 S
C757 C765 1.433 . S
C758 H754 0.929 . S
C758 C760 1.378 . S
C758 C762 1.350 . S
C759 C762 1.463 . S
C759 C764 1.350 . S
C759 N767 1.427 . S
C760 H751 0.930 . S
C760 C758 1.378 . S
C760 C761 1.367 . S
C761 C760 1.367 . S
C761 C763 1.433 . S
C762 C758 1.350 . S
C762 C759 1.463 . S
C762 N766 1.427 . S
C763 H753 0.929 . S
C763 C761 1.433 . S
C763 N766 1.384 . S
C764 H755 0.929 . S
C764 C756 1.378 . S
C764 C759 1.350 . S
C765 H752 0.929 . S
C765 C757 1.433 . S
C765 N767 1.384 1_545 S
N766 C762 1.427 . S
N766 C763 1.384 . S
N767 C759 1.427 . S
N767 C765 1.384 1_565 S
H768 C774 0.930 . S
H769 C778 0.930 . S
H770 C783 0.929 . S
H771 C781 0.929 . S
H772 C776 0.929 . S
H773 C782 0.929 . S
C774 H768 0.930 . S
C774 C775 1.367 . S
C774 C782 1.378 . S
C775 C774 1.367 . S
C775 C783 1.433 . S
C776 H772 0.929 . S
C776 C778 1.378 . S
C776 C780 1.350 . S
C777 C780 1.463 . S
C777 C782 1.350 . S
C777 N785 1.427 . S
C778 H769 0.930 . S
C778 C776 1.378 . S
C778 C779 1.367 . S
C779 C778 1.367 . S
C779 C781 1.433 . S
C780 C776 1.350 . S
C780 C777 1.463 . S
C780 N784 1.427 . S
C781 H771 0.929 . S
C781 C779 1.433 . S
C781 N784 1.384 . S
C782 H773 0.929 . S
C782 C774 1.378 . S
C782 C777 1.350 . S
C783 H770 0.929 . S
C783 C775 1.433 . S
C783 N785 1.384 . S
N784 C780 1.427 . S
N784 C781 1.384 . S
N785 C777 1.427 . S
N785 C783 1.384 . S
H786 C792 0.930 . S
H787 C796 0.930 . S
H788 C801 0.929 . S
H789 C799 0.929 . S
H790 C794 0.929 . S
H791 C800 0.929 . S
C792 H786 0.930 . S
C792 C793 1.367 . S
C792 C800 1.378 . S
C793 C792 1.367 . S
C793 C801 1.433 . S
C794 H790 0.929 . S
C794 C796 1.378 . S
C794 C798 1.350 . S
C795 C798 1.463 . S
C795 C800 1.350 . S
C795 N803 1.427 . S
C796 H787 0.930 . S
C796 C794 1.378 . S
C796 C797 1.367 . S
C797 C796 1.367 . S
C797 C799 1.433 . S
C798 C794 1.350 . S
C798 C795 1.463 . S
C798 N802 1.427 . S
C799 H789 0.929 . S
C799 C797 1.433 . S
C799 N802 1.384 . S
C800 H791 0.929 . S
C800 C792 1.378 . S
C800 C795 1.350 . S
C801 H788 0.929 . S
C801 C793 1.433 . S
C801 N803 1.384 . S
N802 C798 1.427 . S
N802 C799 1.384 . S
N803 C795 1.427 . S
N803 C801 1.384 . S
H804 C810 0.930 . S
H805 C814 0.930 . S
H806 C819 0.929 . S
H807 C817 0.929 . S
H808 C812 0.929 . S
H809 C818 0.929 . S
C810 H804 0.930 . S
C810 C811 1.367 . S
C810 C818 1.378 . S
C811 C810 1.367 . S
C811 C819 1.433 . S
C812 H808 0.929 . S
C812 C814 1.378 . S
C812 C816 1.350 . S
C813 C816 1.463 . S
C813 C818 1.350 . S
C813 N821 1.427 . S
C814 H805 0.930 . S
C814 C812 1.378 . S
C814 C815 1.367 . S
C815 C814 1.367 . S
C815 C817 1.433 . S
C816 C812 1.350 . S
C816 C813 1.463 . S
C816 N820 1.427 . S
C817 H807 0.929 . S
C817 C815 1.433 . S
C817 N820 1.384 . S
C818 H809 0.929 . S
C818 C810 1.378 . S
C818 C813 1.350 . S
C819 H806 0.929 . S
C819 C811 1.433 . S
C819 N821 1.384 . S
N820 C816 1.427 . S
N820 C817 1.384 . S
N821 C813 1.427 . S
N821 C819 1.384 . S
H822 C828 0.930 . S
H823 C832 0.930 . S
H824 C837 0.929 . S
H825 C835 0.929 . S
H826 C830 0.929 . S
H827 C836 0.929 . S
C828 H822 0.930 . S
C828 C829 1.367 . S
C828 C836 1.378 . S
C829 C828 1.367 . S
C829 C837 1.433 . S
C830 H826 0.929 . S
C830 C832 1.378 . S
C830 C834 1.350 . S
C831 C834 1.463 . S
C831 C836 1.350 . S
C831 N839 1.427 . S
C832 H823 0.930 . S
C832 C830 1.378 . S
C832 C833 1.367 . S
C833 C832 1.367 . S
C833 C835 1.433 . S
C834 C830 1.350 . S
C834 C831 1.463 . S
C834 N838 1.427 . S
C835 H825 0.929 . S
C835 C833 1.433 . S
C835 N838 1.384 . S
C836 H827 0.929 . S
C836 C828 1.378 . S
C836 C831 1.350 . S
C837 H824 0.929 . S
C837 C829 1.433 . S
C837 N839 1.384 . S
N838 C834 1.427 . S
N838 C835 1.384 . S
N839 C831 1.427 . S
N839 C837 1.384 . S
H840 C846 0.930 . S
H841 C850 0.930 . S
H842 C855 0.929 . S
H843 C853 0.929 . S
H844 C848 0.929 . S
H845 C854 0.929 . S
C846 H840 0.930 . S
C846 C847 1.367 . S
C846 C854 1.378 . S
C847 C846 1.367 . S
C847 C855 1.433 . S
C848 H844 0.929 . S
C848 C850 1.378 . S
C848 C852 1.350 . S
C849 C852 1.463 . S
C849 C854 1.350 . S
C849 N857 1.427 . S
C850 H841 0.930 . S
C850 C848 1.378 . S
C850 C851 1.367 . S
C851 C850 1.367 . S
C851 C853 1.433 . S
C852 C848 1.350 . S
C852 C849 1.463 . S
C852 N856 1.427 . S
C853 H843 0.929 . S
C853 C851 1.433 . S
C853 N856 1.384 . S
C854 H845 0.929 . S
C854 C846 1.378 . S
C854 C849 1.350 . S
C855 H842 0.929 . S
C855 C847 1.433 . S
C855 N857 1.384 . S
N856 C852 1.427 . S
N856 C853 1.384 . S
N857 C849 1.427 . S
N857 C855 1.384 . S
H858 C864 0.930 . S
H859 C868 0.930 . S
H860 C873 0.929 . S
H861 C871 0.929 . S
H862 C866 0.929 . S
H863 C872 0.929 . S
C864 H858 0.930 . S
C864 C865 1.367 . S
C864 C872 1.378 . S
C865 C864 1.367 . S
C865 C873 1.433 . S
C866 H862 0.929 . S
C866 C868 1.378 . S
C866 C870 1.350 . S
C867 C870 1.463 . S
C867 C872 1.350 . S
C867 N875 1.427 . S
C868 H859 0.930 . S
C868 C866 1.378 . S
C868 C869 1.367 . S
C869 C868 1.367 . S
C869 C871 1.433 . S
C870 C866 1.350 . S
C870 C867 1.463 . S
C870 N874 1.427 . S
C871 H861 0.929 . S
C871 C869 1.433 . S
C871 N874 1.384 . S
C872 H863 0.929 . S
C872 C864 1.378 . S
C872 C867 1.350 . S
C873 H860 0.929 . S
C873 C865 1.433 . S
C873 N875 1.384 . S
N874 C870 1.427 . S
N874 C871 1.384 . S
N875 C867 1.427 . S
N875 C873 1.384 . S
H876 C882 0.930 . S
H877 C886 0.930 . S
H878 C891 0.929 . S
H879 C889 0.929 . S
H880 C884 0.929 . S
H881 C890 0.929 . S
C882 H876 0.930 . S
C882 C883 1.367 . S
C882 C890 1.378 . S
C883 C882 1.367 . S
C883 C891 1.433 . S
C884 H880 0.929 . S
C884 C886 1.378 . S
C884 C888 1.350 . S
C885 C888 1.463 . S
C885 C890 1.350 . S
C885 N893 1.427 . S
C886 H877 0.930 . S
C886 C884 1.378 . S
C886 C887 1.367 . S
C887 C886 1.367 . S
C887 C889 1.433 . S
C888 C884 1.350 . S
C888 C885 1.463 . S
C888 N892 1.427 . S
C889 H879 0.929 . S
C889 C887 1.433 . S
C889 N892 1.384 . S
C890 H881 0.929 . S
C890 C882 1.378 . S
C890 C885 1.350 . S
C891 H878 0.929 . S
C891 C883 1.433 . S
C891 N893 1.384 . S
N892 C888 1.427 . S
N892 C889 1.384 . S
N893 C885 1.427 . S
N893 C891 1.384 . S
H894 C900 0.930 . S
H895 C904 0.930 . S
H896 C909 0.929 . S
H897 C907 0.929 . S
H898 C902 0.929 . S
H899 C908 0.929 . S
C900 H894 0.930 . S
C900 C901 1.367 . S
C900 C908 1.378 . S
C901 C900 1.367 . S
C901 C909 1.433 . S
C902 H898 0.929 . S
C902 C904 1.378 . S
C902 C906 1.350 . S
C903 C906 1.463 . S
C903 C908 1.350 . S
C903 N911 1.427 . S
C904 H895 0.930 . S
C904 C902 1.378 . S
C904 C905 1.367 . S
C905 C904 1.367 . S
C905 C907 1.433 . S
C906 C902 1.350 . S
C906 C903 1.463 . S
C906 N910 1.427 . S
C907 H897 0.929 . S
C907 C905 1.433 . S
C907 N910 1.384 . S
C908 H899 0.929 . S
C908 C900 1.378 . S
C908 C903 1.350 . S
C909 H896 0.929 . S
C909 C901 1.433 . S
C909 N911 1.384 . S
N910 C906 1.427 . S
N910 C907 1.384 . S
N911 C903 1.427 . S
N911 C909 1.384 . S
H912 C918 0.930 . S
H913 C922 0.930 . S
H914 C927 0.929 . S
H915 C925 0.929 . S
H916 C920 0.929 . S
H917 C926 0.929 . S
C918 H912 0.930 . S
C918 C919 1.367 . S
C918 C926 1.378 . S
C919 C918 1.367 . S
C919 C927 1.433 . S
C920 H916 0.929 . S
C920 C922 1.378 . S
C920 C924 1.350 . S
C921 C924 1.463 . S
C921 C926 1.350 . S
C921 N929 1.427 . S
C922 H913 0.930 . S
C922 C920 1.378 . S
C922 C923 1.367 . S
C923 C922 1.367 . S
C923 C925 1.433 . S
C924 C920 1.350 . S
C924 C921 1.463 . S
C924 N928 1.427 . S
C925 H915 0.929 . S
C925 C923 1.433 . S
C925 N928 1.384 . S
C926 H917 0.929 . S
C926 C918 1.378 . S
C926 C921 1.350 . S
C927 H914 0.929 . S
C927 C919 1.433 . S
C927 N929 1.384 . S
N928 C924 1.427 . S
N928 C925 1.384 . S
N929 C921 1.427 . S
N929 C927 1.384 . S
H930 C936 0.930 . S
H931 C940 0.930 . S
H932 C945 0.929 . S
H933 C943 0.929 . S
H934 C938 0.929 . S
H935 C944 0.929 . S
C936 H930 0.930 . S
C936 C937 1.367 . S
C936 C944 1.378 . S
C937 C936 1.367 . S
C937 C945 1.433 . S
C938 H934 0.929 . S
C938 C940 1.378 . S
C938 C942 1.350 . S
C939 C942 1.463 . S
C939 C944 1.350 . S
C939 N947 1.427 . S
C940 H931 0.930 . S
C940 C938 1.378 . S
C940 C941 1.367 . S
C941 C940 1.367 . S
C941 C943 1.433 . S
C942 C938 1.350 . S
C942 C939 1.463 . S
C942 N946 1.427 . S
C943 H933 0.929 . S
C943 C941 1.433 . S
C943 N946 1.384 . S
C944 H935 0.929 . S
C944 C936 1.378 . S
C944 C939 1.350 . S
C945 H932 0.929 . S
C945 C937 1.433 . S
C945 N947 1.384 . S
N946 C942 1.427 . S
N946 C943 1.384 . S
N947 C939 1.427 . S
N947 C945 1.384 . S
H948 C954 0.930 . S
H949 C958 0.930 . S
H950 C963 0.929 . S
H951 C961 0.929 . S
H952 C956 0.929 . S
H953 C962 0.929 . S
C954 H948 0.930 . S
C954 C955 1.367 . S
C954 C962 1.378 . S
C955 C954 1.367 . S
C955 C963 1.433 . S
C956 H952 0.929 . S
C956 C958 1.378 . S
C956 C960 1.350 . S
C957 C960 1.463 . S
C957 C962 1.350 . S
C957 N965 1.427 . S
C958 H949 0.930 . S
C958 C956 1.378 . S
C958 C959 1.367 . S
C959 C958 1.367 . S
C959 C961 1.433 . S
C960 C956 1.350 . S
C960 C957 1.463 . S
C960 N964 1.427 . S
C961 H951 0.929 . S
C961 C959 1.433 . S
C961 N964 1.384 . S
C962 H953 0.929 . S
C962 C954 1.378 . S
C962 C957 1.350 . S
C963 H950 0.929 . S
C963 C955 1.433 . S
C963 N965 1.384 . S
N964 C960 1.427 . S
N964 C961 1.384 . S
N965 C957 1.427 . S
N965 C963 1.384 . S
H966 C972 0.930 . S
H967 C976 0.930 . S
H968 C981 0.929 . S
H969 C979 0.929 . S
H970 C974 0.929 . S
H971 C980 0.929 . S
C972 H966 0.930 . S
C972 C973 1.367 . S
C972 C980 1.378 . S
C973 C972 1.367 . S
C973 C981 1.433 . S
C974 H970 0.929 . S
C974 C976 1.378 . S
C974 C978 1.350 . S
C975 C978 1.463 . S
C975 C980 1.350 . S
C975 N983 1.427 . S
C976 H967 0.930 . S
C976 C974 1.378 . S
C976 C977 1.367 . S
C977 C976 1.367 . S
C977 C979 1.433 . S
C978 C974 1.350 . S
C978 C975 1.463 . S
C978 N982 1.427 . S
C979 H969 0.929 . S
C979 C977 1.433 . S
C979 N982 1.384 . S
C980 H971 0.929 . S
C980 C972 1.378 . S
C980 C975 1.350 . S
C981 H968 0.929 . S
C981 C973 1.433 . S
C981 N983 1.384 . S
N982 C978 1.427 . S
N982 C979 1.384 . S
N983 C975 1.427 . S
N983 C981 1.384 . S
H984 C990 0.930 . S
H985 C994 0.930 . S
H986 C999 0.929 . S
H987 C997 0.929 . S
H988 C992 0.929 . S
H989 C998 0.929 . S
C990 H984 0.930 . S
C990 C991 1.367 . S
C990 C998 1.378 . S
C991 C990 1.367 . S
C991 C999 1.433 . S
C992 H988 0.929 . S
C992 C994 1.378 . S
C992 C996 1.350 . S
C993 C996 1.463 . S
C993 C998 1.350 . S
C993 N1001 1.427 . S
C994 H985 0.930 . S
C994 C992 1.378 . S
C994 C995 1.367 . S
C995 C994 1.367 . S
C995 C997 1.433 . S
C996 C992 1.350 . S
C996 C993 1.463 . S
C996 N1000 1.427 . S
C997 H987 0.929 . S
C997 C995 1.433 . S
C997 N1000 1.384 . S
C998 H989 0.929 . S
C998 C990 1.378 . S
C998 C993 1.350 . S
C999 H986 0.929 . S
C999 C991 1.433 . S
C999 N1001 1.384 . S
N1000 C996 1.427 . S
N1000 C997 1.384 . S
N1001 C993 1.427 . S
N1001 C999 1.384 . S
H1002 C1008 0.930 . S
H1003 C1012 0.930 . S
H1004 C1017 0.929 . S
H1005 C1015 0.929 . S
H1006 C1010 0.929 . S
H1007 C1016 0.929 . S
C1008 H1002 0.930 . S
C1008 C1009 1.367 . S
C1008 C1016 1.378 . S
C1009 C1008 1.367 . S
C1009 C1017 1.433 . S
C1010 H1006 0.929 . S
C1010 C1012 1.378 . S
C1010 C1014 1.350 . S
C1011 C1014 1.463 . S
C1011 C1016 1.350 . S
C1011 N1019 1.427 . S
C1012 H1003 0.930 . S
C1012 C1010 1.378 . S
C1012 C1013 1.367 . S
C1013 C1012 1.367 . S
C1013 C1015 1.433 . S
C1014 C1010 1.350 . S
C1014 C1011 1.463 . S
C1014 N1018 1.427 . S
C1015 H1005 0.929 . S
C1015 C1013 1.433 . S
C1015 N1018 1.384 . S
C1016 H1007 0.929 . S
C1016 C1008 1.378 . S
C1016 C1011 1.350 . S
C1017 H1004 0.929 . S
C1017 C1009 1.433 . S
C1017 N1019 1.384 . S
N1018 C1014 1.427 . S
N1018 C1015 1.384 . S
N1019 C1011 1.427 . S
N1019 C1017 1.384 . S
H1020 C1026 0.930 . S
H1021 C1030 0.930 . S
H1022 C1035 0.929 . S
H1023 C1033 0.929 . S
H1024 C1028 0.929 . S
H1025 C1034 0.929 . S
C1026 H1020 0.930 . S
C1026 C1027 1.367 . S
C1026 C1034 1.378 . S
C1027 C1026 1.367 . S
C1027 C1035 1.433 . S
C1028 H1024 0.929 . S
C1028 C1030 1.378 . S
C1028 C1032 1.350 . S
C1029 C1032 1.463 . S
C1029 C1034 1.350 . S
C1029 N1037 1.427 . S
C1030 H1021 0.930 . S
C1030 C1028 1.378 . S
C1030 C1031 1.367 . S
C1031 C1030 1.367 . S
C1031 C1033 1.433 . S
C1032 C1028 1.350 . S
C1032 C1029 1.463 . S
C1032 N1036 1.427 . S
C1033 H1023 0.929 . S
C1033 C1031 1.433 . S
C1033 N1036 1.384 . S
C1034 H1025 0.929 . S
C1034 C1026 1.378 . S
C1034 C1029 1.350 . S
C1035 H1022 0.929 . S
C1035 C1027 1.433 . S
C1035 N1037 1.384 . S
N1036 C1032 1.427 . S
N1036 C1033 1.384 . S
N1037 C1029 1.427 . S
N1037 C1035 1.384 . S
H1038 C1044 0.930 . S
H1039 C1048 0.930 . S
H1040 C1053 0.929 . S
H1041 C1051 0.929 . S
H1042 C1046 0.929 . S
H1043 C1052 0.929 . S
C1044 H1038 0.930 . S
C1044 C1045 1.367 . S
C1044 C1052 1.378 . S
C1045 C1044 1.367 . S
C1045 C1053 1.433 . S
C1046 H1042 0.929 . S
C1046 C1048 1.378 . S
C1046 C1050 1.350 . S
C1047 C1050 1.463 . S
C1047 C1052 1.350 . S
C1047 N1055 1.427 . S
C1048 H1039 0.930 . S
C1048 C1046 1.378 . S
C1048 C1049 1.367 . S
C1049 C1048 1.367 . S
C1049 C1051 1.433 . S
C1050 C1046 1.350 . S
C1050 C1047 1.463 . S
C1050 N1054 1.427 . S
C1051 H1041 0.929 . S
C1051 C1049 1.433 . S
C1051 N1054 1.384 . S
C1052 H1043 0.929 . S
C1052 C1044 1.378 . S
C1052 C1047 1.350 . S
C1053 H1040 0.929 . S
C1053 C1045 1.433 . S
C1053 N1055 1.384 . S
N1054 C1050 1.427 . S
N1054 C1051 1.384 . S
N1055 C1047 1.427 . S
N1055 C1053 1.384 . S
C631 C247 1.481 . S
C635 C344 1.457 . S
C653 C428 1.458 . S
C649 C283 1.480 . S
C671 C427 1.468 . S
C667 C175 1.474 . S
C685 C211 1.473 . S
C689 C343 1.466 . S
C707 C524 1.463 . S
C703 C103 1.471 . S
C725 C608 1.458 . S
C721 C139 1.466 . S
C739 C31 1.457 . S
C743 C607 1.469 . S
C757 C67 1.457 . S
C761 C523 1.470 . S
C779 C346 1.346 . S
C775 C37 1.511 1_554 S
C797 C430 1.328 . S
C793 C1 1.507 . S
C815 C442 1.399 . S
C811 C109 1.528 1_556 S
C833 C358 1.402 . S
C829 C73 1.528 . S
C851 C526 1.334 . S
C847 C181 1.521 1_556 S
C865 C145 1.521 . S
C869 C610 1.329 . S
C887 C598 1.408 . S
C883 C253 1.542 1_554 S
C901 C217 1.543 . S
C905 C514 1.392 . S
C923 C355 1.580 . S
C919 C25 1.552 . S
C941 C439 1.580 . S
C937 C61 1.551 . S
C955 C97 1.545 . S
C959 C440 1.561 . S
C977 C356 1.561 . S
C973 C133 1.542 . S
C995 C511 1.584 . S
C991 C169 1.579 . S
C1009 C205 1.573 . S
C1013 C595 1.580 . S
C1027 C241 1.559 . S
C1031 C596 1.561 . S
C1045 C277 1.560 . S
C1049 C512 1.560 . S
