# Generated by pormake.
# Topology ftw, (4,12)-cn, num edge types: 1
# Building blocks:
#     Node 0, Type 0, BuildingBlock: AZAVOO_clean_linker_0, # of connection points: 4
#     Node 1, Type 0, BuildingBlock: AZAVOO_clean_linker_0, # of connection points: 4
#     Node 2, Type 0, BuildingBlock: AZAVOO_clean_linker_0, # of connection points: 4
#     Node 3, Type 1, BuildingBlock: QEWDON_clean_sbu_0, # of connection points: 12
#     Edge 4, Type (0, 1), BuildingBlock: XIVTED_clean_linker_0, # of connection points: 2
#     Edge 5, Type (0, 1), BuildingBlock: XIVTED_clean_linker_0, # of connection points: 2
#     Edge 6, Type (0, 1), BuildingBlock: XIVTED_clean_linker_0, # of connection points: 2
#     Edge 7, Type (0, 1), BuildingBlock: XIVTED_clean_linker_0, # of connection points: 2
#     Edge 8, Type (0, 1), BuildingBlock: XIVTED_clean_linker_0, # of connection points: 2
#     Edge 9, Type (0, 1), BuildingBlock: XIVTED_clean_linker_0, # of connection points: 2
#     Edge 10, Type (0, 1), BuildingBlock: XIVTED_clean_linker_0, # of connection points: 2
#     Edge 11, Type (0, 1), BuildingBlock: XIVTED_clean_linker_0, # of connection points: 2
#     Edge 12, Type (0, 1), BuildingBlock: XIVTED_clean_linker_0, # of connection points: 2
#     Edge 13, Type (0, 1), BuildingBlock: XIVTED_clean_linker_0, # of connection points: 2
#     Edge 14, Type (0, 1), BuildingBlock: XIVTED_clean_linker_0, # of connection points: 2
#     Edge 15, Type (0, 1), BuildingBlock: XIVTED_clean_linker_0, # of connection points: 2
# Relax obj value: 0.076
# Max RMSD: 0.223
# Mean RMSD: 0.192
data_MOF--net-ftw--node1-QEWDON_clean_sbu_0--node2-AZAVOO_clean_linker_0--edge1-XIVTED_clean_linker_0
_symmetry_space_group_name_H-M    P1
_symmetry_Int_Tables_number       1
_symmetry_cell_setting            triclinic
loop_
_symmetry_equiv_pos_as_xyz
'x, y, z'
_cell_length_a     27.947612
_cell_length_b     27.890125
_cell_length_c     28.821683
_cell_angle_alpha  91.488251
_cell_angle_beta   88.524298
_cell_angle_gamma 91.610631
loop_
_atom_site_label
_atom_site_type_symbol
_atom_site_fract_x
_atom_site_fract_y
_atom_site_fract_z
_atom_type_partial_charge
H0 H 0.01299 0.1849 0.44267 0.0
H1 H 0.94618 0.59007 0.80643 0.0
H2 H 0.07374 0.43598 0.42337 0.0
H3 H 0.07051 0.38268 0.35503 0.0
H4 H 0.93079 0.43512 0.32511 0.0
H5 H 0.93364 0.48685 0.3949 0.0
H6 H 0.05596 0.3795 0.51327 0.0
H7 H 0.05053 0.29462 0.48968 0.0
H8 H 0.91196 0.31709 0.43171 0.0
H9 H 0.91751 0.40167 0.45624 0.0
H10 H 0.05205 0.43326 0.60805 0.0
H11 H 0.0368 0.3758 0.67013 0.0
H12 H 0.89037 0.35701 0.62695 0.0
H13 H 0.90584 0.41486 0.56551 0.0
H14 H 0.06796 0.5474 0.60807 0.0
H15 H 0.06656 0.57657 0.68888 0.0
H16 H 0.91477 0.54252 0.69899 0.0
H17 H 0.91656 0.51422 0.61787 0.0
H18 H 0.07912 0.60367 0.51744 0.0
H19 H 0.09461 0.67793 0.56225 0.0
H20 H 0.94582 0.67875 0.6071 0.0
H21 H 0.93053 0.60563 0.56087 0.0
H22 H 0.07519 0.55087 0.41479 0.0
H23 H 0.08006 0.61062 0.35395 0.0
H24 H 0.93702 0.655 0.39162 0.0
H25 H 0.93227 0.59457 0.45198 0.0
O26 O 0.01406 0.2184 0.45236 0.0
O27 O 0.94325 0.23203 0.42254 0.0
O28 O 0.02573 0.59594 0.76726 0.0
O29 O 0.94779 0.57854 0.77448 0.0
C30 C -0.00119 0.48273 0.46331 0.0
C31 C 0.99167 0.44868 0.49869 0.0
C32 C 0.98866 0.46391 0.54563 0.0
C33 C -0.00695 0.51314 0.55747 0.0
C34 C -0.00179 0.54754 0.5222 0.0
C35 C 0.00046 0.53239 0.47492 0.0
C36 C 0.00368 0.46486 0.41441 0.0
C37 C 0.04321 0.43724 0.40106 0.0
C38 C 0.04125 0.4067 0.3619 0.0
C39 C -0.00013 0.40368 0.33512 0.0
C40 C 0.96268 0.43562 0.34569 0.0
C41 C 0.9645 0.46584 0.38514 0.0
C42 C 0.98718 0.39667 0.48638 0.0
C43 C 0.02428 0.36587 0.4959 0.0
C44 C 0.02116 0.31747 0.48219 0.0
C45 C 0.98087 0.29909 0.45866 0.0
C46 C 0.9435 0.33007 0.4497 0.0
C47 C 0.94658 0.37838 0.46364 0.0
C48 C 0.98 0.42821 0.58246 0.0
C49 C 0.01675 0.41662 0.61208 0.0
C50 C 0.00804 0.38365 0.64726 0.0
C51 C 0.96233 0.36198 0.6535 0.0
C52 C 0.92576 0.37353 0.62341 0.0
C53 C 0.93457 0.40628 0.58816 0.0
C54 C 0.99236 0.5288 0.60717 0.0
C55 C 0.03447 0.54628 0.62783 0.0
C56 C 0.03356 0.56288 0.67398 0.0
C57 C 0.99051 0.56192 0.70041 0.0
C58 C 0.94849 0.5438 0.67965 0.0
C59 C 0.94943 0.52743 0.63341 0.0
C60 C 0.0038 0.59906 0.53617 0.0
C61 C 0.0495 0.62107 0.53531 0.0
C62 C 0.0584 0.66311 0.56158 0.0
C63 C 0.02172 0.68372 0.58925 0.0
C64 C 0.97493 0.66408 0.58622 0.0
C65 C 0.96604 0.62223 0.55972 0.0
C66 C 0.00344 0.56843 0.43784 0.0
C67 C 0.04487 0.57337 0.40975 0.0
C68 C 0.04764 0.6077 0.3752 0.0
C69 C 0.00893 0.6377 0.36801 0.0
C70 C 0.96724 0.63219 0.39594 0.0
C71 C 0.96461 0.59798 0.43064 0.0
C72 C 0.97806 0.24788 0.44339 0.0
C73 C 0.98928 0.57984 0.74936 0.0
H74 H 0.6166 0.97601 0.21062 0.0
H75 H 0.20259 0.03878 0.60966 0.0
H76 H 0.61063 0.92571 0.47268 0.0
H77 H 0.68293 0.92815 0.42325 0.0
H78 H 0.67391 0.08222 0.41628 0.0
H79 H 0.60139 0.07925 0.46568 0.0
H80 H 0.54777 0.92775 0.39743 0.0
H81 H 0.57857 0.93347 0.31746 0.0
H82 H 0.54526 0.08402 0.31918 0.0
H83 H 0.51504 0.07784 0.39939 0.0
H84 H 0.44222 0.9299 0.40272 0.0
H85 H 0.38565 0.93452 0.33964 0.0
H86 H 0.34888 0.07718 0.38819 0.0
H87 H 0.40717 0.07297 0.44949 0.0
H88 H 0.38702 0.92534 0.50944 0.0
H89 H 0.30322 0.92435 0.53663 0.0
H90 H 0.3184 0.07394 0.57853 0.0
H91 H 0.40179 0.07455 0.55056 0.0
H92 H 0.45181 0.92362 0.59909 0.0
H93 H 0.40224 0.92977 0.67032 0.0
H94 H 0.43387 0.08214 0.67864 0.0
H95 H 0.48322 0.07567 0.6075 0.0
H96 H 0.57987 0.91681 0.55904 0.0
H97 H 0.64224 0.90823 0.61603 0.0
H98 H 0.63764 0.06006 0.6492 0.0
H99 H 0.57519 0.06826 0.59167 0.0
O100 O 0.60329 0.97431 0.24189 0.0
O101 O 0.58416 0.05121 0.24401 0.0
O102 O 0.22879 0.96194 0.57423 0.0
O103 O 0.23529 0.03837 0.59778 0.0
C104 C 0.54986 -0.00081 0.4882 0.0
C105 C 0.51455 -0.00021 0.45389 0.0
C106 C 0.46558 -0.00037 0.46689 0.0
C107 C 0.45191 -0.00042 0.51433 0.0
C108 C 0.48716 -0.00152 0.54877 0.0
C109 C 0.53623 -0.0023 0.5357 0.0
C110 C 0.60095 0.00231 0.473 0.0
C111 C 0.62558 0.96018 0.46235 0.0
C112 C 0.66673 0.96168 0.43374 0.0
C113 C 0.68371 0.00535 0.4152 0.0
C114 C 0.66126 0.04797 0.42938 0.0
C115 C 0.62029 0.04644 0.45819 0.0
C116 C 0.52935 0.00241 0.40411 0.0
C117 C 0.54696 0.96185 0.38034 0.0
C118 C 0.56458 0.96525 0.33471 0.0
C119 C 0.56459 0.00927 0.31198 0.0
C120 C 0.54587 0.04962 0.33569 0.0
C121 C 0.52839 0.04617 0.38139 0.0
C122 C 0.42882 0.00112 0.43064 0.0
C123 C 0.42186 0.9621 0.39961 0.0
C124 C 0.38926 0.9647 0.36381 0.0
C125 C 0.3628 0.00634 0.35858 0.0
C126 C 0.36924 0.04491 0.39054 0.0
C127 C 0.40211 0.0424 0.426 0.0
C128 C 0.40039 -7e-05 0.52825 0.0
C129 C 0.37198 0.95792 0.52413 0.0
C130 C 0.32423 0.95744 0.53983 0.0
C131 C 0.30417 -0.00096 0.55996 0.0
C132 C 0.33271 0.04126 0.56335 0.0
C133 C 0.38034 0.04172 0.54743 0.0
C134 C 0.47132 -0.00085 0.59831 0.0
C135 C 0.44973 0.9579 0.61748 0.0
C136 C 0.42123 0.96153 0.65799 0.0
C137 C 0.41369 0.00656 0.67957 0.0
C138 C 0.43868 0.04709 0.6624 0.0
C139 C 0.46744 0.04336 0.62217 0.0
C140 C 0.57311 -0.00688 0.57124 0.0
C141 C 0.5924 0.94821 0.57858 0.0
C142 C 0.62815 0.94345 0.611 0.0
C143 C 0.64509 0.98353 0.63699 0.0
C144 C 0.62511 0.02847 0.62999 0.0
C145 C 0.58955 0.03325 0.59715 0.0
C146 C 0.58448 0.01304 0.26392 0.0
C147 C 0.25381 -0.00152 0.57764 0.0
H148 H 0.2053 0.27076 0.00802 0.0
H149 H 0.7733 0.36044 0.05228 0.0
H150 H 0.3702 0.50689 0.98049 0.0
H151 H 0.28334 0.5017 0.97653 0.0
H152 H 0.27576 0.45133 0.11745 0.0
H153 H 0.36175 0.46158 0.12224 0.0
H154 H 0.37141 0.39841 0.97435 0.0
H155 H 0.29907 0.34698 0.97478 0.0
H156 H 0.32675 0.3078 0.11559 0.0
H157 H 0.39879 0.35991 0.11485 0.0
H158 H 0.46296 0.33342 0.97652 0.0
H159 H 0.49074 0.25086 0.97458 0.0
H160 H 0.54704 0.27373 0.11213 0.0
H161 H 0.51688 0.35473 0.11444 0.0
H162 H 0.55953 0.39901 0.96424 0.0
H163 H 0.64136 0.37074 0.95391 0.0
H164 H 0.66779 0.40594 0.0982 0.0
H165 H 0.58571 0.43359 0.10809 0.0
H166 H 0.55415 0.51933 0.9673 0.0
H167 H 0.62918 0.56659 0.96365 0.0
H168 H 0.63194 0.57118 0.11377 0.0
H169 H 0.55588 0.52582 0.11672 0.0
H170 H 0.4455 0.55853 0.97452 0.0
H171 H 0.42316 0.64249 0.97729 0.0
H172 H 0.43826 0.6461 0.12646 0.0
H173 H 0.45775 0.56104 0.12317 0.0
O174 O 0.23464 0.29002 0.00823 0.0
O175 O 0.24989 0.27184 0.08095 0.0
O176 O 0.7252 0.35348 0.98157 0.0
O177 O 0.74075 0.37126 0.05543 0.0
C178 C 0.42255 0.46805 0.04789 0.0
C179 C 0.43117 0.41812 0.04569 0.0
C180 C 0.4785 0.402 0.0443 0.0
C181 C 0.51719 0.43558 0.04262 0.0
C182 C 0.50857 0.48524 0.04421 0.0
C183 C 0.4613 0.50159 0.04705 0.0
C184 C 0.37232 0.48384 0.05142 0.0
C185 C 0.34949 0.49787 0.01146 0.0
C186 C 0.29968 0.49375 0.00899 0.0
C187 C 0.27233 0.47364 0.04577 0.0
C188 C 0.29503 0.46656 0.08807 0.0
C189 C 0.34461 0.47228 0.09098 0.0
C190 C 0.39026 0.3829 0.04458 0.0
C191 C 0.36199 0.37836 1.00511 0.0
C192 C 0.32063 0.34904 0.00549 0.0
C193 C 0.30697 0.32345 0.04531 0.0
C194 C 0.33616 0.32713 0.08441 0.0
C195 C 0.37748 0.35659 0.084 0.0
C196 C 0.48831 0.35006 0.04547 0.0
C197 C 0.48009 0.31993 0.00665 0.0
C198 C 0.49641 0.27295 0.0055 0.0
C199 C 0.5217 0.25559 0.04298 0.0
C200 C 0.52722 0.28529 0.08284 0.0
C201 C 0.51043 0.33191 0.08412 0.0
C202 C 0.56693 0.41859 0.03679 0.0
C203 C 0.58311 0.40054 0.99353 0.0
C204 C 0.62983 0.38446 0.98775 0.0
C205 C 0.66118 0.3862 0.02523 0.0
C206 C 0.64466 0.40422 0.0686 0.0
C207 C 0.59788 0.42019 0.07433 0.0
C208 C 0.54968 0.51964 0.04224 0.0
C209 C 0.57058 0.5316 0.99928 0.0
C210 C 0.61378 0.5579 0.99735 0.0
C211 C 0.63702 0.5722 0.03843 0.0
C212 C 0.61492 0.56128 0.08146 0.0
C213 C 0.57146 0.53541 0.0833 0.0
C214 C 0.45232 0.55367 0.0487 0.0
C215 C 0.44396 0.57761 0.00772 0.0
C216 C 0.4318 0.62587 0.00942 0.0
C217 C 0.42859 0.6514 0.05219 0.0
C218 C 0.43933 0.62754 0.09301 0.0
C219 C 0.45079 0.57902 0.09127 0.0
C220 C 0.2622 0.29348 0.04607 0.0
C221 C 0.7109 0.36928 0.01924 0.0
Zn222 Zn 0.06785 0.09986 0.96229 0.0
Zn223 Zn 0.04544 0.10159 0.07321 0.0
O224 O 0.04959 0.05806 0.01685 0.0
H225 H 0.03689 0.02552 0.01469 0.0
C226 C 0.8851 0.13255 0.90973 0.0
O227 O 0.84965 0.14109 0.93936 0.0
Zn228 Zn 0.95123 0.88866 0.07623 0.0
Zn229 Zn 0.92286 0.89645 0.96797 0.0
O230 O 0.94215 0.93522 0.02536 0.0
H231 H 0.95947 0.96561 0.02392 0.0
Zn232 Zn 0.88884 0.0507 0.96888 0.0
O233 O 0.93043 0.05444 0.02554 0.0
Zn234 Zn 0.88814 0.04315 0.08149 0.0
H235 H 0.91389 0.05326 0.99653 0.0
Zn236 Zn 0.13531 0.92882 0.95344 0.0
O237 O 0.0837 0.92956 1.00472 0.0
H238 H 0.04949 0.92892 1.0006 0.0
Zn239 Zn 0.11815 0.94278 0.06414 0.0
C240 C 0.0842 0.90088 0.86574 0.0
O241 O 0.05271 0.93244 0.88009 0.0
O242 O 0.07085 0.17199 0.9796 0.0
O243 O 0.05759 0.17138 0.05604 0.0
O244 O 0.90536 0.82633 0.98295 0.0
O245 O 0.9251 0.82235 0.05714 0.0
O246 O 0.81705 0.05026 0.9874 0.0
O247 O 0.81796 0.0492 0.06467 0.0
C248 C 0.11644 0.04231 0.11552 0.0
O249 O 0.20162 0.91582 0.97967 0.0
O250 O 0.1893 0.93017 0.05527 0.0
O251 O 0.88093 0.92787 0.91874 0.0
C252 C 0.06658 0.19401 0.01874 0.0
O253 O 0.11785 0.07646 0.91244 0.0
C254 C 0.89807 0.95102 0.13758 0.0
O255 O 0.90895 0.09484 0.914 0.0
C256 C 0.90798 0.80305 0.02023 0.0
O257 O 0.12047 0.89399 0.89024 0.0
C258 C 0.94843 0.11082 0.12918 0.0
O259 O 0.09615 0.08268 0.1175 0.0
O260 O 0.10261 0.01105 0.08532 0.0
C261 C 0.79525 0.05106 0.02681 0.0
O262 O 0.9161 0.90975 0.13499 0.0
O263 O 0.90269 0.97718 0.10223 0.0
C264 C 0.05211 0.87949 0.11663 0.0
O265 O 0.906 0.09312 0.13 0.0
O266 O 0.9783 0.09266 0.10007 0.0
C267 C 0.21675 0.9182 0.02104 0.0
O268 O 0.0948 0.89576 0.11225 0.0
O269 O 0.02181 0.89277 0.08777 0.0
C270 C 0.88752 0.91614 0.87619 0.0
O271 O 0.92171 0.88633 0.86475 0.0
C272 C 0.15162 0.04865 0.92112 0.0
O273 O 0.1547 0.03198 0.96313 0.0
H274 H 0.91817 0.35022 0.32049 0.0
H275 H 0.03581 0.15848 0.14331 0.0
H276 H 0.06574 0.36317 0.27327 0.0
H277 H 0.88606 0.16124 0.18355 0.0
H278 H 0.04966 0.23207 0.19059 0.0
H279 H 0.90746 0.28031 0.26974 0.0
C280 C 0.94821 0.33899 0.29875 0.0
C281 C 0.99279 0.36327 0.30087 0.0
C282 C 0.01382 0.21646 0.18882 0.0
C283 C 0.98107 0.28145 0.24313 0.0
C284 C 0.00589 0.17457 0.16169 0.0
C285 C 0.95963 0.15384 0.15881 0.0
C286 C 0.97522 0.23734 0.21344 0.0
C287 C 0.92238 0.17575 0.18439 0.0
C288 C 0.94219 0.29851 0.27002 0.0
C289 C 0.03074 0.34556 0.2729 0.0
N290 N 0.93101 0.21606 0.2104 0.0
N291 N 0.02406 0.30565 0.24523 0.0
H292 H 0.68501 0.05568 0.33479 0.0
H293 H 0.90492 0.91333 0.22301 0.0
H294 H 0.76643 0.95439 0.40873 0.0
H295 H 0.83321 0.02331 0.15112 0.0
H296 H 0.85792 0.93249 0.29292 0.0
H297 H 0.74201 0.04926 0.26932 0.0
C298 C 0.71543 0.0328 0.33767 0.0
C299 C 0.72099 0.00557 0.37745 0.0
C300 C 0.85263 0.95283 0.26206 0.0
C301 C 0.78587 -0.00267 0.30207 0.0
C302 C 0.87946 0.94186 0.22199 0.0
C303 C 0.87279 0.96658 0.18094 0.0
C304 C 0.81829 0.98852 0.26121 0.0
C305 C 0.83959 0.00344 0.18193 0.0
C306 C 0.74776 0.0289 0.30007 0.0
C307 C 0.76046 0.97568 0.37865 0.0
N308 N 0.81317 0.01298 0.22131 0.0
N309 N 0.79117 0.97217 0.34146 0.0
H310 H 0.08516 0.69811 0.34946 0.0
H311 H 0.96875 0.8254 0.13473 0.0
H312 H 0.94143 0.66374 0.30585 0.0
H313 H 0.10867 0.85982 0.18832 0.0
H314 H 0.95527 0.76808 0.19748 0.0
H315 H 0.09233 0.75884 0.29046 0.0
C316 C 0.05513 0.70317 0.32724 0.0
C317 C 0.0128 0.67544 0.33241 0.0
C318 C 0.98877 0.78846 0.19545 0.0
C319 C 0.02052 0.7457 0.26456 0.0
C320 C -0.00359 0.82126 0.15965 0.0
C321 C 0.04004 0.84724 0.15573 0.0
C322 C 0.02508 0.7818 0.22744 0.0
C323 C 0.07459 0.84038 0.18934 0.0
C324 C 0.05909 0.73818 0.29365 0.0
C325 C 0.97468 0.68445 0.30318 0.0
N326 N 0.06644 0.80835 0.22339 0.0
N327 N 0.97951 0.71864 0.2703 0.0
H328 H 0.34681 0.085 0.30671 0.0
H329 H 0.15419 0.9565 0.14144 0.0
H330 H 0.30281 0.93628 0.32069 0.0
H331 H 0.16832 0.10967 0.16353 0.0
H332 H 0.21685 0.94577 0.19795 0.0
H333 H 0.28957 0.09202 0.24515 0.0
C334 C 0.32494 0.05383 0.2971 0.0
C335 C 0.32929 0.01015 0.31957 0.0
C336 C 0.20617 0.98167 0.19023 0.0
C337 C 0.26412 0.01779 0.24807 0.0
C338 C 0.17053 0.98778 0.15779 0.0
C339 C 0.15564 0.03392 0.14778 0.0
C340 C 0.22741 0.02213 0.21228 0.0
C341 C 0.17822 0.07331 0.17035 0.0
C342 C 0.29243 0.05782 0.26167 0.0
C343 C 0.30092 0.97063 0.30432 0.0
N344 N 0.21289 0.06651 0.20139 0.0
N345 N 0.26941 0.97542 0.26959 0.0
H346 H 0.96906 0.7622 0.61722 0.0
H347 H 0.14329 0.83404 0.82596 0.0
H348 H 0.09974 0.69024 0.64471 0.0
H349 H 0.00905 0.90266 0.80596 0.0
H350 H 0.13016 0.78529 0.75585 0.0
H351 H 0.98526 0.81801 0.68239 0.0
C352 C 0.00131 0.75831 0.63666 0.0
C353 C 0.03313 0.72143 0.6252 0.0
C354 C 0.10357 0.81107 0.76663 0.0
C355 C 0.05188 0.78524 0.69986 0.0
C356 C 0.11104 0.83898 0.80678 0.0
C357 C 0.0771 0.87238 0.82214 0.0
C358 C 0.06176 0.81635 0.74142 0.0
C359 C 0.03612 0.87724 0.79557 0.0
C360 C 0.01057 0.79025 0.67382 0.0
C361 C 0.07455 0.7185 0.65149 0.0
N362 N 0.0295 0.8494 0.75661 0.0
N363 N 0.08254 0.74973 0.68758 0.0
H364 H 0.34315 0.07182 0.68314 0.0
H365 H 0.22934 0.991 0.92692 0.0
H366 H 0.39671 0.95332 0.75777 0.0
H367 H 0.15973 0.08351 0.83333 0.0
H368 H 0.29307 0.97872 0.86819 0.0
H369 H 0.27858 0.0798 0.74117 0.0
C370 C 0.34161 0.04783 0.71216 0.0
C371 C 0.37568 0.01226 0.71603 0.0
C372 C 0.26366 0.00145 0.86048 0.0
C373 C 0.30132 0.02075 0.78243 0.0
C374 C 0.2272 0.00841 0.89395 0.0
C375 C 0.18906 0.03836 0.88513 0.0
C376 C 0.26223 0.02505 0.81809 0.0
C377 C 0.18839 0.0602 0.84181 0.0
C378 C 0.30445 0.05208 0.74504 0.0
C379 C 0.37121 0.98132 0.75365 0.0
N380 N 0.22453 0.05336 0.81013 0.0
N381 N 0.33483 0.98644 0.78562 0.0
H382 H 0.01818 0.28916 0.68157 0.0
H383 H 0.83677 0.21234 0.88787 0.0
H384 H 0.88407 0.35757 0.71237 0.0
H385 H 0.96026 0.13052 0.84633 0.0
H386 H 0.85626 0.26833 0.82619 0.0
H387 H 0.00047 0.23336 0.74441 0.0
C388 C 0.98513 0.29257 0.70169 0.0
C389 C 0.95247 0.32798 0.69161 0.0
C390 C 0.87911 0.23812 0.83046 0.0
C391 C 0.9319 0.26419 0.76336 0.0
C392 C 0.86803 0.20611 0.86577 0.0
C393 C 0.89686 0.16657 0.87226 0.0
C394 C 0.91949 0.2308 0.80141 0.0
C395 C 0.93694 0.16043 0.8425 0.0
C396 C 0.97492 0.26055 0.73735 0.0
C397 C 0.90996 0.33043 0.71848 0.0
N398 N 0.94711 0.19226 0.80839 0.0
N399 N 0.90097 0.29906 0.75311 0.0
H400 H 0.72689 0.93245 0.62571 0.0
H401 H 0.81077 0.97543 0.88749 0.0
H402 H 0.65143 0.0224 0.72543 0.0
H403 H 0.88943 0.89367 0.78326 0.0
H404 H 0.75383 -0.00383 0.82849 0.0
H405 H 0.78813 0.92044 0.68277 0.0
C406 C 0.72316 0.94963 0.6597 0.0
C407 C 0.68371 0.97814 0.6709 0.0
C408 C 0.78372 0.97393 0.81851 0.0
C409 C 0.75407 0.96474 0.73661 0.0
C410 C 0.81627 0.96208 0.85218 0.0
C411 C 0.85477 0.93238 0.84044 0.0
C412 C 0.78959 0.95586 0.77279 0.0
C413 C 0.86017 0.91638 0.79406 0.0
C414 C 0.75832 0.94298 0.69224 0.0
C415 C 0.68132 0.00029 0.71523 0.0
N416 N 0.82783 0.92805 0.76211 0.0
N417 N 0.71581 -0.00716 0.74658 0.0
H418 H 0.24029 0.43227 0.96435 0.0
H419 H 0.07236 0.2528 0.09659 0.0
H420 H 0.19543 0.45876 0.10724 0.0
H421 H 0.08685 0.25437 0.94707 0.0
H422 H 0.10693 0.33419 0.10052 0.0
H423 H 0.17405 0.37596 0.95554 0.0
C424 C 0.21582 0.42773 0.9937 0.0
C425 C 0.22465 0.45008 0.03708 0.0
C426 C 0.10154 0.31712 0.06682 0.0
C427 C 0.14906 0.38288 0.02738 0.0
C428 C 0.08188 0.27054 0.06453 0.0
C429 C 0.07784 0.24617 0.02146 0.0
C430 C 0.11758 0.33923 0.02581 0.0
C431 C 0.09023 0.27126 0.98111 0.0
C432 C 0.17793 0.39477 0.98863 0.0
C433 C 0.19137 0.44127 0.07358 0.0
N434 N 0.11034 0.31603 0.98433 0.0
N435 N 0.15581 0.40741 0.06828 0.0
H436 H 0.37162 0.69359 0.12001 0.0
H437 H 0.2888 0.8951 0.95862 0.0
H438 H 0.44366 0.72352 0.98908 0.0
H439 H 0.25042 0.89093 0.10457 0.0
H440 H 0.35277 0.8394 0.97132 0.0
H441 H 0.33385 0.77089 0.11801 0.0
C442 C 0.38042 0.71667 0.09123 0.0
C443 C 0.41055 0.7013 0.0543 0.0
C444 C 0.33106 0.85149 1.00078 0.0
C445 C 0.36595 0.78994 0.05127 0.0
C446 C 0.29454 0.88344 0.99356 0.0
C447 C 0.2634 0.89688 0.03037 0.0
C448 C 0.33597 0.83229 0.04493 0.0
C449 C 0.27302 0.88105 0.07498 0.0
C450 C 0.35852 0.76094 0.09004 0.0
C451 C 0.41967 0.73299 0.01771 0.0
N452 N 0.3077 0.8487 0.08079 0.0
N453 N 0.39684 0.77537 0.01674 0.0
H454 H 0.53702 0.18987 0.11071 0.0
H455 H 0.73584 0.05996 0.95365 0.0
H456 H 0.56623 0.21645 0.96557 0.0
H457 H 0.73671 0.06703 0.10354 0.0
H458 H 0.65717 0.0956 0.95613 0.0
H459 H 0.59402 0.12481 0.1062 0.0
C460 C 0.55479 0.1817 0.07774 0.0
C461 C 0.54744 0.20959 0.03872 0.0
C462 C 0.67423 0.08857 0.98849 0.0
C463 C 0.61198 0.1346 0.03328 0.0
C464 C 0.71916 0.06809 0.98717 0.0
C465 C 0.74358 0.06161 0.02846 0.0
C466 C 0.65347 0.1027 0.03135 0.0
C467 C 0.71964 0.07215 0.07081 0.0
C468 C 0.58712 0.14439 0.07521 0.0
C469 C 0.57045 0.19618 0.99663 0.0
N470 N 0.67621 0.09298 0.07115 0.0
N471 N 0.60211 0.16012 0.99522 0.0
H472 H 0.71202 0.55749 0.97653 0.0
H473 H 0.88138 0.74289 0.94835 0.0
H474 H 0.67069 0.64471 0.09621 0.0
H475 H 0.87473 0.75731 0.09787 0.0
H476 H 0.82208 0.67721 0.95243 0.0
H477 H 0.78809 0.60269 0.97178 0.0
C478 C 0.71869 0.58634 1.0016 0.0
C479 C 0.68435 0.59784 0.03633 0.0
C480 C 0.83472 0.6936 0.98445 0.0
C481 C 0.7716 0.64924 0.03132 0.0
C482 C 0.86849 0.7313 0.98212 0.0
C483 C 0.88264 0.75597 0.02279 0.0
C484 C 0.8146 0.68098 0.02773 0.0
C485 C 0.86475 0.73943 0.06562 0.0
C486 C 0.76223 0.61196 0.99892 0.0
C487 C 0.69592 0.63439 0.0689 0.0
N488 N 0.83072 0.70372 0.06689 0.0
N489 N 0.73849 0.65885 0.06549 0.0
loop_
_geom_bond_atom_site_label_1
_geom_bond_atom_site_label_2
_geom_bond_distance
_geom_bond_site_symmetry_2
_ccdc_geom_bond_type
H0 O26 0.856 . S
H1 O29 0.854 . S
H2 C37 0.930 . S
H3 C38 0.930 . S
H4 C40 0.930 . S
H5 C41 0.930 . S
H6 C43 0.931 . S
H7 C44 0.930 . S
H8 C46 0.930 . S
H9 C47 0.929 . S
H10 C49 0.930 . S
H11 C50 0.931 . S
H12 C52 0.930 . S
H13 C53 0.929 . S
H14 C55 0.931 . S
H15 C56 0.930 . S
H16 C58 0.930 . S
H17 C59 0.932 . S
H18 C61 0.930 . S
H19 C62 0.929 . S
H20 C64 0.931 . S
H21 C65 0.930 . S
H22 C67 0.929 . S
H23 C68 0.931 . S
H24 C70 0.930 . S
H25 C71 0.929 . S
O26 H0 0.856 . S
O26 C72 1.300 1_455 S
O27 C72 1.209 . S
O28 C73 1.199 1_455 S
O29 H1 0.854 . S
O29 C73 1.297 . S
C30 C31 1.404 1_455 S
C30 C35 1.397 . S
C30 C36 1.494 . S
C31 C30 1.404 1_655 S
C31 C32 1.396 . S
C31 C42 1.492 . S
C32 C31 1.396 . S
C32 C33 1.397 . S
C32 C48 1.509 . S
C33 C32 1.397 . S
C33 C34 1.412 1_655 S
C33 C54 1.485 . S
C34 C33 1.412 1_455 S
C34 C35 1.388 . S
C34 C60 1.490 . S
C35 C30 1.397 . S
C35 C34 1.388 . S
C35 C66 1.519 . S
C36 C30 1.494 . S
C36 C37 1.363 . S
C36 C41 1.390 1_455 S
C37 H2 0.930 . S
C37 C36 1.363 . S
C37 C38 1.372 . S
C38 H3 0.930 . S
C38 C37 1.372 . S
C38 C39 1.383 . S
C39 C38 1.383 . S
C39 C40 1.395 1_455 S
C40 H4 0.930 . S
C40 C39 1.395 1_655 S
C40 C41 1.362 . S
C41 H5 0.930 . S
C41 C36 1.390 1_655 S
C41 C40 1.362 . S
C42 C31 1.492 . S
C42 C43 1.377 1_655 S
C42 C47 1.397 . S
C43 H6 0.931 . S
C43 C42 1.377 1_455 S
C43 C44 1.376 . S
C44 H7 0.930 . S
C44 C43 1.376 . S
C44 C45 1.376 1_455 S
C45 C44 1.376 1_655 S
C45 C46 1.378 . S
C45 C72 1.486 . S
C46 H8 0.930 . S
C46 C45 1.378 . S
C46 C47 1.376 . S
C47 H9 0.929 . S
C47 C42 1.397 . S
C47 C46 1.376 . S
C48 C32 1.509 . S
C48 C49 1.391 1_655 S
C48 C53 1.386 . S
C49 H10 0.930 . S
C49 C48 1.391 1_455 S
C49 C50 1.375 . S
C50 H11 0.931 . S
C50 C49 1.375 . S
C50 C51 1.375 1_455 S
C51 C50 1.375 1_655 S
C51 C52 1.361 . S
C52 H12 0.930 . S
C52 C51 1.361 . S
C52 C53 1.399 . S
C53 H13 0.929 . S
C53 C48 1.386 . S
C53 C52 1.399 . S
C54 C33 1.485 . S
C54 C55 1.394 1_655 S
C54 C59 1.360 . S
C55 H14 0.931 . S
C55 C54 1.394 1_455 S
C55 C56 1.372 . S
C56 H15 0.930 . S
C56 C55 1.372 . S
C56 C57 1.397 1_455 S
C57 C56 1.397 1_655 S
C57 C58 1.390 . S
C57 C73 1.476 . S
C58 H16 0.930 . S
C58 C57 1.390 . S
C58 C59 1.366 . S
C59 H17 0.932 . S
C59 C54 1.360 . S
C59 C58 1.366 . S
C60 C34 1.490 . S
C60 C61 1.380 . S
C60 C65 1.386 1_455 S
C61 H18 0.930 . S
C61 C60 1.380 . S
C61 C62 1.381 . S
C62 H19 0.929 . S
C62 C61 1.381 . S
C62 C63 1.371 . S
C63 C62 1.371 . S
C63 C64 1.380 1_455 S
C64 H20 0.931 . S
C64 C63 1.380 1_655 S
C64 C65 1.387 . S
C65 H21 0.930 . S
C65 C60 1.386 1_655 S
C65 C64 1.387 . S
C66 C35 1.519 . S
C66 C67 1.381 . S
C66 C71 1.357 1_455 S
C67 H22 0.929 . S
C67 C66 1.381 . S
C67 C68 1.386 . S
C68 H23 0.931 . S
C68 C67 1.386 . S
C68 C69 1.363 1_455 S
C69 C68 1.363 1_655 S
C69 C70 1.385 . S
C70 H24 0.930 . S
C70 C69 1.385 . S
C70 C71 1.396 . S
C71 H25 0.929 . S
C71 C66 1.357 1_655 S
C71 C70 1.396 . S
C72 O26 1.300 1_655 S
C72 O27 1.209 . S
C72 C45 1.486 . S
C73 O28 1.199 1_655 S
C73 O29 1.297 . S
C73 C57 1.476 . S
H74 O100 0.856 . S
H75 O103 0.854 . S
H76 C111 0.930 . S
H77 C112 0.930 . S
H78 C114 0.930 . S
H79 C115 0.930 . S
H80 C117 0.931 . S
H81 C118 0.930 . S
H82 C120 0.930 . S
H83 C121 0.929 . S
H84 C123 0.930 . S
H85 C124 0.931 . S
H86 C126 0.930 . S
H87 C127 0.929 . S
H88 C129 0.931 . S
H89 C130 0.930 . S
H90 C132 0.930 . S
H91 C133 0.932 . S
H92 C135 0.930 . S
H93 C136 0.929 . S
H94 C138 0.931 . S
H95 C139 0.930 . S
H96 C141 0.929 . S
H97 C142 0.931 . S
H98 C144 0.930 . S
H99 C145 0.929 . S
O100 H74 0.856 . S
O100 C146 1.300 1_565 S
O101 C146 1.209 . S
O102 C147 1.199 1_565 S
O103 H75 0.854 . S
O103 C147 1.297 . S
C104 C105 1.404 . S
C104 C109 1.397 . S
C104 C110 1.492 . S
C105 C104 1.404 . S
C105 C106 1.396 . S
C105 C116 1.492 . S
C106 C105 1.396 . S
C106 C107 1.397 . S
C106 C122 1.509 . S
C107 C106 1.397 . S
C107 C108 1.412 . S
C107 C128 1.485 . S
C108 C107 1.412 . S
C108 C109 1.388 . S
C108 C134 1.490 . S
C109 C104 1.397 . S
C109 C108 1.388 . S
C109 C140 1.519 . S
C110 C104 1.492 . S
C110 C111 1.363 1_545 S
C110 C115 1.390 . S
C111 H76 0.930 . S
C111 C110 1.363 1_565 S
C111 C112 1.372 . S
C112 H77 0.930 . S
C112 C111 1.372 . S
C112 C113 1.383 . S
C113 C112 1.383 . S
C113 C114 1.395 1_565 S
C114 H78 0.930 . S
C114 C113 1.395 1_545 S
C114 C115 1.362 . S
C115 H79 0.930 . S
C115 C110 1.390 . S
C115 C114 1.362 . S
C116 C105 1.492 . S
C116 C117 1.377 1_545 S
C116 C121 1.397 . S
C117 H80 0.931 . S
C117 C116 1.377 1_565 S
C117 C118 1.376 . S
C118 H81 0.930 . S
C118 C117 1.376 . S
C118 C119 1.376 1_565 S
C119 C118 1.376 1_545 S
C119 C120 1.378 . S
C119 C146 1.486 . S
C120 H82 0.930 . S
C120 C119 1.378 . S
C120 C121 1.376 . S
C121 H83 0.929 . S
C121 C116 1.397 . S
C121 C120 1.376 . S
C122 C106 1.509 . S
C122 C123 1.391 1_545 S
C122 C127 1.386 . S
C123 H84 0.930 . S
C123 C122 1.391 1_565 S
C123 C124 1.375 . S
C124 H85 0.931 . S
C124 C123 1.375 . S
C124 C125 1.375 1_565 S
C125 C124 1.375 1_545 S
C125 C126 1.361 . S
C126 H86 0.930 . S
C126 C125 1.361 . S
C126 C127 1.399 . S
C127 H87 0.929 . S
C127 C122 1.386 . S
C127 C126 1.399 . S
C128 C107 1.485 . S
C128 C129 1.394 1_545 S
C128 C133 1.360 . S
C129 H88 0.931 . S
C129 C128 1.394 1_565 S
C129 C130 1.372 . S
C130 H89 0.930 . S
C130 C129 1.372 . S
C130 C131 1.397 1_565 S
C131 C130 1.397 1_545 S
C131 C132 1.390 . S
C131 C147 1.476 . S
C132 H90 0.930 . S
C132 C131 1.390 . S
C132 C133 1.366 . S
C133 H91 0.932 . S
C133 C128 1.360 . S
C133 C132 1.366 . S
C134 C108 1.490 . S
C134 C135 1.380 1_545 S
C134 C139 1.386 . S
C135 H92 0.930 . S
C135 C134 1.380 1_565 S
C135 C136 1.381 . S
C136 H93 0.929 . S
C136 C135 1.381 . S
C136 C137 1.371 . S
C137 C136 1.371 . S
C137 C138 1.380 1_565 S
C138 H94 0.931 . S
C138 C137 1.380 1_545 S
C138 C139 1.387 . S
C139 H95 0.930 . S
C139 C134 1.386 . S
C139 C138 1.387 . S
C140 C109 1.519 . S
C140 C141 1.377 1_545 S
C140 C145 1.361 . S
C141 H96 0.929 . S
C141 C140 1.377 1_565 S
C141 C142 1.386 . S
C142 H97 0.931 . S
C142 C141 1.386 . S
C142 C143 1.363 1_565 S
C143 C142 1.363 1_545 S
C143 C144 1.385 . S
C144 H98 0.930 . S
C144 C143 1.385 . S
C144 C145 1.396 . S
C145 H99 0.929 . S
C145 C140 1.361 . S
C145 C144 1.396 . S
C146 O100 1.300 1_545 S
C146 O101 1.209 . S
C146 C119 1.486 . S
C147 O102 1.199 1_545 S
C147 O103 1.297 . S
C147 C131 1.476 . S
H148 O174 0.856 1_554 S
H149 O177 0.854 . S
H150 C185 0.930 . S
H151 C186 0.930 . S
H152 C188 0.930 . S
H153 C189 0.930 . S
H154 C191 0.931 . S
H155 C192 0.930 . S
H156 C194 0.930 . S
H157 C195 0.929 . S
H158 C197 0.930 . S
H159 C198 0.931 . S
H160 C200 0.930 . S
H161 C201 0.929 . S
H162 C203 0.931 . S
H163 C204 0.930 . S
H164 C206 0.930 . S
H165 C207 0.932 . S
H166 C209 0.930 . S
H167 C210 0.929 . S
H168 C212 0.931 . S
H169 C213 0.930 . S
H170 C215 0.929 . S
H171 C216 0.931 . S
H172 C218 0.930 . S
H173 C219 0.929 . S
O174 H148 0.856 1_556 S
O174 C220 1.300 1_556 S
O175 C220 1.209 . S
O176 C221 1.199 1_556 S
O177 H149 0.854 . S
O177 C221 1.297 . S
C178 C179 1.404 . S
C178 C183 1.397 . S
C178 C184 1.492 . S
C179 C178 1.404 . S
C179 C180 1.396 . S
C179 C190 1.492 . S
C180 C179 1.396 . S
C180 C181 1.397 . S
C180 C196 1.509 . S
C181 C180 1.397 . S
C181 C182 1.412 . S
C181 C202 1.485 . S
C182 C181 1.412 . S
C182 C183 1.388 . S
C182 C208 1.490 . S
C183 C178 1.397 . S
C183 C182 1.388 . S
C183 C214 1.519 . S
C184 C178 1.492 . S
C184 C185 1.363 1_554 S
C184 C189 1.390 . S
C185 H150 0.930 . S
C185 C184 1.363 1_556 S
C185 C186 1.372 . S
C186 H151 0.930 . S
C186 C185 1.372 . S
C186 C187 1.383 . S
C187 C186 1.383 . S
C187 C188 1.395 1_556 S
C188 H152 0.930 . S
C188 C187 1.395 1_554 S
C188 C189 1.362 . S
C189 H153 0.930 . S
C189 C184 1.390 . S
C189 C188 1.362 . S
C190 C179 1.492 . S
C190 C191 1.377 1_554 S
C190 C195 1.397 . S
C191 H154 0.931 . S
C191 C190 1.377 1_556 S
C191 C192 1.376 . S
C192 H155 0.930 . S
C192 C191 1.376 . S
C192 C193 1.376 1_556 S
C193 C192 1.376 1_554 S
C193 C194 1.378 . S
C193 C220 1.486 . S
C194 H156 0.930 . S
C194 C193 1.378 . S
C194 C195 1.376 . S
C195 H157 0.929 . S
C195 C190 1.397 . S
C195 C194 1.376 . S
C196 C180 1.509 . S
C196 C197 1.391 1_554 S
C196 C201 1.386 . S
C197 H158 0.930 . S
C197 C196 1.391 1_556 S
C197 C198 1.375 . S
C198 H159 0.931 . S
C198 C197 1.375 . S
C198 C199 1.375 1_556 S
C199 C198 1.375 1_554 S
C199 C200 1.361 . S
C200 H160 0.930 . S
C200 C199 1.361 . S
C200 C201 1.399 . S
C201 H161 0.929 . S
C201 C196 1.386 . S
C201 C200 1.399 . S
C202 C181 1.485 . S
C202 C203 1.394 1_554 S
C202 C207 1.360 . S
C203 H162 0.931 . S
C203 C202 1.394 1_556 S
C203 C204 1.372 . S
C204 H163 0.930 . S
C204 C203 1.372 . S
C204 C205 1.397 1_556 S
C205 C204 1.397 1_554 S
C205 C206 1.390 . S
C205 C221 1.476 . S
C206 H164 0.930 . S
C206 C205 1.390 . S
C206 C207 1.366 . S
C207 H165 0.932 . S
C207 C202 1.360 . S
C207 C206 1.366 . S
C208 C182 1.490 . S
C208 C209 1.380 1_554 S
C208 C213 1.386 . S
C209 H166 0.930 . S
C209 C208 1.380 1_556 S
C209 C210 1.381 . S
C210 H167 0.929 . S
C210 C209 1.381 . S
C210 C211 1.371 . S
C211 C210 1.371 . S
C211 C212 1.380 1_556 S
C212 H168 0.931 . S
C212 C211 1.380 1_554 S
C212 C213 1.387 . S
C213 H169 0.930 . S
C213 C208 1.386 . S
C213 C212 1.387 . S
C214 C183 1.519 . S
C214 C215 1.377 1_554 S
C214 C219 1.361 . S
C215 H170 0.929 . S
C215 C214 1.377 1_556 S
C215 C216 1.386 . S
C216 H171 0.931 . S
C216 C215 1.386 . S
C216 C217 1.363 1_556 S
C217 C216 1.363 1_554 S
C217 C218 1.385 . S
C218 H172 0.930 . S
C218 C217 1.385 . S
C218 C219 1.396 . S
C219 H173 0.929 . S
C219 C214 1.361 . S
C219 C218 1.396 . S
C220 O174 1.300 1_554 S
C220 O175 1.209 . S
C220 C193 1.486 . S
C221 O176 1.199 1_554 S
C221 O177 1.297 . S
C221 C205 1.476 . S
Zn222 O224 1.933 1_556 S
Zn222 O242 1.985 . S
Zn222 O253 1.955 . S
Zn223 O224 1.911 . S
Zn223 O243 1.970 . S
Zn223 O259 1.945 . S
Zn223 O266 1.981 . S
O224 Zn222 1.933 1_554 S
O224 Zn223 1.911 . S
O224 H225 0.841 . S
H225 O224 0.841 . S
C226 O227 1.246 . S
C226 O255 1.276 1_455 S
O227 C226 1.246 . S
Zn228 O230 1.911 . S
Zn228 O245 1.970 . S
Zn228 O262 1.945 . S
Zn228 O269 1.981 . S
Zn229 O230 1.933 1_556 S
Zn229 O244 1.985 . S
Zn229 O251 1.955 . S
O230 Zn228 1.911 . S
O230 Zn229 1.933 1_554 S
O230 H231 0.841 . S
H231 O230 0.841 . S
Zn232 O233 1.933 1_556 S
Zn232 O246 1.985 . S
Zn232 O255 1.955 . S
O233 Zn232 1.933 1_554 S
O233 Zn234 1.911 . S
O233 H235 0.841 . S
Zn234 O233 1.911 . S
Zn234 O247 1.970 . S
Zn234 O263 1.981 . S
Zn234 O265 1.945 . S
H235 O233 0.841 . S
Zn236 O237 1.933 1_556 S
Zn236 O249 1.985 . S
Zn236 O257 1.955 . S
O237 Zn236 1.933 1_554 S
O237 H238 0.841 . S
O237 Zn239 1.911 . S
H238 O237 0.841 . S
Zn239 O237 1.911 . S
Zn239 O250 1.970 . S
Zn239 O260 1.981 . S
Zn239 O268 1.945 . S
C240 O241 1.246 . S
C240 O257 1.276 1_655 S
O241 C240 1.246 . S
O242 Zn222 1.985 . S
O242 C252 1.245 1_556 S
O243 Zn223 1.970 . S
O243 C252 1.263 . S
O244 Zn229 1.985 . S
O244 C256 1.245 1_556 S
O245 Zn228 1.970 . S
O245 C256 1.263 . S
O246 Zn232 1.985 . S
O246 C261 1.245 1_556 S
O247 Zn234 1.970 . S
O247 C261 1.263 . S
C248 O259 1.262 . S
C248 O260 1.245 1_545 S
O249 Zn236 1.985 . S
O249 C267 1.245 1_556 S
O250 Zn239 1.970 . S
O250 C267 1.263 . S
O251 Zn229 1.955 . S
O251 C270 1.276 1_565 S
C252 O242 1.245 1_554 S
C252 O243 1.263 . S
O253 Zn222 1.955 . S
O253 C272 1.276 . S
C254 O262 1.262 1_545 S
C254 O263 1.245 . S
O255 C226 1.276 1_655 S
O255 Zn232 1.955 . S
C256 O244 1.245 1_554 S
C256 O245 1.263 . S
O257 Zn236 1.955 . S
O257 C240 1.276 1_455 S
C258 O265 1.238 1_455 S
C258 O266 1.258 . S
O259 Zn223 1.945 . S
O259 C248 1.262 . S
O260 Zn239 1.981 . S
O260 C248 1.245 1_565 S
C261 O246 1.245 1_554 S
C261 O247 1.263 . S
O262 Zn228 1.945 . S
O262 C254 1.262 1_565 S
O263 Zn234 1.981 . S
O263 C254 1.245 . S
C264 O268 1.262 1_655 S
C264 O269 1.245 . S
O265 Zn234 1.945 . S
O265 C258 1.238 1_655 S
O266 Zn223 1.981 . S
O266 C258 1.258 . S
C267 O249 1.245 1_554 S
C267 O250 1.263 . S
O268 Zn239 1.945 . S
O268 C264 1.262 1_455 S
O269 Zn228 1.981 . S
O269 C264 1.245 . S
C270 O251 1.276 1_545 S
C270 O271 1.246 . S
O271 C270 1.246 . S
C272 O253 1.276 . S
C272 O273 1.246 1_545 S
O273 C272 1.246 1_565 S
H274 C280 0.930 . S
H275 C284 0.930 . S
H276 C289 0.929 . S
H277 C287 0.929 . S
H278 C282 0.929 . S
H279 C288 0.929 . S
C280 H274 0.930 . S
C280 C281 1.367 1_655 S
C280 C288 1.378 . S
C281 C280 1.367 1_455 S
C281 C289 1.433 . S
C282 H278 0.929 . S
C282 C284 1.378 . S
C282 C286 1.350 . S
C283 C286 1.463 . S
C283 C288 1.350 1_455 S
C283 N291 1.427 . S
C284 H275 0.930 . S
C284 C282 1.378 . S
C284 C285 1.367 . S
C285 C284 1.367 . S
C285 C287 1.433 1_455 S
C286 C282 1.350 . S
C286 C283 1.463 . S
C286 N290 1.427 1_455 S
C287 H277 0.929 . S
C287 C285 1.433 1_655 S
C287 N290 1.384 . S
C288 H279 0.929 . S
C288 C280 1.378 . S
C288 C283 1.350 1_655 S
C289 H276 0.929 . S
C289 C281 1.433 . S
C289 N291 1.384 . S
N290 C286 1.427 1_655 S
N290 C287 1.384 . S
N291 C283 1.427 . S
N291 C289 1.384 . S
H292 C298 0.930 . S
H293 C302 0.930 . S
H294 C307 0.929 . S
H295 C305 0.929 . S
H296 C300 0.929 . S
H297 C306 0.929 . S
C298 H292 0.930 . S
C298 C299 1.367 1_545 S
C298 C306 1.378 . S
C299 C298 1.367 1_565 S
C299 C307 1.433 . S
C300 H296 0.929 . S
C300 C302 1.378 . S
C300 C304 1.350 1_565 S
C301 C304 1.462 1_565 S
C301 C306 1.350 1_565 S
C301 N309 1.427 . S
C302 H293 0.930 . S
C302 C300 1.378 . S
C302 C303 1.367 1_565 S
C303 C302 1.367 1_545 S
C303 C305 1.433 . S
C304 C300 1.350 1_545 S
C304 C301 1.462 1_545 S
C304 N308 1.427 . S
C305 H295 0.929 . S
C305 C303 1.433 . S
C305 N308 1.384 . S
C306 H297 0.929 . S
C306 C298 1.378 . S
C306 C301 1.350 1_545 S
C307 H294 0.929 . S
C307 C299 1.433 . S
C307 N309 1.384 . S
N308 C304 1.427 . S
N308 C305 1.384 . S
N309 C301 1.427 . S
N309 C307 1.384 . S
H310 C316 0.930 . S
H311 C320 0.930 . S
H312 C325 0.929 . S
H313 C323 0.929 . S
H314 C318 0.929 . S
H315 C324 0.929 . S
C316 H310 0.930 . S
C316 C317 1.367 1_455 S
C316 C324 1.378 . S
C317 C316 1.367 1_655 S
C317 C325 1.433 . S
C318 H314 0.929 . S
C318 C320 1.378 . S
C318 C322 1.350 . S
C319 C322 1.463 . S
C319 C324 1.350 1_655 S
C319 N327 1.427 . S
C320 H311 0.930 . S
C320 C318 1.378 . S
C320 C321 1.367 . S
C321 C320 1.367 . S
C321 C323 1.433 1_655 S
C322 C318 1.350 . S
C322 C319 1.463 . S
C322 N326 1.427 1_655 S
C323 H313 0.929 . S
C323 C321 1.433 1_455 S
C323 N326 1.384 . S
C324 H315 0.929 . S
C324 C316 1.378 . S
C324 C319 1.350 1_455 S
C325 H312 0.929 . S
C325 C317 1.433 . S
C325 N327 1.384 . S
N326 C322 1.427 1_455 S
N326 C323 1.384 . S
N327 C319 1.427 . S
N327 C325 1.384 . S
H328 C334 0.930 . S
H329 C338 0.930 . S
H330 C343 0.929 . S
H331 C341 0.929 . S
H332 C336 0.929 . S
H333 C342 0.929 . S
C334 H328 0.930 . S
C334 C335 1.367 . S
C334 C342 1.378 . S
C335 C334 1.367 . S
C335 C343 1.433 . S
C336 H332 0.929 . S
C336 C338 1.378 1_545 S
C336 C340 1.350 . S
C337 C340 1.463 . S
C337 C342 1.350 . S
C337 N345 1.427 . S
C338 H329 0.930 . S
C338 C336 1.378 1_565 S
C338 C339 1.366 1_565 S
C339 C338 1.366 1_545 S
C339 C341 1.436 . S
C340 C336 1.350 . S
C340 C337 1.463 . S
C340 N344 1.427 . S
C341 H331 0.929 . S
C341 C339 1.436 . S
C341 N344 1.384 . S
C342 H333 0.929 . S
C342 C334 1.378 . S
C342 C337 1.350 . S
C343 H330 0.929 . S
C343 C335 1.433 . S
C343 N345 1.384 . S
N344 C340 1.427 . S
N344 C341 1.384 . S
N345 C337 1.427 . S
N345 C343 1.384 . S
H346 C352 0.930 . S
H347 C356 0.930 . S
H348 C361 0.929 . S
H349 C359 0.929 . S
H350 C354 0.929 . S
H351 C360 0.929 . S
C352 H346 0.930 . S
C352 C353 1.367 1_655 S
C352 C360 1.378 . S
C353 C352 1.367 1_455 S
C353 C361 1.433 . S
C354 H350 0.929 . S
C354 C356 1.378 . S
C354 C358 1.350 . S
C355 C358 1.463 . S
C355 C360 1.350 1_455 S
C355 N363 1.427 . S
C356 H347 0.930 . S
C356 C354 1.378 . S
C356 C357 1.367 1_455 S
C357 C356 1.367 1_655 S
C357 C359 1.433 . S
C358 C354 1.350 . S
C358 C355 1.463 . S
C358 N362 1.427 1_455 S
C359 H349 0.929 . S
C359 C357 1.433 . S
C359 N362 1.384 . S
C360 H351 0.929 . S
C360 C352 1.378 . S
C360 C355 1.350 1_655 S
C361 H348 0.929 . S
C361 C353 1.433 . S
C361 N363 1.384 . S
N362 C358 1.427 1_655 S
N362 C359 1.384 . S
N363 C355 1.427 . S
N363 C361 1.384 . S
H364 C370 0.930 . S
H365 C374 0.930 . S
H366 C379 0.929 . S
H367 C377 0.929 . S
H368 C372 0.929 . S
H369 C378 0.929 . S
C370 H364 0.930 . S
C370 C371 1.367 1_545 S
C370 C378 1.378 . S
C371 C370 1.367 1_565 S
C371 C379 1.433 . S
C372 H368 0.929 . S
C372 C374 1.378 . S
C372 C376 1.350 . S
C373 C376 1.463 . S
C373 C378 1.350 1_565 S
C373 N381 1.427 . S
C374 H365 0.930 . S
C374 C372 1.378 . S
C374 C375 1.367 . S
C375 C374 1.367 . S
C375 C377 1.433 1_565 S
C376 C372 1.350 . S
C376 C373 1.463 . S
C376 N380 1.427 1_565 S
C377 H367 0.929 . S
C377 C375 1.433 1_545 S
C377 N380 1.384 . S
C378 H369 0.929 . S
C378 C370 1.378 . S
C378 C373 1.350 1_545 S
C379 H366 0.929 . S
C379 C371 1.433 . S
C379 N381 1.384 . S
N380 C376 1.427 1_545 S
N380 C377 1.384 . S
N381 C373 1.427 . S
N381 C379 1.384 . S
H382 C388 0.930 . S
H383 C392 0.930 . S
H384 C397 0.929 . S
H385 C395 0.929 . S
H386 C390 0.929 . S
H387 C396 0.929 . S
C388 H382 0.930 . S
C388 C389 1.367 1_455 S
C388 C396 1.378 . S
C389 C388 1.367 1_655 S
C389 C397 1.433 . S
C390 H386 0.929 . S
C390 C392 1.378 . S
C390 C394 1.350 1_655 S
C391 C394 1.463 1_655 S
C391 C396 1.350 1_655 S
C391 N399 1.427 . S
C392 H383 0.930 . S
C392 C390 1.378 . S
C392 C393 1.367 1_655 S
C393 C392 1.367 1_455 S
C393 C395 1.433 . S
C394 C390 1.350 1_455 S
C394 C391 1.463 1_455 S
C394 N398 1.427 . S
C395 H385 0.929 . S
C395 C393 1.433 . S
C395 N398 1.384 . S
C396 H387 0.929 . S
C396 C388 1.378 . S
C396 C391 1.350 1_455 S
C397 H384 0.929 . S
C397 C389 1.433 . S
C397 N399 1.384 . S
N398 C394 1.427 . S
N398 C395 1.384 . S
N399 C391 1.427 . S
N399 C397 1.384 . S
H400 C406 0.930 . S
H401 C410 0.930 . S
H402 C415 0.929 . S
H403 C413 0.933 . S
H404 C408 0.929 . S
H405 C414 0.929 . S
C406 H400 0.930 . S
C406 C407 1.367 . S
C406 C414 1.378 . S
C407 C406 1.367 . S
C407 C415 1.433 . S
C408 H404 0.929 . S
C408 C410 1.378 . S
C408 C412 1.350 . S
C409 C412 1.463 . S
C409 C414 1.350 . S
C409 N417 1.427 . S
C410 H401 0.930 . S
C410 C408 1.378 . S
C410 C411 1.367 . S
C411 C410 1.367 . S
C411 C413 1.433 . S
C412 C408 1.350 . S
C412 C409 1.463 . S
C412 N416 1.427 . S
C413 H403 0.933 . S
C413 C411 1.433 . S
C413 N416 1.384 . S
C414 H405 0.929 . S
C414 C406 1.378 . S
C414 C409 1.350 . S
C415 H402 0.929 . S
C415 C407 1.433 . S
C415 N417 1.384 . S
N416 C412 1.427 . S
N416 C413 1.384 . S
N417 C409 1.427 . S
N417 C415 1.384 . S
H418 C424 0.930 . S
H419 C428 0.930 . S
H420 C433 0.929 . S
H421 C431 0.929 . S
H422 C426 0.929 . S
H423 C432 0.929 . S
C424 H418 0.930 . S
C424 C425 1.367 . S
C424 C432 1.378 . S
C425 C424 1.367 . S
C425 C433 1.433 1_556 S
C426 H422 0.929 . S
C426 C428 1.378 . S
C426 C430 1.350 . S
C427 C430 1.463 1_556 S
C427 C432 1.350 . S
C427 N435 1.428 1_556 S
C428 H419 0.930 . S
C428 C426 1.378 . S
C428 C429 1.367 . S
C429 C428 1.367 . S
C429 C431 1.433 1_554 S
C430 C426 1.350 . S
C430 C427 1.463 1_554 S
C430 N434 1.427 1_554 S
C431 H421 0.929 . S
C431 C429 1.433 1_556 S
C431 N434 1.384 . S
C432 H423 0.929 . S
C432 C424 1.378 . S
C432 C427 1.350 . S
C433 H420 0.929 . S
C433 C425 1.433 1_554 S
C433 N435 1.384 . S
N434 C430 1.427 1_556 S
N434 C431 1.384 . S
N435 C427 1.428 1_554 S
N435 C433 1.384 . S
H436 C442 0.930 . S
H437 C446 0.930 . S
H438 C451 0.929 . S
H439 C449 0.929 . S
H440 C444 0.929 . S
H441 C450 0.929 . S
C442 H436 0.930 . S
C442 C443 1.367 . S
C442 C450 1.378 . S
C443 C442 1.367 . S
C443 C451 1.433 1_554 S
C444 H440 0.929 . S
C444 C446 1.378 . S
C444 C448 1.350 1_556 S
C445 C448 1.463 . S
C445 C450 1.350 . S
C445 N453 1.427 1_554 S
C446 H437 0.930 . S
C446 C444 1.378 . S
C446 C447 1.367 1_556 S
C447 C446 1.367 1_554 S
C447 C449 1.433 . S
C448 C444 1.350 1_554 S
C448 C445 1.463 . S
C448 N452 1.427 . S
C449 H439 0.929 . S
C449 C447 1.433 . S
C449 N452 1.384 . S
C450 H441 0.929 . S
C450 C442 1.378 . S
C450 C445 1.350 . S
C451 H438 0.929 . S
C451 C443 1.433 1_556 S
C451 N453 1.384 . S
N452 C448 1.427 . S
N452 C449 1.384 . S
N453 C445 1.427 1_556 S
N453 C451 1.384 . S
H454 C460 0.930 1_556 S
H455 C464 0.930 . S
H456 C469 0.929 . S
H457 C467 0.929 . S
H458 C462 0.929 . S
H459 C468 0.929 1_556 S
C460 H454 0.930 1_554 S
C460 C461 1.367 . S
C460 C468 1.378 . S
C461 C460 1.367 . S
C461 C469 1.433 . S
C462 H458 0.929 . S
C462 C464 1.378 . S
C462 C466 1.350 . S
C463 C466 1.463 . S
C463 C468 1.350 . S
C463 N471 1.427 . S
C464 H455 0.930 . S
C464 C462 1.378 . S
C464 C465 1.367 . S
C465 C464 1.367 . S
C465 C467 1.433 1_554 S
C466 C462 1.350 . S
C466 C463 1.463 . S
C466 N470 1.427 1_554 S
C467 H457 0.929 . S
C467 C465 1.433 1_556 S
C467 N470 1.384 . S
C468 H459 0.929 1_554 S
C468 C460 1.378 . S
C468 C463 1.350 . S
C469 H456 0.929 . S
C469 C461 1.433 . S
C469 N471 1.384 . S
N470 C466 1.427 1_556 S
N470 C467 1.384 . S
N471 C463 1.427 . S
N471 C469 1.384 . S
H472 C478 0.930 . S
H473 C482 0.929 1_556 S
H474 C487 0.929 . S
H475 C485 0.929 . S
H476 C480 0.929 . S
H477 C486 0.929 . S
C478 H472 0.930 . S
C478 C479 1.367 1_554 S
C478 C486 1.378 . S
C479 C478 1.367 1_556 S
C479 C487 1.433 . S
C480 H476 0.929 . S
C480 C482 1.377 1_556 S
C480 C484 1.350 1_556 S
C481 C484 1.464 . S
C481 C486 1.353 . S
C481 N489 1.423 1_554 S
C482 H473 0.929 1_554 S
C482 C480 1.377 1_554 S
C482 C483 1.368 . S
C483 C482 1.368 . S
C483 C485 1.433 . S
C484 C480 1.350 1_554 S
C484 C481 1.464 . S
C484 N488 1.427 . S
C485 H475 0.929 . S
C485 C483 1.433 . S
C485 N488 1.384 . S
C486 H477 0.929 . S
C486 C478 1.378 . S
C486 C481 1.353 . S
C487 H474 0.929 . S
C487 C479 1.433 . S
C487 N489 1.384 . S
N488 C484 1.427 . S
N488 C485 1.384 . S
N489 C481 1.423 1_556 S
N489 C487 1.384 . S
C285 C258 1.731 . S
C281 C39 1.730 . S
C303 C254 1.905 . S
C299 C113 1.834 . S
C321 C264 2.148 . S
C317 C69 2.249 . S
C339 C248 0.988 . S
C335 C125 1.013 . S
C353 C63 1.900 . S
C357 C240 1.925 . S
C375 C272 1.815 1_565 S
C371 C137 1.847 . S
C389 C51 1.132 . S
C393 C226 1.052 . S
C407 C143 2.377 . S
C411 C270 2.268 . S
C425 C187 1.067 . S
C429 C252 1.131 . S
C443 C217 1.597 . S
C447 C267 1.562 . S
C465 C261 0.383 . S
C461 C199 0.311 . S
C483 C256 1.199 . S
C479 C211 1.169 . S
