# Generated by pormake.
# Topology sit, (3,6)-cn, num edge types: 1
# Building blocks:
#     Node 0, Type 0, BuildingBlock: QEWDON_clean_linker_0, # of connection points: 3
#     Node 1, Type 0, BuildingBlock: QEWDON_clean_linker_0, # of connection points: 3
#     Node 2, Type 0, BuildingBlock: QEWDON_clean_linker_0, # of connection points: 3
#     Node 3, Type 0, BuildingBlock: QEWDON_clean_linker_0, # of connection points: 3
#     Node 4, Type 1, BuildingBlock: MIDCAF_clean_sbu_0, # of connection points: 6
#     Node 5, Type 1, BuildingBlock: MIDCAF_clean_sbu_0, # of connection points: 6
#     Edge 6, Type (0, 1), BuildingBlock: EZIPEK_clean_linker_0, # of connection points: 2
#     Edge 7, Type (0, 1), BuildingBlock: EZIPEK_clean_linker_0, # of connection points: 2
#     Edge 8, Type (0, 1), BuildingBlock: EZIPEK_clean_linker_0, # of connection points: 2
#     Edge 9, Type (0, 1), BuildingBlock: EZIPEK_clean_linker_0, # of connection points: 2
#     Edge 10, Type (0, 1), BuildingBlock: EZIPEK_clean_linker_0, # of connection points: 2
#     Edge 11, Type (0, 1), BuildingBlock: EZIPEK_clean_linker_0, # of connection points: 2
#     Edge 12, Type (0, 1), BuildingBlock: EZIPEK_clean_linker_0, # of connection points: 2
#     Edge 13, Type (0, 1), BuildingBlock: EZIPEK_clean_linker_0, # of connection points: 2
#     Edge 14, Type (0, 1), BuildingBlock: EZIPEK_clean_linker_0, # of connection points: 2
#     Edge 15, Type (0, 1), BuildingBlock: EZIPEK_clean_linker_0, # of connection points: 2
#     Edge 16, Type (0, 1), BuildingBlock: EZIPEK_clean_linker_0, # of connection points: 2
#     Edge 17, Type (0, 1), BuildingBlock: EZIPEK_clean_linker_0, # of connection points: 2
# Relax obj value: 0.077
# Max RMSD: 0.186
# Mean RMSD: 0.145
data_MOF--net-sit--node1-MIDCAF_clean_sbu_0--node2-QEWDON_clean_linker_0--edge1-EZIPEK_clean_linker_0
_symmetry_space_group_name_H-M    P1
_symmetry_Int_Tables_number       1
_symmetry_cell_setting            triclinic
loop_
_symmetry_equiv_pos_as_xyz
'x, y, z'
_cell_length_a     16.201856
_cell_length_b     23.75822
_cell_length_c     29.549226
_cell_angle_alpha  90.601007
_cell_angle_beta   85.158256
_cell_angle_gamma 82.79426
loop_
_atom_site_label
_atom_site_type_symbol
_atom_site_fract_x
_atom_site_fract_y
_atom_site_fract_z
_atom_type_partial_charge
H0 H 0.1649 0.32443 0.04176 0.0
C1 C 0.11129 0.35431 0.035 0.0
C2 C 0.12353 0.40653 0.01521 0.0
C3 C 0.03095 0.33755 0.0398 0.0
H4 H 0.06486 0.48369 0.98801 0.0
C5 C 0.05487 0.44411 0.00438 0.0
C6 C -0.02474 0.42695 0.00735 0.0
C7 C -0.03676 0.37396 0.02565 0.0
C8 C 0.02017 0.27817 0.05053 0.0
H9 H 0.90219 0.35962 0.02627 0.0
C10 C 0.02161 0.25853 0.09518 0.0
C11 C 0.00837 0.20221 0.10457 0.0
C12 C 0.00688 0.24094 0.0154 0.0
H13 H 0.00573 0.25538 0.98076 0.0
C14 C -0.00486 0.18483 0.02466 0.0
H15 H 0.03102 0.28713 0.12257 0.0
C16 C -0.00446 0.1655 0.06908 0.0
H17 H -0.01486 0.12214 0.07593 0.0
H18 H -0.015 0.1564 0.99738 0.0
H19 H 0.10693 0.77027 0.03949 0.0
C20 C 0.04701 0.75505 0.03729 0.0
C21 C 0.04385 0.69903 0.02198 0.0
C22 C -0.02683 0.79288 0.04573 0.0
H23 H -0.03605 0.63775 0.00466 0.0
C24 C -0.03364 0.68029 0.01784 0.0
C25 C 0.89362 0.7189 0.02235 0.0
C26 C 0.89637 0.77452 0.038 0.0
C27 C -0.02296 0.85386 0.05448 0.0
H28 H 0.84002 0.80468 0.04028 0.0
C29 C -0.00093 0.87344 0.09633 0.0
C30 C -0.00176 0.93202 0.10462 0.0
C31 C -0.04389 0.89312 0.02079 0.0
H32 H 0.93904 0.87881 0.98831 0.0
C33 C -0.04303 0.95109 0.02872 0.0
H34 H 0.01408 0.84356 0.12279 0.0
C35 C -0.02256 0.97059 0.07054 0.0
H36 H -0.02395 1.01574 0.07662 0.0
H37 H -0.05932 0.98104 0.00258 0.0
H38 H 0.64606 0.83236 0.54163 0.0
C39 C 0.60164 0.86743 0.53242 0.0
C40 C 0.63085 0.91555 0.5121 0.0
C41 C 0.51544 0.86285 0.53662 0.0
H42 H 0.59692 0.99675 0.48212 0.0
C43 C 0.57418 0.96037 0.4986 0.0
C44 C 0.4893 0.95513 0.5007 0.0
C45 C 0.46018 0.90768 0.52121 0.0
C46 C 0.48101 0.81104 0.55433 0.0
H47 H 0.39363 0.90513 0.52367 0.0
C48 C 0.51029 0.78268 0.59274 0.0
C49 C 0.46357 0.74319 0.61546 0.0
C50 C 0.41175 0.79313 0.5351 0.0
H51 H 0.39022 0.81139 0.50411 0.0
C52 C 0.36695 0.75322 0.55647 0.0
H53 H 0.5656 0.79419 0.60683 0.0
C54 C 0.39055 0.73016 0.59717 0.0
H55 H 0.35164 0.70163 0.61429 0.0
H56 H 0.31206 0.74144 0.54215 0.0
H57 H 0.61753 0.2616 0.53193 0.0
C58 C 0.55522 0.2501 0.52995 0.0
C59 C 0.54473 0.1946 0.51622 0.0
C60 C 0.48599 0.29195 0.53773 0.0
H61 H 0.45553 0.13834 0.50167 0.0
C62 C 0.46395 0.18068 0.51303 0.0
C63 C 0.39577 0.22338 0.51662 0.0
C64 C 0.40625 0.2785 0.53043 0.0
C65 C 0.49811 0.35169 0.54597 0.0
H66 H 0.35359 0.31172 0.53212 0.0
C67 C 0.5122 0.37117 0.58938 0.0
C68 C 0.51886 0.42902 0.59716 0.0
C69 C 0.49252 0.39002 0.51022 0.0
H70 H 0.48156 0.37569 0.47656 0.0
C71 C 0.50058 0.44714 0.51768 0.0
H72 H 0.51542 0.34193 0.61728 0.0
C73 C 0.51309 0.46674 0.56098 0.0
H74 H 0.51738 0.5114 0.56643 0.0
H75 H 0.49599 0.47647 0.48996 0.0
Zn76 Zn -0.0354 0.18182 0.38588 0.0
Zn77 Zn 0.09718 0.95242 0.37366 0.0
Zn78 Zn 0.02867 1.06666 0.38093 0.0
C79 C 0.05908 0.99187 0.28695 0.0
C80 C -0.05463 0.9631 0.42916 0.0
O81 O 0.11241 0.11538 0.4149 0.0
O82 O 0.05694 0.2059 0.4188 0.0
C83 C -0.0078 0.14579 0.29386 0.0
O84 O 0.03824 1.03913 0.30922 0.0
O85 O 0.08725 0.94752 0.3067 0.0
O86 O 0.00612 0.92657 0.41542 0.0
O87 O -0.0557 1.01561 0.41865 0.0
O88 O -0.03367 0.18936 0.3184 0.0
O89 O 0.01532 0.09785 0.31183 0.0
O90 O 0.90999 0.07273 0.42239 0.0
O91 O 0.86276 0.16458 0.42277 0.0
C92 C 0.85457 0.11465 0.43502 0.0
O93 O 0.14912 1.05904 0.40955 0.0
O94 O 0.20276 0.96893 0.39819 0.0
C95 C 0.11378 0.16722 0.42758 0.0
C96 C 0.20828 1.01834 0.41291 0.0
Zn97 Zn 0.47412 0.67475 0.8898 0.0
Zn98 Zn 0.57743 0.45296 0.86976 0.0
Zn99 Zn 0.5248 0.56543 0.87726 0.0
C100 C 0.55476 0.49387 0.78224 0.0
C101 C 0.42557 0.46622 0.92195 0.0
O102 O 0.61625 0.60513 0.91384 0.0
O103 O 0.56807 0.69671 0.92077 0.0
C104 C 0.4946 0.65391 0.79576 0.0
O105 O 0.53501 0.54176 0.80394 0.0
O106 O 0.57614 0.44898 0.80304 0.0
O107 O 0.48273 0.42755 0.90767 0.0
O108 O 0.43096 0.51861 0.91281 0.0
O109 O 0.46877 0.69246 0.82515 0.0
O110 O 0.51781 0.6028 0.80825 0.0
O111 O 0.40394 0.57639 0.91882 0.0
O112 O 0.37129 0.66937 0.92827 0.0
C113 C 0.35524 0.61968 0.93601 0.0
O114 O 0.6432 0.54719 0.90904 0.0
O115 O 0.68295 0.45499 0.89756 0.0
C116 C 0.62231 0.65577 0.92805 0.0
C117 C 0.69498 0.50233 0.91368 0.0
C118 C 0.92557 0.18485 0.17759 0.0
C119 C 0.00419 0.18205 0.15199 0.0
C120 C 0.07546 0.14824 0.21841 0.0
C121 C -0.0033 0.15103 0.24391 0.0
N122 N 0.84716 0.15712 0.24559 0.0
N123 N 0.1517 0.14942 0.14413 0.0
C124 C 0.92176 0.16477 0.22275 0.0
C125 C 0.07852 0.15987 0.17119 0.0
N126 N 0.85486 0.20833 0.15919 0.0
N127 N 0.1473 0.13738 0.23974 0.0
H128 H 0.15641 0.15875 0.10965 0.0
H129 H 0.2061 0.12747 0.15483 0.0
H130 H 0.14781 0.12783 0.27409 0.0
H131 H 0.20635 0.14132 0.22424 0.0
H132 H 0.79714 0.21752 0.1778 0.0
H133 H 0.85478 0.22229 0.12584 0.0
H134 H 0.79086 0.16085 0.23064 0.0
H135 H 0.84278 0.14156 0.2785 0.0
C136 C 0.09463 0.96394 0.1594 0.0
C137 C 0.01319 0.95361 0.15021 0.0
C138 C -0.04065 0.98418 0.22787 0.0
C139 C 0.04245 0.98708 0.23868 0.0
N140 N 0.18938 0.9818 0.21603 0.0
N141 N 0.86772 0.9523 0.17477 0.0
C142 C 0.11015 0.97802 0.20464 0.0
C143 C -0.05476 0.96395 0.18408 0.0
N144 N 0.15659 0.96078 0.12471 0.0
N145 N 0.89397 1.00062 0.25956 0.0
H146 H 0.85411 0.93947 0.14266 0.0
H147 H 0.81773 0.95201 0.19926 0.0
H148 H 0.90162 1.01339 0.29263 0.0
H149 H 0.83173 1.00583 0.25238 0.0
H150 H 0.2152 0.97321 0.12783 0.0
H151 H 0.14772 0.94899 0.09153 0.0
H152 H 0.24299 0.96956 0.19454 0.0
H153 H 0.20182 0.99559 0.24812 0.0
C154 C 0.50747 0.75077 0.69616 0.0
C155 C 0.48623 0.7173 0.65968 0.0
C156 C 0.46879 0.64053 0.71294 0.0
C157 C 0.50108 0.67093 0.74735 0.0
N158 N 0.57829 0.74807 0.76489 0.0
N159 N 0.47769 0.62178 0.63229 0.0
C160 C 0.53015 0.72356 0.73654 0.0
C161 C 0.47757 0.6592 0.66761 0.0
N162 N 0.49885 0.80862 0.69468 0.0
N163 N 0.42282 0.5975 0.72341 0.0
H164 H 0.48966 0.63297 0.59853 0.0
H165 H 0.47525 0.57859 0.63728 0.0
H166 H 0.40859 0.58555 0.75672 0.0
H167 H 0.39154 0.57839 0.69916 0.0
H168 H 0.50837 0.83385 0.7224 0.0
H169 H 0.47142 0.83155 0.66882 0.0
H170 H 0.60476 0.78483 0.75652 0.0
H171 H 0.59948 0.72806 0.79378 0.0
C172 C 0.60041 0.4716 0.65519 0.0
C173 C 0.52584 0.451 0.64388 0.0
C174 C 0.4666 0.4656 0.72281 0.0
C175 C 0.54021 0.48746 0.73383 0.0
N176 N 0.66891 0.52293 0.70976 0.0
N177 N 0.38057 0.4423 0.66386 0.0
C178 C 0.6044 0.49444 0.69963 0.0
C179 C 0.45668 0.45206 0.67684 0.0
N180 N 0.66862 0.46677 0.62421 0.0
N181 N 0.40632 0.45738 0.75649 0.0
H182 H 0.37035 0.43323 0.63033 0.0
H183 H 0.32579 0.44839 0.6854 0.0
H184 H 0.4081 0.47105 0.79002 0.0
H185 H 0.35664 0.43473 0.75167 0.0
H186 H 0.7273 0.47559 0.63184 0.0
H187 H 0.66844 0.44957 0.59161 0.0
H188 H 0.71378 0.53433 0.68544 0.0
H189 H 0.67309 0.53967 0.74217 0.0
C190 C 0.23269 0.39446 0.95009 0.0
C191 C 0.2067 0.4166 0.9946 0.0
C192 C 0.3292 0.46753 0.99315 0.0
C193 C 0.34982 0.4502 0.94707 0.0
N194 N 0.31325 0.40612 0.8789 0.0
N195 N 0.22306 0.47966 0.05669 0.0
C196 C 0.29968 0.41584 0.92482 0.0
C197 C 0.25296 0.45475 0.01569 0.0
N198 N 0.19324 0.35311 0.93176 0.0
N199 N 0.38386 0.49424 0.01581 0.0
H200 H 0.16935 0.4692 0.07499 0.0
H201 H 0.2485 0.51305 0.07111 0.0
H202 H 0.44043 0.50409 0.00037 0.0
H203 H 0.37622 0.5027 0.05066 0.0
H204 H 0.21597 0.3308 0.90184 0.0
H205 H 0.14143 0.33755 0.94796 0.0
H206 H 0.27255 0.3872 0.85987 0.0
H207 H 0.36099 0.42178 0.85886 0.0
C208 C 0.76321 0.67191 0.02229 0.0
C209 C 0.821 0.70442 0.99965 0.0
C210 C 0.7568 0.69474 0.92838 0.0
C211 C 0.69413 0.66749 0.95205 0.0
N212 N 0.62874 0.63717 0.0224 0.0
N213 N 0.86597 0.75451 0.93284 0.0
C214 C 0.69488 0.65772 0.99928 0.0
C215 C 0.81574 0.7182 0.95317 0.0
N216 N 0.77428 0.65408 0.06542 0.0
N217 N 0.76111 0.69691 0.882 0.0
H218 H 0.91173 0.77191 0.94912 0.0
H219 H 0.85799 0.7711 0.9008 0.0
H220 H 0.71871 0.67994 0.86272 0.0
H221 H 0.81086 0.71065 0.86235 0.0
H222 H 0.73985 0.62482 0.0817 0.0
H223 H 0.82179 0.66579 0.08388 0.0
H224 H 0.6215 0.63486 0.05766 0.0
H225 H 0.57808 0.62568 0.00645 0.0
C226 C 0.83266 0.48266 0.01019 0.0
C227 C 0.90741 0.45994 0.98441 0.0
C228 C 0.84741 0.49378 0.91491 0.0
C229 C 0.76843 0.50389 0.93938 0.0
N230 N 0.68293 0.50739 0.01037 0.0
N231 N -0.01711 0.43829 0.9105 0.0
C232 C 0.76026 0.49944 0.98727 0.0
C233 C 0.91491 0.465 0.93628 0.0
N234 N 0.83101 0.48781 0.05634 0.0
N235 N 0.8567 0.51009 0.87079 0.0
H236 H 0.03186 0.4133 0.92401 0.0
H237 H -0.01314 0.43617 0.87514 0.0
H238 H 0.80706 0.53119 0.85474 0.0
H239 H 0.91457 0.50815 0.85216 0.0
H240 H 0.78024 0.5086 0.07652 0.0
H241 H 0.88356 0.47596 0.07386 0.0
H242 H 0.67211 0.4983 0.0446 0.0
H243 H 0.62879 0.5204 0.99452 0.0
C244 C 0.18818 0.64979 0.03088 0.0
C245 C 0.12131 0.66314 0.00319 0.0
C246 C 0.20591 0.6123 0.9394 0.0
C247 C 0.27699 0.6136 0.96325 0.0
N248 N 0.33851 0.63016 0.03257 0.0
N249 N 0.07216 0.66312 0.92755 0.0
C250 C 0.26875 0.6302 0.00969 0.0
C251 C 0.13061 0.64479 0.95665 0.0
N252 N 0.17465 0.6561 0.07698 0.0
N253 N 0.21204 0.58321 0.89895 0.0
H254 H 0.02001 0.69227 0.93681 0.0
H255 H 0.08057 0.65468 0.89268 0.0
H256 H 0.26787 0.55982 0.88571 0.0
H257 H 0.16023 0.57737 0.88161 0.0
H258 H 0.21979 0.6428 0.09901 0.0
H259 H 0.1157 0.66969 0.09326 0.0
H260 H 0.33781 0.64789 0.06501 0.0
H261 H 0.3978 0.61416 0.01785 0.0
C262 C 0.76804 0.9516 0.51968 0.0
C263 C 0.71992 0.9165 0.49654 0.0
C264 C 0.82124 0.91076 0.42982 0.0
C265 C 0.87077 0.94428 0.45348 0.0
N266 N 0.9011 0.98768 0.52317 0.0
N267 N 0.70753 0.85356 0.43341 0.0
C268 C 0.84717 0.96195 0.49921 0.0
C269 C 0.74936 0.89265 0.45303 0.0
N270 N 0.73643 0.97667 0.56037 0.0
N271 N 0.83949 0.89958 0.38428 0.0
H272 H 0.65241 0.84085 0.44822 0.0
H273 H 0.73111 0.83005 0.40418 0.0
H274 H 0.89088 0.91273 0.36557 0.0
H275 H 0.79986 0.8816 0.36396 0.0
H276 H 0.76308 1.00849 0.57617 0.0
H277 H 0.68065 0.9675 0.57728 0.0
H278 H 0.89101 0.99686 0.55787 0.0
H279 H -0.04061 0.99603 0.50896 0.0
C280 C 0.25294 0.19195 0.52105 0.0
C281 C 0.31964 0.21302 0.49526 0.0
C282 C 0.25393 0.19956 0.42502 0.0
C283 C 0.18457 0.18235 0.45104 0.0
N284 N 0.11042 0.16972 0.52371 0.0
N285 N 0.37617 0.24834 0.42426 0.0
C286 C 0.18165 0.18089 0.49913 0.0
C287 C 0.31788 0.22031 0.44767 0.0
N288 N 0.25875 0.18133 0.56611 0.0
N289 N 0.25975 0.19469 0.37865 0.0
H290 H 0.42461 0.26417 0.43938 0.0
H291 H 0.37251 0.26028 0.39061 0.0
H292 H 0.21325 0.18052 0.36071 0.0
H293 H 0.31354 0.20016 0.35814 0.0
H294 H 0.21658 0.16001 0.58566 0.0
H295 H 0.30916 0.19069 0.58334 0.0
H296 H 0.10127 0.17364 0.55895 0.0
H297 H 0.05797 0.15983 0.50858 0.0
C298 C 0.433 0.99425 0.42879 0.0
C299 C 0.42989 0.99494 0.4771 0.0
C300 C 0.28232 1.03313 0.48235 0.0
C301 C 0.28422 1.02775 0.43449 0.0
N302 N 0.36393 1.02678 0.36231 0.0
N303 N 0.36313 1.03521 0.54779 0.0
C304 C 0.36106 1.01704 0.40783 0.0
C305 C 0.35839 1.02225 0.50307 0.0
N306 N 0.50068 0.96725 0.40296 0.0
N307 N 0.20779 1.04366 0.50808 0.0
H308 H 0.41908 1.02717 0.56313 0.0
H309 H 0.31462 1.05851 0.56797 0.0
H310 H 0.15087 1.05183 0.49387 0.0
H311 H 0.20217 1.04171 0.54338 0.0
H312 H 0.50102 0.95976 0.36815 0.0
H313 H 0.55487 0.94886 0.4162 0.0
H314 H 0.41949 1.02419 0.34145 0.0
H315 H 0.31088 1.04337 0.34673 0.0
C316 C 0.68505 0.14204 0.5284 0.0
C317 C 0.61921 0.15394 0.49975 0.0
C318 C 0.70724 0.10124 0.43801 0.0
C319 C 0.77712 0.10598 0.46211 0.0
N320 N 0.83529 0.12477 0.53187 0.0
N321 N 0.57136 0.14686 0.42402 0.0
C322 C 0.76669 0.1232 0.50832 0.0
C323 C 0.62997 0.1325 0.45394 0.0
N324 N 0.66946 0.14968 0.57431 0.0
N325 N 0.71653 0.07009 0.39845 0.0
H326 H 0.5168 0.17417 0.43193 0.0
H327 H 0.58107 0.13636 0.38949 0.0
H328 H 0.7741 1.04797 0.38632 0.0
H329 H 0.66615 1.06139 0.38098 0.0
H330 H 0.71385 0.1379 0.59711 0.0
H331 H 0.60953 0.16269 0.5896 0.0
H332 H 0.83287 0.14294 0.56427 0.0
H333 H 0.89528 0.10946 0.51775 0.0
loop_
_geom_bond_atom_site_label_1
_geom_bond_atom_site_label_2
_geom_bond_distance
_geom_bond_site_symmetry_2
_ccdc_geom_bond_type
H0 C1 0.949 . S
C1 H0 0.949 . S
C1 C2 1.395 1_554 S
C1 C3 1.391 . S
C2 C1 1.395 1_556 S
C2 C5 1.390 . S
C3 C1 1.391 . S
C3 C7 1.387 . S
C3 C8 1.491 . S
H4 C5 0.950 . S
C5 C2 1.390 . S
C5 H4 0.950 . S
C5 C6 1.378 . S
C6 C5 1.378 . S
C6 C7 1.409 1_556 S
C7 C3 1.387 . S
C7 C6 1.409 1_554 S
C7 H9 0.951 . S
C8 C3 1.491 . S
C8 C10 1.382 . S
C8 C12 1.404 . S
H9 C7 0.951 . S
C10 C8 1.382 . S
C10 C11 1.390 . S
C10 H15 0.949 . S
C11 C10 1.390 . S
C11 C16 1.399 . S
C12 C8 1.404 . S
C12 H13 0.950 . S
C12 C14 1.375 . S
H13 C12 0.950 . S
C14 C12 1.375 . S
C14 C16 1.382 . S
C14 H18 0.950 . S
H15 C10 0.949 . S
C16 C11 1.399 . S
C16 C14 1.382 . S
C16 H17 0.952 . S
H17 C16 0.952 . S
H18 C14 0.950 . S
H19 C20 0.949 . S
C20 H19 0.949 . S
C20 C21 1.395 1_554 S
C20 C22 1.391 1_455 S
C21 C20 1.395 1_556 S
C21 C24 1.390 . S
C22 C20 1.391 1_655 S
C22 C26 1.387 . S
C22 C27 1.491 . S
H23 C24 0.950 . S
C24 C21 1.390 . S
C24 H23 0.950 . S
C24 C25 1.378 1_455 S
C25 C24 1.378 1_655 S
C25 C26 1.409 1_556 S
C26 C22 1.387 . S
C26 C25 1.409 1_554 S
C26 H28 0.951 . S
C27 C22 1.491 . S
C27 C29 1.382 . S
C27 C31 1.404 . S
H28 C26 0.951 . S
C29 C27 1.382 . S
C29 C30 1.390 . S
C29 H34 0.949 1_655 S
C30 C29 1.390 . S
C30 C35 1.399 . S
C31 C27 1.404 . S
C31 H32 0.950 . S
C31 C33 1.375 . S
H32 C31 0.950 . S
C33 C31 1.375 . S
C33 C35 1.382 . S
C33 H37 0.950 . S
H34 C29 0.949 1_455 S
C35 C30 1.399 . S
C35 C33 1.382 . S
C35 H36 0.952 . S
H36 C35 0.952 . S
H37 C33 0.950 . S
H38 C39 0.949 . S
C39 H38 0.949 . S
C39 C40 1.395 . S
C39 C41 1.391 . S
C40 C39 1.395 . S
C40 C43 1.390 . S
C41 C39 1.391 . S
C41 C45 1.387 . S
C41 C46 1.491 . S
H42 C43 0.950 . S
C43 C40 1.390 . S
C43 H42 0.950 . S
C43 C44 1.378 . S
C44 C43 1.378 . S
C44 C45 1.409 . S
C45 C41 1.387 . S
C45 C44 1.409 . S
C45 H47 0.951 . S
C46 C41 1.491 . S
C46 C48 1.382 . S
C46 C50 1.404 . S
H47 C45 0.951 . S
C48 C46 1.382 . S
C48 C49 1.390 . S
C48 H53 0.949 . S
C49 C48 1.390 . S
C49 C54 1.399 . S
C50 C46 1.404 . S
C50 H51 0.950 . S
C50 C52 1.375 . S
H51 C50 0.950 . S
C52 C50 1.375 . S
C52 C54 1.382 . S
C52 H56 0.950 . S
H53 C48 0.949 . S
C54 C49 1.399 . S
C54 C52 1.382 . S
C54 H55 0.952 . S
H55 C54 0.952 . S
H56 C52 0.950 . S
H57 C58 0.949 . S
C58 H57 0.949 . S
C58 C59 1.395 . S
C58 C60 1.391 . S
C59 C58 1.395 . S
C59 C62 1.390 . S
C60 C58 1.391 . S
C60 C64 1.387 . S
C60 C65 1.491 . S
H61 C62 0.950 . S
C62 C59 1.390 . S
C62 H61 0.950 . S
C62 C63 1.378 . S
C63 C62 1.378 . S
C63 C64 1.409 . S
C64 C60 1.387 . S
C64 C63 1.409 . S
C64 H66 0.951 . S
C65 C60 1.491 . S
C65 C67 1.382 . S
C65 C69 1.404 . S
H66 C64 0.951 . S
C67 C65 1.382 . S
C67 C68 1.390 . S
C67 H72 0.949 . S
C68 C67 1.390 . S
C68 C73 1.399 . S
C69 C65 1.404 . S
C69 H70 0.950 . S
C69 C71 1.375 . S
H70 C69 0.950 . S
C71 C69 1.375 . S
C71 C73 1.382 . S
C71 H75 0.950 . S
H72 C67 0.949 . S
C73 C68 1.399 . S
C73 C71 1.382 . S
C73 H74 0.952 . S
H74 C73 0.952 . S
H75 C71 0.950 . S
Zn76 O82 1.920 . S
Zn76 O88 1.898 . S
Zn76 O91 1.905 1_455 S
Zn77 O85 1.905 . S
Zn77 O86 1.898 . S
Zn77 O94 1.920 . S
Zn78 O81 2.080 . S
Zn78 O84 2.114 1_545 S
Zn78 O87 2.120 1_545 S
Zn78 O89 2.120 . S
Zn78 O90 2.114 1_455 S
Zn78 O93 2.080 1_545 S
C79 O84 1.166 . S
C79 O85 1.182 . S
C80 O86 1.167 1_655 S
C80 O87 1.299 1_655 S
O81 Zn78 2.080 . S
O81 C95 1.305 . S
O82 Zn76 1.920 . S
O82 C95 1.234 . S
C83 O88 1.167 . S
C83 O89 1.299 . S
O84 Zn78 2.114 1_565 S
O84 C79 1.166 . S
O85 Zn77 1.905 . S
O85 C79 1.182 . S
O86 Zn77 1.898 . S
O86 C80 1.167 1_455 S
O87 Zn78 2.120 1_565 S
O87 C80 1.299 1_455 S
O88 Zn76 1.898 . S
O88 C83 1.167 . S
O89 Zn78 2.120 . S
O89 C83 1.299 . S
O90 Zn78 2.114 1_655 S
O90 C92 1.166 . S
O91 Zn76 1.905 1_655 S
O91 C92 1.182 . S
C92 O90 1.166 . S
C92 O91 1.182 . S
O93 Zn78 2.080 1_565 S
O93 C96 1.305 . S
O94 Zn77 1.920 . S
O94 C96 1.234 . S
C95 O81 1.305 . S
C95 O82 1.234 . S
C96 O93 1.305 . S
C96 O94 1.234 . S
Zn97 O103 1.920 . S
Zn97 O109 1.898 . S
Zn97 O112 1.905 . S
Zn98 O106 1.905 . S
Zn98 O107 1.898 . S
Zn98 O115 1.920 . S
Zn99 O102 2.080 . S
Zn99 O105 2.114 . S
Zn99 O108 2.120 . S
Zn99 O110 2.120 . S
Zn99 O111 2.114 . S
Zn99 O114 2.080 . S
C100 O105 1.166 . S
C100 O106 1.182 . S
C101 O107 1.167 . S
C101 O108 1.299 . S
O102 Zn99 2.080 . S
O102 C116 1.305 . S
O103 Zn97 1.920 . S
O103 C116 1.234 . S
C104 O109 1.167 . S
C104 O110 1.299 . S
O105 Zn99 2.114 . S
O105 C100 1.166 . S
O106 Zn98 1.905 . S
O106 C100 1.182 . S
O107 Zn98 1.898 . S
O107 C101 1.167 . S
O108 Zn99 2.120 . S
O108 C101 1.299 . S
O109 Zn97 1.898 . S
O109 C104 1.167 . S
O110 Zn99 2.120 . S
O110 C104 1.299 . S
O111 Zn99 2.114 . S
O111 C113 1.166 . S
O112 Zn97 1.905 . S
O112 C113 1.182 . S
C113 O111 1.166 . S
C113 O112 1.182 . S
O114 Zn99 2.080 . S
O114 C117 1.305 . S
O115 Zn98 1.920 . S
O115 C117 1.234 . S
C116 O102 1.305 . S
C116 O103 1.234 . S
C117 O114 1.305 . S
C117 O115 1.234 . S
C118 C119 1.363 . S
C118 C124 1.379 . S
C118 N126 1.356 . S
C119 C118 1.363 . S
C119 C125 1.363 . S
C120 C121 1.363 . S
C120 C125 1.379 . S
C120 N127 1.356 . S
C121 C120 1.363 . S
C121 C124 1.363 . S
N122 C124 1.356 . S
N122 H134 0.984 1_455 S
N122 H135 0.985 . S
N123 C125 1.356 . S
N123 H128 0.984 . S
N123 H129 0.985 . S
C124 C118 1.379 . S
C124 C121 1.363 . S
C124 N122 1.356 . S
C125 C119 1.363 . S
C125 C120 1.379 . S
C125 N123 1.356 . S
N126 C118 1.356 . S
N126 H132 0.984 . S
N126 H133 0.984 . S
N127 C120 1.356 . S
N127 H130 0.984 . S
N127 H131 0.985 . S
H128 N123 0.984 . S
H129 N123 0.985 . S
H130 N127 0.984 . S
H131 N127 0.985 . S
H132 N126 0.984 . S
H133 N126 0.984 . S
H134 N122 0.984 1_655 S
H135 N122 0.985 . S
C136 C137 1.363 . S
C136 C142 1.379 . S
C136 N144 1.356 . S
C137 C136 1.363 . S
C137 C143 1.363 . S
C138 C139 1.363 . S
C138 C143 1.379 . S
C138 N145 1.356 . S
C139 C138 1.363 . S
C139 C142 1.363 . S
N140 C142 1.356 . S
N140 H152 0.984 1_565 S
N140 H153 0.985 . S
N141 C143 1.356 1_655 S
N141 H146 0.984 . S
N141 H147 0.985 . S
C142 C136 1.379 . S
C142 C139 1.363 . S
C142 N140 1.356 . S
C143 C137 1.363 . S
C143 C138 1.379 . S
C143 N141 1.356 1_455 S
N144 C136 1.356 . S
N144 H150 0.984 . S
N144 H151 0.984 . S
N145 C138 1.356 . S
N145 H148 0.984 . S
N145 H149 0.985 . S
H146 N141 0.984 . S
H147 N141 0.985 . S
H148 N145 0.984 . S
H149 N145 0.985 . S
H150 N144 0.984 . S
H151 N144 0.984 . S
H152 N140 0.984 1_545 S
H153 N140 0.985 . S
C154 C155 1.363 . S
C154 C160 1.379 . S
C154 N162 1.356 . S
C155 C154 1.363 . S
C155 C161 1.363 . S
C156 C157 1.363 . S
C156 C161 1.379 . S
C156 N163 1.356 . S
C157 C156 1.363 . S
C157 C160 1.363 . S
N158 C160 1.356 . S
N158 H170 0.984 . S
N158 H171 0.985 . S
N159 C161 1.356 . S
N159 H164 0.984 . S
N159 H165 0.985 . S
C160 C154 1.379 . S
C160 C157 1.363 . S
C160 N158 1.356 . S
C161 C155 1.363 . S
C161 C156 1.379 . S
C161 N159 1.356 . S
N162 C154 1.356 . S
N162 H168 0.984 . S
N162 H169 0.984 . S
N163 C156 1.356 . S
N163 H166 0.984 . S
N163 H167 0.985 . S
H164 N159 0.984 . S
H165 N159 0.985 . S
H166 N163 0.984 . S
H167 N163 0.985 . S
H168 N162 0.984 . S
H169 N162 0.984 . S
H170 N158 0.984 . S
H171 N158 0.985 . S
C172 C173 1.363 . S
C172 C178 1.379 . S
C172 N180 1.356 . S
C173 C172 1.363 . S
C173 C179 1.363 . S
C174 C175 1.363 . S
C174 C179 1.379 . S
C174 N181 1.356 . S
C175 C174 1.363 . S
C175 C178 1.363 . S
N176 C178 1.356 . S
N176 H188 0.984 . S
N176 H189 0.985 . S
N177 C179 1.356 . S
N177 H182 0.984 . S
N177 H183 0.985 . S
C178 C172 1.379 . S
C178 C175 1.363 . S
C178 N176 1.356 . S
C179 C173 1.363 . S
C179 C174 1.379 . S
C179 N177 1.356 . S
N180 C172 1.356 . S
N180 H186 0.984 . S
N180 H187 0.984 . S
N181 C174 1.356 . S
N181 H184 0.984 . S
N181 H185 0.985 . S
H182 N177 0.984 . S
H183 N177 0.985 . S
H184 N181 0.984 . S
H185 N181 0.985 . S
H186 N180 0.984 . S
H187 N180 0.984 . S
H188 N176 0.984 . S
H189 N176 0.985 . S
C190 C191 1.363 . S
C190 C196 1.379 . S
C190 N198 1.356 . S
C191 C190 1.363 . S
C191 C197 1.363 1_556 S
C192 C193 1.363 . S
C192 C197 1.379 1_556 S
C192 N199 1.356 1_556 S
C193 C192 1.363 . S
C193 C196 1.363 . S
N194 C196 1.356 . S
N194 H206 0.984 . S
N194 H207 0.985 . S
N195 C197 1.356 . S
N195 H200 0.984 . S
N195 H201 0.985 . S
C196 C190 1.379 . S
C196 C193 1.363 . S
C196 N194 1.356 . S
C197 C191 1.363 1_554 S
C197 C192 1.379 1_554 S
C197 N195 1.356 . S
N198 C190 1.356 . S
N198 H204 0.984 . S
N198 H205 0.984 . S
N199 C192 1.356 1_554 S
N199 H202 0.974 1_554 S
N199 H203 0.985 . S
H200 N195 0.984 . S
H201 N195 0.985 . S
H202 N199 0.974 1_556 S
H203 N199 0.985 . S
H204 N198 0.984 . S
H205 N198 0.984 . S
H206 N194 0.984 . S
H207 N194 0.985 . S
C208 C209 1.363 . S
C208 C214 1.379 . S
C208 N216 1.356 1_556 S
C209 C208 1.363 . S
C209 C215 1.363 . S
C210 C211 1.363 . S
C210 C215 1.379 . S
C210 N217 1.356 . S
C211 C210 1.363 . S
C211 C214 1.363 . S
N212 C214 1.356 . S
N212 H224 0.998 . S
N212 H225 0.985 . S
N213 C215 1.356 . S
N213 H218 0.984 . S
N213 H219 0.985 . S
C214 C208 1.379 . S
C214 C211 1.363 . S
C214 N212 1.356 . S
C215 C209 1.363 . S
C215 C210 1.379 . S
C215 N213 1.356 . S
N216 C208 1.356 1_554 S
N216 H222 0.984 . S
N216 H223 0.984 . S
N217 C210 1.356 . S
N217 H220 0.984 . S
N217 H221 0.985 . S
H218 N213 0.984 . S
H219 N213 0.985 . S
H220 N217 0.984 . S
H221 N217 0.985 . S
H222 N216 0.984 . S
H223 N216 0.984 . S
H224 N212 0.998 . S
H225 N212 0.985 . S
C226 C227 1.363 . S
C226 C232 1.379 . S
C226 N234 1.356 1_556 S
C227 C226 1.363 . S
C227 C233 1.363 . S
C228 C229 1.363 . S
C228 C233 1.379 . S
C228 N235 1.356 . S
C229 C228 1.363 . S
C229 C232 1.363 . S
N230 C232 1.356 . S
N230 H242 0.984 . S
N230 H243 0.985 . S
N231 C233 1.356 1_455 S
N231 H236 0.984 . S
N231 H237 0.985 . S
C232 C226 1.379 . S
C232 C229 1.363 . S
C232 N230 1.356 . S
C233 C227 1.363 . S
C233 C228 1.379 . S
C233 N231 1.356 1_655 S
N234 C226 1.356 1_554 S
N234 H240 0.984 . S
N234 H241 0.984 1_655 S
N235 C228 1.356 . S
N235 H238 0.984 . S
N235 H239 0.985 . S
H236 N231 0.984 . S
H237 N231 0.985 . S
H238 N235 0.984 . S
H239 N235 0.985 . S
H240 N234 0.984 . S
H241 N234 0.984 1_455 S
H242 N230 0.984 . S
H243 N230 0.985 . S
C244 C245 1.363 . S
C244 C250 1.379 . S
C244 N252 1.356 1_556 S
C245 C244 1.363 . S
C245 C251 1.363 . S
C246 C247 1.363 . S
C246 C251 1.379 . S
C246 N253 1.356 . S
C247 C246 1.363 . S
C247 C250 1.363 . S
N248 C250 1.356 . S
N248 H260 0.971 1_556 S
N248 H261 0.985 . S
N249 C251 1.356 . S
N249 H254 0.984 . S
N249 H255 0.985 . S
C250 C244 1.379 . S
C250 C247 1.363 . S
C250 N248 1.356 . S
C251 C245 1.363 . S
C251 C246 1.379 . S
C251 N249 1.356 . S
N252 C244 1.356 1_554 S
N252 H258 0.984 . S
N252 H259 0.984 . S
N253 C246 1.356 . S
N253 H256 0.984 . S
N253 H257 0.985 . S
H254 N249 0.984 . S
H255 N249 0.985 . S
H256 N253 0.984 . S
H257 N253 0.985 . S
H258 N252 0.984 . S
H259 N252 0.984 . S
H260 N248 0.971 1_554 S
H261 N248 0.985 . S
C262 C263 1.363 . S
C262 C268 1.379 . S
C262 N270 1.356 . S
C263 C262 1.363 . S
C263 C269 1.363 . S
C264 C265 1.363 . S
C264 C269 1.379 . S
C264 N271 1.356 . S
C265 C264 1.363 . S
C265 C268 1.363 . S
N266 C268 1.356 . S
N266 H278 0.984 . S
N266 H279 0.985 . S
N267 C269 1.356 . S
N267 H272 0.984 . S
N267 H273 0.985 . S
C268 C262 1.379 . S
C268 C265 1.363 . S
C268 N266 1.356 . S
C269 C263 1.363 . S
C269 C264 1.379 . S
C269 N267 1.356 . S
N270 C262 1.356 . S
N270 H276 0.984 . S
N270 H277 0.984 . S
N271 C264 1.356 . S
N271 H274 0.984 1_655 S
N271 H275 0.985 1_655 S
H272 N267 0.984 . S
H273 N267 0.985 . S
H274 N271 0.984 1_455 S
H275 N271 0.985 1_455 S
H276 N270 0.984 . S
H277 N270 0.984 . S
H278 N266 0.984 . S
H279 N266 0.985 . S
C280 C281 1.363 . S
C280 C286 1.379 . S
C280 N288 1.356 . S
C281 C280 1.363 . S
C281 C287 1.363 . S
C282 C283 1.363 . S
C282 C287 1.379 . S
C282 N289 1.356 . S
C283 C282 1.363 . S
C283 C286 1.363 . S
N284 C286 1.356 . S
N284 H296 0.984 . S
N284 H297 0.985 . S
N285 C287 1.356 . S
N285 H290 0.984 . S
N285 H291 0.985 . S
C286 C280 1.379 . S
C286 C283 1.363 . S
C286 N284 1.356 . S
C287 C281 1.363 . S
C287 C282 1.379 . S
C287 N285 1.356 . S
N288 C280 1.356 . S
N288 H294 0.984 . S
N288 H295 0.984 . S
N289 C282 1.356 . S
N289 H292 0.984 . S
N289 H293 0.985 . S
H290 N285 0.984 . S
H291 N285 0.985 . S
H292 N289 0.984 . S
H293 N289 0.985 . S
H294 N288 0.984 . S
H295 N288 0.984 . S
H296 N284 0.984 . S
H297 N284 0.985 . S
C298 C299 1.363 . S
C298 C304 1.379 . S
C298 N306 1.356 . S
C299 C298 1.363 . S
C299 C305 1.363 . S
C300 C301 1.363 . S
C300 C305 1.379 . S
C300 N307 1.356 . S
C301 C300 1.363 . S
C301 C304 1.363 . S
N302 C304 1.356 . S
N302 H314 0.984 . S
N302 H315 0.985 . S
N303 C305 1.356 . S
N303 H308 0.984 . S
N303 H309 0.985 . S
C304 C298 1.379 . S
C304 C301 1.363 . S
C304 N302 1.356 . S
C305 C299 1.363 . S
C305 C300 1.379 . S
C305 N303 1.356 . S
N306 C298 1.356 . S
N306 H312 0.984 . S
N306 H313 0.984 . S
N307 C300 1.356 . S
N307 H310 0.984 . S
N307 H311 0.985 . S
H308 N303 0.984 . S
H309 N303 0.985 . S
H310 N307 0.984 . S
H311 N307 0.985 . S
H312 N306 0.984 . S
H313 N306 0.984 . S
H314 N302 0.984 . S
H315 N302 0.985 . S
C316 C317 1.363 . S
C316 C322 1.379 . S
C316 N324 1.356 . S
C317 C316 1.363 . S
C317 C323 1.363 . S
C318 C319 1.363 . S
C318 C323 1.379 . S
C318 N325 1.356 . S
C319 C318 1.363 . S
C319 C322 1.363 . S
N320 C322 1.356 . S
N320 H332 0.984 . S
N320 H333 0.985 . S
N321 C323 1.356 . S
N321 H326 0.984 . S
N321 H327 0.985 . S
C322 C316 1.379 . S
C322 C319 1.363 . S
C322 N320 1.356 . S
C323 C317 1.363 . S
C323 C318 1.379 . S
C323 N321 1.356 . S
N324 C316 1.356 . S
N324 H330 0.984 . S
N324 H331 0.984 . S
N325 C318 1.356 . S
N325 H328 0.984 . S
N325 H329 0.985 . S
H326 N321 0.984 . S
H327 N321 0.985 . S
H328 N325 0.984 . S
H329 N325 0.985 . S
H330 N324 0.984 . S
H331 N324 0.984 . S
H332 N320 0.984 . S
H333 N320 0.985 . S
C121 C83 1.460 . S
C119 C11 1.439 . S
C139 C79 1.429 . S
C137 C30 1.400 1_455 S
C157 C104 1.460 . S
C155 C49 1.439 . S
C173 C68 1.400 . S
C175 C100 1.429 . S
C191 C2 1.368 . S
C193 C101 1.194 . S
C211 C116 1.199 . S
C209 C25 1.366 . S
C227 C6 1.738 1_655 S
C229 C117 1.585 . S
C247 C113 1.609 . S
C245 C21 1.742 . S
C265 C80 1.194 . S
C263 C40 1.368 . S
C281 C63 1.366 . S
C283 C95 1.199 . S
C301 C96 1.585 . S
C299 C44 1.738 . S
C319 C92 1.609 . S
C317 C59 1.742 . S
