# Generated by pormake.
# Topology anh, (6,3)-cn, num edge types: 1
# Building blocks:
#     Node 0, Type 0, BuildingBlock: CUWYAW_clean_sbu_0, # of connection points: 6
#     Node 1, Type 0, BuildingBlock: CUWYAW_clean_sbu_0, # of connection points: 6
#     Node 2, Type 0, BuildingBlock: CUWYAW_clean_sbu_0, # of connection points: 6
#     Node 3, Type 1, BuildingBlock: QEWDON_clean_linker_0, # of connection points: 3
#     Node 4, Type 1, BuildingBlock: QEWDON_clean_linker_0, # of connection points: 3
#     Node 5, Type 1, BuildingBlock: QEWDON_clean_linker_0, # of connection points: 3
#     Node 6, Type 1, BuildingBlock: QEWDON_clean_linker_0, # of connection points: 3
#     Node 7, Type 1, BuildingBlock: QEWDON_clean_linker_0, # of connection points: 3
#     Node 8, Type 1, BuildingBlock: QEWDON_clean_linker_0, # of connection points: 3
#     Edge 9, Type (0, 1), BuildingBlock: UVAHIK_clean_linker_0, # of connection points: 2
#     Edge 10, Type (0, 1), BuildingBlock: UVAHIK_clean_linker_0, # of connection points: 2
#     Edge 11, Type (0, 1), BuildingBlock: UVAHIK_clean_linker_0, # of connection points: 2
#     Edge 12, Type (0, 1), BuildingBlock: UVAHIK_clean_linker_0, # of connection points: 2
#     Edge 13, Type (0, 1), BuildingBlock: UVAHIK_clean_linker_0, # of connection points: 2
#     Edge 14, Type (0, 1), BuildingBlock: UVAHIK_clean_linker_0, # of connection points: 2
#     Edge 15, Type (0, 1), BuildingBlock: UVAHIK_clean_linker_0, # of connection points: 2
#     Edge 16, Type (0, 1), BuildingBlock: UVAHIK_clean_linker_0, # of connection points: 2
#     Edge 17, Type (0, 1), BuildingBlock: UVAHIK_clean_linker_0, # of connection points: 2
#     Edge 18, Type (0, 1), BuildingBlock: UVAHIK_clean_linker_0, # of connection points: 2
#     Edge 19, Type (0, 1), BuildingBlock: UVAHIK_clean_linker_0, # of connection points: 2
#     Edge 20, Type (0, 1), BuildingBlock: UVAHIK_clean_linker_0, # of connection points: 2
#     Edge 21, Type (0, 1), BuildingBlock: UVAHIK_clean_linker_0, # of connection points: 2
#     Edge 22, Type (0, 1), BuildingBlock: UVAHIK_clean_linker_0, # of connection points: 2
#     Edge 23, Type (0, 1), BuildingBlock: UVAHIK_clean_linker_0, # of connection points: 2
#     Edge 24, Type (0, 1), BuildingBlock: UVAHIK_clean_linker_0, # of connection points: 2
#     Edge 25, Type (0, 1), BuildingBlock: UVAHIK_clean_linker_0, # of connection points: 2
#     Edge 26, Type (0, 1), BuildingBlock: UVAHIK_clean_linker_0, # of connection points: 2
# Relax obj value: 0.175
# Max RMSD: 0.145
# Mean RMSD: 0.131
data_MOF--net-anh--node1-CUWYAW_clean_sbu_0--node2-QEWDON_clean_linker_0--edge1-UVAHIK_clean_linker_0
_symmetry_space_group_name_H-M    P1
_symmetry_Int_Tables_number       1
_symmetry_cell_setting            triclinic
loop_
_symmetry_equiv_pos_as_xyz
'x, y, z'
_cell_length_a     41.793459
_cell_length_b     41.561543
_cell_length_c     62.345589
_cell_angle_alpha  93.661003
_cell_angle_beta   92.340038
_cell_angle_gamma 120.1149
loop_
_atom_site_label
_atom_site_type_symbol
_atom_site_fract_x
_atom_site_fract_y
_atom_site_fract_z
_atom_type_partial_charge
C0 C 1.04752 0.48253 0.13405 0.0
Eu1 Eu 0.08084 0.5492 0.1543 0.0
C2 C 1.01132 0.46196 0.12134 0.0
C3 C 0.98693 0.4243 0.12401 0.0
C4 C 0.94988 0.40679 0.11557 0.0
C5 C 0.93673 0.42682 0.10439 0.0
C6 C 0.96196 0.46376 0.10048 0.0
C7 C 0.99882 0.48121 0.10898 0.0
C8 C 0.08596 0.56683 0.19751 0.0
C9 C 1.03192 0.58898 0.15921 0.0
C10 C 0.15575 0.69887 0.18419 0.0
Eu11 Eu 0.12345 0.62998 0.16737 0.0
C12 C 0.19232 0.73207 0.18224 0.0
C13 C 0.20359 0.74475 0.16197 0.0
C14 C 0.23849 0.77581 0.16028 0.0
C15 C 0.26298 0.79454 0.17875 0.0
C16 C 0.25191 0.78166 0.19897 0.0
C17 C 0.21679 0.75078 0.2007 0.0
C18 C 0.11672 0.61164 0.12443 0.0
C19 C 0.17355 0.59116 0.15939 0.0
O20 O 0.07342 0.51189 0.12593 0.0
O21 O 1.04582 0.48888 0.15467 0.0
O22 O 1.05632 0.54024 0.18663 0.0
O23 O 0.11203 0.58188 0.18542 0.0
O24 O 1.03389 0.56171 0.14825 0.0
O25 O 1.06229 0.6158 0.17085 0.0
O26 O 0.15585 0.6722 0.19424 0.0
O27 O 0.13238 0.68609 0.16697 0.0
O28 O 0.14721 0.63801 0.13472 0.0
O29 O 0.09143 0.59739 0.13696 0.0
O30 O 0.17396 0.62206 0.16679 0.0
O31 O 0.14119 0.56024 0.1532 0.0
H32 H 0.99595 0.40909 0.13368 0.0
H33 H 0.93106 0.37842 0.11907 0.0
H34 H 0.95279 0.47979 0.09173 0.0
H35 H 1.01699 0.51038 0.10683 0.0
H36 H 0.18554 0.73068 0.14737 0.0
H37 H 0.24648 0.78501 0.14449 0.0
H38 H 0.27014 0.7959 0.2135 0.0
H39 H 0.20874 0.74145 0.21647 0.0
C40 C 0.55354 0.16803 0.47412 0.0
Eu41 Eu 0.573 0.12412 0.49064 0.0
C42 C 0.57791 0.20554 0.46723 0.0
C43 C 0.57909 0.2366 0.47829 0.0
C44 C 0.60848 0.27253 0.4764 0.0
C45 C 0.63708 0.27803 0.46329 0.0
C46 C 0.63397 0.2474 0.45053 0.0
C47 C 0.60473 0.21136 0.45259 0.0
C48 C 0.57976 0.11495 0.53282 0.0
C49 C 0.66588 0.17399 0.49598 0.0
C50 C 0.63937 1.04462 0.51668 0.0
Eu51 Eu 0.61591 0.08584 0.50034 0.0
C52 C 0.62306 1.00431 0.51768 0.0
C53 C 0.59251 0.97884 0.50344 0.0
C54 C 0.57768 0.94046 0.50406 0.0
C55 C 0.59311 0.92697 0.51897 0.0
C56 C 0.62314 0.95265 0.53357 0.0
C57 C 0.63801 0.99106 0.5329 0.0
C58 C 0.60943 0.09597 0.45843 0.0
C59 C 0.52253 1.03496 0.49168 0.0
O60 O 0.55269 0.13995 0.46281 0.0
O61 O 0.55606 0.16576 0.49491 0.0
O62 O 0.54996 0.11168 0.52317 0.0
O63 O 0.60522 0.12468 0.52014 0.0
O64 O 0.63406 0.17037 0.48807 0.0
O65 O 0.66585 0.14552 0.50455 0.0
O66 O 0.62408 0.06021 0.52789 0.0
O67 O 0.64622 0.05611 0.49745 0.0
O68 O 0.63928 0.09901 0.46776 0.0
O69 O 0.58437 0.08573 0.47127 0.0
O70 O 0.55428 1.03706 0.49861 0.0
O71 O 0.52266 0.06523 0.48593 0.0
H72 H 0.55874 0.23289 0.48958 0.0
H73 H 0.6099 0.29588 0.48607 0.0
H74 H 0.65562 0.25091 0.4403 0.0
H75 H 0.6047 0.188 0.44384 0.0
H76 H 0.58044 0.98864 0.49167 0.0
H77 H 0.55431 0.92134 0.49278 0.0
H78 H 0.63588 0.94307 0.54507 0.0
H79 H 0.66149 1.01041 0.54405 0.0
C80 C 0.74453 0.63011 0.81564 0.0
Eu81 Eu 0.67775 0.61017 0.82563 0.0
C82 C 0.76094 0.60687 0.8101 0.0
C83 C 0.75139 0.57483 0.82072 0.0
C84 C 0.76328 0.55028 0.81385 0.0
C85 C 0.78492 0.55718 0.7962 0.0
C86 C 0.79499 0.58959 0.78577 0.0
C87 C 0.7829 0.61416 0.79262 0.0
C88 C 0.65657 0.60749 0.8664 0.0
C89 C 0.63563 0.5182 0.82621 0.0
C90 C 0.52936 0.54455 0.83595 0.0
Eu91 Eu 0.59752 0.56795 0.82774 0.0
C92 C 0.50192 0.55296 0.82662 0.0
C93 C 0.50328 0.56207 0.80521 0.0
C94 C 0.4776 0.57065 0.79636 0.0
C95 C 0.4506 0.57092 0.80889 0.0
C96 C 0.44957 0.56223 0.83039 0.0
C97 C 0.47502 0.55319 0.83917 0.0
C98 C 0.61811 0.57134 0.78696 0.0
C99 C 0.63949 0.66062 0.82458 0.0
O100 O 0.71828 0.62589 0.80164 0.0
O101 O 0.73603 0.63103 0.83555 0.0
O102 O 0.6828 0.63733 0.85923 0.0
O103 O 0.64307 0.58026 0.85199 0.0
O104 O 0.6631 0.54849 0.81908 0.0
O105 O 0.60798 0.52039 0.83438 0.0
O106 O 0.55774 0.57236 0.84755 0.0
O107 O 0.53904 0.52577 0.82278 0.0
O108 O 0.59027 0.54219 0.79346 0.0
O109 O 0.63203 0.59782 0.80169 0.0
O110 O 0.60915 0.62914 0.8285 0.0
O111 O 0.67047 0.6603 0.82132 0.0
H112 H 0.73416 0.5683 0.83412 0.0
H113 H 0.75572 0.52598 0.8225 0.0
H114 H 0.81171 0.5956 0.77214 0.0
H115 H 0.79008 0.63843 0.78402 0.0
H116 H 0.52429 0.56265 0.79535 0.0
H117 H 0.47917 0.57762 0.77984 0.0
H118 H 0.42879 0.562 0.84032 0.0
H119 H 0.4738 0.54652 0.85575 0.0
H120 H 0.58342 0.25778 0.25094 0.0
C121 C 0.5727 0.23092 0.24167 0.0
C122 C 0.56565 0.19951 0.25225 0.0
C123 C 0.56564 0.22753 0.21913 0.0
H124 H 0.54593 0.14056 0.24856 0.0
C125 C 0.55187 0.16486 0.24024 0.0
C126 C 0.54502 0.16107 0.21776 0.0
C127 C 0.55197 0.19257 0.20729 0.0
C128 C 0.57219 0.26025 0.20778 0.0
H129 H 0.54631 0.18981 0.18994 0.0
C130 C 0.59244 0.26857 0.1895 0.0
C131 C 0.59848 0.29914 0.17823 0.0
C132 C 0.55787 0.28287 0.21486 0.0
H133 H 0.54196 0.27684 0.22885 0.0
C134 C 0.56338 0.31305 0.20364 0.0
H135 H 0.60453 0.25181 0.18452 0.0
C136 C 0.58354 0.32121 0.18544 0.0
H137 H 0.58743 0.34476 0.17702 0.0
H138 H 0.552 0.3302 0.20907 0.0
H139 H 0.64624 0.58386 0.55518 0.0
C140 C 0.67018 0.58344 0.54943 0.0
C141 C 0.69753 0.58595 0.56438 0.0
C142 C 0.67262 0.5788 0.52719 0.0
H143 H 0.74869 0.58539 0.56852 0.0
C144 C 0.72809 0.58447 0.55696 0.0
C145 C 0.73071 0.57916 0.53471 0.0
C146 C 0.70305 0.57691 0.51999 0.0
C147 C 0.64228 0.57385 0.51162 0.0
H148 H 0.70424 0.57201 0.50284 0.0
C149 C 0.62666 0.59673 0.51439 0.0
C150 C 0.59755 0.59208 0.49998 0.0
C151 C 0.62839 0.546 0.49414 0.0
H152 H 0.63946 0.52753 0.49176 0.0
C153 C 0.59952 0.54127 0.47974 0.0
H154 H 0.63789 0.61891 0.52749 0.0
C155 C 0.58417 0.56418 0.48257 0.0
H156 H 0.5617 0.55992 0.47127 0.0
H157 H 0.58891 0.51967 0.46637 0.0
H158 H 0.11321 0.59292 0.89047 0.0
C159 C 0.08934 0.56839 0.88209 0.0
C160 C 1.06401 0.54009 0.89387 0.0
C161 C 0.08433 0.56514 0.85956 0.0
H162 H 1.01307 0.487 0.89198 0.0
C163 C 1.03329 0.50833 0.88286 0.0
C164 C 1.02733 0.5052 0.86026 0.0
C165 C 1.05359 0.53344 0.84872 0.0
C166 C 0.11118 0.59514 0.84737 0.0
H167 H 1.04905 0.53209 0.83136 0.0
C168 C 0.12913 0.58675 0.83133 0.0
C169 C 0.15798 0.61542 0.82127 0.0
C170 C 0.12042 0.63233 0.85246 0.0
H171 H 0.10671 0.63932 0.86474 0.0
C172 C 0.14757 0.66077 0.84175 0.0
H173 H 0.12155 0.55789 0.82742 0.0
C174 C 0.16658 0.65255 0.82645 0.0
H175 H 0.18896 0.6755 0.81937 0.0
H176 H 0.15469 0.68944 0.84579 0.0
H177 H 0.07389 0.58487 0.43725 0.0
C178 C 0.09872 0.60961 0.44443 0.0
C179 C 0.12524 0.63275 0.43072 0.0
C180 C 0.10356 0.61841 0.46703 0.0
H181 H 0.17663 0.68446 0.42912 0.0
C182 C 0.15702 0.66595 0.4397 0.0
C183 C 0.1641 0.67624 0.46199 0.0
C184 C 0.13756 0.65179 0.47564 0.0
C185 C 1.07193 0.59457 0.48108 0.0
H186 H 0.14342 0.6595 0.49283 0.0
C187 C 1.04214 0.55652 0.47477 0.0
C188 C 1.0118 0.53732 0.48797 0.0
C189 C 1.06994 0.61148 0.50092 0.0
H190 H 0.09012 0.64016 0.50645 0.0
C191 C 1.04103 0.59254 0.51391 0.0
H192 H 1.042 0.54194 0.45974 0.0
C193 C 1.01243 0.55627 0.50754 0.0
H194 H 0.99027 0.54288 0.51804 0.0
H195 H 1.04043 0.60653 0.52902 0.0
H196 H 0.6192 0.06488 0.7695 0.0
C197 C 0.62402 0.09132 0.77697 0.0
C198 C 0.62317 0.11692 0.76356 0.0
C199 C 0.6288 0.09875 0.79968 0.0
H200 H 0.62667 0.17003 0.76194 0.0
C201 C 0.62774 0.15089 0.7726 0.0
C202 C 0.63319 0.16055 0.79493 0.0
C203 C 0.6337 0.13424 0.80843 0.0
C204 C 0.62586 0.06852 0.81394 0.0
H205 H 0.63859 0.14209 0.82562 0.0
C206 C 0.6307 1.0374 0.80681 0.0
C207 C 0.62463 1.00867 0.82059 0.0
C208 C 0.61552 0.0695 0.8351 0.0
H209 H 0.6099 0.09082 0.8414 0.0
C210 C 0.61068 1.04225 0.84862 0.0
H211 H 0.63852 1.03499 0.79073 0.0
C212 C 0.615 1.01235 0.84152 0.0
H213 H 0.61041 0.99156 0.85253 0.0
H214 H 0.60272 1.04396 0.86478 0.0
H215 H 0.59229 0.59829 0.10317 0.0
C216 C 0.61507 0.596 0.11018 0.0
C217 C 0.63822 0.59138 0.09611 0.0
C218 C 0.6214 0.59821 0.13278 0.0
H219 H 0.68619 0.58614 0.09301 0.0
C220 C 0.66914 0.58993 0.10438 0.0
C221 C 0.67901 0.59416 0.12666 0.0
C222 C 0.65399 0.59699 0.14081 0.0
C223 C 0.59549 0.60441 0.1475 0.0
H224 H 0.66058 0.59873 0.15791 0.0
C225 C 0.55873 0.59781 0.14057 0.0
C226 C 0.53745 0.60697 0.15485 0.0
C227 C 0.60881 0.61947 0.16902 0.0
H228 H 0.63618 0.62647 0.17536 0.0
C229 C 0.58784 0.62727 0.18298 0.0
H230 H 0.54676 0.58628 0.12428 0.0
C231 C 0.55304 0.62131 0.17606 0.0
H232 H 0.53814 0.6283 0.18753 0.0
H233 H 0.59911 0.63881 0.19941 0.0
C234 C 0.21157 0.55901 0.15084 0.0
C235 C 0.21033 0.59145 0.15776 0.0
C236 C 0.24577 0.55962 0.14915 0.0
C237 C 0.35026 0.62627 0.14703 0.0
H238 H 0.35802 0.5393 0.15682 0.0
C239 C 0.49607 0.63579 0.15345 0.0
C240 C 0.49993 0.60413 0.14903 0.0
C241 C 0.46099 0.63335 0.15295 0.0
C242 C 0.35672 0.56394 0.15369 0.0
H243 H 0.24605 0.65029 0.16831 0.0
H244 H 0.30469 0.65141 0.16551 0.0
H245 H 0.29871 0.53689 0.15938 0.0
H246 H 0.46777 0.54446 0.14045 0.0
H247 H 0.40672 0.54009 0.13889 0.0
H248 H 0.40793 0.65331 0.14115 0.0
C249 C 0.27922 0.62519 0.16109 0.0
C250 C 0.32211 0.56255 0.15522 0.0
C251 C 0.24507 0.62451 0.16288 0.0
C252 C 0.46662 0.56978 0.1435 0.0
C253 C 0.4312 0.56726 0.14302 0.0
C254 C 0.38473 0.62762 0.14542 0.0
C255 C 0.28063 0.59279 0.15414 0.0
C256 C 0.31793 0.5938 0.1521 0.0
C257 C 0.42735 0.59897 0.14808 0.0
C258 C 0.38918 0.59662 0.14888 0.0
H259 H 0.18591 0.53284 0.14661 0.0
H260 H 0.24468 0.5339 0.14351 0.0
H261 H 0.34902 0.65096 0.14394 0.0
H262 H 0.52057 0.66275 0.15821 0.0
H263 H 0.46051 0.65869 0.15735 0.0
C264 C 0.73732 0.21411 0.49839 0.0
C265 C 0.70215 0.21072 0.49461 0.0
C266 C 0.77077 0.24812 0.49638 0.0
C267 C 0.80779 0.34465 0.47514 0.0
H268 H 0.89948 0.36695 0.50664 0.0
C269 C 0.94218 0.4941 0.47996 0.0
C270 C 0.97794 0.49841 0.48237 0.0
C271 C 0.90947 0.45885 0.48 0.0
C272 C 0.87442 0.36132 0.4974 0.0
H273 H 0.67595 0.24229 0.48619 0.0
H274 H 0.73314 0.30069 0.48296 0.0
H275 H 0.84271 0.30829 0.5101 0.0
H276 H 1.00622 0.46754 0.48702 0.0
H277 H 0.94959 0.40607 0.48657 0.0
H278 H 0.83947 0.39803 0.46277 0.0
C279 C 0.73537 0.27701 0.48703 0.0
C280 C 0.84127 0.32707 0.49939 0.0
C281 C 0.70204 0.24304 0.48895 0.0
C282 C 0.9795 0.4656 0.48447 0.0
C283 C 0.94666 0.43018 0.48464 0.0
C284 C 0.84086 0.37896 0.47328 0.0
C285 C 0.77076 0.28061 0.4906 0.0
C286 C 0.80693 0.3177 0.48834 0.0
C287 C 0.91076 0.42598 0.48277 0.0
C288 C 0.87511 0.38828 0.48436 0.0
H289 H 0.73912 0.19018 0.50265 0.0
H290 H 0.79668 0.24848 0.49903 0.0
H291 H 0.78292 0.33928 0.46582 0.0
H292 H 0.93949 0.51857 0.47897 0.0
H293 H 0.88307 0.45785 0.47884 0.0
C294 C 0.67031 0.73052 0.81938 0.0
C295 C 0.63837 0.69663 0.82308 0.0
C296 C 0.66933 0.7639 0.81771 0.0
C297 C 0.60288 0.80059 0.80905 0.0
H298 H 0.6893 0.89669 0.82831 0.0
C299 C 0.5946 0.93802 0.8161 0.0
C300 C 0.62613 0.97336 0.81434 0.0
C301 C 0.59656 0.90498 0.8155 0.0
C302 C 0.66488 0.87033 0.82249 0.0
H303 H 0.58 0.67262 0.82789 0.0
H304 H 0.57825 0.73016 0.82518 0.0
H305 H 0.69159 0.83959 0.83107 0.0
H306 H 0.68492 1.00053 0.81047 0.0
H307 H 0.68842 0.94307 0.80875 0.0
H308 H 0.57615 0.83116 0.80041 0.0
C309 C 0.60432 0.7311 0.82328 0.0
C310 C 0.66618 0.83707 0.82413 0.0
C311 C 0.60535 0.69773 0.82503 0.0
C312 C 0.65975 0.97403 0.81136 0.0
C313 C 0.66181 0.9408 0.8108 0.0
C314 C 0.6016 0.8338 0.80737 0.0
C315 C 0.63628 0.76511 0.81956 0.0
C316 C 0.63513 0.80126 0.81757 0.0
C317 C 0.63032 0.90545 0.81324 0.0
C318 C 0.63246 0.86961 0.81417 0.0
H319 H 0.69639 0.73135 0.81767 0.0
H320 H 0.69465 0.78875 0.81456 0.0
H321 H 0.57839 0.77423 0.8033 0.0
H322 H 0.56832 0.9361 0.81895 0.0
H323 H 0.57155 0.87919 0.81781 0.0
C324 C 0.96593 0.56545 0.14217 0.0
C325 C 0.99546 0.58965 0.15769 0.0
C326 C 0.93228 0.56611 0.14018 0.0
C327 C 0.87236 0.59717 0.16913 0.0
H328 H 0.8253 0.58366 0.11187 0.0
C329 C 0.7214 0.57989 0.15169 0.0
C330 C 0.71615 0.59657 0.13378 0.0
C331 C 0.75505 0.57939 0.15603 0.0
C332 C 0.8378 0.58758 0.12809 0.0
H333 H 1.01091 0.63339 0.18357 0.0
H334 H 0.95241 0.63408 0.18042 0.0
H335 H 0.88288 0.58231 0.11637 0.0
H336 H 0.74546 0.62854 0.10766 0.0
H337 H 0.8019 0.62666 0.11473 0.0
H338 H 0.82679 0.60214 0.18077 0.0
C339 C 0.95535 0.61447 0.1696 0.0
C340 C 0.87113 0.58648 0.13071 0.0
C341 C 0.98935 0.61423 0.17136 0.0
C342 C 0.74687 0.61402 0.12115 0.0
C343 C 0.77989 0.61305 0.12526 0.0
C344 C 0.8385 0.59758 0.16652 0.0
C345 C 0.926 0.59062 0.15382 0.0
C346 C 0.88953 0.59149 0.15126 0.0
C347 C 0.78481 0.59524 0.14256 0.0
C348 C 0.82051 0.59316 0.14588 0.0
H349 H 0.96885 0.54592 0.13123 0.0
H350 H 0.91084 0.54682 0.12795 0.0
H351 H 0.88488 0.60088 0.18531 0.0
H352 H 0.69907 0.5661 0.162 0.0
H353 H 0.75722 0.56544 0.16962 0.0
C354 C 0.45266 0.99422 0.48088 0.0
C355 C 0.48589 0.9977 0.49 0.0
C356 C 0.4185 0.95991 0.47923 0.0
C357 C 0.37585 0.8547 0.48377 0.0
H358 H 0.28416 0.85667 0.48232 0.0
C359 C 0.22865 0.71615 0.48282 0.0
C360 C 0.19887 0.71357 0.46978 0.0
C361 C 0.26328 0.75024 0.48662 0.0
C362 C 0.30929 0.85518 0.48248 0.0
H363 H 0.50783 0.96606 0.50458 0.0
H364 H 0.44881 0.90699 0.50222 0.0
H365 H 0.34327 0.91497 0.4861 0.0
H366 H 0.18309 0.74603 0.45085 0.0
H367 H 0.24204 0.80469 0.45774 0.0
H368 H 0.34139 0.79461 0.48046 0.0
C369 C 0.44898 0.93069 0.49587 0.0
C370 C 0.3438 0.88918 0.48459 0.0
C371 C 0.48328 0.96507 0.4974 0.0
C372 C 0.20486 0.74666 0.46124 0.0
C373 C 0.23907 0.78065 0.46523 0.0
C374 C 0.34123 0.82063 0.48183 0.0
C375 C 0.41555 0.92714 0.48676 0.0
C376 C 0.37813 0.89 0.48508 0.0
C377 C 0.26943 0.78329 0.47774 0.0
C378 C 0.30703 0.81999 0.48093 0.0
H379 H 0.45295 1.01818 0.47479 0.0
H380 H 0.3944 0.95922 0.47165 0.0
H381 H 0.40089 0.85309 0.48374 0.0
H382 H 0.22571 0.69142 0.48942 0.0
H383 H 0.28536 0.75056 0.4965 0.0
C384 C 0.60998 0.45 0.83441 0.0
C385 C 0.63588 0.48152 0.82457 0.0
C386 C 0.61028 0.41592 0.83263 0.0
C387 C 0.64719 0.36331 0.79945 0.0
H388 H 0.61871 0.29892 0.8458 0.0
C389 C 0.66294 0.23086 0.7936 0.0
C390 C 0.63784 0.19831 0.80294 0.0
C391 C 0.66344 0.26497 0.79754 0.0
C392 C 0.6264 0.31609 0.83247 0.0
H393 H 0.6823 0.50044 0.8048 0.0
H394 H 0.68309 0.44204 0.80188 0.0
H395 H 0.61772 0.35729 0.84976 0.0
H396 H 0.59377 0.17752 0.82435 0.0
H397 H 0.5943 0.23669 0.83122 0.0
H398 H 0.65538 0.32224 0.78199 0.0
C399 C 0.66218 0.4433 0.81095 0.0
C400 C 0.62584 0.35004 0.83478 0.0
C401 C 0.66199 0.47735 0.81283 0.0
C402 C 0.61398 0.20181 0.81707 0.0
C403 C 0.61425 0.23609 0.82093 0.0
C404 C 0.64761 0.32942 0.79711 0.0
C405 C 0.63631 0.41163 0.82076 0.0
C406 C 0.63641 0.37463 0.81835 0.0
C407 C 0.63849 0.26838 0.81086 0.0
C408 C 0.63748 0.30493 0.81359 0.0
H409 H 0.58926 0.45159 0.84356 0.0
H410 H 0.58947 0.39262 0.8403 0.0
H411 H 0.65479 0.38036 0.78606 0.0
H412 H 0.68189 0.22971 0.78265 0.0
H413 H 0.68349 0.28871 0.78984 0.0
C414 C 0.57524 0.86934 0.5377 0.0
C415 C 0.57956 0.88644 0.51847 0.0
C416 C 0.56624 0.83206 0.53721 0.0
C417 C 0.53483 0.74526 0.50059 0.0
H418 H 0.59801 0.73007 0.54094 0.0
C419 C 0.57678 0.63388 0.48517 0.0
C420 C 0.58243 0.61744 0.50284 0.0
C421 C 0.56701 0.66133 0.4883 0.0
C422 C 0.57953 0.73346 0.52983 0.0
H423 H 0.57668 0.87763 0.48362 0.0
H424 H 0.56153 0.81289 0.48274 0.0
H425 H 0.59764 0.78834 0.54445 0.0
H426 H 0.57952 0.61465 0.53737 0.0
H427 H 0.56245 0.6626 0.54283 0.0
H428 H 0.51802 0.69075 0.48545 0.0
C429 C 0.56434 0.82791 0.4982 0.0
C430 C 0.57929 0.76693 0.53186 0.0
C431 C 0.57315 0.86509 0.4987 0.0
C432 C 0.57607 0.62742 0.52351 0.0
C433 C 0.56626 0.6548 0.52663 0.0
C434 C 0.53517 0.71174 0.49852 0.0
C435 C 0.56162 0.81121 0.51747 0.0
C436 C 0.55761 0.7736 0.51698 0.0
C437 C 0.56265 0.67279 0.50915 0.0
C438 C 0.55816 0.70586 0.51285 0.0
H439 H 0.57943 0.88498 0.55315 0.0
H440 H 0.56372 0.81981 0.55231 0.0
H441 H 0.51738 0.74933 0.48907 0.0
H442 H 0.58175 0.62694 0.46908 0.0
H443 H 0.56484 0.67495 0.47453 0.0
C444 C 0.77501 0.49259 0.78906 0.0
C445 C 0.79849 0.53152 0.78971 0.0
C446 C 0.78944 0.46873 0.7869 0.0
C447 C 0.83358 0.43598 0.8054 0.0
H448 H 0.92913 0.46885 0.783 0.0
C449 C 0.95816 0.47006 0.85766 0.0
C450 C 0.99109 0.47658 0.84892 0.0
C451 C 0.92486 0.45321 0.84469 0.0
C452 C 0.902 0.45802 0.78899 0.0
H453 H 0.85485 0.57578 0.78691 0.0
H454 H 0.8802 0.53473 0.78357 0.0
H455 H 0.8871 0.48606 0.76656 0.0
H456 H 1.01384 0.46503 0.82078 0.0
H457 H 0.95543 0.43543 0.79801 0.0
H458 H 0.84907 0.40905 0.82833 0.0
C459 C 0.85051 0.52217 0.78432 0.0
C460 C 0.87804 0.46845 0.77969 0.0
C461 C 0.83604 0.54591 0.78638 0.0
C462 C 0.98902 0.46128 0.82777 0.0
C463 C 0.95556 0.4443 0.81475 0.0
C464 C 0.85729 0.42499 0.81446 0.0
C465 C 0.82769 0.48342 0.78545 0.0
C466 C 0.84512 0.46038 0.78905 0.0
C467 C 0.92372 0.44253 0.82265 0.0
C468 C 0.89317 0.43886 0.80765 0.0
H469 H 0.74575 0.48073 0.79112 0.0
H470 H 0.77097 0.43902 0.78746 0.0
H471 H 0.80816 0.42863 0.81287 0.0
H472 H 0.95864 0.48149 0.87386 0.0
H473 H 0.90114 0.45257 0.85148 0.0
C474 C 0.30199 0.85673 0.165 0.0
C475 C 0.29947 0.82823 0.17701 0.0
C476 C 0.3358 0.88986 0.16469 0.0
C477 C 0.42349 0.94697 0.19831 0.0
H478 H 0.44829 1.00904 0.1508 0.0
C479 C 0.54023 0.0987 0.21094 0.0
C480 C 0.52818 0.12354 0.20573 0.0
C481 C 0.51997 0.06117 0.20276 0.0
C482 C 0.44184 0.99188 0.16413 0.0
H483 H 0.33059 0.81092 0.19705 0.0
H484 H 0.39 0.86858 0.19622 0.0
H485 H 0.39778 0.94401 0.14525 0.0
H486 H 0.4872 0.12927 0.18654 0.0
H487 H 0.4518 0.06376 0.17225 0.0
H488 H 0.46667 0.99494 0.21735 0.0
C489 C 0.36567 0.86577 0.18746 0.0
C490 C 0.41286 0.95473 0.16101 0.0
C491 C 0.33172 0.83277 0.18796 0.0
C492 C 0.49726 0.11083 0.19077 0.0
C493 C 0.47701 0.07329 0.18256 0.0
C494 C 0.45258 0.9839 0.20136 0.0
C495 C 0.36795 0.89509 0.17624 0.0
C496 C 0.40254 0.93222 0.17828 0.0
C497 C 0.48732 1.0478 0.18918 0.0
C498 C 0.46131 1.00709 0.18451 0.0
H499 H 0.27746 0.85405 0.15655 0.0
H500 H 0.33628 0.912 0.15619 0.0
H501 H 0.41608 0.93076 0.21208 0.0
H502 H 0.56445 0.10794 0.22209 0.0
H503 H 0.52888 1.04226 0.20784 0.0
C504 C 0.68841 0.33196 0.44668 0.0
C505 C 0.67178 0.31476 0.46503 0.0
C506 C 0.71978 0.36795 0.4489 0.0
C507 C 0.75363 0.45149 0.46188 0.0
H508 H 0.82125 0.48939 0.51365 0.0
C509 C 0.76352 0.54297 0.53677 0.0
C510 C 0.75803 0.56929 0.52668 0.0
C511 C 0.77874 0.52413 0.52589 0.0
C512 C 0.80323 0.47959 0.49884 0.0
H513 H 0.67678 0.31984 0.49998 0.0
H514 H 0.73079 0.38215 0.5039 0.0
H515 H 0.79742 0.42528 0.49806 0.0
H516 H 0.76998 0.60104 0.49886 0.0
H517 H 0.79614 0.56766 0.47969 0.0
H518 H 0.75613 0.50402 0.46373 0.0
C519 C 0.71996 0.36832 0.48778 0.0
C520 C 0.78961 0.44289 0.48991 0.0
C521 C 0.68845 0.3329 0.48555 0.0
C522 C 0.77287 0.58008 0.50678 0.0
C523 C 0.78802 0.56109 0.49583 0.0
C524 C 0.7672 0.48811 0.47079 0.0
C525 C 0.73533 0.38681 0.46952 0.0
C526 C 0.76209 0.42759 0.47253 0.0
C527 C 0.7886 0.53106 0.50464 0.0
C528 C 0.78941 0.50132 0.49049 0.0
H529 H 0.67623 0.31832 0.43067 0.0
H530 H 0.73098 0.38162 0.43457 0.0
H531 H 0.73272 0.44068 0.44835 0.0
H532 H 0.75246 0.53389 0.55206 0.0
H533 H 0.7786 0.50116 0.53325 0.0
C534 C 0.41619 0.60552 0.81107 0.0
C535 C 0.42336 0.58002 0.79958 0.0
C536 C 0.38852 0.61207 0.80316 0.0
C537 C 0.33506 0.62971 0.78009 0.0
H538 H 0.2403 0.53724 0.77139 0.0
C539 C 0.19902 0.62866 0.79046 0.0
C540 C 0.18167 0.60708 0.80745 0.0
C541 C 0.22564 0.62421 0.77985 0.0
C542 C 0.26658 0.56333 0.77327 0.0
H543 H 0.40841 0.5424 0.77044 0.0
H544 H 0.3593 0.55343 0.75671 0.0
H545 H 0.29763 0.53533 0.77097 0.0
H546 H 0.17795 0.56267 0.82582 0.0
H547 H 0.22279 0.55425 0.80698 0.0
H548 H 0.30395 0.6574 0.78421 0.0
C549 C 0.37533 0.5685 0.77175 0.0
C550 C 0.29941 0.56228 0.77293 0.0
C551 C 0.40338 0.56225 0.77958 0.0
C552 C 0.18981 0.57931 0.81255 0.0
C553 C 0.21574 0.57444 0.80172 0.0
C554 C 0.30222 0.63076 0.78033 0.0
C555 C 0.36725 0.59301 0.78367 0.0
C556 C 0.33388 0.59528 0.7776 0.0
C557 C 0.23478 0.59759 0.78576 0.0
C558 C 0.26776 0.59738 0.77821 0.0
H559 H 0.43153 0.61986 0.82641 0.0
H560 H 0.38255 0.63068 0.81288 0.0
H561 H 0.36134 0.65559 0.78341 0.0
H562 H 0.19295 0.64981 0.78578 0.0
H563 H 0.23996 0.64237 0.76756 0.0
C564 C 0.87264 0.37329 0.09225 0.0
C565 C 0.89626 0.41115 0.09963 0.0
C566 C 0.83408 0.35755 0.09125 0.0
C567 C 0.759 0.38089 0.098 0.0
H568 H 0.71409 0.2904 0.1271 0.0
C569 C 0.64911 0.34652 0.15806 0.0
C570 C 0.62235 0.30906 0.15993 0.0
C571 C 0.67542 0.35546 0.14299 0.0
C572 C 0.72574 0.31516 0.11848 0.0
H573 H 0.89791 0.46254 0.11085 0.0
H574 H 0.83129 0.43526 0.1094 0.0
H575 H 0.77462 0.31246 0.11375 0.0
H576 H 0.60015 0.2519 0.14607 0.0
H577 H 0.64666 0.26757 0.12001 0.0
H578 H 0.71091 0.38475 0.10423 0.0
C579 C 0.84217 0.41769 0.10388 0.0
C580 C 0.76054 0.32782 0.11075 0.0
C581 C 0.88057 0.4334 0.10477 0.0
C582 C 0.62096 0.28097 0.14538 0.0
C583 C 0.64743 0.28991 0.13039 0.0
C584 C 0.72428 0.36835 0.10591 0.0
C585 C 0.81842 0.37932 0.09779 0.0
C586 C 0.77829 0.36167 0.10122 0.0
C587 C 0.67563 0.32714 0.12952 0.0
C588 C 0.70799 0.33613 0.11697 0.0
H589 H 0.88397 0.35559 0.08791 0.0
H590 H 0.81656 0.32802 0.08614 0.0
H591 H 0.77153 0.40663 0.0903 0.0
H592 H 0.65121 0.36881 0.16911 0.0
H593 H 0.69708 0.38438 0.1429 0.0
C594 C 0.14124 0.61256 0.0885 0.0
C595 C 0.11094 0.60218 0.10095 0.0
C596 C 0.13541 0.60333 0.06617 0.0
C597 C 1.06849 0.58332 0.02057 0.0
H598 H 0.12076 0.54155 0.99037 0.0
C599 C 1.06571 0.51641 0.92968 0.0
C600 C 1.06847 0.54508 0.91772 0.0
C601 C 1.07035 0.52168 0.95223 0.0
C602 C 0.10582 0.55297 -0.00136 0.0
H603 H 1.05101 0.57477 0.10006 0.0
H604 H 1.04075 0.55861 0.06107 0.0
H605 H 0.13028 0.55387 0.02975 0.0
H606 H 0.07736 0.6013 0.91981 0.0
H607 H 0.08521 0.6104 0.95912 0.0
H608 H 1.04433 0.58283 0.98953 0.0
C609 C 1.06895 0.57368 0.06851 0.0
C610 C 0.1115 0.56031 0.02109 0.0
C611 C 0.07478 0.58262 0.0908 0.0
C612 C 0.07547 0.57888 0.92865 0.0
C613 C 0.07965 0.58397 0.95112 0.0
C614 C 1.06314 0.5764 -0.00185 0.0
C615 C 0.0992 0.58401 0.05597 0.0
C616 C 0.09292 0.57562 0.03224 0.0
C617 C 0.07721 0.55548 0.96313 0.0
C618 C 0.08187 0.56132 0.98696 0.0
H619 H 0.16938 0.62766 0.09603 0.0
H620 H 0.15921 0.61192 0.05683 0.0
H621 H 1.05402 0.59538 0.02875 0.0
H622 H 1.06043 0.49014 0.9216 0.0
H623 H 1.06814 0.49922 0.96115 0.0
C624 C 0.64082 0.13759 0.4297 0.0
C625 C 0.60801 0.1113 0.43802 0.0
C626 C 0.63926 0.15426 0.4112 0.0
C627 C 0.57501 0.17109 0.3772 0.0
H628 H 0.64183 0.1832 0.33303 0.0
C629 C 0.5432 0.17821 0.28788 0.0
C630 C 0.57222 0.20188 0.27589 0.0
C631 C 0.55022 0.17533 0.30951 0.0
C632 C 0.62345 0.18071 0.34539 0.0
H633 H 0.54801 0.08097 0.43342 0.0
H634 H 0.54512 0.10919 0.40082 0.0
H635 H 0.64913 0.16078 0.36704 0.0
H636 H 0.63095 0.24225 0.27709 0.0
H637 H 0.64351 0.23699 0.31516 0.0
H638 H 0.54839 0.18953 0.3551 0.0
C639 C 0.57208 0.11781 0.40881 0.0
C640 C 0.62758 0.1678 0.36488 0.0
C641 C 0.57368 0.10135 0.42734 0.0
C642 C 0.60815 0.22402 0.28613 0.0
C643 C 0.61532 0.22078 0.30778 0.0
C644 C 0.57074 0.18375 0.35766 0.0
C645 C 0.60483 0.14471 0.40061 0.0
C646 C 0.60285 0.16199 0.38081 0.0
C647 C 0.58652 0.19574 0.31953 0.0
C648 C 0.59441 0.18791 0.34138 0.0
H649 H 0.66766 0.14602 0.43781 0.0
H650 H 0.66499 0.17511 0.40544 0.0
H651 H 0.55606 0.16781 0.38935 0.0
H652 H 0.5153 0.16082 0.28023 0.0
H653 H 0.52755 0.15553 0.31805 0.0
C654 C 0.65862 0.60772 0.75874 0.0
C655 C 0.62823 0.57474 0.7645 0.0
C656 C 0.66809 0.61072 0.7374 0.0
C657 C 0.62791 0.57536 0.68224 0.0
H658 H 0.72773 0.60483 0.66776 0.0
C659 C 0.6582 0.55926 0.59473 0.0
C660 C 0.69192 0.5863 0.58767 0.0
C661 C 0.65201 0.55941 0.61652 0.0
C662 C 0.69986 0.59717 0.67151 0.0
H663 H 0.58381 0.51918 0.75259 0.0
H664 H 0.59978 0.5248 0.7152 0.0
H665 H 0.71404 0.60286 0.70558 0.0
H666 H 0.74587 0.63448 0.59775 0.0
H667 H 0.73475 0.63567 0.636 0.0
H668 H 0.61359 0.57046 0.64848 0.0
C669 C 0.61641 0.54816 0.72721 0.0
C670 C 0.69205 0.59591 0.69316 0.0
C671 C 0.60735 0.54493 0.74858 0.0
C672 C 0.71965 0.61331 0.60286 0.0
C673 C 0.71327 0.61382 0.62474 0.0
C674 C 0.63578 0.57715 0.66068 0.0
C675 C 0.64685 0.58106 0.72142 0.0
C676 C 0.65586 0.58443 0.69867 0.0
C677 C 0.67922 0.58698 0.63182 0.0
C678 C 0.6717 0.58744 0.65496 0.0
H679 H 0.67496 0.63125 0.77067 0.0
H680 H 0.69151 0.63647 0.73329 0.0
H681 H 0.59991 0.56702 0.68611 0.0
H682 H 0.63664 0.53767 0.58336 0.0
H683 H 0.6259 0.53763 0.62137 0.0
C684 C 0.55521 0.10475 0.56919 0.0
C685 C 0.58433 0.11198 0.55619 0.0
C686 C 0.5594 0.10281 0.59136 0.0
C687 C 0.61269 0.08685 0.63364 0.0
H688 H 0.58099 0.1412 0.67154 0.0
C689 C 0.64197 0.10564 0.72731 0.0
C690 C 0.61605 0.10833 0.73978 0.0
C691 C 0.63774 0.10341 0.7047 0.0
C692 C 0.5894 0.12523 0.66128 0.0
H693 H 0.64061 0.12243 0.55622 0.0
H694 H 0.64776 0.11845 0.59504 0.0
H695 H 0.5745 0.14247 0.63276 0.0
H696 H 0.56453 0.10883 0.73861 0.0
H697 H 0.55606 0.10321 0.69937 0.0
H698 H 0.62706 0.06907 0.66219 0.0
C699 C 0.62166 0.11427 0.58801 0.0
C700 C 0.58583 0.12617 0.63897 0.0
C701 C 0.61761 0.11665 0.56581 0.0
C702 C 0.58497 0.10694 0.72931 0.0
C703 C 0.58043 0.10418 0.7068 0.0
C704 C 0.61591 0.08554 0.65604 0.0
C705 C 0.59271 0.10771 0.60108 0.0
C706 C 0.59728 0.10691 0.62486 0.0
C707 C 0.60728 0.1035 0.69414 0.0
C708 C 0.60411 0.10459 0.6702 0.0
H709 H 0.52917 0.10088 0.56226 0.0
H710 H 0.53642 0.0973 0.60092 0.0
H711 H 0.62155 0.07151 0.62317 0.0
H712 H 0.66637 0.10704 0.73507 0.0
H713 H 0.65916 0.1032 0.69561 0.0
C714 C 0.66178 0.63639 0.90386 0.0
C715 C 0.64915 0.6042 0.88945 0.0
C716 C 0.65621 0.63348 0.92584 0.0
C717 C 0.64576 0.57356 0.96841 0.0
H718 H 0.60671 0.62775 0.0001 0.0
C719 C 0.62528 0.55839 0.05899 0.0
C720 C 0.63167 0.58984 0.07236 0.0
C721 C 0.62332 0.55839 0.03651 0.0
C722 C 0.6182 0.61281 -0.00834 0.0
H723 H 0.62046 0.54368 0.8867 0.0
H724 H 0.61164 0.53864 0.92523 0.0
H725 H 0.61189 0.63183 0.96139 0.0
H726 H 0.64083 0.6459 0.07286 0.0
H727 H 0.63898 0.64681 0.03372 0.0
H728 H 0.65392 0.55586 -0.00149 0.0
C729 C 0.62558 0.5661 0.91947 0.0
C730 C 0.62092 0.61502 0.96939 0.0
C731 C 0.63051 0.56899 0.89742 0.0
C732 C 0.63538 0.62111 0.06285 0.0
C733 C 0.63417 0.62146 0.04035 0.0
C734 C 0.64372 0.57188 0.99071 0.0
C735 C 0.63851 0.59833 0.93395 0.0
C736 C 0.63471 0.59539 0.95752 0.0
C737 C 0.62863 0.59027 0.02678 0.0
C738 C 0.62987 0.59145 0.00276 0.0
H739 H 0.67616 0.66388 0.89816 0.0
H740 H 0.66667 0.6588 0.93661 0.0
H741 H 0.65699 0.55853 0.95975 0.0
H742 H 0.6223 0.53391 0.06597 0.0
H743 H 0.61798 0.5334 0.02681 0.0
C744 C 0.12491 0.59666 0.23263 0.0
C745 C 0.08981 0.57454 0.22131 0.0
C746 C 0.12831 0.60255 0.25522 0.0
C747 C 0.07728 0.60242 0.30203 0.0
H748 H 0.1492 0.58733 0.33423 0.0
C749 C 0.08458 0.60765 0.39546 0.0
C750 C 0.11978 0.62313 0.40676 0.0
C751 C 0.08021 0.60052 0.37291 0.0
C752 C 0.12933 0.59229 0.32558 0.0
H753 H 1.03075 0.54205 0.22467 0.0
H754 H 1.03664 0.55289 0.26403 0.0
H755 H 0.14396 0.57941 0.29495 0.0
H756 H 0.17777 0.642 0.4029 0.0
H757 H 0.17055 0.63141 0.36389 0.0
H758 H 1.06322 0.61631 0.3325 0.0
C759 C 1.06153 0.56547 0.2555 0.0
C760 C 0.12629 0.58759 0.303 0.0
C761 C 1.05818 0.55912 0.23297 0.0
C762 C 0.1503 0.63068 0.39484 0.0
C763 C 0.14602 0.62399 0.37234 0.0
C764 C 0.08067 0.60766 0.32463 0.0
C765 C 0.09665 0.58695 0.26692 0.0
C766 C 0.10021 0.59255 0.29095 0.0
C767 C 0.11095 0.60894 0.36096 0.0
C768 C 0.10676 0.60266 0.33679 0.0
H769 H 0.14977 0.60898 0.22407 0.0
H770 H 0.15573 0.61951 0.26354 0.0
H771 H 1.05712 0.60677 0.2932 0.0
H772 H 1.06042 0.60173 0.40397 0.0
H773 H 1.05262 0.58834 0.36488 0.0
loop_
_geom_bond_atom_site_label_1
_geom_bond_atom_site_label_2
_geom_bond_distance
_geom_bond_site_symmetry_2
_ccdc_geom_bond_type
C0 Eu1 2.835 1_655 S
C0 C2 1.500 . S
C0 O20 1.257 . S
C0 O21 1.260 . S
Eu1 C0 2.835 1_455 S
Eu1 O20 2.473 1_455 S
Eu1 O21 2.480 1_455 S
Eu1 O22 2.430 . S
Eu1 O23 2.670 . S
Eu1 O24 2.394 1_455 S
Eu1 O29 2.355 . S
Eu1 O31 2.374 . S
C2 C0 1.500 . S
C2 C3 1.377 . S
C2 C7 1.377 . S
C3 C2 1.377 . S
C3 C4 1.395 . S
C3 H32 0.931 . S
C4 C3 1.395 . S
C4 C5 1.383 . S
C4 H33 0.931 . S
C5 C4 1.383 . S
C5 C6 1.394 . S
C6 C5 1.394 . S
C6 C7 1.378 . S
C6 H34 0.931 . S
C7 C2 1.377 . S
C7 C6 1.378 . S
C7 H35 0.931 . S
C8 O22 1.259 . S
C8 O23 1.270 . S
C9 O24 1.251 . S
C9 O25 1.251 . S
C10 Eu11 2.835 . S
C10 C12 1.500 . S
C10 O26 1.257 . S
C10 O27 1.260 . S
Eu11 C10 2.835 . S
Eu11 O23 2.355 . S
Eu11 O25 2.374 1_455 S
Eu11 O26 2.473 . S
Eu11 O27 2.480 . S
Eu11 O28 2.430 . S
Eu11 O29 2.670 . S
Eu11 O30 2.394 . S
C12 C10 1.500 . S
C12 C13 1.377 . S
C12 C17 1.377 . S
C13 C12 1.377 . S
C13 C14 1.395 . S
C13 H36 0.931 . S
C14 C13 1.395 . S
C14 C15 1.383 . S
C14 H37 0.931 . S
C15 C14 1.383 . S
C15 C16 1.394 . S
C16 C15 1.394 . S
C16 C17 1.378 . S
C16 H38 0.931 . S
C17 C12 1.377 . S
C17 C16 1.378 . S
C17 H39 0.931 . S
C18 O28 1.259 . S
C18 O29 1.270 . S
C19 O30 1.251 . S
C19 O31 1.251 . S
O20 C0 1.257 . S
O20 Eu1 2.473 1_655 S
O21 C0 1.260 . S
O21 Eu1 2.480 1_655 S
O22 Eu1 2.430 . S
O22 C8 1.259 . S
O23 Eu1 2.670 . S
O23 C8 1.270 . S
O23 Eu11 2.355 . S
O24 Eu1 2.394 1_655 S
O24 C9 1.251 . S
O25 C9 1.251 . S
O25 Eu11 2.374 1_655 S
O26 C10 1.257 . S
O26 Eu11 2.473 . S
O27 C10 1.260 . S
O27 Eu11 2.480 . S
O28 Eu11 2.430 . S
O28 C18 1.259 . S
O29 Eu1 2.355 . S
O29 Eu11 2.670 . S
O29 C18 1.270 . S
O30 Eu11 2.394 . S
O30 C19 1.251 . S
O31 Eu1 2.374 . S
O31 C19 1.251 . S
H32 C3 0.931 . S
H33 C4 0.931 . S
H34 C6 0.931 . S
H35 C7 0.931 . S
H36 C13 0.931 . S
H37 C14 0.931 . S
H38 C16 0.931 . S
H39 C17 0.931 . S
C40 Eu41 2.835 . S
C40 C42 1.500 . S
C40 O60 1.257 . S
C40 O61 1.260 . S
Eu41 C40 2.835 . S
Eu41 O60 2.473 . S
Eu41 O61 2.480 . S
Eu41 O62 2.430 . S
Eu41 O63 2.670 . S
Eu41 O64 2.394 . S
Eu41 O69 2.355 . S
Eu41 O71 2.374 . S
C42 C40 1.500 . S
C42 C43 1.377 . S
C42 C47 1.377 . S
C43 C42 1.377 . S
C43 C44 1.395 . S
C43 H72 0.931 . S
C44 C43 1.395 . S
C44 C45 1.383 . S
C44 H73 0.931 . S
C45 C44 1.383 . S
C45 C46 1.394 . S
C46 C45 1.394 . S
C46 C47 1.378 . S
C46 H74 0.931 . S
C47 C42 1.377 . S
C47 C46 1.378 . S
C47 H75 0.931 . S
C48 O62 1.259 . S
C48 O63 1.270 . S
C49 O64 1.251 . S
C49 O65 1.251 . S
C50 Eu51 2.835 1_565 S
C50 C52 1.500 . S
C50 O66 1.257 . S
C50 O67 1.260 . S
Eu51 C50 2.835 1_545 S
Eu51 O63 2.355 . S
Eu51 O65 2.374 . S
Eu51 O66 2.473 1_545 S
Eu51 O67 2.480 1_545 S
Eu51 O68 2.430 . S
Eu51 O69 2.670 . S
Eu51 O70 2.394 1_545 S
C52 C50 1.500 . S
C52 C53 1.377 . S
C52 C57 1.377 . S
C53 C52 1.377 . S
C53 C54 1.395 . S
C53 H76 0.931 . S
C54 C53 1.395 . S
C54 C55 1.383 . S
C54 H77 0.931 . S
C55 C54 1.383 . S
C55 C56 1.394 . S
C56 C55 1.394 . S
C56 C57 1.378 . S
C56 H78 0.931 . S
C57 C52 1.377 . S
C57 C56 1.378 . S
C57 H79 0.931 . S
C58 O68 1.259 . S
C58 O69 1.270 . S
C59 O70 1.251 . S
C59 O71 1.251 1_565 S
O60 C40 1.257 . S
O60 Eu41 2.473 . S
O61 C40 1.260 . S
O61 Eu41 2.480 . S
O62 Eu41 2.430 . S
O62 C48 1.259 . S
O63 Eu41 2.670 . S
O63 C48 1.270 . S
O63 Eu51 2.355 . S
O64 Eu41 2.394 . S
O64 C49 1.251 . S
O65 C49 1.251 . S
O65 Eu51 2.374 . S
O66 C50 1.257 . S
O66 Eu51 2.473 1_565 S
O67 C50 1.260 . S
O67 Eu51 2.480 1_565 S
O68 Eu51 2.430 . S
O68 C58 1.259 . S
O69 Eu41 2.355 . S
O69 Eu51 2.670 . S
O69 C58 1.270 . S
O70 Eu51 2.394 1_565 S
O70 C59 1.251 . S
O71 Eu41 2.374 . S
O71 C59 1.251 1_545 S
H72 C43 0.931 . S
H73 C44 0.931 . S
H74 C46 0.931 . S
H75 C47 0.931 . S
H76 C53 0.931 . S
H77 C54 0.931 . S
H78 C56 0.931 . S
H79 C57 0.931 . S
C80 Eu81 2.835 . S
C80 C82 1.500 . S
C80 O100 1.257 . S
C80 O101 1.260 . S
Eu81 C80 2.835 . S
Eu81 O100 2.473 . S
Eu81 O101 2.480 . S
Eu81 O102 2.430 . S
Eu81 O103 2.670 . S
Eu81 O104 2.394 . S
Eu81 O109 2.355 . S
Eu81 O111 2.374 . S
C82 C80 1.500 . S
C82 C83 1.377 . S
C82 C87 1.377 . S
C83 C82 1.377 . S
C83 C84 1.395 . S
C83 H112 0.931 . S
C84 C83 1.395 . S
C84 C85 1.383 . S
C84 H113 0.931 . S
C85 C84 1.383 . S
C85 C86 1.394 . S
C86 C85 1.394 . S
C86 C87 1.378 . S
C86 H114 0.931 . S
C87 C82 1.377 . S
C87 C86 1.378 . S
C87 H115 0.931 . S
C88 O102 1.259 . S
C88 O103 1.270 . S
C89 O104 1.251 . S
C89 O105 1.251 . S
C90 Eu91 2.835 . S
C90 C92 1.500 . S
C90 O106 1.257 . S
C90 O107 1.260 . S
Eu91 C90 2.835 . S
Eu91 O103 2.355 . S
Eu91 O105 2.374 . S
Eu91 O106 2.473 . S
Eu91 O107 2.480 . S
Eu91 O108 2.430 . S
Eu91 O109 2.670 . S
Eu91 O110 2.394 . S
C92 C90 1.500 . S
C92 C93 1.377 . S
C92 C97 1.377 . S
C93 C92 1.377 . S
C93 C94 1.395 . S
C93 H116 0.931 . S
C94 C93 1.395 . S
C94 C95 1.383 . S
C94 H117 0.931 . S
C95 C94 1.383 . S
C95 C96 1.394 . S
C96 C95 1.394 . S
C96 C97 1.378 . S
C96 H118 0.931 . S
C97 C92 1.377 . S
C97 C96 1.378 . S
C97 H119 0.931 . S
C98 O108 1.259 . S
C98 O109 1.270 . S
C99 O110 1.251 . S
C99 O111 1.251 . S
O100 C80 1.257 . S
O100 Eu81 2.473 . S
O101 C80 1.260 . S
O101 Eu81 2.480 . S
O102 Eu81 2.430 . S
O102 C88 1.259 . S
O103 Eu81 2.670 . S
O103 C88 1.270 . S
O103 Eu91 2.355 . S
O104 Eu81 2.394 . S
O104 C89 1.251 . S
O105 C89 1.251 . S
O105 Eu91 2.374 . S
O106 C90 1.257 . S
O106 Eu91 2.473 . S
O107 C90 1.260 . S
O107 Eu91 2.480 . S
O108 Eu91 2.430 . S
O108 C98 1.259 . S
O109 Eu81 2.355 . S
O109 Eu91 2.670 . S
O109 C98 1.270 . S
O110 Eu91 2.394 . S
O110 C99 1.251 . S
O111 Eu81 2.374 . S
O111 C99 1.251 . S
H112 C83 0.931 . S
H113 C84 0.931 . S
H114 C86 0.931 . S
H115 C87 0.931 . S
H116 C93 0.931 . S
H117 C94 0.931 . S
H118 C96 0.931 . S
H119 C97 0.931 . S
H120 C121 0.949 . S
C121 H120 0.949 . S
C121 C122 1.395 . S
C121 C123 1.391 . S
C122 C121 1.395 . S
C122 C125 1.390 . S
C123 C121 1.391 . S
C123 C127 1.387 . S
C123 C128 1.491 . S
H124 C125 0.950 . S
C125 C122 1.390 . S
C125 H124 0.950 . S
C125 C126 1.378 . S
C126 C125 1.378 . S
C126 C127 1.409 . S
C127 C123 1.387 . S
C127 C126 1.409 . S
C127 H129 0.951 . S
C128 C123 1.491 . S
C128 C130 1.382 . S
C128 C132 1.404 . S
H129 C127 0.951 . S
C130 C128 1.382 . S
C130 C131 1.390 . S
C130 H135 0.949 . S
C131 C130 1.390 . S
C131 C136 1.399 . S
C132 C128 1.404 . S
C132 H133 0.950 . S
C132 C134 1.375 . S
H133 C132 0.950 . S
C134 C132 1.375 . S
C134 C136 1.382 . S
C134 H138 0.950 . S
H135 C130 0.949 . S
C136 C131 1.399 . S
C136 C134 1.382 . S
C136 H137 0.952 . S
H137 C136 0.952 . S
H138 C134 0.950 . S
H139 C140 0.949 . S
C140 H139 0.949 . S
C140 C141 1.395 . S
C140 C142 1.391 . S
C141 C140 1.395 . S
C141 C144 1.390 . S
C142 C140 1.391 . S
C142 C146 1.387 . S
C142 C147 1.491 . S
H143 C144 0.950 . S
C144 C141 1.390 . S
C144 H143 0.950 . S
C144 C145 1.378 . S
C145 C144 1.378 . S
C145 C146 1.409 . S
C146 C142 1.387 . S
C146 C145 1.409 . S
C146 H148 0.951 . S
C147 C142 1.491 . S
C147 C149 1.382 . S
C147 C151 1.404 . S
H148 C146 0.951 . S
C149 C147 1.382 . S
C149 C150 1.390 . S
C149 H154 0.949 . S
C150 C149 1.390 . S
C150 C155 1.399 . S
C151 C147 1.404 . S
C151 H152 0.950 . S
C151 C153 1.375 . S
H152 C151 0.950 . S
C153 C151 1.375 . S
C153 C155 1.382 . S
C153 H157 0.950 . S
H154 C149 0.949 . S
C155 C150 1.399 . S
C155 C153 1.382 . S
C155 H156 0.952 . S
H156 C155 0.952 . S
H157 C153 0.950 . S
H158 C159 0.949 . S
C159 H158 0.949 . S
C159 C160 1.395 . S
C159 C161 1.391 . S
C160 C159 1.395 . S
C160 C163 1.390 1_455 S
C161 C159 1.391 . S
C161 C165 1.387 . S
C161 C166 1.491 . S
H162 C163 0.950 . S
C163 C160 1.390 1_655 S
C163 H162 0.950 . S
C163 C164 1.378 . S
C164 C163 1.378 . S
C164 C165 1.409 1_655 S
C165 C161 1.387 . S
C165 C164 1.409 1_455 S
C165 H167 0.951 1_455 S
C166 C161 1.491 . S
C166 C168 1.382 . S
C166 C170 1.404 . S
H167 C165 0.951 1_655 S
C168 C166 1.382 . S
C168 C169 1.390 . S
C168 H173 0.949 . S
C169 C168 1.390 . S
C169 C174 1.399 . S
C170 C166 1.404 . S
C170 H171 0.950 . S
C170 C172 1.375 . S
H171 C170 0.950 . S
C172 C170 1.375 . S
C172 C174 1.382 . S
C172 H176 0.950 . S
H173 C168 0.949 . S
C174 C169 1.399 . S
C174 C172 1.382 . S
C174 H175 0.952 . S
H175 C174 0.952 . S
H176 C172 0.950 . S
H177 C178 0.950 1_655 S
C178 H177 0.950 1_455 S
C178 C179 1.395 . S
C178 C180 1.391 . S
C179 C178 1.395 . S
C179 C182 1.390 . S
C180 C178 1.391 . S
C180 C184 1.387 . S
C180 C185 1.485 1_455 S
H181 C182 0.950 . S
C182 C179 1.390 . S
C182 H181 0.950 . S
C182 C183 1.378 . S
C183 C182 1.378 . S
C183 C184 1.409 . S
C184 C180 1.387 . S
C184 C183 1.409 . S
C184 H186 0.951 . S
C185 C180 1.485 1_655 S
C185 C187 1.383 . S
C185 C189 1.409 . S
H186 C184 0.951 . S
C187 C185 1.383 . S
C187 C188 1.390 . S
C187 H192 0.949 . S
C188 C187 1.390 . S
C188 C193 1.399 . S
C189 C185 1.409 . S
C189 H190 0.950 1_655 S
C189 C191 1.375 . S
H190 C189 0.950 1_455 S
C191 C189 1.375 . S
C191 C193 1.382 . S
C191 H195 0.950 . S
H192 C187 0.949 . S
C193 C188 1.399 . S
C193 C191 1.382 . S
C193 H194 0.952 . S
H194 C193 0.952 . S
H195 C191 0.950 . S
H196 C197 0.949 1_565 S
C197 H196 0.949 1_545 S
C197 C198 1.395 . S
C197 C199 1.391 . S
C198 C197 1.395 . S
C198 C201 1.390 . S
C199 C197 1.391 . S
C199 C203 1.387 . S
C199 C204 1.491 1_545 S
H200 C201 0.950 . S
C201 C198 1.390 . S
C201 H200 0.950 . S
C201 C202 1.378 . S
C202 C201 1.378 . S
C202 C203 1.409 . S
C203 C199 1.387 . S
C203 C202 1.409 . S
C203 H205 0.951 . S
C204 C199 1.491 1_565 S
C204 C206 1.382 . S
C204 C208 1.404 . S
H205 C203 0.951 . S
C206 C204 1.382 . S
C206 C207 1.390 . S
C206 H211 0.949 . S
C207 C206 1.390 . S
C207 C212 1.399 . S
C208 C204 1.404 . S
C208 H209 0.950 . S
C208 C210 1.375 . S
H209 C208 0.950 . S
C210 C208 1.375 . S
C210 C212 1.382 . S
C210 H214 0.950 . S
H211 C206 0.949 . S
C212 C207 1.399 . S
C212 C210 1.382 . S
C212 H213 0.952 . S
H213 C212 0.952 . S
H214 C210 0.950 . S
H215 C216 0.949 . S
C216 H215 0.949 . S
C216 C217 1.395 . S
C216 C218 1.391 . S
C217 C216 1.395 . S
C217 C220 1.390 . S
C218 C216 1.391 . S
C218 C222 1.387 . S
C218 C223 1.491 . S
H219 C220 0.950 . S
C220 C217 1.390 . S
C220 H219 0.950 . S
C220 C221 1.378 . S
C221 C220 1.378 . S
C221 C222 1.409 . S
C222 C218 1.387 . S
C222 C221 1.409 . S
C222 H224 0.951 . S
C223 C218 1.491 . S
C223 C225 1.382 . S
C223 C227 1.404 . S
H224 C222 0.951 . S
C225 C223 1.382 . S
C225 C226 1.390 . S
C225 H230 0.949 . S
C226 C225 1.390 . S
C226 C231 1.399 . S
C227 C223 1.404 . S
C227 H228 0.950 . S
C227 C229 1.375 . S
H228 C227 0.950 . S
C229 C227 1.375 . S
C229 C231 1.382 . S
C229 H233 0.950 . S
H230 C225 0.949 . S
C231 C226 1.399 . S
C231 C229 1.382 . S
C231 H232 0.952 . S
H232 C231 0.952 . S
H233 C229 0.950 . S
C234 C235 1.349 . S
C234 C236 1.327 . S
C234 H259 0.950 . S
C235 C234 1.349 . S
C235 C251 1.349 . S
C236 C234 1.327 . S
C236 C255 1.429 . S
C236 H260 0.950 . S
C237 C254 1.574 . S
C237 C256 1.368 . S
C237 H261 0.949 . S
H238 C242 0.949 . S
C239 C240 1.349 . S
C239 C241 1.327 . S
C239 H262 0.950 . S
C240 C239 1.349 . S
C240 C252 1.349 . S
C241 C239 1.327 . S
C241 C257 1.429 . S
C241 H263 0.950 . S
C242 H238 0.949 . S
C242 C250 1.574 . S
C242 C258 1.368 . S
H243 C251 0.950 . S
H244 C249 0.950 . S
H245 C250 0.949 . S
H246 C252 0.950 . S
H247 C253 0.950 . S
H248 C254 0.949 . S
C249 H244 0.950 . S
C249 C251 1.327 . S
C249 C255 1.429 . S
C250 C242 1.574 . S
C250 H245 0.949 . S
C250 C256 1.368 . S
C251 C235 1.349 . S
C251 H243 0.950 . S
C251 C249 1.327 . S
C252 C240 1.349 . S
C252 H246 0.950 . S
C252 C253 1.327 . S
C253 H247 0.950 . S
C253 C252 1.327 . S
C253 C257 1.429 . S
C254 C237 1.574 . S
C254 H248 0.949 . S
C254 C258 1.368 . S
C255 C236 1.429 . S
C255 C249 1.429 . S
C255 C256 1.523 . S
C256 C237 1.368 . S
C256 C250 1.368 . S
C256 C255 1.523 . S
C257 C241 1.429 . S
C257 C253 1.429 . S
C257 C258 1.523 . S
C258 C242 1.368 . S
C258 C254 1.368 . S
C258 C257 1.523 . S
H259 C234 0.950 . S
H260 C236 0.950 . S
H261 C237 0.949 . S
H262 C239 0.950 . S
H263 C241 0.950 . S
C264 C265 1.349 . S
C264 C266 1.327 . S
C264 H289 0.950 . S
C265 C264 1.349 . S
C265 C281 1.349 . S
C266 C264 1.327 . S
C266 C285 1.429 . S
C266 H290 0.950 . S
C267 C284 1.574 . S
C267 C286 1.368 . S
C267 H291 0.949 . S
H268 C272 0.949 . S
C269 C270 1.349 . S
C269 C271 1.327 . S
C269 H292 0.950 . S
C270 C269 1.349 . S
C270 C282 1.349 . S
C271 C269 1.327 . S
C271 C287 1.429 . S
C271 H293 0.950 . S
C272 H268 0.949 . S
C272 C280 1.574 . S
C272 C288 1.368 . S
H273 C281 0.950 . S
H274 C279 0.950 . S
H275 C280 0.949 . S
H276 C282 0.950 . S
H277 C283 0.950 . S
H278 C284 0.949 . S
C279 H274 0.950 . S
C279 C281 1.327 . S
C279 C285 1.429 . S
C280 C272 1.574 . S
C280 H275 0.949 . S
C280 C286 1.368 . S
C281 C265 1.349 . S
C281 H273 0.950 . S
C281 C279 1.327 . S
C282 C270 1.349 . S
C282 H276 0.950 . S
C282 C283 1.327 . S
C283 H277 0.950 . S
C283 C282 1.327 . S
C283 C287 1.429 . S
C284 C267 1.574 . S
C284 H278 0.949 . S
C284 C288 1.368 . S
C285 C266 1.429 . S
C285 C279 1.429 . S
C285 C286 1.523 . S
C286 C267 1.368 . S
C286 C280 1.368 . S
C286 C285 1.523 . S
C287 C271 1.429 . S
C287 C283 1.429 . S
C287 C288 1.523 . S
C288 C272 1.368 . S
C288 C284 1.368 . S
C288 C287 1.523 . S
H289 C264 0.950 . S
H290 C266 0.950 . S
H291 C267 0.949 . S
H292 C269 0.950 . S
H293 C271 0.950 . S
C294 C295 1.349 . S
C294 C296 1.327 . S
C294 H319 0.950 . S
C295 C294 1.349 . S
C295 C311 1.349 . S
C296 C294 1.327 . S
C296 C315 1.429 . S
C296 H320 0.950 . S
C297 C314 1.574 . S
C297 C316 1.368 . S
C297 H321 0.949 . S
H298 C302 0.949 . S
C299 C300 1.349 . S
C299 C301 1.327 . S
C299 H322 0.950 . S
C300 C299 1.349 . S
C300 C312 1.349 . S
C301 C299 1.327 . S
C301 C317 1.429 . S
C301 H323 0.950 . S
C302 H298 0.949 . S
C302 C310 1.574 . S
C302 C318 1.368 . S
H303 C311 0.950 . S
H304 C309 0.950 . S
H305 C310 0.949 . S
H306 C312 0.950 . S
H307 C313 0.950 . S
H308 C314 0.949 . S
C309 H304 0.950 . S
C309 C311 1.327 . S
C309 C315 1.429 . S
C310 C302 1.574 . S
C310 H305 0.949 . S
C310 C316 1.368 . S
C311 C295 1.349 . S
C311 H303 0.950 . S
C311 C309 1.327 . S
C312 C300 1.349 . S
C312 H306 0.950 . S
C312 C313 1.327 . S
C313 H307 0.950 . S
C313 C312 1.327 . S
C313 C317 1.429 . S
C314 C297 1.574 . S
C314 H308 0.949 . S
C314 C318 1.368 . S
C315 C296 1.429 . S
C315 C309 1.429 . S
C315 C316 1.523 . S
C316 C297 1.368 . S
C316 C310 1.368 . S
C316 C315 1.523 . S
C317 C301 1.429 . S
C317 C313 1.429 . S
C317 C318 1.523 . S
C318 C302 1.368 . S
C318 C314 1.368 . S
C318 C317 1.523 . S
H319 C294 0.950 . S
H320 C296 0.950 . S
H321 C297 0.949 . S
H322 C299 0.950 . S
H323 C301 0.950 . S
C324 C325 1.349 . S
C324 C326 1.327 . S
C324 H349 0.950 . S
C325 C324 1.349 . S
C325 C341 1.349 . S
C326 C324 1.327 . S
C326 C345 1.429 . S
C326 H350 0.950 . S
C327 C344 1.574 . S
C327 C346 1.368 . S
C327 H351 0.949 . S
H328 C332 0.949 . S
C329 C330 1.349 . S
C329 C331 1.327 . S
C329 H352 0.950 . S
C330 C329 1.349 . S
C330 C342 1.349 . S
C331 C329 1.327 . S
C331 C347 1.429 . S
C331 H353 0.950 . S
C332 H328 0.949 . S
C332 C340 1.574 . S
C332 C348 1.368 . S
H333 C341 0.950 . S
H334 C339 0.950 . S
H335 C340 0.949 . S
H336 C342 0.950 . S
H337 C343 0.950 . S
H338 C344 0.949 . S
C339 H334 0.950 . S
C339 C341 1.327 . S
C339 C345 1.429 . S
C340 C332 1.574 . S
C340 H335 0.949 . S
C340 C346 1.368 . S
C341 C325 1.349 . S
C341 H333 0.950 . S
C341 C339 1.327 . S
C342 C330 1.349 . S
C342 H336 0.950 . S
C342 C343 1.327 . S
C343 H337 0.950 . S
C343 C342 1.327 . S
C343 C347 1.429 . S
C344 C327 1.574 . S
C344 H338 0.949 . S
C344 C348 1.368 . S
C345 C326 1.429 . S
C345 C339 1.429 . S
C345 C346 1.523 . S
C346 C327 1.368 . S
C346 C340 1.368 . S
C346 C345 1.523 . S
C347 C331 1.429 . S
C347 C343 1.429 . S
C347 C348 1.523 . S
C348 C332 1.368 . S
C348 C344 1.368 . S
C348 C347 1.523 . S
H349 C324 0.950 . S
H350 C326 0.950 . S
H351 C327 0.949 . S
H352 C329 0.950 . S
H353 C331 0.950 . S
C354 C355 1.349 . S
C354 C356 1.327 . S
C354 H379 0.950 . S
C355 C354 1.349 . S
C355 C371 1.349 . S
C356 C354 1.327 . S
C356 C375 1.429 . S
C356 H380 0.950 . S
C357 C374 1.574 . S
C357 C376 1.368 . S
C357 H381 0.949 . S
H358 C362 0.949 . S
C359 C360 1.349 . S
C359 C361 1.327 . S
C359 H382 0.950 . S
C360 C359 1.349 . S
C360 C372 1.349 . S
C361 C359 1.327 . S
C361 C377 1.429 . S
C361 H383 0.950 . S
C362 H358 0.949 . S
C362 C370 1.574 . S
C362 C378 1.368 . S
H363 C371 0.950 . S
H364 C369 0.950 . S
H365 C370 0.949 . S
H366 C372 0.950 . S
H367 C373 0.950 . S
H368 C374 0.949 . S
C369 H364 0.950 . S
C369 C371 1.327 . S
C369 C375 1.429 . S
C370 C362 1.574 . S
C370 H365 0.949 . S
C370 C376 1.368 . S
C371 C355 1.349 . S
C371 H363 0.950 . S
C371 C369 1.327 . S
C372 C360 1.349 . S
C372 H366 0.950 . S
C372 C373 1.327 . S
C373 H367 0.950 . S
C373 C372 1.327 . S
C373 C377 1.429 . S
C374 C357 1.574 . S
C374 H368 0.949 . S
C374 C378 1.368 . S
C375 C356 1.429 . S
C375 C369 1.429 . S
C375 C376 1.523 . S
C376 C357 1.368 . S
C376 C370 1.368 . S
C376 C375 1.523 . S
C377 C361 1.429 . S
C377 C373 1.429 . S
C377 C378 1.523 . S
C378 C362 1.368 . S
C378 C374 1.368 . S
C378 C377 1.523 . S
H379 C354 0.950 . S
H380 C356 0.950 . S
H381 C357 0.949 . S
H382 C359 0.950 . S
H383 C361 0.950 . S
C384 C385 1.349 . S
C384 C386 1.327 . S
C384 H409 0.950 . S
C385 C384 1.349 . S
C385 C401 1.349 . S
C386 C384 1.327 . S
C386 C405 1.429 . S
C386 H410 0.950 . S
C387 C404 1.574 . S
C387 C406 1.368 . S
C387 H411 0.949 . S
H388 C392 0.949 . S
C389 C390 1.349 . S
C389 C391 1.327 . S
C389 H412 0.950 . S
C390 C389 1.349 . S
C390 C402 1.349 . S
C391 C389 1.327 . S
C391 C407 1.429 . S
C391 H413 0.950 . S
C392 H388 0.949 . S
C392 C400 1.574 . S
C392 C408 1.368 . S
H393 C401 0.950 . S
H394 C399 0.950 . S
H395 C400 0.949 . S
H396 C402 0.950 . S
H397 C403 0.950 . S
H398 C404 0.949 . S
C399 H394 0.950 . S
C399 C401 1.327 . S
C399 C405 1.429 . S
C400 C392 1.574 . S
C400 H395 0.949 . S
C400 C406 1.368 . S
C401 C385 1.349 . S
C401 H393 0.950 . S
C401 C399 1.327 . S
C402 C390 1.349 . S
C402 H396 0.950 . S
C402 C403 1.327 . S
C403 H397 0.950 . S
C403 C402 1.327 . S
C403 C407 1.429 . S
C404 C387 1.574 . S
C404 H398 0.949 . S
C404 C408 1.368 . S
C405 C386 1.429 . S
C405 C399 1.429 . S
C405 C406 1.523 . S
C406 C387 1.368 . S
C406 C400 1.368 . S
C406 C405 1.523 . S
C407 C391 1.429 . S
C407 C403 1.429 . S
C407 C408 1.523 . S
C408 C392 1.368 . S
C408 C404 1.368 . S
C408 C407 1.523 . S
H409 C384 0.950 . S
H410 C386 0.950 . S
H411 C387 0.949 . S
H412 C389 0.950 . S
H413 C391 0.950 . S
C414 C415 1.349 . S
C414 C416 1.327 . S
C414 H439 0.950 . S
C415 C414 1.349 . S
C415 C431 1.349 . S
C416 C414 1.327 . S
C416 C435 1.429 . S
C416 H440 0.950 . S
C417 C434 1.574 . S
C417 C436 1.368 . S
C417 H441 0.949 . S
H418 C422 0.949 . S
C419 C420 1.349 . S
C419 C421 1.327 . S
C419 H442 0.950 . S
C420 C419 1.349 . S
C420 C432 1.349 . S
C421 C419 1.327 . S
C421 C437 1.429 . S
C421 H443 0.950 . S
C422 H418 0.949 . S
C422 C430 1.574 . S
C422 C438 1.368 . S
H423 C431 0.950 . S
H424 C429 0.950 . S
H425 C430 0.949 . S
H426 C432 0.950 . S
H427 C433 0.950 . S
H428 C434 0.949 . S
C429 H424 0.950 . S
C429 C431 1.327 . S
C429 C435 1.429 . S
C430 C422 1.574 . S
C430 H425 0.949 . S
C430 C436 1.368 . S
C431 C415 1.349 . S
C431 H423 0.950 . S
C431 C429 1.327 . S
C432 C420 1.349 . S
C432 H426 0.950 . S
C432 C433 1.327 . S
C433 H427 0.950 . S
C433 C432 1.327 . S
C433 C437 1.429 . S
C434 C417 1.574 . S
C434 H428 0.949 . S
C434 C438 1.368 . S
C435 C416 1.429 . S
C435 C429 1.429 . S
C435 C436 1.523 . S
C436 C417 1.368 . S
C436 C430 1.368 . S
C436 C435 1.523 . S
C437 C421 1.429 . S
C437 C433 1.429 . S
C437 C438 1.523 . S
C438 C422 1.368 . S
C438 C434 1.368 . S
C438 C437 1.523 . S
H439 C414 0.950 . S
H440 C416 0.950 . S
H441 C417 0.949 . S
H442 C419 0.950 . S
H443 C421 0.950 . S
C444 C445 1.349 . S
C444 C446 1.327 . S
C444 H469 0.950 . S
C445 C444 1.349 . S
C445 C461 1.349 . S
C446 C444 1.327 . S
C446 C465 1.429 . S
C446 H470 0.950 . S
C447 C464 1.574 . S
C447 C466 1.368 . S
C447 H471 0.949 . S
H448 C452 0.949 . S
C449 C450 1.349 . S
C449 C451 1.327 . S
C449 H472 0.950 . S
C450 C449 1.349 . S
C450 C462 1.349 . S
C451 C449 1.327 . S
C451 C467 1.429 . S
C451 H473 0.950 . S
C452 H448 0.949 . S
C452 C460 1.574 . S
C452 C468 1.368 . S
H453 C461 0.950 . S
H454 C459 0.950 . S
H455 C460 0.949 . S
H456 C462 0.950 . S
H457 C463 0.950 . S
H458 C464 0.949 . S
C459 H454 0.950 . S
C459 C461 1.327 . S
C459 C465 1.429 . S
C460 C452 1.574 . S
C460 H455 0.949 . S
C460 C466 1.368 . S
C461 C445 1.349 . S
C461 H453 0.950 . S
C461 C459 1.327 . S
C462 C450 1.349 . S
C462 H456 0.950 . S
C462 C463 1.327 . S
C463 H457 0.950 . S
C463 C462 1.327 . S
C463 C467 1.429 . S
C464 C447 1.574 . S
C464 H458 0.949 . S
C464 C468 1.368 . S
C465 C446 1.429 . S
C465 C459 1.429 . S
C465 C466 1.523 . S
C466 C447 1.368 . S
C466 C460 1.368 . S
C466 C465 1.523 . S
C467 C451 1.429 . S
C467 C463 1.429 . S
C467 C468 1.523 . S
C468 C452 1.368 . S
C468 C464 1.368 . S
C468 C467 1.523 . S
H469 C444 0.950 . S
H470 C446 0.950 . S
H471 C447 0.949 . S
H472 C449 0.950 . S
H473 C451 0.950 . S
C474 C475 1.349 . S
C474 C476 1.327 . S
C474 H499 0.950 . S
C475 C474 1.349 . S
C475 C491 1.349 . S
C476 C474 1.327 . S
C476 C495 1.429 . S
C476 H500 0.950 . S
C477 C494 1.574 . S
C477 C496 1.368 . S
C477 H501 0.949 . S
H478 C482 0.949 . S
C479 C480 1.349 . S
C479 C481 1.327 1_545 S
C479 H502 0.950 . S
C480 C479 1.349 . S
C480 C492 1.349 . S
C481 C479 1.327 1_565 S
C481 C497 1.429 . S
C481 H503 0.950 . S
C482 H478 0.949 . S
C482 C490 1.574 . S
C482 C498 1.368 . S
H483 C491 0.950 . S
H484 C489 0.950 . S
H485 C490 0.949 . S
H486 C492 0.950 . S
H487 C493 0.950 . S
H488 C494 0.949 . S
C489 H484 0.950 . S
C489 C491 1.327 . S
C489 C495 1.429 . S
C490 C482 1.574 . S
C490 H485 0.949 . S
C490 C496 1.368 . S
C491 C475 1.349 . S
C491 H483 0.950 . S
C491 C489 1.327 . S
C492 C480 1.349 . S
C492 H486 0.950 . S
C492 C493 1.327 1_545 S
C493 H487 0.950 . S
C493 C492 1.327 1_565 S
C493 C497 1.429 . S
C494 C477 1.574 . S
C494 H488 0.949 . S
C494 C498 1.368 . S
C495 C476 1.429 . S
C495 C489 1.429 . S
C495 C496 1.523 . S
C496 C477 1.368 . S
C496 C490 1.368 . S
C496 C495 1.523 . S
C497 C481 1.429 . S
C497 C493 1.429 . S
C497 C498 1.523 . S
C498 C482 1.368 . S
C498 C494 1.368 . S
C498 C497 1.523 . S
H499 C474 0.950 . S
H500 C476 0.950 . S
H501 C477 0.949 . S
H502 C479 0.950 . S
H503 C481 0.950 . S
C504 C505 1.349 . S
C504 C506 1.327 . S
C504 H529 0.950 . S
C505 C504 1.349 . S
C505 C521 1.349 . S
C506 C504 1.327 . S
C506 C525 1.429 . S
C506 H530 0.950 . S
C507 C524 1.574 . S
C507 C526 1.368 . S
C507 H531 0.949 . S
H508 C512 0.949 . S
C509 C510 1.349 . S
C509 C511 1.327 . S
C509 H532 0.950 . S
C510 C509 1.349 . S
C510 C522 1.349 . S
C511 C509 1.327 . S
C511 C527 1.429 . S
C511 H533 0.950 . S
C512 H508 0.949 . S
C512 C520 1.574 . S
C512 C528 1.368 . S
H513 C521 0.950 . S
H514 C519 0.950 . S
H515 C520 0.949 . S
H516 C522 0.950 . S
H517 C523 0.950 . S
H518 C524 0.949 . S
C519 H514 0.950 . S
C519 C521 1.327 . S
C519 C525 1.429 . S
C520 C512 1.574 . S
C520 H515 0.949 . S
C520 C526 1.368 . S
C521 C505 1.349 . S
C521 H513 0.950 . S
C521 C519 1.327 . S
C522 C510 1.349 . S
C522 H516 0.950 . S
C522 C523 1.327 . S
C523 H517 0.950 . S
C523 C522 1.327 . S
C523 C527 1.429 . S
C524 C507 1.574 . S
C524 H518 0.949 . S
C524 C528 1.368 . S
C525 C506 1.429 . S
C525 C519 1.429 . S
C525 C526 1.523 . S
C526 C507 1.368 . S
C526 C520 1.368 . S
C526 C525 1.523 . S
C527 C511 1.429 . S
C527 C523 1.429 . S
C527 C528 1.523 . S
C528 C512 1.368 . S
C528 C524 1.368 . S
C528 C527 1.523 . S
H529 C504 0.950 . S
H530 C506 0.950 . S
H531 C507 0.949 . S
H532 C509 0.950 . S
H533 C511 0.950 . S
C534 C535 1.349 . S
C534 C536 1.327 . S
C534 H559 0.950 . S
C535 C534 1.349 . S
C535 C551 1.349 . S
C536 C534 1.327 . S
C536 C555 1.429 . S
C536 H560 0.950 . S
C537 C554 1.574 . S
C537 C556 1.368 . S
C537 H561 0.949 . S
H538 C542 0.949 . S
C539 C540 1.349 . S
C539 C541 1.327 . S
C539 H562 0.950 . S
C540 C539 1.349 . S
C540 C552 1.349 . S
C541 C539 1.327 . S
C541 C557 1.429 . S
C541 H563 0.950 . S
C542 H538 0.949 . S
C542 C550 1.574 . S
C542 C558 1.368 . S
H543 C551 0.950 . S
H544 C549 0.950 . S
H545 C550 0.949 . S
H546 C552 0.950 . S
H547 C553 0.950 . S
H548 C554 0.949 . S
C549 H544 0.950 . S
C549 C551 1.327 . S
C549 C555 1.429 . S
C550 C542 1.574 . S
C550 H545 0.949 . S
C550 C556 1.368 . S
C551 C535 1.349 . S
C551 H543 0.950 . S
C551 C549 1.327 . S
C552 C540 1.349 . S
C552 H546 0.950 . S
C552 C553 1.327 . S
C553 H547 0.950 . S
C553 C552 1.327 . S
C553 C557 1.429 . S
C554 C537 1.574 . S
C554 H548 0.949 . S
C554 C558 1.368 . S
C555 C536 1.429 . S
C555 C549 1.429 . S
C555 C556 1.523 . S
C556 C537 1.368 . S
C556 C550 1.368 . S
C556 C555 1.523 . S
C557 C541 1.429 . S
C557 C553 1.429 . S
C557 C558 1.523 . S
C558 C542 1.368 . S
C558 C554 1.368 . S
C558 C557 1.523 . S
H559 C534 0.950 . S
H560 C536 0.950 . S
H561 C537 0.949 . S
H562 C539 0.950 . S
H563 C541 0.950 . S
C564 C565 1.349 . S
C564 C566 1.327 . S
C564 H589 0.950 . S
C565 C564 1.349 . S
C565 C581 1.349 . S
C566 C564 1.327 . S
C566 C585 1.429 . S
C566 H590 0.950 . S
C567 C584 1.574 . S
C567 C586 1.368 . S
C567 H591 0.949 . S
H568 C572 0.949 . S
C569 C570 1.349 . S
C569 C571 1.327 . S
C569 H592 0.950 . S
C570 C569 1.349 . S
C570 C582 1.349 . S
C571 C569 1.327 . S
C571 C587 1.429 . S
C571 H593 0.950 . S
C572 H568 0.949 . S
C572 C580 1.574 . S
C572 C588 1.368 . S
H573 C581 0.950 . S
H574 C579 0.950 . S
H575 C580 0.949 . S
H576 C582 0.950 . S
H577 C583 0.950 . S
H578 C584 0.949 . S
C579 H574 0.950 . S
C579 C581 1.327 . S
C579 C585 1.429 . S
C580 C572 1.574 . S
C580 H575 0.949 . S
C580 C586 1.368 . S
C581 C565 1.349 . S
C581 H573 0.950 . S
C581 C579 1.327 . S
C582 C570 1.349 . S
C582 H576 0.950 . S
C582 C583 1.327 . S
C583 H577 0.950 . S
C583 C582 1.327 . S
C583 C587 1.429 . S
C584 C567 1.574 . S
C584 H578 0.949 . S
C584 C588 1.368 . S
C585 C566 1.429 . S
C585 C579 1.429 . S
C585 C586 1.523 . S
C586 C567 1.368 . S
C586 C580 1.368 . S
C586 C585 1.523 . S
C587 C571 1.429 . S
C587 C583 1.429 . S
C587 C588 1.523 . S
C588 C572 1.368 . S
C588 C584 1.368 . S
C588 C587 1.523 . S
H589 C564 0.950 . S
H590 C566 0.950 . S
H591 C567 0.949 . S
H592 C569 0.950 . S
H593 C571 0.950 . S
C594 C595 1.349 . S
C594 C596 1.327 . S
C594 H619 0.950 . S
C595 C594 1.349 . S
C595 C611 1.349 1_455 S
C596 C594 1.327 . S
C596 C615 1.429 . S
C596 H620 0.950 . S
C597 C614 1.598 . S
C597 C616 1.368 1_655 S
C597 H621 0.949 . S
H598 C602 0.949 . S
C599 C600 1.347 1_655 S
C599 C601 1.322 . S
C599 H622 0.950 . S
C600 C599 1.347 1_455 S
C600 C612 1.349 . S
C601 C599 1.322 . S
C601 C617 1.429 1_655 S
C601 H623 0.958 . S
C602 H598 0.949 . S
C602 C610 1.574 1_556 S
C602 C618 1.368 . S
H603 C611 0.953 . S
H604 C609 0.951 . S
H605 C610 0.949 . S
H606 C612 0.950 . S
H607 C613 0.950 . S
H608 C614 0.942 1_556 S
C609 H604 0.951 . S
C609 C611 1.332 . S
C609 C615 1.420 1_655 S
C610 C602 1.574 1_554 S
C610 H605 0.949 . S
C610 C616 1.368 . S
C611 C595 1.349 1_655 S
C611 H603 0.953 . S
C611 C609 1.332 . S
C612 C600 1.349 . S
C612 H606 0.950 . S
C612 C613 1.327 . S
C613 H607 0.950 . S
C613 C612 1.327 . S
C613 C617 1.429 . S
C614 C597 1.598 . S
C614 H608 0.942 1_554 S
C614 C618 1.352 1_654 S
C615 C596 1.429 . S
C615 C609 1.420 1_455 S
C615 C616 1.523 . S
C616 C597 1.368 1_455 S
C616 C610 1.368 . S
C616 C615 1.523 . S
C617 C601 1.429 1_455 S
C617 C613 1.429 . S
C617 C618 1.523 . S
C618 C602 1.368 . S
C618 C614 1.352 1_456 S
C618 C617 1.523 . S
H619 C594 0.950 . S
H620 C596 0.950 . S
H621 C597 0.949 . S
H622 C599 0.950 . S
H623 C601 0.958 . S
C624 C625 1.349 . S
C624 C626 1.327 . S
C624 H649 0.950 . S
C625 C624 1.349 . S
C625 C641 1.349 . S
C626 C624 1.327 . S
C626 C645 1.429 . S
C626 H650 0.950 . S
C627 C644 1.574 . S
C627 C646 1.368 . S
C627 H651 0.949 . S
H628 C632 0.949 . S
C629 C630 1.349 . S
C629 C631 1.327 . S
C629 H652 0.950 . S
C630 C629 1.349 . S
C630 C642 1.349 . S
C631 C629 1.327 . S
C631 C647 1.429 . S
C631 H653 0.950 . S
C632 H628 0.949 . S
C632 C640 1.574 . S
C632 C648 1.368 . S
H633 C641 0.950 . S
H634 C639 0.950 . S
H635 C640 0.949 . S
H636 C642 0.950 . S
H637 C643 0.950 . S
H638 C644 0.949 . S
C639 H634 0.950 . S
C639 C641 1.327 . S
C639 C645 1.429 . S
C640 C632 1.574 . S
C640 H635 0.949 . S
C640 C646 1.368 . S
C641 C625 1.349 . S
C641 H633 0.950 . S
C641 C639 1.327 . S
C642 C630 1.349 . S
C642 H636 0.950 . S
C642 C643 1.327 . S
C643 H637 0.950 . S
C643 C642 1.327 . S
C643 C647 1.429 . S
C644 C627 1.574 . S
C644 H638 0.949 . S
C644 C648 1.368 . S
C645 C626 1.429 . S
C645 C639 1.429 . S
C645 C646 1.523 . S
C646 C627 1.368 . S
C646 C640 1.368 . S
C646 C645 1.523 . S
C647 C631 1.429 . S
C647 C643 1.429 . S
C647 C648 1.523 . S
C648 C632 1.368 . S
C648 C644 1.368 . S
C648 C647 1.523 . S
H649 C624 0.950 . S
H650 C626 0.950 . S
H651 C627 0.949 . S
H652 C629 0.950 . S
H653 C631 0.950 . S
C654 C655 1.349 . S
C654 C656 1.327 . S
C654 H679 0.950 . S
C655 C654 1.349 . S
C655 C671 1.349 . S
C656 C654 1.327 . S
C656 C675 1.429 . S
C656 H680 0.950 . S
C657 C674 1.574 . S
C657 C676 1.368 . S
C657 H681 0.949 . S
H658 C662 0.949 . S
C659 C660 1.349 . S
C659 C661 1.327 . S
C659 H682 0.950 . S
C660 C659 1.349 . S
C660 C672 1.349 . S
C661 C659 1.327 . S
C661 C677 1.429 . S
C661 H683 0.950 . S
C662 H658 0.949 . S
C662 C670 1.574 . S
C662 C678 1.368 . S
H663 C671 0.950 . S
H664 C669 0.950 . S
H665 C670 0.949 . S
H666 C672 0.950 . S
H667 C673 0.950 . S
H668 C674 0.949 . S
C669 H664 0.950 . S
C669 C671 1.327 . S
C669 C675 1.429 . S
C670 C662 1.574 . S
C670 H665 0.949 . S
C670 C676 1.368 . S
C671 C655 1.349 . S
C671 H663 0.950 . S
C671 C669 1.327 . S
C672 C660 1.349 . S
C672 H666 0.950 . S
C672 C673 1.327 . S
C673 H667 0.950 . S
C673 C672 1.327 . S
C673 C677 1.429 . S
C674 C657 1.574 . S
C674 H668 0.949 . S
C674 C678 1.368 . S
C675 C656 1.429 . S
C675 C669 1.429 . S
C675 C676 1.523 . S
C676 C657 1.368 . S
C676 C670 1.368 . S
C676 C675 1.523 . S
C677 C661 1.429 . S
C677 C673 1.429 . S
C677 C678 1.523 . S
C678 C662 1.368 . S
C678 C674 1.368 . S
C678 C677 1.523 . S
H679 C654 0.950 . S
H680 C656 0.950 . S
H681 C657 0.949 . S
H682 C659 0.950 . S
H683 C661 0.950 . S
C684 C685 1.349 . S
C684 C686 1.327 . S
C684 H709 0.950 . S
C685 C684 1.349 . S
C685 C701 1.349 . S
C686 C684 1.327 . S
C686 C705 1.429 . S
C686 H710 0.950 . S
C687 C704 1.574 . S
C687 C706 1.368 . S
C687 H711 0.949 . S
H688 C692 0.949 . S
C689 C690 1.349 . S
C689 C691 1.327 . S
C689 H712 0.950 . S
C690 C689 1.349 . S
C690 C702 1.349 . S
C691 C689 1.327 . S
C691 C707 1.429 . S
C691 H713 0.950 . S
C692 H688 0.949 . S
C692 C700 1.574 . S
C692 C708 1.368 . S
H693 C701 0.950 . S
H694 C699 0.950 . S
H695 C700 0.949 . S
H696 C702 0.950 . S
H697 C703 0.950 . S
H698 C704 0.949 . S
C699 H694 0.950 . S
C699 C701 1.327 . S
C699 C705 1.429 . S
C700 C692 1.574 . S
C700 H695 0.949 . S
C700 C706 1.368 . S
C701 C685 1.349 . S
C701 H693 0.950 . S
C701 C699 1.327 . S
C702 C690 1.349 . S
C702 H696 0.950 . S
C702 C703 1.327 . S
C703 H697 0.950 . S
C703 C702 1.327 . S
C703 C707 1.429 . S
C704 C687 1.574 . S
C704 H698 0.949 . S
C704 C708 1.368 . S
C705 C686 1.429 . S
C705 C699 1.429 . S
C705 C706 1.523 . S
C706 C687 1.368 . S
C706 C700 1.368 . S
C706 C705 1.523 . S
C707 C691 1.429 . S
C707 C703 1.429 . S
C707 C708 1.523 . S
C708 C692 1.368 . S
C708 C704 1.368 . S
C708 C707 1.523 . S
H709 C684 0.950 . S
H710 C686 0.950 . S
H711 C687 0.949 . S
H712 C689 0.950 . S
H713 C691 0.950 . S
C714 C715 1.349 . S
C714 C716 1.327 . S
C714 H739 0.950 . S
C715 C714 1.349 . S
C715 C731 1.349 . S
C716 C714 1.327 . S
C716 C735 1.429 . S
C716 H740 0.950 . S
C717 C734 1.574 1_556 S
C717 C736 1.368 . S
C717 H741 0.949 . S
H718 C722 0.949 1_554 S
C719 C720 1.349 . S
C719 C721 1.327 . S
C719 H742 0.950 . S
C720 C719 1.349 . S
C720 C732 1.349 . S
C721 C719 1.327 . S
C721 C737 1.429 . S
C721 H743 0.950 . S
C722 H718 0.949 1_556 S
C722 C730 1.574 . S
C722 C738 1.368 1_556 S
H723 C731 0.950 . S
H724 C729 0.950 . S
H725 C730 0.949 . S
H726 C732 0.950 . S
H727 C733 0.950 . S
H728 C734 0.949 . S
C729 H724 0.950 . S
C729 C731 1.327 . S
C729 C735 1.429 . S
C730 C722 1.574 . S
C730 H725 0.949 . S
C730 C736 1.368 . S
C731 C715 1.349 . S
C731 H723 0.950 . S
C731 C729 1.327 . S
C732 C720 1.349 . S
C732 H726 0.950 . S
C732 C733 1.327 . S
C733 H727 0.950 . S
C733 C732 1.327 . S
C733 C737 1.429 . S
C734 C717 1.574 1_554 S
C734 H728 0.949 . S
C734 C738 1.368 . S
C735 C716 1.429 . S
C735 C729 1.429 . S
C735 C736 1.523 . S
C736 C717 1.368 . S
C736 C730 1.368 . S
C736 C735 1.523 . S
C737 C721 1.429 . S
C737 C733 1.429 . S
C737 C738 1.523 . S
C738 C722 1.368 1_554 S
C738 C734 1.368 . S
C738 C737 1.523 . S
H739 C714 0.950 . S
H740 C716 0.950 . S
H741 C717 0.949 . S
H742 C719 0.950 . S
H743 C721 0.950 . S
C744 C745 1.349 . S
C744 C746 1.327 . S
C744 H769 0.950 . S
C745 C744 1.349 . S
C745 C761 1.349 . S
C746 C744 1.327 . S
C746 C765 1.429 . S
C746 H770 0.950 . S
C747 C764 1.574 . S
C747 C766 1.368 . S
C747 H771 0.949 . S
H748 C752 0.949 . S
C749 C750 1.349 . S
C749 C751 1.327 . S
C749 H772 0.950 . S
C750 C749 1.349 . S
C750 C762 1.349 . S
C751 C749 1.327 . S
C751 C767 1.429 . S
C751 H773 0.950 . S
C752 H748 0.949 . S
C752 C760 1.574 . S
C752 C768 1.368 . S
H753 C761 0.950 . S
H754 C759 0.950 . S
H755 C760 0.949 . S
H756 C762 0.950 . S
H757 C763 0.950 . S
H758 C764 0.949 . S
C759 H754 0.950 . S
C759 C761 1.327 . S
C759 C765 1.429 . S
C760 C752 1.574 . S
C760 H755 0.949 . S
C760 C766 1.368 . S
C761 C745 1.349 . S
C761 H753 0.950 . S
C761 C759 1.327 . S
C762 C750 1.349 . S
C762 H756 0.950 . S
C762 C763 1.327 . S
C763 H757 0.950 . S
C763 C762 1.327 . S
C763 C767 1.429 . S
C764 C747 1.574 . S
C764 H758 0.949 . S
C764 C768 1.368 . S
C765 C746 1.429 . S
C765 C759 1.429 . S
C765 C766 1.523 . S
C766 C747 1.368 . S
C766 C760 1.368 . S
C766 C765 1.523 . S
C767 C751 1.429 . S
C767 C763 1.429 . S
C767 C768 1.523 . S
C768 C752 1.368 . S
C768 C764 1.368 . S
C768 C767 1.523 . S
H769 C744 0.950 . S
H770 C746 0.950 . S
H771 C747 0.949 . S
H772 C749 0.950 . S
H773 C751 0.950 . S
C235 C19 3.103 . S
C240 C226 3.032 . S
C265 C49 3.198 . S
C270 C188 3.118 . S
C295 C99 3.086 . S
C300 C207 3.018 . S
C325 C9 2.958 . S
C330 C221 2.924 . S
C360 C183 2.859 . S
C355 C59 2.886 . S
C390 C202 2.930 . S
C385 C89 2.963 . S
C415 C55 0.513 . S
C420 C150 0.605 . S
C445 C85 0.206 . S
C450 C164 0.242 . S
C475 C15 0.114 . S
C480 C126 0.259 . S
C510 C145 0.258 . S
C505 C45 0.212 . S
C540 C169 0.547 . S
C535 C95 0.408 . S
C565 C5 0.326 . S
C570 C131 0.471 . S
C600 C160 1.446 . S
C595 C18 1.440 . S
C625 C58 1.303 . S
C630 C122 1.358 . S
C655 C98 1.368 . S
C660 C141 1.393 . S
C690 C198 1.710 . S
C685 C48 1.687 . S
C720 C217 1.741 . S
C715 C88 1.693 . S
C745 C8 1.687 . S
C750 C179 1.809 . S
