# Generated by pormake.
# Topology eea, (3,6)-cn, num edge types: 1
# Building blocks:
#     Node 0, Type 0, BuildingBlock: ESEHIV_clean_linker_0, # of connection points: 3
#     Node 1, Type 0, BuildingBlock: ESEHIV_clean_linker_0, # of connection points: 3
#     Node 2, Type 0, BuildingBlock: ESEHIV_clean_linker_0, # of connection points: 3
#     Node 3, Type 0, BuildingBlock: ESEHIV_clean_linker_0, # of connection points: 3
#     Node 4, Type 0, BuildingBlock: ESEHIV_clean_linker_0, # of connection points: 3
#     Node 5, Type 0, BuildingBlock: ESEHIV_clean_linker_0, # of connection points: 3
#     Node 6, Type 0, BuildingBlock: ESEHIV_clean_linker_0, # of connection points: 3
#     Node 7, Type 0, BuildingBlock: ESEHIV_clean_linker_0, # of connection points: 3
#     Node 8, Type 0, BuildingBlock: ESEHIV_clean_linker_0, # of connection points: 3
#     Node 9, Type 0, BuildingBlock: ESEHIV_clean_linker_0, # of connection points: 3
#     Node 10, Type 0, BuildingBlock: ESEHIV_clean_linker_0, # of connection points: 3
#     Node 11, Type 0, BuildingBlock: ESEHIV_clean_linker_0, # of connection points: 3
#     Node 12, Type 0, BuildingBlock: ESEHIV_clean_linker_0, # of connection points: 3
#     Node 13, Type 0, BuildingBlock: ESEHIV_clean_linker_0, # of connection points: 3
#     Node 14, Type 0, BuildingBlock: ESEHIV_clean_linker_0, # of connection points: 3
#     Node 15, Type 0, BuildingBlock: ESEHIV_clean_linker_0, # of connection points: 3
#     Node 16, Type 0, BuildingBlock: ESEHIV_clean_linker_0, # of connection points: 3
#     Node 17, Type 0, BuildingBlock: ESEHIV_clean_linker_0, # of connection points: 3
#     Node 18, Type 1, BuildingBlock: KUMBOL_clean_sbu_0, # of connection points: 6
#     Node 19, Type 1, BuildingBlock: KUMBOL_clean_sbu_0, # of connection points: 6
#     Node 20, Type 1, BuildingBlock: KUMBOL_clean_sbu_0, # of connection points: 6
#     Node 21, Type 1, BuildingBlock: KUMBOL_clean_sbu_0, # of connection points: 6
#     Node 22, Type 1, BuildingBlock: KUMBOL_clean_sbu_0, # of connection points: 6
#     Node 23, Type 1, BuildingBlock: KUMBOL_clean_sbu_0, # of connection points: 6
#     Node 24, Type 1, BuildingBlock: KUMBOL_clean_sbu_0, # of connection points: 6
#     Node 25, Type 1, BuildingBlock: KUMBOL_clean_sbu_0, # of connection points: 6
#     Node 26, Type 1, BuildingBlock: KUMBOL_clean_sbu_0, # of connection points: 6
#     Edge 27, Type (0, 1), BuildingBlock: CIFDUS_clean_linker_0, # of connection points: 2
#     Edge 28, Type (0, 1), BuildingBlock: CIFDUS_clean_linker_0, # of connection points: 2
#     Edge 29, Type (0, 1), BuildingBlock: CIFDUS_clean_linker_0, # of connection points: 2
#     Edge 30, Type (0, 1), BuildingBlock: CIFDUS_clean_linker_0, # of connection points: 2
#     Edge 31, Type (0, 1), BuildingBlock: CIFDUS_clean_linker_0, # of connection points: 2
#     Edge 32, Type (0, 1), BuildingBlock: CIFDUS_clean_linker_0, # of connection points: 2
#     Edge 33, Type (0, 1), BuildingBlock: CIFDUS_clean_linker_0, # of connection points: 2
#     Edge 34, Type (0, 1), BuildingBlock: CIFDUS_clean_linker_0, # of connection points: 2
#     Edge 35, Type (0, 1), BuildingBlock: CIFDUS_clean_linker_0, # of connection points: 2
#     Edge 36, Type (0, 1), BuildingBlock: CIFDUS_clean_linker_0, # of connection points: 2
#     Edge 37, Type (0, 1), BuildingBlock: CIFDUS_clean_linker_0, # of connection points: 2
#     Edge 38, Type (0, 1), BuildingBlock: CIFDUS_clean_linker_0, # of connection points: 2
#     Edge 39, Type (0, 1), BuildingBlock: CIFDUS_clean_linker_0, # of connection points: 2
#     Edge 40, Type (0, 1), BuildingBlock: CIFDUS_clean_linker_0, # of connection points: 2
#     Edge 41, Type (0, 1), BuildingBlock: CIFDUS_clean_linker_0, # of connection points: 2
#     Edge 42, Type (0, 1), BuildingBlock: CIFDUS_clean_linker_0, # of connection points: 2
#     Edge 43, Type (0, 1), BuildingBlock: CIFDUS_clean_linker_0, # of connection points: 2
#     Edge 44, Type (0, 1), BuildingBlock: CIFDUS_clean_linker_0, # of connection points: 2
#     Edge 45, Type (0, 1), BuildingBlock: CIFDUS_clean_linker_0, # of connection points: 2
#     Edge 46, Type (0, 1), BuildingBlock: CIFDUS_clean_linker_0, # of connection points: 2
#     Edge 47, Type (0, 1), BuildingBlock: CIFDUS_clean_linker_0, # of connection points: 2
#     Edge 48, Type (0, 1), BuildingBlock: CIFDUS_clean_linker_0, # of connection points: 2
#     Edge 49, Type (0, 1), BuildingBlock: CIFDUS_clean_linker_0, # of connection points: 2
#     Edge 50, Type (0, 1), BuildingBlock: CIFDUS_clean_linker_0, # of connection points: 2
#     Edge 51, Type (0, 1), BuildingBlock: CIFDUS_clean_linker_0, # of connection points: 2
#     Edge 52, Type (0, 1), BuildingBlock: CIFDUS_clean_linker_0, # of connection points: 2
#     Edge 53, Type (0, 1), BuildingBlock: CIFDUS_clean_linker_0, # of connection points: 2
#     Edge 54, Type (0, 1), BuildingBlock: CIFDUS_clean_linker_0, # of connection points: 2
#     Edge 55, Type (0, 1), BuildingBlock: CIFDUS_clean_linker_0, # of connection points: 2
#     Edge 56, Type (0, 1), BuildingBlock: CIFDUS_clean_linker_0, # of connection points: 2
#     Edge 57, Type (0, 1), BuildingBlock: CIFDUS_clean_linker_0, # of connection points: 2
#     Edge 58, Type (0, 1), BuildingBlock: CIFDUS_clean_linker_0, # of connection points: 2
#     Edge 59, Type (0, 1), BuildingBlock: CIFDUS_clean_linker_0, # of connection points: 2
#     Edge 60, Type (0, 1), BuildingBlock: CIFDUS_clean_linker_0, # of connection points: 2
#     Edge 61, Type (0, 1), BuildingBlock: CIFDUS_clean_linker_0, # of connection points: 2
#     Edge 62, Type (0, 1), BuildingBlock: CIFDUS_clean_linker_0, # of connection points: 2
#     Edge 63, Type (0, 1), BuildingBlock: CIFDUS_clean_linker_0, # of connection points: 2
#     Edge 64, Type (0, 1), BuildingBlock: CIFDUS_clean_linker_0, # of connection points: 2
#     Edge 65, Type (0, 1), BuildingBlock: CIFDUS_clean_linker_0, # of connection points: 2
#     Edge 66, Type (0, 1), BuildingBlock: CIFDUS_clean_linker_0, # of connection points: 2
#     Edge 67, Type (0, 1), BuildingBlock: CIFDUS_clean_linker_0, # of connection points: 2
#     Edge 68, Type (0, 1), BuildingBlock: CIFDUS_clean_linker_0, # of connection points: 2
#     Edge 69, Type (0, 1), BuildingBlock: CIFDUS_clean_linker_0, # of connection points: 2
#     Edge 70, Type (0, 1), BuildingBlock: CIFDUS_clean_linker_0, # of connection points: 2
#     Edge 71, Type (0, 1), BuildingBlock: CIFDUS_clean_linker_0, # of connection points: 2
#     Edge 72, Type (0, 1), BuildingBlock: CIFDUS_clean_linker_0, # of connection points: 2
#     Edge 73, Type (0, 1), BuildingBlock: CIFDUS_clean_linker_0, # of connection points: 2
#     Edge 74, Type (0, 1), BuildingBlock: CIFDUS_clean_linker_0, # of connection points: 2
#     Edge 75, Type (0, 1), BuildingBlock: CIFDUS_clean_linker_0, # of connection points: 2
#     Edge 76, Type (0, 1), BuildingBlock: CIFDUS_clean_linker_0, # of connection points: 2
#     Edge 77, Type (0, 1), BuildingBlock: CIFDUS_clean_linker_0, # of connection points: 2
#     Edge 78, Type (0, 1), BuildingBlock: CIFDUS_clean_linker_0, # of connection points: 2
#     Edge 79, Type (0, 1), BuildingBlock: CIFDUS_clean_linker_0, # of connection points: 2
#     Edge 80, Type (0, 1), BuildingBlock: CIFDUS_clean_linker_0, # of connection points: 2
# Relax obj value: 0.007
# Max RMSD: 0.088
# Mean RMSD: 0.080
data_MOF--net-eea--node1-KUMBOL_clean_sbu_0--node2-ESEHIV_clean_linker_0--edge1-CIFDUS_clean_linker_0
_symmetry_space_group_name_H-M    P1
_symmetry_Int_Tables_number       1
_symmetry_cell_setting            triclinic
loop_
_symmetry_equiv_pos_as_xyz
'x, y, z'
_cell_length_a     40.882218
_cell_length_b     42.194551
_cell_length_c     62.720034
_cell_angle_alpha  89.698367
_cell_angle_beta   89.560295
_cell_angle_gamma 119.9163
loop_
_atom_site_label
_atom_site_type_symbol
_atom_site_fract_x
_atom_site_fract_y
_atom_site_fract_z
_atom_type_partial_charge
H0 H 0.29044 0.19297 0.44924 0.0
H1 H 0.28996 0.0913 0.44635 0.0
H2 H 0.24062 0.12173 0.3956 0.0
C3 C 0.28302 0.16786 0.44094 0.0
C4 C 0.26366 0.16029 0.42143 0.0
C5 C 0.29349 0.14356 0.44971 0.0
C6 C 0.28329 0.11078 0.43916 0.0
C7 C 0.26416 0.1025 0.41968 0.0
C8 C 0.25436 0.12741 0.41092 0.0
H9 H 0.82027 0.08687 0.43766 0.0
H10 H 0.92786 0.18561 0.43946 0.0
H11 H 0.90044 0.1126 0.38634 0.0
C12 C 0.84749 0.10505 0.43034 0.0
C13 C 0.85686 0.09582 0.41059 0.0
C14 C 0.87265 0.13733 0.44088 0.0
C15 C 0.90837 0.16038 0.43163 0.0
C16 C 0.91873 0.15138 0.41202 0.0
C17 C 0.89294 0.11894 0.40171 0.0
H18 H 0.80929 0.73117 0.4446 0.0
H19 H 0.9134 0.72956 0.44809 0.0
H20 H 0.888 0.77257 0.39196 0.0
C21 C 0.8362 0.73729 0.43763 0.0
C22 C 0.84572 0.75289 0.41706 0.0
C23 C 0.8602 0.72864 0.44906 0.0
C24 C 0.89501 0.73689 0.4397 0.0
C25 C 0.90558 0.75302 0.41913 0.0
C26 C 0.88091 0.7615 0.40804 0.0
H27 H 0.07464 0.24909 0.60169 0.0
H28 H 0.18842 0.26893 0.59799 0.0
H29 H 0.11773 0.21059 0.65196 0.0
C30 C 0.09757 0.24663 0.60852 0.0
C31 C 0.09204 0.22819 0.62816 0.0
C32 C 0.13199 0.26065 0.59728 0.0
C33 C 0.16149 0.25739 0.60632 0.0
C34 C 0.1568 0.23979 0.62612 0.0
C35 C 0.12164 0.22438 0.63673 0.0
H36 H 0.74861 0.92123 0.59399 0.0
H37 H 0.74121 0.81658 0.58737 0.0
H38 H 0.79224 0.88171 0.643 0.0
C39 C 0.75356 0.90005 0.60031 0.0
C40 C 0.77205 0.9054 0.61984 0.0
C41 C 0.74173 0.86788 0.58866 0.0
C42 C 0.7499 0.84128 0.5964 0.0
C43 C 0.76871 0.84624 0.6159 0.0
C44 C 0.7793 0.87828 0.62754 0.0
H45 H 0.08209 0.81605 0.59367 0.0
H46 H 0.1861 0.9185 0.59764 0.0
H47 H 0.09928 0.88894 0.6454 0.0
C48 C 0.09965 0.84177 0.6016 0.0
C49 C 0.08668 0.84966 0.62063 0.0
C50 C 0.13542 0.8668 0.593 0.0
C51 C 0.15826 0.89955 0.60392 0.0
C52 C 0.14576 0.90785 0.62295 0.0
C53 C 0.10958 0.88291 0.63089 0.0
H54 H 0.91915 0.49964 0.78852 0.0
H55 H 0.92484 0.40072 0.79051 0.0
H56 H 0.87018 0.42096 0.73822 0.0
C57 C 0.91307 0.47397 0.78136 0.0
C58 C 0.89332 0.46306 0.76202 0.0
C59 C 0.92396 0.45127 0.79188 0.0
C60 C 0.91556 0.41782 0.78272 0.0
C61 C 0.8963 0.40675 0.76335 0.0
C62 C 0.88516 0.42945 0.75316 0.0
H63 H 0.50956 0.40987 0.78245 0.0
H64 H 0.60952 0.51579 0.78341 0.0
H65 H 0.592 0.44226 0.7318 0.0
C66 C 0.53588 0.43006 0.77503 0.0
C67 C 0.54776 0.4218 0.75579 0.0
C68 C 0.55766 0.46388 0.78506 0.0
C69 C 0.59255 0.48959 0.77584 0.0
C70 C 0.60535 0.48171 0.7567 0.0
C71 C 0.58277 0.4478 0.74686 0.0
H72 H 0.49086 0.09611 0.77896 0.0
H73 H 0.58546 0.07795 0.78105 0.0
H74 H 0.56955 0.13087 0.72636 0.0
C75 C 0.51642 0.09886 0.77186 0.0
C76 C 0.52808 0.11541 0.75161 0.0
C77 C 0.53711 0.0856 0.78286 0.0
C78 C 0.56988 0.08908 0.77311 0.0
C79 C 0.58188 0.10537 0.75272 0.0
C80 C 0.5612 0.11921 0.74226 0.0
H81 H 0.76088 0.60077 0.9342 0.0
H82 H 0.8595 0.58916 0.93171 0.0
H83 H 0.78159 0.54373 0.98475 0.0
C84 C 0.77815 0.59061 0.94112 0.0
C85 C 0.76708 0.57144 0.96072 0.0
C86 C 0.81114 0.59678 0.93032 0.0
C87 C 0.83338 0.58361 0.93951 0.0
C88 C 0.82292 0.56442 0.95913 0.0
C89 C 0.7893 0.55777 0.96944 0.0
H90 H 0.399 0.24226 0.92005 0.0
H91 H 0.40008 0.14105 0.92077 0.0
H92 H 0.43842 0.21125 0.97535 0.0
C93 C 0.40432 0.22275 0.92837 0.0
C94 C 0.41965 0.23075 0.94891 0.0
C95 C 0.39668 0.19024 0.91822 0.0
C96 C 0.4055 0.16596 0.92865 0.0
C97 C 0.42105 0.17348 0.94918 0.0
C98 C 0.4277 0.20583 0.95924 0.0
H99 H 0.74766 0.15873 0.92916 0.0
H100 H 0.84689 0.26513 0.92432 0.0
H101 H 0.7697 0.23894 0.97729 0.0
C102 C 0.76516 0.18604 0.93532 0.0
C103 C 0.75437 0.19637 0.95428 0.0
C104 C 0.79877 0.21068 0.92449 0.0
C105 C 0.8214 0.24588 0.93284 0.0
C106 C 0.81126 0.25658 0.95184 0.0
C107 C 0.77748 0.23158 0.96233 0.0
H108 H 0.58179 0.83124 0.11716 0.0
H109 H 0.59219 0.73471 0.11523 0.0
H110 H 0.54004 0.75977 0.06348 0.0
C111 C 0.577 0.80659 0.10919 0.0
C112 C 0.55955 0.79815 0.08919 0.0
C113 C 0.58874 0.78382 0.11885 0.0
C114 C 0.58295 0.75226 0.10805 0.0
C115 C 0.56549 0.74338 0.08798 0.0
C116 C 0.55361 0.76637 0.07886 0.0
H117 H 0.16687 0.75412 0.10961 0.0
H118 H 0.25538 0.86617 0.11244 0.0
H119 H 0.25082 0.79943 0.05958 0.0
C120 C 0.1918 0.77709 0.10261 0.0
C121 C 0.20651 0.77264 0.08323 0.0
C122 C 0.20889 0.81075 0.11316 0.0
C123 C 0.24198 0.84008 0.10442 0.0
C124 C 0.25759 0.83609 0.0852 0.0
C125 C 0.23969 0.80224 0.07475 0.0
H126 H 0.1579 0.40823 0.10651 0.0
H127 H 0.26511 0.41273 0.11071 0.0
H128 H 0.23973 0.45868 0.0559 0.0
C129 C 0.18565 0.41649 0.09992 0.0
C130 C 0.19578 0.43429 0.07997 0.0
C131 C 0.21029 0.40862 0.11129 0.0
C132 C 0.24614 0.41941 0.10239 0.0
C133 C 0.25721 0.43773 0.08243 0.0
C134 C 0.23199 0.44562 0.07148 0.0
H135 H 0.4115 0.92023 0.26502 0.0
H136 H 0.51256 0.91278 0.26691 0.0
H137 H 0.42645 0.85815 0.31508 0.0
C138 C 0.42825 0.91001 0.27255 0.0
C139 C 0.41438 0.88792 0.29115 0.0
C140 C 0.46382 0.91933 0.26375 0.0
C141 C 0.48549 0.90626 0.27382 0.0
C142 C 0.47244 0.88416 0.29228 0.0
C143 C 0.43658 0.87476 0.30069 0.0
H144 H 0.09034 0.60259 0.25727 0.0
H145 H 0.08229 0.4974 0.25276 0.0
H146 H 0.14309 0.56911 0.30437 0.0
C147 C 0.09647 0.58221 0.26363 0.0
C148 C 0.11741 0.58948 0.28246 0.0
C149 C 0.0839 0.54921 0.25268 0.0
C150 C 0.09301 0.52341 0.26069 0.0
C151 C 0.11455 0.53031 0.27928 0.0
C152 C 0.12669 0.56354 0.28999 0.0
H153 H 0.43123 0.46797 0.26809 0.0
H154 H 0.51989 0.57952 0.26243 0.0
H155 H 0.43965 0.54691 0.31434 0.0
C156 C 0.44533 0.49565 0.27409 0.0
C157 C 0.43168 0.50388 0.29273 0.0
C158 C 0.47719 0.52275 0.26317 0.0
C159 C 0.49517 0.55859 0.27083 0.0
C160 C 0.48171 0.5678 0.2891 0.0
C161 C 0.44999 0.54018 0.3001 0.0
Gd162 Gd 0.53404 0.03565 0.04923 0.0
Gd163 Gd 0.49976 0.98175 0.99946 0.0
C164 C 0.38341 0.87916 0.99496 0.0
C165 C 0.3996 0.8315 0.99007 0.0
C166 C 0.44898 0.89506 0.99301 0.0
C167 C 0.42216 0.90547 0.9955 0.0
C168 C 0.4381 0.85804 0.98988 0.0
C169 C 0.37228 0.84205 0.99262 0.0
C170 C 0.35706 0.89101 0.99642 0.0
C171 C 0.36964 0.92834 0.99772 0.0
N172 N 0.434 0.94154 0.99774 0.0
C173 C 0.40838 0.95337 0.99808 0.0
H174 H 0.41744 0.98201 0.99927 0.0
C175 C 0.51329 0.91295 0.98821 0.0
N176 N 0.48581 0.92143 0.99279 0.0
C177 C 0.50398 0.8766 0.98516 0.0
C178 C 0.46622 0.84894 0.98622 0.0
H179 H 0.54257 0.93416 0.9875 0.0
H180 H 0.34266 0.8214 0.99236 0.0
H181 H 0.61828 0.03979 0.04943 0.0
H182 H 0.32704 0.87167 0.99617 0.0
H183 H 0.34952 0.93788 0.99855 0.0
H184 H 0.39065 0.80287 0.98786 0.0
H185 H 0.48727 0.07916 0.0624 0.0
H186 H 0.70473 0.15221 0.05036 0.0
H187 H 0.68565 0.08664 0.049 0.0
H188 H 0.63532 0.21532 0.05948 0.0
H189 H 0.52592 0.86994 0.98201 0.0
H190 H 0.45904 0.8208 0.98378 0.0
H191 H 0.68565 0.20014 0.05409 0.0
H192 H 0.50069 0.14242 0.06791 0.0
N193 N 0.59907 0.07826 0.05038 0.0
C194 C 0.67504 0.13172 0.05054 0.0
C195 C 0.66439 0.09474 0.04984 0.0
C196 C 0.64725 0.14172 0.05216 0.0
C197 C 0.60902 0.11395 0.05222 0.0
C198 C 0.62607 0.06821 0.05011 0.0
N199 N 0.5446 0.09478 0.05607 0.0
C200 C 0.58086 0.12249 0.05526 0.0
C201 C 0.5235 0.13722 0.06428 0.0
C202 C 0.56056 0.16623 0.06257 0.0
C203 C 0.51601 0.10141 0.06122 0.0
C204 C 0.58988 0.15904 0.05829 0.0
H205 H 0.56629 0.19394 0.06498 0.0
O206 O 0.5031 0.02263 0.07936 0.0
O207 O 0.48804 0.98754 0.03322 0.0
O208 O 0.48312 0.02564 1.00267 0.0
O209 O 0.52693 0.07097 0.02486 0.0
O210 O 0.47161 0.01572 0.05315 0.0
O211 O 0.55596 0.02279 0.07758 0.0
O212 O 0.52758 0.98924 0.96861 0.0
O213 O 0.54686 0.02957 1.01534 0.0
O214 O 0.55204 0.99294 0.04624 0.0
O215 O 0.50831 0.9473 0.02408 0.0
O216 O 0.56123 0.99922 0.99569 0.0
O217 O 0.48216 0.00112 0.97207 0.0
C218 C 0.45962 0.98745 0.04116 0.0
C219 C 0.62781 0.18702 0.05738 0.0
C220 C 0.65645 0.17838 0.0543 0.0
C221 C 0.52787 0.01811 0.0898 0.0
C222 C 0.53672 0.03362 0.11143 0.0
C223 C 0.56099 0.07113 0.11425 0.0
C224 C 0.51973 0.01076 0.12945 0.0
C225 C 0.52702 0.02525 0.1503 0.0
C226 C 0.5683 0.08573 0.13473 0.0
C227 C 0.5515 0.06314 0.15257 0.0
C228 C 0.50108 0.05967 1.00983 0.0
C229 C 0.57447 0.02769 1.00756 0.0
C230 C 0.50614 0.9994 0.95898 0.0
C231 C 0.49165 0.98319 0.93798 0.0
C232 C 0.464 0.94627 0.93636 0.0
C233 C 0.50553 0.00491 0.91933 0.0
C234 C 0.49177 0.98986 0.89906 0.0
C235 C 0.45035 0.93113 0.91642 0.0
C236 C 0.46406 0.95262 0.89793 0.0
C237 C 0.53436 0.95893 0.03909 0.0
H238 H 0.57406 0.08912 0.10062 0.0
H239 H 0.50113 0.98172 0.12719 0.0
H240 H 0.58691 0.11479 0.13679 0.0
H241 H 0.55729 0.07557 0.16816 0.0
H242 H 0.45303 0.92919 0.9505 0.0
H243 H 0.52664 0.03356 0.92067 0.0
H244 H 0.42911 0.90253 0.91528 0.0
H245 H 0.45328 0.93986 0.88269 0.0
Gd246 Gd 0.98722 0.49767 0.03921 0.0
Gd247 Gd 0.05137 0.52688 0.99212 0.0
C248 C 0.16266 0.52585 0.99142 0.0
C249 C 0.20892 0.59066 0.98926 0.0
C250 C 0.14183 0.57033 0.98957 0.0
C251 C 0.13345 0.53444 0.99117 0.0
C252 C 0.17964 0.59888 0.98815 0.0
C253 C 0.20044 0.55419 0.99091 0.0
C254 C 0.15299 0.48903 0.99174 0.0
C255 C 0.11504 0.46194 0.9911 0.0
N256 N 0.09665 0.50783 0.99161 0.0
C257 C 0.08712 0.47188 0.99075 0.0
H258 H 0.05797 0.45058 0.99041 0.0
C259 C 0.11962 0.61182 0.98427 0.0
N260 N 0.11286 0.57718 0.98838 0.0
C261 C 0.15664 0.64112 0.98294 0.0
C262 C 0.18681 0.63469 0.98514 0.0
H263 H 0.09641 0.617 0.9827 0.0
H264 H 0.22327 0.54815 0.9913 0.0
H265 H 0.97529 0.57064 0.04309 0.0
H266 H 0.17456 0.48127 0.99203 0.0
H267 H 0.10724 0.43338 0.99099 0.0
H268 H 0.23817 0.61223 0.9884 0.0
H269 H 0.94667 0.40701 0.04662 0.0
H270 H 0.85717 0.53386 0.04152 0.0
H271 H 0.92334 0.58425 0.04338 0.0
H272 H 0.80038 0.40327 0.04229 0.0
H273 H 0.16186 0.66862 0.98023 0.0
H274 H 0.21547 0.65741 0.98403 0.0
H275 H 0.81147 0.46621 0.04084 0.0
H276 H 0.88268 0.35304 0.04823 0.0
N277 N 0.93928 0.51314 0.04067 0.0
C278 C 0.87993 0.52771 0.04148 0.0
C279 C 0.91722 0.55621 0.04257 0.0
C280 C 0.87245 0.49156 0.04091 0.0
C281 C 0.90314 0.4851 0.04077 0.0
C282 C 0.94666 0.54835 0.04244 0.0
N283 N 0.92722 0.44495 0.04253 0.0
C284 C 0.8969 0.44983 0.04175 0.0
C285 C 0.88628 0.38012 0.04637 0.0
C286 C 0.85478 0.3846 0.04466 0.0
C287 C 0.9225 0.41078 0.04554 0.0
C288 C 0.85982 0.41982 0.04262 0.0
H289 H 0.82675 0.36081 0.04532 0.0
O290 O 0.99336 0.47734 0.06991 0.0
O291 O 0.04124 0.50627 0.02535 0.0
O292 O 0.00828 0.46569 0.99287 0.0
O293 O 0.95667 0.45972 1.01224 0.0
O294 O 0.0116 0.46011 0.04382 0.0
O295 O 0.99729 0.53049 0.06753 0.0
O296 O 0.04485 0.54764 0.96171 0.0
O297 O 0.998 0.51977 1.00613 0.0
O298 O 0.02795 0.55899 0.03819 0.0
O299 O 0.08048 0.56812 0.01818 0.0
O300 O 0.02908 0.56571 0.98725 0.0
O301 O 0.04189 0.49492 0.96343 0.0
C302 C 0.04236 0.47922 0.03306 0.0
C303 C 0.8291 0.42597 0.04183 0.0
C304 C 0.83541 0.4618 0.04099 0.0
C305 C 0.99769 0.50598 0.08012 0.0
C306 C 0.97774 0.49914 0.10065 0.0
C307 C 0.93893 0.48659 0.10176 0.0
C308 C 0.99822 0.50514 0.1195 0.0
C309 C 0.98025 0.49865 0.13958 0.0
C310 C 0.92084 0.48021 0.12161 0.0
C311 C 0.94126 0.48617 0.14041 0.0
C312 C 0.97178 0.44776 0.99794 0.0
C313 C 0.99842 0.54765 0.99829 0.0
C314 C 0.04132 0.51966 0.95114 0.0
C315 C 0.06214 0.52795 0.93085 0.0
C316 C 0.10153 0.54413 0.93017 0.0
C317 C 0.04199 0.52053 0.91182 0.0
C318 C 0.06086 0.52919 0.89197 0.0
C319 C 0.12055 0.55291 0.91052 0.0
C320 C 0.10043 0.5456 0.89151 0.0
C321 C 0.06403 0.57891 0.03243 0.0
H322 H 0.92275 0.48174 0.08735 0.0
H323 H 0.02833 0.51527 0.11846 0.0
H324 H 0.89083 0.47044 0.12244 0.0
H325 H 0.92642 0.48051 0.15556 0.0
H326 H 0.11747 0.55012 0.94475 0.0
H327 H 0.01156 0.50853 0.91252 0.0
H328 H 0.15098 0.56541 0.91002 0.0
H329 H 0.11577 0.55231 0.87648 0.0
Gd330 Gd 0.49147 0.49745 1.00072 0.0
Gd331 Gd 0.52271 0.47229 0.04992 0.0
C332 C 0.63975 0.48406 0.05399 0.0
C333 C 0.6247 0.42073 0.05708 0.0
C334 C 0.57448 0.43555 0.05478 0.0
C335 C 0.60087 0.47232 0.05327 0.0
C336 C 0.58602 0.40934 0.05714 0.0
C337 C 0.65152 0.45803 0.05548 0.0
C338 C 0.66557 0.52162 0.05363 0.0
C339 C 0.65234 0.54638 0.05328 0.0
N340 N 0.58848 0.4967 0.05193 0.0
C341 C 0.61349 0.53338 0.05273 0.0
H342 H 0.60379 0.55291 0.05233 0.0
C343 C 0.51033 0.39002 0.05877 0.0
N344 N 0.53742 0.42556 0.0549 0.0
C345 C 0.52034 0.36297 0.06106 0.0
C346 C 0.55834 0.3726 0.06 0.0
H347 H 0.4809 0.38243 0.05946 0.0
H348 H 0.68127 0.4665 0.05586 0.0
H349 H 0.40863 0.41845 0.99837 0.0
H350 H 0.69568 0.53176 0.05407 0.0
H351 H 0.67205 0.57549 0.05334 0.0
H352 H 0.63415 0.40099 0.05869 0.0
H353 H 0.53533 0.58589 0.9872 0.0
H354 H 0.31942 0.4435 0.99755 0.0
H355 H 0.34081 0.39802 0.99795 0.0
H356 H 0.3851 0.57418 0.99072 0.0
H357 H 0.49876 0.33473 0.06362 0.0
H358 H 0.56604 0.35162 0.06186 0.0
H359 H 0.33625 0.50948 0.99522 0.0
H360 H 0.51989 0.63504 0.98186 0.0
N361 N 0.42596 0.47514 0.99884 0.0
C362 C 0.34934 0.45268 0.99773 0.0
C363 C 0.3613 0.42694 0.99789 0.0
C364 C 0.37618 0.48995 0.99702 0.0
C365 C 0.41476 0.50039 0.99741 0.0
C366 C 0.39993 0.43871 0.9981 0.0
N367 N 0.47867 0.54511 0.99418 0.0
C368 C 0.44206 0.53663 0.99498 0.0
C369 C 0.49772 0.6075 0.98566 0.0
C370 C 0.46034 0.59963 0.98768 0.0
C371 C 0.50636 0.57962 0.98865 0.0
C372 C 0.43184 0.56368 0.992 0.0
H373 H 0.45368 0.62123 0.98529 0.0
O374 O 0.52347 0.51777 0.97109 0.0
O375 O 0.53713 0.4928 0.01672 0.0
O376 O 0.53704 0.5316 0.05015 0.0
O377 O 0.49947 0.53974 0.02511 0.0
O378 O 0.5539 0.53893 0.9984 0.0
O379 O 0.47172 0.46572 0.97163 0.0
O380 O 0.49364 0.44822 0.07988 0.0
O381 O 0.47641 0.47687 0.03425 0.0
O382 O 0.47463 0.43712 1.00213 0.0
O383 O 0.51795 0.43328 0.02438 0.0
O384 O 0.46086 0.43031 0.05223 0.0
O385 O 0.54055 0.50395 0.07893 0.0
C386 C 0.56582 0.52132 1.0098 0.0
C387 C 0.39354 0.55375 0.99272 0.0
C388 C 0.36574 0.51692 0.99527 0.0
C389 C 0.49946 0.49014 0.95993 0.0
C390 C 0.48993 0.49906 0.93898 0.0
C391 C 0.46509 0.51276 0.93742 0.0
C392 C 0.50672 0.4947 0.92035 0.0
C393 C 0.49873 0.50392 0.90013 0.0
C394 C 0.45714 0.52211 0.91752 0.0
C395 C 0.47379 0.51782 0.89903 0.0
C396 C 0.52149 0.54997 0.04205 0.0
C397 C 0.44826 0.44771 0.0412 0.0
C398 C 0.5158 0.47712 0.09086 0.0
C399 C 0.52943 0.47072 0.11111 0.0
C400 C 0.55738 0.46076 0.11157 0.0
C401 C 0.51429 0.47502 0.1303 0.0
C402 C 0.52704 0.4696 0.15003 0.0
C403 C 0.57011 0.45519 0.13107 0.0
C404 C 0.55515 0.45963 0.1502 0.0
C405 C 0.49278 0.42036 1.00902 0.0
H406 H 0.45201 0.51638 0.95156 0.0
H407 H 0.52564 0.48377 0.92165 0.0
H408 H 0.43809 0.53289 0.91642 0.0
H409 H 0.46746 0.52585 0.88388 0.0
H410 H 0.5694 0.45741 0.09693 0.0
H411 H 0.49304 0.48323 0.12984 0.0
H412 H 0.59167 0.44745 0.13136 0.0
H413 H 0.56531 0.45494 0.16512 0.0
Gd414 Gd 0.18916 0.36068 0.38062 0.0
Gd415 Gd 0.15513 0.3111 0.32954 0.0
C416 C 0.03692 0.21205 0.32459 0.0
C417 C 0.05032 0.16249 0.31978 0.0
C418 C 0.10167 0.22515 0.32282 0.0
C419 C 0.076 0.23712 0.3253 0.0
C420 C 0.08919 0.18784 0.31949 0.0
C421 C 0.02422 0.17458 0.32236 0.0
C422 C 0.01186 0.22553 0.32552 0.0
C423 C 0.02603 0.26323 0.32629 0.0
N424 N 0.08927 0.27352 0.32727 0.0
C425 C 0.06506 0.287 0.32683 0.0
H426 H 0.0756 0.31604 0.32758 0.0
C427 C 0.16526 0.24064 0.31727 0.0
N428 N 0.13895 0.25037 0.32251 0.0
C429 C 0.1543 0.20393 0.31396 0.0
C430 C 0.11613 0.17732 0.31536 0.0
H431 H 0.19481 0.26116 0.31635 0.0
H432 H 0.99431 0.15485 0.32203 0.0
H433 H 0.27018 0.35787 0.37932 0.0
H434 H 0.98162 0.20718 0.3251 0.0
H435 H 0.00692 0.274 0.32657 0.0
H436 H 0.04015 0.13363 0.31749 0.0
H437 H 0.15026 0.40797 0.3997 0.0
H438 H 0.36293 0.46713 0.38204 0.0
H439 H 0.33853 0.40063 0.37914 0.0
H440 H 0.30301 0.53796 0.39579 0.0
H441 H 0.17528 0.19618 0.31037 0.0
H442 H 0.1077 0.14891 0.31273 0.0
H443 H 0.34935 0.51841 0.38787 0.0
H444 H 0.16896 0.47192 0.40811 0.0
N445 N 0.25533 0.39947 0.38167 0.0
C446 C 0.33275 0.44842 0.38212 0.0
C447 C 0.31909 0.41091 0.38057 0.0
C448 C 0.30727 0.46117 0.38461 0.0
C449 C 0.26827 0.43562 0.38449 0.0
C450 C 0.28013 0.38667 0.38072 0.0
N451 N 0.20545 0.42071 0.38994 0.0
C452 C 0.24239 0.44664 0.38875 0.0
C453 C 0.18989 0.46526 0.4025 0.0
C454 C 0.22753 0.49272 0.40001 0.0
C455 C 0.1794 0.42908 0.39772 0.0
C456 C 0.2545 0.48347 0.3935 0.0
H457 H 0.23565 0.52069 0.40383 0.0
O458 O 0.15802 0.34648 0.4107 0.0
O459 O 0.14137 0.31506 0.36351 0.0
O460 O 0.14303 0.35821 0.33184 0.0
O461 O 0.18008 0.39829 0.35886 0.0
O462 O 0.12838 0.34571 0.38389 0.0
O463 O 0.20936 0.34408 0.40818 0.0
O464 O 0.18628 0.32058 0.29973 0.0
O465 O 0.2015 0.35738 0.3465 0.0
O466 O 0.20369 0.31549 0.37628 0.0
O467 O 0.15925 0.27284 0.35326 0.0
O468 O 0.21705 0.32867 0.32636 0.0
O469 O 0.13687 0.3267 0.30072 0.0
C470 C 0.11444 0.31827 0.37118 0.0
C471 C 0.29316 0.50945 0.39246 0.0
C472 C 0.31953 0.49831 0.38797 0.0
C473 C 0.18242 0.34095 0.42078 0.0
C474 C 0.19354 0.35783 0.44193 0.0
C475 C 0.21528 0.39591 0.44387 0.0
C476 C 0.18123 0.33575 0.46045 0.0
C477 C 0.18998 0.35168 0.48083 0.0
C478 C 0.22402 0.41184 0.46398 0.0
C479 C 0.21133 0.38996 0.48235 0.0
C480 C 0.15807 0.38998 0.34194 0.0
C481 C 0.22956 0.35671 0.3386 0.0
C482 C 0.16364 0.3276 0.28881 0.0
C483 C 0.15301 0.3105 0.26763 0.0
C484 C 0.12898 0.2727 0.26595 0.0
C485 C 0.16814 0.33193 0.24892 0.0
C486 C 0.15943 0.31563 0.22853 0.0
C487 C 0.12041 0.25632 0.24597 0.0
C488 C 0.13556 0.27742 0.22746 0.0
C489 C 0.18483 0.28208 0.36833 0.0
H490 H 0.22537 0.41333 0.42988 0.0
H491 H 0.16439 0.30629 0.459 0.0
H492 H 0.24073 0.44126 0.46534 0.0
H493 H 0.21881 0.40296 0.49778 0.0
H494 H 0.11714 0.25581 0.28007 0.0
H495 H 0.1864 0.36122 0.2503 0.0
H496 H 0.10213 0.22703 0.24482 0.0
H497 H 0.12889 0.26357 0.21229 0.0
Gd498 Gd 0.64802 0.82899 0.37481 0.0
Gd499 Gd 0.6959 0.83213 0.32347 0.0
C500 C 0.78334 0.79481 0.32802 0.0
C501 C 0.8422 0.8521 0.32395 0.0
C502 C 0.78216 0.8511 0.32198 0.0
C503 C 0.76285 0.81347 0.32552 0.0
C504 C 0.82201 0.8704 0.32035 0.0
C505 C 0.82292 0.81443 0.32784 0.0
C506 C 0.76357 0.75679 0.3302 0.0
C507 C 0.72442 0.738 0.32898 0.0
N508 N 0.72435 0.79491 0.32577 0.0
C509 C 0.70522 0.75737 0.32645 0.0
H510 H 0.67512 0.74135 0.32497 0.0
C511 C 0.78008 0.90368 0.31078 0.0
N512 N 0.76215 0.86845 0.31866 0.0
C513 C 0.81937 0.92375 0.30898 0.0
C514 C 0.84049 0.90729 0.31427 0.0
H515 H 0.76407 0.91688 0.30668 0.0
H516 H 0.83892 0.80053 0.33007 0.0
H517 H 0.64311 0.90524 0.3668 0.0
H518 H 0.7783 0.74161 0.33222 0.0
H519 H 0.70891 0.70843 0.32996 0.0
H520 H 0.87276 0.86665 0.32311 0.0
H521 H 0.60515 0.74772 0.39971 0.0
H522 H 0.52731 0.87756 0.36932 0.0
H523 H 0.59481 0.92363 0.36443 0.0
H524 H 0.46332 0.75164 0.39118 0.0
H525 H 0.8333 0.95192 0.30353 0.0
H526 H 0.87098 0.9229 0.31282 0.0
H527 H 0.47821 0.8129 0.37873 0.0
H528 H 0.54067 0.70007 0.41031 0.0
N529 N 0.60356 0.84899 0.37259 0.0
C530 C 0.54844 0.86931 0.37045 0.0
C531 C 0.58651 0.89539 0.36774 0.0
C532 C 0.53825 0.83313 0.37534 0.0
C533 C 0.5669 0.82384 0.37655 0.0
C534 C 0.61386 0.88479 0.3691 0.0
N535 N 0.58743 0.7828 0.38596 0.0
C536 C 0.55852 0.78953 0.38347 0.0
C537 C 0.54523 0.72496 0.40257 0.0
C538 C 0.51476 0.73035 0.39863 0.0
C539 C 0.58169 0.75197 0.39653 0.0
C540 C 0.52129 0.76333 0.38945 0.0
H541 H 0.48657 0.70951 0.40347 0.0
O542 O 0.66949 0.82404 0.40558 0.0
O543 O 0.69573 0.8269 0.35854 0.0
O544 O 0.64727 0.77517 0.32995 0.0
O545 O 0.60847 0.77807 0.35679 0.0
O546 O 0.66819 0.78906 0.38248 0.0
O547 O 0.65617 0.86673 0.4004 0.0
O548 O 0.70278 0.86297 0.2942 0.0
O549 O 0.65811 0.84829 0.34099 0.0
O550 O 0.69127 0.88783 0.36725 0.0
O551 O 0.73075 0.88569 0.34098 0.0
O552 O 0.64187 0.82712 0.31104 0.0
O553 O 0.68788 0.80554 0.29307 0.0
C554 C 0.69577 0.8013 0.36895 0.0
C555 C 0.49221 0.77157 0.38696 0.0
C556 C 0.50068 0.80645 0.37988 0.0
C557 C 0.66566 0.84984 0.41425 0.0
C558 C 0.64572 0.84065 0.43495 0.0
C559 C 0.60686 0.82809 0.43618 0.0
C560 C 0.66558 0.84336 0.45365 0.0
C561 C 0.64684 0.83357 0.47359 0.0
C562 C 0.58803 0.81808 0.45582 0.0
C563 C 0.60777 0.8207 0.47441 0.0
C564 C 0.61566 0.76099 0.34141 0.0
C565 C 0.63266 0.83941 0.32721 0.0
C566 C 0.69525 0.83491 0.28214 0.0
C567 C 0.71706 0.84133 0.26222 0.0
C568 C 0.75616 0.85532 0.26224 0.0
C569 C 0.69763 0.83112 0.24281 0.0
C570 C 0.71707 0.83531 0.22338 0.0
C571 C 0.77581 0.86037 0.24308 0.0
C572 C 0.75655 0.85064 0.22378 0.0
C573 C 0.72336 0.90277 0.35629 0.0
H574 H 0.59106 0.82595 0.422 0.0
H575 H 0.69569 0.85351 0.45265 0.0
H576 H 0.558 0.80818 0.45664 0.0
H577 H 0.59234 0.81233 0.48941 0.0
H578 H 0.77152 0.86188 0.27693 0.0
H579 H 0.66719 0.81891 0.24299 0.0
H580 H 0.80608 0.87157 0.2432 0.0
H581 H 0.77266 0.85512 0.20919 0.0
Gd582 Gd 0.14627 0.84981 0.32685 0.0
Gd583 Gd 0.18346 0.82973 0.37531 0.0
C584 C 0.29869 0.83702 0.37588 0.0
C585 C 0.28151 0.77319 0.37971 0.0
C586 C 0.2329 0.79035 0.37917 0.0
C587 C 0.26012 0.82664 0.37649 0.0
C588 C 0.24326 0.76325 0.38128 0.0
C589 C 0.30918 0.81003 0.377 0.0
C590 C 0.32554 0.87427 0.37468 0.0
C591 C 0.31366 0.90008 0.37485 0.0
N592 N 0.24895 0.85195 0.37549 0.0
C593 C 0.27506 0.88838 0.37555 0.0
H594 H 0.26633 0.90863 0.37549 0.0
C595 C 0.16878 0.74701 0.38596 0.0
N596 N 0.19629 0.78178 0.38071 0.0
C597 C 0.1776 0.7191 0.38806 0.0
C598 C 0.21495 0.72716 0.38543 0.0
H599 H 0.13982 0.7406 0.38782 0.0
H600 H 0.33865 0.81743 0.37629 0.0
H601 H 0.06252 0.77159 0.329 0.0
H602 H 0.35544 0.88339 0.37409 0.0
H603 H 0.3342 0.92898 0.37431 0.0
H604 H 0.29003 0.75273 0.38106 0.0
H605 H 0.19123 0.93881 0.31371 0.0
H606 H 0.97456 0.7981 0.32626 0.0
H607 H 0.99501 0.75211 0.32925 0.0
H608 H 0.04145 0.928 0.3153 0.0
H609 H 0.1556 0.69141 0.39166 0.0
H610 H 0.22173 0.70552 0.38713 0.0
H611 H 0.99217 0.86386 0.3212 0.0
H612 H 0.17628 0.98797 0.30765 0.0
N613 N 0.08082 0.82837 0.32636 0.0
C614 C 1.00439 0.80687 0.32611 0.0
C615 C 0.01582 0.78084 0.32775 0.0
C616 C 0.03161 0.84385 0.32381 0.0
C617 C 0.07008 0.85381 0.32384 0.0
C618 C 0.0543 0.79208 0.32756 0.0
N619 N 0.1342 0.89794 0.31995 0.0
C620 C 0.09766 0.88977 0.32054 0.0
C621 C 0.15389 0.96049 0.31133 0.0
C622 C 0.11652 0.95278 0.31273 0.0
C623 C 0.16224 0.93251 0.31473 0.0
C624 C 0.08778 0.91697 0.31711 0.0
H625 H 0.11011 0.97447 0.31003 0.0
O626 O 0.17383 0.86711 0.29585 0.0
O627 O 0.19459 0.84705 0.34126 0.0
O628 O 0.19971 0.89003 0.37246 0.0
O629 O 0.15422 0.89197 0.35106 0.0
O630 O 0.20788 0.89134 0.32173 0.0
O631 O 0.12348 0.81405 0.29958 0.0
O632 O 0.15574 0.81064 0.40615 0.0
O633 O 0.13585 0.83323 0.36095 0.0
O634 O 0.12826 0.78967 0.33053 0.0
O635 O 0.17456 0.78727 0.35068 0.0
O636 O 0.12136 0.78914 0.38077 0.0
O637 O 0.20656 0.86344 0.40345 0.0
C638 C 0.22187 0.87547 0.33298 0.0
C639 C 0.0496 0.90746 0.31775 0.0
C640 C 0.02155 0.87095 0.32111 0.0
C641 C 0.14891 0.83759 0.28638 0.0
C642 C 0.13576 0.84294 0.26568 0.0
C643 C 0.10662 0.85121 0.26433 0.0
C644 C 0.15329 0.84031 0.24696 0.0
C645 C 0.14184 0.84578 0.22681 0.0
C646 C 0.09505 0.85665 0.24442 0.0
C647 C 0.11245 0.85396 0.22577 0.0
C648 C 0.18121 0.90645 0.36541 0.0
C649 C 0.10806 0.8057 0.36953 0.0
C650 C 0.18074 0.83928 0.41626 0.0
C651 C 0.1933 0.83205 0.43674 0.0
C652 C 0.21906 0.81935 0.43731 0.0
C653 C 0.17811 0.8366 0.45595 0.0
C654 C 0.1884 0.82836 0.47579 0.0
C655 C 0.22945 0.81113 0.45682 0.0
C656 C 0.21423 0.81544 0.47589 0.0
C657 C 0.14693 0.77309 0.33667 0.0
H658 H 0.09294 0.85349 0.27861 0.0
H659 H 0.17559 0.83358 0.24813 0.0
H660 H 0.07259 0.86312 0.24343 0.0
H661 H 0.10323 0.85877 0.21056 0.0
H662 H 0.23089 0.81554 0.4227 0.0
H663 H 0.15847 0.84677 0.45537 0.0
H664 H 0.24917 0.80108 0.45716 0.0
H665 H 0.22232 0.80809 0.4907 0.0
Gd666 Gd 0.86968 0.69774 0.71455 0.0
Gd667 Gd 0.82599 0.63806 0.66772 0.0
C668 C 0.70626 0.53997 0.67044 0.0
C669 C 0.7177 0.48887 0.6676 0.0
C670 C 0.77011 0.55136 0.66617 0.0
C671 C 0.74545 0.56442 0.66881 0.0
C672 C 0.75654 0.51346 0.66507 0.0
C673 C 0.69259 0.50211 0.6703 0.0
C674 C 0.682 0.55433 0.67174 0.0
C675 C 0.69695 0.59214 0.67068 0.0
N676 N 0.75972 0.60112 0.66894 0.0
C677 C 0.73605 0.61524 0.66899 0.0
H678 H 0.7471 0.64436 0.66839 0.0
C679 C 0.83237 0.56451 0.65864 0.0
N680 N 0.80732 0.57589 0.66372 0.0
C681 C 0.82036 0.52718 0.6575 0.0
C682 C 0.78233 0.5015 0.66099 0.0
H683 H 0.86187 0.58424 0.65613 0.0
H684 H 0.66262 0.48289 0.6718 0.0
H685 H 0.95155 0.69718 0.71219 0.0
H686 H 0.65173 0.53651 0.6731 0.0
H687 H 0.67841 0.60355 0.67129 0.0
H688 H 0.70673 0.45962 0.66704 0.0
H689 H 0.82868 0.74711 0.72717 0.0
H690 H 0.04219 0.80764 0.70819 0.0
H691 H 0.0195 0.74122 0.70887 0.0
H692 H 0.98005 0.87767 0.71727 0.0
H693 H 0.84045 0.51826 0.65398 0.0
H694 H 0.77306 0.47261 0.66006 0.0
H695 H 0.02715 0.85844 0.71117 0.0
H696 H 0.84624 0.81186 0.7304 0.0
N697 N 0.93541 0.73792 0.71299 0.0
C698 C 0.01224 0.78836 0.70973 0.0
C699 C 0.99955 0.75092 0.71016 0.0
C700 C 0.98618 0.80048 0.71189 0.0
C701 C 0.9475 0.77421 0.71371 0.0
C702 C 0.96089 0.72597 0.71211 0.0
N703 N 0.88446 0.75877 0.71955 0.0
C704 C 0.92117 0.78501 0.71717 0.0
C705 C 0.8676 0.8047 0.72661 0.0
C706 C 0.90507 0.83207 0.72338 0.0
C707 C 0.85778 0.76797 0.72483 0.0
C708 C 0.9325 0.8224 0.71883 0.0
H709 H 0.91261 0.8605 0.72477 0.0
O710 O 0.84434 0.69051 0.74609 0.0
O711 O 0.81916 0.64936 0.70145 0.0
O712 O 0.81441 0.68566 0.6695 0.0
O713 O 0.86332 0.73167 0.68901 0.0
O714 O 0.80918 0.68309 0.72067 0.0
O715 O 0.89331 0.68417 0.74179 0.0
O716 O 0.85131 0.64189 0.63653 0.0
O717 O 0.87653 0.68603 0.6808 0.0
O718 O 0.88431 0.65281 0.71189 0.0
O719 O 0.83553 0.60523 0.69317 0.0
O720 O 0.88614 0.65194 0.66153 0.0
O721 O 0.80538 0.6531 0.63969 0.0
C722 C 0.79334 0.65326 0.70996 0.0
C723 C 0.9708 0.84879 0.71623 0.0
C724 C 0.99761 0.83784 0.71275 0.0
C725 C 0.86857 0.68357 0.75528 0.0
C726 C 0.88235 0.70031 0.77624 0.0
C727 C 0.90638 0.73811 0.77804 0.0
C728 C 0.87021 0.6782 0.7948 0.0
C729 C 0.88162 0.69375 0.81517 0.0
C730 C 0.91803 0.75369 0.79812 0.0
C731 C 0.90571 0.73181 0.81654 0.0
C732 C 0.83604 0.72047 0.67484 0.0
C733 C 0.90216 0.68193 0.67212 0.0
C734 C 0.82913 0.65081 0.62666 0.0
C735 C 0.81464 0.63327 0.60595 0.0
C736 C 0.78827 0.5959 0.60491 0.0
C737 C 0.82831 0.65402 0.58693 0.0
C738 C 0.81586 0.63753 0.56681 0.0
C739 C 0.77581 0.57932 0.58515 0.0
C740 C 0.78951 0.59978 0.56629 0.0
C741 C 0.86403 0.6179 0.70671 0.0
H742 H 0.9159 0.75549 0.76395 0.0
H743 H 0.85126 0.64901 0.79336 0.0
H744 H 0.93662 0.78291 0.79943 0.0
H745 H 0.91543 0.74466 0.83188 0.0
H746 H 0.77759 0.57955 0.61935 0.0
H747 H 0.84844 0.68301 0.58788 0.0
H748 H 0.75564 0.55035 0.58443 0.0
H749 H 0.77981 0.58578 0.55127 0.0
Gd750 Gd 0.30609 0.1557 0.71115 0.0
Gd751 Gd 0.37232 0.18341 0.6649 0.0
C752 C 0.48223 0.18026 0.66589 0.0
C753 C 0.52936 0.24491 0.66546 0.0
C754 C 0.46259 0.22567 0.66425 0.0
C755 C 0.45349 0.18946 0.66528 0.0
C756 C 0.50063 0.25383 0.66389 0.0
C757 C 0.52017 0.20817 0.66646 0.0
C758 C 0.47199 0.14329 0.66539 0.0
C759 C 0.434 0.11671 0.66359 0.0
N760 N 0.41656 0.16321 0.66472 0.0
C761 C 0.40653 0.12724 0.66298 0.0
H762 H 0.37727 0.10639 0.66174 0.0
C763 C 0.44175 0.26833 0.6592 0.0
N764 N 0.43416 0.23329 0.66272 0.0
C765 C 0.47904 0.29725 0.65885 0.0
C766 C 0.50862 0.29002 0.66149 0.0
H767 H 0.41893 0.27403 0.65738 0.0
H768 H 0.54263 0.20164 0.66718 0.0
H769 H 0.30426 0.2347 0.71129 0.0
H770 H 0.49319 0.13506 0.66591 0.0
H771 H 0.42581 0.08808 0.66281 0.0
H772 H 0.55877 0.26616 0.66543 0.0
H773 H 0.25631 0.06694 0.72332 0.0
H774 H 0.18976 0.21002 0.70661 0.0
H775 H 0.2578 0.25529 0.70892 0.0
H776 H 0.11968 0.07915 0.71153 0.0
H777 H 0.48493 0.32507 0.65663 0.0
H778 H 0.53747 0.31246 0.66119 0.0
H779 H 0.13834 0.14408 0.70719 0.0
H780 H 0.1896 0.01768 0.7255 0.0
N781 N 0.26337 0.17802 0.70984 0.0
C782 C 0.21009 0.20074 0.7077 0.0
C783 C 0.24845 0.22635 0.70906 0.0
C784 C 0.19838 0.16344 0.70839 0.0
C785 C 0.22606 0.15286 0.70966 0.0
C786 C 0.27478 0.21447 0.71042 0.0
N787 N 0.24312 0.10797 0.71452 0.0
C788 C 0.21558 0.11653 0.71193 0.0
C789 C 0.19649 0.04534 0.72154 0.0
C790 C 0.16779 0.05336 0.71763 0.0
C791 C 0.23421 0.07328 0.7203 0.0
C792 C 0.17713 0.08948 0.71321 0.0
H793 H 0.13859 0.03174 0.71873 0.0
O794 O 0.30843 0.13402 0.74221 0.0
O795 O 0.35912 0.16082 0.6979 0.0
O796 O 0.3279 0.12308 0.66357 0.0
O797 O 0.27699 0.11318 0.68576 0.0
O798 O 0.32566 0.1149 0.71632 0.0
O799 O 0.31685 0.18877 0.73942 0.0
O800 O 0.36935 0.20676 0.63461 0.0
O801 O 0.31856 0.17606 0.67794 0.0
O802 O 0.35113 0.2163 0.71085 0.0
O803 O 0.40275 0.22126 0.69194 0.0
O804 O 0.34973 0.22236 0.65976 0.0
O805 O 0.36507 0.15332 0.63569 0.0
C806 C 0.35675 0.13199 0.70555 0.0
C807 C 0.14938 0.09957 0.71085 0.0
C808 C 0.16001 0.13653 0.70842 0.0
C809 C 0.31305 0.16281 0.75232 0.0
C810 C 0.28884 0.15595 0.77115 0.0
C811 C 0.24988 0.14184 0.76917 0.0
C812 C 0.30502 0.16344 0.79141 0.0
C813 C 0.28246 0.15661 0.80982 0.0
C814 C 0.22728 0.13499 0.78731 0.0
C815 C 0.24335 0.14223 0.80754 0.0
C816 C 0.29217 0.10362 0.67006 0.0
C817 C 0.31823 0.20327 0.66992 0.0
C818 C 0.36598 0.17912 0.62368 0.0
C819 C 0.38792 0.18804 0.60377 0.0
C820 C 0.42698 0.20183 0.60375 0.0
C821 C 0.36915 0.18334 0.58442 0.0
C822 C 0.38911 0.19246 0.5649 0.0
C823 C 0.44706 0.21083 0.58445 0.0
C824 C 0.42835 0.20624 0.56513 0.0
C825 C 0.38775 0.2336 0.70605 0.0
H826 H 0.23697 0.1361 0.75368 0.0
H827 H 0.33527 0.17499 0.79276 0.0
H828 H 0.19717 0.12392 0.7857 0.0
H829 H 0.2251 0.13616 0.82138 0.0
H830 H 0.44185 0.20572 0.61858 0.0
H831 H 0.33883 0.17221 0.58462 0.0
H832 H 0.47726 0.22159 0.58446 0.0
H833 H 0.44468 0.21391 0.55043 0.0
Gd834 Gd 0.81848 0.17116 0.65806 0.0
Gd835 Gd 0.84428 0.14883 0.71025 0.0
C836 C 0.95753 0.15255 0.71453 0.0
C837 C 0.9383 0.08819 0.71838 0.0
C838 C 0.89114 0.10704 0.71579 0.0
C839 C 0.91926 0.14307 0.7138 0.0
C840 C 0.90025 0.07921 0.71868 0.0
C841 C 0.96691 0.12483 0.71629 0.0
C842 C 0.98512 0.18962 0.71401 0.0
C843 C 0.97414 0.2161 0.71347 0.0
N844 N 0.90912 0.16905 0.71225 0.0
C845 C 0.93576 0.20527 0.71281 0.0
H846 H 0.92756 0.22592 0.71215 0.0
C847 C 0.82625 0.06512 0.72133 0.0
N848 N 0.85481 0.09949 0.71618 0.0
C849 C 0.83377 0.03646 0.7241 0.0
C850 C 0.8709 0.04342 0.72244 0.0
H851 H 0.79752 0.05971 0.72252 0.0
H852 H 0.99616 0.13151 0.71662 0.0
H853 H 0.72916 0.09915 0.6589 0.0
H854 H 0.01486 0.19807 0.71446 0.0
H855 H 0.99522 0.24485 0.71339 0.0
H856 H 0.9459 0.06716 0.72033 0.0
H857 H 0.87158 0.25679 0.63815 0.0
H858 H 0.65331 0.14105 0.65865 0.0
H859 H 0.66451 0.08869 0.66015 0.0
H860 H 0.73418 0.26902 0.64567 0.0
H861 H 0.81096 0.00905 0.72752 0.0
H862 H 0.87669 0.02122 0.7247 0.0
H863 H 0.67965 0.20847 0.65374 0.0
H864 H 0.86438 0.31039 0.63009 0.0
N865 N 0.75512 0.15726 0.65767 0.0
C866 C 0.68195 0.14592 0.65818 0.0
C867 C 0.68815 0.11629 0.65897 0.0
C868 C 0.7127 0.18135 0.6559 0.0
C869 C 0.74949 0.18626 0.65551 0.0
C870 C 0.72506 0.12243 0.65828 0.0
N871 N 0.81505 0.22394 0.64951 0.0
C872 C 0.78033 0.22058 0.65131 0.0
C873 C 0.84061 0.28543 0.63624 0.0
C874 C 0.80592 0.28348 0.63985 0.0
C875 C 0.8445 0.25499 0.64069 0.0
C876 C 0.77499 0.25053 0.64692 0.0
H877 H 0.80292 0.30705 0.63629 0.0
O878 O 0.84987 0.19012 0.62825 0.0
O879 O 0.86581 0.17763 0.67916 0.0
O880 O 0.85979 0.20814 0.70962 0.0
O881 O 0.8442 0.22375 0.6768 0.0
O882 O 0.86783 0.16477 0.64804 0.0
O883 O 0.79346 0.14222 0.62875 0.0
O884 O 0.8124 0.12957 0.74007 0.0
O885 O 0.80189 0.1565 0.69233 0.0
O886 O 0.79174 0.11037 0.66345 0.0
O887 O 0.83333 0.10476 0.68624 0.0
O888 O 0.78131 0.1116 0.71241 0.0
O889 O 0.86536 0.18025 0.73931 0.0
C890 C 0.88481 0.17096 0.66582 0.0
C891 C 0.73871 0.24618 0.64864 0.0
C892 C 0.70764 0.21168 0.65319 0.0
C893 C 0.82268 0.1648 0.61703 0.0
C894 C 0.8152 0.17659 0.59635 0.0
C895 C 0.79344 0.19372 0.59521 0.0
C896 C 0.83068 0.17112 0.57749 0.0
C897 C 0.82449 0.1827 0.5575 0.0
C898 C 0.78756 0.20569 0.57558 0.0
C899 C 0.80296 0.20035 0.5569 0.0
C900 C 0.85717 0.23144 0.6965 0.0
C901 C 0.77189 0.13038 0.70023 0.0
C902 C 0.83715 0.15693 0.7511 0.0
C903 C 0.84623 0.1483 0.77226 0.0
C904 C 0.86876 0.13208 0.77424 0.0
C905 C 0.83237 0.15675 0.79073 0.0
C906 C 0.84121 0.14933 0.81121 0.0
C907 C 0.87746 0.12445 0.79442 0.0
C908 C 0.8639 0.13301 0.81277 0.0
C909 C 0.80712 0.09182 0.67138 0.0
H910 H 0.78106 0.1979 0.60943 0.0
H911 H 0.84702 0.15735 0.57842 0.0
H912 H 0.77099 0.2192 0.57484 0.0
H913 H 0.79821 0.21036 0.54198 0.0
H914 H 0.87965 0.12542 0.76022 0.0
H915 H 0.81528 0.16965 0.78913 0.0
H916 H 0.89481 0.11183 0.79587 0.0
H917 H 0.87085 0.12646 0.82819 0.0
H918 H 0.31929 0.83623 0.06835 0.0
H919 H 0.27301 0.90662 0.08078 0.0
H920 H 0.33046 0.95908 0.06663 0.0
H921 H 0.39506 0.98555 0.0523 0.0
H922 H 0.44255 0.91584 0.04163 0.0
H923 H 0.38328 0.86246 0.05289 0.0
C924 C 0.32165 0.86299 0.06773 0.0
C925 C 0.29204 0.86757 0.07577 0.0
C926 C 0.35491 0.89312 0.05972 0.0
C927 C 0.29564 0.90248 0.07503 0.0
C928 C 0.32839 0.93245 0.06683 0.0
C929 C 0.39216 0.95855 0.05221 0.0
C930 C 0.42278 0.95451 0.04565 0.0
C931 C 0.35837 0.92818 0.05938 0.0
C932 C 0.41908 0.91957 0.04601 0.0
C933 C 0.38527 0.88906 0.05268 0.0
H934 H 0.19748 0.49628 0.06447 0.0
H935 H 0.12782 0.37899 0.06833 0.0
H936 H 0.07521 0.38245 0.05266 0.0
H937 H 0.04703 0.41883 0.04069 0.0
H938 H 0.11475 0.53623 0.03801 0.0
H939 H 0.16985 0.53292 0.05009 0.0
C940 C 0.17096 0.47156 0.06149 0.0
C941 C 0.16647 0.43741 0.06763 0.0
C942 C 0.14032 0.47381 0.05281 0.0
C943 C 0.13186 0.40556 0.06385 0.0
C944 C 0.10173 0.40752 0.05493 0.0
C945 C 0.07402 0.44363 0.04251 0.0
C946 C 0.07695 0.47764 0.0381 0.0
C947 C 0.10531 0.44148 0.04982 0.0
C948 C 0.11192 0.50965 0.04084 0.0
C949 C 0.14339 0.50775 0.04792 0.0
H950 H 0.54476 0.67577 0.10442 0.0
H951 H 0.57348 0.73668 0.04509 0.0
H952 H 0.56053 0.68197 0.02553 0.0
H953 H 0.54182 0.61681 0.02524 0.0
H954 H 0.51724 0.557 0.08459 0.0
H955 H 0.52874 0.61145 0.10424 0.0
C956 C 0.54874 0.67729 0.08726 0.0
C957 C 0.5597 0.71033 0.0763 0.0
C958 C 0.54205 0.64588 0.07609 0.0
C959 C 0.56424 0.71149 0.05397 0.0
C960 C 0.5571 0.68025 0.04273 0.0
C961 C 0.5385 0.61568 0.04241 0.0
C962 C 0.52824 0.58302 0.05345 0.0
C963 C 0.54581 0.64725 0.0536 0.0
C964 C 0.52518 0.58203 0.07579 0.0
C965 C 0.53167 0.61308 0.08702 0.0
H966 H 0.8884 0.29455 0.95255 0.0
H967 H 0.79077 0.30172 0.97209 0.0
H968 H 0.83166 0.36077 0.98842 0.0
H969 H 0.89503 0.41064 0.99691 0.0
H970 H 0.99271 0.40477 0.97595 0.0
H971 H 0.95179 0.34543 0.95989 0.0
C972 C 0.87595 0.3092 0.96005 0.0
C973 C 0.83639 0.29341 0.96107 0.0
C974 C 0.89965 0.34353 0.96909 0.0
C975 C 0.82101 0.31273 0.97131 0.0
C976 C 0.8444 0.3467 0.98054 0.0
C977 C 0.90743 0.39636 0.9889 0.0
C978 C 0.94694 0.4121 0.9878 0.0
C979 C 0.88374 0.36231 0.97957 0.0
C980 C 0.96243 0.39338 0.97707 0.0
C981 C 0.93903 0.35936 0.9679 0.0
H982 H 0.70721 0.50983 0.97832 0.0
H983 H 0.75154 0.6256 0.96924 0.0
H984 H 0.69469 0.62066 0.98543 0.0
H985 H 0.63044 0.58299 0.99981 0.0
H986 H 0.58389 0.4667 1.00693 0.0
H987 H 0.64329 0.47223 0.99442 0.0
C988 C 0.70453 0.53398 0.98016 0.0
C989 C 0.73346 0.56799 0.97237 0.0
C990 C 0.67126 0.53083 0.9892 0.0
C991 C 0.72949 0.59903 0.97479 0.0
C992 C 0.69701 0.59625 0.98411 0.0
C993 C 0.63354 0.55895 0.99889 0.0
C994 C 0.60299 0.52463 1.00476 0.0
C995 C 0.66742 0.56223 0.99099 0.0
C996 C 0.60716 0.49359 1.00309 0.0
C997 C 0.64111 0.49672 0.9957 0.0
H998 H 0.48214 0.18956 0.97383 0.0
H999 H 0.38021 0.09869 0.94926 0.0
H1000 H 0.39628 0.05588 0.9657 0.0
H1001 H 0.43928 0.04412 0.98656 0.0
H1002 H 0.53985 0.13436 1.0127 0.0
H1003 H 0.5237 0.17754 0.99652 0.0
C1004 C 0.46313 0.1604 0.97231 0.0
C1005 C 0.43017 0.14748 0.9601 0.0
C1006 C 0.47219 0.1358 0.98213 0.0
C1007 C 0.40618 0.10952 0.95813 0.0
C1008 C 0.41518 0.08496 0.96767 0.0
C1009 C 0.45772 0.0732 0.9888 0.0
C1010 C 0.49079 0.08593 1.00078 0.0
C1011 C 0.44821 0.0978 0.97956 0.0
C1012 C 0.51413 0.12376 1.00361 0.0
C1013 C 0.50499 0.1485 0.9943 0.0
H1014 H 0.73515 0.12825 0.9681 0.0
H1015 H 0.69663 0.20645 0.96796 0.0
H1016 H 0.63897 0.16292 0.98733 0.0
H1017 H 0.59706 0.10027 1.00163 0.0
H1018 H 0.63677 0.02291 1.00173 0.0
H1019 H 0.69656 0.06848 0.98554 0.0
C1020 C 0.71405 0.13565 0.9723 0.0
C1021 C 0.71969 0.17013 0.96627 0.0
C1022 C 0.68131 0.11072 0.98363 0.0
C1023 C 0.69263 0.17983 0.97226 0.0
C1024 C 0.65974 0.15501 0.98336 0.0
C1025 C 0.61928 0.09387 0.99865 0.0
C1026 C 0.61273 0.05841 1.00295 0.0
C1027 C 0.65347 0.12011 0.98888 0.0
C1028 C 0.64141 0.05016 0.99864 0.0
C1029 C 0.67545 0.07608 0.98923 0.0
H1030 H 0.89379 0.61017 0.97196 0.0
H1031 H 0.81029 0.49591 0.96956 0.0
H1032 H 0.85622 0.47968 0.98349 0.0
H1033 H 0.92263 0.49857 0.99313 0.0
H1034 H 1.00434 0.61354 0.99639 0.0
H1035 H 0.95684 0.62898 0.98546 0.0
C1036 C 0.88564 0.58174 0.97465 0.0
C1037 C 0.84904 0.55424 0.96947 0.0
C1038 C 0.91199 0.57279 0.98276 0.0
C1039 C 0.83848 0.5175 0.97333 0.0
C1040 C 0.86476 0.50827 0.98121 0.0
C1041 C 0.9296 0.52691 0.99199 0.0
C1042 C 0.96685 0.55496 0.99579 0.0
C1043 C 0.90194 0.53569 0.98559 0.0
C1044 C 0.97579 0.59157 0.99372 0.0
C1045 C 0.9487 0.60043 0.98738 0.0
H1046 H 0.48042 0.27572 0.97289 0.0
H1047 H 0.37621 0.2634 0.94858 0.0
H1048 H 0.39003 0.32125 0.96462 0.0
H1049 H 0.43167 0.37535 0.98546 0.0
H1050 H 0.53466 0.38645 1.01096 0.0
H1051 H 0.52086 0.32863 0.99491 0.0
C1052 C 0.46045 0.28539 0.97134 0.0
C1053 C 0.42743 0.26527 0.95943 0.0
C1054 C 0.46827 0.31842 0.98085 0.0
C1055 C 0.40218 0.2786 0.95733 0.0
C1056 C 0.40992 0.31159 0.96661 0.0
C1057 C 0.45113 0.36517 0.98749 0.0
C1058 C 0.48411 0.38521 0.99939 0.0
C1059 C 0.44296 0.3318 0.97831 0.0
C1060 C 0.5089 0.37147 1.00199 0.0
C1061 C 0.50112 0.33844 0.99276 0.0
H1062 H 0.13092 0.73036 0.07859 0.0
H1063 H 0.2361 0.73603 0.06133 0.0
H1064 H 0.20153 0.67737 0.04306 0.0
H1065 H 0.14091 0.62301 0.03341 0.0
H1066 H 0.03656 0.61764 0.05271 0.0
H1067 H 0.07141 0.67716 0.06914 0.0
C1068 C 0.14641 0.71863 0.0711 0.0
C1069 C 0.18606 0.73745 0.07159 0.0
C1070 C 0.12646 0.68473 0.06107 0.0
C1071 C 0.20557 0.72225 0.06116 0.0
C1072 C 0.18581 0.68859 0.05081 0.0
C1073 C 0.12584 0.63499 0.0411 0.0
C1074 C 0.08609 0.61569 0.04183 0.0
C1075 C 0.14618 0.66939 0.05084 0.0
C1076 C 0.06705 0.63157 0.05199 0.0
C1077 C 0.08698 0.66576 0.06139 0.0
H1078 H 0.28161 0.39014 0.07372 0.0
H1079 H 0.31492 0.50407 0.06827 0.0
H1080 H 0.37667 0.51787 0.0536 0.0
H1081 H 0.42304 0.49755 0.04472 0.0
H1082 H 0.38675 0.38258 0.04859 0.0
H1083 H 0.32468 0.36921 0.06142 0.0
C1084 C 0.30241 0.41798 0.06929 0.0
C1085 C 0.29399 0.44613 0.07244 0.0
C1086 C 0.33746 0.42553 0.06059 0.0
C1087 C 0.32088 0.48197 0.06618 0.0
C1088 C 0.3562 0.48985 0.05783 0.0
C1089 C 0.40121 0.46955 0.0479 0.0
C1090 C 0.40948 0.44102 0.04554 0.0
C1091 C 0.36509 0.4619 0.05523 0.0
C1092 C 0.38108 0.40497 0.05018 0.0
C1093 C 0.34557 0.39728 0.05759 0.0
H1094 H 0.60038 0.87217 0.08705 0.0
H1095 H 0.4949 0.78035 0.06724 0.0
H1096 H 0.47867 0.82177 0.04881 0.0
H1097 H 0.49395 0.88439 0.03901 0.0
H1098 H 0.59855 0.97579 0.06044 0.0
H1099 H 0.61531 0.9342 0.07768 0.0
C1100 C 0.57359 0.8612 0.07897 0.0
C1101 C 0.54889 0.82324 0.07861 0.0
C1102 C 0.56425 0.8851 0.06864 0.0
C1103 C 0.51463 0.80947 0.06762 0.0
C1104 C 0.50524 0.83313 0.05714 0.0
C1105 C 0.52052 0.89515 0.04733 0.0
C1106 C 0.54491 0.93314 0.04844 0.0
C1107 C 0.52985 0.87103 0.05755 0.0
C1108 C 0.57911 0.94668 0.05942 0.0
C1109 C 0.58879 0.92292 0.06931 0.0
H1110 H 0.94648 0.22285 0.4023 0.0
H1111 H 0.97341 0.13657 0.39823 0.0
H1112 H 0.03574 0.1796 0.38293 0.0
H1113 H 0.08474 0.24357 0.37366 0.0
H1114 H 0.05557 0.32854 0.37694 0.0
H1115 H 0.9921 0.28441 0.38939 0.0
C1116 C 0.96603 0.21353 0.39804 0.0
C1117 C 0.95575 0.17685 0.40176 0.0
C1118 C 1.00144 0.23824 0.38905 0.0
C1119 C 0.98093 0.16483 0.39569 0.0
C1120 C 0.01653 0.18942 0.38696 0.0
C1121 C 0.06409 0.25208 0.37655 0.0
C1122 C 0.07467 0.28922 0.37422 0.0
C1123 C 0.02741 0.22642 0.3839 0.0
C1124 C 0.04792 0.30006 0.3785 0.0
C1125 C 0.01169 0.27489 0.38573 0.0
H1126 H 0.84991 0.81406 0.39826 0.0
H1127 H 0.77536 0.69852 0.40853 0.0
H1128 H 0.72316 0.70289 0.39311 0.0
H1129 H 0.69695 0.74017 0.37972 0.0
H1130 H 0.76977 0.8559 0.36994 0.0
H1131 H 0.82413 0.85108 0.382 0.0
C1132 C 0.82238 0.78985 0.39674 0.0
C1133 C 0.81643 0.75604 0.4047 0.0
C1134 C 0.79203 0.79268 0.38813 0.0
C1135 C 0.78054 0.72487 0.40271 0.0
C1136 C 0.75063 0.72735 0.39394 0.0
C1137 C 0.72488 0.76419 0.37995 0.0
C1138 C 0.72953 0.79813 0.37356 0.0
C1139 C 0.75577 0.7612 0.3871 0.0
C1140 C 0.76567 0.82928 0.37433 0.0
C1141 C 0.7967 0.82654 0.38137 0.0
H1142 H 0.1996 0.05567 0.39853 0.0
H1143 H 0.3088 0.07157 0.4158 0.0
H1144 H 0.29257 0.01239 0.40095 0.0
H1145 H 0.24693 0.95524 0.38404 0.0
H1146 H 0.13893 0.94013 0.36492 0.0
H1147 H 0.1554 -1e-05 0.37918 0.0
C1148 C 0.22006 0.04645 0.39876 0.0
C1149 C 0.25512 0.0679 0.40864 0.0
C1150 C 0.21075 0.01241 0.38992 0.0
C1151 C 0.28121 0.05532 0.40882 0.0
C1152 C 0.27207 0.02151 0.40022 0.0
C1153 C 0.22695 0.96499 0.38302 0.0
C1154 C 0.19164 0.94307 0.37363 0.0
C1155 C 0.23675 0.9996 0.39101 0.0
C1156 C 0.16633 0.95642 0.37212 0.0
C1157 C 0.17569 0.99066 0.38029 0.0
H1158 H 0.50151 0.59278 0.32982 0.0
H1159 H 0.50713 0.62956 0.26485 0.0
H1160 H 0.54809 0.69272 0.27552 0.0
H1161 H 0.58627 0.73717 0.30275 0.0
H1162 H 0.58032 0.70143 0.36778 0.0
H1163 H 0.53513 0.63844 0.35785 0.0
C1164 C 0.51108 0.61469 0.3181 0.0
C1165 C 0.50178 0.60634 0.2965 0.0
C1166 C 0.53471 0.65116 0.32436 0.0
C1167 C 0.51454 0.63512 0.2815 0.0
C1168 C 0.53791 0.67129 0.28758 0.0
C1169 C 0.57468 0.71553 0.31473 0.0
C1170 C 0.58618 0.72372 0.33596 0.0
C1171 C 0.5489 0.67953 0.30884 0.0
C1172 C 0.57113 0.69575 0.35143 0.0
C1173 C 0.5456 0.65971 0.34569 0.0
H1174 H 0.38872 0.93507 0.29972 0.0
H1175 H 0.35646 0.82129 0.30493 0.0
H1176 H 0.29483 0.80694 0.31979 0.0
H1177 H 0.24814 0.82649 0.32923 0.0
H1178 H 0.28255 0.94096 0.32492 0.0
H1179 H 0.34476 0.95513 0.31181 0.0
C1180 C 0.36817 0.9071 0.30403 0.0
C1181 C 0.37714 0.87927 0.30087 0.0
C1182 C 0.33294 0.89911 0.31278 0.0
C1183 C 0.35036 0.84328 0.30708 0.0
C1184 C 0.31501 0.83503 0.31554 0.0
C1185 C 0.26959 0.85458 0.32587 0.0
C1186 C 0.26079 0.88274 0.32832 0.0
C1187 C 0.30572 0.86266 0.31825 0.0
C1188 C 0.28866 0.91886 0.32336 0.0
C1189 C 0.32426 0.927 0.31577 0.0
H1190 H 0.1166 0.51187 0.3209 0.0
H1191 H 0.13308 0.4859 0.25661 0.0
H1192 H 0.14667 0.4395 0.27028 0.0
H1193 H 0.15464 0.4066 0.30059 0.0
H1194 H 0.14099 0.43475 0.36465 0.0
H1195 H 0.12667 0.4807 0.35105 0.0
C1196 C 0.12374 0.49655 0.30983 0.0
C1197 C 0.12368 0.50251 0.28771 0.0
C1198 C 0.13235 0.47042 0.31779 0.0
C1199 C 0.13223 0.48161 0.27369 0.0
C1200 C 0.1403 0.4552 0.2815 0.0
C1201 C 0.1485 0.42285 0.31152 0.0
C1202 C 0.14939 0.41772 0.33363 0.0
C1203 C 0.1404 0.44933 0.30351 0.0
C1204 C 0.14153 0.43892 0.34764 0.0
C1205 C 0.13293 0.46493 0.33983 0.0
H1206 H 0.37077 0.50607 0.30952 0.0
H1207 H 0.4174 0.43483 0.30169 0.0
H1208 H 0.35976 0.38365 0.31644 0.0
H1209 H 0.29429 0.35786 0.329 0.0
H1210 H 0.24709 0.42839 0.3369 0.0
H1211 H 0.30679 0.48113 0.32514 0.0
C1212 C 0.36857 0.47951 0.3114 0.0
C1213 C 0.39819 0.47422 0.30415 0.0
C1214 C 0.33515 0.45 0.31987 0.0
C1215 C 0.39474 0.43951 0.30666 0.0
C1216 C 0.36183 0.41022 0.31518 0.0
C1217 C 0.29734 0.38491 0.32836 0.0
C1218 C 0.26661 0.38936 0.33401 0.0
C1219 C 0.33156 0.41494 0.32137 0.0
C1220 C 0.2706 0.4244 0.33297 0.0
C1221 C 0.30466 0.45452 0.3261 0.0
H1222 H 0.54802 0.92323 0.3001 0.0
H1223 H 0.45127 0.81517 0.30716 0.0
H1224 H 0.49194 0.79213 0.32021 0.0
H1225 H 0.55611 0.80171 0.32669 0.0
H1226 H 0.65237 0.90983 0.31969 0.0
H1227 H 0.61109 0.93375 0.30917 0.0
C1228 C 0.53578 0.89462 0.30452 0.0
C1229 C 0.49659 0.8709 0.30237 0.0
C1230 C 0.55939 0.88153 0.31186 0.0
C1231 C 0.48122 0.83409 0.30865 0.0
C1232 C 0.50454 0.82082 0.31597 0.0
C1233 C 0.56777 0.83062 0.32329 0.0
C1234 C 0.60701 0.85428 0.32455 0.0
C1235 C 0.54377 0.84413 0.31725 0.0
C1236 C 0.62213 0.89144 0.31943 0.0
C1237 C 0.59855 0.90501 0.31327 0.0
H1238 H 0.07544 0.622 0.2896 0.0
H1239 H 0.1845 0.63397 0.30266 0.0
H1240 H 0.20242 0.6904 0.32204 0.0
H1241 H 0.18798 0.73806 0.33389 0.0
H1242 H 0.07973 0.72649 0.31866 0.0
H1243 H 0.06099 0.66862 0.30137 0.0
C1244 C 0.10334 0.6371 0.29644 0.0
C1245 C 0.12861 0.62377 0.29448 0.0
C1246 C 0.1137 0.66979 0.30719 0.0
C1247 C 0.16428 0.64334 0.30402 0.0
C1248 C 0.17466 0.67577 0.31502 0.0
C1249 C 0.1602 0.72268 0.32693 0.0
C1250 C 0.13539 0.73676 0.32753 0.0
C1251 C 0.14968 0.68944 0.31657 0.0
C1252 C 0.09956 0.71657 0.31833 0.0
C1253 C 0.08873 0.68337 0.30841 0.0
H1254 H 0.86735 0.0461 0.38774 0.0
H1255 H 0.78133 0.0711 0.4074 0.0
H1256 H 0.7329 0.01466 0.39164 0.0
H1257 H 0.7142 0.95656 0.37386 0.0
H1258 H 0.79965 0.93147 0.35353 0.0
H1259 H 0.8489 0.98984 0.36731 0.0
C1260 C 0.8381 0.0395 0.38831 0.0
C1261 C 0.82811 0.06265 0.39919 0.0
C1262 C 0.81016 0.00698 0.37894 0.0
C1263 C 0.78991 0.05343 0.39973 0.0
C1264 C 0.7621 0.02122 0.39056 0.0
C1265 C 0.74364 0.96406 0.37223 0.0
C1266 C 0.75322 0.93985 0.36245 0.0
C1267 C 0.77179 0.9975 0.38043 0.0
C1268 C 0.79151 0.94997 0.36049 0.0
C1269 C 0.81971 0.9832 0.36863 0.0
H1270 H 0.96353 0.81397 0.39941 0.0
H1271 H 0.92597 0.70124 0.41514 0.0
H1272 H 0.9836 0.70703 0.39958 0.0
H1273 H 0.0461 0.74454 0.38313 0.0
H1274 H 0.0869 0.85849 0.36972 0.0
H1275 H 0.02682 0.85182 0.38221 0.0
C1276 C 0.96795 0.79068 0.39926 0.0
C1277 C 0.94053 0.75727 0.40862 0.0
C1278 C 1.00177 0.7944 0.39057 0.0
C1279 C 0.94676 0.72737 0.40835 0.0
C1280 C 0.97969 0.73061 0.39937 0.0
C1281 C 0.04166 0.76783 0.38272 0.0
C1282 C 0.07065 0.80171 0.37496 0.0
C1283 C 0.00759 0.76406 0.39069 0.0
C1284 C 0.06475 0.83183 0.37499 0.0
C1285 C 0.03045 0.82808 0.38237 0.0
H1286 H 0.20025 0.14705 0.39935 0.0
H1287 H 0.30673 0.23497 0.42146 0.0
H1288 H 0.29125 0.27967 0.4075 0.0
H1289 H 0.24778 0.29425 0.38933 0.0
H1290 H 0.14284 0.20741 0.36511 0.0
H1291 H 0.15791 0.16199 0.37914 0.0
C1292 C 0.22032 0.17596 0.40091 0.0
C1293 C 0.25441 0.18737 0.41184 0.0
C1294 C 0.21161 0.20182 0.39239 0.0
C1295 C 0.27982 0.22512 0.41374 0.0
C1296 C 0.27116 0.25084 0.40557 0.0
C1297 C 0.22811 0.26542 0.38709 0.0
C1298 C 0.19414 0.25434 0.37625 0.0
C1299 C 0.23708 0.23954 0.39501 0.0
C1300 C 0.16926 0.21677 0.37333 0.0
C1301 C 0.17781 0.19076 0.38142 0.0
H1302 H 0.62994 0.55344 0.74816 0.0
H1303 H 0.66216 0.47098 0.74196 0.0
H1304 H 0.72238 0.51589 0.72549 0.0
H1305 H 0.76754 0.57982 0.71475 0.0
H1306 H 0.73392 0.66141 0.71998 0.0
H1307 H 0.67285 0.61587 0.73499 0.0
C1308 C 0.65026 0.5454 0.7433 0.0
C1309 C 0.64183 0.50909 0.74657 0.0
C1310 C 0.6846 0.57124 0.73363 0.0
C1311 C 0.66807 0.49883 0.73972 0.0
C1312 C 0.70252 0.5245 0.73033 0.0
C1313 C 0.74648 0.58734 0.71872 0.0
C1314 C 0.75495 0.62379 0.71596 0.0
C1315 C 0.71129 0.56091 0.72738 0.0
C1316 C 0.72781 0.63341 0.72176 0.0
C1317 C 0.69296 0.60743 0.73042 0.0
H1318 H 0.45854 0.0694 0.73732 0.0
H1319 H 0.54228 0.18362 0.73929 0.0
H1320 H 0.49762 0.19965 0.72321 0.0
H1321 H 0.43206 0.18072 0.712 0.0
H1322 H 0.34989 0.0658 0.70942 0.0
H1323 H 0.39643 0.05037 0.72228 0.0
C1324 C 0.46704 0.09776 0.73399 0.0
C1325 C 0.50327 0.12535 0.73965 0.0
C1326 C 0.44138 0.10658 0.72475 0.0
C1327 C 0.51435 0.162 0.7351 0.0
C1328 C 0.48879 0.17111 0.72601 0.0
C1329 C 0.4248 0.15237 0.71372 0.0
C1330 C 0.38773 0.12435 0.70953 0.0
C1331 C 0.45186 0.14363 0.72121 0.0
C1332 C 0.37834 0.08773 0.71237 0.0
C1333 C 0.40487 0.0789 0.71979 0.0
H1334 H 0.90309 0.39288 0.72165 0.0
H1335 H 0.87029 0.34126 0.78379 0.0
H1336 H 0.8568 0.28302 0.76849 0.0
H1337 H 0.85309 0.24668 0.73762 0.0
H1338 H 0.88453 0.29706 0.67522 0.0
H1339 H 0.89903 0.35593 0.6904 0.0
C1340 C 0.89264 0.3688 0.73179 0.0
C1341 C 0.88779 0.37141 0.75383 0.0
C1342 C 0.88454 0.33527 0.72285 0.0
C1343 C 0.87478 0.34009 0.76683 0.0
C1344 C 0.86685 0.30675 0.75809 0.0
C1345 C 0.86345 0.27059 0.72732 0.0
C1346 C 0.86756 0.26754 0.70529 0.0
C1347 C 0.87165 0.30408 0.73616 0.0
C1348 C 0.88049 0.29861 0.69215 0.0
C1349 C 0.88902 0.33229 0.70086 0.0
H1350 H 0.19606 0.97567 0.60676 0.0
H1351 H 0.15251 0.91683 0.66632 0.0
H1352 H 0.19266 0.97224 0.68601 0.0
H1353 H 0.24163 0.03708 0.68646 0.0
H1354 H 0.28856 0.09482 0.62726 0.0
H1355 H 0.24678 0.03976 0.60728 0.0
C1356 C 0.19562 0.97468 0.62403 0.0
C1357 C 0.17082 0.94191 0.63491 0.0
C1358 C 0.21973 0.00642 0.63536 0.0
C1359 C 0.17046 0.94168 0.65738 0.0
C1360 C 0.19376 0.97332 0.66873 0.0
C1361 C 0.24225 0.03767 0.66923 0.0
C1362 C 0.2676 0.06994 0.65833 0.0
C1363 C 0.21851 0.00583 0.6579 0.0
C1364 C 0.26923 0.07013 0.63596 0.0
C1365 C 0.24526 0.03875 0.62455 0.0
H1366 H 0.05585 0.264 0.64118 0.0
H1367 H 0.04526 0.15721 0.64007 0.0
H1368 H 0.98066 0.12988 0.65431 0.0
H1369 H 0.92476 0.13585 0.66304 0.0
H1370 H 0.93626 0.24292 0.66514 0.0
H1371 H 1.00293 0.27085 0.65476 0.0
C1372 C 0.03946 0.23481 0.64433 0.0
C1373 C 0.05495 0.21252 0.63934 0.0
C1374 C 1.00254 0.21943 0.65266 0.0
C1375 C 0.03378 0.17483 0.64374 0.0
C1376 C 0.99685 0.15922 0.65179 0.0
C1377 C 0.94234 0.16536 0.66185 0.0
C1378 C 0.92612 0.18748 0.66528 0.0
C1379 C 0.9806 0.18113 0.6558 0.0
C1380 C 0.94861 0.22558 0.66312 0.0
C1381 C 0.98655 0.24146 0.65697 0.0
H1382 H 0.83142 0.85672 0.6368 0.0
H1383 H 0.72345 0.77158 0.61465 0.0
H1384 H 0.73535 0.72523 0.63026 0.0
H1385 H 0.7753 0.70896 0.65137 0.0
H1386 H 0.88165 0.7946 0.67513 0.0
H1387 H 0.87084 0.84064 0.65823 0.0
C1388 C 0.81024 0.82806 0.63555 0.0
C1389 C 0.77653 0.81779 0.62457 0.0
C1390 C 0.81677 0.8016 0.64505 0.0
C1391 C 0.7499 0.78039 0.62271 0.0
C1392 C 0.75651 0.75382 0.63182 0.0
C1393 C 0.79615 0.73768 0.65285 0.0
C1394 C 0.82913 0.74824 0.66462 0.0
C1395 C 0.7897 0.76413 0.64318 0.0
C1396 C 0.85581 0.78563 0.66637 0.0
C1397 C 0.84976 0.81203 0.65662 0.0
H1398 H 0.06291 0.77894 0.63076 0.0
H1399 H 0.02944 0.8608 0.63392 0.0
H1400 H 0.97051 0.8173 0.65218 0.0
H1401 H 0.92712 0.75477 0.66571 0.0
H1402 H 0.96166 0.6736 0.66299 0.0
H1403 H 0.0216 0.71797 0.64631 0.0
C1404 C 0.04249 0.78705 0.63527 0.0
C1405 C 0.05012 0.82272 0.63068 0.0
C1406 C 0.00905 0.76213 0.64604 0.0
C1407 C 0.02394 0.8333 0.63711 0.0
C1408 C 0.99034 0.80851 0.6476 0.0
C1409 C 0.94817 0.74714 0.66192 0.0
C1410 C 0.94029 0.71114 0.6658 0.0
C1411 C 0.98247 0.77275 0.65206 0.0
C1412 C 0.96739 0.70132 0.66031 0.0
C1413 C 1.00152 0.72657 0.65066 0.0
H1414 H 0.16032 0.1802 0.63998 0.0
H1415 H 0.22641 0.29744 0.63343 0.0
H1416 H 0.28187 0.29669 0.6471 0.0
H1417 H 0.31233 0.26247 0.65976 0.0
H1418 H 0.24742 0.14496 0.66417 0.0
H1419 H 0.19103 0.14586 0.65256 0.0
C1420 C 0.18682 0.20552 0.64177 0.0
C1421 C 0.18936 0.23882 0.63573 0.0
C1422 C 0.21887 0.20479 0.64919 0.0
C1423 C 0.22391 0.27148 0.63789 0.0
C1424 C 0.2556 0.27106 0.64568 0.0
C1425 C 0.28573 0.23715 0.65827 0.0
C1426 C 0.28376 0.20382 0.66347 0.0
C1427 C 0.25355 0.23786 0.65117 0.0
C1428 C 0.24943 0.17107 0.66094 0.0
C1429 C 0.21718 0.17155 0.65415 0.0
H1430 H 0.73148 0.93957 0.62593 0.0
H1431 H 0.83743 0.94674 0.64194 0.0
H1432 H 0.85637 0.00355 0.6611 0.0
H1433 H 0.84446 0.0534 0.67119 0.0
H1434 H 0.73975 0.0471 0.65296 0.0
H1435 H 0.719 0.98803 0.63658 0.0
C1436 C 0.75888 0.95368 0.63344 0.0
C1437 C 0.78312 0.93909 0.63229 0.0
C1438 C 0.76992 0.98663 0.64396 0.0
C1439 C 0.8181 0.95725 0.64265 0.0
C1440 C 0.82906 0.98986 0.65351 0.0
C1441 C 0.81694 0.03886 0.66383 0.0
C1442 C 0.79379 0.05471 0.66318 0.0
C1443 C 0.8054 0.00508 0.65402 0.0
C1444 C 0.7583 0.03569 0.6535 0.0
C1445 C 0.74635 0.00186 0.64413 0.0
H1446 H 0.47094 0.38535 0.75293 0.0
H1447 H 0.56885 0.37827 0.73397 0.0
H1448 H 0.52821 0.32021 0.71643 0.0
H1449 H 0.46472 0.27048 0.70741 0.0
H1450 H 0.36704 0.27668 0.728 0.0
H1451 H 0.40783 0.33546 0.74457 0.0
C1452 C 0.48353 0.37097 0.74527 0.0
C1453 C 0.52307 0.38635 0.74493 0.0
C1454 C 0.45998 0.33719 0.73562 0.0
C1455 C 0.53863 0.3675 0.73434 0.0
C1456 C 0.51537 0.33408 0.72442 0.0
C1457 C 0.45232 0.28477 0.7154 0.0
C1458 C 0.41277 0.26917 0.7163 0.0
C1459 C 0.47599 0.31859 0.72505 0.0
C1460 C 0.39729 0.2879 0.72703 0.0
C1461 C 0.42063 0.32162 0.73649 0.0
H1462 H 0.64411 0.16193 0.73312 0.0
H1463 H 0.59075 0.04647 0.74726 0.0
H1464 H 0.64306 0.04366 0.73021 0.0
H1465 H 0.70541 0.07425 0.71306 0.0
H1466 H 0.76225 0.19045 0.70136 0.0
H1467 H 0.70711 0.19276 0.71508 0.0
C1468 C 0.64396 0.13619 0.7323 0.0
C1469 C 0.61376 0.1045 0.74164 0.0
C1470 C 0.67465 0.13489 0.72275 0.0
C1471 C 0.61392 0.07132 0.74052 0.0
C1472 C 0.64373 0.06965 0.73067 0.0
C1473 C 0.70546 0.09999 0.71326 0.0
C1474 C 0.7374 0.13193 0.70573 0.0
C1475 C 0.67442 0.10128 0.72199 0.0
C1476 C 0.73753 0.16528 0.70648 0.0
C1477 C 0.70617 0.16665 0.71458 0.0
H1478 H 0.93478 0.53627 0.75563 0.0
H1479 H 0.82574 0.44295 0.74287 0.0
H1480 H 0.80751 0.48202 0.72338 0.0
H1481 H 0.82223 0.54337 0.71068 0.0
H1482 H 0.93125 0.63619 0.72472 0.0
H1483 H 0.94953 0.59673 0.74297 0.0
C1484 C 0.90687 0.52453 0.7488 0.0
C1485 C 0.88168 0.48684 0.75077 0.0
C1486 C 0.89652 0.54708 0.73775 0.0
C1487 C 0.84583 0.47192 0.74144 0.0
C1488 C 0.83533 0.49423 0.73034 0.0
C1489 C 0.85007 0.55483 0.71758 0.0
C1490 C 0.8752 0.59272 0.71636 0.0
C1491 C 0.86045 0.53193 0.72841 0.0
C1492 C 0.91113 0.6072 0.72551 0.0
C1493 C 0.92172 0.58465 0.736 0.0
H1494 H 0.42943 0.91446 0.2253 0.0
H1495 H 0.53402 0.97833 0.25858 0.0
H1496 H 0.56263 0.01574 0.2267 0.0
H1497 H 0.55895 0.0297 0.18917 0.0
H1498 H 0.45472 0.96695 0.15534 0.0
H1499 H 0.42546 0.92954 0.18731 0.0
C1500 C 0.45834 0.93682 0.2256 0.0
C1501 C 0.47952 0.94342 0.24438 0.0
C1502 C 0.47494 0.95824 0.20698 0.0
C1503 C 0.51712 0.97234 0.24436 0.0
C1504 C 0.53355 0.99382 0.2261 0.0
C1505 C 0.52968 0.00812 0.18875 0.0
C1506 C 0.50922 0.00145 0.16969 0.0
C1507 C 0.51288 0.98689 0.20728 0.0
C1508 C 0.4715 0.97265 0.16957 0.0
C1509 C 0.45458 0.95135 0.18797 0.0
H1510 H 0.08883 0.51737 0.2159 0.0
H1511 H 0.02667 0.5637 0.24543 0.0
H1512 H 0.98936 0.55226 0.21325 0.0
H1513 H 0.97465 0.52964 0.17655 0.0
H1514 H 0.03542 0.48152 0.14745 0.0
H1515 H 0.07279 0.49303 0.1796 0.0
C1516 C 0.06686 0.52462 0.2154 0.0
C1517 C 0.06076 0.54153 0.23309 0.0
C1518 C 0.04525 0.51774 0.19686 0.0
C1519 C 0.03247 0.55119 0.23197 0.0
C1520 C 0.01091 0.54445 0.2136 0.0
C1521 C 0.99577 0.52129 0.17731 0.0
C1522 C 1.00222 0.50485 0.15951 0.0
C1523 C 0.01709 0.52781 0.19593 0.0
C1524 C 0.03017 0.49473 0.16074 0.0
C1525 C 0.05145 0.50111 0.17919 0.0
H1526 H 0.4375 0.48344 0.22887 0.0
H1527 H 0.55021 0.54256 0.25389 0.0
H1528 H 0.57544 0.53074 0.22136 0.0
H1529 H 0.56576 0.50511 0.18541 0.0
H1530 H 0.45319 0.44618 0.16016 0.0
H1531 H 0.42764 0.45645 0.1931 0.0
C1532 C 0.46752 0.49336 0.22726 0.0
C1533 C 0.49195 0.5139 0.24374 0.0
C1534 C 0.48188 0.48667 0.20843 0.0
C1535 C 0.53086 0.52701 0.24134 0.0
C1536 C 0.5453 0.52016 0.22278 0.0
C1537 C 0.53559 0.49414 0.18721 0.0
C1538 C 0.51144 0.47492 0.17034 0.0
C1539 C 0.52111 0.50025 0.20616 0.0
C1540 C 0.47246 0.46141 0.17281 0.0
C1541 C 0.4578 0.46713 0.19168 0.0
H1542 H 0.98671 0.51564 0.80164 0.0
H1543 H 0.9063 0.41025 0.82812 0.0
H1544 H 0.94128 0.42521 0.86142 0.0
H1545 H 0.99579 0.46719 0.88254 0.0
H1546 H 0.07711 0.57245 0.85627 0.0
H1547 H 0.04106 0.5585 0.8233 0.0
C1548 C 0.97672 0.49622 0.81483 0.0
C1549 C 0.94404 0.46192 0.81248 0.0
C1550 C 0.99734 0.5048 0.83385 0.0
C1551 C 0.93155 0.43674 0.82955 0.0
C1552 C 0.95151 0.44526 0.84858 0.0
C1553 C 1.00544 0.48725 0.86969 0.0
C1554 C 0.03907 0.52082 0.87188 0.0
C1555 C 0.98462 0.47904 0.85083 0.0
C1556 C 0.05153 0.54624 0.85491 0.0
C1557 C 0.0308 0.53837 0.8361 0.0
H1558 H 0.59381 0.49183 0.8229 0.0
H1559 H 0.48737 0.45394 0.79145 0.0
H1560 H 0.45997 0.46269 0.82401 0.0
H1561 H 0.46527 0.47918 0.86164 0.0
H1562 H 0.57137 0.51771 0.89362 0.0
H1563 H 0.59953 0.51011 0.86087 0.0
C1564 C 0.56476 0.4859 0.82316 0.0
C1565 C 0.54264 0.47208 0.80476 0.0
C1566 C 0.54893 0.4907 0.84212 0.0
C1567 C 0.50491 0.46421 0.80543 0.0
C1568 C 0.4892 0.46925 0.82405 0.0
C1569 C 0.49471 0.48636 0.86145 0.0
C1570 C 0.51606 0.49907 0.88019 0.0
C1571 C 0.5108 0.48216 0.84254 0.0
C1572 C 0.55399 0.50744 0.8796 0.0
C1573 C 0.57025 0.50336 0.86079 0.0
H1574 H 0.57779 0.09067 0.81866 0.0
H1575 H 0.46444 0.03591 0.7942 0.0
H1576 H 0.44058 0.00312 0.82795 0.0
H1577 H 0.45159 0.98885 0.8642 0.0
H1578 H 0.56479 0.04186 0.88876 0.0
H1579 H 0.58876 0.07654 0.8554 0.0
C1580 C 0.54789 0.07144 0.82068 0.0
C1581 C 0.52302 0.06603 0.80381 0.0
C1582 C 0.53422 0.05235 0.84023 0.0
C1583 C 0.48427 0.04121 0.80691 0.0
C1584 C 0.47056 0.0222 0.82621 0.0
C1585 C 0.48157 0.00779 0.86226 0.0
C1586 C 0.50628 0.01245 0.87906 0.0
C1587 C 0.49524 0.02741 0.84295 0.0
C1588 C 0.54495 0.03783 0.87628 0.0
C1589 C 0.55876 0.05753 0.8571 0.0
H1590 H 0.15958 0.24798 0.5607 0.0
H1591 H 0.1169 0.31486 0.58671 0.0
H1592 H 0.12979 0.34811 0.55275 0.0
H1593 H 0.15584 0.35994 0.51612 0.0
H1594 H 0.197 0.29201 0.48981 0.0
H1595 H 0.18183 0.25721 0.5233 0.0
C1596 C 0.15307 0.26982 0.55888 0.0
C1597 C 0.1376 0.27918 0.57623 0.0
C1598 C 0.1603 0.2886 0.53926 0.0
C1599 C 0.12872 0.30711 0.57357 0.0
C1600 C 0.13623 0.3262 0.55419 0.0
C1601 C 0.16137 0.33743 0.51773 0.0
C1602 C 0.17777 0.32872 0.50056 0.0
C1603 C 0.15241 0.31746 0.53701 0.0
C1604 C 0.18424 0.29914 0.50274 0.0
C1605 C 0.17577 0.27938 0.52193 0.0
H1606 H 0.75021 0.84138 0.55053 0.0
H1607 H 0.68396 0.88126 0.58227 0.0
H1608 H 0.64928 0.87449 0.5496 0.0
H1609 H 0.6384 0.85845 0.51194 0.0
H1610 H 0.70288 0.81681 0.48003 0.0
H1611 H 0.73774 0.82332 0.51275 0.0
C1612 C 0.72793 0.84822 0.55032 0.0
C1613 C 0.71992 0.86206 0.56879 0.0
C1614 C 0.70792 0.84419 0.53142 0.0
C1615 C 0.69116 0.87113 0.5682 0.0
C1616 C 0.67116 0.86712 0.54955 0.0
C1617 C 0.65973 0.85034 0.51218 0.0
C1618 C 0.66792 0.83713 0.49352 0.0
C1619 C 0.67942 0.85386 0.53105 0.0
C1620 C 0.69627 0.82748 0.49406 0.0
C1621 C 0.71607 0.83098 0.51282 0.0
H1622 H 0.09781 0.83991 0.55551 0.0
H1623 H 0.20551 0.87626 0.58517 0.0
H1624 H 0.23124 0.86819 0.55176 0.0
H1625 H 0.22408 0.85266 0.5139 0.0
H1626 H 0.1161 0.81426 0.48409 0.0
H1627 H 0.08992 0.82178 0.51758 0.0
C1628 C 0.12677 0.84563 0.55471 0.0
C1629 C 0.14972 0.85897 0.57285 0.0
C1630 C 0.14155 0.84096 0.53532 0.0
C1631 C 0.18732 0.86654 0.57142 0.0
C1632 C 0.20208 0.86182 0.55231 0.0
C1633 C 0.19465 0.84543 0.51471 0.0
C1634 C 0.17226 0.83294 0.49631 0.0
C1635 C 0.17959 0.84937 0.53411 0.0
C1636 C 0.13435 0.8245 0.49778 0.0
C1637 C 0.11919 0.8285 0.51703 0.0
H1638 H 0.64932 0.77816 0.13188 0.0
H1639 H 0.57083 0.81177 0.15348 0.0
H1640 H 0.60371 0.83113 0.18733 0.0
H1641 H 0.65551 0.83977 0.21059 0.0
H1642 H 0.73156 0.80257 0.18982 0.0
H1643 H 0.6989 0.78356 0.15595 0.0
C1644 C 0.639 0.7892 0.14408 0.0
C1645 C 0.60771 0.79366 0.13997 0.0
C1646 C 0.65781 0.79996 0.16367 0.0
C1647 C 0.59522 0.80858 0.15596 0.0
C1648 C 0.61389 0.8195 0.17542 0.0
C1649 C 0.66472 0.82708 0.19881 0.0
C1650 C 0.69631 0.82301 0.20284 0.0
C1651 C 0.64537 0.81554 0.17941 0.0
C1652 C 0.70795 0.80691 0.18711 0.0
C1653 C 0.68906 0.79568 0.16774 0.0
H1654 H 0.24333 0.84476 0.15014 0.0
H1655 H 0.13431 0.78687 0.12041 0.0
H1656 H 0.10415 0.79246 0.15275 0.0
H1657 H 0.10839 0.81308 0.18961 0.0
H1658 H 0.21722 0.87187 0.21941 0.0
H1659 H 0.24766 0.86652 0.18702 0.0
C1660 C 0.21302 0.83366 0.1507 0.0
C1661 C 0.19114 0.81526 0.13288 0.0
C1662 C 0.19575 0.83698 0.1694 0.0
C1663 C 0.15181 0.80069 0.13397 0.0
C1664 C 0.13452 0.80403 0.15243 0.0
C1665 C 0.13881 0.82508 0.18896 0.0
C1666 C 0.16041 0.84285 0.20696 0.0
C1667 C 0.15616 0.82201 0.17027 0.0
C1668 C 0.19979 0.85765 0.20591 0.0
C1669 C 0.21728 0.85479 0.18734 0.0
H1670 H 0.2478 0.42048 0.14944 0.0
H1671 H 0.1423 0.34784 0.11906 0.0
H1672 H 0.11729 0.31416 0.15239 0.0
H1673 H 0.12424 0.30566 0.19024 0.0
H1674 H 0.22995 0.37583 0.22112 0.0
H1675 H 0.25545 0.41037 0.18783 0.0
C1676 C 0.21948 0.39707 0.1501 0.0
C1677 C 0.1969 0.38707 0.1317 0.0
C1678 C 0.20502 0.37754 0.16953 0.0
C1679 C 0.16016 0.35669 0.13296 0.0
C1680 C 0.14579 0.33726 0.15205 0.0
C1681 C 0.15307 0.32818 0.18975 0.0
C1682 C 0.17502 0.33779 0.20837 0.0
C1683 C 0.16781 0.34754 0.17046 0.0
C1684 C 0.21203 0.36785 0.20727 0.0
C1685 C 0.22682 0.3875 0.18811 0.0
H1686 H 0.83564 0.58158 0.89295 0.0
H1687 H 0.81376 0.66153 0.92224 0.0
H1688 H 0.83305 0.69805 0.88943 0.0
H1689 H 0.85635 0.70768 0.8524 0.0
H1690 H 0.87743 0.62766 0.82255 0.0
H1691 H 0.85802 0.59079 0.85536 0.0
C1692 C 0.83527 0.60708 0.89214 0.0
C1693 C 0.8232 0.61873 0.91008 0.0
C1694 C 0.84613 0.62793 0.87305 0.0
C1695 C 0.82252 0.65168 0.90866 0.0
C1696 C 0.8337 0.67269 0.88991 0.0
C1697 C 0.8569 0.68226 0.85309 0.0
C1698 C 0.86855 0.67062 0.83499 0.0
C1699 C 0.84557 0.66113 0.872 0.0
C1700 C 0.86837 0.63722 0.83612 0.0
C1701 C 0.85745 0.61619 0.85496 0.0
H1702 H 0.33956 0.19999 0.9042 0.0
H1703 H 0.41431 0.16089 0.88416 0.0
H1704 H 0.38489 0.14616 0.84914 0.0
H1705 H 0.33812 0.14458 0.82423 0.0
H1706 H 0.26566 0.18667 0.84376 0.0
H1707 H 0.29403 0.19995 0.87901 0.0
C1708 C 0.34973 0.18863 0.8921 0.0
C1709 C 0.37912 0.18159 0.89682 0.0
C1710 C 0.33302 0.18063 0.87194 0.0
C1711 C 0.39143 0.16618 0.88106 0.0
C1712 C 0.37477 0.15794 0.86099 0.0
C1713 C 0.32879 0.15704 0.8361 0.0
C1714 C 0.29976 0.16458 0.8313 0.0
C1715 C 0.34558 0.1651 0.85625 0.0
C1716 C 0.28756 0.18007 0.84707 0.0
C1717 C 0.30394 0.18792 0.8672 0.0
H1718 H 0.75807 0.17779 0.88868 0.0
H1719 H 0.86819 0.21945 0.91622 0.0
H1720 H 0.89088 0.20437 0.88386 0.0
H1721 H 0.88006 0.18034 0.84751 0.0
H1722 H 0.77052 0.13927 0.81932 0.0
H1723 H 0.7472 0.15346 0.8519 0.0
C1724 C 0.78692 0.18326 0.88761 0.0
C1725 C 0.8114 0.19978 0.90486 0.0
C1726 C 0.80001 0.1749 0.86874 0.0
C1727 C 0.84885 0.20707 0.90313 0.0
C1728 C 0.86185 0.19839 0.88463 0.0
C1729 C 0.85098 0.1742 0.84853 0.0
C1730 C 0.8271 0.15863 0.83094 0.0
C1731 C 0.83778 0.18247 0.8673 0.0
C1732 C 0.78968 0.15155 0.83248 0.0
C1733 C 0.77624 0.15945 0.85119 0.0
H1734 H 0.28439 0.17332 0.4864 0.0
H1735 H 0.35356 0.13405 0.45761 0.0
H1736 H 0.3893 0.14601 0.49041 0.0
H1737 H 0.40002 0.16605 0.52757 0.0
H1738 H 0.33237 0.20715 0.55622 0.0
H1739 H 0.2971 0.19609 0.52323 0.0
C1740 C 0.30755 0.16778 0.48723 0.0
C1741 C 0.31599 0.1525 0.46959 0.0
C1742 C 0.32822 0.17488 0.50616 0.0
C1743 C 0.34593 0.14517 0.47105 0.0
C1744 C 0.36658 0.15219 0.48977 0.0
C1745 C 0.37792 0.17308 0.52653 0.0
C1746 C 0.36882 0.18726 0.54443 0.0
C1747 C 0.35783 0.16681 0.50748 0.0
C1748 C 0.33964 0.19565 0.54283 0.0
C1749 C 0.31955 0.18953 0.52392 0.0
H1750 H 0.91035 0.16053 0.47882 0.0
H1751 H 0.80641 0.13598 0.44806 0.0
H1752 H 0.78256 0.14746 0.48113 0.0
H1753 H 0.78996 0.1625 0.51897 0.0
H1754 H 0.8937 0.18805 0.55035 0.0
H1755 H 0.91848 0.1776 0.51711 0.0
C1756 C 0.88267 0.15809 0.47936 0.0
C1757 C 0.86013 0.14716 0.46098 0.0
C1758 C 0.86884 0.1645 0.49862 0.0
C1759 C 0.82417 0.14387 0.462 0.0
C1760 C 0.81049 0.1505 0.48091 0.0
C1761 C 0.81821 0.16628 0.51856 0.0
C1762 C 0.83984 0.17617 0.53727 0.0
C1763 C 0.8324 0.1605 0.49937 0.0
C1764 C 0.8761 0.18005 0.53636 0.0
C1765 C 0.89045 0.17433 0.51726 0.0
H1766 H 0.90059 0.73864 0.48594 0.0
H1767 H 0.78998 0.67233 0.45918 0.0
H1768 H 0.76662 0.64001 0.493 0.0
H1769 H 0.77684 0.63026 0.53021 0.0
H1770 H 0.88766 0.69374 0.55717 0.0
H1771 H 0.91124 0.72755 0.52354 0.0
C1772 C 0.87146 0.71696 0.48747 0.0
C1773 C 0.84708 0.70844 0.46994 0.0
C1774 C 0.85802 0.698 0.50713 0.0
C1775 C 0.80932 0.68024 0.47239 0.0
C1776 C 0.79589 0.66148 0.49176 0.0
C1777 C 0.8063 0.65117 0.52876 0.0
C1778 C 0.8303 0.65913 0.5464 0.0
C1779 C 0.81989 0.67014 0.50925 0.0
C1780 C 0.86821 0.68711 0.54411 0.0
C1781 C 0.88187 0.70634 0.52475 0.0
loop_
_geom_bond_atom_site_label_1
_geom_bond_atom_site_label_2
_geom_bond_distance
_geom_bond_site_symmetry_2
_ccdc_geom_bond_type
H0 C3 0.931 . S
H1 C6 0.928 . S
H2 C8 0.930 . S
C3 H0 0.931 . S
C3 C4 1.413 . S
C3 C5 1.360 . S
C4 C3 1.413 . S
C4 C8 1.429 . S
C5 C3 1.360 . S
C5 C6 1.372 . S
C6 H1 0.928 . S
C6 C5 1.372 . S
C6 C7 1.404 . S
C7 C6 1.404 . S
C7 C8 1.391 . S
C8 H2 0.930 . S
C8 C4 1.429 . S
C8 C7 1.391 . S
H9 C12 0.931 . S
H10 C15 0.928 . S
H11 C17 0.930 . S
C12 H9 0.931 . S
C12 C13 1.413 . S
C12 C14 1.360 . S
C13 C12 1.413 . S
C13 C17 1.429 . S
C14 C12 1.360 . S
C14 C15 1.372 . S
C15 H10 0.928 . S
C15 C14 1.372 . S
C15 C16 1.404 . S
C16 C15 1.404 . S
C16 C17 1.391 . S
C17 H11 0.930 . S
C17 C13 1.429 . S
C17 C16 1.391 . S
H18 C21 0.931 . S
H19 C24 0.928 . S
H20 C26 0.930 . S
C21 H18 0.931 . S
C21 C22 1.413 . S
C21 C23 1.360 . S
C22 C21 1.413 . S
C22 C26 1.429 . S
C23 C21 1.360 . S
C23 C24 1.372 . S
C24 H19 0.928 . S
C24 C23 1.372 . S
C24 C25 1.404 . S
C25 C24 1.404 . S
C25 C26 1.391 . S
C26 H20 0.930 . S
C26 C22 1.429 . S
C26 C25 1.391 . S
H27 C30 0.931 . S
H28 C33 0.928 . S
H29 C35 0.930 . S
C30 H27 0.931 . S
C30 C31 1.413 . S
C30 C32 1.360 . S
C31 C30 1.413 . S
C31 C35 1.429 . S
C32 C30 1.360 . S
C32 C33 1.372 . S
C33 H28 0.928 . S
C33 C32 1.372 . S
C33 C34 1.404 . S
C34 C33 1.404 . S
C34 C35 1.391 . S
C35 H29 0.930 . S
C35 C31 1.429 . S
C35 C34 1.391 . S
H36 C39 0.931 . S
H37 C42 0.928 . S
H38 C44 0.930 . S
C39 H36 0.931 . S
C39 C40 1.413 . S
C39 C41 1.360 . S
C40 C39 1.413 . S
C40 C44 1.429 . S
C41 C39 1.360 . S
C41 C42 1.372 . S
C42 H37 0.928 . S
C42 C41 1.372 . S
C42 C43 1.404 . S
C43 C42 1.404 . S
C43 C44 1.391 . S
C44 H38 0.930 . S
C44 C40 1.429 . S
C44 C43 1.391 . S
H45 C48 0.931 . S
H46 C51 0.928 . S
H47 C53 0.930 . S
C48 H45 0.931 . S
C48 C49 1.413 . S
C48 C50 1.360 . S
C49 C48 1.413 . S
C49 C53 1.429 . S
C50 C48 1.360 . S
C50 C51 1.372 . S
C51 H46 0.928 . S
C51 C50 1.372 . S
C51 C52 1.404 . S
C52 C51 1.404 . S
C52 C53 1.391 . S
C53 H47 0.930 . S
C53 C49 1.429 . S
C53 C52 1.391 . S
H54 C57 0.931 . S
H55 C60 0.928 . S
H56 C62 0.930 . S
C57 H54 0.931 . S
C57 C58 1.413 . S
C57 C59 1.360 . S
C58 C57 1.413 . S
C58 C62 1.429 . S
C59 C57 1.360 . S
C59 C60 1.372 . S
C60 H55 0.928 . S
C60 C59 1.372 . S
C60 C61 1.404 . S
C61 C60 1.404 . S
C61 C62 1.391 . S
C62 H56 0.930 . S
C62 C58 1.429 . S
C62 C61 1.391 . S
H63 C66 0.931 . S
H64 C69 0.928 . S
H65 C71 0.930 . S
C66 H63 0.931 . S
C66 C67 1.413 . S
C66 C68 1.360 . S
C67 C66 1.413 . S
C67 C71 1.429 . S
C68 C66 1.360 . S
C68 C69 1.372 . S
C69 H64 0.928 . S
C69 C68 1.372 . S
C69 C70 1.404 . S
C70 C69 1.404 . S
C70 C71 1.391 . S
C71 H65 0.930 . S
C71 C67 1.429 . S
C71 C70 1.391 . S
H72 C75 0.931 . S
H73 C78 0.928 . S
H74 C80 0.930 . S
C75 H72 0.931 . S
C75 C76 1.413 . S
C75 C77 1.360 . S
C76 C75 1.413 . S
C76 C80 1.429 . S
C77 C75 1.360 . S
C77 C78 1.372 . S
C78 H73 0.928 . S
C78 C77 1.372 . S
C78 C79 1.404 . S
C79 C78 1.404 . S
C79 C80 1.391 . S
C80 H74 0.930 . S
C80 C76 1.429 . S
C80 C79 1.391 . S
H81 C84 0.931 . S
H82 C87 0.928 . S
H83 C89 0.930 . S
C84 H81 0.931 . S
C84 C85 1.413 . S
C84 C86 1.360 . S
C85 C84 1.413 . S
C85 C89 1.429 . S
C86 C84 1.360 . S
C86 C87 1.372 . S
C87 H82 0.928 . S
C87 C86 1.372 . S
C87 C88 1.404 . S
C88 C87 1.404 . S
C88 C89 1.391 . S
C89 H83 0.930 . S
C89 C85 1.429 . S
C89 C88 1.391 . S
H90 C93 0.931 . S
H91 C96 0.928 . S
H92 C98 0.930 . S
C93 H90 0.931 . S
C93 C94 1.413 . S
C93 C95 1.360 . S
C94 C93 1.413 . S
C94 C98 1.429 . S
C95 C93 1.360 . S
C95 C96 1.372 . S
C96 H91 0.928 . S
C96 C95 1.372 . S
C96 C97 1.404 . S
C97 C96 1.404 . S
C97 C98 1.391 . S
C98 H92 0.930 . S
C98 C94 1.429 . S
C98 C97 1.391 . S
H99 C102 0.931 . S
H100 C105 0.928 . S
H101 C107 0.930 . S
C102 H99 0.931 . S
C102 C103 1.413 . S
C102 C104 1.360 . S
C103 C102 1.413 . S
C103 C107 1.429 . S
C104 C102 1.360 . S
C104 C105 1.372 . S
C105 H100 0.928 . S
C105 C104 1.372 . S
C105 C106 1.404 . S
C106 C105 1.404 . S
C106 C107 1.391 . S
C107 H101 0.930 . S
C107 C103 1.429 . S
C107 C106 1.391 . S
H108 C111 0.931 . S
H109 C114 0.928 . S
H110 C116 0.930 . S
C111 H108 0.931 . S
C111 C112 1.413 . S
C111 C113 1.360 . S
C112 C111 1.413 . S
C112 C116 1.429 . S
C113 C111 1.360 . S
C113 C114 1.372 . S
C114 H109 0.928 . S
C114 C113 1.372 . S
C114 C115 1.404 . S
C115 C114 1.404 . S
C115 C116 1.391 . S
C116 H110 0.930 . S
C116 C112 1.429 . S
C116 C115 1.391 . S
H117 C120 0.931 . S
H118 C123 0.928 . S
H119 C125 0.930 . S
C120 H117 0.931 . S
C120 C121 1.413 . S
C120 C122 1.360 . S
C121 C120 1.413 . S
C121 C125 1.429 . S
C122 C120 1.360 . S
C122 C123 1.372 . S
C123 H118 0.928 . S
C123 C122 1.372 . S
C123 C124 1.404 . S
C124 C123 1.404 . S
C124 C125 1.391 . S
C125 H119 0.930 . S
C125 C121 1.429 . S
C125 C124 1.391 . S
H126 C129 0.931 . S
H127 C132 0.928 . S
H128 C134 0.930 . S
C129 H126 0.931 . S
C129 C130 1.413 . S
C129 C131 1.360 . S
C130 C129 1.413 . S
C130 C134 1.429 . S
C131 C129 1.360 . S
C131 C132 1.372 . S
C132 H127 0.928 . S
C132 C131 1.372 . S
C132 C133 1.404 . S
C133 C132 1.404 . S
C133 C134 1.391 . S
C134 H128 0.930 . S
C134 C130 1.429 . S
C134 C133 1.391 . S
H135 C138 0.931 . S
H136 C141 0.928 . S
H137 C143 0.930 . S
C138 H135 0.931 . S
C138 C139 1.413 . S
C138 C140 1.360 . S
C139 C138 1.413 . S
C139 C143 1.429 . S
C140 C138 1.360 . S
C140 C141 1.372 . S
C141 H136 0.928 . S
C141 C140 1.372 . S
C141 C142 1.404 . S
C142 C141 1.404 . S
C142 C143 1.391 . S
C143 H137 0.930 . S
C143 C139 1.429 . S
C143 C142 1.391 . S
H144 C147 0.931 . S
H145 C150 0.928 . S
H146 C152 0.930 . S
C147 H144 0.931 . S
C147 C148 1.413 . S
C147 C149 1.360 . S
C148 C147 1.413 . S
C148 C152 1.429 . S
C149 C147 1.360 . S
C149 C150 1.372 . S
C150 H145 0.928 . S
C150 C149 1.372 . S
C150 C151 1.404 . S
C151 C150 1.404 . S
C151 C152 1.391 . S
C152 H146 0.930 . S
C152 C148 1.429 . S
C152 C151 1.391 . S
H153 C156 0.931 . S
H154 C159 0.928 . S
H155 C161 0.930 . S
C156 H153 0.931 . S
C156 C157 1.413 . S
C156 C158 1.360 . S
C157 C156 1.413 . S
C157 C161 1.429 . S
C158 C156 1.360 . S
C158 C159 1.372 . S
C159 H154 0.928 . S
C159 C158 1.372 . S
C159 C160 1.404 . S
C160 C159 1.404 . S
C160 C161 1.391 . S
C161 H155 0.930 . S
C161 C157 1.429 . S
C161 C160 1.391 . S
Gd162 N193 2.661 . S
Gd162 N199 2.601 . S
Gd162 O206 2.545 . S
Gd162 O207 2.606 1_545 S
Gd162 O209 2.429 . S
Gd162 O210 2.545 1_545 S
Gd162 O211 2.412 . S
Gd162 O213 2.362 1_554 S
Gd162 O214 2.324 1_545 S
Gd162 C221 2.828 . S
Gd163 N172 2.661 . S
Gd163 N176 2.601 . S
Gd163 O207 2.362 1_556 S
Gd163 O208 2.324 1_565 S
Gd163 O212 2.545 . S
Gd163 O213 2.606 1_565 S
Gd163 O215 2.429 . S
Gd163 O216 2.545 1_565 S
Gd163 O217 2.412 . S
Gd163 C230 2.828 . S
C164 C167 1.417 . S
C164 C169 1.431 . S
C164 C170 1.412 . S
C165 C168 1.437 . S
C165 C169 1.317 . S
C165 H184 0.929 . S
C166 C167 1.426 . S
C166 C168 1.413 . S
C166 N176 1.359 . S
C167 C164 1.417 . S
C167 C166 1.426 . S
C167 N172 1.350 . S
C168 C165 1.437 . S
C168 C166 1.413 . S
C168 C178 1.391 . S
C169 C164 1.431 . S
C169 C165 1.317 . S
C169 H180 0.930 . S
C170 C164 1.412 . S
C170 C171 1.355 . S
C170 H182 0.930 . S
C171 C170 1.355 . S
C171 C173 1.402 . S
C171 H183 0.930 . S
N172 Gd163 2.661 . S
N172 C167 1.350 . S
N172 C173 1.307 . S
C173 C171 1.402 . S
C173 N172 1.307 . S
C173 H174 0.930 . S
H174 C173 0.930 . S
C175 N176 1.334 . S
C175 C177 1.394 . S
C175 H179 0.930 . S
N176 Gd163 2.601 . S
N176 C166 1.359 . S
N176 C175 1.334 . S
C177 C175 1.394 . S
C177 C178 1.359 . S
C177 H189 0.930 . S
C178 C168 1.391 . S
C178 C177 1.359 . S
C178 H190 0.929 . S
H179 C175 0.930 . S
H180 C169 0.930 . S
H181 C198 0.930 . S
H182 C170 0.930 . S
H183 C171 0.930 . S
H184 C165 0.929 . S
H185 C203 0.930 . S
H186 C194 0.930 . S
H187 C195 0.930 . S
H188 C219 0.929 . S
H189 C177 0.930 . S
H190 C178 0.929 . S
H191 C220 0.930 . S
H192 C201 0.930 . S
N193 Gd162 2.661 . S
N193 C197 1.350 . S
N193 C198 1.307 . S
C194 H186 0.930 . S
C194 C195 1.355 . S
C194 C196 1.412 . S
C195 H187 0.930 . S
C195 C194 1.355 . S
C195 C198 1.402 . S
C196 C194 1.412 . S
C196 C197 1.417 . S
C196 C220 1.431 . S
C197 N193 1.350 . S
C197 C196 1.417 . S
C197 C200 1.426 . S
C198 H181 0.930 . S
C198 N193 1.307 . S
C198 C195 1.402 . S
N199 Gd162 2.601 . S
N199 C200 1.359 . S
N199 C203 1.334 . S
C200 C197 1.426 . S
C200 N199 1.359 . S
C200 C204 1.413 . S
C201 H192 0.930 . S
C201 C202 1.359 . S
C201 C203 1.394 . S
C202 C201 1.359 . S
C202 C204 1.391 . S
C202 H205 0.929 . S
C203 H185 0.930 . S
C203 N199 1.334 . S
C203 C201 1.394 . S
C204 C200 1.413 . S
C204 C202 1.391 . S
C204 C219 1.437 . S
H205 C202 0.929 . S
O206 Gd162 2.545 . S
O206 C221 1.258 . S
O207 Gd162 2.606 1_565 S
O207 Gd163 2.362 1_554 S
O207 C218 1.284 . S
O208 Gd163 2.324 1_545 S
O208 C228 1.254 . S
O209 Gd162 2.429 . S
O209 C228 1.268 1_554 S
O210 Gd162 2.545 1_565 S
O210 C218 1.250 . S
O211 Gd162 2.412 . S
O211 C221 1.252 . S
O212 Gd163 2.545 . S
O212 C230 1.258 . S
O213 Gd162 2.362 1_556 S
O213 Gd163 2.606 1_545 S
O213 C229 1.284 . S
O214 Gd162 2.324 1_565 S
O214 C237 1.254 . S
O215 Gd163 2.429 . S
O215 C237 1.268 1_556 S
O216 Gd163 2.545 1_545 S
O216 C229 1.250 . S
O217 Gd163 2.412 . S
O217 C230 1.252 . S
C218 O207 1.284 . S
C218 O210 1.250 . S
C219 H188 0.929 . S
C219 C204 1.437 . S
C219 C220 1.317 . S
C220 H191 0.930 . S
C220 C196 1.431 . S
C220 C219 1.317 . S
C221 Gd162 2.828 . S
C221 O206 1.258 . S
C221 O211 1.252 . S
C221 C222 1.497 . S
C222 C221 1.497 . S
C222 C223 1.395 . S
C222 C224 1.380 1_545 S
C223 C222 1.395 . S
C223 C226 1.398 . S
C223 H238 0.930 . S
C224 C222 1.380 1_565 S
C224 C225 1.391 . S
C224 H239 0.930 . S
C225 C224 1.391 . S
C225 C227 1.387 1_565 S
C226 C223 1.398 . S
C226 C227 1.380 . S
C226 H240 0.930 . S
C227 C225 1.387 1_545 S
C227 C226 1.380 . S
C227 H241 0.930 . S
C228 O208 1.254 . S
C228 O209 1.268 1_556 S
C229 O213 1.284 . S
C229 O216 1.250 . S
C230 Gd163 2.828 . S
C230 O212 1.258 . S
C230 O217 1.252 . S
C230 C231 1.497 . S
C231 C230 1.497 . S
C231 C232 1.395 . S
C231 C233 1.380 1_565 S
C232 C231 1.395 . S
C232 C235 1.398 . S
C232 H242 0.930 . S
C233 C231 1.380 1_545 S
C233 C234 1.391 . S
C233 H243 0.930 . S
C234 C233 1.391 . S
C234 C236 1.387 1_545 S
C235 C232 1.398 . S
C235 C236 1.380 . S
C235 H244 0.930 . S
C236 C234 1.387 1_565 S
C236 C235 1.380 . S
C236 H245 0.930 . S
C237 O214 1.254 . S
C237 O215 1.268 1_554 S
H238 C223 0.930 . S
H239 C224 0.930 . S
H240 C226 0.930 . S
H241 C227 0.930 . S
H242 C232 0.930 . S
H243 C233 0.930 . S
H244 C235 0.930 . S
H245 C236 0.930 . S
Gd246 N277 2.661 . S
Gd246 N283 2.601 . S
Gd246 O290 2.545 . S
Gd246 O291 2.606 1_655 S
Gd246 O293 2.429 . S
Gd246 O294 2.545 1_655 S
Gd246 O295 2.412 . S
Gd246 O297 2.362 1_554 S
Gd246 O298 2.324 1_655 S
Gd246 C305 2.828 . S
Gd247 N256 2.661 . S
Gd247 N260 2.601 . S
Gd247 O291 2.362 1_556 S
Gd247 O292 2.324 1_455 S
Gd247 O296 2.545 . S
Gd247 O297 2.606 1_455 S
Gd247 O299 2.429 . S
Gd247 O300 2.545 1_455 S
Gd247 O301 2.412 . S
Gd247 C314 2.828 . S
C248 C251 1.417 . S
C248 C253 1.431 . S
C248 C254 1.412 . S
C249 C252 1.437 . S
C249 C253 1.317 . S
C249 H268 0.929 . S
C250 C251 1.426 . S
C250 C252 1.413 . S
C250 N260 1.359 . S
C251 C248 1.417 . S
C251 C250 1.426 . S
C251 N256 1.350 . S
C252 C249 1.437 . S
C252 C250 1.413 . S
C252 C262 1.391 . S
C253 C248 1.431 . S
C253 C249 1.317 . S
C253 H264 0.930 . S
C254 C248 1.412 . S
C254 C255 1.355 . S
C254 H266 0.930 . S
C255 C254 1.355 . S
C255 C257 1.402 . S
C255 H267 0.930 . S
N256 Gd247 2.661 . S
N256 C251 1.350 . S
N256 C257 1.307 . S
C257 C255 1.402 . S
C257 N256 1.307 . S
C257 H258 0.930 . S
H258 C257 0.930 . S
C259 N260 1.334 . S
C259 C261 1.394 . S
C259 H263 0.930 . S
N260 Gd247 2.601 . S
N260 C250 1.359 . S
N260 C259 1.334 . S
C261 C259 1.394 . S
C261 C262 1.359 . S
C261 H273 0.930 . S
C262 C252 1.391 . S
C262 C261 1.359 . S
C262 H274 0.929 . S
H263 C259 0.930 . S
H264 C253 0.930 . S
H265 C282 0.930 . S
H266 C254 0.930 . S
H267 C255 0.930 . S
H268 C249 0.929 . S
H269 C287 0.930 . S
H270 C278 0.930 . S
H271 C279 0.930 . S
H272 C303 0.929 . S
H273 C261 0.930 . S
H274 C262 0.929 . S
H275 C304 0.930 . S
H276 C285 0.930 . S
N277 Gd246 2.661 . S
N277 C281 1.350 . S
N277 C282 1.307 . S
C278 H270 0.930 . S
C278 C279 1.355 . S
C278 C280 1.412 . S
C279 H271 0.930 . S
C279 C278 1.355 . S
C279 C282 1.402 . S
C280 C278 1.412 . S
C280 C281 1.417 . S
C280 C304 1.431 . S
C281 N277 1.350 . S
C281 C280 1.417 . S
C281 C284 1.426 . S
C282 H265 0.930 . S
C282 N277 1.307 . S
C282 C279 1.402 . S
N283 Gd246 2.601 . S
N283 C284 1.359 . S
N283 C287 1.334 . S
C284 C281 1.426 . S
C284 N283 1.359 . S
C284 C288 1.413 . S
C285 H276 0.930 . S
C285 C286 1.359 . S
C285 C287 1.394 . S
C286 C285 1.359 . S
C286 C288 1.391 . S
C286 H289 0.929 . S
C287 H269 0.930 . S
C287 N283 1.334 . S
C287 C285 1.394 . S
C288 C284 1.413 . S
C288 C286 1.391 . S
C288 C303 1.437 . S
H289 C286 0.929 . S
O290 Gd246 2.545 . S
O290 C305 1.258 . S
O291 Gd246 2.606 1_455 S
O291 Gd247 2.362 1_554 S
O291 C302 1.284 . S
O292 Gd247 2.324 1_655 S
O292 C312 1.254 . S
O293 Gd246 2.429 . S
O293 C312 1.268 1_554 S
O294 Gd246 2.545 1_455 S
O294 C302 1.250 . S
O295 Gd246 2.412 . S
O295 C305 1.252 . S
O296 Gd247 2.545 . S
O296 C314 1.258 . S
O297 Gd246 2.362 1_556 S
O297 Gd247 2.606 1_655 S
O297 C313 1.284 . S
O298 Gd246 2.324 1_455 S
O298 C321 1.254 . S
O299 Gd247 2.429 . S
O299 C321 1.268 1_556 S
O300 Gd247 2.545 1_655 S
O300 C313 1.250 . S
O301 Gd247 2.412 . S
O301 C314 1.252 . S
C302 O291 1.284 . S
C302 O294 1.250 . S
C303 H272 0.929 . S
C303 C288 1.437 . S
C303 C304 1.317 . S
C304 H275 0.930 . S
C304 C280 1.431 . S
C304 C303 1.317 . S
C305 Gd246 2.828 . S
C305 O290 1.258 . S
C305 O295 1.252 . S
C305 C306 1.497 . S
C306 C305 1.497 . S
C306 C307 1.395 . S
C306 C308 1.380 1_655 S
C307 C306 1.395 . S
C307 C310 1.398 . S
C307 H322 0.930 . S
C308 C306 1.380 1_455 S
C308 C309 1.391 . S
C308 H323 0.930 . S
C309 C308 1.391 . S
C309 C311 1.387 1_455 S
C310 C307 1.398 . S
C310 C311 1.380 . S
C310 H324 0.930 . S
C311 C309 1.387 1_655 S
C311 C310 1.380 . S
C311 H325 0.930 . S
C312 O292 1.254 . S
C312 O293 1.268 1_556 S
C313 O297 1.284 . S
C313 O300 1.250 . S
C314 Gd247 2.828 . S
C314 O296 1.258 . S
C314 O301 1.252 . S
C314 C315 1.497 . S
C315 C314 1.497 . S
C315 C316 1.395 . S
C315 C317 1.380 1_455 S
C316 C315 1.395 . S
C316 C319 1.398 . S
C316 H326 0.930 . S
C317 C315 1.380 1_655 S
C317 C318 1.391 . S
C317 H327 0.930 . S
C318 C317 1.391 . S
C318 C320 1.387 1_655 S
C319 C316 1.398 . S
C319 C320 1.380 . S
C319 H328 0.930 . S
C320 C318 1.387 1_455 S
C320 C319 1.380 . S
C320 H329 0.930 . S
C321 O298 1.254 . S
C321 O299 1.268 1_554 S
H322 C307 0.930 . S
H323 C308 0.930 . S
H324 C310 0.930 . S
H325 C311 0.930 . S
H326 C316 0.930 . S
H327 C317 0.930 . S
H328 C319 0.930 . S
H329 C320 0.930 . S
Gd330 N361 2.661 . S
Gd330 N367 2.601 . S
Gd330 O374 2.545 . S
Gd330 O375 2.606 . S
Gd330 O377 2.429 . S
Gd330 O378 2.545 . S
Gd330 O379 2.412 . S
Gd330 O381 2.362 1_556 S
Gd330 O382 2.324 . S
Gd330 C389 2.828 . S
Gd331 N340 2.661 . S
Gd331 N344 2.601 . S
Gd331 O375 2.362 1_554 S
Gd331 O376 2.324 . S
Gd331 O380 2.545 . S
Gd331 O381 2.606 . S
Gd331 O383 2.429 . S
Gd331 O384 2.545 . S
Gd331 O385 2.412 . S
Gd331 C398 2.828 . S
C332 C335 1.417 . S
C332 C337 1.431 . S
C332 C338 1.412 . S
C333 C336 1.437 . S
C333 C337 1.317 . S
C333 H352 0.929 . S
C334 C335 1.426 . S
C334 C336 1.413 . S
C334 N344 1.359 . S
C335 C332 1.417 . S
C335 C334 1.426 . S
C335 N340 1.350 . S
C336 C333 1.437 . S
C336 C334 1.413 . S
C336 C346 1.391 . S
C337 C332 1.431 . S
C337 C333 1.317 . S
C337 H348 0.930 . S
C338 C332 1.412 . S
C338 C339 1.355 . S
C338 H350 0.930 . S
C339 C338 1.355 . S
C339 C341 1.402 . S
C339 H351 0.930 . S
N340 Gd331 2.661 . S
N340 C335 1.350 . S
N340 C341 1.307 . S
C341 C339 1.402 . S
C341 N340 1.307 . S
C341 H342 0.930 . S
H342 C341 0.930 . S
C343 N344 1.334 . S
C343 C345 1.394 . S
C343 H347 0.930 . S
N344 Gd331 2.601 . S
N344 C334 1.359 . S
N344 C343 1.334 . S
C345 C343 1.394 . S
C345 C346 1.359 . S
C345 H357 0.930 . S
C346 C336 1.391 . S
C346 C345 1.359 . S
C346 H358 0.929 . S
H347 C343 0.930 . S
H348 C337 0.930 . S
H349 C366 0.930 . S
H350 C338 0.930 . S
H351 C339 0.930 . S
H352 C333 0.929 . S
H353 C371 0.930 . S
H354 C362 0.930 . S
H355 C363 0.930 . S
H356 C387 0.929 . S
H357 C345 0.930 . S
H358 C346 0.929 . S
H359 C388 0.930 . S
H360 C369 0.930 . S
N361 Gd330 2.661 . S
N361 C365 1.350 . S
N361 C366 1.307 . S
C362 H354 0.930 . S
C362 C363 1.355 . S
C362 C364 1.412 . S
C363 H355 0.930 . S
C363 C362 1.355 . S
C363 C366 1.402 . S
C364 C362 1.412 . S
C364 C365 1.417 . S
C364 C388 1.431 . S
C365 N361 1.350 . S
C365 C364 1.417 . S
C365 C368 1.426 . S
C366 H349 0.930 . S
C366 N361 1.307 . S
C366 C363 1.402 . S
N367 Gd330 2.601 . S
N367 C368 1.359 . S
N367 C371 1.334 . S
C368 C365 1.426 . S
C368 N367 1.359 . S
C368 C372 1.413 . S
C369 H360 0.930 . S
C369 C370 1.359 . S
C369 C371 1.394 . S
C370 C369 1.359 . S
C370 C372 1.391 . S
C370 H373 0.929 . S
C371 H353 0.930 . S
C371 N367 1.334 . S
C371 C369 1.394 . S
C372 C368 1.413 . S
C372 C370 1.391 . S
C372 C387 1.437 . S
H373 C370 0.929 . S
O374 Gd330 2.545 . S
O374 C389 1.258 . S
O375 Gd330 2.606 . S
O375 Gd331 2.362 1_556 S
O375 C386 1.284 . S
O376 Gd331 2.324 . S
O376 C396 1.254 . S
O377 Gd330 2.429 . S
O377 C396 1.268 1_556 S
O378 Gd330 2.545 . S
O378 C386 1.250 . S
O379 Gd330 2.412 . S
O379 C389 1.252 . S
O380 Gd331 2.545 . S
O380 C398 1.258 . S
O381 Gd330 2.362 1_554 S
O381 Gd331 2.606 . S
O381 C397 1.284 . S
O382 Gd330 2.324 . S
O382 C405 1.254 . S
O383 Gd331 2.429 . S
O383 C405 1.268 1_554 S
O384 Gd331 2.545 . S
O384 C397 1.250 . S
O385 Gd331 2.412 . S
O385 C398 1.252 . S
C386 O375 1.284 . S
C386 O378 1.250 . S
C387 H356 0.929 . S
C387 C372 1.437 . S
C387 C388 1.317 . S
C388 H359 0.930 . S
C388 C364 1.431 . S
C388 C387 1.317 . S
C389 Gd330 2.828 . S
C389 O374 1.258 . S
C389 O379 1.252 . S
C389 C390 1.497 . S
C390 C389 1.497 . S
C390 C391 1.395 . S
C390 C392 1.380 . S
C391 C390 1.395 . S
C391 C394 1.398 . S
C391 H406 0.930 . S
C392 C390 1.380 . S
C392 C393 1.391 . S
C392 H407 0.930 . S
C393 C392 1.391 . S
C393 C395 1.387 . S
C394 C391 1.398 . S
C394 C395 1.380 . S
C394 H408 0.930 . S
C395 C393 1.387 . S
C395 C394 1.380 . S
C395 H409 0.930 . S
C396 O376 1.254 . S
C396 O377 1.268 1_554 S
C397 O381 1.284 . S
C397 O384 1.250 . S
C398 Gd331 2.828 . S
C398 O380 1.258 . S
C398 O385 1.252 . S
C398 C399 1.497 . S
C399 C398 1.497 . S
C399 C400 1.395 . S
C399 C401 1.380 . S
C400 C399 1.395 . S
C400 C403 1.398 . S
C400 H410 0.930 . S
C401 C399 1.380 . S
C401 C402 1.391 . S
C401 H411 0.930 . S
C402 C401 1.391 . S
C402 C404 1.387 . S
C403 C400 1.398 . S
C403 C404 1.380 . S
C403 H412 0.930 . S
C404 C402 1.387 . S
C404 C403 1.380 . S
C404 H413 0.930 . S
C405 O382 1.254 . S
C405 O383 1.268 1_556 S
H406 C391 0.930 . S
H407 C392 0.930 . S
H408 C394 0.930 . S
H409 C395 0.930 . S
H410 C400 0.930 . S
H411 C401 0.930 . S
H412 C403 0.930 . S
H413 C404 0.930 . S
Gd414 N445 2.661 . S
Gd414 N451 2.601 . S
Gd414 O458 2.545 . S
Gd414 O459 2.606 . S
Gd414 O461 2.429 . S
Gd414 O462 2.545 . S
Gd414 O463 2.412 . S
Gd414 O465 2.362 . S
Gd414 O466 2.324 . S
Gd414 C473 2.828 . S
Gd415 N424 2.661 . S
Gd415 N428 2.601 . S
Gd415 O459 2.362 . S
Gd415 O460 2.324 . S
Gd415 O464 2.545 . S
Gd415 O465 2.606 . S
Gd415 O467 2.429 . S
Gd415 O468 2.545 . S
Gd415 O469 2.412 . S
Gd415 C482 2.828 . S
C416 C419 1.417 . S
C416 C421 1.431 . S
C416 C422 1.412 . S
C417 C420 1.437 . S
C417 C421 1.317 . S
C417 H436 0.929 . S
C418 C419 1.426 . S
C418 C420 1.413 . S
C418 N428 1.359 . S
C419 C416 1.417 . S
C419 C418 1.426 . S
C419 N424 1.350 . S
C420 C417 1.437 . S
C420 C418 1.413 . S
C420 C430 1.391 . S
C421 C416 1.431 . S
C421 C417 1.317 . S
C421 H432 0.930 1_455 S
C422 C416 1.412 . S
C422 C423 1.355 . S
C422 H434 0.930 1_455 S
C423 C422 1.355 . S
C423 C425 1.402 . S
C423 H435 0.930 . S
N424 Gd415 2.661 . S
N424 C419 1.350 . S
N424 C425 1.307 . S
C425 C423 1.402 . S
C425 N424 1.307 . S
C425 H426 0.930 . S
H426 C425 0.930 . S
C427 N428 1.334 . S
C427 C429 1.394 . S
C427 H431 0.930 . S
N428 Gd415 2.601 . S
N428 C418 1.359 . S
N428 C427 1.334 . S
C429 C427 1.394 . S
C429 C430 1.359 . S
C429 H441 0.930 . S
C430 C420 1.391 . S
C430 C429 1.359 . S
C430 H442 0.929 . S
H431 C427 0.930 . S
H432 C421 0.930 1_655 S
H433 C450 0.930 . S
H434 C422 0.930 1_655 S
H435 C423 0.930 . S
H436 C417 0.929 . S
H437 C455 0.930 . S
H438 C446 0.930 . S
H439 C447 0.930 . S
H440 C471 0.929 . S
H441 C429 0.930 . S
H442 C430 0.929 . S
H443 C472 0.930 . S
H444 C453 0.930 . S
N445 Gd414 2.661 . S
N445 C449 1.350 . S
N445 C450 1.307 . S
C446 H438 0.930 . S
C446 C447 1.355 . S
C446 C448 1.412 . S
C447 H439 0.930 . S
C447 C446 1.355 . S
C447 C450 1.402 . S
C448 C446 1.412 . S
C448 C449 1.417 . S
C448 C472 1.431 . S
C449 N445 1.350 . S
C449 C448 1.417 . S
C449 C452 1.426 . S
C450 H433 0.930 . S
C450 N445 1.307 . S
C450 C447 1.402 . S
N451 Gd414 2.601 . S
N451 C452 1.359 . S
N451 C455 1.334 . S
C452 C449 1.426 . S
C452 N451 1.359 . S
C452 C456 1.413 . S
C453 H444 0.930 . S
C453 C454 1.359 . S
C453 C455 1.394 . S
C454 C453 1.359 . S
C454 C456 1.391 . S
C454 H457 0.929 . S
C455 H437 0.930 . S
C455 N451 1.334 . S
C455 C453 1.394 . S
C456 C452 1.413 . S
C456 C454 1.391 . S
C456 C471 1.437 . S
H457 C454 0.929 . S
O458 Gd414 2.545 . S
O458 C473 1.258 . S
O459 Gd414 2.606 . S
O459 Gd415 2.362 . S
O459 C470 1.284 . S
O460 Gd415 2.324 . S
O460 C480 1.254 . S
O461 Gd414 2.429 . S
O461 C480 1.268 . S
O462 Gd414 2.545 . S
O462 C470 1.250 . S
O463 Gd414 2.412 . S
O463 C473 1.252 . S
O464 Gd415 2.545 . S
O464 C482 1.258 . S
O465 Gd414 2.362 . S
O465 Gd415 2.606 . S
O465 C481 1.284 . S
O466 Gd414 2.324 . S
O466 C489 1.254 . S
O467 Gd415 2.429 . S
O467 C489 1.268 . S
O468 Gd415 2.545 . S
O468 C481 1.250 . S
O469 Gd415 2.412 . S
O469 C482 1.252 . S
C470 O459 1.284 . S
C470 O462 1.250 . S
C471 H440 0.929 . S
C471 C456 1.437 . S
C471 C472 1.317 . S
C472 H443 0.930 . S
C472 C448 1.431 . S
C472 C471 1.317 . S
C473 Gd414 2.828 . S
C473 O458 1.258 . S
C473 O463 1.252 . S
C473 C474 1.497 . S
C474 C473 1.497 . S
C474 C475 1.395 . S
C474 C476 1.380 . S
C475 C474 1.395 . S
C475 C478 1.398 . S
C475 H490 0.930 . S
C476 C474 1.380 . S
C476 C477 1.391 . S
C476 H491 0.930 . S
C477 C476 1.391 . S
C477 C479 1.387 . S
C478 C475 1.398 . S
C478 C479 1.380 . S
C478 H492 0.930 . S
C479 C477 1.387 . S
C479 C478 1.380 . S
C479 H493 0.930 . S
C480 O460 1.254 . S
C480 O461 1.268 . S
C481 O465 1.284 . S
C481 O468 1.250 . S
C482 Gd415 2.828 . S
C482 O464 1.258 . S
C482 O469 1.252 . S
C482 C483 1.497 . S
C483 C482 1.497 . S
C483 C484 1.395 . S
C483 C485 1.380 . S
C484 C483 1.395 . S
C484 C487 1.398 . S
C484 H494 0.930 . S
C485 C483 1.380 . S
C485 C486 1.391 . S
C485 H495 0.930 . S
C486 C485 1.391 . S
C486 C488 1.387 . S
C487 C484 1.398 . S
C487 C488 1.380 . S
C487 H496 0.930 . S
C488 C486 1.387 . S
C488 C487 1.380 . S
C488 H497 0.930 . S
C489 O466 1.254 . S
C489 O467 1.268 . S
H490 C475 0.930 . S
H491 C476 0.930 . S
H492 C478 0.930 . S
H493 C479 0.930 . S
H494 C484 0.930 . S
H495 C485 0.930 . S
H496 C487 0.930 . S
H497 C488 0.930 . S
Gd498 N529 2.661 . S
Gd498 N535 2.601 . S
Gd498 O542 2.545 . S
Gd498 O543 2.606 . S
Gd498 O545 2.429 . S
Gd498 O546 2.545 . S
Gd498 O547 2.412 . S
Gd498 O549 2.362 . S
Gd498 O550 2.324 . S
Gd498 C557 2.828 . S
Gd499 N508 2.661 . S
Gd499 N512 2.601 . S
Gd499 O543 2.362 . S
Gd499 O544 2.324 . S
Gd499 O548 2.545 . S
Gd499 O549 2.606 . S
Gd499 O551 2.429 . S
Gd499 O552 2.545 . S
Gd499 O553 2.412 . S
Gd499 C566 2.828 . S
C500 C503 1.417 . S
C500 C505 1.431 . S
C500 C506 1.412 . S
C501 C504 1.437 . S
C501 C505 1.317 . S
C501 H520 0.929 . S
C502 C503 1.426 . S
C502 C504 1.413 . S
C502 N512 1.359 . S
C503 C500 1.417 . S
C503 C502 1.426 . S
C503 N508 1.350 . S
C504 C501 1.437 . S
C504 C502 1.413 . S
C504 C514 1.391 . S
C505 C500 1.431 . S
C505 C501 1.317 . S
C505 H516 0.930 . S
C506 C500 1.412 . S
C506 C507 1.355 . S
C506 H518 0.930 . S
C507 C506 1.355 . S
C507 C509 1.402 . S
C507 H519 0.930 . S
N508 Gd499 2.661 . S
N508 C503 1.350 . S
N508 C509 1.307 . S
C509 C507 1.402 . S
C509 N508 1.307 . S
C509 H510 0.930 . S
H510 C509 0.930 . S
C511 N512 1.334 . S
C511 C513 1.394 . S
C511 H515 0.930 . S
N512 Gd499 2.601 . S
N512 C502 1.359 . S
N512 C511 1.334 . S
C513 C511 1.394 . S
C513 C514 1.359 . S
C513 H525 0.930 . S
C514 C504 1.391 . S
C514 C513 1.359 . S
C514 H526 0.929 . S
H515 C511 0.930 . S
H516 C505 0.930 . S
H517 C534 0.930 . S
H518 C506 0.930 . S
H519 C507 0.930 . S
H520 C501 0.929 . S
H521 C539 0.930 . S
H522 C530 0.930 . S
H523 C531 0.930 . S
H524 C555 0.929 . S
H525 C513 0.930 . S
H526 C514 0.929 . S
H527 C556 0.930 . S
H528 C537 0.930 . S
N529 Gd498 2.661 . S
N529 C533 1.350 . S
N529 C534 1.307 . S
C530 H522 0.930 . S
C530 C531 1.355 . S
C530 C532 1.412 . S
C531 H523 0.930 . S
C531 C530 1.355 . S
C531 C534 1.402 . S
C532 C530 1.412 . S
C532 C533 1.417 . S
C532 C556 1.431 . S
C533 N529 1.350 . S
C533 C532 1.417 . S
C533 C536 1.426 . S
C534 H517 0.930 . S
C534 N529 1.307 . S
C534 C531 1.402 . S
N535 Gd498 2.601 . S
N535 C536 1.359 . S
N535 C539 1.334 . S
C536 C533 1.426 . S
C536 N535 1.359 . S
C536 C540 1.413 . S
C537 H528 0.930 . S
C537 C538 1.359 . S
C537 C539 1.394 . S
C538 C537 1.359 . S
C538 C540 1.391 . S
C538 H541 0.929 . S
C539 H521 0.930 . S
C539 N535 1.334 . S
C539 C537 1.394 . S
C540 C536 1.413 . S
C540 C538 1.391 . S
C540 C555 1.437 . S
H541 C538 0.929 . S
O542 Gd498 2.545 . S
O542 C557 1.258 . S
O543 Gd498 2.606 . S
O543 Gd499 2.362 . S
O543 C554 1.284 . S
O544 Gd499 2.324 . S
O544 C564 1.254 . S
O545 Gd498 2.429 . S
O545 C564 1.268 . S
O546 Gd498 2.545 . S
O546 C554 1.250 . S
O547 Gd498 2.412 . S
O547 C557 1.252 . S
O548 Gd499 2.545 . S
O548 C566 1.258 . S
O549 Gd498 2.362 . S
O549 Gd499 2.606 . S
O549 C565 1.284 . S
O550 Gd498 2.324 . S
O550 C573 1.254 . S
O551 Gd499 2.429 . S
O551 C573 1.268 . S
O552 Gd499 2.545 . S
O552 C565 1.250 . S
O553 Gd499 2.412 . S
O553 C566 1.252 . S
C554 O543 1.284 . S
C554 O546 1.250 . S
C555 H524 0.929 . S
C555 C540 1.437 . S
C555 C556 1.317 . S
C556 H527 0.930 . S
C556 C532 1.431 . S
C556 C555 1.317 . S
C557 Gd498 2.828 . S
C557 O542 1.258 . S
C557 O547 1.252 . S
C557 C558 1.497 . S
C558 C557 1.497 . S
C558 C559 1.395 . S
C558 C560 1.380 . S
C559 C558 1.395 . S
C559 C562 1.398 . S
C559 H574 0.930 . S
C560 C558 1.380 . S
C560 C561 1.391 . S
C560 H575 0.930 . S
C561 C560 1.391 . S
C561 C563 1.387 . S
C562 C559 1.398 . S
C562 C563 1.380 . S
C562 H576 0.930 . S
C563 C561 1.387 . S
C563 C562 1.380 . S
C563 H577 0.930 . S
C564 O544 1.254 . S
C564 O545 1.268 . S
C565 O549 1.284 . S
C565 O552 1.250 . S
C566 Gd499 2.828 . S
C566 O548 1.258 . S
C566 O553 1.252 . S
C566 C567 1.497 . S
C567 C566 1.497 . S
C567 C568 1.395 . S
C567 C569 1.380 . S
C568 C567 1.395 . S
C568 C571 1.398 . S
C568 H578 0.930 . S
C569 C567 1.380 . S
C569 C570 1.391 . S
C569 H579 0.930 . S
C570 C569 1.391 . S
C570 C572 1.387 . S
C571 C568 1.398 . S
C571 C572 1.380 . S
C571 H580 0.930 . S
C572 C570 1.387 . S
C572 C571 1.380 . S
C572 H581 0.930 . S
C573 O550 1.254 . S
C573 O551 1.268 . S
H574 C559 0.930 . S
H575 C560 0.930 . S
H576 C562 0.930 . S
H577 C563 0.930 . S
H578 C568 0.930 . S
H579 C569 0.930 . S
H580 C571 0.930 . S
H581 C572 0.930 . S
Gd582 N613 2.661 . S
Gd582 N619 2.601 . S
Gd582 O626 2.545 . S
Gd582 O627 2.606 . S
Gd582 O629 2.429 . S
Gd582 O630 2.545 . S
Gd582 O631 2.412 . S
Gd582 O633 2.362 . S
Gd582 O634 2.324 . S
Gd582 C641 2.828 . S
Gd583 N592 2.661 . S
Gd583 N596 2.601 . S
Gd583 O627 2.362 . S
Gd583 O628 2.324 . S
Gd583 O632 2.545 . S
Gd583 O633 2.606 . S
Gd583 O635 2.429 . S
Gd583 O636 2.545 . S
Gd583 O637 2.412 . S
Gd583 C650 2.828 . S
C584 C587 1.417 . S
C584 C589 1.431 . S
C584 C590 1.412 . S
C585 C588 1.437 . S
C585 C589 1.317 . S
C585 H604 0.929 . S
C586 C587 1.426 . S
C586 C588 1.413 . S
C586 N596 1.359 . S
C587 C584 1.417 . S
C587 C586 1.426 . S
C587 N592 1.350 . S
C588 C585 1.437 . S
C588 C586 1.413 . S
C588 C598 1.391 . S
C589 C584 1.431 . S
C589 C585 1.317 . S
C589 H600 0.930 . S
C590 C584 1.412 . S
C590 C591 1.355 . S
C590 H602 0.930 . S
C591 C590 1.355 . S
C591 C593 1.402 . S
C591 H603 0.930 . S
N592 Gd583 2.661 . S
N592 C587 1.350 . S
N592 C593 1.307 . S
C593 C591 1.402 . S
C593 N592 1.307 . S
C593 H594 0.930 . S
H594 C593 0.930 . S
C595 N596 1.334 . S
C595 C597 1.394 . S
C595 H599 0.930 . S
N596 Gd583 2.601 . S
N596 C586 1.359 . S
N596 C595 1.334 . S
C597 C595 1.394 . S
C597 C598 1.359 . S
C597 H609 0.930 . S
C598 C588 1.391 . S
C598 C597 1.359 . S
C598 H610 0.929 . S
H599 C595 0.930 . S
H600 C589 0.930 . S
H601 C618 0.930 . S
H602 C590 0.930 . S
H603 C591 0.930 . S
H604 C585 0.929 . S
H605 C623 0.930 . S
H606 C614 0.930 1_655 S
H607 C615 0.930 . S
H608 C639 0.929 . S
H609 C597 0.930 . S
H610 C598 0.929 . S
H611 C640 0.930 1_655 S
H612 C621 0.930 . S
N613 Gd582 2.661 . S
N613 C617 1.350 . S
N613 C618 1.307 . S
C614 H606 0.930 1_455 S
C614 C615 1.355 . S
C614 C616 1.412 . S
C615 H607 0.930 . S
C615 C614 1.355 . S
C615 C618 1.402 . S
C616 C614 1.412 . S
C616 C617 1.417 . S
C616 C640 1.431 . S
C617 N613 1.350 . S
C617 C616 1.417 . S
C617 C620 1.426 . S
C618 H601 0.930 . S
C618 N613 1.307 . S
C618 C615 1.402 . S
N619 Gd582 2.601 . S
N619 C620 1.359 . S
N619 C623 1.334 . S
C620 C617 1.426 . S
C620 N619 1.359 . S
C620 C624 1.413 . S
C621 H612 0.930 . S
C621 C622 1.359 . S
C621 C623 1.394 . S
C622 C621 1.359 . S
C622 C624 1.391 . S
C622 H625 0.929 . S
C623 H605 0.930 . S
C623 N619 1.334 . S
C623 C621 1.394 . S
C624 C620 1.413 . S
C624 C622 1.391 . S
C624 C639 1.437 . S
H625 C622 0.929 . S
O626 Gd582 2.545 . S
O626 C641 1.258 . S
O627 Gd582 2.606 . S
O627 Gd583 2.362 . S
O627 C638 1.284 . S
O628 Gd583 2.324 . S
O628 C648 1.254 . S
O629 Gd582 2.429 . S
O629 C648 1.268 . S
O630 Gd582 2.545 . S
O630 C638 1.250 . S
O631 Gd582 2.412 . S
O631 C641 1.252 . S
O632 Gd583 2.545 . S
O632 C650 1.258 . S
O633 Gd582 2.362 . S
O633 Gd583 2.606 . S
O633 C649 1.284 . S
O634 Gd582 2.324 . S
O634 C657 1.254 . S
O635 Gd583 2.429 . S
O635 C657 1.268 . S
O636 Gd583 2.545 . S
O636 C649 1.250 . S
O637 Gd583 2.412 . S
O637 C650 1.252 . S
C638 O627 1.284 . S
C638 O630 1.250 . S
C639 H608 0.929 . S
C639 C624 1.437 . S
C639 C640 1.317 . S
C640 H611 0.930 1_455 S
C640 C616 1.431 . S
C640 C639 1.317 . S
C641 Gd582 2.828 . S
C641 O626 1.258 . S
C641 O631 1.252 . S
C641 C642 1.497 . S
C642 C641 1.497 . S
C642 C643 1.395 . S
C642 C644 1.380 . S
C643 C642 1.395 . S
C643 C646 1.398 . S
C643 H658 0.930 . S
C644 C642 1.380 . S
C644 C645 1.391 . S
C644 H659 0.930 . S
C645 C644 1.391 . S
C645 C647 1.387 . S
C646 C643 1.398 . S
C646 C647 1.380 . S
C646 H660 0.930 . S
C647 C645 1.387 . S
C647 C646 1.380 . S
C647 H661 0.930 . S
C648 O628 1.254 . S
C648 O629 1.268 . S
C649 O633 1.284 . S
C649 O636 1.250 . S
C650 Gd583 2.828 . S
C650 O632 1.258 . S
C650 O637 1.252 . S
C650 C651 1.497 . S
C651 C650 1.497 . S
C651 C652 1.395 . S
C651 C653 1.380 . S
C652 C651 1.395 . S
C652 C655 1.398 . S
C652 H662 0.930 . S
C653 C651 1.380 . S
C653 C654 1.391 . S
C653 H663 0.930 . S
C654 C653 1.391 . S
C654 C656 1.387 . S
C655 C652 1.398 . S
C655 C656 1.380 . S
C655 H664 0.930 . S
C656 C654 1.387 . S
C656 C655 1.380 . S
C656 H665 0.930 . S
C657 O634 1.254 . S
C657 O635 1.268 . S
H658 C643 0.930 . S
H659 C644 0.930 . S
H660 C646 0.930 . S
H661 C647 0.930 . S
H662 C652 0.930 . S
H663 C653 0.930 . S
H664 C655 0.930 . S
H665 C656 0.930 . S
Gd666 N697 2.661 . S
Gd666 N703 2.601 . S
Gd666 O710 2.545 . S
Gd666 O711 2.606 . S
Gd666 O713 2.429 . S
Gd666 O714 2.545 . S
Gd666 O715 2.412 . S
Gd666 O717 2.362 . S
Gd666 O718 2.324 . S
Gd666 C725 2.828 . S
Gd667 N676 2.661 . S
Gd667 N680 2.601 . S
Gd667 O711 2.362 . S
Gd667 O712 2.324 . S
Gd667 O716 2.545 . S
Gd667 O717 2.606 . S
Gd667 O719 2.429 . S
Gd667 O720 2.545 . S
Gd667 O721 2.412 . S
Gd667 C734 2.828 . S
C668 C671 1.417 . S
C668 C673 1.431 . S
C668 C674 1.412 . S
C669 C672 1.437 . S
C669 C673 1.317 . S
C669 H688 0.929 . S
C670 C671 1.426 . S
C670 C672 1.413 . S
C670 N680 1.359 . S
C671 C668 1.417 . S
C671 C670 1.426 . S
C671 N676 1.350 . S
C672 C669 1.437 . S
C672 C670 1.413 . S
C672 C682 1.391 . S
C673 C668 1.431 . S
C673 C669 1.317 . S
C673 H684 0.930 . S
C674 C668 1.412 . S
C674 C675 1.355 . S
C674 H686 0.930 . S
C675 C674 1.355 . S
C675 C677 1.402 . S
C675 H687 0.930 . S
N676 Gd667 2.661 . S
N676 C671 1.350 . S
N676 C677 1.307 . S
C677 C675 1.402 . S
C677 N676 1.307 . S
C677 H678 0.930 . S
H678 C677 0.930 . S
C679 N680 1.334 . S
C679 C681 1.394 . S
C679 H683 0.930 . S
N680 Gd667 2.601 . S
N680 C670 1.359 . S
N680 C679 1.334 . S
C681 C679 1.394 . S
C681 C682 1.359 . S
C681 H693 0.930 . S
C682 C672 1.391 . S
C682 C681 1.359 . S
C682 H694 0.929 . S
H683 C679 0.930 . S
H684 C673 0.930 . S
H685 C702 0.930 . S
H686 C674 0.930 . S
H687 C675 0.930 . S
H688 C669 0.929 . S
H689 C707 0.930 . S
H690 C698 0.930 1_455 S
H691 C699 0.930 . S
H692 C723 0.929 . S
H693 C681 0.930 . S
H694 C682 0.929 . S
H695 C724 0.930 1_455 S
H696 C705 0.930 . S
N697 Gd666 2.661 . S
N697 C701 1.350 . S
N697 C702 1.307 . S
C698 H690 0.930 1_655 S
C698 C699 1.355 . S
C698 C700 1.412 . S
C699 H691 0.930 . S
C699 C698 1.355 . S
C699 C702 1.402 . S
C700 C698 1.412 . S
C700 C701 1.417 . S
C700 C724 1.431 . S
C701 N697 1.350 . S
C701 C700 1.417 . S
C701 C704 1.426 . S
C702 H685 0.930 . S
C702 N697 1.307 . S
C702 C699 1.402 . S
N703 Gd666 2.601 . S
N703 C704 1.359 . S
N703 C707 1.334 . S
C704 C701 1.426 . S
C704 N703 1.359 . S
C704 C708 1.413 . S
C705 H696 0.930 . S
C705 C706 1.359 . S
C705 C707 1.394 . S
C706 C705 1.359 . S
C706 C708 1.391 . S
C706 H709 0.929 . S
C707 H689 0.930 . S
C707 N703 1.334 . S
C707 C705 1.394 . S
C708 C704 1.413 . S
C708 C706 1.391 . S
C708 C723 1.437 . S
H709 C706 0.929 . S
O710 Gd666 2.545 . S
O710 C725 1.258 . S
O711 Gd666 2.606 . S
O711 Gd667 2.362 . S
O711 C722 1.284 . S
O712 Gd667 2.324 . S
O712 C732 1.254 . S
O713 Gd666 2.429 . S
O713 C732 1.268 . S
O714 Gd666 2.545 . S
O714 C722 1.250 . S
O715 Gd666 2.412 . S
O715 C725 1.252 . S
O716 Gd667 2.545 . S
O716 C734 1.258 . S
O717 Gd666 2.362 . S
O717 Gd667 2.606 . S
O717 C733 1.284 . S
O718 Gd666 2.324 . S
O718 C741 1.254 . S
O719 Gd667 2.429 . S
O719 C741 1.268 . S
O720 Gd667 2.545 . S
O720 C733 1.250 . S
O721 Gd667 2.412 . S
O721 C734 1.252 . S
C722 O711 1.284 . S
C722 O714 1.250 . S
C723 H692 0.929 . S
C723 C708 1.437 . S
C723 C724 1.317 . S
C724 H695 0.930 1_655 S
C724 C700 1.431 . S
C724 C723 1.317 . S
C725 Gd666 2.828 . S
C725 O710 1.258 . S
C725 O715 1.252 . S
C725 C726 1.497 . S
C726 C725 1.497 . S
C726 C727 1.395 . S
C726 C728 1.380 . S
C727 C726 1.395 . S
C727 C730 1.398 . S
C727 H742 0.930 . S
C728 C726 1.380 . S
C728 C729 1.391 . S
C728 H743 0.930 . S
C729 C728 1.391 . S
C729 C731 1.387 . S
C730 C727 1.398 . S
C730 C731 1.380 . S
C730 H744 0.930 . S
C731 C729 1.387 . S
C731 C730 1.380 . S
C731 H745 0.930 . S
C732 O712 1.254 . S
C732 O713 1.268 . S
C733 O717 1.284 . S
C733 O720 1.250 . S
C734 Gd667 2.828 . S
C734 O716 1.258 . S
C734 O721 1.252 . S
C734 C735 1.497 . S
C735 C734 1.497 . S
C735 C736 1.395 . S
C735 C737 1.380 . S
C736 C735 1.395 . S
C736 C739 1.398 . S
C736 H746 0.930 . S
C737 C735 1.380 . S
C737 C738 1.391 . S
C737 H747 0.930 . S
C738 C737 1.391 . S
C738 C740 1.387 . S
C739 C736 1.398 . S
C739 C740 1.380 . S
C739 H748 0.930 . S
C740 C738 1.387 . S
C740 C739 1.380 . S
C740 H749 0.930 . S
C741 O718 1.254 . S
C741 O719 1.268 . S
H742 C727 0.930 . S
H743 C728 0.930 . S
H744 C730 0.930 . S
H745 C731 0.930 . S
H746 C736 0.930 . S
H747 C737 0.930 . S
H748 C739 0.930 . S
H749 C740 0.930 . S
Gd750 N781 2.661 . S
Gd750 N787 2.601 . S
Gd750 O794 2.545 . S
Gd750 O795 2.606 . S
Gd750 O797 2.429 . S
Gd750 O798 2.545 . S
Gd750 O799 2.412 . S
Gd750 O801 2.362 . S
Gd750 O802 2.324 . S
Gd750 C809 2.828 . S
Gd751 N760 2.661 . S
Gd751 N764 2.601 . S
Gd751 O795 2.362 . S
Gd751 O796 2.324 . S
Gd751 O800 2.545 . S
Gd751 O801 2.606 . S
Gd751 O803 2.429 . S
Gd751 O804 2.545 . S
Gd751 O805 2.412 . S
Gd751 C818 2.828 . S
C752 C755 1.417 . S
C752 C757 1.431 . S
C752 C758 1.412 . S
C753 C756 1.437 . S
C753 C757 1.317 . S
C753 H772 0.929 . S
C754 C755 1.426 . S
C754 C756 1.413 . S
C754 N764 1.359 . S
C755 C752 1.417 . S
C755 C754 1.426 . S
C755 N760 1.350 . S
C756 C753 1.437 . S
C756 C754 1.413 . S
C756 C766 1.391 . S
C757 C752 1.431 . S
C757 C753 1.317 . S
C757 H768 0.930 . S
C758 C752 1.412 . S
C758 C759 1.355 . S
C758 H770 0.930 . S
C759 C758 1.355 . S
C759 C761 1.402 . S
C759 H771 0.930 . S
N760 Gd751 2.661 . S
N760 C755 1.350 . S
N760 C761 1.307 . S
C761 C759 1.402 . S
C761 N760 1.307 . S
C761 H762 0.930 . S
H762 C761 0.930 . S
C763 N764 1.334 . S
C763 C765 1.394 . S
C763 H767 0.930 . S
N764 Gd751 2.601 . S
N764 C754 1.359 . S
N764 C763 1.334 . S
C765 C763 1.394 . S
C765 C766 1.359 . S
C765 H777 0.930 . S
C766 C756 1.391 . S
C766 C765 1.359 . S
C766 H778 0.929 . S
H767 C763 0.930 . S
H768 C757 0.930 . S
H769 C786 0.930 . S
H770 C758 0.930 . S
H771 C759 0.930 . S
H772 C753 0.929 . S
H773 C791 0.930 . S
H774 C782 0.930 . S
H775 C783 0.930 . S
H776 C807 0.929 . S
H777 C765 0.930 . S
H778 C766 0.929 . S
H779 C808 0.930 . S
H780 C789 0.930 . S
N781 Gd750 2.661 . S
N781 C785 1.350 . S
N781 C786 1.307 . S
C782 H774 0.930 . S
C782 C783 1.355 . S
C782 C784 1.412 . S
C783 H775 0.930 . S
C783 C782 1.355 . S
C783 C786 1.402 . S
C784 C782 1.412 . S
C784 C785 1.417 . S
C784 C808 1.431 . S
C785 N781 1.350 . S
C785 C784 1.417 . S
C785 C788 1.426 . S
C786 H769 0.930 . S
C786 N781 1.307 . S
C786 C783 1.402 . S
N787 Gd750 2.601 . S
N787 C788 1.359 . S
N787 C791 1.334 . S
C788 C785 1.426 . S
C788 N787 1.359 . S
C788 C792 1.413 . S
C789 H780 0.930 . S
C789 C790 1.359 . S
C789 C791 1.394 . S
C790 C789 1.359 . S
C790 C792 1.391 . S
C790 H793 0.929 . S
C791 H773 0.930 . S
C791 N787 1.334 . S
C791 C789 1.394 . S
C792 C788 1.413 . S
C792 C790 1.391 . S
C792 C807 1.437 . S
H793 C790 0.929 . S
O794 Gd750 2.545 . S
O794 C809 1.258 . S
O795 Gd750 2.606 . S
O795 Gd751 2.362 . S
O795 C806 1.284 . S
O796 Gd751 2.324 . S
O796 C816 1.254 . S
O797 Gd750 2.429 . S
O797 C816 1.268 . S
O798 Gd750 2.545 . S
O798 C806 1.250 . S
O799 Gd750 2.412 . S
O799 C809 1.252 . S
O800 Gd751 2.545 . S
O800 C818 1.258 . S
O801 Gd750 2.362 . S
O801 Gd751 2.606 . S
O801 C817 1.284 . S
O802 Gd750 2.324 . S
O802 C825 1.254 . S
O803 Gd751 2.429 . S
O803 C825 1.268 . S
O804 Gd751 2.545 . S
O804 C817 1.250 . S
O805 Gd751 2.412 . S
O805 C818 1.252 . S
C806 O795 1.284 . S
C806 O798 1.250 . S
C807 H776 0.929 . S
C807 C792 1.437 . S
C807 C808 1.317 . S
C808 H779 0.930 . S
C808 C784 1.431 . S
C808 C807 1.317 . S
C809 Gd750 2.828 . S
C809 O794 1.258 . S
C809 O799 1.252 . S
C809 C810 1.497 . S
C810 C809 1.497 . S
C810 C811 1.395 . S
C810 C812 1.380 . S
C811 C810 1.395 . S
C811 C814 1.398 . S
C811 H826 0.930 . S
C812 C810 1.380 . S
C812 C813 1.391 . S
C812 H827 0.930 . S
C813 C812 1.391 . S
C813 C815 1.387 . S
C814 C811 1.398 . S
C814 C815 1.380 . S
C814 H828 0.930 . S
C815 C813 1.387 . S
C815 C814 1.380 . S
C815 H829 0.930 . S
C816 O796 1.254 . S
C816 O797 1.268 . S
C817 O801 1.284 . S
C817 O804 1.250 . S
C818 Gd751 2.828 . S
C818 O800 1.258 . S
C818 O805 1.252 . S
C818 C819 1.497 . S
C819 C818 1.497 . S
C819 C820 1.395 . S
C819 C821 1.380 . S
C820 C819 1.395 . S
C820 C823 1.398 . S
C820 H830 0.930 . S
C821 C819 1.380 . S
C821 C822 1.391 . S
C821 H831 0.930 . S
C822 C821 1.391 . S
C822 C824 1.387 . S
C823 C820 1.398 . S
C823 C824 1.380 . S
C823 H832 0.930 . S
C824 C822 1.387 . S
C824 C823 1.380 . S
C824 H833 0.930 . S
C825 O802 1.254 . S
C825 O803 1.268 . S
H826 C811 0.930 . S
H827 C812 0.930 . S
H828 C814 0.930 . S
H829 C815 0.930 . S
H830 C820 0.930 . S
H831 C821 0.930 . S
H832 C823 0.930 . S
H833 C824 0.930 . S
Gd834 N865 2.661 . S
Gd834 N871 2.601 . S
Gd834 O878 2.545 . S
Gd834 O879 2.606 . S
Gd834 O881 2.429 . S
Gd834 O882 2.545 . S
Gd834 O883 2.412 . S
Gd834 O885 2.362 . S
Gd834 O886 2.324 . S
Gd834 C893 2.828 . S
Gd835 N844 2.661 . S
Gd835 N848 2.601 . S
Gd835 O879 2.362 . S
Gd835 O880 2.324 . S
Gd835 O884 2.545 . S
Gd835 O885 2.606 . S
Gd835 O887 2.429 . S
Gd835 O888 2.545 . S
Gd835 O889 2.412 . S
Gd835 C902 2.828 . S
C836 C839 1.417 . S
C836 C841 1.431 . S
C836 C842 1.412 . S
C837 C840 1.437 . S
C837 C841 1.317 . S
C837 H856 0.929 . S
C838 C839 1.426 . S
C838 C840 1.413 . S
C838 N848 1.359 . S
C839 C836 1.417 . S
C839 C838 1.426 . S
C839 N844 1.350 . S
C840 C837 1.437 . S
C840 C838 1.413 . S
C840 C850 1.391 . S
C841 C836 1.431 . S
C841 C837 1.317 . S
C841 H852 0.930 1_655 S
C842 C836 1.412 . S
C842 C843 1.355 . S
C842 H854 0.930 1_655 S
C843 C842 1.355 . S
C843 C845 1.402 . S
C843 H855 0.930 . S
N844 Gd835 2.661 . S
N844 C839 1.350 . S
N844 C845 1.307 . S
C845 C843 1.402 . S
C845 N844 1.307 . S
C845 H846 0.930 . S
H846 C845 0.930 . S
C847 N848 1.334 . S
C847 C849 1.394 . S
C847 H851 0.930 . S
N848 Gd835 2.601 . S
N848 C838 1.359 . S
N848 C847 1.334 . S
C849 C847 1.394 . S
C849 C850 1.359 . S
C849 H861 0.930 . S
C850 C840 1.391 . S
C850 C849 1.359 . S
C850 H862 0.929 . S
H851 C847 0.930 . S
H852 C841 0.930 1_455 S
H853 C870 0.930 . S
H854 C842 0.930 1_455 S
H855 C843 0.930 . S
H856 C837 0.929 . S
H857 C875 0.930 . S
H858 C866 0.930 . S
H859 C867 0.930 . S
H860 C891 0.929 . S
H861 C849 0.930 . S
H862 C850 0.929 . S
H863 C892 0.930 . S
H864 C873 0.930 . S
N865 Gd834 2.661 . S
N865 C869 1.350 . S
N865 C870 1.307 . S
C866 H858 0.930 . S
C866 C867 1.355 . S
C866 C868 1.412 . S
C867 H859 0.930 . S
C867 C866 1.355 . S
C867 C870 1.402 . S
C868 C866 1.412 . S
C868 C869 1.417 . S
C868 C892 1.431 . S
C869 N865 1.350 . S
C869 C868 1.417 . S
C869 C872 1.426 . S
C870 H853 0.930 . S
C870 N865 1.307 . S
C870 C867 1.402 . S
N871 Gd834 2.601 . S
N871 C872 1.359 . S
N871 C875 1.334 . S
C872 C869 1.426 . S
C872 N871 1.359 . S
C872 C876 1.413 . S
C873 H864 0.930 . S
C873 C874 1.359 . S
C873 C875 1.394 . S
C874 C873 1.359 . S
C874 C876 1.391 . S
C874 H877 0.929 . S
C875 H857 0.930 . S
C875 N871 1.334 . S
C875 C873 1.394 . S
C876 C872 1.413 . S
C876 C874 1.391 . S
C876 C891 1.437 . S
H877 C874 0.929 . S
O878 Gd834 2.545 . S
O878 C893 1.258 . S
O879 Gd834 2.606 . S
O879 Gd835 2.362 . S
O879 C890 1.284 . S
O880 Gd835 2.324 . S
O880 C900 1.254 . S
O881 Gd834 2.429 . S
O881 C900 1.268 . S
O882 Gd834 2.545 . S
O882 C890 1.250 . S
O883 Gd834 2.412 . S
O883 C893 1.252 . S
O884 Gd835 2.545 . S
O884 C902 1.258 . S
O885 Gd834 2.362 . S
O885 Gd835 2.606 . S
O885 C901 1.284 . S
O886 Gd834 2.324 . S
O886 C909 1.254 . S
O887 Gd835 2.429 . S
O887 C909 1.268 . S
O888 Gd835 2.545 . S
O888 C901 1.250 . S
O889 Gd835 2.412 . S
O889 C902 1.252 . S
C890 O879 1.284 . S
C890 O882 1.250 . S
C891 H860 0.929 . S
C891 C876 1.437 . S
C891 C892 1.317 . S
C892 H863 0.930 . S
C892 C868 1.431 . S
C892 C891 1.317 . S
C893 Gd834 2.828 . S
C893 O878 1.258 . S
C893 O883 1.252 . S
C893 C894 1.497 . S
C894 C893 1.497 . S
C894 C895 1.395 . S
C894 C896 1.380 . S
C895 C894 1.395 . S
C895 C898 1.398 . S
C895 H910 0.930 . S
C896 C894 1.380 . S
C896 C897 1.391 . S
C896 H911 0.930 . S
C897 C896 1.391 . S
C897 C899 1.387 . S
C898 C895 1.398 . S
C898 C899 1.380 . S
C898 H912 0.930 . S
C899 C897 1.387 . S
C899 C898 1.380 . S
C899 H913 0.930 . S
C900 O880 1.254 . S
C900 O881 1.268 . S
C901 O885 1.284 . S
C901 O888 1.250 . S
C902 Gd835 2.828 . S
C902 O884 1.258 . S
C902 O889 1.252 . S
C902 C903 1.497 . S
C903 C902 1.497 . S
C903 C904 1.395 . S
C903 C905 1.380 . S
C904 C903 1.395 . S
C904 C907 1.398 . S
C904 H914 0.930 . S
C905 C903 1.380 . S
C905 C906 1.391 . S
C905 H915 0.930 . S
C906 C905 1.391 . S
C906 C908 1.387 . S
C907 C904 1.398 . S
C907 C908 1.380 . S
C907 H916 0.930 . S
C908 C906 1.387 . S
C908 C907 1.380 . S
C908 H917 0.930 . S
C909 O886 1.254 . S
C909 O887 1.268 . S
H910 C895 0.930 . S
H911 C896 0.930 . S
H912 C898 0.930 . S
H913 C899 0.930 . S
H914 C904 0.930 . S
H915 C905 0.930 . S
H916 C907 0.930 . S
H917 C908 0.930 . S
H918 C924 0.930 . S
H919 C927 0.930 . S
H920 C928 0.930 . S
H921 C929 0.930 . S
H922 C932 0.930 . S
H923 C933 0.930 . S
C924 H918 0.930 . S
C924 C925 1.355 . S
C924 C926 1.415 . S
C925 C924 1.355 . S
C925 C927 1.419 . S
C926 C924 1.415 . S
C926 C931 1.425 . S
C926 C933 1.409 . S
C927 H919 0.930 . S
C927 C925 1.419 . S
C927 C928 1.362 . S
C928 H920 0.930 . S
C928 C927 1.362 . S
C928 C931 1.409 . S
C929 H921 0.930 . S
C929 C930 1.355 . S
C929 C931 1.415 . S
C930 C929 1.355 . S
C930 C932 1.419 . S
C931 C926 1.425 . S
C931 C928 1.409 . S
C931 C929 1.415 . S
C932 H922 0.930 . S
C932 C930 1.419 . S
C932 C933 1.362 . S
C933 H923 0.930 . S
C933 C926 1.409 . S
C933 C932 1.362 . S
H934 C940 0.930 . S
H935 C943 0.930 . S
H936 C944 0.930 . S
H937 C945 0.930 . S
H938 C948 0.930 . S
H939 C949 0.930 . S
C940 H934 0.930 . S
C940 C941 1.355 . S
C940 C942 1.415 . S
C941 C940 1.355 . S
C941 C943 1.419 . S
C942 C940 1.415 . S
C942 C947 1.425 . S
C942 C949 1.409 . S
C943 H935 0.930 . S
C943 C941 1.419 . S
C943 C944 1.362 . S
C944 H936 0.930 . S
C944 C943 1.362 . S
C944 C947 1.409 . S
C945 H937 0.930 . S
C945 C946 1.355 . S
C945 C947 1.415 . S
C946 C945 1.355 . S
C946 C948 1.419 . S
C947 C942 1.425 . S
C947 C944 1.409 . S
C947 C945 1.415 . S
C948 H938 0.930 . S
C948 C946 1.419 . S
C948 C949 1.362 . S
C949 H939 0.930 . S
C949 C942 1.409 . S
C949 C948 1.362 . S
H950 C956 0.930 . S
H951 C959 0.930 . S
H952 C960 0.930 . S
H953 C961 0.930 . S
H954 C964 0.930 . S
H955 C965 0.930 . S
C956 H950 0.930 . S
C956 C957 1.355 . S
C956 C958 1.415 . S
C957 C956 1.355 . S
C957 C959 1.419 . S
C958 C956 1.415 . S
C958 C963 1.425 . S
C958 C965 1.409 . S
C959 H951 0.930 . S
C959 C957 1.419 . S
C959 C960 1.362 . S
C960 H952 0.930 . S
C960 C959 1.362 . S
C960 C963 1.409 . S
C961 H953 0.930 . S
C961 C962 1.355 . S
C961 C963 1.415 . S
C962 C961 1.355 . S
C962 C964 1.419 . S
C963 C958 1.425 . S
C963 C960 1.409 . S
C963 C961 1.415 . S
C964 H954 0.930 . S
C964 C962 1.419 . S
C964 C965 1.362 . S
C965 H955 0.930 . S
C965 C958 1.409 . S
C965 C964 1.362 . S
H966 C972 0.930 . S
H967 C975 0.930 . S
H968 C976 0.930 . S
H969 C977 0.930 . S
H970 C980 0.930 . S
H971 C981 0.930 . S
C972 H966 0.930 . S
C972 C973 1.355 . S
C972 C974 1.415 . S
C973 C972 1.355 . S
C973 C975 1.419 . S
C974 C972 1.415 . S
C974 C979 1.425 . S
C974 C981 1.409 . S
C975 H967 0.930 . S
C975 C973 1.419 . S
C975 C976 1.362 . S
C976 H968 0.930 . S
C976 C975 1.362 . S
C976 C979 1.409 . S
C977 H969 0.930 . S
C977 C978 1.355 . S
C977 C979 1.415 . S
C978 C977 1.355 . S
C978 C980 1.419 . S
C979 C974 1.425 . S
C979 C976 1.409 . S
C979 C977 1.415 . S
C980 H970 0.930 . S
C980 C978 1.419 . S
C980 C981 1.362 . S
C981 H971 0.930 . S
C981 C974 1.409 . S
C981 C980 1.362 . S
H982 C988 0.930 . S
H983 C991 0.930 . S
H984 C992 0.930 . S
H985 C993 0.930 . S
H986 C996 0.930 1_554 S
H987 C997 0.930 1_554 S
C988 H982 0.930 . S
C988 C989 1.355 . S
C988 C990 1.415 . S
C989 C988 1.355 . S
C989 C991 1.419 . S
C990 C988 1.415 . S
C990 C995 1.425 . S
C990 C997 1.409 . S
C991 H983 0.930 . S
C991 C989 1.419 . S
C991 C992 1.362 . S
C992 H984 0.930 . S
C992 C991 1.362 . S
C992 C995 1.409 . S
C993 H985 0.930 . S
C993 C994 1.355 . S
C993 C995 1.415 . S
C994 C993 1.355 . S
C994 C996 1.419 . S
C995 C990 1.425 . S
C995 C992 1.409 . S
C995 C993 1.415 . S
C996 H986 0.930 1_556 S
C996 C994 1.419 . S
C996 C997 1.362 . S
C997 H987 0.930 1_556 S
C997 C990 1.409 . S
C997 C996 1.362 . S
H998 C1004 0.930 . S
H999 C1007 0.930 . S
H1000 C1008 0.930 . S
H1001 C1009 0.930 . S
H1002 C1012 0.930 . S
H1003 C1013 0.930 . S
C1004 H998 0.930 . S
C1004 C1005 1.355 . S
C1004 C1006 1.415 . S
C1005 C1004 1.355 . S
C1005 C1007 1.419 . S
C1006 C1004 1.415 . S
C1006 C1011 1.425 . S
C1006 C1013 1.409 . S
C1007 H999 0.930 . S
C1007 C1005 1.419 . S
C1007 C1008 1.362 . S
C1008 H1000 0.930 . S
C1008 C1007 1.362 . S
C1008 C1011 1.409 . S
C1009 H1001 0.930 . S
C1009 C1010 1.355 . S
C1009 C1011 1.415 . S
C1010 C1009 1.355 . S
C1010 C1012 1.419 . S
C1011 C1006 1.425 . S
C1011 C1008 1.409 . S
C1011 C1009 1.415 . S
C1012 H1002 0.930 . S
C1012 C1010 1.419 . S
C1012 C1013 1.362 . S
C1013 H1003 0.930 . S
C1013 C1006 1.409 . S
C1013 C1012 1.362 . S
H1014 C1020 0.930 . S
H1015 C1023 0.930 . S
H1016 C1024 0.930 . S
H1017 C1025 0.930 . S
H1018 C1028 0.930 . S
H1019 C1029 0.930 . S
C1020 H1014 0.930 . S
C1020 C1021 1.355 . S
C1020 C1022 1.415 . S
C1021 C1020 1.355 . S
C1021 C1023 1.419 . S
C1022 C1020 1.415 . S
C1022 C1027 1.425 . S
C1022 C1029 1.409 . S
C1023 H1015 0.930 . S
C1023 C1021 1.419 . S
C1023 C1024 1.362 . S
C1024 H1016 0.930 . S
C1024 C1023 1.362 . S
C1024 C1027 1.409 . S
C1025 H1017 0.930 . S
C1025 C1026 1.355 . S
C1025 C1027 1.415 . S
C1026 C1025 1.355 . S
C1026 C1028 1.419 . S
C1027 C1022 1.425 . S
C1027 C1024 1.409 . S
C1027 C1025 1.415 . S
C1028 H1018 0.930 . S
C1028 C1026 1.419 . S
C1028 C1029 1.362 . S
C1029 H1019 0.930 . S
C1029 C1022 1.409 . S
C1029 C1028 1.362 . S
H1030 C1036 0.930 . S
H1031 C1039 0.930 . S
H1032 C1040 0.930 . S
H1033 C1041 0.930 . S
H1034 C1044 0.930 . S
H1035 C1045 0.930 . S
C1036 H1030 0.930 . S
C1036 C1037 1.355 . S
C1036 C1038 1.415 . S
C1037 C1036 1.355 . S
C1037 C1039 1.419 . S
C1038 C1036 1.415 . S
C1038 C1043 1.425 . S
C1038 C1045 1.409 . S
C1039 H1031 0.930 . S
C1039 C1037 1.419 . S
C1039 C1040 1.362 . S
C1040 H1032 0.930 . S
C1040 C1039 1.362 . S
C1040 C1043 1.409 . S
C1041 H1033 0.930 . S
C1041 C1042 1.355 . S
C1041 C1043 1.415 . S
C1042 C1041 1.355 . S
C1042 C1044 1.419 . S
C1043 C1038 1.425 . S
C1043 C1040 1.409 . S
C1043 C1041 1.415 . S
C1044 H1034 0.930 . S
C1044 C1042 1.419 . S
C1044 C1045 1.362 . S
C1045 H1035 0.930 . S
C1045 C1038 1.409 . S
C1045 C1044 1.362 . S
H1046 C1052 0.930 . S
H1047 C1055 0.930 . S
H1048 C1056 0.930 . S
H1049 C1057 0.930 . S
H1050 C1060 0.930 . S
H1051 C1061 0.930 . S
C1052 H1046 0.930 . S
C1052 C1053 1.355 . S
C1052 C1054 1.415 . S
C1053 C1052 1.355 . S
C1053 C1055 1.419 . S
C1054 C1052 1.415 . S
C1054 C1059 1.425 . S
C1054 C1061 1.409 . S
C1055 H1047 0.930 . S
C1055 C1053 1.419 . S
C1055 C1056 1.362 . S
C1056 H1048 0.930 . S
C1056 C1055 1.362 . S
C1056 C1059 1.409 . S
C1057 H1049 0.930 . S
C1057 C1058 1.355 . S
C1057 C1059 1.415 . S
C1058 C1057 1.355 . S
C1058 C1060 1.419 . S
C1059 C1054 1.425 . S
C1059 C1056 1.409 . S
C1059 C1057 1.415 . S
C1060 H1050 0.930 . S
C1060 C1058 1.419 . S
C1060 C1061 1.362 . S
C1061 H1051 0.930 . S
C1061 C1054 1.409 . S
C1061 C1060 1.362 . S
H1062 C1068 0.930 . S
H1063 C1071 0.930 . S
H1064 C1072 0.930 . S
H1065 C1073 0.930 . S
H1066 C1076 0.930 . S
H1067 C1077 0.930 . S
C1068 H1062 0.930 . S
C1068 C1069 1.355 . S
C1068 C1070 1.415 . S
C1069 C1068 1.355 . S
C1069 C1071 1.419 . S
C1070 C1068 1.415 . S
C1070 C1075 1.425 . S
C1070 C1077 1.409 . S
C1071 H1063 0.930 . S
C1071 C1069 1.419 . S
C1071 C1072 1.362 . S
C1072 H1064 0.930 . S
C1072 C1071 1.362 . S
C1072 C1075 1.409 . S
C1073 H1065 0.930 . S
C1073 C1074 1.355 . S
C1073 C1075 1.415 . S
C1074 C1073 1.355 . S
C1074 C1076 1.419 . S
C1075 C1070 1.425 . S
C1075 C1072 1.409 . S
C1075 C1073 1.415 . S
C1076 H1066 0.930 . S
C1076 C1074 1.419 . S
C1076 C1077 1.362 . S
C1077 H1067 0.930 . S
C1077 C1070 1.409 . S
C1077 C1076 1.362 . S
H1078 C1084 0.930 . S
H1079 C1087 0.930 . S
H1080 C1088 0.930 . S
H1081 C1089 0.930 . S
H1082 C1092 0.930 . S
H1083 C1093 0.930 . S
C1084 H1078 0.930 . S
C1084 C1085 1.355 . S
C1084 C1086 1.415 . S
C1085 C1084 1.355 . S
C1085 C1087 1.419 . S
C1086 C1084 1.415 . S
C1086 C1091 1.425 . S
C1086 C1093 1.409 . S
C1087 H1079 0.930 . S
C1087 C1085 1.419 . S
C1087 C1088 1.362 . S
C1088 H1080 0.930 . S
C1088 C1087 1.362 . S
C1088 C1091 1.409 . S
C1089 H1081 0.930 . S
C1089 C1090 1.355 . S
C1089 C1091 1.415 . S
C1090 C1089 1.355 . S
C1090 C1092 1.419 . S
C1091 C1086 1.425 . S
C1091 C1088 1.409 . S
C1091 C1089 1.415 . S
C1092 H1082 0.930 . S
C1092 C1090 1.419 . S
C1092 C1093 1.362 . S
C1093 H1083 0.930 . S
C1093 C1086 1.409 . S
C1093 C1092 1.362 . S
H1094 C1100 0.930 . S
H1095 C1103 0.930 . S
H1096 C1104 0.930 . S
H1097 C1105 0.930 . S
H1098 C1108 0.930 . S
H1099 C1109 0.930 . S
C1100 H1094 0.930 . S
C1100 C1101 1.355 . S
C1100 C1102 1.415 . S
C1101 C1100 1.355 . S
C1101 C1103 1.419 . S
C1102 C1100 1.415 . S
C1102 C1107 1.425 . S
C1102 C1109 1.409 . S
C1103 H1095 0.930 . S
C1103 C1101 1.419 . S
C1103 C1104 1.362 . S
C1104 H1096 0.930 . S
C1104 C1103 1.362 . S
C1104 C1107 1.409 . S
C1105 H1097 0.930 . S
C1105 C1106 1.355 . S
C1105 C1107 1.415 . S
C1106 C1105 1.355 . S
C1106 C1108 1.419 . S
C1107 C1102 1.425 . S
C1107 C1104 1.409 . S
C1107 C1105 1.415 . S
C1108 H1098 0.930 . S
C1108 C1106 1.419 . S
C1108 C1109 1.362 . S
C1109 H1099 0.930 . S
C1109 C1102 1.409 . S
C1109 C1108 1.362 . S
H1110 C1116 0.930 . S
H1111 C1119 0.930 . S
H1112 C1120 0.930 . S
H1113 C1121 0.930 . S
H1114 C1124 0.930 . S
H1115 C1125 0.930 1_655 S
C1116 H1110 0.930 . S
C1116 C1117 1.355 . S
C1116 C1118 1.415 . S
C1117 C1116 1.355 . S
C1117 C1119 1.419 . S
C1118 C1116 1.415 . S
C1118 C1123 1.425 1_655 S
C1118 C1125 1.409 1_655 S
C1119 H1111 0.930 . S
C1119 C1117 1.419 . S
C1119 C1120 1.362 1_655 S
C1120 H1112 0.930 . S
C1120 C1119 1.362 1_455 S
C1120 C1123 1.409 . S
C1121 H1113 0.930 . S
C1121 C1122 1.355 . S
C1121 C1123 1.415 . S
C1122 C1121 1.355 . S
C1122 C1124 1.419 . S
C1123 C1118 1.425 1_455 S
C1123 C1120 1.409 . S
C1123 C1121 1.415 . S
C1124 H1114 0.930 . S
C1124 C1122 1.419 . S
C1124 C1125 1.362 . S
C1125 H1115 0.930 1_455 S
C1125 C1118 1.409 1_455 S
C1125 C1124 1.362 . S
H1126 C1132 0.930 . S
H1127 C1135 0.930 . S
H1128 C1136 0.930 . S
H1129 C1137 0.930 . S
H1130 C1140 0.930 . S
H1131 C1141 0.930 . S
C1132 H1126 0.930 . S
C1132 C1133 1.355 . S
C1132 C1134 1.415 . S
C1133 C1132 1.355 . S
C1133 C1135 1.419 . S
C1134 C1132 1.415 . S
C1134 C1139 1.425 . S
C1134 C1141 1.409 . S
C1135 H1127 0.930 . S
C1135 C1133 1.419 . S
C1135 C1136 1.362 . S
C1136 H1128 0.930 . S
C1136 C1135 1.362 . S
C1136 C1139 1.409 . S
C1137 H1129 0.930 . S
C1137 C1138 1.355 . S
C1137 C1139 1.415 . S
C1138 C1137 1.355 . S
C1138 C1140 1.419 . S
C1139 C1134 1.425 . S
C1139 C1136 1.409 . S
C1139 C1137 1.415 . S
C1140 H1130 0.930 . S
C1140 C1138 1.419 . S
C1140 C1141 1.362 . S
C1141 H1131 0.930 . S
C1141 C1134 1.409 . S
C1141 C1140 1.362 . S
H1142 C1148 0.930 . S
H1143 C1151 0.930 . S
H1144 C1152 0.930 . S
H1145 C1153 0.930 . S
H1146 C1156 0.930 . S
H1147 C1157 0.930 . S
C1148 H1142 0.930 . S
C1148 C1149 1.355 . S
C1148 C1150 1.415 1_545 S
C1149 C1148 1.355 . S
C1149 C1151 1.419 . S
C1150 C1148 1.415 1_565 S
C1150 C1155 1.425 . S
C1150 C1157 1.409 . S
C1151 H1143 0.930 . S
C1151 C1149 1.419 . S
C1151 C1152 1.362 . S
C1152 H1144 0.930 . S
C1152 C1151 1.362 . S
C1152 C1155 1.409 1_545 S
C1153 H1145 0.930 . S
C1153 C1154 1.355 . S
C1153 C1155 1.415 . S
C1154 C1153 1.355 . S
C1154 C1156 1.419 . S
C1155 C1150 1.425 . S
C1155 C1152 1.409 1_565 S
C1155 C1153 1.415 . S
C1156 H1146 0.930 . S
C1156 C1154 1.419 . S
C1156 C1157 1.362 . S
C1157 H1147 0.930 . S
C1157 C1150 1.409 . S
C1157 C1156 1.362 . S
H1158 C1164 0.930 . S
H1159 C1167 0.930 . S
H1160 C1168 0.930 . S
H1161 C1169 0.930 . S
H1162 C1172 0.930 . S
H1163 C1173 0.930 . S
C1164 H1158 0.930 . S
C1164 C1165 1.355 . S
C1164 C1166 1.415 . S
C1165 C1164 1.355 . S
C1165 C1167 1.419 . S
C1166 C1164 1.415 . S
C1166 C1171 1.425 . S
C1166 C1173 1.409 . S
C1167 H1159 0.930 . S
C1167 C1165 1.419 . S
C1167 C1168 1.362 . S
C1168 H1160 0.930 . S
C1168 C1167 1.362 . S
C1168 C1171 1.409 . S
C1169 H1161 0.930 . S
C1169 C1170 1.355 . S
C1169 C1171 1.415 . S
C1170 C1169 1.355 . S
C1170 C1172 1.419 . S
C1171 C1166 1.425 . S
C1171 C1168 1.409 . S
C1171 C1169 1.415 . S
C1172 H1162 0.930 . S
C1172 C1170 1.419 . S
C1172 C1173 1.362 . S
C1173 H1163 0.930 . S
C1173 C1166 1.409 . S
C1173 C1172 1.362 . S
H1174 C1180 0.930 . S
H1175 C1183 0.930 . S
H1176 C1184 0.930 . S
H1177 C1185 0.930 . S
H1178 C1188 0.930 . S
H1179 C1189 0.930 . S
C1180 H1174 0.930 . S
C1180 C1181 1.355 . S
C1180 C1182 1.415 . S
C1181 C1180 1.355 . S
C1181 C1183 1.419 . S
C1182 C1180 1.415 . S
C1182 C1187 1.425 . S
C1182 C1189 1.409 . S
C1183 H1175 0.930 . S
C1183 C1181 1.419 . S
C1183 C1184 1.362 . S
C1184 H1176 0.930 . S
C1184 C1183 1.362 . S
C1184 C1187 1.409 . S
C1185 H1177 0.930 . S
C1185 C1186 1.355 . S
C1185 C1187 1.415 . S
C1186 C1185 1.355 . S
C1186 C1188 1.419 . S
C1187 C1182 1.425 . S
C1187 C1184 1.409 . S
C1187 C1185 1.415 . S
C1188 H1178 0.930 . S
C1188 C1186 1.419 . S
C1188 C1189 1.362 . S
C1189 H1179 0.930 . S
C1189 C1182 1.409 . S
C1189 C1188 1.362 . S
H1190 C1196 0.930 . S
H1191 C1199 0.930 . S
H1192 C1200 0.930 . S
H1193 C1201 0.930 . S
H1194 C1204 0.930 . S
H1195 C1205 0.930 . S
C1196 H1190 0.930 . S
C1196 C1197 1.355 . S
C1196 C1198 1.415 . S
C1197 C1196 1.355 . S
C1197 C1199 1.419 . S
C1198 C1196 1.415 . S
C1198 C1203 1.425 . S
C1198 C1205 1.409 . S
C1199 H1191 0.930 . S
C1199 C1197 1.419 . S
C1199 C1200 1.362 . S
C1200 H1192 0.930 . S
C1200 C1199 1.362 . S
C1200 C1203 1.409 . S
C1201 H1193 0.930 . S
C1201 C1202 1.355 . S
C1201 C1203 1.415 . S
C1202 C1201 1.355 . S
C1202 C1204 1.419 . S
C1203 C1198 1.425 . S
C1203 C1200 1.409 . S
C1203 C1201 1.415 . S
C1204 H1194 0.930 . S
C1204 C1202 1.419 . S
C1204 C1205 1.362 . S
C1205 H1195 0.930 . S
C1205 C1198 1.409 . S
C1205 C1204 1.362 . S
H1206 C1212 0.930 . S
H1207 C1215 0.930 . S
H1208 C1216 0.930 . S
H1209 C1217 0.930 . S
H1210 C1220 0.930 . S
H1211 C1221 0.930 . S
C1212 H1206 0.930 . S
C1212 C1213 1.355 . S
C1212 C1214 1.415 . S
C1213 C1212 1.355 . S
C1213 C1215 1.419 . S
C1214 C1212 1.415 . S
C1214 C1219 1.425 . S
C1214 C1221 1.409 . S
C1215 H1207 0.930 . S
C1215 C1213 1.419 . S
C1215 C1216 1.362 . S
C1216 H1208 0.930 . S
C1216 C1215 1.362 . S
C1216 C1219 1.409 . S
C1217 H1209 0.930 . S
C1217 C1218 1.355 . S
C1217 C1219 1.415 . S
C1218 C1217 1.355 . S
C1218 C1220 1.419 . S
C1219 C1214 1.425 . S
C1219 C1216 1.409 . S
C1219 C1217 1.415 . S
C1220 H1210 0.930 . S
C1220 C1218 1.419 . S
C1220 C1221 1.362 . S
C1221 H1211 0.930 . S
C1221 C1214 1.409 . S
C1221 C1220 1.362 . S
H1222 C1228 0.930 . S
H1223 C1231 0.930 . S
H1224 C1232 0.930 . S
H1225 C1233 0.930 . S
H1226 C1236 0.930 . S
H1227 C1237 0.930 . S
C1228 H1222 0.930 . S
C1228 C1229 1.355 . S
C1228 C1230 1.415 . S
C1229 C1228 1.355 . S
C1229 C1231 1.419 . S
C1230 C1228 1.415 . S
C1230 C1235 1.425 . S
C1230 C1237 1.409 . S
C1231 H1223 0.930 . S
C1231 C1229 1.419 . S
C1231 C1232 1.362 . S
C1232 H1224 0.930 . S
C1232 C1231 1.362 . S
C1232 C1235 1.409 . S
C1233 H1225 0.930 . S
C1233 C1234 1.355 . S
C1233 C1235 1.415 . S
C1234 C1233 1.355 . S
C1234 C1236 1.419 . S
C1235 C1230 1.425 . S
C1235 C1232 1.409 . S
C1235 C1233 1.415 . S
C1236 H1226 0.930 . S
C1236 C1234 1.419 . S
C1236 C1237 1.362 . S
C1237 H1227 0.930 . S
C1237 C1230 1.409 . S
C1237 C1236 1.362 . S
H1238 C1244 0.930 . S
H1239 C1247 0.930 . S
H1240 C1248 0.930 . S
H1241 C1249 0.930 . S
H1242 C1252 0.930 . S
H1243 C1253 0.930 . S
C1244 H1238 0.930 . S
C1244 C1245 1.355 . S
C1244 C1246 1.415 . S
C1245 C1244 1.355 . S
C1245 C1247 1.419 . S
C1246 C1244 1.415 . S
C1246 C1251 1.425 . S
C1246 C1253 1.409 . S
C1247 H1239 0.930 . S
C1247 C1245 1.419 . S
C1247 C1248 1.362 . S
C1248 H1240 0.930 . S
C1248 C1247 1.362 . S
C1248 C1251 1.409 . S
C1249 H1241 0.930 . S
C1249 C1250 1.355 . S
C1249 C1251 1.415 . S
C1250 C1249 1.355 . S
C1250 C1252 1.419 . S
C1251 C1246 1.425 . S
C1251 C1248 1.409 . S
C1251 C1249 1.415 . S
C1252 H1242 0.930 . S
C1252 C1250 1.419 . S
C1252 C1253 1.362 . S
C1253 H1243 0.930 . S
C1253 C1246 1.409 . S
C1253 C1252 1.362 . S
H1254 C1260 0.930 . S
H1255 C1263 0.930 . S
H1256 C1264 0.930 . S
H1257 C1265 0.930 . S
H1258 C1268 0.930 . S
H1259 C1269 0.930 . S
C1260 H1254 0.930 . S
C1260 C1261 1.355 . S
C1260 C1262 1.415 1_545 S
C1261 C1260 1.355 . S
C1261 C1263 1.419 . S
C1262 C1260 1.415 1_565 S
C1262 C1267 1.425 . S
C1262 C1269 1.409 . S
C1263 H1255 0.930 . S
C1263 C1261 1.419 . S
C1263 C1264 1.362 . S
C1264 H1256 0.930 . S
C1264 C1263 1.362 . S
C1264 C1267 1.409 1_545 S
C1265 H1257 0.930 . S
C1265 C1266 1.355 . S
C1265 C1267 1.415 . S
C1266 C1265 1.355 . S
C1266 C1268 1.419 . S
C1267 C1262 1.425 . S
C1267 C1264 1.409 1_565 S
C1267 C1265 1.415 . S
C1268 H1258 0.930 . S
C1268 C1266 1.419 . S
C1268 C1269 1.362 . S
C1269 H1259 0.930 . S
C1269 C1262 1.409 . S
C1269 C1268 1.362 . S
H1270 C1276 0.930 . S
H1271 C1279 0.930 . S
H1272 C1280 0.930 1_455 S
H1273 C1281 0.930 . S
H1274 C1284 0.930 . S
H1275 C1285 0.930 . S
C1276 H1270 0.930 . S
C1276 C1277 1.355 . S
C1276 C1278 1.415 1_655 S
C1277 C1276 1.355 . S
C1277 C1279 1.419 . S
C1278 C1276 1.415 1_455 S
C1278 C1283 1.425 . S
C1278 C1285 1.409 . S
C1279 H1271 0.930 . S
C1279 C1277 1.419 . S
C1279 C1280 1.362 . S
C1280 H1272 0.930 1_655 S
C1280 C1279 1.362 . S
C1280 C1283 1.409 1_655 S
C1281 H1273 0.930 . S
C1281 C1282 1.355 . S
C1281 C1283 1.415 . S
C1282 C1281 1.355 . S
C1282 C1284 1.419 . S
C1283 C1278 1.425 . S
C1283 C1280 1.409 1_455 S
C1283 C1281 1.415 . S
C1284 H1274 0.930 . S
C1284 C1282 1.419 . S
C1284 C1285 1.362 . S
C1285 H1275 0.930 . S
C1285 C1278 1.409 . S
C1285 C1284 1.362 . S
H1286 C1292 0.930 . S
H1287 C1295 0.930 . S
H1288 C1296 0.930 . S
H1289 C1297 0.930 . S
H1290 C1300 0.930 . S
H1291 C1301 0.930 . S
C1292 H1286 0.930 . S
C1292 C1293 1.355 . S
C1292 C1294 1.415 . S
C1293 C1292 1.355 . S
C1293 C1295 1.419 . S
C1294 C1292 1.415 . S
C1294 C1299 1.425 . S
C1294 C1301 1.409 . S
C1295 H1287 0.930 . S
C1295 C1293 1.419 . S
C1295 C1296 1.362 . S
C1296 H1288 0.930 . S
C1296 C1295 1.362 . S
C1296 C1299 1.409 . S
C1297 H1289 0.930 . S
C1297 C1298 1.355 . S
C1297 C1299 1.415 . S
C1298 C1297 1.355 . S
C1298 C1300 1.419 . S
C1299 C1294 1.425 . S
C1299 C1296 1.409 . S
C1299 C1297 1.415 . S
C1300 H1290 0.930 . S
C1300 C1298 1.419 . S
C1300 C1301 1.362 . S
C1301 H1291 0.930 . S
C1301 C1294 1.409 . S
C1301 C1300 1.362 . S
H1302 C1308 0.930 . S
H1303 C1311 0.930 . S
H1304 C1312 0.930 . S
H1305 C1313 0.930 . S
H1306 C1316 0.930 . S
H1307 C1317 0.930 . S
C1308 H1302 0.930 . S
C1308 C1309 1.355 . S
C1308 C1310 1.415 . S
C1309 C1308 1.355 . S
C1309 C1311 1.419 . S
C1310 C1308 1.415 . S
C1310 C1315 1.425 . S
C1310 C1317 1.409 . S
C1311 H1303 0.930 . S
C1311 C1309 1.419 . S
C1311 C1312 1.362 . S
C1312 H1304 0.930 . S
C1312 C1311 1.362 . S
C1312 C1315 1.409 . S
C1313 H1305 0.930 . S
C1313 C1314 1.355 . S
C1313 C1315 1.415 . S
C1314 C1313 1.355 . S
C1314 C1316 1.419 . S
C1315 C1310 1.425 . S
C1315 C1312 1.409 . S
C1315 C1313 1.415 . S
C1316 H1306 0.930 . S
C1316 C1314 1.419 . S
C1316 C1317 1.362 . S
C1317 H1307 0.930 . S
C1317 C1310 1.409 . S
C1317 C1316 1.362 . S
H1318 C1324 0.930 . S
H1319 C1327 0.930 . S
H1320 C1328 0.930 . S
H1321 C1329 0.930 . S
H1322 C1332 0.930 . S
H1323 C1333 0.930 . S
C1324 H1318 0.930 . S
C1324 C1325 1.355 . S
C1324 C1326 1.415 . S
C1325 C1324 1.355 . S
C1325 C1327 1.419 . S
C1326 C1324 1.415 . S
C1326 C1331 1.425 . S
C1326 C1333 1.409 . S
C1327 H1319 0.930 . S
C1327 C1325 1.419 . S
C1327 C1328 1.362 . S
C1328 H1320 0.930 . S
C1328 C1327 1.362 . S
C1328 C1331 1.409 . S
C1329 H1321 0.930 . S
C1329 C1330 1.355 . S
C1329 C1331 1.415 . S
C1330 C1329 1.355 . S
C1330 C1332 1.419 . S
C1331 C1326 1.425 . S
C1331 C1328 1.409 . S
C1331 C1329 1.415 . S
C1332 H1322 0.930 . S
C1332 C1330 1.419 . S
C1332 C1333 1.362 . S
C1333 H1323 0.930 . S
C1333 C1326 1.409 . S
C1333 C1332 1.362 . S
H1334 C1340 0.930 . S
H1335 C1343 0.930 . S
H1336 C1344 0.930 . S
H1337 C1345 0.930 . S
H1338 C1348 0.930 . S
H1339 C1349 0.930 . S
C1340 H1334 0.930 . S
C1340 C1341 1.355 . S
C1340 C1342 1.415 . S
C1341 C1340 1.355 . S
C1341 C1343 1.419 . S
C1342 C1340 1.415 . S
C1342 C1347 1.425 . S
C1342 C1349 1.409 . S
C1343 H1335 0.930 . S
C1343 C1341 1.419 . S
C1343 C1344 1.362 . S
C1344 H1336 0.930 . S
C1344 C1343 1.362 . S
C1344 C1347 1.409 . S
C1345 H1337 0.930 . S
C1345 C1346 1.355 . S
C1345 C1347 1.415 . S
C1346 C1345 1.355 . S
C1346 C1348 1.419 . S
C1347 C1342 1.425 . S
C1347 C1344 1.409 . S
C1347 C1345 1.415 . S
C1348 H1338 0.930 . S
C1348 C1346 1.419 . S
C1348 C1349 1.362 . S
C1349 H1339 0.930 . S
C1349 C1342 1.409 . S
C1349 C1348 1.362 . S
H1350 C1356 0.930 . S
H1351 C1359 0.930 . S
H1352 C1360 0.930 . S
H1353 C1361 0.930 . S
H1354 C1364 0.930 . S
H1355 C1365 0.930 . S
C1356 H1350 0.930 . S
C1356 C1357 1.355 . S
C1356 C1358 1.415 1_565 S
C1357 C1356 1.355 . S
C1357 C1359 1.419 . S
C1358 C1356 1.415 1_545 S
C1358 C1363 1.425 . S
C1358 C1365 1.409 . S
C1359 H1351 0.930 . S
C1359 C1357 1.419 . S
C1359 C1360 1.362 . S
C1360 H1352 0.930 . S
C1360 C1359 1.362 . S
C1360 C1363 1.409 1_565 S
C1361 H1353 0.930 . S
C1361 C1362 1.355 . S
C1361 C1363 1.415 . S
C1362 C1361 1.355 . S
C1362 C1364 1.419 . S
C1363 C1358 1.425 . S
C1363 C1360 1.409 1_545 S
C1363 C1361 1.415 . S
C1364 H1354 0.930 . S
C1364 C1362 1.419 . S
C1364 C1365 1.362 . S
C1365 H1355 0.930 . S
C1365 C1358 1.409 . S
C1365 C1364 1.362 . S
H1366 C1372 0.930 . S
H1367 C1375 0.930 . S
H1368 C1376 0.930 . S
H1369 C1377 0.930 . S
H1370 C1380 0.930 . S
H1371 C1381 0.930 . S
C1372 H1366 0.930 . S
C1372 C1373 1.355 . S
C1372 C1374 1.415 1_455 S
C1373 C1372 1.355 . S
C1373 C1375 1.419 . S
C1374 C1372 1.415 1_655 S
C1374 C1379 1.425 . S
C1374 C1381 1.409 . S
C1375 H1367 0.930 . S
C1375 C1373 1.419 . S
C1375 C1376 1.362 . S
C1376 H1368 0.930 . S
C1376 C1375 1.362 . S
C1376 C1379 1.409 1_455 S
C1377 H1369 0.930 . S
C1377 C1378 1.355 . S
C1377 C1379 1.415 . S
C1378 C1377 1.355 . S
C1378 C1380 1.419 . S
C1379 C1374 1.425 . S
C1379 C1376 1.409 1_655 S
C1379 C1377 1.415 . S
C1380 H1370 0.930 . S
C1380 C1378 1.419 . S
C1380 C1381 1.362 . S
C1381 H1371 0.930 . S
C1381 C1374 1.409 . S
C1381 C1380 1.362 . S
H1382 C1388 0.930 . S
H1383 C1391 0.930 . S
H1384 C1392 0.930 . S
H1385 C1393 0.930 . S
H1386 C1396 0.930 . S
H1387 C1397 0.930 . S
C1388 H1382 0.930 . S
C1388 C1389 1.355 . S
C1388 C1390 1.415 . S
C1389 C1388 1.355 . S
C1389 C1391 1.419 . S
C1390 C1388 1.415 . S
C1390 C1395 1.425 . S
C1390 C1397 1.409 . S
C1391 H1383 0.930 . S
C1391 C1389 1.419 . S
C1391 C1392 1.362 . S
C1392 H1384 0.930 . S
C1392 C1391 1.362 . S
C1392 C1395 1.409 . S
C1393 H1385 0.930 . S
C1393 C1394 1.355 . S
C1393 C1395 1.415 . S
C1394 C1393 1.355 . S
C1394 C1396 1.419 . S
C1395 C1390 1.425 . S
C1395 C1392 1.409 . S
C1395 C1393 1.415 . S
C1396 H1386 0.930 . S
C1396 C1394 1.419 . S
C1396 C1397 1.362 . S
C1397 H1387 0.930 . S
C1397 C1390 1.409 . S
C1397 C1396 1.362 . S
H1398 C1404 0.930 . S
H1399 C1407 0.930 . S
H1400 C1408 0.930 . S
H1401 C1409 0.930 . S
H1402 C1412 0.930 . S
H1403 C1413 0.930 . S
C1404 H1398 0.930 . S
C1404 C1405 1.355 . S
C1404 C1406 1.403 1_455 S
C1405 C1404 1.355 . S
C1405 C1407 1.419 . S
C1406 C1404 1.403 1_655 S
C1406 C1411 1.439 . S
C1406 C1413 1.408 . S
C1407 H1399 0.930 . S
C1407 C1405 1.419 . S
C1407 C1408 1.362 1_455 S
C1408 H1400 0.930 . S
C1408 C1407 1.362 1_655 S
C1408 C1411 1.409 . S
C1409 H1401 0.930 . S
C1409 C1410 1.355 . S
C1409 C1411 1.415 . S
C1410 C1409 1.355 . S
C1410 C1412 1.419 . S
C1411 C1406 1.439 . S
C1411 C1408 1.409 . S
C1411 C1409 1.415 . S
C1412 H1402 0.930 . S
C1412 C1410 1.419 . S
C1412 C1413 1.362 . S
C1413 H1403 0.930 . S
C1413 C1406 1.408 . S
C1413 C1412 1.362 . S
H1414 C1420 0.930 . S
H1415 C1423 0.930 . S
H1416 C1424 0.930 . S
H1417 C1425 0.930 . S
H1418 C1428 0.930 . S
H1419 C1429 0.930 . S
C1420 H1414 0.930 . S
C1420 C1421 1.355 . S
C1420 C1422 1.415 . S
C1421 C1420 1.355 . S
C1421 C1423 1.419 . S
C1422 C1420 1.415 . S
C1422 C1427 1.425 . S
C1422 C1429 1.409 . S
C1423 H1415 0.930 . S
C1423 C1421 1.419 . S
C1423 C1424 1.362 . S
C1424 H1416 0.930 . S
C1424 C1423 1.362 . S
C1424 C1427 1.409 . S
C1425 H1417 0.930 . S
C1425 C1426 1.355 . S
C1425 C1427 1.415 . S
C1426 C1425 1.355 . S
C1426 C1428 1.419 . S
C1427 C1422 1.425 . S
C1427 C1424 1.409 . S
C1427 C1425 1.415 . S
C1428 H1418 0.930 . S
C1428 C1426 1.419 . S
C1428 C1429 1.362 . S
C1429 H1419 0.930 . S
C1429 C1422 1.409 . S
C1429 C1428 1.362 . S
H1430 C1436 0.930 . S
H1431 C1439 0.930 . S
H1432 C1440 0.930 1_545 S
H1433 C1441 0.930 . S
H1434 C1444 0.930 . S
H1435 C1445 0.930 . S
C1436 H1430 0.930 . S
C1436 C1437 1.355 . S
C1436 C1438 1.415 . S
C1437 C1436 1.355 . S
C1437 C1439 1.419 . S
C1438 C1436 1.415 . S
C1438 C1443 1.425 1_565 S
C1438 C1445 1.409 1_565 S
C1439 H1431 0.930 . S
C1439 C1437 1.419 . S
C1439 C1440 1.362 . S
C1440 H1432 0.930 1_565 S
C1440 C1439 1.362 . S
C1440 C1443 1.409 1_565 S
C1441 H1433 0.930 . S
C1441 C1442 1.355 . S
C1441 C1443 1.415 . S
C1442 C1441 1.355 . S
C1442 C1444 1.419 . S
C1443 C1438 1.425 1_545 S
C1443 C1440 1.409 1_545 S
C1443 C1441 1.415 . S
C1444 H1434 0.930 . S
C1444 C1442 1.419 . S
C1444 C1445 1.362 . S
C1445 H1435 0.930 . S
C1445 C1438 1.409 1_545 S
C1445 C1444 1.362 . S
H1446 C1452 0.930 . S
H1447 C1455 0.930 . S
H1448 C1456 0.930 . S
H1449 C1457 0.930 . S
H1450 C1460 0.930 . S
H1451 C1461 0.930 . S
C1452 H1446 0.930 . S
C1452 C1453 1.355 . S
C1452 C1454 1.415 . S
C1453 C1452 1.355 . S
C1453 C1455 1.419 . S
C1454 C1452 1.415 . S
C1454 C1459 1.425 . S
C1454 C1461 1.409 . S
C1455 H1447 0.930 . S
C1455 C1453 1.419 . S
C1455 C1456 1.362 . S
C1456 H1448 0.930 . S
C1456 C1455 1.362 . S
C1456 C1459 1.409 . S
C1457 H1449 0.930 . S
C1457 C1458 1.355 . S
C1457 C1459 1.415 . S
C1458 C1457 1.355 . S
C1458 C1460 1.419 . S
C1459 C1454 1.425 . S
C1459 C1456 1.409 . S
C1459 C1457 1.415 . S
C1460 H1450 0.930 . S
C1460 C1458 1.419 . S
C1460 C1461 1.362 . S
C1461 H1451 0.930 . S
C1461 C1454 1.409 . S
C1461 C1460 1.362 . S
H1462 C1468 0.930 . S
H1463 C1471 0.930 . S
H1464 C1472 0.930 . S
H1465 C1473 0.930 . S
H1466 C1476 0.930 . S
H1467 C1477 0.930 . S
C1468 H1462 0.930 . S
C1468 C1469 1.355 . S
C1468 C1470 1.415 . S
C1469 C1468 1.355 . S
C1469 C1471 1.419 . S
C1470 C1468 1.415 . S
C1470 C1475 1.425 . S
C1470 C1477 1.409 . S
C1471 H1463 0.930 . S
C1471 C1469 1.419 . S
C1471 C1472 1.362 . S
C1472 H1464 0.930 . S
C1472 C1471 1.362 . S
C1472 C1475 1.409 . S
C1473 H1465 0.930 . S
C1473 C1474 1.355 . S
C1473 C1475 1.415 . S
C1474 C1473 1.355 . S
C1474 C1476 1.419 . S
C1475 C1470 1.425 . S
C1475 C1472 1.409 . S
C1475 C1473 1.415 . S
C1476 H1466 0.930 . S
C1476 C1474 1.419 . S
C1476 C1477 1.362 . S
C1477 H1467 0.930 . S
C1477 C1470 1.409 . S
C1477 C1476 1.362 . S
H1478 C1484 0.930 . S
H1479 C1487 0.930 . S
H1480 C1488 0.930 . S
H1481 C1489 0.930 . S
H1482 C1492 0.930 . S
H1483 C1493 0.930 . S
C1484 H1478 0.930 . S
C1484 C1485 1.355 . S
C1484 C1486 1.415 . S
C1485 C1484 1.355 . S
C1485 C1487 1.419 . S
C1486 C1484 1.415 . S
C1486 C1491 1.425 . S
C1486 C1493 1.409 . S
C1487 H1479 0.930 . S
C1487 C1485 1.419 . S
C1487 C1488 1.362 . S
C1488 H1480 0.930 . S
C1488 C1487 1.362 . S
C1488 C1491 1.409 . S
C1489 H1481 0.930 . S
C1489 C1490 1.355 . S
C1489 C1491 1.415 . S
C1490 C1489 1.355 . S
C1490 C1492 1.419 . S
C1491 C1486 1.425 . S
C1491 C1488 1.409 . S
C1491 C1489 1.415 . S
C1492 H1482 0.930 . S
C1492 C1490 1.419 . S
C1492 C1493 1.362 . S
C1493 H1483 0.930 . S
C1493 C1486 1.409 . S
C1493 C1492 1.362 . S
H1494 C1500 0.930 . S
H1495 C1503 0.930 . S
H1496 C1504 0.930 . S
H1497 C1505 0.930 . S
H1498 C1508 0.930 . S
H1499 C1509 0.930 . S
C1500 H1494 0.930 . S
C1500 C1501 1.355 . S
C1500 C1502 1.415 . S
C1501 C1500 1.355 . S
C1501 C1503 1.419 . S
C1502 C1500 1.415 . S
C1502 C1507 1.425 . S
C1502 C1509 1.409 . S
C1503 H1495 0.930 . S
C1503 C1501 1.419 . S
C1503 C1504 1.362 . S
C1504 H1496 0.930 . S
C1504 C1503 1.362 . S
C1504 C1507 1.409 . S
C1505 H1497 0.930 . S
C1505 C1506 1.355 . S
C1505 C1507 1.415 . S
C1506 C1505 1.355 . S
C1506 C1508 1.419 . S
C1507 C1502 1.425 . S
C1507 C1504 1.409 . S
C1507 C1505 1.415 . S
C1508 H1498 0.930 . S
C1508 C1506 1.419 . S
C1508 C1509 1.362 . S
C1509 H1499 0.930 . S
C1509 C1502 1.409 . S
C1509 C1508 1.362 . S
H1510 C1516 0.930 . S
H1511 C1519 0.930 . S
H1512 C1520 0.930 . S
H1513 C1521 0.930 . S
H1514 C1524 0.930 . S
H1515 C1525 0.930 . S
C1516 H1510 0.930 . S
C1516 C1517 1.355 . S
C1516 C1518 1.415 . S
C1517 C1516 1.355 . S
C1517 C1519 1.419 . S
C1518 C1516 1.415 . S
C1518 C1523 1.425 . S
C1518 C1525 1.409 . S
C1519 H1511 0.930 . S
C1519 C1517 1.419 . S
C1519 C1520 1.362 . S
C1520 H1512 0.930 . S
C1520 C1519 1.362 . S
C1520 C1523 1.409 . S
C1521 H1513 0.930 . S
C1521 C1522 1.355 . S
C1521 C1523 1.415 . S
C1522 C1521 1.355 . S
C1522 C1524 1.419 . S
C1523 C1518 1.425 . S
C1523 C1520 1.409 . S
C1523 C1521 1.415 . S
C1524 H1514 0.930 . S
C1524 C1522 1.419 . S
C1524 C1525 1.362 . S
C1525 H1515 0.930 . S
C1525 C1518 1.409 . S
C1525 C1524 1.362 . S
H1526 C1532 0.930 . S
H1527 C1535 0.930 . S
H1528 C1536 0.930 . S
H1529 C1537 0.930 . S
H1530 C1540 0.930 . S
H1531 C1541 0.930 . S
C1532 H1526 0.930 . S
C1532 C1533 1.355 . S
C1532 C1534 1.415 . S
C1533 C1532 1.355 . S
C1533 C1535 1.419 . S
C1534 C1532 1.415 . S
C1534 C1539 1.425 . S
C1534 C1541 1.409 . S
C1535 H1527 0.930 . S
C1535 C1533 1.419 . S
C1535 C1536 1.362 . S
C1536 H1528 0.930 . S
C1536 C1535 1.362 . S
C1536 C1539 1.409 . S
C1537 H1529 0.930 . S
C1537 C1538 1.355 . S
C1537 C1539 1.415 . S
C1538 C1537 1.355 . S
C1538 C1540 1.419 . S
C1539 C1534 1.425 . S
C1539 C1536 1.409 . S
C1539 C1537 1.415 . S
C1540 H1530 0.930 . S
C1540 C1538 1.419 . S
C1540 C1541 1.362 . S
C1541 H1531 0.930 . S
C1541 C1534 1.409 . S
C1541 C1540 1.362 . S
H1542 C1548 0.930 . S
H1543 C1551 0.930 . S
H1544 C1552 0.930 . S
H1545 C1553 0.930 . S
H1546 C1556 0.930 1_455 S
H1547 C1557 0.930 . S
C1548 H1542 0.930 . S
C1548 C1549 1.355 . S
C1548 C1550 1.415 . S
C1549 C1548 1.355 . S
C1549 C1551 1.419 . S
C1550 C1548 1.415 . S
C1550 C1555 1.425 . S
C1550 C1557 1.409 . S
C1551 H1543 0.930 . S
C1551 C1549 1.419 . S
C1551 C1552 1.362 . S
C1552 H1544 0.930 . S
C1552 C1551 1.362 . S
C1552 C1555 1.409 . S
C1553 H1545 0.930 . S
C1553 C1554 1.355 . S
C1553 C1555 1.415 . S
C1554 C1553 1.355 . S
C1554 C1556 1.419 . S
C1555 C1550 1.425 . S
C1555 C1552 1.409 . S
C1555 C1553 1.415 . S
C1556 H1546 0.930 1_655 S
C1556 C1554 1.419 . S
C1556 C1557 1.362 . S
C1557 H1547 0.930 . S
C1557 C1550 1.409 . S
C1557 C1556 1.362 . S
H1558 C1564 0.930 . S
H1559 C1567 0.930 . S
H1560 C1568 0.930 . S
H1561 C1569 0.930 . S
H1562 C1572 0.930 . S
H1563 C1573 0.930 . S
C1564 H1558 0.930 . S
C1564 C1565 1.355 . S
C1564 C1566 1.415 . S
C1565 C1564 1.355 . S
C1565 C1567 1.419 . S
C1566 C1564 1.415 . S
C1566 C1571 1.425 . S
C1566 C1573 1.409 . S
C1567 H1559 0.930 . S
C1567 C1565 1.419 . S
C1567 C1568 1.362 . S
C1568 H1560 0.930 . S
C1568 C1567 1.362 . S
C1568 C1571 1.409 . S
C1569 H1561 0.930 . S
C1569 C1570 1.355 . S
C1569 C1571 1.415 . S
C1570 C1569 1.355 . S
C1570 C1572 1.419 . S
C1571 C1566 1.425 . S
C1571 C1568 1.409 . S
C1571 C1569 1.415 . S
C1572 H1562 0.930 . S
C1572 C1570 1.419 . S
C1572 C1573 1.362 . S
C1573 H1563 0.930 . S
C1573 C1566 1.409 . S
C1573 C1572 1.362 . S
H1574 C1580 0.930 . S
H1575 C1583 0.930 . S
H1576 C1584 0.930 1_565 S
H1577 C1585 0.930 1_565 S
H1578 C1588 0.930 . S
H1579 C1589 0.930 . S
C1580 H1574 0.930 . S
C1580 C1581 1.355 . S
C1580 C1582 1.415 . S
C1581 C1580 1.355 . S
C1581 C1583 1.419 . S
C1582 C1580 1.415 . S
C1582 C1587 1.425 . S
C1582 C1589 1.409 . S
C1583 H1575 0.930 . S
C1583 C1581 1.419 . S
C1583 C1584 1.362 . S
C1584 H1576 0.930 1_545 S
C1584 C1583 1.362 . S
C1584 C1587 1.409 . S
C1585 H1577 0.930 1_545 S
C1585 C1586 1.355 . S
C1585 C1587 1.415 . S
C1586 C1585 1.355 . S
C1586 C1588 1.419 . S
C1587 C1582 1.425 . S
C1587 C1584 1.409 . S
C1587 C1585 1.415 . S
C1588 H1578 0.930 . S
C1588 C1586 1.419 . S
C1588 C1589 1.362 . S
C1589 H1579 0.930 . S
C1589 C1582 1.409 . S
C1589 C1588 1.362 . S
H1590 C1596 0.930 . S
H1591 C1599 0.930 . S
H1592 C1600 0.930 . S
H1593 C1601 0.930 . S
H1594 C1604 0.930 . S
H1595 C1605 0.930 . S
C1596 H1590 0.930 . S
C1596 C1597 1.355 . S
C1596 C1598 1.415 . S
C1597 C1596 1.355 . S
C1597 C1599 1.419 . S
C1598 C1596 1.415 . S
C1598 C1603 1.425 . S
C1598 C1605 1.409 . S
C1599 H1591 0.930 . S
C1599 C1597 1.419 . S
C1599 C1600 1.362 . S
C1600 H1592 0.930 . S
C1600 C1599 1.362 . S
C1600 C1603 1.409 . S
C1601 H1593 0.930 . S
C1601 C1602 1.355 . S
C1601 C1603 1.415 . S
C1602 C1601 1.355 . S
C1602 C1604 1.419 . S
C1603 C1598 1.425 . S
C1603 C1600 1.409 . S
C1603 C1601 1.415 . S
C1604 H1594 0.930 . S
C1604 C1602 1.419 . S
C1604 C1605 1.362 . S
C1605 H1595 0.930 . S
C1605 C1598 1.409 . S
C1605 C1604 1.362 . S
H1606 C1612 0.930 . S
H1607 C1615 0.930 . S
H1608 C1616 0.930 . S
H1609 C1617 0.930 . S
H1610 C1620 0.930 . S
H1611 C1621 0.930 . S
C1612 H1606 0.930 . S
C1612 C1613 1.355 . S
C1612 C1614 1.415 . S
C1613 C1612 1.355 . S
C1613 C1615 1.419 . S
C1614 C1612 1.415 . S
C1614 C1619 1.425 . S
C1614 C1621 1.409 . S
C1615 H1607 0.930 . S
C1615 C1613 1.419 . S
C1615 C1616 1.362 . S
C1616 H1608 0.930 . S
C1616 C1615 1.362 . S
C1616 C1619 1.409 . S
C1617 H1609 0.930 . S
C1617 C1618 1.355 . S
C1617 C1619 1.415 . S
C1618 C1617 1.355 . S
C1618 C1620 1.419 . S
C1619 C1614 1.425 . S
C1619 C1616 1.409 . S
C1619 C1617 1.415 . S
C1620 H1610 0.930 . S
C1620 C1618 1.419 . S
C1620 C1621 1.362 . S
C1621 H1611 0.930 . S
C1621 C1614 1.409 . S
C1621 C1620 1.362 . S
H1622 C1628 0.930 . S
H1623 C1631 0.930 . S
H1624 C1632 0.930 . S
H1625 C1633 0.930 . S
H1626 C1636 0.930 . S
H1627 C1637 0.930 . S
C1628 H1622 0.930 . S
C1628 C1629 1.355 . S
C1628 C1630 1.415 . S
C1629 C1628 1.355 . S
C1629 C1631 1.419 . S
C1630 C1628 1.415 . S
C1630 C1635 1.425 . S
C1630 C1637 1.409 . S
C1631 H1623 0.930 . S
C1631 C1629 1.419 . S
C1631 C1632 1.362 . S
C1632 H1624 0.930 . S
C1632 C1631 1.362 . S
C1632 C1635 1.409 . S
C1633 H1625 0.930 . S
C1633 C1634 1.355 . S
C1633 C1635 1.415 . S
C1634 C1633 1.355 . S
C1634 C1636 1.419 . S
C1635 C1630 1.425 . S
C1635 C1632 1.409 . S
C1635 C1633 1.415 . S
C1636 H1626 0.930 . S
C1636 C1634 1.419 . S
C1636 C1637 1.362 . S
C1637 H1627 0.930 . S
C1637 C1630 1.409 . S
C1637 C1636 1.362 . S
H1638 C1644 0.930 . S
H1639 C1647 0.930 . S
H1640 C1648 0.930 . S
H1641 C1649 0.930 . S
H1642 C1652 0.930 . S
H1643 C1653 0.930 . S
C1644 H1638 0.930 . S
C1644 C1645 1.355 . S
C1644 C1646 1.415 . S
C1645 C1644 1.355 . S
C1645 C1647 1.419 . S
C1646 C1644 1.415 . S
C1646 C1651 1.425 . S
C1646 C1653 1.409 . S
C1647 H1639 0.930 . S
C1647 C1645 1.419 . S
C1647 C1648 1.362 . S
C1648 H1640 0.930 . S
C1648 C1647 1.362 . S
C1648 C1651 1.409 . S
C1649 H1641 0.930 . S
C1649 C1650 1.355 . S
C1649 C1651 1.415 . S
C1650 C1649 1.355 . S
C1650 C1652 1.419 . S
C1651 C1646 1.425 . S
C1651 C1648 1.409 . S
C1651 C1649 1.415 . S
C1652 H1642 0.930 . S
C1652 C1650 1.419 . S
C1652 C1653 1.362 . S
C1653 H1643 0.930 . S
C1653 C1646 1.409 . S
C1653 C1652 1.362 . S
H1654 C1660 0.930 . S
H1655 C1663 0.930 . S
H1656 C1664 0.930 . S
H1657 C1665 0.930 . S
H1658 C1668 0.930 . S
H1659 C1669 0.930 . S
C1660 H1654 0.930 . S
C1660 C1661 1.355 . S
C1660 C1662 1.415 . S
C1661 C1660 1.355 . S
C1661 C1663 1.419 . S
C1662 C1660 1.415 . S
C1662 C1667 1.425 . S
C1662 C1669 1.409 . S
C1663 H1655 0.930 . S
C1663 C1661 1.419 . S
C1663 C1664 1.362 . S
C1664 H1656 0.930 . S
C1664 C1663 1.362 . S
C1664 C1667 1.409 . S
C1665 H1657 0.930 . S
C1665 C1666 1.355 . S
C1665 C1667 1.415 . S
C1666 C1665 1.355 . S
C1666 C1668 1.419 . S
C1667 C1662 1.425 . S
C1667 C1664 1.409 . S
C1667 C1665 1.415 . S
C1668 H1658 0.930 . S
C1668 C1666 1.419 . S
C1668 C1669 1.362 . S
C1669 H1659 0.930 . S
C1669 C1662 1.409 . S
C1669 C1668 1.362 . S
H1670 C1676 0.930 . S
H1671 C1679 0.930 . S
H1672 C1680 0.930 . S
H1673 C1681 0.930 . S
H1674 C1684 0.930 . S
H1675 C1685 0.930 . S
C1676 H1670 0.930 . S
C1676 C1677 1.355 . S
C1676 C1678 1.415 . S
C1677 C1676 1.355 . S
C1677 C1679 1.419 . S
C1678 C1676 1.415 . S
C1678 C1683 1.425 . S
C1678 C1685 1.409 . S
C1679 H1671 0.930 . S
C1679 C1677 1.419 . S
C1679 C1680 1.362 . S
C1680 H1672 0.930 . S
C1680 C1679 1.362 . S
C1680 C1683 1.409 . S
C1681 H1673 0.930 . S
C1681 C1682 1.355 . S
C1681 C1683 1.415 . S
C1682 C1681 1.355 . S
C1682 C1684 1.419 . S
C1683 C1678 1.425 . S
C1683 C1680 1.409 . S
C1683 C1681 1.415 . S
C1684 H1674 0.930 . S
C1684 C1682 1.419 . S
C1684 C1685 1.362 . S
C1685 H1675 0.930 . S
C1685 C1678 1.409 . S
C1685 C1684 1.362 . S
H1686 C1692 0.930 . S
H1687 C1695 0.930 . S
H1688 C1696 0.930 . S
H1689 C1697 0.930 . S
H1690 C1700 0.930 . S
H1691 C1701 0.930 . S
C1692 H1686 0.930 . S
C1692 C1693 1.355 . S
C1692 C1694 1.415 . S
C1693 C1692 1.355 . S
C1693 C1695 1.419 . S
C1694 C1692 1.415 . S
C1694 C1699 1.425 . S
C1694 C1701 1.409 . S
C1695 H1687 0.930 . S
C1695 C1693 1.419 . S
C1695 C1696 1.362 . S
C1696 H1688 0.930 . S
C1696 C1695 1.362 . S
C1696 C1699 1.409 . S
C1697 H1689 0.930 . S
C1697 C1698 1.355 . S
C1697 C1699 1.415 . S
C1698 C1697 1.355 . S
C1698 C1700 1.419 . S
C1699 C1694 1.425 . S
C1699 C1696 1.409 . S
C1699 C1697 1.415 . S
C1700 H1690 0.930 . S
C1700 C1698 1.419 . S
C1700 C1701 1.362 . S
C1701 H1691 0.930 . S
C1701 C1694 1.409 . S
C1701 C1700 1.362 . S
H1702 C1708 0.930 . S
H1703 C1711 0.930 . S
H1704 C1712 0.930 . S
H1705 C1713 0.930 . S
H1706 C1716 0.930 . S
H1707 C1717 0.930 . S
C1708 H1702 0.930 . S
C1708 C1709 1.355 . S
C1708 C1710 1.415 . S
C1709 C1708 1.355 . S
C1709 C1711 1.419 . S
C1710 C1708 1.415 . S
C1710 C1715 1.425 . S
C1710 C1717 1.409 . S
C1711 H1703 0.930 . S
C1711 C1709 1.419 . S
C1711 C1712 1.362 . S
C1712 H1704 0.930 . S
C1712 C1711 1.362 . S
C1712 C1715 1.409 . S
C1713 H1705 0.930 . S
C1713 C1714 1.355 . S
C1713 C1715 1.415 . S
C1714 C1713 1.355 . S
C1714 C1716 1.419 . S
C1715 C1710 1.425 . S
C1715 C1712 1.409 . S
C1715 C1713 1.415 . S
C1716 H1706 0.930 . S
C1716 C1714 1.419 . S
C1716 C1717 1.362 . S
C1717 H1707 0.930 . S
C1717 C1710 1.409 . S
C1717 C1716 1.362 . S
H1718 C1724 0.930 . S
H1719 C1727 0.930 . S
H1720 C1728 0.930 . S
H1721 C1729 0.930 . S
H1722 C1732 0.930 . S
H1723 C1733 0.930 . S
C1724 H1718 0.930 . S
C1724 C1725 1.355 . S
C1724 C1726 1.415 . S
C1725 C1724 1.355 . S
C1725 C1727 1.419 . S
C1726 C1724 1.415 . S
C1726 C1731 1.425 . S
C1726 C1733 1.409 . S
C1727 H1719 0.930 . S
C1727 C1725 1.419 . S
C1727 C1728 1.362 . S
C1728 H1720 0.930 . S
C1728 C1727 1.362 . S
C1728 C1731 1.409 . S
C1729 H1721 0.930 . S
C1729 C1730 1.355 . S
C1729 C1731 1.415 . S
C1730 C1729 1.355 . S
C1730 C1732 1.419 . S
C1731 C1726 1.425 . S
C1731 C1728 1.409 . S
C1731 C1729 1.415 . S
C1732 H1722 0.930 . S
C1732 C1730 1.419 . S
C1732 C1733 1.362 . S
C1733 H1723 0.930 . S
C1733 C1726 1.409 . S
C1733 C1732 1.362 . S
H1734 C1740 0.930 . S
H1735 C1743 0.930 . S
H1736 C1744 0.930 . S
H1737 C1745 0.930 . S
H1738 C1748 0.930 . S
H1739 C1749 0.930 . S
C1740 H1734 0.930 . S
C1740 C1741 1.355 . S
C1740 C1742 1.415 . S
C1741 C1740 1.355 . S
C1741 C1743 1.419 . S
C1742 C1740 1.415 . S
C1742 C1747 1.425 . S
C1742 C1749 1.409 . S
C1743 H1735 0.930 . S
C1743 C1741 1.419 . S
C1743 C1744 1.362 . S
C1744 H1736 0.930 . S
C1744 C1743 1.362 . S
C1744 C1747 1.409 . S
C1745 H1737 0.930 . S
C1745 C1746 1.355 . S
C1745 C1747 1.415 . S
C1746 C1745 1.355 . S
C1746 C1748 1.419 . S
C1747 C1742 1.425 . S
C1747 C1744 1.409 . S
C1747 C1745 1.415 . S
C1748 H1738 0.930 . S
C1748 C1746 1.419 . S
C1748 C1749 1.362 . S
C1749 H1739 0.930 . S
C1749 C1742 1.409 . S
C1749 C1748 1.362 . S
H1750 C1756 0.930 . S
H1751 C1759 0.930 . S
H1752 C1760 0.930 . S
H1753 C1761 0.930 . S
H1754 C1764 0.930 . S
H1755 C1765 0.930 . S
C1756 H1750 0.930 . S
C1756 C1757 1.355 . S
C1756 C1758 1.415 . S
C1757 C1756 1.355 . S
C1757 C1759 1.419 . S
C1758 C1756 1.415 . S
C1758 C1763 1.425 . S
C1758 C1765 1.409 . S
C1759 H1751 0.930 . S
C1759 C1757 1.419 . S
C1759 C1760 1.362 . S
C1760 H1752 0.930 . S
C1760 C1759 1.362 . S
C1760 C1763 1.409 . S
C1761 H1753 0.930 . S
C1761 C1762 1.355 . S
C1761 C1763 1.415 . S
C1762 C1761 1.355 . S
C1762 C1764 1.419 . S
C1763 C1758 1.425 . S
C1763 C1760 1.409 . S
C1763 C1761 1.415 . S
C1764 H1754 0.930 . S
C1764 C1762 1.419 . S
C1764 C1765 1.362 . S
C1765 H1755 0.930 . S
C1765 C1758 1.409 . S
C1765 C1764 1.362 . S
H1766 C1772 0.930 . S
H1767 C1775 0.930 . S
H1768 C1776 0.930 . S
H1769 C1777 0.930 . S
H1770 C1780 0.930 . S
H1771 C1781 0.930 . S
C1772 H1766 0.930 . S
C1772 C1773 1.355 . S
C1772 C1774 1.415 . S
C1773 C1772 1.355 . S
C1773 C1775 1.419 . S
C1774 C1772 1.415 . S
C1774 C1779 1.425 . S
C1774 C1781 1.409 . S
C1775 H1767 0.930 . S
C1775 C1773 1.419 . S
C1775 C1776 1.362 . S
C1776 H1768 0.930 . S
C1776 C1775 1.362 . S
C1776 C1779 1.409 . S
C1777 H1769 0.930 . S
C1777 C1778 1.355 . S
C1777 C1779 1.415 . S
C1778 C1777 1.355 . S
C1778 C1780 1.419 . S
C1779 C1774 1.425 . S
C1779 C1776 1.409 . S
C1779 C1777 1.415 . S
C1780 H1770 0.930 . S
C1780 C1778 1.419 . S
C1780 C1781 1.362 . S
C1781 H1771 0.930 . S
C1781 C1774 1.409 . S
C1781 C1780 1.362 . S
C925 C124 1.448 . S
C930 C218 1.394 . S
C941 C130 1.495 . S
C946 C302 1.428 . S
C957 C115 1.479 . S
C962 C396 1.451 . S
C973 C106 1.438 . S
C978 C312 1.381 . S
C994 C386 1.392 . S
C989 C85 1.434 . S
C1005 C97 1.424 . S
C1010 C228 1.409 . S
C1026 C229 1.393 . S
C1021 C103 1.452 . S
C1042 C313 1.379 . S
C1037 C88 1.453 . S
C1053 C94 1.478 . S
C1058 C405 1.461 . S
C1069 C121 1.438 . S
C1074 C321 1.388 . S
C1085 C133 1.407 . S
C1090 C397 1.320 . S
C1106 C237 1.360 . S
C1101 C112 1.420 . S
C1122 C470 1.381 . S
C1117 C16 1.429 . S
C1133 C22 1.495 . S
C1138 C554 1.406 . S
C1149 C7 1.474 . S
C1154 C648 1.455 . S
C1165 C160 1.435 . S
C1170 C564 1.380 . S
C1181 C139 1.433 . S
C1186 C638 1.387 . S
C1197 C151 1.401 . S
C1202 C480 1.340 . S
C1213 C157 1.470 . S
C1218 C481 1.419 . S
C1229 C142 1.456 . S
C1234 C565 1.360 . S
C1250 C657 1.414 . S
C1245 C148 1.462 . S
C1261 C13 1.453 . S
C1266 C573 1.439 . S
C1282 C649 1.377 . S
C1277 C25 1.423 . S
C1293 C4 1.443 . S
C1298 C489 1.420 . S
C1314 C722 1.348 . S
C1309 C70 1.430 . S
C1325 C76 1.488 . S
C1330 C806 1.372 . S
C1346 C900 1.404 . S
C1341 C61 1.461 . S
C1362 C816 1.437 . S
C1357 C52 1.455 . S
C1378 C890 1.317 . S
C1373 C31 1.439 . S
C1389 C43 1.424 . S
C1394 C732 1.409 . S
C1405 C49 1.451 . S
C1410 C733 1.364 . S
C1421 C34 1.467 . S
C1426 C817 1.429 . S
C1442 C909 1.396 . S
C1437 C40 1.454 . S
C1453 C67 1.433 . S
C1458 C825 1.376 . S
C1469 C79 1.426 . S
C1474 C901 1.359 . S
C1485 C58 1.429 . S
C1490 C741 1.382 . S
C1501 C140 1.488 . S
C1506 C225 1.343 . S
C1522 C309 1.337 . S
C1517 C149 1.505 . S
C1533 C158 1.501 . S
C1538 C402 1.415 . S
C1549 C59 1.519 . S
C1554 C318 1.350 . S
C1565 C68 1.488 . S
C1570 C393 1.376 . S
C1586 C234 1.428 . S
C1581 C77 1.485 . S
C1597 C32 1.486 . S
C1602 C477 1.422 . S
C1613 C41 1.505 . S
C1618 C561 1.342 . S
C1629 C50 1.501 . S
C1634 C654 1.405 . S
C1645 C113 1.518 . S
C1650 C570 1.349 . S
C1666 C645 1.384 . S
C1661 C122 1.488 . S
C1677 C131 1.489 . S
C1682 C486 1.375 . S
C1693 C86 1.486 . S
C1698 C729 1.425 . S
C1709 C95 1.501 . S
C1714 C813 1.374 . S
C1730 C906 1.419 . S
C1725 C104 1.501 . S
C1741 C5 1.520 . S
C1746 C822 1.423 . S
C1757 C14 1.489 . S
C1762 C897 1.353 . S
C1773 C23 1.486 . S
C1778 C738 1.416 . S
