# Generated by pormake.
# Topology anh, (6,3)-cn, num edge types: 1
# Building blocks:
#     Node 0, Type 0, BuildingBlock: MIFKUJ_clean_sbu_0, # of connection points: 6
#     Node 1, Type 0, BuildingBlock: MIFKUJ_clean_sbu_0, # of connection points: 6
#     Node 2, Type 0, BuildingBlock: MIFKUJ_clean_sbu_0, # of connection points: 6
#     Node 3, Type 1, BuildingBlock: VETTIZ_charged_linker_0, # of connection points: 3
#     Node 4, Type 1, BuildingBlock: VETTIZ_charged_linker_0, # of connection points: 3
#     Node 5, Type 1, BuildingBlock: VETTIZ_charged_linker_0, # of connection points: 3
#     Node 6, Type 1, BuildingBlock: VETTIZ_charged_linker_0, # of connection points: 3
#     Node 7, Type 1, BuildingBlock: VETTIZ_charged_linker_0, # of connection points: 3
#     Node 8, Type 1, BuildingBlock: VETTIZ_charged_linker_0, # of connection points: 3
#     Edge 9, Type (0, 1), BuildingBlock: XUDNAN_clean_linker_2, # of connection points: 2
#     Edge 10, Type (0, 1), BuildingBlock: XUDNAN_clean_linker_2, # of connection points: 2
#     Edge 11, Type (0, 1), BuildingBlock: XUDNAN_clean_linker_2, # of connection points: 2
#     Edge 12, Type (0, 1), BuildingBlock: XUDNAN_clean_linker_2, # of connection points: 2
#     Edge 13, Type (0, 1), BuildingBlock: XUDNAN_clean_linker_2, # of connection points: 2
#     Edge 14, Type (0, 1), BuildingBlock: XUDNAN_clean_linker_2, # of connection points: 2
#     Edge 15, Type (0, 1), BuildingBlock: XUDNAN_clean_linker_2, # of connection points: 2
#     Edge 16, Type (0, 1), BuildingBlock: XUDNAN_clean_linker_2, # of connection points: 2
#     Edge 17, Type (0, 1), BuildingBlock: XUDNAN_clean_linker_2, # of connection points: 2
#     Edge 18, Type (0, 1), BuildingBlock: XUDNAN_clean_linker_2, # of connection points: 2
#     Edge 19, Type (0, 1), BuildingBlock: XUDNAN_clean_linker_2, # of connection points: 2
#     Edge 20, Type (0, 1), BuildingBlock: XUDNAN_clean_linker_2, # of connection points: 2
#     Edge 21, Type (0, 1), BuildingBlock: XUDNAN_clean_linker_2, # of connection points: 2
#     Edge 22, Type (0, 1), BuildingBlock: XUDNAN_clean_linker_2, # of connection points: 2
#     Edge 23, Type (0, 1), BuildingBlock: XUDNAN_clean_linker_2, # of connection points: 2
#     Edge 24, Type (0, 1), BuildingBlock: XUDNAN_clean_linker_2, # of connection points: 2
#     Edge 25, Type (0, 1), BuildingBlock: XUDNAN_clean_linker_2, # of connection points: 2
#     Edge 26, Type (0, 1), BuildingBlock: XUDNAN_clean_linker_2, # of connection points: 2
# Relax obj value: 0.139
# Max RMSD: 0.186
# Mean RMSD: 0.147
data_MOF--net-anh--node1-MIFKUJ_clean_sbu_0--node2-VETTIZ_charged_linker_0--edge1-XUDNAN_clean_linker_2
_symmetry_space_group_name_H-M    P1
_symmetry_Int_Tables_number       1
_symmetry_cell_setting            triclinic
loop_
_symmetry_equiv_pos_as_xyz
'x, y, z'
_cell_length_a     37.005881
_cell_length_b     37.069704
_cell_length_c     63.849971
_cell_angle_alpha  93.720421
_cell_angle_beta   90.770124
_cell_angle_gamma 119.84302
loop_
_atom_site_label
_atom_site_type_symbol
_atom_site_fract_x
_atom_site_fract_y
_atom_site_fract_z
_atom_type_partial_charge
Zn0 Zn 0.04968 0.55548 0.16373 0.0
Zn1 Zn 0.94641 0.47258 0.15878 0.0
C2 C 0.1227 0.54808 0.17022 0.0
O3 O 0.13503 0.58489 0.18 0.0
C4 C 0.89066 0.49924 0.14676 0.0
O5 O 0.88434 0.47052 0.13168 0.0
O6 O 0.09029 0.61698 0.16279 0.0
O7 O 0.01178 0.54272 0.13776 0.0
O8 O 0.97666 0.47447 0.13274 0.0
C9 C 0.10945 0.62715 0.14585 0.0
O10 O 0.10065 0.59792 0.13064 0.0
O11 O 0.08591 0.52744 0.16158 0.0
C12 C 0.87045 0.41632 0.17267 0.0
O13 O 0.88471 0.44855 0.18668 0.0
O14 O 0.8939 0.41651 0.15825 0.0
O15 O 0.97658 0.47736 0.18585 0.0
O16 O 0.02407 0.54436 0.1922 0.0
O17 O 0.92173 0.5115 0.15979 0.0
C18 C 0.99964 0.50968 0.1258 0.0
C19 C 0.00077 0.50834 0.19852 0.0
Zn20 Zn 0.5774 0.06683 0.49847 0.0
Zn21 Zn 0.52765 0.93546 0.4973 0.0
C22 C 0.65142 0.13375 0.51655 0.0
O23 O 0.62512 0.12914 0.53112 0.0
C24 C 0.43506 0.89201 0.4926 0.0
O25 O 0.43809 0.92136 0.48104 0.0
O26 O 0.55193 0.10254 0.50562 0.0
O27 O 0.55984 0.041 0.46892 0.0
O28 O 0.53711 0.97559 0.47512 0.0
C29 C 0.54823 0.12399 0.49185 0.0
O30 O 0.55085 0.11472 0.47193 0.0
O31 O 0.6386 0.10825 0.50023 0.0
C32 C 0.59463 0.91631 0.49533 0.0
O33 O 0.61726 0.95347 0.50528 0.0
O34 O 0.55675 0.90359 0.48999 0.0
O35 O 0.54548 0.9612 0.52691 0.0
O36 O 0.56694 0.02555 0.51972 0.0
O37 O 0.46777 0.89282 0.49948 0.0
C38 C 0.54403 0.00288 0.46225 0.0
C39 C 0.56026 -0.0007 0.53309 0.0
Zn40 Zn 0.55367 0.49143 0.83355 0.0
Zn41 Zn 0.48468 0.54796 0.82967 0.0
C42 C 0.53559 0.41684 0.84859 0.0
O43 O 0.55259 0.44438 0.8649 0.0
C44 C 0.51106 0.63144 0.83892 0.0
O45 O 0.48005 0.61238 0.85126 0.0
O46 O 0.61308 0.51101 0.8417 0.0
O47 O 0.55343 0.51438 0.80595 0.0
O48 O 0.49289 0.50996 0.80907 0.0
C49 C 0.64365 0.53169 0.83046 0.0
O50 O 0.63847 0.54854 0.81404 0.0
O51 O 0.52937 0.42896 0.83137 0.0
C52 C 0.39543 0.50039 0.82024 0.0
O53 O 0.39997 0.46749 0.82079 0.0
O54 O 0.42702 0.53663 0.82361 0.0
O55 O 0.48839 0.53631 0.85956 0.0
O56 O 0.52639 0.50518 0.85749 0.0
O57 O 0.52184 0.60959 0.82723 0.0
C58 C 0.52603 0.52238 0.79935 0.0
C59 C 0.50601 0.5186 0.86804 0.0
C60 C 0.58354 0.13202 0.18464 0.0
C61 C 0.61948 0.16425 0.19556 0.0
C62 C 0.62903 0.1601 0.21633 0.0
C63 C 0.56574 0.09319 0.21575 0.0
C64 C 0.55709 0.09668 0.19505 0.0
C65 C 0.5166 0.05979 0.18627 0.0
H66 H 0.34545 0.87534 0.20246 0.0
C67 C 0.53098 0.0542 0.22249 0.0
C68 C 0.50205 0.03431 0.20525 0.0
H69 H 0.37656 0.93699 0.14476 0.0
H70 H 0.44018 0.99367 0.16198 0.0
H71 H 0.43173 0.8896 0.21454 0.0
H72 H 0.3709 0.95888 0.23252 0.0
H73 H 0.39746 0.95811 0.25531 0.0
H74 H 0.35721 0.90957 0.24225 0.0
H75 H 0.39286 0.87283 0.23375 0.0
H76 H 0.44746 0.90732 0.241 0.0
C77 C 0.52645 0.03692 0.16805 0.0
C78 C 0.48682 0.07567 0.17978 0.0
C79 C 0.53043 0.01697 0.29811 0.0
C80 C 0.50215 0.98242 0.30864 0.0
C81 C 0.46552 0.95097 0.29766 0.0
C82 C 0.4572 0.95351 0.27656 0.0
C83 C 0.48585 0.98781 0.26613 0.0
C84 C 0.52176 0.01885 0.27685 0.0
C85 C 0.54866 0.0526 0.26294 0.0
C86 C 0.52288 0.03651 0.24219 0.0
C87 C 0.48616 0.99873 0.24427 0.0
C88 C 0.59103 0.05381 0.26143 0.0
C89 C 0.55204 0.09396 0.27212 0.0
C90 C 0.36532 0.90135 0.19352 0.0
C91 C 0.35553 0.90173 0.17224 0.0
C92 C 0.38336 0.93575 0.16116 0.0
C93 C 0.42022 0.96868 0.17121 0.0
C94 C 0.42936 0.9676 0.19256 0.0
C95 C 0.40184 0.93431 0.20329 0.0
C96 C 0.4161 0.93769 0.22577 0.0
C97 C 0.45717 0.97831 0.22686 0.0
C98 C 0.4649 0.99591 0.20744 0.0
C99 C 0.42217 0.8999 0.22915 0.0
C100 C 0.38381 0.94095 0.23984 0.0
H101 H 0.61118 0.1236 0.2424 0.0
H102 H 0.57567 0.13485 0.16865 0.0
H103 H 0.48979 0.10084 0.19139 0.0
H104 H 0.45363 0.05132 0.17933 0.0
H105 H 0.49415 0.08861 0.16419 0.0
H106 H 0.55601 0.03706 0.17171 0.0
H107 H 0.53012 0.05231 0.15324 0.0
H108 H 0.50254 0.00364 0.16526 0.0
H109 H 0.55895 0.04154 0.30612 0.0
H110 H 0.44297 0.92442 0.30551 0.0
H111 H 0.42872 0.92849 0.2692 0.0
H112 H 0.58711 0.02222 0.2625 0.0
H113 H 0.61357 0.07479 0.27436 0.0
H114 H 0.60519 0.06351 0.2462 0.0
H115 H 0.52172 0.08829 0.27814 0.0
H116 H 0.55943 0.11685 0.26035 0.0
H117 H 0.57583 0.10855 0.28541 0.0
H118 H 0.65672 0.18489 0.22488 0.0
C119 C 0.60245 0.12469 0.22647 0.0
C120 C 0.59127 0.63267 0.51216 0.0
C121 C 0.58938 0.66758 0.5206 0.0
C122 C 0.57216 0.66662 0.54017 0.0
C123 C 0.56394 0.59869 0.54414 0.0
C124 C 0.57808 0.59829 0.52422 0.0
C125 C 0.57885 0.55862 0.51838 0.0
H126 H 0.5677 0.3832 0.55085 0.0
C127 C 0.55753 0.56103 0.5537 0.0
C128 C 0.56556 0.53692 0.53862 0.0
H129 H 0.59091 0.42482 0.48829 0.0
H130 H 0.58082 0.48324 0.4994 0.0
H131 H 0.62371 0.46782 0.57383 0.0
H132 H 0.49154 0.40085 0.55949 0.0
H133 H 0.49965 0.42207 0.58573 0.0
H134 H 0.51714 0.38579 0.57822 0.0
H135 H 0.58856 0.42782 0.58959 0.0
H136 H 0.60235 0.4817 0.59504 0.0
C137 C 0.62401 0.57023 0.51345 0.0
C138 C 0.54643 0.53412 0.4999 0.0
C139 C 0.53533 0.55106 0.63203 0.0
C140 C 0.53587 0.52385 0.64629 0.0
C141 C 0.53893 0.48907 0.63834 0.0
C142 C 0.54191 0.48189 0.6168 0.0
C143 C 0.54266 0.5101 0.60292 0.0
C144 C 0.53929 0.54391 0.61059 0.0
C145 C 0.54346 0.5721 0.59374 0.0
C146 C 0.54968 0.54941 0.57465 0.0
C147 C 0.54898 0.51315 0.58016 0.0
C148 C 0.58265 0.61521 0.59988 0.0
C149 C 0.50217 0.57303 0.59147 0.0
C150 C 0.57068 0.40489 0.53949 0.0
C151 C 0.58084 0.40007 0.51882 0.0
C152 C 0.58339 0.42827 0.50436 0.0
C153 C 0.5777 0.46209 0.51088 0.0
C154 C 0.5694 0.46742 0.53201 0.0
C155 C 0.56541 0.43851 0.54573 0.0
C156 C 0.55712 0.44859 0.5676 0.0
C157 C 0.55569 0.48801 0.56484 0.0
C158 C 0.56344 0.4994 0.54408 0.0
C159 C 0.59453 0.45668 0.58242 0.0
C160 C 0.51428 0.41248 0.57327 0.0
H161 H 0.54684 0.63355 0.56688 0.0
H162 H 0.6038 0.63272 0.49692 0.0
H163 H 0.51913 0.53898 0.501 0.0
H164 H 0.53311 0.50002 0.49989 0.0
H165 H 0.56022 0.5444 0.48455 0.0
H166 H 0.6466 0.59414 0.52556 0.0
H167 H 0.63207 0.58332 0.49792 0.0
H168 H 0.62948 0.54362 0.5135 0.0
H169 H 0.53252 0.57782 0.6374 0.0
H170 H 0.54029 0.46789 0.6488 0.0
H171 H 0.54453 0.4551 0.61189 0.0
H172 H 0.6083 0.61135 0.60661 0.0
H173 H 0.57563 0.63359 0.61189 0.0
H174 H 0.5961 0.63411 0.58649 0.0
H175 H 0.47508 0.54325 0.59564 0.0
H176 H 0.49459 0.57614 0.5751 0.0
H177 H 0.50313 0.59866 0.60192 0.0
H178 H 0.56992 0.69317 0.54662 0.0
C179 C 0.55906 0.63218 0.55191 0.0
C180 C 0.13448 0.54471 0.84202 0.0
C181 C 0.16926 0.54411 0.85048 0.0
C182 C 0.18219 0.55741 0.87174 0.0
C183 C 0.12308 0.56739 0.87657 0.0
C184 C 0.11214 0.55706 0.85534 0.0
C185 C 0.07413 0.55954 0.84924 0.0
H186 H 0.90381 0.56507 0.87977 0.0
C187 C 0.09157 0.57499 0.88646 0.0
C188 C 0.06344 0.57171 0.87048 0.0
H189 H 0.93679 0.55069 0.81647 0.0
H190 H 0.00502 0.56512 0.82957 0.0
H191 H 0.93785 0.51147 0.89937 0.0
H192 H 0.99237 0.64394 0.89632 0.0
H193 H 0.01068 0.63726 0.92047 0.0
H194 H 0.95537 0.61667 0.91545 0.0
H195 H 0.91919 0.54216 0.91325 0.0
H196 H 0.96019 0.53576 0.92438 0.0
C197 C 0.04008 0.51557 0.84005 0.0
C198 C 0.08677 0.59418 0.83391 0.0
C199 C 0.0812 0.57331 0.96554 0.0
C200 C 0.05168 0.57378 0.979 0.0
C201 C 0.02189 0.58324 0.97113 0.0
C202 C 0.0196 0.58905 0.94978 0.0
C203 C 0.04709 0.58492 0.93616 0.0
C204 C 0.07842 0.57906 0.94425 0.0
C205 C 0.10551 0.57663 0.92751 0.0
C206 C 0.08382 0.5798 0.90789 0.0
C207 C 0.04927 0.58392 0.91307 0.0
C208 C 0.10299 0.53364 0.92771 0.0
C209 C 0.1502 0.61455 0.93163 0.0
C210 C 0.92622 0.56581 0.86879 0.0
C211 C 0.91548 0.55655 0.84722 0.0
C212 C 0.94488 0.55779 0.83318 0.0
C213 C 0.98411 0.56578 0.84086 0.0
C214 C 0.99333 0.57194 0.86272 0.0
C215 C 0.96511 0.57332 0.8762 0.0
C216 C 0.97949 0.57941 0.8989 0.0
C217 C 0.02115 0.58131 0.89692 0.0
C218 C 0.02864 0.57605 0.87573 0.0
C219 C 0.94765 0.54048 0.90974 0.0
C220 C 0.98455 0.62129 0.90846 0.0
H221 H 0.17007 0.57834 0.90101 0.0
H222 H 0.12468 0.53527 0.82556 0.0
H223 H 0.12024 0.6185 0.83653 0.0
H224 H 0.06964 0.61142 0.83622 0.0
H225 H 0.0819 0.58117 0.81728 0.0
H226 H 0.03854 0.4912 0.8499 0.0
H227 H 0.04699 0.50865 0.82389 0.0
H228 H 0.00844 0.51132 0.83957 0.0
H229 H 0.105 0.56705 0.97135 0.0
H230 H 0.99892 0.58392 0.98124 0.0
H231 H 0.99532 0.59467 0.94454 0.0
H232 H 0.06998 0.50832 0.92825 0.0
H233 H 0.12057 0.53271 0.94171 0.0
H234 H 0.11504 0.52529 0.91368 0.0
H235 H 0.15031 0.64049 0.94149 0.0
H236 H 0.16435 0.62845 0.91692 0.0
H237 H 0.17099 0.60583 0.9399 0.0
H238 H 0.20937 0.55746 0.87831 0.0
C239 C 0.15934 0.56929 0.88484 0.0
C240 C 0.93339 0.4163 0.48829 0.0
C241 C 0.89756 0.38079 0.479 0.0
C242 C 0.889 0.37756 0.45717 0.0
C243 C 0.95235 0.44283 0.45397 0.0
C244 C 0.96036 0.4469 0.47546 0.0
C245 C 0.00014 0.48663 0.48243 0.0
H246 H 0.17402 0.6578 0.4546 0.0
C247 C 0.98692 0.47866 0.44492 0.0
C248 C 0.01518 0.50461 0.46145 0.0
H249 H 0.1357 0.62562 0.51762 0.0
H250 H 0.07343 0.5629 0.50336 0.0
H251 H 0.14734 0.56627 0.43507 0.0
H252 H 0.08677 0.63967 0.43704 0.0
H253 H 0.07468 0.61315 0.41194 0.0
H254 H 0.12841 0.64945 0.42008 0.0
H255 H 0.16221 0.60931 0.41925 0.0
H256 H 0.12171 0.55717 0.41033 0.0
C257 C 0.03032 0.47497 0.49306 0.0
C258 C 0.98899 0.51457 0.49682 0.0
C259 C 0.98871 0.48511 0.36575 0.0
C260 C 0.01866 0.51194 0.35242 0.0
C261 C 0.05601 0.54615 0.36143 0.0
C262 C 0.06353 0.55325 0.38327 0.0
C263 C 0.0335 0.5258 0.39633 0.0
C264 C 0.99692 0.49238 0.38751 0.0
C265 C 0.96944 0.46539 0.40373 0.0
C266 C 0.99548 0.48841 0.42379 0.0
C267 C 0.03265 0.52386 0.41935 0.0
C268 C 0.96424 0.42124 0.39961 0.0
C269 C 0.92808 0.46639 0.4027 0.0
C270 C 0.15205 0.63778 0.46545 0.0
C271 C 0.15963 0.64712 0.48728 0.0
C272 C 0.13066 0.61918 0.50072 0.0
C273 C 0.09446 0.58293 0.49242 0.0
C274 C 0.0872 0.57461 0.47049 0.0
C275 C 0.1158 0.60205 0.45748 0.0
C276 C 0.1028 0.58957 0.43463 0.0
C277 C 0.06123 0.55028 0.43595 0.0
C278 C 0.0524 0.54112 0.45693 0.0
C279 C 0.13515 0.58031 0.42408 0.0
C280 C 0.0981 0.62468 0.42524 0.0
H281 H 0.90784 0.40366 0.42816 0.0
H282 H 0.94061 0.41984 0.50505 0.0
H283 H 0.95763 0.50961 0.49222 0.0
H284 H 0.01049 0.54822 0.49562 0.0
H285 H 0.98856 0.50757 0.5135 0.0
H286 H 0.03077 0.44891 0.48362 0.0
H287 H 0.02047 0.46473 0.50899 0.0
H288 H 0.0629 0.50081 0.49444 0.0
H289 H 0.9595 0.45872 0.35943 0.0
H290 H 0.07996 0.56694 0.35159 0.0
H291 H 0.0927 0.57958 0.38911 0.0
H292 H 0.99145 0.42256 0.39171 0.0
H293 H 0.93594 0.40033 0.38937 0.0
H294 H 0.96293 0.40633 0.41424 0.0
H295 H 0.93405 0.49813 0.39978 0.0
H296 H 0.91194 0.45939 0.41758 0.0
H297 H 0.90647 0.4443 0.38978 0.0
H298 H 0.86099 0.35124 0.44969 0.0
C299 C 0.91613 0.40825 0.44465 0.0
C300 C 0.53532 0.92326 0.81537 0.0
C301 C 0.53992 0.89164 0.80442 0.0
C302 C 0.53467 0.88626 0.78238 0.0
C303 C 0.52626 0.9467 0.78202 0.0
C304 C 0.52855 0.95064 0.80376 0.0
C305 C 0.5243 0.98737 0.81222 0.0
H306 H 0.52733 0.16632 0.79129 0.0
C307 C 0.52373 0.98203 0.77441 0.0
C308 C 0.52218 0.00609 0.79195 0.0
H309 H 0.50767 0.11321 0.85136 0.0
H310 H 0.51129 0.05415 0.83523 0.0
H311 H 0.59422 0.14448 0.77589 0.0
H312 H 0.46093 0.08225 0.76629 0.0
H313 H 0.47983 0.07529 0.7422 0.0
H314 H 0.49514 0.12738 0.75308 0.0
H315 H 0.56858 0.16187 0.75852 0.0
H316 H 0.58305 0.12384 0.7496 0.0
C317 C 0.56363 0.0174 0.82629 0.0
C318 C 0.48319 0.97047 0.82378 0.0
C319 C 0.54154 0.0066 0.69685 0.0
C320 C 0.54708 0.04001 0.68544 0.0
C321 C 0.54404 0.07311 0.69573 0.0
C322 C 0.53658 0.07344 0.71716 0.0
C323 C 0.53242 0.04047 0.72854 0.0
C324 C 0.53453 0.00762 0.71833 0.0
C325 C 0.53128 0.97632 0.73313 0.0
C326 C 0.52669 0.99575 0.75391 0.0
C327 C 0.52742 0.03321 0.75108 0.0
C328 C 0.57269 0.97527 0.73277 0.0
C329 C 0.49155 0.93399 0.7264 0.0
C330 C 0.52285 0.14183 0.80111 0.0
C331 C 0.51687 0.14477 0.8227 0.0
C332 C 0.51274 0.11228 0.83473 0.0
C333 C 0.51448 0.07776 0.82531 0.0
C334 C 0.5201 0.07545 0.80362 0.0
C335 C 0.52351 0.10701 0.79196 0.0
C336 C 0.52724 0.09911 0.76902 0.0
C337 C 0.52527 0.05736 0.76863 0.0
C338 C 0.52193 0.04373 0.78895 0.0
C339 C 0.57027 0.13412 0.76272 0.0
C340 C 0.48911 0.09609 0.75685 0.0
H341 H 0.52448 0.90777 0.75439 0.0
H342 H 0.53838 0.92738 0.83237 0.0
H343 H 0.4587 0.93999 0.81605 0.0
H344 H 0.46966 0.9911 0.82342 0.0
H345 H 0.48791 0.96566 0.84036 0.0
H346 H 0.59229 0.02356 0.81813 0.0
H347 H 0.56388 0.00376 0.84124 0.0
H348 H 0.56629 0.04806 0.83017 0.0
H349 H 0.54415 0.98093 0.68942 0.0
H350 H 0.5476 0.0989 0.68719 0.0
H351 H 0.53504 0.09975 0.72408 0.0
H352 H 0.5997 0.00695 0.73117 0.0
H353 H 0.57212 0.9544 0.71932 0.0
H354 H 0.58035 0.96566 0.74738 0.0
H355 H 0.46713 0.93866 0.71879 0.0
H356 H 0.47644 0.91585 0.73993 0.0
H357 H 0.49858 0.91466 0.71501 0.0
H358 H 0.53691 0.86135 0.77374 0.0
C359 C 0.52752 0.91329 0.77117 0.0
C360 C 0.60702 0.52242 0.15231 0.0
C361 C 0.64176 0.526 0.14153 0.0
C362 C 0.6446 0.53397 0.12022 0.0
C363 C 0.57751 0.53002 0.11971 0.0
C364 C 0.57503 0.52464 0.14096 0.0
C365 C 0.53487 0.52102 0.14894 0.0
H366 H 0.35246 0.51913 0.12333 0.0
C367 C 0.53916 0.5284 0.11179 0.0
C368 C 0.51373 0.52382 0.12877 0.0
H369 H 0.39343 0.51009 0.1853 0.0
H370 H 0.45597 0.51308 0.17111 0.0
H371 H 0.43934 0.58821 0.10836 0.0
H372 H 0.37152 0.45436 0.10157 0.0
H373 H 0.39766 0.46906 0.07826 0.0
H374 H 0.35983 0.48466 0.08488 0.0
H375 H 0.39262 0.55804 0.09188 0.0
H376 H 0.44335 0.57323 0.08219 0.0
C377 C 0.54639 0.55824 0.16518 0.0
C378 C 0.50928 0.47829 0.15797 0.0
C379 C 0.51525 0.52315 0.03293 0.0
C380 C 0.48165 0.51849 0.02039 0.0
C381 C 0.44764 0.51856 0.02986 0.0
C382 C 0.44663 0.52208 0.05181 0.0
C383 C 0.47993 0.52534 0.06433 0.0
C384 C 0.51374 0.52654 0.0548 0.0
C385 C 0.54609 0.52983 0.07044 0.0
C386 C 0.52538 0.5287 0.09099 0.0
C387 C 0.4869 0.52622 0.08729 0.0
C388 C 0.58644 0.57243 0.06869 0.0
C389 C 0.55115 0.49094 0.06594 0.0
C390 C 0.37507 0.51826 0.13395 0.0
C391 C 0.36854 0.51524 0.15543 0.0
C392 C 0.39808 0.51281 0.16864 0.0
C393 C 0.43434 0.51475 0.16041 0.0
C394 C 0.44066 0.51858 0.13873 0.0
C395 C 0.41061 0.51961 0.12602 0.0
C396 C 0.42001 0.52141 0.10333 0.0
C397 C 0.46161 0.52318 0.10428 0.0
C398 C 0.47432 0.5216 0.125 0.0
C399 C 0.42382 0.56211 0.09585 0.0
C400 C 0.38553 0.48056 0.09123 0.0
H401 H 0.61725 0.54138 0.0931 0.0
H402 H 0.60437 0.51696 0.16882 0.0
H403 H 0.50748 0.45301 0.14685 0.0
H404 H 0.47684 0.47039 0.16053 0.0
H405 H 0.52395 0.4776 0.17312 0.0
H406 H 0.56989 0.58792 0.15897 0.0
H407 H 0.55996 0.55464 0.17999 0.0
H408 H 0.51942 0.56201 0.16893 0.0
H409 H 0.54166 0.5231 0.02583 0.0
H410 H 0.42148 0.51489 0.02025 0.0
H411 H 0.41962 0.52141 0.05814 0.0
H412 H 0.57976 0.59532 0.06163 0.0
H413 H 0.60903 0.56887 0.05874 0.0
H414 H 0.60189 0.58789 0.08426 0.0
H415 H 0.52039 0.46262 0.06161 0.0
H416 H 0.56345 0.48302 0.07965 0.0
H417 H 0.5717 0.49516 0.0527 0.0
H418 H 0.67136 0.53793 0.11173 0.0
C419 C 0.61301 0.53607 0.10937 0.0
H420 H 0.20099 0.5901 0.1567 0.0
H421 H 0.113 0.47309 0.18085 0.0
H422 H 0.16808 0.45326 0.18241 0.0
H423 H 0.25082 0.54585 0.12329 0.0
H424 H 0.30132 0.59228 0.12723 0.0
H425 H 0.25475 0.59612 0.12839 0.0
H426 H 0.2798 0.63485 0.16554 0.0
H427 H 0.32603 0.63036 0.16468 0.0
H428 H 0.29176 0.61049 0.18599 0.0
H429 H 0.23586 0.44875 0.18268 0.0
H430 H 0.30487 0.45494 0.17646 0.0
H431 H 0.34568 0.57352 0.15053 0.0
C432 C 0.19326 0.56011 0.16212 0.0
C433 C 0.15291 0.53302 0.16864 0.0
C434 C 0.14371 0.494 0.17557 0.0
C435 C 0.17491 0.48274 0.17668 0.0
C436 C 0.21482 0.51063 0.17046 0.0
C437 C 0.22359 0.54809 0.16284 0.0
C438 C 0.26802 0.57184 0.15611 0.0
C439 C 0.26876 0.5768 0.13235 0.0
C440 C 0.29285 0.6144 0.16885 0.0
C441 C 0.28344 0.54252 0.16154 0.0
C442 C 0.2526 0.50746 0.16997 0.0
C443 C 0.26006 0.47605 0.17603 0.0
C444 C 0.29944 0.47997 0.17267 0.0
C445 C 0.3306 0.51482 0.16318 0.0
C446 C 0.32251 0.5467 0.15798 0.0
H447 H 0.71418 0.1524 0.48972 0.0
H448 H 0.68226 0.20049 0.54594 0.0
H449 H 0.74825 0.26716 0.54544 0.0
H450 H 0.82957 0.20822 0.50198 0.0
H451 H 0.84024 0.21711 0.47475 0.0
H452 H 0.79387 0.17104 0.48157 0.0
H453 H 0.74849 0.19057 0.4589 0.0
H454 H 0.79449 0.23663 0.45208 0.0
H455 H 0.75283 0.24103 0.46401 0.0
H456 H 0.81211 0.33177 0.53569 0.0
H457 H 0.86848 0.3883 0.5175 0.0
H458 H 0.85987 0.29698 0.46864 0.0
C459 C 0.7216 0.17653 0.50226 0.0
C460 C 0.69324 0.17121 0.5179 0.0
C461 C 0.70374 0.20375 0.53388 0.0
C462 C 0.7412 0.24174 0.53376 0.0
C463 C 0.76803 0.24641 0.51775 0.0
C464 C 0.75888 0.21449 0.50243 0.0
C465 C 0.79087 0.22855 0.48587 0.0
C466 C 0.81508 0.20482 0.48607 0.0
C467 C 0.77043 0.22393 0.46394 0.0
C468 C 0.81833 0.27386 0.49372 0.0
C469 C 0.8051 0.28354 0.51229 0.0
C470 C 0.82339 0.32441 0.52141 0.0
C471 C 0.85544 0.35629 0.51101 0.0
C472 C 0.86846 0.347 0.49166 0.0
C473 C 0.85044 0.30507 0.48337 0.0
H474 H 0.47957 0.68084 0.85282 0.0
H475 H 0.5832 0.68393 0.82035 0.0
H476 H 0.60965 0.75804 0.81453 0.0
H477 H 0.45793 0.73417 0.81839 0.0
H478 H 0.44375 0.7625 0.8374 0.0
H479 H 0.43827 0.71328 0.84312 0.0
H480 H 0.48481 0.74814 0.8773 0.0
H481 H 0.49051 0.79769 0.87162 0.0
H482 H 0.5361 0.79289 0.87601 0.0
H483 H 0.61927 0.82732 0.80793 0.0
H484 H 0.60798 0.88425 0.79794 0.0
H485 H 0.49661 0.83598 0.83341 0.0
C486 C 0.50857 0.69746 0.84506 0.0
C487 C 0.52965 0.6768 0.83723 0.0
C488 C 0.56676 0.69925 0.82661 0.0
C489 C 0.58215 0.74143 0.82338 0.0
C490 C 0.56009 0.76063 0.8309 0.0
C491 C 0.52401 0.73935 0.8415 0.0
C492 C 0.50295 0.76518 0.84535 0.0
C493 C 0.45811 0.74243 0.83546 0.0
C494 C 0.50365 0.77666 0.86897 0.0
C495 C 0.53142 0.80336 0.8341 0.0
C496 C 0.56497 0.80063 0.82654 0.0
C497 C 0.59364 0.83019 0.8141 0.0
C498 C 0.587 0.86239 0.80851 0.0
C499 C 0.5517 0.86452 0.81512 0.0
C500 C 0.52438 0.83553 0.82867 0.0
H501 H 0.81371 0.46291 0.12675 0.0
H502 H 0.89046 0.55712 0.17653 0.0
H503 H 0.83149 0.56928 0.18408 0.0
H504 H 0.76222 0.5136 0.10765 0.0
H505 H 0.71332 0.46584 0.10208 0.0
H506 H 0.76149 0.46507 0.10153 0.0
H507 H 0.73414 0.40916 0.12862 0.0
H508 H 0.68613 0.41041 0.12958 0.0
H509 H 0.71731 0.41994 0.15342 0.0
H510 H 0.7631 0.57331 0.18423 0.0
H511 H 0.69616 0.57101 0.17561 0.0
H512 H 0.66519 0.47081 0.12752 0.0
C513 C 0.81847 0.48633 0.13921 0.0
C514 C 0.85705 0.50941 0.15087 0.0
C515 C 0.86138 0.53931 0.16721 0.0
C516 C 0.8279 0.54618 0.17171 0.0
C517 C 0.79009 0.52244 0.15995 0.0
C518 C 0.78547 0.49308 0.14405 0.0
C519 C 0.74245 0.47201 0.13325 0.0
C520 C 0.74504 0.47961 0.10975 0.0
C521 C 0.7186 0.4251 0.13642 0.0
C522 C 0.72358 0.49471 0.14511 0.0
C523 C 0.75117 0.52358 0.16059 0.0
C524 C 0.74114 0.55031 0.17236 0.0
C525 C 0.70288 0.54857 0.16755 0.0
C526 C 0.6753 0.52035 0.15112 0.0
C527 C 0.68536 0.49217 0.14044 0.0
H528 H 0.35852 0.86551 0.47297 0.0
H529 H 0.41936 0.84099 0.52424 0.0
H530 H 0.35218 0.7806 0.53191 0.0
H531 H 0.25676 0.83119 0.49734 0.0
H532 H 0.22772 0.80751 0.47264 0.0
H533 H 0.27933 0.85245 0.47311 0.0
H534 H 0.30238 0.81136 0.44751 0.0
H535 H 0.25098 0.76642 0.44698 0.0
H536 H 0.29574 0.76206 0.45436 0.0
H537 H 0.28084 0.71792 0.53115 0.0
H538 H 0.21129 0.65712 0.52123 0.0
H539 H 0.196 0.72374 0.47152 0.0
C540 C 0.35746 0.84802 0.48612 0.0
C541 C 0.39407 0.85796 0.49801 0.0
C542 C 0.39166 0.83382 0.51484 0.0
C543 C 0.3536 0.79962 0.51944 0.0
C544 C 0.31817 0.79002 0.50713 0.0
C545 C 0.31972 0.81357 0.49085 0.0
C546 C 0.27808 0.7942 0.47869 0.0
C547 C 0.25937 0.82306 0.48057 0.0
C548 C 0.28205 0.78284 0.45553 0.0
C549 C 0.25334 0.75558 0.49031 0.0
C550 C 0.2768 0.75389 0.50681 0.0
C551 C 0.26179 0.71923 0.51854 0.0
C552 C 0.22216 0.68489 0.51286 0.0
C553 C 0.1982 0.68554 0.49556 0.0
C554 C 0.21363 0.72205 0.48472 0.0
H555 H 0.50142 0.35085 0.81815 0.0
H556 H 0.55572 0.38684 0.88203 0.0
H557 H 0.55162 0.31873 0.88356 0.0
H558 H 0.42971 0.23987 0.8259 0.0
H559 H 0.43701 0.22253 0.80009 0.0
H560 H 0.44121 0.273 0.8046 0.0
H561 H 0.51514 0.30771 0.7901 0.0
H562 H 0.51132 0.25746 0.78566 0.0
H563 H 0.55436 0.29868 0.80167 0.0
H564 H 0.54918 0.24992 0.87675 0.0
H565 H 0.54532 0.18454 0.86252 0.0
H566 H 0.48657 0.19057 0.80444 0.0
C567 C 0.51172 0.34411 0.83259 0.0
C568 C 0.52883 0.37422 0.84995 0.0
C569 C 0.54234 0.36428 0.86851 0.0
C570 C 0.54016 0.32562 0.86957 0.0
C571 C 0.52387 0.29691 0.85205 0.0
C572 C 0.50938 0.30544 0.83401 0.0
C573 C 0.49484 0.26981 0.81712 0.0
C574 C 0.4479 0.25013 0.81161 0.0
C575 C 0.52045 0.28429 0.79749 0.0
C576 C 0.50423 0.2404 0.82834 0.0
C577 C 0.52104 0.25657 0.84845 0.0
C578 C 0.5352 0.23646 0.86116 0.0
C579 C 0.53261 0.19908 0.85297 0.0
C580 C 0.51571 0.18201 0.83229 0.0
C581 C 0.50037 0.20273 0.82017 0.0
H582 H 0.55436 0.83735 0.47624 0.0
H583 H 0.66912 0.92736 0.51116 0.0
H584 H 0.68821 0.87281 0.51392 0.0
H585 H 0.52843 0.76031 0.50674 0.0
H586 H 0.50662 0.71769 0.48652 0.0
H587 H 0.50769 0.76544 0.48209 0.0
H588 H 0.54824 0.77186 0.44845 0.0
H589 H 0.54724 0.72378 0.4528 0.0
H590 H 0.59625 0.77057 0.44996 0.0
H591 H 0.68724 0.80699 0.51979 0.0
H592 H 0.66529 0.73552 0.52909 0.0
H593 H 0.55101 0.68769 0.49084 0.0
C594 C 0.58428 0.84601 0.48378 0.0
C595 C 0.61032 0.88662 0.49342 0.0
C596 C 0.64884 0.89655 0.50348 0.0
C597 C 0.66002 0.86575 0.50504 0.0
C598 C 0.63265 0.82544 0.49619 0.0
C599 C 0.59571 0.81563 0.48554 0.0
C600 C 0.56867 0.76903 0.48032 0.0
C601 C 0.52535 0.75217 0.48948 0.0
C602 C 0.56489 0.75817 0.45646 0.0
C603 C 0.59449 0.75381 0.49123 0.0
C604 C 0.63202 0.78689 0.49964 0.0
C605 C 0.65872 0.78084 0.51268 0.0
C606 C 0.64613 0.74025 0.51786 0.0
C607 C 0.60715 0.70649 0.51012 0.0
C608 C 0.58166 0.71306 0.49617 0.0
H609 H 0.72234 0.58323 0.8173 0.0
H610 H 0.64888 0.47058 0.84904 0.0
H611 H 0.70903 0.45974 0.85122 0.0
H612 H 0.78555 0.54737 0.78804 0.0
H613 H 0.83268 0.59735 0.79192 0.0
H614 H 0.78265 0.59457 0.79049 0.0
H615 H 0.7994 0.63682 0.82675 0.0
H616 H 0.84964 0.64032 0.82807 0.0
H617 H 0.81467 0.6189 0.84899 0.0
H618 H 0.77596 0.46192 0.85175 0.0
H619 H 0.85047 0.48315 0.85557 0.0
H620 H 0.88317 0.59561 0.82492 0.0
C621 C 0.71903 0.55624 0.8246 0.0
C622 C 0.68105 0.52776 0.83298 0.0
C623 C 0.67782 0.49302 0.84266 0.0
C624 C 0.71161 0.48622 0.84372 0.0
C625 C 0.74848 0.51456 0.83516 0.0
C626 C 0.75282 0.54929 0.82612 0.0
C627 C 0.79735 0.57701 0.82017 0.0
C628 C 0.79967 0.57919 0.79623 0.0
C629 C 0.81638 0.62084 0.83169 0.0
C630 C 0.81748 0.55308 0.828 0.0
C631 C 0.78826 0.51651 0.836 0.0
C632 C 0.79915 0.49016 0.84534 0.0
C633 C 0.84135 0.50234 0.84739 0.0
C634 C 0.8719 0.54059 0.84031 0.0
C635 C 0.85997 0.56577 0.82996 0.0
H636 H 0.13764 0.69485 0.1747 0.0
H637 H 0.15972 0.65638 0.11279 0.0
H638 H 0.22122 0.72625 0.11083 0.0
H639 H 0.17206 0.80435 0.16447 0.0
H640 H 0.19577 0.82378 0.19061 0.0
H641 H 0.15085 0.77227 0.1861 0.0
H642 H 0.19194 0.74086 0.20309 0.0
H643 H 0.23688 0.79214 0.20764 0.0
H644 H 0.2412 0.75137 0.19297 0.0
H645 H 0.28518 0.79747 0.11753 0.0
H646 H 0.3456 0.86372 0.1324 0.0
H647 H 0.27913 0.85697 0.18885 0.0
C648 C 0.15488 0.70135 0.16055 0.0
C649 C 0.14381 0.67016 0.1439 0.0
C650 C 0.16752 0.67981 0.12574 0.0
C651 C 0.20247 0.71947 0.12444 0.0
C652 C 0.21299 0.7493 0.14131 0.0
C653 C 0.18966 0.7408 0.15894 0.0
C654 C 0.20907 0.77726 0.17548 0.0
C655 C 0.18021 0.79549 0.17939 0.0
C656 C 0.22044 0.76464 0.19599 0.0
C657 C 0.24764 0.80706 0.1647 0.0
C658 C 0.24929 0.79061 0.14494 0.0
C659 C 0.28383 0.81108 0.13281 0.0
C660 C 0.31795 0.84886 0.14134 0.0
C661 C 0.31724 0.86564 0.16181 0.0
C662 C 0.28091 0.84492 0.17323 0.0
H663 H 0.52457 0.17273 0.47103 0.0
H664 H 0.5891 0.17073 0.52787 0.0
H665 H 0.61408 0.24489 0.53647 0.0
H666 H 0.59664 0.27905 0.45887 0.0
H667 H 0.55652 0.29072 0.4517 0.0
H668 H 0.54662 0.23787 0.44806 0.0
H669 H 0.48199 0.21246 0.47063 0.0
H670 H 0.49112 0.26499 0.47385 0.0
H671 H 0.48758 0.23733 0.49663 0.0
H672 H 0.6352 0.31855 0.53846 0.0
H673 H 0.63382 0.38422 0.54041 0.0
H674 H 0.54752 0.33897 0.48565 0.0
C675 C 0.54377 0.18801 0.48532 0.0
C676 C 0.55575 0.16611 0.49852 0.0
C677 C 0.5801 0.18681 0.51731 0.0
C678 C 0.59484 0.22917 0.52226 0.0
C679 C 0.58384 0.25022 0.50862 0.0
C680 C 0.55747 0.23023 0.49102 0.0
C681 C 0.54627 0.25951 0.48076 0.0
C682 C 0.56249 0.26723 0.45853 0.0
C683 C 0.49893 0.24257 0.48047 0.0
C684 C 0.56999 0.29864 0.49566 0.0
C685 C 0.59275 0.29271 0.51102 0.0
C686 C 0.61715 0.32356 0.52672 0.0
C687 C 0.6162 0.36072 0.52767 0.0
C688 C 0.58998 0.36617 0.51343 0.0
C689 C 0.56795 0.33555 0.49664 0.0
H690 H 0.37792 0.56262 0.81605 0.0
H691 H 0.31906 0.42866 0.81935 0.0
H692 H 0.2501 0.42402 0.82013 0.0
H693 H 0.32331 0.57984 0.85252 0.0
H694 H 0.31913 0.6201 0.84017 0.0
H695 H 0.36179 0.61153 0.8347 0.0
H696 H 0.34159 0.60077 0.79483 0.0
H697 H 0.29865 0.60941 0.80019 0.0
H698 H 0.28936 0.56225 0.78536 0.0
H699 H 0.19021 0.43565 0.82692 0.0
H700 H 0.14543 0.46297 0.84067 0.0
H701 H 0.24404 0.58913 0.83379 0.0
C702 C 0.35044 0.53208 0.8163 0.0
C703 C 0.35375 0.49598 0.81761 0.0
C704 C 0.31715 0.45669 0.81819 0.0
C705 C 0.27787 0.45375 0.81853 0.0
C706 C 0.27586 0.49028 0.81796 0.0
C707 C 0.31126 0.52869 0.8167 0.0
C708 C 0.30182 0.56394 0.81921 0.0
C709 C 0.32804 0.59566 0.83776 0.0
C710 C 0.30823 0.58535 0.79867 0.0
C711 C 0.25615 0.53971 0.82365 0.0
C712 C 0.24131 0.49713 0.82214 0.0
C713 C 0.2011 0.46876 0.82757 0.0
C714 C 0.17592 0.48442 0.83532 0.0
C715 C 0.19146 0.52788 0.83777 0.0
C716 C 0.23147 0.55573 0.83141 0.0
H717 H 0.83481 0.33419 0.15723 0.0
H718 H 0.80694 0.42469 0.18799 0.0
H719 H 0.73387 0.36983 0.19038 0.0
H720 H 0.72778 0.26644 0.12914 0.0
H721 H 0.72878 0.2193 0.13327 0.0
H722 H 0.77669 0.26687 0.12975 0.0
H723 H 0.80782 0.26078 0.16505 0.0
H724 H 0.76031 0.21329 0.16859 0.0
H725 H 0.78005 0.25615 0.18863 0.0
H726 H 0.66833 0.30545 0.19468 0.0
H727 H 0.61536 0.23438 0.2026 0.0
H728 H 0.68411 0.18376 0.16992 0.0
C729 C 0.81292 0.34243 0.16396 0.0
C730 C 0.82635 0.38347 0.17248 0.0
C731 C 0.79727 0.39326 0.18154 0.0
C732 C 0.75557 0.36243 0.18273 0.0
C733 C 0.74338 0.32195 0.17473 0.0
C734 C 0.77109 0.31176 0.1655 0.0
C735 C 0.75114 0.26496 0.16065 0.0
C736 C 0.74578 0.25373 0.13678 0.0
C737 C 0.77632 0.24782 0.17139 0.0
C738 C 0.70922 0.25038 0.17016 0.0
C739 C 0.70489 0.28395 0.17744 0.0
C740 C 0.67076 0.27885 0.18858 0.0
C741 C 0.64089 0.23853 0.19301 0.0
C742 C 0.6456 0.20406 0.18646 0.0
C743 C 0.6795 0.20979 0.17446 0.0
H744 H 0.01319 0.5731 0.10171 0.0
H745 H 0.0065 0.45269 0.09946 0.0
H746 H 0.02352 0.45831 0.06203 0.0
H747 H 0.96334 0.55655 0.05073 0.0
H748 H 0.99451 0.61016 0.04484 0.0
H749 H 0.98436 0.5977 0.0717 0.0
H750 H 0.06386 0.63725 0.08126 0.0
H751 H 0.0743 0.6497 0.0544 0.0
H752 H 0.09715 0.62301 0.06692 0.0
H753 H 0.04161 0.47728 0.02516 0.0
H754 H 0.05246 0.50464 0.99018 0.0
H755 H 0.04352 0.61098 0.01593 0.0
C756 C 0.01557 0.54805 0.09335 0.0
C757 C 0.00886 0.51256 0.10341 0.0
C758 C 0.0115 0.48007 0.09194 0.0
C759 C 0.02137 0.48312 0.07077 0.0
C760 C 0.02789 0.51859 0.06131 0.0
C761 C 0.02454 0.55021 0.07213 0.0
C762 C 0.03047 0.58376 0.05796 0.0
C763 C 0.99081 0.58722 0.0562 0.0
C764 C 0.06873 0.62592 0.06559 0.0
C765 C 0.03779 0.56611 0.03745 0.0
C766 C 0.03672 0.52878 0.03981 0.0
C767 C 0.04255 0.50648 0.02311 0.0
C768 C 0.04896 0.5224 0.00335 0.0
C769 C 0.04902 0.55998 0.00043 0.0
C770 C 0.04361 0.58219 0.01776 0.0
H771 H 0.54809 0.05252 0.43138 0.0
H772 H 0.52135 0.92692 0.44123 0.0
H773 H 0.51049 0.90895 0.4028 0.0
H774 H 0.47151 0.02322 0.3889 0.0
H775 H 0.50373 0.06849 0.37505 0.0
H776 H 0.50964 0.0712 0.40325 0.0
H777 H 0.58828 0.096 0.40051 0.0
H778 H 0.58252 0.093 0.37229 0.0
H779 H 0.6039 0.06472 0.38451 0.0
H780 H 0.50249 0.90483 0.36333 0.0
H781 H 0.49489 0.91373 0.32581 0.0
H782 H 0.52678 0.04205 0.34187 0.0
C783 C 0.53996 0.02118 0.42551 0.0
C784 C 0.53569 0.99113 0.43934 0.0
C785 C 0.52473 0.95044 0.43096 0.0
C786 C 0.51866 0.94 0.40916 0.0
C787 C 0.52353 0.97055 0.39599 0.0
C788 C 0.53367 0.01023 0.40386 0.0
C789 C 0.53619 0.0371 0.38641 0.0
C790 C 0.50331 0.05079 0.38853 0.0
C791 C 0.58036 0.07494 0.38591 0.0
C792 C 0.52605 0.00639 0.36742 0.0
C793 C 0.51887 0.96819 0.37329 0.0
C794 C 0.50801 0.93457 0.35856 0.0
C795 C 0.50367 0.93989 0.33732 0.0
C796 C 0.51021 0.97854 0.33097 0.0
C797 C 0.52211 0.01233 0.34624 0.0
H798 H 0.49484 0.46624 0.76532 0.0
H799 H 0.55999 0.59868 0.78425 0.0
H800 H 0.567 0.6141 0.74677 0.0
H801 H 0.55723 0.47199 0.72283 0.0
H802 H 0.51505 0.43142 0.70611 0.0
H803 H 0.51253 0.43102 0.73424 0.0
H804 H 0.44181 0.42956 0.73195 0.0
H805 H 0.44392 0.42956 0.70377 0.0
H806 H 0.43801 0.46913 0.71869 0.0
H807 H 0.57149 0.61441 0.70739 0.0
H808 H 0.57119 0.6003 0.66916 0.0
H809 H 0.49973 0.46705 0.67605 0.0
C810 C 0.5098 0.4984 0.76145 0.0
C811 C 0.52644 0.53143 0.77736 0.0
C812 C 0.5467 0.57319 0.77205 0.0
C813 C 0.55085 0.58212 0.75089 0.0
C814 C 0.53452 0.54881 0.73543 0.0
C815 C 0.51418 0.50778 0.74046 0.0
C816 C 0.50107 0.47776 0.72097 0.0
C817 C 0.52277 0.45151 0.72105 0.0
C818 C 0.45336 0.44987 0.71872 0.0
C819 C 0.51717 0.50824 0.70416 0.0
C820 C 0.53655 0.54904 0.7128 0.0
C821 C 0.55573 0.58257 0.70042 0.0
C822 C 0.55506 0.57416 0.67864 0.0
C823 C 0.53502 0.53249 0.66936 0.0
C824 C 0.51561 0.49927 0.68246 0.0
H825 H 0.51843 0.95294 0.56519 0.0
H826 H 0.62033 0.07396 0.55233 0.0
H827 H 0.62931 0.09743 0.59016 0.0
H828 H 0.47399 0.98763 0.60426 0.0
H829 H 0.46082 0.94525 0.62054 0.0
H830 H 0.46381 0.93761 0.59263 0.0
H831 H 0.51765 0.91361 0.59908 0.0
H832 H 0.51467 0.92101 0.62704 0.0
H833 H 0.56442 0.94703 0.61527 0.0
H834 H 0.6241 0.10856 0.62901 0.0
H835 H 0.60734 0.10598 0.66641 0.0
H836 H 0.51004 0.97665 0.65404 0.0
C837 C 0.54293 0.98424 0.57039 0.0
C838 C 0.56801 0.01228 0.55582 0.0
C839 C 0.59973 0.05285 0.56317 0.0
C840 C 0.60541 0.06611 0.58464 0.0
C841 C 0.57936 0.03809 0.59854 0.0
C842 C 0.54904 0.99784 0.59175 0.0
C843 C 0.52457 0.97416 0.60985 0.0
C844 C 0.47805 0.96037 0.60662 0.0
C845 C 0.53071 0.93674 0.61299 0.0
C846 C 0.54531 0.00764 0.62782 0.0
C847 C 0.57694 0.04423 0.62098 0.0
C848 C 0.59961 0.08001 0.63458 0.0
C849 C 0.58967 0.07834 0.65573 0.0
C850 C 0.55738 0.04115 0.66306 0.0
C851 C 0.53518 0.00534 0.6489 0.0
H852 H 0.51958 0.57494 0.90122 0.0
H853 H 0.47998 0.44482 0.88471 0.0
H854 H 0.4676 0.43025 0.92202 0.0
H855 H 0.57551 0.58089 0.95015 0.0
H856 H 0.56295 0.61704 0.96376 0.0
H857 H 0.5677 0.61688 0.93571 0.0
H858 H 0.49324 0.6061 0.93076 0.0
H859 H 0.48816 0.60598 0.95877 0.0
H860 H 0.45007 0.56249 0.94163 0.0
H861 H 0.45775 0.42956 0.96068 0.0
H862 H 0.45643 0.44389 -0.00096 0.0
H863 H 0.50588 0.57504 0.99083 0.0
C864 C 0.50824 0.54345 0.90557 0.0
C865 C 0.50034 0.51081 0.8903 0.0
C866 C 0.48622 0.47009 0.89636 0.0
C867 C 0.47899 0.46156 0.91743 0.0
C868 C 0.48696 0.49436 0.93219 0.0
C869 C 0.50197 0.53464 0.92662 0.0
C870 C 0.51002 0.56456 0.94574 0.0
C871 C 0.55682 0.59674 0.94903 0.0
C872 C 0.48379 0.58603 0.94412 0.0
C873 C 0.49561 0.53454 0.9628 0.0
C874 C 0.48257 0.49421 0.95463 0.0
C875 C 0.46803 0.46099 0.96729 0.0
C876 C 0.46727 0.4693 0.98894 0.0
C877 C 0.48085 0.51036 0.99755 0.0
C878 C 0.49508 0.54336 0.98439 0.0
H879 H 0.03242 0.56714 0.23257 0.0
H880 H 0.96861 0.43354 0.2154 0.0
H881 H 0.96617 0.42043 0.25272 0.0
H882 H 0.09506 0.56761 0.27654 0.0
H883 H 0.09017 0.60673 0.2925 0.0
H884 H 0.08772 0.60613 0.26428 0.0
H885 H 0.01591 0.60231 0.26533 0.0
H886 H 0.0181 0.60282 0.29355 0.0
H887 H 0.97414 0.56112 0.27825 0.0
H888 H 0.9711 0.42111 0.29144 0.0
H889 H 0.98237 0.43579 0.32983 0.0
H890 H 0.03983 0.56862 0.3225 0.0
C891 C 0.0182 0.53518 0.23668 0.0
C892 C 0.00082 0.50142 0.22104 0.0
C893 C 0.98209 0.45998 0.22707 0.0
C894 C 0.98055 0.45213 0.24824 0.0
C895 C 0.99765 0.48598 0.26324 0.0
C896 C 0.01602 0.52667 0.25783 0.0
C897 C 0.03133 0.55719 0.27722 0.0
C898 C 0.0789 0.58611 0.27765 0.0
C899 C 0.0085 0.58233 0.27867 0.0
C900 C 0.01893 0.5272 0.29428 0.0
C901 C 0.99961 0.48631 0.28582 0.0
C902 C 0.98588 0.45298 0.29832 0.0
C903 C 0.99214 0.46166 0.32013 0.0
C904 C 0.01169 0.50335 0.32926 0.0
C905 C 0.02512 0.53645 0.31605 0.0
loop_
_geom_bond_atom_site_label_1
_geom_bond_atom_site_label_2
_geom_bond_distance
_geom_bond_site_symmetry_2
_ccdc_geom_bond_type
Zn0 O6 1.969 . S
Zn0 O7 1.965 . S
Zn0 O11 2.024 . S
Zn0 O16 1.969 . S
Zn1 O8 1.969 . S
Zn1 O14 1.969 . S
Zn1 O15 1.965 . S
Zn1 O17 2.024 . S
C2 O3 1.229 . S
C2 O11 1.058 . S
O3 C2 1.229 . S
C4 O5 1.229 . S
C4 O17 1.058 . S
O5 C4 1.229 . S
O6 Zn0 1.969 . S
O6 C9 1.267 . S
O7 Zn0 1.965 . S
O7 C18 1.260 1_455 S
O8 Zn1 1.969 . S
O8 C18 1.258 . S
C9 O6 1.267 . S
C9 O10 1.228 . S
O10 C9 1.228 . S
O11 Zn0 2.024 . S
O11 C2 1.058 . S
C12 O13 1.228 . S
C12 O14 1.267 . S
O13 C12 1.228 . S
O14 Zn1 1.969 . S
O14 C12 1.267 . S
O15 Zn1 1.965 . S
O15 C19 1.260 1_655 S
O16 Zn0 1.969 . S
O16 C19 1.258 . S
O17 Zn1 2.024 . S
O17 C4 1.058 . S
C18 O7 1.260 1_655 S
C18 O8 1.258 . S
C19 O15 1.260 1_455 S
C19 O16 1.258 . S
Zn20 O26 1.969 . S
Zn20 O27 1.965 . S
Zn20 O31 2.024 . S
Zn20 O36 1.969 . S
Zn21 O28 1.969 . S
Zn21 O34 1.969 . S
Zn21 O35 1.965 . S
Zn21 O37 2.024 . S
C22 O23 1.229 . S
C22 O31 1.058 . S
O23 C22 1.229 . S
C24 O25 1.229 . S
C24 O37 1.058 . S
O25 C24 1.229 . S
O26 Zn20 1.969 . S
O26 C29 1.267 . S
O27 Zn20 1.965 . S
O27 C38 1.260 . S
O28 Zn21 1.969 . S
O28 C38 1.258 1_565 S
C29 O26 1.267 . S
C29 O30 1.228 . S
O30 C29 1.228 . S
O31 Zn20 2.024 . S
O31 C22 1.058 . S
C32 O33 1.228 . S
C32 O34 1.267 . S
O33 C32 1.228 . S
O34 Zn21 1.969 . S
O34 C32 1.267 . S
O35 Zn21 1.965 . S
O35 C39 1.260 1_565 S
O36 Zn20 1.969 . S
O36 C39 1.258 . S
O37 Zn21 2.024 . S
O37 C24 1.058 . S
C38 O27 1.260 . S
C38 O28 1.258 1_545 S
C39 O35 1.260 1_545 S
C39 O36 1.258 . S
Zn40 O46 1.969 . S
Zn40 O47 1.965 . S
Zn40 O51 2.024 . S
Zn40 O56 1.969 . S
Zn41 O48 1.969 . S
Zn41 O54 1.969 . S
Zn41 O55 1.965 . S
Zn41 O57 2.024 . S
C42 O43 1.229 . S
C42 O51 1.058 . S
O43 C42 1.229 . S
C44 O45 1.229 . S
C44 O57 1.058 . S
O45 C44 1.229 . S
O46 Zn40 1.969 . S
O46 C49 1.267 . S
O47 Zn40 1.965 . S
O47 C58 1.260 . S
O48 Zn41 1.969 . S
O48 C58 1.258 . S
C49 O46 1.267 . S
C49 O50 1.228 . S
O50 C49 1.228 . S
O51 Zn40 2.024 . S
O51 C42 1.058 . S
C52 O53 1.228 . S
C52 O54 1.267 . S
O53 C52 1.228 . S
O54 Zn41 1.969 . S
O54 C52 1.267 . S
O55 Zn41 1.965 . S
O55 C59 1.260 . S
O56 Zn40 1.969 . S
O56 C59 1.258 . S
O57 Zn41 2.024 . S
O57 C44 1.058 . S
C58 O47 1.260 . S
C58 O48 1.258 . S
C59 O55 1.260 . S
C59 O56 1.258 . S
C60 C61 1.391 . S
C60 C64 1.391 . S
C60 H102 0.948 . S
C61 C60 1.391 . S
C61 C62 1.391 . S
C62 C61 1.391 . S
C62 H118 0.947 . S
C62 C119 1.392 . S
C63 C64 1.391 . S
C63 C67 1.397 . S
C63 C119 1.419 . S
C64 C60 1.391 . S
C64 C63 1.391 . S
C64 C65 1.399 . S
C65 C64 1.399 . S
C65 C68 1.396 . S
C65 C77 1.453 . S
C65 C78 1.684 . S
H66 C90 0.948 . S
C67 C63 1.397 . S
C67 C68 1.394 . S
C67 C86 1.723 . S
C68 C65 1.396 . S
C68 C67 1.394 . S
C68 C98 1.726 . S
H69 C92 0.947 . S
H70 C93 0.948 . S
H71 C99 0.982 . S
H72 C100 0.979 . S
H73 C100 0.980 . S
H74 C100 0.983 . S
H75 C99 0.979 . S
H76 C99 0.977 . S
C77 C65 1.453 . S
C77 H106 0.982 . S
C77 H107 0.979 . S
C77 H108 0.977 . S
C78 C65 1.684 . S
C78 H103 0.979 . S
C78 H104 0.980 . S
C78 H105 0.983 . S
C79 C80 1.391 . S
C79 C84 1.391 . S
C79 H109 0.948 . S
C80 C79 1.391 . S
C80 C81 1.391 1_545 S
C81 C80 1.391 1_565 S
C81 C82 1.392 . S
C81 H110 0.947 . S
C82 C81 1.392 . S
C82 C83 1.419 1_565 S
C82 H111 0.948 . S
C83 C82 1.419 1_545 S
C83 C84 1.391 . S
C83 C87 1.397 . S
C84 C79 1.391 . S
C84 C83 1.391 . S
C84 C85 1.399 . S
C85 C84 1.399 . S
C85 C86 1.396 . S
C85 C88 1.453 . S
C85 C89 1.684 . S
C86 C67 1.723 . S
C86 C85 1.396 . S
C86 C87 1.394 . S
C87 C83 1.397 . S
C87 C86 1.394 . S
C87 C97 1.723 1_545 S
C88 C85 1.453 . S
C88 H112 0.982 . S
C88 H113 0.979 . S
C88 H114 0.977 . S
C89 C85 1.684 . S
C89 H115 0.979 . S
C89 H116 0.980 . S
C89 H117 0.983 . S
C90 H66 0.948 . S
C90 C91 1.391 . S
C90 C95 1.391 . S
C91 C90 1.391 . S
C91 C92 1.391 . S
C92 H69 0.947 . S
C92 C91 1.391 . S
C92 C93 1.392 . S
C93 H70 0.948 . S
C93 C92 1.392 . S
C93 C94 1.419 . S
C94 C93 1.419 . S
C94 C95 1.391 . S
C94 C98 1.395 1_565 S
C95 C90 1.391 . S
C95 C94 1.391 . S
C95 C96 1.399 . S
C96 C95 1.399 . S
C96 C97 1.396 . S
C96 C99 1.453 . S
C96 C100 1.684 . S
C97 C87 1.723 1_565 S
C97 C96 1.396 . S
C97 C98 1.392 1_565 S
C98 C68 1.726 . S
C98 C94 1.395 1_545 S
C98 C97 1.392 1_545 S
C99 H71 0.982 . S
C99 H75 0.979 . S
C99 H76 0.977 . S
C99 C96 1.453 . S
C100 H72 0.979 . S
C100 H73 0.980 . S
C100 H74 0.983 . S
C100 C96 1.684 . S
H101 C119 0.948 . S
H102 C60 0.948 . S
H103 C78 0.979 . S
H104 C78 0.980 . S
H105 C78 0.983 . S
H106 C77 0.982 . S
H107 C77 0.979 . S
H108 C77 0.977 . S
H109 C79 0.948 . S
H110 C81 0.947 . S
H111 C82 0.948 . S
H112 C88 0.982 . S
H113 C88 0.979 . S
H114 C88 0.977 . S
H115 C89 0.979 . S
H116 C89 0.980 . S
H117 C89 0.983 . S
H118 C62 0.947 . S
C119 C62 1.392 . S
C119 C63 1.419 . S
C119 H101 0.948 . S
C120 C121 1.391 . S
C120 C124 1.391 . S
C120 H162 0.948 . S
C121 C120 1.391 . S
C121 C122 1.391 . S
C122 C121 1.391 . S
C122 H178 0.947 . S
C122 C179 1.392 . S
C123 C124 1.391 . S
C123 C127 1.397 . S
C123 C179 1.419 . S
C124 C120 1.391 . S
C124 C123 1.391 . S
C124 C125 1.399 . S
C125 C124 1.399 . S
C125 C128 1.396 . S
C125 C137 1.453 . S
C125 C138 1.684 . S
H126 C150 0.948 . S
C127 C123 1.397 . S
C127 C128 1.394 . S
C127 C146 1.723 . S
C128 C125 1.396 . S
C128 C127 1.394 . S
C128 C158 1.723 . S
H129 C152 0.947 . S
H130 C153 0.948 . S
H131 C159 0.982 . S
H132 C160 0.979 . S
H133 C160 0.980 . S
H134 C160 0.983 . S
H135 C159 0.979 . S
H136 C159 0.977 . S
C137 C125 1.453 . S
C137 H166 0.982 . S
C137 H167 0.979 . S
C137 H168 0.977 . S
C138 C125 1.684 . S
C138 H163 0.979 . S
C138 H164 0.980 . S
C138 H165 0.983 . S
C139 C140 1.391 . S
C139 C144 1.391 . S
C139 H169 0.948 . S
C140 C139 1.391 . S
C140 C141 1.391 . S
C141 C140 1.391 . S
C141 C142 1.392 . S
C141 H170 0.947 . S
C142 C141 1.392 . S
C142 C143 1.419 . S
C142 H171 0.948 . S
C143 C142 1.419 . S
C143 C144 1.391 . S
C143 C147 1.397 . S
C144 C139 1.391 . S
C144 C143 1.391 . S
C144 C145 1.399 . S
C145 C144 1.399 . S
C145 C146 1.396 . S
C145 C148 1.453 . S
C145 C149 1.684 . S
C146 C127 1.723 . S
C146 C145 1.396 . S
C146 C147 1.394 . S
C147 C143 1.397 . S
C147 C146 1.394 . S
C147 C157 1.723 . S
C148 C145 1.453 . S
C148 H172 0.982 . S
C148 H173 0.979 . S
C148 H174 0.977 . S
C149 C145 1.684 . S
C149 H175 0.979 . S
C149 H176 0.980 . S
C149 H177 0.983 . S
C150 H126 0.948 . S
C150 C151 1.391 . S
C150 C155 1.391 . S
C151 C150 1.391 . S
C151 C152 1.391 . S
C152 H129 0.947 . S
C152 C151 1.391 . S
C152 C153 1.392 . S
C153 H130 0.948 . S
C153 C152 1.392 . S
C153 C154 1.419 . S
C154 C153 1.419 . S
C154 C155 1.391 . S
C154 C158 1.397 . S
C155 C150 1.391 . S
C155 C154 1.391 . S
C155 C156 1.399 . S
C156 C155 1.399 . S
C156 C157 1.396 . S
C156 C159 1.453 . S
C156 C160 1.684 . S
C157 C147 1.723 . S
C157 C156 1.396 . S
C157 C158 1.394 . S
C158 C128 1.723 . S
C158 C154 1.397 . S
C158 C157 1.394 . S
C159 H131 0.982 . S
C159 H135 0.979 . S
C159 H136 0.977 . S
C159 C156 1.453 . S
C160 H132 0.979 . S
C160 H133 0.980 . S
C160 H134 0.983 . S
C160 C156 1.684 . S
H161 C179 0.948 . S
H162 C120 0.948 . S
H163 C138 0.979 . S
H164 C138 0.980 . S
H165 C138 0.983 . S
H166 C137 0.982 . S
H167 C137 0.979 . S
H168 C137 0.977 . S
H169 C139 0.948 . S
H170 C141 0.947 . S
H171 C142 0.948 . S
H172 C148 0.982 . S
H173 C148 0.979 . S
H174 C148 0.977 . S
H175 C149 0.979 . S
H176 C149 0.980 . S
H177 C149 0.983 . S
H178 C122 0.947 . S
C179 C122 1.392 . S
C179 C123 1.419 . S
C179 H161 0.948 . S
C180 C181 1.391 . S
C180 C184 1.391 . S
C180 H222 0.948 . S
C181 C180 1.391 . S
C181 C182 1.391 . S
C182 C181 1.391 . S
C182 H238 0.947 . S
C182 C239 1.392 . S
C183 C184 1.391 . S
C183 C187 1.397 . S
C183 C239 1.419 . S
C184 C180 1.391 . S
C184 C183 1.391 . S
C184 C185 1.399 . S
C185 C184 1.399 . S
C185 C188 1.396 . S
C185 C197 1.453 . S
C185 C198 1.684 . S
H186 C210 0.948 . S
C187 C183 1.397 . S
C187 C188 1.394 . S
C187 C206 1.723 . S
C188 C185 1.396 . S
C188 C187 1.394 . S
C188 C218 1.723 . S
H189 C212 0.947 . S
H190 C213 0.948 . S
H191 C219 0.982 . S
H192 C220 0.979 . S
H193 C220 0.980 . S
H194 C220 0.983 . S
H195 C219 0.979 . S
H196 C219 0.977 . S
C197 C185 1.453 . S
C197 H226 0.982 . S
C197 H227 0.979 . S
C197 H228 0.977 . S
C198 C185 1.684 . S
C198 H223 0.979 . S
C198 H224 0.980 . S
C198 H225 0.983 . S
C199 C200 1.391 . S
C199 C204 1.391 . S
C199 H229 0.948 . S
C200 C199 1.391 . S
C200 C201 1.391 1_455 S
C201 C200 1.391 1_655 S
C201 C202 1.392 . S
C201 H230 0.947 . S
C202 C201 1.392 . S
C202 C203 1.419 1_655 S
C202 H231 0.948 . S
C203 C202 1.419 1_455 S
C203 C204 1.391 . S
C203 C207 1.397 . S
C204 C199 1.391 . S
C204 C203 1.391 . S
C204 C205 1.399 . S
C205 C204 1.399 . S
C205 C206 1.396 . S
C205 C208 1.453 . S
C205 C209 1.684 . S
C206 C187 1.723 . S
C206 C205 1.396 . S
C206 C207 1.394 . S
C207 C203 1.397 . S
C207 C206 1.394 . S
C207 C217 1.723 1_455 S
C208 C205 1.453 . S
C208 H232 0.982 . S
C208 H233 0.979 . S
C208 H234 0.977 . S
C209 C205 1.684 . S
C209 H235 0.979 . S
C209 H236 0.980 . S
C209 H237 0.983 . S
C210 H186 0.948 . S
C210 C211 1.391 . S
C210 C215 1.391 . S
C211 C210 1.391 . S
C211 C212 1.391 . S
C212 H189 0.947 . S
C212 C211 1.391 . S
C212 C213 1.392 . S
C213 H190 0.948 . S
C213 C212 1.392 . S
C213 C214 1.419 . S
C214 C213 1.419 . S
C214 C215 1.391 . S
C214 C218 1.397 1_655 S
C215 C210 1.391 . S
C215 C214 1.391 . S
C215 C216 1.399 . S
C216 C215 1.399 . S
C216 C217 1.396 . S
C216 C219 1.453 . S
C216 C220 1.684 . S
C217 C207 1.723 1_655 S
C217 C216 1.396 . S
C217 C218 1.394 1_655 S
C218 C188 1.723 . S
C218 C214 1.397 1_455 S
C218 C217 1.394 1_455 S
C219 H191 0.982 . S
C219 H195 0.979 . S
C219 H196 0.977 . S
C219 C216 1.453 . S
C220 H192 0.979 . S
C220 H193 0.980 . S
C220 H194 0.983 . S
C220 C216 1.684 . S
H221 C239 0.948 . S
H222 C180 0.948 . S
H223 C198 0.979 . S
H224 C198 0.980 . S
H225 C198 0.983 . S
H226 C197 0.982 . S
H227 C197 0.979 . S
H228 C197 0.977 . S
H229 C199 0.948 . S
H230 C201 0.947 . S
H231 C202 0.948 . S
H232 C208 0.982 . S
H233 C208 0.979 . S
H234 C208 0.977 . S
H235 C209 0.979 . S
H236 C209 0.980 . S
H237 C209 0.983 . S
H238 C182 0.947 . S
C239 C182 1.392 . S
C239 C183 1.419 . S
C239 H221 0.948 . S
C240 C241 1.391 . S
C240 C244 1.391 . S
C240 H282 0.948 . S
C241 C240 1.391 . S
C241 C242 1.391 . S
C242 C241 1.391 . S
C242 H298 0.947 . S
C242 C299 1.392 . S
C243 C244 1.391 . S
C243 C247 1.397 . S
C243 C299 1.419 . S
C244 C240 1.391 . S
C244 C243 1.391 . S
C244 C245 1.399 . S
C245 C244 1.399 . S
C245 C248 1.396 1_655 S
C245 C257 1.453 1_655 S
C245 C258 1.684 . S
H246 C270 0.948 . S
C247 C243 1.397 . S
C247 C248 1.394 1_655 S
C247 C266 1.723 . S
C248 C245 1.396 1_455 S
C248 C247 1.394 1_455 S
C248 C278 1.723 . S
H249 C272 0.947 . S
H250 C273 0.948 . S
H251 C279 0.982 . S
H252 C280 0.979 . S
H253 C280 0.980 . S
H254 C280 0.983 . S
H255 C279 0.979 . S
H256 C279 0.977 . S
C257 C245 1.453 1_455 S
C257 H286 0.982 . S
C257 H287 0.979 . S
C257 H288 0.977 . S
C258 C245 1.684 . S
C258 H283 0.979 . S
C258 H284 0.980 1_655 S
C258 H285 0.983 . S
C259 C260 1.391 1_655 S
C259 C264 1.391 . S
C259 H289 0.948 . S
C260 C259 1.391 1_455 S
C260 C261 1.391 . S
C261 C260 1.391 . S
C261 C262 1.392 . S
C261 H290 0.947 . S
C262 C261 1.392 . S
C262 C263 1.419 . S
C262 H291 0.948 . S
C263 C262 1.419 . S
C263 C264 1.391 1_455 S
C263 C267 1.397 . S
C264 C259 1.391 . S
C264 C263 1.391 1_655 S
C264 C265 1.399 . S
C265 C264 1.399 . S
C265 C266 1.396 . S
C265 C268 1.453 . S
C265 C269 1.684 . S
C266 C247 1.723 . S
C266 C265 1.396 . S
C266 C267 1.394 1_655 S
C267 C263 1.397 . S
C267 C266 1.394 1_455 S
C267 C277 1.723 . S
C268 C265 1.453 . S
C268 H292 0.982 . S
C268 H293 0.979 . S
C268 H294 0.977 . S
C269 C265 1.684 . S
C269 H295 0.979 . S
C269 H296 0.980 . S
C269 H297 0.983 . S
C270 H246 0.948 . S
C270 C271 1.391 . S
C270 C275 1.391 . S
C271 C270 1.391 . S
C271 C272 1.391 . S
C272 H249 0.947 . S
C272 C271 1.391 . S
C272 C273 1.392 . S
C273 H250 0.948 . S
C273 C272 1.392 . S
C273 C274 1.419 . S
C274 C273 1.419 . S
C274 C275 1.391 . S
C274 C278 1.397 . S
C275 C270 1.391 . S
C275 C274 1.391 . S
C275 C276 1.399 . S
C276 C275 1.399 . S
C276 C277 1.396 . S
C276 C279 1.453 . S
C276 C280 1.684 . S
C277 C267 1.723 . S
C277 C276 1.396 . S
C277 C278 1.394 . S
C278 C248 1.723 . S
C278 C274 1.397 . S
C278 C277 1.394 . S
C279 H251 0.982 . S
C279 H255 0.979 . S
C279 H256 0.977 . S
C279 C276 1.453 . S
C280 H252 0.979 . S
C280 H253 0.980 . S
C280 H254 0.983 . S
C280 C276 1.684 . S
H281 C299 0.948 . S
H282 C240 0.948 . S
H283 C258 0.979 . S
H284 C258 0.980 1_455 S
H285 C258 0.983 . S
H286 C257 0.982 . S
H287 C257 0.979 . S
H288 C257 0.977 . S
H289 C259 0.948 . S
H290 C261 0.947 . S
H291 C262 0.948 . S
H292 C268 0.982 . S
H293 C268 0.979 . S
H294 C268 0.977 . S
H295 C269 0.979 . S
H296 C269 0.980 . S
H297 C269 0.983 . S
H298 C242 0.947 . S
C299 C242 1.392 . S
C299 C243 1.419 . S
C299 H281 0.948 . S
C300 C301 1.391 . S
C300 C304 1.391 . S
C300 H342 0.948 . S
C301 C300 1.391 . S
C301 C302 1.391 . S
C302 C301 1.391 . S
C302 H358 0.947 . S
C302 C359 1.392 . S
C303 C304 1.391 . S
C303 C307 1.397 . S
C303 C359 1.419 . S
C304 C300 1.391 . S
C304 C303 1.391 . S
C304 C305 1.399 . S
C305 C304 1.399 . S
C305 C308 1.396 1_565 S
C305 C317 1.453 1_565 S
C305 C318 1.684 . S
H306 C330 0.948 . S
C307 C303 1.397 . S
C307 C308 1.394 1_565 S
C307 C326 1.723 . S
C308 C305 1.396 1_545 S
C308 C307 1.394 1_545 S
C308 C338 1.723 . S
H309 C332 0.947 . S
H310 C333 0.948 . S
H311 C339 0.982 . S
H312 C340 0.979 . S
H313 C340 0.980 . S
H314 C340 0.983 . S
H315 C339 0.979 . S
H316 C339 0.977 . S
C317 C305 1.453 1_545 S
C317 H346 0.982 . S
C317 H347 0.979 . S
C317 H348 0.977 . S
C318 C305 1.684 . S
C318 H343 0.979 . S
C318 H344 0.980 1_565 S
C318 H345 0.983 . S
C319 C320 1.391 1_565 S
C319 C324 1.391 . S
C319 H349 0.948 . S
C320 C319 1.391 1_545 S
C320 C321 1.391 . S
C321 C320 1.391 . S
C321 C322 1.392 . S
C321 H350 0.947 . S
C322 C321 1.392 . S
C322 C323 1.419 . S
C322 H351 0.948 . S
C323 C322 1.419 . S
C323 C324 1.391 1_545 S
C323 C327 1.397 . S
C324 C319 1.391 . S
C324 C323 1.391 1_565 S
C324 C325 1.399 . S
C325 C324 1.399 . S
C325 C326 1.396 . S
C325 C328 1.453 . S
C325 C329 1.684 . S
C326 C307 1.723 . S
C326 C325 1.396 . S
C326 C327 1.394 1_565 S
C327 C323 1.397 . S
C327 C326 1.394 1_545 S
C327 C337 1.723 . S
C328 C325 1.453 . S
C328 H352 0.982 . S
C328 H353 0.979 . S
C328 H354 0.977 . S
C329 C325 1.684 . S
C329 H355 0.979 . S
C329 H356 0.980 . S
C329 H357 0.983 . S
C330 H306 0.948 . S
C330 C331 1.391 . S
C330 C335 1.391 . S
C331 C330 1.391 . S
C331 C332 1.391 . S
C332 H309 0.947 . S
C332 C331 1.391 . S
C332 C333 1.392 . S
C333 H310 0.948 . S
C333 C332 1.392 . S
C333 C334 1.419 . S
C334 C333 1.419 . S
C334 C335 1.391 . S
C334 C338 1.397 . S
C335 C330 1.391 . S
C335 C334 1.391 . S
C335 C336 1.399 . S
C336 C335 1.399 . S
C336 C337 1.396 . S
C336 C339 1.453 . S
C336 C340 1.684 . S
C337 C327 1.723 . S
C337 C336 1.396 . S
C337 C338 1.394 . S
C338 C308 1.723 . S
C338 C334 1.397 . S
C338 C337 1.394 . S
C339 H311 0.982 . S
C339 H315 0.979 . S
C339 H316 0.977 . S
C339 C336 1.453 . S
C340 H312 0.979 . S
C340 H313 0.980 . S
C340 H314 0.983 . S
C340 C336 1.684 . S
H341 C359 0.948 . S
H342 C300 0.948 . S
H343 C318 0.979 . S
H344 C318 0.980 1_545 S
H345 C318 0.983 . S
H346 C317 0.982 . S
H347 C317 0.979 . S
H348 C317 0.977 . S
H349 C319 0.948 . S
H350 C321 0.947 . S
H351 C322 0.948 . S
H352 C328 0.982 . S
H353 C328 0.979 . S
H354 C328 0.977 . S
H355 C329 0.979 . S
H356 C329 0.980 . S
H357 C329 0.983 . S
H358 C302 0.947 . S
C359 C302 1.392 . S
C359 C303 1.419 . S
C359 H341 0.948 . S
C360 C361 1.391 . S
C360 C364 1.391 . S
C360 H402 0.948 . S
C361 C360 1.391 . S
C361 C362 1.391 . S
C362 C361 1.391 . S
C362 H418 0.947 . S
C362 C419 1.392 . S
C363 C364 1.391 . S
C363 C367 1.397 . S
C363 C419 1.419 . S
C364 C360 1.391 . S
C364 C363 1.391 . S
C364 C365 1.399 . S
C365 C364 1.399 . S
C365 C368 1.396 . S
C365 C377 1.453 . S
C365 C378 1.684 . S
H366 C390 0.948 . S
C367 C363 1.397 . S
C367 C368 1.394 . S
C367 C386 1.723 . S
C368 C365 1.396 . S
C368 C367 1.394 . S
C368 C398 1.723 . S
H369 C392 0.947 . S
H370 C393 0.948 . S
H371 C399 0.982 . S
H372 C400 0.979 . S
H373 C400 0.980 . S
H374 C400 0.983 . S
H375 C399 0.979 . S
H376 C399 0.977 . S
C377 C365 1.453 . S
C377 H406 0.982 . S
C377 H407 0.979 . S
C377 H408 0.977 . S
C378 C365 1.684 . S
C378 H403 0.979 . S
C378 H404 0.980 . S
C378 H405 0.983 . S
C379 C380 1.391 . S
C379 C384 1.391 . S
C379 H409 0.948 . S
C380 C379 1.391 . S
C380 C381 1.391 . S
C381 C380 1.391 . S
C381 C382 1.392 . S
C381 H410 0.947 . S
C382 C381 1.392 . S
C382 C383 1.419 . S
C382 H411 0.948 . S
C383 C382 1.419 . S
C383 C384 1.391 . S
C383 C387 1.397 . S
C384 C379 1.391 . S
C384 C383 1.391 . S
C384 C385 1.399 . S
C385 C384 1.399 . S
C385 C386 1.396 . S
C385 C388 1.453 . S
C385 C389 1.684 . S
C386 C367 1.723 . S
C386 C385 1.396 . S
C386 C387 1.394 . S
C387 C383 1.397 . S
C387 C386 1.394 . S
C387 C397 1.723 . S
C388 C385 1.453 . S
C388 H412 0.982 . S
C388 H413 0.979 . S
C388 H414 0.977 . S
C389 C385 1.684 . S
C389 H415 0.979 . S
C389 H416 0.980 . S
C389 H417 0.983 . S
C390 H366 0.948 . S
C390 C391 1.391 . S
C390 C395 1.391 . S
C391 C390 1.391 . S
C391 C392 1.391 . S
C392 H369 0.947 . S
C392 C391 1.391 . S
C392 C393 1.392 . S
C393 H370 0.948 . S
C393 C392 1.392 . S
C393 C394 1.419 . S
C394 C393 1.419 . S
C394 C395 1.391 . S
C394 C398 1.397 . S
C395 C390 1.391 . S
C395 C394 1.391 . S
C395 C396 1.399 . S
C396 C395 1.399 . S
C396 C397 1.396 . S
C396 C399 1.453 . S
C396 C400 1.684 . S
C397 C387 1.723 . S
C397 C396 1.396 . S
C397 C398 1.394 . S
C398 C368 1.723 . S
C398 C394 1.397 . S
C398 C397 1.394 . S
C399 H371 0.982 . S
C399 H375 0.979 . S
C399 H376 0.977 . S
C399 C396 1.453 . S
C400 H372 0.979 . S
C400 H373 0.980 . S
C400 H374 0.983 . S
C400 C396 1.684 . S
H401 C419 0.948 . S
H402 C360 0.948 . S
H403 C378 0.979 . S
H404 C378 0.980 . S
H405 C378 0.983 . S
H406 C377 0.982 . S
H407 C377 0.979 . S
H408 C377 0.977 . S
H409 C379 0.948 . S
H410 C381 0.947 . S
H411 C382 0.948 . S
H412 C388 0.982 . S
H413 C388 0.979 . S
H414 C388 0.977 . S
H415 C389 0.979 . S
H416 C389 0.980 . S
H417 C389 0.983 . S
H418 C362 0.947 . S
C419 C362 1.392 . S
C419 C363 1.419 . S
C419 H401 0.948 . S
H420 C432 0.930 . S
H421 C434 0.930 . S
H422 C435 0.930 . S
H423 C439 0.959 . S
H424 C439 0.959 . S
H425 C439 0.961 . S
H426 C440 0.960 . S
H427 C440 0.961 . S
H428 C440 0.959 . S
H429 C443 0.929 . S
H430 C444 0.931 . S
H431 C446 0.930 . S
C432 H420 0.930 . S
C432 C433 1.399 . S
C432 C437 1.399 . S
C433 C432 1.399 . S
C433 C434 1.376 . S
C434 H421 0.930 . S
C434 C433 1.376 . S
C434 C435 1.388 . S
C435 H422 0.930 . S
C435 C434 1.388 . S
C435 C436 1.390 . S
C436 C435 1.390 . S
C436 C437 1.394 . S
C436 C442 1.465 . S
C437 C432 1.399 . S
C437 C436 1.394 . S
C437 C438 1.516 . S
C438 C437 1.516 . S
C438 C439 1.502 . S
C438 C440 1.561 . S
C438 C441 1.526 . S
C439 H423 0.959 . S
C439 H424 0.959 . S
C439 H425 0.961 . S
C439 C438 1.502 . S
C440 H426 0.960 . S
C440 H427 0.961 . S
C440 H428 0.959 . S
C440 C438 1.561 . S
C441 C438 1.526 . S
C441 C442 1.396 . S
C441 C446 1.390 . S
C442 C436 1.465 . S
C442 C441 1.396 . S
C442 C443 1.399 . S
C443 H429 0.929 . S
C443 C442 1.399 . S
C443 C444 1.385 . S
C444 H430 0.931 . S
C444 C443 1.385 . S
C444 C445 1.389 . S
C445 C444 1.389 . S
C445 C446 1.387 . S
C446 H431 0.930 . S
C446 C441 1.390 . S
C446 C445 1.387 . S
H447 C459 0.930 . S
H448 C461 0.930 . S
H449 C462 0.930 . S
H450 C466 0.959 . S
H451 C466 0.959 . S
H452 C466 0.961 . S
H453 C467 0.960 . S
H454 C467 0.961 . S
H455 C467 0.959 . S
H456 C470 0.929 . S
H457 C471 0.931 . S
H458 C473 0.930 . S
C459 H447 0.930 . S
C459 C460 1.399 . S
C459 C464 1.399 . S
C460 C459 1.399 . S
C460 C461 1.376 . S
C461 H448 0.930 . S
C461 C460 1.376 . S
C461 C462 1.388 . S
C462 H449 0.930 . S
C462 C461 1.388 . S
C462 C463 1.390 . S
C463 C462 1.390 . S
C463 C464 1.394 . S
C463 C469 1.465 . S
C464 C459 1.399 . S
C464 C463 1.394 . S
C464 C465 1.516 . S
C465 C464 1.516 . S
C465 C466 1.502 . S
C465 C467 1.561 . S
C465 C468 1.526 . S
C466 H450 0.959 . S
C466 H451 0.959 . S
C466 H452 0.961 . S
C466 C465 1.502 . S
C467 H453 0.960 . S
C467 H454 0.961 . S
C467 H455 0.959 . S
C467 C465 1.561 . S
C468 C465 1.526 . S
C468 C469 1.396 . S
C468 C473 1.390 . S
C469 C463 1.465 . S
C469 C468 1.396 . S
C469 C470 1.399 . S
C470 H456 0.929 . S
C470 C469 1.399 . S
C470 C471 1.385 . S
C471 H457 0.931 . S
C471 C470 1.385 . S
C471 C472 1.389 . S
C472 C471 1.389 . S
C472 C473 1.387 . S
C473 H458 0.930 . S
C473 C468 1.390 . S
C473 C472 1.387 . S
H474 C486 0.930 . S
H475 C488 0.930 . S
H476 C489 0.930 . S
H477 C493 0.959 . S
H478 C493 0.959 . S
H479 C493 0.961 . S
H480 C494 0.960 . S
H481 C494 0.961 . S
H482 C494 0.959 . S
H483 C497 0.929 . S
H484 C498 0.931 . S
H485 C500 0.930 . S
C486 H474 0.930 . S
C486 C487 1.399 . S
C486 C491 1.399 . S
C487 C486 1.399 . S
C487 C488 1.376 . S
C488 H475 0.930 . S
C488 C487 1.376 . S
C488 C489 1.388 . S
C489 H476 0.930 . S
C489 C488 1.388 . S
C489 C490 1.390 . S
C490 C489 1.390 . S
C490 C491 1.394 . S
C490 C496 1.465 . S
C491 C486 1.399 . S
C491 C490 1.394 . S
C491 C492 1.516 . S
C492 C491 1.516 . S
C492 C493 1.502 . S
C492 C494 1.561 . S
C492 C495 1.526 . S
C493 H477 0.959 . S
C493 H478 0.959 . S
C493 H479 0.961 . S
C493 C492 1.502 . S
C494 H480 0.960 . S
C494 H481 0.961 . S
C494 H482 0.959 . S
C494 C492 1.561 . S
C495 C492 1.526 . S
C495 C496 1.396 . S
C495 C500 1.390 . S
C496 C490 1.465 . S
C496 C495 1.396 . S
C496 C497 1.399 . S
C497 H483 0.929 . S
C497 C496 1.399 . S
C497 C498 1.385 . S
C498 H484 0.931 . S
C498 C497 1.385 . S
C498 C499 1.389 . S
C499 C498 1.389 . S
C499 C500 1.387 . S
C500 H485 0.930 . S
C500 C495 1.390 . S
C500 C499 1.387 . S
H501 C513 0.930 . S
H502 C515 0.930 . S
H503 C516 0.930 . S
H504 C520 0.959 . S
H505 C520 0.959 . S
H506 C520 0.961 . S
H507 C521 0.960 . S
H508 C521 0.961 . S
H509 C521 0.959 . S
H510 C524 0.929 . S
H511 C525 0.931 . S
H512 C527 0.930 . S
C513 H501 0.930 . S
C513 C514 1.399 . S
C513 C518 1.399 . S
C514 C513 1.399 . S
C514 C515 1.376 . S
C515 H502 0.930 . S
C515 C514 1.376 . S
C515 C516 1.388 . S
C516 H503 0.930 . S
C516 C515 1.388 . S
C516 C517 1.390 . S
C517 C516 1.390 . S
C517 C518 1.394 . S
C517 C523 1.465 . S
C518 C513 1.399 . S
C518 C517 1.394 . S
C518 C519 1.516 . S
C519 C518 1.516 . S
C519 C520 1.502 . S
C519 C521 1.561 . S
C519 C522 1.526 . S
C520 H504 0.959 . S
C520 H505 0.959 . S
C520 H506 0.961 . S
C520 C519 1.502 . S
C521 H507 0.960 . S
C521 H508 0.961 . S
C521 H509 0.959 . S
C521 C519 1.561 . S
C522 C519 1.526 . S
C522 C523 1.396 . S
C522 C527 1.390 . S
C523 C517 1.465 . S
C523 C522 1.396 . S
C523 C524 1.399 . S
C524 H510 0.929 . S
C524 C523 1.399 . S
C524 C525 1.385 . S
C525 H511 0.931 . S
C525 C524 1.385 . S
C525 C526 1.389 . S
C526 C525 1.389 . S
C526 C527 1.387 . S
C527 H512 0.930 . S
C527 C522 1.390 . S
C527 C526 1.387 . S
H528 C540 0.930 . S
H529 C542 0.930 . S
H530 C543 0.930 . S
H531 C547 0.959 . S
H532 C547 0.959 . S
H533 C547 0.961 . S
H534 C548 0.960 . S
H535 C548 0.961 . S
H536 C548 0.959 . S
H537 C551 0.929 . S
H538 C552 0.931 . S
H539 C554 0.930 . S
C540 H528 0.930 . S
C540 C541 1.399 . S
C540 C545 1.399 . S
C541 C540 1.399 . S
C541 C542 1.376 . S
C542 H529 0.930 . S
C542 C541 1.376 . S
C542 C543 1.388 . S
C543 H530 0.930 . S
C543 C542 1.388 . S
C543 C544 1.390 . S
C544 C543 1.390 . S
C544 C545 1.394 . S
C544 C550 1.465 . S
C545 C540 1.399 . S
C545 C544 1.394 . S
C545 C546 1.516 . S
C546 C545 1.516 . S
C546 C547 1.502 . S
C546 C548 1.561 . S
C546 C549 1.526 . S
C547 H531 0.959 . S
C547 H532 0.959 . S
C547 H533 0.961 . S
C547 C546 1.502 . S
C548 H534 0.960 . S
C548 H535 0.961 . S
C548 H536 0.959 . S
C548 C546 1.561 . S
C549 C546 1.526 . S
C549 C550 1.396 . S
C549 C554 1.390 . S
C550 C544 1.465 . S
C550 C549 1.396 . S
C550 C551 1.399 . S
C551 H537 0.929 . S
C551 C550 1.399 . S
C551 C552 1.385 . S
C552 H538 0.931 . S
C552 C551 1.385 . S
C552 C553 1.389 . S
C553 C552 1.389 . S
C553 C554 1.387 . S
C554 H539 0.930 . S
C554 C549 1.390 . S
C554 C553 1.387 . S
H555 C567 0.930 . S
H556 C569 0.930 . S
H557 C570 0.930 . S
H558 C574 0.959 . S
H559 C574 0.959 . S
H560 C574 0.961 . S
H561 C575 0.960 . S
H562 C575 0.961 . S
H563 C575 0.959 . S
H564 C578 0.929 . S
H565 C579 0.931 . S
H566 C581 0.930 . S
C567 H555 0.930 . S
C567 C568 1.399 . S
C567 C572 1.399 . S
C568 C567 1.399 . S
C568 C569 1.376 . S
C569 H556 0.930 . S
C569 C568 1.376 . S
C569 C570 1.388 . S
C570 H557 0.930 . S
C570 C569 1.388 . S
C570 C571 1.390 . S
C571 C570 1.390 . S
C571 C572 1.394 . S
C571 C577 1.465 . S
C572 C567 1.399 . S
C572 C571 1.394 . S
C572 C573 1.516 . S
C573 C572 1.516 . S
C573 C574 1.502 . S
C573 C575 1.561 . S
C573 C576 1.526 . S
C574 H558 0.959 . S
C574 H559 0.959 . S
C574 H560 0.961 . S
C574 C573 1.502 . S
C575 H561 0.960 . S
C575 H562 0.961 . S
C575 H563 0.959 . S
C575 C573 1.561 . S
C576 C573 1.526 . S
C576 C577 1.396 . S
C576 C581 1.390 . S
C577 C571 1.465 . S
C577 C576 1.396 . S
C577 C578 1.399 . S
C578 H564 0.929 . S
C578 C577 1.399 . S
C578 C579 1.385 . S
C579 H565 0.931 . S
C579 C578 1.385 . S
C579 C580 1.389 . S
C580 C579 1.389 . S
C580 C581 1.387 . S
C581 H566 0.930 . S
C581 C576 1.390 . S
C581 C580 1.387 . S
H582 C594 0.930 . S
H583 C596 0.930 . S
H584 C597 0.930 . S
H585 C601 0.959 . S
H586 C601 0.959 . S
H587 C601 0.961 . S
H588 C602 0.960 . S
H589 C602 0.961 . S
H590 C602 0.959 . S
H591 C605 0.929 . S
H592 C606 0.931 . S
H593 C608 0.930 . S
C594 H582 0.930 . S
C594 C595 1.399 . S
C594 C599 1.399 . S
C595 C594 1.399 . S
C595 C596 1.376 . S
C596 H583 0.930 . S
C596 C595 1.376 . S
C596 C597 1.388 . S
C597 H584 0.930 . S
C597 C596 1.388 . S
C597 C598 1.390 . S
C598 C597 1.390 . S
C598 C599 1.394 . S
C598 C604 1.465 . S
C599 C594 1.399 . S
C599 C598 1.394 . S
C599 C600 1.516 . S
C600 C599 1.516 . S
C600 C601 1.502 . S
C600 C602 1.561 . S
C600 C603 1.526 . S
C601 H585 0.959 . S
C601 H586 0.959 . S
C601 H587 0.961 . S
C601 C600 1.502 . S
C602 H588 0.960 . S
C602 H589 0.961 . S
C602 H590 0.959 . S
C602 C600 1.561 . S
C603 C600 1.526 . S
C603 C604 1.396 . S
C603 C608 1.390 . S
C604 C598 1.465 . S
C604 C603 1.396 . S
C604 C605 1.399 . S
C605 H591 0.929 . S
C605 C604 1.399 . S
C605 C606 1.385 . S
C606 H592 0.931 . S
C606 C605 1.385 . S
C606 C607 1.389 . S
C607 C606 1.389 . S
C607 C608 1.387 . S
C608 H593 0.930 . S
C608 C603 1.390 . S
C608 C607 1.387 . S
H609 C621 0.930 . S
H610 C623 0.930 . S
H611 C624 0.930 . S
H612 C628 0.959 . S
H613 C628 0.959 . S
H614 C628 0.961 . S
H615 C629 0.960 . S
H616 C629 0.961 . S
H617 C629 0.959 . S
H618 C632 0.929 . S
H619 C633 0.931 . S
H620 C635 0.930 . S
C621 H609 0.930 . S
C621 C622 1.399 . S
C621 C626 1.399 . S
C622 C621 1.399 . S
C622 C623 1.376 . S
C623 H610 0.930 . S
C623 C622 1.376 . S
C623 C624 1.388 . S
C624 H611 0.930 . S
C624 C623 1.388 . S
C624 C625 1.390 . S
C625 C624 1.390 . S
C625 C626 1.394 . S
C625 C631 1.465 . S
C626 C621 1.399 . S
C626 C625 1.394 . S
C626 C627 1.516 . S
C627 C626 1.516 . S
C627 C628 1.502 . S
C627 C629 1.561 . S
C627 C630 1.526 . S
C628 H612 0.959 . S
C628 H613 0.959 . S
C628 H614 0.961 . S
C628 C627 1.502 . S
C629 H615 0.960 . S
C629 H616 0.961 . S
C629 H617 0.959 . S
C629 C627 1.561 . S
C630 C627 1.526 . S
C630 C631 1.396 . S
C630 C635 1.390 . S
C631 C625 1.465 . S
C631 C630 1.396 . S
C631 C632 1.399 . S
C632 H618 0.929 . S
C632 C631 1.399 . S
C632 C633 1.385 . S
C633 H619 0.931 . S
C633 C632 1.385 . S
C633 C634 1.389 . S
C634 C633 1.389 . S
C634 C635 1.387 . S
C635 H620 0.930 . S
C635 C630 1.390 . S
C635 C634 1.387 . S
H636 C648 0.930 . S
H637 C650 0.930 . S
H638 C651 0.930 . S
H639 C655 0.959 . S
H640 C655 0.959 . S
H641 C655 0.961 . S
H642 C656 0.960 . S
H643 C656 0.961 . S
H644 C656 0.959 . S
H645 C659 0.929 . S
H646 C660 0.931 . S
H647 C662 0.930 . S
C648 H636 0.930 . S
C648 C649 1.399 . S
C648 C653 1.399 . S
C649 C648 1.399 . S
C649 C650 1.376 . S
C650 H637 0.930 . S
C650 C649 1.376 . S
C650 C651 1.388 . S
C651 H638 0.930 . S
C651 C650 1.388 . S
C651 C652 1.390 . S
C652 C651 1.390 . S
C652 C653 1.394 . S
C652 C658 1.465 . S
C653 C648 1.399 . S
C653 C652 1.394 . S
C653 C654 1.516 . S
C654 C653 1.516 . S
C654 C655 1.502 . S
C654 C656 1.561 . S
C654 C657 1.526 . S
C655 H639 0.959 . S
C655 H640 0.959 . S
C655 H641 0.961 . S
C655 C654 1.502 . S
C656 H642 0.960 . S
C656 H643 0.961 . S
C656 H644 0.959 . S
C656 C654 1.561 . S
C657 C654 1.526 . S
C657 C658 1.396 . S
C657 C662 1.390 . S
C658 C652 1.465 . S
C658 C657 1.396 . S
C658 C659 1.399 . S
C659 H645 0.929 . S
C659 C658 1.399 . S
C659 C660 1.385 . S
C660 H646 0.931 . S
C660 C659 1.385 . S
C660 C661 1.389 . S
C661 C660 1.389 . S
C661 C662 1.387 . S
C662 H647 0.930 . S
C662 C657 1.390 . S
C662 C661 1.387 . S
H663 C675 0.930 . S
H664 C677 0.930 . S
H665 C678 0.930 . S
H666 C682 0.959 . S
H667 C682 0.959 . S
H668 C682 0.961 . S
H669 C683 0.960 . S
H670 C683 0.961 . S
H671 C683 0.959 . S
H672 C686 0.929 . S
H673 C687 0.931 . S
H674 C689 0.930 . S
C675 H663 0.930 . S
C675 C676 1.399 . S
C675 C680 1.399 . S
C676 C675 1.399 . S
C676 C677 1.376 . S
C677 H664 0.930 . S
C677 C676 1.376 . S
C677 C678 1.388 . S
C678 H665 0.930 . S
C678 C677 1.388 . S
C678 C679 1.390 . S
C679 C678 1.390 . S
C679 C680 1.394 . S
C679 C685 1.465 . S
C680 C675 1.399 . S
C680 C679 1.394 . S
C680 C681 1.516 . S
C681 C680 1.516 . S
C681 C682 1.502 . S
C681 C683 1.561 . S
C681 C684 1.526 . S
C682 H666 0.959 . S
C682 H667 0.959 . S
C682 H668 0.961 . S
C682 C681 1.502 . S
C683 H669 0.960 . S
C683 H670 0.961 . S
C683 H671 0.959 . S
C683 C681 1.561 . S
C684 C681 1.526 . S
C684 C685 1.396 . S
C684 C689 1.390 . S
C685 C679 1.465 . S
C685 C684 1.396 . S
C685 C686 1.399 . S
C686 H672 0.929 . S
C686 C685 1.399 . S
C686 C687 1.385 . S
C687 H673 0.931 . S
C687 C686 1.385 . S
C687 C688 1.389 . S
C688 C687 1.389 . S
C688 C689 1.387 . S
C689 H674 0.930 . S
C689 C684 1.390 . S
C689 C688 1.387 . S
H690 C702 0.930 . S
H691 C704 0.930 . S
H692 C705 0.930 . S
H693 C709 0.959 . S
H694 C709 0.959 . S
H695 C709 0.961 . S
H696 C710 0.960 . S
H697 C710 0.961 . S
H698 C710 0.959 . S
H699 C713 0.929 . S
H700 C714 0.931 . S
H701 C716 0.930 . S
C702 H690 0.930 . S
C702 C703 1.399 . S
C702 C707 1.399 . S
C703 C702 1.399 . S
C703 C704 1.376 . S
C704 H691 0.930 . S
C704 C703 1.376 . S
C704 C705 1.388 . S
C705 H692 0.930 . S
C705 C704 1.388 . S
C705 C706 1.390 . S
C706 C705 1.390 . S
C706 C707 1.394 . S
C706 C712 1.465 . S
C707 C702 1.399 . S
C707 C706 1.394 . S
C707 C708 1.516 . S
C708 C707 1.516 . S
C708 C709 1.502 . S
C708 C710 1.561 . S
C708 C711 1.526 . S
C709 H693 0.959 . S
C709 H694 0.959 . S
C709 H695 0.961 . S
C709 C708 1.502 . S
C710 H696 0.960 . S
C710 H697 0.961 . S
C710 H698 0.959 . S
C710 C708 1.561 . S
C711 C708 1.526 . S
C711 C712 1.396 . S
C711 C716 1.390 . S
C712 C706 1.465 . S
C712 C711 1.396 . S
C712 C713 1.399 . S
C713 H699 0.929 . S
C713 C712 1.399 . S
C713 C714 1.385 . S
C714 H700 0.931 . S
C714 C713 1.385 . S
C714 C715 1.389 . S
C715 C714 1.389 . S
C715 C716 1.387 . S
C716 H701 0.930 . S
C716 C711 1.390 . S
C716 C715 1.387 . S
H717 C729 0.930 . S
H718 C731 0.930 . S
H719 C732 0.930 . S
H720 C736 0.959 . S
H721 C736 0.959 . S
H722 C736 0.961 . S
H723 C737 0.960 . S
H724 C737 0.961 . S
H725 C737 0.959 . S
H726 C740 0.929 . S
H727 C741 0.931 . S
H728 C743 0.930 . S
C729 H717 0.930 . S
C729 C730 1.399 . S
C729 C734 1.399 . S
C730 C729 1.399 . S
C730 C731 1.376 . S
C731 H718 0.930 . S
C731 C730 1.376 . S
C731 C732 1.388 . S
C732 H719 0.930 . S
C732 C731 1.388 . S
C732 C733 1.390 . S
C733 C732 1.390 . S
C733 C734 1.394 . S
C733 C739 1.465 . S
C734 C729 1.399 . S
C734 C733 1.394 . S
C734 C735 1.516 . S
C735 C734 1.516 . S
C735 C736 1.502 . S
C735 C737 1.561 . S
C735 C738 1.526 . S
C736 H720 0.959 . S
C736 H721 0.959 . S
C736 H722 0.961 . S
C736 C735 1.502 . S
C737 H723 0.960 . S
C737 H724 0.961 . S
C737 H725 0.959 . S
C737 C735 1.561 . S
C738 C735 1.526 . S
C738 C739 1.396 . S
C738 C743 1.390 . S
C739 C733 1.465 . S
C739 C738 1.396 . S
C739 C740 1.399 . S
C740 H726 0.929 . S
C740 C739 1.399 . S
C740 C741 1.385 . S
C741 H727 0.931 . S
C741 C740 1.385 . S
C741 C742 1.389 . S
C742 C741 1.389 . S
C742 C743 1.387 . S
C743 H728 0.930 . S
C743 C738 1.390 . S
C743 C742 1.387 . S
H744 C756 0.930 1_655 S
H745 C758 0.930 . S
H746 C759 0.930 . S
H747 C763 0.959 . S
H748 C763 0.959 . S
H749 C763 0.961 . S
H750 C764 0.960 . S
H751 C764 0.961 . S
H752 C764 0.959 . S
H753 C767 0.929 . S
H754 C768 0.967 . S
H755 C770 0.930 . S
C756 H744 0.930 1_455 S
C756 C757 1.399 . S
C756 C761 1.399 . S
C757 C756 1.399 . S
C757 C758 1.376 . S
C758 H745 0.930 . S
C758 C757 1.376 . S
C758 C759 1.388 . S
C759 H746 0.930 . S
C759 C758 1.388 . S
C759 C760 1.390 . S
C760 C759 1.390 . S
C760 C761 1.394 . S
C760 C766 1.465 . S
C761 C756 1.399 . S
C761 C760 1.394 . S
C761 C762 1.516 . S
C762 C761 1.516 . S
C762 C763 1.502 1_455 S
C762 C764 1.561 . S
C762 C765 1.526 . S
C763 H747 0.959 . S
C763 H748 0.959 . S
C763 H749 0.961 . S
C763 C762 1.502 1_655 S
C764 H750 0.960 . S
C764 H751 0.961 . S
C764 H752 0.959 . S
C764 C762 1.561 . S
C765 C762 1.526 . S
C765 C766 1.396 . S
C765 C770 1.390 . S
C766 C760 1.465 . S
C766 C765 1.396 . S
C766 C767 1.399 . S
C767 H753 0.929 . S
C767 C766 1.399 . S
C767 C768 1.385 . S
C768 H754 0.967 . S
C768 C767 1.385 . S
C768 C769 1.389 . S
C769 C768 1.389 . S
C769 C770 1.387 . S
C770 H755 0.930 . S
C770 C765 1.390 . S
C770 C769 1.387 . S
H771 C783 0.930 . S
H772 C785 0.930 . S
H773 C786 0.930 . S
H774 C790 0.959 . S
H775 C790 0.959 . S
H776 C790 0.961 . S
H777 C791 0.960 . S
H778 C791 0.961 . S
H779 C791 0.959 . S
H780 C794 0.929 . S
H781 C795 0.931 . S
H782 C797 0.930 . S
C783 H771 0.930 . S
C783 C784 1.399 . S
C783 C788 1.399 . S
C784 C783 1.399 . S
C784 C785 1.376 1_545 S
C785 H772 0.930 . S
C785 C784 1.376 1_565 S
C785 C786 1.388 . S
C786 H773 0.930 . S
C786 C785 1.388 . S
C786 C787 1.390 1_565 S
C787 C786 1.390 1_545 S
C787 C788 1.394 . S
C787 C793 1.465 . S
C788 C783 1.399 . S
C788 C787 1.394 . S
C788 C789 1.516 . S
C789 C788 1.516 . S
C789 C790 1.502 . S
C789 C791 1.561 . S
C789 C792 1.526 . S
C790 H774 0.959 . S
C790 H775 0.959 . S
C790 H776 0.961 . S
C790 C789 1.502 . S
C791 H777 0.960 . S
C791 H778 0.961 . S
C791 H779 0.959 . S
C791 C789 1.561 . S
C792 C789 1.526 . S
C792 C793 1.396 . S
C792 C797 1.390 . S
C793 C787 1.465 . S
C793 C792 1.396 . S
C793 C794 1.399 1_545 S
C794 H780 0.929 . S
C794 C793 1.399 1_565 S
C794 C795 1.385 . S
C795 H781 0.931 . S
C795 C794 1.385 . S
C795 C796 1.389 1_565 S
C796 C795 1.389 1_545 S
C796 C797 1.387 . S
C797 H782 0.930 . S
C797 C792 1.390 . S
C797 C796 1.387 . S
H798 C810 0.930 . S
H799 C812 0.930 . S
H800 C813 0.930 . S
H801 C817 0.959 . S
H802 C817 0.959 . S
H803 C817 0.961 . S
H804 C818 0.960 . S
H805 C818 0.961 . S
H806 C818 0.959 . S
H807 C821 0.929 . S
H808 C822 0.931 . S
H809 C824 0.930 . S
C810 H798 0.930 . S
C810 C811 1.399 . S
C810 C815 1.399 . S
C811 C810 1.399 . S
C811 C812 1.376 . S
C812 H799 0.930 . S
C812 C811 1.376 . S
C812 C813 1.388 . S
C813 H800 0.930 . S
C813 C812 1.388 . S
C813 C814 1.390 . S
C814 C813 1.390 . S
C814 C815 1.394 . S
C814 C820 1.465 . S
C815 C810 1.399 . S
C815 C814 1.394 . S
C815 C816 1.516 . S
C816 C815 1.516 . S
C816 C817 1.502 . S
C816 C818 1.561 . S
C816 C819 1.526 . S
C817 H801 0.959 . S
C817 H802 0.959 . S
C817 H803 0.961 . S
C817 C816 1.502 . S
C818 H804 0.960 . S
C818 H805 0.961 . S
C818 H806 0.959 . S
C818 C816 1.561 . S
C819 C816 1.526 . S
C819 C820 1.396 . S
C819 C824 1.390 . S
C820 C814 1.465 . S
C820 C819 1.396 . S
C820 C821 1.399 . S
C821 H807 0.929 . S
C821 C820 1.399 . S
C821 C822 1.385 . S
C822 H808 0.931 . S
C822 C821 1.385 . S
C822 C823 1.389 . S
C823 C822 1.389 . S
C823 C824 1.387 . S
C824 H809 0.930 . S
C824 C819 1.390 . S
C824 C823 1.387 . S
H825 C837 0.930 . S
H826 C839 0.930 . S
H827 C840 0.930 . S
H828 C844 0.959 . S
H829 C844 0.959 . S
H830 C844 0.961 . S
H831 C845 0.960 . S
H832 C845 0.961 . S
H833 C845 0.959 . S
H834 C848 0.929 . S
H835 C849 0.931 . S
H836 C851 0.930 . S
C837 H825 0.930 . S
C837 C838 1.399 1_565 S
C837 C842 1.399 . S
C838 C837 1.399 1_545 S
C838 C839 1.376 . S
C839 H826 0.930 . S
C839 C838 1.376 . S
C839 C840 1.388 . S
C840 H827 0.930 . S
C840 C839 1.388 . S
C840 C841 1.390 . S
C841 C840 1.390 . S
C841 C842 1.394 1_545 S
C841 C847 1.465 . S
C842 C837 1.399 . S
C842 C841 1.394 1_565 S
C842 C843 1.516 . S
C843 C842 1.516 . S
C843 C844 1.502 . S
C843 C845 1.561 . S
C843 C846 1.526 . S
C844 H828 0.959 . S
C844 H829 0.959 . S
C844 H830 0.961 . S
C844 C843 1.502 . S
C845 H831 0.960 . S
C845 H832 0.961 . S
C845 H833 0.959 . S
C845 C843 1.561 . S
C846 C843 1.526 . S
C846 C847 1.396 1_565 S
C846 C851 1.390 . S
C847 C841 1.465 . S
C847 C846 1.396 1_545 S
C847 C848 1.399 . S
C848 H834 0.929 . S
C848 C847 1.399 . S
C848 C849 1.385 . S
C849 H835 0.931 . S
C849 C848 1.385 . S
C849 C850 1.389 . S
C850 C849 1.389 . S
C850 C851 1.387 1_545 S
C851 H836 0.930 . S
C851 C846 1.390 . S
C851 C850 1.387 1_565 S
H852 C864 0.930 . S
H853 C866 0.930 . S
H854 C867 0.930 . S
H855 C871 0.959 . S
H856 C871 0.959 . S
H857 C871 0.961 . S
H858 C872 0.960 . S
H859 C872 0.961 . S
H860 C872 0.959 . S
H861 C875 0.929 . S
H862 C876 0.931 . S
H863 C878 0.930 . S
C864 H852 0.930 . S
C864 C865 1.399 . S
C864 C869 1.399 . S
C865 C864 1.399 . S
C865 C866 1.376 . S
C866 H853 0.930 . S
C866 C865 1.376 . S
C866 C867 1.388 . S
C867 H854 0.930 . S
C867 C866 1.388 . S
C867 C868 1.390 . S
C868 C867 1.390 . S
C868 C869 1.394 . S
C868 C874 1.465 . S
C869 C864 1.399 . S
C869 C868 1.394 . S
C869 C870 1.516 . S
C870 C869 1.516 . S
C870 C871 1.502 . S
C870 C872 1.561 . S
C870 C873 1.526 . S
C871 H855 0.959 . S
C871 H856 0.959 . S
C871 H857 0.961 . S
C871 C870 1.502 . S
C872 H858 0.960 . S
C872 H859 0.961 . S
C872 H860 0.959 . S
C872 C870 1.561 . S
C873 C870 1.526 . S
C873 C874 1.396 . S
C873 C878 1.390 . S
C874 C868 1.465 . S
C874 C873 1.396 . S
C874 C875 1.399 . S
C875 H861 0.929 . S
C875 C874 1.399 . S
C875 C876 1.385 . S
C876 H862 0.931 . S
C876 C875 1.385 . S
C876 C877 1.389 . S
C877 C876 1.389 . S
C877 C878 1.387 . S
C878 H863 0.930 . S
C878 C873 1.390 . S
C878 C877 1.387 . S
H879 C891 0.930 . S
H880 C893 0.930 . S
H881 C894 0.930 . S
H882 C898 0.959 . S
H883 C898 0.959 . S
H884 C898 0.961 . S
H885 C899 0.960 . S
H886 C899 0.961 . S
H887 C899 0.959 1_655 S
H888 C902 0.929 . S
H889 C903 0.931 . S
H890 C905 0.930 . S
C891 H879 0.930 . S
C891 C892 1.399 1_455 S
C891 C896 1.399 . S
C892 C891 1.399 1_655 S
C892 C893 1.376 . S
C893 H880 0.930 . S
C893 C892 1.376 . S
C893 C894 1.388 . S
C894 H881 0.930 . S
C894 C893 1.388 . S
C894 C895 1.390 . S
C895 C894 1.390 . S
C895 C896 1.394 1_655 S
C895 C901 1.465 . S
C896 C891 1.399 . S
C896 C895 1.394 1_455 S
C896 C897 1.516 . S
C897 C896 1.516 . S
C897 C898 1.502 . S
C897 C899 1.561 . S
C897 C900 1.526 . S
C898 H882 0.959 . S
C898 H883 0.959 . S
C898 H884 0.961 . S
C898 C897 1.502 . S
C899 H885 0.960 . S
C899 H886 0.961 . S
C899 H887 0.959 1_455 S
C899 C897 1.561 . S
C900 C897 1.526 . S
C900 C901 1.396 1_455 S
C900 C905 1.390 . S
C901 C895 1.465 . S
C901 C900 1.396 1_655 S
C901 C902 1.399 . S
C902 H888 0.929 . S
C902 C901 1.399 . S
C902 C903 1.385 . S
C903 H889 0.931 . S
C903 C902 1.385 . S
C903 C904 1.389 1_655 S
C904 C903 1.389 1_455 S
C904 C905 1.387 . S
C905 H890 0.930 . S
C905 C900 1.390 . S
C905 C904 1.387 . S
C433 C2 1.384 . S
C445 C391 1.439 . S
C460 C22 1.280 . S
C472 C241 1.369 . S
C487 C44 1.416 . S
C499 C301 1.350 . S
C514 C4 1.559 . S
C526 C361 1.586 . S
C553 C271 1.696 . S
C541 C24 1.556 . S
C580 C331 1.623 . S
C568 C42 1.468 . S
C595 C32 1.328 . S
C607 C121 1.206 . S
C622 C49 1.274 . S
C634 C211 1.307 . S
C649 C9 1.245 . S
C661 C91 1.311 . S
C688 C151 1.274 . S
C676 C29 1.258 . S
C715 C181 1.232 . S
C703 C52 1.313 . S
C730 C12 1.258 . S
C742 C61 1.181 . S
C769 C200 1.436 1_554 S
C757 C18 1.444 1_455 S
C784 C38 1.420 . S
C796 C80 1.406 . S
C811 C58 1.388 . S
C823 C140 1.430 . S
C850 C320 1.472 . S
C838 C39 1.464 . S
C877 C380 1.454 1_556 S
C865 C59 1.449 . S
C892 C19 1.482 1_655 S
C904 C260 1.488 . S
