# Generated by pormake.
# Topology ctn, (3,4)-cn, num edge types: 1
# Building blocks:
#     Node 0, Type 0, BuildingBlock: KAKCAD_clean_linker_0, # of connection points: 3
#     Node 1, Type 0, BuildingBlock: KAKCAD_clean_linker_0, # of connection points: 3
#     Node 2, Type 0, BuildingBlock: KAKCAD_clean_linker_0, # of connection points: 3
#     Node 3, Type 0, BuildingBlock: KAKCAD_clean_linker_0, # of connection points: 3
#     Node 4, Type 0, BuildingBlock: KAKCAD_clean_linker_0, # of connection points: 3
#     Node 5, Type 0, BuildingBlock: KAKCAD_clean_linker_0, # of connection points: 3
#     Node 6, Type 0, BuildingBlock: KAKCAD_clean_linker_0, # of connection points: 3
#     Node 7, Type 0, BuildingBlock: KAKCAD_clean_linker_0, # of connection points: 3
#     Node 8, Type 0, BuildingBlock: KAKCAD_clean_linker_0, # of connection points: 3
#     Node 9, Type 0, BuildingBlock: KAKCAD_clean_linker_0, # of connection points: 3
#     Node 10, Type 0, BuildingBlock: KAKCAD_clean_linker_0, # of connection points: 3
#     Node 11, Type 0, BuildingBlock: KAKCAD_clean_linker_0, # of connection points: 3
#     Node 12, Type 0, BuildingBlock: KAKCAD_clean_linker_0, # of connection points: 3
#     Node 13, Type 0, BuildingBlock: KAKCAD_clean_linker_0, # of connection points: 3
#     Node 14, Type 0, BuildingBlock: KAKCAD_clean_linker_0, # of connection points: 3
#     Node 15, Type 0, BuildingBlock: KAKCAD_clean_linker_0, # of connection points: 3
#     Node 16, Type 1, BuildingBlock: AZAVOO_clean_sbu_0, # of connection points: 4
#     Node 17, Type 1, BuildingBlock: AZAVOO_clean_sbu_0, # of connection points: 4
#     Node 18, Type 1, BuildingBlock: AZAVOO_clean_sbu_0, # of connection points: 4
#     Node 19, Type 1, BuildingBlock: AZAVOO_clean_sbu_0, # of connection points: 4
#     Node 20, Type 1, BuildingBlock: AZAVOO_clean_sbu_0, # of connection points: 4
#     Node 21, Type 1, BuildingBlock: AZAVOO_clean_sbu_0, # of connection points: 4
#     Node 22, Type 1, BuildingBlock: AZAVOO_clean_sbu_0, # of connection points: 4
#     Node 23, Type 1, BuildingBlock: AZAVOO_clean_sbu_0, # of connection points: 4
#     Node 24, Type 1, BuildingBlock: AZAVOO_clean_sbu_0, # of connection points: 4
#     Node 25, Type 1, BuildingBlock: AZAVOO_clean_sbu_0, # of connection points: 4
#     Node 26, Type 1, BuildingBlock: AZAVOO_clean_sbu_0, # of connection points: 4
#     Node 27, Type 1, BuildingBlock: AZAVOO_clean_sbu_0, # of connection points: 4
#     Edge 28, Type (0, 1), BuildingBlock: AJUNOK_clean_linker_0, # of connection points: 2
#     Edge 29, Type (0, 1), BuildingBlock: AJUNOK_clean_linker_0, # of connection points: 2
#     Edge 30, Type (0, 1), BuildingBlock: AJUNOK_clean_linker_0, # of connection points: 2
#     Edge 31, Type (0, 1), BuildingBlock: AJUNOK_clean_linker_0, # of connection points: 2
#     Edge 32, Type (0, 1), BuildingBlock: AJUNOK_clean_linker_0, # of connection points: 2
#     Edge 33, Type (0, 1), BuildingBlock: AJUNOK_clean_linker_0, # of connection points: 2
#     Edge 34, Type (0, 1), BuildingBlock: AJUNOK_clean_linker_0, # of connection points: 2
#     Edge 35, Type (0, 1), BuildingBlock: AJUNOK_clean_linker_0, # of connection points: 2
#     Edge 36, Type (0, 1), BuildingBlock: AJUNOK_clean_linker_0, # of connection points: 2
#     Edge 37, Type (0, 1), BuildingBlock: AJUNOK_clean_linker_0, # of connection points: 2
#     Edge 38, Type (0, 1), BuildingBlock: AJUNOK_clean_linker_0, # of connection points: 2
#     Edge 39, Type (0, 1), BuildingBlock: AJUNOK_clean_linker_0, # of connection points: 2
#     Edge 40, Type (0, 1), BuildingBlock: AJUNOK_clean_linker_0, # of connection points: 2
#     Edge 41, Type (0, 1), BuildingBlock: AJUNOK_clean_linker_0, # of connection points: 2
#     Edge 42, Type (0, 1), BuildingBlock: AJUNOK_clean_linker_0, # of connection points: 2
#     Edge 43, Type (0, 1), BuildingBlock: AJUNOK_clean_linker_0, # of connection points: 2
#     Edge 44, Type (0, 1), BuildingBlock: AJUNOK_clean_linker_0, # of connection points: 2
#     Edge 45, Type (0, 1), BuildingBlock: AJUNOK_clean_linker_0, # of connection points: 2
#     Edge 46, Type (0, 1), BuildingBlock: AJUNOK_clean_linker_0, # of connection points: 2
#     Edge 47, Type (0, 1), BuildingBlock: AJUNOK_clean_linker_0, # of connection points: 2
#     Edge 48, Type (0, 1), BuildingBlock: AJUNOK_clean_linker_0, # of connection points: 2
#     Edge 49, Type (0, 1), BuildingBlock: AJUNOK_clean_linker_0, # of connection points: 2
#     Edge 50, Type (0, 1), BuildingBlock: AJUNOK_clean_linker_0, # of connection points: 2
#     Edge 51, Type (0, 1), BuildingBlock: AJUNOK_clean_linker_0, # of connection points: 2
#     Edge 52, Type (0, 1), BuildingBlock: AJUNOK_clean_linker_0, # of connection points: 2
#     Edge 53, Type (0, 1), BuildingBlock: AJUNOK_clean_linker_0, # of connection points: 2
#     Edge 54, Type (0, 1), BuildingBlock: AJUNOK_clean_linker_0, # of connection points: 2
#     Edge 55, Type (0, 1), BuildingBlock: AJUNOK_clean_linker_0, # of connection points: 2
#     Edge 56, Type (0, 1), BuildingBlock: AJUNOK_clean_linker_0, # of connection points: 2
#     Edge 57, Type (0, 1), BuildingBlock: AJUNOK_clean_linker_0, # of connection points: 2
#     Edge 58, Type (0, 1), BuildingBlock: AJUNOK_clean_linker_0, # of connection points: 2
#     Edge 59, Type (0, 1), BuildingBlock: AJUNOK_clean_linker_0, # of connection points: 2
#     Edge 60, Type (0, 1), BuildingBlock: AJUNOK_clean_linker_0, # of connection points: 2
#     Edge 61, Type (0, 1), BuildingBlock: AJUNOK_clean_linker_0, # of connection points: 2
#     Edge 62, Type (0, 1), BuildingBlock: AJUNOK_clean_linker_0, # of connection points: 2
#     Edge 63, Type (0, 1), BuildingBlock: AJUNOK_clean_linker_0, # of connection points: 2
#     Edge 64, Type (0, 1), BuildingBlock: AJUNOK_clean_linker_0, # of connection points: 2
#     Edge 65, Type (0, 1), BuildingBlock: AJUNOK_clean_linker_0, # of connection points: 2
#     Edge 66, Type (0, 1), BuildingBlock: AJUNOK_clean_linker_0, # of connection points: 2
#     Edge 67, Type (0, 1), BuildingBlock: AJUNOK_clean_linker_0, # of connection points: 2
#     Edge 68, Type (0, 1), BuildingBlock: AJUNOK_clean_linker_0, # of connection points: 2
#     Edge 69, Type (0, 1), BuildingBlock: AJUNOK_clean_linker_0, # of connection points: 2
#     Edge 70, Type (0, 1), BuildingBlock: AJUNOK_clean_linker_0, # of connection points: 2
#     Edge 71, Type (0, 1), BuildingBlock: AJUNOK_clean_linker_0, # of connection points: 2
#     Edge 72, Type (0, 1), BuildingBlock: AJUNOK_clean_linker_0, # of connection points: 2
#     Edge 73, Type (0, 1), BuildingBlock: AJUNOK_clean_linker_0, # of connection points: 2
#     Edge 74, Type (0, 1), BuildingBlock: AJUNOK_clean_linker_0, # of connection points: 2
#     Edge 75, Type (0, 1), BuildingBlock: AJUNOK_clean_linker_0, # of connection points: 2
# Relax obj value: 0.002
# Max RMSD: 0.041
# Mean RMSD: 0.022
data_MOF--net-ctn--node1-AZAVOO_clean_sbu_0--node2-KAKCAD_clean_linker_0--edge1-AJUNOK_clean_linker_0
_symmetry_space_group_name_H-M    P1
_symmetry_Int_Tables_number       1
_symmetry_cell_setting            triclinic
loop_
_symmetry_equiv_pos_as_xyz
'x, y, z'
_cell_length_a     52.146647
_cell_length_b     53.328272
_cell_length_c     53.336228
_cell_angle_alpha  90.282859
_cell_angle_beta   93.397236
_cell_angle_gamma 93.278151
loop_
_atom_site_label
_atom_site_type_symbol
_atom_site_fract_x
_atom_site_fract_y
_atom_site_fract_z
_atom_type_partial_charge
C0 C 0.0329 0.09212 0.94724 0.0
C1 C 0.02145 0.11341 0.95618 0.0
C2 C 0.0338 0.07026 0.96164 0.0
C3 C 0.02412 0.0694 0.98578 0.0
C4 C 0.01242 0.09071 0.99444 0.0
C5 C 0.01066 0.11209 0.97969 0.0
C6 C 0.02719 0.04707 0.00243 0.0
C7 C 0.04835 0.03195 0.00086 0.0
C8 C 0.05231 0.01213 0.01772 0.0
C9 C 0.03518 0.00793 0.03691 0.0
C10 C 0.0143 0.0231 0.03913 0.0
C11 C 0.00991 0.04183 0.02128 0.0
C12 C 0.99841 0.02121 0.06135 0.0
C13 C 0.98855 -0.00212 0.06989 0.0
C14 C 0.99377 0.04313 0.07472 0.0
C15 C 0.97998 0.04178 0.09635 0.0
C16 C 0.97032 0.01853 0.10495 0.0
C17 C 0.07489 0.99647 0.01582 0.0
C18 C 0.08219 0.9883 0.99227 0.0
C19 C 0.08919 0.98936 0.03755 0.0
C20 C 0.1098 0.97394 0.03583 0.0
C21 C 0.11673 0.96535 0.01235 0.0
C22 C 0.10288 0.97289 0.99056 0.0
C23 C 0.97439 0.99658 0.09145 0.0
H24 H 0.04195 0.09251 0.9295 0.0
H25 H 0.04251 0.05423 0.95389 0.0
H26 H 0.00525 0.09147 0.01302 0.0
H27 H 1.00136 0.12795 0.98711 0.0
H28 H 0.06252 0.03615 0.98722 0.0
H29 H 0.99305 0.05259 0.02257 0.0
H30 H 0.03841 0.99323 0.0505 0.0
H31 H 0.9918 0.98072 0.05991 0.0
H32 H 1.00139 0.06134 0.06881 0.0
H33 H 0.97708 0.0589 0.10656 0.0
H34 H 0.07145 0.99324 0.97517 0.0
H35 H 0.08446 0.99572 0.05594 0.0
H36 H 0.96714 0.97846 0.09791 0.0
H37 H 0.10748 0.96617 0.97225 0.0
H38 H 0.12025 0.96853 0.05293 0.0
C39 C 0.37525 0.7595 0.28518 0.0
C40 C 0.39053 0.73966 0.29261 0.0
C41 C 0.35456 0.75545 0.2674 0.0
C42 C 0.34864 0.73141 0.25697 0.0
C43 C 0.36429 0.71172 0.26407 0.0
C44 C 0.38512 0.71585 0.2816 0.0
C45 C 0.32603 0.72661 0.23897 0.0
C46 C 0.32148 0.74276 0.21866 0.0
C47 C 0.30109 0.73715 0.20082 0.0
C48 C 0.28485 0.71554 0.20357 0.0
C49 C 0.28849 0.69961 0.22424 0.0
C50 C 0.30923 0.70536 0.24182 0.0
C51 C 0.27091 0.67686 0.22729 0.0
C52 C 0.24441 0.67716 0.22046 0.0
C53 C 0.28051 0.6546 0.23715 0.0
C54 C 0.26413 0.63333 0.24017 0.0
C55 C 0.23778 0.63348 0.23288 0.0
C56 C 0.29703 0.75331 0.1787 0.0
C57 C 0.29052 0.77829 0.18154 0.0
C58 C 0.29853 0.74332 0.15452 0.0
C59 C 0.29295 0.75787 0.13343 0.0
C60 C 0.28494 0.78245 0.13608 0.0
C61 C 0.28436 0.79272 0.16038 0.0
C62 C 0.22806 0.65571 0.22317 0.0
H63 H 0.37922 0.77809 0.29327 0.0
H64 H 0.34282 0.77095 0.26228 0.0
H65 H 0.3604 0.69309 0.25607 0.0
H66 H 0.3966 0.70025 0.28706 0.0
H67 H 0.33434 0.75914 0.21617 0.0
H68 H 0.31218 0.69352 0.25806 0.0
H69 H 0.26946 0.71115 0.1894 0.0
H70 H 0.23618 0.69405 0.21324 0.0
H71 H 0.30078 0.65345 0.24238 0.0
H72 H 0.27214 0.61678 0.24844 0.0
H73 H 0.2893 0.78631 0.2001 0.0
H74 H 0.30389 0.72418 0.15196 0.0
H75 H 0.20783 0.65648 0.2175 0.0
H76 H 0.27834 0.8116 0.16307 0.0
H77 H 0.29459 0.7497 0.115 0.0
C78 C 0.02265 0.4892 0.13025 0.0
C79 C 0.04859 0.48378 0.12874 0.0
C80 C 0.00523 0.48573 0.10929 0.0
C81 C 0.0134 0.47699 0.08627 0.0
C82 C 0.03934 0.47145 0.08494 0.0
C83 C 0.05661 0.47466 0.10588 0.0
C84 C 0.99532 0.47419 0.06347 0.0
C85 C 0.97636 0.49156 0.05843 0.0
C86 C 0.96035 0.48977 0.03625 0.0
C87 C 0.96346 0.47042 0.01894 0.0
C88 C 0.98198 0.45263 0.02368 0.0
C89 C 0.99761 0.45457 0.04611 0.0
C90 C 0.98481 0.43188 0.00538 0.0
C91 C 0.96302 0.41978 0.9928 0.0
C92 C 0.00926 0.42365 0.00068 0.0
C93 C 0.01178 0.40336 0.98445 0.0
C94 C 0.98993 0.39098 0.97232 0.0
C95 C 0.94055 0.5083 0.03089 0.0
C96 C 0.924 0.51486 0.04943 0.0
C97 C 0.93787 0.51933 0.00706 0.0
C98 C 0.91923 0.53673 0.00195 0.0
C99 C 0.90279 0.54336 0.02051 0.0
C100 C 0.90518 0.5321 0.04422 0.0
C101 C 0.96556 0.39965 0.97645 0.0
H102 H 0.0159 0.49665 0.14743 0.0
H103 H 0.98536 0.48996 0.11116 0.0
H104 H 0.04657 0.46512 0.06752 0.0
H105 H 0.07642 0.47016 0.10409 0.0
H106 H 0.97461 0.50708 0.07129 0.0
H107 H 0.01135 0.44046 0.05026 0.0
H108 H 0.95136 0.46922 0.0017 0.0
H109 H 0.94386 0.42537 0.99613 0.0
H110 H 0.0265 0.43273 0.00974 0.0
H111 H 0.03079 0.39684 0.98209 0.0
H112 H 0.92545 0.50646 0.06787 0.0
H113 H 0.95043 0.51475 0.99244 0.0
H114 H 0.94835 0.39048 0.96739 0.0
H115 H 0.89275 0.53695 0.05886 0.0
H116 H 0.91763 0.545 0.98345 0.0
C117 C 0.71308 0.73999 0.13693 0.0
C118 C 0.73735 0.73042 0.13459 0.0
C119 C 0.70939 0.75743 0.15582 0.0
C120 C 0.73 0.76582 0.17251 0.0
C121 C 0.7541 0.75566 0.17059 0.0
C122 C 0.7577 0.73797 0.15187 0.0
C123 C 0.72653 0.78578 0.19128 0.0
C124 C 0.70523 0.78435 0.20615 0.0
C125 C 0.70128 0.80349 0.22352 0.0
C126 C 0.71941 0.82416 0.22598 0.0
C127 C 0.74118 0.82573 0.21151 0.0
C128 C 0.74433 0.80648 0.19402 0.0
C129 C 0.76091 0.84711 0.21489 0.0
C130 C 0.75384 0.87161 0.22012 0.0
C131 C 0.78717 0.84311 0.21299 0.0
C132 C 0.80577 0.86294 0.21615 0.0
C133 C 0.79877 0.88727 0.22195 0.0
C134 C 0.67867 0.80135 0.23952 0.0
C135 C 0.65515 0.78942 0.23032 0.0
C136 C 0.6806 0.81045 0.26442 0.0
C137 C 0.6599 0.80713 0.27979 0.0
C138 C 0.63698 0.79394 0.271 0.0
C139 C 0.63468 0.78556 0.24592 0.0
C140 C 0.77255 0.89142 0.22368 0.0
H141 H 0.69713 0.73435 0.12378 0.0
H142 H 0.69064 0.76502 0.15682 0.0
H143 H 0.77022 0.76161 0.18339 0.0
H144 H 0.77661 0.73089 0.1503 0.0
H145 H 0.6921 0.76786 0.20454 0.0
H146 H 0.76041 0.8078 0.18202 0.0
H147 H 0.71672 0.83896 0.23935 0.0
H148 H 0.73382 0.8756 0.22128 0.0
H149 H 0.79351 0.82454 0.20929 0.0
H150 H 0.8257 0.85917 0.21392 0.0
H151 H 0.65253 0.78277 0.21108 0.0
H152 H 0.6983 0.81958 0.27241 0.0
H153 H 0.7665 0.90997 0.22802 0.0
H154 H 0.61726 0.77545 0.23846 0.0
H155 H 0.66205 0.81466 0.29874 0.0
C156 C 0.96696 0.98453 0.40738 0.0
C157 C 0.97619 0.99624 0.38593 0.0
C158 C 0.98336 0.98184 0.42887 0.0
C159 C 0.00948 0.9904 0.42917 0.0
C160 C 0.0185 0.00216 0.40751 0.0
C161 C 0.00199 0.00524 0.38628 0.0
C162 C 0.02745 0.98669 0.45164 0.0
C163 C 0.02486 0.96501 0.46648 0.0
C164 C 0.04226 0.96103 0.4871 0.0
C165 C 0.06285 0.97884 0.49243 0.0
C166 C 0.06608 0.00046 0.47773 0.0
C167 C 0.04789 0.00446 0.45781 0.0
C168 C 0.0888 0.01855 0.48268 0.0
C169 C 0.09878 0.02398 0.50737 0.0
C170 C 0.10093 0.03035 0.4626 0.0
C171 C 0.12206 0.04742 0.46709 0.0
C172 C 0.13189 0.05277 0.4917 0.0
C173 C 0.03943 0.9379 0.50261 0.0
C174 C 0.01494 0.92781 0.50835 0.0
C175 C 0.06123 0.92555 0.51159 0.0
C176 C 0.05862 0.90362 0.52567 0.0
C177 C 0.03416 0.89328 0.53099 0.0
C178 C 0.01234 0.9057 0.52225 0.0
C179 C 0.1202 0.04081 0.5118 0.0
H180 H 0.94708 0.97745 0.40749 0.0
H181 H 0.97551 0.97307 0.44522 0.0
H182 H 0.03852 0.00847 0.40661 0.0
H183 H 0.00961 0.014 0.36978 0.0
H184 H 0.00982 0.95072 0.46147 0.0
H185 H 0.04959 0.02164 0.44717 0.0
H186 H 0.0766 0.97569 0.50794 0.0
H187 H 0.08979 0.01563 0.52335 0.0
H188 H 0.09425 0.02627 0.44332 0.0
H189 H 0.13084 0.05641 0.45129 0.0
H190 H 0.99773 0.93693 0.502 0.0
H191 H 0.08038 0.93243 0.50726 0.0
H192 H 0.12724 0.04496 0.53098 0.0
H193 H 0.99318 0.89795 0.52551 0.0
H194 H 0.07582 0.89451 0.53211 0.0
C195 C 0.13097 0.70137 0.71271 0.0
C196 C 0.12816 0.72505 0.70181 0.0
C197 C 0.1509 0.69779 0.73087 0.0
C198 C 0.16813 0.71792 0.73871 0.0
C199 C 0.16511 0.74167 0.72797 0.0
C200 C 0.14547 0.74514 0.7095 0.0
C201 C 0.18924 0.71418 0.75801 0.0
C202 C 0.2056 0.69435 0.75562 0.0
C203 C 0.22589 0.6908 0.77365 0.0
C204 C 0.22933 0.70735 0.79436 0.0
C205 C 0.21305 0.72723 0.79719 0.0
C206 C 0.19313 0.73055 0.77877 0.0
C207 C 0.21689 0.74437 0.81945 0.0
C208 C 0.22432 0.73483 0.84316 0.0
C209 C 0.2137 0.77037 0.81722 0.0
C210 C 0.21846 0.78643 0.83808 0.0
C211 C 0.22677 0.7768 0.86139 0.0
C212 C 0.24377 0.67019 0.77063 0.0
C213 C 0.23465 0.64669 0.76049 0.0
C214 C 0.27025 0.67395 0.77746 0.0
C215 C 0.28715 0.65497 0.77381 0.0
C216 C 0.27806 0.6319 0.76293 0.0
C217 C 0.25162 0.62783 0.75659 0.0
C218 C 0.22935 0.75088 0.86382 0.0
H219 H 0.11798 0.68556 0.70689 0.0
H220 H 0.15272 0.67933 0.73894 0.0
H221 H 0.17824 0.75746 0.73356 0.0
H222 H 0.1437 0.76354 0.70127 0.0
H223 H 0.20295 0.68219 0.73923 0.0
H224 H 0.18016 0.74548 0.78087 0.0
H225 H 0.24483 0.70477 0.80837 0.0
H226 H 0.22632 0.71491 0.84582 0.0
H227 H 0.20821 0.77843 0.79924 0.0
H228 H 0.2164 0.8064 0.83585 0.0
H229 H 0.21438 0.64284 0.75549 0.0
H230 H 0.27815 0.69185 0.78496 0.0
H231 H 0.23545 0.74305 0.88176 0.0
H232 H 0.24412 0.61009 0.74836 0.0
H233 H 0.3075 0.65865 0.77861 0.0
C234 C 0.99646 0.60957 0.49945 0.0
C235 C 0.98566 0.61147 0.52288 0.0
C236 C 0.99228 0.58772 0.48486 0.0
C237 C 0.97808 0.56665 0.4937 0.0
C238 C 0.96861 0.56811 0.51785 0.0
C239 C 0.97206 0.59029 0.53208 0.0
C240 C 0.9728 0.54353 0.47769 0.0
C241 C 0.99009 0.53681 0.45983 0.0
C242 C 0.98483 0.51562 0.44419 0.0
C243 C 0.9625 0.5002 0.44736 0.0
C244 C 0.94496 0.50633 0.46522 0.0
C245 C 0.95007 0.5283 0.4798 0.0
C246 C 0.92134 0.48986 0.46885 0.0
C247 C 0.90765 0.47759 0.44833 0.0
C248 C 0.91249 0.48597 0.49307 0.0
C249 C 0.8908 0.47003 0.49669 0.0
C250 C 0.87757 0.45743 0.47624 0.0
C251 C 0.00248 0.51015 0.42416 0.0
C252 C 0.01152 0.52957 0.40865 0.0
C253 C 0.01055 0.48576 0.42043 0.0
C254 C 0.02763 0.48103 0.40185 0.0
C255 C 0.0366 0.5005 0.38637 0.0
C256 C 0.02832 0.52479 0.38996 0.0
C257 C 0.88613 0.46143 0.45202 0.0
H258 H 0.00797 0.62509 0.49213 0.0
H259 H 0.99981 0.58775 0.46639 0.0
H260 H 0.95833 0.55218 0.52588 0.0
H261 H 0.96357 0.59095 0.55009 0.0
H262 H 0.00798 0.54783 0.45815 0.0
H263 H 0.93588 0.53381 0.49245 0.0
H264 H 0.95876 0.48351 0.43576 0.0
H265 H 0.91355 0.48044 0.42938 0.0
H266 H 0.92273 0.49468 0.5094 0.0
H267 H 0.88492 0.46685 0.51561 0.0
H268 H 0.00549 0.54852 0.41093 0.0
H269 H 0.00405 0.47045 0.43219 0.0
H270 H 0.87623 0.4519 0.43594 0.0
H271 H 0.03525 0.54024 0.3786 0.0
H272 H 0.03381 0.46215 0.39953 0.0
C273 C 0.80595 0.72264 0.85533 0.0
C274 C 0.78174 0.71039 0.85842 0.0
C275 C 0.80974 0.73846 0.83485 0.0
C276 C 0.78928 0.74264 0.81732 0.0
C277 C 0.76546 0.72952 0.81972 0.0
C278 C 0.76178 0.71344 0.83995 0.0
C279 C 0.79213 0.76221 0.79787 0.0
C280 C 0.81292 0.76275 0.78226 0.0
C281 C 0.81596 0.78178 0.76427 0.0
C282 C 0.79829 0.80081 0.76276 0.0
C283 C 0.77736 0.80042 0.77821 0.0
C284 C 0.77425 0.7809 0.79547 0.0
C285 C 0.75896 0.82063 0.77659 0.0
C286 C 0.768 0.84593 0.77827 0.0
C287 C 0.73231 0.81481 0.7734 0.0
C288 C 0.71506 0.834 0.77138 0.0
C289 C 0.72419 0.85925 0.77307 0.0
C290 C 0.83679 0.78114 0.74631 0.0
C291 C 0.86146 0.77363 0.75404 0.0
C292 C 0.83173 0.78706 0.7209 0.0
C293 C 0.85057 0.78496 0.70358 0.0
C294 C 0.87498 0.77684 0.71116 0.0
C295 C 0.88034 0.77147 0.73664 0.0
C296 C 0.75075 0.86506 0.77675 0.0
H297 H 0.82156 0.72121 0.86947 0.0
H298 H 0.82824 0.74853 0.83351 0.0
H299 H 0.74946 0.73223 0.80629 0.0
H300 H 0.74297 0.7041 0.84167 0.0
H301 H 0.82622 0.74786 0.78365 0.0
H302 H 0.75836 0.78079 0.80771 0.0
H303 H 0.80063 0.81588 0.74939 0.0
H304 H 0.78842 0.8509 0.78092 0.0
H305 H 0.72489 0.79543 0.77199 0.0
H306 H 0.69464 0.82917 0.76845 0.0
H307 H 0.86612 0.76917 0.77351 0.0
H308 H 0.8129 0.79257 0.71414 0.0
H309 H 0.75817 0.88445 0.77793 0.0
H310 H 0.89883 0.7648 0.743 0.0
H311 H 0.84589 0.78927 0.68407 0.0
C312 C 0.30177 0.22508 0.36096 0.0
C313 C 0.2774 0.21274 0.36276 0.0
C314 C 0.30683 0.2404 0.34043 0.0
C315 C 0.28754 0.24386 0.32146 0.0
C316 C 0.26372 0.23036 0.32244 0.0
C317 C 0.25883 0.21466 0.34273 0.0
C318 C 0.29159 0.26319 0.30203 0.0
C319 C 0.31355 0.26368 0.28802 0.0
C320 C 0.31868 0.28327 0.27104 0.0
C321 C 0.30141 0.30269 0.26876 0.0
C322 C 0.27896 0.302 0.28217 0.0
C323 C 0.2741 0.28209 0.29859 0.0
C324 C 0.26074 0.32234 0.27946 0.0
C325 C 0.26963 0.34758 0.28253 0.0
C326 C 0.23432 0.31661 0.27399 0.0
C327 C 0.2172 0.33584 0.27116 0.0
C328 C 0.22616 0.36104 0.27428 0.0
C329 C 0.34151 0.28293 0.25525 0.0
C330 C 0.36419 0.27175 0.26397 0.0
C331 C 0.34048 0.2929 0.23083 0.0
C332 C 0.36109 0.29109 0.21543 0.0
C333 C 0.383 0.27849 0.2236 0.0
C334 C 0.38452 0.26934 0.24828 0.0
C335 C 0.25245 0.36675 0.28019 0.0
H336 H 0.31646 0.22403 0.37609 0.0
H337 H 0.32534 0.25067 0.34011 0.0
H338 H 0.24869 0.23245 0.30782 0.0
H339 H 0.24015 0.20475 0.34317 0.0
H340 H 0.32626 0.24838 0.29014 0.0
H341 H 0.25721 0.28189 0.30953 0.0
H342 H 0.3052 0.31838 0.25644 0.0
H343 H 0.28985 0.35247 0.28695 0.0
H344 H 0.22702 0.29728 0.27149 0.0
H345 H 0.197 0.33107 0.26651 0.0
H346 H 0.36627 0.26454 0.28286 0.0
H347 H 0.32348 0.30151 0.22314 0.0
H348 H 0.25976 0.3861 0.28248 0.0
H349 H 0.40116 0.25969 0.25532 0.0
H350 H 0.35961 0.29927 0.1969 0.0
C351 C 0.52073 0.98743 0.63284 0.0
C352 C 0.54712 0.98501 0.63015 0.0
C353 C 0.50295 0.98332 0.61226 0.0
C354 C 0.5112 0.97661 0.58859 0.0
C355 C 0.53759 0.97377 0.58616 0.0
C356 C 0.55525 0.9777 0.60669 0.0
C357 C 0.49262 0.9728 0.56633 0.0
C358 C 0.47206 0.98853 0.56222 0.0
C359 C 0.45512 0.9856 0.54069 0.0
C360 C 0.4592 0.96683 0.52297 0.0
C361 C 0.47968 0.95095 0.52668 0.0
C362 C 0.49596 0.95387 0.54859 0.0
C363 C 0.48422 0.9312 0.50785 0.0
C364 C 0.46355 0.91675 0.49591 0.0
C365 C 0.50947 0.92605 0.50236 0.0
C366 C 0.51398 0.90625 0.48626 0.0
C367 C 0.49336 0.89139 0.47499 0.0
C368 C 0.43348 0.00249 0.53661 0.0
C369 C 0.41932 0.00957 0.55686 0.0
C370 C 0.42715 0.01212 0.51263 0.0
C371 C 0.40754 0.02887 0.50916 0.0
C372 C 0.39391 0.03636 0.52958 0.0
C373 C 0.39984 0.02636 0.5534 0.0
C374 C 0.46808 0.89706 0.4796 0.0
H375 H 0.51391 0.99292 0.65074 0.0
H376 H 0.48274 0.98531 0.61493 0.0
H377 H 0.54478 0.96889 0.56824 0.0
H378 H 0.57538 0.97509 0.60415 0.0
H379 H 0.46974 0.00364 0.57539 0.0
H380 H 0.51115 0.94106 0.55203 0.0
H381 H 0.44644 0.96461 0.50623 0.0
H382 H 0.44388 0.92 0.49989 0.0
H383 H 0.52584 0.93713 0.51077 0.0
H384 H 0.53364 0.90227 0.48292 0.0
H385 H 0.42334 0.00218 0.57547 0.0
H386 H 0.43787 0.00735 0.49667 0.0
H387 H 0.45186 0.88557 0.47148 0.0
H388 H 0.38951 0.03173 0.56944 0.0
H389 H 0.40366 0.03664 0.49068 0.0
C390 C 0.21442 0.23841 0.643 0.0
C391 C 0.23884 0.22925 0.6405 0.0
C392 C 0.21063 0.25593 0.66182 0.0
C393 C 0.23133 0.26488 0.67812 0.0
C394 C 0.25556 0.255 0.67609 0.0
C395 C 0.25924 0.23719 0.65751 0.0
C396 C 0.22804 0.28559 0.6961 0.0
C397 C 0.20728 0.28466 0.71176 0.0
C398 C 0.20406 0.30443 0.72867 0.0
C399 C 0.22153 0.32558 0.72915 0.0
C400 C 0.24248 0.32665 0.71377 0.0
C401 C 0.24564 0.30655 0.69738 0.0
C402 C 0.26156 0.34842 0.71535 0.0
C403 C 0.25358 0.37315 0.71481 0.0
C404 C 0.28799 0.34449 0.7175 0.0
C405 C 0.30608 0.36485 0.71917 0.0
C406 C 0.29821 0.38964 0.71851 0.0
C407 C 0.18361 0.30222 0.74701 0.0
C408 C 0.15903 0.29112 0.74012 0.0
C409 C 0.18906 0.31013 0.77205 0.0
C410 C 0.17077 0.3063 0.78991 0.0
C411 C 0.14668 0.29422 0.78326 0.0
C412 C 0.14072 0.2872 0.75809 0.0
C413 C 0.27173 0.39357 0.71617 0.0
H414 H 0.1985 0.23259 0.62989 0.0
H415 H 0.1918 0.26334 0.66289 0.0
H416 H 0.27178 0.26143 0.68857 0.0
H417 H 0.27827 0.23047 0.6557 0.0
H418 H 0.19425 0.26807 0.71139 0.0
H419 H 0.26156 0.30748 0.68516 0.0
H420 H 0.21919 0.34103 0.74193 0.0
H421 H 0.23331 0.37668 0.71288 0.0
H422 H 0.29467 0.32563 0.71826 0.0
H423 H 0.32631 0.36117 0.7212 0.0
H424 H 0.15407 0.28515 0.72092 0.0
H425 H 0.20782 0.31849 0.77815 0.0
H426 H 0.26503 0.4124 0.71497 0.0
H427 H 0.12224 0.2779 0.75249 0.0
H428 H 0.1757 0.31224 0.80913 0.0
C429 C 0.87817 0.25418 0.78008 0.0
C430 C 0.88975 0.23293 0.78998 0.0
C431 C 0.8567 0.25144 0.76301 0.0
C432 C 0.84648 0.22738 0.75553 0.0
C433 C 0.85875 0.20622 0.76485 0.0
C434 C 0.88002 0.20897 0.78198 0.0
C435 C 0.82269 0.2241 0.73869 0.0
C436 C 0.81864 0.23968 0.71783 0.0
C437 C 0.79655 0.23587 0.70145 0.0
C438 C 0.77858 0.21592 0.70613 0.0
C439 C 0.78245 0.19992 0.72671 0.0
C440 C 0.80421 0.20469 0.7432 0.0
C441 C 0.7647 0.17739 0.73028 0.0
C442 C 0.73806 0.17776 0.72421 0.0
C443 C 0.77459 0.15494 0.73934 0.0
C444 C 0.75843 0.13355 0.74227 0.0
C445 C 0.73198 0.13367 0.73553 0.0
C446 C 0.79274 0.25199 0.67889 0.0
C447 C 0.80004 0.27785 0.67976 0.0
C448 C 0.78179 0.24157 0.65617 0.0
C449 C 0.77807 0.25652 0.63503 0.0
C450 C 0.78585 0.2822 0.63574 0.0
C451 C 0.79667 0.29277 0.65841 0.0
C452 C 0.7219 0.15611 0.72675 0.0
H453 H 0.88515 0.27286 0.78621 0.0
H454 H 0.84762 0.26811 0.75634 0.0
H455 H 0.85181 0.18744 0.75903 0.0
H456 H 0.88877 0.19231 0.78919 0.0
H457 H 0.83319 0.2542 0.71384 0.0
H458 H 0.80683 0.19321 0.75975 0.0
H459 H 0.76175 0.21255 0.69344 0.0
H460 H 0.72962 0.19476 0.71758 0.0
H461 H 0.79498 0.15364 0.74388 0.0
H462 H 0.76674 0.11686 0.7499 0.0
H463 H 0.80816 0.28665 0.69701 0.0
H464 H 0.77625 0.22173 0.65452 0.0
H465 H 0.70155 0.15686 0.72159 0.0
H466 H 0.80271 0.31254 0.65958 0.0
H467 H 0.76892 0.24791 0.61812 0.0
C468 C 0.53685 0.59356 0.4474 0.0
C469 C 0.52448 0.61404 0.45683 0.0
C470 C 0.53783 0.5711 0.46089 0.0
C471 C 0.52689 0.56878 0.48439 0.0
C472 C 0.51367 0.58911 0.49315 0.0
C473 C 0.51196 0.61107 0.47929 0.0
C474 C 0.5303 0.54612 0.50052 0.0
C475 C 0.55255 0.5324 0.49992 0.0
C476 C 0.55702 0.51281 0.51695 0.0
C477 C 0.53948 0.50779 0.53566 0.0
C478 C 0.51731 0.52149 0.53682 0.0
C479 C 0.51229 0.53946 0.51828 0.0
C480 C 0.50044 0.51895 0.55843 0.0
C481 C 0.49475 0.49558 0.5696 0.0
C482 C 0.4905 0.54054 0.56861 0.0
C483 C 0.47512 0.53885 0.5891 0.0
C484 C 0.46942 0.51558 0.60019 0.0
C485 C 0.5806 0.49838 0.51569 0.0
C486 C 0.58922 0.49124 0.49232 0.0
C487 C 0.59478 0.49178 0.53769 0.0
C488 C 0.61699 0.47842 0.53635 0.0
C489 C 0.62569 0.47148 0.51297 0.0
C490 C 0.61147 0.47793 0.49099 0.0
C491 C 0.47949 0.49394 0.5904 0.0
H492 H 0.54646 0.59512 0.42998 0.0
H493 H 0.54757 0.55578 0.45302 0.0
H494 H 0.50527 0.58867 0.51121 0.0
H495 H 0.50135 0.62607 0.48664 0.0
H496 H 0.56708 0.53758 0.48693 0.0
H497 H 0.4944 0.54879 0.51825 0.0
H498 H 0.54333 0.49357 0.54958 0.0
H499 H 0.50197 0.47856 0.56224 0.0
H500 H 0.49508 0.559 0.56113 0.0
H501 H 0.46822 0.55591 0.59671 0.0
H502 H 0.57862 0.49573 0.475 0.0
H503 H 0.5889 0.49715 0.556 0.0
H504 H 0.47546 0.47579 0.59879 0.0
H505 H 0.61764 0.47279 0.47271 0.0
H506 H 0.6272 0.47325 0.55366 0.0
C507 C 0.47128 0.48653 0.90427 0.0
C508 C 0.48271 0.4912 0.88143 0.0
C509 C 0.48663 0.48423 0.92656 0.0
C510 C 0.51364 0.48688 0.92638 0.0
C511 C 0.52491 0.49193 0.90352 0.0
C512 C 0.50965 0.49396 0.88133 0.0
C513 C 0.53031 0.48382 0.94966 0.0
C514 C 0.52584 0.46338 0.96566 0.0
C515 C 0.54289 0.4592 0.9865 0.0
C516 C 0.56447 0.47602 0.9913 0.0
C517 C 0.56928 0.4966 0.97553 0.0
C518 C 0.55185 0.50045 0.95495 0.0
C519 C 0.59282 0.51369 0.98001 0.0
C520 C 0.60223 0.52051 0.00456 0.0
C521 C 0.60602 0.52352 0.95963 0.0
C522 C 0.62746 0.5403 0.96363 0.0
C523 C 0.63651 0.54733 0.98809 0.0
C524 C 0.53907 0.43641 0.00226 0.0
C525 C 0.51426 0.42746 0.00822 0.0
C526 C 0.56024 0.42281 0.01064 0.0
C527 C 0.55666 0.40064 0.02414 0.0
C528 C 0.53185 0.39136 0.02951 0.0
C529 C 0.51068 0.40514 0.02162 0.0
C530 C 0.62393 0.53708 0.00854 0.0
H531 H 0.45055 0.48409 0.90477 0.0
H532 H 0.47741 0.48042 0.94392 0.0
H533 H 0.54564 0.49374 0.90267 0.0
H534 H 0.51893 0.49757 0.86396 0.0
H535 H 0.50977 0.45003 0.96111 0.0
H536 H 0.55497 0.51652 0.94293 0.0
H537 H 0.57783 0.47279 0.00712 0.0
H538 H 0.59245 0.5136 0.02071 0.0
H539 H 0.59982 0.51827 0.9405 0.0
H540 H 0.63693 0.54792 0.94756 0.0
H541 H 0.49755 0.43756 0.00228 0.0
H542 H 0.57959 0.42883 0.00611 0.0
H543 H 0.63036 0.54253 0.02758 0.0
H544 H 0.49127 0.39826 0.02504 0.0
H545 H 0.57335 0.39044 0.02997 0.0
C546 C 0.62816 0.20107 0.20882 0.0
C547 C 0.62432 0.22524 0.19951 0.0
C548 C 0.64797 0.19725 0.22706 0.0
C549 C 0.66396 0.21762 0.23661 0.0
C550 C 0.65981 0.24185 0.22751 0.0
C551 C 0.64028 0.24559 0.20904 0.0
C552 C 0.68483 0.21382 0.25617 0.0
C553 C 0.70239 0.19505 0.25331 0.0
C554 C 0.72287 0.19224 0.27131 0.0
C555 C 0.72506 0.20806 0.2926 0.0
C556 C 0.70761 0.22679 0.29588 0.0
C557 C 0.68762 0.22958 0.27748 0.0
C558 C 0.71075 0.24362 0.31835 0.0
C559 C 0.71817 0.23389 0.34195 0.0
C560 C 0.70743 0.26959 0.3163 0.0
C561 C 0.71232 0.28552 0.33722 0.0
C562 C 0.72071 0.27575 0.36047 0.0
C563 C 0.74276 0.17372 0.26755 0.0
C564 C 0.73603 0.14953 0.2577 0.0
C565 C 0.76888 0.18027 0.27387 0.0
C566 C 0.78773 0.16325 0.27033 0.0
C567 C 0.78111 0.13929 0.26004 0.0
C568 C 0.75501 0.13246 0.25407 0.0
C569 C 0.72322 0.24978 0.3627 0.0
H570 H 0.61611 0.18509 0.20165 0.0
H571 H 0.65064 0.17842 0.23388 0.0
H572 H 0.67193 0.25787 0.23443 0.0
H573 H 0.6376 0.26442 0.2022 0.0
H574 H 0.7007 0.18337 0.23654 0.0
H575 H 0.67389 0.24377 0.27992 0.0
H576 H 0.74071 0.20601 0.30659 0.0
H577 H 0.72034 0.21396 0.34437 0.0
H578 H 0.70194 0.27774 0.29835 0.0
H579 H 0.71044 0.30553 0.33505 0.0
H580 H 0.71609 0.14374 0.25291 0.0
H581 H 0.77491 0.19878 0.2812 0.0
H582 H 0.72942 0.2418 0.38054 0.0
H583 H 0.74936 0.11409 0.24613 0.0
H584 H 0.80762 0.16892 0.27553 0.0
C585 C 0.49196 0.10718 0.00499 0.0
C586 C 0.48278 0.1078 0.02924 0.0
C587 C 0.48799 0.08569 0.98991 0.0
C588 C 0.4755 0.06368 -0.00113 0.0
C589 C 0.46727 0.06399 0.02358 0.0
C590 C 0.47041 0.08585 0.03834 0.0
C591 C 0.47044 0.04095 0.98224 0.0
C592 C 0.4867 0.03613 0.96284 0.0
C593 C 0.48122 0.01589 0.94597 0.0
C594 C 0.45989 -0.00076 0.94962 0.0
C595 C 0.44388 0.00309 0.96946 0.0
C596 C 0.44895 0.02426 0.98517 0.0
C597 C 0.42208 0.98487 0.97433 0.0
C598 C 0.40522 0.97514 0.95463 0.0
C599 C 0.41806 0.97709 -0.00098 0.0
C600 C 0.3979 0.95977 0.00389 0.0
C601 C 0.38124 0.94985 0.98422 0.0
C602 C 0.49793 0.01263 0.92458 0.0
C603 C 0.50703 0.03377 0.91136 0.0
C604 C 0.50573 0.98882 0.91775 0.0
C605 C 0.52301 0.9864 0.89881 0.0
C606 C 0.53278 0.00774 0.88637 0.0
C607 C 0.52429 0.03136 0.8926 0.0
C608 C 0.38487 0.95791 0.95957 0.0
H609 H 0.50185 0.12357 -0.00265 0.0
H610 H 0.49422 0.08676 0.97094 0.0
H611 H 0.45811 0.04745 0.03163 0.0
H612 H 0.4624 0.08563 0.0566 0.0
H613 H 0.504 0.04799 0.96087 0.0
H614 H 0.43564 0.02785 -0.00059 0.0
H615 H 0.45578 0.98327 0.9371 0.0
H616 H 0.40766 0.98099 0.93546 0.0
H617 H 0.4308 0.98409 0.01458 0.0
H618 H 0.39535 0.95406 0.02309 0.0
H619 H 0.50099 0.05232 0.91571 0.0
H620 H 0.49922 0.97217 0.92765 0.0
H621 H 0.37226 0.95049 0.94408 0.0
H622 H 0.53131 0.04809 0.88313 0.0
H623 H 0.52948 0.968 0.89457 0.0
Mg624 Mg 0.23724 0.85794 0.00663 0.0
O625 O 0.27649 0.87967 0.00258 0.0
O626 O 0.30609 0.85092 0.00501 0.0
Mg627 Mg 0.28673 0.81182 0.00933 0.0
C628 C 0.29991 0.87365 0.00265 0.0
C629 C 0.19385 0.89043 0.00958 0.0
O630 O 0.19018 0.87039 0.02346 0.0
O631 O 0.23709 0.84418 0.96562 0.0
O632 O 0.26685 0.81567 0.97018 0.0
O633 O 0.24251 0.85986 0.04885 0.0
O634 O 0.25446 0.82875 0.02561 0.0
C635 C 0.25042 0.82724 0.95657 0.0
C636 C 0.25293 0.83851 0.04747 0.0
O637 O 0.21409 0.89226 -0.00268 0.0
Mg638 Mg 0.14966 0.50437 0.27 0.0
O639 O 0.12451 0.49983 0.23268 0.0
O640 O 0.15161 0.49874 0.20187 0.0
Mg641 Mg 0.19284 0.50145 0.21842 0.0
C642 C 0.12883 0.49826 0.20938 0.0
C643 C 0.11678 0.49098 0.31583 0.0
O644 O 0.14003 0.48733 0.32549 0.0
O645 O 0.15947 0.4629 0.26908 0.0
O646 O 0.18657 0.46358 0.238 0.0
O647 O 0.1526 0.54628 0.26633 0.0
O648 O 0.18058 0.52156 0.25151 0.0
C649 C 0.17463 0.45199 0.25511 0.0
C650 C 0.1733 0.54401 0.25447 0.0
O651 O 0.11403 0.49675 0.29275 0.0
Mg652 Mg 0.77896 0.64729 0.01202 0.0
O653 O 0.74096 0.62254 0.0075 0.0
O654 O 0.70954 0.64918 0.00217 0.0
Mg655 Mg 0.72607 0.6896 0.0056 0.0
C656 C 0.71719 0.6269 0.00355 0.0
C657 C 0.82737 0.61928 0.00616 0.0
O658 O 0.83517 0.64315 0.00677 0.0
O659 O 0.77647 0.65657 0.96987 0.0
O660 O 0.74587 0.68425 0.96897 0.0
O661 O 0.77635 0.64991 0.0538 0.0
O662 O 0.75997 0.67675 0.02699 0.0
C663 C 0.76267 0.6723 0.95807 0.0
C664 C 0.76368 0.66985 0.04992 0.0
O665 O 0.80339 0.61362 0.00679 0.0
Mg666 Mg 0.89701 0.02882 0.23855 0.0
O667 O 0.87355 0.99083 0.2339 0.0
O668 O 0.90209 0.96152 0.22966 0.0
Mg669 Mg 0.94265 0.98011 0.23001 0.0
C670 C 0.87903 0.96794 0.23124 0.0
C671 C 0.86272 0.07158 0.24242 0.0
O672 O 0.88257 0.0792 0.22982 0.0
O673 O 0.91057 0.01879 0.27904 0.0
O674 O 0.93885 0.98993 0.2715 0.0
O675 O 0.89559 0.03375 0.19673 0.0
O676 O 0.92669 0.01568 0.21847 0.0
C677 C 0.92711 0.00323 0.28664 0.0
C678 C 0.91698 0.02258 0.19706 0.0
O679 O 0.86193 0.04913 0.25049 0.0
Mg680 Mg 0.27693 0.14836 0.51505 0.0
O681 O 0.23802 0.12511 0.51139 0.0
O682 O 0.20749 0.15294 0.50881 0.0
Mg683 Mg 0.2257 0.19279 0.51266 0.0
C684 C 0.21437 0.13034 0.50889 0.0
C685 C 0.32089 0.11523 0.52166 0.0
O686 O 0.3261 0.1353 0.53587 0.0
O687 O 0.2727 0.1587 0.47315 0.0
O688 O 0.24315 0.18729 0.47485 0.0
O689 O 0.27601 0.15007 0.5572 0.0
O690 O 0.25988 0.17809 0.53159 0.0
C691 C 0.25866 0.17502 0.46257 0.0
C692 C 0.26411 0.17058 0.55421 0.0
O693 O 0.29987 0.11387 0.5082 0.0
Mg694 Mg 0.401 0.52887 0.73693 0.0
O695 O 0.37587 0.49195 0.73136 0.0
O696 O 0.40214 0.46203 0.72184 0.0
Mg697 Mg 0.44353 0.47851 0.72268 0.0
C698 C 0.37975 0.46922 0.72562 0.0
C699 C 0.35559 0.56356 0.73644 0.0
O700 O 0.36386 0.56541 0.71374 0.0
O701 O 0.41576 0.51591 0.77613 0.0
O702 O 0.44228 0.487 0.7648 0.0
O703 O 0.39803 0.53588 0.69535 0.0
O704 O 0.42883 0.51518 0.71398 0.0
C705 C 0.43232 0.49969 0.78174 0.0
C706 C 0.41822 0.52326 0.69345 0.0
O707 O 0.36699 0.54932 0.75209 0.0
Mg708 Mg 0.73922 0.35755 0.50575 0.0
O709 O 0.77594 0.38291 0.49956 0.0
O710 O 0.80758 0.3567 0.49657 0.0
Mg711 Mg 0.793 0.31647 0.50331 0.0
C712 C 0.79939 0.37879 0.49603 0.0
C713 C 0.71348 0.4085 0.51201 0.0
O714 O 0.73113 0.41003 0.53066 0.0
O715 O 0.73727 0.34413 0.46454 0.0
O716 O 0.76877 0.31741 0.46628 0.0
O717 O 0.74631 0.35887 0.54772 0.0
O718 O 0.76097 0.33014 0.52355 0.0
C719 C 0.75029 0.32769 0.45426 0.0
C720 C 0.75918 0.33898 0.54583 0.0
O721 O 0.7128 0.38972 0.49712 0.0
Mg722 Mg 0.64727 0.00229 0.77169 0.0
O723 O 0.62206 -0.00159 0.73427 0.0
O724 O 0.64974 -0.00158 0.70382 0.0
Mg725 Mg 0.69085 0.00051 0.72044 0.0
C726 C 0.62683 -0.00218 0.71102 0.0
C727 C 0.61401 0.00611 0.81569 0.0
O728 O 0.63483 0.02073 0.82084 0.0
O729 O 0.65732 0.961 0.77016 0.0
O730 O 0.68454 0.96219 0.73921 0.0
O731 O 0.64946 0.04418 0.76877 0.0
O732 O 0.6779 0.02029 0.75342 0.0
C733 C 0.67253 0.95033 0.75609 0.0
C734 C 0.6701 0.04251 0.75667 0.0
O735 O 0.61229 0.99386 0.79507 0.0
Mg736 Mg 0.03141 0.25471 0.89065 0.0
O737 O 0.99344 0.24866 0.86657 0.0
O738 O 0.96352 0.23535 0.89249 0.0
Mg739 Mg 0.9816 0.23363 0.93253 0.0
C740 C 0.97029 0.24135 0.87059 0.0
C741 C 0.0754 0.26758 0.86039 0.0
O742 O 0.08283 0.25426 0.87987 0.0
O743 O 0.01801 0.29173 0.90624 0.0
O744 O 0.98932 0.27641 0.93254 0.0
O745 O 0.03944 0.21407 0.88603 0.0
O746 O 0.01903 0.22927 0.91734 0.0
C747 C 1.00181 0.29494 0.92293 0.0
C748 C 0.02753 0.2102 0.90637 0.0
O749 O 0.05199 0.27321 0.85836 0.0
Mg750 Mg 0.5331 0.75563 0.39171 0.0
O751 O 0.4949 0.75104 0.3677 0.0
O752 O 0.46476 0.7416 0.39489 0.0
Mg753 Mg 0.4834 0.73651 0.43443 0.0
C754 C 0.4714 0.74651 0.37268 0.0
C755 C 0.55334 0.77066 0.33642 0.0
O756 O 0.55574 0.77663 0.36026 0.0
O757 O 0.52082 0.79272 0.40786 0.0
O758 O 0.49375 0.77889 0.43662 0.0
O759 O 0.54047 0.71471 0.38698 0.0
O760 O 0.51981 0.7304 0.4178 0.0
C761 C 0.50634 0.79658 0.42584 0.0
C762 C 0.52848 0.71114 0.40734 0.0
O763 O 0.55529 0.7761 0.35982 0.0
Mg764 Mg 0.98944 0.74765 0.60123 0.0
O765 O 0.02677 0.7414 0.62513 0.0
O766 O 0.05701 0.73407 0.59848 0.0
Mg767 Mg 0.03903 0.73386 0.55818 0.0
C768 C 0.04989 0.73679 0.62078 0.0
C769 C 0.94601 0.75575 0.63409 0.0
O770 O 0.93659 0.74248 0.61448 0.0
O771 O 0.00505 0.78686 0.58936 0.0
O772 O 0.03282 0.77593 0.56147 0.0
O773 O 0.97873 0.70617 0.601 0.0
O774 O 1.00084 0.72554 0.57209 0.0
C775 C 0.02111 0.79268 0.57278 0.0
C776 C 0.99058 0.70501 0.58043 0.0
O777 O 0.96985 0.76249 0.6352 0.0
Mg778 Mg 0.48425 0.24707 0.10095 0.0
O779 O 0.52212 0.24199 0.12479 0.0
O780 O 0.55118 0.23324 0.09722 0.0
Mg781 Mg 0.5324 0.23086 0.05736 0.0
C782 C 0.54502 0.23723 0.11966 0.0
C783 C 0.46512 0.25985 0.15726 0.0
O784 O 0.46337 0.26616 0.13362 0.0
O785 O 0.49985 0.28526 0.08682 0.0
O786 O 0.52687 0.27324 0.05872 0.0
O787 O 0.47342 0.2058 0.10368 0.0
O788 O 0.49514 0.22309 0.07329 0.0
C789 C 0.51553 0.29043 0.06977 0.0
C790 C 0.48528 0.20319 0.08327 0.0
O791 O 0.46376 0.26566 0.13403 0.0
C792 C 0.21515 0.80674 0.89481 0.0
C793 C 0.23387 0.79351 0.88322 0.0
C794 C 0.221 0.81925 0.91792 0.0
C795 C 0.24572 0.81885 0.93005 0.0
H796 H 0.1956 0.80628 0.88666 0.0
H797 H 0.2057 0.82799 0.92699 0.0
S798 S 0.30241 0.79047 0.90483 0.0
N799 N 0.27861 0.78333 0.88375 0.0
N800 N 0.28981 0.80691 0.92684 0.0
C801 C 0.26499 0.80725 0.91752 0.0
C802 C 0.259 0.79454 0.89419 0.0
C803 C 0.07866 0.48489 0.37442 0.0
C804 C 0.05552 0.4959 0.36729 0.0
C805 C 0.09796 0.48266 0.35741 0.0
C806 C 0.0948 0.49112 0.33247 0.0
H807 H 0.08229 0.47877 0.39358 0.0
H808 H 0.11573 0.47471 0.36409 0.0
S809 S 0.03645 0.51915 0.30387 0.0
N810 N 0.02965 0.51378 0.33327 0.0
N811 N 0.0657 0.50949 0.30117 0.0
C812 C 0.07118 0.50116 0.32482 0.0
C813 C 0.05164 0.50362 0.34225 0.0
C814 C 0.75403 0.70314 0.89451 0.0
C815 C 0.77619 0.69746 0.88236 0.0
C816 C 0.74942 0.69388 0.91837 0.0
C817 C 0.76681 0.67856 0.93138 0.0
H818 H 0.74055 0.71579 0.88601 0.0
H819 H 0.73233 0.69954 0.92697 0.0
S820 S 0.82642 0.65573 0.90659 0.0
N821 N 0.81464 0.67363 0.88402 0.0
N822 N 0.80623 0.65645 0.92927 0.0
C823 C 0.78849 0.67166 0.91895 0.0
C824 C 0.79317 0.68112 0.89445 0.0
C825 C 0.95499 0.02131 0.35175 0.0
C826 C 0.95963 -0.00218 0.3625 0.0
C827 C 0.94243 0.02304 0.32782 0.0
C828 C 0.93471 0.00131 0.31366 0.0
H829 H 0.96187 0.03843 0.3616 0.0
H830 H 0.94022 0.04144 0.31973 0.0
S831 S 0.94102 0.93544 0.33399 0.0
N832 N 0.9541 0.95249 0.35787 0.0
N833 N 0.9312 0.95568 0.31266 0.0
C834 C 0.93833 0.97776 0.32464 0.0
C835 C 0.95062 0.97602 0.34914 0.0
C836 C 0.25035 0.18881 0.62102 0.0
C837 C 0.2438 0.21388 0.6184 0.0
C838 C 0.25634 0.17465 0.60007 0.0
C839 C 0.25618 0.18523 0.57589 0.0
H840 H 0.25096 0.18017 0.63937 0.0
H841 H 0.26138 0.1554 0.60289 0.0
S842 S 0.24221 0.25106 0.55996 0.0
N843 N 0.23839 0.24907 0.5904 0.0
N844 N 0.25017 0.22298 0.55113 0.0
C845 C 0.24985 0.21047 0.57326 0.0
C846 C 0.24355 0.22468 0.59451 0.0
C847 C 0.46466 0.50448 0.64525 0.0
C848 C 0.45422 0.51452 0.62285 0.0
C849 C 0.45241 0.50663 0.66782 0.0
C850 C 0.42913 0.51871 0.66881 0.0
H851 H 0.48304 0.49595 0.64557 0.0
H852 H 0.46184 0.49955 0.68473 0.0
S853 S 0.39249 0.54554 0.61444 0.0
N854 N 0.41836 0.5351 0.60242 0.0
N855 N 0.39514 0.53902 0.64468 0.0
C856 C 0.41785 0.52767 0.64618 0.0
C857 C 0.43044 0.52561 0.62326 0.0
C858 C 0.77098 0.32119 0.61439 0.0
C859 C 0.78209 0.29784 0.61291 0.0
C860 C 0.76477 0.3349 0.59266 0.0
C861 C 0.7693 0.32577 0.56857 0.0
H862 H 0.7661 0.3285 0.63237 0.0
H863 H 0.75548 0.35238 0.59479 0.0
S864 S 0.8007 0.26672 0.55489 0.0
N865 N 0.7999 0.26743 0.58574 0.0
N866 N 0.78709 0.29232 0.54497 0.0
C867 C 0.7814 0.30288 0.56701 0.0
C868 C 0.78805 0.28915 0.58914 0.0
C869 C 0.56306 0.97948 0.67525 0.0
C870 C 0.56639 0.99031 0.65152 0.0
C871 C 0.58225 0.98268 0.69488 0.0
C872 C 0.60546 0.99666 0.69135 0.0
H873 H 0.5459 0.96779 0.6784 0.0
H874 H 0.57931 0.97339 0.71258 0.0
S875 S 0.62182 0.03204 0.63413 0.0
N876 N 0.59332 0.01802 0.62672 0.0
N877 N 0.62944 0.02357 0.66322 0.0
C878 C 0.60841 0.00854 0.66812 0.0
C879 C 0.58888 0.00548 0.64832 0.0
C880 C 0.90825 0.22254 0.83258 0.0
C881 C 0.91084 0.23545 0.80989 0.0
C882 C 0.92757 0.22462 0.85196 0.0
C883 C 0.95046 0.23948 0.84937 0.0
H884 H 0.89095 0.21094 0.8355 0.0
H885 H 0.92451 0.21433 0.86908 0.0
S886 S 0.96682 0.27664 0.79317 0.0
N887 N 0.93801 0.26333 0.78558 0.0
N888 N 0.9746 0.26721 0.82194 0.0
C889 C 0.9534 0.25233 0.82658 0.0
C890 C 0.93351 0.25038 0.8069 0.0
C891 C 0.51372 0.85043 0.47205 0.0
C892 C 0.49832 0.86848 0.46064 0.0
C893 C 0.51693 0.82748 0.46011 0.0
C894 C 0.50529 0.82203 0.43616 0.0
H895 H 0.52254 0.85366 0.49078 0.0
H896 H 0.52812 0.81366 0.46992 0.0
S897 S 0.46432 0.86328 0.39761 0.0
N898 N 0.47204 0.87966 0.42363 0.0
N899 N 0.47854 0.83649 0.401 0.0
C900 C 0.49058 0.84012 0.42412 0.0
C901 C 0.48696 0.86339 0.43643 0.0
C902 C 0.10282 0.294 0.80058 0.0
C903 C 0.12862 0.2875 0.80296 0.0
C904 C 0.08574 0.28779 0.81932 0.0
C905 C 0.09381 0.27468 0.84101 0.0
H906 H 0.09588 0.30415 0.78424 0.0
H907 H 0.06606 0.29322 0.81671 0.0
S908 S 0.15927 0.2521 0.8552 0.0
N909 N 0.16115 0.26636 0.82794 0.0
N910 N 0.12947 0.25486 0.86318 0.0
C911 C 0.11959 0.26788 0.84336 0.0
C912 C 0.13687 0.27423 0.82434 0.0
C913 C 0.52189 0.64061 0.41779 0.0
C914 C 0.52559 0.63888 0.44413 0.0
C915 C 0.5228 0.66404 0.40576 0.0
C916 C 0.52691 0.68647 0.41973 0.0
H917 H 0.51805 0.62378 0.40642 0.0
H918 H 0.51994 0.66462 0.3855 0.0
S919 S 0.54074 0.6923 0.48858 0.0
N920 N 0.53625 0.66181 0.48332 0.0
N921 N 0.53648 0.70558 0.46089 0.0
C922 C 0.53097 0.68501 0.44592 0.0
C923 C 0.53069 0.6613 0.45808 0.0
C924 C 0.88567 0.7583 0.67027 0.0
C925 C 0.89385 0.77218 0.69203 0.0
C926 C 0.90271 0.75328 0.65184 0.0
C927 C 0.92879 0.76192 0.65426 0.0
H928 H 0.86589 0.75093 0.66756 0.0
H929 H 0.89523 0.74237 0.63556 0.0
S930 S 0.95984 0.79983 0.70748 0.0
N931 N 0.92963 0.79506 0.71485 0.0
N932 N 0.96189 0.78548 0.68022 0.0
C933 C 0.93729 0.77595 0.67593 0.0
C934 C 0.91982 0.78106 0.69481 0.0
C935 C 0.04585 0.84872 0.53571 0.0
C936 C 0.03154 0.86851 0.54367 0.0
C937 C 0.0429 0.82473 0.54595 0.0
C938 C 0.02538 0.81923 0.5646 0.0
H939 H 0.05897 0.85156 0.52084 0.0
H940 H 0.05414 0.81022 0.53858 0.0
S941 S 0.98487 0.86517 0.59362 0.0
N942 N 1.00052 0.88166 0.57264 0.0
N943 N 0.99456 0.83631 0.5917 0.0
C944 C 0.0115 0.83909 0.57338 0.0
C945 C 0.01461 0.8637 0.56292 0.0
C946 C 0.11443 0.73672 0.65793 0.0
C947 C 0.10773 0.72862 0.68182 0.0
C948 C 0.09558 0.73934 0.63839 0.0
C949 C 0.06924 0.73442 0.64212 0.0
H950 H 0.13446 0.74062 0.65419 0.0
H951 H 0.10173 0.74538 0.62022 0.0
S952 S 0.04176 0.71353 0.70172 0.0
N953 N 0.07314 0.7161 0.70843 0.0
N954 N 0.03754 0.72147 0.67192 0.0
C955 C 0.06229 0.72677 0.66616 0.0
C956 C 0.08157 0.72372 0.68593 0.0
C957 C 0.99205 0.63577 0.56373 0.0
C958 C 0.98784 0.63565 0.53734 0.0
C959 C 0.9931 0.65825 0.57772 0.0
C960 C 0.99064 0.68146 0.56576 0.0
H961 H 0.99454 0.61836 0.57371 0.0
H962 H 0.99605 0.65749 0.59797 0.0
S963 S 0.97738 0.69167 0.49762 0.0
N964 N 0.97923 0.661 0.50023 0.0
N965 N 0.98283 0.70312 0.52636 0.0
C966 C 0.98658 0.68172 0.5395 0.0
C967 C 0.98481 0.65887 0.52533 0.0
C968 C 0.81531 0.93177 0.21459 0.0
C969 C 0.81881 0.90823 0.22583 0.0
C970 C 0.83457 0.95132 0.21694 0.0
C971 C 0.85816 0.9479 0.2303 0.0
H972 H 0.79781 0.93493 0.20336 0.0
H973 H 0.8313 0.96893 0.20758 0.0
S974 S 0.87573 0.89127 0.26602 0.0
N975 N 0.84672 0.88378 0.25314 0.0
N976 N 0.88315 0.92011 0.25669 0.0
C977 C 0.86161 0.92481 0.24227 0.0
C978 C 0.8419 0.9051 0.24024 0.0
C979 C 0.80025 0.09698 0.26344 0.0
C980 C 0.80161 0.12194 0.25492 0.0
C981 C 0.82005 0.08079 0.25945 0.0
C982 C 0.84186 0.0889 0.24662 0.0
H983 H 0.78398 0.09005 0.27364 0.0
H984 H 0.81823 0.06181 0.26653 0.0
S985 S 0.85364 0.15223 0.21912 0.0
N986 N 0.82579 0.15362 0.23204 0.0
N987 N 0.86295 0.12362 0.22469 0.0
C988 C 0.84313 0.11378 0.23766 0.0
C989 C 0.82304 0.13016 0.24177 0.0
C990 C 0.33485 0.93395 0.98156 0.0
C991 C 0.36063 0.93052 0.98941 0.0
C992 C 0.31519 0.91581 0.98649 0.0
C993 C 0.32068 0.89338 -0.00094 0.0
H994 H 0.32983 0.95085 0.97168 0.0
H995 H 0.29564 0.91918 0.97993 0.0
S996 S 0.38533 0.87556 0.02341 0.0
N997 N 0.39068 0.90321 0.01035 0.0
N998 N 0.354 0.86912 0.01956 0.0
C999 C 0.34647 0.88986 0.00705 0.0
C1000 C 0.36636 0.90841 0.00225 0.0
C1001 C 0.20489 0.39862 0.2897 0.0
C1002 C 0.20858 0.38167 0.27013 0.0
C1003 C 0.19147 0.42041 0.28516 0.0
C1004 C 0.18192 0.42619 0.26079 0.0
H1005 H 0.21327 0.39547 0.30842 0.0
H1006 H 0.19022 0.43367 0.30044 0.0
S1007 S 0.18493 0.38695 0.20361 0.0
N1008 N 0.19996 0.3711 0.226 0.0
N1009 N 0.17556 0.41247 0.21728 0.0
C1010 C 0.18445 0.40878 0.24136 0.0
C1011 C 0.19759 0.38639 0.24609 0.0
C1012 C 0.15077 0.09643 0.48757 0.0
C1013 C 0.15343 0.07188 0.49632 0.0
C1014 C 0.17055 0.1151 0.49191 0.0
C1015 C 0.19398 0.10987 0.50482 0.0
H1016 H 0.1331 0.10133 0.47753 0.0
H1017 H 0.16748 0.13376 0.48482 0.0
S1018 S 0.21066 0.04812 0.531 0.0
N1019 N 0.18115 0.04305 0.51825 0.0
N1020 N 0.21869 0.07804 0.52608 0.0
C1021 C 0.197 0.08523 0.5134 0.0
C1022 C 0.17661 0.06628 0.50929 0.0
C1023 C 0.69162 0.11143 0.74973 0.0
C1024 C 0.7151 0.11046 0.73819 0.0
C1025 C 0.67676 0.08941 0.75469 0.0
C1026 C 0.68484 0.06549 0.74845 0.0
H1027 H 0.68509 0.12926 0.75584 0.0
H1028 H 0.65919 0.0912 0.76425 0.0
S1029 S 0.74371 0.05306 0.71543 0.0
N1030 N 0.74445 0.0839 0.71825 0.0
N1031 N 0.71747 0.0426 0.72876 0.0
C1032 C 0.70788 0.06442 0.73605 0.0
C1033 C 0.72275 0.08685 0.73064 0.0
C1034 C 0.37727 0.07696 0.5428 0.0
C1035 C 0.37485 0.05596 0.52668 0.0
C1036 C 0.35982 0.09592 0.54075 0.0
C1037 C 0.33901 0.09466 0.5226 0.0
H1038 H 0.39298 0.07891 0.55703 0.0
H1039 H 0.36271 0.11165 0.55373 0.0
S1040 S 0.32393 0.0432 0.47596 0.0
N1041 N 0.35006 0.03472 0.492 0.0
N1042 N 0.31701 0.07038 0.48813 0.0
C1043 C 0.33631 0.07368 0.5063 0.0
C1044 C 0.35431 0.05437 0.5083 0.0
C1045 C 0.6484 0.43524 0.49626 0.0
C1046 C 0.64909 0.45688 0.51154 0.0
C1047 C 0.66965 0.42026 0.49578 0.0
C1048 C 0.69246 0.42629 0.5106 0.0
H1049 H 0.63101 0.42936 0.48516 0.0
H1050 H 0.6678 0.40338 0.48428 0.0
S1051 S 0.70519 0.48281 0.55143 0.0
N1052 N 0.67527 0.48492 0.54002 0.0
N1053 N 0.71509 0.45673 0.53939 0.0
C1054 C 0.69375 0.44849 0.52516 0.0
C1055 C 0.67211 0.46375 0.5256 0.0
C1056 C 0.75326 0.29084 0.39382 0.0
C1057 C 0.72854 0.29236 0.38226 0.0
C1058 C 0.76048 0.30366 0.41627 0.0
C1059 C 0.74318 0.31841 0.42829 0.0
H1060 H 0.76696 0.27904 0.38579 0.0
H1061 H 0.77957 0.30118 0.42468 0.0
S1062 S 0.67667 0.33014 0.40426 0.0
N1063 N 0.68723 0.31106 0.38318 0.0
N1064 N 0.70063 0.33518 0.42571 0.0
C1065 C 0.71879 0.32124 0.41612 0.0
C1066 C 0.71149 0.30818 0.39304 0.0
C1067 C 0.5758 0.02157 0.87163 0.0
C1068 C 0.5532 0.006 0.86822 0.0
C1069 C 0.59527 0.0211 0.85471 0.0
C1070 C 0.59298 0.00515 0.83345 0.0
H1071 H 0.57853 0.03424 0.88763 0.0
H1072 H 0.6122 0.03362 0.85833 0.0
S1073 S 0.53733 0.96064 0.81593 0.0
N1074 N 0.52944 0.97409 0.84213 0.0
N1075 N 0.56605 0.97317 0.81008 0.0
C1076 C 0.57047 0.98929 0.82987 0.0
C1077 C 0.55063 0.98969 0.84732 0.0
C1078 C 0.2879 0.18457 0.39929 0.0
C1079 C 0.27069 0.20029 0.38663 0.0
C1080 C 0.28329 0.17529 0.42334 0.0
C1081 C 0.26137 0.18155 0.4357 0.0
H1082 H 0.3054 0.1799 0.3908 0.0
H1083 H 0.29756 0.16402 0.43267 0.0
S1084 S 0.2095 0.22089 0.40992 0.0
N1085 N 0.23043 0.22099 0.38793 0.0
N1086 N 0.22129 0.20306 0.43247 0.0
C1087 C 0.24341 0.1963 0.42266 0.0
C1088 C 0.24818 0.20579 0.39832 0.0
C1089 C 0.47292 0.47645 0.83737 0.0
C1090 C 0.4671 0.49203 0.85728 0.0
C1091 C 0.46065 0.47841 0.8135 0.0
C1092 C 0.44213 0.49627 0.8083 0.0
H1093 H 0.48752 0.4629 0.84017 0.0
H1094 H 0.46643 0.46619 0.79884 0.0
S1095 S 0.41883 0.54049 0.85476 0.0
N1096 N 0.44068 0.52495 0.87095 0.0
N1097 N 0.41754 0.52891 0.82589 0.0
C1098 C 0.43532 0.51131 0.82842 0.0
C1099 C 0.44781 0.50912 0.85292 0.0
C1100 C 0.75167 0.69045 0.11642 0.0
C1101 C 0.74209 0.71435 0.11286 0.0
C1102 C 0.75776 0.6758 0.09588 0.0
C1103 C 0.75483 0.6847 0.07109 0.0
H1104 H 0.75465 0.68314 0.13522 0.0
H1105 H 0.7653 0.65758 0.09955 0.0
S1106 S 0.7317 0.74697 0.05229 0.0
N1107 N 0.73035 0.74656 0.08311 0.0
N1108 N 0.74246 0.71965 0.04458 0.0
C1109 C 0.74524 0.70869 0.06744 0.0
C1110 C 0.73873 0.72336 0.08831 0.0
C1111 C 0.93048 0.01163 0.12871 0.0
C1112 C 0.95713 0.01741 0.12873 0.0
C1113 C 0.91745 0.01299 0.15099 0.0
C1114 C 0.93084 0.01948 0.17399 0.0
H1115 H 0.91957 0.00683 0.11126 0.0
H1116 H 0.8968 0.00905 0.15021 0.0
S1117 S 1.00076 0.03622 0.18378 0.0
N1118 N 0.99637 0.03001 0.15341 0.0
N1119 N 0.97218 0.03174 0.19534 0.0
C1120 C 0.95759 0.02469 0.17424 0.0
C1121 C 0.97066 0.02387 0.15157 0.0
C1122 C 0.28414 0.8225 0.11112 0.0
C1123 C 0.27636 0.79689 0.11357 0.0
C1124 C 0.27634 0.83619 0.0898 0.0
C1125 C 0.26094 0.82455 0.07009 0.0
H1126 H 0.29659 0.83194 0.12562 0.0
H1127 H 0.28279 0.85578 0.0885 0.0
S1128 S 0.23273 0.75916 0.06841 0.0
N1129 N 0.25 0.76145 0.09536 0.0
N1130 N 0.23661 0.7868 0.05494 0.0
C1131 C 0.25266 0.79924 0.07245 0.0
C1132 C 0.26005 0.78549 0.09427 0.0
C1133 C 0.09192 0.5004 0.14606 0.0
C1134 C 0.0678 0.48853 0.15034 0.0
C1135 C 0.11114 0.50385 0.16539 0.0
C1136 C 0.1071 0.49583 0.19003 0.0
H1137 H 0.09609 0.507 0.12747 0.0
H1138 H 0.12945 0.51283 0.1609 0.0
S1139 S 0.04727 0.46391 0.21146 0.0
N1140 N 0.04086 0.46874 0.18122 0.0
N1141 N 0.07691 0.4758 0.2178 0.0
C1142 C 0.08283 0.48455 0.19485 0.0
C1143 C 0.06323 0.48079 0.17499 0.0
C1144 C 0.43649 0.73656 0.30847 0.0
C1145 C 0.41139 0.74329 0.31266 0.0
C1146 C 0.45607 0.73842 0.32775 0.0
C1147 C 0.45106 0.74651 0.35205 0.0
H1148 H 0.44096 0.72966 0.29019 0.0
H1149 H 0.47505 0.73274 0.3238 0.0
S1150 S 0.38864 0.76703 0.3724 0.0
N1151 N 0.38274 0.75904 0.34258 0.0
N1152 N 0.41932 0.76224 0.3789 0.0
C1153 C 0.4261 0.75366 0.35632 0.0
C1154 C 0.40633 0.75215 0.33661 0.0
C1155 C 0.97609 0.34635 0.9622 0.0
C1156 C 0.99219 0.36761 0.95746 0.0
C1157 C 0.97888 0.32339 0.95023 0.0
C1158 C 0.99797 0.3205 0.93294 0.0
H1159 H 0.9617 0.34719 0.97598 0.0
H1160 H 0.96622 0.3076 0.95515 0.0
S1161 S 0.04352 0.37121 0.91209 0.0
N1162 N 0.02664 0.38502 0.93287 0.0
N1163 N 0.03221 0.34164 0.91047 0.0
C1164 C 0.01361 0.34191 0.92725 0.0
C1165 C 0.01071 0.36544 0.93953 0.0
C1166 C 0.58991 0.79041 0.27972 0.0
C1167 C 0.61585 0.78822 0.28812 0.0
C1168 C 0.56977 0.78458 0.29547 0.0
C1169 C 0.57486 0.77695 0.32032 0.0
H1170 H 0.58511 0.79679 0.26087 0.0
H1171 H 0.5501 0.78641 0.28827 0.0
S1172 S 0.63896 0.76528 0.35064 0.0
N1173 N 0.64512 0.77535 0.3223 0.0
N1174 N 0.60746 0.7656 0.3521 0.0
C1175 C 0.60061 0.77429 0.32887 0.0
C1176 C 0.62104 0.77969 0.31274 0.0
C1177 C 0.02751 0.16027 0.95607 0.0
C1178 C 0.0224 0.13768 0.94238 0.0
C1179 C 0.0285 0.18351 0.94413 0.0
C1180 C 0.02521 0.18521 0.91792 0.0
H1181 H 0.03117 0.16009 0.97626 0.0
H1182 H 0.03258 0.2003 0.95554 0.0
S1183 S 0.01037 0.13237 0.87312 0.0
N1184 N 0.01263 0.11886 0.90092 0.0
N1185 N 0.01615 0.16278 0.87841 0.0
C1186 C 0.02029 0.16301 0.9038 0.0
C1187 C 0.01855 0.1392 0.91603 0.0
C1188 C 0.42992 0.27666 0.21479 0.0
C1189 C 0.40377 0.27414 0.20621 0.0
C1190 C 0.44965 0.27198 0.19881 0.0
C1191 C 0.44402 0.2652 0.17354 0.0
H1192 H 0.43524 0.28239 0.23399 0.0
H1193 H 0.46947 0.27397 0.20621 0.0
S1194 S 0.37889 0.25323 0.14232 0.0
N1195 N 0.3735 0.26195 0.17117 0.0
N1196 N 0.41047 0.2544 0.14103 0.0
C1197 C 0.41802 0.2623 0.16474 0.0
C1198 C 0.39796 0.26652 0.18108 0.0
C1199 C 0.5407 0.34591 0.0321 0.0
C1200 C 0.52809 0.36631 0.04135 0.0
C1201 C 0.53687 0.32178 0.04185 0.0
C1202 C 0.52019 0.31683 0.06132 0.0
H1203 H 0.55323 0.34845 0.0167 0.0
H1204 H 0.54687 0.30682 0.0336 0.0
S1205 S 0.48386 0.36431 0.09338 0.0
N1206 N 0.49932 0.38045 0.07202 0.0
N1207 N 0.49179 0.33495 0.0903 0.0
C1208 C 0.50786 0.33724 0.0712 0.0
C1209 C 0.51182 0.36194 0.06119 0.0
C1210 C 0.57819 0.22239 0.1829 0.0
C1211 C 0.60418 0.22916 0.17933 0.0
C1212 C 0.55896 0.22582 0.16381 0.0
C1213 C 0.56519 0.23558 0.14031 0.0
H1214 H 0.5727 0.21447 0.2006 0.0
H1215 H 0.53921 0.22015 0.16724 0.0
S1216 S 0.63049 0.2565 0.12181 0.0
N1217 N 0.63511 0.2465 0.15089 0.0
N1218 N 0.59923 0.25252 0.11487 0.0
C1219 C 0.59114 0.24254 0.13665 0.0
C1220 C 0.61057 0.23945 0.15619 0.0
C1221 C 0.4806 0.1546 0.03133 0.0
C1222 C 0.48456 0.13184 0.04394 0.0
C1223 C 0.48161 0.17752 0.04428 0.0
C1224 C 0.48587 0.17867 0.07049 0.0
H1225 H 0.47616 0.15477 0.01124 0.0
H1226 H 0.47824 0.19444 0.0337 0.0
S1227 S 0.49909 0.12539 0.11263 0.0
N1228 N 0.49488 0.11249 0.08435 0.0
N1229 N 0.49502 0.15565 0.10877 0.0
C1230 C 0.48991 0.15633 0.08352 0.0
C1231 C 0.48964 0.13292 0.07024 0.0
C1232 C 0.33963 0.41022 0.70552 0.0
C1233 C 0.31783 0.41109 0.71977 0.0
C1234 C 0.35923 0.4293 0.70729 0.0
C1235 C 0.35779 0.45025 0.72319 0.0
H1236 H 0.34165 0.39456 0.69291 0.0
H1237 H 0.37572 0.42757 0.69609 0.0
S1238 S 0.30495 0.46159 0.76472 0.0
N1239 N 0.29612 0.43456 0.75063 0.0
N1240 N 0.33272 0.47083 0.75343 0.0
C1241 C 0.33586 0.45172 0.73716 0.0
C1242 C 0.31596 0.43207 0.73556 0.0
C1243 C 0.31368 0.60351 0.77492 0.0
C1244 C 0.29644 0.61294 0.75646 0.0
C1245 C 0.33213 0.58663 0.7686 0.0
C1246 C 0.3343 0.57907 0.74351 0.0
H1247 H 0.31302 0.60937 0.79433 0.0
H1248 H 0.34531 0.58017 0.78331 0.0
S1249 S 0.29332 0.59828 0.68832 0.0
N1250 N 0.28237 0.61321 0.71229 0.0
N1251 N 0.31693 0.58187 0.70027 0.0
C1252 C 0.31682 0.58814 0.725 0.0
C1253 C 0.29793 0.60498 0.7315 0.0
C1254 C 0.85809 0.41376 0.47159 0.0
C1255 C 0.85635 0.43842 0.4804 0.0
C1256 C 0.83942 0.39485 0.47659 0.0
C1257 C 0.81798 0.39984 0.49033 0.0
H1258 H 0.87441 0.40888 0.46128 0.0
H1259 H 0.8419 0.37607 0.46963 0.0
S1260 S 0.80381 0.46181 0.5165 0.0
N1261 N 0.83121 0.4672 0.50286 0.0
N1262 N 0.79574 0.43164 0.51198 0.0
C1263 C 0.81561 0.42463 0.49868 0.0
C1264 C 0.83491 0.44389 0.49386 0.0
C1265 C 0.70416 0.89708 0.78944 0.0
C1266 C 0.70645 0.87982 0.76979 0.0
C1267 C 0.69077 0.91897 0.78545 0.0
C1268 C 0.67985 0.92453 0.76152 0.0
H1269 H 0.71366 0.89412 0.80772 0.0
H1270 H 0.69061 0.93246 0.80068 0.0
S1271 S 0.67891 0.8845 0.70447 0.0
N1272 N 0.69504 0.86874 0.72619 0.0
N1273 N 0.67073 0.91034 0.71843 0.0
C1274 C 0.681 0.90685 0.74208 0.0
C1275 C 0.69409 0.88434 0.74629 0.0
C1276 C 0.65548 0.59045 0.98097 0.0
C1277 C 0.65785 0.56679 0.99203 0.0
C1278 C 0.67483 0.6096 0.98483 0.0
C1279 C 0.69756 0.60576 -0.00041 0.0
H1280 H 0.6383 0.59433 0.96955 0.0
H1281 H 0.67196 0.62757 0.97603 0.0
S1282 S 0.71339 0.54673 0.03207 0.0
N1283 N 0.68465 0.54025 0.01804 0.0
N1284 N 0.72143 0.57616 0.02499 0.0
C1285 C 0.70038 0.58197 0.01041 0.0
C1286 C 0.6804 0.56255 0.00677 0.0
C1287 C 0.19672 0.61235 0.24684 0.0
C1288 C 0.22049 0.6106 0.23594 0.0
C1289 C 0.18119 0.59078 0.25183 0.0
C1290 C 0.18882 0.56653 0.24626 0.0
H1291 H 0.19044 0.63048 0.25235 0.0
H1292 H 0.16341 0.59317 0.26085 0.0
S1293 S 0.24836 0.552 0.21531 0.0
N1294 N 0.24978 0.58291 0.21752 0.0
N1295 N 0.22148 0.54243 0.22804 0.0
C1296 C 0.21221 0.56465 0.23459 0.0
C1297 C 0.2278 0.58664 0.22918 0.0
C1298 C 0.85749 0.55701 0.01959 0.0
C1299 C 0.88359 0.56247 0.01538 0.0
C1300 C 0.83923 0.57517 0.01562 0.0
C1301 C 0.84647 0.59959 0.00769 0.0
H1302 H 0.85118 0.53858 0.02607 0.0
H1303 H 0.81943 0.5702 0.01949 0.0
S1304 S 0.91255 0.62309 0.99382 0.0
N1305 N 0.91577 0.59374 0.00257 0.0
N1306 N 0.88167 0.62791 0.99519 0.0
C1307 C 0.87252 0.60509 0.00307 0.0
C1308 C 0.89101 0.58654 0.0069 0.0
C1309 C 0.13579 0.92551 0.02611 0.0
C1310 C 0.137 0.94697 0.01099 0.0
C1311 C 0.15421 0.90753 0.02528 0.0
C1312 C 0.17481 0.91019 0.00936 0.0
H1313 H 0.12025 0.9224 0.03855 0.0
H1314 H 0.15217 0.89137 0.03737 0.0
S1315 S 0.18708 0.9635 0.96635 0.0
N1316 N 0.16059 0.97028 0.97984 0.0
N1317 N 0.19542 0.93638 0.97823 0.0
C1318 C 0.17636 0.93167 0.99415 0.0
C1319 C 0.15739 0.95003 0.99493 0.0
loop_
_geom_bond_atom_site_label_1
_geom_bond_atom_site_label_2
_geom_bond_distance
_geom_bond_site_symmetry_2
_ccdc_geom_bond_type
C0 C1 1.386 . S
C0 C2 1.397 . S
C0 H24 0.931 . S
C1 C0 1.386 . S
C1 C5 1.397 . S
C2 C0 1.397 . S
C2 C3 1.384 . S
C2 H25 0.930 . S
C3 C2 1.384 . S
C3 C4 1.377 1_556 S
C3 C6 1.481 1_556 S
C4 C3 1.377 1_554 S
C4 C5 1.389 1_554 S
C4 H26 0.929 . S
C5 C1 1.397 . S
C5 C4 1.389 1_556 S
C5 H27 0.931 . S
C6 C3 1.481 1_554 S
C6 C7 1.387 . S
C6 C11 1.390 . S
C7 C6 1.387 . S
C7 C8 1.401 . S
C7 H28 0.930 1_554 S
C8 C7 1.401 . S
C8 C9 1.376 . S
C8 C17 1.511 . S
C9 C8 1.376 . S
C9 C10 1.392 . S
C9 H30 0.931 . S
C10 C9 1.392 . S
C10 C11 1.361 . S
C10 C12 1.500 . S
C11 C6 1.390 . S
C11 C10 1.361 . S
C11 H29 0.931 . S
C12 C10 1.500 . S
C12 C13 1.371 1_455 S
C12 C14 1.365 1_455 S
C13 C12 1.371 1_655 S
C13 C23 1.386 . S
C13 H31 0.930 1_645 S
C14 C12 1.365 1_655 S
C14 C15 1.409 . S
C14 H32 0.929 . S
C15 C14 1.409 . S
C15 C16 1.380 . S
C15 H33 0.930 . S
C16 C15 1.380 . S
C16 C23 1.357 . S
C17 C8 1.511 . S
C17 C18 1.341 1_554 S
C17 C19 1.371 1_545 S
C18 C17 1.341 1_556 S
C18 C22 1.389 1_545 S
C18 H34 0.934 . S
C19 C17 1.371 1_565 S
C19 C20 1.392 . S
C19 H35 0.931 . S
C20 C19 1.392 . S
C20 C21 1.331 . S
C20 H38 0.932 . S
C21 C20 1.331 . S
C21 C22 1.336 1_554 S
C22 C18 1.389 1_565 S
C22 C21 1.336 1_556 S
C22 H37 0.929 . S
C23 C13 1.386 . S
C23 C16 1.357 . S
C23 H36 0.928 1_545 S
H24 C0 0.931 . S
H25 C2 0.930 . S
H26 C4 0.929 . S
H27 C5 0.931 . S
H28 C7 0.930 1_556 S
H29 C11 0.931 . S
H30 C9 0.931 . S
H31 C13 0.930 1_465 S
H32 C14 0.929 . S
H33 C15 0.930 . S
H34 C18 0.934 . S
H35 C19 0.931 . S
H36 C23 0.928 1_565 S
H37 C22 0.929 . S
H38 C20 0.932 . S
C39 C40 1.386 . S
C39 C41 1.397 . S
C39 H63 0.931 . S
C40 C39 1.386 . S
C40 C44 1.397 . S
C41 C39 1.397 . S
C41 C42 1.384 . S
C41 H64 0.930 . S
C42 C41 1.384 . S
C42 C43 1.377 . S
C42 C45 1.481 . S
C43 C42 1.377 . S
C43 C44 1.389 . S
C43 H65 0.929 . S
C44 C40 1.397 . S
C44 C43 1.389 . S
C44 H66 0.931 . S
C45 C42 1.481 . S
C45 C46 1.387 . S
C45 C50 1.390 . S
C46 C45 1.387 . S
C46 C47 1.401 . S
C46 H67 0.930 . S
C47 C46 1.401 . S
C47 C48 1.376 . S
C47 C56 1.511 . S
C48 C47 1.376 . S
C48 C49 1.392 . S
C48 H69 0.931 . S
C49 C48 1.392 . S
C49 C50 1.361 . S
C49 C51 1.500 . S
C50 C45 1.390 . S
C50 C49 1.361 . S
C50 H68 0.931 . S
C51 C49 1.500 . S
C51 C52 1.371 . S
C51 C53 1.365 . S
C52 C51 1.371 . S
C52 C62 1.386 . S
C52 H70 0.931 . S
C53 C51 1.365 . S
C53 C54 1.409 . S
C53 H71 0.929 . S
C54 C53 1.409 . S
C54 C55 1.380 . S
C54 H72 0.930 . S
C55 C54 1.380 . S
C55 C62 1.357 . S
C56 C47 1.511 . S
C56 C57 1.341 . S
C56 C58 1.371 . S
C57 C56 1.341 . S
C57 C61 1.394 . S
C57 H73 0.930 . S
C58 C56 1.371 . S
C58 C59 1.392 . S
C58 H74 0.931 . S
C59 C58 1.392 . S
C59 C60 1.331 . S
C59 H77 0.932 . S
C60 C59 1.331 . S
C60 C61 1.336 . S
C61 C57 1.394 . S
C61 C60 1.336 . S
C61 H76 0.929 . S
C62 C52 1.386 . S
C62 C55 1.357 . S
C62 H75 0.928 . S
H63 C39 0.931 . S
H64 C41 0.930 . S
H65 C43 0.929 . S
H66 C44 0.931 . S
H67 C46 0.930 . S
H68 C50 0.931 . S
H69 C48 0.931 . S
H70 C52 0.931 . S
H71 C53 0.929 . S
H72 C54 0.930 . S
H73 C57 0.930 . S
H74 C58 0.931 . S
H75 C62 0.928 . S
H76 C61 0.929 . S
H77 C59 0.932 . S
C78 C79 1.386 . S
C78 C80 1.397 . S
C78 H102 0.931 . S
C79 C78 1.386 . S
C79 C83 1.397 . S
C80 C78 1.397 . S
C80 C81 1.384 . S
C80 H103 0.930 1_455 S
C81 C80 1.384 . S
C81 C82 1.377 . S
C81 C84 1.481 1_455 S
C82 C81 1.377 . S
C82 C83 1.389 . S
C82 H104 0.929 . S
C83 C79 1.397 . S
C83 C82 1.389 . S
C83 H105 0.931 . S
C84 C81 1.481 1_655 S
C84 C85 1.387 . S
C84 C89 1.390 . S
C85 C84 1.387 . S
C85 C86 1.401 . S
C85 H106 0.930 . S
C86 C85 1.401 . S
C86 C87 1.376 . S
C86 C95 1.511 . S
C87 C86 1.376 . S
C87 C88 1.392 . S
C87 H108 0.931 . S
C88 C87 1.392 . S
C88 C89 1.361 . S
C88 C90 1.500 . S
C89 C84 1.390 . S
C89 C88 1.361 . S
C89 H107 0.931 1_655 S
C90 C88 1.500 . S
C90 C91 1.359 1_554 S
C90 C92 1.365 1_655 S
C91 C90 1.359 1_556 S
C91 C101 1.403 . S
C91 H109 0.927 1_556 S
C92 C90 1.365 1_455 S
C92 C93 1.409 1_554 S
C92 H110 0.929 . S
C93 C92 1.409 1_556 S
C93 C94 1.380 1_455 S
C93 H111 0.930 . S
C94 C93 1.380 1_655 S
C94 C101 1.357 . S
C95 C86 1.511 . S
C95 C96 1.341 . S
C95 C97 1.371 . S
C96 C95 1.341 . S
C96 C100 1.394 . S
C96 H112 0.930 . S
C97 C95 1.371 . S
C97 C98 1.392 . S
C97 H113 0.931 . S
C98 C97 1.392 . S
C98 C99 1.331 . S
C98 H116 0.932 1_554 S
C99 C98 1.331 . S
C99 C100 1.336 . S
C100 C96 1.394 . S
C100 C99 1.336 . S
C100 H115 0.929 . S
C101 C91 1.403 . S
C101 C94 1.357 . S
C101 H114 0.928 . S
H102 C78 0.931 . S
H103 C80 0.930 1_655 S
H104 C82 0.929 . S
H105 C83 0.931 . S
H106 C85 0.930 . S
H107 C89 0.931 1_455 S
H108 C87 0.931 . S
H109 C91 0.927 1_554 S
H110 C92 0.929 . S
H111 C93 0.930 . S
H112 C96 0.930 . S
H113 C97 0.931 . S
H114 C101 0.928 . S
H115 C100 0.929 . S
H116 C98 0.932 1_556 S
C117 C118 1.386 . S
C117 C119 1.397 . S
C117 H141 0.931 . S
C118 C117 1.386 . S
C118 C122 1.397 . S
C119 C117 1.397 . S
C119 C120 1.384 . S
C119 H142 0.930 . S
C120 C119 1.384 . S
C120 C121 1.377 . S
C120 C123 1.481 . S
C121 C120 1.377 . S
C121 C122 1.389 . S
C121 H143 0.929 . S
C122 C118 1.397 . S
C122 C121 1.389 . S
C122 H144 0.931 . S
C123 C120 1.481 . S
C123 C124 1.387 . S
C123 C128 1.390 . S
C124 C123 1.387 . S
C124 C125 1.401 . S
C124 H145 0.930 . S
C125 C124 1.401 . S
C125 C126 1.376 . S
C125 C134 1.511 . S
C126 C125 1.376 . S
C126 C127 1.392 . S
C126 H147 0.931 . S
C127 C126 1.392 . S
C127 C128 1.361 . S
C127 C129 1.500 . S
C128 C123 1.390 . S
C128 C127 1.361 . S
C128 H146 0.931 . S
C129 C127 1.500 . S
C129 C130 1.371 . S
C129 C131 1.365 . S
C130 C129 1.371 . S
C130 C140 1.386 . S
C130 H148 0.931 . S
C131 C129 1.365 . S
C131 C132 1.409 . S
C131 H149 0.929 . S
C132 C131 1.409 . S
C132 C133 1.380 . S
C132 H150 0.930 . S
C133 C132 1.380 . S
C133 C140 1.357 . S
C134 C125 1.511 . S
C134 C135 1.341 . S
C134 C136 1.371 . S
C135 C134 1.341 . S
C135 C139 1.394 . S
C135 H151 0.930 . S
C136 C134 1.371 . S
C136 C137 1.392 . S
C136 H152 0.931 . S
C137 C136 1.392 . S
C137 C138 1.331 . S
C137 H155 0.932 . S
C138 C137 1.331 . S
C138 C139 1.336 . S
C139 C135 1.394 . S
C139 C138 1.336 . S
C139 H154 0.929 . S
C140 C130 1.386 . S
C140 C133 1.357 . S
C140 H153 0.928 . S
H141 C117 0.931 . S
H142 C119 0.930 . S
H143 C121 0.929 . S
H144 C122 0.931 . S
H145 C124 0.930 . S
H146 C128 0.931 . S
H147 C126 0.931 . S
H148 C130 0.931 . S
H149 C131 0.929 . S
H150 C132 0.930 . S
H151 C135 0.930 . S
H152 C136 0.931 . S
H153 C140 0.928 . S
H154 C139 0.929 . S
H155 C137 0.932 . S
C156 C157 1.386 . S
C156 C158 1.397 . S
C156 H180 0.931 . S
C157 C156 1.386 . S
C157 C161 1.397 1_655 S
C158 C156 1.397 . S
C158 C159 1.384 1_655 S
C158 H181 0.930 . S
C159 C158 1.384 1_455 S
C159 C160 1.377 . S
C159 C162 1.481 . S
C160 C159 1.377 . S
C160 C161 1.389 . S
C160 H182 0.929 . S
C161 C157 1.397 1_455 S
C161 C160 1.389 . S
C161 H183 0.931 . S
C162 C159 1.481 . S
C162 C163 1.387 . S
C162 C167 1.390 . S
C163 C162 1.387 . S
C163 C164 1.401 . S
C163 H184 0.930 . S
C164 C163 1.401 . S
C164 C165 1.376 . S
C164 C173 1.511 . S
C165 C164 1.376 . S
C165 C166 1.392 . S
C165 H186 0.931 . S
C166 C165 1.392 . S
C166 C167 1.361 . S
C166 C168 1.500 1_565 S
C167 C162 1.390 . S
C167 C166 1.361 . S
C167 H185 0.931 1_565 S
C168 C166 1.500 1_545 S
C168 C169 1.371 . S
C168 C170 1.365 . S
C169 C168 1.371 . S
C169 C179 1.386 . S
C169 H187 0.931 . S
C170 C168 1.365 . S
C170 C171 1.409 . S
C170 H188 0.929 . S
C171 C170 1.409 . S
C171 C172 1.380 . S
C171 H189 0.930 . S
C172 C171 1.380 . S
C172 C179 1.357 . S
C173 C164 1.511 . S
C173 C174 1.341 . S
C173 C175 1.371 . S
C174 C173 1.341 . S
C174 C178 1.394 . S
C174 H190 0.930 . S
C175 C173 1.371 . S
C175 C176 1.392 . S
C175 H191 0.931 . S
C176 C175 1.392 . S
C176 C177 1.331 . S
C176 H194 0.932 . S
C177 C176 1.331 . S
C177 C178 1.336 . S
C178 C174 1.394 . S
C178 C177 1.336 . S
C178 H193 0.929 1_455 S
C179 C169 1.386 . S
C179 C172 1.357 . S
C179 H192 0.928 . S
H180 C156 0.931 . S
H181 C158 0.930 . S
H182 C160 0.929 . S
H183 C161 0.931 . S
H184 C163 0.930 . S
H185 C167 0.931 1_545 S
H186 C165 0.931 . S
H187 C169 0.931 . S
H188 C170 0.929 . S
H189 C171 0.930 . S
H190 C174 0.930 . S
H191 C175 0.931 . S
H192 C179 0.928 . S
H193 C178 0.929 1_655 S
H194 C176 0.932 . S
C195 C196 1.386 . S
C195 C197 1.397 . S
C195 H219 0.931 . S
C196 C195 1.386 . S
C196 C200 1.397 . S
C197 C195 1.397 . S
C197 C198 1.384 . S
C197 H220 0.930 . S
C198 C197 1.384 . S
C198 C199 1.377 . S
C198 C201 1.481 . S
C199 C198 1.377 . S
C199 C200 1.389 . S
C199 H221 0.929 . S
C200 C196 1.397 . S
C200 C199 1.389 . S
C200 H222 0.931 . S
C201 C198 1.481 . S
C201 C202 1.387 . S
C201 C206 1.390 . S
C202 C201 1.387 . S
C202 C203 1.401 . S
C202 H223 0.930 . S
C203 C202 1.401 . S
C203 C204 1.376 . S
C203 C212 1.511 . S
C204 C203 1.376 . S
C204 C205 1.392 . S
C204 H225 0.931 . S
C205 C204 1.392 . S
C205 C206 1.361 . S
C205 C207 1.500 . S
C206 C201 1.390 . S
C206 C205 1.361 . S
C206 H224 0.931 . S
C207 C205 1.500 . S
C207 C208 1.371 . S
C207 C209 1.365 . S
C208 C207 1.371 . S
C208 C218 1.386 . S
C208 H226 0.931 . S
C209 C207 1.365 . S
C209 C210 1.409 . S
C209 H227 0.929 . S
C210 C209 1.409 . S
C210 C211 1.380 . S
C210 H228 0.930 . S
C211 C210 1.380 . S
C211 C218 1.357 . S
C212 C203 1.511 . S
C212 C213 1.341 . S
C212 C214 1.371 . S
C213 C212 1.341 . S
C213 C217 1.394 . S
C213 H229 0.930 . S
C214 C212 1.371 . S
C214 C215 1.392 . S
C214 H230 0.931 . S
C215 C214 1.392 . S
C215 C216 1.331 . S
C215 H233 0.932 . S
C216 C215 1.331 . S
C216 C217 1.336 . S
C217 C213 1.394 . S
C217 C216 1.336 . S
C217 H232 0.929 . S
C218 C208 1.386 . S
C218 C211 1.357 . S
C218 H231 0.928 . S
H219 C195 0.931 . S
H220 C197 0.930 . S
H221 C199 0.929 . S
H222 C200 0.931 . S
H223 C202 0.930 . S
H224 C206 0.931 . S
H225 C204 0.931 . S
H226 C208 0.931 . S
H227 C209 0.929 . S
H228 C210 0.930 . S
H229 C213 0.930 . S
H230 C214 0.931 . S
H231 C218 0.928 . S
H232 C217 0.929 . S
H233 C215 0.932 . S
C234 C235 1.386 . S
C234 C236 1.397 . S
C234 H258 0.931 . S
C235 C234 1.386 . S
C235 C239 1.397 . S
C236 C234 1.397 . S
C236 C237 1.384 . S
C236 H259 0.930 . S
C237 C236 1.384 . S
C237 C238 1.377 . S
C237 C240 1.481 . S
C238 C237 1.377 . S
C238 C239 1.389 . S
C238 H260 0.929 . S
C239 C235 1.397 . S
C239 C238 1.389 . S
C239 H261 0.931 . S
C240 C237 1.481 . S
C240 C241 1.387 . S
C240 C245 1.390 . S
C241 C240 1.387 . S
C241 C242 1.401 . S
C241 H262 0.950 . S
C242 C241 1.401 . S
C242 C243 1.376 . S
C242 C251 1.519 . S
C243 C242 1.376 . S
C243 C244 1.392 . S
C243 H264 0.931 . S
C244 C243 1.392 . S
C244 C245 1.361 . S
C244 C246 1.500 . S
C245 C240 1.390 . S
C245 C244 1.361 . S
C245 H263 0.931 . S
C246 C244 1.500 . S
C246 C247 1.371 . S
C246 C248 1.365 . S
C247 C246 1.371 . S
C247 C257 1.386 . S
C247 H265 0.931 . S
C248 C246 1.365 . S
C248 C249 1.409 . S
C248 H266 0.929 . S
C249 C248 1.409 . S
C249 C250 1.380 . S
C249 H267 0.930 . S
C250 C249 1.380 . S
C250 C257 1.357 . S
C251 C242 1.519 . S
C251 C252 1.333 1_655 S
C251 C253 1.369 1_655 S
C252 C251 1.333 1_455 S
C252 C256 1.394 . S
C252 H268 0.930 . S
C253 C251 1.369 1_455 S
C253 C254 1.392 . S
C253 H269 0.931 1_455 S
C254 C253 1.392 . S
C254 C255 1.331 . S
C254 H272 0.932 . S
C255 C254 1.331 . S
C255 C256 1.336 . S
C256 C252 1.394 . S
C256 C255 1.336 . S
C256 H271 0.929 . S
C257 C247 1.386 . S
C257 C250 1.357 . S
C257 H270 0.928 . S
H258 C234 0.931 . S
H259 C236 0.930 . S
H260 C238 0.929 . S
H261 C239 0.931 . S
H262 C241 0.950 . S
H263 C245 0.931 . S
H264 C243 0.931 . S
H265 C247 0.931 . S
H266 C248 0.929 . S
H267 C249 0.930 . S
H268 C252 0.930 . S
H269 C253 0.931 1_655 S
H270 C257 0.928 . S
H271 C256 0.929 . S
H272 C254 0.932 . S
C273 C274 1.386 . S
C273 C275 1.397 . S
C273 H297 0.931 . S
C274 C273 1.386 . S
C274 C278 1.397 . S
C275 C273 1.397 . S
C275 C276 1.384 . S
C275 H298 0.930 . S
C276 C275 1.384 . S
C276 C277 1.377 . S
C276 C279 1.481 . S
C277 C276 1.377 . S
C277 C278 1.389 . S
C277 H299 0.929 . S
C278 C274 1.397 . S
C278 C277 1.389 . S
C278 H300 0.931 . S
C279 C276 1.481 . S
C279 C280 1.387 . S
C279 C284 1.390 . S
C280 C279 1.387 . S
C280 C281 1.401 . S
C280 H301 0.930 . S
C281 C280 1.401 . S
C281 C282 1.376 . S
C281 C290 1.511 . S
C282 C281 1.376 . S
C282 C283 1.392 . S
C282 H303 0.931 . S
C283 C282 1.392 . S
C283 C284 1.361 . S
C283 C285 1.500 . S
C284 C279 1.390 . S
C284 C283 1.361 . S
C284 H302 0.931 . S
C285 C283 1.500 . S
C285 C286 1.371 . S
C285 C287 1.365 . S
C286 C285 1.371 . S
C286 C296 1.386 . S
C286 H304 0.931 . S
C287 C285 1.365 . S
C287 C288 1.409 . S
C287 H305 0.929 . S
C288 C287 1.409 . S
C288 C289 1.380 . S
C288 H306 0.930 . S
C289 C288 1.380 . S
C289 C296 1.357 . S
C290 C281 1.511 . S
C290 C291 1.341 . S
C290 C292 1.371 . S
C291 C290 1.341 . S
C291 C295 1.394 . S
C291 H307 0.930 . S
C292 C290 1.371 . S
C292 C293 1.392 . S
C292 H308 0.931 . S
C293 C292 1.392 . S
C293 C294 1.331 . S
C293 H311 0.932 . S
C294 C293 1.331 . S
C294 C295 1.336 . S
C295 C291 1.394 . S
C295 C294 1.336 . S
C295 H310 0.929 . S
C296 C286 1.386 . S
C296 C289 1.357 . S
C296 H309 0.928 . S
H297 C273 0.931 . S
H298 C275 0.930 . S
H299 C277 0.929 . S
H300 C278 0.931 . S
H301 C280 0.930 . S
H302 C284 0.931 . S
H303 C282 0.931 . S
H304 C286 0.931 . S
H305 C287 0.929 . S
H306 C288 0.930 . S
H307 C291 0.930 . S
H308 C292 0.931 . S
H309 C296 0.928 . S
H310 C295 0.929 . S
H311 C293 0.932 . S
C312 C313 1.386 . S
C312 C314 1.397 . S
C312 H336 0.931 . S
C313 C312 1.386 . S
C313 C317 1.397 . S
C314 C312 1.397 . S
C314 C315 1.384 . S
C314 H337 0.930 . S
C315 C314 1.384 . S
C315 C316 1.377 . S
C315 C318 1.481 . S
C316 C315 1.377 . S
C316 C317 1.389 . S
C316 H338 0.929 . S
C317 C313 1.397 . S
C317 C316 1.389 . S
C317 H339 0.931 . S
C318 C315 1.481 . S
C318 C319 1.387 . S
C318 C323 1.390 . S
C319 C318 1.387 . S
C319 C320 1.401 . S
C319 H340 0.930 . S
C320 C319 1.401 . S
C320 C321 1.376 . S
C320 C329 1.511 . S
C321 C320 1.376 . S
C321 C322 1.392 . S
C321 H342 0.931 . S
C322 C321 1.392 . S
C322 C323 1.361 . S
C322 C324 1.500 . S
C323 C318 1.390 . S
C323 C322 1.361 . S
C323 H341 0.931 . S
C324 C322 1.500 . S
C324 C325 1.371 . S
C324 C326 1.365 . S
C325 C324 1.371 . S
C325 C335 1.386 . S
C325 H343 0.931 . S
C326 C324 1.365 . S
C326 C327 1.409 . S
C326 H344 0.929 . S
C327 C326 1.409 . S
C327 C328 1.380 . S
C327 H345 0.930 . S
C328 C327 1.380 . S
C328 C335 1.357 . S
C329 C320 1.511 . S
C329 C330 1.341 . S
C329 C331 1.371 . S
C330 C329 1.341 . S
C330 C334 1.394 . S
C330 H346 0.930 . S
C331 C329 1.371 . S
C331 C332 1.392 . S
C331 H347 0.931 . S
C332 C331 1.392 . S
C332 C333 1.331 . S
C332 H350 0.932 . S
C333 C332 1.331 . S
C333 C334 1.336 . S
C334 C330 1.394 . S
C334 C333 1.336 . S
C334 H349 0.929 . S
C335 C325 1.386 . S
C335 C328 1.357 . S
C335 H348 0.928 . S
H336 C312 0.931 . S
H337 C314 0.930 . S
H338 C316 0.929 . S
H339 C317 0.931 . S
H340 C319 0.930 . S
H341 C323 0.931 . S
H342 C321 0.931 . S
H343 C325 0.931 . S
H344 C326 0.929 . S
H345 C327 0.930 . S
H346 C330 0.930 . S
H347 C331 0.931 . S
H348 C335 0.928 . S
H349 C334 0.929 . S
H350 C332 0.932 . S
C351 C352 1.386 . S
C351 C353 1.397 . S
C351 H375 0.931 . S
C352 C351 1.386 . S
C352 C356 1.397 . S
C353 C351 1.397 . S
C353 C354 1.384 . S
C353 H376 0.930 . S
C354 C353 1.384 . S
C354 C355 1.377 . S
C354 C357 1.481 . S
C355 C354 1.377 . S
C355 C356 1.389 . S
C355 H377 0.929 . S
C356 C352 1.397 . S
C356 C355 1.389 . S
C356 H378 0.931 . S
C357 C354 1.481 . S
C357 C358 1.387 . S
C357 C362 1.390 . S
C358 C357 1.387 . S
C358 C359 1.401 . S
C358 H379 0.930 . S
C359 C358 1.401 . S
C359 C360 1.376 . S
C359 C368 1.524 . S
C360 C359 1.376 . S
C360 C361 1.392 . S
C360 H381 0.931 . S
C361 C360 1.392 . S
C361 C362 1.361 . S
C361 C363 1.500 . S
C362 C357 1.390 . S
C362 C361 1.361 . S
C362 H380 0.931 . S
C363 C361 1.500 . S
C363 C364 1.371 . S
C363 C365 1.365 . S
C364 C363 1.371 . S
C364 C374 1.386 . S
C364 H382 0.931 . S
C365 C363 1.365 . S
C365 C366 1.409 . S
C365 H383 0.929 . S
C366 C365 1.409 . S
C366 C367 1.380 . S
C366 H384 0.930 . S
C367 C366 1.380 . S
C367 C374 1.357 . S
C368 C359 1.524 . S
C368 C369 1.329 1_565 S
C368 C370 1.369 1_565 S
C369 C368 1.329 1_545 S
C369 C373 1.394 . S
C369 H385 0.930 . S
C370 C368 1.369 1_545 S
C370 C371 1.392 . S
C370 H386 0.931 1_545 S
C371 C370 1.392 . S
C371 C372 1.331 . S
C371 H389 0.932 . S
C372 C371 1.331 . S
C372 C373 1.336 . S
C373 C369 1.394 . S
C373 C372 1.336 . S
C373 H388 0.929 . S
C374 C364 1.386 . S
C374 C367 1.357 . S
C374 H387 0.928 . S
H375 C351 0.931 . S
H376 C353 0.930 . S
H377 C355 0.929 . S
H378 C356 0.931 . S
H379 C358 0.930 . S
H380 C362 0.931 . S
H381 C360 0.931 . S
H382 C364 0.931 . S
H383 C365 0.929 . S
H384 C366 0.930 . S
H385 C369 0.930 . S
H386 C370 0.931 1_565 S
H387 C374 0.928 . S
H388 C373 0.929 . S
H389 C371 0.932 . S
C390 C391 1.386 . S
C390 C392 1.397 . S
C390 H414 0.931 . S
C391 C390 1.386 . S
C391 C395 1.397 . S
C392 C390 1.397 . S
C392 C393 1.384 . S
C392 H415 0.930 . S
C393 C392 1.384 . S
C393 C394 1.377 . S
C393 C396 1.481 . S
C394 C393 1.377 . S
C394 C395 1.389 . S
C394 H416 0.929 . S
C395 C391 1.397 . S
C395 C394 1.389 . S
C395 H417 0.931 . S
C396 C393 1.481 . S
C396 C397 1.387 . S
C396 C401 1.390 . S
C397 C396 1.387 . S
C397 C398 1.401 . S
C397 H418 0.930 . S
C398 C397 1.401 . S
C398 C399 1.376 . S
C398 C407 1.511 . S
C399 C398 1.376 . S
C399 C400 1.392 . S
C399 H420 0.931 . S
C400 C399 1.392 . S
C400 C401 1.361 . S
C400 C402 1.500 . S
C401 C396 1.390 . S
C401 C400 1.361 . S
C401 H419 0.931 . S
C402 C400 1.500 . S
C402 C403 1.371 . S
C402 C404 1.365 . S
C403 C402 1.371 . S
C403 C413 1.386 . S
C403 H421 0.931 . S
C404 C402 1.365 . S
C404 C405 1.409 . S
C404 H422 0.929 . S
C405 C404 1.409 . S
C405 C406 1.380 . S
C405 H423 0.930 . S
C406 C405 1.380 . S
C406 C413 1.357 . S
C407 C398 1.511 . S
C407 C408 1.341 . S
C407 C409 1.371 . S
C408 C407 1.341 . S
C408 C412 1.394 . S
C408 H424 0.930 . S
C409 C407 1.371 . S
C409 C410 1.392 . S
C409 H425 0.931 . S
C410 C409 1.392 . S
C410 C411 1.331 . S
C410 H428 0.932 . S
C411 C410 1.331 . S
C411 C412 1.336 . S
C412 C408 1.394 . S
C412 C411 1.336 . S
C412 H427 0.929 . S
C413 C403 1.386 . S
C413 C406 1.357 . S
C413 H426 0.928 . S
H414 C390 0.931 . S
H415 C392 0.930 . S
H416 C394 0.929 . S
H417 C395 0.931 . S
H418 C397 0.930 . S
H419 C401 0.931 . S
H420 C399 0.931 . S
H421 C403 0.931 . S
H422 C404 0.929 . S
H423 C405 0.930 . S
H424 C408 0.930 . S
H425 C409 0.931 . S
H426 C413 0.928 . S
H427 C412 0.929 . S
H428 C410 0.932 . S
C429 C430 1.386 . S
C429 C431 1.397 . S
C429 H453 0.931 . S
C430 C429 1.386 . S
C430 C434 1.397 . S
C431 C429 1.397 . S
C431 C432 1.384 . S
C431 H454 0.930 . S
C432 C431 1.384 . S
C432 C433 1.377 . S
C432 C435 1.481 . S
C433 C432 1.377 . S
C433 C434 1.389 . S
C433 H455 0.929 . S
C434 C430 1.397 . S
C434 C433 1.389 . S
C434 H456 0.931 . S
C435 C432 1.481 . S
C435 C436 1.387 . S
C435 C440 1.390 . S
C436 C435 1.387 . S
C436 C437 1.401 . S
C436 H457 0.930 . S
C437 C436 1.401 . S
C437 C438 1.376 . S
C437 C446 1.511 . S
C438 C437 1.376 . S
C438 C439 1.392 . S
C438 H459 0.931 . S
C439 C438 1.392 . S
C439 C440 1.361 . S
C439 C441 1.500 . S
C440 C435 1.390 . S
C440 C439 1.361 . S
C440 H458 0.931 . S
C441 C439 1.500 . S
C441 C442 1.371 . S
C441 C443 1.365 . S
C442 C441 1.371 . S
C442 C452 1.386 . S
C442 H460 0.931 . S
C443 C441 1.365 . S
C443 C444 1.409 . S
C443 H461 0.929 . S
C444 C443 1.409 . S
C444 C445 1.380 . S
C444 H462 0.930 . S
C445 C444 1.380 . S
C445 C452 1.357 . S
C446 C437 1.511 . S
C446 C447 1.341 . S
C446 C448 1.371 . S
C447 C446 1.341 . S
C447 C451 1.394 . S
C447 H463 0.930 . S
C448 C446 1.371 . S
C448 C449 1.392 . S
C448 H464 0.931 . S
C449 C448 1.392 . S
C449 C450 1.331 . S
C449 H467 0.932 . S
C450 C449 1.331 . S
C450 C451 1.336 . S
C451 C447 1.394 . S
C451 C450 1.336 . S
C451 H466 0.929 . S
C452 C442 1.386 . S
C452 C445 1.357 . S
C452 H465 0.928 . S
H453 C429 0.931 . S
H454 C431 0.930 . S
H455 C433 0.929 . S
H456 C434 0.931 . S
H457 C436 0.930 . S
H458 C440 0.931 . S
H459 C438 0.931 . S
H460 C442 0.931 . S
H461 C443 0.929 . S
H462 C444 0.930 . S
H463 C447 0.930 . S
H464 C448 0.931 . S
H465 C452 0.928 . S
H466 C451 0.929 . S
H467 C449 0.932 . S
C468 C469 1.386 . S
C468 C470 1.397 . S
C468 H492 0.931 . S
C469 C468 1.386 . S
C469 C473 1.397 . S
C470 C468 1.397 . S
C470 C471 1.384 . S
C470 H493 0.930 . S
C471 C470 1.384 . S
C471 C472 1.377 . S
C471 C474 1.481 . S
C472 C471 1.377 . S
C472 C473 1.389 . S
C472 H494 0.929 . S
C473 C469 1.397 . S
C473 C472 1.389 . S
C473 H495 0.931 . S
C474 C471 1.481 . S
C474 C475 1.387 . S
C474 C479 1.390 . S
C475 C474 1.387 . S
C475 C476 1.401 . S
C475 H496 0.930 . S
C476 C475 1.401 . S
C476 C477 1.376 . S
C476 C485 1.511 . S
C477 C476 1.376 . S
C477 C478 1.392 . S
C477 H498 0.931 . S
C478 C477 1.392 . S
C478 C479 1.361 . S
C478 C480 1.500 . S
C479 C474 1.390 . S
C479 C478 1.361 . S
C479 H497 0.931 . S
C480 C478 1.500 . S
C480 C481 1.371 . S
C480 C482 1.365 . S
C481 C480 1.371 . S
C481 C491 1.386 . S
C481 H499 0.931 . S
C482 C480 1.365 . S
C482 C483 1.409 . S
C482 H500 0.929 . S
C483 C482 1.409 . S
C483 C484 1.380 . S
C483 H501 0.930 . S
C484 C483 1.380 . S
C484 C491 1.357 . S
C485 C476 1.511 . S
C485 C486 1.341 . S
C485 C487 1.371 . S
C486 C485 1.341 . S
C486 C490 1.394 . S
C486 H502 0.930 . S
C487 C485 1.371 . S
C487 C488 1.392 . S
C487 H503 0.931 . S
C488 C487 1.392 . S
C488 C489 1.331 . S
C488 H506 0.932 . S
C489 C488 1.331 . S
C489 C490 1.336 . S
C490 C486 1.394 . S
C490 C489 1.336 . S
C490 H505 0.929 . S
C491 C481 1.386 . S
C491 C484 1.357 . S
C491 H504 0.928 . S
H492 C468 0.931 . S
H493 C470 0.930 . S
H494 C472 0.929 . S
H495 C473 0.931 . S
H496 C475 0.930 . S
H497 C479 0.931 . S
H498 C477 0.931 . S
H499 C481 0.931 . S
H500 C482 0.929 . S
H501 C483 0.930 . S
H502 C486 0.930 . S
H503 C487 0.931 . S
H504 C491 0.928 . S
H505 C490 0.929 . S
H506 C488 0.932 . S
C507 C508 1.386 . S
C507 C509 1.397 . S
C507 H531 0.931 . S
C508 C507 1.386 . S
C508 C512 1.397 . S
C509 C507 1.397 . S
C509 C510 1.384 . S
C509 H532 0.930 . S
C510 C509 1.384 . S
C510 C511 1.377 . S
C510 C513 1.481 . S
C511 C510 1.377 . S
C511 C512 1.389 . S
C511 H533 0.929 . S
C512 C508 1.397 . S
C512 C511 1.389 . S
C512 H534 0.931 . S
C513 C510 1.481 . S
C513 C514 1.387 . S
C513 C518 1.390 . S
C514 C513 1.387 . S
C514 C515 1.401 . S
C514 H535 0.930 . S
C515 C514 1.401 . S
C515 C516 1.376 . S
C515 C524 1.511 . S
C516 C515 1.376 . S
C516 C517 1.392 . S
C516 H537 0.929 . S
C517 C516 1.392 . S
C517 C518 1.361 . S
C517 C519 1.500 . S
C518 C513 1.390 . S
C518 C517 1.361 . S
C518 H536 0.931 . S
C519 C517 1.500 . S
C519 C520 1.371 . S
C519 C521 1.365 . S
C520 C519 1.371 . S
C520 C530 1.386 1_556 S
C520 H538 0.931 1_556 S
C521 C519 1.365 . S
C521 C522 1.409 . S
C521 H539 0.929 . S
C522 C521 1.409 . S
C522 C523 1.380 . S
C522 H540 0.930 . S
C523 C522 1.380 . S
C523 C530 1.357 1_556 S
C524 C515 1.511 . S
C524 C525 1.344 . S
C524 C526 1.371 1_556 S
C525 C524 1.344 . S
C525 C529 1.371 1_556 S
C525 H541 0.952 . S
C526 C524 1.371 1_554 S
C526 C527 1.392 . S
C526 H542 0.931 . S
C527 C526 1.392 . S
C527 C528 1.331 . S
C527 H545 0.932 . S
C528 C527 1.331 . S
C528 C529 1.336 . S
C529 C525 1.371 1_554 S
C529 C528 1.336 . S
C529 H544 0.929 . S
C530 C520 1.386 1_554 S
C530 C523 1.357 1_554 S
C530 H543 0.928 . S
H531 C507 0.931 . S
H532 C509 0.930 . S
H533 C511 0.929 . S
H534 C512 0.931 . S
H535 C514 0.930 . S
H536 C518 0.931 . S
H537 C516 0.929 . S
H538 C520 0.931 1_554 S
H539 C521 0.929 . S
H540 C522 0.930 . S
H541 C525 0.952 . S
H542 C526 0.931 . S
H543 C530 0.928 . S
H544 C529 0.929 . S
H545 C527 0.932 . S
C546 C547 1.386 . S
C546 C548 1.397 . S
C546 H570 0.931 . S
C547 C546 1.386 . S
C547 C551 1.397 . S
C548 C546 1.397 . S
C548 C549 1.384 . S
C548 H571 0.930 . S
C549 C548 1.384 . S
C549 C550 1.377 . S
C549 C552 1.481 . S
C550 C549 1.377 . S
C550 C551 1.389 . S
C550 H572 0.929 . S
C551 C547 1.397 . S
C551 C550 1.389 . S
C551 H573 0.931 . S
C552 C549 1.481 . S
C552 C553 1.387 . S
C552 C557 1.390 . S
C553 C552 1.387 . S
C553 C554 1.401 . S
C553 H574 0.930 . S
C554 C553 1.401 . S
C554 C555 1.376 . S
C554 C563 1.511 . S
C555 C554 1.376 . S
C555 C556 1.392 . S
C555 H576 0.931 . S
C556 C555 1.392 . S
C556 C557 1.361 . S
C556 C558 1.500 . S
C557 C552 1.390 . S
C557 C556 1.361 . S
C557 H575 0.931 . S
C558 C556 1.500 . S
C558 C559 1.371 . S
C558 C560 1.365 . S
C559 C558 1.371 . S
C559 C569 1.386 . S
C559 H577 0.931 . S
C560 C558 1.365 . S
C560 C561 1.409 . S
C560 H578 0.929 . S
C561 C560 1.409 . S
C561 C562 1.380 . S
C561 H579 0.930 . S
C562 C561 1.380 . S
C562 C569 1.357 . S
C563 C554 1.511 . S
C563 C564 1.341 . S
C563 C565 1.371 . S
C564 C563 1.341 . S
C564 C568 1.394 . S
C564 H580 0.930 . S
C565 C563 1.371 . S
C565 C566 1.392 . S
C565 H581 0.931 . S
C566 C565 1.392 . S
C566 C567 1.331 . S
C566 H584 0.932 . S
C567 C566 1.331 . S
C567 C568 1.336 . S
C568 C564 1.394 . S
C568 C567 1.336 . S
C568 H583 0.929 . S
C569 C559 1.386 . S
C569 C562 1.357 . S
C569 H582 0.928 . S
H570 C546 0.931 . S
H571 C548 0.930 . S
H572 C550 0.929 . S
H573 C551 0.931 . S
H574 C553 0.930 . S
H575 C557 0.931 . S
H576 C555 0.931 . S
H577 C559 0.931 . S
H578 C560 0.929 . S
H579 C561 0.930 . S
H580 C564 0.930 . S
H581 C565 0.931 . S
H582 C569 0.928 . S
H583 C568 0.929 . S
H584 C566 0.932 . S
C585 C586 1.386 . S
C585 C587 1.397 1_554 S
C585 H609 0.931 . S
C586 C585 1.386 . S
C586 C590 1.397 . S
C587 C585 1.397 1_556 S
C587 C588 1.384 1_556 S
C587 H610 0.930 . S
C588 C587 1.384 1_554 S
C588 C589 1.377 . S
C588 C591 1.481 1_554 S
C589 C588 1.377 . S
C589 C590 1.389 . S
C589 H611 0.929 . S
C590 C586 1.397 . S
C590 C589 1.389 . S
C590 H612 0.931 . S
C591 C588 1.481 1_556 S
C591 C592 1.387 . S
C591 C596 1.390 . S
C592 C591 1.387 . S
C592 C593 1.401 . S
C592 H613 0.930 . S
C593 C592 1.401 . S
C593 C594 1.376 . S
C593 C602 1.511 . S
C594 C593 1.376 . S
C594 C595 1.392 . S
C594 H615 0.931 1_545 S
C595 C594 1.392 . S
C595 C596 1.361 . S
C595 C597 1.500 1_545 S
C596 C591 1.390 . S
C596 C595 1.361 . S
C596 H614 0.931 1_556 S
C597 C595 1.500 1_565 S
C597 C598 1.371 . S
C597 C599 1.365 1_556 S
C598 C597 1.371 . S
C598 C608 1.386 . S
C598 H616 0.931 . S
C599 C597 1.365 1_554 S
C599 C600 1.409 . S
C599 H617 0.917 1_565 S
C600 C599 1.409 . S
C600 C601 1.380 1_554 S
C600 H618 0.930 . S
C601 C600 1.380 1_556 S
C601 C608 1.357 . S
C602 C593 1.511 . S
C602 C603 1.341 . S
C602 C604 1.378 . S
C603 C602 1.341 . S
C603 C607 1.394 . S
C603 H619 0.930 . S
C604 C602 1.378 . S
C604 C605 1.391 1_545 S
C604 H620 0.926 1_545 S
C605 C604 1.391 1_565 S
C605 C606 1.331 1_565 S
C605 H623 0.932 . S
C606 C605 1.331 1_545 S
C606 C607 1.336 . S
C607 C603 1.394 . S
C607 C606 1.336 . S
C607 H622 0.929 . S
C608 C598 1.386 . S
C608 C601 1.357 . S
C608 H621 0.928 . S
H609 C585 0.931 . S
H610 C587 0.930 . S
H611 C589 0.929 . S
H612 C590 0.931 . S
H613 C592 0.930 . S
H614 C596 0.931 1_554 S
H615 C594 0.931 1_565 S
H616 C598 0.931 . S
H617 C599 0.917 1_545 S
H618 C600 0.930 . S
H619 C603 0.930 . S
H620 C604 0.926 1_565 S
H621 C608 0.928 . S
H622 C607 0.929 . S
H623 C605 0.932 . S
Mg624 O625 2.034 . S
Mg624 O631 1.986 1_554 S
Mg624 O633 2.114 . S
Mg624 O634 2.251 . S
Mg624 O637 2.010 . S
O625 Mg624 2.034 . S
O625 C628 1.246 1_554 S
O626 Mg627 2.028 . S
O626 C628 1.248 . S
Mg627 O626 2.028 . S
Mg627 O632 2.032 . S
Mg627 O634 2.079 1_556 S
C628 O625 1.246 1_556 S
C628 O626 1.248 . S
C629 O630 1.264 . S
C629 O637 1.249 . S
O630 C629 1.264 . S
O631 Mg624 1.986 1_556 S
O631 C635 1.246 . S
O632 Mg627 2.032 . S
O632 C635 1.259 . S
O633 Mg624 2.114 . S
O633 C636 1.252 . S
O634 Mg624 2.251 . S
O634 Mg627 2.079 1_554 S
O634 C636 1.273 . S
C635 O631 1.246 . S
C635 O632 1.259 . S
C636 O633 1.252 . S
C636 O634 1.273 . S
O637 Mg624 2.010 . S
O637 C629 1.249 . S
Mg638 O639 2.028 . S
Mg638 O645 1.986 . S
Mg638 O647 2.114 . S
Mg638 O648 2.251 . S
Mg638 O651 2.010 . S
O639 Mg638 2.028 . S
O639 C642 1.250 . S
O640 Mg641 2.028 . S
O640 C642 1.248 . S
Mg641 O640 2.028 . S
Mg641 O646 2.032 . S
Mg641 O648 2.079 . S
C642 O639 1.250 . S
C642 O640 1.248 . S
C643 O644 1.264 . S
C643 O651 1.249 . S
O644 C643 1.264 . S
O645 Mg638 1.986 . S
O645 C649 1.246 . S
O646 Mg641 2.032 . S
O646 C649 1.259 . S
O647 Mg638 2.114 . S
O647 C650 1.252 . S
O648 Mg638 2.251 . S
O648 Mg641 2.079 . S
O648 C650 1.273 . S
C649 O645 1.246 . S
C649 O646 1.259 . S
C650 O647 1.252 . S
C650 O648 1.273 . S
O651 Mg638 2.010 . S
O651 C643 1.249 . S
Mg652 O653 2.028 . S
Mg652 O659 1.986 1_554 S
Mg652 O661 2.114 . S
Mg652 O662 2.251 . S
Mg652 O665 2.010 . S
O653 Mg652 2.028 . S
O653 C656 1.250 1_554 S
O654 Mg655 2.028 . S
O654 C656 1.248 . S
Mg655 O654 2.028 . S
Mg655 O660 2.032 . S
Mg655 O662 2.079 1_556 S
C656 O653 1.250 1_556 S
C656 O654 1.248 . S
C657 O658 1.264 . S
C657 O665 1.249 . S
O658 C657 1.264 . S
O659 Mg652 1.986 1_556 S
O659 C663 1.246 . S
O660 Mg655 2.032 . S
O660 C663 1.259 . S
O661 Mg652 2.114 . S
O661 C664 1.252 . S
O662 Mg652 2.251 . S
O662 Mg655 2.079 1_554 S
O662 C664 1.273 . S
C663 O659 1.246 . S
C663 O660 1.259 . S
C664 O661 1.252 . S
C664 O662 1.273 . S
O665 Mg652 2.010 . S
O665 C657 1.249 . S
Mg666 O667 2.051 . S
Mg666 O673 1.986 . S
Mg666 O675 2.114 . S
Mg666 O676 2.251 . S
Mg666 O679 2.010 . S
O667 Mg666 2.051 . S
O667 C670 1.218 1_545 S
O668 Mg669 2.028 . S
O668 C670 1.248 . S
Mg669 O668 2.028 . S
Mg669 O674 2.032 . S
Mg669 O676 2.079 1_565 S
C670 O667 1.218 1_565 S
C670 O668 1.248 . S
C671 O672 1.264 . S
C671 O679 1.249 . S
O672 C671 1.264 . S
O673 Mg666 1.986 . S
O673 C677 1.246 . S
O674 Mg669 2.032 . S
O674 C677 1.259 1_565 S
O675 Mg666 2.114 . S
O675 C678 1.252 . S
O676 Mg666 2.251 . S
O676 Mg669 2.079 1_545 S
O676 C678 1.273 . S
C677 O673 1.246 . S
C677 O674 1.259 1_545 S
C678 O675 1.252 . S
C678 O676 1.273 . S
O679 Mg666 2.010 . S
O679 C671 1.249 . S
Mg680 O681 2.028 . S
Mg680 O687 1.986 . S
Mg680 O689 2.114 . S
Mg680 O690 2.251 . S
Mg680 O693 2.010 . S
O681 Mg680 2.028 . S
O681 C684 1.250 . S
O682 Mg683 2.028 . S
O682 C684 1.248 . S
Mg683 O682 2.028 . S
Mg683 O688 2.032 . S
Mg683 O690 2.079 . S
C684 O681 1.250 . S
C684 O682 1.248 . S
C685 O686 1.264 . S
C685 O693 1.249 . S
O686 C685 1.264 . S
O687 Mg680 1.986 . S
O687 C691 1.246 . S
O688 Mg683 2.032 . S
O688 C691 1.259 . S
O689 Mg680 2.114 . S
O689 C692 1.252 . S
O690 Mg680 2.251 . S
O690 Mg683 2.079 . S
O690 C692 1.273 . S
C691 O687 1.246 . S
C691 O688 1.259 . S
C692 O689 1.252 . S
C692 O690 1.273 . S
O693 Mg680 2.010 . S
O693 C685 1.249 . S
Mg694 O695 2.028 . S
Mg694 O701 1.986 . S
Mg694 O703 2.114 . S
Mg694 O704 2.251 . S
Mg694 O707 2.010 . S
O695 Mg694 2.028 . S
O695 C698 1.250 . S
O696 Mg697 2.028 . S
O696 C698 1.248 . S
Mg697 O696 2.028 . S
Mg697 O702 2.032 . S
Mg697 O704 2.079 . S
C698 O695 1.250 . S
C698 O696 1.248 . S
C699 O700 1.264 . S
C699 O707 1.249 . S
O700 C699 1.264 . S
O701 Mg694 1.986 . S
O701 C705 1.246 . S
O702 Mg697 2.032 . S
O702 C705 1.259 . S
O703 Mg694 2.114 . S
O703 C706 1.252 . S
O704 Mg694 2.251 . S
O704 Mg697 2.079 . S
O704 C706 1.273 . S
C705 O701 1.246 . S
C705 O702 1.259 . S
C706 O703 1.252 . S
C706 O704 1.273 . S
O707 Mg694 2.010 . S
O707 C699 1.249 . S
Mg708 O709 2.028 . S
Mg708 O715 1.986 . S
Mg708 O717 2.114 . S
Mg708 O718 2.251 . S
Mg708 O721 2.010 . S
O709 Mg708 2.028 . S
O709 C712 1.250 . S
O710 Mg711 2.028 . S
O710 C712 1.248 . S
Mg711 O710 2.028 . S
Mg711 O716 2.032 . S
Mg711 O718 2.079 . S
C712 O709 1.250 . S
C712 O710 1.248 . S
C713 O714 1.264 . S
C713 O721 1.249 . S
O714 C713 1.264 . S
O715 Mg708 1.986 . S
O715 C719 1.246 . S
O716 Mg711 2.032 . S
O716 C719 1.259 . S
O717 Mg708 2.114 . S
O717 C720 1.252 . S
O718 Mg708 2.251 . S
O718 Mg711 2.079 . S
O718 C720 1.273 . S
C719 O715 1.246 . S
C719 O716 1.259 . S
C720 O717 1.252 . S
C720 O718 1.273 . S
O721 Mg708 2.010 . S
O721 C713 1.249 . S
Mg722 O723 2.028 1_545 S
Mg722 O729 1.986 1_545 S
Mg722 O731 2.114 . S
Mg722 O732 2.251 . S
Mg722 O735 2.010 . S
O723 Mg722 2.028 1_565 S
O723 C726 1.250 . S
O724 Mg725 2.028 . S
O724 C726 1.248 . S
Mg725 O724 2.028 . S
Mg725 O730 2.032 . S
Mg725 O732 2.079 1_565 S
C726 O723 1.250 . S
C726 O724 1.248 . S
C727 O728 1.264 . S
C727 O735 1.249 . S
O728 C727 1.264 . S
O729 Mg722 1.986 1_565 S
O729 C733 1.246 . S
O730 Mg725 2.032 . S
O730 C733 1.259 . S
O731 Mg722 2.114 . S
O731 C734 1.252 . S
O732 Mg722 2.251 . S
O732 Mg725 2.079 1_545 S
O732 C734 1.273 . S
C733 O729 1.246 . S
C733 O730 1.259 . S
C734 O731 1.252 . S
C734 O732 1.273 . S
O735 Mg722 2.010 . S
O735 C727 1.249 . S
Mg736 O737 2.036 . S
Mg736 O743 1.986 . S
Mg736 O745 2.114 . S
Mg736 O746 2.251 . S
Mg736 O749 2.010 . S
O737 Mg736 2.036 . S
O737 C740 1.240 1_455 S
O738 Mg739 2.028 . S
O738 C740 1.248 . S
Mg739 O738 2.028 . S
Mg739 O744 2.032 . S
Mg739 O746 2.079 1_655 S
C740 O737 1.240 1_655 S
C740 O738 1.248 . S
C741 O742 1.264 . S
C741 O749 1.249 . S
O742 C741 1.264 . S
O743 Mg736 1.986 . S
O743 C747 1.246 . S
O744 Mg739 2.032 . S
O744 C747 1.259 1_655 S
O745 Mg736 2.114 . S
O745 C748 1.252 . S
O746 Mg736 2.251 . S
O746 Mg739 2.079 1_455 S
O746 C748 1.273 . S
C747 O743 1.246 . S
C747 O744 1.259 1_455 S
C748 O745 1.252 . S
C748 O746 1.273 . S
O749 Mg736 2.010 . S
O749 C741 1.249 . S
Mg750 O751 2.028 . S
Mg750 O757 1.986 . S
Mg750 O759 2.114 . S
Mg750 O760 2.251 . S
Mg750 O763 2.010 . S
O751 Mg750 2.028 . S
O751 C754 1.250 . S
O752 Mg753 2.028 . S
O752 C754 1.248 . S
Mg753 O752 2.028 . S
Mg753 O758 2.032 . S
Mg753 O760 2.079 . S
C754 O751 1.250 . S
C754 O752 1.248 . S
C755 O756 1.264 . S
C755 O763 1.249 . S
O756 C755 1.264 . S
O757 Mg750 1.986 . S
O757 C761 1.246 . S
O758 Mg753 2.032 . S
O758 C761 1.259 . S
O759 Mg750 2.114 . S
O759 C762 1.252 . S
O760 Mg750 2.251 . S
O760 Mg753 2.079 . S
O760 C762 1.273 . S
C761 O757 1.246 . S
C761 O758 1.259 . S
C762 O759 1.252 . S
C762 O760 1.273 . S
O763 Mg750 2.010 . S
O763 C755 1.249 . S
Mg764 O765 2.028 1_655 S
Mg764 O771 1.986 . S
Mg764 O773 2.114 . S
Mg764 O774 2.251 1_655 S
Mg764 O777 2.010 . S
O765 Mg764 2.028 1_455 S
O765 C768 1.250 . S
O766 Mg767 2.028 . S
O766 C768 1.248 . S
Mg767 O766 2.028 . S
Mg767 O772 2.032 . S
Mg767 O774 2.079 . S
C768 O765 1.250 . S
C768 O766 1.248 . S
C769 O770 1.264 . S
C769 O777 1.249 . S
O770 C769 1.264 . S
O771 Mg764 1.986 . S
O771 C775 1.246 1_655 S
O772 Mg767 2.032 . S
O772 C775 1.259 . S
O773 Mg764 2.114 . S
O773 C776 1.252 . S
O774 Mg764 2.251 1_455 S
O774 Mg767 2.079 . S
O774 C776 1.273 1_455 S
C775 O771 1.246 1_455 S
C775 O772 1.259 . S
C776 O773 1.252 . S
C776 O774 1.273 1_655 S
O777 Mg764 2.010 . S
O777 C769 1.249 . S
Mg778 O779 2.028 . S
Mg778 O785 1.986 . S
Mg778 O787 2.114 . S
Mg778 O788 2.251 . S
Mg778 O791 2.010 . S
O779 Mg778 2.028 . S
O779 C782 1.250 . S
O780 Mg781 2.028 . S
O780 C782 1.248 . S
Mg781 O780 2.028 . S
Mg781 O786 2.032 . S
Mg781 O788 2.079 . S
C782 O779 1.250 . S
C782 O780 1.248 . S
C783 O784 1.264 . S
C783 O791 1.249 . S
O784 C783 1.264 . S
O785 Mg778 1.986 . S
O785 C789 1.246 . S
O786 Mg781 2.032 . S
O786 C789 1.259 . S
O787 Mg778 2.114 . S
O787 C790 1.252 . S
O788 Mg778 2.251 . S
O788 Mg781 2.079 . S
O788 C790 1.273 . S
C789 O785 1.246 . S
C789 O786 1.259 . S
C790 O787 1.252 . S
C790 O788 1.273 . S
O791 Mg778 2.010 . S
O791 C783 1.249 . S
C792 C793 1.369 . S
C792 C794 1.419 . S
C792 H796 0.930 . S
C793 C792 1.369 . S
C793 C802 1.429 . S
C794 C792 1.419 . S
C794 C795 1.363 . S
C794 H797 0.929 . S
C795 C794 1.363 . S
C795 C801 1.428 . S
H796 C792 0.930 . S
H797 C794 0.929 . S
S798 N799 1.613 . S
S798 N800 1.610 . S
N799 S798 1.613 . S
N799 C802 1.350 . S
N800 S798 1.610 . S
N800 C801 1.351 . S
C801 C795 1.428 . S
C801 N800 1.351 . S
C801 C802 1.434 . S
C802 C793 1.429 . S
C802 N799 1.350 . S
C802 C801 1.434 . S
C803 C804 1.369 . S
C803 C805 1.419 . S
C803 H807 0.930 . S
C804 C803 1.369 . S
C804 C813 1.429 . S
C805 C803 1.419 . S
C805 C806 1.363 . S
C805 H808 0.929 . S
C806 C805 1.363 . S
C806 C812 1.428 . S
H807 C803 0.930 . S
H808 C805 0.929 . S
S809 N810 1.613 . S
S809 N811 1.610 . S
N810 S809 1.613 . S
N810 C813 1.350 . S
N811 S809 1.610 . S
N811 C812 1.351 . S
C812 C806 1.428 . S
C812 N811 1.351 . S
C812 C813 1.434 . S
C813 C804 1.429 . S
C813 N810 1.350 . S
C813 C812 1.434 . S
C814 C815 1.369 . S
C814 C816 1.419 . S
C814 H818 0.930 . S
C815 C814 1.369 . S
C815 C824 1.429 . S
C816 C814 1.419 . S
C816 C817 1.363 . S
C816 H819 0.929 . S
C817 C816 1.363 . S
C817 C823 1.428 . S
H818 C814 0.930 . S
H819 C816 0.929 . S
S820 N821 1.613 . S
S820 N822 1.610 . S
N821 S820 1.613 . S
N821 C824 1.350 . S
N822 S820 1.610 . S
N822 C823 1.351 . S
C823 C817 1.428 . S
C823 N822 1.351 . S
C823 C824 1.434 . S
C824 C815 1.429 . S
C824 N821 1.350 . S
C824 C823 1.434 . S
C825 C826 1.369 1_545 S
C825 C827 1.419 . S
C825 H829 0.930 . S
C826 C825 1.369 1_565 S
C826 C835 1.429 . S
C827 C825 1.419 . S
C827 C828 1.363 . S
C827 H830 0.929 . S
C828 C827 1.363 . S
C828 C834 1.428 1_545 S
H829 C825 0.930 . S
H830 C827 0.929 . S
S831 N832 1.613 . S
S831 N833 1.610 . S
N832 S831 1.613 . S
N832 C835 1.350 . S
N833 S831 1.610 . S
N833 C834 1.351 . S
C834 C828 1.428 1_565 S
C834 N833 1.351 . S
C834 C835 1.434 . S
C835 C826 1.429 . S
C835 N832 1.350 . S
C835 C834 1.434 . S
C836 C837 1.369 . S
C836 C838 1.419 . S
C836 H840 0.930 . S
C837 C836 1.369 . S
C837 C846 1.429 . S
C838 C836 1.419 . S
C838 C839 1.363 . S
C838 H841 0.929 . S
C839 C838 1.363 . S
C839 C845 1.428 . S
H840 C836 0.930 . S
H841 C838 0.929 . S
S842 N843 1.613 . S
S842 N844 1.610 . S
N843 S842 1.613 . S
N843 C846 1.350 . S
N844 S842 1.610 . S
N844 C845 1.351 . S
C845 C839 1.428 . S
C845 N844 1.351 . S
C845 C846 1.434 . S
C846 C837 1.429 . S
C846 N843 1.350 . S
C846 C845 1.434 . S
C847 C848 1.369 . S
C847 C849 1.419 . S
C847 H851 0.930 . S
C848 C847 1.369 . S
C848 C857 1.429 . S
C849 C847 1.419 . S
C849 C850 1.363 . S
C849 H852 0.929 . S
C850 C849 1.363 . S
C850 C856 1.428 . S
H851 C847 0.930 . S
H852 C849 0.929 . S
S853 N854 1.613 . S
S853 N855 1.610 . S
N854 S853 1.613 . S
N854 C857 1.350 . S
N855 S853 1.610 . S
N855 C856 1.351 . S
C856 C850 1.428 . S
C856 N855 1.351 . S
C856 C857 1.434 . S
C857 C848 1.429 . S
C857 N854 1.350 . S
C857 C856 1.434 . S
C858 C859 1.369 . S
C858 C860 1.419 . S
C858 H862 0.930 . S
C859 C858 1.369 . S
C859 C868 1.429 . S
C860 C858 1.419 . S
C860 C861 1.363 . S
C860 H863 0.929 . S
C861 C860 1.363 . S
C861 C867 1.428 . S
H862 C858 0.930 . S
H863 C860 0.929 . S
S864 N865 1.613 . S
S864 N866 1.610 . S
N865 S864 1.613 . S
N865 C868 1.350 . S
N866 S864 1.610 . S
N866 C867 1.351 . S
C867 C861 1.428 . S
C867 N866 1.351 . S
C867 C868 1.434 . S
C868 C859 1.429 . S
C868 N865 1.350 . S
C868 C867 1.434 . S
C869 C870 1.369 . S
C869 C871 1.419 . S
C869 H873 0.930 . S
C870 C869 1.369 . S
C870 C879 1.427 1_565 S
C871 C869 1.419 . S
C871 C872 1.363 . S
C871 H874 0.929 . S
C872 C871 1.363 . S
C872 C878 1.428 1_565 S
H873 C869 0.930 . S
H874 C871 0.929 . S
S875 N876 1.613 . S
S875 N877 1.610 . S
N876 S875 1.613 . S
N876 C879 1.351 . S
N877 S875 1.610 . S
N877 C878 1.351 . S
C878 C872 1.428 1_545 S
C878 N877 1.351 . S
C878 C879 1.434 . S
C879 C870 1.427 1_545 S
C879 N876 1.351 . S
C879 C878 1.434 . S
C880 C881 1.369 . S
C880 C882 1.419 . S
C880 H884 0.930 . S
C881 C880 1.369 . S
C881 C890 1.429 . S
C882 C880 1.419 . S
C882 C883 1.363 . S
C882 H885 0.929 . S
C883 C882 1.363 . S
C883 C889 1.428 . S
H884 C880 0.930 . S
H885 C882 0.929 . S
S886 N887 1.613 . S
S886 N888 1.610 . S
N887 S886 1.613 . S
N887 C890 1.350 . S
N888 S886 1.610 . S
N888 C889 1.351 . S
C889 C883 1.428 . S
C889 N888 1.351 . S
C889 C890 1.434 . S
C890 C881 1.429 . S
C890 N887 1.350 . S
C890 C889 1.434 . S
C891 C892 1.369 . S
C891 C893 1.419 . S
C891 H895 0.930 . S
C892 C891 1.369 . S
C892 C901 1.429 . S
C893 C891 1.419 . S
C893 C894 1.363 . S
C893 H896 0.929 . S
C894 C893 1.363 . S
C894 C900 1.428 . S
H895 C891 0.930 . S
H896 C893 0.929 . S
S897 N898 1.613 . S
S897 N899 1.610 . S
N898 S897 1.613 . S
N898 C901 1.350 . S
N899 S897 1.610 . S
N899 C900 1.351 . S
C900 C894 1.428 . S
C900 N899 1.351 . S
C900 C901 1.434 . S
C901 C892 1.429 . S
C901 N898 1.350 . S
C901 C900 1.434 . S
C902 C903 1.369 . S
C902 C904 1.419 . S
C902 H906 0.930 . S
C903 C902 1.369 . S
C903 C912 1.429 . S
C904 C902 1.419 . S
C904 C905 1.363 . S
C904 H907 0.929 . S
C905 C904 1.363 . S
C905 C911 1.428 . S
H906 C902 0.930 . S
H907 C904 0.929 . S
S908 N909 1.613 . S
S908 N910 1.610 . S
N909 S908 1.613 . S
N909 C912 1.350 . S
N910 S908 1.610 . S
N910 C911 1.351 . S
C911 C905 1.428 . S
C911 N910 1.351 . S
C911 C912 1.434 . S
C912 C903 1.429 . S
C912 N909 1.350 . S
C912 C911 1.434 . S
C913 C914 1.369 . S
C913 C915 1.419 . S
C913 H917 0.930 . S
C914 C913 1.369 . S
C914 C923 1.429 . S
C915 C913 1.419 . S
C915 C916 1.363 . S
C915 H918 0.929 . S
C916 C915 1.363 . S
C916 C922 1.428 . S
H917 C913 0.930 . S
H918 C915 0.929 . S
S919 N920 1.613 . S
S919 N921 1.610 . S
N920 S919 1.613 . S
N920 C923 1.350 . S
N921 S919 1.610 . S
N921 C922 1.351 . S
C922 C916 1.428 . S
C922 N921 1.351 . S
C922 C923 1.434 . S
C923 C914 1.429 . S
C923 N920 1.350 . S
C923 C922 1.434 . S
C924 C925 1.369 . S
C924 C926 1.419 . S
C924 H928 0.930 . S
C925 C924 1.369 . S
C925 C934 1.429 . S
C926 C924 1.419 . S
C926 C927 1.363 . S
C926 H929 0.929 . S
C927 C926 1.363 . S
C927 C933 1.428 . S
H928 C924 0.930 . S
H929 C926 0.929 . S
S930 N931 1.613 . S
S930 N932 1.610 . S
N931 S930 1.613 . S
N931 C934 1.350 . S
N932 S930 1.610 . S
N932 C933 1.351 . S
C933 C927 1.428 . S
C933 N932 1.351 . S
C933 C934 1.434 . S
C934 C925 1.429 . S
C934 N931 1.350 . S
C934 C933 1.434 . S
C935 C936 1.369 . S
C935 C937 1.419 . S
C935 H939 0.930 . S
C936 C935 1.369 . S
C936 C945 1.429 . S
C937 C935 1.419 . S
C937 C938 1.363 . S
C937 H940 0.929 . S
C938 C937 1.363 . S
C938 C944 1.428 . S
H939 C935 0.930 . S
H940 C937 0.929 . S
S941 N942 1.613 1_655 S
S941 N943 1.610 . S
N942 S941 1.613 1_455 S
N942 C945 1.350 . S
N943 S941 1.610 . S
N943 C944 1.351 1_655 S
C944 C938 1.428 . S
C944 N943 1.351 1_455 S
C944 C945 1.434 . S
C945 C936 1.429 . S
C945 N942 1.350 . S
C945 C944 1.434 . S
C946 C947 1.369 . S
C946 C948 1.419 . S
C946 H950 0.930 . S
C947 C946 1.369 . S
C947 C956 1.429 . S
C948 C946 1.419 . S
C948 C949 1.363 . S
C948 H951 0.929 . S
C949 C948 1.363 . S
C949 C955 1.428 . S
H950 C946 0.930 . S
H951 C948 0.929 . S
S952 N953 1.613 . S
S952 N954 1.610 . S
N953 S952 1.613 . S
N953 C956 1.350 . S
N954 S952 1.610 . S
N954 C955 1.351 . S
C955 C949 1.428 . S
C955 N954 1.351 . S
C955 C956 1.434 . S
C956 C947 1.429 . S
C956 N953 1.350 . S
C956 C955 1.434 . S
C957 C958 1.369 . S
C957 C959 1.419 . S
C957 H961 0.930 . S
C958 C957 1.369 . S
C958 C967 1.429 . S
C959 C957 1.419 . S
C959 C960 1.363 . S
C959 H962 0.929 . S
C960 C959 1.363 . S
C960 C966 1.428 . S
H961 C957 0.930 . S
H962 C959 0.929 . S
S963 N964 1.613 . S
S963 N965 1.610 . S
N964 S963 1.613 . S
N964 C967 1.350 . S
N965 S963 1.610 . S
N965 C966 1.351 . S
C966 C960 1.428 . S
C966 N965 1.351 . S
C966 C967 1.434 . S
C967 C958 1.429 . S
C967 N964 1.350 . S
C967 C966 1.434 . S
C968 C969 1.369 . S
C968 C970 1.419 . S
C968 H972 0.930 . S
C969 C968 1.369 . S
C969 C978 1.429 . S
C970 C968 1.419 . S
C970 C971 1.363 . S
C970 H973 0.929 . S
C971 C970 1.363 . S
C971 C977 1.428 . S
H972 C968 0.930 . S
H973 C970 0.929 . S
S974 N975 1.613 . S
S974 N976 1.610 . S
N975 S974 1.613 . S
N975 C978 1.350 . S
N976 S974 1.610 . S
N976 C977 1.351 . S
C977 C971 1.428 . S
C977 N976 1.351 . S
C977 C978 1.434 . S
C978 C969 1.429 . S
C978 N975 1.350 . S
C978 C977 1.434 . S
C979 C980 1.369 . S
C979 C981 1.419 . S
C979 H983 0.930 . S
C980 C979 1.369 . S
C980 C989 1.429 . S
C981 C979 1.419 . S
C981 C982 1.363 . S
C981 H984 0.929 . S
C982 C981 1.363 . S
C982 C988 1.428 . S
H983 C979 0.930 . S
H984 C981 0.929 . S
S985 N986 1.613 . S
S985 N987 1.610 . S
N986 S985 1.613 . S
N986 C989 1.350 . S
N987 S985 1.610 . S
N987 C988 1.351 . S
C988 C982 1.428 . S
C988 N987 1.351 . S
C988 C989 1.434 . S
C989 C980 1.429 . S
C989 N986 1.350 . S
C989 C988 1.434 . S
C990 C991 1.369 . S
C990 C992 1.419 . S
C990 H994 0.930 . S
C991 C990 1.369 . S
C991 C1000 1.429 . S
C992 C990 1.419 . S
C992 C993 1.363 . S
C992 H995 0.929 . S
C993 C992 1.363 . S
C993 C999 1.428 . S
H994 C990 0.930 . S
H995 C992 0.929 . S
S996 N997 1.613 . S
S996 N998 1.610 . S
N997 S996 1.613 . S
N997 C1000 1.350 . S
N998 S996 1.610 . S
N998 C999 1.351 . S
C999 C993 1.428 . S
C999 N998 1.351 . S
C999 C1000 1.434 . S
C1000 C991 1.429 . S
C1000 N997 1.350 . S
C1000 C999 1.434 . S
C1001 C1002 1.369 . S
C1001 C1003 1.419 . S
C1001 H1005 0.930 . S
C1002 C1001 1.369 . S
C1002 C1011 1.429 . S
C1003 C1001 1.419 . S
C1003 C1004 1.363 . S
C1003 H1006 0.929 . S
C1004 C1003 1.363 . S
C1004 C1010 1.428 . S
H1005 C1001 0.930 . S
H1006 C1003 0.929 . S
S1007 N1008 1.613 . S
S1007 N1009 1.610 . S
N1008 S1007 1.613 . S
N1008 C1011 1.350 . S
N1009 S1007 1.610 . S
N1009 C1010 1.351 . S
C1010 C1004 1.428 . S
C1010 N1009 1.351 . S
C1010 C1011 1.434 . S
C1011 C1002 1.429 . S
C1011 N1008 1.350 . S
C1011 C1010 1.434 . S
C1012 C1013 1.369 . S
C1012 C1014 1.419 . S
C1012 H1016 0.930 . S
C1013 C1012 1.369 . S
C1013 C1022 1.429 . S
C1014 C1012 1.419 . S
C1014 C1015 1.363 . S
C1014 H1017 0.929 . S
C1015 C1014 1.363 . S
C1015 C1021 1.428 . S
H1016 C1012 0.930 . S
H1017 C1014 0.929 . S
S1018 N1019 1.613 . S
S1018 N1020 1.610 . S
N1019 S1018 1.613 . S
N1019 C1022 1.350 . S
N1020 S1018 1.610 . S
N1020 C1021 1.351 . S
C1021 C1015 1.428 . S
C1021 N1020 1.351 . S
C1021 C1022 1.434 . S
C1022 C1013 1.429 . S
C1022 N1019 1.350 . S
C1022 C1021 1.434 . S
C1023 C1024 1.369 . S
C1023 C1025 1.419 . S
C1023 H1027 0.930 . S
C1024 C1023 1.369 . S
C1024 C1033 1.429 . S
C1025 C1023 1.419 . S
C1025 C1026 1.363 . S
C1025 H1028 0.929 . S
C1026 C1025 1.363 . S
C1026 C1032 1.428 . S
H1027 C1023 0.930 . S
H1028 C1025 0.929 . S
S1029 N1030 1.613 . S
S1029 N1031 1.610 . S
N1030 S1029 1.613 . S
N1030 C1033 1.350 . S
N1031 S1029 1.610 . S
N1031 C1032 1.351 . S
C1032 C1026 1.428 . S
C1032 N1031 1.351 . S
C1032 C1033 1.434 . S
C1033 C1024 1.429 . S
C1033 N1030 1.350 . S
C1033 C1032 1.434 . S
C1034 C1035 1.369 . S
C1034 C1036 1.419 . S
C1034 H1038 0.930 . S
C1035 C1034 1.369 . S
C1035 C1044 1.429 . S
C1036 C1034 1.419 . S
C1036 C1037 1.363 . S
C1036 H1039 0.929 . S
C1037 C1036 1.363 . S
C1037 C1043 1.428 . S
H1038 C1034 0.930 . S
H1039 C1036 0.929 . S
S1040 N1041 1.613 . S
S1040 N1042 1.610 . S
N1041 S1040 1.613 . S
N1041 C1044 1.350 . S
N1042 S1040 1.610 . S
N1042 C1043 1.351 . S
C1043 C1037 1.428 . S
C1043 N1042 1.351 . S
C1043 C1044 1.434 . S
C1044 C1035 1.429 . S
C1044 N1041 1.350 . S
C1044 C1043 1.434 . S
C1045 C1046 1.369 . S
C1045 C1047 1.419 . S
C1045 H1049 0.930 . S
C1046 C1045 1.369 . S
C1046 C1055 1.429 . S
C1047 C1045 1.419 . S
C1047 C1048 1.363 . S
C1047 H1050 0.929 . S
C1048 C1047 1.363 . S
C1048 C1054 1.428 . S
H1049 C1045 0.930 . S
H1050 C1047 0.929 . S
S1051 N1052 1.613 . S
S1051 N1053 1.610 . S
N1052 S1051 1.613 . S
N1052 C1055 1.350 . S
N1053 S1051 1.610 . S
N1053 C1054 1.351 . S
C1054 C1048 1.428 . S
C1054 N1053 1.351 . S
C1054 C1055 1.434 . S
C1055 C1046 1.429 . S
C1055 N1052 1.350 . S
C1055 C1054 1.434 . S
C1056 C1057 1.369 . S
C1056 C1058 1.419 . S
C1056 H1060 0.930 . S
C1057 C1056 1.369 . S
C1057 C1066 1.429 . S
C1058 C1056 1.419 . S
C1058 C1059 1.363 . S
C1058 H1061 0.929 . S
C1059 C1058 1.363 . S
C1059 C1065 1.428 . S
H1060 C1056 0.930 . S
H1061 C1058 0.929 . S
S1062 N1063 1.613 . S
S1062 N1064 1.610 . S
N1063 S1062 1.613 . S
N1063 C1066 1.350 . S
N1064 S1062 1.610 . S
N1064 C1065 1.351 . S
C1065 C1059 1.428 . S
C1065 N1064 1.351 . S
C1065 C1066 1.434 . S
C1066 C1057 1.429 . S
C1066 N1063 1.350 . S
C1066 C1065 1.434 . S
C1067 C1068 1.369 . S
C1067 C1069 1.419 . S
C1067 H1071 0.930 . S
C1068 C1067 1.369 . S
C1068 C1077 1.429 1_545 S
C1069 C1067 1.419 . S
C1069 C1070 1.363 . S
C1069 H1072 0.929 . S
C1070 C1069 1.363 . S
C1070 C1076 1.428 1_545 S
H1071 C1067 0.930 . S
H1072 C1069 0.929 . S
S1073 N1074 1.613 . S
S1073 N1075 1.610 . S
N1074 S1073 1.613 . S
N1074 C1077 1.350 . S
N1075 S1073 1.610 . S
N1075 C1076 1.351 . S
C1076 C1070 1.428 1_565 S
C1076 N1075 1.351 . S
C1076 C1077 1.434 . S
C1077 C1068 1.429 1_565 S
C1077 N1074 1.350 . S
C1077 C1076 1.434 . S
C1078 C1079 1.369 . S
C1078 C1080 1.419 . S
C1078 H1082 0.930 . S
C1079 C1078 1.369 . S
C1079 C1088 1.429 . S
C1080 C1078 1.419 . S
C1080 C1081 1.363 . S
C1080 H1083 0.929 . S
C1081 C1080 1.363 . S
C1081 C1087 1.428 . S
H1082 C1078 0.930 . S
H1083 C1080 0.929 . S
S1084 N1085 1.613 . S
S1084 N1086 1.610 . S
N1085 S1084 1.613 . S
N1085 C1088 1.350 . S
N1086 S1084 1.610 . S
N1086 C1087 1.351 . S
C1087 C1081 1.428 . S
C1087 N1086 1.351 . S
C1087 C1088 1.434 . S
C1088 C1079 1.429 . S
C1088 N1085 1.350 . S
C1088 C1087 1.434 . S
C1089 C1090 1.369 . S
C1089 C1091 1.419 . S
C1089 H1093 0.930 . S
C1090 C1089 1.369 . S
C1090 C1099 1.429 . S
C1091 C1089 1.419 . S
C1091 C1092 1.363 . S
C1091 H1094 0.929 . S
C1092 C1091 1.363 . S
C1092 C1098 1.428 . S
H1093 C1089 0.930 . S
H1094 C1091 0.929 . S
S1095 N1096 1.613 . S
S1095 N1097 1.610 . S
N1096 S1095 1.613 . S
N1096 C1099 1.350 . S
N1097 S1095 1.610 . S
N1097 C1098 1.351 . S
C1098 C1092 1.428 . S
C1098 N1097 1.351 . S
C1098 C1099 1.434 . S
C1099 C1090 1.429 . S
C1099 N1096 1.350 . S
C1099 C1098 1.434 . S
C1100 C1101 1.369 . S
C1100 C1102 1.419 . S
C1100 H1104 0.930 . S
C1101 C1100 1.369 . S
C1101 C1110 1.429 . S
C1102 C1100 1.419 . S
C1102 C1103 1.363 . S
C1102 H1105 0.929 . S
C1103 C1102 1.363 . S
C1103 C1109 1.428 . S
H1104 C1100 0.930 . S
H1105 C1102 0.929 . S
S1106 N1107 1.613 . S
S1106 N1108 1.610 . S
N1107 S1106 1.613 . S
N1107 C1110 1.350 . S
N1108 S1106 1.610 . S
N1108 C1109 1.351 . S
C1109 C1103 1.428 . S
C1109 N1108 1.351 . S
C1109 C1110 1.434 . S
C1110 C1101 1.429 . S
C1110 N1107 1.350 . S
C1110 C1109 1.434 . S
C1111 C1112 1.409 . S
C1111 C1113 1.419 . S
C1111 H1115 0.889 1_545 S
C1112 C1111 1.409 . S
C1112 C1121 1.429 . S
C1113 C1111 1.419 . S
C1113 C1114 1.378 . S
C1113 H1116 0.914 1_545 S
C1114 C1113 1.378 . S
C1114 C1120 1.428 . S
H1115 C1111 0.889 1_565 S
H1116 C1113 0.914 1_565 S
S1117 N1118 1.613 . S
S1117 N1119 1.610 . S
N1118 S1117 1.613 . S
N1118 C1121 1.350 . S
N1119 S1117 1.610 . S
N1119 C1120 1.351 . S
C1120 C1114 1.428 . S
C1120 N1119 1.351 . S
C1120 C1121 1.434 . S
C1121 C1112 1.429 . S
C1121 N1118 1.350 . S
C1121 C1120 1.434 . S
C1122 C1123 1.369 . S
C1122 C1124 1.419 . S
C1122 H1126 0.930 . S
C1123 C1122 1.369 . S
C1123 C1132 1.429 . S
C1124 C1122 1.419 . S
C1124 C1125 1.363 . S
C1124 H1127 0.929 . S
C1125 C1124 1.363 . S
C1125 C1131 1.428 . S
H1126 C1122 0.930 . S
H1127 C1124 0.929 . S
S1128 N1129 1.613 . S
S1128 N1130 1.610 . S
N1129 S1128 1.613 . S
N1129 C1132 1.350 . S
N1130 S1128 1.610 . S
N1130 C1131 1.351 . S
C1131 C1125 1.428 . S
C1131 N1130 1.351 . S
C1131 C1132 1.434 . S
C1132 C1123 1.429 . S
C1132 N1129 1.350 . S
C1132 C1131 1.434 . S
C1133 C1134 1.369 . S
C1133 C1135 1.419 . S
C1133 H1137 0.930 . S
C1134 C1133 1.369 . S
C1134 C1143 1.429 . S
C1135 C1133 1.419 . S
C1135 C1136 1.363 . S
C1135 H1138 0.929 . S
C1136 C1135 1.363 . S
C1136 C1142 1.428 . S
H1137 C1133 0.930 . S
H1138 C1135 0.929 . S
S1139 N1140 1.613 . S
S1139 N1141 1.610 . S
N1140 S1139 1.613 . S
N1140 C1143 1.350 . S
N1141 S1139 1.610 . S
N1141 C1142 1.351 . S
C1142 C1136 1.428 . S
C1142 N1141 1.351 . S
C1142 C1143 1.434 . S
C1143 C1134 1.429 . S
C1143 N1140 1.350 . S
C1143 C1142 1.434 . S
C1144 C1145 1.369 . S
C1144 C1146 1.419 . S
C1144 H1148 0.930 . S
C1145 C1144 1.369 . S
C1145 C1154 1.429 . S
C1146 C1144 1.419 . S
C1146 C1147 1.363 . S
C1146 H1149 0.929 . S
C1147 C1146 1.363 . S
C1147 C1153 1.428 . S
H1148 C1144 0.930 . S
H1149 C1146 0.929 . S
S1150 N1151 1.613 . S
S1150 N1152 1.610 . S
N1151 S1150 1.613 . S
N1151 C1154 1.350 . S
N1152 S1150 1.610 . S
N1152 C1153 1.351 . S
C1153 C1147 1.428 . S
C1153 N1152 1.351 . S
C1153 C1154 1.434 . S
C1154 C1145 1.429 . S
C1154 N1151 1.350 . S
C1154 C1153 1.434 . S
C1155 C1156 1.369 . S
C1155 C1157 1.419 . S
C1155 H1159 0.930 . S
C1156 C1155 1.369 . S
C1156 C1165 1.429 1_655 S
C1157 C1155 1.419 . S
C1157 C1158 1.363 1_655 S
C1157 H1160 0.929 . S
C1158 C1157 1.363 1_455 S
C1158 C1164 1.428 . S
H1159 C1155 0.930 . S
H1160 C1157 0.929 . S
S1161 N1162 1.613 . S
S1161 N1163 1.610 . S
N1162 S1161 1.613 . S
N1162 C1165 1.350 . S
N1163 S1161 1.610 . S
N1163 C1164 1.351 . S
C1164 C1158 1.428 . S
C1164 N1163 1.351 . S
C1164 C1165 1.434 . S
C1165 C1156 1.429 1_455 S
C1165 N1162 1.350 . S
C1165 C1164 1.434 . S
C1166 C1167 1.369 . S
C1166 C1168 1.419 . S
C1166 H1170 0.930 . S
C1167 C1166 1.369 . S
C1167 C1176 1.429 . S
C1168 C1166 1.419 . S
C1168 C1169 1.363 . S
C1168 H1171 0.929 . S
C1169 C1168 1.363 . S
C1169 C1175 1.428 . S
H1170 C1166 0.930 . S
H1171 C1168 0.929 . S
S1172 N1173 1.613 . S
S1172 N1174 1.610 . S
N1173 S1172 1.613 . S
N1173 C1176 1.350 . S
N1174 S1172 1.610 . S
N1174 C1175 1.351 . S
C1175 C1169 1.428 . S
C1175 N1174 1.351 . S
C1175 C1176 1.434 . S
C1176 C1167 1.429 . S
C1176 N1173 1.350 . S
C1176 C1175 1.434 . S
C1177 C1178 1.369 . S
C1177 C1179 1.419 . S
C1177 H1181 0.930 . S
C1178 C1177 1.369 . S
C1178 C1187 1.429 . S
C1179 C1177 1.419 . S
C1179 C1180 1.363 . S
C1179 H1182 0.929 . S
C1180 C1179 1.363 . S
C1180 C1186 1.428 . S
H1181 C1177 0.930 . S
H1182 C1179 0.929 . S
S1183 N1184 1.613 . S
S1183 N1185 1.610 . S
N1184 S1183 1.613 . S
N1184 C1187 1.350 1_655 S
N1185 S1183 1.610 . S
N1185 C1186 1.351 1_655 S
C1186 C1180 1.428 . S
C1186 N1185 1.351 1_455 S
C1186 C1187 1.434 . S
C1187 C1178 1.429 . S
C1187 N1184 1.350 1_455 S
C1187 C1186 1.434 . S
C1188 C1189 1.369 . S
C1188 C1190 1.419 . S
C1188 H1192 0.930 . S
C1189 C1188 1.369 . S
C1189 C1198 1.429 . S
C1190 C1188 1.419 . S
C1190 C1191 1.363 . S
C1190 H1193 0.929 . S
C1191 C1190 1.363 . S
C1191 C1197 1.428 . S
H1192 C1188 0.930 . S
H1193 C1190 0.929 . S
S1194 N1195 1.613 . S
S1194 N1196 1.610 . S
N1195 S1194 1.613 . S
N1195 C1198 1.350 . S
N1196 S1194 1.610 . S
N1196 C1197 1.351 . S
C1197 C1191 1.428 . S
C1197 N1196 1.351 . S
C1197 C1198 1.434 . S
C1198 C1189 1.429 . S
C1198 N1195 1.350 . S
C1198 C1197 1.434 . S
C1199 C1200 1.369 . S
C1199 C1201 1.419 . S
C1199 H1203 0.930 . S
C1200 C1199 1.369 . S
C1200 C1209 1.429 . S
C1201 C1199 1.419 . S
C1201 C1202 1.363 . S
C1201 H1204 0.929 . S
C1202 C1201 1.363 . S
C1202 C1208 1.428 . S
H1203 C1199 0.930 . S
H1204 C1201 0.929 . S
S1205 N1206 1.613 . S
S1205 N1207 1.610 . S
N1206 S1205 1.613 . S
N1206 C1209 1.350 . S
N1207 S1205 1.610 . S
N1207 C1208 1.351 . S
C1208 C1202 1.428 . S
C1208 N1207 1.351 . S
C1208 C1209 1.434 . S
C1209 C1200 1.429 . S
C1209 N1206 1.350 . S
C1209 C1208 1.434 . S
C1210 C1211 1.369 . S
C1210 C1212 1.419 . S
C1210 H1214 0.930 . S
C1211 C1210 1.369 . S
C1211 C1220 1.429 . S
C1212 C1210 1.419 . S
C1212 C1213 1.363 . S
C1212 H1215 0.929 . S
C1213 C1212 1.363 . S
C1213 C1219 1.428 . S
H1214 C1210 0.930 . S
H1215 C1212 0.929 . S
S1216 N1217 1.613 . S
S1216 N1218 1.610 . S
N1217 S1216 1.613 . S
N1217 C1220 1.350 . S
N1218 S1216 1.610 . S
N1218 C1219 1.351 . S
C1219 C1213 1.428 . S
C1219 N1218 1.351 . S
C1219 C1220 1.434 . S
C1220 C1211 1.429 . S
C1220 N1217 1.350 . S
C1220 C1219 1.434 . S
C1221 C1222 1.369 . S
C1221 C1223 1.419 . S
C1221 H1225 0.930 . S
C1222 C1221 1.369 . S
C1222 C1231 1.429 . S
C1223 C1221 1.419 . S
C1223 C1224 1.363 . S
C1223 H1226 0.929 . S
C1224 C1223 1.363 . S
C1224 C1230 1.428 . S
H1225 C1221 0.930 . S
H1226 C1223 0.929 . S
S1227 N1228 1.613 . S
S1227 N1229 1.610 . S
N1228 S1227 1.613 . S
N1228 C1231 1.350 . S
N1229 S1227 1.610 . S
N1229 C1230 1.351 . S
C1230 C1224 1.428 . S
C1230 N1229 1.351 . S
C1230 C1231 1.434 . S
C1231 C1222 1.429 . S
C1231 N1228 1.350 . S
C1231 C1230 1.434 . S
C1232 C1233 1.369 . S
C1232 C1234 1.419 . S
C1232 H1236 0.930 . S
C1233 C1232 1.369 . S
C1233 C1242 1.429 . S
C1234 C1232 1.419 . S
C1234 C1235 1.363 . S
C1234 H1237 0.929 . S
C1235 C1234 1.363 . S
C1235 C1241 1.428 . S
H1236 C1232 0.930 . S
H1237 C1234 0.929 . S
S1238 N1239 1.613 . S
S1238 N1240 1.610 . S
N1239 S1238 1.613 . S
N1239 C1242 1.350 . S
N1240 S1238 1.610 . S
N1240 C1241 1.351 . S
C1241 C1235 1.428 . S
C1241 N1240 1.351 . S
C1241 C1242 1.434 . S
C1242 C1233 1.429 . S
C1242 N1239 1.350 . S
C1242 C1241 1.434 . S
C1243 C1244 1.369 . S
C1243 C1245 1.419 . S
C1243 H1247 0.930 . S
C1244 C1243 1.369 . S
C1244 C1253 1.429 . S
C1245 C1243 1.419 . S
C1245 C1246 1.363 . S
C1245 H1248 0.929 . S
C1246 C1245 1.363 . S
C1246 C1252 1.428 . S
H1247 C1243 0.930 . S
H1248 C1245 0.929 . S
S1249 N1250 1.613 . S
S1249 N1251 1.610 . S
N1250 S1249 1.613 . S
N1250 C1253 1.350 . S
N1251 S1249 1.610 . S
N1251 C1252 1.351 . S
C1252 C1246 1.428 . S
C1252 N1251 1.351 . S
C1252 C1253 1.434 . S
C1253 C1244 1.429 . S
C1253 N1250 1.350 . S
C1253 C1252 1.434 . S
C1254 C1255 1.369 . S
C1254 C1256 1.419 . S
C1254 H1258 0.930 . S
C1255 C1254 1.369 . S
C1255 C1264 1.429 . S
C1256 C1254 1.419 . S
C1256 C1257 1.363 . S
C1256 H1259 0.929 . S
C1257 C1256 1.363 . S
C1257 C1263 1.428 . S
H1258 C1254 0.930 . S
H1259 C1256 0.929 . S
S1260 N1261 1.613 . S
S1260 N1262 1.610 . S
N1261 S1260 1.613 . S
N1261 C1264 1.350 . S
N1262 S1260 1.610 . S
N1262 C1263 1.351 . S
C1263 C1257 1.428 . S
C1263 N1262 1.351 . S
C1263 C1264 1.434 . S
C1264 C1255 1.429 . S
C1264 N1261 1.350 . S
C1264 C1263 1.434 . S
C1265 C1266 1.369 . S
C1265 C1267 1.419 . S
C1265 H1269 0.930 . S
C1266 C1265 1.369 . S
C1266 C1275 1.429 . S
C1267 C1265 1.419 . S
C1267 C1268 1.363 . S
C1267 H1270 0.929 . S
C1268 C1267 1.363 . S
C1268 C1274 1.428 . S
H1269 C1265 0.930 . S
H1270 C1267 0.929 . S
S1271 N1272 1.613 . S
S1271 N1273 1.610 . S
N1272 S1271 1.613 . S
N1272 C1275 1.350 . S
N1273 S1271 1.610 . S
N1273 C1274 1.351 . S
C1274 C1268 1.428 . S
C1274 N1273 1.351 . S
C1274 C1275 1.434 . S
C1275 C1266 1.429 . S
C1275 N1272 1.350 . S
C1275 C1274 1.434 . S
C1276 C1277 1.369 . S
C1276 C1278 1.419 . S
C1276 H1280 0.930 . S
C1277 C1276 1.369 . S
C1277 C1286 1.429 1_556 S
C1278 C1276 1.419 . S
C1278 C1279 1.363 . S
C1278 H1281 0.929 . S
C1279 C1278 1.363 . S
C1279 C1285 1.428 1_556 S
H1280 C1276 0.930 . S
H1281 C1278 0.929 . S
S1282 N1283 1.613 . S
S1282 N1284 1.610 . S
N1283 S1282 1.613 . S
N1283 C1286 1.350 . S
N1284 S1282 1.610 . S
N1284 C1285 1.351 . S
C1285 C1279 1.428 1_554 S
C1285 N1284 1.351 . S
C1285 C1286 1.434 . S
C1286 C1277 1.429 1_554 S
C1286 N1283 1.350 . S
C1286 C1285 1.434 . S
C1287 C1288 1.369 . S
C1287 C1289 1.419 . S
C1287 H1291 0.930 . S
C1288 C1287 1.369 . S
C1288 C1297 1.429 . S
C1289 C1287 1.419 . S
C1289 C1290 1.363 . S
C1289 H1292 0.929 . S
C1290 C1289 1.363 . S
C1290 C1296 1.428 . S
H1291 C1287 0.930 . S
H1292 C1289 0.929 . S
S1293 N1294 1.613 . S
S1293 N1295 1.610 . S
N1294 S1293 1.613 . S
N1294 C1297 1.350 . S
N1295 S1293 1.610 . S
N1295 C1296 1.351 . S
C1296 C1290 1.428 . S
C1296 N1295 1.351 . S
C1296 C1297 1.434 . S
C1297 C1288 1.429 . S
C1297 N1294 1.350 . S
C1297 C1296 1.434 . S
C1298 C1299 1.369 . S
C1298 C1300 1.419 . S
C1298 H1302 0.930 . S
C1299 C1298 1.369 . S
C1299 C1308 1.429 . S
C1300 C1298 1.419 . S
C1300 C1301 1.363 . S
C1300 H1303 0.929 . S
C1301 C1300 1.363 . S
C1301 C1307 1.428 . S
H1302 C1298 0.930 . S
H1303 C1300 0.929 . S
S1304 N1305 1.613 . S
S1304 N1306 1.610 . S
N1305 S1304 1.613 . S
N1305 C1308 1.350 . S
N1306 S1304 1.610 . S
N1306 C1307 1.351 . S
C1307 C1301 1.428 . S
C1307 N1306 1.351 . S
C1307 C1308 1.434 . S
C1308 C1299 1.429 . S
C1308 N1305 1.350 . S
C1308 C1307 1.434 . S
C1309 C1310 1.369 . S
C1309 C1311 1.419 . S
C1309 H1313 0.930 . S
C1310 C1309 1.369 . S
C1310 C1319 1.429 . S
C1311 C1309 1.419 . S
C1311 C1312 1.363 . S
C1311 H1314 0.929 . S
C1312 C1311 1.363 . S
C1312 C1318 1.428 . S
H1313 C1309 0.930 . S
H1314 C1311 0.929 . S
S1315 N1316 1.613 . S
S1315 N1317 1.610 . S
N1316 S1315 1.613 . S
N1316 C1319 1.350 1_556 S
N1317 S1315 1.610 . S
N1317 C1318 1.351 1_556 S
C1318 C1312 1.428 . S
C1318 N1317 1.351 1_554 S
C1318 C1319 1.434 . S
C1319 C1310 1.429 . S
C1319 N1316 1.350 1_554 S
C1319 C1318 1.434 . S
C795 C635 1.447 . S
C793 C211 1.469 . S
C806 C643 1.276 . S
C804 C255 1.534 . S
C815 C274 1.452 . S
C817 C663 1.430 . S
C828 C677 1.500 . S
C826 C157 1.521 . S
C839 C692 1.529 . S
C837 C391 1.530 . S
C850 C706 1.522 . S
C848 C484 1.516 . S
C859 C450 1.555 . S
C861 C720 1.554 . S
C872 C726 1.439 . S
C870 C352 1.488 . S
C881 C430 1.520 . S
C883 C740 1.487 . S
C894 C761 1.529 . S
C892 C367 1.551 . S
C903 C411 1.488 . S
C905 C741 1.251 . S
C916 C762 1.540 . S
C914 C469 1.533 . S
C925 C294 1.484 . S
C927 C769 1.213 . S
C936 C177 1.513 . S
C938 C775 1.497 . S
C947 C196 1.508 . S
C949 C768 1.464 . S
C958 C235 1.482 . S
C960 C776 1.487 . S
C969 C133 1.503 . S
C971 C670 1.457 . S
C980 C567 1.494 . S
C982 C671 1.243 . S
C993 C628 1.495 . S
C991 C601 1.552 . S
C1004 C649 1.447 . S
C1002 C328 1.477 . S
C1013 C172 1.490 . S
C1015 C684 1.452 . S
C1026 C734 1.526 . S
C1024 C445 1.525 . S
C1037 C685 1.239 . S
C1035 C372 1.473 . S
C1048 C713 1.258 . S
C1046 C489 1.550 . S
C1059 C719 1.451 . S
C1057 C562 1.469 . S
C1068 C606 1.535 . S
C1070 C727 1.275 . S
C1079 C313 1.450 . S
C1081 C691 1.427 . S
C1092 C705 1.503 . S
C1090 C508 1.521 . S
C1101 C118 1.529 . S
C1103 C664 1.529 . S
C1114 C678 1.523 . S
C1112 C16 1.514 . S
C1125 C636 1.554 . S
C1123 C60 1.554 . S
C1136 C642 1.445 . S
C1134 C79 1.487 . S
C1145 C40 1.520 . S
C1147 C754 1.484 . S
C1156 C94 1.552 . S
C1158 C747 1.530 . S
C1167 C138 1.488 . S
C1169 C755 1.250 . S
C1178 C1 1.536 . S
C1180 C748 1.539 . S
C1191 C783 1.205 . S
C1189 C333 1.487 . S
C1202 C789 1.498 . S
C1200 C528 1.513 . S
C1213 C782 1.458 . S
C1211 C547 1.510 . S
C1222 C586 1.484 . S
C1224 C790 1.486 . S
C1233 C406 1.503 . S
C1235 C698 1.460 . S
C1246 C699 1.251 . S
C1244 C216 1.495 . S
C1257 C712 1.501 . S
C1255 C250 1.551 . S
C1268 C733 1.448 . S
C1266 C289 1.477 . S
C1277 C523 1.490 . S
C1279 C656 1.452 . S
C1290 C650 1.526 . S
C1288 C55 1.525 . S
C1299 C99 1.473 . S
C1301 C657 1.226 . S
C1312 C629 1.258 . S
C1310 C21 1.551 . S
