# Generated by pormake.
# Topology nom, (4,4)-cn, num edge types: 1
# Building blocks:
#     Node 0, Type 0, BuildingBlock: AZAVOO_clean_linker_0, # of connection points: 4
#     Node 1, Type 0, BuildingBlock: AZAVOO_clean_linker_0, # of connection points: 4
#     Node 2, Type 0, BuildingBlock: AZAVOO_clean_linker_0, # of connection points: 4
#     Node 3, Type 0, BuildingBlock: AZAVOO_clean_linker_0, # of connection points: 4
#     Node 4, Type 0, BuildingBlock: AZAVOO_clean_linker_0, # of connection points: 4
#     Node 5, Type 0, BuildingBlock: AZAVOO_clean_linker_0, # of connection points: 4
#     Node 6, Type 1, BuildingBlock: KUFVIS_clean_sbu_0, # of connection points: 4
#     Node 7, Type 1, BuildingBlock: KUFVIS_clean_sbu_0, # of connection points: 4
#     Node 8, Type 1, BuildingBlock: KUFVIS_clean_sbu_0, # of connection points: 4
#     Node 9, Type 1, BuildingBlock: KUFVIS_clean_sbu_0, # of connection points: 4
#     Node 10, Type 1, BuildingBlock: KUFVIS_clean_sbu_0, # of connection points: 4
#     Node 11, Type 1, BuildingBlock: KUFVIS_clean_sbu_0, # of connection points: 4
#     Edge 12, Type (0, 1), BuildingBlock: EZIPEK_clean_linker_0, # of connection points: 2
#     Edge 13, Type (0, 1), BuildingBlock: EZIPEK_clean_linker_0, # of connection points: 2
#     Edge 14, Type (0, 1), BuildingBlock: EZIPEK_clean_linker_0, # of connection points: 2
#     Edge 15, Type (0, 1), BuildingBlock: EZIPEK_clean_linker_0, # of connection points: 2
#     Edge 16, Type (0, 1), BuildingBlock: EZIPEK_clean_linker_0, # of connection points: 2
#     Edge 17, Type (0, 1), BuildingBlock: EZIPEK_clean_linker_0, # of connection points: 2
#     Edge 18, Type (0, 1), BuildingBlock: EZIPEK_clean_linker_0, # of connection points: 2
#     Edge 19, Type (0, 1), BuildingBlock: EZIPEK_clean_linker_0, # of connection points: 2
#     Edge 20, Type (0, 1), BuildingBlock: EZIPEK_clean_linker_0, # of connection points: 2
#     Edge 21, Type (0, 1), BuildingBlock: EZIPEK_clean_linker_0, # of connection points: 2
#     Edge 22, Type (0, 1), BuildingBlock: EZIPEK_clean_linker_0, # of connection points: 2
#     Edge 23, Type (0, 1), BuildingBlock: EZIPEK_clean_linker_0, # of connection points: 2
#     Edge 24, Type (0, 1), BuildingBlock: EZIPEK_clean_linker_0, # of connection points: 2
#     Edge 25, Type (0, 1), BuildingBlock: EZIPEK_clean_linker_0, # of connection points: 2
#     Edge 26, Type (0, 1), BuildingBlock: EZIPEK_clean_linker_0, # of connection points: 2
#     Edge 27, Type (0, 1), BuildingBlock: EZIPEK_clean_linker_0, # of connection points: 2
#     Edge 28, Type (0, 1), BuildingBlock: EZIPEK_clean_linker_0, # of connection points: 2
#     Edge 29, Type (0, 1), BuildingBlock: EZIPEK_clean_linker_0, # of connection points: 2
#     Edge 30, Type (0, 1), BuildingBlock: EZIPEK_clean_linker_0, # of connection points: 2
#     Edge 31, Type (0, 1), BuildingBlock: EZIPEK_clean_linker_0, # of connection points: 2
#     Edge 32, Type (0, 1), BuildingBlock: EZIPEK_clean_linker_0, # of connection points: 2
#     Edge 33, Type (0, 1), BuildingBlock: EZIPEK_clean_linker_0, # of connection points: 2
#     Edge 34, Type (0, 1), BuildingBlock: EZIPEK_clean_linker_0, # of connection points: 2
#     Edge 35, Type (0, 1), BuildingBlock: EZIPEK_clean_linker_0, # of connection points: 2
# Relax obj value: 0.157
# Max RMSD: 0.227
# Mean RMSD: 0.145
data_MOF--net-nom--node1-KUFVIS_clean_sbu_0--node2-AZAVOO_clean_linker_0--edge1-EZIPEK_clean_linker_0
_symmetry_space_group_name_H-M    P1
_symmetry_Int_Tables_number       1
_symmetry_cell_setting            triclinic
loop_
_symmetry_equiv_pos_as_xyz
'x, y, z'
_cell_length_a     36.978664
_cell_length_b     38.876966
_cell_length_c     46.170726
_cell_angle_alpha  90.869703
_cell_angle_beta   90.762913
_cell_angle_gamma 121.54472
loop_
_atom_site_label
_atom_site_type_symbol
_atom_site_fract_x
_atom_site_fract_y
_atom_site_fract_z
_atom_type_partial_charge
H0 H 0.10162 0.51213 0.11293 0.0
H1 H 0.21568 0.74799 0.42504 0.0
H2 H 0.99781 0.45003 0.26002 0.0
H3 H 0.95898 0.41652 0.21466 0.0
H4 H 0.92172 0.5042 0.20663 0.0
H5 H 0.963 0.53928 0.25101 0.0
H6 H 0.06917 0.49473 0.23703 0.0
H7 H 0.08346 0.49193 0.18577 0.0
H8 H 0.08189 0.60098 0.17226 0.0
H9 H 0.06583 0.60243 0.22339 0.0
H10 H 0.14466 0.55575 0.26592 0.0
H11 H 0.21855 0.59658 0.25091 0.0
H12 H 0.21076 0.70342 0.2555 0.0
H13 H 0.13654 0.66242 0.27059 0.0
H14 H 0.17258 0.60929 0.32182 0.0
H15 H 0.22273 0.66061 0.35631 0.0
H16 H 0.12722 0.68681 0.38116 0.0
H17 H 0.07704 0.63542 0.34629 0.0
H18 H 0.11692 0.54217 0.33796 0.0
H19 H 0.15172 0.5543 0.38428 0.0
H20 H 0.03633 0.5288 0.42576 0.0
H21 H 0.00775 0.53286 0.37845 0.0
H22 H 0.94589 0.44851 0.31028 0.0
H23 H 0.87456 0.42756 0.32777 0.0
H24 H 0.91883 0.55101 0.35251 0.0
H25 H 0.98909 0.57204 0.33446 0.0
O26 O 0.09622 0.51397 0.13318 0.0
O27 O 0.09659 0.57086 0.12757 0.0
O28 O 0.24517 0.71481 0.39607 0.0
O29 O 0.19669 0.72835 0.41052 0.0
C30 C 0.0195 0.52517 0.27811 0.0
C31 C 0.05918 0.55112 0.26528 0.0
C32 C 0.09307 0.58183 0.28214 0.0
C33 C 0.08817 0.58481 0.31209 0.0
C34 C 0.05251 0.55273 0.32561 0.0
C35 C 0.01553 0.52681 0.30861 0.0
C36 C 0.98333 0.49715 0.25871 0.0
C37 C 0.97999 0.46116 0.24906 0.0
C38 C 0.95823 0.44229 0.22309 0.0
C39 C 0.93812 0.45832 0.20715 0.0
C40 C 0.9373 0.49159 0.21861 0.0
C41 C 0.96033 0.51128 0.24406 0.0
C42 C 0.06523 0.5481 0.23374 0.0
C43 C 0.07088 0.51741 0.22282 0.0
C44 C 0.07964 0.51621 0.1936 0.0
C45 C 0.08384 0.54624 0.1749 0.0
C46 C 0.07885 0.57738 0.18606 0.0
C47 C 0.06936 0.57812 0.21519 0.0
C48 C 0.13544 0.60627 0.26937 0.0
C49 C 0.15852 0.58781 0.26291 0.0
C50 C 0.2005 0.61095 0.25436 0.0
C51 C 0.21977 0.65279 0.25202 0.0
C52 C 0.19605 0.67103 0.25701 0.0
C53 C 0.15401 0.64784 0.26568 0.0
C54 C 0.12116 0.61916 0.33066 0.0
C55 C 0.1627 0.62695 0.33383 0.0
C56 C 0.19131 0.65601 0.35397 0.0
C57 C 0.17911 0.67803 0.37137 0.0
C58 C 0.13774 0.67054 0.36801 0.0
C59 C 0.10907 0.64131 0.34795 0.0
C60 C 0.06126 0.54038 0.35424 0.0
C61 C 0.09935 0.54076 0.35697 0.0
C62 C 0.11899 0.54645 0.38383 0.0
C63 C 0.09735 0.54288 0.40943 0.0
C64 C 0.05494 0.53357 0.40667 0.0
C65 C 0.03789 0.53468 0.3794 0.0
C66 C 0.97312 0.51184 0.32131 0.0
C67 C 0.94028 0.47099 0.31961 0.0
C68 C 0.89967 0.45904 0.32961 0.0
C69 C 0.89149 0.48775 0.34159 0.0
C70 C 0.92445 0.52835 0.34352 0.0
C71 C 0.96462 0.54027 0.33333 0.0
C72 C 0.09268 0.54462 0.1438 0.0
C73 C 0.20911 0.70816 0.39332 0.0
H74 H 0.60466 0.09628 0.30492 0.0
H75 H 0.5405 0.23534 0.591 0.0
H76 H 0.55488 0.97513 0.44729 0.0
H77 H 0.55086 0.93848 0.40245 0.0
H78 H 0.42289 0.91022 0.38648 0.0
H79 H 0.42696 0.94698 0.43141 0.0
H80 H 0.58638 0.05168 0.42664 0.0
H81 H 0.60573 0.0717 0.3765 0.0
H82 H 0.48409 0.0599 0.36085 0.0
H83 H 0.46492 0.0392 0.41095 0.0
H84 H 0.60245 0.12643 0.46338 0.0
H85 H 0.6277 0.19527 0.447 0.0
H86 H 0.49825 0.16617 0.43916 0.0
H87 H 0.47314 0.09756 0.45578 0.0
H88 H 0.59144 0.11213 0.52628 0.0
H89 H 0.61245 0.17319 0.55545 0.0
H90 H 0.48376 0.14735 0.54922 0.0
H91 H 0.46357 0.08708 0.51929 0.0
H92 H 0.55 0.00394 0.54544 0.0
H93 H 0.57051 0.02484 0.59635 0.0
H94 H 0.47235 0.05272 0.60266 0.0
H95 H 0.44919 0.02809 0.55266 0.0
H96 H 0.51906 0.93556 0.49545 0.0
H97 H 0.47916 0.8638 0.50817 0.0
H98 H 0.37085 0.87272 0.5283 0.0
H99 H 0.41047 0.94421 0.51536 0.0
O100 O 0.59641 0.08839 0.32466 0.0
O101 O 0.53397 0.08303 0.31798 0.0
O102 O 0.59845 0.22273 0.58251 0.0
O103 O 0.53309 0.21159 0.57927 0.0
C104 C 0.49833 0.99544 0.46383 0.0
C105 C 0.51402 0.03469 0.45325 0.0
C106 C 0.52072 0.06623 0.47214 0.0
C107 C 0.5141 0.05942 0.50195 0.0
C108 C 0.49909 0.02031 0.51301 0.0
C109 C 0.48964 0.98767 0.4937 0.0
C110 C 0.49102 0.96328 0.44272 0.0
C111 C 0.52535 0.95956 0.43477 0.0
C112 C 0.52325 0.93909 0.40909 0.0
C113 C 0.4868 0.92216 0.39109 0.0
C114 C 0.45124 0.92313 0.40018 0.0
C115 C 0.4534 0.94372 0.42585 0.0
C116 C 0.52407 0.0435 0.42222 0.0
C117 C 0.56376 0.05289 0.4122 0.0
C118 C 0.57487 0.06467 0.38364 0.0
C119 C 0.54658 0.06768 0.36471 0.0
C120 C 0.50669 0.05806 0.37489 0.0
C121 C 0.49552 0.04597 0.40339 0.0
C122 C 0.53601 0.10714 0.46078 0.0
C123 C 0.57959 0.13488 0.45791 0.0
C124 C 0.59393 0.17396 0.44856 0.0
C125 C 0.5648 0.18568 0.44183 0.0
C126 C 0.52115 0.15761 0.44417 0.0
C127 C 0.50687 0.11864 0.45366 0.0
C128 C 0.52575 0.09464 0.52145 0.0
C129 C 0.56777 0.11952 0.53152 0.0
C130 C 0.57968 0.15442 0.54808 0.0
C131 C 0.54963 0.16482 0.55506 0.0
C132 C 0.5076 0.13999 0.54455 0.0
C133 C 0.4959 0.10542 0.52763 0.0
C134 C 0.49906 0.01593 0.54499 0.0
C135 C 0.53124 0.01223 0.55825 0.0
C136 C 0.54321 0.02449 0.58727 0.0
C137 C 0.52427 0.04216 0.60276 0.0
C138 C 0.48817 0.04027 0.59079 0.0
C139 C 0.47499 0.02626 0.56225 0.0
C140 C 0.46768 0.94531 0.50418 0.0
C141 C 0.48682 0.92217 0.50271 0.0
C142 C 0.46415 0.88129 0.5101 0.0
C143 C 0.42199 0.86287 0.51917 0.0
C144 C 0.40333 0.8863 0.52143 0.0
C145 C 0.42598 0.9271 0.51411 0.0
C146 C 0.55847 0.08021 0.33439 0.0
C147 C 0.56202 0.20148 0.57309 0.0
H148 H 0.63031 0.55022 0.83756 0.0
H149 H 0.59015 0.3347 0.54658 0.0
H150 H 0.56304 0.60024 0.6853 0.0
H151 H 0.55231 0.6269 0.73116 0.0
H152 H 0.45804 0.50553 0.75464 0.0
H153 H 0.46617 0.47983 0.70841 0.0
H154 H 0.61637 0.56303 0.71238 0.0
H155 H 0.63368 0.56836 0.76424 0.0
H156 H 0.52545 0.44798 0.77516 0.0
H157 H 0.50876 0.44294 0.72323 0.0
H158 H 0.63789 0.49156 0.68071 0.0
H159 H 0.65465 0.4405 0.69516 0.0
H160 H 0.52167 0.34825 0.688 0.0
H161 H 0.50532 0.39883 0.67258 0.0
H162 H 0.63641 0.50052 0.62302 0.0
H163 H 0.65994 0.45991 0.59809 0.0
H164 H 0.52919 0.36819 0.57807 0.0
H165 H 0.50606 0.40777 0.60488 0.0
H166 H 0.59873 0.56494 0.59287 0.0
H167 H 0.61843 0.56055 0.54307 0.0
H168 H 0.50463 0.44319 0.53193 0.0
H169 H 0.4828 0.44948 0.58068 0.0
H170 H 0.5328 0.57436 0.5989 0.0
H171 H 0.48004 0.58938 0.58071 0.0
H172 H 0.39335 0.51368 0.64575 0.0
H173 H 0.44213 0.4926 0.65981 0.0
O174 O 0.62357 0.54702 0.817 0.0
O175 O 0.56849 0.48446 0.82132 0.0
O176 O 0.64829 0.3985 0.56872 0.0
O177 O 0.58166 0.35106 0.55698 0.0
C178 C 0.53026 0.52009 0.67189 0.0
C179 C 0.55054 0.50032 0.6827 0.0
C180 C 0.55993 0.47775 0.66387 0.0
C181 C 0.55556 0.47977 0.6338 0.0
C182 C 0.53812 0.50197 0.62239 0.0
C183 C 0.52207 0.51969 0.64158 0.0
C184 C 0.51542 0.53812 0.69363 0.0
C185 C 0.53868 0.57982 0.69979 0.0
C186 C 0.53315 0.59484 0.72609 0.0
C187 C 0.50546 0.56799 0.74668 0.0
C188 C 0.48006 0.52675 0.73932 0.0
C189 C 0.48434 0.51212 0.71281 0.0
C190 C 0.56141 0.50262 0.71409 0.0
C191 C 0.59663 0.53777 0.72601 0.0
C192 C 0.60639 0.54073 0.75562 0.0
C193 C 0.58081 0.50869 0.77388 0.0
C194 C 0.54576 0.47326 0.76173 0.0
C195 C 0.53625 0.47023 0.73208 0.0
C196 C 0.57046 0.44867 0.67559 0.0
C197 C 0.61248 0.46038 0.68252 0.0
C198 C 0.62195 0.4314 0.6907 0.0
C199 C 0.58932 0.39072 0.69259 0.0
C200 C 0.54719 0.37948 0.68663 0.0
C201 C 0.53788 0.40821 0.67795 0.0
C202 C 0.56955 0.45787 0.61477 0.0
C203 C 0.61291 0.47185 0.61295 0.0
C204 C 0.62625 0.44843 0.59891 0.0
C205 C 0.59645 0.41106 0.58567 0.0
C206 C 0.55301 0.39713 0.58758 0.0
C207 C 0.5397 0.42001 0.60245 0.0
C208 C 0.53958 0.50721 0.59059 0.0
C209 C 0.57666 0.53946 0.57908 0.0
C210 C 0.58818 0.53676 0.55079 0.0
C211 C 0.56399 0.50071 0.53446 0.0
C212 C 0.52426 0.47082 0.54453 0.0
C213 C 0.51168 0.4745 0.57228 0.0
C214 C 0.49204 0.5322 0.631 0.0
C215 C 0.50203 0.5599 0.60869 0.0
C216 C 0.47211 0.56925 0.59868 0.0
C217 C 0.43245 0.55297 0.61189 0.0
C218 C 0.42346 0.52678 0.63501 0.0
C219 C 0.45191 0.51527 0.64349 0.0
C220 C 0.59048 0.51247 0.80548 0.0
C221 C 0.61052 0.38661 0.57001 0.0
H222 H 0.12421 0.52371 0.99624 0.0
H223 H 0.29908 0.58285 0.72052 0.0
H224 H 0.97746 0.50284 0.85388 0.0
H225 H 0.93609 0.47584 0.8978 0.0
H226 H 0.93725 0.36623 0.88572 0.0
H227 H 0.97755 0.39284 0.84124 0.0
H228 H 0.07697 0.5477 0.88018 0.0
H229 H 0.0985 0.54877 0.93074 0.0
H230 H 0.07631 0.42866 0.9182 0.0
H231 H 0.05561 0.42837 0.8676 0.0
H232 H 0.15259 0.58079 0.84749 0.0
H233 H 0.22308 0.59977 0.86724 0.0
H234 H 0.1977 0.48075 0.84507 0.0
H235 H 0.12737 0.4618 0.82552 0.0
H236 H 0.14481 0.5923 0.78649 0.0
H237 H 0.2159 0.62666 0.76625 0.0
H238 H 0.19795 0.51094 0.74134 0.0
H239 H 0.1276 0.47706 0.76248 0.0
H240 H 0.05209 0.55285 0.74704 0.0
H241 H 0.08076 0.57196 0.69819 0.0
H242 H 0.08133 0.46166 0.68969 0.0
H243 H 0.05113 0.44195 0.73771 0.0
H244 H 0.94561 0.48169 0.79387 0.0
H245 H 0.87173 0.43003 0.7801 0.0
H246 H 0.91237 0.3492 0.75286 0.0
H247 H 0.98583 0.40046 0.76674 0.0
O248 O 0.11515 0.52251 0.9763 0.0
O249 O 0.1037 0.46093 0.96861 0.0
O250 O 0.27868 0.62883 0.74176 0.0
O251 O 0.27087 0.5701 0.72828 0.0
C252 C 0.01744 0.47123 0.82541 0.0
C253 C 0.05805 0.48994 0.8388 0.0
C254 C 0.09422 0.50872 0.82188 0.0
C255 C 0.09084 0.51163 0.79185 0.0
C256 C 0.0504 0.49302 0.77797 0.0
C257 C 0.01338 0.47156 0.79476 0.0
C258 C 0.98027 0.4497 0.84429 0.0
C259 C 0.96686 0.47218 0.85982 0.0
C260 C 0.94369 0.45696 0.88501 0.0
C261 C 0.93428 0.41935 0.89519 0.0
C262 C 0.94432 0.39534 0.87822 0.0
C263 C 0.96692 0.41033 0.85275 0.0
C264 C 0.0638 0.48761 0.87049 0.0
C265 C 0.07599 0.52138 0.88861 0.0
C266 C 0.08875 0.52207 0.91735 0.0
C267 C 0.0893 0.48885 0.92849 0.0
C268 C 0.07627 0.45474 0.91033 0.0
C269 C 0.06384 0.45424 0.88155 0.0
C270 C 0.13554 0.52016 0.83508 0.0
C271 C 0.16223 0.55884 0.84724 0.0
C272 C 0.20197 0.56948 0.85852 0.0
C273 C 0.21487 0.5414 0.85755 0.0
C274 C 0.18772 0.50244 0.84603 0.0
C275 C 0.14806 0.49181 0.83485 0.0
C276 C 0.13063 0.53227 0.77522 0.0
C277 C 0.15602 0.57451 0.77614 0.0
C278 C 0.19676 0.59401 0.76485 0.0
C279 C 0.21261 0.57152 0.75217 0.0
C280 C 0.18669 0.52917 0.75084 0.0
C281 C 0.14623 0.50974 0.76251 0.0
C282 C 0.04904 0.49575 0.74595 0.0
C283 C 0.05604 0.53173 0.73396 0.0
C284 C 0.07312 0.54298 0.70631 0.0
C285 C 0.08455 0.51889 0.69072 0.0
C286 C 0.07339 0.48104 0.7015 0.0
C287 C 0.05542 0.4694 0.72875 0.0
C288 C 0.97115 0.44505 0.78081 0.0
C289 C 0.93871 0.45331 0.7841 0.0
C290 C 0.89672 0.4239 0.77644 0.0
C291 C 0.88689 0.38598 0.76555 0.0
C292 C 0.91956 0.37842 0.7611 0.0
C293 C 0.96142 0.40775 0.76871 0.0
C294 C 0.10314 0.48977 0.95896 0.0
C295 C 0.25604 0.59202 0.74046 0.0
H296 H 0.38924 0.95386 0.79715 0.0
H297 H 0.41043 0.75744 0.06986 0.0
H298 H 0.48108 0.05841 0.92599 0.0
H299 H 0.51758 0.09717 0.88321 0.0
H300 H 0.63234 0.10369 0.91221 0.0
H301 H 0.59459 0.06049 0.95251 0.0
H302 H 0.40526 0.9666 0.92372 0.0
H303 H 0.38652 0.95893 0.87196 0.0
H304 H 0.51058 0.98071 0.8519 0.0
H305 H 0.52889 0.98842 0.90374 0.0
H306 H 0.38277 0.87927 0.96059 0.0
H307 H 0.36643 0.81217 0.94276 0.0
H308 H 0.49677 0.86445 0.9182 0.0
H309 H 0.51311 0.93019 0.93638 0.0
H310 H 0.39678 0.91175 0.0223 0.0
H311 H 0.36567 0.84825 0.04823 0.0
H312 H 0.47736 0.84271 0.03154 0.0
H313 H 0.50719 0.90522 0.00471 0.0
H314 H 0.46862 0.99671 0.0591 0.0
H315 H 0.48196 0.98018 0.10796 0.0
H316 H 0.57783 0.96057 0.07385 0.0
H317 H 0.56415 0.9763 0.02538 0.0
H318 H 0.51857 0.09221 0.99913 0.0
H319 H 0.57908 0.16003 0.01216 0.0
H320 H 0.65836 0.11027 0.02486 0.0
H321 H 0.59927 0.04364 0.0101 0.0
O322 O 0.39721 0.95685 0.8175 0.0
O323 O 0.46174 0.96902 0.80839 0.0
O324 O 0.36505 0.78663 0.06764 0.0
O325 O 0.42198 0.78263 0.05984 0.0
C326 C 0.50955 0.02115 0.96177 0.0
C327 C 0.47959 0.98318 0.94889 0.0
C328 C 0.46298 0.94801 0.96518 0.0
C329 C 0.47211 0.95069 0.99514 0.0
C330 C 0.50145 0.98835 0.00847 0.0
C331 C 0.52047 0.02361 0.99171 0.0
C332 C 0.53478 0.05596 0.94241 0.0
C333 C 0.51432 0.06882 0.92348 0.0
C334 C 0.53511 0.09096 0.8991 0.0
C335 C 0.57734 0.10242 0.89426 0.0
C336 C 0.59959 0.09469 0.91543 0.0
C337 C 0.57812 0.07051 0.93878 0.0
C338 C 0.46869 0.97882 0.91738 0.0
C339 C 0.42838 0.96989 0.90808 0.0
C340 C 0.41778 0.96551 0.87852 0.0
C341 C 0.44722 0.96958 0.85778 0.0
C342 C 0.48735 0.97782 0.86728 0.0
C343 C 0.49794 0.98234 0.89683 0.0
C344 C 0.44906 0.9094 0.94965 0.0
C345 C 0.40728 0.87624 0.95054 0.0
C346 C 0.39796 0.8383 0.94024 0.0
C347 C 0.43055 0.83382 0.92923 0.0
C348 C 0.47131 0.86762 0.92643 0.0
C349 C 0.48057 0.90503 0.93677 0.0
C350 C 0.45427 0.91311 0.01186 0.0
C351 C 0.4144 0.89671 0.0243 0.0
C352 C 0.39672 0.86045 0.03904 0.0
C353 C 0.4189 0.84022 0.04176 0.0
C354 C 0.45929 0.85731 0.02969 0.0
C355 C 0.47654 0.89314 0.01451 0.0
C356 C 0.51615 0.98874 0.03874 0.0
C357 C 0.49368 0.99048 0.06242 0.0
C358 C 0.50121 0.98099 0.0902 0.0
C359 C 0.53119 0.96957 0.09446 0.0
C360 C 0.55513 0.96997 0.07107 0.0
C361 C 0.54753 0.97925 0.04346 0.0
C362 C 0.55412 0.0627 0.00456 0.0
C363 C 0.54876 0.09588 0.00537 0.0
C364 C 0.5831 0.13437 0.01266 0.0
C365 C 0.62283 0.13976 0.01955 0.0
C366 C 0.62769 0.10639 0.0199 0.0
C367 C 0.59373 0.06823 0.01209 0.0
C368 C 0.43599 0.96515 0.8264 0.0
C369 C 0.4002 0.80157 0.05719 0.0
H370 H 0.63692 0.52547 0.95719 0.0
H371 H 0.76032 0.47381 0.23307 0.0
H372 H 0.52851 0.55961 0.10799 0.0
H373 H 0.50326 0.57679 0.06466 0.0
H374 H 0.62487 0.68696 0.05812 0.0
H375 H 0.65016 0.66994 0.10206 0.0
H376 H 0.5711 0.51642 0.07333 0.0
H377 H 0.5853 0.51117 0.02227 0.0
H378 H 0.70449 0.62515 0.0314 0.0
H379 H 0.6903 0.62953 0.08251 0.0
H380 H 0.58723 0.47219 0.1154 0.0
H381 H 0.61061 0.42737 0.09699 0.0
H382 H 0.73908 0.52928 0.09387 0.0
H383 H 0.71586 0.57372 0.11308 0.0
H384 H 0.59519 0.4736 0.17251 0.0
H385 H 0.62567 0.43644 0.19331 0.0
H386 H 0.74579 0.54862 0.20659 0.0
H387 H 0.71551 0.58504 0.18436 0.0
H388 H 0.5531 0.52642 0.20499 0.0
H389 H 0.55418 0.5058 0.25487 0.0
H390 H 0.6861 0.59965 0.26451 0.0
H391 H 0.6847 0.62094 0.2149 0.0
H392 H 0.52801 0.58322 0.16248 0.0
H393 H 0.50753 0.63139 0.17813 0.0
H394 H 0.6388 0.72067 0.19779 0.0
H395 H 0.65929 0.67262 0.18192 0.0
O396 O 0.63133 0.52865 0.97716 0.0
O397 O 0.68581 0.59207 0.98059 0.0
O398 O 0.68557 0.43066 0.21629 0.0
O399 O 0.74753 0.48768 0.22454 0.0
C400 C 0.60949 0.59608 0.1269 0.0
C401 C 0.62464 0.57348 0.11336 0.0
C402 C 0.63699 0.55156 0.13018 0.0
C403 C 0.63664 0.55364 0.16059 0.0
C404 C 0.62228 0.57693 0.17444 0.0
C405 C 0.60839 0.59815 0.1575 0.0
C406 C 0.59105 0.61362 0.1081 0.0
C407 C 0.54913 0.5883 0.09797 0.0
C408 C 0.53502 0.59767 0.07298 0.0
C409 C 0.56275 0.63224 0.05768 0.0
C410 C 0.6033 0.65982 0.0695 0.0
C411 C 0.61752 0.65039 0.09463 0.0
C412 C 0.62948 0.57355 0.08146 0.0
C413 C 0.59989 0.54051 0.06409 0.0
C414 C 0.60824 0.53746 0.03502 0.0
C415 C 0.64612 0.56765 0.0228 0.0
C416 C 0.67504 0.60136 0.04013 0.0
C417 C 0.66684 0.60414 0.06924 0.0
C418 C 0.65014 0.52583 0.11584 0.0
C419 C 0.62029 0.48478 0.11033 0.0
C420 C 0.63344 0.45943 0.09971 0.0
C421 C 0.67638 0.47528 0.09404 0.0
C422 C 0.70575 0.51681 0.098 0.0
C423 C 0.69269 0.54199 0.10901 0.0
C424 C 0.65294 0.53208 0.17744 0.0
C425 C 0.62795 0.49009 0.18018 0.0
C426 C 0.64554 0.46892 0.19185 0.0
C427 C 0.68817 0.48961 0.20173 0.0
C428 C 0.71283 0.5318 0.19937 0.0
C429 C 0.69548 0.55276 0.18704 0.0
C430 C 0.61879 0.57525 0.20638 0.0
C431 C 0.58157 0.54395 0.21838 0.0
C432 C 0.58227 0.53199 0.2467 0.0
C433 C 0.62032 0.55103 0.26315 0.0
C434 C 0.65646 0.58474 0.25211 0.0
C435 C 0.65559 0.59702 0.22393 0.0
C436 C 0.59511 0.62441 0.1712 0.0
C437 C 0.55225 0.61294 0.17059 0.0
C438 C 0.54062 0.64038 0.17935 0.0
C439 C 0.57173 0.67958 0.18888 0.0
C440 C 0.61443 0.69057 0.19041 0.0
C441 C 0.62604 0.66315 0.1816 0.0
C442 C 0.65567 0.56372 0.99225 0.0
C443 C 0.70685 0.4674 0.21459 0.0
Mn444 Mn 0.64335 0.41788 0.40337 0.0
Mn445 Mn 0.70815 0.51732 0.42029 0.0
C446 C 0.62244 0.44831 0.43709 0.0
C447 C 0.62356 0.35108 0.41148 0.0
C448 C 0.65039 0.48657 0.36663 0.0
O449 O 0.69933 0.43087 0.38591 0.0
O450 O 0.73991 0.49657 0.39899 0.0
C451 C 0.7621 0.50583 0.46216 0.0
N452 N 0.73638 0.5203 0.45613 0.0
C453 C 0.74369 0.54545 0.50516 0.0
C454 C 0.77047 0.53105 0.51181 0.0
C455 C 0.77957 0.51101 0.49023 0.0
C456 C 0.72679 0.53894 0.47688 0.0
H457 H 0.76917 0.49032 0.44572 0.0
C458 C 0.73467 0.46439 0.38686 0.0
O459 O 0.61418 0.36127 0.38711 0.0
O460 O 0.64546 0.37972 0.43053 0.0
N461 N 0.68374 0.54275 0.44147 0.0
C462 C 0.66036 0.55785 0.43105 0.0
C463 C 0.64823 0.57855 0.44988 0.0
C464 C 0.66209 0.58533 0.479 0.0
C465 C 0.68878 0.57217 0.48879 0.0
C466 C 0.69929 0.55121 0.46905 0.0
H467 H 0.65226 0.55527 0.4084 0.0
O468 O 0.59508 0.41374 0.42507 0.0
O469 O 0.66187 0.46317 0.43003 0.0
O470 O 0.63447 0.44883 0.37091 0.0
O471 O 0.67805 0.51495 0.3836 0.0
C472 C 0.7058 0.57948 0.51727 0.0
C473 C 0.73306 0.56594 0.52549 0.0
H474 H 0.78414 0.53514 0.53341 0.0
H475 H 0.80005 0.49963 0.49522 0.0
H476 H 0.62891 0.5899 0.44182 0.0
H477 H 0.6529 0.60151 0.49345 0.0
H478 H 0.69813 0.59548 0.53302 0.0
H479 H 0.7457 0.57146 0.5475 0.0
Mn480 Mn 0.25766 0.62434 0.55052 0.0
Mn481 Mn 0.21182 0.52416 0.53726 0.0
C482 C 0.20613 0.59348 0.51355 0.0
C483 C 0.31258 0.69154 0.5431 0.0
C484 C 0.19049 0.55952 0.58897 0.0
O485 O 0.29675 0.60968 0.57222 0.0
O486 O 0.26935 0.54624 0.55475 0.0
C487 C 0.26733 0.51968 0.49373 0.0
N488 N 0.22808 0.51055 0.50191 0.0
C489 C 0.19467 0.46393 0.46145 0.0
C490 C 0.23477 0.47302 0.45247 0.0
C491 C 0.27126 0.50122 0.46858 0.0
C492 C 0.19279 0.48361 0.48649 0.0
H493 H 0.29532 0.54062 0.50646 0.0
C494 C 0.29798 0.57751 0.56901 0.0
O495 O 0.29015 0.68135 0.56629 0.0
O496 O 0.30485 0.66246 0.52502 0.0
N497 N 0.15636 0.49915 0.51961 0.0
C498 C 0.12149 0.49947 0.52827 0.0
C499 C 0.08261 0.47524 0.51325 0.0
C500 C 0.08007 0.45103 0.48945 0.0
C501 C 0.11679 0.45237 0.4803 0.0
C502 C 0.15473 0.47763 0.49585 0.0
H503 H 0.12361 0.51861 0.5462 0.0
O504 O 0.21657 0.62844 0.5246 0.0
O505 O 0.22742 0.57794 0.5238 0.0
O506 O 0.21168 0.59635 0.58137 0.0
O507 O 0.19144 0.53174 0.57478 0.0
C508 C 0.11758 0.43065 0.45584 0.0
C509 C 0.15654 0.43647 0.44639 0.0
H510 H 0.23793 0.4587 0.43317 0.0
H511 H 0.30229 0.50834 0.46181 0.0
H512 H 0.05469 0.47523 0.51999 0.0
H513 H 0.05004 0.43235 0.47792 0.0
H514 H 0.08866 0.4105 0.44355 0.0
H515 H 0.15692 0.42048 0.42709 0.0
Mn516 Mn 0.6251 0.20825 0.73309 0.0
Mn517 Mn 0.67709 0.15997 0.72183 0.0
C518 C 0.59493 0.15181 0.70247 0.0
C519 C 0.61588 0.26107 0.72134 0.0
C520 C 0.63379 0.15705 0.77834 0.0
O521 O 0.68537 0.24816 0.74775 0.0
O522 O 0.71946 0.21759 0.73182 0.0
C523 C 0.72391 0.20001 0.66912 0.0
N524 N 0.69576 0.1657 0.68285 0.0
C525 C 0.68706 0.12458 0.64076 0.0
C526 C 0.71617 0.15944 0.62622 0.0
C527 C 0.73452 0.19734 0.64043 0.0
C528 C 0.67773 0.12913 0.66934 0.0
H529 H 0.73809 0.22919 0.67998 0.0
C530 C 0.71904 0.24772 0.74305 0.0
O531 O 0.60587 0.24477 0.74661 0.0
O532 O 0.63109 0.24661 0.70297 0.0
N533 N 0.63924 0.10414 0.71132 0.0
C534 C 0.60744 0.07437 0.72675 0.0
C535 C 0.58477 0.03469 0.7153 0.0
C536 C 0.59429 0.02622 0.68775 0.0
C537 C 0.62597 0.05765 0.67173 0.0
C538 C 0.64795 0.09646 0.68448 0.0
H539 H 0.59828 0.08113 0.74705 0.0
O540 O 0.57163 0.16453 0.71329 0.0
O541 O 0.63501 0.17305 0.70979 0.0
O542 O 0.61451 0.17406 0.76887 0.0
O543 O 0.65928 0.15212 0.76292 0.0
C544 C 0.63579 0.05216 0.64332 0.0
C545 C 0.66622 0.08562 0.6278 0.0
H546 H 0.72427 0.15752 0.60404 0.0
H547 H 0.75678 0.22441 0.62929 0.0
H548 H 0.55938 0.01088 0.72741 0.0
H549 H 0.57625 0.99571 0.67876 0.0
H550 H 0.61952 0.02243 0.633 0.0
H551 H 0.67281 0.08114 0.60573 0.0
Mn552 Mn 0.47179 0.65349 0.90551 0.0
Mn553 Mn 0.43765 0.55767 0.92153 0.0
C554 C 0.50557 0.64129 0.9426 0.0
C555 C 0.46004 0.70563 0.91173 0.0
C556 C 0.48193 0.59784 0.86582 0.0
O557 O 0.41433 0.62126 0.88622 0.0
O558 O 0.38806 0.56106 0.90748 0.0
C559 C 0.3803 0.54027 0.97066 0.0
N560 N 0.4169 0.54529 0.96008 0.0
C561 C 0.43366 0.52665 0.00553 0.0
C562 C 0.39701 0.52291 0.01721 0.0
C563 C 0.37011 0.52959 0.99964 0.0
C564 C 0.44255 0.53811 0.97665 0.0
H565 H 0.35866 0.54358 0.95696 0.0
C566 C 0.38398 0.58616 0.89199 0.0
O567 O 0.47908 0.70354 0.88887 0.0
O568 O 0.44963 0.67855 0.93113 0.0
N569 N 0.48348 0.55247 0.93563 0.0
C570 C 0.51692 0.55605 0.92089 0.0
C571 C 0.54616 0.54904 0.93517 0.0
C572 C 0.54045 0.53804 0.96432 0.0
C573 C 0.50563 0.53415 0.97897 0.0
C574 C 0.47763 0.54166 0.96366 0.0
H575 H 0.52132 0.56415 0.89841 0.0
O576 O 0.52431 0.6763 0.93057 0.0
O577 O 0.46841 0.61488 0.93183 0.0
O578 O 0.49542 0.63424 0.87381 0.0
O579 O 0.45926 0.56745 0.88158 0.0
C580 C 0.49744 0.52281 0.0081 0.0
C581 C 0.4613 0.51878 0.02129 0.0
H582 H 0.38885 0.51426 0.03947 0.0
H583 H 0.34125 0.5259 0.00827 0.0
H584 H 0.57297 0.55203 0.92371 0.0
H585 H 0.5629 0.53256 0.97527 0.0
H586 H 0.51852 0.51683 0.0205 0.0
H587 H 0.45496 0.50941 0.04356 0.0
Mn588 Mn 0.81589 0.38124 0.05528 0.0
Mn589 Mn 0.8664 0.33163 0.06714 0.0
C590 C 0.86903 0.40537 0.09057 0.0
C591 C 0.76246 0.39312 0.06534 0.0
C592 C 0.87512 0.3785 0.01257 0.0
O593 O 0.77578 0.3253 0.0378 0.0
O594 O 0.80717 0.29208 0.05393 0.0
C595 C 0.81868 0.28145 0.11656 0.0
N596 N 0.85588 0.31094 0.10545 0.0
C597 C 0.8923 0.32281 0.15151 0.0
C598 C 0.85441 0.29251 0.1634 0.0
C599 C 0.81746 0.27174 0.14584 0.0
C600 C 0.89165 0.33102 0.12214 0.0
H601 H 0.79004 0.26572 0.10326 0.0
C602 C 0.77623 0.2931 0.042 0.0
O603 O 0.78124 0.40277 0.04066 0.0
O604 O 0.77243 0.37381 0.08318 0.0
N605 N 0.92356 0.36754 0.08094 0.0
C606 C 0.95795 0.39454 0.06585 0.0
C607 C 0.99752 0.41788 0.08027 0.0
C608 C 0.00144 0.41272 0.10995 0.0
C609 C 0.96599 0.38353 0.12476 0.0
C610 C 0.9275 0.36092 0.10916 0.0
H611 H 0.95529 0.39796 0.04296 0.0
O612 O 0.85921 0.42955 0.07868 0.0
O613 O 0.84907 0.36876 0.07996 0.0
O614 O 0.85546 0.39499 0.02177 0.0
O615 O 0.87961 0.35298 0.02696 0.0
C616 C 0.96733 0.37598 0.15438 0.0
C617 C 0.9305 0.34565 0.16775 0.0
H618 H 0.85326 0.28517 0.18604 0.0
H619 H 0.78803 0.24848 0.15491 0.0
H620 H 0.02491 0.43981 0.06853 0.0
H621 H 0.03191 0.43094 0.12105 0.0
H622 H 0.99653 0.39331 0.16709 0.0
H623 H 0.93188 0.34022 0.19057 0.0
Mn624 Mn 0.46519 0.82086 0.23453 0.0
Mn625 Mn 0.56732 0.87904 0.25618 0.0
C626 C 0.48263 0.86386 0.27414 0.0
C627 C 0.39905 0.76254 0.23673 0.0
C628 C 0.5311 0.89265 0.20089 0.0
O629 O 0.49333 0.79311 0.21582 0.0
O630 O 0.55894 0.82892 0.237 0.0
C631 C 0.57361 0.82837 0.30077 0.0
N632 N 0.57632 0.86342 0.29339 0.0
C633 C 0.59535 0.88956 0.34242 0.0
C634 C 0.5926 0.85368 0.35055 0.0
C635 C 0.58173 0.82297 0.32961 0.0
C636 C 0.58715 0.89332 0.31331 0.0
H637 H 0.56518 0.80464 0.2848 0.0
C638 C 0.53025 0.79919 0.22142 0.0
O639 O 0.40996 0.78499 0.21412 0.0
O640 O 0.42785 0.77195 0.2568 0.0
N641 N 0.57764 0.92737 0.27579 0.0
C642 C 0.57508 0.95854 0.26516 0.0
C643 C 0.58491 0.99173 0.28339 0.0
C644 C 0.59631 0.99214 0.31256 0.0
C645 C 0.59748 0.95919 0.32328 0.0
C646 C 0.58817 0.92731 0.30395 0.0
H647 H 0.56424 0.95753 0.24325 0.0
O648 O 0.44756 0.85154 0.25956 0.0
O649 O 0.50689 0.85169 0.26419 0.0
O650 O 0.49255 0.86674 0.20616 0.0
O651 O 0.56187 0.8983 0.2174 0.0
C652 C 0.60649 0.95633 0.35257 0.0
C653 C 0.60533 0.9215 0.36215 0.0
H654 H 0.59856 0.8493 0.37281 0.0
H655 H 0.57948 0.79516 0.33572 0.0
H656 H 0.58279 0.01654 0.27512 0.0
H657 H 0.60307 0.01741 0.3267 0.0
H658 H 0.61371 0.9805 0.368 0.0
H659 H 0.61174 0.91941 0.38481 0.0
C660 C 0.29207 0.7018 0.27223 0.0
C661 C 0.26619 0.67818 0.2483 0.0
C662 C 0.32931 0.70323 0.21882 0.0
C663 C 0.354 0.73153 0.24137 0.0
N664 N 0.35568 0.76336 0.28752 0.0
N665 N 0.25891 0.65871 0.19774 0.0
C666 C 0.33471 0.73223 0.26767 0.0
C667 C 0.28444 0.67935 0.22125 0.0
N668 N 0.27611 0.69482 0.29949 0.0
N669 N 0.34882 0.69829 0.19559 0.0
H670 H 0.22594 0.64078 0.19883 0.0
H671 H 0.27012 0.66186 0.17677 0.0
H672 H 0.38173 0.71437 0.19363 0.0
H673 H 0.33281 0.67555 0.1798 0.0
H674 H 0.29495 0.70846 0.31807 0.0
H675 H 0.24504 0.67226 0.30377 0.0
H676 H 0.34097 0.76699 0.3054 0.0
H677 H 0.38605 0.78813 0.28475 0.0
C678 C 0.57619 0.25398 0.45362 0.0
C679 C 0.57999 0.22798 0.4337 0.0
C680 C 0.61541 0.28357 0.39975 0.0
C681 C 0.60764 0.30826 0.41844 0.0
N682 N 0.57174 0.31346 0.46015 0.0
N683 N 0.59671 0.21564 0.38582 0.0
C684 C 0.5856 0.29252 0.44458 0.0
C685 C 0.59772 0.24208 0.40615 0.0
N686 N 0.56478 0.24238 0.4815 0.0
N687 N 0.64131 0.30007 0.37669 0.0
H688 H 0.58413 0.18512 0.38975 0.0
H689 H 0.605 0.22318 0.36436 0.0
H690 H 0.6557 0.33047 0.37167 0.0
H691 H 0.65171 0.28457 0.36414 0.0
H692 H 0.56604 0.26186 0.49778 0.0
H693 H 0.55792 0.2145 0.4891 0.0
H694 H 0.55191 0.30156 0.47776 0.0
H695 H 0.57611 0.34095 0.45371 0.0
C696 C 0.35691 0.52822 0.59577 0.0
C697 C 0.39906 0.56105 0.60096 0.0
C698 C 0.37648 0.60674 0.58352 0.0
C699 C 0.33325 0.57428 0.58263 0.0
N700 N 0.28334 0.50714 0.59934 0.0
N701 N 0.44542 0.63348 0.60696 0.0
C702 C 0.32376 0.53595 0.59233 0.0
C703 C 0.40791 0.60099 0.59701 0.0
N704 N 0.34835 0.48963 0.59288 0.0
N705 N 0.3884 0.64225 0.57039 0.0
H706 H 0.4682 0.63063 0.61837 0.0
H707 H 0.45159 0.66289 0.60674 0.0
H708 H 0.3675 0.64727 0.55858 0.0
H709 H 0.4201 0.66512 0.56852 0.0
H710 H 0.31822 0.46538 0.58703 0.0
H711 H 0.37207 0.48273 0.59271 0.0
H712 H 0.27597 0.47978 0.60827 0.0
H713 H 0.25867 0.51275 0.59994 0.0
C714 C 0.82163 0.32428 0.78285 0.0
C715 C 0.84212 0.3528 0.76079 0.0
C716 C 0.77884 0.31557 0.72911 0.0
C717 C 0.76033 0.28482 0.74989 0.0
N718 N 0.76411 0.25763 0.7956 0.0
N719 N 0.84252 0.37505 0.71232 0.0
C720 C 0.78165 0.28862 0.77659 0.0
C721 C 0.82123 0.34848 0.73379 0.0
N722 N 0.84019 0.33175 0.8099 0.0
N723 N 0.75569 0.3134 0.70504 0.0
H724 H 0.87314 0.40014 0.71531 0.0
H725 H 0.83108 0.37106 0.69105 0.0
H726 H 0.725 0.28916 0.7005 0.0
H727 H 0.7655 0.33678 0.69059 0.0
H728 H 0.82512 0.31443 0.82779 0.0
H729 H 0.86972 0.35732 0.81514 0.0
H730 H 0.78001 0.25639 0.81394 0.0
H731 H 0.73426 0.23164 0.79211 0.0
C732 C 0.42026 0.77655 0.89746 0.0
C733 C 0.42587 0.794 0.9255 0.0
C734 C 0.45652 0.75602 0.94338 0.0
C735 C 0.44909 0.73672 0.91576 0.0
N736 N 0.41264 0.72026 0.86898 0.0
N737 N 0.43585 0.79065 0.97676 0.0
C738 C 0.42763 0.74445 0.89339 0.0
C739 C 0.43917 0.78014 0.94904 0.0
N740 N 0.40887 0.79127 0.87474 0.0
N741 N 0.48236 0.75352 0.96362 0.0
H742 H 0.42222 0.80765 0.98144 0.0
H743 H 0.44188 0.77857 0.99488 0.0
H744 H 0.49851 0.73861 0.95968 0.0
H745 H 0.49169 0.7702 0.98307 0.0
H746 H 0.40913 0.78295 0.85322 0.0
H747 H 0.4012 0.8134 0.87752 0.0
H748 H 0.39353 0.72258 0.85332 0.0
H749 H 0.41553 0.69523 0.86572 0.0
C750 C 0.71735 0.44445 0.10937 0.0
C751 C 0.69213 0.44815 0.08785 0.0
C752 C 0.70373 0.40548 0.05471 0.0
C753 C 0.73532 0.40856 0.07425 0.0
N754 N 0.7781 0.43875 0.11832 0.0
N755 N 0.66301 0.43478 0.03907 0.0
C756 C 0.74347 0.42964 0.10131 0.0
C757 C 0.68538 0.42908 0.06025 0.0
N758 N 0.71657 0.45541 0.13751 0.0
N759 N 0.6907 0.37945 0.03131 0.0
H760 H 0.64887 0.45167 0.04251 0.0
H761 H 0.6611 0.4252 0.01761 0.0
H762 H 0.70256 0.36073 0.02723 0.0
H763 H 0.6652 0.37342 0.01774 0.0
H764 H 0.73134 0.44966 0.15452 0.0
H765 H 0.69747 0.4663 0.14417 0.0
H766 H 0.78729 0.45768 0.13666 0.0
H767 H 0.80065 0.43168 0.11271 0.0
C768 C 0.40057 0.80324 0.55146 0.0
C769 C 0.39627 0.81851 0.52471 0.0
C770 C 0.33662 0.75093 0.51035 0.0
C771 C 0.34265 0.73494 0.53627 0.0
N772 N 0.38546 0.7445 0.57894 0.0
N773 N 0.36624 0.80544 0.47626 0.0
C774 C 0.37609 0.76076 0.55614 0.0
C775 C 0.36617 0.79183 0.50341 0.0
N776 N 0.42715 0.82948 0.57275 0.0
N777 N 0.30124 0.72789 0.49313 0.0
H778 H 0.3871 0.83521 0.4704 0.0
H779 H 0.34836 0.78646 0.45885 0.0
H780 H 0.278 0.69826 0.49763 0.0
H781 H 0.29273 0.73934 0.47585 0.0
H782 H 0.42821 0.82091 0.59385 0.0
H783 H 0.44606 0.86054 0.5699 0.0
H784 H 0.41209 0.76098 0.59251 0.0
H785 H 0.36872 0.7136 0.58274 0.0
C786 C 0.6145 0.3581 0.72757 0.0
C787 C 0.59896 0.35918 0.69957 0.0
C788 C 0.59106 0.29426 0.68676 0.0
C789 C 0.61047 0.29505 0.71374 0.0
N790 N 0.65084 0.33346 0.75647 0.0
N791 N 0.58274 0.33361 0.65013 0.0
C792 C 0.62512 0.32861 0.73326 0.0
C793 C 0.59048 0.32891 0.67838 0.0
N794 N 0.61778 0.38424 0.74904 0.0
N795 N 0.57109 0.25982 0.66979 0.0
H796 H 0.58298 0.35908 0.64302 0.0
H797 H 0.58047 0.31429 0.63334 0.0
H798 H 0.56843 0.23286 0.67576 0.0
H799 H 0.55307 0.25672 0.65129 0.0
H800 H 0.62468 0.38183 0.7706 0.0
H801 H 0.60985 0.40603 0.74588 0.0
H802 H 0.66559 0.35941 0.76972 0.0
H803 H 0.66134 0.31377 0.76063 0.0
C804 C 0.26848 0.5536 0.89591 0.0
C805 C 0.25837 0.55387 0.86632 0.0
C806 C 0.33118 0.57681 0.85304 0.0
C807 C 0.34125 0.57646 0.88284 0.0
N808 N 0.32448 0.58114 0.93247 0.0
N809 N 0.28024 0.57234 0.81713 0.0
C810 C 0.31129 0.56937 0.90434 0.0
C811 C 0.28978 0.56735 0.84493 0.0
N812 N 0.2372 0.53807 0.9159 0.0
N813 N 0.36102 0.58614 0.83252 0.0
H814 H 0.24998 0.565 0.81028 0.0
H815 H 0.30267 0.58631 0.80118 0.0
H816 H 0.39295 0.598 0.83754 0.0
H817 H 0.35414 0.5811 0.81038 0.0
H818 H 0.24242 0.5333 0.9373 0.0
H819 H 0.20539 0.52702 0.91057 0.0
H820 H 0.30452 0.57996 0.94865 0.0
H821 H 0.35648 0.59683 0.93885 0.0
C822 C 0.69322 0.19586 0.00395 0.0
C823 C 0.66053 0.18057 0.0245 0.0
C824 C 0.70241 0.24114 0.05518 0.0
C825 C 0.73667 0.25428 0.03598 0.0
N826 N 0.76822 0.23988 0.99583 0.0
N827 N 0.63569 0.1852 0.0716 0.0
C828 C 0.73318 0.23042 0.01141 0.0
C829 C 0.66537 0.20238 0.0506 0.0
N830 N 0.68572 0.17783 0.97706 0.0
N831 N 0.70549 0.26545 0.07801 0.0
H832 H 0.60815 0.15677 0.06905 0.0
H833 H 0.63978 0.19761 0.09239 0.0
H834 H 0.73329 0.2926 0.08359 0.0
H835 H 0.67981 0.25981 0.09052 0.0
H836 H 0.70709 0.19007 0.96027 0.0
H837 H 0.65643 0.1528 0.9706 0.0
H838 H 0.76814 0.22129 0.9793 0.0
H839 H 0.79843 0.26415 0.00137 0.0
C840 C 0.56753 0.7404 0.17709 0.0
C841 C 0.55974 0.70954 0.19669 0.0
C842 C 0.52744 0.73459 0.23039 0.0
C843 C 0.53899 0.76767 0.21211 0.0
N844 N 0.57386 0.80509 0.16975 0.0
N845 N 0.53756 0.67995 0.24354 0.0
C846 C 0.56012 0.77144 0.18589 0.0
C847 C 0.54096 0.70726 0.22374 0.0
N848 N 0.58081 0.73931 0.14978 0.0
N849 N 0.503 0.729 0.25392 0.0
H850 H 0.54685 0.65926 0.23938 0.0
H851 H 0.52871 0.67979 0.26487 0.0
H852 H 0.49334 0.74889 0.25995 0.0
H853 H 0.48955 0.70313 0.26624 0.0
H854 H 0.58282 0.75837 0.13345 0.0
H855 H 0.58664 0.71711 0.14261 0.0
H856 H 0.59351 0.81189 0.1521 0.0
H857 H 0.56796 0.82782 0.17522 0.0
C858 C 0.82516 0.49002 0.33546 0.0
C859 C 0.84828 0.47642 0.35131 0.0
C860 C 0.79236 0.44811 0.38758 0.0
C861 C 0.77236 0.4665 0.37371 0.0
N862 N 0.77255 0.50926 0.33626 0.0
N863 N 0.85651 0.44609 0.39407 0.0
C864 C 0.78953 0.48861 0.34811 0.0
C865 C 0.83236 0.45599 0.37767 0.0
N866 N 0.83684 0.50352 0.30798 0.0
N867 N 0.77343 0.4235 0.41044 0.0
H868 H 0.88576 0.45116 0.38754 0.0
H869 H 0.84917 0.43558 0.41507 0.0
H870 H 0.74544 0.41868 0.41936 0.0
H871 H 0.78383 0.40561 0.41933 0.0
H872 H 0.81881 0.50998 0.29413 0.0
H873 H 0.86247 0.50449 0.29795 0.0
H874 H 0.78652 0.52948 0.31955 0.0
H875 H 0.74621 0.5087 0.34459 0.0
C876 C 0.11734 0.57463 0.46083 0.0
C877 C 0.12068 0.55101 0.43825 0.0
C878 C 0.18394 0.56032 0.46359 0.0
C879 C 0.17548 0.57645 0.4884 0.0
N880 N 0.12563 0.58916 0.51238 0.0
N881 N 0.1524 0.51144 0.42534 0.0
C882 C 0.13925 0.5802 0.48769 0.0
C883 C 0.15201 0.54043 0.44194 0.0
N884 N 0.09736 0.59534 0.4562 0.0
N885 N 0.22259 0.56469 0.45977 0.0
H886 H 0.12781 0.49202 0.41098 0.0
H887 H 0.12781 0.49202 0.41098 0.0
H888 H 0.24857 0.58226 0.47369 0.0
H889 H 0.22906 0.5532 0.44127 0.0
H890 H 0.09722 0.61493 0.47182 0.0
H891 H 0.08671 0.59791 0.43584 0.0
H892 H 0.09753 0.58935 0.51287 0.0
H893 H 0.13958 0.59167 0.53272 0.0
C894 C 0.52629 0.05506 0.65666 0.0
C895 C 0.54519 0.06793 0.62928 0.0
C896 C 0.59598 0.13527 0.64999 0.0
C897 C 0.57827 0.12223 0.67768 0.0
N898 N 0.52316 0.07205 0.70718 0.0
N899 N 0.60337 0.11755 0.6011 0.0
C900 C 0.54236 0.0827 0.68096 0.0
C901 C 0.58168 0.10712 0.62637 0.0
N902 N 0.49427 0.01577 0.65952 0.0
N903 N 0.62413 0.1754 0.64556 0.0
H904 H 0.59358 0.09908 0.58258 0.0
H905 H 0.63328 0.14339 0.5991 0.0
H906 H 0.63474 0.19769 0.66179 0.0
H907 H 0.6339 0.18748 0.62515 0.0
H908 H 0.48108 0.00277 0.67913 0.0
H909 H 0.4826 0.9949 0.6422 0.0
H910 H 0.49445 0.04554 0.71068 0.0
H911 H 0.53542 0.0906 0.72572 0.0
C912 C 0.5372 0.5975 0.79661 0.0
C913 C 0.50242 0.58153 0.77637 0.0
C914 C 0.45428 0.56947 0.81576 0.0
C915 C 0.48934 0.5901 0.8356 0.0
N916 N 0.56516 0.62747 0.84438 0.0
N917 N 0.43052 0.56364 0.76604 0.0
C918 C 0.53122 0.60572 0.82577 0.0
C919 C 0.46186 0.57126 0.7858 0.0
N920 N 0.57507 0.6025 0.78864 0.0
N921 N 0.41366 0.54687 0.82516 0.0
H922 H 0.43545 0.56596 0.74376 0.0
H923 H 0.40141 0.55951 0.77197 0.0
H924 H 0.40539 0.54439 0.84679 0.0
H925 H 0.3881 0.52783 0.81131 0.0
H926 H 0.59971 0.60939 0.80334 0.0
H927 H 0.58088 0.59665 0.7677 0.0
H928 H 0.59644 0.64347 0.8376 0.0
H929 H 0.56196 0.63132 0.86641 0.0
C930 C 0.94698 0.42934 0.94908 0.0
C931 C 0.91903 0.40766 0.92523 0.0
C932 C 0.86336 0.36448 0.9589 0.0
C933 C 0.89074 0.38782 0.9826 0.0
N934 N 0.95417 0.4484 -4e-05 0.0
N935 N 0.84917 0.35799 0.90686 0.0
C936 C 0.93135 0.42193 0.97763 0.0
C937 C 0.87682 0.37589 0.92997 0.0
N938 N 0.98892 0.45634 0.94449 0.0
N939 N 0.82417 0.33177 0.96415 0.0
H940 H 0.85805 0.36572 0.88546 0.0
H941 H 0.81681 0.33749 0.90874 0.0
H942 H 0.81178 0.32501 0.98482 0.0
H943 H 0.80457 0.31044 0.94837 0.0
H944 H 0.01168 0.46983 0.96116 0.0
H945 H 0.00164 0.46251 0.92391 0.0
H946 H 0.982 0.4761 0.99711 0.0
H947 H 0.94314 0.44461 0.02105 0.0
C948 C 0.56194 0.97499 0.14472 0.0
C949 C 0.5332 0.95096 0.12191 0.0
C950 C 0.51403 0.88959 0.14808 0.0
C951 C 0.53899 0.91337 0.17242 0.0
N952 N 0.59858 0.97771 0.18949 0.0
N953 N 0.4775 0.88597 0.10333 0.0
C954 C 0.56646 0.95593 0.16962 0.0
C955 C 0.50823 0.90842 0.12395 0.0
N956 N 0.58386 0.01611 0.14283 0.0
N957 N 0.49815 0.84893 0.1473 0.0
H958 H 0.47211 0.89857 0.08527 0.0
H959 H 0.45473 0.85552 0.10555 0.0
H960 H 0.50445 0.83448 0.1637 0.0
H961 H 0.48337 0.83043 0.12904 0.0
H962 H 0.60162 0.03598 0.15984 0.0
H963 H 0.58185 0.03068 0.12464 0.0
H964 H 0.62131 0.00822 0.18779 0.0
H965 H 0.60632 0.96458 0.20592 0.0
C966 C 0.61436 0.54085 0.317 0.0
C967 C 0.62429 0.53177 0.28959 0.0
C968 C 0.64843 0.49027 0.31229 0.0
C969 C 0.6376 0.49859 0.33976 0.0
N970 N 0.59744 0.5204 0.36657 0.0
N971 N 0.6399 0.48959 0.2603 0.0
C972 C 0.61693 0.52072 0.34166 0.0
C973 C 0.63802 0.50394 0.287 0.0
N974 N 0.60303 0.56901 0.31958 0.0
N975 N 0.67006 0.47063 0.31027 0.0
H976 H 0.63291 0.4993 0.24134 0.0
H977 H 0.64417 0.46536 0.25723 0.0
H978 H 0.67692 0.45857 0.32801 0.0
H979 H 0.68374 0.46863 0.29124 0.0
H980 H 0.59993 0.58006 0.3395 0.0
H981 H 0.59968 0.58344 0.30179 0.0
H982 H 0.57842 0.53271 0.36859 0.0
H983 H 0.59682 0.50388 0.38423 0.0
C984 C 0.49111 0.93166 0.33746 0.0
C985 C 0.4875 0.90756 0.3613 0.0
C986 C 0.48518 0.85645 0.32819 0.0
C987 C 0.4867 0.87987 0.30418 0.0
N988 N 0.48267 0.93561 0.28579 0.0
N989 N 0.4767 0.8456 0.38007 0.0
C990 C 0.48699 0.91615 0.3088 0.0
C991 C 0.48375 0.86969 0.35688 0.0
N992 N 0.50024 0.9702 0.34224 0.0
N993 N 0.48401 0.82103 0.32361 0.0
H994 H 0.4757 0.85452 0.40132 0.0
H995 H 0.46909 0.81582 0.37844 0.0
H996 H 0.47993 0.80743 0.30328 0.0
H997 H 0.48884 0.80554 0.33987 0.0
H998 H 0.50824 0.99095 0.32588 0.0
H999 H 0.50356 0.98268 0.36294 0.0
H1000 H 0.47699 0.95906 0.28803 0.0
H1001 H 0.48245 0.92701 0.26426 0.0
C1002 C 0.6138 0.48167 0.51326 0.0
C1003 C 0.58206 0.49146 0.50894 0.0
C1004 C 0.57676 0.47313 0.45731 0.0
C1005 C 0.60919 0.4642 0.46154 0.0
N1006 N 0.64946 0.44881 0.49475 0.0
N1007 N 0.53919 0.50404 0.47646 0.0
C1008 C 0.62541 0.46563 0.48983 0.0
C1009 C 0.56507 0.48915 0.48083 0.0
N1010 N 0.63399 0.48886 0.53962 0.0
N1011 N 0.55549 0.46427 0.43122 0.0
H1012 H 0.53035 0.51622 0.49324 0.0
H1013 H 0.52962 0.50783 0.45607 0.0
H1014 H 0.56247 0.45203 0.41353 0.0
H1015 H 0.52849 0.46575 0.42764 0.0
H1016 H 0.66115 0.48765 0.54312 0.0
H1017 H 0.62608 0.49953 0.55769 0.0
H1018 H 0.65775 0.44416 0.5153 0.0
H1019 H 0.65814 0.43588 0.47846 0.0
C1020 C 0.09384 0.51114 0.63801 0.0
C1021 C 0.11077 0.53354 0.66416 0.0
C1022 C 0.18032 0.57394 0.64124 0.0
C1023 C 0.16406 0.54848 0.61584 0.0
N1024 N 0.10799 0.48222 0.5969 0.0
N1025 N 0.1717 0.58405 0.69211 0.0
C1026 C 0.12162 0.51408 0.61598 0.0
C1027 C 0.15436 0.56474 0.66608 0.0
N1028 N 0.05087 0.48659 0.63421 0.0
N1029 N 0.22139 0.60576 0.64232 0.0
H1030 H 0.15406 0.57848 0.71068 0.0
H1031 H 0.20402 0.60393 0.69595 0.0
H1032 H 0.24412 0.60897 0.6277 0.0
H1033 H 0.23301 0.62926 0.65768 0.0
H1034 H 0.03651 0.47262 0.61435 0.0
H1035 H 0.0296 0.48395 0.64995 0.0
H1036 H 0.07829 0.45581 0.59806 0.0
H1037 H 0.1275 0.47838 0.58309 0.0
C1038 C 0.60321 0.09293 0.84635 0.0
C1039 C 0.59655 0.11799 0.86557 0.0
C1040 C 0.62724 0.17223 0.83042 0.0
C1041 C 0.6281 0.14535 0.80957 0.0
N1042 N 0.62552 0.08276 0.79968 0.0
N1043 N 0.60193 0.18134 0.8764 0.0
C1044 C 0.61924 0.10671 0.81825 0.0
C1045 C 0.60863 0.15766 0.85776 0.0
N1046 N 0.5947 0.05599 0.85513 0.0
N1047 N 0.64683 0.21242 0.82463 0.0
H1048 H 0.59126 0.17292 0.89741 0.0
H1049 H 0.6047 0.20837 0.8706 0.0
H1050 H 0.66347 0.22455 0.8057 0.0
H1051 H 0.65096 0.23444 0.83971 0.0
H1052 H 0.60384 0.03827 0.84421 0.0
H1053 H 0.57943 0.04295 0.87422 0.0
H1054 H 0.61111 0.05167 0.80142 0.0
H1055 H 0.64668 0.09407 0.78284 0.0
C1056 C 0.57099 0.63405 0.00359 0.0
C1057 C 0.55001 0.63715 0.02816 0.0
C1058 C 0.49705 0.63804 0.99644 0.0
C1059 C 0.51986 0.63789 0.97186 0.0
N1060 N 0.58331 0.64462 0.95222 0.0
N1061 N 0.499 0.651 0.04812 0.0
C1062 C 0.55853 0.639 0.97552 0.0
C1063 C 0.51465 0.64162 0.02461 0.0
N1064 N 0.60113 0.62405 0.00685 0.0
N1065 N 0.4586 0.63481 0.99309 0.0
H1066 H 0.51182 0.65478 0.06903 0.0
H1067 H 0.47622 0.65899 0.04662 0.0
H1068 H 0.44513 0.63448 0.97312 0.0
H1069 H 0.43827 0.6293 0.01017 0.0
H1070 H 0.61427 0.6173 0.9895 0.0
H1071 H 0.61013 0.61867 0.02691 0.0
H1072 H 0.61402 0.65015 0.95414 0.0
H1073 H 0.57426 0.64635 0.93105 0.0
C1074 C 0.94506 0.46565 0.1531 0.0
C1075 C 0.92165 0.4429 0.17719 0.0
C1076 C 0.86412 0.39443 0.14449 0.0
C1077 C 0.88862 0.41578 0.12017 0.0
N1078 N 0.95402 0.46902 0.101 0.0
N1079 N 0.86247 0.38234 0.19592 0.0
C1080 C 0.92959 0.45066 0.12444 0.0
C1081 C 0.88244 0.40614 0.17286 0.0
N1082 N 0.9817 0.50216 0.15767 0.0
N1083 N 0.82237 0.3646 0.14088 0.0
H1084 H 0.87336 0.39093 0.2173 0.0
H1085 H 0.83679 0.35278 0.19371 0.0
H1086 H 0.807 0.35405 0.12086 0.0
H1087 H 0.80168 0.35203 0.15798 0.0
H1088 H 0.99748 0.52273 0.14145 0.0
H1089 H 0.99516 0.51316 0.17821 0.0
H1090 H 0.98596 0.49168 0.10252 0.0
H1091 H 0.94335 0.45928 0.0797 0.0
loop_
_geom_bond_atom_site_label_1
_geom_bond_atom_site_label_2
_geom_bond_distance
_geom_bond_site_symmetry_2
_ccdc_geom_bond_type
H0 O26 0.856 . S
H1 O29 0.854 . S
H2 C37 0.930 1_455 S
H3 C38 0.930 . S
H4 C40 0.930 . S
H5 C41 0.930 . S
H6 C43 0.931 . S
H7 C44 0.930 . S
H8 C46 0.930 . S
H9 C47 0.929 . S
H10 C49 0.930 . S
H11 C50 0.931 . S
H12 C52 0.930 . S
H13 C53 0.929 . S
H14 C55 0.931 . S
H15 C56 0.930 . S
H16 C58 0.930 . S
H17 C59 0.932 . S
H18 C61 0.930 . S
H19 C62 0.929 . S
H20 C64 0.931 . S
H21 C65 0.930 . S
H22 C67 0.929 . S
H23 C68 0.931 . S
H24 C70 0.930 . S
H25 C71 0.929 . S
O26 H0 0.856 . S
O26 C72 1.300 . S
O27 C72 1.209 . S
O28 C73 1.199 . S
O29 H1 0.854 . S
O29 C73 1.297 . S
C30 C31 1.404 . S
C30 C35 1.397 . S
C30 C36 1.492 . S
C31 C30 1.404 . S
C31 C32 1.396 . S
C31 C42 1.492 . S
C32 C31 1.396 . S
C32 C33 1.397 . S
C32 C48 1.509 . S
C33 C32 1.397 . S
C33 C34 1.412 . S
C33 C54 1.485 . S
C34 C33 1.412 . S
C34 C35 1.388 . S
C34 C60 1.490 . S
C35 C30 1.397 . S
C35 C34 1.388 . S
C35 C66 1.519 1_455 S
C36 C30 1.492 . S
C36 C37 1.363 1_455 S
C36 C41 1.390 1_455 S
C37 H2 0.930 1_655 S
C37 C36 1.363 1_655 S
C37 C38 1.372 . S
C38 H3 0.930 . S
C38 C37 1.372 . S
C38 C39 1.383 . S
C39 C38 1.383 . S
C39 C40 1.395 . S
C40 H4 0.930 . S
C40 C39 1.395 . S
C40 C41 1.362 . S
C41 H5 0.930 . S
C41 C36 1.390 1_655 S
C41 C40 1.362 . S
C42 C31 1.492 . S
C42 C43 1.377 . S
C42 C47 1.397 . S
C43 H6 0.931 . S
C43 C42 1.377 . S
C43 C44 1.376 . S
C44 H7 0.930 . S
C44 C43 1.376 . S
C44 C45 1.376 . S
C45 C44 1.376 . S
C45 C46 1.378 . S
C45 C72 1.486 . S
C46 H8 0.930 . S
C46 C45 1.378 . S
C46 C47 1.376 . S
C47 H9 0.929 . S
C47 C42 1.397 . S
C47 C46 1.376 . S
C48 C32 1.509 . S
C48 C49 1.391 . S
C48 C53 1.386 . S
C49 H10 0.930 . S
C49 C48 1.391 . S
C49 C50 1.375 . S
C50 H11 0.931 . S
C50 C49 1.375 . S
C50 C51 1.375 . S
C51 C50 1.375 . S
C51 C52 1.361 . S
C52 H12 0.930 . S
C52 C51 1.361 . S
C52 C53 1.399 . S
C53 H13 0.929 . S
C53 C48 1.386 . S
C53 C52 1.399 . S
C54 C33 1.485 . S
C54 C55 1.394 . S
C54 C59 1.360 . S
C55 H14 0.931 . S
C55 C54 1.394 . S
C55 C56 1.372 . S
C56 H15 0.930 . S
C56 C55 1.372 . S
C56 C57 1.397 . S
C57 C56 1.397 . S
C57 C58 1.390 . S
C57 C73 1.476 . S
C58 H16 0.930 . S
C58 C57 1.390 . S
C58 C59 1.366 . S
C59 H17 0.932 . S
C59 C54 1.360 . S
C59 C58 1.366 . S
C60 C34 1.490 . S
C60 C61 1.380 . S
C60 C65 1.386 . S
C61 H18 0.930 . S
C61 C60 1.380 . S
C61 C62 1.381 . S
C62 H19 0.929 . S
C62 C61 1.381 . S
C62 C63 1.371 . S
C63 C62 1.371 . S
C63 C64 1.380 . S
C64 H20 0.931 . S
C64 C63 1.380 . S
C64 C65 1.387 . S
C65 H21 0.930 . S
C65 C60 1.386 . S
C65 C64 1.387 . S
C66 C35 1.519 1_655 S
C66 C67 1.377 . S
C66 C71 1.361 . S
C67 H22 0.929 . S
C67 C66 1.377 . S
C67 C68 1.386 . S
C68 H23 0.931 . S
C68 C67 1.386 . S
C68 C69 1.363 . S
C69 C68 1.363 . S
C69 C70 1.385 . S
C70 H24 0.930 . S
C70 C69 1.385 . S
C70 C71 1.396 . S
C71 H25 0.929 . S
C71 C66 1.361 . S
C71 C70 1.396 . S
C72 O26 1.300 . S
C72 O27 1.209 . S
C72 C45 1.486 . S
C73 O28 1.199 . S
C73 O29 1.297 . S
C73 C57 1.476 . S
H74 O100 0.856 . S
H75 O103 0.854 . S
H76 C111 0.930 1_545 S
H77 C112 0.930 . S
H78 C114 0.930 . S
H79 C115 0.930 . S
H80 C117 0.931 . S
H81 C118 0.930 . S
H82 C120 0.930 . S
H83 C121 0.929 . S
H84 C123 0.930 . S
H85 C124 0.931 . S
H86 C126 0.930 . S
H87 C127 0.929 . S
H88 C129 0.931 . S
H89 C130 0.930 . S
H90 C132 0.930 . S
H91 C133 0.932 . S
H92 C135 0.930 . S
H93 C136 0.929 . S
H94 C138 0.931 . S
H95 C139 0.930 . S
H96 C141 0.929 . S
H97 C142 0.931 . S
H98 C144 0.930 . S
H99 C145 0.929 . S
O100 H74 0.856 . S
O100 C146 1.300 . S
O101 C146 1.209 . S
O102 C147 1.199 . S
O103 H75 0.854 . S
O103 C147 1.297 . S
C104 C105 1.404 . S
C104 C109 1.397 . S
C104 C110 1.492 1_545 S
C105 C104 1.404 . S
C105 C106 1.396 . S
C105 C116 1.492 . S
C106 C105 1.396 . S
C106 C107 1.397 . S
C106 C122 1.509 . S
C107 C106 1.397 . S
C107 C108 1.412 . S
C107 C128 1.485 . S
C108 C107 1.412 . S
C108 C109 1.388 . S
C108 C134 1.490 . S
C109 C104 1.397 . S
C109 C108 1.388 . S
C109 C140 1.519 1_545 S
C110 C104 1.492 1_565 S
C110 C111 1.363 . S
C110 C115 1.390 . S
C111 H76 0.930 1_565 S
C111 C110 1.363 . S
C111 C112 1.372 . S
C112 H77 0.930 . S
C112 C111 1.372 . S
C112 C113 1.383 . S
C113 C112 1.383 . S
C113 C114 1.395 . S
C114 H78 0.930 . S
C114 C113 1.395 . S
C114 C115 1.362 . S
C115 H79 0.930 . S
C115 C110 1.390 . S
C115 C114 1.362 . S
C116 C105 1.492 . S
C116 C117 1.377 . S
C116 C121 1.397 . S
C117 H80 0.931 . S
C117 C116 1.377 . S
C117 C118 1.376 . S
C118 H81 0.930 . S
C118 C117 1.376 . S
C118 C119 1.376 . S
C119 C118 1.376 . S
C119 C120 1.378 . S
C119 C146 1.486 . S
C120 H82 0.930 . S
C120 C119 1.378 . S
C120 C121 1.376 . S
C121 H83 0.929 . S
C121 C116 1.397 . S
C121 C120 1.376 . S
C122 C106 1.509 . S
C122 C123 1.391 . S
C122 C127 1.386 . S
C123 H84 0.930 . S
C123 C122 1.391 . S
C123 C124 1.375 . S
C124 H85 0.931 . S
C124 C123 1.375 . S
C124 C125 1.375 . S
C125 C124 1.375 . S
C125 C126 1.361 . S
C126 H86 0.930 . S
C126 C125 1.361 . S
C126 C127 1.399 . S
C127 H87 0.929 . S
C127 C122 1.386 . S
C127 C126 1.399 . S
C128 C107 1.485 . S
C128 C129 1.394 . S
C128 C133 1.360 . S
C129 H88 0.931 . S
C129 C128 1.394 . S
C129 C130 1.372 . S
C130 H89 0.930 . S
C130 C129 1.372 . S
C130 C131 1.397 . S
C131 C130 1.397 . S
C131 C132 1.390 . S
C131 C147 1.476 . S
C132 H90 0.930 . S
C132 C131 1.390 . S
C132 C133 1.366 . S
C133 H91 0.932 . S
C133 C128 1.360 . S
C133 C132 1.366 . S
C134 C108 1.490 . S
C134 C135 1.380 . S
C134 C139 1.386 . S
C135 H92 0.930 . S
C135 C134 1.380 . S
C135 C136 1.381 . S
C136 H93 0.929 . S
C136 C135 1.381 . S
C136 C137 1.371 . S
C137 C136 1.371 . S
C137 C138 1.380 . S
C138 H94 0.931 . S
C138 C137 1.380 . S
C138 C139 1.387 . S
C139 H95 0.930 . S
C139 C134 1.386 . S
C139 C138 1.387 . S
C140 C109 1.519 1_565 S
C140 C141 1.377 . S
C140 C145 1.361 . S
C141 H96 0.929 . S
C141 C140 1.377 . S
C141 C142 1.386 . S
C142 H97 0.931 . S
C142 C141 1.386 . S
C142 C143 1.363 . S
C143 C142 1.363 . S
C143 C144 1.385 . S
C144 H98 0.930 . S
C144 C143 1.385 . S
C144 C145 1.396 . S
C145 H99 0.929 . S
C145 C140 1.361 . S
C145 C144 1.396 . S
C146 O100 1.300 . S
C146 O101 1.209 . S
C146 C119 1.486 . S
C147 O102 1.199 . S
C147 O103 1.297 . S
C147 C131 1.476 . S
H148 O174 0.856 . S
H149 O177 0.854 . S
H150 C185 0.930 . S
H151 C186 0.930 . S
H152 C188 0.930 . S
H153 C189 0.930 . S
H154 C191 0.931 . S
H155 C192 0.930 . S
H156 C194 0.930 . S
H157 C195 0.929 . S
H158 C197 0.930 . S
H159 C198 0.931 . S
H160 C200 0.930 . S
H161 C201 0.929 . S
H162 C203 0.931 . S
H163 C204 0.930 . S
H164 C206 0.930 . S
H165 C207 0.932 . S
H166 C209 0.930 . S
H167 C210 0.929 . S
H168 C212 0.931 . S
H169 C213 0.930 . S
H170 C215 0.929 . S
H171 C216 0.931 . S
H172 C218 0.930 . S
H173 C219 0.929 . S
O174 H148 0.856 . S
O174 C220 1.300 . S
O175 C220 1.209 . S
O176 C221 1.199 . S
O177 H149 0.854 . S
O177 C221 1.297 . S
C178 C179 1.404 . S
C178 C183 1.397 . S
C178 C184 1.492 . S
C179 C178 1.404 . S
C179 C180 1.396 . S
C179 C190 1.492 . S
C180 C179 1.396 . S
C180 C181 1.397 . S
C180 C196 1.509 . S
C181 C180 1.397 . S
C181 C182 1.412 . S
C181 C202 1.485 . S
C182 C181 1.412 . S
C182 C183 1.388 . S
C182 C208 1.490 . S
C183 C178 1.397 . S
C183 C182 1.388 . S
C183 C214 1.519 . S
C184 C178 1.492 . S
C184 C185 1.363 . S
C184 C189 1.390 . S
C185 H150 0.930 . S
C185 C184 1.363 . S
C185 C186 1.372 . S
C186 H151 0.930 . S
C186 C185 1.372 . S
C186 C187 1.383 . S
C187 C186 1.383 . S
C187 C188 1.395 . S
C188 H152 0.930 . S
C188 C187 1.395 . S
C188 C189 1.362 . S
C189 H153 0.930 . S
C189 C184 1.390 . S
C189 C188 1.362 . S
C190 C179 1.492 . S
C190 C191 1.377 . S
C190 C195 1.397 . S
C191 H154 0.931 . S
C191 C190 1.377 . S
C191 C192 1.376 . S
C192 H155 0.930 . S
C192 C191 1.376 . S
C192 C193 1.376 . S
C193 C192 1.376 . S
C193 C194 1.378 . S
C193 C220 1.486 . S
C194 H156 0.930 . S
C194 C193 1.378 . S
C194 C195 1.376 . S
C195 H157 0.929 . S
C195 C190 1.397 . S
C195 C194 1.376 . S
C196 C180 1.509 . S
C196 C197 1.391 . S
C196 C201 1.386 . S
C197 H158 0.930 . S
C197 C196 1.391 . S
C197 C198 1.375 . S
C198 H159 0.931 . S
C198 C197 1.375 . S
C198 C199 1.375 . S
C199 C198 1.375 . S
C199 C200 1.361 . S
C200 H160 0.930 . S
C200 C199 1.361 . S
C200 C201 1.399 . S
C201 H161 0.929 . S
C201 C196 1.386 . S
C201 C200 1.399 . S
C202 C181 1.485 . S
C202 C203 1.394 . S
C202 C207 1.360 . S
C203 H162 0.931 . S
C203 C202 1.394 . S
C203 C204 1.372 . S
C204 H163 0.930 . S
C204 C203 1.372 . S
C204 C205 1.397 . S
C205 C204 1.397 . S
C205 C206 1.390 . S
C205 C221 1.476 . S
C206 H164 0.930 . S
C206 C205 1.390 . S
C206 C207 1.366 . S
C207 H165 0.932 . S
C207 C202 1.360 . S
C207 C206 1.366 . S
C208 C182 1.490 . S
C208 C209 1.380 . S
C208 C213 1.386 . S
C209 H166 0.930 . S
C209 C208 1.380 . S
C209 C210 1.381 . S
C210 H167 0.929 . S
C210 C209 1.381 . S
C210 C211 1.371 . S
C211 C210 1.371 . S
C211 C212 1.380 . S
C212 H168 0.931 . S
C212 C211 1.380 . S
C212 C213 1.387 . S
C213 H169 0.930 . S
C213 C208 1.386 . S
C213 C212 1.387 . S
C214 C183 1.519 . S
C214 C215 1.377 . S
C214 C219 1.361 . S
C215 H170 0.929 . S
C215 C214 1.377 . S
C215 C216 1.386 . S
C216 H171 0.931 . S
C216 C215 1.386 . S
C216 C217 1.363 . S
C217 C216 1.363 . S
C217 C218 1.385 . S
C218 H172 0.930 . S
C218 C217 1.385 . S
C218 C219 1.396 . S
C219 H173 0.929 . S
C219 C214 1.361 . S
C219 C218 1.396 . S
C220 O174 1.300 . S
C220 O175 1.209 . S
C220 C193 1.486 . S
C221 O176 1.199 . S
C221 O177 1.297 . S
C221 C205 1.476 . S
H222 O248 0.856 1_554 S
H223 O251 0.854 . S
H224 C259 0.930 1_455 S
H225 C260 0.930 . S
H226 C262 0.930 . S
H227 C263 0.930 . S
H228 C265 0.931 . S
H229 C266 0.930 . S
H230 C268 0.930 . S
H231 C269 0.929 . S
H232 C271 0.930 . S
H233 C272 0.931 . S
H234 C274 0.930 . S
H235 C275 0.929 . S
H236 C277 0.931 . S
H237 C278 0.930 . S
H238 C280 0.930 . S
H239 C281 0.932 . S
H240 C283 0.930 . S
H241 C284 0.929 . S
H242 C286 0.931 . S
H243 C287 0.930 . S
H244 C289 0.929 . S
H245 C290 0.931 . S
H246 C292 0.930 . S
H247 C293 0.929 . S
O248 H222 0.856 1_556 S
O248 C294 1.300 . S
O249 C294 1.209 . S
O250 C295 1.199 . S
O251 H223 0.854 . S
O251 C295 1.297 . S
C252 C253 1.404 . S
C252 C257 1.397 . S
C252 C258 1.492 . S
C253 C252 1.404 . S
C253 C254 1.396 . S
C253 C264 1.492 . S
C254 C253 1.396 . S
C254 C255 1.397 . S
C254 C270 1.509 . S
C255 C254 1.397 . S
C255 C256 1.412 . S
C255 C276 1.485 . S
C256 C255 1.412 . S
C256 C257 1.388 . S
C256 C282 1.490 . S
C257 C252 1.397 . S
C257 C256 1.388 . S
C257 C288 1.519 1_455 S
C258 C252 1.492 . S
C258 C259 1.363 1_455 S
C258 C263 1.390 1_455 S
C259 H224 0.930 1_655 S
C259 C258 1.363 1_655 S
C259 C260 1.372 . S
C260 H225 0.930 . S
C260 C259 1.372 . S
C260 C261 1.383 . S
C261 C260 1.383 . S
C261 C262 1.395 . S
C262 H226 0.930 . S
C262 C261 1.395 . S
C262 C263 1.362 . S
C263 H227 0.930 . S
C263 C258 1.390 1_655 S
C263 C262 1.362 . S
C264 C253 1.492 . S
C264 C265 1.377 . S
C264 C269 1.397 . S
C265 H228 0.931 . S
C265 C264 1.377 . S
C265 C266 1.376 . S
C266 H229 0.930 . S
C266 C265 1.376 . S
C266 C267 1.376 . S
C267 C266 1.376 . S
C267 C268 1.378 . S
C267 C294 1.486 . S
C268 H230 0.930 . S
C268 C267 1.378 . S
C268 C269 1.376 . S
C269 H231 0.929 . S
C269 C264 1.397 . S
C269 C268 1.376 . S
C270 C254 1.509 . S
C270 C271 1.391 . S
C270 C275 1.386 . S
C271 H232 0.930 . S
C271 C270 1.391 . S
C271 C272 1.375 . S
C272 H233 0.931 . S
C272 C271 1.375 . S
C272 C273 1.375 . S
C273 C272 1.375 . S
C273 C274 1.361 . S
C274 H234 0.930 . S
C274 C273 1.361 . S
C274 C275 1.399 . S
C275 H235 0.929 . S
C275 C270 1.386 . S
C275 C274 1.399 . S
C276 C255 1.485 . S
C276 C277 1.394 . S
C276 C281 1.360 . S
C277 H236 0.931 . S
C277 C276 1.394 . S
C277 C278 1.372 . S
C278 H237 0.930 . S
C278 C277 1.372 . S
C278 C279 1.397 . S
C279 C278 1.397 . S
C279 C280 1.390 . S
C279 C295 1.476 . S
C280 H238 0.930 . S
C280 C279 1.390 . S
C280 C281 1.366 . S
C281 H239 0.932 . S
C281 C276 1.360 . S
C281 C280 1.366 . S
C282 C256 1.490 . S
C282 C283 1.380 . S
C282 C287 1.386 . S
C283 H240 0.930 . S
C283 C282 1.380 . S
C283 C284 1.381 . S
C284 H241 0.929 . S
C284 C283 1.381 . S
C284 C285 1.371 . S
C285 C284 1.371 . S
C285 C286 1.380 . S
C286 H242 0.931 . S
C286 C285 1.380 . S
C286 C287 1.387 . S
C287 H243 0.930 . S
C287 C282 1.386 . S
C287 C286 1.387 . S
C288 C257 1.519 1_655 S
C288 C289 1.377 . S
C288 C293 1.361 . S
C289 H244 0.929 . S
C289 C288 1.377 . S
C289 C290 1.386 . S
C290 H245 0.931 . S
C290 C289 1.386 . S
C290 C291 1.363 . S
C291 C290 1.363 . S
C291 C292 1.385 . S
C292 H246 0.930 . S
C292 C291 1.385 . S
C292 C293 1.396 . S
C293 H247 0.929 . S
C293 C288 1.361 . S
C293 C292 1.396 . S
C294 O248 1.300 . S
C294 O249 1.209 . S
C294 C267 1.486 . S
C295 O250 1.199 . S
C295 O251 1.297 . S
C295 C279 1.476 . S
H296 O322 0.856 . S
H297 O325 0.854 . S
H298 C333 0.930 . S
H299 C334 0.930 . S
H300 C336 0.930 . S
H301 C337 0.930 . S
H302 C339 0.931 . S
H303 C340 0.930 . S
H304 C342 0.930 . S
H305 C343 0.929 . S
H306 C345 0.930 . S
H307 C346 0.931 . S
H308 C348 0.930 . S
H309 C349 0.929 . S
H310 C351 0.931 . S
H311 C352 0.930 . S
H312 C354 0.930 . S
H313 C355 0.932 . S
H314 C357 0.930 1_545 S
H315 C358 0.929 . S
H316 C360 0.931 . S
H317 C361 0.930 . S
H318 C363 0.929 1_556 S
H319 C364 0.931 . S
H320 C366 0.930 . S
H321 C367 0.929 . S
O322 H296 0.856 . S
O322 C368 1.300 . S
O323 C368 1.209 . S
O324 C369 1.199 . S
O325 H297 0.854 . S
O325 C369 1.297 . S
C326 C327 1.404 1_545 S
C326 C331 1.397 . S
C326 C332 1.492 . S
C327 C326 1.404 1_565 S
C327 C328 1.396 . S
C327 C338 1.492 . S
C328 C327 1.396 . S
C328 C329 1.397 . S
C328 C344 1.509 . S
C329 C328 1.397 . S
C329 C330 1.412 1_556 S
C329 C350 1.485 1_556 S
C330 C329 1.412 1_554 S
C330 C331 1.388 1_564 S
C330 C356 1.490 . S
C331 C326 1.397 . S
C331 C330 1.388 1_546 S
C331 C362 1.519 1_556 S
C332 C326 1.492 . S
C332 C333 1.363 . S
C332 C337 1.390 . S
C333 H298 0.930 . S
C333 C332 1.363 . S
C333 C334 1.372 . S
C334 H299 0.930 . S
C334 C333 1.372 . S
C334 C335 1.383 . S
C335 C334 1.383 . S
C335 C336 1.395 . S
C336 H300 0.930 . S
C336 C335 1.395 . S
C336 C337 1.362 . S
C337 H301 0.930 . S
C337 C332 1.390 . S
C337 C336 1.362 . S
C338 C327 1.492 . S
C338 C339 1.377 . S
C338 C343 1.397 . S
C339 H302 0.931 . S
C339 C338 1.377 . S
C339 C340 1.376 . S
C340 H303 0.930 . S
C340 C339 1.376 . S
C340 C341 1.376 . S
C341 C340 1.376 . S
C341 C342 1.378 . S
C341 C368 1.486 . S
C342 H304 0.930 . S
C342 C341 1.378 . S
C342 C343 1.376 . S
C343 H305 0.929 . S
C343 C338 1.397 . S
C343 C342 1.376 . S
C344 C328 1.509 . S
C344 C345 1.391 . S
C344 C349 1.386 . S
C345 H306 0.930 . S
C345 C344 1.391 . S
C345 C346 1.375 . S
C346 H307 0.931 . S
C346 C345 1.375 . S
C346 C347 1.375 . S
C347 C346 1.375 . S
C347 C348 1.361 . S
C348 H308 0.930 . S
C348 C347 1.361 . S
C348 C349 1.399 . S
C349 H309 0.929 . S
C349 C344 1.386 . S
C349 C348 1.399 . S
C350 C329 1.485 1_554 S
C350 C351 1.394 . S
C350 C355 1.360 . S
C351 H310 0.931 . S
C351 C350 1.394 . S
C351 C352 1.372 . S
C352 H311 0.930 . S
C352 C351 1.372 . S
C352 C353 1.397 . S
C353 C352 1.397 . S
C353 C354 1.390 . S
C353 C369 1.476 . S
C354 H312 0.930 . S
C354 C353 1.390 . S
C354 C355 1.366 . S
C355 H313 0.932 . S
C355 C350 1.360 . S
C355 C354 1.366 . S
C356 C330 1.490 . S
C356 C357 1.380 . S
C356 C361 1.386 . S
C357 H314 0.930 1_565 S
C357 C356 1.380 . S
C357 C358 1.381 1_565 S
C358 H315 0.929 . S
C358 C357 1.381 1_545 S
C358 C359 1.371 1_545 S
C359 C358 1.371 1_565 S
C359 C360 1.380 . S
C360 H316 0.931 . S
C360 C359 1.380 . S
C360 C361 1.387 . S
C361 H317 0.930 . S
C361 C356 1.386 . S
C361 C360 1.387 . S
C362 C331 1.519 1_554 S
C362 C363 1.377 . S
C362 C367 1.361 . S
C363 H318 0.929 1_554 S
C363 C362 1.377 . S
C363 C364 1.386 . S
C364 H319 0.931 . S
C364 C363 1.386 . S
C364 C365 1.363 . S
C365 C364 1.363 . S
C365 C366 1.385 . S
C366 H320 0.930 . S
C366 C365 1.385 . S
C366 C367 1.396 . S
C367 H321 0.929 . S
C367 C362 1.361 . S
C367 C366 1.396 . S
C368 O322 1.300 . S
C368 O323 1.209 . S
C368 C341 1.486 . S
C369 O324 1.199 . S
C369 O325 1.297 . S
C369 C353 1.476 . S
H370 O396 0.856 . S
H371 O399 0.854 . S
H372 C407 0.930 . S
H373 C408 0.930 . S
H374 C410 0.930 . S
H375 C411 0.930 . S
H376 C413 0.931 . S
H377 C414 0.930 . S
H378 C416 0.930 . S
H379 C417 0.929 . S
H380 C419 0.930 . S
H381 C420 0.931 . S
H382 C422 0.930 . S
H383 C423 0.929 . S
H384 C425 0.931 . S
H385 C426 0.930 . S
H386 C428 0.930 . S
H387 C429 0.932 . S
H388 C431 0.930 . S
H389 C432 0.929 . S
H390 C434 0.931 . S
H391 C435 0.930 . S
H392 C437 0.929 . S
H393 C438 0.931 . S
H394 C440 0.930 . S
H395 C441 0.929 . S
O396 H370 0.856 . S
O396 C442 1.300 . S
O397 C442 1.209 . S
O398 C443 1.199 . S
O399 H371 0.854 . S
O399 C443 1.297 . S
C400 C401 1.404 . S
C400 C405 1.397 . S
C400 C406 1.492 . S
C401 C400 1.404 . S
C401 C402 1.396 . S
C401 C412 1.492 . S
C402 C401 1.396 . S
C402 C403 1.397 . S
C402 C418 1.509 . S
C403 C402 1.397 . S
C403 C404 1.412 . S
C403 C424 1.485 . S
C404 C403 1.412 . S
C404 C405 1.388 . S
C404 C430 1.490 . S
C405 C400 1.397 . S
C405 C404 1.388 . S
C405 C436 1.519 . S
C406 C400 1.492 . S
C406 C407 1.363 . S
C406 C411 1.390 . S
C407 H372 0.930 . S
C407 C406 1.363 . S
C407 C408 1.372 . S
C408 H373 0.930 . S
C408 C407 1.372 . S
C408 C409 1.383 . S
C409 C408 1.383 . S
C409 C410 1.395 . S
C410 H374 0.930 . S
C410 C409 1.395 . S
C410 C411 1.362 . S
C411 H375 0.930 . S
C411 C406 1.390 . S
C411 C410 1.362 . S
C412 C401 1.492 . S
C412 C413 1.377 . S
C412 C417 1.397 . S
C413 H376 0.931 . S
C413 C412 1.377 . S
C413 C414 1.376 . S
C414 H377 0.930 . S
C414 C413 1.376 . S
C414 C415 1.376 . S
C415 C414 1.376 . S
C415 C416 1.378 . S
C415 C442 1.486 1_554 S
C416 H378 0.930 . S
C416 C415 1.378 . S
C416 C417 1.376 . S
C417 H379 0.929 . S
C417 C412 1.397 . S
C417 C416 1.376 . S
C418 C402 1.509 . S
C418 C419 1.391 . S
C418 C423 1.386 . S
C419 H380 0.930 . S
C419 C418 1.391 . S
C419 C420 1.375 . S
C420 H381 0.931 . S
C420 C419 1.375 . S
C420 C421 1.375 . S
C421 C420 1.375 . S
C421 C422 1.361 . S
C422 H382 0.930 . S
C422 C421 1.361 . S
C422 C423 1.399 . S
C423 H383 0.929 . S
C423 C418 1.386 . S
C423 C422 1.399 . S
C424 C403 1.485 . S
C424 C425 1.394 . S
C424 C429 1.360 . S
C425 H384 0.931 . S
C425 C424 1.394 . S
C425 C426 1.372 . S
C426 H385 0.930 . S
C426 C425 1.372 . S
C426 C427 1.397 . S
C427 C426 1.397 . S
C427 C428 1.390 . S
C427 C443 1.476 . S
C428 H386 0.930 . S
C428 C427 1.390 . S
C428 C429 1.366 . S
C429 H387 0.932 . S
C429 C424 1.360 . S
C429 C428 1.366 . S
C430 C404 1.490 . S
C430 C431 1.380 . S
C430 C435 1.386 . S
C431 H388 0.930 . S
C431 C430 1.380 . S
C431 C432 1.381 . S
C432 H389 0.929 . S
C432 C431 1.381 . S
C432 C433 1.371 . S
C433 C432 1.371 . S
C433 C434 1.380 . S
C434 H390 0.931 . S
C434 C433 1.380 . S
C434 C435 1.387 . S
C435 H391 0.930 . S
C435 C430 1.386 . S
C435 C434 1.387 . S
C436 C405 1.519 . S
C436 C437 1.377 . S
C436 C441 1.361 . S
C437 H392 0.929 . S
C437 C436 1.377 . S
C437 C438 1.386 . S
C438 H393 0.931 . S
C438 C437 1.386 . S
C438 C439 1.363 . S
C439 C438 1.363 . S
C439 C440 1.385 . S
C440 H394 0.930 . S
C440 C439 1.385 . S
C440 C441 1.396 . S
C441 H395 0.929 . S
C441 C436 1.361 . S
C441 C440 1.396 . S
C442 O396 1.300 . S
C442 O397 1.209 . S
C442 C415 1.486 1_556 S
C443 O398 1.199 . S
C443 O399 1.297 . S
C443 C427 1.476 . S
Mn444 O449 2.095 . S
Mn444 O459 2.162 . S
Mn444 O460 2.297 . S
Mn444 O468 2.385 . S
Mn444 O469 2.209 . S
Mn444 O470 2.094 . S
Mn445 O450 2.121 . S
Mn445 N452 2.257 . S
Mn445 N461 2.282 . S
Mn445 O469 2.215 . S
Mn445 O471 2.117 . S
C446 O468 1.234 . S
C446 O469 1.283 . S
C447 O459 1.281 . S
C447 O460 1.236 . S
C448 O470 1.240 . S
C448 O471 1.264 . S
O449 Mn444 2.095 . S
O449 C458 1.250 . S
O450 Mn445 2.121 . S
O450 C458 1.258 . S
C451 N452 1.326 . S
C451 C455 1.460 . S
C451 H457 0.929 . S
N452 Mn445 2.257 . S
N452 C451 1.326 . S
N452 C456 1.362 . S
C453 C454 1.258 . S
C453 C456 1.431 . S
C453 C473 1.449 . S
C454 C453 1.258 . S
C454 C455 1.477 . S
C454 H474 0.931 . S
C455 C451 1.460 . S
C455 C454 1.477 . S
C455 H475 0.930 . S
C456 N452 1.362 . S
C456 C453 1.431 . S
C456 C466 1.476 . S
H457 C451 0.929 . S
C458 O449 1.250 . S
C458 O450 1.258 . S
O459 Mn444 2.162 . S
O459 C447 1.281 . S
O460 Mn444 2.297 . S
O460 C447 1.236 . S
N461 Mn445 2.282 . S
N461 C462 1.328 . S
N461 C466 1.318 . S
C462 N461 1.328 . S
C462 C463 1.457 . S
C462 H467 0.929 . S
C463 C462 1.457 . S
C463 C464 1.291 . S
C463 H476 0.931 . S
C464 C463 1.291 . S
C464 C465 1.373 . S
C464 H477 0.929 . S
C465 C464 1.373 . S
C465 C466 1.396 . S
C465 C472 1.403 . S
C466 C456 1.476 . S
C466 N461 1.318 . S
C466 C465 1.396 . S
H467 C462 0.929 . S
O468 Mn444 2.385 . S
O468 C446 1.234 . S
O469 Mn444 2.209 . S
O469 Mn445 2.215 . S
O469 C446 1.283 . S
O470 Mn444 2.094 . S
O470 C448 1.240 . S
O471 Mn445 2.117 . S
O471 C448 1.264 . S
C472 C465 1.403 . S
C472 C473 1.399 . S
C472 H478 0.929 . S
C473 C453 1.449 . S
C473 C472 1.399 . S
C473 H479 0.930 . S
H474 C454 0.931 . S
H475 C455 0.930 . S
H476 C463 0.931 . S
H477 C464 0.929 . S
H478 C472 0.929 . S
H479 C473 0.930 . S
Mn480 O485 2.095 . S
Mn480 O495 2.162 . S
Mn480 O496 2.297 . S
Mn480 O504 2.385 . S
Mn480 O505 2.209 . S
Mn480 O506 2.094 . S
Mn481 O486 2.121 . S
Mn481 N488 2.257 . S
Mn481 N497 2.282 . S
Mn481 O505 2.215 . S
Mn481 O507 2.117 . S
C482 O504 1.234 . S
C482 O505 1.283 . S
C483 O495 1.281 . S
C483 O496 1.236 . S
C484 O506 1.240 . S
C484 O507 1.264 . S
O485 Mn480 2.095 . S
O485 C494 1.250 . S
O486 Mn481 2.121 . S
O486 C494 1.258 . S
C487 N488 1.326 . S
C487 C491 1.460 . S
C487 H493 0.929 . S
N488 Mn481 2.257 . S
N488 C487 1.326 . S
N488 C492 1.362 . S
C489 C490 1.258 . S
C489 C492 1.431 . S
C489 C509 1.449 . S
C490 C489 1.258 . S
C490 C491 1.477 . S
C490 H510 0.931 . S
C491 C487 1.460 . S
C491 C490 1.477 . S
C491 H511 0.930 . S
C492 N488 1.362 . S
C492 C489 1.431 . S
C492 C502 1.476 . S
H493 C487 0.929 . S
C494 O485 1.250 . S
C494 O486 1.258 . S
O495 Mn480 2.162 . S
O495 C483 1.281 . S
O496 Mn480 2.297 . S
O496 C483 1.236 . S
N497 Mn481 2.282 . S
N497 C498 1.328 . S
N497 C502 1.318 . S
C498 N497 1.328 . S
C498 C499 1.457 . S
C498 H503 0.929 . S
C499 C498 1.457 . S
C499 C500 1.291 . S
C499 H512 0.931 . S
C500 C499 1.291 . S
C500 C501 1.373 . S
C500 H513 0.929 . S
C501 C500 1.373 . S
C501 C502 1.396 . S
C501 C508 1.403 . S
C502 C492 1.476 . S
C502 N497 1.318 . S
C502 C501 1.396 . S
H503 C498 0.929 . S
O504 Mn480 2.385 . S
O504 C482 1.234 . S
O505 Mn480 2.209 . S
O505 Mn481 2.215 . S
O505 C482 1.283 . S
O506 Mn480 2.094 . S
O506 C484 1.240 . S
O507 Mn481 2.117 . S
O507 C484 1.264 . S
C508 C501 1.403 . S
C508 C509 1.399 . S
C508 H514 0.929 . S
C509 C489 1.449 . S
C509 C508 1.399 . S
C509 H515 0.930 . S
H510 C490 0.931 . S
H511 C491 0.930 . S
H512 C499 0.931 . S
H513 C500 0.929 . S
H514 C508 0.929 . S
H515 C509 0.930 . S
Mn516 O521 2.095 . S
Mn516 O531 2.162 . S
Mn516 O532 2.297 . S
Mn516 O540 2.385 . S
Mn516 O541 2.209 . S
Mn516 O542 2.094 . S
Mn517 O522 2.121 . S
Mn517 N524 2.257 . S
Mn517 N533 2.282 . S
Mn517 O541 2.215 . S
Mn517 O543 2.117 . S
C518 O540 1.234 . S
C518 O541 1.283 . S
C519 O531 1.281 . S
C519 O532 1.236 . S
C520 O542 1.240 . S
C520 O543 1.264 . S
O521 Mn516 2.095 . S
O521 C530 1.250 . S
O522 Mn517 2.121 . S
O522 C530 1.258 . S
C523 N524 1.326 . S
C523 C527 1.460 . S
C523 H529 0.929 . S
N524 Mn517 2.257 . S
N524 C523 1.326 . S
N524 C528 1.362 . S
C525 C526 1.258 . S
C525 C528 1.431 . S
C525 C545 1.449 . S
C526 C525 1.258 . S
C526 C527 1.477 . S
C526 H546 0.931 . S
C527 C523 1.460 . S
C527 C526 1.477 . S
C527 H547 0.930 . S
C528 N524 1.362 . S
C528 C525 1.431 . S
C528 C538 1.476 . S
H529 C523 0.929 . S
C530 O521 1.250 . S
C530 O522 1.258 . S
O531 Mn516 2.162 . S
O531 C519 1.281 . S
O532 Mn516 2.297 . S
O532 C519 1.236 . S
N533 Mn517 2.282 . S
N533 C534 1.328 . S
N533 C538 1.318 . S
C534 N533 1.328 . S
C534 C535 1.457 . S
C534 H539 0.929 . S
C535 C534 1.457 . S
C535 C536 1.291 . S
C535 H548 0.931 . S
C536 C535 1.291 . S
C536 C537 1.373 . S
C536 H549 0.929 1_545 S
C537 C536 1.373 . S
C537 C538 1.396 . S
C537 C544 1.403 . S
C538 C528 1.476 . S
C538 N533 1.318 . S
C538 C537 1.396 . S
H539 C534 0.929 . S
O540 Mn516 2.385 . S
O540 C518 1.234 . S
O541 Mn516 2.209 . S
O541 Mn517 2.215 . S
O541 C518 1.283 . S
O542 Mn516 2.094 . S
O542 C520 1.240 . S
O543 Mn517 2.117 . S
O543 C520 1.264 . S
C544 C537 1.403 . S
C544 C545 1.399 . S
C544 H550 0.929 1_545 S
C545 C525 1.449 . S
C545 C544 1.399 . S
C545 H551 0.930 . S
H546 C526 0.931 . S
H547 C527 0.930 . S
H548 C535 0.931 . S
H549 C536 0.929 1_565 S
H550 C544 0.929 1_565 S
H551 C545 0.930 . S
Mn552 O557 2.095 . S
Mn552 O567 2.162 . S
Mn552 O568 2.297 . S
Mn552 O576 2.385 . S
Mn552 O577 2.209 . S
Mn552 O578 2.094 . S
Mn553 O558 2.121 . S
Mn553 N560 2.257 . S
Mn553 N569 2.282 . S
Mn553 O577 2.215 . S
Mn553 O579 2.117 . S
C554 O576 1.234 . S
C554 O577 1.283 . S
C555 O567 1.281 . S
C555 O568 1.236 . S
C556 O578 1.240 . S
C556 O579 1.264 . S
O557 Mn552 2.095 . S
O557 C566 1.250 . S
O558 Mn553 2.121 . S
O558 C566 1.258 . S
C559 N560 1.326 . S
C559 C563 1.460 . S
C559 H565 0.929 . S
N560 Mn553 2.257 . S
N560 C559 1.326 . S
N560 C564 1.362 . S
C561 C562 1.258 . S
C561 C564 1.431 . S
C561 C581 1.449 . S
C562 C561 1.258 . S
C562 C563 1.477 . S
C562 H582 0.931 . S
C563 C559 1.460 . S
C563 C562 1.477 . S
C563 H583 0.930 . S
C564 N560 1.362 . S
C564 C561 1.431 . S
C564 C574 1.476 . S
H565 C559 0.929 . S
C566 O557 1.250 . S
C566 O558 1.258 . S
O567 Mn552 2.162 . S
O567 C555 1.281 . S
O568 Mn552 2.297 . S
O568 C555 1.236 . S
N569 Mn553 2.282 . S
N569 C570 1.328 . S
N569 C574 1.318 . S
C570 N569 1.328 . S
C570 C571 1.457 . S
C570 H575 0.929 . S
C571 C570 1.457 . S
C571 C572 1.291 . S
C571 H584 0.931 . S
C572 C571 1.291 . S
C572 C573 1.373 . S
C572 H585 0.929 . S
C573 C572 1.373 . S
C573 C574 1.396 . S
C573 C580 1.403 . S
C574 C564 1.476 . S
C574 N569 1.318 . S
C574 C573 1.396 . S
H575 C570 0.929 . S
O576 Mn552 2.385 . S
O576 C554 1.234 . S
O577 Mn552 2.209 . S
O577 Mn553 2.215 . S
O577 C554 1.283 . S
O578 Mn552 2.094 . S
O578 C556 1.240 . S
O579 Mn553 2.117 . S
O579 C556 1.264 . S
C580 C573 1.403 . S
C580 C581 1.399 . S
C580 H586 0.929 . S
C581 C561 1.449 . S
C581 C580 1.399 . S
C581 H587 0.930 . S
H582 C562 0.931 . S
H583 C563 0.930 . S
H584 C571 0.931 . S
H585 C572 0.929 . S
H586 C580 0.929 . S
H587 C581 0.930 . S
Mn588 O593 2.095 . S
Mn588 O603 2.162 . S
Mn588 O604 2.297 . S
Mn588 O612 2.385 . S
Mn588 O613 2.209 . S
Mn588 O614 2.094 . S
Mn589 O594 2.121 . S
Mn589 N596 2.257 . S
Mn589 N605 2.282 . S
Mn589 O613 2.215 . S
Mn589 O615 2.117 . S
C590 O612 1.234 . S
C590 O613 1.283 . S
C591 O603 1.281 . S
C591 O604 1.236 . S
C592 O614 1.240 . S
C592 O615 1.264 . S
O593 Mn588 2.095 . S
O593 C602 1.250 . S
O594 Mn589 2.121 . S
O594 C602 1.258 . S
C595 N596 1.326 . S
C595 C599 1.460 . S
C595 H601 0.929 . S
N596 Mn589 2.257 . S
N596 C595 1.326 . S
N596 C600 1.362 . S
C597 C598 1.258 . S
C597 C600 1.431 . S
C597 C617 1.449 . S
C598 C597 1.258 . S
C598 C599 1.477 . S
C598 H618 0.931 . S
C599 C595 1.460 . S
C599 C598 1.477 . S
C599 H619 0.930 . S
C600 N596 1.362 . S
C600 C597 1.431 . S
C600 C610 1.476 . S
H601 C595 0.929 . S
C602 O593 1.250 . S
C602 O594 1.258 . S
O603 Mn588 2.162 . S
O603 C591 1.281 . S
O604 Mn588 2.297 . S
O604 C591 1.236 . S
N605 Mn589 2.282 . S
N605 C606 1.328 . S
N605 C610 1.318 . S
C606 N605 1.328 . S
C606 C607 1.457 . S
C606 H611 0.929 . S
C607 C606 1.457 . S
C607 C608 1.291 1_655 S
C607 H620 0.931 1_655 S
C608 C607 1.291 1_455 S
C608 C609 1.373 1_455 S
C608 H621 0.929 . S
C609 C608 1.373 1_655 S
C609 C610 1.396 . S
C609 C616 1.403 . S
C610 C600 1.476 . S
C610 N605 1.318 . S
C610 C609 1.396 . S
H611 C606 0.929 . S
O612 Mn588 2.385 . S
O612 C590 1.234 . S
O613 Mn588 2.209 . S
O613 Mn589 2.215 . S
O613 C590 1.283 . S
O614 Mn588 2.094 . S
O614 C592 1.240 . S
O615 Mn589 2.117 . S
O615 C592 1.264 . S
C616 C609 1.403 . S
C616 C617 1.399 . S
C616 H622 0.929 1_655 S
C617 C597 1.449 . S
C617 C616 1.399 . S
C617 H623 0.930 . S
H618 C598 0.931 . S
H619 C599 0.930 . S
H620 C607 0.931 1_455 S
H621 C608 0.929 . S
H622 C616 0.929 1_455 S
H623 C617 0.930 . S
Mn624 O629 2.095 . S
Mn624 O639 2.162 . S
Mn624 O640 2.297 . S
Mn624 O648 2.385 . S
Mn624 O649 2.209 . S
Mn624 O650 2.094 . S
Mn625 O630 2.121 . S
Mn625 N632 2.257 . S
Mn625 N641 2.282 . S
Mn625 O649 2.215 . S
Mn625 O651 2.117 . S
C626 O648 1.234 . S
C626 O649 1.283 . S
C627 O639 1.281 . S
C627 O640 1.236 . S
C628 O650 1.240 . S
C628 O651 1.264 . S
O629 Mn624 2.095 . S
O629 C638 1.250 . S
O630 Mn625 2.121 . S
O630 C638 1.258 . S
C631 N632 1.326 . S
C631 C635 1.460 . S
C631 H637 0.929 . S
N632 Mn625 2.257 . S
N632 C631 1.326 . S
N632 C636 1.362 . S
C633 C634 1.258 . S
C633 C636 1.431 . S
C633 C653 1.449 . S
C634 C633 1.258 . S
C634 C635 1.477 . S
C634 H654 0.931 . S
C635 C631 1.460 . S
C635 C634 1.477 . S
C635 H655 0.930 . S
C636 N632 1.362 . S
C636 C633 1.431 . S
C636 C646 1.476 . S
H637 C631 0.929 . S
C638 O629 1.250 . S
C638 O630 1.258 . S
O639 Mn624 2.162 . S
O639 C627 1.281 . S
O640 Mn624 2.297 . S
O640 C627 1.236 . S
N641 Mn625 2.282 . S
N641 C642 1.328 . S
N641 C646 1.318 . S
C642 N641 1.328 . S
C642 C643 1.457 1_565 S
C642 H647 0.929 . S
C643 C642 1.457 1_545 S
C643 C644 1.291 . S
C643 H656 0.931 . S
C644 C643 1.291 . S
C644 C645 1.373 . S
C644 H657 0.929 . S
C645 C644 1.373 . S
C645 C646 1.396 1_545 S
C645 C652 1.403 . S
C646 C636 1.476 . S
C646 N641 1.318 . S
C646 C645 1.396 1_565 S
H647 C642 0.929 . S
O648 Mn624 2.385 . S
O648 C626 1.234 . S
O649 Mn624 2.209 . S
O649 Mn625 2.215 . S
O649 C626 1.283 . S
O650 Mn624 2.094 . S
O650 C628 1.240 . S
O651 Mn625 2.117 . S
O651 C628 1.264 . S
C652 C645 1.403 . S
C652 C653 1.399 1_545 S
C652 H658 0.929 . S
C653 C633 1.449 . S
C653 C652 1.399 1_565 S
C653 H659 0.928 . S
H654 C634 0.931 . S
H655 C635 0.930 . S
H656 C643 0.931 . S
H657 C644 0.929 . S
H658 C652 0.929 . S
H659 C653 0.928 . S
C660 C661 1.363 . S
C660 C666 1.379 . S
C660 N668 1.356 . S
C661 C660 1.363 . S
C661 C667 1.363 . S
C662 C663 1.363 . S
C662 C667 1.379 . S
C662 N669 1.356 . S
C663 C662 1.363 . S
C663 C666 1.363 . S
N664 C666 1.356 . S
N664 H676 0.984 . S
N664 H677 0.985 . S
N665 C667 1.356 . S
N665 H670 0.984 . S
N665 H671 0.985 . S
C666 C660 1.379 . S
C666 C663 1.363 . S
C666 N664 1.356 . S
C667 C661 1.363 . S
C667 C662 1.379 . S
C667 N665 1.356 . S
N668 C660 1.356 . S
N668 H674 0.984 . S
N668 H675 0.984 . S
N669 C662 1.356 . S
N669 H672 0.984 . S
N669 H673 0.985 . S
H670 N665 0.984 . S
H671 N665 0.985 . S
H672 N669 0.984 . S
H673 N669 0.985 . S
H674 N668 0.984 . S
H675 N668 0.984 . S
H676 N664 0.984 . S
H677 N664 0.985 . S
C678 C679 1.363 . S
C678 C684 1.379 . S
C678 N686 1.356 . S
C679 C678 1.363 . S
C679 C685 1.363 . S
C680 C681 1.363 . S
C680 C685 1.379 . S
C680 N687 1.356 . S
C681 C680 1.363 . S
C681 C684 1.363 . S
N682 C684 1.356 . S
N682 H694 0.984 . S
N682 H695 0.985 . S
N683 C685 1.356 . S
N683 H688 0.984 . S
N683 H689 0.985 . S
C684 C678 1.379 . S
C684 C681 1.363 . S
C684 N682 1.356 . S
C685 C679 1.363 . S
C685 C680 1.379 . S
C685 N683 1.356 . S
N686 C678 1.356 . S
N686 H692 0.984 . S
N686 H693 0.984 . S
N687 C680 1.356 . S
N687 H690 0.984 . S
N687 H691 0.985 . S
H688 N683 0.984 . S
H689 N683 0.985 . S
H690 N687 0.984 . S
H691 N687 0.985 . S
H692 N686 0.984 . S
H693 N686 0.984 . S
H694 N682 0.984 . S
H695 N682 0.985 . S
C696 C697 1.363 . S
C696 C702 1.379 . S
C696 N704 1.356 . S
C697 C696 1.363 . S
C697 C703 1.363 . S
C698 C699 1.363 . S
C698 C703 1.379 . S
C698 N705 1.356 . S
C699 C698 1.363 . S
C699 C702 1.363 . S
N700 C702 1.356 . S
N700 H712 0.984 . S
N700 H713 0.985 . S
N701 C703 1.356 . S
N701 H706 0.984 . S
N701 H707 0.985 . S
C702 C696 1.379 . S
C702 C699 1.363 . S
C702 N700 1.356 . S
C703 C697 1.363 . S
C703 C698 1.379 . S
C703 N701 1.356 . S
N704 C696 1.356 . S
N704 H710 0.984 . S
N704 H711 0.984 . S
N705 C698 1.356 . S
N705 H708 0.984 . S
N705 H709 0.985 . S
H706 N701 0.984 . S
H707 N701 0.985 . S
H708 N705 0.984 . S
H709 N705 0.985 . S
H710 N704 0.984 . S
H711 N704 0.984 . S
H712 N700 0.984 . S
H713 N700 0.985 . S
C714 C715 1.363 . S
C714 C720 1.379 . S
C714 N722 1.356 . S
C715 C714 1.363 . S
C715 C721 1.363 . S
C716 C717 1.363 . S
C716 C721 1.379 . S
C716 N723 1.356 . S
C717 C716 1.363 . S
C717 C720 1.363 . S
N718 C720 1.356 . S
N718 H730 0.984 . S
N718 H731 0.985 . S
N719 C721 1.356 . S
N719 H724 0.984 . S
N719 H725 0.985 . S
C720 C714 1.379 . S
C720 C717 1.363 . S
C720 N718 1.356 . S
C721 C715 1.363 . S
C721 C716 1.379 . S
C721 N719 1.356 . S
N722 C714 1.356 . S
N722 H728 0.984 . S
N722 H729 0.984 . S
N723 C716 1.356 . S
N723 H726 0.984 . S
N723 H727 0.985 . S
H724 N719 0.984 . S
H725 N719 0.985 . S
H726 N723 0.984 . S
H727 N723 0.985 . S
H728 N722 0.984 . S
H729 N722 0.984 . S
H730 N718 0.984 . S
H731 N718 0.985 . S
C732 C733 1.363 . S
C732 C738 1.379 . S
C732 N740 1.356 . S
C733 C732 1.363 . S
C733 C739 1.363 . S
C734 C735 1.363 . S
C734 C739 1.379 . S
C734 N741 1.356 . S
C735 C734 1.363 . S
C735 C738 1.363 . S
N736 C738 1.356 . S
N736 H748 0.984 . S
N736 H749 0.985 . S
N737 C739 1.356 . S
N737 H742 0.984 . S
N737 H743 0.985 . S
C738 C732 1.379 . S
C738 C735 1.363 . S
C738 N736 1.356 . S
C739 C733 1.363 . S
C739 C734 1.379 . S
C739 N737 1.356 . S
N740 C732 1.356 . S
N740 H746 0.984 . S
N740 H747 0.984 . S
N741 C734 1.356 . S
N741 H744 0.984 . S
N741 H745 0.985 . S
H742 N737 0.984 . S
H743 N737 0.985 . S
H744 N741 0.984 . S
H745 N741 0.985 . S
H746 N740 0.984 . S
H747 N740 0.984 . S
H748 N736 0.984 . S
H749 N736 0.985 . S
C750 C751 1.363 . S
C750 C756 1.379 . S
C750 N758 1.356 . S
C751 C750 1.363 . S
C751 C757 1.363 . S
C752 C753 1.363 . S
C752 C757 1.379 . S
C752 N759 1.356 . S
C753 C752 1.363 . S
C753 C756 1.363 . S
N754 C756 1.356 . S
N754 H766 0.984 . S
N754 H767 0.985 . S
N755 C757 1.356 . S
N755 H760 0.984 . S
N755 H761 0.985 . S
C756 C750 1.379 . S
C756 C753 1.363 . S
C756 N754 1.356 . S
C757 C751 1.363 . S
C757 C752 1.379 . S
C757 N755 1.356 . S
N758 C750 1.356 . S
N758 H764 0.984 . S
N758 H765 0.984 . S
N759 C752 1.356 . S
N759 H762 0.984 . S
N759 H763 0.985 . S
H760 N755 0.984 . S
H761 N755 0.985 . S
H762 N759 0.984 . S
H763 N759 0.985 . S
H764 N758 0.984 . S
H765 N758 0.984 . S
H766 N754 0.984 . S
H767 N754 0.985 . S
C768 C769 1.363 . S
C768 C774 1.379 . S
C768 N776 1.356 . S
C769 C768 1.363 . S
C769 C775 1.363 . S
C770 C771 1.363 . S
C770 C775 1.379 . S
C770 N777 1.356 . S
C771 C770 1.363 . S
C771 C774 1.363 . S
N772 C774 1.356 . S
N772 H784 0.984 . S
N772 H785 0.985 . S
N773 C775 1.356 . S
N773 H778 0.984 . S
N773 H779 0.985 . S
C774 C768 1.379 . S
C774 C771 1.363 . S
C774 N772 1.356 . S
C775 C769 1.363 . S
C775 C770 1.379 . S
C775 N773 1.356 . S
N776 C768 1.356 . S
N776 H782 0.984 . S
N776 H783 0.984 . S
N777 C770 1.356 . S
N777 H780 0.984 . S
N777 H781 0.985 . S
H778 N773 0.984 . S
H779 N773 0.985 . S
H780 N777 0.984 . S
H781 N777 0.985 . S
H782 N776 0.984 . S
H783 N776 0.984 . S
H784 N772 0.984 . S
H785 N772 0.985 . S
C786 C787 1.363 . S
C786 C792 1.379 . S
C786 N794 1.356 . S
C787 C786 1.363 . S
C787 C793 1.363 . S
C788 C789 1.363 . S
C788 C793 1.379 . S
C788 N795 1.356 . S
C789 C788 1.363 . S
C789 C792 1.363 . S
N790 C792 1.356 . S
N790 H802 0.984 . S
N790 H803 0.985 . S
N791 C793 1.356 . S
N791 H796 0.984 . S
N791 H797 0.985 . S
C792 C786 1.379 . S
C792 C789 1.363 . S
C792 N790 1.356 . S
C793 C787 1.363 . S
C793 C788 1.379 . S
C793 N791 1.356 . S
N794 C786 1.356 . S
N794 H800 0.984 . S
N794 H801 0.984 . S
N795 C788 1.356 . S
N795 H798 0.984 . S
N795 H799 0.985 . S
H796 N791 0.984 . S
H797 N791 0.985 . S
H798 N795 0.984 . S
H799 N795 0.985 . S
H800 N794 0.984 . S
H801 N794 0.984 . S
H802 N790 0.984 . S
H803 N790 0.985 . S
C804 C805 1.363 . S
C804 C810 1.379 . S
C804 N812 1.356 . S
C805 C804 1.363 . S
C805 C811 1.363 . S
C806 C807 1.363 . S
C806 C811 1.379 . S
C806 N813 1.356 . S
C807 C806 1.363 . S
C807 C810 1.363 . S
N808 C810 1.356 . S
N808 H820 0.984 . S
N808 H821 0.985 . S
N809 C811 1.356 . S
N809 H814 0.984 . S
N809 H815 0.985 . S
C810 C804 1.379 . S
C810 C807 1.363 . S
C810 N808 1.356 . S
C811 C805 1.363 . S
C811 C806 1.379 . S
C811 N809 1.356 . S
N812 C804 1.356 . S
N812 H818 0.984 . S
N812 H819 0.984 . S
N813 C806 1.356 . S
N813 H816 0.984 . S
N813 H817 0.985 . S
H814 N809 0.984 . S
H815 N809 0.985 . S
H816 N813 0.984 . S
H817 N813 0.985 . S
H818 N812 0.984 . S
H819 N812 0.984 . S
H820 N808 0.984 . S
H821 N808 0.985 . S
C822 C823 1.363 . S
C822 C828 1.379 . S
C822 N830 1.356 1_554 S
C823 C822 1.363 . S
C823 C829 1.363 . S
C824 C825 1.363 . S
C824 C829 1.379 . S
C824 N831 1.356 . S
C825 C824 1.363 . S
C825 C828 1.363 . S
N826 C828 1.356 . S
N826 H838 0.984 1_554 S
N826 H839 0.985 . S
N827 C829 1.356 . S
N827 H832 0.984 . S
N827 H833 0.985 . S
C828 C822 1.379 . S
C828 C825 1.363 . S
C828 N826 1.356 . S
C829 C823 1.363 . S
C829 C824 1.379 . S
C829 N827 1.356 . S
N830 C822 1.356 1_556 S
N830 H836 0.984 . S
N830 H837 0.984 . S
N831 C824 1.356 . S
N831 H834 0.984 . S
N831 H835 0.985 . S
H832 N827 0.984 . S
H833 N827 0.985 . S
H834 N831 0.984 . S
H835 N831 0.985 . S
H836 N830 0.984 . S
H837 N830 0.984 . S
H838 N826 0.984 1_556 S
H839 N826 0.985 . S
C840 C841 1.363 . S
C840 C846 1.379 . S
C840 N848 1.356 . S
C841 C840 1.363 . S
C841 C847 1.363 . S
C842 C843 1.363 . S
C842 C847 1.379 . S
C842 N849 1.356 . S
C843 C842 1.363 . S
C843 C846 1.363 . S
N844 C846 1.356 . S
N844 H856 0.984 . S
N844 H857 0.985 . S
N845 C847 1.356 . S
N845 H850 0.984 . S
N845 H851 0.985 . S
C846 C840 1.379 . S
C846 C843 1.363 . S
C846 N844 1.356 . S
C847 C841 1.363 . S
C847 C842 1.379 . S
C847 N845 1.356 . S
N848 C840 1.356 . S
N848 H854 0.984 . S
N848 H855 0.984 . S
N849 C842 1.356 . S
N849 H852 0.984 . S
N849 H853 0.985 . S
H850 N845 0.984 . S
H851 N845 0.985 . S
H852 N849 0.984 . S
H853 N849 0.985 . S
H854 N848 0.984 . S
H855 N848 0.984 . S
H856 N844 0.984 . S
H857 N844 0.985 . S
C858 C859 1.363 . S
C858 C864 1.379 . S
C858 N866 1.356 . S
C859 C858 1.363 . S
C859 C865 1.363 . S
C860 C861 1.363 . S
C860 C865 1.379 . S
C860 N867 1.356 . S
C861 C860 1.363 . S
C861 C864 1.363 . S
N862 C864 1.356 . S
N862 H874 0.984 . S
N862 H875 0.985 . S
N863 C865 1.356 . S
N863 H868 0.984 . S
N863 H869 0.985 . S
C864 C858 1.379 . S
C864 C861 1.363 . S
C864 N862 1.356 . S
C865 C859 1.363 . S
C865 C860 1.379 . S
C865 N863 1.356 . S
N866 C858 1.356 . S
N866 H872 0.984 . S
N866 H873 0.984 . S
N867 C860 1.356 . S
N867 H870 0.984 . S
N867 H871 0.985 . S
H868 N863 0.984 . S
H869 N863 0.985 . S
H870 N867 0.984 . S
H871 N867 0.985 . S
H872 N866 0.984 . S
H873 N866 0.984 . S
H874 N862 0.984 . S
H875 N862 0.985 . S
C876 C877 1.363 . S
C876 C882 1.379 . S
C876 N884 1.356 . S
C877 C876 1.363 . S
C877 C883 1.363 . S
C878 C879 1.363 . S
C878 C883 1.379 . S
C878 N885 1.356 . S
C879 C878 1.363 . S
C879 C882 1.363 . S
N880 C882 1.356 . S
N880 H892 0.984 . S
N880 H893 0.985 . S
N881 C883 1.356 . S
N881 H886 0.984 . S
N881 H887 0.985 . S
C882 C876 1.379 . S
C882 C879 1.363 . S
C882 N880 1.356 . S
C883 C877 1.363 . S
C883 C878 1.379 . S
C883 N881 1.356 . S
N884 C876 1.356 . S
N884 H890 0.984 . S
N884 H891 0.984 . S
N885 C878 1.356 . S
N885 H888 0.984 . S
N885 H889 0.985 . S
H886 N881 0.984 . S
H887 N881 0.985 . S
H888 N885 0.984 . S
H889 N885 0.985 . S
H890 N884 0.984 . S
H891 N884 0.984 . S
H892 N880 0.984 . S
H893 N880 0.985 . S
C894 C895 1.363 . S
C894 C900 1.379 . S
C894 N902 1.356 . S
C895 C894 1.363 . S
C895 C901 1.363 . S
C896 C897 1.363 . S
C896 C901 1.379 . S
C896 N903 1.356 . S
C897 C896 1.363 . S
C897 C900 1.363 . S
N898 C900 1.356 . S
N898 H910 0.984 . S
N898 H911 0.985 . S
N899 C901 1.356 . S
N899 H904 0.984 . S
N899 H905 0.985 . S
C900 C894 1.379 . S
C900 C897 1.363 . S
C900 N898 1.356 . S
C901 C895 1.363 . S
C901 C896 1.379 . S
C901 N899 1.356 . S
N902 C894 1.356 . S
N902 H908 0.984 . S
N902 H909 0.984 . S
N903 C896 1.356 . S
N903 H906 0.984 . S
N903 H907 0.985 . S
H904 N899 0.984 . S
H905 N899 0.985 . S
H906 N903 0.984 . S
H907 N903 0.985 . S
H908 N902 0.984 . S
H909 N902 0.984 . S
H910 N898 0.984 . S
H911 N898 0.985 . S
C912 C913 1.363 . S
C912 C918 1.379 . S
C912 N920 1.356 . S
C913 C912 1.363 . S
C913 C919 1.363 . S
C914 C915 1.363 . S
C914 C919 1.379 . S
C914 N921 1.356 . S
C915 C914 1.363 . S
C915 C918 1.363 . S
N916 C918 1.356 . S
N916 H928 0.984 . S
N916 H929 0.985 . S
N917 C919 1.356 . S
N917 H922 0.984 . S
N917 H923 0.985 . S
C918 C912 1.379 . S
C918 C915 1.363 . S
C918 N916 1.356 . S
C919 C913 1.363 . S
C919 C914 1.379 . S
C919 N917 1.356 . S
N920 C912 1.356 . S
N920 H926 0.984 . S
N920 H927 0.984 . S
N921 C914 1.356 . S
N921 H924 0.984 . S
N921 H925 0.985 . S
H922 N917 0.984 . S
H923 N917 0.985 . S
H924 N921 0.984 . S
H925 N921 0.985 . S
H926 N920 0.984 . S
H927 N920 0.984 . S
H928 N916 0.984 . S
H929 N916 0.985 . S
C930 C931 1.363 . S
C930 C936 1.379 . S
C930 N938 1.356 . S
C931 C930 1.363 . S
C931 C937 1.363 . S
C932 C933 1.363 . S
C932 C937 1.379 . S
C932 N939 1.356 . S
C933 C932 1.363 . S
C933 C936 1.363 . S
N934 C936 1.356 . S
N934 H946 0.984 . S
N934 H947 0.985 1_556 S
N935 C937 1.356 . S
N935 H940 0.984 . S
N935 H941 0.985 . S
C936 C930 1.379 . S
C936 C933 1.363 . S
C936 N934 1.356 . S
C937 C931 1.363 . S
C937 C932 1.379 . S
C937 N935 1.356 . S
N938 C930 1.356 . S
N938 H944 0.984 . S
N938 H945 0.984 . S
N939 C932 1.356 . S
N939 H942 0.984 1_556 S
N939 H943 0.985 . S
H940 N935 0.984 . S
H941 N935 0.985 . S
H942 N939 0.984 1_554 S
H943 N939 0.985 . S
H944 N938 0.984 . S
H945 N938 0.984 . S
H946 N934 0.984 . S
H947 N934 0.985 1_554 S
C948 C949 1.363 . S
C948 C954 1.379 . S
C948 N956 1.356 1_565 S
C949 C948 1.363 . S
C949 C955 1.363 . S
C950 C951 1.363 . S
C950 C955 1.379 . S
C950 N957 1.356 . S
C951 C950 1.363 . S
C951 C954 1.363 . S
N952 C954 1.356 . S
N952 H964 0.984 . S
N952 H965 0.985 . S
N953 C955 1.356 . S
N953 H958 0.984 . S
N953 H959 0.985 . S
C954 C948 1.379 . S
C954 C951 1.363 . S
C954 N952 1.356 . S
C955 C949 1.363 . S
C955 C950 1.379 . S
C955 N953 1.356 . S
N956 C948 1.356 1_545 S
N956 H962 0.984 . S
N956 H963 0.984 . S
N957 C950 1.356 . S
N957 H960 0.984 . S
N957 H961 0.985 . S
H958 N953 0.984 . S
H959 N953 0.985 . S
H960 N957 0.984 . S
H961 N957 0.985 . S
H962 N956 0.984 . S
H963 N956 0.984 . S
H964 N952 0.984 . S
H965 N952 0.985 . S
C966 C967 1.363 . S
C966 C972 1.379 . S
C966 N974 1.356 . S
C967 C966 1.363 . S
C967 C973 1.363 . S
C968 C969 1.363 . S
C968 C973 1.379 . S
C968 N975 1.356 . S
C969 C968 1.363 . S
C969 C972 1.363 . S
N970 C972 1.356 . S
N970 H982 0.984 . S
N970 H983 0.985 . S
N971 C973 1.356 . S
N971 H976 0.984 . S
N971 H977 0.985 . S
C972 C966 1.379 . S
C972 C969 1.363 . S
C972 N970 1.356 . S
C973 C967 1.363 . S
C973 C968 1.379 . S
C973 N971 1.356 . S
N974 C966 1.356 . S
N974 H980 0.984 . S
N974 H981 0.984 . S
N975 C968 1.356 . S
N975 H978 0.984 . S
N975 H979 0.985 . S
H976 N971 0.984 . S
H977 N971 0.985 . S
H978 N975 0.984 . S
H979 N975 0.985 . S
H980 N974 0.984 . S
H981 N974 0.984 . S
H982 N970 0.984 . S
H983 N970 0.985 . S
C984 C985 1.363 . S
C984 C990 1.379 . S
C984 N992 1.356 . S
C985 C984 1.363 . S
C985 C991 1.363 . S
C986 C987 1.363 . S
C986 C991 1.379 . S
C986 N993 1.356 . S
C987 C986 1.363 . S
C987 C990 1.363 . S
N988 C990 1.356 . S
N988 H1000 0.984 . S
N988 H1001 0.985 . S
N989 C991 1.356 . S
N989 H994 0.984 . S
N989 H995 0.985 . S
C990 C984 1.379 . S
C990 C987 1.363 . S
C990 N988 1.356 . S
C991 C985 1.363 . S
C991 C986 1.379 . S
C991 N989 1.356 . S
N992 C984 1.356 . S
N992 H998 0.984 . S
N992 H999 0.984 . S
N993 C986 1.356 . S
N993 H996 0.984 . S
N993 H997 0.985 . S
H994 N989 0.984 . S
H995 N989 0.985 . S
H996 N993 0.984 . S
H997 N993 0.985 . S
H998 N992 0.984 . S
H999 N992 0.984 . S
H1000 N988 0.984 . S
H1001 N988 0.985 . S
C1002 C1003 1.363 . S
C1002 C1008 1.379 . S
C1002 N1010 1.356 . S
C1003 C1002 1.363 . S
C1003 C1009 1.363 . S
C1004 C1005 1.363 . S
C1004 C1009 1.379 . S
C1004 N1011 1.356 . S
C1005 C1004 1.363 . S
C1005 C1008 1.363 . S
N1006 C1008 1.356 . S
N1006 H1018 0.984 . S
N1006 H1019 0.985 . S
N1007 C1009 1.356 . S
N1007 H1012 0.984 . S
N1007 H1013 0.985 . S
C1008 C1002 1.379 . S
C1008 C1005 1.363 . S
C1008 N1006 1.356 . S
C1009 C1003 1.363 . S
C1009 C1004 1.379 . S
C1009 N1007 1.356 . S
N1010 C1002 1.356 . S
N1010 H1016 0.984 . S
N1010 H1017 0.984 . S
N1011 C1004 1.356 . S
N1011 H1014 0.984 . S
N1011 H1015 0.985 . S
H1012 N1007 0.984 . S
H1013 N1007 0.985 . S
H1014 N1011 0.984 . S
H1015 N1011 0.985 . S
H1016 N1010 0.984 . S
H1017 N1010 0.984 . S
H1018 N1006 0.984 . S
H1019 N1006 0.985 . S
C1020 C1021 1.363 . S
C1020 C1026 1.379 . S
C1020 N1028 1.356 . S
C1021 C1020 1.363 . S
C1021 C1027 1.363 . S
C1022 C1023 1.363 . S
C1022 C1027 1.379 . S
C1022 N1029 1.356 . S
C1023 C1022 1.363 . S
C1023 C1026 1.363 . S
N1024 C1026 1.356 . S
N1024 H1036 0.984 . S
N1024 H1037 0.985 . S
N1025 C1027 1.356 . S
N1025 H1030 0.984 . S
N1025 H1031 0.985 . S
C1026 C1020 1.379 . S
C1026 C1023 1.363 . S
C1026 N1024 1.356 . S
C1027 C1021 1.363 . S
C1027 C1022 1.379 . S
C1027 N1025 1.356 . S
N1028 C1020 1.356 . S
N1028 H1034 0.984 . S
N1028 H1035 0.984 . S
N1029 C1022 1.356 . S
N1029 H1032 0.984 . S
N1029 H1033 0.985 . S
H1030 N1025 0.984 . S
H1031 N1025 0.985 . S
H1032 N1029 0.984 . S
H1033 N1029 0.985 . S
H1034 N1028 0.984 . S
H1035 N1028 0.984 . S
H1036 N1024 0.984 . S
H1037 N1024 0.985 . S
C1038 C1039 1.363 . S
C1038 C1044 1.379 . S
C1038 N1046 1.356 . S
C1039 C1038 1.363 . S
C1039 C1045 1.363 . S
C1040 C1041 1.363 . S
C1040 C1045 1.379 . S
C1040 N1047 1.356 . S
C1041 C1040 1.363 . S
C1041 C1044 1.363 . S
N1042 C1044 1.356 . S
N1042 H1054 0.984 . S
N1042 H1055 0.985 . S
N1043 C1045 1.356 . S
N1043 H1048 0.984 . S
N1043 H1049 0.985 . S
C1044 C1038 1.379 . S
C1044 C1041 1.363 . S
C1044 N1042 1.356 . S
C1045 C1039 1.363 . S
C1045 C1040 1.379 . S
C1045 N1043 1.356 . S
N1046 C1038 1.356 . S
N1046 H1052 0.984 . S
N1046 H1053 0.984 . S
N1047 C1040 1.356 . S
N1047 H1050 0.984 . S
N1047 H1051 0.985 . S
H1048 N1043 0.984 . S
H1049 N1043 0.985 . S
H1050 N1047 0.984 . S
H1051 N1047 0.985 . S
H1052 N1046 0.984 . S
H1053 N1046 0.984 . S
H1054 N1042 0.984 . S
H1055 N1042 0.985 . S
C1056 C1057 1.363 . S
C1056 C1062 1.379 1_554 S
C1056 N1064 1.356 . S
C1057 C1056 1.363 . S
C1057 C1063 1.363 . S
C1058 C1059 1.363 . S
C1058 C1063 1.379 1_556 S
C1058 N1065 1.356 . S
C1059 C1058 1.363 . S
C1059 C1062 1.363 . S
N1060 C1062 1.356 . S
N1060 H1072 0.984 . S
N1060 H1073 0.985 . S
N1061 C1063 1.356 . S
N1061 H1066 0.984 . S
N1061 H1067 0.985 . S
C1062 C1056 1.379 1_556 S
C1062 C1059 1.363 . S
C1062 N1060 1.356 . S
C1063 C1057 1.363 . S
C1063 C1058 1.379 1_554 S
C1063 N1061 1.356 . S
N1064 C1056 1.356 . S
N1064 H1070 0.984 . S
N1064 H1071 0.984 . S
N1065 C1058 1.356 . S
N1065 H1068 0.984 . S
N1065 H1069 0.985 . S
H1066 N1061 0.984 . S
H1067 N1061 0.985 . S
H1068 N1065 0.984 . S
H1069 N1065 0.985 . S
H1070 N1064 0.984 . S
H1071 N1064 0.984 . S
H1072 N1060 0.984 . S
H1073 N1060 0.985 . S
C1074 C1075 1.363 . S
C1074 C1080 1.379 . S
C1074 N1082 1.356 . S
C1075 C1074 1.363 . S
C1075 C1081 1.363 . S
C1076 C1077 1.363 . S
C1076 C1081 1.379 . S
C1076 N1083 1.356 . S
C1077 C1076 1.363 . S
C1077 C1080 1.363 . S
N1078 C1080 1.356 . S
N1078 H1090 0.984 . S
N1078 H1091 0.985 . S
N1079 C1081 1.356 . S
N1079 H1084 0.984 . S
N1079 H1085 0.985 . S
C1080 C1074 1.379 . S
C1080 C1077 1.363 . S
C1080 N1078 1.356 . S
C1081 C1075 1.363 . S
C1081 C1076 1.379 . S
C1081 N1079 1.356 . S
N1082 C1074 1.356 . S
N1082 H1088 0.984 . S
N1082 H1089 0.984 . S
N1083 C1076 1.356 . S
N1083 H1086 0.984 . S
N1083 H1087 0.985 . S
H1084 N1079 0.984 . S
H1085 N1079 0.985 . S
H1086 N1083 0.984 . S
H1087 N1083 0.985 . S
H1088 N1082 0.984 . S
H1089 N1082 0.984 . S
H1090 N1078 0.984 . S
H1091 N1078 0.985 . S
C663 C627 1.440 . S
C661 C51 1.406 . S
C679 C125 1.515 . S
C681 C447 1.509 . S
C697 C217 2.486 . S
C699 C494 2.529 . S
C715 C291 1.567 . S
C717 C530 1.569 . S
C735 C555 1.062 . S
C733 C347 1.046 . S
C751 C421 1.040 . S
C753 C591 1.048 . S
C769 C143 2.252 . S
C771 C483 2.252 . S
C787 C199 1.509 . S
C789 C519 1.524 . S
C805 C273 0.737 . S
C807 C566 0.738 . S
C825 C602 1.709 . S
C823 C365 1.649 . S
C843 C638 1.877 . S
C841 C439 1.880 . S
C861 C458 2.482 . S
C859 C69 2.389 . S
C877 C63 1.515 . S
C879 C482 1.677 . S
C895 C137 1.584 . S
C897 C518 1.693 . S
C915 C556 1.538 . S
C913 C187 1.439 . S
C931 C261 1.522 . S
C933 C592 1.586 1_556 S
C951 C628 1.737 . S
C949 C359 1.523 . S
C969 C448 1.368 . S
C967 C433 1.249 . S
C987 C626 1.668 . S
C985 C113 1.667 . S
C1003 C211 1.391 . S
C1005 C446 1.517 . S
C1023 C484 1.718 . S
C1021 C285 1.581 . S
C1039 C335 1.472 . S
C1041 C520 1.613 . S
C1057 C409 1.443 . S
C1059 C554 1.515 . S
C1075 C39 1.659 . S
C1077 C590 1.715 . S
