# Generated by pormake.
# Topology pto, (3,4)-cn, num edge types: 1
# Building blocks:
#     Node 0, Type 0, BuildingBlock: WUSLED_clean_sbu_0, # of connection points: 3
#     Node 1, Type 0, BuildingBlock: WUSLED_clean_sbu_0, # of connection points: 3
#     Node 2, Type 0, BuildingBlock: WUSLED_clean_sbu_0, # of connection points: 3
#     Node 3, Type 0, BuildingBlock: WUSLED_clean_sbu_0, # of connection points: 3
#     Node 4, Type 0, BuildingBlock: WUSLED_clean_sbu_0, # of connection points: 3
#     Node 5, Type 0, BuildingBlock: WUSLED_clean_sbu_0, # of connection points: 3
#     Node 6, Type 0, BuildingBlock: WUSLED_clean_sbu_0, # of connection points: 3
#     Node 7, Type 0, BuildingBlock: WUSLED_clean_sbu_0, # of connection points: 3
#     Node 8, Type 1, BuildingBlock: KUFVIS_clean_linker_0, # of connection points: 4
#     Node 9, Type 1, BuildingBlock: KUFVIS_clean_linker_0, # of connection points: 4
#     Node 10, Type 1, BuildingBlock: KUFVIS_clean_linker_0, # of connection points: 4
#     Node 11, Type 1, BuildingBlock: KUFVIS_clean_linker_0, # of connection points: 4
#     Node 12, Type 1, BuildingBlock: KUFVIS_clean_linker_0, # of connection points: 4
#     Node 13, Type 1, BuildingBlock: KUFVIS_clean_linker_0, # of connection points: 4
#     Edge 14, Type (0, 1), BuildingBlock: OJICUG_clean_linker_0, # of connection points: 2
#     Edge 15, Type (0, 1), BuildingBlock: OJICUG_clean_linker_0, # of connection points: 2
#     Edge 16, Type (0, 1), BuildingBlock: OJICUG_clean_linker_0, # of connection points: 2
#     Edge 17, Type (0, 1), BuildingBlock: OJICUG_clean_linker_0, # of connection points: 2
#     Edge 18, Type (0, 1), BuildingBlock: OJICUG_clean_linker_0, # of connection points: 2
#     Edge 19, Type (0, 1), BuildingBlock: OJICUG_clean_linker_0, # of connection points: 2
#     Edge 20, Type (0, 1), BuildingBlock: OJICUG_clean_linker_0, # of connection points: 2
#     Edge 21, Type (0, 1), BuildingBlock: OJICUG_clean_linker_0, # of connection points: 2
#     Edge 22, Type (0, 1), BuildingBlock: OJICUG_clean_linker_0, # of connection points: 2
#     Edge 23, Type (0, 1), BuildingBlock: OJICUG_clean_linker_0, # of connection points: 2
#     Edge 24, Type (0, 1), BuildingBlock: OJICUG_clean_linker_0, # of connection points: 2
#     Edge 25, Type (0, 1), BuildingBlock: OJICUG_clean_linker_0, # of connection points: 2
#     Edge 26, Type (0, 1), BuildingBlock: OJICUG_clean_linker_0, # of connection points: 2
#     Edge 27, Type (0, 1), BuildingBlock: OJICUG_clean_linker_0, # of connection points: 2
#     Edge 28, Type (0, 1), BuildingBlock: OJICUG_clean_linker_0, # of connection points: 2
#     Edge 29, Type (0, 1), BuildingBlock: OJICUG_clean_linker_0, # of connection points: 2
#     Edge 30, Type (0, 1), BuildingBlock: OJICUG_clean_linker_0, # of connection points: 2
#     Edge 31, Type (0, 1), BuildingBlock: OJICUG_clean_linker_0, # of connection points: 2
#     Edge 32, Type (0, 1), BuildingBlock: OJICUG_clean_linker_0, # of connection points: 2
#     Edge 33, Type (0, 1), BuildingBlock: OJICUG_clean_linker_0, # of connection points: 2
#     Edge 34, Type (0, 1), BuildingBlock: OJICUG_clean_linker_0, # of connection points: 2
#     Edge 35, Type (0, 1), BuildingBlock: OJICUG_clean_linker_0, # of connection points: 2
#     Edge 36, Type (0, 1), BuildingBlock: OJICUG_clean_linker_0, # of connection points: 2
#     Edge 37, Type (0, 1), BuildingBlock: OJICUG_clean_linker_0, # of connection points: 2
# Relax obj value: 0.002
# Max RMSD: 0.051
# Mean RMSD: 0.028
data_MOF--net-pto--node1-WUSLED_clean_sbu_0--node2-KUFVIS_clean_linker_0--edge1-OJICUG_clean_linker_0
_symmetry_space_group_name_H-M    P1
_symmetry_Int_Tables_number       1
_symmetry_cell_setting            triclinic
loop_
_symmetry_equiv_pos_as_xyz
'x, y, z'
_cell_length_a     32.622637
_cell_length_b     50.281753
_cell_length_c     41.432978
_cell_angle_alpha  89.31597
_cell_angle_beta   90.809591
_cell_angle_gamma 90.549194
loop_
_atom_site_label
_atom_site_type_symbol
_atom_site_fract_x
_atom_site_fract_y
_atom_site_fract_z
_atom_type_partial_charge
C0 C 0.16382 0.23838 0.35937 0.0
C1 C 0.19225 0.2193 0.34985 0.0
C2 C 0.16572 0.18772 0.38979 0.0
C3 C 0.19326 0.19423 0.36497 0.0
C4 C 0.13635 0.20665 0.39835 0.0
C5 C 0.1355 0.23173 0.38332 0.0
U6 U 0.20142 0.28855 0.29655 0.0
O7 O 0.1711 0.32205 0.27176 0.0
O8 O 0.22528 0.32939 0.30247 0.0
C9 C 0.19592 0.33991 0.28459 0.0
C10 C 0.16487 0.26563 0.3458 0.0
C11 C 0.17634 0.36372 0.29751 0.0
C12 C 0.1242 0.38467 0.32955 0.0
C13 C 0.14396 0.36172 0.3193 0.0
C14 C 0.16968 0.41188 0.29698 0.0
C15 C 0.13652 0.41005 0.31825 0.0
C16 C 0.18936 0.38892 0.28674 0.0
C17 C 0.27119 0.26518 0.22989 0.0
C18 C 0.30944 0.29605 0.19597 0.0
C19 C 0.3116 0.24873 0.18578 0.0
C20 C 0.28514 0.244 0.21151 0.0
C21 C 0.32468 0.27477 0.17809 0.0
C22 C 0.2828 0.2913 0.22162 0.0
C23 C 0.24592 0.25968 0.25831 0.0
O24 O 0.20054 0.27788 0.3481 0.0
O25 O 0.14693 0.26895 0.31744 0.0
O26 O 0.20628 0.26291 0.25407 0.0
O27 O 0.25997 0.26972 0.28549 0.0
H28 H 0.21428 0.22403 0.33127 0.0
H29 H 0.21601 0.18007 0.35758 0.0
H30 H 0.1151 0.20253 0.41766 0.0
H31 H 0.11339 0.24621 0.39103 0.0
H32 H 0.09838 0.38241 0.34553 0.0
H33 H 0.13343 0.34242 0.32784 0.0
H34 H 0.18027 0.43104 0.28808 0.0
H35 H 0.21442 0.39083 0.26996 0.0
H36 H 0.31867 0.31634 0.19046 0.0
H37 H 0.3232 0.23187 0.17281 0.0
H38 H 0.27641 0.22372 0.21757 0.0
H39 H 0.27202 0.30792 0.23546 0.0
C40 C 0.15212 0.85329 0.66399 0.0
C41 C 0.16956 0.87564 0.67907 0.0
C42 C 0.14916 0.90381 0.63329 0.0
C43 C 0.16806 0.90069 0.66387 0.0
C44 C 0.13082 0.88135 0.61881 0.0
C45 C 0.1323 0.85639 0.63402 0.0
U46 U 0.19384 0.80699 0.72975 0.0
O47 O 0.16734 0.77184 0.75392 0.0
O48 O 0.2232 0.76784 0.72557 0.0
C49 C 0.19436 0.75553 0.74196 0.0
C50 C 0.15655 0.82647 0.67822 0.0
C51 C 0.17762 0.73087 0.72777 0.0
C52 C 0.12433 0.70711 0.69801 0.0
C53 C 0.1418 0.73103 0.70867 0.0
C54 C 0.17927 0.68261 0.72419 0.0
C55 C 0.14244 0.6825 0.70607 0.0
C56 C 0.19661 0.70656 0.73495 0.0
C57 C 0.25635 0.83783 0.79907 0.0
C58 C 0.29282 0.81162 0.83967 0.0
C59 C 0.29593 0.85976 0.84123 0.0
C60 C 0.27031 0.86114 0.81396 0.0
C61 C 0.3081 0.835 0.85408 0.0
C62 C 0.26717 0.81303 0.81233 0.0
C63 C 0.2319 0.83984 0.76912 0.0
O64 O 0.19396 0.81703 0.67799 0.0
O65 O 0.13791 0.82217 0.70575 0.0
O66 O 0.19288 0.83355 0.77158 0.0
O67 O 0.24893 0.82996 0.74338 0.0
H68 H 0.18507 0.8736 0.70225 0.0
H69 H 0.1822 0.91752 0.67588 0.0
H70 H 0.1167 0.88276 0.59505 0.0
H71 H 0.11892 0.83933 0.62193 0.0
H72 H 0.09564 0.70791 0.68458 0.0
H73 H 0.12665 0.74959 0.7028 0.0
H74 H 0.19438 0.66415 0.73052 0.0
H75 H 0.22441 0.70604 0.74956 0.0
H76 H 0.30198 0.79224 0.84872 0.0
H77 H 0.30676 0.87812 0.85196 0.0
H78 H 0.26205 0.88045 0.8041 0.0
H79 H 0.25658 0.79483 0.80108 0.0
C80 C 0.69281 0.83713 0.23254 0.0
C81 C 0.69316 0.81252 0.21697 0.0
C82 C 0.64289 0.82859 0.17749 0.0
C83 C 0.66845 0.80829 0.18964 0.0
C84 C 0.64401 0.85356 0.19247 0.0
C85 C 0.66873 0.85776 0.21983 0.0
U86 U 0.75892 0.80941 0.30088 0.0
O87 O 0.80906 0.82806 0.329 0.0
O88 O 0.75347 0.81396 0.35339 0.0
C89 C 0.78799 0.82751 0.35586 0.0
C90 C 0.71513 0.84079 0.26319 0.0
C91 C 0.78544 0.85262 0.37394 0.0
C92 C 0.78603 0.90107 0.37682 0.0
C93 C 0.7894 0.87772 0.35883 0.0
C94 C 0.77425 0.87453 0.42499 0.0
C95 C 0.77807 0.89972 0.4101 0.0
C96 C 0.77797 0.85131 0.40714 0.0
C97 C 0.79027 0.73551 0.29468 0.0
C98 C 0.84095 0.71273 0.32815 0.0
C99 C 0.79964 0.68776 0.28984 0.0
C100 C 0.77957 0.71117 0.28052 0.0
C101 C 0.83088 0.68825 0.31357 0.0
C102 C 0.82079 0.73612 0.31882 0.0
C103 C 0.77011 0.75998 0.28304 0.0
O104 O 0.69985 0.82747 0.28777 0.0
O105 O 0.75527 0.83936 0.26174 0.0
O106 O 0.79452 0.77981 0.27481 0.0
O107 O 0.73813 0.7676 0.29935 0.0
H108 H 0.71166 0.79638 0.2265 0.0
H109 H 0.66864 0.78894 0.17844 0.0
H110 H 0.62434 0.86949 0.18401 0.0
H111 H 0.66803 0.87684 0.23167 0.0
H112 H 0.78903 0.92016 0.36465 0.0
H113 H 0.79488 0.8793 0.33315 0.0
H114 H 0.76891 0.87272 0.45067 0.0
H115 H 0.77487 0.83221 0.41932 0.0
H116 H 0.86528 0.714 0.34612 0.0
H117 H 0.79075 0.66931 0.27836 0.0
H118 H 0.75595 0.71031 0.26189 0.0
H119 H 0.82952 0.75473 0.33002 0.0
C120 C 0.74604 0.21579 0.70164 0.0
C121 C 0.75041 0.22183 0.66873 0.0
C122 C 0.7525 0.1745 0.65625 0.0
C123 C 0.7535 0.20139 0.64626 0.0
C124 C 0.74881 0.16859 0.68936 0.0
C125 C 0.74548 0.18906 0.7118 0.0
U126 U 0.76048 0.28774 0.73084 0.0
O127 O 0.7182 0.31341 0.75668 0.0
O128 O 0.77655 0.30192 0.77956 0.0
C129 C 0.74144 0.31413 0.78282 0.0
C130 C 0.74151 0.23698 0.72564 0.0
C131 C 0.71995 0.30935 0.81329 0.0
C132 C 0.67773 0.28151 0.84803 0.0
C133 C 0.70137 0.28472 0.82027 0.0
C134 C 0.69214 0.32726 0.86244 0.0
C135 C 0.67215 0.30294 0.86905 0.0
C136 C 0.71584 0.3304 0.83481 0.0
C137 C 0.81331 0.34131 0.68074 0.0
C138 C 0.81187 0.38797 0.69576 0.0
C139 C 0.86296 0.37264 0.65864 0.0
C140 C 0.84666 0.34686 0.66077 0.0
C141 C 0.84613 0.39354 0.67639 0.0
C142 C 0.79576 0.36209 0.69803 0.0
C143 C 0.79864 0.31363 0.68461 0.0
O144 O 0.77565 0.24557 0.73932 0.0
O145 O 0.71626 0.25628 0.71762 0.0
O146 O 0.75863 0.31024 0.68497 0.0
O147 O 0.81786 0.29964 0.70704 0.0
H148 H 0.75127 0.24233 0.66038 0.0
H149 H 0.75706 0.20668 0.62103 0.0
H150 H 0.74773 0.14815 0.69785 0.0
H151 H 0.74217 0.18401 0.73713 0.0
H152 H 0.66231 0.26263 0.85224 0.0
H153 H 0.70415 0.26828 0.80379 0.0
H154 H 0.68872 0.34404 0.8783 0.0
H155 H 0.73007 0.34954 0.82977 0.0
H156 H 0.79782 0.40351 0.70955 0.0
H157 H 0.88983 0.3759 0.64401 0.0
H158 H 0.86082 0.33106 0.64743 0.0
H159 H 0.77005 0.35822 0.71373 0.0
C160 C 0.80092 0.7242 0.74615 0.0
C161 C 0.83326 0.72613 0.72431 0.0
C162 C 0.84028 0.67778 0.72519 0.0
C163 C 0.85279 0.70314 0.71395 0.0
C164 C 0.80718 0.67602 0.74651 0.0
C165 C 0.78772 0.69903 0.75686 0.0
U166 U 0.77728 0.79951 0.74735 0.0
O167 O 0.71901 0.81884 0.75801 0.0
O168 O 0.77244 0.8251 0.78987 0.0
C169 C 0.73293 0.82869 0.78534 0.0
C170 C 0.78157 0.74807 0.75912 0.0
C171 C 0.70721 0.82331 0.81353 0.0
C172 C 0.66824 0.79259 0.84714 0.0
C173 C 0.69524 0.79724 0.8217 0.0
C174 C 0.66639 0.83993 0.8573 0.0
C175 C 0.65299 0.81394 0.8649 0.0
C176 C 0.69321 0.84455 0.83178 0.0
C177 C 0.81683 0.8494 0.68499 0.0
C178 C 0.79081 0.89458 0.68162 0.0
C179 C 0.84234 0.88027 0.64424 0.0
C180 C 0.84274 0.85513 0.65911 0.0
C181 C 0.81587 0.90022 0.65494 0.0
C182 C 0.79132 0.8694 0.69652 0.0
C183 C 0.81497 0.82215 0.69845 0.0
O184 O 0.80655 0.76567 0.77226 0.0
O185 O 0.75264 0.7589 0.74107 0.0
O186 O 0.779 0.8103 0.69585 0.0
O187 O 0.83244 0.8186 0.72696 0.0
H188 H 0.84392 0.74542 0.71581 0.0
H189 H 0.87858 0.70533 0.69794 0.0
H190 H 0.79645 0.65688 0.75538 0.0
H191 H 0.76268 0.69717 0.77368 0.0
H192 H 0.65877 0.77234 0.85258 0.0
H193 H 0.70605 0.78056 0.80795 0.0
H194 H 0.65479 0.85683 0.87018 0.0
H195 H 0.70221 0.86479 0.82578 0.0
H196 H 0.77033 0.90949 0.69067 0.0
H197 H 0.86155 0.88367 0.62347 0.0
H198 H 0.86252 0.83991 0.64979 0.0
H199 H 0.77112 0.86534 0.71657 0.0
C200 C 0.72008 0.24963 0.24373 0.0
C201 C 0.70948 0.27451 0.23059 0.0
C202 C 0.66861 0.25283 0.1886 0.0
C203 C 0.68397 0.2761 0.20319 0.0
C204 C 0.68058 0.22797 0.20133 0.0
C205 C 0.70606 0.22642 0.22866 0.0
U206 U 0.78241 0.28001 0.31345 0.0
O207 O 0.78189 0.26973 0.36514 0.0
O208 O 0.83806 0.26448 0.33755 0.0
C209 C 0.81916 0.26006 0.36494 0.0
C210 C 0.74435 0.24744 0.27374 0.0
C211 C 0.82302 0.23305 0.37876 0.0
C212 C 0.80482 0.18599 0.3787 0.0
C213 C 0.80396 0.21117 0.36384 0.0
C214 C 0.84478 0.2042 0.42306 0.0
C215 C 0.82474 0.18225 0.40879 0.0
C216 C 0.84389 0.22932 0.40819 0.0
C217 C 0.79898 0.35616 0.31577 0.0
C218 C 0.85239 0.38002 0.34531 0.0
C219 C 0.79708 0.40442 0.31949 0.0
C220 C 0.77979 0.38044 0.30876 0.0
C221 C 0.83406 0.40459 0.3374 0.0
C222 C 0.83497 0.35606 0.33468 0.0
C223 C 0.7823 0.33151 0.30152 0.0
O224 O 0.78342 0.25363 0.27146 0.0
O225 O 0.72723 0.25727 0.29948 0.0
O226 O 0.75329 0.31922 0.31777 0.0
O227 O 0.80933 0.31518 0.28963 0.0
H228 H 0.72012 0.29265 0.24198 0.0
H229 H 0.67495 0.29554 0.19424 0.0
H230 H 0.66967 0.2097 0.19045 0.0
H231 H 0.71416 0.20705 0.23842 0.0
H232 H 0.78936 0.16954 0.36688 0.0
H233 H 0.78765 0.2137 0.34106 0.0
H234 H 0.85976 0.20229 0.44645 0.0
H235 H 0.85856 0.24601 0.42014 0.0
H236 H 0.88119 0.37927 0.35858 0.0
H237 H 0.78181 0.42285 0.31327 0.0
H238 H 0.75187 0.38092 0.2943 0.0
H239 H 0.85028 0.33753 0.34042 0.0
C240 C 0.18409 0.23124 0.67451 0.0
C241 C 0.22 0.21599 0.67562 0.0
C242 C 0.18841 0.1831 0.6401 0.0
C243 C 0.22221 0.19225 0.65842 0.0
C244 C 0.15198 0.19789 0.64012 0.0
C245 C 0.14993 0.22177 0.65707 0.0
U246 U 0.21495 0.27744 0.74308 0.0
O247 O 0.23605 0.31921 0.74206 0.0
O248 O 0.1811 0.30793 0.76911 0.0
C249 C 0.20522 0.32741 0.75928 0.0
C250 C 0.18234 0.25738 0.69036 0.0
C251 C 0.18474 0.35174 0.7476 0.0
C252 C 0.13332 0.37421 0.71456 0.0
C253 C 0.15358 0.35089 0.72399 0.0
C254 C 0.17573 0.39957 0.75175 0.0
C255 C 0.14391 0.39885 0.72851 0.0
C256 C 0.19592 0.37623 0.76116 0.0
C257 C 0.28397 0.25114 0.81055 0.0
C258 C 0.30961 0.28053 0.85243 0.0
C259 C 0.33318 0.23502 0.85048 0.0
C260 C 0.30795 0.23055 0.82348 0.0
C261 C 0.33489 0.26021 0.8649 0.0
C262 C 0.2844 0.27603 0.82544 0.0
C263 C 0.26028 0.2469 0.78065 0.0
O264 O 0.16288 0.25793 0.71792 0.0
O265 O 0.21679 0.27118 0.69077 0.0
O266 O 0.2745 0.25954 0.75516 0.0
O267 O 0.22029 0.24859 0.78325 0.0
H268 H 0.24667 0.22271 0.68923 0.0
H269 H 0.25056 0.18121 0.65911 0.0
H270 H 0.12556 0.19157 0.62596 0.0
H271 H 0.12192 0.23317 0.65594 0.0
H272 H 0.10853 0.37278 0.69699 0.0
H273 H 0.14448 0.33215 0.71328 0.0
H274 H 0.18501 0.41815 0.76274 0.0
H275 H 0.22003 0.37727 0.77938 0.0
H276 H 0.30988 0.30006 0.86318 0.0
H277 H 0.35263 0.21906 0.85918 0.0
H278 H 0.30799 0.21123 0.81218 0.0
H279 H 0.26593 0.29214 0.81575 0.0
C280 C 0.16215 0.74642 0.36093 0.0
C281 C 0.17949 0.72566 0.34348 0.0
C282 C 0.12907 0.69425 0.36515 0.0
C283 C 0.16324 0.69981 0.34568 0.0
C284 C 0.11245 0.71513 0.38306 0.0
C285 C 0.12887 0.74089 0.38098 0.0
U286 U 0.21576 0.79999 0.31127 0.0
O287 O 0.20079 0.8422 0.30278 0.0
O288 O 0.2599 0.83138 0.32489 0.0
C289 C 0.2348 0.85072 0.31673 0.0
C290 C 0.17698 0.77408 0.35717 0.0
C291 C 0.23006 0.8719 0.34071 0.0
C292 C 0.22224 0.88626 0.39607 0.0
C293 C 0.22552 0.86584 0.37361 0.0
C294 C 0.22709 0.91909 0.35301 0.0
C295 C 0.22322 0.91316 0.3861 0.0
C296 C 0.23061 0.89863 0.33058 0.0
C297 C 0.25719 0.7786 0.22906 0.0
C298 C 0.29952 0.80666 0.19465 0.0
C299 C 0.28564 0.76089 0.18003 0.0
C300 C 0.26171 0.7576 0.20752 0.0
C301 C 0.30546 0.78529 0.17359 0.0
C302 C 0.27564 0.8033 0.22226 0.0
C303 C 0.23535 0.7737 0.25935 0.0
O304 O 0.21701 0.77739 0.35708 0.0
O305 O 0.15807 0.78812 0.33463 0.0
O306 O 0.20021 0.78592 0.26241 0.0
O307 O 0.25829 0.77434 0.28565 0.0
H308 H 0.20514 0.72953 0.32771 0.0
H309 H 0.17713 0.68428 0.33177 0.0
H310 H 0.08565 0.71189 0.39776 0.0
H311 H 0.11488 0.75668 0.39445 0.0
H312 H 0.21853 0.88096 0.42128 0.0
H313 H 0.22466 0.84534 0.38194 0.0
H314 H 0.22815 0.93954 0.34454 0.0
H315 H 0.23406 0.9037 0.30526 0.0
H316 H 0.31479 0.82559 0.19057 0.0
H317 H 0.28934 0.74416 0.16413 0.0
H318 H 0.24758 0.73841 0.21241 0.0
H319 H 0.27255 0.8197 0.23876 0.0
H320 H -0.01544 0.45569 0.35218 0.0
H321 H 0.91741 0.52813 0.35552 0.0
H322 H 0.04847 0.52934 0.33781 0.0
H323 H 0.04783 0.5683 0.361 0.0
H324 H -0.01771 0.64113 0.35133 0.0
H325 H 0.91868 0.56792 0.33334 0.0
C326 C -0.01575 0.47728 0.35149 0.0
C327 C 0.0207 0.49121 0.34605 0.0
C328 C 0.94704 0.49047 0.35387 0.0
C329 C 0.94647 0.51842 0.35239 0.0
C330 C -0.01683 0.53336 0.34759 0.0
C331 C 0.02008 0.5191 0.34331 0.0
C332 C -0.01691 0.56347 0.34754 0.0
C333 C 0.01932 0.57818 0.3552 0.0
C334 C 0.01896 0.60609 0.35603 0.0
C335 C -0.01762 0.61955 0.35052 0.0
C336 C 0.94625 0.60585 0.34289 0.0
C337 C 0.94674 0.57796 0.34054 0.0
H338 H -0.00815 0.6318 0.69116 0.0
H339 H 0.05842 0.55916 0.68716 0.0
H340 H 0.92734 0.55827 0.7048 0.0
H341 H 0.92769 0.51948 0.68119 0.0
H342 H -0.00738 0.44638 0.69008 0.0
H343 H 0.05678 0.51924 0.70899 0.0
C344 C -0.00801 0.6102 0.69166 0.0
C345 C 0.95543 0.59636 0.69695 0.0
C346 C 0.02909 0.59691 0.68917 0.0
C347 C 0.02944 0.56894 0.69038 0.0
C348 C -0.00738 0.5541 0.69502 0.0
C349 C 0.95582 0.56845 0.69942 0.0
C350 C -0.00756 0.524 0.69474 0.0
C351 C 0.95611 0.50948 0.68689 0.0
C352 C 0.95626 0.48158 0.68573 0.0
C353 C -0.00728 0.46796 0.69111 0.0
C354 C 0.02895 0.48147 0.69895 0.0
C355 C 0.02867 0.50934 0.70164 0.0
H356 H 0.18886 0.13892 0.51178 0.0
H357 H 0.19265 0.06566 0.56526 0.0
H358 H 0.17244 0.06568 0.4614 0.0
H359 H 0.2052 1.02672 0.46503 0.0
H360 H 0.18348 0.95351 0.5163 0.0
H361 H 0.15965 1.02692 0.56302 0.0
C362 C 0.18743 0.11734 0.51224 0.0
C363 C 0.18123 0.10371 0.48343 0.0
C364 C 0.19051 0.10372 0.5417 0.0
C365 C 0.1886 0.07577 0.54227 0.0
C366 C 0.18285 0.06124 0.51334 0.0
C367 C 0.17832 0.07579 0.48393 0.0
C368 C 0.1822 1.0312 0.51384 0.0
C369 C 0.19465 1.01657 0.48658 0.0
C370 C 0.19523 0.98856 0.48737 0.0
C371 C 0.18333 0.9751 0.51548 0.0
C372 C 0.17117 0.98886 0.54267 0.0
C373 C 0.17017 1.01677 0.54185 0.0
H374 H 0.47224 0.80194 0.12815 0.0
H375 H 0.53788 0.82157 0.04221 0.0
H376 H 0.40898 0.79984 0.03711 0.0
H377 H 0.41079 0.82371 0.99162 0.0
H378 H 0.47859 0.81829 0.90427 0.0
H379 H 0.53932 0.8025 0.99452 0.0
C380 C 0.47284 0.80422 0.10208 0.0
C381 C 0.43659 0.80083 0.08422 0.0
C382 C 0.50946 0.81131 0.08697 0.0
C383 C 0.50957 0.81526 0.05337 0.0
C384 C 0.47371 0.81076 0.03445 0.0
C385 C 0.43706 0.80374 0.05051 0.0
C386 C 0.47488 0.81289 0.99824 0.0
C387 C 0.43933 0.81934 0.97989 0.0
C388 C 0.44057 0.82109 0.94605 0.0
C389 C 0.47753 0.81665 0.93038 0.0
C390 C 0.5132 0.81039 0.94782 0.0
C391 C 0.51171 0.80828 0.98159 0.0
H392 H 0.78946 0.13322 0.52528 0.0
H393 H 0.77 0.06063 0.57845 0.0
H394 H 0.81283 0.05912 0.47978 0.0
H395 H 0.77782 1.02019 0.47951 0.0
H396 H 0.78805 0.94801 0.53492 0.0
H397 H 0.80598 1.02246 0.5822 0.0
C398 C 0.78976 0.11165 0.52654 0.0
C399 C 0.80148 0.09753 0.49948 0.0
C400 C 0.77874 0.09855 0.55513 0.0
C401 C 0.77975 0.07056 0.55651 0.0
C402 C 0.7917 0.05561 0.52939 0.0
C403 C 0.8028 0.06963 0.50086 0.0
C404 C 0.79175 1.02563 0.53069 0.0
C405 C 0.78401 1.01048 0.50248 0.0
C406 C 0.78265 0.98251 0.50398 0.0
C407 C 0.78889 0.96959 0.53365 0.0
C408 C 0.79692 0.98388 0.5617 0.0
C409 C 0.79883 1.01179 0.56028 0.0
H410 H 0.49842 0.27034 0.1383 0.0
H411 H 0.56633 0.26492 0.05102 0.0
H412 H 0.43797 0.28653 0.04803 0.0
H413 H 0.43946 0.26756 1.00025 0.0
H414 H 0.50563 0.28693 0.91447 0.0
H415 H 0.56846 0.28897 1.00569 0.0
C416 C 0.49954 0.27205 0.1122 0.0
C417 C 0.46395 0.27846 0.09474 0.0
C418 C 0.53648 0.26751 0.09656 0.0
C419 C 0.53781 0.26936 0.06273 0.0
C420 C 0.50235 0.27599 0.04437 0.0
C421 C 0.46551 0.28065 0.06098 0.0
C422 C 0.50366 0.2782 1.00817 0.0
C423 C 0.46785 0.2738 0.98916 0.0
C424 C 0.46814 0.27772 0.95555 0.0
C425 C 0.50488 0.2847 0.94054 0.0
C426 C 0.54105 0.28803 0.9585 0.0
C427 C 0.54042 0.28514 0.99221 0.0
C428 C 0.09742 0.43661 0.35844 0.0
C429 C 0.11323 0.4342 0.32723 0.0
H430 H 0.05627 0.45723 0.38904 0.0
C431 C 0.10368 0.45397 0.30396 0.0
H432 H 0.10481 0.42214 0.37715 0.0
C433 C 0.07641 0.4744 0.31105 0.0
C434 C 0.05821 0.4754 0.34147 0.0
H435 H 0.11508 0.45269 0.27962 0.0
H436 H 0.06717 0.48816 0.29204 0.0
C437 C 0.0701 0.45691 0.36542 0.0
C438 C 0.11935 0.63588 0.72057 0.0
C439 C 0.12096 0.65701 0.69792 0.0
H440 H 0.08936 0.59951 0.73489 0.0
C441 C 0.09809 0.65466 0.66902 0.0
H442 H 0.13626 0.63698 0.74319 0.0
C443 C 0.07119 0.63318 0.66441 0.0
C444 C 0.06693 0.6134 0.68839 0.0
H445 H 0.09927 0.67016 0.65068 0.0
H446 H 0.05142 0.63303 0.64318 0.0
C447 C 0.09264 0.61425 0.71579 0.0
C448 C 0.86764 0.65896 0.35403 0.0
C449 C 0.85439 0.66374 0.32206 0.0
H450 H 0.90661 0.63621 0.38571 0.0
C451 C 0.86649 0.64601 0.29793 0.0
H452 H 0.85828 0.6718 0.37333 0.0
C453 C 0.89359 0.62524 0.30525 0.0
C454 C 0.90904 0.62185 0.33677 0.0
H455 H 0.85714 0.64915 0.27301 0.0
H456 H 0.90477 0.61309 0.28589 0.0
C457 C 0.8948 0.63834 0.36125 0.0
C458 C 0.87083 0.43441 0.70578 0.0
C459 C 0.86662 0.42027 0.67675 0.0
H460 H 0.90209 0.46584 0.73096 0.0
C461 C 0.88611 0.43049 0.64905 0.0
H462 H 0.85677 0.42712 0.72772 0.0
C463 C 0.91223 0.45268 0.65109 0.0
C464 C 0.91876 0.46539 0.68069 0.0
H465 H 0.88293 0.42051 0.62612 0.0
H466 H 0.9296 0.45873 0.63011 0.0
C467 C 0.89665 0.45674 0.70769 0.0
C468 C 0.20869 0.15351 0.41881 0.0
C469 C 0.16975 0.1624 0.4087 0.0
H470 H 0.24269 0.12738 0.4503 0.0
C471 C 0.13484 0.14844 0.4196 0.0
H472 H 0.23621 0.16392 0.41128 0.0
C473 C 0.13872 0.1273 0.44178 0.0
C474 C 0.17754 0.11974 0.4534 0.0
H475 H 0.10442 0.15457 0.41204 0.0
H476 H 0.11133 0.11806 0.45147 0.0
C477 C 0.2125 0.13251 0.44108 0.0
C478 C 0.33622 0.81453 0.90562 0.0
C479 C 0.33929 0.83358 0.88056 0.0
H480 H 0.36581 0.79601 0.94664 0.0
C481 C 0.37406 0.85029 0.87962 0.0
H482 H 0.30962 0.80155 0.90717 0.0
C483 C 0.40587 0.84717 0.90215 0.0
C484 C 0.40367 0.82735 0.92623 0.0
H485 H 0.37766 0.86498 0.86051 0.0
H486 H 0.43301 0.85964 0.90001 0.0
C487 C 0.36808 0.81155 0.92839 0.0
C488 C 0.74418 0.92553 0.45353 0.0
C489 C 0.77447 0.92416 0.42982 0.0
H490 H 0.72251 0.94566 0.49513 0.0
C491 C 0.80326 0.94512 0.42735 0.0
H492 H 0.72102 0.91005 0.45565 0.0
C493 C 0.80378 0.96578 0.44988 0.0
C494 C 0.77549 0.96578 0.47513 0.0
H495 H 0.827 0.94464 0.40936 0.0
H496 H 0.82807 0.98061 0.44898 0.0
C497 C 0.74474 0.94606 0.47593 0.0
C498 C 0.6136 0.32087 0.90027 0.0
C499 C 0.64256 0.30072 0.89592 0.0
H500 H 0.55874 0.33258 0.92395 0.0
C501 C 0.6407 0.27777 0.91564 0.0
H502 H 0.61388 0.33864 0.88523 0.0
C503 C 0.60934 0.27453 0.93815 0.0
C504 C 0.57919 0.29405 0.94099 0.0
H505 H 0.66274 0.26201 0.91297 0.0
H506 H 0.60724 0.25614 0.95194 0.0
C507 C 0.58207 0.31746 0.92241 0.0
C508 C 0.11876 0.93778 0.5948 0.0
C509 C 0.15134 0.92964 0.61517 0.0
H510 H 0.09939 0.96363 0.55599 0.0
C511 C 0.18779 0.94491 0.61532 0.0
H512 H 0.09001 0.92683 0.59443 0.0
C513 C 0.19266 0.96634 0.59378 0.0
C514 C 0.16121 0.973 0.5718 0.0
H515 H 0.21371 0.93915 0.63035 0.0
H516 H 0.22214 0.97639 0.59257 0.0
C517 C 0.12378 0.95911 0.57315 0.0
C518 C 0.58938 0.79923 0.15223 0.0
C519 C 0.61233 0.82301 0.15142 0.0
H520 H 0.53929 0.77685 0.1322 0.0
C521 C 0.60352 0.84201 0.12712 0.0
H522 H 0.59499 0.78429 0.17078 0.0
C523 C 0.57133 0.83774 0.10498 0.0
C524 C 0.5472 0.81451 0.10698 0.0
H525 H 0.62093 0.86043 0.12569 0.0
H526 H 0.56417 0.85308 0.08726 0.0
C527 C 0.55721 0.79505 0.13031 0.0
C528 C 0.78042 0.13058 0.6377 0.0
C529 C 0.75536 0.15289 0.63206 0.0
H530 H 0.80727 0.09562 0.61773 0.0
C531 C 0.7342 0.15504 0.60239 0.0
H532 H 0.79718 0.12833 0.66029 0.0
C533 C 0.7398 0.13631 0.57827 0.0
C534 C 0.7668 0.11494 0.5831 0.0
H535 H 0.71387 0.17156 0.59752 0.0
H536 H 0.72405 0.13907 0.55529 0.0
C537 C 0.78608 0.11177 0.61342 0.0
C538 C 0.39051 0.29609 0.1606 0.0
C539 C 0.35698 0.27925 0.15362 0.0
H540 H 0.45051 0.30929 0.14704 0.0
C541 C 0.35676 0.2649 0.12466 0.0
H542 H 0.39182 0.30727 0.18277 0.0
C543 C 0.39046 0.26613 0.10413 0.0
C544 C 0.42509 0.28153 0.11238 0.0
H545 H 0.33113 0.25201 0.11845 0.0
H546 H 0.39045 0.25382 0.08284 0.0
C547 C 0.42423 0.29715 0.14024 0.0
C548 C 0.8728 0.63372 0.73928 0.0
C549 C 0.86334 0.65357 0.71609 0.0
H550 H 0.9091 0.5994 0.75103 0.0
C551 C 0.87906 0.65119 0.68485 0.0
H552 H 0.86147 0.63498 0.76364 0.0
C553 C 0.90623 0.63083 0.67776 0.0
C554 C 0.91804 0.61225 0.70163 0.0
H555 H 0.87173 0.66572 0.6662 0.0
H556 H 0.92001 0.63052 0.65412 0.0
C557 C 0.89991 0.61322 0.73208 0.0
C558 C 0.87853 0.43251 0.37426 0.0
C559 C 0.85547 0.43012 0.34547 0.0
H560 H 0.92524 0.45425 0.39993 0.0
C561 C 0.8568 0.45126 0.32283 0.0
H562 H 0.87757 0.41699 0.3926 0.0
C563 C 0.88342 0.47295 0.3275 0.0
C564 C 0.90932 0.47386 0.35479 0.0
H565 H 0.83973 0.45014 0.30028 0.0
H566 H 0.88648 0.48772 0.3084 0.0
C567 C 0.90534 0.45406 0.37877 0.0
C568 C 0.10669 0.42778 0.68797 0.0
C569 C 0.12044 0.42333 0.71988 0.0
H570 H 0.06749 0.45035 0.65629 0.0
C571 C 0.10896 0.44141 0.74382 0.0
H572 H 0.11559 0.41466 0.6688 0.0
C573 C 0.08197 0.46223 0.73642 0.0
C574 C 0.066 0.46529 0.70501 0.0
H575 H 0.11873 0.43853 0.76868 0.0
H576 H 0.07127 0.47467 0.75568 0.0
C577 C 0.07966 0.44845 0.68067 0.0
C578 C 0.10403 0.65349 0.3357 0.0
C579 C 0.10847 0.66756 0.36477 0.0
H580 H 0.07262 0.62209 0.31056 0.0
C581 C 0.08916 0.65728 0.39253 0.0
H582 H 0.11794 0.66084 0.31373 0.0
C583 C 0.06305 0.63508 0.39053 0.0
C584 C 0.05634 0.62242 0.36092 0.0
H585 H 0.0925 0.66721 0.41548 0.0
H586 H 0.04585 0.62896 0.41158 0.0
C587 C 0.07821 0.63116 0.33384 0.0
C588 C 0.77307 0.9364 0.62951 0.0
C589 C 0.81202 0.92577 0.63644 0.0
H590 H 0.73799 0.96384 0.60053 0.0
C591 C 0.84661 0.93815 0.62261 0.0
H592 H 0.7457 0.92725 0.63934 0.0
C593 C 0.84204 0.95925 0.60049 0.0
C594 C 0.80288 0.96848 0.59198 0.0
H595 H 0.8771 0.93072 0.62772 0.0
H596 H 0.86884 0.96712 0.58837 0.0
C597 C 0.76856 0.95745 0.60738 0.0
C598 C 0.64079 0.27356 0.13713 0.0
C599 C 0.6375 0.25444 0.16208 0.0
H600 H 0.61143 0.29234 0.09619 0.0
C601 C 0.60261 0.23783 0.16288 0.0
H602 H 0.6675 0.28646 0.1357 0.0
C603 C 0.57086 0.24114 0.14034 0.0
C604 C 0.57328 0.26105 0.11638 0.0
H605 H 0.59885 0.22309 0.18191 0.0
H606 H 0.54363 0.22877 0.14237 0.0
C607 C 0.609 0.27675 0.11435 0.0
C608 C 0.16004 0.1407 0.6162 0.0
C609 C 0.19205 0.15957 0.61886 0.0
H610 H 0.13518 0.10744 0.59003 0.0
C611 C 0.22625 0.15716 0.59885 0.0
H612 H 0.13344 0.14192 0.63145 0.0
C613 C 0.22713 0.13754 0.57525 0.0
C614 C 0.19417 0.11962 0.57149 0.0
H615 H 0.25123 0.17148 0.60004 0.0
H616 H 0.2526 0.13722 0.55876 0.0
C617 C 0.16121 0.1208 0.59282 0.0
C618 C 0.33686 0.81069 0.12715 0.0
C619 C 0.33518 0.7877 0.14682 0.0
H620 H 0.37014 0.83249 0.09089 0.0
C621 C 0.36436 0.76769 0.14249 0.0
H622 H 0.31464 0.82635 0.12982 0.0
C623 C 0.3959 0.77125 0.12039 0.0
C624 C 0.39856 0.79469 0.10183 0.0
H625 H 0.36422 0.7499 0.15749 0.0
H626 H 0.41937 0.75623 0.11883 0.0
C627 C 0.36822 0.81408 0.10467 0.0
C628 C 0.78442 0.14212 0.42753 0.0
C629 C 0.82179 0.15637 0.42672 0.0
H630 H 0.74911 0.11154 0.45112 0.0
C631 C 0.85474 0.14723 0.44605 0.0
H632 H 0.75823 0.14868 0.41331 0.0
C633 C 0.84936 0.1259 0.46765 0.0
C634 C 0.81115 0.11308 0.47004 0.0
H635 H 0.88414 0.15741 0.44567 0.0
H636 H 0.8742 0.12063 0.48407 0.0
C637 C 0.77915 0.12073 0.44907 0.0
C638 C 0.37397 0.24708 0.91549 0.0
C639 C 0.36553 0.26587 0.89088 0.0
H640 H 0.41295 0.23621 0.95564 0.0
C641 C 0.38878 0.28953 0.88977 0.0
H642 H 0.3563 0.22878 0.91718 0.0
C643 C 0.42086 0.29377 0.91176 0.0
C644 C 0.4305 0.2745 0.93542 0.0
H645 H 0.38344 0.30431 0.87099 0.0
H646 H 0.43898 0.31187 0.90967 0.0
C647 C 0.40609 0.25141 0.93767 0.0
C648 C 0.24103 0.9326 0.44007 0.0
C649 C 0.2201 0.93475 0.41029 0.0
H650 H 0.2505 0.94842 0.48732 0.0
C651 C 0.19494 0.957 0.4046 0.0
H652 H 0.26144 0.91613 0.44499 0.0
C653 C 0.18887 0.97571 0.42893 0.0
C654 C 0.20786 0.97249 0.45934 0.0
H655 H 0.17835 0.95926 0.38192 0.0
H656 H 0.16756 0.99179 0.42458 0.0
C657 C 0.23503 0.95122 0.46423 0.0
C658 C 0.62055 0.8239 0.91816 0.0
C659 C 0.62043 0.80957 0.88918 0.0
H660 H 0.58671 0.83499 0.95988 0.0
C661 C 0.58685 0.79283 0.88204 0.0
H662 H 0.64623 0.83672 0.92449 0.0
C663 C 0.553 0.79182 0.90228 0.0
C664 C 0.55207 0.80739 0.93018 0.0
H665 H 0.58562 0.78167 0.85985 0.0
H666 H 0.52673 0.77971 0.89539 0.0
C667 C 0.58673 0.82272 0.93856 0.0
loop_
_geom_bond_atom_site_label_1
_geom_bond_atom_site_label_2
_geom_bond_distance
_geom_bond_site_symmetry_2
_ccdc_geom_bond_type
C0 C1 1.264 . S
C0 C5 1.479 . S
C0 C10 1.465 . S
C1 C0 1.264 . S
C1 C3 1.339 . S
C1 H28 0.931 . S
C2 C3 1.395 . S
C2 C4 1.320 . S
C3 C1 1.339 . S
C3 C2 1.395 . S
C3 H29 0.929 . S
C4 C2 1.320 . S
C4 C5 1.405 . S
C4 H30 0.930 . S
C5 C0 1.479 . S
C5 C4 1.405 . S
C5 H31 0.931 . S
U6 O7 2.454 . S
U6 O8 2.458 . S
U6 C9 2.984 . S
U6 C10 2.847 . S
U6 C23 2.882 . S
U6 O24 2.441 . S
U6 O25 2.420 . S
U6 O26 2.455 . S
U6 O27 2.449 . S
O7 U6 2.454 . S
O7 C9 1.353 . S
O8 U6 2.458 . S
O8 C9 1.286 . S
C9 U6 2.984 . S
C9 O7 1.353 . S
C9 O8 1.286 . S
C9 C11 1.363 . S
C10 C0 1.465 . S
C10 U6 2.847 . S
C10 O24 1.249 . S
C10 O25 1.202 . S
C11 C9 1.363 . S
C11 C13 1.408 . S
C11 C16 1.342 . S
C12 C13 1.310 . S
C12 C15 1.461 . S
C12 H32 0.932 . S
C13 C11 1.408 . S
C13 C12 1.310 . S
C13 H33 0.930 . S
C14 C15 1.474 . S
C14 C16 1.285 . S
C14 H34 0.929 . S
C15 C12 1.461 . S
C15 C14 1.474 . S
C16 C11 1.342 . S
C16 C14 1.285 . S
C16 H35 0.930 . S
C17 C20 1.424 . S
C17 C22 1.245 . S
C17 C23 1.428 . S
C18 C21 1.260 . S
C18 C22 1.477 . S
C18 H36 0.932 . S
C19 C20 1.384 . S
C19 C21 1.479 . S
C19 H37 0.929 . S
C20 C17 1.424 . S
C20 C19 1.384 . S
C20 H38 0.928 . S
C21 C18 1.260 . S
C21 C19 1.479 . S
C22 C17 1.245 . S
C22 C18 1.477 . S
C22 H39 0.932 . S
C23 U6 2.882 . S
C23 C17 1.428 . S
C23 O26 1.301 . S
C23 O27 1.282 . S
O24 U6 2.441 . S
O24 C10 1.249 . S
O25 U6 2.420 . S
O25 C10 1.202 . S
O26 U6 2.455 . S
O26 C23 1.301 . S
O27 U6 2.449 . S
O27 C23 1.282 . S
H28 C1 0.931 . S
H29 C3 0.929 . S
H30 C4 0.930 . S
H31 C5 0.931 . S
H32 C12 0.932 . S
H33 C13 0.930 . S
H34 C14 0.929 . S
H35 C16 0.930 . S
H36 C18 0.932 . S
H37 C19 0.929 . S
H38 C20 0.928 . S
H39 C22 0.932 . S
C40 C41 1.264 . S
C40 C45 1.479 . S
C40 C50 1.465 . S
C41 C40 1.264 . S
C41 C43 1.339 . S
C41 H68 0.931 . S
C42 C43 1.395 . S
C42 C44 1.320 . S
C43 C41 1.339 . S
C43 C42 1.395 . S
C43 H69 0.929 . S
C44 C42 1.320 . S
C44 C45 1.405 . S
C44 H70 0.930 . S
C45 C40 1.479 . S
C45 C44 1.405 . S
C45 H71 0.931 . S
U46 O47 2.454 . S
U46 O48 2.458 . S
U46 C49 2.984 . S
U46 C50 2.847 . S
U46 C63 2.882 . S
U46 O64 2.441 . S
U46 O65 2.420 . S
U46 O66 2.455 . S
U46 O67 2.449 . S
O47 U46 2.454 . S
O47 C49 1.353 . S
O48 U46 2.458 . S
O48 C49 1.286 . S
C49 U46 2.984 . S
C49 O47 1.353 . S
C49 O48 1.286 . S
C49 C51 1.363 . S
C50 C40 1.465 . S
C50 U46 2.847 . S
C50 O64 1.249 . S
C50 O65 1.202 . S
C51 C49 1.363 . S
C51 C53 1.408 . S
C51 C56 1.342 . S
C52 C53 1.310 . S
C52 C55 1.461 . S
C52 H72 0.932 . S
C53 C51 1.408 . S
C53 C52 1.310 . S
C53 H73 0.930 . S
C54 C55 1.474 . S
C54 C56 1.285 . S
C54 H74 0.929 . S
C55 C52 1.461 . S
C55 C54 1.474 . S
C56 C51 1.342 . S
C56 C54 1.285 . S
C56 H75 0.930 . S
C57 C60 1.424 . S
C57 C62 1.245 . S
C57 C63 1.428 . S
C58 C61 1.260 . S
C58 C62 1.477 . S
C58 H76 0.932 . S
C59 C60 1.384 . S
C59 C61 1.479 . S
C59 H77 0.929 . S
C60 C57 1.424 . S
C60 C59 1.384 . S
C60 H78 0.928 . S
C61 C58 1.260 . S
C61 C59 1.479 . S
C62 C57 1.245 . S
C62 C58 1.477 . S
C62 H79 0.932 . S
C63 U46 2.882 . S
C63 C57 1.428 . S
C63 O66 1.301 . S
C63 O67 1.282 . S
O64 U46 2.441 . S
O64 C50 1.249 . S
O65 U46 2.420 . S
O65 C50 1.202 . S
O66 U46 2.455 . S
O66 C63 1.301 . S
O67 U46 2.449 . S
O67 C63 1.282 . S
H68 C41 0.931 . S
H69 C43 0.929 . S
H70 C44 0.930 . S
H71 C45 0.931 . S
H72 C52 0.932 . S
H73 C53 0.930 . S
H74 C54 0.929 . S
H75 C56 0.930 . S
H76 C58 0.932 . S
H77 C59 0.929 . S
H78 C60 0.928 . S
H79 C62 0.932 . S
C80 C81 1.264 . S
C80 C85 1.479 . S
C80 C90 1.465 . S
C81 C80 1.264 . S
C81 C83 1.339 . S
C81 H108 0.931 . S
C82 C83 1.395 . S
C82 C84 1.320 . S
C83 C81 1.339 . S
C83 C82 1.395 . S
C83 H109 0.929 . S
C84 C82 1.320 . S
C84 C85 1.405 . S
C84 H110 0.930 . S
C85 C80 1.479 . S
C85 C84 1.405 . S
C85 H111 0.931 . S
U86 O87 2.454 . S
U86 O88 2.458 . S
U86 C89 2.984 . S
U86 C90 2.847 . S
U86 C103 2.882 . S
U86 O104 2.441 . S
U86 O105 2.420 . S
U86 O106 2.455 . S
U86 O107 2.449 . S
O87 U86 2.454 . S
O87 C89 1.353 . S
O88 U86 2.458 . S
O88 C89 1.286 . S
C89 U86 2.984 . S
C89 O87 1.353 . S
C89 O88 1.286 . S
C89 C91 1.363 . S
C90 C80 1.465 . S
C90 U86 2.847 . S
C90 O104 1.249 . S
C90 O105 1.202 . S
C91 C89 1.363 . S
C91 C93 1.408 . S
C91 C96 1.342 . S
C92 C93 1.310 . S
C92 C95 1.461 . S
C92 H112 0.932 . S
C93 C91 1.408 . S
C93 C92 1.310 . S
C93 H113 0.930 . S
C94 C95 1.474 . S
C94 C96 1.285 . S
C94 H114 0.929 . S
C95 C92 1.461 . S
C95 C94 1.474 . S
C96 C91 1.342 . S
C96 C94 1.285 . S
C96 H115 0.930 . S
C97 C100 1.424 . S
C97 C102 1.245 . S
C97 C103 1.428 . S
C98 C101 1.260 . S
C98 C102 1.477 . S
C98 H116 0.932 . S
C99 C100 1.384 . S
C99 C101 1.479 . S
C99 H117 0.929 . S
C100 C97 1.424 . S
C100 C99 1.384 . S
C100 H118 0.928 . S
C101 C98 1.260 . S
C101 C99 1.479 . S
C102 C97 1.245 . S
C102 C98 1.477 . S
C102 H119 0.932 . S
C103 U86 2.882 . S
C103 C97 1.428 . S
C103 O106 1.301 . S
C103 O107 1.282 . S
O104 U86 2.441 . S
O104 C90 1.249 . S
O105 U86 2.420 . S
O105 C90 1.202 . S
O106 U86 2.455 . S
O106 C103 1.301 . S
O107 U86 2.449 . S
O107 C103 1.282 . S
H108 C81 0.931 . S
H109 C83 0.929 . S
H110 C84 0.930 . S
H111 C85 0.931 . S
H112 C92 0.932 . S
H113 C93 0.930 . S
H114 C94 0.929 . S
H115 C96 0.930 . S
H116 C98 0.932 . S
H117 C99 0.929 . S
H118 C100 0.928 . S
H119 C102 0.932 . S
C120 C121 1.264 . S
C120 C125 1.479 . S
C120 C130 1.465 . S
C121 C120 1.264 . S
C121 C123 1.339 . S
C121 H148 0.931 . S
C122 C123 1.395 . S
C122 C124 1.320 . S
C123 C121 1.339 . S
C123 C122 1.395 . S
C123 H149 0.929 . S
C124 C122 1.320 . S
C124 C125 1.405 . S
C124 H150 0.930 . S
C125 C120 1.479 . S
C125 C124 1.405 . S
C125 H151 0.931 . S
U126 O127 2.454 . S
U126 O128 2.458 . S
U126 C129 2.984 . S
U126 C130 2.847 . S
U126 C143 2.882 . S
U126 O144 2.441 . S
U126 O145 2.420 . S
U126 O146 2.455 . S
U126 O147 2.449 . S
O127 U126 2.454 . S
O127 C129 1.353 . S
O128 U126 2.458 . S
O128 C129 1.286 . S
C129 U126 2.984 . S
C129 O127 1.353 . S
C129 O128 1.286 . S
C129 C131 1.363 . S
C130 C120 1.465 . S
C130 U126 2.847 . S
C130 O144 1.249 . S
C130 O145 1.202 . S
C131 C129 1.363 . S
C131 C133 1.408 . S
C131 C136 1.342 . S
C132 C133 1.310 . S
C132 C135 1.461 . S
C132 H152 0.932 . S
C133 C131 1.408 . S
C133 C132 1.310 . S
C133 H153 0.930 . S
C134 C135 1.474 . S
C134 C136 1.285 . S
C134 H154 0.929 . S
C135 C132 1.461 . S
C135 C134 1.474 . S
C136 C131 1.342 . S
C136 C134 1.285 . S
C136 H155 0.930 . S
C137 C140 1.424 . S
C137 C142 1.245 . S
C137 C143 1.428 . S
C138 C141 1.260 . S
C138 C142 1.477 . S
C138 H156 0.932 . S
C139 C140 1.384 . S
C139 C141 1.479 . S
C139 H157 0.929 . S
C140 C137 1.424 . S
C140 C139 1.384 . S
C140 H158 0.928 . S
C141 C138 1.260 . S
C141 C139 1.479 . S
C142 C137 1.245 . S
C142 C138 1.477 . S
C142 H159 0.932 . S
C143 U126 2.882 . S
C143 C137 1.428 . S
C143 O146 1.301 . S
C143 O147 1.282 . S
O144 U126 2.441 . S
O144 C130 1.249 . S
O145 U126 2.420 . S
O145 C130 1.202 . S
O146 U126 2.455 . S
O146 C143 1.301 . S
O147 U126 2.449 . S
O147 C143 1.282 . S
H148 C121 0.931 . S
H149 C123 0.929 . S
H150 C124 0.930 . S
H151 C125 0.931 . S
H152 C132 0.932 . S
H153 C133 0.930 . S
H154 C134 0.929 . S
H155 C136 0.930 . S
H156 C138 0.932 . S
H157 C139 0.929 . S
H158 C140 0.928 . S
H159 C142 0.932 . S
C160 C161 1.264 . S
C160 C165 1.479 . S
C160 C170 1.465 . S
C161 C160 1.264 . S
C161 C163 1.339 . S
C161 H188 0.931 . S
C162 C163 1.395 . S
C162 C164 1.320 . S
C163 C161 1.339 . S
C163 C162 1.395 . S
C163 H189 0.929 . S
C164 C162 1.320 . S
C164 C165 1.405 . S
C164 H190 0.930 . S
C165 C160 1.479 . S
C165 C164 1.405 . S
C165 H191 0.931 . S
U166 O167 2.454 . S
U166 O168 2.458 . S
U166 C169 2.984 . S
U166 C170 2.847 . S
U166 C183 2.882 . S
U166 O184 2.441 . S
U166 O185 2.420 . S
U166 O186 2.455 . S
U166 O187 2.449 . S
O167 U166 2.454 . S
O167 C169 1.353 . S
O168 U166 2.458 . S
O168 C169 1.286 . S
C169 U166 2.984 . S
C169 O167 1.353 . S
C169 O168 1.286 . S
C169 C171 1.363 . S
C170 C160 1.465 . S
C170 U166 2.847 . S
C170 O184 1.249 . S
C170 O185 1.202 . S
C171 C169 1.363 . S
C171 C173 1.408 . S
C171 C176 1.342 . S
C172 C173 1.310 . S
C172 C175 1.461 . S
C172 H192 0.932 . S
C173 C171 1.408 . S
C173 C172 1.310 . S
C173 H193 0.930 . S
C174 C175 1.474 . S
C174 C176 1.285 . S
C174 H194 0.929 . S
C175 C172 1.461 . S
C175 C174 1.474 . S
C176 C171 1.342 . S
C176 C174 1.285 . S
C176 H195 0.930 . S
C177 C180 1.424 . S
C177 C182 1.245 . S
C177 C183 1.428 . S
C178 C181 1.260 . S
C178 C182 1.477 . S
C178 H196 0.932 . S
C179 C180 1.384 . S
C179 C181 1.479 . S
C179 H197 0.929 . S
C180 C177 1.424 . S
C180 C179 1.384 . S
C180 H198 0.928 . S
C181 C178 1.260 . S
C181 C179 1.479 . S
C182 C177 1.245 . S
C182 C178 1.477 . S
C182 H199 0.932 . S
C183 U166 2.882 . S
C183 C177 1.428 . S
C183 O186 1.301 . S
C183 O187 1.282 . S
O184 U166 2.441 . S
O184 C170 1.249 . S
O185 U166 2.420 . S
O185 C170 1.202 . S
O186 U166 2.455 . S
O186 C183 1.301 . S
O187 U166 2.449 . S
O187 C183 1.282 . S
H188 C161 0.931 . S
H189 C163 0.929 . S
H190 C164 0.930 . S
H191 C165 0.931 . S
H192 C172 0.932 . S
H193 C173 0.930 . S
H194 C174 0.929 . S
H195 C176 0.930 . S
H196 C178 0.932 . S
H197 C179 0.929 . S
H198 C180 0.928 . S
H199 C182 0.932 . S
C200 C201 1.264 . S
C200 C205 1.479 . S
C200 C210 1.465 . S
C201 C200 1.264 . S
C201 C203 1.339 . S
C201 H228 0.931 . S
C202 C203 1.395 . S
C202 C204 1.320 . S
C203 C201 1.339 . S
C203 C202 1.395 . S
C203 H229 0.929 . S
C204 C202 1.320 . S
C204 C205 1.405 . S
C204 H230 0.930 . S
C205 C200 1.479 . S
C205 C204 1.405 . S
C205 H231 0.931 . S
U206 O207 2.454 . S
U206 O208 2.458 . S
U206 C209 2.984 . S
U206 C210 2.847 . S
U206 C223 2.882 . S
U206 O224 2.441 . S
U206 O225 2.420 . S
U206 O226 2.455 . S
U206 O227 2.449 . S
O207 U206 2.454 . S
O207 C209 1.353 . S
O208 U206 2.458 . S
O208 C209 1.286 . S
C209 U206 2.984 . S
C209 O207 1.353 . S
C209 O208 1.286 . S
C209 C211 1.363 . S
C210 C200 1.465 . S
C210 U206 2.847 . S
C210 O224 1.249 . S
C210 O225 1.202 . S
C211 C209 1.363 . S
C211 C213 1.408 . S
C211 C216 1.342 . S
C212 C213 1.310 . S
C212 C215 1.461 . S
C212 H232 0.932 . S
C213 C211 1.408 . S
C213 C212 1.310 . S
C213 H233 0.930 . S
C214 C215 1.474 . S
C214 C216 1.285 . S
C214 H234 0.929 . S
C215 C212 1.461 . S
C215 C214 1.474 . S
C216 C211 1.342 . S
C216 C214 1.285 . S
C216 H235 0.930 . S
C217 C220 1.424 . S
C217 C222 1.245 . S
C217 C223 1.428 . S
C218 C221 1.260 . S
C218 C222 1.477 . S
C218 H236 0.932 . S
C219 C220 1.384 . S
C219 C221 1.479 . S
C219 H237 0.929 . S
C220 C217 1.424 . S
C220 C219 1.384 . S
C220 H238 0.928 . S
C221 C218 1.260 . S
C221 C219 1.479 . S
C222 C217 1.245 . S
C222 C218 1.477 . S
C222 H239 0.932 . S
C223 U206 2.882 . S
C223 C217 1.428 . S
C223 O226 1.301 . S
C223 O227 1.282 . S
O224 U206 2.441 . S
O224 C210 1.249 . S
O225 U206 2.420 . S
O225 C210 1.202 . S
O226 U206 2.455 . S
O226 C223 1.301 . S
O227 U206 2.449 . S
O227 C223 1.282 . S
H228 C201 0.931 . S
H229 C203 0.929 . S
H230 C204 0.930 . S
H231 C205 0.931 . S
H232 C212 0.932 . S
H233 C213 0.930 . S
H234 C214 0.929 . S
H235 C216 0.930 . S
H236 C218 0.932 . S
H237 C219 0.929 . S
H238 C220 0.928 . S
H239 C222 0.932 . S
C240 C241 1.264 . S
C240 C245 1.479 . S
C240 C250 1.465 . S
C241 C240 1.264 . S
C241 C243 1.339 . S
C241 H268 0.931 . S
C242 C243 1.395 . S
C242 C244 1.320 . S
C243 C241 1.339 . S
C243 C242 1.395 . S
C243 H269 0.929 . S
C244 C242 1.320 . S
C244 C245 1.405 . S
C244 H270 0.930 . S
C245 C240 1.479 . S
C245 C244 1.405 . S
C245 H271 0.931 . S
U246 O247 2.454 . S
U246 O248 2.458 . S
U246 C249 2.984 . S
U246 C250 2.847 . S
U246 C263 2.882 . S
U246 O264 2.441 . S
U246 O265 2.420 . S
U246 O266 2.455 . S
U246 O267 2.449 . S
O247 U246 2.454 . S
O247 C249 1.353 . S
O248 U246 2.458 . S
O248 C249 1.286 . S
C249 U246 2.984 . S
C249 O247 1.353 . S
C249 O248 1.286 . S
C249 C251 1.363 . S
C250 C240 1.465 . S
C250 U246 2.847 . S
C250 O264 1.249 . S
C250 O265 1.202 . S
C251 C249 1.363 . S
C251 C253 1.408 . S
C251 C256 1.342 . S
C252 C253 1.310 . S
C252 C255 1.461 . S
C252 H272 0.932 . S
C253 C251 1.408 . S
C253 C252 1.310 . S
C253 H273 0.930 . S
C254 C255 1.474 . S
C254 C256 1.285 . S
C254 H274 0.929 . S
C255 C252 1.461 . S
C255 C254 1.474 . S
C256 C251 1.342 . S
C256 C254 1.285 . S
C256 H275 0.930 . S
C257 C260 1.424 . S
C257 C262 1.245 . S
C257 C263 1.428 . S
C258 C261 1.260 . S
C258 C262 1.477 . S
C258 H276 0.932 . S
C259 C260 1.384 . S
C259 C261 1.479 . S
C259 H277 0.929 . S
C260 C257 1.424 . S
C260 C259 1.384 . S
C260 H278 0.928 . S
C261 C258 1.260 . S
C261 C259 1.479 . S
C262 C257 1.245 . S
C262 C258 1.477 . S
C262 H279 0.932 . S
C263 U246 2.882 . S
C263 C257 1.428 . S
C263 O266 1.301 . S
C263 O267 1.282 . S
O264 U246 2.441 . S
O264 C250 1.249 . S
O265 U246 2.420 . S
O265 C250 1.202 . S
O266 U246 2.455 . S
O266 C263 1.301 . S
O267 U246 2.449 . S
O267 C263 1.282 . S
H268 C241 0.931 . S
H269 C243 0.929 . S
H270 C244 0.930 . S
H271 C245 0.931 . S
H272 C252 0.932 . S
H273 C253 0.930 . S
H274 C254 0.929 . S
H275 C256 0.930 . S
H276 C258 0.932 . S
H277 C259 0.929 . S
H278 C260 0.928 . S
H279 C262 0.932 . S
C280 C281 1.264 . S
C280 C285 1.479 . S
C280 C290 1.465 . S
C281 C280 1.264 . S
C281 C283 1.339 . S
C281 H308 0.931 . S
C282 C283 1.395 . S
C282 C284 1.320 . S
C283 C281 1.339 . S
C283 C282 1.395 . S
C283 H309 0.929 . S
C284 C282 1.320 . S
C284 C285 1.405 . S
C284 H310 0.930 . S
C285 C280 1.479 . S
C285 C284 1.405 . S
C285 H311 0.931 . S
U286 O287 2.454 . S
U286 O288 2.458 . S
U286 C289 2.984 . S
U286 C290 2.847 . S
U286 C303 2.882 . S
U286 O304 2.441 . S
U286 O305 2.420 . S
U286 O306 2.455 . S
U286 O307 2.449 . S
O287 U286 2.454 . S
O287 C289 1.353 . S
O288 U286 2.458 . S
O288 C289 1.286 . S
C289 U286 2.984 . S
C289 O287 1.353 . S
C289 O288 1.286 . S
C289 C291 1.363 . S
C290 C280 1.465 . S
C290 U286 2.847 . S
C290 O304 1.249 . S
C290 O305 1.202 . S
C291 C289 1.363 . S
C291 C293 1.408 . S
C291 C296 1.342 . S
C292 C293 1.310 . S
C292 C295 1.461 . S
C292 H312 0.932 . S
C293 C291 1.408 . S
C293 C292 1.310 . S
C293 H313 0.930 . S
C294 C295 1.474 . S
C294 C296 1.285 . S
C294 H314 0.929 . S
C295 C292 1.461 . S
C295 C294 1.474 . S
C296 C291 1.342 . S
C296 C294 1.285 . S
C296 H315 0.930 . S
C297 C300 1.424 . S
C297 C302 1.245 . S
C297 C303 1.428 . S
C298 C301 1.260 . S
C298 C302 1.477 . S
C298 H316 0.932 . S
C299 C300 1.384 . S
C299 C301 1.479 . S
C299 H317 0.929 . S
C300 C297 1.424 . S
C300 C299 1.384 . S
C300 H318 0.928 . S
C301 C298 1.260 . S
C301 C299 1.479 . S
C302 C297 1.245 . S
C302 C298 1.477 . S
C302 H319 0.932 . S
C303 U286 2.882 . S
C303 C297 1.428 . S
C303 O306 1.301 . S
C303 O307 1.282 . S
O304 U286 2.441 . S
O304 C290 1.249 . S
O305 U286 2.420 . S
O305 C290 1.202 . S
O306 U286 2.455 . S
O306 C303 1.301 . S
O307 U286 2.449 . S
O307 C303 1.282 . S
H308 C281 0.931 . S
H309 C283 0.929 . S
H310 C284 0.930 . S
H311 C285 0.931 . S
H312 C292 0.932 . S
H313 C293 0.930 . S
H314 C294 0.929 . S
H315 C296 0.930 . S
H316 C298 0.932 . S
H317 C299 0.929 . S
H318 C300 0.928 . S
H319 C302 0.932 . S
H320 C326 0.930 . S
H321 C329 0.931 . S
H322 C331 0.931 . S
H323 C333 0.930 . S
H324 C335 0.930 . S
H325 C337 0.931 . S
C326 H320 0.930 . S
C326 C327 1.380 . S
C326 C328 1.394 1_455 S
C327 C326 1.380 . S
C327 C331 1.382 . S
C328 C326 1.394 1_655 S
C328 C329 1.400 . S
C329 H321 0.931 . S
C329 C328 1.400 . S
C329 C330 1.375 1_655 S
C330 C329 1.375 1_455 S
C330 C331 1.415 . S
C330 C332 1.501 . S
C331 H322 0.931 . S
C331 C327 1.382 . S
C331 C330 1.415 . S
C332 C330 1.501 . S
C332 C333 1.384 . S
C332 C337 1.408 1_455 S
C333 H323 0.930 . S
C333 C332 1.384 . S
C333 C334 1.389 . S
C334 C333 1.389 . S
C334 C335 1.405 . S
C335 H324 0.930 . S
C335 C334 1.405 . S
C335 C336 1.364 1_455 S
C336 C335 1.364 1_655 S
C336 C337 1.400 . S
C337 H325 0.931 . S
C337 C332 1.408 1_655 S
C337 C336 1.400 . S
H338 C344 0.930 . S
H339 C347 0.931 . S
H340 C349 0.931 . S
H341 C351 0.930 . S
H342 C353 0.930 . S
H343 C355 0.931 . S
C344 H338 0.930 . S
C344 C345 1.380 1_455 S
C344 C346 1.394 . S
C345 C344 1.380 1_655 S
C345 C349 1.382 . S
C346 C344 1.394 . S
C346 C347 1.400 . S
C347 H339 0.931 . S
C347 C346 1.400 . S
C347 C348 1.375 . S
C348 C347 1.375 . S
C348 C349 1.415 1_455 S
C348 C350 1.501 . S
C349 H340 0.931 . S
C349 C345 1.382 . S
C349 C348 1.415 1_655 S
C350 C348 1.501 . S
C350 C351 1.384 1_455 S
C350 C355 1.408 . S
C351 H341 0.930 . S
C351 C350 1.384 1_655 S
C351 C352 1.389 . S
C352 C351 1.389 . S
C352 C353 1.405 1_655 S
C353 H342 0.930 . S
C353 C352 1.405 1_455 S
C353 C354 1.364 . S
C354 C353 1.364 . S
C354 C355 1.400 . S
C355 H343 0.931 . S
C355 C350 1.408 . S
C355 C354 1.400 . S
H356 C362 0.930 . S
H357 C365 0.931 . S
H358 C367 0.931 . S
H359 C369 0.930 . S
H360 C371 0.930 . S
H361 C373 0.931 . S
C362 H356 0.930 . S
C362 C363 1.380 . S
C362 C364 1.394 . S
C363 C362 1.380 . S
C363 C367 1.382 . S
C364 C362 1.394 . S
C364 C365 1.400 . S
C365 H357 0.931 . S
C365 C364 1.400 . S
C365 C366 1.375 . S
C366 C365 1.375 . S
C366 C367 1.415 . S
C366 C368 1.501 1_545 S
C367 H358 0.931 . S
C367 C363 1.382 . S
C367 C366 1.415 . S
C368 C366 1.501 1_565 S
C368 C369 1.384 . S
C368 C373 1.408 . S
C369 H359 0.930 . S
C369 C368 1.384 . S
C369 C370 1.389 . S
C370 C369 1.389 . S
C370 C371 1.405 . S
C371 H360 0.930 . S
C371 C370 1.405 . S
C371 C372 1.364 . S
C372 C371 1.364 . S
C372 C373 1.400 . S
C373 H361 0.931 . S
C373 C368 1.408 . S
C373 C372 1.400 . S
H374 C380 0.930 . S
H375 C383 0.931 . S
H376 C385 0.931 . S
H377 C387 0.930 . S
H378 C389 0.930 . S
H379 C391 0.931 . S
C380 H374 0.930 . S
C380 C381 1.380 . S
C380 C382 1.394 . S
C381 C380 1.380 . S
C381 C385 1.382 . S
C382 C380 1.394 . S
C382 C383 1.400 . S
C383 H375 0.931 . S
C383 C382 1.400 . S
C383 C384 1.375 . S
C384 C383 1.375 . S
C384 C385 1.415 . S
C384 C386 1.501 1_554 S
C385 H376 0.931 . S
C385 C381 1.382 . S
C385 C384 1.415 . S
C386 C384 1.501 1_556 S
C386 C387 1.384 . S
C386 C391 1.408 . S
C387 H377 0.930 . S
C387 C386 1.384 . S
C387 C388 1.389 . S
C388 C387 1.389 . S
C388 C389 1.405 . S
C389 H378 0.930 . S
C389 C388 1.405 . S
C389 C390 1.364 . S
C390 C389 1.364 . S
C390 C391 1.400 . S
C391 H379 0.931 . S
C391 C386 1.408 . S
C391 C390 1.400 . S
H392 C398 0.930 . S
H393 C401 0.931 . S
H394 C403 0.931 . S
H395 C405 0.930 . S
H396 C407 0.930 . S
H397 C409 0.931 . S
C398 H392 0.930 . S
C398 C399 1.380 . S
C398 C400 1.394 . S
C399 C398 1.380 . S
C399 C403 1.382 . S
C400 C398 1.394 . S
C400 C401 1.400 . S
C401 H393 0.931 . S
C401 C400 1.400 . S
C401 C402 1.375 . S
C402 C401 1.375 . S
C402 C403 1.415 . S
C402 C404 1.501 1_545 S
C403 H394 0.931 . S
C403 C399 1.382 . S
C403 C402 1.415 . S
C404 C402 1.501 1_565 S
C404 C405 1.384 . S
C404 C409 1.408 . S
C405 H395 0.930 . S
C405 C404 1.384 . S
C405 C406 1.389 . S
C406 C405 1.389 . S
C406 C407 1.405 . S
C407 H396 0.930 . S
C407 C406 1.405 . S
C407 C408 1.364 . S
C408 C407 1.364 . S
C408 C409 1.400 . S
C409 H397 0.931 . S
C409 C404 1.408 . S
C409 C408 1.400 . S
H410 C416 0.930 . S
H411 C419 0.931 . S
H412 C421 0.931 . S
H413 C423 0.930 . S
H414 C425 0.930 . S
H415 C427 0.931 . S
C416 H410 0.930 . S
C416 C417 1.380 . S
C416 C418 1.394 . S
C417 C416 1.380 . S
C417 C421 1.382 . S
C418 C416 1.394 . S
C418 C419 1.400 . S
C419 H411 0.931 . S
C419 C418 1.400 . S
C419 C420 1.375 . S
C420 C419 1.375 . S
C420 C421 1.415 . S
C420 C422 1.501 1_554 S
C421 H412 0.931 . S
C421 C417 1.382 . S
C421 C420 1.415 . S
C422 C420 1.501 1_556 S
C422 C423 1.384 . S
C422 C427 1.408 . S
C423 H413 0.930 . S
C423 C422 1.384 . S
C423 C424 1.389 . S
C424 C423 1.389 . S
C424 C425 1.405 . S
C425 H414 0.930 . S
C425 C424 1.405 . S
C425 C426 1.364 . S
C426 C425 1.364 . S
C426 C427 1.400 . S
C427 H415 0.931 . S
C427 C422 1.408 . S
C427 C426 1.400 . S
C428 C429 1.387 . S
C428 H432 0.950 . S
C428 C437 1.390 . S
C429 C428 1.387 . S
C429 C431 1.387 . S
H430 C437 0.950 . S
C431 C429 1.387 . S
C431 C433 1.390 . S
C431 H435 0.950 . S
H432 C428 0.950 . S
C433 C431 1.390 . S
C433 C434 1.387 . S
C433 H436 0.950 . S
C434 C433 1.387 . S
C434 C437 1.387 . S
H435 C431 0.950 . S
H436 C433 0.950 . S
C437 C428 1.390 . S
C437 H430 0.950 . S
C437 C434 1.387 . S
C438 C439 1.387 . S
C438 H442 0.950 . S
C438 C447 1.390 . S
C439 C438 1.387 . S
C439 C441 1.387 . S
H440 C447 0.950 . S
C441 C439 1.387 . S
C441 C443 1.390 . S
C441 H445 0.950 . S
H442 C438 0.950 . S
C443 C441 1.390 . S
C443 C444 1.387 . S
C443 H446 0.950 . S
C444 C443 1.387 . S
C444 C447 1.387 . S
H445 C441 0.950 . S
H446 C443 0.950 . S
C447 C438 1.390 . S
C447 H440 0.950 . S
C447 C444 1.387 . S
C448 C449 1.387 . S
C448 H452 0.950 . S
C448 C457 1.390 . S
C449 C448 1.387 . S
C449 C451 1.387 . S
H450 C457 0.950 . S
C451 C449 1.387 . S
C451 C453 1.390 . S
C451 H455 0.950 . S
H452 C448 0.950 . S
C453 C451 1.390 . S
C453 C454 1.387 . S
C453 H456 0.950 . S
C454 C453 1.387 . S
C454 C457 1.387 . S
H455 C451 0.950 . S
H456 C453 0.950 . S
C457 C448 1.390 . S
C457 H450 0.950 . S
C457 C454 1.387 . S
C458 C459 1.387 . S
C458 H462 0.950 . S
C458 C467 1.390 . S
C459 C458 1.387 . S
C459 C461 1.387 . S
H460 C467 0.950 . S
C461 C459 1.387 . S
C461 C463 1.390 . S
C461 H465 0.950 . S
H462 C458 0.950 . S
C463 C461 1.390 . S
C463 C464 1.387 . S
C463 H466 0.950 . S
C464 C463 1.387 . S
C464 C467 1.387 . S
H465 C461 0.950 . S
H466 C463 0.950 . S
C467 C458 1.390 . S
C467 H460 0.950 . S
C467 C464 1.387 . S
C468 C469 1.387 . S
C468 H472 0.950 . S
C468 C477 1.390 . S
C469 C468 1.387 . S
C469 C471 1.387 . S
H470 C477 0.950 . S
C471 C469 1.387 . S
C471 C473 1.390 . S
C471 H475 0.950 . S
H472 C468 0.950 . S
C473 C471 1.390 . S
C473 C474 1.387 . S
C473 H476 0.950 . S
C474 C473 1.387 . S
C474 C477 1.387 . S
H475 C471 0.950 . S
H476 C473 0.950 . S
C477 C468 1.390 . S
C477 H470 0.950 . S
C477 C474 1.387 . S
C478 C479 1.387 . S
C478 H482 0.950 . S
C478 C487 1.390 . S
C479 C478 1.387 . S
C479 C481 1.387 . S
H480 C487 0.950 . S
C481 C479 1.387 . S
C481 C483 1.390 . S
C481 H485 0.950 . S
H482 C478 0.950 . S
C483 C481 1.390 . S
C483 C484 1.387 . S
C483 H486 0.950 . S
C484 C483 1.387 . S
C484 C487 1.387 . S
H485 C481 0.950 . S
H486 C483 0.950 . S
C487 C478 1.390 . S
C487 H480 0.950 . S
C487 C484 1.387 . S
C488 C489 1.387 . S
C488 H492 0.950 . S
C488 C497 1.390 . S
C489 C488 1.387 . S
C489 C491 1.387 . S
H490 C497 0.950 . S
C491 C489 1.387 . S
C491 C493 1.390 . S
C491 H495 0.950 . S
H492 C488 0.950 . S
C493 C491 1.390 . S
C493 C494 1.387 . S
C493 H496 0.950 . S
C494 C493 1.387 . S
C494 C497 1.387 . S
H495 C491 0.950 . S
H496 C493 0.950 . S
C497 C488 1.390 . S
C497 H490 0.950 . S
C497 C494 1.387 . S
C498 C499 1.387 . S
C498 H502 0.950 . S
C498 C507 1.390 . S
C499 C498 1.387 . S
C499 C501 1.387 . S
H500 C507 0.950 . S
C501 C499 1.387 . S
C501 C503 1.390 . S
C501 H505 0.950 . S
H502 C498 0.950 . S
C503 C501 1.390 . S
C503 C504 1.387 . S
C503 H506 0.950 . S
C504 C503 1.387 . S
C504 C507 1.387 . S
H505 C501 0.950 . S
H506 C503 0.950 . S
C507 C498 1.390 . S
C507 H500 0.950 . S
C507 C504 1.387 . S
C508 C509 1.387 . S
C508 H512 0.950 . S
C508 C517 1.390 . S
C509 C508 1.387 . S
C509 C511 1.387 . S
H510 C517 0.950 . S
C511 C509 1.387 . S
C511 C513 1.390 . S
C511 H515 0.950 . S
H512 C508 0.950 . S
C513 C511 1.390 . S
C513 C514 1.387 . S
C513 H516 0.950 . S
C514 C513 1.387 . S
C514 C517 1.387 . S
H515 C511 0.950 . S
H516 C513 0.950 . S
C517 C508 1.390 . S
C517 H510 0.950 . S
C517 C514 1.387 . S
C518 C519 1.387 . S
C518 H522 0.950 . S
C518 C527 1.390 . S
C519 C518 1.387 . S
C519 C521 1.387 . S
H520 C527 0.950 . S
C521 C519 1.387 . S
C521 C523 1.390 . S
C521 H525 0.950 . S
H522 C518 0.950 . S
C523 C521 1.390 . S
C523 C524 1.387 . S
C523 H526 0.950 . S
C524 C523 1.387 . S
C524 C527 1.387 . S
H525 C521 0.950 . S
H526 C523 0.950 . S
C527 C518 1.390 . S
C527 H520 0.950 . S
C527 C524 1.387 . S
C528 C529 1.387 . S
C528 H532 0.950 . S
C528 C537 1.390 . S
C529 C528 1.387 . S
C529 C531 1.387 . S
H530 C537 0.950 . S
C531 C529 1.387 . S
C531 C533 1.390 . S
C531 H535 0.950 . S
H532 C528 0.950 . S
C533 C531 1.390 . S
C533 C534 1.387 . S
C533 H536 0.950 . S
C534 C533 1.387 . S
C534 C537 1.387 . S
H535 C531 0.950 . S
H536 C533 0.950 . S
C537 C528 1.390 . S
C537 H530 0.950 . S
C537 C534 1.387 . S
C538 C539 1.387 . S
C538 H542 0.950 . S
C538 C547 1.390 . S
C539 C538 1.387 . S
C539 C541 1.387 . S
H540 C547 0.950 . S
C541 C539 1.387 . S
C541 C543 1.390 . S
C541 H545 0.950 . S
H542 C538 0.950 . S
C543 C541 1.390 . S
C543 C544 1.387 . S
C543 H546 0.950 . S
C544 C543 1.387 . S
C544 C547 1.387 . S
H545 C541 0.950 . S
H546 C543 0.950 . S
C547 C538 1.390 . S
C547 H540 0.950 . S
C547 C544 1.387 . S
C548 C549 1.387 . S
C548 H552 0.950 . S
C548 C557 1.390 . S
C549 C548 1.387 . S
C549 C551 1.387 . S
H550 C557 0.950 . S
C551 C549 1.387 . S
C551 C553 1.390 . S
C551 H555 0.950 . S
H552 C548 0.950 . S
C553 C551 1.390 . S
C553 C554 1.387 . S
C553 H556 0.950 . S
C554 C553 1.387 . S
C554 C557 1.387 . S
H555 C551 0.950 . S
H556 C553 0.950 . S
C557 C548 1.390 . S
C557 H550 0.950 . S
C557 C554 1.387 . S
C558 C559 1.387 . S
C558 H562 0.950 . S
C558 C567 1.390 . S
C559 C558 1.387 . S
C559 C561 1.387 . S
H560 C567 0.950 . S
C561 C559 1.387 . S
C561 C563 1.390 . S
C561 H565 0.950 . S
H562 C558 0.950 . S
C563 C561 1.390 . S
C563 C564 1.387 . S
C563 H566 0.950 . S
C564 C563 1.387 . S
C564 C567 1.387 . S
H565 C561 0.950 . S
H566 C563 0.950 . S
C567 C558 1.390 . S
C567 H560 0.950 . S
C567 C564 1.387 . S
C568 C569 1.387 . S
C568 H572 0.950 . S
C568 C577 1.390 . S
C569 C568 1.387 . S
C569 C571 1.387 . S
H570 C577 0.950 . S
C571 C569 1.387 . S
C571 C573 1.390 . S
C571 H575 0.950 . S
H572 C568 0.950 . S
C573 C571 1.390 . S
C573 C574 1.387 . S
C573 H576 0.950 . S
C574 C573 1.387 . S
C574 C577 1.387 . S
H575 C571 0.950 . S
H576 C573 0.950 . S
C577 C568 1.390 . S
C577 H570 0.950 . S
C577 C574 1.387 . S
C578 C579 1.387 . S
C578 H582 0.950 . S
C578 C587 1.390 . S
C579 C578 1.387 . S
C579 C581 1.387 . S
H580 C587 0.950 . S
C581 C579 1.387 . S
C581 C583 1.390 . S
C581 H585 0.950 . S
H582 C578 0.950 . S
C583 C581 1.390 . S
C583 C584 1.387 . S
C583 H586 0.950 . S
C584 C583 1.387 . S
C584 C587 1.387 . S
H585 C581 0.950 . S
H586 C583 0.950 . S
C587 C578 1.390 . S
C587 H580 0.950 . S
C587 C584 1.387 . S
C588 C589 1.387 . S
C588 H592 0.950 . S
C588 C597 1.390 . S
C589 C588 1.387 . S
C589 C591 1.387 . S
H590 C597 0.950 . S
C591 C589 1.387 . S
C591 C593 1.390 . S
C591 H595 0.950 . S
H592 C588 0.950 . S
C593 C591 1.390 . S
C593 C594 1.387 . S
C593 H596 0.950 . S
C594 C593 1.387 . S
C594 C597 1.387 . S
H595 C591 0.950 . S
H596 C593 0.950 . S
C597 C588 1.390 . S
C597 H590 0.950 . S
C597 C594 1.387 . S
C598 C599 1.387 . S
C598 H602 0.950 . S
C598 C607 1.390 . S
C599 C598 1.387 . S
C599 C601 1.387 . S
H600 C607 0.950 . S
C601 C599 1.387 . S
C601 C603 1.390 . S
C601 H605 0.950 . S
H602 C598 0.950 . S
C603 C601 1.390 . S
C603 C604 1.387 . S
C603 H606 0.950 . S
C604 C603 1.387 . S
C604 C607 1.387 . S
H605 C601 0.950 . S
H606 C603 0.950 . S
C607 C598 1.390 . S
C607 H600 0.950 . S
C607 C604 1.387 . S
C608 C609 1.387 . S
C608 H612 0.950 . S
C608 C617 1.390 . S
C609 C608 1.387 . S
C609 C611 1.387 . S
H610 C617 0.950 . S
C611 C609 1.387 . S
C611 C613 1.390 . S
C611 H615 0.950 . S
H612 C608 0.950 . S
C613 C611 1.390 . S
C613 C614 1.387 . S
C613 H616 0.950 . S
C614 C613 1.387 . S
C614 C617 1.387 . S
H615 C611 0.950 . S
H616 C613 0.950 . S
C617 C608 1.390 . S
C617 H610 0.950 . S
C617 C614 1.387 . S
C618 C619 1.387 . S
C618 H622 0.950 . S
C618 C627 1.390 . S
C619 C618 1.387 . S
C619 C621 1.387 . S
H620 C627 0.950 . S
C621 C619 1.387 . S
C621 C623 1.390 . S
C621 H625 0.950 . S
H622 C618 0.950 . S
C623 C621 1.390 . S
C623 C624 1.387 . S
C623 H626 0.950 . S
C624 C623 1.387 . S
C624 C627 1.387 . S
H625 C621 0.950 . S
H626 C623 0.950 . S
C627 C618 1.390 . S
C627 H620 0.950 . S
C627 C624 1.387 . S
C628 C629 1.387 . S
C628 H632 0.950 . S
C628 C637 1.390 . S
C629 C628 1.387 . S
C629 C631 1.387 . S
H630 C637 0.950 . S
C631 C629 1.387 . S
C631 C633 1.390 . S
C631 H635 0.950 . S
H632 C628 0.950 . S
C633 C631 1.390 . S
C633 C634 1.387 . S
C633 H636 0.950 . S
C634 C633 1.387 . S
C634 C637 1.387 . S
H635 C631 0.950 . S
H636 C633 0.950 . S
C637 C628 1.390 . S
C637 H630 0.950 . S
C637 C634 1.387 . S
C638 C639 1.387 . S
C638 H642 0.950 . S
C638 C647 1.390 . S
C639 C638 1.387 . S
C639 C641 1.387 . S
H640 C647 0.950 . S
C641 C639 1.387 . S
C641 C643 1.390 . S
C641 H645 0.950 . S
H642 C638 0.950 . S
C643 C641 1.390 . S
C643 C644 1.387 . S
C643 H646 0.950 . S
C644 C643 1.387 . S
C644 C647 1.387 . S
H645 C641 0.950 . S
H646 C643 0.950 . S
C647 C638 1.390 . S
C647 H640 0.950 . S
C647 C644 1.387 . S
C648 C649 1.387 . S
C648 H652 0.950 . S
C648 C657 1.390 . S
C649 C648 1.387 . S
C649 C651 1.387 . S
H650 C657 0.950 . S
C651 C649 1.387 . S
C651 C653 1.390 . S
C651 H655 0.950 . S
H652 C648 0.950 . S
C653 C651 1.390 . S
C653 C654 1.387 . S
C653 H656 0.950 . S
C654 C653 1.387 . S
C654 C657 1.387 . S
H655 C651 0.950 . S
H656 C653 0.950 . S
C657 C648 1.390 . S
C657 H650 0.950 . S
C657 C654 1.387 . S
C658 C659 1.387 . S
C658 H662 0.950 . S
C658 C667 1.390 . S
C659 C658 1.387 . S
C659 C661 1.387 . S
H660 C667 0.950 . S
C661 C659 1.387 . S
C661 C663 1.390 . S
C661 H665 0.950 . S
H662 C658 0.950 . S
C663 C661 1.390 . S
C663 C664 1.387 . S
C663 H666 0.950 . S
C664 C663 1.387 . S
C664 C667 1.387 . S
H665 C661 0.950 . S
H666 C663 0.950 . S
C667 C658 1.390 . S
C667 H660 0.950 . S
C667 C664 1.387 . S
C434 C327 1.539 . S
C429 C15 1.570 . S
C444 C346 1.539 . S
C439 C55 1.576 . S
C454 C336 1.589 . S
C449 C101 1.588 . S
C464 C352 1.594 . S
C459 C141 1.644 . S
C474 C363 1.509 . S
C469 C2 1.540 . S
C484 C388 1.465 . S
C479 C61 1.514 . S
C489 C95 1.653 . S
C494 C406 1.561 . S
C504 C426 1.464 . S
C499 C135 1.542 . S
C514 C372 1.510 . S
C509 C42 1.532 . S
C519 C82 1.515 . S
C524 C382 1.478 . S
C534 C400 1.571 . S
C529 C122 1.679 . S
C544 C417 1.468 . S
C539 C21 1.516 . S
C549 C162 1.684 . S
C554 C345 1.615 . S
C564 C328 1.604 . S
C559 C221 1.656 . S
C569 C255 1.630 . S
C574 C354 1.555 . S
C579 C282 1.588 . S
C584 C334 1.570 . S
C594 C408 1.607 . S
C589 C181 1.776 . S
C604 C418 1.492 . S
C599 C202 1.573 . S
C614 C364 1.541 . S
C609 C242 1.639 . S
C619 C301 1.536 . S
C624 C381 1.477 . S
C634 C399 1.596 . S
C629 C215 1.727 . S
C644 C424 1.484 . S
C639 C261 1.577 . S
C654 C370 1.550 . S
C649 C295 1.628 . S
C659 C175 1.567 . S
C664 C390 1.469 . S
