# Generated by pormake.
# Topology ctn, (3,4)-cn, num edge types: 1
# Building blocks:
#     Node 0, Type 0, BuildingBlock: KAKCAD_clean_linker_0, # of connection points: 3
#     Node 1, Type 0, BuildingBlock: KAKCAD_clean_linker_0, # of connection points: 3
#     Node 2, Type 0, BuildingBlock: KAKCAD_clean_linker_0, # of connection points: 3
#     Node 3, Type 0, BuildingBlock: KAKCAD_clean_linker_0, # of connection points: 3
#     Node 4, Type 0, BuildingBlock: KAKCAD_clean_linker_0, # of connection points: 3
#     Node 5, Type 0, BuildingBlock: KAKCAD_clean_linker_0, # of connection points: 3
#     Node 6, Type 0, BuildingBlock: KAKCAD_clean_linker_0, # of connection points: 3
#     Node 7, Type 0, BuildingBlock: KAKCAD_clean_linker_0, # of connection points: 3
#     Node 8, Type 0, BuildingBlock: KAKCAD_clean_linker_0, # of connection points: 3
#     Node 9, Type 0, BuildingBlock: KAKCAD_clean_linker_0, # of connection points: 3
#     Node 10, Type 0, BuildingBlock: KAKCAD_clean_linker_0, # of connection points: 3
#     Node 11, Type 0, BuildingBlock: KAKCAD_clean_linker_0, # of connection points: 3
#     Node 12, Type 0, BuildingBlock: KAKCAD_clean_linker_0, # of connection points: 3
#     Node 13, Type 0, BuildingBlock: KAKCAD_clean_linker_0, # of connection points: 3
#     Node 14, Type 0, BuildingBlock: KAKCAD_clean_linker_0, # of connection points: 3
#     Node 15, Type 0, BuildingBlock: KAKCAD_clean_linker_0, # of connection points: 3
#     Node 16, Type 1, BuildingBlock: KUFVIS_clean_sbu_0, # of connection points: 4
#     Node 17, Type 1, BuildingBlock: KUFVIS_clean_sbu_0, # of connection points: 4
#     Node 18, Type 1, BuildingBlock: KUFVIS_clean_sbu_0, # of connection points: 4
#     Node 19, Type 1, BuildingBlock: KUFVIS_clean_sbu_0, # of connection points: 4
#     Node 20, Type 1, BuildingBlock: KUFVIS_clean_sbu_0, # of connection points: 4
#     Node 21, Type 1, BuildingBlock: KUFVIS_clean_sbu_0, # of connection points: 4
#     Node 22, Type 1, BuildingBlock: KUFVIS_clean_sbu_0, # of connection points: 4
#     Node 23, Type 1, BuildingBlock: KUFVIS_clean_sbu_0, # of connection points: 4
#     Node 24, Type 1, BuildingBlock: KUFVIS_clean_sbu_0, # of connection points: 4
#     Node 25, Type 1, BuildingBlock: KUFVIS_clean_sbu_0, # of connection points: 4
#     Node 26, Type 1, BuildingBlock: KUFVIS_clean_sbu_0, # of connection points: 4
#     Node 27, Type 1, BuildingBlock: KUFVIS_clean_sbu_0, # of connection points: 4
#     Edge 28, Type (0, 1), BuildingBlock: MIFKUJ_clean_linker_0, # of connection points: 2
#     Edge 29, Type (0, 1), BuildingBlock: MIFKUJ_clean_linker_0, # of connection points: 2
#     Edge 30, Type (0, 1), BuildingBlock: MIFKUJ_clean_linker_0, # of connection points: 2
#     Edge 31, Type (0, 1), BuildingBlock: MIFKUJ_clean_linker_0, # of connection points: 2
#     Edge 32, Type (0, 1), BuildingBlock: MIFKUJ_clean_linker_0, # of connection points: 2
#     Edge 33, Type (0, 1), BuildingBlock: MIFKUJ_clean_linker_0, # of connection points: 2
#     Edge 34, Type (0, 1), BuildingBlock: MIFKUJ_clean_linker_0, # of connection points: 2
#     Edge 35, Type (0, 1), BuildingBlock: MIFKUJ_clean_linker_0, # of connection points: 2
#     Edge 36, Type (0, 1), BuildingBlock: MIFKUJ_clean_linker_0, # of connection points: 2
#     Edge 37, Type (0, 1), BuildingBlock: MIFKUJ_clean_linker_0, # of connection points: 2
#     Edge 38, Type (0, 1), BuildingBlock: MIFKUJ_clean_linker_0, # of connection points: 2
#     Edge 39, Type (0, 1), BuildingBlock: MIFKUJ_clean_linker_0, # of connection points: 2
#     Edge 40, Type (0, 1), BuildingBlock: MIFKUJ_clean_linker_0, # of connection points: 2
#     Edge 41, Type (0, 1), BuildingBlock: MIFKUJ_clean_linker_0, # of connection points: 2
#     Edge 42, Type (0, 1), BuildingBlock: MIFKUJ_clean_linker_0, # of connection points: 2
#     Edge 43, Type (0, 1), BuildingBlock: MIFKUJ_clean_linker_0, # of connection points: 2
#     Edge 44, Type (0, 1), BuildingBlock: MIFKUJ_clean_linker_0, # of connection points: 2
#     Edge 45, Type (0, 1), BuildingBlock: MIFKUJ_clean_linker_0, # of connection points: 2
#     Edge 46, Type (0, 1), BuildingBlock: MIFKUJ_clean_linker_0, # of connection points: 2
#     Edge 47, Type (0, 1), BuildingBlock: MIFKUJ_clean_linker_0, # of connection points: 2
#     Edge 48, Type (0, 1), BuildingBlock: MIFKUJ_clean_linker_0, # of connection points: 2
#     Edge 49, Type (0, 1), BuildingBlock: MIFKUJ_clean_linker_0, # of connection points: 2
#     Edge 50, Type (0, 1), BuildingBlock: MIFKUJ_clean_linker_0, # of connection points: 2
#     Edge 51, Type (0, 1), BuildingBlock: MIFKUJ_clean_linker_0, # of connection points: 2
#     Edge 52, Type (0, 1), BuildingBlock: MIFKUJ_clean_linker_0, # of connection points: 2
#     Edge 53, Type (0, 1), BuildingBlock: MIFKUJ_clean_linker_0, # of connection points: 2
#     Edge 54, Type (0, 1), BuildingBlock: MIFKUJ_clean_linker_0, # of connection points: 2
#     Edge 55, Type (0, 1), BuildingBlock: MIFKUJ_clean_linker_0, # of connection points: 2
#     Edge 56, Type (0, 1), BuildingBlock: MIFKUJ_clean_linker_0, # of connection points: 2
#     Edge 57, Type (0, 1), BuildingBlock: MIFKUJ_clean_linker_0, # of connection points: 2
#     Edge 58, Type (0, 1), BuildingBlock: MIFKUJ_clean_linker_0, # of connection points: 2
#     Edge 59, Type (0, 1), BuildingBlock: MIFKUJ_clean_linker_0, # of connection points: 2
#     Edge 60, Type (0, 1), BuildingBlock: MIFKUJ_clean_linker_0, # of connection points: 2
#     Edge 61, Type (0, 1), BuildingBlock: MIFKUJ_clean_linker_0, # of connection points: 2
#     Edge 62, Type (0, 1), BuildingBlock: MIFKUJ_clean_linker_0, # of connection points: 2
#     Edge 63, Type (0, 1), BuildingBlock: MIFKUJ_clean_linker_0, # of connection points: 2
#     Edge 64, Type (0, 1), BuildingBlock: MIFKUJ_clean_linker_0, # of connection points: 2
#     Edge 65, Type (0, 1), BuildingBlock: MIFKUJ_clean_linker_0, # of connection points: 2
#     Edge 66, Type (0, 1), BuildingBlock: MIFKUJ_clean_linker_0, # of connection points: 2
#     Edge 67, Type (0, 1), BuildingBlock: MIFKUJ_clean_linker_0, # of connection points: 2
#     Edge 68, Type (0, 1), BuildingBlock: MIFKUJ_clean_linker_0, # of connection points: 2
#     Edge 69, Type (0, 1), BuildingBlock: MIFKUJ_clean_linker_0, # of connection points: 2
#     Edge 70, Type (0, 1), BuildingBlock: MIFKUJ_clean_linker_0, # of connection points: 2
#     Edge 71, Type (0, 1), BuildingBlock: MIFKUJ_clean_linker_0, # of connection points: 2
#     Edge 72, Type (0, 1), BuildingBlock: MIFKUJ_clean_linker_0, # of connection points: 2
#     Edge 73, Type (0, 1), BuildingBlock: MIFKUJ_clean_linker_0, # of connection points: 2
#     Edge 74, Type (0, 1), BuildingBlock: MIFKUJ_clean_linker_0, # of connection points: 2
#     Edge 75, Type (0, 1), BuildingBlock: MIFKUJ_clean_linker_0, # of connection points: 2
# Relax obj value: 0.012
# Max RMSD: 0.061
# Mean RMSD: 0.028
data_MOF--net-ctn--node1-KUFVIS_clean_sbu_0--node2-KAKCAD_clean_linker_0--edge1-MIFKUJ_clean_linker_0
_symmetry_space_group_name_H-M    P1
_symmetry_Int_Tables_number       1
_symmetry_cell_setting            triclinic
loop_
_symmetry_equiv_pos_as_xyz
'x, y, z'
_cell_length_a     83.601437
_cell_length_b     83.281796
_cell_length_c     83.5957
_cell_angle_alpha  90.983913
_cell_angle_beta   90.509753
_cell_angle_gamma 91.601669
loop_
_atom_site_label
_atom_site_type_symbol
_atom_site_fract_x
_atom_site_fract_y
_atom_site_fract_z
_atom_type_partial_charge
C0 C 0.03585 0.08369 0.9934 0.0
C1 C 0.03096 0.09849 0.99979 0.0
C2 C 0.03911 0.07088 0.00343 0.0
C3 C 0.03759 0.07252 0.02012 0.0
C4 C 0.03274 0.08732 0.02651 0.0
C5 C 0.02945 0.10012 0.01649 0.0
C6 C 0.04101 0.05884 0.03082 0.0
C7 C 0.05399 0.04885 0.02775 0.0
C8 C 0.05732 0.03595 0.03779 0.0
C9 C 0.04745 0.03307 0.05103 0.0
C10 C 0.0344 0.04285 0.0543 0.0
C11 C 0.0313 0.05571 0.04414 0.0
C12 C 0.02395 0.03956 0.06828 0.0
C13 C 0.01905 0.02374 0.07183 0.0
C14 C 0.01885 0.05218 0.07821 0.0
C15 C 0.00919 0.04904 0.09145 0.0
C16 C 0.00433 0.03321 0.09505 0.0
C17 C 0.07111 0.02549 0.03449 0.0
C18 C 0.07415 0.01997 0.01885 0.0
C19 C 0.08125 0.02082 0.04698 0.0
C20 C 0.0941 0.01085 0.04392 0.0
C21 C 0.0971 0.0052 0.02829 0.0
C22 C 0.08695 0.00992 0.0158 0.0
C23 C 0.00935 0.02061 0.08502 0.0
H24 H 0.03732 0.08203 0.98063 0.0
H25 H 0.04265 0.05961 0.99806 0.0
H26 H 0.03161 0.08909 0.03932 0.0
H27 H 0.02555 0.11126 0.02184 0.0
H28 H 0.06178 0.05135 0.01776 0.0
H29 H 0.02102 0.06304 0.04638 0.0
H30 H 0.04994 0.02315 0.05881 0.0
H31 H 0.02255 0.01377 0.06427 0.0
H32 H 0.02257 0.06448 0.07592 0.0
H33 H 0.00577 0.05902 0.09902 0.0
H34 H 0.06644 0.02318 0.009 0.0
H35 H 0.07938 0.02506 0.05912 0.0
H36 H 0.00562 0.0083 0.08724 0.0
H37 H 0.08871 0.00562 0.00366 0.0
H38 H 0.10182 0.00773 0.0538 0.0
C39 C 0.35512 0.72107 0.23418 0.0
C40 C 0.36207 0.70775 0.24135 0.0
C41 C 0.34262 0.71902 0.22308 0.0
C42 C 0.33686 0.70357 0.21849 0.0
C43 C 0.34396 0.69021 0.22547 0.0
C44 C 0.35629 0.69227 0.23683 0.0
C45 C 0.32338 0.70148 0.2067 0.0
C46 C 0.3216 0.71241 0.19417 0.0
C47 C 0.30844 0.7112 0.18359 0.0
C48 C 0.29716 0.69853 0.18532 0.0
C49 C 0.29884 0.68729 0.19753 0.0
C50 C 0.31192 0.68889 0.20818 0.0
C51 C 0.28662 0.67419 0.19956 0.0
C52 C 0.27026 0.67755 0.19927 0.0
C53 C 0.29121 0.65831 0.20203 0.0
C54 C 0.27967 0.64604 0.20413 0.0
C55 C 0.26325 0.64939 0.20397 0.0
C56 C 0.30625 0.72349 0.17107 0.0
C57 C 0.30898 0.73989 0.17474 0.0
C58 C 0.30122 0.719 0.15549 0.0
C59 C 0.29895 0.73065 0.14387 0.0
C60 C 0.30156 0.74706 0.14759 0.0
C61 C 0.30665 0.75152 0.16315 0.0
C62 C 0.25873 0.66534 0.20154 0.0
H63 H 0.35938 0.73319 0.23703 0.0
H64 H 0.33734 0.72966 0.21826 0.0
H65 H 0.34007 0.6781 0.22214 0.0
H66 H 0.36112 0.68169 0.24218 0.0
H67 H 0.33056 0.72186 0.19251 0.0
H68 H 0.31278 0.68062 0.21799 0.0
H69 H 0.28693 0.69752 0.17728 0.0
H70 H 0.26637 0.68972 0.19764 0.0
H71 H 0.30375 0.65535 0.20216 0.0
H72 H 0.28363 0.6339 0.20573 0.0
H73 H 0.31269 0.74378 0.18667 0.0
H74 H 0.29913 0.70647 0.15225 0.0
H75 H 0.24627 0.66852 0.20172 0.0
H76 H 0.30893 0.76404 0.16637 0.0
H77 H 0.29489 0.72682 0.13203 0.0
C78 C 0.98951 0.48804 0.09302 0.0
C79 C 0.00611 0.48583 0.09215 0.0
C80 C 0.97967 0.48551 0.07952 0.0
C81 C 0.98617 0.48072 0.06478 0.0
C82 C 0.00279 0.47865 0.06388 0.0
C83 C 0.01262 0.48114 0.07738 0.0
C84 C 0.97567 0.47765 0.05046 0.0
C85 C 0.9628 0.48766 0.04716 0.0
C86 C 0.95275 0.48472 0.03375 0.0
C87 C 0.95583 0.47158 0.02351 0.0
C88 C 0.96868 0.46145 0.02654 0.0
C89 C 0.97844 0.46457 0.04008 0.0
C90 C 0.97185 0.44747 0.01575 0.0
C91 C 0.9592 0.43762 0.00965 0.0
C92 C 0.98762 0.44365 0.01175 0.0
C93 C 0.99069 0.43022 1.00209 0.0
C94 C 0.97806 0.42024 0.99616 0.0
C95 C 0.93905 0.49536 0.03051 0.0
C96 C 0.92963 0.5011 0.04312 0.0
C97 C 0.93526 0.49988 0.0148 0.0
C98 C 0.92242 0.5099 0.01182 0.0
C99 C 0.91307 0.51569 0.02446 0.0
C100 C 0.91683 0.51114 0.04014 0.0
C101 C 0.96227 0.42418 0.99999 0.0
H102 H 0.9841 0.49184 0.10412 0.0
H103 H 0.96692 0.48708 0.08071 0.0
H104 H 0.00826 0.47516 0.0527 0.0
H105 H 0.02531 0.47915 0.07627 0.0
H106 H 0.96083 0.498 0.05485 0.0
H107 H 0.988 0.4565 0.0428 0.0
H108 H 0.94818 0.46919 0.01316 0.0
H109 H 0.94692 0.44011 0.0126 0.0
H110 H 0.99765 0.45107 0.01608 0.0
H111 H 0.003 0.42749 0.99953 0.0
H112 H 0.93199 0.49765 0.05533 0.0
H113 H 0.94238 0.4959 0.00481 0.0
H114 H 0.95223 0.41689 0.99548 0.0
H115 H 0.90972 0.51515 0.05014 0.0
H116 H 0.92 0.51333 0.99962 0.0
C117 C 0.68971 0.77174 0.15418 0.0
C118 C 0.70521 0.76717 0.14995 0.0
C119 C 0.68742 0.78309 0.16645 0.0
C120 C 0.70057 0.79015 0.1748 0.0
C121 C 0.71605 0.78539 0.17072 0.0
C122 C 0.71834 0.7741 0.15845 0.0
C123 C 0.69824 0.80265 0.18751 0.0
C124 C 0.68562 0.8012 0.19848 0.0
C125 C 0.68352 0.81292 0.21058 0.0
C126 C 0.6942 0.82628 0.21152 0.0
C127 C 0.70698 0.82781 0.20082 0.0
C128 C 0.70884 0.81603 0.18882 0.0
C129 C 0.71883 0.84137 0.20251 0.0
C130 C 0.7139 0.85728 0.20444 0.0
C131 C 0.73526 0.83837 0.20241 0.0
C132 C 0.74655 0.85095 0.20429 0.0
C133 C 0.74172 0.86694 0.2061 0.0
C134 C 0.67052 0.81095 0.22256 0.0
C135 C 0.65526 0.80487 0.21794 0.0
C136 C 0.67333 0.81494 0.23879 0.0
C137 C 0.66123 0.8129 0.25009 0.0
C138 C 0.64603 0.80673 0.24548 0.0
C139 C 0.64318 0.80276 0.22926 0.0
C140 C 0.72522 0.86994 0.20612 0.0
H141 H 0.6793 0.76652 0.14805 0.0
H142 H 0.67534 0.78655 0.16918 0.0
H143 H 0.72646 0.79038 0.17704 0.0
H144 H 0.73046 0.77103 0.15544 0.0
H145 H 0.67776 0.79064 0.19792 0.0
H146 H 0.71848 0.81744 0.18034 0.0
H147 H 0.69275 0.8354 0.22075 0.0
H148 H 0.70129 0.85994 0.20444 0.0
H149 H 0.73941 0.8262 0.20122 0.0
H150 H 0.75908 0.84804 0.20464 0.0
H151 H 0.65259 0.80189 0.20552 0.0
H152 H 0.685 0.81936 0.24286 0.0
H153 H 0.72102 0.88208 0.20729 0.0
H154 H 0.63154 0.79817 0.22528 0.0
H155 H 0.66391 0.81583 0.26252 0.0
C156 C 0.99577 0.97961 0.43237 0.0
C157 C 0.00275 0.98497 0.4181 0.0
C158 C 0.00535 0.97514 0.4453 0.0
C159 C 0.02214 0.97605 0.44429 0.0
C160 C 0.0291 0.98151 0.43005 0.0
C161 C 0.01954 0.9859 0.41713 0.0
C162 C 0.03246 0.97129 0.45795 0.0
C163 C 0.02882 0.95735 0.46662 0.0
C164 C 0.03893 0.9525 0.47909 0.0
C165 C 0.05281 0.96182 0.48281 0.0
C166 C 0.0566 0.97592 0.47445 0.0
C167 C 0.04624 0.98057 0.46211 0.0
C168 C 0.07134 0.98579 0.47857 0.0
C169 C 0.07684 0.98738 0.49451 0.0
C170 C 0.08004 0.99378 0.46661 0.0
C171 C 0.09361 0.00331 0.47048 0.0
C172 C 0.09909 0.00494 0.48642 0.0
C173 C 0.03509 0.93769 0.48825 0.0
C174 C 0.01933 0.93407 0.49306 0.0
C175 C 0.04728 0.92727 0.49263 0.0
C176 C 0.04388 0.91382 0.50191 0.0
C177 C 0.02819 0.91037 0.50701 0.0
C178 C 0.01592 0.92055 0.50232 0.0
C179 C 0.09057 0.99668 0.49835 0.0
H180 H 0.98288 0.97862 0.43347 0.0
H181 H 0.99962 0.9711 0.45614 0.0
H182 H 0.04198 0.9822 0.4288 0.0
H183 H 0.02532 0.99013 0.4064 0.0
H184 H 0.01838 0.94999 0.46333 0.0
H185 H 0.04871 0.99164 0.45586 0.0
H186 H 0.06069 0.95804 0.49229 0.0
H187 H 0.07041 0.98163 0.50413 0.0
H188 H 0.07643 0.99266 0.45416 0.0
H189 H 0.0996 0.00963 0.46094 0.0
H190 H 0.00968 0.94191 0.49003 0.0
H191 H 0.05949 0.92948 0.48886 0.0
H192 H 0.09449 0.99737 0.51072 0.0
H193 H 0.00373 0.91832 0.50616 0.0
H194 H 0.05356 0.90605 0.50503 0.0
C195 C 0.15764 0.69383 0.76716 0.0
C196 C 0.15407 0.70958 0.76284 0.0
C197 C 0.17006 0.69101 0.77801 0.0
C198 C 0.17925 0.70388 0.78474 0.0
C199 C 0.17592 0.71959 0.78004 0.0
C200 C 0.16346 0.72241 0.76929 0.0
C201 C 0.19187 0.70102 0.79701 0.0
C202 C 0.2019 0.68776 0.79568 0.0
C203 C 0.2137 0.685 0.80738 0.0
C204 C 0.21522 0.6956 0.82063 0.0
C205 C 0.20544 0.70896 0.82203 0.0
C206 C 0.19384 0.71159 0.81023 0.0
C207 C 0.20745 0.72036 0.83574 0.0
C208 C 0.2066 0.71491 0.85153 0.0
C209 C 0.21014 0.73681 0.83307 0.0
C210 C 0.21214 0.74762 0.84596 0.0
C211 C 0.21114 0.74221 0.86175 0.0
C212 C 0.22471 0.67132 0.80561 0.0
C213 C 0.219 0.65611 0.80021 0.0
C214 C 0.2411 0.67344 0.80923 0.0
C215 C 0.25152 0.66069 0.80752 0.0
C216 C 0.24583 0.64547 0.80214 0.0
C217 C 0.22943 0.64334 0.79851 0.0
C218 C 0.20826 0.72578 0.86443 0.0
H219 H 0.15053 0.6837 0.7625 0.0
H220 H 0.17214 0.67877 0.78149 0.0
H221 H 0.18296 0.72978 0.78468 0.0
H222 H 0.16118 0.73466 0.76598 0.0
H223 H 0.20085 0.67984 0.78528 0.0
H224 H 0.18608 0.72172 0.8116 0.0
H225 H 0.22412 0.69358 0.82983 0.0
H226 H 0.20447 0.70228 0.85386 0.0
H227 H 0.21089 0.74127 0.82099 0.0
H228 H 0.2143 0.76024 0.84361 0.0
H229 H 0.20642 0.65402 0.7975 0.0
H230 H 0.24597 0.68506 0.81314 0.0
H231 H 0.20751 0.72133 0.87651 0.0
H232 H 0.2246 0.63174 0.79452 0.0
H233 H 0.26411 0.66287 0.81013 0.0
C234 C 0.98947 0.59 0.49486 0.0
C235 C 0.98598 0.59042 0.51127 0.0
C236 C 0.98669 0.57593 0.48573 0.0
C237 C 0.98055 0.56187 0.49286 0.0
C238 C 0.97737 0.56228 0.50937 0.0
C239 C 0.97994 0.5764 0.51842 0.0
C240 C 0.97722 0.54691 0.48312 0.0
C241 C 0.98724 0.54259 0.47039 0.0
C242 C 0.98398 0.52864 0.46104 0.0
C243 C 0.97062 0.51879 0.46473 0.0
C244 C 0.96048 0.52282 0.47743 0.0
C245 C 0.96383 0.53694 0.48644 0.0
C246 C 0.94616 0.51253 0.48112 0.0
C247 C 0.93631 0.50605 0.46876 0.0
C248 C 0.94203 0.50939 0.49706 0.0
C249 C 0.9283 0.50017 0.50057 0.0
C250 C 0.91833 0.49389 0.48822 0.0
C251 C 0.99431 0.52455 0.4472 0.0
C252 C 0.99956 0.53657 0.4367 0.0
C253 C 0.99873 0.50862 0.44415 0.0
C254 C 0.00804 0.50478 0.43085 0.0
C255 C 0.01308 0.51678 0.42022 0.0
C256 C 0.0088 0.53274 0.42338 0.0
C257 C 0.92257 0.49686 0.47227 0.0
H258 H 0.99403 0.60068 0.48901 0.0
H259 H 0.98906 0.57619 0.47303 0.0
H260 H 0.97298 0.55165 0.51539 0.0
H261 H 0.97737 0.57631 0.5311 0.0
H262 H 0.99778 0.54995 0.46789 0.0
H263 H 0.95567 0.54041 0.49579 0.0
H264 H 0.96803 0.50802 0.45762 0.0
H265 H 0.93904 0.50835 0.45635 0.0
H266 H 0.94945 0.51405 0.50687 0.0
H267 H 0.92534 0.49823 0.51299 0.0
H268 H 0.99627 0.54894 0.4386 0.0
H269 H 0.99502 0.49909 0.45208 0.0
H270 H 0.91527 0.49204 0.46245 0.0
H271 H 0.01265 0.54231 0.41556 0.0
H272 H 0.01103 0.49237 0.42871 0.0
C273 C 0.81657 0.77472 0.85127 0.0
C274 C 0.8014 0.76891 0.85594 0.0
C275 C 0.8181 0.78563 0.8388 0.0
C276 C 0.80451 0.79096 0.8306 0.0
C277 C 0.78934 0.78502 0.83519 0.0
C278 C 0.78781 0.77416 0.84772 0.0
C279 C 0.80619 0.80281 0.81748 0.0
C280 C 0.81888 0.80181 0.80658 0.0
C281 C 0.82108 0.81328 0.79454 0.0
C282 C 0.81023 0.82587 0.7935 0.0
C283 C 0.7972 0.82678 0.80395 0.0
C284 C 0.79527 0.81524 0.81589 0.0
C285 C 0.78546 0.8397 0.80227 0.0
C286 C 0.79052 0.85591 0.80241 0.0
C287 C 0.7691 0.83585 0.80037 0.0
C288 C 0.75801 0.84795 0.7984 0.0
C289 C 0.76296 0.86429 0.79864 0.0
C290 C 0.8345 0.81186 0.78293 0.0
C291 C 0.84937 0.806 0.78778 0.0
C292 C 0.83246 0.81599 0.76679 0.0
C293 C 0.84488 0.81419 0.75584 0.0
C294 C 0.85963 0.80799 0.76062 0.0
C295 C 0.8617 0.80398 0.77679 0.0
C296 C 0.7794 0.86806 0.80079 0.0
H297 H 0.82726 0.77111 0.8575 0.0
H298 H 0.82995 0.79014 0.83579 0.0
H299 H 0.77863 0.78863 0.829 0.0
H300 H 0.77596 0.76973 0.85085 0.0
H301 H 0.82683 0.7918 0.80726 0.0
H302 H 0.78546 0.81626 0.8242 0.0
H303 H 0.81178 0.83495 0.78447 0.0
H304 H 0.80307 0.85918 0.804 0.0
H305 H 0.76492 0.82341 0.80006 0.0
H306 H 0.74559 0.84442 0.79641 0.0
H307 H 0.85156 0.80294 0.80013 0.0
H308 H 0.82116 0.82036 0.76249 0.0
H309 H 0.78375 0.88042 0.80141 0.0
H310 H 0.87276 0.79898 0.78097 0.0
H311 H 0.84285 0.81768 0.74359 0.0
C312 C 0.31785 0.28047 0.3555 0.0
C313 C 0.30244 0.27518 0.36001 0.0
C314 C 0.31987 0.29187 0.34351 0.0
C315 C 0.30655 0.29829 0.33572 0.0
C316 C 0.29115 0.2931 0.34035 0.0
C317 C 0.28912 0.28173 0.35234 0.0
C318 C 0.30869 0.31018 0.3227 0.0
C319 C 0.32079 0.30832 0.31131 0.0
C320 C 0.32305 0.31943 0.29896 0.0
C321 C 0.31264 0.33242 0.29797 0.0
C322 C 0.30019 0.33435 0.30904 0.0
C323 C 0.29849 0.32325 0.32146 0.0
C324 C 0.28877 0.34774 0.30745 0.0
C325 C 0.29403 0.36308 0.30257 0.0
C326 C 0.27238 0.34518 0.31059 0.0
C327 C 0.26158 0.35758 0.30888 0.0
C328 C 0.26683 0.37285 0.30386 0.0
C329 C 0.33615 0.31732 0.28706 0.0
C330 C 0.35079 0.31076 0.29167 0.0
C331 C 0.33414 0.32167 0.27098 0.0
C332 C 0.3464 0.31958 0.25989 0.0
C333 C 0.36095 0.31278 0.26446 0.0
C334 C 0.36291 0.30837 0.28053 0.0
C335 C 0.28318 0.37545 0.30073 0.0
H336 H 0.32838 0.27561 0.36104 0.0
H337 H 0.33191 0.29572 0.34039 0.0
H338 H 0.28061 0.29764 0.33453 0.0
H339 H 0.27707 0.27813 0.35564 0.0
H340 H 0.32821 0.29788 0.31183 0.0
H341 H 0.28934 0.32495 0.33038 0.0
H342 H 0.31413 0.34101 0.2885 0.0
H343 H 0.30657 0.36561 0.3003 0.0
H344 H 0.2678 0.33348 0.31408 0.0
H345 H 0.24902 0.35511 0.31117 0.0
H346 H 0.353 0.3075 0.30395 0.0
H347 H 0.32301 0.32653 0.26681 0.0
H348 H 0.28764 0.38714 0.29704 0.0
H349 H 0.37375 0.30283 0.28457 0.0
H350 H 0.34443 0.3234 0.24774 0.0
C351 C 0.48395 0.98566 0.5962 0.0
C352 C 0.50045 0.98288 0.59562 0.0
C353 C 0.47424 0.98312 0.5826 0.0
C354 C 0.4808 0.97781 0.56806 0.0
C355 C 0.49735 0.97523 0.56747 0.0
C356 C 0.50703 0.97768 0.58107 0.0
C357 C 0.47043 0.9747 0.55364 0.0
C358 C 0.45781 0.98491 0.54996 0.0
C359 C 0.44792 0.98193 0.53643 0.0
C360 C 0.45092 0.96855 0.52647 0.0
C361 C 0.46356 0.95829 0.52984 0.0
C362 C 0.47313 0.96142 0.5435 0.0
C363 C 0.4668 0.94423 0.51918 0.0
C364 C 0.4542 0.93442 0.51293 0.0
C365 C 0.48262 0.94038 0.51537 0.0
C366 C 0.48576 0.92698 0.50569 0.0
C367 C 0.47318 0.91707 0.49957 0.0
C368 C 0.43451 0.99282 0.53269 0.0
C369 C 0.42516 0.99931 0.545 0.0
C370 C 0.43091 0.9968 0.51679 0.0
C371 C 0.41829 0.00691 0.5133 0.0
C372 C 0.40894 0.01341 0.5256 0.0
C373 C 0.41259 0.00948 0.54151 0.0
C374 C 0.45735 0.921 0.50326 0.0
H375 H 0.47847 0.9895 0.60726 0.0
H376 H 0.46152 0.98502 0.58359 0.0
H377 H 0.5029 0.97144 0.55643 0.0
H378 H 0.51974 0.9757 0.58014 0.0
H379 H 0.45594 0.99543 0.55744 0.0
H380 H 0.4825 0.95323 0.54648 0.0
H381 H 0.44341 0.96611 0.51604 0.0
H382 H 0.44189 0.93695 0.51572 0.0
H383 H 0.49261 0.94777 0.51983 0.0
H384 H 0.49809 0.92424 0.50324 0.0
H385 H 0.42742 0.99639 0.55738 0.0
H386 H 0.43795 0.99223 0.50699 0.0
H387 H 0.44735 0.91375 0.49861 0.0
H388 H 0.40582 0.01439 0.55134 0.0
H389 H 0.41576 0.00948 0.50089 0.0
C390 C 0.18858 0.2758 0.64917 0.0
C391 C 0.20416 0.27114 0.64532 0.0
C392 C 0.18604 0.28681 0.66169 0.0
C393 C 0.19902 0.29346 0.6706 0.0
C394 C 0.21456 0.28862 0.66688 0.0
C395 C 0.21709 0.27763 0.65441 0.0
C396 C 0.19651 0.30566 0.68353 0.0
C397 C 0.18389 0.30386 0.69445 0.0
C398 C 0.18191 0.31515 0.70697 0.0
C399 C 0.19256 0.3285 0.70828 0.0
C400 C 0.20524 0.33045 0.69752 0.0
C401 C 0.20706 0.31904 0.68517 0.0
C402 C 0.21705 0.344 0.69954 0.0
C403 C 0.21209 0.35982 0.70202 0.0
C404 C 0.2335 0.34107 0.69911 0.0
C405 C 0.24475 0.35365 0.70117 0.0
C406 C 0.23988 0.36956 0.70352 0.0
C407 C 0.16919 0.31264 0.71913 0.0
C408 C 0.15366 0.30735 0.71457 0.0
C409 C 0.17259 0.31536 0.73547 0.0
C410 C 0.1608 0.31279 0.74698 0.0
C411 C 0.14528 0.30746 0.74244 0.0
C412 C 0.14183 0.30484 0.72609 0.0
C413 C 0.22338 0.37249 0.7039 0.0
H414 H 0.17833 0.2709 0.64254 0.0
H415 H 0.17393 0.29035 0.66418 0.0
H416 H 0.22481 0.29332 0.67364 0.0
H417 H 0.22926 0.27445 0.6517 0.0
H418 H 0.176 0.29333 0.69358 0.0
H419 H 0.21669 0.3207 0.6767 0.0
H420 H 0.19119 0.33726 0.71787 0.0
H421 H 0.19947 0.36243 0.70229 0.0
H422 H 0.23768 0.32896 0.69749 0.0
H423 H 0.25731 0.35079 0.70124 0.0
H424 H 0.15063 0.30524 0.70207 0.0
H425 H 0.18447 0.31925 0.73943 0.0
H426 H 0.21915 0.38457 0.7055 0.0
H427 H 0.13004 0.3006 0.7222 0.0
H428 H 0.16383 0.31509 0.75945 0.0
C429 C 0.85447 0.22326 0.7329 0.0
C430 C 0.86161 0.21014 0.74027 0.0
C431 C 0.84201 0.22088 0.72178 0.0
C432 C 0.83649 0.20529 0.7174 0.0
C433 C 0.84382 0.19215 0.72453 0.0
C434 C 0.85608 0.19454 0.7359 0.0
C435 C 0.82295 0.20279 0.70571 0.0
C436 C 0.82084 0.21345 0.693 0.0
C437 C 0.80771 0.21163 0.6824 0.0
C438 C 0.79676 0.19872 0.68441 0.0
C439 C 0.79881 0.18776 0.69679 0.0
C440 C 0.81183 0.18993 0.70741 0.0
C441 C 0.78721 0.17414 0.69887 0.0
C442 C 0.77068 0.17675 0.69906 0.0
C443 C 0.79262 0.15848 0.70091 0.0
C444 C 0.78172 0.14566 0.70309 0.0
C445 C 0.76521 0.14831 0.70353 0.0
C446 C 0.80531 0.2234 0.66942 0.0
C447 C 0.80776 0.23995 0.67244 0.0
C448 C 0.80036 0.21823 0.65401 0.0
C449 C 0.79783 0.22935 0.64194 0.0
C450 C 0.80013 0.24591 0.64501 0.0
C451 C 0.80518 0.25107 0.66039 0.0
C452 C 0.75979 0.16398 0.7015 0.0
H453 H 0.85852 0.23547 0.73564 0.0
H454 H 0.83657 0.23136 0.71681 0.0
H455 H 0.84016 0.17993 0.72133 0.0
H456 H 0.86105 0.18409 0.7414 0.0
H457 H 0.82955 0.22309 0.69116 0.0
H458 H 0.81294 0.18182 0.71733 0.0
H459 H 0.78656 0.19721 0.67638 0.0
H460 H 0.76619 0.18872 0.69762 0.0
H461 H 0.8053 0.15613 0.70072 0.0
H462 H 0.78623 0.13373 0.70473 0.0
H463 H 0.81142 0.24437 0.68421 0.0
H464 H 0.79851 0.20555 0.65124 0.0
H465 H 0.74712 0.16634 0.70169 0.0
H466 H 0.80723 0.26372 0.66313 0.0
H467 H 0.79379 0.22497 0.63028 0.0
C468 C 0.53265 0.58545 0.49832 0.0
C469 C 0.5319 0.60131 0.50423 0.0
C470 C 0.53622 0.57293 0.50859 0.0
C471 C 0.53876 0.57598 0.52502 0.0
C472 C 0.53787 0.59181 0.53095 0.0
C473 C 0.53464 0.60439 0.52062 0.0
C474 C 0.54228 0.56265 0.53594 0.0
C475 C 0.55477 0.55223 0.53254 0.0
C476 C 0.55825 0.53958 0.54284 0.0
C477 C 0.54878 0.53729 0.55649 0.0
C478 C 0.53607 0.54748 0.55998 0.0
C479 C 0.53306 0.56027 0.54971 0.0
C480 C 0.52574 0.54451 0.57413 0.0
C481 C 0.52084 0.52878 0.57802 0.0
C482 C 0.52055 0.55734 0.58375 0.0
C483 C 0.51069 0.55449 0.59692 0.0
C484 C 0.50575 0.53875 0.60076 0.0
C485 C 0.57181 0.52883 0.53942 0.0
C486 C 0.57472 0.52334 0.52373 0.0
C487 C 0.58197 0.52398 0.55182 0.0
C488 C 0.59472 0.51391 0.54864 0.0
C489 C 0.59763 0.50841 0.53296 0.0
C490 C 0.58746 0.51325 0.52055 0.0
C491 C 0.51099 0.52593 0.59116 0.0
H492 H 0.53066 0.58279 0.48572 0.0
H493 H 0.53677 0.56081 0.50375 0.0
H494 H 0.53984 0.59447 0.54356 0.0
H495 H 0.53405 0.61651 0.52546 0.0
H496 H 0.56206 0.55427 0.52207 0.0
H497 H 0.52318 0.56809 0.55209 0.0
H498 H 0.55127 0.52747 0.5644 0.0
H499 H 0.52444 0.51862 0.57077 0.0
H500 H 0.5242 0.5696 0.58118 0.0
H501 H 0.50677 0.56466 0.60397 0.0
H502 H 0.56705 0.52671 0.51391 0.0
H503 H 0.5802 0.52812 0.56402 0.0
H504 H 0.50759 0.51364 0.59387 0.0
H505 H 0.58945 0.50939 0.50831 0.0
H506 H 0.60221 0.51031 0.55851 0.0
C507 C 0.49334 0.48145 0.93543 0.0
C508 C 0.50017 0.48652 0.92097 0.0
C509 C 0.50308 0.47721 0.94833 0.0
C510 C 0.51985 0.47808 0.94711 0.0
C511 C 0.52664 0.48328 0.93269 0.0
C512 C 0.51693 0.48742 0.9198 0.0
C513 C 0.53035 0.47349 0.96068 0.0
C514 C 0.52695 0.45955 0.96942 0.0
C515 C 0.53736 0.45472 0.98164 0.0
C516 C 0.55134 0.46403 0.98499 0.0
C517 C 0.55489 0.47819 0.97659 0.0
C518 C 0.54414 0.48285 0.96457 0.0
C519 C 0.56979 0.48806 0.98024 0.0
C520 C 0.57626 0.48907 0.99584 0.0
C521 C 0.5777 0.49661 0.96811 0.0
C522 C 0.59139 0.50612 0.97153 0.0
C523 C 0.59794 0.50707 0.98711 0.0
C524 C 0.53372 0.43993 0.9909 0.0
C525 C 0.51806 0.43634 0.99605 0.0
C526 C 0.54596 0.42946 0.99499 0.0
C527 C 0.54271 0.41597 0.00427 0.0
C528 C 0.52712 0.41254 0.00968 0.0
C529 C 0.5148 0.4228 0.00531 0.0
C530 C 0.59021 0.49825 0.99918 0.0
H531 H 0.48047 0.48051 0.93667 0.0
H532 H 0.49748 0.47336 0.95931 0.0
H533 H 0.53951 0.48393 0.93128 0.0
H534 H 0.52258 0.49142 0.9089 0.0
H535 H 0.51646 0.45216 0.96635 0.0
H536 H 0.54633 0.49395 0.95829 0.0
H537 H 0.55949 0.46018 0.9942 0.0
H538 H 0.5705 0.48293 0.00563 0.0
H539 H 0.5734 0.49596 0.95586 0.0
H540 H 0.59665 0.51289 0.96188 0.0
H541 H 0.50837 0.44423 0.99326 0.0
H542 H 0.55809 0.43164 0.99096 0.0
H543 H 0.59492 0.49832 0.01128 0.0
H544 H 0.50269 0.42061 0.0094 0.0
H545 H 0.55243 0.40815 0.00715 0.0
C546 C 0.65846 0.18979 0.26808 0.0
C547 C 0.65385 0.20551 0.26478 0.0
C548 C 0.67072 0.18708 0.27917 0.0
C549 C 0.67872 0.20006 0.28711 0.0
C550 C 0.67429 0.21577 0.28348 0.0
C551 C 0.66198 0.21845 0.27253 0.0
C552 C 0.69155 0.19738 0.29922 0.0
C553 C 0.70281 0.18533 0.29695 0.0
C554 C 0.71531 0.18336 0.30807 0.0
C555 C 0.71661 0.19379 0.32148 0.0
C556 C 0.70539 0.20584 0.32409 0.0
C557 C 0.69276 0.20725 0.31302 0.0
C558 C 0.70689 0.21714 0.33817 0.0
C559 C 0.71294 0.21209 0.353 0.0
C560 C 0.70221 0.23319 0.33685 0.0
C561 C 0.70316 0.24374 0.35002 0.0
C562 C 0.70919 0.23865 0.36473 0.0
C563 C 0.72713 0.1705 0.3056 0.0
C564 C 0.72205 0.15496 0.30059 0.0
C565 C 0.74355 0.17361 0.30836 0.0
C566 C 0.75462 0.16149 0.30616 0.0
C567 C 0.74954 0.14593 0.3012 0.0
C568 C 0.73311 0.14281 0.29845 0.0
C569 C 0.71423 0.2228 0.36609 0.0
H570 H 0.65233 0.17956 0.26236 0.0
H571 H 0.6737 0.17482 0.28176 0.0
H572 H 0.68042 0.22608 0.28903 0.0
H573 H 0.65892 0.23072 0.27001 0.0
H574 H 0.70215 0.17778 0.28626 0.0
H575 H 0.68365 0.21599 0.3152 0.0
H576 H 0.72642 0.19252 0.32986 0.0
H577 H 0.71645 0.19982 0.35463 0.0
H578 H 0.69793 0.23775 0.3256 0.0
H579 H 0.69942 0.25599 0.34864 0.0
H580 H 0.70947 0.15212 0.29849 0.0
H581 H 0.7479 0.18548 0.31207 0.0
H582 H 0.71888 0.21863 0.37738 0.0
H583 H 0.7288 0.13102 0.29445 0.0
H584 H 0.76716 0.16427 0.30851 0.0
C585 C 0.49045 0.0946 0.99601 0.0
C586 C 0.48577 0.09444 0.01216 0.0
C587 C 0.48718 0.08135 0.98584 0.0
C588 C 0.47937 0.06742 0.99157 0.0
C589 C 0.47492 0.06719 0.00776 0.0
C590 C 0.47788 0.08053 0.01782 0.0
C591 C 0.47574 0.05324 0.98075 0.0
C592 C 0.48616 0.04912 0.96828 0.0
C593 C 0.48272 0.03584 0.95805 0.0
C594 C 0.46886 0.02632 0.96071 0.0
C595 C 0.45834 0.03009 0.97318 0.0
C596 C 0.46177 0.04371 0.98291 0.0
C597 C 0.44375 0.01987 0.9761 0.0
C598 C 0.4345 0.0134 0.96328 0.0
C599 C 0.43891 0.01656 0.99181 0.0
C600 C 0.42514 0.00715 0.99463 0.0
C601 C 0.41586 1.00071 0.98182 0.0
C602 C 0.49344 0.03209 0.94438 0.0
C603 C 0.49989 0.04451 0.93501 0.0
C604 C 0.49699 0.01612 0.94032 0.0
C605 C 0.50655 0.01265 0.9271 0.0
C606 C 0.51279 0.02507 0.91759 0.0
C607 C 0.50944 0.04105 0.92181 0.0
C608 C 0.42077 0.00392 0.9661 0.0
H609 H 0.49676 0.10492 0.99117 0.0
H610 H 0.49063 0.08217 0.97343 0.0
H611 H 0.46916 0.05665 0.01279 0.0
H612 H 0.47378 0.07992 0.03004 0.0
H613 H 0.49715 0.05606 0.96667 0.0
H614 H 0.45329 0.04708 0.992 0.0
H615 H 0.46621 0.01598 0.95301 0.0
H616 H 0.43775 0.01582 0.95103 0.0
H617 H 0.44584 0.02116 1.00198 0.0
H618 H 0.42167 0.00511 0.00689 0.0
H619 H 0.4973 0.05694 0.93768 0.0
H620 H 0.49238 0.00626 0.94738 0.0
H621 H 0.41405 0.99901 0.95593 0.0
H622 H 0.51423 0.05093 0.91491 0.0
H623 H 0.50878 1.00021 0.92415 0.0
Mn624 Mn 0.25163 0.8755 0.0067 0.0
Mn625 Mn 0.24912 0.88807 0.96857 0.0
C626 C 0.23913 0.85937 0.98725 0.0
C627 C 0.26464 0.86212 0.0272 0.0
C628 C 0.22842 0.90086 0.99528 0.0
O629 O 0.2688 0.89343 0.00599 0.0
O630 O 0.26692 0.89996 0.97994 0.0
C631 C 0.27981 0.87611 0.95639 0.0
N632 N 0.26355 0.87648 0.9554 0.0
C633 C 0.26304 0.85864 0.93242 0.0
C634 C 0.27978 0.85814 0.93315 0.0
C635 C 0.28819 0.8669 0.9452 0.0
C636 C 0.25534 0.86811 0.94384 0.0
H637 H 0.28631 0.88277 0.96568 0.0
C638 C 0.27338 0.90151 0.99388 0.0
O639 O 0.25433 0.87312 0.03023 0.0
O640 O 0.2679 0.8594 0.01226 0.0
N641 N 0.23247 0.87732 0.95628 0.0
C642 C 0.21631 0.87824 0.95789 0.0
C643 C 0.20614 0.86975 0.94707 0.0
C644 C 0.21266 0.86046 0.9347 0.0
C645 C 0.22932 0.85976 0.93323 0.0
C646 C 0.23887 0.8686 0.94427 0.0
H647 H 0.21122 0.88534 0.96739 0.0
O648 O 0.23573 0.85749 1.00223 0.0
O649 O 0.24954 0.87074 0.98414 0.0
O650 O 0.23386 0.89197 0.00623 0.0
O651 O 0.23352 0.90053 0.98093 0.0
C652 C 0.23683 0.85039 0.92145 0.0
C653 C 0.25367 0.84981 0.92105 0.0
H654 H 0.28629 0.85096 0.92461 0.0
H655 H 0.30111 0.8665 0.94589 0.0
H656 H 0.19329 0.87032 0.94831 0.0
H657 H 0.20477 0.85381 0.92647 0.0
H658 H 0.22975 0.84336 0.9128 0.0
H659 H 0.2593 0.84235 0.9121 0.0
Mn660 Mn 0.13186 0.50861 0.25551 0.0
Mn661 Mn 0.11063 0.54245 0.25747 0.0
C662 C 0.14224 0.53241 0.245 0.0
C663 C 0.14982 0.49041 0.2661 0.0
C664 C 0.10333 0.51548 0.23356 0.0
O665 O 0.11524 0.50343 0.27268 0.0
O666 O 0.10283 0.52708 0.27365 0.0
C667 C 0.12097 0.55449 0.28955 0.0
N668 N 0.11937 0.55677 0.27353 0.0
C669 C 0.12793 0.58448 0.2763 0.0
C670 C 0.12966 0.58247 0.29285 0.0
C671 C 0.1263 0.56737 0.29948 0.0
C672 C 0.12298 0.57111 0.26698 0.0
H673 H 0.11807 0.54298 0.29471 0.0
C674 C 0.10482 0.51278 0.27851 0.0
O675 O 0.13929 0.48615 0.25525 0.0
O676 O 0.14976 0.50528 0.27109 0.0
N677 N 0.11683 0.55851 0.24254 0.0
C678 C 0.11513 0.55826 0.22631 0.0
C679 C 0.11849 0.5723 0.21775 0.0
C680 C 0.12311 0.58653 0.22602 0.0
C681 C 0.12459 0.58649 0.24275 0.0
C682 C 0.12152 0.57206 0.25058 0.0
H683 H 0.11117 0.54746 0.21994 0.0
O684 O 0.14736 0.51857 0.24021 0.0
O685 O 0.13133 0.53197 0.25598 0.0
O686 O 0.11475 0.50659 0.23774 0.0
O687 O 0.10062 0.5289 0.2404 0.0
C688 C 0.12863 0.60029 0.25199 0.0
C689 C 0.13059 0.59927 0.26873 0.0
H690 H 0.13351 0.59245 0.30057 0.0
H691 H 0.1276 0.56572 0.31223 0.0
H692 H 0.11726 0.57222 0.20485 0.0
H693 H 0.12546 0.59741 0.21943 0.0
H694 H 0.12992 0.61177 0.24633 0.0
H695 H 0.13389 0.60997 0.27567 0.0
Mn696 Mn 0.7555 0.63363 1.00191 0.0
Mn697 Mn 0.72304 0.64863 0.9837 0.0
C698 C 0.7311 0.61965 0.0027 0.0
C699 C 0.77888 0.61878 1.00215 0.0
C700 C 0.73438 0.65996 0.01639 0.0
O701 O 0.76559 0.65043 0.98729 0.0
O702 O 0.74291 0.66031 0.9774 0.0
C703 C 0.73173 0.63794 0.95099 0.0
N704 N 0.72096 0.6384 0.96311 0.0
C705 C 0.7012 0.62372 0.9472 0.0
C706 C 0.71205 0.62314 0.93452 0.0
C707 C 0.72741 0.63022 0.93646 0.0
C708 C 0.70625 0.63144 0.96145 0.0
H709 H 0.74353 0.64342 0.95238 0.0
C710 C 0.75815 0.66037 0.97876 0.0
O711 O 0.77653 0.63024 0.01249 0.0
O712 O 0.76778 0.61614 0.99138 0.0
N713 N 0.70263 0.63895 0.98811 0.0
C714 C 0.69365 0.64044 1.00155 0.0
C715 C 0.67784 0.63434 1.00146 0.0
C716 C 0.67138 0.62697 0.98752 0.0
C717 C 0.68084 0.62549 0.97388 0.0
C718 C 0.69643 0.63201 0.97459 0.0
H719 H 0.69847 0.64642 0.01217 0.0
O720 O 0.74224 0.61724 0.01321 0.0
O721 O 0.73463 0.62996 0.99158 0.0
O722 O 0.74685 0.65144 0.01659 0.0
O723 O 0.72424 0.65953 0.00485 0.0
C724 C 0.67538 0.6179 0.95958 0.0
C725 C 0.6856 0.61689 0.94628 0.0
H726 H 0.70874 0.61726 0.92327 0.0
H727 H 0.73588 0.62977 0.92675 0.0
H728 H 0.67058 0.63559 0.01203 0.0
H729 H 0.65906 0.62271 0.98724 0.0
H730 H 0.66338 0.61269 0.95872 0.0
H731 H 0.68133 0.61089 0.9354 0.0
Mn732 Mn 0.88043 0.00487 0.25531 0.0
Mn733 Mn 0.89927 0.96958 0.25544 0.0
C734 C 0.86806 0.98179 0.24434 0.0
C735 C 0.86408 0.02431 0.26656 0.0
C736 C 0.90758 0.99619 0.23252 0.0
O737 O 0.8978 0.00874 0.27248 0.0
O738 O 0.90891 0.98435 0.27195 0.0
C739 C 0.88975 0.9581 0.28739 0.0
N740 N 0.89019 0.95588 0.27122 0.0
C741 C 0.87914 0.92904 0.27316 0.0
C742 C 0.87858 0.93099 0.28984 0.0
C743 C 0.88376 0.94565 0.29697 0.0
C744 C 0.88482 0.942 0.26421 0.0
H745 H 0.89405 0.96923 0.29294 0.0
C746 C 0.9079 0.9987 0.27754 0.0
O747 O 0.87469 0.02782 0.25588 0.0
O748 O 0.86318 0.00946 0.2711 0.0
N749 N 0.89107 0.95412 0.24011 0.0
C750 C 0.892 0.95434 0.22384 0.0
C751 C 0.8867 0.94081 0.21484 0.0
C752 C 0.88089 0.92707 0.22266 0.0
C753 C 0.88027 0.92709 0.23942 0.0
C754 C 0.88533 0.94106 0.24774 0.0
H755 H 0.89677 0.96475 0.21778 0.0
O756 O 0.86382 0.99593 0.23989 0.0
O757 O 0.8794 0.98157 0.25504 0.0
O758 O 0.89709 0.00583 0.23748 0.0
O759 O 0.9095 0.98243 0.23857 0.0
C760 C 0.87517 0.91367 0.24822 0.0
C761 C 0.87459 0.91465 0.26507 0.0
H762 H 0.87421 0.92132 0.29727 0.0
H763 H 0.88334 0.94725 0.30983 0.0
H764 H 0.88729 0.94088 0.20191 0.0
H765 H 0.87702 0.91656 0.2157 0.0
H766 H 0.87192 0.90249 0.2421 0.0
H767 H 0.87087 0.90422 0.27176 0.0
Mn768 Mn 0.25374 0.13384 0.50104 0.0
Mn769 Mn 0.22142 0.14861 0.48246 0.0
C770 C 0.22893 0.12047 0.50295 0.0
C771 C 0.27676 0.11842 0.50095 0.0
C772 C 0.2355 0.1627 0.51345 0.0
O773 O 0.26355 0.15006 0.4854 0.0
O774 O 0.24119 0.15649 0.47198 0.0
C775 C 0.22411 0.13178 0.45114 0.0
N776 N 0.21537 0.13558 0.46426 0.0
C777 C 0.19217 0.12121 0.45364 0.0
C778 C 0.20085 0.11729 0.4399 0.0
C779 C 0.21692 0.12253 0.43869 0.0
C780 C 0.19999 0.13043 0.46565 0.0
H781 H 0.23647 0.13573 0.45022 0.0
C782 C 0.25638 0.15717 0.47407 0.0
O783 O 0.27502 0.13025 0.51103 0.0
O784 O 0.26525 0.11574 0.49062 0.0
N785 N 0.20135 0.14199 0.49118 0.0
C786 C 0.19505 0.1459 0.50567 0.0
C787 C 0.17912 0.14148 0.50889 0.0
C788 C 0.16987 0.13322 0.49716 0.0
C789 C 0.17667 0.12903 0.48248 0.0
C790 C 0.19252 0.13398 0.47985 0.0
H791 H 0.20205 0.1525 0.51462 0.0
O792 O 0.24027 0.11801 0.51324 0.0
O793 O 0.23256 0.13037 0.49157 0.0
O794 O 0.24612 0.1522 0.51537 0.0
O795 O 0.22626 0.16284 0.50121 0.0
C796 C 0.16837 0.12014 0.47038 0.0
C797 C 0.17616 0.11612 0.45601 0.0
H798 H 0.19536 0.11014 0.43028 0.0
H799 H 0.22374 0.11945 0.42818 0.0
H800 H 0.1739 0.14464 0.52028 0.0
H801 H 0.15752 0.13035 0.49947 0.0
H802 H 0.15608 0.11614 0.47209 0.0
H803 H 0.16977 0.10902 0.44691 0.0
Mn804 Mn 0.37822 0.50564 0.75732 0.0
Mn805 Mn 0.39727 0.47048 0.75678 0.0
C806 C 0.36634 0.48289 0.74521 0.0
C807 C 0.36136 0.52451 0.76873 0.0
C808 C 0.40607 0.4979 0.735 0.0
O809 O 0.39499 0.50901 0.77514 0.0
O810 O 0.40646 0.48483 0.77389 0.0
C811 C 0.38714 0.45803 0.78816 0.0
N812 N 0.38794 0.45627 0.77197 0.0
C813 C 0.37711 0.42927 0.77295 0.0
C814 C 0.37619 0.43075 0.78965 0.0
C815 C 0.38108 0.44525 0.79727 0.0
C816 C 0.38286 0.44253 0.76448 0.0
H817 H 0.39121 0.46904 0.79409 0.0
C818 C 0.40513 0.49893 0.78003 0.0
O819 O 0.37232 0.52855 0.75858 0.0
O820 O 0.36039 0.50948 0.77263 0.0
N821 N 0.3895 0.4554 0.74087 0.0
C822 C 0.39071 0.45612 0.72465 0.0
C823 C 0.38569 0.4428 0.71517 0.0
C824 C 0.37991 0.42877 0.7225 0.0
C825 C 0.37898 0.42829 0.73923 0.0
C826 C 0.38373 0.44206 0.74802 0.0
H827 H 0.39546 0.46676 0.71898 0.0
O828 O 0.3622 0.49716 0.74106 0.0
O829 O 0.37734 0.48236 0.75623 0.0
O830 O 0.39552 0.50739 0.74012 0.0
O831 O 0.40778 0.48387 0.7405 0.0
C832 C 0.37386 0.41457 0.74754 0.0
C833 C 0.37287 0.41507 0.76439 0.0
H834 H 0.37176 0.42083 0.79672 0.0
H835 H 0.38041 0.4465 0.81016 0.0
H836 H 0.38649 0.44326 0.70228 0.0
H837 H 0.37627 0.41842 0.71518 0.0
H838 H 0.37093 0.40352 0.74105 0.0
H839 H 0.36909 0.40441 0.7707 0.0
Mn840 Mn 0.74856 0.37578 0.5046 0.0
Mn841 Mn 0.74904 0.39336 0.4685 0.0
C842 C 0.73607 0.36297 0.48276 0.0
C843 C 0.75982 0.35969 0.52412 0.0
C844 C 0.72744 0.40373 0.49546 0.0
O845 O 0.76662 0.3928 0.50706 0.0
O846 O 0.7667 0.40253 0.48207 0.0
C847 C 0.77966 0.38111 0.45643 0.0
N848 N 0.76358 0.38276 0.45466 0.0
C849 C 0.76359 0.36907 0.42908 0.0
C850 C 0.78016 0.36729 0.43058 0.0
C851 C 0.78822 0.37329 0.44434 0.0
C852 C 0.75571 0.37697 0.44151 0.0
H853 H 0.78589 0.38573 0.46698 0.0
C854 C 0.77235 0.40204 0.49634 0.0
O855 O 0.74973 0.37071 0.52771 0.0
O856 O 0.7637 0.35824 0.50916 0.0
N857 N 0.73266 0.38553 0.4541 0.0
C858 C 0.71655 0.38735 0.45502 0.0
C859 C 0.70669 0.38177 0.44233 0.0
C860 C 0.71352 0.37451 0.42885 0.0
C861 C 0.7301 0.37261 0.42825 0.0
C862 C 0.73934 0.37853 0.44118 0.0
H863 H 0.71128 0.39307 0.46531 0.0
O864 O 0.73203 0.35938 0.49725 0.0
O865 O 0.7474 0.3739 0.48147 0.0
O866 O 0.7316 0.39308 0.5053 0.0
O867 O 0.7335 0.40515 0.48159 0.0
C868 C 0.73782 0.365 0.41538 0.0
C869 C 0.75454 0.36314 0.41584 0.0
H870 H 0.7868 0.36125 0.4213 0.0
H871 H 0.801 0.37191 0.44562 0.0
H872 H 0.69388 0.38319 0.44287 0.0
H873 H 0.70593 0.37055 0.41901 0.0
H874 H 0.73101 0.3604 0.40514 0.0
H875 H 0.7603 0.35704 0.406 0.0
Mn876 Mn 0.63291 0.00555 0.75314 0.0
Mn877 Mn 0.61717 0.04251 0.75291 0.0
C878 C 0.6462 0.02638 0.7401 0.0
C879 C 0.64881 0.98602 0.76455 0.0
C880 C 0.60488 0.01502 0.73154 0.0
O881 O 0.61685 0.00448 0.77142 0.0
O882 O 0.6077 0.0296 0.77038 0.0
C883 C 0.63048 0.05489 0.78382 0.0
N884 N 0.62843 0.05648 0.76776 0.0
C885 C 0.64221 0.08224 0.7683 0.0
C886 C 0.64442 0.08092 0.78487 0.0
C887 C 0.63858 0.06715 0.79265 0.0
C888 C 0.63408 0.06962 0.76014 0.0
H889 H 0.62596 0.04435 0.78984 0.0
C890 C 0.60795 0.01564 0.77655 0.0
O891 O 0.63706 0.98218 0.75487 0.0
O892 O 0.65105 1.00118 0.768 0.0
N893 N 0.62511 0.05653 0.73679 0.0
C894 C 0.62273 0.05551 0.72065 0.0
C895 C 0.62775 0.06835 0.71109 0.0
C896 C 0.63512 0.08208 0.71821 0.0
C897 C 0.63773 0.08272 0.73479 0.0
C898 C 0.63218 0.06971 0.74374 0.0
H899 H 0.61683 0.04509 0.71516 0.0
O900 O 0.64866 0.01149 0.73627 0.0
O901 O 0.63592 0.02872 0.75149 0.0
O902 O 0.61467 0.00465 0.73644 0.0
O903 O 0.60478 0.0294 0.73703 0.0
C904 C 0.64561 0.09575 0.74278 0.0
C905 C 0.64796 0.09546 0.75951 0.0
H906 H 0.65067 0.09034 0.79171 0.0
H907 H 0.64029 0.06602 0.80542 0.0
H908 H 0.62574 0.06774 0.69828 0.0
H909 H 0.63865 0.09211 0.71085 0.0
H910 H 0.6501 0.10597 0.73615 0.0
H911 H 0.65426 0.10542 0.76549 0.0
Mn912 Mn 0.00507 0.25608 0.87337 0.0
Mn913 Mn 0.96737 0.25238 0.88737 0.0
C914 C 0.98526 0.2432 0.85803 0.0
C915 C 0.02519 0.26968 0.85934 0.0
C916 C 0.99456 0.23208 0.8989 0.0
O917 O 0.00476 0.27311 0.89129 0.0
O918 O 0.97899 0.27032 0.89888 0.0
C919 C 0.95472 0.28311 0.87615 0.0
N920 N 0.9538 0.26677 0.87643 0.0
C921 C 0.93037 0.26603 0.85947 0.0
C922 C 0.93101 0.28286 0.85907 0.0
C923 C 0.94325 0.29143 0.86743 0.0
C924 C 0.94205 0.2584 0.86846 0.0
H925 H 0.96415 0.28975 0.88249 0.0
C926 C 0.99289 0.27721 0.89987 0.0
O927 O 0.0285 0.25931 0.87021 0.0
O928 O 0.01019 0.27271 0.85713 0.0
N929 N 0.95483 0.23557 0.87702 0.0
C930 C 0.95653 0.21937 0.87777 0.0
C931 C 0.94555 0.20905 0.8696 0.0
C932 C 0.93292 0.21548 0.86081 0.0
C933 C 0.93135 0.23218 0.86031 0.0
C934 C 0.94257 0.24187 0.86881 0.0
H935 H 0.96624 0.21436 0.88447 0.0
O936 O 1.0002 0.24022 0.85559 0.0
O937 O 0.98238 0.25346 0.86946 0.0
O938 O 0.00516 0.23799 0.88968 0.0
O939 O 0.98017 0.2368 0.89923 0.0
C940 C 0.91931 0.23961 0.85142 0.0
C941 C 0.91882 0.25652 0.85099 0.0
H942 H 0.92226 0.28932 0.85227 0.0
H943 H 0.94387 0.30442 0.86712 0.0
H944 H 0.94686 0.19618 0.87002 0.0
H945 H 0.92457 0.20749 0.85439 0.0
H946 H 0.91052 0.23242 0.84465 0.0
H947 H 0.90966 0.26208 0.84391 0.0
Mn948 Mn 0.50439 0.75531 0.37481 0.0
Mn949 Mn 0.46618 0.75101 0.38727 0.0
C950 C 0.48531 0.74211 0.35877 0.0
C951 C 0.52491 0.76895 0.36137 0.0
C952 C 0.49298 0.73075 0.39958 0.0
O953 O 0.5033 0.77241 0.39252 0.0
O954 O 0.47759 0.76842 0.39984 0.0
C955 C 0.45448 0.78237 0.37665 0.0
N956 N 0.45324 0.76603 0.37641 0.0
C957 C 0.43028 0.76629 0.35884 0.0
C958 C 0.43127 0.78313 0.35898 0.0
C959 C 0.44344 0.7912 0.36791 0.0
C960 C 0.44158 0.75814 0.36786 0.0
H961 H 0.46384 0.78863 0.38345 0.0
C962 C 0.49124 0.77578 0.40114 0.0
O963 O 0.52791 0.75868 0.37243 0.0
O964 O 0.50997 0.77187 0.35863 0.0
N965 N 0.45367 0.73478 0.37601 0.0
C966 C 0.45497 0.71851 0.37635 0.0
C967 C 0.4439 0.70866 0.36774 0.0
C968 C 0.43159 0.71562 0.35893 0.0
C969 C 0.43047 0.73238 0.35879 0.0
C970 C 0.44173 0.74158 0.36774 0.0
H971 H 0.46445 0.7131 0.38303 0.0
O972 O 0.50037 0.73924 0.35703 0.0
O973 O 0.48184 0.75243 0.36997 0.0
O974 O 0.50404 0.73748 0.39145 0.0
O975 O 0.47837 0.73476 0.39884 0.0
C976 C 0.41881 0.74033 0.34986 0.0
C977 C 0.41874 0.75727 0.34986 0.0
H978 H 0.42283 0.78998 0.35218 0.0
H979 H 0.44432 0.80419 0.36801 0.0
H980 H 0.4449 0.69574 0.36785 0.0
H981 H 0.42315 0.70798 0.35222 0.0
H982 H 0.41001 0.73352 0.34274 0.0
H983 H 0.40987 0.76324 0.34275 0.0
Mn984 Mn 0.00632 0.7538 0.62859 0.0
Mn985 Mn 0.98725 0.72324 0.64746 0.0
C986 C 0.00587 0.72822 0.61707 0.0
C987 C 0.00659 0.77593 0.61174 0.0
C988 C 0.02008 0.7364 0.65743 0.0
O989 O 0.99239 0.76541 0.64475 0.0
O990 O 0.97941 0.74414 0.65547 0.0
C991 C 0.95435 0.72743 0.63509 0.0
N992 N 0.96723 0.718 0.63721 0.0
C993 C 0.95296 0.69494 0.62594 0.0
C994 C 0.93954 0.7044 0.62363 0.0
C995 C 0.94026 0.72073 0.6282 0.0
C996 C 0.96667 0.7023 0.63285 0.0
H997 H 0.95481 0.73995 0.63871 0.0
C998 C 0.9821 0.75924 0.65416 0.0
O999 O 0.01727 0.77434 0.62289 0.0
O1000 O 0.99552 0.7647 0.61045 0.0
N1001 N 0.99335 0.70218 0.64104 0.0
C1002 C 0.00748 0.69487 0.64367 0.0
C1003 C 0.00871 0.67846 0.64001 0.0
C1004 C 0.99539 0.66973 0.63374 0.0
C1005 C 0.98106 0.67756 0.63089 0.0
C1006 C 0.98046 0.69388 0.63503 0.0
H1007 H 0.01766 0.70146 0.64876 0.0
O1008 O 0.01665 0.73894 0.6132 0.0
O1009 O 0.99531 0.73283 0.62748 0.0
O1010 O 0.0214 0.74676 0.64644 0.0
O1011 O 0.0077 0.7273 0.65905 0.0
C1012 C 0.96733 0.66982 0.62415 0.0
C1013 C 0.95332 0.67853 0.62159 0.0
H1014 H 0.92865 0.69927 0.61833 0.0
H1015 H 0.92995 0.7281 0.62649 0.0
H1016 H 0.01983 0.67251 0.64226 0.0
H1017 H 0.99625 0.65698 0.6313 0.0
H1018 H 0.96745 0.65721 0.62077 0.0
H1019 H 0.94289 0.67249 0.61624 0.0
Mn1020 Mn 0.50639 0.25661 0.13223 0.0
Mn1021 Mn 0.48809 0.22588 0.15155 0.0
C1022 C 0.50592 0.23102 0.12074 0.0
C1023 C 0.50631 0.27868 0.11528 0.0
C1024 C 0.52112 0.23899 0.16055 0.0
O1025 O 0.49259 0.26817 0.14852 0.0
O1026 O 0.48083 0.24677 0.16021 0.0
C1027 C 0.45489 0.23065 0.14033 0.0
N1028 N 0.46765 0.22099 0.14202 0.0
C1029 C 0.45273 0.19821 0.13103 0.0
C1030 C 0.4394 0.20791 0.12918 0.0
C1031 C 0.44051 0.22421 0.1338 0.0
C1032 C 0.46674 0.20532 0.13755 0.0
H1033 H 0.45566 0.24316 0.14398 0.0
C1034 C 0.48306 0.2619 0.15862 0.0
O1035 O 0.51714 0.27719 0.12631 0.0
O1036 O 0.49527 0.2674 0.11419 0.0
N1037 N 0.49368 0.20479 0.14473 0.0
C1038 C 0.50777 0.19726 0.14689 0.0
C1039 C 0.50864 0.18083 0.14314 0.0
C1040 C 0.49502 0.17233 0.13722 0.0
C1041 C 0.48071 0.18039 0.13491 0.0
C1042 C 0.48048 0.19669 0.13917 0.0
H1043 H 0.51819 0.20367 0.15171 0.0
O1044 O 0.51658 0.2418 0.11671 0.0
O1045 O 0.4955 0.23556 0.13134 0.0
O1046 O 0.52187 0.24971 0.14987 0.0
O1047 O 0.50898 0.2296 0.16228 0.0
C1048 C 0.46666 0.17288 0.1286 0.0
C1049 C 0.45271 0.18182 0.12656 0.0
H1050 H 0.42829 0.20298 0.12417 0.0
H1051 H 0.43029 0.23177 0.13239 0.0
H1052 H 0.51972 0.17472 0.14506 0.0
H1053 H 0.49564 0.15958 0.13465 0.0
H1054 H 0.4665 0.16028 0.12514 0.0
H1055 H 0.44203 0.17596 0.12152 0.0
H1056 H 0.19082 0.74709 0.88662 0.0
H1057 H 0.19427 0.76647 0.90901 0.0
H1058 H 0.23978 0.78216 0.89008 0.0
H1059 H 0.23619 0.76315 0.86747 0.0
H1060 H 0.23803 0.77349 0.92525 0.0
H1061 H 0.214 0.80591 0.88421 0.0
H1062 H 0.19316 0.81205 0.86436 0.0
H1063 H 0.15768 0.81156 0.90119 0.0
H1064 H 0.1783 0.80517 0.92123 0.0
H1065 H 0.25973 0.8437 0.96843 0.0
H1066 H 0.25366 0.82276 0.94838 0.0
H1067 H 0.20368 0.82371 0.96091 0.0
H1068 H 0.20979 0.84539 0.98059 0.0
H1069 H 0.20584 0.82247 0.93009 0.0
H1070 H 0.22887 0.79214 0.97164 0.0
H1071 H 0.24873 0.78532 0.99223 0.0
H1072 H 0.28454 0.78036 0.95611 0.0
H1073 H 0.26494 0.78737 0.93531 0.0
C1074 C 0.20154 0.7547 0.88728 0.0
C1075 C 0.21324 0.75369 0.87536 0.0
C1076 C 0.20347 0.76575 0.9 0.0
C1077 C 0.21727 0.77571 0.90113 0.0
C1078 C 0.22906 0.77456 0.88937 0.0
C1079 C 0.22698 0.76377 0.87648 0.0
C1080 C 0.21948 0.7873 0.91463 0.0
C1081 C 0.23111 0.78429 0.92629 0.0
C1082 C 0.21003 0.80103 0.91621 0.0
C1083 C 0.19765 0.80484 0.90417 0.0
C1084 C 0.20173 0.80692 0.88804 0.0
C1085 C 0.18996 0.81049 0.87676 0.0
C1086 C 0.17409 0.81213 0.8815 0.0
C1087 C 0.16997 0.81025 0.89754 0.0
C1088 C 0.18169 0.80666 0.90886 0.0
C1089 C 0.24743 0.83952 0.96676 0.0
C1090 C 0.23512 0.84647 0.97555 0.0
C1091 C 0.24399 0.82736 0.9555 0.0
C1092 C 0.22821 0.82148 0.95319 0.0
C1093 C 0.21593 0.82808 0.96241 0.0
C1094 C 0.2194 0.84039 0.97364 0.0
C1095 C 0.22461 0.80886 0.94076 0.0
C1096 C 0.2127 0.81163 0.92925 0.0
C1097 C 0.23364 0.79475 0.93947 0.0
C1098 C 0.24545 0.79038 0.95193 0.0
C1099 C 0.241 0.78969 0.96809 0.0
C1100 C 0.25221 0.78578 0.9798 0.0
C1101 C 0.26789 0.78244 0.97549 0.0
C1102 C 0.27239 0.78296 0.95944 0.0
C1103 C 0.26123 0.78687 0.94768 0.0
H1104 H 0.27656 0.77942 0.98457 0.0
H1105 H 0.165 0.81491 0.87275 0.0
H1106 H 0.03808 0.49617 0.41767 0.0
H1107 H 0.05375 0.48996 0.39381 0.0
H1108 H 0.02527 0.52214 0.36632 0.0
H1109 H 0.00936 0.52808 0.38994 0.0
H1110 H 0.03024 0.49452 0.34983 0.0
H1111 H 0.0623 0.53354 0.38073 0.0
H1112 H 0.07694 0.54364 0.40477 0.0
H1113 H 0.10713 0.50279 0.40295 0.0
H1114 H 0.09253 0.49234 0.37901 0.0
H1115 H 0.07559 0.5236 0.28642 0.0
H1116 H 0.06036 0.5182 0.31047 0.0
H1117 H 0.09587 0.48502 0.3258 0.0
H1118 H 0.1114 0.49048 0.3015 0.0
H1119 H 0.08861 0.50701 0.34937 0.0
H1120 H 0.05925 0.47064 0.31536 0.0
H1121 H 0.04484 0.46125 0.29095 0.0
H1122 H 0.00966 0.49717 0.29825 0.0
H1123 H 0.02398 0.50695 0.32259 0.0
C1124 C 0.03506 0.50179 0.4065 0.0
C1125 C 0.02253 0.51271 0.40575 0.0
C1126 C 0.0441 0.49831 0.3929 0.0
C1127 C 0.04078 0.50568 0.37829 0.0
C1128 C 0.02808 0.51631 0.37745 0.0
C1129 C 0.01909 0.51983 0.39102 0.0
C1130 C 0.05067 0.50271 0.36388 0.0
C1131 C 0.043 0.49729 0.34971 0.0
C1132 C 0.06742 0.50577 0.36384 0.0
C1133 C 0.0762 0.51205 0.37822 0.0
C1134 C 0.07197 0.52664 0.38554 0.0
C1135 C 0.08028 0.53244 0.39913 0.0
C1136 C 0.09292 0.52384 0.40542 0.0
C1137 C 0.09731 0.50943 0.3981 0.0
C1138 C 0.08903 0.50356 0.38452 0.0
C1139 C 0.0801 0.51496 0.29476 0.0
C1140 C 0.09474 0.5075 0.29206 0.0
C1141 C 0.0713 0.51181 0.30849 0.0
C1142 C 0.07688 0.50111 0.31991 0.0
C1143 C 0.0913 0.49327 0.3171 0.0
C1144 C 0.1001 0.49632 0.30319 0.0
C1145 C 0.06809 0.49929 0.33519 0.0
C1146 C 0.07594 0.50385 0.34954 0.0
C1147 C 0.05148 0.49545 0.33539 0.0
C1148 C 0.04275 0.48958 0.32078 0.0
C1149 C 0.0485 0.47662 0.31171 0.0
C1150 C 0.04033 0.47121 0.29789 0.0
C1151 C 0.02635 0.47862 0.29304 0.0
C1152 C 0.02049 0.49144 0.30203 0.0
C1153 C 0.02861 0.4969 0.31585 0.0
H1154 H 0.02005 0.47442 0.28234 0.0
H1155 H 0.09934 0.52835 0.41594 0.0
H1156 H 0.77945 0.7694 0.88001 0.0
H1157 H 0.77664 0.75091 0.90224 0.0
H1158 H 0.8169 0.72452 0.8851 0.0
H1159 H 0.81958 0.74284 0.86257 0.0
H1160 H 0.79216 0.70448 0.89355 0.0
H1161 H 0.82146 0.74861 0.91754 0.0
H1162 H 0.82765 0.77701 0.92449 0.0
H1163 H 0.78324 0.78002 0.94962 0.0
H1164 H 0.77666 0.75169 0.94263 0.0
H1165 H 0.78753 0.65758 0.96456 0.0
H1166 H 0.79978 0.67617 0.9453 0.0
H1167 H 0.76095 0.70854 0.95216 0.0
H1168 H 0.74873 0.69015 0.97116 0.0
H1169 H 0.79011 0.72472 0.94966 0.0
H1170 H 0.75917 0.68246 0.92203 0.0
H1171 H 0.75232 0.65419 0.91511 0.0
H1172 H 0.79965 0.64788 0.8969 0.0
H1173 H 0.80684 0.6761 0.90394 0.0
C1174 C 0.78765 0.75961 0.88089 0.0
C1175 C 0.79974 0.75761 0.8695 0.0
C1176 C 0.78613 0.74913 0.89371 0.0
C1177 C 0.79669 0.73644 0.89547 0.0
C1178 C 0.80868 0.73428 0.88403 0.0
C1179 C 0.81025 0.74482 0.87123 0.0
C1180 C 0.79491 0.7253 0.9091 0.0
C1181 C 0.79208 0.70886 0.90585 0.0
C1182 C 0.7946 0.73101 0.92515 0.0
C1183 C 0.79852 0.74805 0.92946 0.0
C1184 C 0.81296 0.75536 0.92445 0.0
C1185 C 0.81654 0.77144 0.92841 0.0
C1186 C 0.80583 0.78032 0.93747 0.0
C1187 C 0.79152 0.77313 0.94261 0.0
C1188 C 0.78787 0.75705 0.93866 0.0
C1189 C 0.78184 0.66884 0.96219 0.0
C1190 C 0.76713 0.67238 0.96926 0.0
C1191 C 0.78878 0.67939 0.95114 0.0
C1192 C 0.78119 0.69368 0.94719 0.0
C1193 C 0.76703 0.69762 0.95501 0.0
C1194 C 0.76002 0.68704 0.96582 0.0
C1195 C 0.78704 0.70402 0.93405 0.0
C1196 C 0.79058 0.72031 0.93739 0.0
C1197 C 0.78795 0.6982 0.91809 0.0
C1198 C 0.7836 0.68131 0.91369 0.0
C1199 C 0.76815 0.67501 0.91666 0.0
C1200 C 0.7642 0.659 0.91271 0.0
C1201 C 0.77556 0.64922 0.90562 0.0
C1202 C 0.79088 0.65546 0.90242 0.0
C1203 C 0.79489 0.67146 0.90639 0.0
H1204 H 0.77248 0.63683 0.90257 0.0
H1205 H 0.80863 0.79277 0.94053 0.0
H1206 H 0.0073 0.97745 0.38654 0.0
H1207 H 0.99106 0.98483 0.36358 0.0
H1208 H 0.95902 0.00976 0.39494 0.0
H1209 H 0.97527 1.00233 0.41808 0.0
H1210 H 0.94246 0.99241 0.37325 0.0
H1211 H 0.98557 0.0307 0.37128 0.0
H1212 H 0.01369 0.04047 0.37151 0.0
H1213 H 0.02248 0.01298 0.32872 0.0
H1214 H 0.99448 0.00285 0.32836 0.0
H1215 H 0.90206 0.01893 0.30302 0.0
H1216 H 0.9181 0.02198 0.32775 0.0
H1217 H 0.95361 0.99111 0.30768 0.0
H1218 H 0.93771 0.98796 0.28318 0.0
H1219 H 0.96717 0.01674 0.32531 0.0
H1220 H 0.92526 0.97544 0.33037 0.0
H1221 H 0.89714 0.96568 0.33008 0.0
H1222 H 0.88615 0.99972 0.36727 0.0
H1223 H 0.9142 0.00984 0.36762 0.0
C1224 C 0.9969 0.98465 0.38857 0.0
C1225 C 0.99267 0.98939 0.40416 0.0
C1226 C 0.98761 0.98889 0.37541 0.0
C1227 C 0.97395 0.99813 0.37747 0.0
C1228 C 0.96954 0.0027 0.39303 0.0
C1229 C 0.97881 0.99839 0.40625 0.0
C1230 C 0.96413 0.00254 0.36334 0.0
C1231 C 0.94781 0.99807 0.36292 0.0
C1232 C 0.97108 0.00981 0.34976 0.0
C1233 C 0.98793 0.01593 0.34986 0.0
C1234 C 0.99353 0.02665 0.36198 0.0
C1235 C 0.00944 0.03227 0.36212 0.0
C1236 C 0.01987 0.02733 0.35015 0.0
C1237 C 0.01439 0.01679 0.33799 0.0
C1238 C 0.99849 0.01112 0.3378 0.0
C1239 C 0.91347 0.01314 0.30377 0.0
C1240 C 0.91859 0.00313 0.29122 0.0
C1241 C 0.92257 0.01481 0.31792 0.0
C1242 C 0.93698 0.00663 0.31961 0.0
C1243 C 0.94255 0.99752 0.30666 0.0
C1244 C 0.93341 0.99569 0.29268 0.0
C1245 C 0.94568 0.00626 0.33516 0.0
C1246 C 0.96179 0.01143 0.33581 0.0
C1247 C 0.93855 0.99971 0.34897 0.0
C1248 C 0.92175 0.99352 0.34888 0.0
C1249 C 0.91681 0.98092 0.3384 0.0
C1250 C 0.9009 0.97531 0.33823 0.0
C1251 C 0.88985 0.98211 0.34861 0.0
C1252 C 0.89471 0.99449 0.35921 0.0
C1253 C 0.91061 1.00016 0.3594 0.0
H1254 H 0.87753 0.97775 0.34846 0.0
H1255 H 0.03219 0.03169 0.35028 0.0
H1256 H 0.18957 0.26999 0.61578 0.0
H1257 H 0.19491 0.25184 0.59327 0.0
H1258 H 0.23072 0.22861 0.62142 0.0
H1259 H 0.22535 0.24661 0.64403 0.0
H1260 H 0.24152 0.23494 0.59182 0.0
H1261 H 0.19424 0.21059 0.61429 0.0
H1262 H 0.16649 0.20982 0.62407 0.0
H1263 H 0.14939 0.22302 0.57766 0.0
H1264 H 0.17707 0.22409 0.56766 0.0
H1265 H 0.2512 0.16562 0.5424 0.0
H1266 H 0.24604 0.18449 0.56429 0.0
H1267 H 0.20937 0.20619 0.53595 0.0
H1268 H 0.21422 0.18719 0.51408 0.0
H1269 H 0.19897 0.20103 0.56537 0.0
H1270 H 0.24608 0.22509 0.5427 0.0
H1271 H 0.27378 0.22597 0.53281 0.0
H1272 H 0.2912 0.21356 0.57933 0.0
H1273 H 0.26357 0.21239 0.58946 0.0
C1274 C 0.19843 0.26088 0.61727 0.0
C1275 C 0.20701 0.25976 0.63175 0.0
C1276 C 0.2015 0.25054 0.60436 0.0
C1277 C 0.21315 0.23878 0.60567 0.0
C1278 C 0.22172 0.23762 0.6201 0.0
C1279 C 0.21866 0.24795 0.63301 0.0
C1280 C 0.21656 0.22783 0.59195 0.0
C1281 C 0.23226 0.22737 0.58617 0.0
C1282 C 0.2044 0.21825 0.5843 0.0
C1283 C 0.18775 0.21758 0.59027 0.0
C1284 C 0.18458 0.21346 0.6062 0.0
C1285 C 0.16886 0.21294 0.61178 0.0
C1286 C 0.15619 0.21641 0.6015 0.0
C1287 C 0.15922 0.22036 0.58561 0.0
C1288 C 0.17492 0.22091 0.57998 0.0
C1289 C 0.24212 0.17448 0.54073 0.0
C1290 C 0.23316 0.17486 0.5264 0.0
C1291 C 0.23922 0.18531 0.55327 0.0
C1292 C 0.2274 0.19687 0.55174 0.0
C1293 C 0.21854 0.19738 0.53743 0.0
C1294 C 0.22139 0.18653 0.52489 0.0
C1295 C 0.22395 0.20811 0.56523 0.0
C1296 C 0.20824 0.20862 0.57099 0.0
C1297 C 0.2361 0.21776 0.57284 0.0
C1298 C 0.25273 0.2185 0.5668 0.0
C1299 C 0.2558 0.22243 0.55079 0.0
C1300 C 0.27149 0.223 0.54515 0.0
C1301 C 0.28424 0.21978 0.55543 0.0
C1302 C 0.28132 0.21603 0.57138 0.0
C1303 C 0.26564 0.21543 0.57708 0.0
H1304 H 0.29638 0.22023 0.55103 0.0
H1305 H 0.14403 0.216 0.60584 0.0
H1306 H 0.50699 0.55325 0.63052 0.0
H1307 H 0.48987 0.54766 0.65347 0.0
H1308 H 0.46375 0.51136 0.62567 0.0
H1309 H 0.48043 0.51726 0.60254 0.0
H1310 H 0.44364 0.52864 0.64285 0.0
H1311 H 0.49254 0.5013 0.65282 0.0
H1312 H 0.52172 0.49905 0.65617 0.0
H1313 H 0.52136 0.53283 0.69555 0.0
H1314 H 0.49219 0.53544 0.6923 0.0
H1315 H 0.42987 0.48105 0.72066 0.0
H1316 H 0.4466 0.48915 0.69829 0.0
H1317 H 0.4233 0.53466 0.69686 0.0
H1318 H 0.40632 0.52661 0.71919 0.0
H1319 H 0.46811 0.51304 0.6944 0.0
H1320 H 0.42078 0.54599 0.65754 0.0
H1321 H 0.3915 0.54566 0.65343 0.0
H1322 H 0.38858 0.49603 0.66648 0.0
H1323 H 0.41785 0.49601 0.67045 0.0
C1324 C 0.49748 0.54421 0.62922 0.0
C1325 C 0.49516 0.53564 0.61469 0.0
C1326 C 0.48778 0.54093 0.6424 0.0
C1327 C 0.47563 0.52895 0.64137 0.0
C1328 C 0.47307 0.52062 0.62679 0.0
C1329 C 0.48274 0.5239 0.61361 0.0
C1330 C 0.46574 0.52485 0.65551 0.0
C1331 C 0.449 0.52531 0.65414 0.0
C1332 C 0.47269 0.52027 0.6702 0.0
C1333 C 0.49021 0.51869 0.67221 0.0
C1334 C 0.4987 0.50834 0.66211 0.0
C1335 C 0.51524 0.50699 0.66401 0.0
C1336 C 0.5234 0.51583 0.67604 0.0
C1337 C 0.51503 0.52601 0.68622 0.0
C1338 C 0.49849 0.52742 0.68437 0.0
C1339 C 0.42829 0.49282 0.71567 0.0
C1340 C 0.41665 0.50314 0.72175 0.0
C1341 C 0.43793 0.49745 0.70288 0.0
C1342 C 0.43614 0.51245 0.6958 0.0
C1343 C 0.42476 0.52293 0.702 0.0
C1344 C 0.41509 0.51832 0.71481 0.0
C1345 C 0.44602 0.51693 0.68177 0.0
C1346 C 0.46275 0.51654 0.68316 0.0
C1347 C 0.43906 0.52126 0.66701 0.0
C1348 C 0.42148 0.52107 0.66447 0.0
C1349 C 0.41389 0.535 0.65948 0.0
C1350 C 0.3973 0.53487 0.65718 0.0
C1351 C 0.38818 0.52085 0.65975 0.0
C1352 C 0.39565 0.5069 0.66456 0.0
C1353 C 0.41223 0.50696 0.66686 0.0
H1354 H 0.37534 0.52078 0.65797 0.0
H1355 H 0.5362 0.51476 0.67749 0.0
H1356 H 0.78515 0.27461 0.64806 0.0
H1357 H 0.77968 0.29398 0.62722 0.0
H1358 H 0.80207 0.26343 0.59231 0.0
H1359 H 0.80799 0.24416 0.61322 0.0
H1360 H 0.81089 0.29497 0.58858 0.0
H1361 H 0.76192 0.26433 0.59416 0.0
H1362 H 0.73922 0.25218 0.6087 0.0
H1363 H 0.72495 0.29899 0.62432 0.0
H1364 H 0.74771 0.31141 0.61004 0.0
H1365 H 0.77862 0.33352 0.5199 0.0
H1366 H 0.78674 0.31441 0.54017 0.0
H1367 H 0.76287 0.34208 0.57644 0.0
H1368 H 0.75449 0.36102 0.55625 0.0
H1369 H 0.75506 0.31128 0.5789 0.0
H1370 H 0.80415 0.34199 0.5736 0.0
H1371 H 0.82691 0.35421 0.5592 0.0
H1372 H 0.841 0.3075 0.5431 0.0
H1373 H 0.81818 0.29501 0.55724 0.0
C1374 C 0.78908 0.27208 0.63599 0.0
C1375 C 0.79698 0.2578 0.63232 0.0
C1376 C 0.78582 0.2831 0.62406 0.0
C1377 C 0.7903 0.28008 0.60816 0.0
C1378 C 0.79845 0.26599 0.60448 0.0
C1379 C 0.8017 0.25492 0.61642 0.0
C1380 C 0.78627 0.29153 0.59538 0.0
C1381 C 0.79866 0.29838 0.5863 0.0
C1382 C 0.77035 0.29622 0.59261 0.0
C1383 C 0.75661 0.28879 0.60115 0.0
C1384 C 0.75401 0.27202 0.6008 0.0
C1385 C 0.74112 0.26509 0.60897 0.0
C1386 C 0.73067 0.2748 0.61746 0.0
C1387 C 0.73306 0.29148 0.61775 0.0
C1388 C 0.74595 0.29847 0.60961 0.0
C1389 C 0.77524 0.33561 0.53223 0.0
C1390 C 0.76589 0.34878 0.53646 0.0
C1391 C 0.77993 0.3247 0.54382 0.0
C1392 C 0.7755 0.32684 0.55988 0.0
C1393 C 0.7664 0.34014 0.56414 0.0
C1394 C 0.76167 0.351 0.55257 0.0
C1395 C 0.7797 0.3149 0.57217 0.0
C1396 C 0.76731 0.3079 0.58115 0.0
C1397 C 0.79562 0.3101 0.57483 0.0
C1398 C 0.80936 0.31758 0.56634 0.0
C1399 C 0.81202 0.33433 0.56688 0.0
C1400 C 0.82495 0.34131 0.55879 0.0
C1401 C 0.83537 0.33164 0.5502 0.0
C1402 C 0.83291 0.31497 0.54974 0.0
C1403 C 0.81999 0.30794 0.5578 0.0
H1404 H 0.84537 0.33706 0.54395 0.0
H1405 H 0.7207 0.26941 0.62379 0.0
H1406 H 0.50014 0.00775 0.6175 0.0
H1407 H 0.51752 0.01213 0.64096 0.0
H1408 H 0.54171 0.96831 0.62989 0.0
H1409 H 0.52417 0.9637 0.60654 0.0
H1410 H 0.53534 0.9714 0.66206 0.0
H1411 H 0.55907 0.00351 0.62093 0.0
H1412 H 0.55947 0.02379 0.59978 0.0
H1413 H 0.54602 0.06 0.63389 0.0
H1414 H 0.54532 0.03988 0.65521 0.0
H1415 H 0.60324 0.98715 0.71331 0.0
H1416 H 0.58524 0.98076 0.69071 0.0
H1417 H 0.56244 0.02617 0.69751 0.0
H1418 H 0.58052 0.0328 0.7198 0.0
H1419 H 0.56848 0.02161 0.66711 0.0
H1420 H 0.54432 0.98981 0.70822 0.0
H1421 H 0.54354 0.96969 0.72952 0.0
H1422 H 0.55729 0.93317 0.69589 0.0
H1423 H 0.55837 0.95313 0.67443 0.0
C1424 C 0.50905 0.99896 0.62013 0.0
C1425 C 0.51081 0.98541 0.61009 0.0
C1426 C 0.51906 1.00154 0.63349 0.0
C1427 C 0.53103 0.99063 0.6371 0.0
C1428 C 0.53259 0.97691 0.62731 0.0
C1429 C 0.52264 0.97437 0.6139 0.0
C1430 C 0.54208 0.99368 0.65093 0.0
C1431 C 0.54275 0.98228 0.66309 0.0
C1432 C 0.55152 0.00801 0.65242 0.0
C1433 C 0.55199 0.02015 0.63963 0.0
C1434 C 0.55607 0.01577 0.6239 0.0
C1435 C 0.55638 0.02724 0.61188 0.0
C1436 C 0.55273 0.04316 0.61548 0.0
C1437 C 0.54882 0.04766 0.63111 0.0
C1438 C 0.54848 0.03623 0.64317 0.0
C1439 C 0.59432 0.99573 0.71009 0.0
C1440 C 0.59338 0.0105 0.71843 0.0
C1441 C 0.58398 0.99203 0.69717 0.0
C1442 C 0.57237 0.00293 0.69244 0.0
C1443 C 0.5713 0.01757 0.70087 0.0
C1444 C 0.58166 0.02132 0.71369 0.0
C1445 C 0.56165 0.99941 0.67841 0.0
C1446 C 0.56108 0.01072 0.66615 0.0
C1447 C 0.55226 0.98503 0.67688 0.0
C1448 C 0.55159 0.973 0.68976 0.0
C1449 C 0.54731 0.97752 0.7054 0.0
C1450 C 0.54678 0.96614 0.7175 0.0
C1451 C 0.55041 0.95017 0.71408 0.0
C1452 C 0.55452 0.94554 0.69853 0.0
C1453 C 0.55507 0.95688 0.68639 0.0
H1454 H 0.54999 0.94138 0.72346 0.0
H1455 H 0.55298 0.05203 0.60616 0.0
H1456 H 0.88756 0.19125 0.74618 0.0
H1457 H 0.90867 0.19561 0.76631 0.0
H1458 H 0.88718 0.23963 0.7816 0.0
H1459 H 0.86542 0.23496 0.76231 0.0
H1460 H 0.92275 0.24021 0.77347 0.0
H1461 H 0.88197 0.21346 0.8052 0.0
H1462 H 0.8628 0.19136 0.81109 0.0
H1463 H 0.90106 0.15801 0.81146 0.0
H1464 H 0.92043 0.1799 0.80531 0.0
H1465 H 0.96549 0.26325 0.8431 0.0
H1466 H 0.94516 0.25654 0.82277 0.0
H1467 H 0.95887 0.20693 0.82333 0.0
H1468 H 0.9788 0.21365 0.84441 0.0
H1469 H 0.92794 0.20779 0.8224 0.0
H1470 H 0.96911 0.23319 0.79209 0.0
H1471 H 0.98916 0.25422 0.78534 0.0
H1472 H 0.95202 0.28844 0.78061 0.0
H1473 H 0.93175 0.26768 0.78754 0.0
C1474 C 0.88706 0.20172 0.75399 0.0
C1475 C 0.87465 0.21275 0.75249 0.0
C1476 C 0.89925 0.20424 0.76542 0.0
C1477 C 0.89945 0.21794 0.77538 0.0
C1478 C 0.88724 0.22902 0.77392 0.0
C1479 C 0.87487 0.22637 0.76275 0.0
C1480 C 0.91257 0.22091 0.78716 0.0
C1481 C 0.92385 0.23325 0.78426 0.0
C1482 C 0.91423 0.21142 0.8009 0.0
C1483 C 0.9026 0.19827 0.80458 0.0
C1484 C 0.88626 0.20139 0.80635 0.0
C1485 C 0.87537 0.1889 0.80978 0.0
C1486 C 0.8807 0.17328 0.81159 0.0
C1487 C 0.89694 0.17011 0.81002 0.0
C1488 C 0.90788 0.18255 0.80657 0.0
C1489 C 0.96398 0.25088 0.83901 0.0
C1490 C 0.97322 0.23884 0.84565 0.0
C1491 C 0.95255 0.24708 0.8272 0.0
C1492 C 0.95054 0.23124 0.82135 0.0
C1493 C 0.96013 0.21923 0.82769 0.0
C1494 C 0.97152 0.22304 0.83966 0.0
C1495 C 0.93819 0.22726 0.80885 0.0
C1496 C 0.92701 0.21472 0.81158 0.0
C1497 C 0.93679 0.23639 0.79477 0.0
C1498 C 0.94892 0.2489 0.79045 0.0
C1499 C 0.96522 0.24523 0.7897 0.0
C1500 C 0.97663 0.2571 0.78583 0.0
C1501 C 0.97187 0.27266 0.78258 0.0
C1502 C 0.95569 0.27638 0.78314 0.0
C1503 C 0.94423 0.26456 0.78702 0.0
H1504 H 0.98072 0.28184 0.77959 0.0
H1505 H 0.87225 0.16363 0.81426 0.0
H1506 H 0.45843 0.88728 0.50049 0.0
H1507 H 0.46411 0.86348 0.48427 0.0
H1508 H 0.50159 0.88991 0.46018 0.0
H1509 H 0.49562 0.91396 0.476 0.0
H1510 H 0.48397 0.87226 0.43917 0.0
H1511 H 0.51053 0.8626 0.48872 0.0
H1512 H 0.51321 0.86033 0.51798 0.0
H1513 H 0.47723 0.82251 0.51765 0.0
H1514 H 0.47416 0.82471 0.4884 0.0
H1515 H 0.51303 0.80115 0.40169 0.0
H1516 H 0.51282 0.82514 0.41915 0.0
H1517 H 0.47204 0.8054 0.44405 0.0
H1518 H 0.47212 0.78153 0.42675 0.0
H1519 H 0.49429 0.82013 0.46466 0.0
H1520 H 0.46632 0.83149 0.41554 0.0
H1521 H 0.46374 0.83355 0.38624 0.0
H1522 H 0.50276 0.86819 0.38592 0.0
H1523 H 0.50575 0.86612 0.41521 0.0
C1524 C 0.46778 0.88811 0.49164 0.0
C1525 C 0.47658 0.90256 0.48959 0.0
C1526 C 0.47114 0.87442 0.48249 0.0
C1527 C 0.48345 0.87481 0.47115 0.0
C1528 C 0.49211 0.88927 0.46891 0.0
C1529 C 0.48875 0.90299 0.47806 0.0
C1530 C 0.48709 0.86018 0.46153 0.0
C1531 C 0.48652 0.86094 0.44476 0.0
C1532 C 0.49019 0.84531 0.46878 0.0
C1533 C 0.49203 0.84392 0.48638 0.0
C1534 C 0.5031 0.85388 0.4949 0.0
C1535 C 0.5047 0.85259 0.51148 0.0
C1536 C 0.49537 0.8413 0.51968 0.0
C1537 C 0.48444 0.83126 0.51129 0.0
C1538 C 0.48278 0.83251 0.49471 0.0
C1539 C 0.50418 0.80182 0.41105 0.0
C1540 C 0.49252 0.78946 0.41275 0.0
C1541 C 0.50403 0.81556 0.42096 0.0
C1542 C 0.49231 0.81712 0.4328 0.0
C1543 C 0.48117 0.80447 0.43499 0.0
C1544 C 0.4812 0.79085 0.42502 0.0
C1545 C 0.49098 0.83221 0.44237 0.0
C1546 C 0.49195 0.83152 0.45911 0.0
C1547 C 0.48826 0.84713 0.43511 0.0
C1548 C 0.48638 0.84851 0.41753 0.0
C1549 C 0.47444 0.83944 0.4092 0.0
C1550 C 0.47289 0.84063 0.3926 0.0
C1551 C 0.48311 0.85096 0.38422 0.0
C1552 C 0.49487 0.86016 0.39243 0.0
C1553 C 0.4965 0.85899 0.40902 0.0
H1554 H 0.48189 0.85186 0.37137 0.0
H1555 H 0.49663 0.84032 0.53252 0.0
H1556 H 0.11361 0.31527 0.74152 0.0
H1557 H 0.09327 0.31024 0.76188 0.0
H1558 H 0.12852 0.28821 0.79171 0.0
H1559 H 0.14879 0.29283 0.77128 0.0
H1560 H 0.10108 0.2705 0.79035 0.0
H1561 H 0.11603 0.326 0.79998 0.0
H1562 H 0.1206 0.35433 0.79277 0.0
H1563 H 0.07114 0.35767 0.77928 0.0
H1564 H 0.06632 0.32927 0.78621 0.0
H1565 H 0.05747 0.26582 0.86166 0.0
H1566 H 0.07788 0.27394 0.84244 0.0
H1567 H 0.04192 0.29634 0.81375 0.0
H1568 H 0.02145 0.28849 0.83309 0.0
H1569 H 0.06941 0.31416 0.81431 0.0
H1570 H 0.05434 0.25895 0.80417 0.0
H1571 H 0.04944 0.23056 0.81099 0.0
H1572 H 0.09876 0.22656 0.82476 0.0
H1573 H 0.1039 0.25502 0.81824 0.0
C1574 C 0.117 0.30926 0.75237 0.0
C1575 C 0.13285 0.3045 0.75479 0.0
C1576 C 0.1054 0.30653 0.76407 0.0
C1577 C 0.10941 0.29901 0.77841 0.0
C1578 C 0.12517 0.2941 0.78078 0.0
C1579 C 0.13677 0.29686 0.76913 0.0
C1580 C 0.09714 0.29594 0.79086 0.0
C1581 C 0.09432 0.28009 0.79574 0.0
C1582 C 0.08799 0.30838 0.7976 0.0
C1583 C 0.09085 0.32546 0.79346 0.0
C1584 C 0.10616 0.33273 0.79535 0.0
C1585 C 0.10879 0.34881 0.79134 0.0
C1586 C 0.09618 0.35778 0.78553 0.0
C1587 C 0.0809 0.3507 0.78376 0.0
C1588 C 0.07821 0.33462 0.78774 0.0
C1589 C 0.05392 0.27267 0.85138 0.0
C1590 C 0.03781 0.27641 0.84885 0.0
C1591 C 0.0656 0.27724 0.84035 0.0
C1592 C 0.06139 0.28547 0.82647 0.0
C1593 C 0.04545 0.28993 0.82432 0.0
C1594 C 0.03375 0.28542 0.8354 0.0
C1595 C 0.07347 0.28874 0.81389 0.0
C1596 C 0.0762 0.3046 0.80893 0.0
C1597 C 0.08251 0.27629 0.807 0.0
C1598 C 0.07947 0.25916 0.81086 0.0
C1599 C 0.06412 0.25205 0.80877 0.0
C1600 C 0.0613 0.23594 0.81256 0.0
C1601 C 0.07377 0.22677 0.81834 0.0
C1602 C 0.0891 0.23369 0.8203 0.0
C1603 C 0.09198 0.2498 0.81655 0.0
H1604 H 0.07156 0.2143 0.82127 0.0
H1605 H 0.09824 0.37023 0.78243 0.0
H1606 H 0.50652 0.60319 0.48373 0.0
H1607 H 0.5002 0.62522 0.46598 0.0
H1608 H 0.54307 0.6511 0.48192 0.0
H1609 H 0.5489 0.62938 0.50031 0.0
H1610 H 0.52127 0.67128 0.47967 0.0
H1611 H 0.53896 0.63039 0.44391 0.0
H1612 H 0.53992 0.60341 0.43139 0.0
H1613 H 0.49106 0.60681 0.41586 0.0
H1614 H 0.48973 0.63373 0.42848 0.0
H1615 H 0.52241 0.72438 0.4123 0.0
H1616 H 0.52927 0.70246 0.43011 0.0
H1617 H 0.48027 0.68497 0.42862 0.0
H1618 H 0.47318 0.70704 0.41119 0.0
H1619 H 0.50586 0.66096 0.42289 0.0
H1620 H 0.48958 0.70288 0.45984 0.0
H1621 H 0.4908 0.73037 0.4713 0.0
H1622 H 0.54047 0.72523 0.4831 0.0
H1623 H 0.5396 0.69777 0.47147 0.0
C1624 C 0.51459 0.61359 0.48338 0.0
C1625 C 0.52822 0.61459 0.49332 0.0
C1626 C 0.51104 0.62615 0.47316 0.0
C1627 C 0.52132 0.63977 0.47229 0.0
C1628 C 0.53493 0.64077 0.48231 0.0
C1629 C 0.53829 0.62836 0.49279 0.0
C1630 C 0.51773 0.65308 0.46119 0.0
C1631 C 0.51814 0.66896 0.4672 0.0
C1632 C 0.51346 0.6502 0.4449 0.0
C1633 C 0.51421 0.63402 0.43727 0.0
C1634 C 0.52838 0.62534 0.43793 0.0
C1635 C 0.529 0.61006 0.4308 0.0
C1636 C 0.51555 0.60338 0.42287 0.0
C1637 C 0.50146 0.61199 0.42202 0.0
C1638 C 0.50078 0.62726 0.42915 0.0
C1639 C 0.51309 0.71587 0.41575 0.0
C1640 C 0.49724 0.71747 0.41031 0.0
C1641 C 0.51703 0.70339 0.42594 0.0
C1642 C 0.50527 0.69213 0.43064 0.0
C1643 C 0.48951 0.69354 0.42508 0.0
C1644 C 0.48548 0.70619 0.41517 0.0
C1645 C 0.50937 0.67892 0.44147 0.0
C1646 C 0.50906 0.66313 0.43536 0.0
C1647 C 0.51408 0.68189 0.45754 0.0
C1648 C 0.51457 0.69835 0.46462 0.0
C1649 C 0.5008 0.70767 0.46473 0.0
C1650 C 0.50142 0.72323 0.47129 0.0
C1651 C 0.51571 0.72956 0.47788 0.0
C1652 C 0.52941 0.72032 0.47797 0.0
C1653 C 0.52886 0.70476 0.47141 0.0
H1654 H 0.51616 0.74161 0.48296 0.0
H1655 H 0.51605 0.59156 0.41736 0.0
H1656 H 0.89224 0.81129 0.76537 0.0
H1657 H 0.91341 0.80568 0.74645 0.0
H1658 H 0.87808 0.79431 0.70976 0.0
H1659 H 0.8568 0.79866 0.72894 0.0
H1660 H 0.89953 0.77347 0.70786 0.0
H1661 H 0.90186 0.83067 0.71118 0.0
H1662 H 0.90358 0.85748 0.72417 0.0
H1663 H 0.94953 0.84684 0.74407 0.0
H1664 H 0.94799 0.81987 0.73138 0.0
H1665 H 0.95436 0.77195 0.64449 0.0
H1666 H 0.93413 0.78406 0.66166 0.0
H1667 H 0.9661 0.78137 0.70225 0.0
H1668 H 0.98628 0.76905 0.68507 0.0
H1669 H 0.94642 0.8105 0.70094 0.0
H1670 H 0.94217 0.75213 0.69748 0.0
H1671 H 0.94052 0.72679 0.68177 0.0
H1672 H 0.89698 0.74159 0.65952 0.0
H1673 H 0.89856 0.76718 0.67488 0.0
C1674 C 0.8889 0.80742 0.75334 0.0
C1675 C 0.87269 0.80544 0.74879 0.0
C1676 C 0.90109 0.80446 0.74241 0.0
C1677 C 0.89743 0.79982 0.72653 0.0
C1678 C 0.88128 0.79794 0.72191 0.0
C1679 C 0.86907 0.80064 0.73289 0.0
C1680 C 0.91039 0.79636 0.71491 0.0
C1681 C 0.90961 0.78174 0.70622 0.0
C1682 C 0.92376 0.80698 0.71279 0.0
C1683 C 0.92473 0.82319 0.72045 0.0
C1684 C 0.91228 0.834 0.71843 0.0
C1685 C 0.91323 0.84923 0.72572 0.0
C1686 C 0.92664 0.85384 0.73497 0.0
C1687 C 0.93914 0.84324 0.73692 0.0
C1688 C 0.93824 0.82798 0.72967 0.0
C1689 C 0.95721 0.77446 0.65697 0.0
C1690 C 0.97184 0.76981 0.66352 0.0
C1691 C 0.94567 0.7813 0.66676 0.0
C1692 C 0.94862 0.78353 0.68323 0.0
C1693 C 0.96366 0.77983 0.68956 0.0
C1694 C 0.97515 0.77284 0.67978 0.0
C1695 C 0.9354 0.78776 0.69409 0.0
C1696 C 0.93621 0.8024 0.70262 0.0
C1697 C 0.92192 0.77732 0.69588 0.0
C1698 C 0.92056 0.76163 0.68722 0.0
C1699 C 0.93228 0.75001 0.68919 0.0
C1700 C 0.93137 0.73561 0.68034 0.0
C1701 C 0.91868 0.7326 0.66962 0.0
C1702 C 0.90682 0.74395 0.66781 0.0
C1703 C 0.90771 0.7584 0.67659 0.0
H1704 H 0.91802 0.72147 0.66274 0.0
H1705 H 0.92735 0.86565 0.7406 0.0
H1706 H 0.04575 0.90054 0.53259 0.0
H1707 H 0.04065 0.87734 0.54942 0.0
H1708 H 0.99781 0.86533 0.52213 0.0
H1709 H 0.00284 0.88866 0.50521 0.0
H1710 H 0.99264 0.86187 0.55359 0.0
H1711 H 0.0319 0.84435 0.51649 0.0
H1712 H 0.05715 0.84584 0.50151 0.0
H1713 H 0.08396 0.84517 0.54553 0.0
H1714 H 0.05885 0.84391 0.56081 0.0
H1715 H 0.98603 0.78288 0.58714 0.0
H1716 H 0.98823 0.80537 0.56864 0.0
H1717 H 0.03112 0.82263 0.59316 0.0
H1718 H 0.02908 0.80023 0.61153 0.0
H1719 H 0.03508 0.82218 0.56126 0.0
H1720 H 0.99555 0.84102 0.59829 0.0
H1721 H 0.9702 0.83951 0.61311 0.0
H1722 H 0.94375 0.8373 0.56883 0.0
H1723 H 0.96897 0.83857 0.55373 0.0
C1724 C 0.03531 0.8929 0.53006 0.0
C1725 C 0.02479 0.89638 0.51744 0.0
C1726 C 0.03239 0.87963 0.53972 0.0
C1727 C 0.01898 0.8694 0.53689 0.0
C1728 C 0.00825 0.87302 0.52453 0.0
C1729 C 0.01113 0.88637 0.51488 0.0
C1730 C 0.01631 0.85493 0.54684 0.0
C1731 C 1.00182 0.85305 0.55506 0.0
C1732 C 0.02835 0.84351 0.54895 0.0
C1733 C 0.04349 0.84416 0.5398 0.0
C1734 C 0.04318 0.84463 0.52299 0.0
C1735 C 0.05747 0.84542 0.51444 0.0
C1736 C 0.07215 0.84563 0.52257 0.0
C1737 C 0.07258 0.84501 0.53926 0.0
C1738 C 0.05832 0.84425 0.54786 0.0
C1739 C 0.99588 0.79152 0.58862 0.0
C1740 C 0.00738 0.78976 0.60081 0.0
C1741 C 0.9971 0.80439 0.57807 0.0
C1742 C 0.00981 0.81575 0.57955 0.0
C1743 C 0.02124 0.81401 0.59175 0.0
C1744 C 0.02001 0.80121 0.60229 0.0
C1745 C 0.01154 0.82928 0.56825 0.0
C1746 C 0.02586 0.83095 0.55971 0.0
C1747 C 0.99932 0.84044 0.56583 0.0
C1748 C 0.98415 0.8397 0.57489 0.0
C1749 C 0.98434 0.84007 0.59171 0.0
C1750 C 0.96999 0.83929 0.60016 0.0
C1751 C 0.95537 0.83826 0.59192 0.0
C1752 C 0.95508 0.83806 0.5752 0.0
C1753 C 0.96939 0.83883 0.56669 0.0
H1754 H 0.94428 0.83766 0.59848 0.0
H1755 H 0.0832 0.84624 0.51593 0.0
H1756 H 0.13146 0.73241 0.76629 0.0
H1757 H 0.10859 0.73725 0.74878 0.0
H1758 H 0.12295 0.69886 0.71718 0.0
H1759 H 0.14571 0.6938 0.73483 0.0
H1760 H 0.10548 0.74641 0.7195 0.0
H1761 H 0.09049 0.68047 0.69982 0.0
H1762 H 0.09245 0.65315 0.7105 0.0
H1763 H 0.09149 0.67229 0.75849 0.0
H1764 H 0.0893 0.69969 0.74811 0.0
H1765 H 0.05133 0.74636 0.6537 0.0
H1766 H 0.0739 0.7421 0.67175 0.0
H1767 H 0.04224 0.71818 0.70478 0.0
H1768 H 0.01975 0.72185 0.68651 0.0
H1769 H 0.0677 0.70214 0.70284 0.0
H1770 H 0.05765 0.75786 0.71109 0.0
H1771 H 0.05354 0.78592 0.70339 0.0
H1772 H 0.10076 0.78856 0.68363 0.0
H1773 H 0.10507 0.76045 0.69103 0.0
C1774 C 0.12979 0.72506 0.75556 0.0
C1775 C 0.14037 0.71268 0.75197 0.0
C1776 C 0.1167 0.72783 0.74556 0.0
C1777 C 0.11391 0.71832 0.73172 0.0
C1778 C 0.12464 0.70615 0.72794 0.0
C1779 C 0.13766 0.70327 0.73803 0.0
C1780 C 0.09974 0.72114 0.72133 0.0
C1781 C 0.09723 0.73672 0.71585 0.0
C1782 C 0.08874 0.70859 0.7168 0.0
C1783 C 0.08991 0.69214 0.72317 0.0
C1784 C 0.09064 0.67884 0.71265 0.0
C1785 C 0.0918 0.66334 0.71865 0.0
C1786 C 0.09215 0.66099 0.73516 0.0
C1787 C 0.09128 0.67413 0.74571 0.0
C1788 C 0.0901 0.68965 0.73977 0.0
C1789 C 0.04915 0.74027 0.66485 0.0
C1790 C 0.03371 0.73449 0.66867 0.0
C1791 C 0.06208 0.73789 0.6752 0.0
C1792 C 0.0598 0.72999 0.68977 0.0
C1793 C 0.04436 0.72428 0.69362 0.0
C1794 C 0.03148 0.72643 0.68317 0.0
C1795 C 0.07349 0.72741 0.70088 0.0
C1796 C 0.07595 0.71185 0.70646 0.0
C1797 C 0.08415 0.74008 0.70591 0.0
C1798 C 0.08162 0.757 0.70148 0.0
C1799 C 0.06711 0.76439 0.705 0.0
C1800 C 0.06476 0.78031 0.70071 0.0
C1801 C 0.07687 0.789 0.69299 0.0
C1802 C 0.09138 0.78181 0.68959 0.0
C1803 C 0.09379 0.76589 0.69385 0.0
H1804 H 0.07502 0.80132 0.68967 0.0
H1805 H 0.09306 0.64899 0.73978 0.0
H1806 H 0.96529 0.60414 0.53217 0.0
H1807 H 0.96979 0.62836 0.54883 0.0
H1808 H 0.01696 0.63469 0.52905 0.0
H1809 H 0.01248 0.61047 0.51226 0.0
H1810 H 0.01613 0.63659 0.5628 0.0
H1811 H 0.98995 0.65938 0.51784 0.0
H1812 H 0.96872 0.66166 0.49741 0.0
H1813 H 0.93408 0.66905 0.53424 0.0
H1814 H 0.95507 0.66658 0.55491 0.0
H1815 H 0.03004 0.71057 0.6053 0.0
H1816 H 0.02813 0.68825 0.58615 0.0
H1817 H 0.97652 0.68914 0.58838 0.0
H1818 H 0.97873 0.7133 0.60522 0.0
H1819 H 0.98159 0.68395 0.56113 0.0
H1820 H 0.00526 0.65275 0.60512 0.0
H1821 H 0.02536 0.64746 0.62621 0.0
H1822 H 0.06309 0.65403 0.59224 0.0
H1823 H 0.04316 0.65912 0.57106 0.0
C1824 C 0.9766 0.61072 0.53136 0.0
C1825 C 0.98855 0.60542 0.52095 0.0
C1826 C 0.97912 0.6246 0.54079 0.0
C1827 C 0.99367 0.63337 0.5401 0.0
C1828 C 0.00563 0.62812 0.52971 0.0
C1829 C 0.00303 0.61435 0.52009 0.0
C1830 C 0.99658 0.64762 0.55075 0.0
C1831 C 0.00871 0.64706 0.56236 0.0
C1832 C 0.98671 0.66111 0.55034 0.0
C1833 C 0.97407 0.66265 0.53793 0.0
C1834 C 0.97778 0.66135 0.52159 0.0
C1835 C 0.9658 0.66271 0.50996 0.0
C1836 C 0.95006 0.66546 0.51452 0.0
C1837 C 0.94628 0.6669 0.53072 0.0
C1838 C 0.95822 0.66554 0.5424 0.0
C1839 C 0.0183 0.70581 0.60183 0.0
C1840 C 0.00446 0.71308 0.60755 0.0
C1841 C 0.01718 0.69277 0.59103 0.0
C1842 C 0.00216 0.68626 0.58611 0.0
C1843 C 0.98833 0.69361 0.59194 0.0
C1844 C 0.98951 0.70718 0.60205 0.0
C1845 C 1.00073 0.67273 0.574 0.0
C1846 C 0.98898 0.67349 0.56185 0.0
C1847 C 0.01079 0.65926 0.57406 0.0
C1848 C 0.0228 0.65671 0.58676 0.0
C1849 C 0.01787 0.65332 0.60234 0.0
C1850 C 0.0292 0.65026 0.61423 0.0
C1851 C 0.04549 0.65063 0.61062 0.0
C1852 C 0.05048 0.65386 0.59506 0.0
C1853 C 0.03917 0.65675 0.5831 0.0
H1854 H 0.05425 0.64829 0.61985 0.0
H1855 H 0.94079 0.6665 0.5055 0.0
H1856 H 0.74001 0.89416 0.2252 0.0
H1857 H 0.76114 0.91455 0.23059 0.0
H1858 H 0.79245 0.88991 0.19837 0.0
H1859 H 0.77125 0.86998 0.19218 0.0
H1860 H 0.8013 0.89635 0.23493 0.0
H1861 H 0.78497 0.91977 0.18448 0.0
H1862 H 0.76514 0.93159 0.16647 0.0
H1863 H 0.75673 0.96878 0.20135 0.0
H1864 H 0.77635 0.95702 0.21967 0.0
H1865 H 0.85834 0.97056 0.21498 0.0
H1866 H 0.83789 0.94963 0.20903 0.0
H1867 H 0.83193 0.94224 0.25964 0.0
H1868 H 0.85336 0.96197 0.26537 0.0
H1869 H 0.8086 0.95182 0.21529 0.0
H1870 H 0.81545 0.92011 0.26826 0.0
H1871 H 0.82902 0.90274 0.28742 0.0
H1872 H 0.85174 0.87822 0.24857 0.0
H1873 H 0.83901 0.89613 0.22928 0.0
C1874 C 0.75121 0.89328 0.21888 0.0
C1875 C 0.75393 0.88024 0.20837 0.0
C1876 C 0.76328 0.90494 0.22204 0.0
C1877 C 0.77829 0.9037 0.21485 0.0
C1878 C 0.78091 0.89105 0.20401 0.0
C1879 C 0.76881 0.87956 0.20065 0.0
C1880 C 0.79183 0.91446 0.2199 0.0
C1881 C 0.80303 0.90849 0.2306 0.0
C1882 C 0.79373 0.93034 0.21453 0.0
C1883 C 0.78196 0.9374 0.20352 0.0
C1884 C 0.77875 0.93036 0.18838 0.0
C1885 C 0.76759 0.93708 0.1781 0.0
C1886 C 0.75964 0.9509 0.18278 0.0
C1887 C 0.76287 0.95806 0.19775 0.0
C1888 C 0.77402 0.95138 0.20808 0.0
C1889 C 0.85302 0.96398 0.22475 0.0
C1890 C 0.85759 0.96762 0.24058 0.0
C1891 C 0.84128 0.95205 0.2214 0.0
C1892 C 0.83334 0.94394 0.23384 0.0
C1893 C 0.83816 0.94751 0.2497 0.0
C1894 C 0.85032 0.95904 0.25301 0.0
C1895 C 0.81883 0.93356 0.23003 0.0
C1896 C 0.80716 0.93967 0.21963 0.0
C1897 C 0.81634 0.91779 0.23591 0.0
C1898 C 0.82699 0.91004 0.24742 0.0
C1899 C 0.82397 0.91154 0.26389 0.0
C1900 C 0.83136 0.90149 0.27475 0.0
C1901 C 0.84129 0.88942 0.26922 0.0
C1902 C 0.84413 0.88764 0.25285 0.0
C1903 C 0.83711 0.89798 0.24198 0.0
H1904 H 0.84678 0.88145 0.27761 0.0
H1905 H 0.751 0.95609 0.1748 0.0
H1906 H 0.77893 0.14843 0.28709 0.0
H1907 H 0.79818 0.12728 0.28277 0.0
H1908 H 0.76612 0.09308 0.30502 0.0
H1909 H 0.74692 0.1143 0.30976 0.0
H1910 H 0.79715 0.08954 0.3149 0.0
H1911 H 0.7689 0.09346 0.26505 0.0
H1912 H 0.75795 0.10729 0.24169 0.0
H1913 H 0.80537 0.12253 0.22826 0.0
H1914 H 0.81659 0.10898 0.25167 0.0
H1915 H 0.8375 0.02004 0.28526 0.0
H1916 H 0.81795 0.04022 0.29262 0.0
H1917 H 0.84608 0.07649 0.2685 0.0
H1918 H 0.86539 0.0564 0.26087 0.0
H1919 H 0.81587 0.07804 0.25984 0.0
H1920 H 0.84418 0.07468 0.30995 0.0
H1921 H 0.85521 0.06104 0.33338 0.0
H1922 H 0.80796 0.04481 0.34637 0.0
H1923 H 0.79666 0.05818 0.32288 0.0
C1924 C 0.77602 0.13645 0.29123 0.0
C1925 C 0.76134 0.13306 0.29873 0.0
C1926 C 0.78699 0.12433 0.28863 0.0
C1927 C 0.78352 0.10854 0.29341 0.0
C1928 C 0.76903 0.10516 0.30118 0.0
C1929 C 0.75801 0.11728 0.30375 0.0
C1930 C 0.79493 0.09555 0.29004 0.0
C1931 C 0.80109 0.08685 0.30284 0.0
C1932 C 0.80028 0.09223 0.27434 0.0
C1933 C 0.79357 0.10032 0.2602 0.0
C1934 C 0.77698 0.09986 0.25718 0.0
C1935 C 0.77073 0.10763 0.24392 0.0
C1936 C 0.78096 0.11581 0.23352 0.0
C1937 C 0.79746 0.1162 0.23633 0.0
C1938 C 0.80378 0.10847 0.24959 0.0
C1939 C 0.83959 0.03235 0.28169 0.0
C1940 C 0.85298 0.0366 0.27245 0.0
C1941 C 0.82843 0.0439 0.28594 0.0
C1942 C 0.83054 0.05992 0.28116 0.0
C1943 C 0.84412 0.06421 0.27227 0.0
C1944 C 0.8552 0.0527 0.26796 0.0
C1945 C 0.81835 0.07215 0.28473 0.0
C1946 C 0.81195 0.08068 0.27192 0.0
C1947 C 0.81284 0.0753 0.30041 0.0
C1948 C 0.8196 0.06728 0.31456 0.0
C1949 C 0.83616 0.06809 0.31773 0.0
C1950 C 0.84245 0.06043 0.33103 0.0
C1951 C 0.8323 0.05203 0.34133 0.0
C1952 C 0.81582 0.0513 0.33837 0.0
C1953 C 0.80946 0.05893 0.32506 0.0
H1954 H 0.8372 0.04611 0.35163 0.0
H1955 H 0.77609 0.12182 0.22326 0.0
H1956 H 0.41085 0.97835 0.0052 0.0
H1957 H 0.38652 0.9624 0.01027 0.0
H1958 H 0.36329 0.98408 0.97008 0.0
H1959 H 0.38729 1.00065 0.96542 0.0
H1960 H 0.34339 0.98231 0.99426 0.0
H1961 H 0.37862 0.94558 0.9681 0.0
H1962 H 0.40358 0.93092 0.96443 0.0
H1963 H 0.39739 0.90907 0.0102 0.0
H1964 H 0.37248 0.92378 0.01423 0.0
H1965 H 0.28201 0.92567 0.97383 0.0
H1966 H 0.30587 0.94311 0.97521 0.0
H1967 H 0.32044 0.92071 0.01892 0.0
H1968 H 0.29642 0.90306 0.01764 0.0
H1969 H 0.3448 0.92287 0.99643 0.0
H1970 H 0.30765 0.95792 0.02091 0.0
H1971 H 0.28234 0.97219 0.02352 0.0
H1972 H 0.29184 0.99691 0.97981 0.0
H1973 H 0.31711 0.98261 0.97681 0.0
C1974 C 0.40052 0.97988 0.99754 0.0
C1975 C 0.4011 0.99078 0.98485 0.0
C1976 C 0.38665 0.97061 1.00035 0.0
C1977 C 0.37311 0.97186 0.99044 0.0
C1978 C 0.37359 0.98285 0.97788 0.0
C1979 C 0.38741 0.99219 0.97511 0.0
C1980 C 0.35843 0.96174 0.99304 0.0
C1981 C 0.3437 0.96931 0.99459 0.0
C1982 C 0.35883 0.94478 0.99395 0.0
C1983 C 0.37379 0.93592 0.99154 0.0
C1984 C 0.38265 0.93775 0.97744 0.0
C1985 C 0.39678 0.92942 0.97528 0.0
C1986 C 0.40209 0.91911 0.9871 0.0
C1987 C 0.39327 0.91709 1.00107 0.0
C1988 C 0.37914 0.92541 0.00329 0.0
C1989 C 0.29018 0.92449 0.98384 0.0
C1990 C 0.28728 0.91293 0.99563 0.0
C1991 C 0.3038 0.93455 0.98464 0.0
C1992 C 0.31489 0.93329 0.99722 0.0
C1993 C 0.312 0.9219 0.00913 0.0
C1994 C 0.29824 0.91189 0.00842 0.0
C1995 C 0.32979 0.94344 0.99735 0.0
C1996 C 0.34454 0.93589 0.9963 0.0
C1997 C 0.32939 0.9604 0.99678 0.0
C1998 C 0.31423 0.9691 0.99858 0.0
C1999 C 0.30429 0.96631 0.01179 0.0
C2000 C 0.28995 0.97442 0.01335 0.0
C2001 C 0.28547 0.98543 1.00183 0.0
C2002 C 0.29533 0.98837 0.98873 0.0
C2003 C 0.30967 0.98028 0.9871 0.0
H2004 H 0.27437 0.99169 0.00306 0.0
H2005 H 0.41303 0.91266 0.98541 0.0
H2006 H 0.26483 0.39377 0.27906 0.0
H2007 H 0.24523 0.41461 0.27509 0.0
H2008 H 0.22302 0.4024 0.31983 0.0
H2009 H 0.24245 0.38135 0.3237 0.0
H2010 H 0.20087 0.40617 0.29873 0.0
H2011 H 0.24678 0.43735 0.31537 0.0
H2012 H 0.27498 0.44683 0.31526 0.0
H2013 H 0.26929 0.46331 0.26721 0.0
H2014 H 0.24109 0.45373 0.26695 0.0
H2015 H 0.1728 0.49518 0.28953 0.0
H2016 H 0.19256 0.47602 0.29862 0.0
H2017 H 0.17359 0.44068 0.26465 0.0
H2018 H 0.15369 0.45953 0.25583 0.0
H2019 H 0.21628 0.46195 0.28414 0.0
H2020 H 0.17688 0.40337 0.27831 0.0
H2021 H 0.14862 0.39476 0.28141 0.0
H2022 H 0.14122 0.43464 0.31347 0.0
H2023 H 0.16947 0.44336 0.31075 0.0
C2024 C 0.25587 0.39564 0.28813 0.0
C2025 C 0.25522 0.38591 0.30171 0.0
C2026 C 0.24467 0.40759 0.28587 0.0
C2027 C 0.23271 0.41027 0.29725 0.0
C2028 C 0.23208 0.40059 0.31085 0.0
C2029 C 0.24319 0.38854 0.31304 0.0
C2030 C 0.22057 0.4228 0.29472 0.0
C2031 C 0.20427 0.41837 0.29558 0.0
C2032 C 0.22491 0.43887 0.29099 0.0
C2033 C 0.24185 0.4447 0.2911 0.0
C2034 C 0.25157 0.4429 0.30474 0.0
C2035 C 0.26755 0.4483 0.30475 0.0
C2036 C 0.27393 0.45564 0.29123 0.0
C2037 C 0.26433 0.45761 0.27768 0.0
C2038 C 0.24834 0.45222 0.2776 0.0
C2039 C 0.17278 0.48328 0.2841 0.0
C2040 C 0.1616 0.47886 0.27202 0.0
C2041 C 0.18412 0.47235 0.28926 0.0
C2042 C 0.18448 0.4568 0.28247 0.0
C2043 C 0.17339 0.45246 0.27033 0.0
C2044 C 0.16203 0.46331 0.26525 0.0
C2045 C 0.19661 0.44517 0.28775 0.0
C2046 C 0.2129 0.44977 0.28738 0.0
C2047 C 0.19226 0.42936 0.29235 0.0
C2048 C 0.17527 0.42409 0.29421 0.0
C2049 C 0.16924 0.41026 0.28608 0.0
C2050 C 0.15322 0.40537 0.28776 0.0
C2051 C 0.14312 0.41417 0.29759 0.0
C2052 C 0.14904 0.42786 0.30581 0.0
C2053 C 0.16505 0.4328 0.30419 0.0
H2054 H 0.13072 0.41037 0.29887 0.0
H2055 H 0.28631 0.45981 0.29126 0.0
H2056 H 0.12624 0.01078 0.46866 0.0
H2057 H 0.14808 0.02998 0.47448 0.0
H2058 H 0.12689 0.04155 0.51998 0.0
H2059 H 0.10431 0.02345 0.51366 0.0
H2060 H 0.13486 0.06732 0.5073 0.0
H2061 H 0.16306 0.01952 0.51548 0.0
H2062 H 0.17287 0.99247 0.50937 0.0
H2063 H 0.19756 0.01058 0.46833 0.0
H2064 H 0.18772 0.03771 0.47405 0.0
H2065 H 0.21071 0.11252 0.52862 0.0
H2066 H 0.18828 0.09303 0.52934 0.0
H2067 H 0.19147 0.08577 0.47833 0.0
H2068 H 0.21506 0.10387 0.47794 0.0
H2069 H 0.19227 0.05778 0.49801 0.0
H2070 H 0.13775 0.09554 0.49017 0.0
H2071 H 0.12285 0.11892 0.49975 0.0
H2072 H 0.14859 0.11862 0.5444 0.0
H2073 H 0.16251 0.09443 0.5356 0.0
C2074 C 0.12609 0.01748 0.47987 0.0
C2075 C 0.1133 0.01555 0.4906 0.0
C2076 C 0.13882 0.02828 0.48333 0.0
C2077 C 0.13934 0.03713 0.49779 0.0
C2078 C 0.12685 0.03487 0.50874 0.0
C2079 C 0.11397 0.02432 0.50516 0.0
C2080 C 0.15211 0.04969 0.50093 0.0
C2081 C 0.14745 0.06515 0.50547 0.0
C2082 C 0.16857 0.04693 0.49863 0.0
C2083 C 0.17454 0.03063 0.49514 0.0
C2084 C 0.17049 0.01772 0.50508 0.0
C2085 C 0.17607 1.00237 0.5017 0.0
C2086 C 0.18581 0.9998 0.48845 0.0
C2087 C 0.19001 0.01259 0.47858 0.0
C2088 C 0.18445 0.02796 0.4819 0.0
C2089 C 0.20634 0.10703 0.51753 0.0
C2090 C 0.21409 0.11034 0.50306 0.0
C2091 C 0.19324 0.09615 0.51789 0.0
C2092 C 0.18739 0.08865 0.50374 0.0
C2093 C 0.1953 0.09186 0.48932 0.0
C2094 C 0.20869 0.10233 0.48906 0.0
C2095 C 0.17495 0.0755 0.50409 0.0
C2096 C 0.17969 0.05988 0.50003 0.0
C2097 C 0.15856 0.07804 0.50721 0.0
C2098 C 0.15205 0.0938 0.51179 0.0
C2099 C 0.14046 0.10067 0.50191 0.0
C2100 C 0.13184 0.1138 0.50737 0.0
C2101 C 0.13497 0.12043 0.52258 0.0
C2102 C 0.14644 0.1137 0.53248 0.0
C2103 C 0.15471 0.10025 0.52726 0.0
H2104 H 0.1284 0.13069 0.52674 0.0
H2105 H 0.19012 0.98791 0.48585 0.0
H2106 H 0.74075 0.14738 0.7249 0.0
H2107 H 0.72178 0.12507 0.72977 0.0
H2108 H 0.74454 0.09654 0.69344 0.0
H2109 H 0.76367 0.11881 0.68861 0.0
H2110 H 0.7102 0.09667 0.69134 0.0
H2111 H 0.75178 0.08709 0.72939 0.0
H2112 H 0.77087 0.09427 0.75117 0.0
H2113 H 0.73194 0.1057 0.78213 0.0
H2114 H 0.7126 0.09881 0.76045 0.0
H2115 H 0.66046 0.0286 0.71098 0.0
H2116 H 0.68202 0.04716 0.70331 0.0
H2117 H 0.6788 0.07151 0.74923 0.0
H2118 H 0.65959 0.05101 0.75769 0.0
H2119 H 0.70633 0.07143 0.74447 0.0
H2120 H 0.66592 0.08864 0.70479 0.0
H2121 H 0.64644 0.08412 0.68251 0.0
H2122 H 0.68226 0.06044 0.65505 0.0
H2123 H 0.70183 0.06498 0.67711 0.0
C2124 C 0.74167 0.13636 0.71792 0.0
C2125 C 0.75367 0.13481 0.70638 0.0
C2126 C 0.7309 0.12362 0.72077 0.0
C2127 C 0.73183 0.10914 0.71203 0.0
C2128 C 0.74366 0.1076 0.70034 0.0
C2129 C 0.75461 0.12028 0.69765 0.0
C2130 C 0.72027 0.09573 0.71504 0.0
C2131 C 0.70939 0.091 0.70291 0.0
C2132 C 0.71915 0.08849 0.73015 0.0
C2133 C 0.73075 0.09256 0.74324 0.0
C2134 C 0.74729 0.09126 0.7408 0.0
C2135 C 0.75816 0.09525 0.75314 0.0
C2136 C 0.75262 0.10047 0.76802 0.0
C2137 C 0.73621 0.10167 0.7706 0.0
C2138 C 0.72529 0.0977 0.75829 0.0
C2139 C 0.66429 0.03807 0.71931 0.0
C2140 C 0.65756 0.03903 0.73462 0.0
C2141 C 0.6765 0.04893 0.71483 0.0
C2142 C 0.68185 0.0614 0.72534 0.0
C2143 C 0.67501 0.06223 0.74067 0.0
C2144 C 0.66353 0.05082 0.74541 0.0
C2145 C 0.69525 0.07291 0.72108 0.0
C2146 C 0.70681 0.07713 0.73292 0.0
C2147 C 0.69683 0.07988 0.70575 0.0
C2148 C 0.68509 0.07683 0.69267 0.0
C2149 C 0.66944 0.08228 0.69406 0.0
C2150 C 0.65847 0.07978 0.68148 0.0
C2151 C 0.66306 0.07183 0.66747 0.0
C2152 C 0.67869 0.06651 0.66595 0.0
C2153 C 0.68973 0.0691 0.67845 0.0
H2154 H 0.65454 0.06989 0.65776 0.0
H2155 H 0.76106 0.10355 0.77755 0.0
H2156 H 0.37964 0.0149 0.54018 0.0
H2157 H 0.35785 0.03284 0.53432 0.0
H2158 H 0.38544 0.05391 0.49628 0.0
H2159 H 0.40763 0.03658 0.50261 0.0
H2160 H 0.37165 0.07664 0.51205 0.0
H2161 H 0.35367 0.02662 0.48882 0.0
H2162 H 0.3472 0.99754 0.48789 0.0
H2163 H 0.31198 0.00374 0.52439 0.0
H2164 H 0.31839 0.03283 0.52569 0.0
H2165 H 0.28458 0.09365 0.48069 0.0
H2166 H 0.30757 0.07614 0.48273 0.0
H2167 H 0.32351 0.10191 0.52543 0.0
H2168 H 0.30088 0.11964 0.52321 0.0
H2169 H 0.316 0.05557 0.50413 0.0
H2170 H 0.36351 0.10188 0.5293 0.0
H2171 H 0.37045 0.13075 0.52714 0.0
H2172 H 0.34747 0.1316 0.48104 0.0
H2173 H 0.34058 0.1027 0.48282 0.0
C2174 C 0.38119 0.02346 0.53067 0.0
C2175 C 0.39547 0.02422 0.52187 0.0
C2176 C 0.36859 0.0336 0.52719 0.0
C2177 C 0.36985 0.04461 0.51468 0.0
C2178 C 0.38411 0.04548 0.50594 0.0
C2179 C 0.39676 0.03542 0.50948 0.0
C2180 C 0.3564 0.05536 0.51088 0.0
C2181 C 0.35949 0.07201 0.5103 0.0
C2182 C 0.34054 0.04937 0.50821 0.0
C2183 C 0.33661 0.03189 0.50744 0.0
C2184 C 0.34463 0.02176 0.49673 0.0
C2185 C 0.34096 0.00528 0.49612 0.0
C2186 C 0.32921 0.99879 0.5061 0.0
C2187 C 0.32109 0.00878 0.51668 0.0
C2188 C 0.32472 0.02527 0.51734 0.0
C2189 C 0.29307 0.09567 0.49042 0.0
C2190 C 0.29094 0.1081 0.50173 0.0
C2191 C 0.30618 0.08561 0.49162 0.0
C2192 C 0.31742 0.08777 0.50414 0.0
C2193 C 0.31523 0.10016 0.51547 0.0
C2194 C 0.30222 0.11027 0.51422 0.0
C2195 C 0.3312 0.07686 0.50565 0.0
C2196 C 0.32816 0.06019 0.50582 0.0
C2197 C 0.34717 0.0828 0.50753 0.0
C2198 C 0.35141 0.10015 0.50627 0.0
C2199 C 0.36 0.10822 0.51867 0.0
C2200 C 0.36391 0.12458 0.51752 0.0
C2201 C 0.35936 0.13301 0.50398 0.0
C2202 C 0.35093 0.12507 0.49154 0.0
C2203 C 0.34701 0.1087 0.49263 0.0
H2204 H 0.36239 0.14569 0.50312 0.0
H2205 H 0.32639 0.98603 0.50562 0.0
H2206 H 0.62804 0.51037 0.54557 0.0
H2207 H 0.65042 0.49297 0.53976 0.0
H2208 H 0.6205 0.46487 0.50691 0.0
H2209 H 0.59805 0.48217 0.51271 0.0
H2210 H 0.65515 0.46187 0.54366 0.0
H2211 H 0.64287 0.45208 0.47568 0.0
H2212 H 0.63118 0.46659 0.4531 0.0
H2213 H 0.64205 0.51166 0.47703 0.0
H2214 H 0.654 0.49745 0.49963 0.0
H2215 H 0.7025 0.39798 0.5157 0.0
H2216 H 0.68074 0.41584 0.52235 0.0
H2217 H 0.7021 0.45258 0.4929 0.0
H2218 H 0.72334 0.43438 0.48551 0.0
H2219 H 0.67252 0.45257 0.48776 0.0
H2220 H 0.70359 0.45279 0.53635 0.0
H2221 H 0.71738 0.44081 0.55928 0.0
H2222 H 0.6729 0.41959 0.57484 0.0
H2223 H 0.65888 0.43128 0.5519 0.0
C2224 C 0.62617 0.50041 0.53721 0.0
C2225 C 0.61124 0.49772 0.52956 0.0
C2226 C 0.63899 0.49048 0.53388 0.0
C2227 C 0.63721 0.4777 0.52278 0.0
C2228 C 0.62226 0.47483 0.51531 0.0
C2229 C 0.60944 0.48476 0.5186 0.0
C2230 C 0.65101 0.46744 0.51893 0.0
C2231 C 0.65896 0.45983 0.53144 0.0
C2232 C 0.65621 0.46501 0.50303 0.0
C2233 C 0.64917 0.47368 0.48942 0.0
C2234 C 0.64281 0.46509 0.47609 0.0
C2235 C 0.63613 0.47326 0.46329 0.0
C2236 C 0.63582 0.49003 0.46366 0.0
C2237 C 0.64223 0.49867 0.47679 0.0
C2238 C 0.64894 0.49056 0.48961 0.0
C2239 C 0.70258 0.4099 0.51072 0.0
C2240 C 0.71467 0.41481 0.50014 0.0
C2241 C 0.69016 0.42016 0.51459 0.0
C2242 C 0.68984 0.43574 0.50838 0.0
C2243 C 0.70199 0.44065 0.49786 0.0
C2244 C 0.71418 0.43026 0.49368 0.0
C2245 C 0.67669 0.44682 0.51248 0.0
C2246 C 0.66878 0.45457 0.5 0.0
C2247 C 0.67184 0.44973 0.52846 0.0
C2248 C 0.68022 0.4428 0.54234 0.0
C2249 C 0.69677 0.44549 0.54462 0.0
C2250 C 0.70462 0.43876 0.55762 0.0
C2251 C 0.69603 0.42942 0.56849 0.0
C2252 C 0.67955 0.42682 0.56641 0.0
C2253 C 0.67164 0.43351 0.55342 0.0
H2254 H 0.70213 0.42421 0.57854 0.0
H2255 H 0.63064 0.49633 0.45374 0.0
H2256 H 0.73579 0.24815 0.38185 0.0
H2257 H 0.73784 0.269 0.40285 0.0
H2258 H 0.68676 0.27513 0.39991 0.0
H2259 H 0.68494 0.25494 0.3783 0.0
H2260 H 0.69956 0.30241 0.40055 0.0
H2261 H 0.70704 0.25698 0.43311 0.0
H2262 H 0.71871 0.23163 0.4417 0.0
H2263 H 0.76477 0.2553 0.44714 0.0
H2264 H 0.75344 0.28075 0.43837 0.0
H2265 H 0.70595 0.35104 0.47646 0.0
H2266 H 0.69809 0.33003 0.45681 0.0
H2267 H 0.7465 0.32934 0.43959 0.0
H2268 H 0.75461 0.34927 0.46015 0.0
H2269 H 0.73157 0.29908 0.45048 0.0
H2270 H 0.71476 0.33355 0.39605 0.0
H2271 H 0.69839 0.35508 0.38514 0.0
H2272 H 0.66581 0.35016 0.42428 0.0
H2273 H 0.68153 0.32808 0.43488 0.0
C2274 C 0.72502 0.25386 0.38587 0.0
C2275 C 0.71022 0.25002 0.37851 0.0
C2276 C 0.72615 0.2657 0.39795 0.0
C2277 C 0.71242 0.27358 0.4032 0.0
C2278 C 0.69755 0.26932 0.3961 0.0
C2279 C 0.69649 0.25776 0.38379 0.0
C2280 C 0.71368 0.28704 0.41519 0.0
C2281 C 0.70639 0.30155 0.41158 0.0
C2282 C 0.72252 0.28603 0.42965 0.0
C2283 C 0.7294 0.27075 0.43496 0.0
C2284 C 0.71969 0.25676 0.43603 0.0
C2285 C 0.72624 0.24237 0.44095 0.0
C2286 C 0.74248 0.24184 0.44493 0.0
C2287 C 0.7522 0.25572 0.44404 0.0
C2288 C 0.74571 0.27014 0.43911 0.0
C2289 C 0.71478 0.34667 0.46817 0.0
C2290 C 0.73075 0.3523 0.46932 0.0
C2291 C 0.71022 0.33486 0.45674 0.0
C2292 C 0.72151 0.32862 0.44614 0.0
C2293 C 0.73746 0.33432 0.44728 0.0
C2294 C 0.74207 0.34583 0.45892 0.0
C2295 C 0.71757 0.3144 0.4357 0.0
C2296 C 0.72456 0.29978 0.43954 0.0
C2297 C 0.70803 0.31514 0.42169 0.0
C2298 C 0.6998 0.32975 0.41674 0.0
C2299 C 0.70427 0.3373 0.40248 0.0
C2300 C 0.69493 0.34938 0.39616 0.0
C2301 C 0.68111 0.35407 0.40407 0.0
C2302 C 0.67661 0.34666 0.41828 0.0
C2303 C 0.68578 0.33439 0.42448 0.0
H2304 H 0.6739 0.36344 0.39919 0.0
H2305 H 0.74753 0.23069 0.44873 0.0
H2306 H 0.53584 0.00238 0.91398 0.0
H2307 H 0.55167 0.99659 0.89017 0.0
H2308 H 0.52784 0.03394 0.8649 0.0
H2309 H 0.51161 0.03938 0.88838 0.0
H2310 H 0.53037 0.008 0.84616 0.0
H2311 H 0.56585 0.03955 0.88108 0.0
H2312 H 0.5807 0.04574 0.90616 0.0
H2313 H 0.60539 1.0014 0.90157 0.0
H2314 H 0.59053 0.99485 0.87655 0.0
H2315 H 0.58227 0.03286 0.78563 0.0
H2316 H 0.56612 0.02985 0.80949 0.0
H2317 H 0.59366 0.98931 0.82349 0.0
H2318 H 0.61009 0.99225 0.79939 0.0
H2319 H 0.58968 0.01181 0.8483 0.0
H2320 H 0.55651 0.9824 0.81098 0.0
H2321 H 0.54205 0.9772 0.78551 0.0
H2322 H 0.51314 0.01818 0.79431 0.0
H2323 H 0.5276 0.02378 0.81972 0.0
C2324 C 0.53386 0.00925 0.90331 0.0
C2325 C 0.5225 0.02142 0.90316 0.0
C2326 C 0.54302 0.00602 0.88974 0.0
C2327 C 0.54108 0.01494 0.87577 0.0
C2328 C 0.52959 0.02691 0.87553 0.0
C2329 C 0.52043 0.03013 0.88905 0.0
C2330 C 0.55106 0.01203 0.86139 0.0
C2331 C 0.54333 0.00892 0.84663 0.0
C2332 C 0.56801 0.0127 0.86204 0.0
C2333 C 0.57694 0.01662 0.87706 0.0
C2334 C 0.57435 0.03106 0.88549 0.0
C2335 C 0.58278 0.03465 0.89968 0.0
C2336 C 0.59394 0.02394 0.90549 0.0
C2337 C 0.59672 0.00966 0.89708 0.0
C2338 C 0.5883 0.00601 0.88289 0.0
C2339 C 0.58489 0.0232 0.79368 0.0
C2340 C 0.59752 0.01279 0.79057 0.0
C2341 C 0.57556 0.02145 0.80731 0.0
C2342 C 0.57858 0.00928 0.81822 0.0
C2343 C 0.59109 0.99875 0.81517 0.0
C2344 C 0.6004 1.0004 0.80137 0.0
C2345 C 0.56896 0.00821 0.83305 0.0
C2346 C 0.57673 0.01059 0.84789 0.0
C2347 C 0.55205 0.00694 0.83248 0.0
C2348 C 0.54322 0.00356 0.81723 0.0
C2349 C 0.54715 0.99037 0.80744 0.0
C2350 C 0.53894 0.98734 0.79301 0.0
C2351 C 0.5267 0.99737 0.78828 0.0
C2352 C 0.52263 0.01043 0.79799 0.0
C2353 C 0.53081 0.01352 0.81242 0.0
H2354 H 0.52036 0.995 0.77711 0.0
H2355 H 0.60046 0.02674 0.91647 0.0
H2356 H 0.31926 0.27196 0.38819 0.0
H2357 H 0.31491 0.25181 0.40885 0.0
H2358 H 0.27614 0.23028 0.38086 0.0
H2359 H 0.28054 0.25012 0.36012 0.0
H2360 H 0.2677 0.2353 0.41167 0.0
H2361 H 0.31246 0.21275 0.38353 0.0
H2362 H 0.3399 0.21307 0.37291 0.0
H2363 H 0.35899 0.22084 0.42036 0.0
H2364 H 0.33164 0.22077 0.43123 0.0
H2365 H 0.2493 0.1617 0.44287 0.0
H2366 H 0.26096 0.18154 0.4251 0.0
H2367 H 0.29545 0.19594 0.46162 0.0
H2368 H 0.28391 0.17557 0.47958 0.0
H2369 H 0.30804 0.19689 0.43002 0.0
H2370 H 0.26363 0.21739 0.45853 0.0
H2371 H 0.2363 0.21672 0.46937 0.0
H2372 H 0.21673 0.21348 0.42173 0.0
H2373 H 0.24396 0.21386 0.41059 0.0
C2374 C 0.30994 0.26281 0.38633 0.0
C2375 C 0.30019 0.26275 0.3725 0.0
C2376 C 0.30746 0.25131 0.39818 0.0
C2377 C 0.29522 0.2395 0.3964 0.0
C2378 C 0.2856 0.23933 0.38255 0.0
C2379 C 0.28808 0.25076 0.37072 0.0
C2380 C 0.29192 0.22759 0.4091 0.0
C2381 C 0.27651 0.22685 0.41558 0.0
C2382 C 0.30358 0.21695 0.4147 0.0
C2383 C 0.32001 0.21695 0.40816 0.0
C2384 C 0.32251 0.21467 0.39168 0.0
C2385 C 0.33804 0.21478 0.38562 0.0
C2386 C 0.35118 0.21703 0.39595 0.0
C2387 C 0.3488 0.21913 0.41237 0.0
C2388 C 0.33329 0.21905 0.41849 0.0
C2389 C 0.25956 0.16884 0.44708 0.0
C2390 C 0.26557 0.1672 0.46271 0.0
C2391 C 0.2662 0.18022 0.43689 0.0
C2392 C 0.27882 0.19048 0.44216 0.0
C2393 C 0.28564 0.18819 0.45736 0.0
C2394 C 0.27907 0.17656 0.46759 0.0
C2395 C 0.28368 0.20432 0.43212 0.0
C2396 C 0.29933 0.20549 0.42623 0.0
C2397 C 0.27228 0.2155 0.4271 0.0
C2398 C 0.25585 0.21556 0.43373 0.0
C2399 C 0.2535 0.21644 0.45036 0.0
C2400 C 0.23803 0.21612 0.45656 0.0
C2401 C 0.22478 0.21504 0.44625 0.0
C2402 C 0.227 0.21432 0.4297 0.0
C2403 C 0.24245 0.21461 0.42344 0.0
H2404 H 0.21281 0.21478 0.45107 0.0
H2405 H 0.36319 0.2171 0.39123 0.0
H2406 H 0.47296 0.50425 0.92079 0.0
H2407 H 0.4564 0.51103 0.89766 0.0
H2408 H 0.48765 0.48469 0.86663 0.0
H2409 H 0.50425 0.47802 0.8896 0.0
H2410 H 0.48053 0.51217 0.85345 0.0
H2411 H 0.45063 0.46931 0.87892 0.0
H2412 H 0.43662 0.4562 0.90124 0.0
H2413 H 0.40417 0.49519 0.90412 0.0
H2414 H 0.41813 0.50863 0.88193 0.0
H2415 H 0.43448 0.48739 0.78647 0.0
H2416 H 0.45015 0.49068 0.81106 0.0
H2417 H 0.41495 0.52239 0.83033 0.0
H2418 H 0.39908 0.51918 0.80548 0.0
H2419 H 0.42264 0.49747 0.85083 0.0
H2420 H 0.45061 0.53792 0.82187 0.0
H2421 H 0.46448 0.54976 0.7988 0.0
H2422 H 0.50058 0.51423 0.8018 0.0
H2423 H 0.4868 0.50202 0.82474 0.0
C2424 C 0.47623 0.49983 0.90904 0.0
C2425 C 0.48993 0.4906 0.90704 0.0
C2426 C 0.46676 0.50374 0.89582 0.0
C2427 C 0.4707 0.4983 0.88038 0.0
C2428 C 0.48441 0.48913 0.87838 0.0
C2429 C 0.4939 0.48532 0.89154 0.0
C2430 C 0.46056 0.50192 0.86622 0.0
C2431 C 0.46789 0.50889 0.85286 0.0
C2432 C 0.44393 0.49813 0.86559 0.0
C2433 C 0.43555 0.49007 0.87891 0.0
C2434 C 0.44059 0.47515 0.8844 0.0
C2435 C 0.43264 0.46765 0.89701 0.0
C2436 C 0.41955 0.47489 0.90413 0.0
C2437 C 0.41434 0.48962 0.89862 0.0
C2438 C 0.42226 0.49718 0.88603 0.0
C2439 C 0.43016 0.49529 0.79581 0.0
C2440 C 0.41553 0.50302 0.79403 0.0
C2441 C 0.43918 0.49721 0.80986 0.0
C2442 C 0.43377 0.50684 0.82252 0.0
C2443 C 0.41936 0.51495 0.82067 0.0
C2444 C 0.41038 0.51319 0.80645 0.0
C2445 C 0.44274 0.5073 0.83795 0.0
C2446 C 0.43521 0.50107 0.85154 0.0
C2447 C 0.45921 0.51165 0.83876 0.0
C2448 C 0.46761 0.519 0.825 0.0
C2449 C 0.46145 0.53256 0.81755 0.0
C2450 C 0.4693 0.53935 0.8045 0.0
C2451 C 0.48339 0.53274 0.79882 0.0
C2452 C 0.48966 0.51934 0.80621 0.0
C2453 C 0.48185 0.5125 0.81926 0.0
H2454 H 0.48945 0.53801 0.78872 0.0
H2455 H 0.41341 0.46906 0.91389 0.0
H2456 H 0.68912 0.7645 0.12121 0.0
H2457 H 0.69379 0.74569 0.09909 0.0
H2458 H 0.73195 0.72475 0.12597 0.0
H2459 H 0.72718 0.74329 0.14829 0.0
H2460 H 0.74067 0.73095 0.09521 0.0
H2461 H 0.69655 0.70497 0.1217 0.0
H2462 H 0.66965 0.70311 0.13349 0.0
H2463 H 0.64849 0.71377 0.08804 0.0
H2464 H 0.6753 0.71592 0.07602 0.0
H2465 H 0.75137 0.66286 0.04462 0.0
H2466 H 0.74622 0.68057 0.06746 0.0
H2467 H 0.70566 0.69953 0.04258 0.0
H2468 H 0.71047 0.68162 0.01983 0.0
H2469 H 0.69821 0.69418 0.07263 0.0
H2470 H 0.74184 0.72073 0.0461 0.0
H2471 H 0.76857 0.72312 0.03399 0.0
H2472 H 0.79045 0.71213 0.07901 0.0
H2473 H 0.76382 0.70946 0.09134 0.0
C2474 C 0.69835 0.75574 0.12255 0.0
C2475 C 0.70776 0.75543 0.13659 0.0
C2476 C 0.70104 0.74503 0.10984 0.0
C2477 C 0.71316 0.73374 0.1109 0.0
C2478 C 0.72257 0.73339 0.12487 0.0
C2479 C 0.71986 0.74406 0.1376 0.0
C2480 C 0.71621 0.7225 0.09733 0.0
C2481 C 0.73145 0.72274 0.09041 0.0
C2482 C 0.70408 0.71209 0.0908 0.0
C2483 C 0.68794 0.71076 0.098 0.0
C2484 C 0.68617 0.70705 0.11425 0.0
C2485 C 0.67094 0.70592 0.12097 0.0
C2486 C 0.65737 0.70836 0.11153 0.0
C2487 C 0.65901 0.7119 0.09534 0.0
C2488 C 0.67422 0.71306 0.08856 0.0
C2489 C 0.74136 0.6708 0.04395 0.0
C2490 C 0.73139 0.67082 0.03029 0.0
C2491 C 0.73847 0.68099 0.05703 0.0
C2492 C 0.72567 0.69157 0.05669 0.0
C2493 C 0.71561 0.6915 0.04314 0.0
C2494 C 0.71843 0.68127 0.0301 0.0
C2495 C 0.72268 0.70262 0.07046 0.0
C2496 C 0.70745 0.70236 0.07742 0.0
C2497 C 0.7348 0.71309 0.07697 0.0
C2498 C 0.75083 0.71474 0.0696 0.0
C2499 C 0.75235 0.7187 0.05338 0.0
C2500 C 0.76748 0.72013 0.04649 0.0
C2501 C 0.7812 0.71774 0.05571 0.0
C2502 C 0.77981 0.71396 0.07187 0.0
C2503 C 0.7647 0.7125 0.07883 0.0
H2504 H 0.79291 0.71885 0.05035 0.0
H2505 H 0.64559 0.70748 0.11676 0.0
H2506 H 0.97912 0.05042 0.10637 0.0
H2507 H 0.96263 0.04484 0.12975 0.0
H2508 H 0.98974 0.00267 0.13911 0.0
H2509 H 0.00645 0.00827 0.11592 0.0
H2510 H 0.95775 0.99655 0.14148 0.0
H2511 H 0.99584 0.03666 0.16136 0.0
H2512 H 0.01044 0.0628 0.16147 0.0
H2513 H 0.96614 0.08726 0.16618 0.0
H2514 H 0.95125 0.06125 0.16587 0.0
H2515 H 0.93267 0.97997 0.21981 0.0
H2516 H 0.94873 0.98706 0.19666 0.0
H2517 H 0.92158 0.02984 0.19054 0.0
H2518 H 0.9056 0.02302 0.21397 0.0
H2519 H 0.95272 0.03617 0.18605 0.0
H2520 H 0.91456 0.99638 0.16688 0.0
H2521 H 0.89971 0.97039 0.16697 0.0
H2522 H 0.94356 0.94551 0.16058 0.0
H2523 H 0.95872 0.97137 0.16072 0.0
C2524 C 0.98171 0.04005 0.11349 0.0
C2525 C 0.99417 0.02982 0.10924 0.0
C2526 C 0.97222 0.03685 0.12684 0.0
C2527 C 0.97502 0.0234 0.13627 0.0
C2528 C 0.98733 0.01309 0.13199 0.0
C2529 C 0.99684 0.01629 0.11868 0.0
C2530 C 0.96509 0.02 0.15055 0.0
C2531 C 0.9568 0.00514 0.15131 0.0
C2532 C 0.96348 0.03137 0.16318 0.0
C2533 C 0.97242 0.04701 0.16342 0.0
C2534 C 0.9892 0.04762 0.16229 0.0
C2535 C 0.99753 0.06241 0.16241 0.0
C2536 C 0.98922 0.07668 0.16379 0.0
C2537 C 0.97256 0.07619 0.16509 0.0
C2538 C 0.96417 0.06143 0.16495 0.0
C2539 C 0.9301 0.99093 0.21361 0.0
C2540 C 0.91774 1.00087 0.21876 0.0
C2541 C 0.93928 0.99493 0.2003 0.0
C2542 C 0.9362 0.00885 0.19167 0.0
C2543 C 0.92414 0.01901 0.19697 0.0
C2544 C 0.91499 0.01507 0.21037 0.0
C2545 C 0.94549 0.01266 0.17705 0.0
C2546 C 0.95362 0.0276 0.1762 0.0
C2547 C 0.9469 1.00139 0.16429 0.0
C2548 C 0.93779 0.98582 0.16396 0.0
C2549 C 0.92105 0.98537 0.1656 0.0
C2550 C 0.91258 0.97066 0.1656 0.0
C2551 C 0.9207 0.95631 0.16382 0.0
C2552 C 0.9373 0.95664 0.16198 0.0
C2553 C 0.94583 0.97132 0.16201 0.0
H2554 H 0.91411 0.94493 0.16384 0.0
H2555 H 0.99569 0.08813 0.16388 0.0
H2556 H 0.30982 0.74644 0.11589 0.0
H2557 H 0.30497 0.76688 0.09584 0.0
H2558 H 0.28251 0.79638 0.13161 0.0
H2559 H 0.28697 0.77585 0.1516 0.0
H2560 H 0.26511 0.79471 0.1043 0.0
H2561 H 0.32011 0.80552 0.1188 0.0
H2562 H 0.34836 0.79889 0.12317 0.0
H2563 H 0.35244 0.78517 0.07366 0.0
H2564 H 0.32413 0.79151 0.06903 0.0
H2565 H 0.26004 0.86521 0.05943 0.0
H2566 H 0.26803 0.8467 0.08024 0.0
H2567 H 0.2914 0.81749 0.04487 0.0
H2568 H 0.28371 0.83612 0.02402 0.0
H2569 H 0.3087 0.81924 0.07214 0.0
H2570 H 0.2539 0.80747 0.05764 0.0
H2571 H 0.22558 0.81359 0.05293 0.0
H2572 H 0.22103 0.82842 0.10209 0.0
H2573 H 0.24941 0.8226 0.10704 0.0
C2574 C 0.30377 0.75724 0.11947 0.0
C2575 C 0.29881 0.75952 0.13537 0.0
C2576 C 0.30114 0.76898 0.10803 0.0
C2577 C 0.29353 0.78325 0.11226 0.0
C2578 C 0.28847 0.7855 0.12808 0.0
C2579 C 0.29113 0.7738 0.13953 0.0
C2580 C 0.2905 0.79568 0.10012 0.0
C2581 C 0.27468 0.80025 0.09744 0.0
C2582 C 0.30292 0.80261 0.09087 0.0
C2583 C 0.31996 0.79884 0.09361 0.0
C2584 C 0.32699 0.80096 0.10887 0.0
C2585 C 0.34302 0.79728 0.11139 0.0
C2586 C 0.35218 0.79157 0.09871 0.0
C2587 C 0.34533 0.78957 0.08347 0.0
C2588 C 0.32929 0.79322 0.08089 0.0
C2589 C 0.26707 0.85497 0.0561 0.0
C2590 C 0.27114 0.85208 0.04005 0.0
C2591 C 0.27156 0.84435 0.06801 0.0
C2592 C 0.28005 0.83052 0.06408 0.0
C2593 C 0.2848 0.82803 0.04818 0.0
C2594 C 0.28037 0.83869 0.03627 0.0
C2595 C 0.28333 0.81831 0.07638 0.0
C2596 C 0.29916 0.81375 0.07905 0.0
C2597 C 0.27091 0.8113 0.0856 0.0
C2598 C 0.25382 0.81475 0.08267 0.0
C2599 C 0.24689 0.81215 0.06742 0.0
C2600 C 0.23082 0.81555 0.0647 0.0
C2601 C 0.22152 0.82143 0.07719 0.0
C2602 C 0.22826 0.82389 0.09242 0.0
C2603 C 0.24433 0.82053 0.09519 0.0
H2604 H 0.20908 0.82406 0.07507 0.0
H2605 H 0.36459 0.78873 0.10069 0.0
H2606 H 0.03628 0.4997 0.09391 0.0
H2607 H 0.05365 0.50313 0.11745 0.0
H2608 H 0.01689 0.48169 0.14675 0.0
H2609 H 0.99973 0.47758 0.12316 0.0
H2610 H 0.05119 0.52 0.1439 0.0
H2611 H 0.03355 0.46158 0.1773 0.0
H2612 H 0.02468 0.43368 0.17091 0.0
H2613 H 0.04717 0.43657 0.12503 0.0
H2614 H 0.05636 0.46439 0.13122 0.0
H2615 H 0.07516 0.52842 0.2241 0.0
H2616 H 0.05937 0.52193 0.20011 0.0
H2617 H 0.09246 0.48523 0.18705 0.0
H2618 H 0.10824 0.49141 0.21133 0.0
H2619 H 0.06249 0.47522 0.18038 0.0
H2620 H 0.09465 0.52198 0.17001 0.0
H2621 H 0.10592 0.54918 0.17566 0.0
H2622 H 0.05892 0.56852 0.17272 0.0
H2623 H 0.04733 0.54137 0.16736 0.0
C2624 C 0.03195 0.49551 0.10532 0.0
C2625 C 0.0166 0.48828 0.10658 0.0
C2626 C 0.04186 0.49762 0.11881 0.0
C2627 C 0.03668 0.49252 0.13388 0.0
C2628 C 0.02129 0.4855 0.13523 0.0
C2629 C 0.01139 0.48333 0.12173 0.0
C2630 C 0.04728 0.49476 0.14821 0.0
C2631 C 0.05366 0.51019 0.15185 0.0
C2632 C 0.05084 0.48192 0.15845 0.0
C2633 C 0.0455 0.46513 0.15468 0.0
C2634 C 0.03665 0.45624 0.16587 0.0
C2635 C 0.03156 0.44044 0.16228 0.0
C2636 C 0.03531 0.43338 0.14756 0.0
C2637 C 0.04421 0.44207 0.13641 0.0
C2638 C 0.04935 0.45787 0.13995 0.0
C2639 C 0.07907 0.51887 0.21622 0.0
C2640 C 0.09309 0.51053 0.21961 0.0
C2641 C 0.07003 0.51521 0.20245 0.0
C2642 C 0.07489 0.50331 0.19159 0.0
C2643 C 0.08851 0.49452 0.19522 0.0
C2644 C 0.09753 0.49808 0.2091 0.0
C2645 C 0.06602 0.50051 0.17624 0.0
C2646 C 0.06001 0.485 0.1724 0.0
C2647 C 0.06313 0.51319 0.16559 0.0
C2648 C 0.0701 0.52961 0.1684 0.0
C2649 C 0.08671 0.53202 0.17065 0.0
C2650 C 0.09315 0.54743 0.17381 0.0
C2651 C 0.08314 0.56056 0.17458 0.0
C2652 C 0.06666 0.55832 0.17213 0.0
C2653 C 0.06015 0.54292 0.16903 0.0
H2654 H 0.08815 0.57248 0.17704 0.0
H2655 H 0.03135 0.42115 0.1448 0.0
H2656 H 0.38786 0.68851 0.24679 0.0
H2657 H 0.40938 0.69263 0.26656 0.0
H2658 H 0.38841 0.73667 0.28256 0.0
H2659 H 0.36628 0.73224 0.26366 0.0
H2660 H 0.42392 0.73697 0.2734 0.0
H2661 H 0.38347 0.71062 0.30611 0.0
H2662 H 0.36438 0.68857 0.3124 0.0
H2663 H 0.40258 0.65515 0.31212 0.0
H2664 H 0.42186 0.677 0.30558 0.0
H2665 H 0.46561 0.76155 0.34296 0.0
H2666 H 0.44584 0.75413 0.3223 0.0
H2667 H 0.46052 0.70487 0.32393 0.0
H2668 H 0.47993 0.71231 0.34528 0.0
H2669 H 0.42951 0.70511 0.32265 0.0
H2670 H 0.4704 0.73005 0.29227 0.0
H2671 H 0.49057 0.75081 0.28535 0.0
H2672 H 0.45363 0.78509 0.27947 0.0
H2673 H 0.43321 0.76456 0.28664 0.0
C2674 C 0.38757 0.69892 0.25469 0.0
C2675 C 0.37523 0.71006 0.25348 0.0
C2676 C 0.39999 0.7013 0.2659 0.0
C2677 C 0.40046 0.71496 0.27593 0.0
C2678 C 0.38827 0.7261 0.27481 0.0
C2679 C 0.37569 0.72359 0.26386 0.0
C2680 C 0.41383 0.71787 0.28743 0.0
C2681 C 0.4251 0.73014 0.28426 0.0
C2682 C 0.41563 0.70851 0.30123 0.0
C2683 C 0.40406 0.69539 0.30513 0.0
C2684 C 0.38776 0.69854 0.3072 0.0
C2685 C 0.37692 0.68609 0.31086 0.0
C2686 C 0.38225 0.67046 0.3126 0.0
C2687 C 0.39846 0.66726 0.31073 0.0
C2688 C 0.40935 0.67967 0.30705 0.0
C2689 C 0.46447 0.74911 0.339 0.0
C2690 C 0.47379 0.73737 0.34603 0.0
C2691 C 0.45336 0.74491 0.32701 0.0
C2692 C 0.45173 0.72894 0.32141 0.0
C2693 C 0.46148 0.71725 0.3281 0.0
C2694 C 0.47257 0.72148 0.34022 0.0
C2695 C 0.43956 0.72453 0.30888 0.0
C2696 C 0.42849 0.71194 0.31178 0.0
C2697 C 0.43811 0.73342 0.29466 0.0
C2698 C 0.45029 0.74578 0.29011 0.0
C2699 C 0.46658 0.74204 0.28959 0.0
C2700 C 0.47806 0.75378 0.28562 0.0
C2701 C 0.4734 0.76929 0.28199 0.0
C2702 C 0.45722 0.77307 0.28229 0.0
C2703 C 0.44568 0.76138 0.28629 0.0
H2704 H 0.48231 0.77837 0.27892 0.0
H2705 H 0.37384 0.66083 0.31544 0.0
H2706 H 0.96323 0.39052 0.99748 0.0
H2707 H 0.96873 0.36654 0.9815 0.0
H2708 H 0.00623 0.39251 0.95696 0.0
H2709 H 1.0004 0.41678 0.97252 0.0
H2710 H 0.9886 0.37466 0.93621 0.0
H2711 H 0.01517 0.36537 0.98576 0.0
H2712 H 0.01798 0.36349 0.01505 0.0
H2713 H 0.9816 0.32607 0.01544 0.0
H2714 H 0.9784 0.32788 0.98617 0.0
H2715 H 0.01538 0.30197 0.8995 0.0
H2716 H 0.01613 0.32636 0.91647 0.0
H2717 H 0.97523 0.30835 0.94239 0.0
H2718 H 0.97436 0.28411 0.9256 0.0
H2719 H 0.99814 0.32271 0.96237 0.0
H2720 H 0.96999 0.3341 0.91323 0.0
H2721 H 0.96729 0.33585 0.88392 0.0
H2722 H 0.00723 0.36938 0.88293 0.0
H2723 H 0.01032 0.36762 0.91224 0.0
C2724 C 0.97254 0.39122 0.98857 0.0
C2725 C 0.98138 0.40562 0.98632 0.0
C2726 C 0.97581 0.37741 0.97956 0.0
C2727 C 0.98808 0.37762 0.96818 0.0
C2728 C 0.99678 0.39202 0.96573 0.0
C2729 C 0.99351 0.40585 0.97473 0.0
C2730 C 0.9916 0.36284 0.95873 0.0
C2731 C 0.99099 0.36338 0.94195 0.0
C2732 C 0.99454 0.34803 0.96617 0.0
C2733 C 0.99646 0.34686 0.98378 0.0
C2734 C 0.00768 0.35682 0.99211 0.0
C2735 C 0.00936 0.35575 0.0087 0.0
C2736 C 0.99995 0.34469 0.0171 0.0
C2737 C 0.98887 0.33464 0.00892 0.0
C2738 C 0.98713 0.33567 0.99232 0.0
C2739 C 0.00671 0.30311 0.90898 0.0
C2740 C 0.99475 0.29113 0.91112 0.0
C2741 C 0.0071 0.31708 0.9186 0.0
C2742 C 0.99563 0.31923 0.93059 0.0
C2743 C 0.98418 0.30696 0.93321 0.0
C2744 C 0.98367 0.29313 0.92353 0.0
C2745 C 0.99488 0.33453 0.93994 0.0
C2746 C 0.99598 0.33407 0.95668 0.0
C2747 C 0.99244 0.3494 0.93247 0.0
C2748 C 0.99051 0.35058 0.91489 0.0
C2749 C 0.97828 0.34174 0.90674 0.0
C2750 C 0.97666 0.34275 0.89014 0.0
C2751 C 0.98711 0.35269 0.88156 0.0
C2752 C 0.99917 0.36167 0.88958 0.0
C2753 C 1.00085 0.36067 0.90619 0.0
H2754 H 0.98584 0.35346 0.8687 0.0
H2755 H 1.00127 0.34388 0.02995 0.0
H2756 H 0.63792 0.82681 0.27026 0.0
H2757 H 0.61738 0.82228 0.29049 0.0
H2758 H 0.60494 0.77634 0.26844 0.0
H2759 H 0.62536 0.78087 0.24813 0.0
H2760 H 0.57879 0.79113 0.27619 0.0
H2761 H 0.62806 0.77973 0.30303 0.0
H2762 H 0.65562 0.78538 0.31274 0.0
H2763 H 0.63949 0.8255 0.34058 0.0
H2764 H 0.61185 0.82021 0.33086 0.0
H2765 H 0.55603 0.76003 0.36022 0.0
H2766 H 0.57634 0.76836 0.34106 0.0
H2767 H 0.54357 0.80163 0.32056 0.0
H2768 H 0.52294 0.79283 0.33934 0.0
H2769 H 0.59227 0.79402 0.33409 0.0
H2770 H 0.55014 0.80495 0.28058 0.0
H2771 H 0.52357 0.79624 0.27006 0.0
H2772 H 0.5267 0.7518 0.29504 0.0
H2773 H 0.55339 0.76016 0.30554 0.0
C2774 C 0.63085 0.81571 0.26977 0.0
C2775 C 0.63331 0.80418 0.2576 0.0
C2776 C 0.61911 0.81313 0.28135 0.0
C2777 C 0.6097 0.79888 0.28112 0.0
C2778 C 0.612 0.78746 0.26886 0.0
C2779 C 0.62366 0.79007 0.25723 0.0
C2780 C 0.59751 0.79578 0.29365 0.0
C2781 C 0.58174 0.79183 0.28885 0.0
C2782 C 0.60134 0.7965 0.31019 0.0
C2783 C 0.61793 0.79968 0.31609 0.0
C2784 C 0.63041 0.78983 0.31113 0.0
C2785 C 0.64604 0.79296 0.31665 0.0
C2786 C 0.64931 0.80582 0.32724 0.0
C2787 C 0.63695 0.81556 0.33236 0.0
C2788 C 0.6213 0.8125 0.32685 0.0
C2789 C 0.55318 0.76924 0.35174 0.0
C2790 C 0.53782 0.77567 0.35121 0.0
C2791 C 0.56484 0.77402 0.34078 0.0
C2792 C 0.56145 0.78542 0.32912 0.0
C2793 C 0.54638 0.79253 0.32916 0.0
C2794 C 0.53462 0.78757 0.33999 0.0
C2795 C 0.57352 0.78931 0.31664 0.0
C2796 C 0.58927 0.79346 0.32144 0.0
C2797 C 0.56976 0.7884 0.30007 0.0
C2798 C 0.55368 0.78326 0.29398 0.0
C2799 C 0.54516 0.79331 0.28382 0.0
C2800 C 0.53009 0.78844 0.27785 0.0
C2801 C 0.52345 0.77349 0.2819 0.0
C2802 C 0.53185 0.76339 0.29195 0.0
C2803 C 0.54694 0.7682 0.29793 0.0
H2804 H 0.51185 0.76973 0.27717 0.0
H2805 H 0.66142 0.80822 0.3315 0.0
H2806 H 0.01562 0.09742 0.9706 0.0
H2807 H 0.01024 0.11975 0.95294 0.0
H2808 H 0.03217 0.15289 0.98735 0.0
H2809 H 0.03821 0.13056 0.00476 0.0
H2810 H 0.99255 0.145 0.95582 0.0
H2811 H 0.05018 0.18406 0.96842 0.0
H2812 H 0.07859 0.18033 0.97532 0.0
H2813 H 0.07616 0.13293 0.95427 0.0
H2814 H 0.04783 0.13645 0.94705 0.0
H2815 H 0.97994 0.22255 0.92645 0.0
H2816 H 0.9867 0.20005 0.94336 0.0
H2817 H 0.02542 0.18841 0.91177 0.0
H2818 H 0.01915 0.21136 0.89523 0.0
H2819 H 0.03506 0.18435 0.94035 0.0
H2820 H 0.98784 0.16735 0.91143 0.0
H2821 H 0.96011 0.16932 0.90148 0.0
H2822 H 0.94283 0.16885 0.9497 0.0
H2823 H 0.97048 0.16714 0.95995 0.0
C2824 C 0.0195 0.10943 0.97433 0.0
C2825 C 0.02744 0.11214 0.9891 0.0
C2826 C 0.01626 0.12222 0.96428 0.0
C2827 C 0.02091 0.13802 0.96871 0.0
C2828 C 0.02865 0.1408 0.98353 0.0
C2829 C 0.03195 0.12801 0.99357 0.0
C2830 C 0.01759 0.15159 0.9579 0.0
C2831 C 1.00185 0.1536 0.95244 0.0
C2832 C 0.02975 0.16264 0.95316 0.0
C2833 C 0.04683 0.16047 0.95736 0.0
C2834 C 0.05573 0.17286 0.96522 0.0
C2835 C 0.07181 0.17078 0.96919 0.0
C2836 C 0.07915 0.15638 0.96528 0.0
C2837 C 0.07044 0.14405 0.95735 0.0
C2838 C 0.05436 0.14607 0.95334 0.0
C2839 C 0.98993 0.21523 0.92313 0.0
C2840 C 0.99896 0.21872 0.90945 0.0
C2841 C 0.99374 0.20229 0.93277 0.0
C2842 C 0.00639 0.19226 0.92871 0.0
C2843 C 0.0156 0.19591 0.9152 0.0
C2844 C 0.01199 0.20904 0.90572 0.0
C2845 C 0.00995 0.17793 0.93845 0.0
C2846 C 0.02574 0.17577 0.94373 0.0
C2847 C 0.99791 0.16645 0.9426 0.0
C2848 C 0.98125 0.16725 0.93646 0.0
C2849 C 0.97813 0.16776 0.91992 0.0
C2850 C 0.96243 0.16882 0.91422 0.0
C2851 C 0.94972 0.16924 0.92495 0.0
C2852 C 0.95269 0.16854 0.9414 0.0
C2853 C 0.96837 0.16752 0.94716 0.0
H2854 H 0.93757 0.17007 0.92052 0.0
H2855 H 0.0916 0.1548 0.96837 0.0
H2856 H 0.39363 0.31415 0.26946 0.0
H2857 H 0.41459 0.30831 0.2505 0.0
H2858 H 0.3792 0.30096 0.21301 0.0
H2859 H 0.358 0.30523 0.23226 0.0
H2860 H 0.39919 0.27957 0.20933 0.0
H2861 H 0.40563 0.336 0.21681 0.0
H2862 H 0.40877 0.36187 0.23144 0.0
H2863 H 0.45314 0.34683 0.25176 0.0
H2864 H 0.45016 0.32076 0.23743 0.0
H2865 H 0.45944 0.28119 0.14875 0.0
H2866 H 0.43919 0.29368 0.16574 0.0
H2867 H 0.46403 0.27803 0.20786 0.0
H2868 H 0.4839 0.26501 0.1909 0.0
H2869 H 0.44914 0.31305 0.20687 0.0
H2870 H 0.43898 0.25467 0.19992 0.0
H2871 H 0.43571 0.23071 0.18231 0.0
H2872 H 0.39699 0.25264 0.15755 0.0
H2873 H 0.40029 0.27689 0.17481 0.0
C2874 C 0.39018 0.31106 0.25726 0.0
C2875 C 0.37395 0.31014 0.25255 0.0
C2876 C 0.4023 0.30803 0.24629 0.0
C2877 C 0.39861 0.30451 0.23015 0.0
C2878 C 0.38245 0.30373 0.22534 0.0
C2879 C 0.37029 0.3064 0.2364 0.0
C2880 C 0.41154 0.30099 0.21848 0.0
C2881 C 0.40995 0.28711 0.20869 0.0
C2882 C 0.42573 0.3107 0.21749 0.0
C2883 C 0.42759 0.32636 0.22614 0.0
C2884 C 0.416 0.33816 0.22449 0.0
C2885 C 0.41776 0.35287 0.23272 0.0
C2886 C 0.43113 0.35598 0.24255 0.0
C2887 C 0.44278 0.34439 0.24415 0.0
C2888 C 0.44107 0.32966 0.23596 0.0
C2889 C 0.46079 0.28088 0.16165 0.0
C2890 C 0.47323 0.27235 0.16861 0.0
C2891 C 0.44924 0.28794 0.17131 0.0
C2892 C 0.45019 0.28678 0.18802 0.0
C2893 C 0.4632 0.27915 0.19499 0.0
C2894 C 0.47451 0.27175 0.18533 0.0
C2895 C 0.43668 0.29171 0.19815 0.0
C2896 C 0.43823 0.30574 0.20756 0.0
C2897 C 0.4223 0.28241 0.19853 0.0
C2898 C 0.42 0.26765 0.18852 0.0
C2899 C 0.42986 0.25443 0.19063 0.0
C2900 C 0.428 0.2408 0.18072 0.0
C2901 C 0.41617 0.24017 0.1688 0.0
C2902 C 0.40616 0.25315 0.16678 0.0
C2903 C 0.40803 0.26685 0.17662 0.0
H2904 H 0.41474 0.22959 0.16115 0.0
H2905 H 0.43247 0.36737 0.24891 0.0
H2906 H 0.5452 0.40236 0.03476 0.0
H2907 H 0.54023 0.37915 0.05162 0.0
H2908 H 0.49668 0.36771 0.02527 0.0
H2909 H 0.50158 0.39103 0.00832 0.0
H2910 H 0.49209 0.36433 0.05676 0.0
H2911 H 0.53035 0.34619 0.01898 0.0
H2912 H 0.55529 0.34725 0.00346 0.0
H2913 H 0.58298 0.34633 0.04692 0.0
H2914 H 0.5582 0.3455 0.06273 0.0
H2915 H 0.48537 0.28555 0.09096 0.0
H2916 H 0.48741 0.30785 0.07221 0.0
H2917 H 0.5308 0.32503 0.09587 0.0
H2918 H 0.52891 0.30285 0.11449 0.0
H2919 H 0.53418 0.32416 0.0638 0.0
H2920 H 0.49556 0.34371 0.10148 0.0
H2921 H 0.47047 0.34255 0.11676 0.0
H2922 H 0.44323 0.34027 0.07295 0.0
H2923 H 0.46819 0.3412 0.0574 0.0
C2924 C 0.53463 0.39484 0.03244 0.0
C2925 C 0.52387 0.39849 0.02008 0.0
C2926 C 0.53178 0.38157 0.04211 0.0
C2927 C 0.5182 0.3715 0.03957 0.0
C2928 C 0.50726 0.37527 0.02745 0.0
C2929 C 0.51007 0.38862 0.01778 0.0
C2930 C 0.51554 0.35708 0.04959 0.0
C2931 C 0.50118 0.3554 0.0581 0.0
C2932 C 0.52747 0.34551 0.05151 0.0
C2933 C 0.54241 0.34591 0.04204 0.0
C2934 C 0.54176 0.34633 0.02524 0.0
C2935 C 0.55587 0.34687 0.01639 0.0
C2936 C 0.57071 0.34689 0.0242 0.0
C2937 C 0.57147 0.34633 0.04089 0.0
C2938 C 0.5574 0.3458 0.0498 0.0
C2939 C 0.49529 0.29413 0.0922 0.0
C2940 C 0.50697 0.29242 0.10422 0.0
C2941 C 0.49642 0.30689 0.0815 0.0
C2942 C 0.50924 0.31816 0.08266 0.0
C2943 C 0.52084 0.31648 0.0947 0.0
C2944 C 0.5197 0.30379 0.10539 0.0
C2945 C 0.51088 0.33157 0.07121 0.0
C2946 C 0.52504 0.33303 0.06238 0.0
C2947 C 0.49874 0.34287 0.06896 0.0
C2948 C 0.48374 0.34234 0.07829 0.0
C2949 C 0.48422 0.34282 0.09511 0.0
C2950 C 0.47003 0.34223 0.10382 0.0
C2951 C 0.45527 0.34128 0.09583 0.0
C2952 C 0.45468 0.34097 0.07912 0.0
C2953 C 0.46884 0.34154 0.07035 0.0
H2954 H 0.44429 0.34083 0.10259 0.0
H2955 H 0.58162 0.34731 0.01733 0.0
H2956 H 0.64819 0.19166 0.23519 0.0
H2957 H 0.62676 0.19759 0.21616 0.0
H2958 H 0.60782 0.23177 0.2499 0.0
H2959 H 0.62931 0.2261 0.26877 0.0
H2960 H 0.59572 0.19446 0.2162 0.0
H2961 H 0.59171 0.26278 0.23124 0.0
H2962 H 0.60955 0.28534 0.24013 0.0
H2963 H 0.64999 0.26129 0.22074 0.0
H2964 H 0.63237 0.23869 0.21153 0.0
H2965 H 0.52235 0.22203 0.18823 0.0
H2966 H 0.54575 0.21679 0.2047 0.0
H2967 H 0.5754 0.24495 0.17314 0.0
H2968 H 0.55188 0.25068 0.15678 0.0
H2969 H 0.58439 0.25083 0.20267 0.0
H2970 H 0.57438 0.20353 0.17125 0.0
H2971 H 0.55811 0.18106 0.15954 0.0
H2972 H 0.54943 0.16272 0.20645 0.0
H2973 H 0.56542 0.18525 0.21847 0.0
C2974 C 0.6394 0.20038 0.23855 0.0
C2975 C 0.64053 0.20853 0.25341 0.0
C2976 C 0.62717 0.20378 0.22767 0.0
C2977 C 0.61581 0.21534 0.23145 0.0
C2978 C 0.61666 0.22311 0.2465 0.0
C2979 C 0.62894 0.21984 0.2573 0.0
C2980 C 0.60302 0.21929 0.21977 0.0
C2981 C 0.59328 0.20678 0.21322 0.0
C2982 C 0.60005 0.23534 0.21549 0.0
C2983 C 0.61072 0.24897 0.22082 0.0
C2984 C 0.60439 0.26234 0.22881 0.0
C2985 C 0.61447 0.27513 0.23392 0.0
C2986 C 0.6309 0.27473 0.23104 0.0
C2987 C 0.63727 0.26156 0.22301 0.0
C2988 C 0.62725 0.24875 0.21785 0.0
C2989 C 0.53382 0.22721 0.1848 0.0
C2990 C 0.53522 0.23671 0.1711 0.0
C2991 C 0.54723 0.22411 0.19421 0.0
C2992 C 0.56242 0.23019 0.18999 0.0
C2993 C 0.56382 0.24007 0.1766 0.0
C2994 C 0.55035 0.24333 0.16725 0.0
C2995 C 0.57682 0.22605 0.19951 0.0
C2996 C 0.58687 0.23851 0.20561 0.0
C2997 C 0.58037 0.20992 0.20296 0.0
C2998 C 0.57101 0.19616 0.19577 0.0
C2999 C 0.56894 0.19476 0.17908 0.0
C3000 C 0.55976 0.18201 0.17238 0.0
C3001 C 0.55272 0.17049 0.18225 0.0
C3002 C 0.55489 0.17166 0.19883 0.0
C3003 C 0.56401 0.18441 0.20559 0.0
H3004 H 0.54561 0.16064 0.17704 0.0
H3005 H 0.63868 0.28464 0.23502 0.0
H3006 H 0.49253 0.09469 0.04447 0.0
H3007 H 0.49602 0.11773 0.06248 0.0
H3008 H 0.49163 0.14963 0.02264 0.0
H3009 H 0.48654 0.12666 0.00472 0.0
H3010 H 0.51664 0.13958 0.06658 0.0
H3011 H 0.47779 0.1855 0.03409 0.0
H3012 H 0.4539 0.18594 0.01656 0.0
H3013 H 0.43701 0.14109 0.03563 0.0
H3014 H 0.46069 0.14048 0.0534 0.0
H3015 H 0.52999 0.21379 0.10815 0.0
H3016 H 0.52784 0.19138 0.08913 0.0
H3017 H 0.47632 0.19134 0.09317 0.0
H3018 H 0.47866 0.21569 0.1097 0.0
H3019 H 0.48007 0.18537 0.0662 0.0
H3020 H 0.50624 0.15523 0.1092 0.0
H3021 H 0.52705 0.15059 0.12977 0.0
H3022 H 0.56368 0.15848 0.09487 0.0
H3023 H 0.54302 0.16288 0.07419 0.0
C3024 C 0.49192 0.10657 0.03949 0.0
C3025 C 0.48897 0.10866 0.02305 0.0
C3026 C 0.49418 0.11981 0.04984 0.0
C3027 C 0.49387 0.13553 0.04405 0.0
C3028 C 0.49155 0.13768 0.02756 0.0
C3029 C 0.4889 0.12444 0.01723 0.0
C3030 C 0.49594 0.14953 0.05535 0.0
C3031 C 0.50857 0.14956 0.06653 0.0
C3032 C 0.48543 0.16257 0.0555 0.0
C3033 C 0.4711 0.16287 0.04493 0.0
C3034 C 0.46895 0.17576 0.03456 0.0
C3035 C 0.45545 0.17603 0.02458 0.0
C3036 C 0.44398 0.16352 0.02494 0.0
C3037 C 0.44594 0.15074 0.03532 0.0
C3038 C 0.45941 0.15041 0.04533 0.0
C3039 C 0.51822 0.20882 0.10508 0.0
C3040 C 0.50446 0.21588 0.11123 0.0
C3041 C 0.51698 0.19573 0.09437 0.0
C3042 C 0.50193 0.18889 0.09001 0.0
C3043 C 0.48817 0.19605 0.09626 0.0
C3044 C 0.48945 0.20972 0.10622 0.0
C3045 C 0.50035 0.17516 0.07814 0.0
C3046 C 0.48803 0.17533 0.06652 0.0
C3047 C 0.51071 0.16192 0.07804 0.0
C3048 C 0.52316 0.15981 0.09041 0.0
C3049 C 0.51875 0.15624 0.10611 0.0
C3050 C 0.53049 0.15355 0.11771 0.0
C3051 C 0.54668 0.15449 0.11369 0.0
C3052 C 0.55114 0.15788 0.098 0.0
C3053 C 0.53943 0.16038 0.08633 0.0
H3054 H 0.55575 0.15245 0.12269 0.0
H3055 H 0.43354 0.16375 0.0172 0.0
H3056 H 0.23846 0.39617 0.72348 0.0
H3057 H 0.25969 0.41637 0.7292 0.0
H3058 H 0.29039 0.39289 0.69554 0.0
H3059 H 0.26909 0.37316 0.68906 0.0
H3060 H 0.30002 0.39758 0.73173 0.0
H3061 H 0.28254 0.42367 0.68324 0.0
H3062 H 0.26242 0.43647 0.66631 0.0
H3063 H 0.25502 0.47202 0.70311 0.0
H3064 H 0.27494 0.45927 0.72037 0.0
H3065 H 0.35677 0.47294 0.71535 0.0
H3066 H 0.3364 0.45221 0.70843 0.0
H3067 H 0.33046 0.44232 0.75857 0.0
H3068 H 0.3517 0.46199 0.76525 0.0
H3069 H 0.30693 0.45417 0.71523 0.0
H3070 H 0.3151 0.41921 0.76605 0.0
H3071 H 0.32898 0.40047 0.78358 0.0
H3072 H 0.35049 0.37845 0.74258 0.0
H3073 H 0.33749 0.39777 0.72494 0.0
C3074 C 0.24954 0.39553 0.71693 0.0
C3075 C 0.25208 0.38284 0.70594 0.0
C3076 C 0.26167 0.40708 0.72026 0.0
C3077 C 0.27654 0.40608 0.71276 0.0
C3078 C 0.27895 0.39383 0.70142 0.0
C3079 C 0.2668 0.38245 0.69789 0.0
C3080 C 0.29022 0.41656 0.71804 0.0
C3081 C 0.30165 0.40997 0.72809 0.0
C3082 C 0.29202 0.43273 0.71354 0.0
C3083 C 0.28007 0.44039 0.70317 0.0
C3084 C 0.27649 0.4341 0.6878 0.0
C3085 C 0.26516 0.44138 0.67812 0.0
C3086 C 0.25741 0.45502 0.68365 0.0
C3087 C 0.26101 0.46144 0.69886 0.0
C3088 C 0.27232 0.45419 0.70858 0.0
C3089 C 0.35147 0.46587 0.72479 0.0
C3090 C 0.35598 0.46881 0.74077 0.0
C3091 C 0.33979 0.45404 0.72088 0.0
C3092 C 0.3319 0.4453 0.73292 0.0
C3093 C 0.33667 0.44813 0.74891 0.0
C3094 C 0.34873 0.45961 0.75277 0.0
C3095 C 0.31741 0.43509 0.72867 0.0
C3096 C 0.30556 0.44178 0.71888 0.0
C3097 C 0.31507 0.41897 0.73362 0.0
C3098 C 0.32603 0.41051 0.74429 0.0
C3099 C 0.32345 0.41093 0.76088 0.0
C3100 C 0.331 0.40007 0.77081 0.0
C3101 C 0.34065 0.3883 0.7642 0.0
C3102 C 0.34309 0.38764 0.74769 0.0
C3103 C 0.33593 0.39877 0.73776 0.0
H3104 H 0.34626 0.37971 0.77187 0.0
H3105 H 0.24864 0.46064 0.67614 0.0
H3106 H 0.27078 0.63754 0.82176 0.0
H3107 H 0.29023 0.61654 0.81747 0.0
H3108 H 0.2655 0.60151 0.77402 0.0
H3109 H 0.24635 0.62284 0.77791 0.0
H3110 H 0.28871 0.58455 0.81524 0.0
H3111 H 0.29265 0.59024 0.7464 0.0
H3112 H 0.28934 0.61079 0.7258 0.0
H3113 H 0.3008 0.64805 0.76051 0.0
H3114 H 0.3044 0.62772 0.78124 0.0
H3115 H 0.33205 0.51901 0.78232 0.0
H3116 H 0.31228 0.53899 0.78952 0.0
H3117 H 0.34546 0.57699 0.77618 0.0
H3118 H 0.36491 0.55707 0.76838 0.0
H3119 H 0.31835 0.58294 0.76412 0.0
H3120 H 0.33559 0.56801 0.81652 0.0
H3121 H 0.34123 0.54947 0.83843 0.0
H3122 H 0.29176 0.53417 0.83903 0.0
H3123 H 0.28587 0.55248 0.81698 0.0
C3124 C 0.26952 0.62983 0.81123 0.0
C3125 C 0.25707 0.632 0.8001 0.0
C3126 C 0.28057 0.61772 0.80888 0.0
C3127 C 0.27945 0.60754 0.79533 0.0
C3128 C 0.26674 0.60934 0.78446 0.0
C3129 C 0.2557 0.62147 0.78678 0.0
C3130 C 0.29191 0.59547 0.79228 0.0
C3131 C 0.29518 0.58416 0.80405 0.0
C3132 C 0.3006 0.59515 0.77783 0.0
C3133 C 0.29861 0.60746 0.7654 0.0
C3134 C 0.29451 0.60282 0.74961 0.0
C3135 C 0.29258 0.61443 0.73791 0.0
C3136 C 0.2948 0.63072 0.74185 0.0
C3137 C 0.29902 0.63543 0.75748 0.0
C3138 C 0.30099 0.62387 0.76922 0.0
C3139 C 0.33517 0.53164 0.78112 0.0
C3140 C 0.35001 0.53647 0.77477 0.0
C3141 C 0.32387 0.54307 0.78528 0.0
C3142 C 0.32736 0.55957 0.7835 0.0
C3143 C 0.34239 0.56437 0.77758 0.0
C3144 C 0.35355 0.55296 0.77319 0.0
C3145 C 0.31518 0.57186 0.78705 0.0
C3146 C 0.3119 0.58323 0.77532 0.0
C3147 C 0.30682 0.57248 0.80171 0.0
C3148 C 0.31032 0.56151 0.815 0.0
C3149 C 0.32594 0.56061 0.82125 0.0
C3150 C 0.32918 0.55016 0.83371 0.0
C3151 C 0.31687 0.54062 0.84009 0.0
C3152 C 0.30129 0.54155 0.83406 0.0
C3153 C 0.29799 0.55198 0.8216 0.0
H3154 H 0.3194 0.53254 0.84973 0.0
H3155 H 0.29329 0.63968 0.73278 0.0
H3156 H 0.9138 0.47105 0.51122 0.0
H3157 H 0.88913 0.45589 0.51725 0.0
H3158 H 0.86454 0.48019 0.47952 0.0
H3159 H 0.88896 0.4957 0.47376 0.0
H3160 H 0.84645 0.47849 0.50588 0.0
H3161 H 0.87793 0.44186 0.47443 0.0
H3162 H 0.9018 0.42621 0.46833 0.0
H3163 H 0.89681 0.4015 0.51275 0.0
H3164 H 0.87302 0.41717 0.51921 0.0
H3165 H 0.78213 0.4288 0.48059 0.0
H3166 H 0.80679 0.44459 0.4844 0.0
H3167 H 0.81994 0.41495 0.52396 0.0
H3168 H 0.79503 0.39885 0.52014 0.0
H3169 H 0.84436 0.41894 0.50223 0.0
H3170 H 0.81014 0.45295 0.53148 0.0
H3171 H 0.78591 0.46828 0.53685 0.0
H3172 H 0.79573 0.49782 0.49631 0.0
H3173 H 0.81989 0.48251 0.49054 0.0
C3174 C 0.9031 0.47327 0.5043 0.0
C3175 C 0.9034 0.48455 0.49194 0.0
C3176 C 0.88904 0.4645 0.50769 0.0
C3177 C 0.875 0.4668 0.49875 0.0
C3178 C 0.87522 0.47819 0.48657 0.0
C3179 C 0.88925 0.48694 0.48317 0.0
C3180 C 0.86007 0.45726 0.50184 0.0
C3181 C 0.84598 0.46547 0.50501 0.0
C3182 C 0.85954 0.44024 0.50127 0.0
C3183 C 0.87383 0.43082 0.49739 0.0
C3184 C 0.88201 0.43319 0.48296 0.0
C3185 C 0.89551 0.42429 0.47943 0.0
C3186 C 0.90086 0.4129 0.49017 0.0
C3187 C 0.89268 0.41035 0.50446 0.0
C3188 C 0.87919 0.41923 0.50806 0.0
C3189 C 0.79014 0.42568 0.49024 0.0
C3190 C 0.7866 0.41251 0.50005 0.0
C3191 C 0.80423 0.43481 0.49246 0.0
C3192 C 0.81517 0.43106 0.50454 0.0
C3193 C 0.81161 0.4181 0.51459 0.0
C3194 C 0.79735 0.40897 0.51246 0.0
C3195 C 0.83066 0.4402 0.5058 0.0
C3196 C 0.84488 0.43194 0.50344 0.0
C3197 C 0.8313 0.45718 0.50707 0.0
C3198 C 0.8168 0.46651 0.51053 0.0
C3199 C 0.80708 0.46264 0.52364 0.0
C3200 C 0.79336 0.47134 0.52677 0.0
C3201 C 0.78927 0.48401 0.51692 0.0
C3202 C 0.79891 0.48801 0.50393 0.0
C3203 C 0.81264 0.47934 0.50074 0.0
H3204 H 0.77864 0.49073 0.51936 0.0
H3205 H 0.9113 0.40602 0.48742 0.0
H3206 H 0.73142 0.86459 0.80817 0.0
H3207 H 0.71181 0.88522 0.80343 0.0
H3208 H 0.74781 0.91457 0.78056 0.0
H3209 H 0.76731 0.89362 0.78416 0.0
H3210 H 0.72403 0.92828 0.80878 0.0
H3211 H 0.72875 0.90258 0.75552 0.0
H3212 H 0.72854 0.87857 0.73781 0.0
H3213 H 0.68122 0.86553 0.75345 0.0
H3214 H 0.68127 0.88936 0.77145 0.0
H3215 H 0.67982 0.99047 0.77438 0.0
H3216 H 0.69874 0.96994 0.78161 0.0
H3217 H 0.66138 0.93338 0.7759 0.0
H3218 H 0.64271 0.95385 0.76765 0.0
H3219 H 0.68562 0.92235 0.76334 0.0
H3220 H 0.67818 0.94752 0.81415 0.0
H3221 H 0.67683 0.96967 0.83401 0.0
H3222 H 0.72645 0.98169 0.82652 0.0
H3223 H 0.72805 0.95975 0.80645 0.0
C3224 C 0.73521 0.87527 0.80189 0.0
C3225 C 0.75107 0.87725 0.79648 0.0
C3226 C 0.72398 0.88714 0.79937 0.0
C3227 C 0.7284 0.90138 0.79168 0.0
C3228 C 0.74422 0.90366 0.78661 0.0
C3229 C 0.75539 0.89167 0.78881 0.0
C3230 C 0.71637 0.9137 0.78853 0.0
C3231 C 0.71571 0.92716 0.79876 0.0
C3232 C 0.70518 0.91182 0.77585 0.0
C3233 C 0.7051 0.89761 0.76496 0.0
C3234 C 0.71838 0.89449 0.75531 0.0
C3235 C 0.71827 0.88095 0.74519 0.0
C3236 C 0.70489 0.8705 0.74455 0.0
C3237 C 0.69158 0.87361 0.75398 0.0
C3238 C 0.69164 0.88714 0.76413 0.0
C3239 C 0.67561 0.97807 0.77484 0.0
C3240 C 0.65978 0.97376 0.7705 0.0
C3241 C 0.68643 0.96631 0.77908 0.0
C3242 C 0.68153 0.95002 0.7796 0.0
C3243 C 0.66556 0.9458 0.77558 0.0
C3244 C 0.65485 0.95752 0.77094 0.0
C3245 C 0.69319 0.93734 0.78351 0.0
C3246 C 0.69381 0.92366 0.77344 0.0
C3247 C 0.70409 0.93887 0.79661 0.0
C3248 C 0.70319 0.95208 0.80868 0.0
C3249 C 0.68878 0.95496 0.81665 0.0
C3250 C 0.68797 0.96747 0.82796 0.0
C3251 C 0.70153 0.97711 0.8315 0.0
C3252 C 0.71594 0.97423 0.82376 0.0
C3253 C 0.71681 0.96175 0.81242 0.0
H3254 H 0.70088 0.98678 0.84026 0.0
H3255 H 0.70483 0.86002 0.7367 0.0
H3256 H 0.62323 0.51459 0.96727 0.0
H3257 H 0.64566 0.53307 0.97253 0.0
H3258 H 0.62955 0.54029 0.02095 0.0
H3259 H 0.60604 0.5233 0.01525 0.0
H3260 H 0.63793 0.56685 0.01159 0.0
H3261 H 0.66461 0.51752 0.00949 0.0
H3262 H 0.67239 0.49107 0.99893 0.0
H3263 H 0.69236 0.51336 0.95741 0.0
H3264 H 0.68451 0.53994 0.9676 0.0
H3265 H 0.71386 0.61034 0.02842 0.0
H3266 H 0.69192 0.59044 0.0291 0.0
H3267 H 0.69339 0.58537 0.97774 0.0
H3268 H 0.71665 0.60394 0.9773 0.0
H3269 H 0.69287 0.55687 0.99279 0.0
H3270 H 0.64369 0.59948 0.99676 0.0
H3271 H 0.63375 0.62386 0.01021 0.0
H3272 H 0.65763 0.61111 0.05367 0.0
H3273 H 0.6672 0.58647 0.04055 0.0
C3274 C 0.62421 0.52026 0.97899 0.0
C3275 C 0.61254 0.51739 0.99075 0.0
C3276 C 0.63737 0.53061 0.98211 0.0
C3277 C 0.63961 0.53794 0.99727 0.0
C3278 C 0.62821 0.53482 0.00915 0.0
C3279 C 0.6148 0.52483 0.00591 0.0
C3280 C 0.65323 0.54962 1.00039 0.0
C3281 C 0.65 0.56446 0.00771 0.0
C3282 C 0.66908 0.54668 0.99546 0.0
C3283 C 0.67386 0.53072 0.98927 0.0
C3284 C 0.67056 0.51677 0.99805 0.0
C3285 C 0.675 0.50176 0.99214 0.0
C3286 C 0.68284 0.50053 0.9775 0.0
C3287 C 0.68628 0.51433 0.96875 0.0
C3288 C 0.68186 0.52938 0.9746 0.0
C3289 C 0.70925 0.60521 0.01725 0.0
C3290 C 0.71642 0.6093 0.00269 0.0
C3291 C 0.69642 0.59405 0.01762 0.0
C3292 C 0.69024 0.58699 0.00341 0.0
C3293 C 0.69759 0.59096 0.98886 0.0
C3294 C 0.71073 0.60175 0.98855 0.0
C3295 C 0.67743 0.57414 0.00364 0.0
C3296 C 0.68083 0.55906 0.99686 0.0
C3297 C 0.66189 0.57659 0.00968 0.0
C3298 C 0.6571 0.5918 0.01736 0.0
C3299 C 0.64709 0.60212 0.00909 0.0
C3300 C 0.64132 0.61584 0.01671 0.0
C3301 C 0.64532 0.61921 0.0327 0.0
C3302 C 0.65483 0.60869 0.04118 0.0
C3303 C 0.66047 0.59488 0.03363 0.0
H3304 H 0.64089 0.62986 0.03858 0.0
H3305 H 0.68627 0.48889 0.97294 0.0
H3306 H 0.26474 0.62361 0.22412 0.0
H3307 H 0.24361 0.60362 0.22969 0.0
H3308 H 0.21235 0.62619 0.19611 0.0
H3309 H 0.23353 0.64579 0.18991 0.0
H3310 H 0.19986 0.62241 0.22742 0.0
H3311 H 0.22555 0.59164 0.18612 0.0
H3312 H 0.24835 0.57842 0.17345 0.0
H3313 H 0.25358 0.54855 0.21442 0.0
H3314 H 0.23094 0.56177 0.22745 0.0
H3315 H 0.15075 0.54131 0.21512 0.0
H3316 H 0.16934 0.56318 0.20785 0.0
H3317 H 0.17346 0.57783 0.25748 0.0
H3318 H 0.15452 0.55624 0.26465 0.0
H3319 H 0.1999 0.56344 0.21856 0.0
H3320 H 0.18249 0.60532 0.26224 0.0
H3321 H 0.16516 0.62548 0.27456 0.0
H3322 H 0.14664 0.63703 0.2282 0.0
H3323 H 0.16341 0.61643 0.21574 0.0
C3324 C 0.25352 0.62413 0.21761 0.0
C3325 C 0.25085 0.63648 0.20665 0.0
C3326 C 0.24144 0.6127 0.22087 0.0
C3327 C 0.22643 0.61345 0.21332 0.0
C3328 C 0.22384 0.62546 0.20211 0.0
C3329 C 0.23595 0.63675 0.19869 0.0
C3330 C 0.21297 0.60261 0.21802 0.0
C3331 C 0.19981 0.60949 0.22541 0.0
C3332 C 0.21308 0.58579 0.21566 0.0
C3333 C 0.22666 0.57782 0.20783 0.0
C3334 C 0.23166 0.58236 0.1925 0.0
C3335 C 0.24453 0.57484 0.18523 0.0
C3336 C 0.25244 0.56268 0.19315 0.0
C3337 C 0.24746 0.55799 0.20832 0.0
C3338 C 0.2346 0.56548 0.21564 0.0
C3339 C 0.15523 0.54956 0.22438 0.0
C3340 C 0.15097 0.5473 0.24038 0.0
C3341 C 0.16585 0.56207 0.22024 0.0
C3342 C 0.17269 0.57242 0.23206 0.0
C3343 C 0.168 0.57048 0.24803 0.0
C3344 C 0.15722 0.55804 0.25215 0.0
C3345 C 0.18647 0.58327 0.22785 0.0
C3346 C 0.19984 0.57635 0.22057 0.0
C3347 C 0.18668 0.60011 0.23048 0.0
C3348 C 0.17366 0.60887 0.23816 0.0
C3349 C 0.17416 0.61163 0.25478 0.0
C3350 C 0.16464 0.62332 0.26176 0.0
C3351 C 0.15485 0.63258 0.25217 0.0
C3352 C 0.15423 0.62986 0.23562 0.0
C3353 C 0.16351 0.61796 0.22864 0.0
H3354 H 0.14764 0.64177 0.25757 0.0
H3355 H 0.26239 0.55687 0.1875 0.0
H3356 H 0.90465 0.54244 0.04161 0.0
H3357 H 0.88205 0.55977 0.03688 0.0
H3358 H 0.86808 0.53085 0.99552 0.0
H3359 H 0.89072 0.51344 1.00018 0.0
H3360 H 0.86569 0.56205 0.98919 0.0
H3361 H 0.84806 0.52745 0.03102 0.0
H3362 H 0.84965 0.514 0.057 0.0
H3363 H 0.85071 0.55979 0.08144 0.0
H3364 H 0.84934 0.57354 0.05557 0.0
H3365 H 0.78686 0.5934 0.98271 0.0
H3366 H 0.80986 0.57602 0.98549 0.0
H3367 H 0.82631 0.60403 0.0266 0.0
H3368 H 0.80333 0.62131 0.024 0.0
H3369 H 0.82697 0.57253 0.03251 0.0
H3370 H 0.84485 0.60705 0.99033 0.0
H3371 H 0.84302 0.62024 0.96421 0.0
H3372 H 0.841 0.57417 0.9403 0.0
H3373 H 0.84261 0.5607 0.9663 0.0
C3374 C 0.89671 0.53967 0.03157 0.0
C3375 C 0.89946 0.52646 0.02135 0.0
C3376 C 0.88378 0.54962 0.02886 0.0
C3377 C 0.87319 0.5465 0.01596 0.0
C3378 C 0.87607 0.53351 0.00555 0.0
C3379 C 0.88904 0.52358 0.00822 0.0
C3380 C 0.85909 0.55676 0.01343 0.0
C3381 C 0.85709 0.56416 0.9986 0.0
C3382 C 0.84799 0.55976 0.02576 0.0
C3383 C 0.84875 0.55153 0.04134 0.0
C3384 C 0.84875 0.53466 0.04192 0.0
C3385 C 0.84959 0.52698 0.05663 0.0
C3386 C 0.85032 0.53603 0.07086 0.0
C3387 C 0.85016 0.55279 0.07041 0.0
C3388 C 0.84934 0.56054 0.05573 0.0
C3389 C 0.79545 0.59593 0.99227 0.0
C3390 C 0.79326 0.60876 0.00313 0.0
C3391 C 0.80862 0.586 0.99382 0.0
C3392 C 0.8199 0.58875 0.00621 0.0
C3393 C 0.81778 0.60164 0.01696 0.0
C3394 C 0.80465 0.61156 0.01542 0.0
C3395 C 0.83364 0.57796 0.00833 0.0
C3396 C 0.83555 0.57042 0.0231 0.0
C3397 C 0.8446 0.57479 0.99592 0.0
C3398 C 0.84368 0.58287 0.98027 0.0
C3399 C 0.84388 0.59973 0.97951 0.0
C3400 C 0.84291 0.60726 0.96473 0.0
C3401 C 0.84185 0.59805 0.95061 0.0
C3402 C 0.8418 0.58129 0.95124 0.0
C3403 C 0.84276 0.5737 0.966 0.0
H3404 H 0.8411 0.6039 0.93917 0.0
H3405 H 0.85097 0.53006 0.08224 0.0
H3406 H 0.10782 0.98065 0.04673 0.0
H3407 H 0.13027 0.96319 0.04154 0.0
H3408 H 0.13946 0.98742 0.99725 0.0
H3409 H 0.11723 0.00518 0.00249 0.0
H3410 H 0.14012 0.9546 0.99367 0.0
H3411 H 0.16305 0.9952 0.0293 0.0
H3412 H 0.1647 0.01185 0.05396 0.0
H3413 H 0.16833 0.96942 0.0821 0.0
H3414 H 0.16648 0.9525 0.05759 0.0
H3415 H 0.21622 0.92443 0.97668 0.0
H3416 H 0.19421 0.94206 0.98278 0.0
H3417 H 0.18847 0.91983 0.02868 0.0
H3418 H 0.21081 0.90238 0.02284 0.0
H3419 H 0.18571 0.95126 0.03178 0.0
H3420 H 0.16311 0.91053 0.99673 0.0
H3421 H 0.16137 0.89344 0.97236 0.0
H3422 H 0.15652 0.93527 0.94357 0.0
H3423 H 0.1585 0.95264 0.96776 0.0
C3424 C 0.11472 0.98243 0.03597 0.0
C3425 C 0.11071 0.99441 0.02507 0.0
C3426 C 0.12752 0.97237 0.03299 0.0
C3427 C 0.13663 0.97407 0.01906 0.0
C3428 C 0.13257 0.98587 0.00806 0.0
C3429 C 0.1198 0.99597 0.01105 0.0
C3430 C 0.15035 0.96352 0.01593 0.0
C3431 C 0.15019 0.95402 1.0019 0.0
C3432 C 0.16328 0.96242 0.02688 0.0
C3433 C 0.16446 0.97258 0.04162 0.0
C3434 C 0.16407 0.98941 0.04075 0.0
C3435 C 0.16506 0.9989 0.0547 0.0
C3436 C 0.16657 0.99169 0.06959 0.0
C3437 C 0.16714 0.97498 0.07056 0.0
C3438 C 0.16613 0.96544 0.05664 0.0
C3439 C 0.21033 0.92327 0.9881 0.0
C3440 C 0.21528 0.91188 0.99923 0.0
C3441 C 0.19767 0.93334 0.99155 0.0
C3442 C 0.18947 0.93211 0.00609 0.0
C3443 C 0.19457 0.92099 0.01736 0.0
C3444 C 0.20734 0.91098 0.01398 0.0
C3445 C 0.17554 0.94237 0.00946 0.0
C3446 C 0.17564 0.9518 0.02355 0.0
C3447 C 0.16249 0.94332 0.99861 0.0
C3448 C 0.1611 0.9329 0.98405 0.0
C3449 C 0.16178 0.91609 0.98519 0.0
C3450 C 0.16074 0.90636 0.97141 0.0
C3451 C 0.15887 0.91327 0.95642 0.0
C3452 C 0.15799 0.92993 0.95519 0.0
C3453 C 0.15906 0.93973 0.96893 0.0
H3454 H 0.15808 0.90571 0.94577 0.0
H3455 H 0.16734 0.99906 0.08038 0.0
loop_
_geom_bond_atom_site_label_1
_geom_bond_atom_site_label_2
_geom_bond_distance
_geom_bond_site_symmetry_2
_ccdc_geom_bond_type
C0 C1 1.386 . S
C0 C2 1.397 . S
C0 H24 0.931 . S
C1 C0 1.386 . S
C1 C5 1.397 1_556 S
C2 C0 1.397 . S
C2 C3 1.384 1_556 S
C2 H25 0.930 . S
C3 C2 1.384 1_554 S
C3 C4 1.377 . S
C3 C6 1.481 . S
C4 C3 1.377 . S
C4 C5 1.389 . S
C4 H26 0.929 . S
C5 C1 1.397 1_554 S
C5 C4 1.389 . S
C5 H27 0.931 . S
C6 C3 1.481 . S
C6 C7 1.387 . S
C6 C11 1.390 . S
C7 C6 1.387 . S
C7 C8 1.401 . S
C7 H28 0.930 . S
C8 C7 1.401 . S
C8 C9 1.376 . S
C8 C17 1.511 . S
C9 C8 1.376 . S
C9 C10 1.392 . S
C9 H30 0.931 . S
C10 C9 1.392 . S
C10 C11 1.361 . S
C10 C12 1.500 . S
C11 C6 1.390 . S
C11 C10 1.361 . S
C11 H29 0.931 . S
C12 C10 1.500 . S
C12 C13 1.371 . S
C12 C14 1.365 . S
C13 C12 1.371 . S
C13 C23 1.386 1_455 S
C13 H31 0.931 . S
C14 C12 1.365 . S
C14 C15 1.409 1_455 S
C14 H32 0.929 . S
C15 C14 1.409 1_655 S
C15 C16 1.380 . S
C15 H33 0.930 . S
C16 C15 1.380 . S
C16 C23 1.357 . S
C17 C8 1.511 . S
C17 C18 1.341 . S
C17 C19 1.371 . S
C18 C17 1.341 . S
C18 C22 1.440 . S
C18 H34 0.930 . S
C19 C17 1.371 . S
C19 C20 1.392 1_545 S
C19 H35 0.931 . S
C20 C19 1.392 1_565 S
C20 C21 1.331 . S
C20 H38 0.932 . S
C21 C20 1.331 . S
C21 C22 1.296 1_565 S
C22 C18 1.440 . S
C22 C21 1.296 1_545 S
C22 H37 0.928 . S
C23 C13 1.386 1_655 S
C23 C16 1.357 . S
C23 H36 0.928 . S
H24 C0 0.931 . S
H25 C2 0.930 . S
H26 C4 0.929 . S
H27 C5 0.931 . S
H28 C7 0.930 . S
H29 C11 0.931 . S
H30 C9 0.931 . S
H31 C13 0.931 . S
H32 C14 0.929 . S
H33 C15 0.930 . S
H34 C18 0.930 . S
H35 C19 0.931 . S
H36 C23 0.928 . S
H37 C22 0.928 . S
H38 C20 0.932 . S
C39 C40 1.386 . S
C39 C41 1.397 . S
C39 H63 0.931 . S
C40 C39 1.386 . S
C40 C44 1.397 . S
C41 C39 1.397 . S
C41 C42 1.384 . S
C41 H64 0.930 . S
C42 C41 1.384 . S
C42 C43 1.377 . S
C42 C45 1.481 . S
C43 C42 1.377 . S
C43 C44 1.389 . S
C43 H65 0.929 . S
C44 C40 1.397 . S
C44 C43 1.389 . S
C44 H66 0.931 . S
C45 C42 1.481 . S
C45 C46 1.387 . S
C45 C50 1.390 . S
C46 C45 1.387 . S
C46 C47 1.401 . S
C46 H67 0.930 . S
C47 C46 1.401 . S
C47 C48 1.376 . S
C47 C56 1.511 . S
C48 C47 1.376 . S
C48 C49 1.392 . S
C48 H69 0.931 . S
C49 C48 1.392 . S
C49 C50 1.361 . S
C49 C51 1.500 . S
C50 C45 1.390 . S
C50 C49 1.361 . S
C50 H68 0.931 . S
C51 C49 1.500 . S
C51 C52 1.371 . S
C51 C53 1.365 . S
C52 C51 1.371 . S
C52 C62 1.386 . S
C52 H70 0.931 . S
C53 C51 1.365 . S
C53 C54 1.409 . S
C53 H71 0.929 . S
C54 C53 1.409 . S
C54 C55 1.380 . S
C54 H72 0.930 . S
C55 C54 1.380 . S
C55 C62 1.357 . S
C56 C47 1.511 . S
C56 C57 1.341 . S
C56 C58 1.371 . S
C57 C56 1.341 . S
C57 C61 1.394 . S
C57 H73 0.930 . S
C58 C56 1.371 . S
C58 C59 1.392 . S
C58 H74 0.931 . S
C59 C58 1.392 . S
C59 C60 1.331 . S
C59 H77 0.932 . S
C60 C59 1.331 . S
C60 C61 1.336 . S
C61 C57 1.394 . S
C61 C60 1.336 . S
C61 H76 0.929 . S
C62 C52 1.386 . S
C62 C55 1.357 . S
C62 H75 0.928 . S
H63 C39 0.931 . S
H64 C41 0.930 . S
H65 C43 0.929 . S
H66 C44 0.931 . S
H67 C46 0.930 . S
H68 C50 0.931 . S
H69 C48 0.931 . S
H70 C52 0.931 . S
H71 C53 0.929 . S
H72 C54 0.930 . S
H73 C57 0.930 . S
H74 C58 0.931 . S
H75 C62 0.928 . S
H76 C61 0.929 . S
H77 C59 0.932 . S
C78 C79 1.386 1_655 S
C78 C80 1.397 . S
C78 H102 0.931 . S
C79 C78 1.386 1_455 S
C79 C83 1.397 . S
C80 C78 1.397 . S
C80 C81 1.384 . S
C80 H103 0.930 . S
C81 C80 1.384 . S
C81 C82 1.377 1_655 S
C81 C84 1.481 . S
C82 C81 1.377 1_455 S
C82 C83 1.389 . S
C82 H104 0.929 . S
C83 C79 1.397 . S
C83 C82 1.389 . S
C83 H105 0.931 . S
C84 C81 1.481 . S
C84 C85 1.387 . S
C84 C89 1.390 . S
C85 C84 1.387 . S
C85 C86 1.401 . S
C85 H106 0.930 . S
C86 C85 1.401 . S
C86 C87 1.376 . S
C86 C95 1.511 . S
C87 C86 1.376 . S
C87 C88 1.392 . S
C87 H108 0.931 . S
C88 C87 1.392 . S
C88 C89 1.361 . S
C88 C90 1.500 . S
C89 C84 1.390 . S
C89 C88 1.361 . S
C89 H107 0.931 . S
C90 C88 1.500 . S
C90 C91 1.371 . S
C90 C92 1.365 . S
C91 C90 1.371 . S
C91 C101 1.386 1_554 S
C91 H109 0.931 . S
C92 C90 1.365 . S
C92 C93 1.409 1_554 S
C92 H110 0.929 . S
C93 C92 1.409 1_556 S
C93 C94 1.380 . S
C93 H111 0.958 . S
C94 C93 1.380 . S
C94 C101 1.357 . S
C95 C86 1.511 . S
C95 C96 1.341 . S
C95 C97 1.371 . S
C96 C95 1.341 . S
C96 C100 1.394 . S
C96 H112 0.930 . S
C97 C95 1.371 . S
C97 C98 1.392 . S
C97 H113 0.931 . S
C98 C97 1.392 . S
C98 C99 1.331 . S
C98 H116 0.932 . S
C99 C98 1.331 . S
C99 C100 1.336 . S
C100 C96 1.394 . S
C100 C99 1.336 . S
C100 H115 0.929 . S
C101 C91 1.386 1_556 S
C101 C94 1.357 . S
C101 H114 0.928 . S
H102 C78 0.931 . S
H103 C80 0.930 . S
H104 C82 0.929 . S
H105 C83 0.931 . S
H106 C85 0.930 . S
H107 C89 0.931 . S
H108 C87 0.931 . S
H109 C91 0.931 . S
H110 C92 0.929 . S
H111 C93 0.958 . S
H112 C96 0.930 . S
H113 C97 0.931 . S
H114 C101 0.928 . S
H115 C100 0.929 . S
H116 C98 0.932 . S
C117 C118 1.386 . S
C117 C119 1.397 . S
C117 H141 0.931 . S
C118 C117 1.386 . S
C118 C122 1.397 . S
C119 C117 1.397 . S
C119 C120 1.384 . S
C119 H142 0.930 . S
C120 C119 1.384 . S
C120 C121 1.377 . S
C120 C123 1.481 . S
C121 C120 1.377 . S
C121 C122 1.389 . S
C121 H143 0.929 . S
C122 C118 1.397 . S
C122 C121 1.389 . S
C122 H144 0.931 . S
C123 C120 1.481 . S
C123 C124 1.387 . S
C123 C128 1.390 . S
C124 C123 1.387 . S
C124 C125 1.401 . S
C124 H145 0.930 . S
C125 C124 1.401 . S
C125 C126 1.376 . S
C125 C134 1.511 . S
C126 C125 1.376 . S
C126 C127 1.392 . S
C126 H147 0.931 . S
C127 C126 1.392 . S
C127 C128 1.361 . S
C127 C129 1.500 . S
C128 C123 1.390 . S
C128 C127 1.361 . S
C128 H146 0.931 . S
C129 C127 1.500 . S
C129 C130 1.371 . S
C129 C131 1.365 . S
C130 C129 1.371 . S
C130 C140 1.386 . S
C130 H148 0.931 . S
C131 C129 1.365 . S
C131 C132 1.409 . S
C131 H149 0.929 . S
C132 C131 1.409 . S
C132 C133 1.380 . S
C132 H150 0.930 . S
C133 C132 1.380 . S
C133 C140 1.357 . S
C134 C125 1.511 . S
C134 C135 1.341 . S
C134 C136 1.371 . S
C135 C134 1.341 . S
C135 C139 1.394 . S
C135 H151 0.930 . S
C136 C134 1.371 . S
C136 C137 1.392 . S
C136 H152 0.931 . S
C137 C136 1.392 . S
C137 C138 1.331 . S
C137 H155 0.932 . S
C138 C137 1.331 . S
C138 C139 1.336 . S
C139 C135 1.394 . S
C139 C138 1.336 . S
C139 H154 0.929 . S
C140 C130 1.386 . S
C140 C133 1.357 . S
C140 H153 0.928 . S
H141 C117 0.931 . S
H142 C119 0.930 . S
H143 C121 0.929 . S
H144 C122 0.931 . S
H145 C124 0.930 . S
H146 C128 0.931 . S
H147 C126 0.931 . S
H148 C130 0.931 . S
H149 C131 0.929 . S
H150 C132 0.930 . S
H151 C135 0.930 . S
H152 C136 0.931 . S
H153 C140 0.928 . S
H154 C139 0.929 . S
H155 C137 0.932 . S
C156 C157 1.386 . S
C156 C158 1.443 . S
C156 H180 0.931 . S
C157 C156 1.386 . S
C157 C161 1.397 1_655 S
C158 C156 1.443 . S
C158 C159 1.312 1_655 S
C158 H181 0.960 . S
C159 C158 1.312 1_455 S
C159 C160 1.377 . S
C159 C162 1.481 . S
C160 C159 1.377 . S
C160 C161 1.389 . S
C160 H182 0.929 . S
C161 C157 1.397 1_455 S
C161 C160 1.389 . S
C161 H183 0.931 . S
C162 C159 1.481 . S
C162 C163 1.387 . S
C162 C167 1.390 . S
C163 C162 1.387 . S
C163 C164 1.401 . S
C163 H184 0.930 . S
C164 C163 1.401 . S
C164 C165 1.376 . S
C164 C173 1.511 . S
C165 C164 1.376 . S
C165 C166 1.392 . S
C165 H186 0.931 . S
C166 C165 1.392 . S
C166 C167 1.361 . S
C166 C168 1.500 . S
C167 C162 1.390 . S
C167 C166 1.361 . S
C167 H185 0.931 . S
C168 C166 1.500 . S
C168 C169 1.371 . S
C168 C170 1.365 1_565 S
C169 C168 1.371 . S
C169 C179 1.386 1_565 S
C169 H187 0.931 . S
C170 C168 1.365 1_545 S
C170 C171 1.409 . S
C170 H188 0.929 1_545 S
C171 C170 1.409 . S
C171 C172 1.380 . S
C171 H189 0.930 . S
C172 C171 1.380 . S
C172 C179 1.357 . S
C173 C164 1.511 . S
C173 C174 1.341 . S
C173 C175 1.371 . S
C174 C173 1.341 . S
C174 C178 1.394 . S
C174 H190 0.930 . S
C175 C173 1.371 . S
C175 C176 1.392 . S
C175 H191 0.931 . S
C176 C175 1.392 . S
C176 C177 1.331 . S
C176 H194 0.932 . S
C177 C176 1.331 . S
C177 C178 1.336 . S
C178 C174 1.394 . S
C178 C177 1.336 . S
C178 H193 0.929 . S
C179 C169 1.386 1_545 S
C179 C172 1.357 . S
C179 H192 0.928 . S
H180 C156 0.931 . S
H181 C158 0.960 . S
H182 C160 0.929 . S
H183 C161 0.931 . S
H184 C163 0.930 . S
H185 C167 0.931 . S
H186 C165 0.931 . S
H187 C169 0.931 . S
H188 C170 0.929 1_565 S
H189 C171 0.930 . S
H190 C174 0.930 . S
H191 C175 0.931 . S
H192 C179 0.928 . S
H193 C178 0.929 . S
H194 C176 0.932 . S
C195 C196 1.386 . S
C195 C197 1.397 . S
C195 H219 0.931 . S
C196 C195 1.386 . S
C196 C200 1.397 . S
C197 C195 1.397 . S
C197 C198 1.384 . S
C197 H220 0.930 . S
C198 C197 1.384 . S
C198 C199 1.377 . S
C198 C201 1.481 . S
C199 C198 1.377 . S
C199 C200 1.389 . S
C199 H221 0.929 . S
C200 C196 1.397 . S
C200 C199 1.389 . S
C200 H222 0.931 . S
C201 C198 1.481 . S
C201 C202 1.387 . S
C201 C206 1.390 . S
C202 C201 1.387 . S
C202 C203 1.401 . S
C202 H223 0.930 . S
C203 C202 1.401 . S
C203 C204 1.376 . S
C203 C212 1.511 . S
C204 C203 1.376 . S
C204 C205 1.392 . S
C204 H225 0.931 . S
C205 C204 1.392 . S
C205 C206 1.361 . S
C205 C207 1.500 . S
C206 C201 1.390 . S
C206 C205 1.361 . S
C206 H224 0.931 . S
C207 C205 1.500 . S
C207 C208 1.371 . S
C207 C209 1.365 . S
C208 C207 1.371 . S
C208 C218 1.386 . S
C208 H226 0.931 . S
C209 C207 1.365 . S
C209 C210 1.409 . S
C209 H227 0.929 . S
C210 C209 1.409 . S
C210 C211 1.380 . S
C210 H228 0.930 . S
C211 C210 1.380 . S
C211 C218 1.357 . S
C212 C203 1.511 . S
C212 C213 1.341 . S
C212 C214 1.371 . S
C213 C212 1.341 . S
C213 C217 1.394 . S
C213 H229 0.930 . S
C214 C212 1.371 . S
C214 C215 1.392 . S
C214 H230 0.931 . S
C215 C214 1.392 . S
C215 C216 1.331 . S
C215 H233 0.932 . S
C216 C215 1.331 . S
C216 C217 1.336 . S
C217 C213 1.394 . S
C217 C216 1.336 . S
C217 H232 0.929 . S
C218 C208 1.386 . S
C218 C211 1.357 . S
C218 H231 0.928 . S
H219 C195 0.931 . S
H220 C197 0.930 . S
H221 C199 0.929 . S
H222 C200 0.931 . S
H223 C202 0.930 . S
H224 C206 0.931 . S
H225 C204 0.931 . S
H226 C208 0.931 . S
H227 C209 0.929 . S
H228 C210 0.930 . S
H229 C213 0.930 . S
H230 C214 0.931 . S
H231 C218 0.928 . S
H232 C217 0.929 . S
H233 C215 0.932 . S
C234 C235 1.386 . S
C234 C236 1.397 . S
C234 H258 0.931 . S
C235 C234 1.386 . S
C235 C239 1.397 . S
C236 C234 1.397 . S
C236 C237 1.384 . S
C236 H259 0.930 . S
C237 C236 1.384 . S
C237 C238 1.377 . S
C237 C240 1.481 . S
C238 C237 1.377 . S
C238 C239 1.389 . S
C238 H260 0.929 . S
C239 C235 1.397 . S
C239 C238 1.389 . S
C239 H261 0.931 . S
C240 C237 1.481 . S
C240 C241 1.387 . S
C240 C245 1.390 . S
C241 C240 1.387 . S
C241 C242 1.401 . S
C241 H262 0.930 . S
C242 C241 1.401 . S
C242 C243 1.376 . S
C242 C251 1.511 . S
C243 C242 1.376 . S
C243 C244 1.392 . S
C243 H264 0.931 . S
C244 C243 1.392 . S
C244 C245 1.361 . S
C244 C246 1.500 . S
C245 C240 1.390 . S
C245 C244 1.361 . S
C245 H263 0.931 . S
C246 C244 1.500 . S
C246 C247 1.371 . S
C246 C248 1.365 . S
C247 C246 1.371 . S
C247 C257 1.386 . S
C247 H265 0.931 . S
C248 C246 1.365 . S
C248 C249 1.409 . S
C248 H266 0.929 . S
C249 C248 1.409 . S
C249 C250 1.380 . S
C249 H267 0.930 . S
C250 C249 1.380 . S
C250 C257 1.357 . S
C251 C242 1.511 . S
C251 C252 1.341 1_655 S
C251 C253 1.371 . S
C252 C251 1.341 1_455 S
C252 C256 1.394 . S
C252 H268 0.930 . S
C253 C251 1.371 . S
C253 C254 1.392 1_655 S
C253 H269 0.931 . S
C254 C253 1.392 1_455 S
C254 C255 1.331 . S
C254 H272 0.932 . S
C255 C254 1.331 . S
C255 C256 1.336 . S
C256 C252 1.394 . S
C256 C255 1.336 . S
C256 H271 0.929 . S
C257 C247 1.386 . S
C257 C250 1.357 . S
C257 H270 0.928 . S
H258 C234 0.931 . S
H259 C236 0.930 . S
H260 C238 0.929 . S
H261 C239 0.931 . S
H262 C241 0.930 . S
H263 C245 0.931 . S
H264 C243 0.931 . S
H265 C247 0.931 . S
H266 C248 0.929 . S
H267 C249 0.930 . S
H268 C252 0.930 . S
H269 C253 0.931 . S
H270 C257 0.928 . S
H271 C256 0.929 . S
H272 C254 0.932 . S
C273 C274 1.386 . S
C273 C275 1.397 . S
C273 H297 0.931 . S
C274 C273 1.386 . S
C274 C278 1.397 . S
C275 C273 1.397 . S
C275 C276 1.384 . S
C275 H298 0.930 . S
C276 C275 1.384 . S
C276 C277 1.377 . S
C276 C279 1.481 . S
C277 C276 1.377 . S
C277 C278 1.389 . S
C277 H299 0.929 . S
C278 C274 1.397 . S
C278 C277 1.389 . S
C278 H300 0.931 . S
C279 C276 1.481 . S
C279 C280 1.387 . S
C279 C284 1.390 . S
C280 C279 1.387 . S
C280 C281 1.401 . S
C280 H301 0.930 . S
C281 C280 1.401 . S
C281 C282 1.376 . S
C281 C290 1.511 . S
C282 C281 1.376 . S
C282 C283 1.392 . S
C282 H303 0.931 . S
C283 C282 1.392 . S
C283 C284 1.361 . S
C283 C285 1.500 . S
C284 C279 1.390 . S
C284 C283 1.361 . S
C284 H302 0.931 . S
C285 C283 1.500 . S
C285 C286 1.371 . S
C285 C287 1.365 . S
C286 C285 1.371 . S
C286 C296 1.386 . S
C286 H304 0.931 . S
C287 C285 1.365 . S
C287 C288 1.409 . S
C287 H305 0.929 . S
C288 C287 1.409 . S
C288 C289 1.380 . S
C288 H306 0.930 . S
C289 C288 1.380 . S
C289 C296 1.357 . S
C290 C281 1.511 . S
C290 C291 1.341 . S
C290 C292 1.371 . S
C291 C290 1.341 . S
C291 C295 1.394 . S
C291 H307 0.930 . S
C292 C290 1.371 . S
C292 C293 1.392 . S
C292 H308 0.931 . S
C293 C292 1.392 . S
C293 C294 1.331 . S
C293 H311 0.932 . S
C294 C293 1.331 . S
C294 C295 1.336 . S
C295 C291 1.394 . S
C295 C294 1.336 . S
C295 H310 0.929 . S
C296 C286 1.386 . S
C296 C289 1.357 . S
C296 H309 0.928 . S
H297 C273 0.931 . S
H298 C275 0.930 . S
H299 C277 0.929 . S
H300 C278 0.931 . S
H301 C280 0.930 . S
H302 C284 0.931 . S
H303 C282 0.931 . S
H304 C286 0.931 . S
H305 C287 0.929 . S
H306 C288 0.930 . S
H307 C291 0.930 . S
H308 C292 0.931 . S
H309 C296 0.928 . S
H310 C295 0.929 . S
H311 C293 0.932 . S
C312 C313 1.386 . S
C312 C314 1.397 . S
C312 H336 0.931 . S
C313 C312 1.386 . S
C313 C317 1.397 . S
C314 C312 1.397 . S
C314 C315 1.384 . S
C314 H337 0.930 . S
C315 C314 1.384 . S
C315 C316 1.377 . S
C315 C318 1.481 . S
C316 C315 1.377 . S
C316 C317 1.389 . S
C316 H338 0.929 . S
C317 C313 1.397 . S
C317 C316 1.389 . S
C317 H339 0.931 . S
C318 C315 1.481 . S
C318 C319 1.387 . S
C318 C323 1.390 . S
C319 C318 1.387 . S
C319 C320 1.401 . S
C319 H340 0.930 . S
C320 C319 1.401 . S
C320 C321 1.376 . S
C320 C329 1.511 . S
C321 C320 1.376 . S
C321 C322 1.392 . S
C321 H342 0.931 . S
C322 C321 1.392 . S
C322 C323 1.361 . S
C322 C324 1.500 . S
C323 C318 1.390 . S
C323 C322 1.361 . S
C323 H341 0.931 . S
C324 C322 1.500 . S
C324 C325 1.371 . S
C324 C326 1.365 . S
C325 C324 1.371 . S
C325 C335 1.386 . S
C325 H343 0.931 . S
C326 C324 1.365 . S
C326 C327 1.409 . S
C326 H344 0.929 . S
C327 C326 1.409 . S
C327 C328 1.380 . S
C327 H345 0.930 . S
C328 C327 1.380 . S
C328 C335 1.357 . S
C329 C320 1.511 . S
C329 C330 1.341 . S
C329 C331 1.371 . S
C330 C329 1.341 . S
C330 C334 1.394 . S
C330 H346 0.930 . S
C331 C329 1.371 . S
C331 C332 1.392 . S
C331 H347 0.931 . S
C332 C331 1.392 . S
C332 C333 1.331 . S
C332 H350 0.932 . S
C333 C332 1.331 . S
C333 C334 1.336 . S
C334 C330 1.394 . S
C334 C333 1.336 . S
C334 H349 0.929 . S
C335 C325 1.386 . S
C335 C328 1.357 . S
C335 H348 0.928 . S
H336 C312 0.931 . S
H337 C314 0.930 . S
H338 C316 0.929 . S
H339 C317 0.931 . S
H340 C319 0.930 . S
H341 C323 0.931 . S
H342 C321 0.931 . S
H343 C325 0.931 . S
H344 C326 0.929 . S
H345 C327 0.930 . S
H346 C330 0.930 . S
H347 C331 0.931 . S
H348 C335 0.928 . S
H349 C334 0.929 . S
H350 C332 0.932 . S
C351 C352 1.386 . S
C351 C353 1.397 . S
C351 H375 0.931 . S
C352 C351 1.386 . S
C352 C356 1.397 . S
C353 C351 1.397 . S
C353 C354 1.384 . S
C353 H376 0.930 . S
C354 C353 1.384 . S
C354 C355 1.377 . S
C354 C357 1.481 . S
C355 C354 1.377 . S
C355 C356 1.389 . S
C355 H377 0.929 . S
C356 C352 1.397 . S
C356 C355 1.389 . S
C356 H378 0.931 . S
C357 C354 1.481 . S
C357 C358 1.387 . S
C357 C362 1.390 . S
C358 C357 1.387 . S
C358 C359 1.401 . S
C358 H379 0.930 . S
C359 C358 1.401 . S
C359 C360 1.376 . S
C359 C368 1.511 . S
C360 C359 1.376 . S
C360 C361 1.392 . S
C360 H381 0.931 . S
C361 C360 1.392 . S
C361 C362 1.361 . S
C361 C363 1.500 . S
C362 C357 1.390 . S
C362 C361 1.361 . S
C362 H380 0.931 . S
C363 C361 1.500 . S
C363 C364 1.371 . S
C363 C365 1.365 . S
C364 C363 1.371 . S
C364 C374 1.386 . S
C364 H382 0.931 . S
C365 C363 1.365 . S
C365 C366 1.409 . S
C365 H383 0.929 . S
C366 C365 1.409 . S
C366 C367 1.380 . S
C366 H384 0.930 . S
C367 C366 1.380 . S
C367 C374 1.357 . S
C368 C359 1.511 . S
C368 C369 1.325 1_565 S
C368 C370 1.371 . S
C369 C368 1.325 1_545 S
C369 C373 1.412 . S
C369 H385 0.928 1_545 S
C370 C368 1.371 . S
C370 C371 1.392 1_565 S
C370 H386 0.931 . S
C371 C370 1.392 1_545 S
C371 C372 1.331 . S
C371 H389 0.932 . S
C372 C371 1.331 . S
C372 C373 1.336 . S
C373 C369 1.412 . S
C373 C372 1.336 . S
C373 H388 0.929 . S
C374 C364 1.386 . S
C374 C367 1.357 . S
C374 H387 0.928 . S
H375 C351 0.931 . S
H376 C353 0.930 . S
H377 C355 0.929 . S
H378 C356 0.931 . S
H379 C358 0.930 . S
H380 C362 0.931 . S
H381 C360 0.931 . S
H382 C364 0.931 . S
H383 C365 0.929 . S
H384 C366 0.930 . S
H385 C369 0.928 1_565 S
H386 C370 0.931 . S
H387 C374 0.928 . S
H388 C373 0.929 . S
H389 C371 0.932 . S
C390 C391 1.386 . S
C390 C392 1.397 . S
C390 H414 0.931 . S
C391 C390 1.386 . S
C391 C395 1.397 . S
C392 C390 1.397 . S
C392 C393 1.384 . S
C392 H415 0.930 . S
C393 C392 1.384 . S
C393 C394 1.377 . S
C393 C396 1.481 . S
C394 C393 1.377 . S
C394 C395 1.389 . S
C394 H416 0.929 . S
C395 C391 1.397 . S
C395 C394 1.389 . S
C395 H417 0.931 . S
C396 C393 1.481 . S
C396 C397 1.387 . S
C396 C401 1.390 . S
C397 C396 1.387 . S
C397 C398 1.401 . S
C397 H418 0.930 . S
C398 C397 1.401 . S
C398 C399 1.376 . S
C398 C407 1.511 . S
C399 C398 1.376 . S
C399 C400 1.392 . S
C399 H420 0.931 . S
C400 C399 1.392 . S
C400 C401 1.361 . S
C400 C402 1.500 . S
C401 C396 1.390 . S
C401 C400 1.361 . S
C401 H419 0.931 . S
C402 C400 1.500 . S
C402 C403 1.371 . S
C402 C404 1.365 . S
C403 C402 1.371 . S
C403 C413 1.386 . S
C403 H421 0.931 . S
C404 C402 1.365 . S
C404 C405 1.409 . S
C404 H422 0.929 . S
C405 C404 1.409 . S
C405 C406 1.380 . S
C405 H423 0.930 . S
C406 C405 1.380 . S
C406 C413 1.357 . S
C407 C398 1.511 . S
C407 C408 1.341 . S
C407 C409 1.371 . S
C408 C407 1.341 . S
C408 C412 1.394 . S
C408 H424 0.930 . S
C409 C407 1.371 . S
C409 C410 1.392 . S
C409 H425 0.931 . S
C410 C409 1.392 . S
C410 C411 1.331 . S
C410 H428 0.932 . S
C411 C410 1.331 . S
C411 C412 1.336 . S
C412 C408 1.394 . S
C412 C411 1.336 . S
C412 H427 0.929 . S
C413 C403 1.386 . S
C413 C406 1.357 . S
C413 H426 0.928 . S
H414 C390 0.931 . S
H415 C392 0.930 . S
H416 C394 0.929 . S
H417 C395 0.931 . S
H418 C397 0.930 . S
H419 C401 0.931 . S
H420 C399 0.931 . S
H421 C403 0.931 . S
H422 C404 0.929 . S
H423 C405 0.930 . S
H424 C408 0.930 . S
H425 C409 0.931 . S
H426 C413 0.928 . S
H427 C412 0.929 . S
H428 C410 0.932 . S
C429 C430 1.386 . S
C429 C431 1.397 . S
C429 H453 0.931 . S
C430 C429 1.386 . S
C430 C434 1.397 . S
C431 C429 1.397 . S
C431 C432 1.384 . S
C431 H454 0.930 . S
C432 C431 1.384 . S
C432 C433 1.377 . S
C432 C435 1.481 . S
C433 C432 1.377 . S
C433 C434 1.389 . S
C433 H455 0.929 . S
C434 C430 1.397 . S
C434 C433 1.389 . S
C434 H456 0.931 . S
C435 C432 1.481 . S
C435 C436 1.387 . S
C435 C440 1.390 . S
C436 C435 1.387 . S
C436 C437 1.401 . S
C436 H457 0.930 . S
C437 C436 1.401 . S
C437 C438 1.376 . S
C437 C446 1.511 . S
C438 C437 1.376 . S
C438 C439 1.392 . S
C438 H459 0.931 . S
C439 C438 1.392 . S
C439 C440 1.361 . S
C439 C441 1.500 . S
C440 C435 1.390 . S
C440 C439 1.361 . S
C440 H458 0.931 . S
C441 C439 1.500 . S
C441 C442 1.371 . S
C441 C443 1.365 . S
C442 C441 1.371 . S
C442 C452 1.386 . S
C442 H460 0.931 . S
C443 C441 1.365 . S
C443 C444 1.409 . S
C443 H461 0.929 . S
C444 C443 1.409 . S
C444 C445 1.380 . S
C444 H462 0.930 . S
C445 C444 1.380 . S
C445 C452 1.357 . S
C446 C437 1.511 . S
C446 C447 1.341 . S
C446 C448 1.371 . S
C447 C446 1.341 . S
C447 C451 1.394 . S
C447 H463 0.930 . S
C448 C446 1.371 . S
C448 C449 1.392 . S
C448 H464 0.931 . S
C449 C448 1.392 . S
C449 C450 1.331 . S
C449 H467 0.932 . S
C450 C449 1.331 . S
C450 C451 1.336 . S
C451 C447 1.394 . S
C451 C450 1.336 . S
C451 H466 0.929 . S
C452 C442 1.386 . S
C452 C445 1.357 . S
C452 H465 0.928 . S
H453 C429 0.931 . S
H454 C431 0.930 . S
H455 C433 0.929 . S
H456 C434 0.931 . S
H457 C436 0.930 . S
H458 C440 0.931 . S
H459 C438 0.931 . S
H460 C442 0.931 . S
H461 C443 0.929 . S
H462 C444 0.930 . S
H463 C447 0.930 . S
H464 C448 0.931 . S
H465 C452 0.928 . S
H466 C451 0.929 . S
H467 C449 0.932 . S
C468 C469 1.386 . S
C468 C470 1.397 . S
C468 H492 0.931 . S
C469 C468 1.386 . S
C469 C473 1.397 . S
C470 C468 1.397 . S
C470 C471 1.384 . S
C470 H493 0.930 . S
C471 C470 1.384 . S
C471 C472 1.377 . S
C471 C474 1.481 . S
C472 C471 1.377 . S
C472 C473 1.389 . S
C472 H494 0.929 . S
C473 C469 1.397 . S
C473 C472 1.389 . S
C473 H495 0.931 . S
C474 C471 1.481 . S
C474 C475 1.387 . S
C474 C479 1.390 . S
C475 C474 1.387 . S
C475 C476 1.401 . S
C475 H496 0.930 . S
C476 C475 1.401 . S
C476 C477 1.376 . S
C476 C485 1.511 . S
C477 C476 1.376 . S
C477 C478 1.392 . S
C477 H498 0.931 . S
C478 C477 1.392 . S
C478 C479 1.361 . S
C478 C480 1.500 . S
C479 C474 1.390 . S
C479 C478 1.361 . S
C479 H497 0.931 . S
C480 C478 1.500 . S
C480 C481 1.371 . S
C480 C482 1.365 . S
C481 C480 1.371 . S
C481 C491 1.386 . S
C481 H499 0.931 . S
C482 C480 1.365 . S
C482 C483 1.409 . S
C482 H500 0.929 . S
C483 C482 1.409 . S
C483 C484 1.380 . S
C483 H501 0.930 . S
C484 C483 1.380 . S
C484 C491 1.357 . S
C485 C476 1.511 . S
C485 C486 1.341 . S
C485 C487 1.371 . S
C486 C485 1.341 . S
C486 C490 1.394 . S
C486 H502 0.930 . S
C487 C485 1.371 . S
C487 C488 1.392 . S
C487 H503 0.931 . S
C488 C487 1.392 . S
C488 C489 1.331 . S
C488 H506 0.932 . S
C489 C488 1.331 . S
C489 C490 1.336 . S
C490 C486 1.394 . S
C490 C489 1.336 . S
C490 H505 0.929 . S
C491 C481 1.386 . S
C491 C484 1.357 . S
C491 H504 0.928 . S
H492 C468 0.931 . S
H493 C470 0.930 . S
H494 C472 0.929 . S
H495 C473 0.931 . S
H496 C475 0.930 . S
H497 C479 0.931 . S
H498 C477 0.931 . S
H499 C481 0.931 . S
H500 C482 0.929 . S
H501 C483 0.930 . S
H502 C486 0.930 . S
H503 C487 0.931 . S
H504 C491 0.928 . S
H505 C490 0.929 . S
H506 C488 0.932 . S
C507 C508 1.386 . S
C507 C509 1.397 . S
C507 H531 0.931 . S
C508 C507 1.386 . S
C508 C512 1.397 . S
C509 C507 1.397 . S
C509 C510 1.384 . S
C509 H532 0.930 . S
C510 C509 1.384 . S
C510 C511 1.377 . S
C510 C513 1.481 . S
C511 C510 1.377 . S
C511 C512 1.389 . S
C511 H533 0.929 . S
C512 C508 1.397 . S
C512 C511 1.389 . S
C512 H534 0.931 . S
C513 C510 1.481 . S
C513 C514 1.387 . S
C513 C518 1.390 . S
C514 C513 1.387 . S
C514 C515 1.401 . S
C514 H535 0.930 . S
C515 C514 1.401 . S
C515 C516 1.376 . S
C515 C524 1.511 . S
C516 C515 1.376 . S
C516 C517 1.392 . S
C516 H537 0.931 . S
C517 C516 1.392 . S
C517 C518 1.361 . S
C517 C519 1.500 . S
C518 C513 1.390 . S
C518 C517 1.361 . S
C518 H536 0.931 . S
C519 C517 1.500 . S
C519 C520 1.371 . S
C519 C521 1.365 . S
C520 C519 1.371 . S
C520 C530 1.386 . S
C520 H538 0.931 . S
C521 C519 1.365 . S
C521 C522 1.409 . S
C521 H539 0.929 . S
C522 C521 1.409 . S
C522 C523 1.380 . S
C522 H540 0.930 . S
C523 C522 1.380 . S
C523 C530 1.357 . S
C524 C515 1.511 . S
C524 C525 1.341 . S
C524 C526 1.371 . S
C525 C524 1.341 . S
C525 C529 1.410 . S
C525 H541 0.930 . S
C526 C524 1.371 . S
C526 C527 1.392 1_556 S
C526 H542 0.931 . S
C527 C526 1.392 1_554 S
C527 C528 1.331 . S
C527 H545 0.932 . S
C528 C527 1.331 . S
C528 C529 1.322 1_554 S
C529 C525 1.410 . S
C529 C528 1.322 1_556 S
C529 H544 0.928 . S
C530 C520 1.386 . S
C530 C523 1.357 . S
C530 H543 0.928 . S
H531 C507 0.931 . S
H532 C509 0.930 . S
H533 C511 0.929 . S
H534 C512 0.931 . S
H535 C514 0.930 . S
H536 C518 0.931 . S
H537 C516 0.931 . S
H538 C520 0.931 . S
H539 C521 0.929 . S
H540 C522 0.930 . S
H541 C525 0.930 . S
H542 C526 0.931 . S
H543 C530 0.928 . S
H544 C529 0.928 . S
H545 C527 0.932 . S
C546 C547 1.386 . S
C546 C548 1.397 . S
C546 H570 0.931 . S
C547 C546 1.386 . S
C547 C551 1.397 . S
C548 C546 1.397 . S
C548 C549 1.384 . S
C548 H571 0.930 . S
C549 C548 1.384 . S
C549 C550 1.377 . S
C549 C552 1.481 . S
C550 C549 1.377 . S
C550 C551 1.389 . S
C550 H572 0.929 . S
C551 C547 1.397 . S
C551 C550 1.389 . S
C551 H573 0.931 . S
C552 C549 1.481 . S
C552 C553 1.387 . S
C552 C557 1.390 . S
C553 C552 1.387 . S
C553 C554 1.401 . S
C553 H574 0.930 . S
C554 C553 1.401 . S
C554 C555 1.376 . S
C554 C563 1.511 . S
C555 C554 1.376 . S
C555 C556 1.392 . S
C555 H576 0.931 . S
C556 C555 1.392 . S
C556 C557 1.361 . S
C556 C558 1.500 . S
C557 C552 1.390 . S
C557 C556 1.361 . S
C557 H575 0.931 . S
C558 C556 1.500 . S
C558 C559 1.371 . S
C558 C560 1.365 . S
C559 C558 1.371 . S
C559 C569 1.386 . S
C559 H577 0.931 . S
C560 C558 1.365 . S
C560 C561 1.409 . S
C560 H578 0.929 . S
C561 C560 1.409 . S
C561 C562 1.380 . S
C561 H579 0.930 . S
C562 C561 1.380 . S
C562 C569 1.357 . S
C563 C554 1.511 . S
C563 C564 1.341 . S
C563 C565 1.371 . S
C564 C563 1.341 . S
C564 C568 1.394 . S
C564 H580 0.930 . S
C565 C563 1.371 . S
C565 C566 1.392 . S
C565 H581 0.931 . S
C566 C565 1.392 . S
C566 C567 1.331 . S
C566 H584 0.932 . S
C567 C566 1.331 . S
C567 C568 1.336 . S
C568 C564 1.394 . S
C568 C567 1.336 . S
C568 H583 0.929 . S
C569 C559 1.386 . S
C569 C562 1.357 . S
C569 H582 0.928 . S
H570 C546 0.931 . S
H571 C548 0.930 . S
H572 C550 0.929 . S
H573 C551 0.931 . S
H574 C553 0.930 . S
H575 C557 0.931 . S
H576 C555 0.931 . S
H577 C559 0.931 . S
H578 C560 0.929 . S
H579 C561 0.930 . S
H580 C564 0.930 . S
H581 C565 0.931 . S
H582 C569 0.928 . S
H583 C568 0.929 . S
H584 C566 0.932 . S
C585 C586 1.386 1_556 S
C585 C587 1.397 . S
C585 H609 0.931 . S
C586 C585 1.386 1_554 S
C586 C590 1.397 . S
C587 C585 1.397 . S
C587 C588 1.384 . S
C587 H610 0.930 . S
C588 C587 1.384 . S
C588 C589 1.377 1_556 S
C588 C591 1.481 . S
C589 C588 1.377 1_554 S
C589 C590 1.389 . S
C589 H611 0.929 . S
C590 C586 1.397 . S
C590 C589 1.389 . S
C590 H612 0.931 . S
C591 C588 1.481 . S
C591 C592 1.387 . S
C591 C596 1.390 . S
C592 C591 1.387 . S
C592 C593 1.401 . S
C592 H613 0.930 . S
C593 C592 1.401 . S
C593 C594 1.376 . S
C593 C602 1.511 . S
C594 C593 1.376 . S
C594 C595 1.392 . S
C594 H615 0.931 . S
C595 C594 1.392 . S
C595 C596 1.361 . S
C595 C597 1.500 . S
C596 C591 1.390 . S
C596 C595 1.361 . S
C596 H614 0.931 . S
C597 C595 1.500 . S
C597 C598 1.371 . S
C597 C599 1.365 . S
C598 C597 1.371 . S
C598 C608 1.386 1_545 S
C598 H616 0.931 . S
C599 C597 1.365 . S
C599 C600 1.409 . S
C599 H617 0.933 1_556 S
C600 C599 1.409 . S
C600 C601 1.380 1_545 S
C600 H618 0.930 1_556 S
C601 C600 1.380 1_565 S
C601 C608 1.357 . S
C602 C593 1.511 . S
C602 C603 1.341 . S
C602 C604 1.371 . S
C603 C602 1.341 . S
C603 C607 1.394 . S
C603 H619 0.930 . S
C604 C602 1.371 . S
C604 C605 1.392 . S
C604 H620 0.931 . S
C605 C604 1.392 . S
C605 C606 1.331 . S
C605 H623 0.932 . S
C606 C605 1.331 . S
C606 C607 1.336 . S
C607 C603 1.394 . S
C607 C606 1.336 . S
C607 H622 0.929 . S
C608 C598 1.386 1_565 S
C608 C601 1.357 . S
C608 H621 0.928 . S
H609 C585 0.931 . S
H610 C587 0.930 . S
H611 C589 0.929 . S
H612 C590 0.931 . S
H613 C592 0.930 . S
H614 C596 0.931 . S
H615 C594 0.931 . S
H616 C598 0.931 . S
H617 C599 0.933 1_554 S
H618 C600 0.930 1_554 S
H619 C603 0.930 . S
H620 C604 0.931 . S
H621 C608 0.928 . S
H622 C607 0.929 . S
H623 C605 0.932 . S
Mn624 O629 2.095 . S
Mn624 O639 2.162 . S
Mn624 O640 2.297 . S
Mn624 O648 2.418 . S
Mn624 O649 2.209 1_554 S
Mn624 O650 2.094 . S
Mn625 O630 2.121 . S
Mn625 N632 2.257 . S
Mn625 N641 2.282 . S
Mn625 O649 2.215 . S
Mn625 O651 2.117 . S
C626 O648 1.174 1_556 S
C626 O649 1.283 . S
C627 O639 1.281 . S
C627 O640 1.236 . S
C628 O650 1.240 . S
C628 O651 1.264 1_554 S
O629 Mn624 2.095 . S
O629 C638 1.250 . S
O630 Mn625 2.121 . S
O630 C638 1.258 1_556 S
C631 N632 1.326 . S
C631 C635 1.460 . S
C631 H637 0.929 . S
N632 Mn625 2.257 . S
N632 C631 1.326 . S
N632 C636 1.362 . S
C633 C634 1.258 . S
C633 C636 1.431 . S
C633 C653 1.449 . S
C634 C633 1.258 . S
C634 C635 1.477 . S
C634 H654 0.931 . S
C635 C631 1.460 . S
C635 C634 1.477 . S
C635 H655 0.930 . S
C636 N632 1.362 . S
C636 C633 1.431 . S
C636 C646 1.476 . S
H637 C631 0.929 . S
C638 O629 1.250 . S
C638 O630 1.258 1_554 S
O639 Mn624 2.162 . S
O639 C627 1.281 . S
O640 Mn624 2.297 . S
O640 C627 1.236 . S
N641 Mn625 2.282 . S
N641 C642 1.328 . S
N641 C646 1.318 . S
C642 N641 1.328 . S
C642 C643 1.457 . S
C642 H647 0.929 . S
C643 C642 1.457 . S
C643 C644 1.291 . S
C643 H656 0.931 . S
C644 C643 1.291 . S
C644 C645 1.373 . S
C644 H657 0.929 . S
C645 C644 1.373 . S
C645 C646 1.396 . S
C645 C652 1.403 . S
C646 C636 1.476 . S
C646 N641 1.318 . S
C646 C645 1.396 . S
H647 C642 0.929 . S
O648 Mn624 2.418 . S
O648 C626 1.174 1_554 S
O649 Mn624 2.209 1_556 S
O649 Mn625 2.215 . S
O649 C626 1.283 . S
O650 Mn624 2.094 . S
O650 C628 1.240 . S
O651 Mn625 2.117 . S
O651 C628 1.264 1_556 S
C652 C645 1.403 . S
C652 C653 1.399 . S
C652 H658 0.929 . S
C653 C633 1.449 . S
C653 C652 1.399 . S
C653 H659 0.930 . S
H654 C634 0.931 . S
H655 C635 0.930 . S
H656 C643 0.931 . S
H657 C644 0.929 . S
H658 C652 0.929 . S
H659 C653 0.930 . S
Mn660 O665 2.095 . S
Mn660 O675 2.162 . S
Mn660 O676 2.297 . S
Mn660 O684 2.385 . S
Mn660 O685 2.209 . S
Mn660 O686 2.094 . S
Mn661 O666 2.121 . S
Mn661 N668 2.257 . S
Mn661 N677 2.282 . S
Mn661 O685 2.215 . S
Mn661 O687 2.117 . S
C662 O684 1.234 . S
C662 O685 1.283 . S
C663 O675 1.281 . S
C663 O676 1.236 . S
C664 O686 1.240 . S
C664 O687 1.264 . S
O665 Mn660 2.095 . S
O665 C674 1.250 . S
O666 Mn661 2.121 . S
O666 C674 1.258 . S
C667 N668 1.326 . S
C667 C671 1.460 . S
C667 H673 0.929 . S
N668 Mn661 2.257 . S
N668 C667 1.326 . S
N668 C672 1.362 . S
C669 C670 1.258 . S
C669 C672 1.431 . S
C669 C689 1.449 . S
C670 C669 1.258 . S
C670 C671 1.477 . S
C670 H690 0.931 . S
C671 C667 1.460 . S
C671 C670 1.477 . S
C671 H691 0.930 . S
C672 N668 1.362 . S
C672 C669 1.431 . S
C672 C682 1.476 . S
H673 C667 0.929 . S
C674 O665 1.250 . S
C674 O666 1.258 . S
O675 Mn660 2.162 . S
O675 C663 1.281 . S
O676 Mn660 2.297 . S
O676 C663 1.236 . S
N677 Mn661 2.282 . S
N677 C678 1.328 . S
N677 C682 1.318 . S
C678 N677 1.328 . S
C678 C679 1.457 . S
C678 H683 0.929 . S
C679 C678 1.457 . S
C679 C680 1.291 . S
C679 H692 0.931 . S
C680 C679 1.291 . S
C680 C681 1.373 . S
C680 H693 0.929 . S
C681 C680 1.373 . S
C681 C682 1.396 . S
C681 C688 1.403 . S
C682 C672 1.476 . S
C682 N677 1.318 . S
C682 C681 1.396 . S
H683 C678 0.929 . S
O684 Mn660 2.385 . S
O684 C662 1.234 . S
O685 Mn660 2.209 . S
O685 Mn661 2.215 . S
O685 C662 1.283 . S
O686 Mn660 2.094 . S
O686 C664 1.240 . S
O687 Mn661 2.117 . S
O687 C664 1.264 . S
C688 C681 1.403 . S
C688 C689 1.399 . S
C688 H694 0.929 . S
C689 C669 1.449 . S
C689 C688 1.399 . S
C689 H695 0.930 . S
H690 C670 0.931 . S
H691 C671 0.930 . S
H692 C679 0.931 . S
H693 C680 0.929 . S
H694 C688 0.929 . S
H695 C689 0.930 . S
Mn696 O701 2.095 1_554 S
Mn696 O711 2.162 . S
Mn696 O712 2.297 1_554 S
Mn696 O720 2.385 . S
Mn696 O721 2.209 1_554 S
Mn696 O722 2.094 . S
Mn697 O702 2.121 . S
Mn697 N704 2.257 . S
Mn697 N713 2.282 . S
Mn697 O721 2.215 . S
Mn697 O723 2.117 1_556 S
C698 O720 1.235 1_556 S
C698 O721 1.282 . S
C699 O711 1.281 . S
C699 O712 1.236 1_554 S
C700 O722 1.240 . S
C700 O723 1.264 . S
O701 Mn696 2.095 1_556 S
O701 C710 1.250 . S
O702 Mn697 2.121 . S
O702 C710 1.258 . S
C703 N704 1.326 . S
C703 C707 1.460 . S
C703 H709 0.929 . S
N704 Mn697 2.257 . S
N704 C703 1.326 . S
N704 C708 1.362 . S
C705 C706 1.258 . S
C705 C708 1.431 . S
C705 C725 1.449 . S
C706 C705 1.258 . S
C706 C707 1.477 . S
C706 H726 0.931 . S
C707 C703 1.460 . S
C707 C706 1.477 . S
C707 H727 0.930 . S
C708 N704 1.362 . S
C708 C705 1.431 . S
C708 C718 1.476 . S
H709 C703 0.929 . S
C710 O701 1.250 . S
C710 O702 1.258 . S
O711 Mn696 2.162 . S
O711 C699 1.281 . S
O712 Mn696 2.297 1_556 S
O712 C699 1.236 1_556 S
N713 Mn697 2.282 . S
N713 C714 1.328 1_556 S
N713 C718 1.318 . S
C714 N713 1.328 1_554 S
C714 C715 1.457 . S
C714 H719 0.929 . S
C715 C714 1.457 . S
C715 C716 1.291 . S
C715 H728 0.931 . S
C716 C715 1.291 . S
C716 C717 1.373 1_554 S
C716 H729 0.929 . S
C717 C716 1.373 1_556 S
C717 C718 1.396 . S
C717 C724 1.403 . S
C718 C708 1.476 . S
C718 N713 1.318 . S
C718 C717 1.396 . S
H719 C714 0.929 . S
O720 Mn696 2.385 . S
O720 C698 1.235 1_554 S
O721 Mn696 2.209 1_556 S
O721 Mn697 2.215 . S
O721 C698 1.282 . S
O722 Mn696 2.094 . S
O722 C700 1.240 . S
O723 Mn697 2.117 1_554 S
O723 C700 1.264 . S
C724 C717 1.403 . S
C724 C725 1.399 . S
C724 H730 0.929 . S
C725 C705 1.449 . S
C725 C724 1.399 . S
C725 H731 0.930 . S
H726 C706 0.931 . S
H727 C707 0.930 . S
H728 C715 0.931 . S
H729 C716 0.929 . S
H730 C724 0.929 . S
H731 C725 0.930 . S
Mn732 O737 2.095 . S
Mn732 O747 2.162 . S
Mn732 O748 2.297 . S
Mn732 O756 2.385 . S
Mn732 O757 2.209 1_545 S
Mn732 O758 2.094 . S
Mn733 O738 2.121 . S
Mn733 N740 2.257 . S
Mn733 N749 2.282 . S
Mn733 O757 2.215 . S
Mn733 O759 2.117 . S
C734 O756 1.234 1_565 S
C734 O757 1.283 . S
C735 O747 1.281 . S
C735 O748 1.236 . S
C736 O758 1.240 . S
C736 O759 1.264 1_545 S
O737 Mn732 2.095 . S
O737 C746 1.250 . S
O738 Mn733 2.121 . S
O738 C746 1.258 1_565 S
C739 N740 1.326 . S
C739 C743 1.460 . S
C739 H745 0.929 . S
N740 Mn733 2.257 . S
N740 C739 1.326 . S
N740 C744 1.362 . S
C741 C742 1.258 . S
C741 C744 1.431 . S
C741 C761 1.449 . S
C742 C741 1.258 . S
C742 C743 1.477 . S
C742 H762 0.931 . S
C743 C739 1.460 . S
C743 C742 1.477 . S
C743 H763 0.930 . S
C744 N740 1.362 . S
C744 C741 1.431 . S
C744 C754 1.476 . S
H745 C739 0.929 . S
C746 O737 1.250 . S
C746 O738 1.258 1_545 S
O747 Mn732 2.162 . S
O747 C735 1.281 . S
O748 Mn732 2.297 . S
O748 C735 1.236 . S
N749 Mn733 2.282 . S
N749 C750 1.328 . S
N749 C754 1.318 . S
C750 N749 1.328 . S
C750 C751 1.457 . S
C750 H755 0.929 . S
C751 C750 1.457 . S
C751 C752 1.291 . S
C751 H764 0.931 . S
C752 C751 1.291 . S
C752 C753 1.373 . S
C752 H765 0.929 . S
C753 C752 1.373 . S
C753 C754 1.396 . S
C753 C760 1.403 . S
C754 C744 1.476 . S
C754 N749 1.318 . S
C754 C753 1.396 . S
H755 C750 0.929 . S
O756 Mn732 2.385 . S
O756 C734 1.234 1_545 S
O757 Mn732 2.209 1_565 S
O757 Mn733 2.215 . S
O757 C734 1.283 . S
O758 Mn732 2.094 . S
O758 C736 1.240 . S
O759 Mn733 2.117 . S
O759 C736 1.264 1_565 S
C760 C753 1.403 . S
C760 C761 1.399 . S
C760 H766 0.929 . S
C761 C741 1.449 . S
C761 C760 1.399 . S
C761 H767 0.930 . S
H762 C742 0.931 . S
H763 C743 0.930 . S
H764 C751 0.931 . S
H765 C752 0.929 . S
H766 C760 0.929 . S
H767 C761 0.930 . S
Mn768 O773 2.095 . S
Mn768 O783 2.162 . S
Mn768 O784 2.297 . S
Mn768 O792 2.385 . S
Mn768 O793 2.209 . S
Mn768 O794 2.094 . S
Mn769 O774 2.121 . S
Mn769 N776 2.257 . S
Mn769 N785 2.282 . S
Mn769 O793 2.215 . S
Mn769 O795 2.117 . S
C770 O792 1.234 . S
C770 O793 1.283 . S
C771 O783 1.281 . S
C771 O784 1.236 . S
C772 O794 1.240 . S
C772 O795 1.264 . S
O773 Mn768 2.095 . S
O773 C782 1.250 . S
O774 Mn769 2.121 . S
O774 C782 1.258 . S
C775 N776 1.326 . S
C775 C779 1.460 . S
C775 H781 0.929 . S
N776 Mn769 2.257 . S
N776 C775 1.326 . S
N776 C780 1.362 . S
C777 C778 1.258 . S
C777 C780 1.431 . S
C777 C797 1.449 . S
C778 C777 1.258 . S
C778 C779 1.477 . S
C778 H798 0.931 . S
C779 C775 1.460 . S
C779 C778 1.477 . S
C779 H799 0.930 . S
C780 N776 1.362 . S
C780 C777 1.431 . S
C780 C790 1.476 . S
H781 C775 0.929 . S
C782 O773 1.250 . S
C782 O774 1.258 . S
O783 Mn768 2.162 . S
O783 C771 1.281 . S
O784 Mn768 2.297 . S
O784 C771 1.236 . S
N785 Mn769 2.282 . S
N785 C786 1.328 . S
N785 C790 1.318 . S
C786 N785 1.328 . S
C786 C787 1.457 . S
C786 H791 0.929 . S
C787 C786 1.457 . S
C787 C788 1.291 . S
C787 H800 0.931 . S
C788 C787 1.291 . S
C788 C789 1.373 . S
C788 H801 0.929 . S
C789 C788 1.373 . S
C789 C790 1.396 . S
C789 C796 1.403 . S
C790 C780 1.476 . S
C790 N785 1.318 . S
C790 C789 1.396 . S
H791 C786 0.929 . S
O792 Mn768 2.385 . S
O792 C770 1.234 . S
O793 Mn768 2.209 . S
O793 Mn769 2.215 . S
O793 C770 1.283 . S
O794 Mn768 2.094 . S
O794 C772 1.240 . S
O795 Mn769 2.117 . S
O795 C772 1.264 . S
C796 C789 1.403 . S
C796 C797 1.399 . S
C796 H802 0.929 . S
C797 C777 1.449 . S
C797 C796 1.399 . S
C797 H803 0.930 . S
H798 C778 0.931 . S
H799 C779 0.930 . S
H800 C787 0.931 . S
H801 C788 0.929 . S
H802 C796 0.929 . S
H803 C797 0.930 . S
Mn804 O809 2.095 . S
Mn804 O819 2.162 . S
Mn804 O820 2.297 . S
Mn804 O828 2.385 . S
Mn804 O829 2.209 . S
Mn804 O830 2.094 . S
Mn805 O810 2.121 . S
Mn805 N812 2.257 . S
Mn805 N821 2.282 . S
Mn805 O829 2.215 . S
Mn805 O831 2.117 . S
C806 O828 1.234 . S
C806 O829 1.283 . S
C807 O819 1.281 . S
C807 O820 1.236 . S
C808 O830 1.240 . S
C808 O831 1.264 . S
O809 Mn804 2.095 . S
O809 C818 1.250 . S
O810 Mn805 2.121 . S
O810 C818 1.258 . S
C811 N812 1.326 . S
C811 C815 1.460 . S
C811 H817 0.929 . S
N812 Mn805 2.257 . S
N812 C811 1.326 . S
N812 C816 1.362 . S
C813 C814 1.258 . S
C813 C816 1.431 . S
C813 C833 1.449 . S
C814 C813 1.258 . S
C814 C815 1.477 . S
C814 H834 0.931 . S
C815 C811 1.460 . S
C815 C814 1.477 . S
C815 H835 0.930 . S
C816 N812 1.362 . S
C816 C813 1.431 . S
C816 C826 1.476 . S
H817 C811 0.929 . S
C818 O809 1.250 . S
C818 O810 1.258 . S
O819 Mn804 2.162 . S
O819 C807 1.281 . S
O820 Mn804 2.297 . S
O820 C807 1.236 . S
N821 Mn805 2.282 . S
N821 C822 1.328 . S
N821 C826 1.318 . S
C822 N821 1.328 . S
C822 C823 1.457 . S
C822 H827 0.929 . S
C823 C822 1.457 . S
C823 C824 1.291 . S
C823 H836 0.931 . S
C824 C823 1.291 . S
C824 C825 1.373 . S
C824 H837 0.929 . S
C825 C824 1.373 . S
C825 C826 1.396 . S
C825 C832 1.403 . S
C826 C816 1.476 . S
C826 N821 1.318 . S
C826 C825 1.396 . S
H827 C822 0.929 . S
O828 Mn804 2.385 . S
O828 C806 1.234 . S
O829 Mn804 2.209 . S
O829 Mn805 2.215 . S
O829 C806 1.283 . S
O830 Mn804 2.094 . S
O830 C808 1.240 . S
O831 Mn805 2.117 . S
O831 C808 1.264 . S
C832 C825 1.403 . S
C832 C833 1.399 . S
C832 H838 0.929 . S
C833 C813 1.449 . S
C833 C832 1.399 . S
C833 H839 0.930 . S
H834 C814 0.931 . S
H835 C815 0.930 . S
H836 C823 0.931 . S
H837 C824 0.929 . S
H838 C832 0.929 . S
H839 C833 0.930 . S
Mn840 O845 2.095 . S
Mn840 O855 2.162 . S
Mn840 O856 2.297 . S
Mn840 O864 2.385 . S
Mn840 O865 2.209 . S
Mn840 O866 2.094 . S
Mn841 O846 2.121 . S
Mn841 N848 2.257 . S
Mn841 N857 2.282 . S
Mn841 O865 2.215 . S
Mn841 O867 2.117 . S
C842 O864 1.234 . S
C842 O865 1.283 . S
C843 O855 1.281 . S
C843 O856 1.236 . S
C844 O866 1.240 . S
C844 O867 1.264 . S
O845 Mn840 2.095 . S
O845 C854 1.250 . S
O846 Mn841 2.121 . S
O846 C854 1.258 . S
C847 N848 1.326 . S
C847 C851 1.460 . S
C847 H853 0.929 . S
N848 Mn841 2.257 . S
N848 C847 1.326 . S
N848 C852 1.362 . S
C849 C850 1.258 . S
C849 C852 1.431 . S
C849 C869 1.449 . S
C850 C849 1.258 . S
C850 C851 1.477 . S
C850 H870 0.931 . S
C851 C847 1.460 . S
C851 C850 1.477 . S
C851 H871 0.930 . S
C852 N848 1.362 . S
C852 C849 1.431 . S
C852 C862 1.476 . S
H853 C847 0.929 . S
C854 O845 1.250 . S
C854 O846 1.258 . S
O855 Mn840 2.162 . S
O855 C843 1.281 . S
O856 Mn840 2.297 . S
O856 C843 1.236 . S
N857 Mn841 2.282 . S
N857 C858 1.328 . S
N857 C862 1.318 . S
C858 N857 1.328 . S
C858 C859 1.457 . S
C858 H863 0.929 . S
C859 C858 1.457 . S
C859 C860 1.291 . S
C859 H872 0.931 . S
C860 C859 1.291 . S
C860 C861 1.373 . S
C860 H873 0.929 . S
C861 C860 1.373 . S
C861 C862 1.396 . S
C861 C868 1.403 . S
C862 C852 1.476 . S
C862 N857 1.318 . S
C862 C861 1.396 . S
H863 C858 0.929 . S
O864 Mn840 2.385 . S
O864 C842 1.234 . S
O865 Mn840 2.209 . S
O865 Mn841 2.215 . S
O865 C842 1.283 . S
O866 Mn840 2.094 . S
O866 C844 1.240 . S
O867 Mn841 2.117 . S
O867 C844 1.264 . S
C868 C861 1.403 . S
C868 C869 1.399 . S
C868 H874 0.929 . S
C869 C849 1.449 . S
C869 C868 1.399 . S
C869 H875 0.930 . S
H870 C850 0.931 . S
H871 C851 0.930 . S
H872 C859 0.931 . S
H873 C860 0.929 . S
H874 C868 0.929 . S
H875 C869 0.930 . S
Mn876 O881 2.095 . S
Mn876 O891 2.162 . S
Mn876 O892 2.297 . S
Mn876 O900 2.385 1_565 S
Mn876 O901 2.209 1_565 S
Mn876 O902 2.094 . S
Mn877 O882 2.121 . S
Mn877 N884 2.257 . S
Mn877 N893 2.282 . S
Mn877 O901 2.215 . S
Mn877 O903 2.117 . S
C878 O900 1.234 . S
C878 O901 1.283 . S
C879 O891 1.281 . S
C879 O892 1.236 . S
C880 O902 1.220 1_545 S
C880 O903 1.290 . S
O881 Mn876 2.095 . S
O881 C890 1.250 1_565 S
O882 Mn877 2.121 . S
O882 C890 1.258 . S
C883 N884 1.326 . S
C883 C887 1.460 . S
C883 H889 0.929 . S
N884 Mn877 2.257 . S
N884 C883 1.326 . S
N884 C888 1.362 . S
C885 C886 1.258 . S
C885 C888 1.431 . S
C885 C905 1.449 . S
C886 C885 1.258 . S
C886 C887 1.477 . S
C886 H906 0.931 . S
C887 C883 1.460 . S
C887 C886 1.477 . S
C887 H907 0.930 . S
C888 N884 1.362 . S
C888 C885 1.431 . S
C888 C898 1.476 . S
H889 C883 0.929 . S
C890 O881 1.250 1_545 S
C890 O882 1.258 . S
O891 Mn876 2.162 . S
O891 C879 1.281 . S
O892 Mn876 2.297 . S
O892 C879 1.236 . S
N893 Mn877 2.282 . S
N893 C894 1.328 . S
N893 C898 1.318 . S
C894 N893 1.328 . S
C894 C895 1.457 . S
C894 H899 0.929 . S
C895 C894 1.457 . S
C895 C896 1.291 . S
C895 H908 0.931 . S
C896 C895 1.291 . S
C896 C897 1.373 . S
C896 H909 0.929 . S
C897 C896 1.373 . S
C897 C898 1.396 . S
C897 C904 1.403 . S
C898 C888 1.476 . S
C898 N893 1.318 . S
C898 C897 1.396 . S
H899 C894 0.929 . S
O900 Mn876 2.385 1_545 S
O900 C878 1.234 . S
O901 Mn876 2.209 1_545 S
O901 Mn877 2.215 . S
O901 C878 1.283 . S
O902 Mn876 2.094 . S
O902 C880 1.220 1_565 S
O903 Mn877 2.117 . S
O903 C880 1.290 . S
C904 C897 1.403 . S
C904 C905 1.399 . S
C904 H910 0.929 . S
C905 C885 1.449 . S
C905 C904 1.399 . S
C905 H911 0.930 . S
H906 C886 0.931 . S
H907 C887 0.930 . S
H908 C895 0.931 . S
H909 C896 0.929 . S
H910 C904 0.929 . S
H911 C905 0.930 . S
Mn912 O917 2.095 . S
Mn912 O927 2.162 . S
Mn912 O928 2.297 . S
Mn912 O936 2.385 1_455 S
Mn912 O937 2.209 1_455 S
Mn912 O938 2.094 . S
Mn913 O918 2.121 . S
Mn913 N920 2.257 . S
Mn913 N929 2.282 . S
Mn913 O937 2.215 . S
Mn913 O939 2.117 . S
C914 O936 1.234 . S
C914 O937 1.283 . S
C915 O927 1.281 . S
C915 O928 1.236 . S
C916 O938 1.240 . S
C916 O939 1.264 1_455 S
O917 Mn912 2.095 . S
O917 C926 1.250 1_455 S
O918 Mn913 2.121 . S
O918 C926 1.258 . S
C919 N920 1.326 . S
C919 C923 1.460 . S
C919 H925 0.929 . S
N920 Mn913 2.257 . S
N920 C919 1.326 . S
N920 C924 1.362 . S
C921 C922 1.258 . S
C921 C924 1.431 . S
C921 C941 1.449 . S
C922 C921 1.258 . S
C922 C923 1.477 . S
C922 H942 0.931 . S
C923 C919 1.460 . S
C923 C922 1.477 . S
C923 H943 0.930 . S
C924 N920 1.362 . S
C924 C921 1.431 . S
C924 C934 1.476 . S
H925 C919 0.929 . S
C926 O917 1.250 1_655 S
C926 O918 1.258 . S
O927 Mn912 2.162 . S
O927 C915 1.281 . S
O928 Mn912 2.297 . S
O928 C915 1.236 . S
N929 Mn913 2.282 . S
N929 C930 1.328 . S
N929 C934 1.318 . S
C930 N929 1.328 . S
C930 C931 1.457 . S
C930 H935 0.929 . S
C931 C930 1.457 . S
C931 C932 1.291 . S
C931 H944 0.931 . S
C932 C931 1.291 . S
C932 C933 1.373 . S
C932 H945 0.929 . S
C933 C932 1.373 . S
C933 C934 1.396 . S
C933 C940 1.403 . S
C934 C924 1.476 . S
C934 N929 1.318 . S
C934 C933 1.396 . S
H935 C930 0.929 . S
O936 Mn912 2.385 1_655 S
O936 C914 1.234 . S
O937 Mn912 2.209 1_655 S
O937 Mn913 2.215 . S
O937 C914 1.283 . S
O938 Mn912 2.094 . S
O938 C916 1.240 . S
O939 Mn913 2.117 . S
O939 C916 1.264 1_655 S
C940 C933 1.403 . S
C940 C941 1.399 . S
C940 H946 0.929 . S
C941 C921 1.449 . S
C941 C940 1.399 . S
C941 H947 0.930 . S
H942 C922 0.931 . S
H943 C923 0.930 . S
H944 C931 0.931 . S
H945 C932 0.929 . S
H946 C940 0.929 . S
H947 C941 0.930 . S
Mn948 O953 2.095 . S
Mn948 O963 2.162 . S
Mn948 O964 2.297 . S
Mn948 O972 2.385 . S
Mn948 O973 2.209 . S
Mn948 O974 2.094 . S
Mn949 O954 2.121 . S
Mn949 N956 2.257 . S
Mn949 N965 2.282 . S
Mn949 O973 2.215 . S
Mn949 O975 2.117 . S
C950 O972 1.234 . S
C950 O973 1.283 . S
C951 O963 1.281 . S
C951 O964 1.236 . S
C952 O974 1.240 . S
C952 O975 1.264 . S
O953 Mn948 2.095 . S
O953 C962 1.250 . S
O954 Mn949 2.121 . S
O954 C962 1.258 . S
C955 N956 1.326 . S
C955 C959 1.460 . S
C955 H961 0.929 . S
N956 Mn949 2.257 . S
N956 C955 1.326 . S
N956 C960 1.362 . S
C957 C958 1.258 . S
C957 C960 1.431 . S
C957 C977 1.449 . S
C958 C957 1.258 . S
C958 C959 1.477 . S
C958 H978 0.931 . S
C959 C955 1.460 . S
C959 C958 1.477 . S
C959 H979 0.930 . S
C960 N956 1.362 . S
C960 C957 1.431 . S
C960 C970 1.476 . S
H961 C955 0.929 . S
C962 O953 1.250 . S
C962 O954 1.258 . S
O963 Mn948 2.162 . S
O963 C951 1.281 . S
O964 Mn948 2.297 . S
O964 C951 1.236 . S
N965 Mn949 2.282 . S
N965 C966 1.328 . S
N965 C970 1.318 . S
C966 N965 1.328 . S
C966 C967 1.457 . S
C966 H971 0.929 . S
C967 C966 1.457 . S
C967 C968 1.291 . S
C967 H980 0.931 . S
C968 C967 1.291 . S
C968 C969 1.373 . S
C968 H981 0.929 . S
C969 C968 1.373 . S
C969 C970 1.396 . S
C969 C976 1.403 . S
C970 C960 1.476 . S
C970 N965 1.318 . S
C970 C969 1.396 . S
H971 C966 0.929 . S
O972 Mn948 2.385 . S
O972 C950 1.234 . S
O973 Mn948 2.209 . S
O973 Mn949 2.215 . S
O973 C950 1.283 . S
O974 Mn948 2.094 . S
O974 C952 1.240 . S
O975 Mn949 2.117 . S
O975 C952 1.264 . S
C976 C969 1.403 . S
C976 C977 1.399 . S
C976 H982 0.929 . S
C977 C957 1.449 . S
C977 C976 1.399 . S
C977 H983 0.930 . S
H978 C958 0.931 . S
H979 C959 0.930 . S
H980 C967 0.931 . S
H981 C968 0.929 . S
H982 C976 0.929 . S
H983 C977 0.930 . S
Mn984 O989 2.095 1_455 S
Mn984 O999 2.162 . S
Mn984 O1000 2.297 1_455 S
Mn984 O1008 2.385 . S
Mn984 O1009 2.209 1_455 S
Mn984 O1010 2.094 . S
Mn985 O990 2.121 . S
Mn985 N992 2.257 . S
Mn985 N1001 2.282 1_655 S
Mn985 O1009 2.215 . S
Mn985 O1011 2.117 1_655 S
C986 O1008 1.234 . S
C986 O1009 1.283 1_455 S
C987 O999 1.281 . S
C987 O1000 1.236 1_455 S
C988 O1010 1.240 . S
C988 O1011 1.264 . S
O989 Mn984 2.095 1_655 S
O989 C998 1.250 . S
O990 Mn985 2.121 . S
O990 C998 1.258 . S
C991 N992 1.326 . S
C991 C995 1.460 . S
C991 H997 0.929 . S
N992 Mn985 2.257 . S
N992 C991 1.326 . S
N992 C996 1.362 . S
C993 C994 1.258 . S
C993 C996 1.431 . S
C993 C1013 1.449 . S
C994 C993 1.258 . S
C994 C995 1.477 . S
C994 H1014 0.931 . S
C995 C991 1.460 . S
C995 C994 1.477 . S
C995 H1015 0.930 . S
C996 N992 1.362 . S
C996 C993 1.431 . S
C996 C1006 1.476 . S
H997 C991 0.929 . S
C998 O989 1.250 . S
C998 O990 1.258 . S
O999 Mn984 2.162 . S
O999 C987 1.281 . S
O1000 Mn984 2.297 1_655 S
O1000 C987 1.236 1_655 S
N1001 Mn985 2.282 1_455 S
N1001 C1002 1.328 . S
N1001 C1006 1.318 1_455 S
C1002 N1001 1.328 . S
C1002 C1003 1.457 . S
C1002 H1007 0.929 . S
C1003 C1002 1.457 . S
C1003 C1004 1.291 . S
C1003 H1016 0.931 . S
C1004 C1003 1.291 . S
C1004 C1005 1.373 1_455 S
C1004 H1017 0.929 . S
C1005 C1004 1.373 1_655 S
C1005 C1006 1.396 . S
C1005 C1012 1.403 . S
C1006 C996 1.476 . S
C1006 N1001 1.318 1_655 S
C1006 C1005 1.396 . S
H1007 C1002 0.929 . S
O1008 Mn984 2.385 . S
O1008 C986 1.234 . S
O1009 Mn984 2.209 1_655 S
O1009 Mn985 2.215 . S
O1009 C986 1.283 1_655 S
O1010 Mn984 2.094 . S
O1010 C988 1.240 . S
O1011 Mn985 2.117 1_455 S
O1011 C988 1.264 . S
C1012 C1005 1.403 . S
C1012 C1013 1.399 . S
C1012 H1018 0.929 . S
C1013 C993 1.449 . S
C1013 C1012 1.399 . S
C1013 H1019 0.930 . S
H1014 C994 0.931 . S
H1015 C995 0.930 . S
H1016 C1003 0.931 . S
H1017 C1004 0.929 . S
H1018 C1012 0.929 . S
H1019 C1013 0.930 . S
Mn1020 O1025 2.095 . S
Mn1020 O1035 2.162 . S
Mn1020 O1036 2.297 . S
Mn1020 O1044 2.385 . S
Mn1020 O1045 2.209 . S
Mn1020 O1046 2.094 . S
Mn1021 O1026 2.121 . S
Mn1021 N1028 2.257 . S
Mn1021 N1037 2.282 . S
Mn1021 O1045 2.215 . S
Mn1021 O1047 2.117 . S
C1022 O1044 1.234 . S
C1022 O1045 1.283 . S
C1023 O1035 1.281 . S
C1023 O1036 1.236 . S
C1024 O1046 1.240 . S
C1024 O1047 1.264 . S
O1025 Mn1020 2.095 . S
O1025 C1034 1.250 . S
O1026 Mn1021 2.121 . S
O1026 C1034 1.258 . S
C1027 N1028 1.326 . S
C1027 C1031 1.460 . S
C1027 H1033 0.929 . S
N1028 Mn1021 2.257 . S
N1028 C1027 1.326 . S
N1028 C1032 1.362 . S
C1029 C1030 1.258 . S
C1029 C1032 1.431 . S
C1029 C1049 1.449 . S
C1030 C1029 1.258 . S
C1030 C1031 1.477 . S
C1030 H1050 0.931 . S
C1031 C1027 1.460 . S
C1031 C1030 1.477 . S
C1031 H1051 0.930 . S
C1032 N1028 1.362 . S
C1032 C1029 1.431 . S
C1032 C1042 1.476 . S
H1033 C1027 0.929 . S
C1034 O1025 1.250 . S
C1034 O1026 1.258 . S
O1035 Mn1020 2.162 . S
O1035 C1023 1.281 . S
O1036 Mn1020 2.297 . S
O1036 C1023 1.236 . S
N1037 Mn1021 2.282 . S
N1037 C1038 1.328 . S
N1037 C1042 1.318 . S
C1038 N1037 1.328 . S
C1038 C1039 1.457 . S
C1038 H1043 0.929 . S
C1039 C1038 1.457 . S
C1039 C1040 1.291 . S
C1039 H1052 0.931 . S
C1040 C1039 1.291 . S
C1040 C1041 1.373 . S
C1040 H1053 0.929 . S
C1041 C1040 1.373 . S
C1041 C1042 1.396 . S
C1041 C1048 1.403 . S
C1042 C1032 1.476 . S
C1042 N1037 1.318 . S
C1042 C1041 1.396 . S
H1043 C1038 0.929 . S
O1044 Mn1020 2.385 . S
O1044 C1022 1.234 . S
O1045 Mn1020 2.209 . S
O1045 Mn1021 2.215 . S
O1045 C1022 1.283 . S
O1046 Mn1020 2.094 . S
O1046 C1024 1.240 . S
O1047 Mn1021 2.117 . S
O1047 C1024 1.264 . S
C1048 C1041 1.403 . S
C1048 C1049 1.399 . S
C1048 H1054 0.929 . S
C1049 C1029 1.449 . S
C1049 C1048 1.399 . S
C1049 H1055 0.930 . S
H1050 C1030 0.931 . S
H1051 C1031 0.930 . S
H1052 C1039 0.931 . S
H1053 C1040 0.929 . S
H1054 C1048 0.929 . S
H1055 C1049 0.930 . S
H1056 C1074 0.951 . S
H1057 C1076 0.951 . S
H1058 C1078 0.950 . S
H1059 C1079 0.950 . S
H1060 C1081 0.950 . S
H1061 C1084 0.950 . S
H1062 C1085 0.950 . S
H1063 C1087 0.950 . S
H1064 C1088 0.950 . S
H1065 C1089 0.951 . S
H1066 C1091 0.951 . S
H1067 C1093 0.950 . S
H1068 C1094 0.950 . S
H1069 C1096 0.950 . S
H1070 C1099 0.950 . S
H1071 C1100 0.950 . S
H1072 C1102 0.950 . S
H1073 C1103 0.950 . S
C1074 H1056 0.951 . S
C1074 C1075 1.366 . S
C1074 C1076 1.388 . S
C1075 C1074 1.366 . S
C1075 C1079 1.385 . S
C1076 H1057 0.951 . S
C1076 C1074 1.388 . S
C1076 C1077 1.366 . S
C1077 C1076 1.366 . S
C1077 C1078 1.414 . S
C1077 C1080 1.499 . S
C1078 H1058 0.950 . S
C1078 C1077 1.414 . S
C1078 C1079 1.374 . S
C1079 H1059 0.950 . S
C1079 C1075 1.385 . S
C1079 C1078 1.374 . S
C1080 C1077 1.499 . S
C1080 C1081 1.373 . S
C1080 C1082 1.389 . S
C1081 H1060 0.950 . S
C1081 C1080 1.373 . S
C1081 C1097 1.377 . S
C1082 C1080 1.389 . S
C1082 C1083 1.524 . S
C1082 C1096 1.377 . S
C1083 C1082 1.524 . S
C1083 C1084 1.397 . S
C1083 C1088 1.363 . S
C1084 H1061 0.950 . S
C1084 C1083 1.397 . S
C1084 C1085 1.334 . S
C1085 H1062 0.950 . S
C1085 C1084 1.334 . S
C1085 C1086 1.287 . S
C1086 C1085 1.287 . S
C1086 C1087 1.524 . S
C1086 H1105 0.913 . S
C1087 H1063 0.950 . S
C1087 C1086 1.524 . S
C1087 C1088 1.415 . S
C1088 H1064 0.950 . S
C1088 C1083 1.363 . S
C1088 C1087 1.415 . S
C1089 H1065 0.951 . S
C1089 C1090 1.366 . S
C1089 C1091 1.388 . S
C1090 C1089 1.366 . S
C1090 C1094 1.385 . S
C1091 H1066 0.951 . S
C1091 C1089 1.388 . S
C1091 C1092 1.366 . S
C1092 C1091 1.366 . S
C1092 C1093 1.414 . S
C1092 C1095 1.499 . S
C1093 H1067 0.950 . S
C1093 C1092 1.414 . S
C1093 C1094 1.374 . S
C1094 H1068 0.950 . S
C1094 C1090 1.385 . S
C1094 C1093 1.374 . S
C1095 C1092 1.499 . S
C1095 C1096 1.373 . S
C1095 C1097 1.389 . S
C1096 H1069 0.950 . S
C1096 C1082 1.377 . S
C1096 C1095 1.373 . S
C1097 C1081 1.377 . S
C1097 C1095 1.389 . S
C1097 C1098 1.524 . S
C1098 C1097 1.524 . S
C1098 C1099 1.397 . S
C1098 C1103 1.363 . S
C1099 H1070 0.950 . S
C1099 C1098 1.397 . S
C1099 C1100 1.334 . S
C1100 H1071 0.950 . S
C1100 C1099 1.334 . S
C1100 C1101 1.287 . S
C1101 C1100 1.287 . S
C1101 C1102 1.524 . S
C1101 H1104 0.999 . S
C1102 H1072 0.950 . S
C1102 C1101 1.524 . S
C1102 C1103 1.415 . S
C1103 H1073 0.950 . S
C1103 C1098 1.363 . S
C1103 C1102 1.415 . S
H1104 C1101 0.999 . S
H1105 C1086 0.913 . S
H1106 C1124 0.951 . S
H1107 C1126 0.951 . S
H1108 C1128 0.950 . S
H1109 C1129 0.950 . S
H1110 C1131 0.950 . S
H1111 C1134 0.950 . S
H1112 C1135 0.950 . S
H1113 C1137 0.950 . S
H1114 C1138 0.950 . S
H1115 C1139 0.951 . S
H1116 C1141 0.951 . S
H1117 C1143 0.950 . S
H1118 C1144 0.950 . S
H1119 C1146 0.950 . S
H1120 C1149 0.950 . S
H1121 C1150 0.950 . S
H1122 C1152 0.950 . S
H1123 C1153 0.950 . S
C1124 H1106 0.951 . S
C1124 C1125 1.366 . S
C1124 C1126 1.388 . S
C1125 C1124 1.366 . S
C1125 C1129 1.385 . S
C1126 H1107 0.951 . S
C1126 C1124 1.388 . S
C1126 C1127 1.366 . S
C1127 C1126 1.366 . S
C1127 C1128 1.414 . S
C1127 C1130 1.499 . S
C1128 H1108 0.950 . S
C1128 C1127 1.414 . S
C1128 C1129 1.374 . S
C1129 H1109 0.950 . S
C1129 C1125 1.385 . S
C1129 C1128 1.374 . S
C1130 C1127 1.499 . S
C1130 C1131 1.373 . S
C1130 C1132 1.389 . S
C1131 H1110 0.950 . S
C1131 C1130 1.373 . S
C1131 C1147 1.377 . S
C1132 C1130 1.389 . S
C1132 C1133 1.524 . S
C1132 C1146 1.377 . S
C1133 C1132 1.524 . S
C1133 C1134 1.397 . S
C1133 C1138 1.363 . S
C1134 H1111 0.950 . S
C1134 C1133 1.397 . S
C1134 C1135 1.334 . S
C1135 H1112 0.950 . S
C1135 C1134 1.334 . S
C1135 C1136 1.287 . S
C1136 C1135 1.287 . S
C1136 C1137 1.524 . S
C1136 H1155 0.913 . S
C1137 H1113 0.950 . S
C1137 C1136 1.524 . S
C1137 C1138 1.415 . S
C1138 H1114 0.950 . S
C1138 C1133 1.363 . S
C1138 C1137 1.415 . S
C1139 H1115 0.951 . S
C1139 C1140 1.366 . S
C1139 C1141 1.388 . S
C1140 C1139 1.366 . S
C1140 C1144 1.385 . S
C1141 H1116 0.951 . S
C1141 C1139 1.388 . S
C1141 C1142 1.366 . S
C1142 C1141 1.366 . S
C1142 C1143 1.414 . S
C1142 C1145 1.499 . S
C1143 H1117 0.950 . S
C1143 C1142 1.414 . S
C1143 C1144 1.374 . S
C1144 H1118 0.950 . S
C1144 C1140 1.385 . S
C1144 C1143 1.374 . S
C1145 C1142 1.499 . S
C1145 C1146 1.373 . S
C1145 C1147 1.389 . S
C1146 H1119 0.950 . S
C1146 C1132 1.377 . S
C1146 C1145 1.373 . S
C1147 C1131 1.377 . S
C1147 C1145 1.389 . S
C1147 C1148 1.524 . S
C1148 C1147 1.524 . S
C1148 C1149 1.397 . S
C1148 C1153 1.363 . S
C1149 H1120 0.950 . S
C1149 C1148 1.397 . S
C1149 C1150 1.334 . S
C1150 H1121 0.950 . S
C1150 C1149 1.334 . S
C1150 C1151 1.287 . S
C1151 C1150 1.287 . S
C1151 C1152 1.524 . S
C1151 H1154 0.999 . S
C1152 H1122 0.950 . S
C1152 C1151 1.524 . S
C1152 C1153 1.415 . S
C1153 H1123 0.950 . S
C1153 C1148 1.363 . S
C1153 C1152 1.415 . S
H1154 C1151 0.999 . S
H1155 C1136 0.913 . S
H1156 C1174 0.951 . S
H1157 C1176 0.951 . S
H1158 C1178 0.950 . S
H1159 C1179 0.950 . S
H1160 C1181 0.950 . S
H1161 C1184 0.950 . S
H1162 C1185 0.950 . S
H1163 C1187 0.950 . S
H1164 C1188 0.950 . S
H1165 C1189 0.951 . S
H1166 C1191 0.951 . S
H1167 C1193 0.950 . S
H1168 C1194 0.950 . S
H1169 C1196 0.950 . S
H1170 C1199 0.950 . S
H1171 C1200 0.950 . S
H1172 C1202 0.950 . S
H1173 C1203 0.950 . S
C1174 H1156 0.951 . S
C1174 C1175 1.366 . S
C1174 C1176 1.388 . S
C1175 C1174 1.366 . S
C1175 C1179 1.385 . S
C1176 H1157 0.951 . S
C1176 C1174 1.388 . S
C1176 C1177 1.366 . S
C1177 C1176 1.366 . S
C1177 C1178 1.414 . S
C1177 C1180 1.499 . S
C1178 H1158 0.950 . S
C1178 C1177 1.414 . S
C1178 C1179 1.374 . S
C1179 H1159 0.950 . S
C1179 C1175 1.385 . S
C1179 C1178 1.374 . S
C1180 C1177 1.499 . S
C1180 C1181 1.373 . S
C1180 C1182 1.389 . S
C1181 H1160 0.950 . S
C1181 C1180 1.373 . S
C1181 C1197 1.377 . S
C1182 C1180 1.389 . S
C1182 C1183 1.524 . S
C1182 C1196 1.377 . S
C1183 C1182 1.524 . S
C1183 C1184 1.397 . S
C1183 C1188 1.363 . S
C1184 H1161 0.950 . S
C1184 C1183 1.397 . S
C1184 C1185 1.334 . S
C1185 H1162 0.950 . S
C1185 C1184 1.334 . S
C1185 C1186 1.287 . S
C1186 C1185 1.287 . S
C1186 C1187 1.524 . S
C1186 H1205 0.913 . S
C1187 H1163 0.950 . S
C1187 C1186 1.524 . S
C1187 C1188 1.415 . S
C1188 H1164 0.950 . S
C1188 C1183 1.363 . S
C1188 C1187 1.415 . S
C1189 H1165 0.951 . S
C1189 C1190 1.366 . S
C1189 C1191 1.388 . S
C1190 C1189 1.366 . S
C1190 C1194 1.385 . S
C1191 H1166 0.951 . S
C1191 C1189 1.388 . S
C1191 C1192 1.366 . S
C1192 C1191 1.366 . S
C1192 C1193 1.414 . S
C1192 C1195 1.499 . S
C1193 H1167 0.950 . S
C1193 C1192 1.414 . S
C1193 C1194 1.374 . S
C1194 H1168 0.950 . S
C1194 C1190 1.385 . S
C1194 C1193 1.374 . S
C1195 C1192 1.499 . S
C1195 C1196 1.373 . S
C1195 C1197 1.389 . S
C1196 H1169 0.950 . S
C1196 C1182 1.377 . S
C1196 C1195 1.373 . S
C1197 C1181 1.377 . S
C1197 C1195 1.389 . S
C1197 C1198 1.524 . S
C1198 C1197 1.524 . S
C1198 C1199 1.397 . S
C1198 C1203 1.363 . S
C1199 H1170 0.950 . S
C1199 C1198 1.397 . S
C1199 C1200 1.334 . S
C1200 H1171 0.950 . S
C1200 C1199 1.334 . S
C1200 C1201 1.287 . S
C1201 C1200 1.287 . S
C1201 C1202 1.524 . S
C1201 H1204 0.999 . S
C1202 H1172 0.950 . S
C1202 C1201 1.524 . S
C1202 C1203 1.415 . S
C1203 H1173 0.950 . S
C1203 C1198 1.363 . S
C1203 C1202 1.415 . S
H1204 C1201 0.999 . S
H1205 C1186 0.913 . S
H1206 C1224 1.012 . S
H1207 C1226 0.951 . S
H1208 C1228 0.950 . S
H1209 C1229 0.950 . S
H1210 C1231 0.950 . S
H1211 C1234 0.950 . S
H1212 C1235 0.950 . S
H1213 C1237 0.950 1_455 S
H1214 C1238 0.950 . S
H1215 C1239 0.951 . S
H1216 C1241 0.951 . S
H1217 C1243 0.950 . S
H1218 C1244 0.949 . S
H1219 C1246 0.950 . S
H1220 C1249 0.950 . S
H1221 C1250 0.950 . S
H1222 C1252 0.950 . S
H1223 C1253 0.950 . S
C1224 H1206 1.012 . S
C1224 C1225 1.366 . S
C1224 C1226 1.388 . S
C1225 C1224 1.366 . S
C1225 C1229 1.385 . S
C1226 H1207 0.951 . S
C1226 C1224 1.388 . S
C1226 C1227 1.366 . S
C1227 C1226 1.366 . S
C1227 C1228 1.414 . S
C1227 C1230 1.499 . S
C1228 H1208 0.950 . S
C1228 C1227 1.414 . S
C1228 C1229 1.374 . S
C1229 H1209 0.950 . S
C1229 C1225 1.385 . S
C1229 C1228 1.374 . S
C1230 C1227 1.499 . S
C1230 C1231 1.373 . S
C1230 C1232 1.389 1_565 S
C1231 H1210 0.950 . S
C1231 C1230 1.373 . S
C1231 C1247 1.377 . S
C1232 C1230 1.389 1_545 S
C1232 C1233 1.524 . S
C1232 C1246 1.377 . S
C1233 C1232 1.524 . S
C1233 C1234 1.397 . S
C1233 C1238 1.363 . S
C1234 H1211 0.950 . S
C1234 C1233 1.397 . S
C1234 C1235 1.334 . S
C1235 H1212 0.950 . S
C1235 C1234 1.334 . S
C1235 C1236 1.287 . S
C1236 C1235 1.287 . S
C1236 C1237 1.524 . S
C1236 H1255 0.913 1_655 S
C1237 H1213 0.950 1_655 S
C1237 C1236 1.524 . S
C1237 C1238 1.415 . S
C1238 H1214 0.950 . S
C1238 C1233 1.363 . S
C1238 C1237 1.415 . S
C1239 H1215 0.951 . S
C1239 C1240 1.366 . S
C1239 C1241 1.388 . S
C1240 C1239 1.366 . S
C1240 C1244 1.386 1_545 S
C1241 H1216 0.951 . S
C1241 C1239 1.388 . S
C1241 C1242 1.366 1_545 S
C1242 C1241 1.366 1_565 S
C1242 C1243 1.414 . S
C1242 C1245 1.499 . S
C1243 H1217 0.950 . S
C1243 C1242 1.414 . S
C1243 C1244 1.373 . S
C1244 H1218 0.949 . S
C1244 C1240 1.386 1_565 S
C1244 C1243 1.373 . S
C1245 C1242 1.499 . S
C1245 C1246 1.373 1_565 S
C1245 C1247 1.389 . S
C1246 H1219 0.950 . S
C1246 C1232 1.377 . S
C1246 C1245 1.373 1_545 S
C1247 C1231 1.377 . S
C1247 C1245 1.389 . S
C1247 C1248 1.524 . S
C1248 C1247 1.524 . S
C1248 C1249 1.397 . S
C1248 C1253 1.363 . S
C1249 H1220 0.950 . S
C1249 C1248 1.397 . S
C1249 C1250 1.334 . S
C1250 H1221 0.950 . S
C1250 C1249 1.334 . S
C1250 C1251 1.287 . S
C1251 C1250 1.287 . S
C1251 C1252 1.524 . S
C1251 H1254 0.999 . S
C1252 H1222 0.950 . S
C1252 C1251 1.524 . S
C1252 C1253 1.415 . S
C1253 H1223 0.950 . S
C1253 C1248 1.363 . S
C1253 C1252 1.415 . S
H1254 C1251 0.999 . S
H1255 C1236 0.913 1_455 S
H1256 C1274 0.951 . S
H1257 C1276 0.951 . S
H1258 C1278 0.950 . S
H1259 C1279 0.950 . S
H1260 C1281 0.950 . S
H1261 C1284 0.950 . S
H1262 C1285 0.950 . S
H1263 C1287 0.950 . S
H1264 C1288 0.950 . S
H1265 C1289 0.951 . S
H1266 C1291 0.951 . S
H1267 C1293 0.950 . S
H1268 C1294 0.950 . S
H1269 C1296 0.950 . S
H1270 C1299 0.950 . S
H1271 C1300 0.950 . S
H1272 C1302 0.950 . S
H1273 C1303 0.950 . S
C1274 H1256 0.951 . S
C1274 C1275 1.366 . S
C1274 C1276 1.388 . S
C1275 C1274 1.366 . S
C1275 C1279 1.385 . S
C1276 H1257 0.951 . S
C1276 C1274 1.388 . S
C1276 C1277 1.366 . S
C1277 C1276 1.366 . S
C1277 C1278 1.414 . S
C1277 C1280 1.499 . S
C1278 H1258 0.950 . S
C1278 C1277 1.414 . S
C1278 C1279 1.374 . S
C1279 H1259 0.950 . S
C1279 C1275 1.385 . S
C1279 C1278 1.374 . S
C1280 C1277 1.499 . S
C1280 C1281 1.373 . S
C1280 C1282 1.389 . S
C1281 H1260 0.950 . S
C1281 C1280 1.373 . S
C1281 C1297 1.377 . S
C1282 C1280 1.389 . S
C1282 C1283 1.524 . S
C1282 C1296 1.377 . S
C1283 C1282 1.524 . S
C1283 C1284 1.397 . S
C1283 C1288 1.363 . S
C1284 H1261 0.950 . S
C1284 C1283 1.397 . S
C1284 C1285 1.334 . S
C1285 H1262 0.950 . S
C1285 C1284 1.334 . S
C1285 C1286 1.287 . S
C1286 C1285 1.287 . S
C1286 C1287 1.524 . S
C1286 H1305 0.913 . S
C1287 H1263 0.950 . S
C1287 C1286 1.524 . S
C1287 C1288 1.415 . S
C1288 H1264 0.950 . S
C1288 C1283 1.363 . S
C1288 C1287 1.415 . S
C1289 H1265 0.951 . S
C1289 C1290 1.366 . S
C1289 C1291 1.388 . S
C1290 C1289 1.366 . S
C1290 C1294 1.385 . S
C1291 H1266 0.951 . S
C1291 C1289 1.388 . S
C1291 C1292 1.366 . S
C1292 C1291 1.366 . S
C1292 C1293 1.414 . S
C1292 C1295 1.499 . S
C1293 H1267 0.950 . S
C1293 C1292 1.414 . S
C1293 C1294 1.374 . S
C1294 H1268 0.950 . S
C1294 C1290 1.385 . S
C1294 C1293 1.374 . S
C1295 C1292 1.499 . S
C1295 C1296 1.373 . S
C1295 C1297 1.389 . S
C1296 H1269 0.950 . S
C1296 C1282 1.377 . S
C1296 C1295 1.373 . S
C1297 C1281 1.377 . S
C1297 C1295 1.389 . S
C1297 C1298 1.524 . S
C1298 C1297 1.524 . S
C1298 C1299 1.397 . S
C1298 C1303 1.363 . S
C1299 H1270 0.950 . S
C1299 C1298 1.397 . S
C1299 C1300 1.334 . S
C1300 H1271 0.950 . S
C1300 C1299 1.334 . S
C1300 C1301 1.287 . S
C1301 C1300 1.287 . S
C1301 C1302 1.524 . S
C1301 H1304 0.999 . S
C1302 H1272 0.950 . S
C1302 C1301 1.524 . S
C1302 C1303 1.415 . S
C1303 H1273 0.950 . S
C1303 C1298 1.363 . S
C1303 C1302 1.415 . S
H1304 C1301 0.999 . S
H1305 C1286 0.913 . S
H1306 C1324 0.951 . S
H1307 C1326 0.951 . S
H1308 C1328 0.950 . S
H1309 C1329 0.950 . S
H1310 C1331 0.950 . S
H1311 C1334 0.950 . S
H1312 C1335 0.950 . S
H1313 C1337 0.950 . S
H1314 C1338 0.950 . S
H1315 C1339 0.951 . S
H1316 C1341 0.951 . S
H1317 C1343 0.950 . S
H1318 C1344 0.950 . S
H1319 C1346 0.950 . S
H1320 C1349 0.950 . S
H1321 C1350 0.950 . S
H1322 C1352 0.950 . S
H1323 C1353 0.950 . S
C1324 H1306 0.951 . S
C1324 C1325 1.366 . S
C1324 C1326 1.388 . S
C1325 C1324 1.366 . S
C1325 C1329 1.385 . S
C1326 H1307 0.951 . S
C1326 C1324 1.388 . S
C1326 C1327 1.366 . S
C1327 C1326 1.366 . S
C1327 C1328 1.414 . S
C1327 C1330 1.499 . S
C1328 H1308 0.950 . S
C1328 C1327 1.414 . S
C1328 C1329 1.374 . S
C1329 H1309 0.950 . S
C1329 C1325 1.385 . S
C1329 C1328 1.374 . S
C1330 C1327 1.499 . S
C1330 C1331 1.373 . S
C1330 C1332 1.389 . S
C1331 H1310 0.950 . S
C1331 C1330 1.373 . S
C1331 C1347 1.377 . S
C1332 C1330 1.389 . S
C1332 C1333 1.524 . S
C1332 C1346 1.377 . S
C1333 C1332 1.524 . S
C1333 C1334 1.397 . S
C1333 C1338 1.363 . S
C1334 H1311 0.950 . S
C1334 C1333 1.397 . S
C1334 C1335 1.334 . S
C1335 H1312 0.950 . S
C1335 C1334 1.334 . S
C1335 C1336 1.287 . S
C1336 C1335 1.287 . S
C1336 C1337 1.524 . S
C1336 H1355 0.913 . S
C1337 H1313 0.950 . S
C1337 C1336 1.524 . S
C1337 C1338 1.415 . S
C1338 H1314 0.950 . S
C1338 C1333 1.363 . S
C1338 C1337 1.415 . S
C1339 H1315 0.951 . S
C1339 C1340 1.366 . S
C1339 C1341 1.388 . S
C1340 C1339 1.366 . S
C1340 C1344 1.385 . S
C1341 H1316 0.951 . S
C1341 C1339 1.388 . S
C1341 C1342 1.366 . S
C1342 C1341 1.366 . S
C1342 C1343 1.414 . S
C1342 C1345 1.499 . S
C1343 H1317 0.950 . S
C1343 C1342 1.414 . S
C1343 C1344 1.374 . S
C1344 H1318 0.950 . S
C1344 C1340 1.385 . S
C1344 C1343 1.374 . S
C1345 C1342 1.499 . S
C1345 C1346 1.373 . S
C1345 C1347 1.389 . S
C1346 H1319 0.950 . S
C1346 C1332 1.377 . S
C1346 C1345 1.373 . S
C1347 C1331 1.377 . S
C1347 C1345 1.389 . S
C1347 C1348 1.524 . S
C1348 C1347 1.524 . S
C1348 C1349 1.397 . S
C1348 C1353 1.363 . S
C1349 H1320 0.950 . S
C1349 C1348 1.397 . S
C1349 C1350 1.334 . S
C1350 H1321 0.950 . S
C1350 C1349 1.334 . S
C1350 C1351 1.287 . S
C1351 C1350 1.287 . S
C1351 C1352 1.524 . S
C1351 H1354 0.999 . S
C1352 H1322 0.950 . S
C1352 C1351 1.524 . S
C1352 C1353 1.415 . S
C1353 H1323 0.950 . S
C1353 C1348 1.363 . S
C1353 C1352 1.415 . S
H1354 C1351 0.999 . S
H1355 C1336 0.913 . S
H1356 C1374 0.951 . S
H1357 C1376 0.951 . S
H1358 C1378 0.950 . S
H1359 C1379 0.950 . S
H1360 C1381 0.950 . S
H1361 C1384 0.950 . S
H1362 C1385 0.950 . S
H1363 C1387 0.950 . S
H1364 C1388 0.950 . S
H1365 C1389 0.951 . S
H1366 C1391 0.951 . S
H1367 C1393 0.950 . S
H1368 C1394 0.950 . S
H1369 C1396 0.950 . S
H1370 C1399 0.950 . S
H1371 C1400 0.950 . S
H1372 C1402 0.950 . S
H1373 C1403 0.950 . S
C1374 H1356 0.951 . S
C1374 C1375 1.366 . S
C1374 C1376 1.388 . S
C1375 C1374 1.366 . S
C1375 C1379 1.385 . S
C1376 H1357 0.951 . S
C1376 C1374 1.388 . S
C1376 C1377 1.366 . S
C1377 C1376 1.366 . S
C1377 C1378 1.414 . S
C1377 C1380 1.499 . S
C1378 H1358 0.950 . S
C1378 C1377 1.414 . S
C1378 C1379 1.374 . S
C1379 H1359 0.950 . S
C1379 C1375 1.385 . S
C1379 C1378 1.374 . S
C1380 C1377 1.499 . S
C1380 C1381 1.373 . S
C1380 C1382 1.389 . S
C1381 H1360 0.950 . S
C1381 C1380 1.373 . S
C1381 C1397 1.377 . S
C1382 C1380 1.389 . S
C1382 C1383 1.524 . S
C1382 C1396 1.377 . S
C1383 C1382 1.524 . S
C1383 C1384 1.397 . S
C1383 C1388 1.363 . S
C1384 H1361 0.950 . S
C1384 C1383 1.397 . S
C1384 C1385 1.334 . S
C1385 H1362 0.950 . S
C1385 C1384 1.334 . S
C1385 C1386 1.287 . S
C1386 C1385 1.287 . S
C1386 C1387 1.524 . S
C1386 H1405 0.913 . S
C1387 H1363 0.950 . S
C1387 C1386 1.524 . S
C1387 C1388 1.415 . S
C1388 H1364 0.950 . S
C1388 C1383 1.363 . S
C1388 C1387 1.415 . S
C1389 H1365 0.951 . S
C1389 C1390 1.366 . S
C1389 C1391 1.388 . S
C1390 C1389 1.366 . S
C1390 C1394 1.385 . S
C1391 H1366 0.951 . S
C1391 C1389 1.388 . S
C1391 C1392 1.366 . S
C1392 C1391 1.366 . S
C1392 C1393 1.414 . S
C1392 C1395 1.499 . S
C1393 H1367 0.950 . S
C1393 C1392 1.414 . S
C1393 C1394 1.374 . S
C1394 H1368 0.950 . S
C1394 C1390 1.385 . S
C1394 C1393 1.374 . S
C1395 C1392 1.499 . S
C1395 C1396 1.373 . S
C1395 C1397 1.389 . S
C1396 H1369 0.950 . S
C1396 C1382 1.377 . S
C1396 C1395 1.373 . S
C1397 C1381 1.377 . S
C1397 C1395 1.389 . S
C1397 C1398 1.524 . S
C1398 C1397 1.524 . S
C1398 C1399 1.397 . S
C1398 C1403 1.363 . S
C1399 H1370 0.950 . S
C1399 C1398 1.397 . S
C1399 C1400 1.334 . S
C1400 H1371 0.950 . S
C1400 C1399 1.334 . S
C1400 C1401 1.287 . S
C1401 C1400 1.287 . S
C1401 C1402 1.524 . S
C1401 H1404 0.999 . S
C1402 H1372 0.950 . S
C1402 C1401 1.524 . S
C1402 C1403 1.415 . S
C1403 H1373 0.950 . S
C1403 C1398 1.363 . S
C1403 C1402 1.415 . S
H1404 C1401 0.999 . S
H1405 C1386 0.913 . S
H1406 C1424 0.951 1_545 S
H1407 C1426 0.951 1_545 S
H1408 C1428 0.950 . S
H1409 C1429 0.950 . S
H1410 C1431 0.950 . S
H1411 C1434 0.950 1_565 S
H1412 C1435 0.950 . S
H1413 C1437 0.950 . S
H1414 C1438 0.950 . S
H1415 C1439 0.951 . S
H1416 C1441 0.951 . S
H1417 C1443 0.950 . S
H1418 C1444 0.950 . S
H1419 C1446 0.950 . S
H1420 C1449 0.950 . S
H1421 C1450 0.950 . S
H1422 C1452 0.950 . S
H1423 C1453 0.950 . S
C1424 H1406 0.951 1_565 S
C1424 C1425 1.366 . S
C1424 C1426 1.388 . S
C1425 C1424 1.366 . S
C1425 C1429 1.385 . S
C1426 H1407 0.951 1_565 S
C1426 C1424 1.388 . S
C1426 C1427 1.366 . S
C1427 C1426 1.366 . S
C1427 C1428 1.414 . S
C1427 C1430 1.499 . S
C1428 H1408 0.950 . S
C1428 C1427 1.414 . S
C1428 C1429 1.374 . S
C1429 H1409 0.950 . S
C1429 C1425 1.385 . S
C1429 C1428 1.374 . S
C1430 C1427 1.499 . S
C1430 C1431 1.373 . S
C1430 C1432 1.353 1_565 S
C1431 H1410 0.950 . S
C1431 C1430 1.373 . S
C1431 C1447 1.377 . S
C1432 C1430 1.353 1_545 S
C1432 C1433 1.558 . S
C1432 C1446 1.382 . S
C1433 C1432 1.558 . S
C1433 C1434 1.397 . S
C1433 C1438 1.363 . S
C1434 H1411 0.950 1_545 S
C1434 C1433 1.397 . S
C1434 C1435 1.334 . S
C1435 H1412 0.950 . S
C1435 C1434 1.334 . S
C1435 C1436 1.287 . S
C1436 C1435 1.287 . S
C1436 C1437 1.524 . S
C1436 H1455 0.913 . S
C1437 H1413 0.950 . S
C1437 C1436 1.524 . S
C1437 C1438 1.415 . S
C1438 H1414 0.950 . S
C1438 C1433 1.363 . S
C1438 C1437 1.415 . S
C1439 H1415 0.951 . S
C1439 C1440 1.366 . S
C1439 C1441 1.388 . S
C1440 C1439 1.366 . S
C1440 C1444 1.385 1_565 S
C1441 H1416 0.951 . S
C1441 C1439 1.388 . S
C1441 C1442 1.366 . S
C1442 C1441 1.366 . S
C1442 C1443 1.414 1_565 S
C1442 C1445 1.499 . S
C1443 H1417 0.950 . S
C1443 C1442 1.414 1_545 S
C1443 C1444 1.374 . S
C1444 H1418 0.950 . S
C1444 C1440 1.385 1_545 S
C1444 C1443 1.374 . S
C1445 C1442 1.499 . S
C1445 C1446 1.373 1_565 S
C1445 C1447 1.389 . S
C1446 H1419 0.950 . S
C1446 C1432 1.382 . S
C1446 C1445 1.373 1_545 S
C1447 C1431 1.377 . S
C1447 C1445 1.389 . S
C1447 C1448 1.524 . S
C1448 C1447 1.524 . S
C1448 C1449 1.397 . S
C1448 C1453 1.363 . S
C1449 H1420 0.950 . S
C1449 C1448 1.397 . S
C1449 C1450 1.334 . S
C1450 H1421 0.950 . S
C1450 C1449 1.334 . S
C1450 C1451 1.287 . S
C1451 C1450 1.287 . S
C1451 C1452 1.524 . S
C1451 H1454 0.999 . S
C1452 H1422 0.950 . S
C1452 C1451 1.524 . S
C1452 C1453 1.415 . S
C1453 H1423 0.950 . S
C1453 C1448 1.363 . S
C1453 C1452 1.415 . S
H1454 C1451 0.999 . S
H1455 C1436 0.913 . S
H1456 C1474 0.951 . S
H1457 C1476 0.951 . S
H1458 C1478 0.950 . S
H1459 C1479 0.950 . S
H1460 C1481 0.950 . S
H1461 C1484 0.950 . S
H1462 C1485 0.950 . S
H1463 C1487 0.950 . S
H1464 C1488 0.950 . S
H1465 C1489 0.951 . S
H1466 C1491 0.951 . S
H1467 C1493 0.950 . S
H1468 C1494 0.950 . S
H1469 C1496 0.950 . S
H1470 C1499 0.950 . S
H1471 C1500 0.950 . S
H1472 C1502 0.950 . S
H1473 C1503 0.950 . S
C1474 H1456 0.951 . S
C1474 C1475 1.366 . S
C1474 C1476 1.388 . S
C1475 C1474 1.366 . S
C1475 C1479 1.385 . S
C1476 H1457 0.951 . S
C1476 C1474 1.388 . S
C1476 C1477 1.366 . S
C1477 C1476 1.366 . S
C1477 C1478 1.414 . S
C1477 C1480 1.499 . S
C1478 H1458 0.950 . S
C1478 C1477 1.414 . S
C1478 C1479 1.374 . S
C1479 H1459 0.950 . S
C1479 C1475 1.385 . S
C1479 C1478 1.374 . S
C1480 C1477 1.499 . S
C1480 C1481 1.373 . S
C1480 C1482 1.389 . S
C1481 H1460 0.950 . S
C1481 C1480 1.373 . S
C1481 C1497 1.377 . S
C1482 C1480 1.389 . S
C1482 C1483 1.524 . S
C1482 C1496 1.377 . S
C1483 C1482 1.524 . S
C1483 C1484 1.397 . S
C1483 C1488 1.363 . S
C1484 H1461 0.950 . S
C1484 C1483 1.397 . S
C1484 C1485 1.334 . S
C1485 H1462 0.950 . S
C1485 C1484 1.334 . S
C1485 C1486 1.287 . S
C1486 C1485 1.287 . S
C1486 C1487 1.524 . S
C1486 H1505 0.913 . S
C1487 H1463 0.950 . S
C1487 C1486 1.524 . S
C1487 C1488 1.415 . S
C1488 H1464 0.950 . S
C1488 C1483 1.363 . S
C1488 C1487 1.415 . S
C1489 H1465 0.951 . S
C1489 C1490 1.366 . S
C1489 C1491 1.388 . S
C1490 C1489 1.366 . S
C1490 C1494 1.385 . S
C1491 H1466 0.951 . S
C1491 C1489 1.388 . S
C1491 C1492 1.366 . S
C1492 C1491 1.366 . S
C1492 C1493 1.414 . S
C1492 C1495 1.499 . S
C1493 H1467 0.950 . S
C1493 C1492 1.414 . S
C1493 C1494 1.374 . S
C1494 H1468 0.950 . S
C1494 C1490 1.385 . S
C1494 C1493 1.374 . S
C1495 C1492 1.499 . S
C1495 C1496 1.373 . S
C1495 C1497 1.389 . S
C1496 H1469 0.950 . S
C1496 C1482 1.377 . S
C1496 C1495 1.373 . S
C1497 C1481 1.377 . S
C1497 C1495 1.389 . S
C1497 C1498 1.524 . S
C1498 C1497 1.524 . S
C1498 C1499 1.397 . S
C1498 C1503 1.363 . S
C1499 H1470 0.950 . S
C1499 C1498 1.397 . S
C1499 C1500 1.334 . S
C1500 H1471 0.950 . S
C1500 C1499 1.334 . S
C1500 C1501 1.287 . S
C1501 C1500 1.287 . S
C1501 C1502 1.524 . S
C1501 H1504 0.999 . S
C1502 H1472 0.950 . S
C1502 C1501 1.524 . S
C1502 C1503 1.415 . S
C1503 H1473 0.950 . S
C1503 C1498 1.363 . S
C1503 C1502 1.415 . S
H1504 C1501 0.999 . S
H1505 C1486 0.913 . S
H1506 C1524 0.951 . S
H1507 C1526 0.951 . S
H1508 C1528 0.950 . S
H1509 C1529 0.950 . S
H1510 C1531 0.950 . S
H1511 C1534 0.950 . S
H1512 C1535 0.950 . S
H1513 C1537 0.950 . S
H1514 C1538 0.950 . S
H1515 C1539 0.951 . S
H1516 C1541 0.951 . S
H1517 C1543 0.950 . S
H1518 C1544 0.950 . S
H1519 C1546 0.950 . S
H1520 C1549 0.950 . S
H1521 C1550 0.950 . S
H1522 C1552 0.950 . S
H1523 C1553 0.950 . S
C1524 H1506 0.951 . S
C1524 C1525 1.366 . S
C1524 C1526 1.388 . S
C1525 C1524 1.366 . S
C1525 C1529 1.385 . S
C1526 H1507 0.951 . S
C1526 C1524 1.388 . S
C1526 C1527 1.366 . S
C1527 C1526 1.366 . S
C1527 C1528 1.414 . S
C1527 C1530 1.499 . S
C1528 H1508 0.950 . S
C1528 C1527 1.414 . S
C1528 C1529 1.374 . S
C1529 H1509 0.950 . S
C1529 C1525 1.385 . S
C1529 C1528 1.374 . S
C1530 C1527 1.499 . S
C1530 C1531 1.373 . S
C1530 C1532 1.389 . S
C1531 H1510 0.950 . S
C1531 C1530 1.373 . S
C1531 C1547 1.377 . S
C1532 C1530 1.389 . S
C1532 C1533 1.524 . S
C1532 C1546 1.377 . S
C1533 C1532 1.524 . S
C1533 C1534 1.397 . S
C1533 C1538 1.363 . S
C1534 H1511 0.950 . S
C1534 C1533 1.397 . S
C1534 C1535 1.334 . S
C1535 H1512 0.950 . S
C1535 C1534 1.334 . S
C1535 C1536 1.287 . S
C1536 C1535 1.287 . S
C1536 C1537 1.524 . S
C1536 H1555 0.913 . S
C1537 H1513 0.950 . S
C1537 C1536 1.524 . S
C1537 C1538 1.415 . S
C1538 H1514 0.950 . S
C1538 C1533 1.363 . S
C1538 C1537 1.415 . S
C1539 H1515 0.951 . S
C1539 C1540 1.366 . S
C1539 C1541 1.388 . S
C1540 C1539 1.366 . S
C1540 C1544 1.385 . S
C1541 H1516 0.951 . S
C1541 C1539 1.388 . S
C1541 C1542 1.366 . S
C1542 C1541 1.366 . S
C1542 C1543 1.414 . S
C1542 C1545 1.499 . S
C1543 H1517 0.950 . S
C1543 C1542 1.414 . S
C1543 C1544 1.374 . S
C1544 H1518 0.950 . S
C1544 C1540 1.385 . S
C1544 C1543 1.374 . S
C1545 C1542 1.499 . S
C1545 C1546 1.373 . S
C1545 C1547 1.389 . S
C1546 H1519 0.950 . S
C1546 C1532 1.377 . S
C1546 C1545 1.373 . S
C1547 C1531 1.377 . S
C1547 C1545 1.389 . S
C1547 C1548 1.524 . S
C1548 C1547 1.524 . S
C1548 C1549 1.397 . S
C1548 C1553 1.363 . S
C1549 H1520 0.950 . S
C1549 C1548 1.397 . S
C1549 C1550 1.334 . S
C1550 H1521 0.950 . S
C1550 C1549 1.334 . S
C1550 C1551 1.287 . S
C1551 C1550 1.287 . S
C1551 C1552 1.524 . S
C1551 H1554 0.999 . S
C1552 H1522 0.950 . S
C1552 C1551 1.524 . S
C1552 C1553 1.415 . S
C1553 H1523 0.950 . S
C1553 C1548 1.363 . S
C1553 C1552 1.415 . S
H1554 C1551 0.999 . S
H1555 C1536 0.913 . S
H1556 C1574 0.951 . S
H1557 C1576 0.951 . S
H1558 C1578 0.950 . S
H1559 C1579 0.950 . S
H1560 C1581 0.950 . S
H1561 C1584 0.950 . S
H1562 C1585 0.950 . S
H1563 C1587 0.950 . S
H1564 C1588 0.950 . S
H1565 C1589 0.951 . S
H1566 C1591 0.951 . S
H1567 C1593 0.950 . S
H1568 C1594 0.950 . S
H1569 C1596 0.950 . S
H1570 C1599 0.950 . S
H1571 C1600 0.950 . S
H1572 C1602 0.950 . S
H1573 C1603 0.950 . S
C1574 H1556 0.951 . S
C1574 C1575 1.366 . S
C1574 C1576 1.388 . S
C1575 C1574 1.366 . S
C1575 C1579 1.385 . S
C1576 H1557 0.951 . S
C1576 C1574 1.388 . S
C1576 C1577 1.366 . S
C1577 C1576 1.366 . S
C1577 C1578 1.414 . S
C1577 C1580 1.499 . S
C1578 H1558 0.950 . S
C1578 C1577 1.414 . S
C1578 C1579 1.374 . S
C1579 H1559 0.950 . S
C1579 C1575 1.385 . S
C1579 C1578 1.374 . S
C1580 C1577 1.499 . S
C1580 C1581 1.373 . S
C1580 C1582 1.389 . S
C1581 H1560 0.950 . S
C1581 C1580 1.373 . S
C1581 C1597 1.377 . S
C1582 C1580 1.389 . S
C1582 C1583 1.524 . S
C1582 C1596 1.377 . S
C1583 C1582 1.524 . S
C1583 C1584 1.397 . S
C1583 C1588 1.363 . S
C1584 H1561 0.950 . S
C1584 C1583 1.397 . S
C1584 C1585 1.334 . S
C1585 H1562 0.950 . S
C1585 C1584 1.334 . S
C1585 C1586 1.287 . S
C1586 C1585 1.287 . S
C1586 C1587 1.524 . S
C1586 H1605 0.913 . S
C1587 H1563 0.950 . S
C1587 C1586 1.524 . S
C1587 C1588 1.415 . S
C1588 H1564 0.950 . S
C1588 C1583 1.363 . S
C1588 C1587 1.415 . S
C1589 H1565 0.951 . S
C1589 C1590 1.366 . S
C1589 C1591 1.388 . S
C1590 C1589 1.366 . S
C1590 C1594 1.385 . S
C1591 H1566 0.951 . S
C1591 C1589 1.388 . S
C1591 C1592 1.366 . S
C1592 C1591 1.366 . S
C1592 C1593 1.414 . S
C1592 C1595 1.499 . S
C1593 H1567 0.950 . S
C1593 C1592 1.414 . S
C1593 C1594 1.374 . S
C1594 H1568 0.950 . S
C1594 C1590 1.385 . S
C1594 C1593 1.374 . S
C1595 C1592 1.499 . S
C1595 C1596 1.373 . S
C1595 C1597 1.389 . S
C1596 H1569 0.950 . S
C1596 C1582 1.377 . S
C1596 C1595 1.373 . S
C1597 C1581 1.377 . S
C1597 C1595 1.389 . S
C1597 C1598 1.524 . S
C1598 C1597 1.524 . S
C1598 C1599 1.397 . S
C1598 C1603 1.363 . S
C1599 H1570 0.950 . S
C1599 C1598 1.397 . S
C1599 C1600 1.334 . S
C1600 H1571 0.950 . S
C1600 C1599 1.334 . S
C1600 C1601 1.287 . S
C1601 C1600 1.287 . S
C1601 C1602 1.524 . S
C1601 H1604 0.999 . S
C1602 H1572 0.950 . S
C1602 C1601 1.524 . S
C1602 C1603 1.415 . S
C1603 H1573 0.950 . S
C1603 C1598 1.363 . S
C1603 C1602 1.415 . S
H1604 C1601 0.999 . S
H1605 C1586 0.913 . S
H1606 C1624 0.951 . S
H1607 C1626 0.951 . S
H1608 C1628 0.950 . S
H1609 C1629 0.950 . S
H1610 C1631 0.950 . S
H1611 C1634 0.950 . S
H1612 C1635 0.950 . S
H1613 C1637 0.950 . S
H1614 C1638 0.950 . S
H1615 C1639 0.951 . S
H1616 C1641 0.951 . S
H1617 C1643 0.950 . S
H1618 C1644 0.950 . S
H1619 C1646 0.950 . S
H1620 C1649 0.950 . S
H1621 C1650 0.950 . S
H1622 C1652 0.950 . S
H1623 C1653 0.950 . S
C1624 H1606 0.951 . S
C1624 C1625 1.366 . S
C1624 C1626 1.388 . S
C1625 C1624 1.366 . S
C1625 C1629 1.385 . S
C1626 H1607 0.951 . S
C1626 C1624 1.388 . S
C1626 C1627 1.366 . S
C1627 C1626 1.366 . S
C1627 C1628 1.414 . S
C1627 C1630 1.499 . S
C1628 H1608 0.950 . S
C1628 C1627 1.414 . S
C1628 C1629 1.374 . S
C1629 H1609 0.950 . S
C1629 C1625 1.385 . S
C1629 C1628 1.374 . S
C1630 C1627 1.499 . S
C1630 C1631 1.373 . S
C1630 C1632 1.389 . S
C1631 H1610 0.950 . S
C1631 C1630 1.373 . S
C1631 C1647 1.377 . S
C1632 C1630 1.389 . S
C1632 C1633 1.524 . S
C1632 C1646 1.377 . S
C1633 C1632 1.524 . S
C1633 C1634 1.397 . S
C1633 C1638 1.363 . S
C1634 H1611 0.950 . S
C1634 C1633 1.397 . S
C1634 C1635 1.334 . S
C1635 H1612 0.950 . S
C1635 C1634 1.334 . S
C1635 C1636 1.287 . S
C1636 C1635 1.287 . S
C1636 C1637 1.524 . S
C1636 H1655 0.913 . S
C1637 H1613 0.950 . S
C1637 C1636 1.524 . S
C1637 C1638 1.415 . S
C1638 H1614 0.950 . S
C1638 C1633 1.363 . S
C1638 C1637 1.415 . S
C1639 H1615 0.951 . S
C1639 C1640 1.366 . S
C1639 C1641 1.388 . S
C1640 C1639 1.366 . S
C1640 C1644 1.385 . S
C1641 H1616 0.951 . S
C1641 C1639 1.388 . S
C1641 C1642 1.366 . S
C1642 C1641 1.366 . S
C1642 C1643 1.414 . S
C1642 C1645 1.499 . S
C1643 H1617 0.950 . S
C1643 C1642 1.414 . S
C1643 C1644 1.374 . S
C1644 H1618 0.950 . S
C1644 C1640 1.385 . S
C1644 C1643 1.374 . S
C1645 C1642 1.499 . S
C1645 C1646 1.373 . S
C1645 C1647 1.389 . S
C1646 H1619 0.950 . S
C1646 C1632 1.377 . S
C1646 C1645 1.373 . S
C1647 C1631 1.377 . S
C1647 C1645 1.389 . S
C1647 C1648 1.524 . S
C1648 C1647 1.524 . S
C1648 C1649 1.397 . S
C1648 C1653 1.363 . S
C1649 H1620 0.950 . S
C1649 C1648 1.397 . S
C1649 C1650 1.334 . S
C1650 H1621 0.950 . S
C1650 C1649 1.334 . S
C1650 C1651 1.287 . S
C1651 C1650 1.287 . S
C1651 C1652 1.524 . S
C1651 H1654 0.999 . S
C1652 H1622 0.950 . S
C1652 C1651 1.524 . S
C1652 C1653 1.415 . S
C1653 H1623 0.950 . S
C1653 C1648 1.363 . S
C1653 C1652 1.415 . S
H1654 C1651 0.999 . S
H1655 C1636 0.913 . S
H1656 C1674 0.951 . S
H1657 C1676 0.951 . S
H1658 C1678 0.950 . S
H1659 C1679 0.950 . S
H1660 C1681 0.950 . S
H1661 C1684 0.950 . S
H1662 C1685 0.950 . S
H1663 C1687 0.950 . S
H1664 C1688 0.950 . S
H1665 C1689 0.951 . S
H1666 C1691 0.951 . S
H1667 C1693 0.950 . S
H1668 C1694 0.950 . S
H1669 C1696 0.950 . S
H1670 C1699 0.950 . S
H1671 C1700 0.950 . S
H1672 C1702 0.950 . S
H1673 C1703 0.950 . S
C1674 H1656 0.951 . S
C1674 C1675 1.366 . S
C1674 C1676 1.388 . S
C1675 C1674 1.366 . S
C1675 C1679 1.385 . S
C1676 H1657 0.951 . S
C1676 C1674 1.388 . S
C1676 C1677 1.366 . S
C1677 C1676 1.366 . S
C1677 C1678 1.414 . S
C1677 C1680 1.499 . S
C1678 H1658 0.950 . S
C1678 C1677 1.414 . S
C1678 C1679 1.374 . S
C1679 H1659 0.950 . S
C1679 C1675 1.385 . S
C1679 C1678 1.374 . S
C1680 C1677 1.499 . S
C1680 C1681 1.373 . S
C1680 C1682 1.389 . S
C1681 H1660 0.950 . S
C1681 C1680 1.373 . S
C1681 C1697 1.377 . S
C1682 C1680 1.389 . S
C1682 C1683 1.524 . S
C1682 C1696 1.377 . S
C1683 C1682 1.524 . S
C1683 C1684 1.397 . S
C1683 C1688 1.363 . S
C1684 H1661 0.950 . S
C1684 C1683 1.397 . S
C1684 C1685 1.334 . S
C1685 H1662 0.950 . S
C1685 C1684 1.334 . S
C1685 C1686 1.287 . S
C1686 C1685 1.287 . S
C1686 C1687 1.524 . S
C1686 H1705 0.913 . S
C1687 H1663 0.950 . S
C1687 C1686 1.524 . S
C1687 C1688 1.415 . S
C1688 H1664 0.950 . S
C1688 C1683 1.363 . S
C1688 C1687 1.415 . S
C1689 H1665 0.951 . S
C1689 C1690 1.366 . S
C1689 C1691 1.388 . S
C1690 C1689 1.366 . S
C1690 C1694 1.385 . S
C1691 H1666 0.951 . S
C1691 C1689 1.388 . S
C1691 C1692 1.366 . S
C1692 C1691 1.366 . S
C1692 C1693 1.414 . S
C1692 C1695 1.499 . S
C1693 H1667 0.950 . S
C1693 C1692 1.414 . S
C1693 C1694 1.374 . S
C1694 H1668 0.950 . S
C1694 C1690 1.385 . S
C1694 C1693 1.374 . S
C1695 C1692 1.499 . S
C1695 C1696 1.373 . S
C1695 C1697 1.389 . S
C1696 H1669 0.950 . S
C1696 C1682 1.377 . S
C1696 C1695 1.373 . S
C1697 C1681 1.377 . S
C1697 C1695 1.389 . S
C1697 C1698 1.524 . S
C1698 C1697 1.524 . S
C1698 C1699 1.397 . S
C1698 C1703 1.363 . S
C1699 H1670 0.950 . S
C1699 C1698 1.397 . S
C1699 C1700 1.334 . S
C1700 H1671 0.950 . S
C1700 C1699 1.334 . S
C1700 C1701 1.287 . S
C1701 C1700 1.287 . S
C1701 C1702 1.524 . S
C1701 H1704 0.999 . S
C1702 H1672 0.950 . S
C1702 C1701 1.524 . S
C1702 C1703 1.415 . S
C1703 H1673 0.950 . S
C1703 C1698 1.363 . S
C1703 C1702 1.415 . S
H1704 C1701 0.999 . S
H1705 C1686 0.913 . S
H1706 C1724 0.951 . S
H1707 C1726 0.951 . S
H1708 C1728 0.950 . S
H1709 C1729 0.950 . S
H1710 C1731 0.950 1_655 S
H1711 C1734 0.950 . S
H1712 C1735 0.950 . S
H1713 C1737 0.950 . S
H1714 C1738 0.950 . S
H1715 C1739 0.951 1_655 S
H1716 C1741 0.964 . S
H1717 C1743 0.950 . S
H1718 C1744 0.950 . S
H1719 C1746 0.950 . S
H1720 C1749 0.950 . S
H1721 C1750 0.950 . S
H1722 C1752 0.950 . S
H1723 C1753 0.950 . S
C1724 H1706 0.951 . S
C1724 C1725 1.366 . S
C1724 C1726 1.388 . S
C1725 C1724 1.366 . S
C1725 C1729 1.385 . S
C1726 H1707 0.951 . S
C1726 C1724 1.388 . S
C1726 C1727 1.366 . S
C1727 C1726 1.366 . S
C1727 C1728 1.414 . S
C1727 C1730 1.499 . S
C1728 H1708 0.950 . S
C1728 C1727 1.414 . S
C1728 C1729 1.374 . S
C1729 H1709 0.950 . S
C1729 C1725 1.385 . S
C1729 C1728 1.374 . S
C1730 C1727 1.499 . S
C1730 C1731 1.373 . S
C1730 C1732 1.389 . S
C1731 H1710 0.950 1_455 S
C1731 C1730 1.373 . S
C1731 C1747 1.377 . S
C1732 C1730 1.389 . S
C1732 C1733 1.524 . S
C1732 C1746 1.377 . S
C1733 C1732 1.524 . S
C1733 C1734 1.397 . S
C1733 C1738 1.363 . S
C1734 H1711 0.950 . S
C1734 C1733 1.397 . S
C1734 C1735 1.334 . S
C1735 H1712 0.950 . S
C1735 C1734 1.334 . S
C1735 C1736 1.287 . S
C1736 C1735 1.287 . S
C1736 C1737 1.524 . S
C1736 H1755 0.913 . S
C1737 H1713 0.950 . S
C1737 C1736 1.524 . S
C1737 C1738 1.415 . S
C1738 H1714 0.950 . S
C1738 C1733 1.363 . S
C1738 C1737 1.415 . S
C1739 H1715 0.951 1_455 S
C1739 C1740 1.366 . S
C1739 C1741 1.388 . S
C1740 C1739 1.366 . S
C1740 C1744 1.385 . S
C1741 H1716 0.964 . S
C1741 C1739 1.388 . S
C1741 C1742 1.366 . S
C1742 C1741 1.366 . S
C1742 C1743 1.414 . S
C1742 C1745 1.499 . S
C1743 H1717 0.950 . S
C1743 C1742 1.414 . S
C1743 C1744 1.374 . S
C1744 H1718 0.950 . S
C1744 C1740 1.385 . S
C1744 C1743 1.374 . S
C1745 C1742 1.499 . S
C1745 C1746 1.373 . S
C1745 C1747 1.389 . S
C1746 H1719 0.950 . S
C1746 C1732 1.377 . S
C1746 C1745 1.373 . S
C1747 C1731 1.377 . S
C1747 C1745 1.389 . S
C1747 C1748 1.524 1_455 S
C1748 C1747 1.524 1_655 S
C1748 C1749 1.397 . S
C1748 C1753 1.363 . S
C1749 H1720 0.950 . S
C1749 C1748 1.397 . S
C1749 C1750 1.334 . S
C1750 H1721 0.950 . S
C1750 C1749 1.334 . S
C1750 C1751 1.287 . S
C1751 C1750 1.287 . S
C1751 C1752 1.524 . S
C1751 H1754 0.999 . S
C1752 H1722 0.950 . S
C1752 C1751 1.524 . S
C1752 C1753 1.415 . S
C1753 H1723 0.950 . S
C1753 C1748 1.363 . S
C1753 C1752 1.415 . S
H1754 C1751 0.999 . S
H1755 C1736 0.913 . S
H1756 C1774 0.951 . S
H1757 C1776 0.951 . S
H1758 C1778 0.950 . S
H1759 C1779 0.950 . S
H1760 C1781 0.950 . S
H1761 C1784 0.950 . S
H1762 C1785 0.950 . S
H1763 C1787 0.950 . S
H1764 C1788 0.950 . S
H1765 C1789 0.951 . S
H1766 C1791 0.951 . S
H1767 C1793 0.950 . S
H1768 C1794 0.950 . S
H1769 C1796 0.950 . S
H1770 C1799 0.950 . S
H1771 C1800 0.950 . S
H1772 C1802 0.950 . S
H1773 C1803 0.950 . S
C1774 H1756 0.951 . S
C1774 C1775 1.366 . S
C1774 C1776 1.388 . S
C1775 C1774 1.366 . S
C1775 C1779 1.385 . S
C1776 H1757 0.951 . S
C1776 C1774 1.388 . S
C1776 C1777 1.366 . S
C1777 C1776 1.366 . S
C1777 C1778 1.414 . S
C1777 C1780 1.499 . S
C1778 H1758 0.950 . S
C1778 C1777 1.414 . S
C1778 C1779 1.374 . S
C1779 H1759 0.950 . S
C1779 C1775 1.385 . S
C1779 C1778 1.374 . S
C1780 C1777 1.499 . S
C1780 C1781 1.373 . S
C1780 C1782 1.389 . S
C1781 H1760 0.950 . S
C1781 C1780 1.373 . S
C1781 C1797 1.377 . S
C1782 C1780 1.389 . S
C1782 C1783 1.524 . S
C1782 C1796 1.377 . S
C1783 C1782 1.524 . S
C1783 C1784 1.397 . S
C1783 C1788 1.363 . S
C1784 H1761 0.950 . S
C1784 C1783 1.397 . S
C1784 C1785 1.334 . S
C1785 H1762 0.950 . S
C1785 C1784 1.334 . S
C1785 C1786 1.287 . S
C1786 C1785 1.287 . S
C1786 C1787 1.524 . S
C1786 H1805 0.913 . S
C1787 H1763 0.950 . S
C1787 C1786 1.524 . S
C1787 C1788 1.415 . S
C1788 H1764 0.950 . S
C1788 C1783 1.363 . S
C1788 C1787 1.415 . S
C1789 H1765 0.951 . S
C1789 C1790 1.366 . S
C1789 C1791 1.388 . S
C1790 C1789 1.366 . S
C1790 C1794 1.385 . S
C1791 H1766 0.951 . S
C1791 C1789 1.388 . S
C1791 C1792 1.366 . S
C1792 C1791 1.366 . S
C1792 C1793 1.414 . S
C1792 C1795 1.499 . S
C1793 H1767 0.950 . S
C1793 C1792 1.414 . S
C1793 C1794 1.374 . S
C1794 H1768 0.950 . S
C1794 C1790 1.385 . S
C1794 C1793 1.374 . S
C1795 C1792 1.499 . S
C1795 C1796 1.373 . S
C1795 C1797 1.389 . S
C1796 H1769 0.950 . S
C1796 C1782 1.377 . S
C1796 C1795 1.373 . S
C1797 C1781 1.377 . S
C1797 C1795 1.389 . S
C1797 C1798 1.524 . S
C1798 C1797 1.524 . S
C1798 C1799 1.397 . S
C1798 C1803 1.363 . S
C1799 H1770 0.950 . S
C1799 C1798 1.397 . S
C1799 C1800 1.334 . S
C1800 H1771 0.950 . S
C1800 C1799 1.334 . S
C1800 C1801 1.287 . S
C1801 C1800 1.287 . S
C1801 C1802 1.524 . S
C1801 H1804 0.999 . S
C1802 H1772 0.950 . S
C1802 C1801 1.524 . S
C1802 C1803 1.415 . S
C1803 H1773 0.950 . S
C1803 C1798 1.363 . S
C1803 C1802 1.415 . S
H1804 C1801 0.999 . S
H1805 C1786 0.913 . S
H1806 C1824 0.951 . S
H1807 C1826 0.951 . S
H1808 C1828 0.961 . S
H1809 C1829 0.950 1_455 S
H1810 C1831 0.950 . S
H1811 C1834 0.950 . S
H1812 C1835 0.950 . S
H1813 C1837 0.950 . S
H1814 C1838 0.950 . S
H1815 C1839 0.951 . S
H1816 C1841 0.951 . S
H1817 C1843 0.950 . S
H1818 C1844 0.950 . S
H1819 C1846 0.950 . S
H1820 C1849 0.950 . S
H1821 C1850 0.950 . S
H1822 C1852 0.950 . S
H1823 C1853 0.950 . S
C1824 H1806 0.951 . S
C1824 C1825 1.366 . S
C1824 C1826 1.388 . S
C1825 C1824 1.366 . S
C1825 C1829 1.385 . S
C1826 H1807 0.951 . S
C1826 C1824 1.388 . S
C1826 C1827 1.366 . S
C1827 C1826 1.366 . S
C1827 C1828 1.405 1_655 S
C1827 C1830 1.499 . S
C1828 H1808 0.961 . S
C1828 C1827 1.405 1_455 S
C1828 C1829 1.373 1_455 S
C1829 H1809 0.950 1_655 S
C1829 C1825 1.385 . S
C1829 C1828 1.373 1_655 S
C1830 C1827 1.499 . S
C1830 C1831 1.373 1_655 S
C1830 C1832 1.389 . S
C1831 H1810 0.950 . S
C1831 C1830 1.373 1_455 S
C1831 C1847 1.377 . S
C1832 C1830 1.389 . S
C1832 C1833 1.524 . S
C1832 C1846 1.377 . S
C1833 C1832 1.524 . S
C1833 C1834 1.397 . S
C1833 C1838 1.363 . S
C1834 H1811 0.950 . S
C1834 C1833 1.397 . S
C1834 C1835 1.334 . S
C1835 H1812 0.950 . S
C1835 C1834 1.334 . S
C1835 C1836 1.287 . S
C1836 C1835 1.287 . S
C1836 C1837 1.524 . S
C1836 H1855 0.913 . S
C1837 H1813 0.950 . S
C1837 C1836 1.524 . S
C1837 C1838 1.415 . S
C1838 H1814 0.950 . S
C1838 C1833 1.363 . S
C1838 C1837 1.415 . S
C1839 H1815 0.951 . S
C1839 C1840 1.366 . S
C1839 C1841 1.388 . S
C1840 C1839 1.366 . S
C1840 C1844 1.384 1_455 S
C1841 H1816 0.951 . S
C1841 C1839 1.388 . S
C1841 C1842 1.366 1_455 S
C1842 C1841 1.366 1_655 S
C1842 C1843 1.414 . S
C1842 C1845 1.499 . S
C1843 H1817 0.950 . S
C1843 C1842 1.414 . S
C1843 C1844 1.374 . S
C1844 H1818 0.950 . S
C1844 C1840 1.384 1_655 S
C1844 C1843 1.374 . S
C1845 C1842 1.499 . S
C1845 C1846 1.373 . S
C1845 C1847 1.389 1_655 S
C1846 H1819 0.950 . S
C1846 C1832 1.377 . S
C1846 C1845 1.373 . S
C1847 C1831 1.377 . S
C1847 C1845 1.389 1_455 S
C1847 C1848 1.524 . S
C1848 C1847 1.524 . S
C1848 C1849 1.397 . S
C1848 C1853 1.363 . S
C1849 H1820 0.950 . S
C1849 C1848 1.397 . S
C1849 C1850 1.334 . S
C1850 H1821 0.950 . S
C1850 C1849 1.334 . S
C1850 C1851 1.287 . S
C1851 C1850 1.287 . S
C1851 C1852 1.524 . S
C1851 H1854 0.999 . S
C1852 H1822 0.950 . S
C1852 C1851 1.524 . S
C1852 C1853 1.415 . S
C1853 H1823 0.950 . S
C1853 C1848 1.363 . S
C1853 C1852 1.415 . S
H1854 C1851 0.999 . S
H1855 C1836 0.913 . S
H1856 C1874 0.951 . S
H1857 C1876 0.951 . S
H1858 C1878 0.950 . S
H1859 C1879 0.950 . S
H1860 C1881 0.950 . S
H1861 C1884 0.950 . S
H1862 C1885 0.950 . S
H1863 C1887 0.950 . S
H1864 C1888 0.950 . S
H1865 C1889 0.951 . S
H1866 C1891 0.951 . S
H1867 C1893 0.950 . S
H1868 C1894 0.950 . S
H1869 C1896 0.950 . S
H1870 C1899 0.950 . S
H1871 C1900 0.950 . S
H1872 C1902 0.950 . S
H1873 C1903 0.950 . S
C1874 H1856 0.951 . S
C1874 C1875 1.366 . S
C1874 C1876 1.388 . S
C1875 C1874 1.366 . S
C1875 C1879 1.385 . S
C1876 H1857 0.951 . S
C1876 C1874 1.388 . S
C1876 C1877 1.366 . S
C1877 C1876 1.366 . S
C1877 C1878 1.414 . S
C1877 C1880 1.499 . S
C1878 H1858 0.950 . S
C1878 C1877 1.414 . S
C1878 C1879 1.374 . S
C1879 H1859 0.950 . S
C1879 C1875 1.385 . S
C1879 C1878 1.374 . S
C1880 C1877 1.499 . S
C1880 C1881 1.373 . S
C1880 C1882 1.389 . S
C1881 H1860 0.950 . S
C1881 C1880 1.373 . S
C1881 C1897 1.377 . S
C1882 C1880 1.389 . S
C1882 C1883 1.524 . S
C1882 C1896 1.377 . S
C1883 C1882 1.524 . S
C1883 C1884 1.397 . S
C1883 C1888 1.363 . S
C1884 H1861 0.950 . S
C1884 C1883 1.397 . S
C1884 C1885 1.334 . S
C1885 H1862 0.950 . S
C1885 C1884 1.334 . S
C1885 C1886 1.287 . S
C1886 C1885 1.287 . S
C1886 C1887 1.524 . S
C1886 H1905 0.913 . S
C1887 H1863 0.950 . S
C1887 C1886 1.524 . S
C1887 C1888 1.415 . S
C1888 H1864 0.950 . S
C1888 C1883 1.363 . S
C1888 C1887 1.415 . S
C1889 H1865 0.951 . S
C1889 C1890 1.366 . S
C1889 C1891 1.388 . S
C1890 C1889 1.366 . S
C1890 C1894 1.385 . S
C1891 H1866 0.951 . S
C1891 C1889 1.388 . S
C1891 C1892 1.366 . S
C1892 C1891 1.366 . S
C1892 C1893 1.414 . S
C1892 C1895 1.499 . S
C1893 H1867 0.950 . S
C1893 C1892 1.414 . S
C1893 C1894 1.374 . S
C1894 H1868 0.950 . S
C1894 C1890 1.385 . S
C1894 C1893 1.374 . S
C1895 C1892 1.499 . S
C1895 C1896 1.373 . S
C1895 C1897 1.389 . S
C1896 H1869 0.950 . S
C1896 C1882 1.377 . S
C1896 C1895 1.373 . S
C1897 C1881 1.377 . S
C1897 C1895 1.389 . S
C1897 C1898 1.524 . S
C1898 C1897 1.524 . S
C1898 C1899 1.397 . S
C1898 C1903 1.363 . S
C1899 H1870 0.950 . S
C1899 C1898 1.397 . S
C1899 C1900 1.334 . S
C1900 H1871 0.950 . S
C1900 C1899 1.334 . S
C1900 C1901 1.287 . S
C1901 C1900 1.287 . S
C1901 C1902 1.524 . S
C1901 H1904 0.999 . S
C1902 H1872 0.950 . S
C1902 C1901 1.524 . S
C1902 C1903 1.415 . S
C1903 H1873 0.950 . S
C1903 C1898 1.363 . S
C1903 C1902 1.415 . S
H1904 C1901 0.999 . S
H1905 C1886 0.913 . S
H1906 C1924 0.951 . S
H1907 C1926 0.951 . S
H1908 C1928 0.950 . S
H1909 C1929 0.950 . S
H1910 C1931 0.950 . S
H1911 C1934 0.950 . S
H1912 C1935 0.950 . S
H1913 C1937 0.950 . S
H1914 C1938 0.950 . S
H1915 C1939 0.951 . S
H1916 C1941 0.951 . S
H1917 C1943 0.950 . S
H1918 C1944 0.950 . S
H1919 C1946 0.950 . S
H1920 C1949 0.950 . S
H1921 C1950 0.950 . S
H1922 C1952 0.950 . S
H1923 C1953 0.950 . S
C1924 H1906 0.951 . S
C1924 C1925 1.366 . S
C1924 C1926 1.388 . S
C1925 C1924 1.366 . S
C1925 C1929 1.385 . S
C1926 H1907 0.951 . S
C1926 C1924 1.388 . S
C1926 C1927 1.366 . S
C1927 C1926 1.366 . S
C1927 C1928 1.414 . S
C1927 C1930 1.499 . S
C1928 H1908 0.950 . S
C1928 C1927 1.414 . S
C1928 C1929 1.374 . S
C1929 H1909 0.950 . S
C1929 C1925 1.385 . S
C1929 C1928 1.374 . S
C1930 C1927 1.499 . S
C1930 C1931 1.373 . S
C1930 C1932 1.389 . S
C1931 H1910 0.950 . S
C1931 C1930 1.373 . S
C1931 C1947 1.377 . S
C1932 C1930 1.389 . S
C1932 C1933 1.524 . S
C1932 C1946 1.377 . S
C1933 C1932 1.524 . S
C1933 C1934 1.397 . S
C1933 C1938 1.363 . S
C1934 H1911 0.950 . S
C1934 C1933 1.397 . S
C1934 C1935 1.334 . S
C1935 H1912 0.950 . S
C1935 C1934 1.334 . S
C1935 C1936 1.287 . S
C1936 C1935 1.287 . S
C1936 C1937 1.524 . S
C1936 H1955 0.913 . S
C1937 H1913 0.950 . S
C1937 C1936 1.524 . S
C1937 C1938 1.415 . S
C1938 H1914 0.950 . S
C1938 C1933 1.363 . S
C1938 C1937 1.415 . S
C1939 H1915 0.951 . S
C1939 C1940 1.366 . S
C1939 C1941 1.388 . S
C1940 C1939 1.366 . S
C1940 C1944 1.385 . S
C1941 H1916 0.951 . S
C1941 C1939 1.388 . S
C1941 C1942 1.366 . S
C1942 C1941 1.366 . S
C1942 C1943 1.414 . S
C1942 C1945 1.499 . S
C1943 H1917 0.950 . S
C1943 C1942 1.414 . S
C1943 C1944 1.374 . S
C1944 H1918 0.950 . S
C1944 C1940 1.385 . S
C1944 C1943 1.374 . S
C1945 C1942 1.499 . S
C1945 C1946 1.373 . S
C1945 C1947 1.389 . S
C1946 H1919 0.950 . S
C1946 C1932 1.377 . S
C1946 C1945 1.373 . S
C1947 C1931 1.377 . S
C1947 C1945 1.389 . S
C1947 C1948 1.524 . S
C1948 C1947 1.524 . S
C1948 C1949 1.397 . S
C1948 C1953 1.363 . S
C1949 H1920 0.950 . S
C1949 C1948 1.397 . S
C1949 C1950 1.334 . S
C1950 H1921 0.950 . S
C1950 C1949 1.334 . S
C1950 C1951 1.287 . S
C1951 C1950 1.287 . S
C1951 C1952 1.524 . S
C1951 H1954 0.999 . S
C1952 H1922 0.950 . S
C1952 C1951 1.524 . S
C1952 C1953 1.415 . S
C1953 H1923 0.950 . S
C1953 C1948 1.363 . S
C1953 C1952 1.415 . S
H1954 C1951 0.999 . S
H1955 C1936 0.913 . S
H1956 C1974 0.897 1_554 S
H1957 C1976 0.951 . S
H1958 C1978 0.950 . S
H1959 C1979 0.950 . S
H1960 C1981 0.950 . S
H1961 C1984 0.950 . S
H1962 C1985 0.950 . S
H1963 C1987 0.950 . S
H1964 C1988 0.950 . S
H1965 C1989 0.951 . S
H1966 C1991 0.951 . S
H1967 C1993 0.950 . S
H1968 C1994 0.950 . S
H1969 C1996 0.950 . S
H1970 C1999 0.950 1_554 S
H1971 C2000 0.950 1_554 S
H1972 C2002 0.950 . S
H1973 C2003 0.950 . S
C1974 H1956 0.897 1_556 S
C1974 C1975 1.432 . S
C1974 C1976 1.379 1_556 S
C1975 C1974 1.432 . S
C1975 C1979 1.385 . S
C1976 H1957 0.951 . S
C1976 C1974 1.379 1_554 S
C1976 C1977 1.366 1_554 S
C1977 C1976 1.366 1_556 S
C1977 C1978 1.414 . S
C1977 C1980 1.499 . S
C1978 H1958 0.950 . S
C1978 C1977 1.414 . S
C1978 C1979 1.374 . S
C1979 H1959 0.950 . S
C1979 C1975 1.385 . S
C1979 C1978 1.374 . S
C1980 C1977 1.499 . S
C1980 C1981 1.373 . S
C1980 C1982 1.389 . S
C1981 H1960 0.950 . S
C1981 C1980 1.373 . S
C1981 C1997 1.377 . S
C1982 C1980 1.389 . S
C1982 C1983 1.524 1_556 S
C1982 C1996 1.377 1_556 S
C1983 C1982 1.524 1_554 S
C1983 C1984 1.397 1_554 S
C1983 C1988 1.363 . S
C1984 H1961 0.950 . S
C1984 C1983 1.397 1_556 S
C1984 C1985 1.334 . S
C1985 H1962 0.950 . S
C1985 C1984 1.334 . S
C1985 C1986 1.287 1_556 S
C1986 C1985 1.287 1_554 S
C1986 C1987 1.524 . S
C1986 H2005 0.913 . S
C1987 H1963 0.950 . S
C1987 C1986 1.524 . S
C1987 C1988 1.415 . S
C1988 H1964 0.950 . S
C1988 C1983 1.363 . S
C1988 C1987 1.415 . S
C1989 H1965 0.951 . S
C1989 C1990 1.366 1_556 S
C1989 C1991 1.388 . S
C1990 C1989 1.366 1_554 S
C1990 C1994 1.385 . S
C1991 H1966 0.951 . S
C1991 C1989 1.388 . S
C1991 C1992 1.410 . S
C1992 C1991 1.410 . S
C1992 C1993 1.362 1_556 S
C1992 C1995 1.507 . S
C1993 H1967 0.950 . S
C1993 C1992 1.362 1_554 S
C1993 C1994 1.374 . S
C1994 H1968 0.950 . S
C1994 C1990 1.385 . S
C1994 C1993 1.374 . S
C1995 C1992 1.507 . S
C1995 C1996 1.373 1_556 S
C1995 C1997 1.389 . S
C1996 H1969 0.950 . S
C1996 C1982 1.377 1_554 S
C1996 C1995 1.373 1_554 S
C1997 C1981 1.377 . S
C1997 C1995 1.389 . S
C1997 C1998 1.524 . S
C1998 C1997 1.524 . S
C1998 C1999 1.397 . S
C1998 C2003 1.363 . S
C1999 H1970 0.950 1_556 S
C1999 C1998 1.397 . S
C1999 C2000 1.334 . S
C2000 H1971 0.950 1_556 S
C2000 C1999 1.334 . S
C2000 C2001 1.287 . S
C2001 C2000 1.287 . S
C2001 C2002 1.524 . S
C2001 H2004 0.999 . S
C2002 H1972 0.950 . S
C2002 C2001 1.524 . S
C2002 C2003 1.415 . S
C2003 H1973 0.950 . S
C2003 C1998 1.363 . S
C2003 C2002 1.415 . S
H2004 C2001 0.999 . S
H2005 C1986 0.913 . S
H2006 C2024 0.951 . S
H2007 C2026 0.951 . S
H2008 C2028 0.950 . S
H2009 C2029 0.950 . S
H2010 C2031 0.950 . S
H2011 C2034 0.950 . S
H2012 C2035 0.950 . S
H2013 C2037 0.950 . S
H2014 C2038 0.950 . S
H2015 C2039 0.951 . S
H2016 C2041 0.951 . S
H2017 C2043 0.950 . S
H2018 C2044 0.950 . S
H2019 C2046 0.950 . S
H2020 C2049 0.950 . S
H2021 C2050 0.950 . S
H2022 C2052 0.950 . S
H2023 C2053 0.950 . S
C2024 H2006 0.951 . S
C2024 C2025 1.366 . S
C2024 C2026 1.388 . S
C2025 C2024 1.366 . S
C2025 C2029 1.385 . S
C2026 H2007 0.951 . S
C2026 C2024 1.388 . S
C2026 C2027 1.366 . S
C2027 C2026 1.366 . S
C2027 C2028 1.414 . S
C2027 C2030 1.499 . S
C2028 H2008 0.950 . S
C2028 C2027 1.414 . S
C2028 C2029 1.374 . S
C2029 H2009 0.950 . S
C2029 C2025 1.385 . S
C2029 C2028 1.374 . S
C2030 C2027 1.499 . S
C2030 C2031 1.373 . S
C2030 C2032 1.389 . S
C2031 H2010 0.950 . S
C2031 C2030 1.373 . S
C2031 C2047 1.377 . S
C2032 C2030 1.389 . S
C2032 C2033 1.524 . S
C2032 C2046 1.377 . S
C2033 C2032 1.524 . S
C2033 C2034 1.397 . S
C2033 C2038 1.363 . S
C2034 H2011 0.950 . S
C2034 C2033 1.397 . S
C2034 C2035 1.334 . S
C2035 H2012 0.950 . S
C2035 C2034 1.334 . S
C2035 C2036 1.287 . S
C2036 C2035 1.287 . S
C2036 C2037 1.524 . S
C2036 H2055 0.913 . S
C2037 H2013 0.950 . S
C2037 C2036 1.524 . S
C2037 C2038 1.415 . S
C2038 H2014 0.950 . S
C2038 C2033 1.363 . S
C2038 C2037 1.415 . S
C2039 H2015 0.951 . S
C2039 C2040 1.366 . S
C2039 C2041 1.388 . S
C2040 C2039 1.366 . S
C2040 C2044 1.385 . S
C2041 H2016 0.951 . S
C2041 C2039 1.388 . S
C2041 C2042 1.366 . S
C2042 C2041 1.366 . S
C2042 C2043 1.414 . S
C2042 C2045 1.499 . S
C2043 H2017 0.950 . S
C2043 C2042 1.414 . S
C2043 C2044 1.374 . S
C2044 H2018 0.950 . S
C2044 C2040 1.385 . S
C2044 C2043 1.374 . S
C2045 C2042 1.499 . S
C2045 C2046 1.373 . S
C2045 C2047 1.389 . S
C2046 H2019 0.950 . S
C2046 C2032 1.377 . S
C2046 C2045 1.373 . S
C2047 C2031 1.377 . S
C2047 C2045 1.389 . S
C2047 C2048 1.524 . S
C2048 C2047 1.524 . S
C2048 C2049 1.397 . S
C2048 C2053 1.363 . S
C2049 H2020 0.950 . S
C2049 C2048 1.397 . S
C2049 C2050 1.334 . S
C2050 H2021 0.950 . S
C2050 C2049 1.334 . S
C2050 C2051 1.287 . S
C2051 C2050 1.287 . S
C2051 C2052 1.524 . S
C2051 H2054 0.999 . S
C2052 H2022 0.950 . S
C2052 C2051 1.524 . S
C2052 C2053 1.415 . S
C2053 H2023 0.950 . S
C2053 C2048 1.363 . S
C2053 C2052 1.415 . S
H2054 C2051 0.999 . S
H2055 C2036 0.913 . S
H2056 C2074 0.951 . S
H2057 C2076 0.951 . S
H2058 C2078 0.950 . S
H2059 C2079 0.950 . S
H2060 C2081 0.950 . S
H2061 C2084 0.950 . S
H2062 C2085 0.950 . S
H2063 C2087 0.950 . S
H2064 C2088 0.950 . S
H2065 C2089 0.951 . S
H2066 C2091 0.951 . S
H2067 C2093 0.950 . S
H2068 C2094 0.950 . S
H2069 C2096 0.950 . S
H2070 C2099 0.950 . S
H2071 C2100 0.950 . S
H2072 C2102 0.950 . S
H2073 C2103 0.950 . S
C2074 H2056 0.951 . S
C2074 C2075 1.366 . S
C2074 C2076 1.388 . S
C2075 C2074 1.366 . S
C2075 C2079 1.385 . S
C2076 H2057 0.951 . S
C2076 C2074 1.388 . S
C2076 C2077 1.366 . S
C2077 C2076 1.366 . S
C2077 C2078 1.414 . S
C2077 C2080 1.499 . S
C2078 H2058 0.950 . S
C2078 C2077 1.414 . S
C2078 C2079 1.374 . S
C2079 H2059 0.950 . S
C2079 C2075 1.385 . S
C2079 C2078 1.374 . S
C2080 C2077 1.499 . S
C2080 C2081 1.373 . S
C2080 C2082 1.389 . S
C2081 H2060 0.950 . S
C2081 C2080 1.373 . S
C2081 C2097 1.377 . S
C2082 C2080 1.389 . S
C2082 C2083 1.524 . S
C2082 C2096 1.377 . S
C2083 C2082 1.524 . S
C2083 C2084 1.397 . S
C2083 C2088 1.363 . S
C2084 H2061 0.950 . S
C2084 C2083 1.397 . S
C2084 C2085 1.334 . S
C2085 H2062 0.950 . S
C2085 C2084 1.334 . S
C2085 C2086 1.287 . S
C2086 C2085 1.287 . S
C2086 C2087 1.524 . S
C2086 H2105 0.913 1_545 S
C2087 H2063 0.950 . S
C2087 C2086 1.524 . S
C2087 C2088 1.415 . S
C2088 H2064 0.950 . S
C2088 C2083 1.363 . S
C2088 C2087 1.415 . S
C2089 H2065 0.951 . S
C2089 C2090 1.366 . S
C2089 C2091 1.388 . S
C2090 C2089 1.366 . S
C2090 C2094 1.385 . S
C2091 H2066 0.951 . S
C2091 C2089 1.388 . S
C2091 C2092 1.366 . S
C2092 C2091 1.366 . S
C2092 C2093 1.414 . S
C2092 C2095 1.499 . S
C2093 H2067 0.950 . S
C2093 C2092 1.414 . S
C2093 C2094 1.374 . S
C2094 H2068 0.950 . S
C2094 C2090 1.385 . S
C2094 C2093 1.374 . S
C2095 C2092 1.499 . S
C2095 C2096 1.373 . S
C2095 C2097 1.389 . S
C2096 H2069 0.950 . S
C2096 C2082 1.377 . S
C2096 C2095 1.373 . S
C2097 C2081 1.377 . S
C2097 C2095 1.389 . S
C2097 C2098 1.524 . S
C2098 C2097 1.524 . S
C2098 C2099 1.397 . S
C2098 C2103 1.363 . S
C2099 H2070 0.950 . S
C2099 C2098 1.397 . S
C2099 C2100 1.334 . S
C2100 H2071 0.950 . S
C2100 C2099 1.334 . S
C2100 C2101 1.287 . S
C2101 C2100 1.287 . S
C2101 C2102 1.524 . S
C2101 H2104 0.999 . S
C2102 H2072 0.950 . S
C2102 C2101 1.524 . S
C2102 C2103 1.415 . S
C2103 H2073 0.950 . S
C2103 C2098 1.363 . S
C2103 C2102 1.415 . S
H2104 C2101 0.999 . S
H2105 C2086 0.913 1_565 S
H2106 C2124 0.951 . S
H2107 C2126 0.951 . S
H2108 C2128 0.950 . S
H2109 C2129 0.950 . S
H2110 C2131 0.950 . S
H2111 C2134 0.950 . S
H2112 C2135 0.950 . S
H2113 C2137 0.950 . S
H2114 C2138 0.950 . S
H2115 C2139 0.951 . S
H2116 C2141 0.951 . S
H2117 C2143 0.950 . S
H2118 C2144 0.950 . S
H2119 C2146 0.950 . S
H2120 C2149 0.950 . S
H2121 C2150 0.950 . S
H2122 C2152 0.950 . S
H2123 C2153 0.950 . S
C2124 H2106 0.951 . S
C2124 C2125 1.366 . S
C2124 C2126 1.388 . S
C2125 C2124 1.366 . S
C2125 C2129 1.385 . S
C2126 H2107 0.951 . S
C2126 C2124 1.388 . S
C2126 C2127 1.366 . S
C2127 C2126 1.366 . S
C2127 C2128 1.414 . S
C2127 C2130 1.499 . S
C2128 H2108 0.950 . S
C2128 C2127 1.414 . S
C2128 C2129 1.374 . S
C2129 H2109 0.950 . S
C2129 C2125 1.385 . S
C2129 C2128 1.374 . S
C2130 C2127 1.499 . S
C2130 C2131 1.373 . S
C2130 C2132 1.389 . S
C2131 H2110 0.950 . S
C2131 C2130 1.373 . S
C2131 C2147 1.377 . S
C2132 C2130 1.389 . S
C2132 C2133 1.524 . S
C2132 C2146 1.377 . S
C2133 C2132 1.524 . S
C2133 C2134 1.397 . S
C2133 C2138 1.363 . S
C2134 H2111 0.950 . S
C2134 C2133 1.397 . S
C2134 C2135 1.334 . S
C2135 H2112 0.950 . S
C2135 C2134 1.334 . S
C2135 C2136 1.287 . S
C2136 C2135 1.287 . S
C2136 C2137 1.524 . S
C2136 H2155 0.913 . S
C2137 H2113 0.950 . S
C2137 C2136 1.524 . S
C2137 C2138 1.415 . S
C2138 H2114 0.950 . S
C2138 C2133 1.363 . S
C2138 C2137 1.415 . S
C2139 H2115 0.951 . S
C2139 C2140 1.366 . S
C2139 C2141 1.388 . S
C2140 C2139 1.366 . S
C2140 C2144 1.385 . S
C2141 H2116 0.951 . S
C2141 C2139 1.388 . S
C2141 C2142 1.366 . S
C2142 C2141 1.366 . S
C2142 C2143 1.414 . S
C2142 C2145 1.499 . S
C2143 H2117 0.950 . S
C2143 C2142 1.414 . S
C2143 C2144 1.374 . S
C2144 H2118 0.950 . S
C2144 C2140 1.385 . S
C2144 C2143 1.374 . S
C2145 C2142 1.499 . S
C2145 C2146 1.373 . S
C2145 C2147 1.389 . S
C2146 H2119 0.950 . S
C2146 C2132 1.377 . S
C2146 C2145 1.373 . S
C2147 C2131 1.377 . S
C2147 C2145 1.389 . S
C2147 C2148 1.524 . S
C2148 C2147 1.524 . S
C2148 C2149 1.397 . S
C2148 C2153 1.363 . S
C2149 H2120 0.950 . S
C2149 C2148 1.397 . S
C2149 C2150 1.334 . S
C2150 H2121 0.950 . S
C2150 C2149 1.334 . S
C2150 C2151 1.287 . S
C2151 C2150 1.287 . S
C2151 C2152 1.524 . S
C2151 H2154 0.999 . S
C2152 H2122 0.950 . S
C2152 C2151 1.524 . S
C2152 C2153 1.415 . S
C2153 H2123 0.950 . S
C2153 C2148 1.363 . S
C2153 C2152 1.415 . S
H2154 C2151 0.999 . S
H2155 C2136 0.913 . S
H2156 C2174 0.951 . S
H2157 C2176 0.951 . S
H2158 C2178 0.950 . S
H2159 C2179 0.950 . S
H2160 C2181 0.950 . S
H2161 C2184 0.950 . S
H2162 C2185 0.950 1_565 S
H2163 C2187 0.950 . S
H2164 C2188 0.950 . S
H2165 C2189 0.951 . S
H2166 C2191 0.951 . S
H2167 C2193 0.950 . S
H2168 C2194 0.950 . S
H2169 C2196 0.950 . S
H2170 C2199 0.950 . S
H2171 C2200 0.950 . S
H2172 C2202 0.950 . S
H2173 C2203 0.950 . S
C2174 H2156 0.951 . S
C2174 C2175 1.366 . S
C2174 C2176 1.388 . S
C2175 C2174 1.366 . S
C2175 C2179 1.385 . S
C2176 H2157 0.951 . S
C2176 C2174 1.388 . S
C2176 C2177 1.366 . S
C2177 C2176 1.366 . S
C2177 C2178 1.414 . S
C2177 C2180 1.499 . S
C2178 H2158 0.950 . S
C2178 C2177 1.414 . S
C2178 C2179 1.374 . S
C2179 H2159 0.950 . S
C2179 C2175 1.385 . S
C2179 C2178 1.374 . S
C2180 C2177 1.499 . S
C2180 C2181 1.373 . S
C2180 C2182 1.389 . S
C2181 H2160 0.950 . S
C2181 C2180 1.373 . S
C2181 C2197 1.377 . S
C2182 C2180 1.389 . S
C2182 C2183 1.524 . S
C2182 C2196 1.377 . S
C2183 C2182 1.524 . S
C2183 C2184 1.397 . S
C2183 C2188 1.363 . S
C2184 H2161 0.950 . S
C2184 C2183 1.397 . S
C2184 C2185 1.334 . S
C2185 H2162 0.950 1_545 S
C2185 C2184 1.334 . S
C2185 C2186 1.284 1_545 S
C2186 C2185 1.284 1_565 S
C2186 C2187 1.520 1_565 S
C2186 H2205 0.921 . S
C2187 H2163 0.950 . S
C2187 C2186 1.520 1_545 S
C2187 C2188 1.415 . S
C2188 H2164 0.950 . S
C2188 C2183 1.363 . S
C2188 C2187 1.415 . S
C2189 H2165 0.951 . S
C2189 C2190 1.366 . S
C2189 C2191 1.388 . S
C2190 C2189 1.366 . S
C2190 C2194 1.385 . S
C2191 H2166 0.951 . S
C2191 C2189 1.388 . S
C2191 C2192 1.366 . S
C2192 C2191 1.366 . S
C2192 C2193 1.414 . S
C2192 C2195 1.499 . S
C2193 H2167 0.950 . S
C2193 C2192 1.414 . S
C2193 C2194 1.374 . S
C2194 H2168 0.950 . S
C2194 C2190 1.385 . S
C2194 C2193 1.374 . S
C2195 C2192 1.499 . S
C2195 C2196 1.373 . S
C2195 C2197 1.389 . S
C2196 H2169 0.950 . S
C2196 C2182 1.377 . S
C2196 C2195 1.373 . S
C2197 C2181 1.377 . S
C2197 C2195 1.389 . S
C2197 C2198 1.524 . S
C2198 C2197 1.524 . S
C2198 C2199 1.397 . S
C2198 C2203 1.363 . S
C2199 H2170 0.950 . S
C2199 C2198 1.397 . S
C2199 C2200 1.334 . S
C2200 H2171 0.950 . S
C2200 C2199 1.334 . S
C2200 C2201 1.287 . S
C2201 C2200 1.287 . S
C2201 C2202 1.524 . S
C2201 H2204 0.999 . S
C2202 H2172 0.950 . S
C2202 C2201 1.524 . S
C2202 C2203 1.415 . S
C2203 H2173 0.950 . S
C2203 C2198 1.363 . S
C2203 C2202 1.415 . S
H2204 C2201 0.999 . S
H2205 C2186 0.921 . S
H2206 C2224 0.951 . S
H2207 C2226 0.951 . S
H2208 C2228 0.950 . S
H2209 C2229 0.950 . S
H2210 C2231 0.950 . S
H2211 C2234 0.950 . S
H2212 C2235 0.950 . S
H2213 C2237 0.950 . S
H2214 C2238 0.950 . S
H2215 C2239 0.951 . S
H2216 C2241 0.951 . S
H2217 C2243 0.950 . S
H2218 C2244 0.950 . S
H2219 C2246 0.950 . S
H2220 C2249 0.950 . S
H2221 C2250 0.950 . S
H2222 C2252 0.950 . S
H2223 C2253 0.950 . S
C2224 H2206 0.951 . S
C2224 C2225 1.366 . S
C2224 C2226 1.388 . S
C2225 C2224 1.366 . S
C2225 C2229 1.385 . S
C2226 H2207 0.951 . S
C2226 C2224 1.388 . S
C2226 C2227 1.366 . S
C2227 C2226 1.366 . S
C2227 C2228 1.414 . S
C2227 C2230 1.499 . S
C2228 H2208 0.950 . S
C2228 C2227 1.414 . S
C2228 C2229 1.374 . S
C2229 H2209 0.950 . S
C2229 C2225 1.385 . S
C2229 C2228 1.374 . S
C2230 C2227 1.499 . S
C2230 C2231 1.373 . S
C2230 C2232 1.389 . S
C2231 H2210 0.950 . S
C2231 C2230 1.373 . S
C2231 C2247 1.377 . S
C2232 C2230 1.389 . S
C2232 C2233 1.524 . S
C2232 C2246 1.377 . S
C2233 C2232 1.524 . S
C2233 C2234 1.397 . S
C2233 C2238 1.363 . S
C2234 H2211 0.950 . S
C2234 C2233 1.397 . S
C2234 C2235 1.334 . S
C2235 H2212 0.950 . S
C2235 C2234 1.334 . S
C2235 C2236 1.287 . S
C2236 C2235 1.287 . S
C2236 C2237 1.524 . S
C2236 H2255 0.913 . S
C2237 H2213 0.950 . S
C2237 C2236 1.524 . S
C2237 C2238 1.415 . S
C2238 H2214 0.950 . S
C2238 C2233 1.363 . S
C2238 C2237 1.415 . S
C2239 H2215 0.951 . S
C2239 C2240 1.366 . S
C2239 C2241 1.388 . S
C2240 C2239 1.366 . S
C2240 C2244 1.385 . S
C2241 H2216 0.951 . S
C2241 C2239 1.388 . S
C2241 C2242 1.366 . S
C2242 C2241 1.366 . S
C2242 C2243 1.414 . S
C2242 C2245 1.499 . S
C2243 H2217 0.950 . S
C2243 C2242 1.414 . S
C2243 C2244 1.374 . S
C2244 H2218 0.950 . S
C2244 C2240 1.385 . S
C2244 C2243 1.374 . S
C2245 C2242 1.499 . S
C2245 C2246 1.373 . S
C2245 C2247 1.389 . S
C2246 H2219 0.950 . S
C2246 C2232 1.377 . S
C2246 C2245 1.373 . S
C2247 C2231 1.377 . S
C2247 C2245 1.389 . S
C2247 C2248 1.524 . S
C2248 C2247 1.524 . S
C2248 C2249 1.397 . S
C2248 C2253 1.363 . S
C2249 H2220 0.950 . S
C2249 C2248 1.397 . S
C2249 C2250 1.334 . S
C2250 H2221 0.950 . S
C2250 C2249 1.334 . S
C2250 C2251 1.287 . S
C2251 C2250 1.287 . S
C2251 C2252 1.524 . S
C2251 H2254 0.999 . S
C2252 H2222 0.950 . S
C2252 C2251 1.524 . S
C2252 C2253 1.415 . S
C2253 H2223 0.950 . S
C2253 C2248 1.363 . S
C2253 C2252 1.415 . S
H2254 C2251 0.999 . S
H2255 C2236 0.913 . S
H2256 C2274 0.951 . S
H2257 C2276 0.951 . S
H2258 C2278 0.950 . S
H2259 C2279 0.950 . S
H2260 C2281 0.950 . S
H2261 C2284 0.950 . S
H2262 C2285 0.950 . S
H2263 C2287 0.950 . S
H2264 C2288 0.950 . S
H2265 C2289 0.951 . S
H2266 C2291 0.951 . S
H2267 C2293 0.950 . S
H2268 C2294 0.950 . S
H2269 C2296 0.950 . S
H2270 C2299 0.950 . S
H2271 C2300 0.950 . S
H2272 C2302 0.950 . S
H2273 C2303 0.950 . S
C2274 H2256 0.951 . S
C2274 C2275 1.366 . S
C2274 C2276 1.388 . S
C2275 C2274 1.366 . S
C2275 C2279 1.385 . S
C2276 H2257 0.951 . S
C2276 C2274 1.388 . S
C2276 C2277 1.366 . S
C2277 C2276 1.366 . S
C2277 C2278 1.414 . S
C2277 C2280 1.499 . S
C2278 H2258 0.950 . S
C2278 C2277 1.414 . S
C2278 C2279 1.374 . S
C2279 H2259 0.950 . S
C2279 C2275 1.385 . S
C2279 C2278 1.374 . S
C2280 C2277 1.499 . S
C2280 C2281 1.373 . S
C2280 C2282 1.389 . S
C2281 H2260 0.950 . S
C2281 C2280 1.373 . S
C2281 C2297 1.377 . S
C2282 C2280 1.389 . S
C2282 C2283 1.524 . S
C2282 C2296 1.377 . S
C2283 C2282 1.524 . S
C2283 C2284 1.397 . S
C2283 C2288 1.363 . S
C2284 H2261 0.950 . S
C2284 C2283 1.397 . S
C2284 C2285 1.334 . S
C2285 H2262 0.950 . S
C2285 C2284 1.334 . S
C2285 C2286 1.287 . S
C2286 C2285 1.287 . S
C2286 C2287 1.524 . S
C2286 H2305 0.913 . S
C2287 H2263 0.950 . S
C2287 C2286 1.524 . S
C2287 C2288 1.415 . S
C2288 H2264 0.950 . S
C2288 C2283 1.363 . S
C2288 C2287 1.415 . S
C2289 H2265 0.951 . S
C2289 C2290 1.366 . S
C2289 C2291 1.388 . S
C2290 C2289 1.366 . S
C2290 C2294 1.385 . S
C2291 H2266 0.951 . S
C2291 C2289 1.388 . S
C2291 C2292 1.366 . S
C2292 C2291 1.366 . S
C2292 C2293 1.414 . S
C2292 C2295 1.499 . S
C2293 H2267 0.950 . S
C2293 C2292 1.414 . S
C2293 C2294 1.374 . S
C2294 H2268 0.950 . S
C2294 C2290 1.385 . S
C2294 C2293 1.374 . S
C2295 C2292 1.499 . S
C2295 C2296 1.373 . S
C2295 C2297 1.389 . S
C2296 H2269 0.950 . S
C2296 C2282 1.377 . S
C2296 C2295 1.373 . S
C2297 C2281 1.377 . S
C2297 C2295 1.389 . S
C2297 C2298 1.524 . S
C2298 C2297 1.524 . S
C2298 C2299 1.397 . S
C2298 C2303 1.363 . S
C2299 H2270 0.950 . S
C2299 C2298 1.397 . S
C2299 C2300 1.334 . S
C2300 H2271 0.950 . S
C2300 C2299 1.334 . S
C2300 C2301 1.287 . S
C2301 C2300 1.287 . S
C2301 C2302 1.524 . S
C2301 H2304 0.999 . S
C2302 H2272 0.950 . S
C2302 C2301 1.524 . S
C2302 C2303 1.415 . S
C2303 H2273 0.950 . S
C2303 C2298 1.363 . S
C2303 C2302 1.415 . S
H2304 C2301 0.999 . S
H2305 C2286 0.913 . S
H2306 C2324 0.951 . S
H2307 C2326 0.951 . S
H2308 C2328 0.950 . S
H2309 C2329 0.950 . S
H2310 C2331 0.950 . S
H2311 C2334 0.950 . S
H2312 C2335 0.950 . S
H2313 C2337 0.950 . S
H2314 C2338 0.950 . S
H2315 C2339 0.951 . S
H2316 C2341 0.951 . S
H2317 C2343 0.950 . S
H2318 C2344 0.950 1_565 S
H2319 C2346 0.950 . S
H2320 C2349 0.950 . S
H2321 C2350 0.950 . S
H2322 C2352 0.950 . S
H2323 C2353 0.950 1_545 S
C2324 H2306 0.951 . S
C2324 C2325 1.366 . S
C2324 C2326 1.388 . S
C2325 C2324 1.366 . S
C2325 C2329 1.385 . S
C2326 H2307 0.951 . S
C2326 C2324 1.388 . S
C2326 C2327 1.366 . S
C2327 C2326 1.366 . S
C2327 C2328 1.414 . S
C2327 C2330 1.499 . S
C2328 H2308 0.950 . S
C2328 C2327 1.414 . S
C2328 C2329 1.374 . S
C2329 H2309 0.950 . S
C2329 C2325 1.385 . S
C2329 C2328 1.374 . S
C2330 C2327 1.499 . S
C2330 C2331 1.373 . S
C2330 C2332 1.389 . S
C2331 H2310 0.950 . S
C2331 C2330 1.373 . S
C2331 C2347 1.377 . S
C2332 C2330 1.389 . S
C2332 C2333 1.524 . S
C2332 C2346 1.377 . S
C2333 C2332 1.524 . S
C2333 C2334 1.397 . S
C2333 C2338 1.363 . S
C2334 H2311 0.950 . S
C2334 C2333 1.397 . S
C2334 C2335 1.334 . S
C2335 H2312 0.950 . S
C2335 C2334 1.334 . S
C2335 C2336 1.287 . S
C2336 C2335 1.287 . S
C2336 C2337 1.524 . S
C2336 H2355 0.913 . S
C2337 H2313 0.950 . S
C2337 C2336 1.524 . S
C2337 C2338 1.415 . S
C2338 H2314 0.950 . S
C2338 C2333 1.363 . S
C2338 C2337 1.415 . S
C2339 H2315 0.951 . S
C2339 C2340 1.366 . S
C2339 C2341 1.388 . S
C2340 C2339 1.366 . S
C2340 C2344 1.385 . S
C2341 H2316 0.951 . S
C2341 C2339 1.388 . S
C2341 C2342 1.366 . S
C2342 C2341 1.366 . S
C2342 C2343 1.414 . S
C2342 C2345 1.499 . S
C2343 H2317 0.950 . S
C2343 C2342 1.414 . S
C2343 C2344 1.374 . S
C2344 H2318 0.950 1_545 S
C2344 C2340 1.385 . S
C2344 C2343 1.374 . S
C2345 C2342 1.499 . S
C2345 C2346 1.373 . S
C2345 C2347 1.389 . S
C2346 H2319 0.950 . S
C2346 C2332 1.377 . S
C2346 C2345 1.373 . S
C2347 C2331 1.377 . S
C2347 C2345 1.389 . S
C2347 C2348 1.524 1_545 S
C2348 C2347 1.524 1_565 S
C2348 C2349 1.397 . S
C2348 C2353 1.363 . S
C2349 H2320 0.950 . S
C2349 C2348 1.397 . S
C2349 C2350 1.334 . S
C2350 H2321 0.950 . S
C2350 C2349 1.334 . S
C2350 C2351 1.287 . S
C2351 C2350 1.287 . S
C2351 C2352 1.524 . S
C2351 H2354 0.999 . S
C2352 H2322 0.950 . S
C2352 C2351 1.524 . S
C2352 C2353 1.415 . S
C2353 H2323 0.950 1_565 S
C2353 C2348 1.363 . S
C2353 C2352 1.415 . S
H2354 C2351 0.999 . S
H2355 C2336 0.913 . S
H2356 C2374 0.951 . S
H2357 C2376 0.951 . S
H2358 C2378 0.950 . S
H2359 C2379 0.950 . S
H2360 C2381 0.950 . S
H2361 C2384 0.950 . S
H2362 C2385 0.950 . S
H2363 C2387 0.950 . S
H2364 C2388 0.950 . S
H2365 C2389 0.951 . S
H2366 C2391 0.951 . S
H2367 C2393 0.950 . S
H2368 C2394 0.950 . S
H2369 C2396 0.950 . S
H2370 C2399 0.950 . S
H2371 C2400 0.950 . S
H2372 C2402 0.950 . S
H2373 C2403 0.950 . S
C2374 H2356 0.951 . S
C2374 C2375 1.366 . S
C2374 C2376 1.388 . S
C2375 C2374 1.366 . S
C2375 C2379 1.385 . S
C2376 H2357 0.951 . S
C2376 C2374 1.388 . S
C2376 C2377 1.366 . S
C2377 C2376 1.366 . S
C2377 C2378 1.414 . S
C2377 C2380 1.499 . S
C2378 H2358 0.950 . S
C2378 C2377 1.414 . S
C2378 C2379 1.374 . S
C2379 H2359 0.950 . S
C2379 C2375 1.385 . S
C2379 C2378 1.374 . S
C2380 C2377 1.499 . S
C2380 C2381 1.373 . S
C2380 C2382 1.389 . S
C2381 H2360 0.950 . S
C2381 C2380 1.373 . S
C2381 C2397 1.377 . S
C2382 C2380 1.389 . S
C2382 C2383 1.524 . S
C2382 C2396 1.377 . S
C2383 C2382 1.524 . S
C2383 C2384 1.397 . S
C2383 C2388 1.363 . S
C2384 H2361 0.950 . S
C2384 C2383 1.397 . S
C2384 C2385 1.334 . S
C2385 H2362 0.950 . S
C2385 C2384 1.334 . S
C2385 C2386 1.287 . S
C2386 C2385 1.287 . S
C2386 C2387 1.524 . S
C2386 H2405 0.913 . S
C2387 H2363 0.950 . S
C2387 C2386 1.524 . S
C2387 C2388 1.415 . S
C2388 H2364 0.950 . S
C2388 C2383 1.363 . S
C2388 C2387 1.415 . S
C2389 H2365 0.951 . S
C2389 C2390 1.366 . S
C2389 C2391 1.388 . S
C2390 C2389 1.366 . S
C2390 C2394 1.385 . S
C2391 H2366 0.951 . S
C2391 C2389 1.388 . S
C2391 C2392 1.366 . S
C2392 C2391 1.366 . S
C2392 C2393 1.414 . S
C2392 C2395 1.499 . S
C2393 H2367 0.950 . S
C2393 C2392 1.414 . S
C2393 C2394 1.374 . S
C2394 H2368 0.950 . S
C2394 C2390 1.385 . S
C2394 C2393 1.374 . S
C2395 C2392 1.499 . S
C2395 C2396 1.373 . S
C2395 C2397 1.389 . S
C2396 H2369 0.950 . S
C2396 C2382 1.377 . S
C2396 C2395 1.373 . S
C2397 C2381 1.377 . S
C2397 C2395 1.389 . S
C2397 C2398 1.524 . S
C2398 C2397 1.524 . S
C2398 C2399 1.397 . S
C2398 C2403 1.363 . S
C2399 H2370 0.950 . S
C2399 C2398 1.397 . S
C2399 C2400 1.334 . S
C2400 H2371 0.950 . S
C2400 C2399 1.334 . S
C2400 C2401 1.287 . S
C2401 C2400 1.287 . S
C2401 C2402 1.524 . S
C2401 H2404 0.999 . S
C2402 H2372 0.950 . S
C2402 C2401 1.524 . S
C2402 C2403 1.415 . S
C2403 H2373 0.950 . S
C2403 C2398 1.363 . S
C2403 C2402 1.415 . S
H2404 C2401 0.999 . S
H2405 C2386 0.913 . S
H2406 C2424 0.951 . S
H2407 C2426 0.951 . S
H2408 C2428 0.950 . S
H2409 C2429 0.950 . S
H2410 C2431 0.950 . S
H2411 C2434 0.950 . S
H2412 C2435 0.950 . S
H2413 C2437 0.950 . S
H2414 C2438 0.950 . S
H2415 C2439 0.951 . S
H2416 C2441 0.951 . S
H2417 C2443 0.950 . S
H2418 C2444 0.950 . S
H2419 C2446 0.950 . S
H2420 C2449 0.950 . S
H2421 C2450 0.950 . S
H2422 C2452 0.950 . S
H2423 C2453 0.950 . S
C2424 H2406 0.951 . S
C2424 C2425 1.366 . S
C2424 C2426 1.388 . S
C2425 C2424 1.366 . S
C2425 C2429 1.385 . S
C2426 H2407 0.951 . S
C2426 C2424 1.388 . S
C2426 C2427 1.366 . S
C2427 C2426 1.366 . S
C2427 C2428 1.414 . S
C2427 C2430 1.499 . S
C2428 H2408 0.950 . S
C2428 C2427 1.414 . S
C2428 C2429 1.374 . S
C2429 H2409 0.950 . S
C2429 C2425 1.385 . S
C2429 C2428 1.374 . S
C2430 C2427 1.499 . S
C2430 C2431 1.373 . S
C2430 C2432 1.389 . S
C2431 H2410 0.950 . S
C2431 C2430 1.373 . S
C2431 C2447 1.377 . S
C2432 C2430 1.389 . S
C2432 C2433 1.524 . S
C2432 C2446 1.377 . S
C2433 C2432 1.524 . S
C2433 C2434 1.397 . S
C2433 C2438 1.363 . S
C2434 H2411 0.950 . S
C2434 C2433 1.397 . S
C2434 C2435 1.334 . S
C2435 H2412 0.950 . S
C2435 C2434 1.334 . S
C2435 C2436 1.287 . S
C2436 C2435 1.287 . S
C2436 C2437 1.524 . S
C2436 H2455 0.913 . S
C2437 H2413 0.950 . S
C2437 C2436 1.524 . S
C2437 C2438 1.415 . S
C2438 H2414 0.950 . S
C2438 C2433 1.363 . S
C2438 C2437 1.415 . S
C2439 H2415 0.951 . S
C2439 C2440 1.366 . S
C2439 C2441 1.388 . S
C2440 C2439 1.366 . S
C2440 C2444 1.385 . S
C2441 H2416 0.951 . S
C2441 C2439 1.388 . S
C2441 C2442 1.366 . S
C2442 C2441 1.366 . S
C2442 C2443 1.414 . S
C2442 C2445 1.499 . S
C2443 H2417 0.950 . S
C2443 C2442 1.414 . S
C2443 C2444 1.374 . S
C2444 H2418 0.950 . S
C2444 C2440 1.385 . S
C2444 C2443 1.374 . S
C2445 C2442 1.499 . S
C2445 C2446 1.373 . S
C2445 C2447 1.389 . S
C2446 H2419 0.950 . S
C2446 C2432 1.377 . S
C2446 C2445 1.373 . S
C2447 C2431 1.377 . S
C2447 C2445 1.389 . S
C2447 C2448 1.524 . S
C2448 C2447 1.524 . S
C2448 C2449 1.397 . S
C2448 C2453 1.363 . S
C2449 H2420 0.950 . S
C2449 C2448 1.397 . S
C2449 C2450 1.334 . S
C2450 H2421 0.950 . S
C2450 C2449 1.334 . S
C2450 C2451 1.287 . S
C2451 C2450 1.287 . S
C2451 C2452 1.524 . S
C2451 H2454 0.999 . S
C2452 H2422 0.950 . S
C2452 C2451 1.524 . S
C2452 C2453 1.415 . S
C2453 H2423 0.950 . S
C2453 C2448 1.363 . S
C2453 C2452 1.415 . S
H2454 C2451 0.999 . S
H2455 C2436 0.913 . S
H2456 C2474 0.951 . S
H2457 C2476 0.951 . S
H2458 C2478 0.950 . S
H2459 C2479 0.950 . S
H2460 C2481 0.950 . S
H2461 C2484 0.950 . S
H2462 C2485 0.950 . S
H2463 C2487 0.950 . S
H2464 C2488 0.950 . S
H2465 C2489 0.951 . S
H2466 C2491 0.951 . S
H2467 C2493 0.950 . S
H2468 C2494 0.950 . S
H2469 C2496 0.950 . S
H2470 C2499 0.950 . S
H2471 C2500 0.950 . S
H2472 C2502 0.950 . S
H2473 C2503 0.950 . S
C2474 H2456 0.951 . S
C2474 C2475 1.366 . S
C2474 C2476 1.388 . S
C2475 C2474 1.366 . S
C2475 C2479 1.385 . S
C2476 H2457 0.951 . S
C2476 C2474 1.388 . S
C2476 C2477 1.366 . S
C2477 C2476 1.366 . S
C2477 C2478 1.414 . S
C2477 C2480 1.499 . S
C2478 H2458 0.950 . S
C2478 C2477 1.414 . S
C2478 C2479 1.374 . S
C2479 H2459 0.950 . S
C2479 C2475 1.385 . S
C2479 C2478 1.374 . S
C2480 C2477 1.499 . S
C2480 C2481 1.373 . S
C2480 C2482 1.389 . S
C2481 H2460 0.950 . S
C2481 C2480 1.373 . S
C2481 C2497 1.377 . S
C2482 C2480 1.389 . S
C2482 C2483 1.524 . S
C2482 C2496 1.377 . S
C2483 C2482 1.524 . S
C2483 C2484 1.397 . S
C2483 C2488 1.363 . S
C2484 H2461 0.950 . S
C2484 C2483 1.397 . S
C2484 C2485 1.334 . S
C2485 H2462 0.950 . S
C2485 C2484 1.334 . S
C2485 C2486 1.287 . S
C2486 C2485 1.287 . S
C2486 C2487 1.524 . S
C2486 H2505 0.913 . S
C2487 H2463 0.950 . S
C2487 C2486 1.524 . S
C2487 C2488 1.415 . S
C2488 H2464 0.950 . S
C2488 C2483 1.363 . S
C2488 C2487 1.415 . S
C2489 H2465 0.951 . S
C2489 C2490 1.366 . S
C2489 C2491 1.388 . S
C2490 C2489 1.366 . S
C2490 C2494 1.385 . S
C2491 H2466 0.951 . S
C2491 C2489 1.388 . S
C2491 C2492 1.366 . S
C2492 C2491 1.366 . S
C2492 C2493 1.414 . S
C2492 C2495 1.499 . S
C2493 H2467 0.950 . S
C2493 C2492 1.414 . S
C2493 C2494 1.374 . S
C2494 H2468 0.950 . S
C2494 C2490 1.385 . S
C2494 C2493 1.374 . S
C2495 C2492 1.499 . S
C2495 C2496 1.373 . S
C2495 C2497 1.389 . S
C2496 H2469 0.950 . S
C2496 C2482 1.377 . S
C2496 C2495 1.373 . S
C2497 C2481 1.377 . S
C2497 C2495 1.389 . S
C2497 C2498 1.524 . S
C2498 C2497 1.524 . S
C2498 C2499 1.397 . S
C2498 C2503 1.363 . S
C2499 H2470 0.950 . S
C2499 C2498 1.397 . S
C2499 C2500 1.334 . S
C2500 H2471 0.950 . S
C2500 C2499 1.334 . S
C2500 C2501 1.287 . S
C2501 C2500 1.287 . S
C2501 C2502 1.524 . S
C2501 H2504 0.999 . S
C2502 H2472 0.950 . S
C2502 C2501 1.524 . S
C2502 C2503 1.415 . S
C2503 H2473 0.950 . S
C2503 C2498 1.363 . S
C2503 C2502 1.415 . S
H2504 C2501 0.999 . S
H2505 C2486 0.913 . S
H2506 C2524 0.951 . S
H2507 C2526 0.951 . S
H2508 C2528 0.950 . S
H2509 C2529 0.950 . S
H2510 C2531 0.950 1_565 S
H2511 C2534 0.950 . S
H2512 C2535 0.950 . S
H2513 C2537 0.950 . S
H2514 C2538 0.950 . S
H2515 C2539 0.951 1_565 S
H2516 C2541 0.951 1_565 S
H2517 C2543 0.950 . S
H2518 C2544 0.950 . S
H2519 C2546 0.950 . S
H2520 C2549 0.950 . S
H2521 C2550 0.950 . S
H2522 C2552 0.950 . S
H2523 C2553 0.950 . S
C2524 H2506 0.951 . S
C2524 C2525 1.366 . S
C2524 C2526 1.388 . S
C2525 C2524 1.366 . S
C2525 C2529 1.385 . S
C2526 H2507 0.951 . S
C2526 C2524 1.388 . S
C2526 C2527 1.366 . S
C2527 C2526 1.366 . S
C2527 C2528 1.414 . S
C2527 C2530 1.499 . S
C2528 H2508 0.950 . S
C2528 C2527 1.414 . S
C2528 C2529 1.374 . S
C2529 H2509 0.950 . S
C2529 C2525 1.385 . S
C2529 C2528 1.374 . S
C2530 C2527 1.499 . S
C2530 C2531 1.373 . S
C2530 C2532 1.389 . S
C2531 H2510 0.950 1_545 S
C2531 C2530 1.373 . S
C2531 C2547 1.377 . S
C2532 C2530 1.389 . S
C2532 C2533 1.524 . S
C2532 C2546 1.377 . S
C2533 C2532 1.524 . S
C2533 C2534 1.397 . S
C2533 C2538 1.363 . S
C2534 H2511 0.950 . S
C2534 C2533 1.397 . S
C2534 C2535 1.334 . S
C2535 H2512 0.950 . S
C2535 C2534 1.334 . S
C2535 C2536 1.287 . S
C2536 C2535 1.287 . S
C2536 C2537 1.524 . S
C2536 H2555 0.913 . S
C2537 H2513 0.950 . S
C2537 C2536 1.524 . S
C2537 C2538 1.415 . S
C2538 H2514 0.950 . S
C2538 C2533 1.363 . S
C2538 C2537 1.415 . S
C2539 H2515 0.951 1_545 S
C2539 C2540 1.366 . S
C2539 C2541 1.388 . S
C2540 C2539 1.366 . S
C2540 C2544 1.385 . S
C2541 H2516 0.951 1_545 S
C2541 C2539 1.388 . S
C2541 C2542 1.366 . S
C2542 C2541 1.366 . S
C2542 C2543 1.414 . S
C2542 C2545 1.499 . S
C2543 H2517 0.950 . S
C2543 C2542 1.414 . S
C2543 C2544 1.374 . S
C2544 H2518 0.950 . S
C2544 C2540 1.385 . S
C2544 C2543 1.374 . S
C2545 C2542 1.499 . S
C2545 C2546 1.373 . S
C2545 C2547 1.389 . S
C2546 H2519 0.950 . S
C2546 C2532 1.377 . S
C2546 C2545 1.373 . S
C2547 C2531 1.377 . S
C2547 C2545 1.389 . S
C2547 C2548 1.524 1_545 S
C2548 C2547 1.524 1_565 S
C2548 C2549 1.397 . S
C2548 C2553 1.363 . S
C2549 H2520 0.950 . S
C2549 C2548 1.397 . S
C2549 C2550 1.334 . S
C2550 H2521 0.950 . S
C2550 C2549 1.334 . S
C2550 C2551 1.287 . S
C2551 C2550 1.287 . S
C2551 C2552 1.524 . S
C2551 H2554 0.999 . S
C2552 H2522 0.950 . S
C2552 C2551 1.524 . S
C2552 C2553 1.415 . S
C2553 H2523 0.950 . S
C2553 C2548 1.363 . S
C2553 C2552 1.415 . S
H2554 C2551 0.999 . S
H2555 C2536 0.913 . S
H2556 C2574 0.951 . S
H2557 C2576 0.951 . S
H2558 C2578 0.950 . S
H2559 C2579 0.950 . S
H2560 C2581 0.950 . S
H2561 C2584 0.950 . S
H2562 C2585 0.950 . S
H2563 C2587 0.950 . S
H2564 C2588 0.950 . S
H2565 C2589 0.951 . S
H2566 C2591 0.951 . S
H2567 C2593 0.950 . S
H2568 C2594 0.950 . S
H2569 C2596 0.950 . S
H2570 C2599 0.950 . S
H2571 C2600 0.950 . S
H2572 C2602 0.950 . S
H2573 C2603 0.950 . S
C2574 H2556 0.951 . S
C2574 C2575 1.366 . S
C2574 C2576 1.388 . S
C2575 C2574 1.366 . S
C2575 C2579 1.385 . S
C2576 H2557 0.951 . S
C2576 C2574 1.388 . S
C2576 C2577 1.366 . S
C2577 C2576 1.366 . S
C2577 C2578 1.414 . S
C2577 C2580 1.499 . S
C2578 H2558 0.950 . S
C2578 C2577 1.414 . S
C2578 C2579 1.374 . S
C2579 H2559 0.950 . S
C2579 C2575 1.385 . S
C2579 C2578 1.374 . S
C2580 C2577 1.499 . S
C2580 C2581 1.373 . S
C2580 C2582 1.389 . S
C2581 H2560 0.950 . S
C2581 C2580 1.373 . S
C2581 C2597 1.377 . S
C2582 C2580 1.389 . S
C2582 C2583 1.524 . S
C2582 C2596 1.377 . S
C2583 C2582 1.524 . S
C2583 C2584 1.397 . S
C2583 C2588 1.363 . S
C2584 H2561 0.950 . S
C2584 C2583 1.397 . S
C2584 C2585 1.334 . S
C2585 H2562 0.950 . S
C2585 C2584 1.334 . S
C2585 C2586 1.287 . S
C2586 C2585 1.287 . S
C2586 C2587 1.524 . S
C2586 H2605 0.913 . S
C2587 H2563 0.950 . S
C2587 C2586 1.524 . S
C2587 C2588 1.415 . S
C2588 H2564 0.950 . S
C2588 C2583 1.363 . S
C2588 C2587 1.415 . S
C2589 H2565 0.951 . S
C2589 C2590 1.366 . S
C2589 C2591 1.388 . S
C2590 C2589 1.366 . S
C2590 C2594 1.385 . S
C2591 H2566 0.951 . S
C2591 C2589 1.388 . S
C2591 C2592 1.366 . S
C2592 C2591 1.366 . S
C2592 C2593 1.414 . S
C2592 C2595 1.499 . S
C2593 H2567 0.950 . S
C2593 C2592 1.414 . S
C2593 C2594 1.374 . S
C2594 H2568 0.950 . S
C2594 C2590 1.385 . S
C2594 C2593 1.374 . S
C2595 C2592 1.499 . S
C2595 C2596 1.373 . S
C2595 C2597 1.389 . S
C2596 H2569 0.950 . S
C2596 C2582 1.377 . S
C2596 C2595 1.373 . S
C2597 C2581 1.377 . S
C2597 C2595 1.389 . S
C2597 C2598 1.524 . S
C2598 C2597 1.524 . S
C2598 C2599 1.397 . S
C2598 C2603 1.363 . S
C2599 H2570 0.950 . S
C2599 C2598 1.397 . S
C2599 C2600 1.334 . S
C2600 H2571 0.950 . S
C2600 C2599 1.334 . S
C2600 C2601 1.287 . S
C2601 C2600 1.287 . S
C2601 C2602 1.524 . S
C2601 H2604 0.999 . S
C2602 H2572 0.950 . S
C2602 C2601 1.524 . S
C2602 C2603 1.415 . S
C2603 H2573 0.950 . S
C2603 C2598 1.363 . S
C2603 C2602 1.415 . S
H2604 C2601 0.999 . S
H2605 C2586 0.913 . S
H2606 C2624 0.951 . S
H2607 C2626 0.951 . S
H2608 C2628 0.950 . S
H2609 C2629 0.950 . S
H2610 C2631 0.950 . S
H2611 C2634 0.950 . S
H2612 C2635 0.950 . S
H2613 C2637 0.950 . S
H2614 C2638 0.950 . S
H2615 C2639 0.951 . S
H2616 C2641 0.951 . S
H2617 C2643 0.950 . S
H2618 C2644 0.950 . S
H2619 C2646 0.950 . S
H2620 C2649 0.950 . S
H2621 C2650 0.950 . S
H2622 C2652 0.950 . S
H2623 C2653 0.950 . S
C2624 H2606 0.951 . S
C2624 C2625 1.366 . S
C2624 C2626 1.388 . S
C2625 C2624 1.366 . S
C2625 C2629 1.385 . S
C2626 H2607 0.951 . S
C2626 C2624 1.388 . S
C2626 C2627 1.366 . S
C2627 C2626 1.366 . S
C2627 C2628 1.414 . S
C2627 C2630 1.499 . S
C2628 H2608 0.950 . S
C2628 C2627 1.414 . S
C2628 C2629 1.374 . S
C2629 H2609 0.950 . S
C2629 C2625 1.385 . S
C2629 C2628 1.374 . S
C2630 C2627 1.499 . S
C2630 C2631 1.373 . S
C2630 C2632 1.389 . S
C2631 H2610 0.950 . S
C2631 C2630 1.373 . S
C2631 C2647 1.377 . S
C2632 C2630 1.389 . S
C2632 C2633 1.524 . S
C2632 C2646 1.377 . S
C2633 C2632 1.524 . S
C2633 C2634 1.397 . S
C2633 C2638 1.363 . S
C2634 H2611 0.950 . S
C2634 C2633 1.397 . S
C2634 C2635 1.334 . S
C2635 H2612 0.950 . S
C2635 C2634 1.334 . S
C2635 C2636 1.287 . S
C2636 C2635 1.287 . S
C2636 C2637 1.524 . S
C2636 H2655 0.913 . S
C2637 H2613 0.950 . S
C2637 C2636 1.524 . S
C2637 C2638 1.415 . S
C2638 H2614 0.950 . S
C2638 C2633 1.363 . S
C2638 C2637 1.415 . S
C2639 H2615 0.951 . S
C2639 C2640 1.366 . S
C2639 C2641 1.388 . S
C2640 C2639 1.366 . S
C2640 C2644 1.385 . S
C2641 H2616 0.951 . S
C2641 C2639 1.388 . S
C2641 C2642 1.366 . S
C2642 C2641 1.366 . S
C2642 C2643 1.414 . S
C2642 C2645 1.499 . S
C2643 H2617 0.950 . S
C2643 C2642 1.414 . S
C2643 C2644 1.374 . S
C2644 H2618 0.950 . S
C2644 C2640 1.385 . S
C2644 C2643 1.374 . S
C2645 C2642 1.499 . S
C2645 C2646 1.373 . S
C2645 C2647 1.389 . S
C2646 H2619 0.950 . S
C2646 C2632 1.377 . S
C2646 C2645 1.373 . S
C2647 C2631 1.377 . S
C2647 C2645 1.389 . S
C2647 C2648 1.524 . S
C2648 C2647 1.524 . S
C2648 C2649 1.397 . S
C2648 C2653 1.363 . S
C2649 H2620 0.950 . S
C2649 C2648 1.397 . S
C2649 C2650 1.334 . S
C2650 H2621 0.950 . S
C2650 C2649 1.334 . S
C2650 C2651 1.287 . S
C2651 C2650 1.287 . S
C2651 C2652 1.524 . S
C2651 H2654 0.999 . S
C2652 H2622 0.950 . S
C2652 C2651 1.524 . S
C2652 C2653 1.415 . S
C2653 H2623 0.950 . S
C2653 C2648 1.363 . S
C2653 C2652 1.415 . S
H2654 C2651 0.999 . S
H2655 C2636 0.913 . S
H2656 C2674 0.951 . S
H2657 C2676 0.951 . S
H2658 C2678 0.950 . S
H2659 C2679 0.950 . S
H2660 C2681 0.950 . S
H2661 C2684 0.950 . S
H2662 C2685 0.950 . S
H2663 C2687 0.950 . S
H2664 C2688 0.950 . S
H2665 C2689 0.951 . S
H2666 C2691 0.951 . S
H2667 C2693 0.950 . S
H2668 C2694 0.950 . S
H2669 C2696 0.950 . S
H2670 C2699 0.950 . S
H2671 C2700 0.950 . S
H2672 C2702 0.950 . S
H2673 C2703 0.950 . S
C2674 H2656 0.951 . S
C2674 C2675 1.366 . S
C2674 C2676 1.388 . S
C2675 C2674 1.366 . S
C2675 C2679 1.385 . S
C2676 H2657 0.951 . S
C2676 C2674 1.388 . S
C2676 C2677 1.366 . S
C2677 C2676 1.366 . S
C2677 C2678 1.414 . S
C2677 C2680 1.499 . S
C2678 H2658 0.950 . S
C2678 C2677 1.414 . S
C2678 C2679 1.374 . S
C2679 H2659 0.950 . S
C2679 C2675 1.385 . S
C2679 C2678 1.374 . S
C2680 C2677 1.499 . S
C2680 C2681 1.373 . S
C2680 C2682 1.389 . S
C2681 H2660 0.950 . S
C2681 C2680 1.373 . S
C2681 C2697 1.377 . S
C2682 C2680 1.389 . S
C2682 C2683 1.524 . S
C2682 C2696 1.377 . S
C2683 C2682 1.524 . S
C2683 C2684 1.397 . S
C2683 C2688 1.363 . S
C2684 H2661 0.950 . S
C2684 C2683 1.397 . S
C2684 C2685 1.334 . S
C2685 H2662 0.950 . S
C2685 C2684 1.334 . S
C2685 C2686 1.287 . S
C2686 C2685 1.287 . S
C2686 C2687 1.524 . S
C2686 H2705 0.913 . S
C2687 H2663 0.950 . S
C2687 C2686 1.524 . S
C2687 C2688 1.415 . S
C2688 H2664 0.950 . S
C2688 C2683 1.363 . S
C2688 C2687 1.415 . S
C2689 H2665 0.951 . S
C2689 C2690 1.366 . S
C2689 C2691 1.388 . S
C2690 C2689 1.366 . S
C2690 C2694 1.385 . S
C2691 H2666 0.951 . S
C2691 C2689 1.388 . S
C2691 C2692 1.366 . S
C2692 C2691 1.366 . S
C2692 C2693 1.414 . S
C2692 C2695 1.499 . S
C2693 H2667 0.950 . S
C2693 C2692 1.414 . S
C2693 C2694 1.374 . S
C2694 H2668 0.950 . S
C2694 C2690 1.385 . S
C2694 C2693 1.374 . S
C2695 C2692 1.499 . S
C2695 C2696 1.373 . S
C2695 C2697 1.389 . S
C2696 H2669 0.950 . S
C2696 C2682 1.377 . S
C2696 C2695 1.373 . S
C2697 C2681 1.377 . S
C2697 C2695 1.389 . S
C2697 C2698 1.524 . S
C2698 C2697 1.524 . S
C2698 C2699 1.397 . S
C2698 C2703 1.363 . S
C2699 H2670 0.950 . S
C2699 C2698 1.397 . S
C2699 C2700 1.334 . S
C2700 H2671 0.950 . S
C2700 C2699 1.334 . S
C2700 C2701 1.287 . S
C2701 C2700 1.287 . S
C2701 C2702 1.524 . S
C2701 H2704 0.999 . S
C2702 H2672 0.950 . S
C2702 C2701 1.524 . S
C2702 C2703 1.415 . S
C2703 H2673 0.950 . S
C2703 C2698 1.363 . S
C2703 C2702 1.415 . S
H2704 C2701 0.999 . S
H2705 C2686 0.913 . S
H2706 C2724 0.951 . S
H2707 C2726 0.951 . S
H2708 C2728 0.950 . S
H2709 C2729 0.950 . S
H2710 C2731 0.950 . S
H2711 C2734 0.950 . S
H2712 C2735 0.943 1_554 S
H2713 C2737 0.950 1_554 S
H2714 C2738 0.950 . S
H2715 C2739 0.951 . S
H2716 C2741 0.951 . S
H2717 C2743 0.950 . S
H2718 C2744 0.950 . S
H2719 C2746 0.950 . S
H2720 C2749 0.950 . S
H2721 C2750 0.950 . S
H2722 C2752 0.950 . S
H2723 C2753 0.950 . S
C2724 H2706 0.951 . S
C2724 C2725 1.366 . S
C2724 C2726 1.388 . S
C2725 C2724 1.366 . S
C2725 C2729 1.385 . S
C2726 H2707 0.951 . S
C2726 C2724 1.388 . S
C2726 C2727 1.366 . S
C2727 C2726 1.366 . S
C2727 C2728 1.414 . S
C2727 C2730 1.499 . S
C2728 H2708 0.950 . S
C2728 C2727 1.414 . S
C2728 C2729 1.374 . S
C2729 H2709 0.950 . S
C2729 C2725 1.385 . S
C2729 C2728 1.374 . S
C2730 C2727 1.499 . S
C2730 C2731 1.373 . S
C2730 C2732 1.389 . S
C2731 H2710 0.950 . S
C2731 C2730 1.373 . S
C2731 C2747 1.377 . S
C2732 C2730 1.389 . S
C2732 C2733 1.524 . S
C2732 C2746 1.377 . S
C2733 C2732 1.524 . S
C2733 C2734 1.397 1_655 S
C2733 C2738 1.363 . S
C2734 H2711 0.950 . S
C2734 C2733 1.397 1_455 S
C2734 C2735 1.334 . S
C2735 H2712 0.943 1_556 S
C2735 C2734 1.334 . S
C2735 C2736 1.287 1_556 S
C2736 C2735 1.287 1_554 S
C2736 C2737 1.524 1_454 S
C2736 H2755 0.913 . S
C2737 H2713 0.950 1_556 S
C2737 C2736 1.524 1_656 S
C2737 C2738 1.415 . S
C2738 H2714 0.950 . S
C2738 C2733 1.363 . S
C2738 C2737 1.415 . S
C2739 H2715 0.951 . S
C2739 C2740 1.366 1_455 S
C2739 C2741 1.388 . S
C2740 C2739 1.366 1_655 S
C2740 C2744 1.385 . S
C2741 H2716 0.951 . S
C2741 C2739 1.388 . S
C2741 C2742 1.366 1_455 S
C2742 C2741 1.366 1_655 S
C2742 C2743 1.414 . S
C2742 C2745 1.499 . S
C2743 H2717 0.950 . S
C2743 C2742 1.414 . S
C2743 C2744 1.374 . S
C2744 H2718 0.950 . S
C2744 C2740 1.385 . S
C2744 C2743 1.374 . S
C2745 C2742 1.499 . S
C2745 C2746 1.373 . S
C2745 C2747 1.389 . S
C2746 H2719 0.950 . S
C2746 C2732 1.377 . S
C2746 C2745 1.373 . S
C2747 C2731 1.377 . S
C2747 C2745 1.389 . S
C2747 C2748 1.524 . S
C2748 C2747 1.524 . S
C2748 C2749 1.397 . S
C2748 C2753 1.363 . S
C2749 H2720 0.950 . S
C2749 C2748 1.397 . S
C2749 C2750 1.334 . S
C2750 H2721 0.950 . S
C2750 C2749 1.334 . S
C2750 C2751 1.287 . S
C2751 C2750 1.287 . S
C2751 C2752 1.524 . S
C2751 H2754 0.999 . S
C2752 H2722 0.950 . S
C2752 C2751 1.524 . S
C2752 C2753 1.415 . S
C2753 H2723 0.950 . S
C2753 C2748 1.363 . S
C2753 C2752 1.415 . S
H2754 C2751 0.999 . S
H2755 C2736 0.913 . S
H2756 C2774 0.951 . S
H2757 C2776 0.951 . S
H2758 C2778 0.950 . S
H2759 C2779 0.950 . S
H2760 C2781 0.950 . S
H2761 C2784 0.950 . S
H2762 C2785 0.950 . S
H2763 C2787 0.950 . S
H2764 C2788 0.950 . S
H2765 C2789 0.951 . S
H2766 C2791 0.951 . S
H2767 C2793 0.950 . S
H2768 C2794 0.950 . S
H2769 C2796 0.950 . S
H2770 C2799 0.950 . S
H2771 C2800 0.950 . S
H2772 C2802 0.950 . S
H2773 C2803 0.950 . S
C2774 H2756 0.951 . S
C2774 C2775 1.366 . S
C2774 C2776 1.388 . S
C2775 C2774 1.366 . S
C2775 C2779 1.385 . S
C2776 H2757 0.951 . S
C2776 C2774 1.388 . S
C2776 C2777 1.366 . S
C2777 C2776 1.366 . S
C2777 C2778 1.414 . S
C2777 C2780 1.499 . S
C2778 H2758 0.950 . S
C2778 C2777 1.414 . S
C2778 C2779 1.374 . S
C2779 H2759 0.950 . S
C2779 C2775 1.385 . S
C2779 C2778 1.374 . S
C2780 C2777 1.499 . S
C2780 C2781 1.373 . S
C2780 C2782 1.389 . S
C2781 H2760 0.950 . S
C2781 C2780 1.373 . S
C2781 C2797 1.377 . S
C2782 C2780 1.389 . S
C2782 C2783 1.524 . S
C2782 C2796 1.377 . S
C2783 C2782 1.524 . S
C2783 C2784 1.397 . S
C2783 C2788 1.363 . S
C2784 H2761 0.950 . S
C2784 C2783 1.397 . S
C2784 C2785 1.334 . S
C2785 H2762 0.950 . S
C2785 C2784 1.334 . S
C2785 C2786 1.287 . S
C2786 C2785 1.287 . S
C2786 C2787 1.524 . S
C2786 H2805 0.913 . S
C2787 H2763 0.950 . S
C2787 C2786 1.524 . S
C2787 C2788 1.415 . S
C2788 H2764 0.950 . S
C2788 C2783 1.363 . S
C2788 C2787 1.415 . S
C2789 H2765 0.951 . S
C2789 C2790 1.366 . S
C2789 C2791 1.388 . S
C2790 C2789 1.366 . S
C2790 C2794 1.385 . S
C2791 H2766 0.951 . S
C2791 C2789 1.388 . S
C2791 C2792 1.366 . S
C2792 C2791 1.366 . S
C2792 C2793 1.414 . S
C2792 C2795 1.499 . S
C2793 H2767 0.950 . S
C2793 C2792 1.414 . S
C2793 C2794 1.374 . S
C2794 H2768 0.950 . S
C2794 C2790 1.385 . S
C2794 C2793 1.374 . S
C2795 C2792 1.499 . S
C2795 C2796 1.373 . S
C2795 C2797 1.389 . S
C2796 H2769 0.950 . S
C2796 C2782 1.377 . S
C2796 C2795 1.373 . S
C2797 C2781 1.377 . S
C2797 C2795 1.389 . S
C2797 C2798 1.524 . S
C2798 C2797 1.524 . S
C2798 C2799 1.397 . S
C2798 C2803 1.363 . S
C2799 H2770 0.950 . S
C2799 C2798 1.397 . S
C2799 C2800 1.334 . S
C2800 H2771 0.950 . S
C2800 C2799 1.334 . S
C2800 C2801 1.287 . S
C2801 C2800 1.287 . S
C2801 C2802 1.524 . S
C2801 H2804 0.999 . S
C2802 H2772 0.950 . S
C2802 C2801 1.524 . S
C2802 C2803 1.415 . S
C2803 H2773 0.950 . S
C2803 C2798 1.363 . S
C2803 C2802 1.415 . S
H2804 C2801 0.999 . S
H2805 C2786 0.913 . S
H2806 C2824 0.951 . S
H2807 C2826 0.951 . S
H2808 C2828 0.950 . S
H2809 C2829 0.950 . S
H2810 C2831 0.950 . S
H2811 C2834 0.950 . S
H2812 C2835 0.950 . S
H2813 C2837 0.950 . S
H2814 C2838 0.950 . S
H2815 C2839 0.951 . S
H2816 C2841 0.951 . S
H2817 C2843 0.950 . S
H2818 C2844 0.950 . S
H2819 C2846 0.950 . S
H2820 C2849 0.950 . S
H2821 C2850 0.950 . S
H2822 C2852 0.950 . S
H2823 C2853 0.944 1_455 S
C2824 H2806 0.951 . S
C2824 C2825 1.366 . S
C2824 C2826 1.388 . S
C2825 C2824 1.366 . S
C2825 C2829 1.385 . S
C2826 H2807 0.951 . S
C2826 C2824 1.388 . S
C2826 C2827 1.366 . S
C2827 C2826 1.366 . S
C2827 C2828 1.414 . S
C2827 C2830 1.499 . S
C2828 H2808 0.950 . S
C2828 C2827 1.414 . S
C2828 C2829 1.374 . S
C2829 H2809 0.950 . S
C2829 C2825 1.385 . S
C2829 C2828 1.374 . S
C2830 C2827 1.499 . S
C2830 C2831 1.373 . S
C2830 C2832 1.389 . S
C2831 H2810 0.950 . S
C2831 C2830 1.373 . S
C2831 C2847 1.377 . S
C2832 C2830 1.389 . S
C2832 C2833 1.524 . S
C2832 C2846 1.377 . S
C2833 C2832 1.524 . S
C2833 C2834 1.397 . S
C2833 C2838 1.363 . S
C2834 H2811 0.950 . S
C2834 C2833 1.397 . S
C2834 C2835 1.334 . S
C2835 H2812 0.950 . S
C2835 C2834 1.334 . S
C2835 C2836 1.287 . S
C2836 C2835 1.287 . S
C2836 C2837 1.524 . S
C2836 H2855 0.913 . S
C2837 H2813 0.950 . S
C2837 C2836 1.524 . S
C2837 C2838 1.415 . S
C2838 H2814 0.950 . S
C2838 C2833 1.363 . S
C2838 C2837 1.415 . S
C2839 H2815 0.951 . S
C2839 C2840 1.366 . S
C2839 C2841 1.388 . S
C2840 C2839 1.366 . S
C2840 C2844 1.385 . S
C2841 H2816 0.951 . S
C2841 C2839 1.388 . S
C2841 C2842 1.366 . S
C2842 C2841 1.366 . S
C2842 C2843 1.414 . S
C2842 C2845 1.499 . S
C2843 H2817 0.950 . S
C2843 C2842 1.414 . S
C2843 C2844 1.374 . S
C2844 H2818 0.950 . S
C2844 C2840 1.385 . S
C2844 C2843 1.374 . S
C2845 C2842 1.499 . S
C2845 C2846 1.373 . S
C2845 C2847 1.389 . S
C2846 H2819 0.950 . S
C2846 C2832 1.377 . S
C2846 C2845 1.373 . S
C2847 C2831 1.377 . S
C2847 C2845 1.389 . S
C2847 C2848 1.524 1_455 S
C2848 C2847 1.524 1_655 S
C2848 C2849 1.397 . S
C2848 C2853 1.363 . S
C2849 H2820 0.950 . S
C2849 C2848 1.397 . S
C2849 C2850 1.334 . S
C2850 H2821 0.950 . S
C2850 C2849 1.334 . S
C2850 C2851 1.287 . S
C2851 C2850 1.287 . S
C2851 C2852 1.524 . S
C2851 H2854 0.999 . S
C2852 H2822 0.950 . S
C2852 C2851 1.524 . S
C2852 C2853 1.415 . S
C2853 H2823 0.944 1_655 S
C2853 C2848 1.363 . S
C2853 C2852 1.415 . S
H2854 C2851 0.999 . S
H2855 C2836 0.913 . S
H2856 C2874 0.951 . S
H2857 C2876 0.951 . S
H2858 C2878 0.950 . S
H2859 C2879 0.950 . S
H2860 C2881 0.950 . S
H2861 C2884 0.950 . S
H2862 C2885 0.950 . S
H2863 C2887 0.950 . S
H2864 C2888 0.950 . S
H2865 C2889 0.951 . S
H2866 C2891 0.951 . S
H2867 C2893 0.950 . S
H2868 C2894 0.950 . S
H2869 C2896 0.950 . S
H2870 C2899 0.950 . S
H2871 C2900 0.950 . S
H2872 C2902 0.950 . S
H2873 C2903 0.950 . S
C2874 H2856 0.951 . S
C2874 C2875 1.366 . S
C2874 C2876 1.388 . S
C2875 C2874 1.366 . S
C2875 C2879 1.385 . S
C2876 H2857 0.951 . S
C2876 C2874 1.388 . S
C2876 C2877 1.366 . S
C2877 C2876 1.366 . S
C2877 C2878 1.414 . S
C2877 C2880 1.499 . S
C2878 H2858 0.950 . S
C2878 C2877 1.414 . S
C2878 C2879 1.374 . S
C2879 H2859 0.950 . S
C2879 C2875 1.385 . S
C2879 C2878 1.374 . S
C2880 C2877 1.499 . S
C2880 C2881 1.373 . S
C2880 C2882 1.389 . S
C2881 H2860 0.950 . S
C2881 C2880 1.373 . S
C2881 C2897 1.377 . S
C2882 C2880 1.389 . S
C2882 C2883 1.524 . S
C2882 C2896 1.377 . S
C2883 C2882 1.524 . S
C2883 C2884 1.397 . S
C2883 C2888 1.363 . S
C2884 H2861 0.950 . S
C2884 C2883 1.397 . S
C2884 C2885 1.334 . S
C2885 H2862 0.950 . S
C2885 C2884 1.334 . S
C2885 C2886 1.287 . S
C2886 C2885 1.287 . S
C2886 C2887 1.524 . S
C2886 H2905 0.913 . S
C2887 H2863 0.950 . S
C2887 C2886 1.524 . S
C2887 C2888 1.415 . S
C2888 H2864 0.950 . S
C2888 C2883 1.363 . S
C2888 C2887 1.415 . S
C2889 H2865 0.951 . S
C2889 C2890 1.366 . S
C2889 C2891 1.388 . S
C2890 C2889 1.366 . S
C2890 C2894 1.385 . S
C2891 H2866 0.951 . S
C2891 C2889 1.388 . S
C2891 C2892 1.366 . S
C2892 C2891 1.366 . S
C2892 C2893 1.414 . S
C2892 C2895 1.499 . S
C2893 H2867 0.950 . S
C2893 C2892 1.414 . S
C2893 C2894 1.374 . S
C2894 H2868 0.950 . S
C2894 C2890 1.385 . S
C2894 C2893 1.374 . S
C2895 C2892 1.499 . S
C2895 C2896 1.373 . S
C2895 C2897 1.389 . S
C2896 H2869 0.950 . S
C2896 C2882 1.377 . S
C2896 C2895 1.373 . S
C2897 C2881 1.377 . S
C2897 C2895 1.389 . S
C2897 C2898 1.524 . S
C2898 C2897 1.524 . S
C2898 C2899 1.397 . S
C2898 C2903 1.363 . S
C2899 H2870 0.950 . S
C2899 C2898 1.397 . S
C2899 C2900 1.334 . S
C2900 H2871 0.950 . S
C2900 C2899 1.334 . S
C2900 C2901 1.287 . S
C2901 C2900 1.287 . S
C2901 C2902 1.524 . S
C2901 H2904 0.999 . S
C2902 H2872 0.950 . S
C2902 C2901 1.524 . S
C2902 C2903 1.415 . S
C2903 H2873 0.950 . S
C2903 C2898 1.363 . S
C2903 C2902 1.415 . S
H2904 C2901 0.999 . S
H2905 C2886 0.913 . S
H2906 C2924 0.951 . S
H2907 C2926 0.951 . S
H2908 C2928 0.950 . S
H2909 C2929 0.950 . S
H2910 C2931 0.950 . S
H2911 C2934 0.950 . S
H2912 C2935 0.950 . S
H2913 C2937 0.950 . S
H2914 C2938 0.950 . S
H2915 C2939 0.951 . S
H2916 C2941 0.951 . S
H2917 C2943 0.950 . S
H2918 C2944 0.950 . S
H2919 C2946 0.950 . S
H2920 C2949 0.950 . S
H2921 C2950 0.950 . S
H2922 C2952 0.950 . S
H2923 C2953 0.950 . S
C2924 H2906 0.951 . S
C2924 C2925 1.366 . S
C2924 C2926 1.388 . S
C2925 C2924 1.366 . S
C2925 C2929 1.385 . S
C2926 H2907 0.951 . S
C2926 C2924 1.388 . S
C2926 C2927 1.366 . S
C2927 C2926 1.366 . S
C2927 C2928 1.414 . S
C2927 C2930 1.499 . S
C2928 H2908 0.950 . S
C2928 C2927 1.414 . S
C2928 C2929 1.374 . S
C2929 H2909 0.950 . S
C2929 C2925 1.385 . S
C2929 C2928 1.374 . S
C2930 C2927 1.499 . S
C2930 C2931 1.373 . S
C2930 C2932 1.389 . S
C2931 H2910 0.950 . S
C2931 C2930 1.373 . S
C2931 C2947 1.377 . S
C2932 C2930 1.389 . S
C2932 C2933 1.524 . S
C2932 C2946 1.377 . S
C2933 C2932 1.524 . S
C2933 C2934 1.397 . S
C2933 C2938 1.363 . S
C2934 H2911 0.950 . S
C2934 C2933 1.397 . S
C2934 C2935 1.334 . S
C2935 H2912 0.950 . S
C2935 C2934 1.334 . S
C2935 C2936 1.287 . S
C2936 C2935 1.287 . S
C2936 C2937 1.524 . S
C2936 H2955 0.913 . S
C2937 H2913 0.950 . S
C2937 C2936 1.524 . S
C2937 C2938 1.415 . S
C2938 H2914 0.950 . S
C2938 C2933 1.363 . S
C2938 C2937 1.415 . S
C2939 H2915 0.951 . S
C2939 C2940 1.366 . S
C2939 C2941 1.388 . S
C2940 C2939 1.366 . S
C2940 C2944 1.385 . S
C2941 H2916 0.951 . S
C2941 C2939 1.388 . S
C2941 C2942 1.366 . S
C2942 C2941 1.366 . S
C2942 C2943 1.414 . S
C2942 C2945 1.499 . S
C2943 H2917 0.950 . S
C2943 C2942 1.414 . S
C2943 C2944 1.374 . S
C2944 H2918 0.950 . S
C2944 C2940 1.385 . S
C2944 C2943 1.374 . S
C2945 C2942 1.499 . S
C2945 C2946 1.373 . S
C2945 C2947 1.389 . S
C2946 H2919 0.950 . S
C2946 C2932 1.377 . S
C2946 C2945 1.373 . S
C2947 C2931 1.377 . S
C2947 C2945 1.389 . S
C2947 C2948 1.524 . S
C2948 C2947 1.524 . S
C2948 C2949 1.397 . S
C2948 C2953 1.363 . S
C2949 H2920 0.950 . S
C2949 C2948 1.397 . S
C2949 C2950 1.334 . S
C2950 H2921 0.950 . S
C2950 C2949 1.334 . S
C2950 C2951 1.287 . S
C2951 C2950 1.287 . S
C2951 C2952 1.524 . S
C2951 H2954 0.999 . S
C2952 H2922 0.950 . S
C2952 C2951 1.524 . S
C2952 C2953 1.415 . S
C2953 H2923 0.950 . S
C2953 C2948 1.363 . S
C2953 C2952 1.415 . S
H2954 C2951 0.999 . S
H2955 C2936 0.913 . S
H2956 C2974 0.951 . S
H2957 C2976 0.951 . S
H2958 C2978 0.950 . S
H2959 C2979 0.950 . S
H2960 C2981 0.950 . S
H2961 C2984 0.950 . S
H2962 C2985 0.950 . S
H2963 C2987 0.950 . S
H2964 C2988 0.950 . S
H2965 C2989 0.951 . S
H2966 C2991 0.951 . S
H2967 C2993 0.950 . S
H2968 C2994 0.950 . S
H2969 C2996 0.950 . S
H2970 C2999 0.950 . S
H2971 C3000 0.950 . S
H2972 C3002 0.950 . S
H2973 C3003 0.950 . S
C2974 H2956 0.951 . S
C2974 C2975 1.366 . S
C2974 C2976 1.388 . S
C2975 C2974 1.366 . S
C2975 C2979 1.385 . S
C2976 H2957 0.951 . S
C2976 C2974 1.388 . S
C2976 C2977 1.366 . S
C2977 C2976 1.366 . S
C2977 C2978 1.414 . S
C2977 C2980 1.499 . S
C2978 H2958 0.950 . S
C2978 C2977 1.414 . S
C2978 C2979 1.374 . S
C2979 H2959 0.950 . S
C2979 C2975 1.385 . S
C2979 C2978 1.374 . S
C2980 C2977 1.499 . S
C2980 C2981 1.373 . S
C2980 C2982 1.389 . S
C2981 H2960 0.950 . S
C2981 C2980 1.373 . S
C2981 C2997 1.377 . S
C2982 C2980 1.389 . S
C2982 C2983 1.524 . S
C2982 C2996 1.377 . S
C2983 C2982 1.524 . S
C2983 C2984 1.397 . S
C2983 C2988 1.363 . S
C2984 H2961 0.950 . S
C2984 C2983 1.397 . S
C2984 C2985 1.334 . S
C2985 H2962 0.950 . S
C2985 C2984 1.334 . S
C2985 C2986 1.287 . S
C2986 C2985 1.287 . S
C2986 C2987 1.524 . S
C2986 H3005 0.913 . S
C2987 H2963 0.950 . S
C2987 C2986 1.524 . S
C2987 C2988 1.415 . S
C2988 H2964 0.950 . S
C2988 C2983 1.363 . S
C2988 C2987 1.415 . S
C2989 H2965 0.951 . S
C2989 C2990 1.366 . S
C2989 C2991 1.388 . S
C2990 C2989 1.366 . S
C2990 C2994 1.385 . S
C2991 H2966 0.951 . S
C2991 C2989 1.388 . S
C2991 C2992 1.366 . S
C2992 C2991 1.366 . S
C2992 C2993 1.414 . S
C2992 C2995 1.499 . S
C2993 H2967 0.950 . S
C2993 C2992 1.414 . S
C2993 C2994 1.374 . S
C2994 H2968 0.950 . S
C2994 C2990 1.385 . S
C2994 C2993 1.374 . S
C2995 C2992 1.499 . S
C2995 C2996 1.373 . S
C2995 C2997 1.389 . S
C2996 H2969 0.950 . S
C2996 C2982 1.377 . S
C2996 C2995 1.373 . S
C2997 C2981 1.377 . S
C2997 C2995 1.389 . S
C2997 C2998 1.524 . S
C2998 C2997 1.524 . S
C2998 C2999 1.397 . S
C2998 C3003 1.363 . S
C2999 H2970 0.950 . S
C2999 C2998 1.397 . S
C2999 C3000 1.334 . S
C3000 H2971 0.950 . S
C3000 C2999 1.334 . S
C3000 C3001 1.287 . S
C3001 C3000 1.287 . S
C3001 C3002 1.524 . S
C3001 H3004 0.999 . S
C3002 H2972 0.950 . S
C3002 C3001 1.524 . S
C3002 C3003 1.415 . S
C3003 H2973 0.950 . S
C3003 C2998 1.363 . S
C3003 C3002 1.415 . S
H3004 C3001 0.999 . S
H3005 C2986 0.913 . S
H3006 C3024 0.951 . S
H3007 C3026 0.951 . S
H3008 C3028 0.950 . S
H3009 C3029 0.950 . S
H3010 C3031 0.950 . S
H3011 C3034 0.950 . S
H3012 C3035 0.950 . S
H3013 C3037 0.950 . S
H3014 C3038 0.950 . S
H3015 C3039 0.951 . S
H3016 C3041 0.951 . S
H3017 C3043 0.950 . S
H3018 C3044 0.950 . S
H3019 C3046 0.950 . S
H3020 C3049 0.950 . S
H3021 C3050 0.950 . S
H3022 C3052 0.950 . S
H3023 C3053 0.950 . S
C3024 H3006 0.951 . S
C3024 C3025 1.366 . S
C3024 C3026 1.388 . S
C3025 C3024 1.366 . S
C3025 C3029 1.385 . S
C3026 H3007 0.951 . S
C3026 C3024 1.388 . S
C3026 C3027 1.366 . S
C3027 C3026 1.366 . S
C3027 C3028 1.414 . S
C3027 C3030 1.499 . S
C3028 H3008 0.950 . S
C3028 C3027 1.414 . S
C3028 C3029 1.374 . S
C3029 H3009 0.950 . S
C3029 C3025 1.385 . S
C3029 C3028 1.374 . S
C3030 C3027 1.499 . S
C3030 C3031 1.373 . S
C3030 C3032 1.389 . S
C3031 H3010 0.950 . S
C3031 C3030 1.373 . S
C3031 C3047 1.377 . S
C3032 C3030 1.389 . S
C3032 C3033 1.524 . S
C3032 C3046 1.377 . S
C3033 C3032 1.524 . S
C3033 C3034 1.397 . S
C3033 C3038 1.363 . S
C3034 H3011 0.950 . S
C3034 C3033 1.397 . S
C3034 C3035 1.334 . S
C3035 H3012 0.950 . S
C3035 C3034 1.334 . S
C3035 C3036 1.287 . S
C3036 C3035 1.287 . S
C3036 C3037 1.524 . S
C3036 H3055 0.913 . S
C3037 H3013 0.950 . S
C3037 C3036 1.524 . S
C3037 C3038 1.415 . S
C3038 H3014 0.950 . S
C3038 C3033 1.363 . S
C3038 C3037 1.415 . S
C3039 H3015 0.951 . S
C3039 C3040 1.366 . S
C3039 C3041 1.388 . S
C3040 C3039 1.366 . S
C3040 C3044 1.385 . S
C3041 H3016 0.951 . S
C3041 C3039 1.388 . S
C3041 C3042 1.366 . S
C3042 C3041 1.366 . S
C3042 C3043 1.414 . S
C3042 C3045 1.499 . S
C3043 H3017 0.950 . S
C3043 C3042 1.414 . S
C3043 C3044 1.374 . S
C3044 H3018 0.950 . S
C3044 C3040 1.385 . S
C3044 C3043 1.374 . S
C3045 C3042 1.499 . S
C3045 C3046 1.373 . S
C3045 C3047 1.389 . S
C3046 H3019 0.950 . S
C3046 C3032 1.377 . S
C3046 C3045 1.373 . S
C3047 C3031 1.377 . S
C3047 C3045 1.389 . S
C3047 C3048 1.524 . S
C3048 C3047 1.524 . S
C3048 C3049 1.397 . S
C3048 C3053 1.363 . S
C3049 H3020 0.950 . S
C3049 C3048 1.397 . S
C3049 C3050 1.334 . S
C3050 H3021 0.950 . S
C3050 C3049 1.334 . S
C3050 C3051 1.287 . S
C3051 C3050 1.287 . S
C3051 C3052 1.524 . S
C3051 H3054 0.999 . S
C3052 H3022 0.950 . S
C3052 C3051 1.524 . S
C3052 C3053 1.415 . S
C3053 H3023 0.950 . S
C3053 C3048 1.363 . S
C3053 C3052 1.415 . S
H3054 C3051 0.999 . S
H3055 C3036 0.913 . S
H3056 C3074 0.951 . S
H3057 C3076 0.951 . S
H3058 C3078 0.950 . S
H3059 C3079 0.950 . S
H3060 C3081 0.950 . S
H3061 C3084 0.950 . S
H3062 C3085 0.950 . S
H3063 C3087 0.950 . S
H3064 C3088 0.950 . S
H3065 C3089 0.951 . S
H3066 C3091 0.951 . S
H3067 C3093 0.950 . S
H3068 C3094 0.950 . S
H3069 C3096 0.950 . S
H3070 C3099 0.950 . S
H3071 C3100 0.950 . S
H3072 C3102 0.950 . S
H3073 C3103 0.950 . S
C3074 H3056 0.951 . S
C3074 C3075 1.366 . S
C3074 C3076 1.388 . S
C3075 C3074 1.366 . S
C3075 C3079 1.385 . S
C3076 H3057 0.951 . S
C3076 C3074 1.388 . S
C3076 C3077 1.366 . S
C3077 C3076 1.366 . S
C3077 C3078 1.414 . S
C3077 C3080 1.499 . S
C3078 H3058 0.950 . S
C3078 C3077 1.414 . S
C3078 C3079 1.374 . S
C3079 H3059 0.950 . S
C3079 C3075 1.385 . S
C3079 C3078 1.374 . S
C3080 C3077 1.499 . S
C3080 C3081 1.373 . S
C3080 C3082 1.389 . S
C3081 H3060 0.950 . S
C3081 C3080 1.373 . S
C3081 C3097 1.377 . S
C3082 C3080 1.389 . S
C3082 C3083 1.524 . S
C3082 C3096 1.377 . S
C3083 C3082 1.524 . S
C3083 C3084 1.397 . S
C3083 C3088 1.363 . S
C3084 H3061 0.950 . S
C3084 C3083 1.397 . S
C3084 C3085 1.334 . S
C3085 H3062 0.950 . S
C3085 C3084 1.334 . S
C3085 C3086 1.287 . S
C3086 C3085 1.287 . S
C3086 C3087 1.524 . S
C3086 H3105 0.913 . S
C3087 H3063 0.950 . S
C3087 C3086 1.524 . S
C3087 C3088 1.415 . S
C3088 H3064 0.950 . S
C3088 C3083 1.363 . S
C3088 C3087 1.415 . S
C3089 H3065 0.951 . S
C3089 C3090 1.366 . S
C3089 C3091 1.388 . S
C3090 C3089 1.366 . S
C3090 C3094 1.385 . S
C3091 H3066 0.951 . S
C3091 C3089 1.388 . S
C3091 C3092 1.366 . S
C3092 C3091 1.366 . S
C3092 C3093 1.414 . S
C3092 C3095 1.499 . S
C3093 H3067 0.950 . S
C3093 C3092 1.414 . S
C3093 C3094 1.374 . S
C3094 H3068 0.950 . S
C3094 C3090 1.385 . S
C3094 C3093 1.374 . S
C3095 C3092 1.499 . S
C3095 C3096 1.373 . S
C3095 C3097 1.389 . S
C3096 H3069 0.950 . S
C3096 C3082 1.377 . S
C3096 C3095 1.373 . S
C3097 C3081 1.377 . S
C3097 C3095 1.389 . S
C3097 C3098 1.524 . S
C3098 C3097 1.524 . S
C3098 C3099 1.397 . S
C3098 C3103 1.363 . S
C3099 H3070 0.950 . S
C3099 C3098 1.397 . S
C3099 C3100 1.334 . S
C3100 H3071 0.950 . S
C3100 C3099 1.334 . S
C3100 C3101 1.287 . S
C3101 C3100 1.287 . S
C3101 C3102 1.524 . S
C3101 H3104 0.999 . S
C3102 H3072 0.950 . S
C3102 C3101 1.524 . S
C3102 C3103 1.415 . S
C3103 H3073 0.950 . S
C3103 C3098 1.363 . S
C3103 C3102 1.415 . S
H3104 C3101 0.999 . S
H3105 C3086 0.913 . S
H3106 C3124 0.951 . S
H3107 C3126 0.951 . S
H3108 C3128 0.950 . S
H3109 C3129 0.950 . S
H3110 C3131 0.950 . S
H3111 C3134 0.950 . S
H3112 C3135 0.950 . S
H3113 C3137 0.950 . S
H3114 C3138 0.950 . S
H3115 C3139 0.951 . S
H3116 C3141 0.951 . S
H3117 C3143 0.950 . S
H3118 C3144 0.950 . S
H3119 C3146 0.950 . S
H3120 C3149 0.950 . S
H3121 C3150 0.950 . S
H3122 C3152 0.950 . S
H3123 C3153 0.950 . S
C3124 H3106 0.951 . S
C3124 C3125 1.366 . S
C3124 C3126 1.388 . S
C3125 C3124 1.366 . S
C3125 C3129 1.385 . S
C3126 H3107 0.951 . S
C3126 C3124 1.388 . S
C3126 C3127 1.366 . S
C3127 C3126 1.366 . S
C3127 C3128 1.414 . S
C3127 C3130 1.499 . S
C3128 H3108 0.950 . S
C3128 C3127 1.414 . S
C3128 C3129 1.374 . S
C3129 H3109 0.950 . S
C3129 C3125 1.385 . S
C3129 C3128 1.374 . S
C3130 C3127 1.499 . S
C3130 C3131 1.373 . S
C3130 C3132 1.389 . S
C3131 H3110 0.950 . S
C3131 C3130 1.373 . S
C3131 C3147 1.377 . S
C3132 C3130 1.389 . S
C3132 C3133 1.524 . S
C3132 C3146 1.377 . S
C3133 C3132 1.524 . S
C3133 C3134 1.397 . S
C3133 C3138 1.363 . S
C3134 H3111 0.950 . S
C3134 C3133 1.397 . S
C3134 C3135 1.334 . S
C3135 H3112 0.950 . S
C3135 C3134 1.334 . S
C3135 C3136 1.287 . S
C3136 C3135 1.287 . S
C3136 C3137 1.524 . S
C3136 H3155 0.913 . S
C3137 H3113 0.950 . S
C3137 C3136 1.524 . S
C3137 C3138 1.415 . S
C3138 H3114 0.950 . S
C3138 C3133 1.363 . S
C3138 C3137 1.415 . S
C3139 H3115 0.951 . S
C3139 C3140 1.366 . S
C3139 C3141 1.388 . S
C3140 C3139 1.366 . S
C3140 C3144 1.385 . S
C3141 H3116 0.951 . S
C3141 C3139 1.388 . S
C3141 C3142 1.366 . S
C3142 C3141 1.366 . S
C3142 C3143 1.414 . S
C3142 C3145 1.499 . S
C3143 H3117 0.950 . S
C3143 C3142 1.414 . S
C3143 C3144 1.374 . S
C3144 H3118 0.950 . S
C3144 C3140 1.385 . S
C3144 C3143 1.374 . S
C3145 C3142 1.499 . S
C3145 C3146 1.373 . S
C3145 C3147 1.389 . S
C3146 H3119 0.950 . S
C3146 C3132 1.377 . S
C3146 C3145 1.373 . S
C3147 C3131 1.377 . S
C3147 C3145 1.389 . S
C3147 C3148 1.524 . S
C3148 C3147 1.524 . S
C3148 C3149 1.397 . S
C3148 C3153 1.363 . S
C3149 H3120 0.950 . S
C3149 C3148 1.397 . S
C3149 C3150 1.334 . S
C3150 H3121 0.950 . S
C3150 C3149 1.334 . S
C3150 C3151 1.287 . S
C3151 C3150 1.287 . S
C3151 C3152 1.524 . S
C3151 H3154 0.999 . S
C3152 H3122 0.950 . S
C3152 C3151 1.524 . S
C3152 C3153 1.415 . S
C3153 H3123 0.950 . S
C3153 C3148 1.363 . S
C3153 C3152 1.415 . S
H3154 C3151 0.999 . S
H3155 C3136 0.913 . S
H3156 C3174 0.951 . S
H3157 C3176 0.951 . S
H3158 C3178 0.950 . S
H3159 C3179 0.950 . S
H3160 C3181 0.950 . S
H3161 C3184 0.950 . S
H3162 C3185 0.950 . S
H3163 C3187 0.950 . S
H3164 C3188 0.950 . S
H3165 C3189 0.951 . S
H3166 C3191 0.951 . S
H3167 C3193 0.950 . S
H3168 C3194 0.950 . S
H3169 C3196 0.950 . S
H3170 C3199 0.950 . S
H3171 C3200 0.950 . S
H3172 C3202 0.950 . S
H3173 C3203 0.950 . S
C3174 H3156 0.951 . S
C3174 C3175 1.366 . S
C3174 C3176 1.388 . S
C3175 C3174 1.366 . S
C3175 C3179 1.385 . S
C3176 H3157 0.951 . S
C3176 C3174 1.388 . S
C3176 C3177 1.366 . S
C3177 C3176 1.366 . S
C3177 C3178 1.414 . S
C3177 C3180 1.499 . S
C3178 H3158 0.950 . S
C3178 C3177 1.414 . S
C3178 C3179 1.374 . S
C3179 H3159 0.950 . S
C3179 C3175 1.385 . S
C3179 C3178 1.374 . S
C3180 C3177 1.499 . S
C3180 C3181 1.373 . S
C3180 C3182 1.389 . S
C3181 H3160 0.950 . S
C3181 C3180 1.373 . S
C3181 C3197 1.377 . S
C3182 C3180 1.389 . S
C3182 C3183 1.524 . S
C3182 C3196 1.377 . S
C3183 C3182 1.524 . S
C3183 C3184 1.397 . S
C3183 C3188 1.363 . S
C3184 H3161 0.950 . S
C3184 C3183 1.397 . S
C3184 C3185 1.334 . S
C3185 H3162 0.950 . S
C3185 C3184 1.334 . S
C3185 C3186 1.287 . S
C3186 C3185 1.287 . S
C3186 C3187 1.524 . S
C3186 H3205 0.913 . S
C3187 H3163 0.950 . S
C3187 C3186 1.524 . S
C3187 C3188 1.415 . S
C3188 H3164 0.950 . S
C3188 C3183 1.363 . S
C3188 C3187 1.415 . S
C3189 H3165 0.951 . S
C3189 C3190 1.366 . S
C3189 C3191 1.388 . S
C3190 C3189 1.366 . S
C3190 C3194 1.385 . S
C3191 H3166 0.951 . S
C3191 C3189 1.388 . S
C3191 C3192 1.366 . S
C3192 C3191 1.366 . S
C3192 C3193 1.414 . S
C3192 C3195 1.499 . S
C3193 H3167 0.950 . S
C3193 C3192 1.414 . S
C3193 C3194 1.374 . S
C3194 H3168 0.950 . S
C3194 C3190 1.385 . S
C3194 C3193 1.374 . S
C3195 C3192 1.499 . S
C3195 C3196 1.373 . S
C3195 C3197 1.389 . S
C3196 H3169 0.950 . S
C3196 C3182 1.377 . S
C3196 C3195 1.373 . S
C3197 C3181 1.377 . S
C3197 C3195 1.389 . S
C3197 C3198 1.524 . S
C3198 C3197 1.524 . S
C3198 C3199 1.397 . S
C3198 C3203 1.363 . S
C3199 H3170 0.950 . S
C3199 C3198 1.397 . S
C3199 C3200 1.334 . S
C3200 H3171 0.950 . S
C3200 C3199 1.334 . S
C3200 C3201 1.287 . S
C3201 C3200 1.287 . S
C3201 C3202 1.524 . S
C3201 H3204 0.999 . S
C3202 H3172 0.950 . S
C3202 C3201 1.524 . S
C3202 C3203 1.415 . S
C3203 H3173 0.950 . S
C3203 C3198 1.363 . S
C3203 C3202 1.415 . S
H3204 C3201 0.999 . S
H3205 C3186 0.913 . S
H3206 C3224 0.951 . S
H3207 C3226 0.951 . S
H3208 C3228 0.950 . S
H3209 C3229 0.950 . S
H3210 C3231 0.950 . S
H3211 C3234 0.950 . S
H3212 C3235 0.950 . S
H3213 C3237 0.950 . S
H3214 C3238 0.950 . S
H3215 C3239 0.951 . S
H3216 C3241 0.951 . S
H3217 C3243 0.950 . S
H3218 C3244 0.950 . S
H3219 C3246 0.950 . S
H3220 C3249 0.950 . S
H3221 C3250 0.950 . S
H3222 C3252 0.950 . S
H3223 C3253 0.950 . S
C3224 H3206 0.951 . S
C3224 C3225 1.366 . S
C3224 C3226 1.388 . S
C3225 C3224 1.366 . S
C3225 C3229 1.385 . S
C3226 H3207 0.951 . S
C3226 C3224 1.388 . S
C3226 C3227 1.366 . S
C3227 C3226 1.366 . S
C3227 C3228 1.414 . S
C3227 C3230 1.499 . S
C3228 H3208 0.950 . S
C3228 C3227 1.414 . S
C3228 C3229 1.374 . S
C3229 H3209 0.950 . S
C3229 C3225 1.385 . S
C3229 C3228 1.374 . S
C3230 C3227 1.499 . S
C3230 C3231 1.373 . S
C3230 C3232 1.389 . S
C3231 H3210 0.950 . S
C3231 C3230 1.373 . S
C3231 C3247 1.377 . S
C3232 C3230 1.389 . S
C3232 C3233 1.524 . S
C3232 C3246 1.377 . S
C3233 C3232 1.524 . S
C3233 C3234 1.397 . S
C3233 C3238 1.363 . S
C3234 H3211 0.950 . S
C3234 C3233 1.397 . S
C3234 C3235 1.334 . S
C3235 H3212 0.950 . S
C3235 C3234 1.334 . S
C3235 C3236 1.287 . S
C3236 C3235 1.287 . S
C3236 C3237 1.524 . S
C3236 H3255 0.913 . S
C3237 H3213 0.950 . S
C3237 C3236 1.524 . S
C3237 C3238 1.415 . S
C3238 H3214 0.950 . S
C3238 C3233 1.363 . S
C3238 C3237 1.415 . S
C3239 H3215 0.951 . S
C3239 C3240 1.366 . S
C3239 C3241 1.388 . S
C3240 C3239 1.366 . S
C3240 C3244 1.385 . S
C3241 H3216 0.951 . S
C3241 C3239 1.388 . S
C3241 C3242 1.366 . S
C3242 C3241 1.366 . S
C3242 C3243 1.414 . S
C3242 C3245 1.499 . S
C3243 H3217 0.950 . S
C3243 C3242 1.414 . S
C3243 C3244 1.374 . S
C3244 H3218 0.950 . S
C3244 C3240 1.385 . S
C3244 C3243 1.374 . S
C3245 C3242 1.499 . S
C3245 C3246 1.373 . S
C3245 C3247 1.389 . S
C3246 H3219 0.950 . S
C3246 C3232 1.377 . S
C3246 C3245 1.373 . S
C3247 C3231 1.377 . S
C3247 C3245 1.389 . S
C3247 C3248 1.524 . S
C3248 C3247 1.524 . S
C3248 C3249 1.397 . S
C3248 C3253 1.363 . S
C3249 H3220 0.950 . S
C3249 C3248 1.397 . S
C3249 C3250 1.334 . S
C3250 H3221 0.950 . S
C3250 C3249 1.334 . S
C3250 C3251 1.287 . S
C3251 C3250 1.287 . S
C3251 C3252 1.524 . S
C3251 H3254 0.999 . S
C3252 H3222 0.950 . S
C3252 C3251 1.524 . S
C3252 C3253 1.415 . S
C3253 H3223 0.950 . S
C3253 C3248 1.363 . S
C3253 C3252 1.415 . S
H3254 C3251 0.999 . S
H3255 C3236 0.913 . S
H3256 C3274 0.951 . S
H3257 C3276 0.951 . S
H3258 C3278 0.950 1_554 S
H3259 C3279 0.950 1_554 S
H3260 C3281 0.950 . S
H3261 C3284 0.950 . S
H3262 C3285 0.950 . S
H3263 C3287 0.950 . S
H3264 C3288 0.950 . S
H3265 C3289 0.951 . S
H3266 C3291 0.951 . S
H3267 C3293 0.950 . S
H3268 C3294 0.950 . S
H3269 C3296 0.950 . S
H3270 C3299 0.950 . S
H3271 C3300 0.950 . S
H3272 C3302 0.950 . S
H3273 C3303 0.950 . S
C3274 H3256 0.951 . S
C3274 C3275 1.366 . S
C3274 C3276 1.388 . S
C3275 C3274 1.366 . S
C3275 C3279 1.385 . S
C3276 H3257 0.951 . S
C3276 C3274 1.388 . S
C3276 C3277 1.366 . S
C3277 C3276 1.366 . S
C3277 C3278 1.414 . S
C3277 C3280 1.499 . S
C3278 H3258 0.950 1_556 S
C3278 C3277 1.414 . S
C3278 C3279 1.374 . S
C3279 H3259 0.950 1_556 S
C3279 C3275 1.385 . S
C3279 C3278 1.374 . S
C3280 C3277 1.499 . S
C3280 C3281 1.373 . S
C3280 C3282 1.389 . S
C3281 H3260 0.950 . S
C3281 C3280 1.373 . S
C3281 C3297 1.377 . S
C3282 C3280 1.389 . S
C3282 C3283 1.524 . S
C3282 C3296 1.377 . S
C3283 C3282 1.524 . S
C3283 C3284 1.397 . S
C3283 C3288 1.363 . S
C3284 H3261 0.950 . S
C3284 C3283 1.397 . S
C3284 C3285 1.334 . S
C3285 H3262 0.950 . S
C3285 C3284 1.334 . S
C3285 C3286 1.287 . S
C3286 C3285 1.287 . S
C3286 C3287 1.524 . S
C3286 H3305 0.913 . S
C3287 H3263 0.950 . S
C3287 C3286 1.524 . S
C3287 C3288 1.415 . S
C3288 H3264 0.950 . S
C3288 C3283 1.363 . S
C3288 C3287 1.415 . S
C3289 H3265 0.951 . S
C3289 C3290 1.366 1_554 S
C3289 C3291 1.388 . S
C3290 C3289 1.366 1_556 S
C3290 C3294 1.385 . S
C3291 H3266 0.951 . S
C3291 C3289 1.388 . S
C3291 C3292 1.366 1_554 S
C3292 C3291 1.366 1_556 S
C3292 C3293 1.414 . S
C3292 C3295 1.499 . S
C3293 H3267 0.950 . S
C3293 C3292 1.414 . S
C3293 C3294 1.374 . S
C3294 H3268 0.950 . S
C3294 C3290 1.385 . S
C3294 C3293 1.374 . S
C3295 C3292 1.499 . S
C3295 C3296 1.373 . S
C3295 C3297 1.389 . S
C3296 H3269 0.950 . S
C3296 C3282 1.377 . S
C3296 C3295 1.373 . S
C3297 C3281 1.377 . S
C3297 C3295 1.389 . S
C3297 C3298 1.513 1_556 S
C3298 C3297 1.513 1_554 S
C3298 C3299 1.377 1_554 S
C3298 C3303 1.392 . S
C3299 H3270 0.950 . S
C3299 C3298 1.377 1_556 S
C3299 C3300 1.334 . S
C3300 H3271 0.950 . S
C3300 C3299 1.334 . S
C3300 C3301 1.287 1_556 S
C3301 C3300 1.287 1_554 S
C3301 C3302 1.524 . S
C3301 H3304 0.999 . S
C3302 H3272 0.950 . S
C3302 C3301 1.524 . S
C3302 C3303 1.415 . S
C3303 H3273 0.950 . S
C3303 C3298 1.392 . S
C3303 C3302 1.415 . S
H3304 C3301 0.999 . S
H3305 C3286 0.913 . S
H3306 C3324 0.951 . S
H3307 C3326 0.951 . S
H3308 C3328 0.950 . S
H3309 C3329 0.950 . S
H3310 C3331 0.950 . S
H3311 C3334 0.950 . S
H3312 C3335 0.950 . S
H3313 C3337 0.950 . S
H3314 C3338 0.950 . S
H3315 C3339 0.951 . S
H3316 C3341 0.951 . S
H3317 C3343 0.950 . S
H3318 C3344 0.950 . S
H3319 C3346 0.950 . S
H3320 C3349 0.950 . S
H3321 C3350 0.950 . S
H3322 C3352 0.950 . S
H3323 C3353 0.950 . S
C3324 H3306 0.951 . S
C3324 C3325 1.366 . S
C3324 C3326 1.388 . S
C3325 C3324 1.366 . S
C3325 C3329 1.385 . S
C3326 H3307 0.951 . S
C3326 C3324 1.388 . S
C3326 C3327 1.366 . S
C3327 C3326 1.366 . S
C3327 C3328 1.414 . S
C3327 C3330 1.499 . S
C3328 H3308 0.950 . S
C3328 C3327 1.414 . S
C3328 C3329 1.374 . S
C3329 H3309 0.950 . S
C3329 C3325 1.385 . S
C3329 C3328 1.374 . S
C3330 C3327 1.499 . S
C3330 C3331 1.373 . S
C3330 C3332 1.389 . S
C3331 H3310 0.950 . S
C3331 C3330 1.373 . S
C3331 C3347 1.377 . S
C3332 C3330 1.389 . S
C3332 C3333 1.524 . S
C3332 C3346 1.377 . S
C3333 C3332 1.524 . S
C3333 C3334 1.397 . S
C3333 C3338 1.363 . S
C3334 H3311 0.950 . S
C3334 C3333 1.397 . S
C3334 C3335 1.334 . S
C3335 H3312 0.950 . S
C3335 C3334 1.334 . S
C3335 C3336 1.287 . S
C3336 C3335 1.287 . S
C3336 C3337 1.524 . S
C3336 H3355 0.913 . S
C3337 H3313 0.950 . S
C3337 C3336 1.524 . S
C3337 C3338 1.415 . S
C3338 H3314 0.950 . S
C3338 C3333 1.363 . S
C3338 C3337 1.415 . S
C3339 H3315 0.951 . S
C3339 C3340 1.366 . S
C3339 C3341 1.388 . S
C3340 C3339 1.366 . S
C3340 C3344 1.385 . S
C3341 H3316 0.951 . S
C3341 C3339 1.388 . S
C3341 C3342 1.366 . S
C3342 C3341 1.366 . S
C3342 C3343 1.414 . S
C3342 C3345 1.499 . S
C3343 H3317 0.950 . S
C3343 C3342 1.414 . S
C3343 C3344 1.374 . S
C3344 H3318 0.950 . S
C3344 C3340 1.385 . S
C3344 C3343 1.374 . S
C3345 C3342 1.499 . S
C3345 C3346 1.373 . S
C3345 C3347 1.389 . S
C3346 H3319 0.950 . S
C3346 C3332 1.377 . S
C3346 C3345 1.373 . S
C3347 C3331 1.377 . S
C3347 C3345 1.389 . S
C3347 C3348 1.524 . S
C3348 C3347 1.524 . S
C3348 C3349 1.397 . S
C3348 C3353 1.363 . S
C3349 H3320 0.950 . S
C3349 C3348 1.397 . S
C3349 C3350 1.334 . S
C3350 H3321 0.950 . S
C3350 C3349 1.334 . S
C3350 C3351 1.287 . S
C3351 C3350 1.287 . S
C3351 C3352 1.524 . S
C3351 H3354 0.999 . S
C3352 H3322 0.950 . S
C3352 C3351 1.524 . S
C3352 C3353 1.415 . S
C3353 H3323 0.950 . S
C3353 C3348 1.363 . S
C3353 C3352 1.415 . S
H3354 C3351 0.999 . S
H3355 C3336 0.913 . S
H3356 C3374 0.951 . S
H3357 C3376 0.951 . S
H3358 C3378 0.950 . S
H3359 C3379 0.950 . S
H3360 C3381 0.950 1_556 S
H3361 C3384 0.950 . S
H3362 C3385 0.950 . S
H3363 C3387 0.950 . S
H3364 C3388 0.950 . S
H3365 C3389 0.951 . S
H3366 C3391 0.951 . S
H3367 C3393 0.950 . S
H3368 C3394 0.950 . S
H3369 C3396 0.950 . S
H3370 C3399 0.950 . S
H3371 C3400 0.950 . S
H3372 C3402 0.950 . S
H3373 C3403 0.950 . S
C3374 H3356 0.951 . S
C3374 C3375 1.366 . S
C3374 C3376 1.388 . S
C3375 C3374 1.366 . S
C3375 C3379 1.385 . S
C3376 H3357 0.951 . S
C3376 C3374 1.388 . S
C3376 C3377 1.366 . S
C3377 C3376 1.366 . S
C3377 C3378 1.414 . S
C3377 C3380 1.499 . S
C3378 H3358 0.950 . S
C3378 C3377 1.414 . S
C3378 C3379 1.374 . S
C3379 H3359 0.950 . S
C3379 C3375 1.385 . S
C3379 C3378 1.374 . S
C3380 C3377 1.499 . S
C3380 C3381 1.373 . S
C3380 C3382 1.389 . S
C3381 H3360 0.950 1_554 S
C3381 C3380 1.373 . S
C3381 C3397 1.374 1_554 S
C3382 C3380 1.389 . S
C3382 C3383 1.524 . S
C3382 C3396 1.377 . S
C3383 C3382 1.524 . S
C3383 C3384 1.397 . S
C3383 C3388 1.363 . S
C3384 H3361 0.950 . S
C3384 C3383 1.397 . S
C3384 C3385 1.334 . S
C3385 H3362 0.950 . S
C3385 C3384 1.334 . S
C3385 C3386 1.287 . S
C3386 C3385 1.287 . S
C3386 C3387 1.524 . S
C3386 H3405 0.913 . S
C3387 H3363 0.950 . S
C3387 C3386 1.524 . S
C3387 C3388 1.415 . S
C3388 H3364 0.950 . S
C3388 C3383 1.363 . S
C3388 C3387 1.415 . S
C3389 H3365 0.951 . S
C3389 C3390 1.366 . S
C3389 C3391 1.388 . S
C3390 C3389 1.366 . S
C3390 C3394 1.385 . S
C3391 H3366 0.951 . S
C3391 C3389 1.388 . S
C3391 C3392 1.366 . S
C3392 C3391 1.366 . S
C3392 C3393 1.414 . S
C3392 C3395 1.499 . S
C3393 H3367 0.950 . S
C3393 C3392 1.414 . S
C3393 C3394 1.374 . S
C3394 H3368 0.950 . S
C3394 C3390 1.385 . S
C3394 C3393 1.374 . S
C3395 C3392 1.499 . S
C3395 C3396 1.373 . S
C3395 C3397 1.382 1_554 S
C3396 H3369 0.950 . S
C3396 C3382 1.377 . S
C3396 C3395 1.373 . S
C3397 C3381 1.374 1_556 S
C3397 C3395 1.382 1_556 S
C3397 C3398 1.534 . S
C3398 C3397 1.534 . S
C3398 C3399 1.397 . S
C3398 C3403 1.363 . S
C3399 H3370 0.950 . S
C3399 C3398 1.397 . S
C3399 C3400 1.334 . S
C3400 H3371 0.950 . S
C3400 C3399 1.334 . S
C3400 C3401 1.287 . S
C3401 C3400 1.287 . S
C3401 C3402 1.524 . S
C3401 H3404 0.999 . S
C3402 H3372 0.950 . S
C3402 C3401 1.524 . S
C3402 C3403 1.415 . S
C3403 H3373 0.950 . S
C3403 C3398 1.363 . S
C3403 C3402 1.415 . S
H3404 C3401 0.999 . S
H3405 C3386 0.913 . S
H3406 C3424 0.951 . S
H3407 C3426 0.951 . S
H3408 C3428 0.950 . S
H3409 C3429 0.950 . S
H3410 C3431 0.950 1_556 S
H3411 C3434 0.950 . S
H3412 C3435 0.950 . S
H3413 C3437 0.950 . S
H3414 C3438 0.950 . S
H3415 C3439 0.951 . S
H3416 C3441 0.951 . S
H3417 C3443 0.950 . S
H3418 C3444 0.950 . S
H3419 C3446 0.950 . S
H3420 C3449 0.950 . S
H3421 C3450 0.950 . S
H3422 C3452 0.950 . S
H3423 C3453 0.950 . S
C3424 H3406 0.951 . S
C3424 C3425 1.366 . S
C3424 C3426 1.388 . S
C3425 C3424 1.366 . S
C3425 C3429 1.385 . S
C3426 H3407 0.951 . S
C3426 C3424 1.388 . S
C3426 C3427 1.366 . S
C3427 C3426 1.366 . S
C3427 C3428 1.414 . S
C3427 C3430 1.499 . S
C3428 H3408 0.950 . S
C3428 C3427 1.414 . S
C3428 C3429 1.374 . S
C3429 H3409 0.950 . S
C3429 C3425 1.385 . S
C3429 C3428 1.374 . S
C3430 C3427 1.499 . S
C3430 C3431 1.373 . S
C3430 C3432 1.389 . S
C3431 H3410 0.950 1_554 S
C3431 C3430 1.373 . S
C3431 C3447 1.377 . S
C3432 C3430 1.389 . S
C3432 C3433 1.524 . S
C3432 C3446 1.377 . S
C3433 C3432 1.524 . S
C3433 C3434 1.397 . S
C3433 C3438 1.363 . S
C3434 H3411 0.950 . S
C3434 C3433 1.397 . S
C3434 C3435 1.334 . S
C3435 H3412 0.950 . S
C3435 C3434 1.334 . S
C3435 C3436 1.287 . S
C3436 C3435 1.287 . S
C3436 C3437 1.524 . S
C3436 H3455 0.913 . S
C3437 H3413 0.950 . S
C3437 C3436 1.524 . S
C3437 C3438 1.415 . S
C3438 H3414 0.950 . S
C3438 C3433 1.363 . S
C3438 C3437 1.415 . S
C3439 H3415 0.951 . S
C3439 C3440 1.366 . S
C3439 C3441 1.388 . S
C3440 C3439 1.366 . S
C3440 C3444 1.385 . S
C3441 H3416 0.951 . S
C3441 C3439 1.388 . S
C3441 C3442 1.366 . S
C3442 C3441 1.366 . S
C3442 C3443 1.414 . S
C3442 C3445 1.499 . S
C3443 H3417 0.950 . S
C3443 C3442 1.414 . S
C3443 C3444 1.374 . S
C3444 H3418 0.950 . S
C3444 C3440 1.385 . S
C3444 C3443 1.374 . S
C3445 C3442 1.499 . S
C3445 C3446 1.373 . S
C3445 C3447 1.389 . S
C3446 H3419 0.950 . S
C3446 C3432 1.377 . S
C3446 C3445 1.373 . S
C3447 C3431 1.377 . S
C3447 C3445 1.389 . S
C3447 C3448 1.524 1_554 S
C3448 C3447 1.524 1_556 S
C3448 C3449 1.397 . S
C3448 C3453 1.363 . S
C3449 H3420 0.950 . S
C3449 C3448 1.397 . S
C3449 C3450 1.334 . S
C3450 H3421 0.950 . S
C3450 C3449 1.334 . S
C3450 C3451 1.287 . S
C3451 C3450 1.287 . S
C3451 C3452 1.524 . S
C3451 H3454 0.999 . S
C3452 H3422 0.950 . S
C3452 C3451 1.524 . S
C3452 C3453 1.415 . S
C3453 H3423 0.950 . S
C3453 C3448 1.363 . S
C3453 C3452 1.415 . S
H3454 C3451 0.999 . S
H3455 C3436 0.913 . S
C1090 C626 1.412 . S
C1075 C211 1.418 . S
C1140 C674 1.654 . S
C1125 C255 1.707 . S
C1175 C274 1.401 . S
C1190 C710 1.345 . S
C1240 C746 1.612 . S
C1225 C157 1.664 . S
C1290 C772 1.455 . S
C1275 C391 1.456 . S
C1340 C808 1.610 . S
C1325 C484 1.613 . S
C1375 C450 1.467 . S
C1390 C843 1.477 . S
C1440 C880 1.632 1_565 S
C1425 C352 1.639 . S
C1475 C430 1.410 . S
C1490 C914 1.405 . S
C1540 C962 1.591 . S
C1525 C367 1.641 . S
C1575 C411 1.443 . S
C1590 C915 1.450 . S
C1640 C952 1.641 . S
C1625 C469 1.644 . S
C1675 C294 1.439 . S
C1690 C998 1.380 . S
C1725 C177 1.661 . S
C1740 C987 1.656 . S
C1775 C196 1.475 . S
C1790 C988 1.473 . S
C1825 C235 1.680 . S
C1840 C986 1.674 . S
C1875 C133 1.431 . S
C1890 C734 1.425 . S
C1925 C567 1.409 . S
C1940 C735 1.415 . S
C1990 C638 1.629 . S
C1975 C601 1.682 . S
C2040 C663 1.448 . S
C2025 C328 1.443 . S
C2075 C172 1.658 . S
C2090 C770 1.652 . S
C2140 C878 1.455 . S
C2125 C445 1.458 . S
C2190 C771 1.636 . S
C2175 C372 1.640 . S
C2240 C844 1.635 . S
C2225 C489 1.639 . S
C2290 C842 1.412 . S
C2275 C562 1.418 . S
C2325 C606 1.707 . S
C2340 C890 1.655 . S
C2375 C313 1.401 . S
C2390 C782 1.345 . S
C2440 C818 1.612 . S
C2425 C508 1.664 . S
C2475 C118 1.457 . S
C2490 C700 1.456 . S
C2540 C736 1.610 . S
C2525 C16 1.613 . S
C2590 C627 1.478 . S
C2575 C60 1.467 . S
C2640 C664 1.636 . S
C2625 C79 1.639 . S
C2675 C40 1.410 . S
C2690 C950 1.405 . S
C2725 C94 1.641 . S
C2740 C926 1.590 . S
C2775 C138 1.443 . S
C2790 C951 1.450 . S
C2825 C1 1.644 . S
C2840 C916 1.641 . S
C2890 C1034 1.380 . S
C2875 C333 1.439 . S
C2940 C1023 1.656 . S
C2925 C528 1.661 . S
C2990 C1024 1.473 . S
C2975 C547 1.475 . S
C3025 C586 1.680 . S
C3040 C1022 1.674 . S
C3075 C406 1.431 . S
C3090 C806 1.425 . S
C3140 C807 1.415 . S
C3125 C216 1.409 . S
C3190 C854 1.629 . S
C3175 C250 1.682 . S
C3240 C879 1.448 . S
C3225 C289 1.449 . S
C3275 C523 1.658 . S
C3290 C698 1.652 . S
C3340 C662 1.454 . S
C3325 C55 1.464 . S
C3375 C99 1.639 . S
C3390 C699 1.636 . S
C3440 C628 1.635 . S
C3425 C21 1.640 . S
