# Generated by pormake.
# Topology ssc, (4,4)-cn, num edge types: 1
# Building blocks:
#     Node 0, Type 0, BuildingBlock: GALJAG_clean_sbu_0, # of connection points: 4
#     Node 1, Type 0, BuildingBlock: GALJAG_clean_sbu_0, # of connection points: 4
#     Node 2, Type 0, BuildingBlock: GALJAG_clean_sbu_0, # of connection points: 4
#     Node 3, Type 0, BuildingBlock: GALJAG_clean_sbu_0, # of connection points: 4
#     Node 4, Type 0, BuildingBlock: GALJAG_clean_sbu_0, # of connection points: 4
#     Node 5, Type 0, BuildingBlock: GALJAG_clean_sbu_0, # of connection points: 4
#     Node 6, Type 0, BuildingBlock: GALJAG_clean_sbu_0, # of connection points: 4
#     Node 7, Type 0, BuildingBlock: GALJAG_clean_sbu_0, # of connection points: 4
#     Node 8, Type 0, BuildingBlock: GALJAG_clean_sbu_0, # of connection points: 4
#     Node 9, Type 0, BuildingBlock: GALJAG_clean_sbu_0, # of connection points: 4
#     Node 10, Type 0, BuildingBlock: GALJAG_clean_sbu_0, # of connection points: 4
#     Node 11, Type 0, BuildingBlock: GALJAG_clean_sbu_0, # of connection points: 4
#     Node 12, Type 1, BuildingBlock: GIZVER_clean_linker_0, # of connection points: 4
#     Node 13, Type 1, BuildingBlock: GIZVER_clean_linker_0, # of connection points: 4
#     Node 14, Type 1, BuildingBlock: GIZVER_clean_linker_0, # of connection points: 4
#     Node 15, Type 1, BuildingBlock: GIZVER_clean_linker_0, # of connection points: 4
#     Node 16, Type 1, BuildingBlock: GIZVER_clean_linker_0, # of connection points: 4
#     Node 17, Type 1, BuildingBlock: GIZVER_clean_linker_0, # of connection points: 4
#     Node 18, Type 1, BuildingBlock: GIZVER_clean_linker_0, # of connection points: 4
#     Node 19, Type 1, BuildingBlock: GIZVER_clean_linker_0, # of connection points: 4
#     Node 20, Type 1, BuildingBlock: GIZVER_clean_linker_0, # of connection points: 4
#     Node 21, Type 1, BuildingBlock: GIZVER_clean_linker_0, # of connection points: 4
#     Node 22, Type 1, BuildingBlock: GIZVER_clean_linker_0, # of connection points: 4
#     Node 23, Type 1, BuildingBlock: GIZVER_clean_linker_0, # of connection points: 4
#     Edge 24, Type (0, 1), BuildingBlock: CIFDUS_clean_linker_0, # of connection points: 2
#     Edge 25, Type (0, 1), BuildingBlock: CIFDUS_clean_linker_0, # of connection points: 2
#     Edge 26, Type (0, 1), BuildingBlock: CIFDUS_clean_linker_0, # of connection points: 2
#     Edge 27, Type (0, 1), BuildingBlock: CIFDUS_clean_linker_0, # of connection points: 2
#     Edge 28, Type (0, 1), BuildingBlock: CIFDUS_clean_linker_0, # of connection points: 2
#     Edge 29, Type (0, 1), BuildingBlock: CIFDUS_clean_linker_0, # of connection points: 2
#     Edge 30, Type (0, 1), BuildingBlock: CIFDUS_clean_linker_0, # of connection points: 2
#     Edge 31, Type (0, 1), BuildingBlock: CIFDUS_clean_linker_0, # of connection points: 2
#     Edge 32, Type (0, 1), BuildingBlock: CIFDUS_clean_linker_0, # of connection points: 2
#     Edge 33, Type (0, 1), BuildingBlock: CIFDUS_clean_linker_0, # of connection points: 2
#     Edge 34, Type (0, 1), BuildingBlock: CIFDUS_clean_linker_0, # of connection points: 2
#     Edge 35, Type (0, 1), BuildingBlock: CIFDUS_clean_linker_0, # of connection points: 2
#     Edge 36, Type (0, 1), BuildingBlock: CIFDUS_clean_linker_0, # of connection points: 2
#     Edge 37, Type (0, 1), BuildingBlock: CIFDUS_clean_linker_0, # of connection points: 2
#     Edge 38, Type (0, 1), BuildingBlock: CIFDUS_clean_linker_0, # of connection points: 2
#     Edge 39, Type (0, 1), BuildingBlock: CIFDUS_clean_linker_0, # of connection points: 2
#     Edge 40, Type (0, 1), BuildingBlock: CIFDUS_clean_linker_0, # of connection points: 2
#     Edge 41, Type (0, 1), BuildingBlock: CIFDUS_clean_linker_0, # of connection points: 2
#     Edge 42, Type (0, 1), BuildingBlock: CIFDUS_clean_linker_0, # of connection points: 2
#     Edge 43, Type (0, 1), BuildingBlock: CIFDUS_clean_linker_0, # of connection points: 2
#     Edge 44, Type (0, 1), BuildingBlock: CIFDUS_clean_linker_0, # of connection points: 2
#     Edge 45, Type (0, 1), BuildingBlock: CIFDUS_clean_linker_0, # of connection points: 2
#     Edge 46, Type (0, 1), BuildingBlock: CIFDUS_clean_linker_0, # of connection points: 2
#     Edge 47, Type (0, 1), BuildingBlock: CIFDUS_clean_linker_0, # of connection points: 2
#     Edge 48, Type (0, 1), BuildingBlock: CIFDUS_clean_linker_0, # of connection points: 2
#     Edge 49, Type (0, 1), BuildingBlock: CIFDUS_clean_linker_0, # of connection points: 2
#     Edge 50, Type (0, 1), BuildingBlock: CIFDUS_clean_linker_0, # of connection points: 2
#     Edge 51, Type (0, 1), BuildingBlock: CIFDUS_clean_linker_0, # of connection points: 2
#     Edge 52, Type (0, 1), BuildingBlock: CIFDUS_clean_linker_0, # of connection points: 2
#     Edge 53, Type (0, 1), BuildingBlock: CIFDUS_clean_linker_0, # of connection points: 2
#     Edge 54, Type (0, 1), BuildingBlock: CIFDUS_clean_linker_0, # of connection points: 2
#     Edge 55, Type (0, 1), BuildingBlock: CIFDUS_clean_linker_0, # of connection points: 2
#     Edge 56, Type (0, 1), BuildingBlock: CIFDUS_clean_linker_0, # of connection points: 2
#     Edge 57, Type (0, 1), BuildingBlock: CIFDUS_clean_linker_0, # of connection points: 2
#     Edge 58, Type (0, 1), BuildingBlock: CIFDUS_clean_linker_0, # of connection points: 2
#     Edge 59, Type (0, 1), BuildingBlock: CIFDUS_clean_linker_0, # of connection points: 2
#     Edge 60, Type (0, 1), BuildingBlock: CIFDUS_clean_linker_0, # of connection points: 2
#     Edge 61, Type (0, 1), BuildingBlock: CIFDUS_clean_linker_0, # of connection points: 2
#     Edge 62, Type (0, 1), BuildingBlock: CIFDUS_clean_linker_0, # of connection points: 2
#     Edge 63, Type (0, 1), BuildingBlock: CIFDUS_clean_linker_0, # of connection points: 2
#     Edge 64, Type (0, 1), BuildingBlock: CIFDUS_clean_linker_0, # of connection points: 2
#     Edge 65, Type (0, 1), BuildingBlock: CIFDUS_clean_linker_0, # of connection points: 2
#     Edge 66, Type (0, 1), BuildingBlock: CIFDUS_clean_linker_0, # of connection points: 2
#     Edge 67, Type (0, 1), BuildingBlock: CIFDUS_clean_linker_0, # of connection points: 2
#     Edge 68, Type (0, 1), BuildingBlock: CIFDUS_clean_linker_0, # of connection points: 2
#     Edge 69, Type (0, 1), BuildingBlock: CIFDUS_clean_linker_0, # of connection points: 2
#     Edge 70, Type (0, 1), BuildingBlock: CIFDUS_clean_linker_0, # of connection points: 2
#     Edge 71, Type (0, 1), BuildingBlock: CIFDUS_clean_linker_0, # of connection points: 2
# Relax obj value: 0.069
# Max RMSD: 0.291
# Mean RMSD: 0.243
data_MOF--net-ssc--node1-GALJAG_clean_sbu_0--node2-GIZVER_clean_linker_0--edge1-CIFDUS_clean_linker_0
_symmetry_space_group_name_H-M    P1
_symmetry_Int_Tables_number       1
_symmetry_cell_setting            triclinic
loop_
_symmetry_equiv_pos_as_xyz
'x, y, z'
_cell_length_a     27.79983
_cell_length_b     27.821555
_cell_length_c     27.79334
_cell_angle_alpha  90.173337
_cell_angle_beta   90.219907
_cell_angle_gamma 90.890789
loop_
_atom_site_label
_atom_site_type_symbol
_atom_site_fract_x
_atom_site_fract_y
_atom_site_fract_z
_atom_type_partial_charge
In0 In 0.9849 0.21892 0.13299 0.0
O1 O 0.00882 0.19456 0.2085 0.0
O2 O 0.06306 0.2122 0.15858 0.0
C3 C 0.98068 0.14596 0.06779 0.0
C4 C 0.90263 0.23441 0.18168 0.0
C5 C 0.99811 0.3012 0.08264 0.0
O6 O 0.01231 0.17885 0.06595 0.0
O7 O 0.95371 0.14833 0.10402 0.0
O8 O 0.02019 0.29189 0.12103 0.0
O9 O 0.96708 0.26989 0.0705 0.0
C10 C 0.05307 0.20135 0.20141 0.0
O11 O 0.90705 0.20077 0.15159 0.0
O12 O 0.93893 0.26201 0.18518 0.0
In13 In 0.06637 0.7381 0.35661 0.0
O14 O 0.0349 0.68151 0.40718 0.0
O15 O 0.10714 0.67334 0.3842 0.0
C16 C 0.98955 0.71793 0.29896 0.0
C17 C 0.06471 0.81234 0.42054 0.0
C18 C 0.14006 0.75796 0.29624 0.0
O19 O 0.03109 0.70235 0.29088 0.0
O20 O 0.98634 0.74233 0.33709 0.0
O21 O 0.10142 0.7811 0.2952 0.0
O22 O 0.14167 0.72639 0.32849 0.0
C23 C 0.07299 0.65744 0.40962 0.0
O24 O 0.08442 0.77297 0.42958 0.0
O25 O 0.04731 0.81493 0.37874 0.0
In26 In 0.53893 0.76697 0.61041 0.0
O27 O 0.5649 0.7377 0.53784 0.0
O28 O 0.55252 0.68777 0.59347 0.0
C29 C 0.61128 0.77864 0.67542 0.0
C30 C 0.52089 0.84587 0.55697 0.0
C31 C 0.45546 0.74948 0.65736 0.0
O32 O 0.57663 0.74962 0.68172 0.0
O33 O 0.61081 0.79959 0.63524 0.0
O34 O 0.48466 0.78208 0.67069 0.0
O35 O 0.46727 0.72821 0.61929 0.0
C36 C 0.5619 0.69411 0.54961 0.0
O37 O 0.498 0.80676 0.55159 0.0
O38 O 0.55062 0.84597 0.59137 0.0
In39 In 0.47637 0.26034 0.90568 0.0
O40 O 0.54033 0.21303 0.89277 0.0
O41 O 0.53807 0.28012 0.85607 0.0
C42 C 0.5065 0.33089 0.96427 0.0
C43 C 0.41574 0.27056 0.83169 0.0
C44 C 0.42857 0.20011 0.96542 0.0
O45 O 0.52071 0.28823 0.96853 0.0
O46 O 0.47858 0.33803 0.92907 0.0
O47 O 0.42469 0.24508 0.96768 0.0
O48 O 0.45528 0.18566 0.93194 0.0
C49 C 0.56004 0.24141 0.86313 0.0
O50 O 0.44404 0.23585 0.83484 0.0
O51 O 0.41713 0.29968 0.86656 0.0
In52 In 0.12178 0.0308 0.23495 0.0
O53 O 0.15894 0.9706 0.27444 0.0
O54 O 0.16058 0.96959 0.19794 0.0
C55 C 0.06555 0.01213 0.31123 0.0
C56 C 0.18886 0.10212 0.24258 0.0
C57 C 0.05434 0.04477 0.1663 0.0
O58 O 0.05801 0.99304 0.27059 0.0
O59 O 0.10192 0.0398 0.31339 0.0
O60 O 0.0875 0.01469 0.16194 0.0
O61 O 0.05813 0.07113 0.20313 0.0
C62 C 0.17278 0.9497 0.23682 0.0
O63 O 0.14826 0.10381 0.26239 0.0
O64 O 0.19406 0.06644 0.2152 0.0
In65 In 0.23672 0.87418 0.59397 0.0
O66 O 0.21661 0.82464 0.53142 0.0
O67 O 0.2712 0.80322 0.5811 0.0
C68 C 0.16228 0.93264 0.58463 0.0
C69 C 0.20785 0.82063 0.66913 0.0
C70 C 0.31209 0.93648 0.58028 0.0
O71 O 0.17895 0.91101 0.54826 0.0
O72 O 0.18389 0.92531 0.62382 0.0
O73 O 0.29018 0.93324 0.61991 0.0
O74 O 0.29757 0.90697 0.54876 0.0
C75 C 0.24483 0.7922 0.5456 0.0
O76 O 0.25196 0.83132 0.66302 0.0
O77 O 0.17944 0.84017 0.64003 0.0
In78 In 0.39001 0.02316 0.73456 0.0
O79 O 0.31883 0.99482 0.70485 0.0
O80 O 0.3555 0.9506 0.75425 0.0
C81 C 0.45745 0.99872 0.66904 0.0
C82 C 0.3408 0.10504 0.7239 0.0
C83 C 0.44027 0.0364 0.81705 0.0
O84 O 0.45013 0.97483 0.70685 0.0
O85 O 0.42904 0.03306 0.66326 0.0
O86 O 0.45176 0.05709 0.77834 0.0
O87 O 0.40215 0.01143 0.81452 0.0
C88 C 0.31815 0.95697 0.72943 0.0
O89 O 0.33707 0.07948 0.7612 0.0
O90 O 0.37147 0.09076 0.69394 0.0
In91 In 0.25562 0.11285 0.0591 0.0
O92 O 0.212 0.17568 0.08918 0.0
O93 O 0.27594 0.15626 0.12559 0.0
C94 C 0.17295 0.05962 0.04851 0.0
C95 C 0.28871 0.16297 0.98178 0.0
C96 C 0.32368 0.04892 0.08256 0.0
O97 O 0.20529 0.04891 0.07832 0.0
O98 O 0.18114 0.0983 0.02636 0.0
O99 O 0.31023 0.05518 0.0396 0.0
O100 O 0.30353 0.07537 0.11311 0.0
C101 C 0.24156 0.18509 0.12263 0.0
O102 O 0.29795 0.17488 0.02457 0.0
O103 O 0.26528 0.12398 0.97782 0.0
In104 In 0.71546 0.37992 0.00598 0.0
O105 O 0.7423 0.31896 0.05391 0.0
O106 O 0.67866 0.35489 0.0742 0.0
C107 C 0.79289 0.43635 0.02607 0.0
C108 C 0.70993 0.31665 0.93199 0.0
C109 C 0.64822 0.44611 0.98667 0.0
O110 O 0.75255 0.4422 0.04552 0.0
O111 O 0.79494 0.40004 0.99888 0.0
O112 O 0.64326 0.41413 0.01837 0.0
O113 O 0.68614 0.44296 0.96218 0.0
C114 C 0.70741 0.32133 0.08271 0.0
O115 O 0.68166 0.31553 0.96726 0.0
O116 O 0.73957 0.35142 0.93253 0.0
In117 In 0.87778 0.52004 0.18555 0.0
O118 O 0.81313 0.4742 0.15823 0.0
O119 O 0.85967 0.44301 0.20913 0.0
C120 C 0.92803 0.5495 0.10827 0.0
C121 C 0.81609 0.58967 0.20637 0.0
C122 C 0.95414 0.52232 0.24526 0.0
O123 O 0.92053 0.50528 0.11653 0.0
O124 O 0.90739 0.57771 0.13676 0.0
O125 O 0.91377 0.53777 0.25836 0.0
O126 O 0.95481 0.50414 0.20379 0.0
C127 C 0.82157 0.43867 0.18479 0.0
O128 O 0.83173 0.56193 0.23861 0.0
O129 O 0.83155 0.58187 0.16449 0.0
In130 In 0.73091 0.62864 0.5189 0.0
O131 O 0.69396 0.69351 0.5521 0.0
O132 O 0.75037 0.66196 0.59179 0.0
C133 C 0.66713 0.55443 0.52609 0.0
C134 C 0.73668 0.68381 0.44012 0.0
C135 C 0.81381 0.58322 0.50272 0.0
O136 O 0.70565 0.55653 0.55007 0.0
O137 O 0.65873 0.59178 0.50212 0.0
O138 O 0.78092 0.5857 0.47158 0.0
O139 O 0.80489 0.60382 0.54217 0.0
C140 C 0.72137 0.69619 0.5883 0.0
O141 O 0.70515 0.65104 0.44505 0.0
O142 O 0.76526 0.68899 0.47519 0.0
In143 In 0.63774 0.47849 0.70077 0.0
O144 O 0.69895 0.42896 0.72354 0.0
O145 O 0.67479 0.42532 0.65104 0.0
C146 C 0.58697 0.44476 0.77738 0.0
C147 C 0.68888 0.5627 0.71021 0.0
C148 C 0.56657 0.49438 0.63563 0.0
O149 O 0.62377 0.47148 0.78165 0.0
O150 O 0.57761 0.4326 0.73465 0.0
O151 O 0.57344 0.5209 0.67194 0.0
O152 O 0.59724 0.4618 0.6308 0.0
C153 C 0.70379 0.41029 0.6824 0.0
O154 O 0.70174 0.52948 0.68234 0.0
O155 O 0.64962 0.55423 0.7312 0.0
H156 H 0.10924 0.30259 0.63949 0.0
H157 H 0.02878 0.21809 0.53602 0.0
H158 H 0.09655 0.15043 0.65656 0.0
H159 H 0.06064 0.34363 0.58207 0.0
H160 H 0.08298 0.31236 0.53085 0.0
H161 H 0.96579 0.27993 0.59335 0.0
H162 H 0.88057 0.34601 0.48378 0.0
H163 H 0.03347 0.36238 0.48126 0.0
C164 C 0.09252 0.26868 0.62893 0.0
C165 C 0.10416 0.22686 0.6539 0.0
C166 C 0.06292 0.26614 0.58778 0.0
C167 C 0.0474 0.22089 0.57027 0.0
C168 C 0.05822 0.17899 0.59569 0.0
C169 C 0.08462 0.18282 0.63871 0.0
C170 C 0.05479 0.31118 0.55917 0.0
C171 C 0.00577 0.31452 0.53579 0.0
C172 C 0.96343 0.29807 0.55901 0.0
C173 C 0.91782 0.30778 0.53943 0.0
C174 C 0.91537 0.3342 0.49654 0.0
C175 C 0.95658 0.35627 0.47732 0.0
C176 C 0.00177 0.3439 0.49509 0.0
H177 H 0.08912 0.74733 0.82087 0.0
H178 H 0.01563 0.78297 0.95231 0.0
H179 H 0.11339 0.88447 0.88665 0.0
H180 H 0.03811 0.68955 0.85234 0.0
H181 H 0.04365 0.69174 0.91566 0.0
H182 H 0.95878 0.71809 0.81251 0.0
H183 H 0.83889 0.66233 0.89375 0.0
H184 H 0.97535 0.68276 0.96187 0.0
C185 C 0.07962 0.77333 0.84809 0.0
C186 C 0.1034 0.81786 0.84905 0.0
C187 C 0.04599 0.76103 0.88386 0.0
C188 C 0.03828 0.79349 0.92238 0.0
C189 C 0.06192 0.83877 0.92289 0.0
C190 C 0.09316 0.85078 0.88528 0.0
C191 C 0.02648 0.71003 0.88462 0.0
C192 C 0.97228 0.70559 0.88818 0.0
C193 C 0.94287 0.70816 0.84667 0.0
C194 C 0.89398 0.69365 0.84857 0.0
C195 C 0.87506 0.67753 0.89259 0.0
C196 C 0.90445 0.67271 0.9331 0.0
C197 C 0.95232 0.68846 0.93121 0.0
H198 H 0.45583 0.66992 0.10762 0.0
H199 H 0.55015 0.74065 0.20918 0.0
H200 H 0.60695 0.68002 0.07992 0.0
H201 H 0.42167 0.7034 0.17606 0.0
H202 H 0.46234 0.68436 0.22181 0.0
H203 H 0.48662 0.80605 0.17006 0.0
H204 H 0.40876 0.87842 0.2808 0.0
H205 H 0.39586 0.72634 0.26648 0.0
C206 C 0.49089 0.68533 0.11629 0.0
C207 C 0.53049 0.67287 0.088 0.0
C208 C 0.49741 0.71097 0.15957 0.0
C209 C 0.54412 0.72514 0.1738 0.0
C210 C 0.58351 0.71573 0.14405 0.0
C211 C 0.57593 0.69161 0.10022 0.0
C212 C 0.45613 0.71286 0.19457 0.0
C213 C 0.44923 0.75982 0.22093 0.0
C214 C 0.46601 0.80449 0.20299 0.0
C215 C 0.4519 0.84777 0.2248 0.0
C216 C 0.42305 0.84541 0.26611 0.0
C217 C 0.39896 0.80251 0.27766 0.0
C218 C 0.41518 0.75946 0.25814 0.0
H219 H 0.60839 0.23339 0.29506 0.0
H220 H 0.547 0.27682 0.4307 0.0
H221 H 0.59731 0.38295 0.33028 0.0
H222 H 0.58418 0.17246 0.35037 0.0
H223 H 0.59049 0.19215 0.4114 0.0
H224 H 0.48827 0.20929 0.32198 0.0
H225 H 0.38894 0.12457 0.40552 0.0
H226 H 0.53624 0.1375 0.45062 0.0
C227 C 0.59585 0.26131 0.319 0.0
C228 C 0.60384 0.30987 0.30674 0.0
C229 C 0.5734 0.24891 0.36305 0.0
C230 C 0.56112 0.28584 0.39552 0.0
C231 C 0.569 0.33431 0.38324 0.0
C232 C 0.58892 0.34564 0.33849 0.0
C233 C 0.56868 0.19651 0.37811 0.0
C234 C 0.51732 0.17958 0.38777 0.0
C235 C 0.48049 0.18863 0.35409 0.0
C236 C 0.43397 0.16953 0.36097 0.0
C237 C 0.42433 0.14109 0.40143 0.0
C238 C 0.46086 0.12886 0.43358 0.0
C239 C 0.50747 0.14813 0.42669 0.0
H240 H 0.52826 0.96555 0.14374 0.0
H241 H 0.66787 0.01927 0.18792 0.0
H242 H 0.5602 0.11659 0.13842 0.0
H243 H 0.58622 0.90977 0.16881 0.0
H244 H 0.64661 0.9292 0.15569 0.0
H245 H 0.55735 0.95332 0.25581 0.0
H246 H 0.65705 0.91068 0.36522 0.0
H247 H 0.69657 0.90012 0.21684 0.0
C248 C 0.55267 0.99553 0.15075 0.0
C249 C 0.53808 0.0424 0.14091 0.0
C250 C 0.59926 0.98714 0.1681 0.0
C251 C 0.63161 0.02597 0.17541 0.0
C252 C 0.61723 0.07314 0.16626 0.0
C253 C 0.57037 0.08074 0.14922 0.0
C254 C 0.61473 0.93669 0.1783 0.0
C255 C 0.62729 0.93154 0.23066 0.0
C256 C 0.59298 0.94192 0.26621 0.0
C257 C 0.60399 0.93567 0.31499 0.0
C258 C 0.64972 0.91931 0.32786 0.0
C259 C 0.68271 0.90538 0.2927 0.0
C260 C 0.67179 0.91244 0.24411 0.0
H261 H 0.2363 0.31354 0.58618 0.0
H262 H 0.27916 0.43809 0.50413 0.0
H263 H 0.38531 0.34261 0.56041 0.0
H264 H 0.17728 0.36791 0.56543 0.0
H265 H 0.1984 0.42763 0.55375 0.0
H266 H 0.18788 0.30939 0.4827 0.0
H267 H 0.11173 0.3778 0.36763 0.0
H268 H 0.15596 0.46066 0.49065 0.0
C269 C 0.2639 0.33399 0.5674 0.0
C270 C 0.31221 0.32304 0.57516 0.0
C271 C 0.25139 0.37467 0.54065 0.0
C272 C 0.28817 0.4045 0.52134 0.0
C273 C 0.33674 0.39195 0.52706 0.0
C274 C 0.34792 0.35003 0.55225 0.0
C275 C 0.19956 0.38992 0.54036 0.0
C276 C 0.17716 0.38617 0.49104 0.0
C277 C 0.17352 0.34156 0.46656 0.0
C278 C 0.15055 0.33881 0.42146 0.0
C279 C 0.13093 0.38028 0.40167 0.0
C280 C 0.1326 0.42407 0.4265 0.0
C281 C 0.15558 0.42694 0.47113 0.0
H282 H 0.96439 0.00578 0.63755 0.0
H283 H 0.82944 0.96967 0.70447 0.0
H284 H 0.92286 0.85799 0.65599 0.0
H285 H 0.9165 0.06906 0.66325 0.0
H286 H 0.85448 0.05266 0.65579 0.0
H287 H 0.93913 0.0298 0.76179 0.0
H288 H 0.85738 0.11951 0.85594 0.0
H289 H 0.81809 0.10915 0.70708 0.0
C290 C 0.94019 0.97903 0.6526 0.0
C291 C 0.9498 0.93009 0.64613 0.0
C292 C 0.89793 0.99372 0.6757 0.0
C293 C 0.86381 0.95869 0.69016 0.0
C294 C 0.87314 0.90957 0.68375 0.0
C295 C 0.91689 0.89575 0.66339 0.0
C296 C 0.88682 0.04672 0.6786 0.0
C297 C 0.87744 0.06435 0.72921 0.0
C298 C 0.90864 0.05284 0.76775 0.0
C299 C 0.90055 0.0718 0.81391 0.0
C300 C 0.86228 0.10309 0.82084 0.0
C301 C 0.8328 0.11698 0.78271 0.0
C302 C 0.84042 0.09766 0.73685 0.0
H303 H 0.30361 0.67863 0.05008 0.0
H304 H 0.21997 0.56868 0.97774 0.0
H305 H 0.15056 0.68584 0.04954 0.0
H306 H 0.34313 0.60983 0.02252 0.0
H307 H 0.30496 0.55752 0.02435 0.0
H308 H 0.31167 0.65408 0.9286 0.0
H309 H 0.37559 0.55886 0.82584 0.0
H310 H 0.34776 0.50945 0.96872 0.0
C311 C 0.2692 0.66511 0.03694 0.0
C312 C 0.22711 0.68907 0.04953 0.0
C313 C 0.26669 0.62171 0.01084 0.0
C314 C 0.2215 0.60277 0.99662 0.0
C315 C 0.17871 0.62584 0.00986 0.0
C316 C 0.18257 0.66952 0.03525 0.0
C317 C 0.31144 0.59203 0.00512 0.0
C318 C 0.32409 0.58166 0.95336 0.0
C319 C 0.32395 0.61862 0.91877 0.0
C320 C 0.34165 0.6105 0.87221 0.0
C321 C 0.359 0.5648 0.86057 0.0
C322 C 0.36134 0.52836 0.89503 0.0
C323 C 0.34389 0.53687 0.94141 0.0
H324 H 0.73609 0.81037 0.11955 0.0
H325 H 0.78013 0.93679 0.04144 0.0
H326 H 0.88464 0.85369 0.11727 0.0
H327 H 0.67933 0.84507 0.06632 0.0
H328 H 0.68615 0.90594 0.08513 0.0
H329 H 0.72125 0.82759 0.97859 0.0
H330 H 0.66661 0.92992 0.87719 0.0
H331 H 0.66044 0.96063 0.02771 0.0
C332 C 0.76439 0.83335 0.10577 0.0
C333 C 0.81204 0.82596 0.12008 0.0
C334 C 0.75283 0.87151 0.07491 0.0
C335 C 0.78903 0.90507 0.06199 0.0
C336 C 0.83663 0.8982 0.07689 0.0
C337 C 0.848 0.85791 0.10446 0.0
C338 C 0.70102 0.87847 0.06051 0.0
C339 C 0.69503 0.89397 0.00883 0.0
C340 C 0.70673 0.86264 0.9707 0.0
C341 C 0.69739 0.87571 0.92269 0.0
C342 C 0.67715 0.92069 0.91359 0.0
C343 C 0.66341 0.95104 0.9511 0.0
C344 C 0.67273 0.93785 0.99866 0.0
H345 H 0.40439 0.54172 0.18093 0.0
H346 H 0.29328 0.46954 0.26266 0.0
H347 H 0.39167 0.38801 0.17762 0.0
H348 H 0.34812 0.58876 0.2219 0.0
H349 H 0.29182 0.5601 0.23566 0.0
H350 H 0.41962 0.56551 0.28681 0.0
H351 H 0.36927 0.60304 0.42705 0.0
H352 H 0.26743 0.57362 0.31369 0.0
C353 C 0.38765 0.50884 0.19405 0.0
C354 C 0.40325 0.46459 0.17681 0.0
C355 C 0.34886 0.51081 0.22609 0.0
C356 C 0.32489 0.46806 0.24001 0.0
C357 C 0.34117 0.42359 0.22336 0.0
C358 C 0.38103 0.4222 0.19287 0.0
C359 C 0.33124 0.55877 0.24253 0.0
C360 C 0.34213 0.56631 0.2951 0.0
C361 C 0.39009 0.56994 0.3117 0.0
C362 C 0.39972 0.58091 0.36015 0.0
C363 C 0.36119 0.58996 0.3911 0.0
C364 C 0.31339 0.58907 0.37445 0.0
C365 C 0.30416 0.57474 0.32694 0.0
H366 H 0.78249 0.20166 0.63267 0.0
H367 H 0.73924 0.08735 0.53465 0.0
H368 H 0.64016 0.14046 0.63874 0.0
H369 H 0.8326 0.18507 0.56371 0.0
H370 H 0.83899 0.12419 0.58083 0.0
H371 H 0.79275 0.20337 0.48161 0.0
H372 H 0.83066 0.1018 0.37205 0.0
H373 H 0.84757 0.06493 0.52055 0.0
C374 C 0.7553 0.17723 0.61813 0.0
C375 C 0.71013 0.17441 0.63973 0.0
C376 C 0.76615 0.1467 0.57933 0.0
C377 C 0.73117 0.1128 0.56292 0.0
C378 C 0.68552 0.1114 0.58384 0.0
C379 C 0.67522 0.14256 0.62166 0.0
C380 C 0.8163 0.14856 0.55905 0.0
C381 C 0.81768 0.13473 0.50675 0.0
C382 C 0.80407 0.16775 0.47123 0.0
C383 C 0.80803 0.15584 0.42233 0.0
C384 C 0.82375 0.10981 0.40959 0.0
C385 C 0.839 0.07727 0.44466 0.0
C386 C 0.83465 0.08944 0.4933 0.0
H387 H 0.10164 0.4475 0.64891 0.0
H388 H 0.17368 0.51389 0.77078 0.0
H389 H 0.10266 0.60028 0.665 0.0
H390 H 0.12427 0.39739 0.71662 0.0
H391 H 0.18463 0.41692 0.7089 0.0
H392 H 0.08711 0.43736 0.80288 0.0
H393 H 0.17537 0.37994 0.91589 0.0
H394 H 0.23009 0.38854 0.7729 0.0
C395 C 0.11041 0.47906 0.6704 0.0
C396 C 0.09808 0.52446 0.6533 0.0
C397 C 0.13575 0.47446 0.71419 0.0
C398 C 0.15086 0.51646 0.73925 0.0
C399 C 0.13792 0.56211 0.72223 0.0
C400 C 0.11053 0.56526 0.68001 0.0
C401 C 0.15119 0.42471 0.72914 0.0
C402 C 0.1592 0.41758 0.78255 0.0
C403 C 0.1214 0.42427 0.81554 0.0
C404 C 0.12722 0.4117 0.86425 0.0
C405 C 0.17136 0.39289 0.87934 0.0
C406 C 0.20837 0.38414 0.84679 0.0
C407 C 0.20229 0.39681 0.79849 0.0
H408 H 0.96761 0.32032 0.99112 0.0
H409 H 0.06796 0.36756 0.10104 0.0
H410 H 0.11195 0.41503 0.04241 0.0
H411 H 0.12775 0.43575 0.9589 0.0
H412 H 0.03479 0.37954 0.84693 0.0
H413 H 0.97909 0.3483 0.90749 0.0
C414 C 0.99789 0.34268 0.00253 0.0
C415 C 0.01478 0.34 0.05027 0.0
C416 C 0.02349 0.36996 0.96826 0.0
C417 C 0.05424 0.36883 0.06453 0.0
C418 C 0.07942 0.39623 0.03095 0.0
C419 C 0.09479 0.41742 0.94772 0.0
C420 C 0.08616 0.40897 0.89848 0.0
C421 C 0.06519 0.39605 0.98255 0.0
C422 C 0.04256 0.38655 0.88453 0.0
C423 C 0.01104 0.36789 0.91925 0.0
H424 H 0.897 0.74742 0.30827 0.0
H425 H 0.99524 0.68447 0.20699 0.0
H426 H 0.94102 0.70343 0.14086 0.0
H427 H 0.87585 0.75424 0.11104 0.0
H428 H 0.77864 0.81909 0.21158 0.0
H429 H 0.82112 0.78166 0.27873 0.0
C430 C 0.90581 0.73654 0.27188 0.0
C431 C 0.95075 0.716 0.26235 0.0
C432 C 0.8747 0.74821 0.2338 0.0
C433 C 0.96127 0.70114 0.21521 0.0
C434 C 0.93031 0.71208 0.17727 0.0
C435 C 0.86298 0.75854 0.14759 0.0
C436 C 0.82494 0.78989 0.1567 0.0
C437 C 0.88842 0.73811 0.18591 0.0
C438 C 0.80801 0.79511 0.20393 0.0
C439 C 0.83264 0.77418 0.24231 0.0
H440 H 0.56333 0.70188 0.45174 0.0
H441 H 0.53765 0.60051 0.56635 0.0
H442 H 0.49133 0.54918 0.51154 0.0
H443 H 0.44342 0.54264 0.43782 0.0
H444 H 0.46443 0.64623 0.32467 0.0
H445 H 0.52883 0.68564 0.3712 0.0
C446 C 0.54932 0.66755 0.46425 0.0
C447 C 0.55276 0.65576 0.51344 0.0
C448 C 0.52151 0.63855 0.43281 0.0
C449 C 0.53485 0.61092 0.52893 0.0
C450 C 0.50791 0.58165 0.49775 0.0
C451 C 0.46349 0.5727 0.42265 0.0
C452 C 0.44896 0.59189 0.37826 0.0
C453 C 0.4988 0.59642 0.45051 0.0
C454 C 0.47515 0.63072 0.35871 0.0
C455 C 0.51152 0.65367 0.38566 0.0
H456 H 0.60755 0.29488 0.79604 0.0
H457 H 0.60262 0.1549 0.86246 0.0
H458 H 0.65758 0.12423 0.8017 0.0
H459 H 0.6971 0.13386 0.72487 0.0
H460 H 0.6956 0.27015 0.65268 0.0
H461 H 0.65539 0.30688 0.72205 0.0
C462 C 0.61941 0.25796 0.79779 0.0
C463 C 0.6007 0.22685 0.83313 0.0
C464 C 0.65011 0.24024 0.76219 0.0
C465 C 0.61618 0.17918 0.83517 0.0
C466 C 0.6472 0.16156 0.80044 0.0
C467 C 0.68899 0.17193 0.72513 0.0
C468 C 0.69939 0.19979 0.68459 0.0
C469 C 0.66313 0.19133 0.76318 0.0
C470 C 0.68881 0.24882 0.68444 0.0
C471 C 0.66504 0.26931 0.72358 0.0
H472 H 0.01001 0.62787 0.47769 0.0
H473 H 0.15154 0.60091 0.42153 0.0
H474 H 0.16837 0.54811 0.48932 0.0
H475 H 0.14654 0.51838 0.57007 0.0
H476 H 0.00892 0.5539 0.62983 0.0
H477 H 0.98671 0.59447 0.55527 0.0
C478 C 0.04408 0.60947 0.47967 0.0
C479 C 0.07955 0.61848 0.44487 0.0
C480 C 0.05399 0.58031 0.51943 0.0
C481 C 0.12365 0.59463 0.448 0.0
C482 C 0.13331 0.56442 0.48681 0.0
C483 C 0.11079 0.53289 0.56559 0.0
C484 C 0.07875 0.53215 0.60457 0.0
C485 C 0.09916 0.55791 0.52338 0.0
C486 C 0.03339 0.55291 0.59959 0.0
C487 C 0.02097 0.57651 0.55722 0.0
H488 H 0.62201 0.73679 0.76348 0.0
H489 H 0.67198 0.8558 0.67708 0.0
H490 H 0.71751 0.88811 0.74497 0.0
H491 H 0.72946 0.89158 0.83187 0.0
H492 H 0.66625 0.78175 0.92178 0.0
H493 H 0.64104 0.73632 0.85041 0.0
C494 C 0.64372 0.76923 0.75936 0.0
C495 C 0.64453 0.7932 0.7148 0.0
C496 C 0.66708 0.78965 0.79976 0.0
C497 C 0.67219 0.83559 0.71027 0.0
C498 C 0.69767 0.85457 0.74943 0.0
C499 C 0.71127 0.85703 0.83581 0.0
C500 C 0.69892 0.84065 0.8821 0.0
C501 C 0.69368 0.83303 0.79476 0.0
C502 C 0.67623 0.79537 0.88669 0.0
C503 C 0.66097 0.76977 0.84578 0.0
H504 H 0.46357 0.4164 0.97091 0.0
H505 H 0.55884 0.32218 0.04721 0.0
H506 H 0.542 0.36419 0.12248 0.0
H507 H 0.48539 0.41445 0.16777 0.0
H508 H 0.38801 0.50587 0.09062 0.0
H509 H 0.42057 0.47846 0.01418 0.0
C510 C 0.48213 0.40631 0.00357 0.0
C511 C 0.51131 0.3657 0.00388 0.0
C512 C 0.47073 0.42923 0.04669 0.0
C513 C 0.53545 0.35297 0.04639 0.0
C514 C 0.52547 0.37662 0.08948 0.0
C515 C 0.47287 0.42965 0.13415 0.0
C516 C 0.4344 0.46172 0.1344 0.0
C517 C 0.49088 0.41278 0.09037 0.0
C518 C 0.4179 0.48133 0.091 0.0
C519 C 0.43601 0.46519 0.04732 0.0
H520 H 0.90232 0.28011 0.26791 0.0
H521 H 0.81737 0.18507 0.17756 0.0
H522 H 0.76837 0.1614 0.24655 0.0
H523 H 0.76481 0.15228 0.33445 0.0
H524 H 0.85492 0.24238 0.42487 0.0
H525 H 0.8853 0.28472 0.3544 0.0
C526 C 0.87208 0.25545 0.26303 0.0
C527 C 0.86408 0.23343 0.21804 0.0
C528 C 0.84551 0.24046 0.30328 0.0
C529 C 0.8245 0.20194 0.21207 0.0
C530 C 0.79674 0.18814 0.25159 0.0
C531 C 0.78964 0.18249 0.33869 0.0
C532 C 0.8085 0.19336 0.38455 0.0
C533 C 0.80904 0.2048 0.29778 0.0
C534 C 0.83999 0.23308 0.38994 0.0
C535 C 0.85809 0.25678 0.3495 0.0
H536 H 0.97538 0.97344 0.30806 0.0
H537 H 0.07767 0.04412 0.40283 0.0
H538 H 0.01391 0.05892 0.46089 0.0
H539 H 0.92904 0.06711 0.47605 0.0
H540 H 0.82502 0.00611 0.37709 0.0
H541 H 0.8898 0.96962 0.33067 0.0
C542 C 0.98398 0.99065 0.34216 0.0
C543 C 0.03077 0.00865 0.35085 0.0
C544 C 0.94695 0.00057 0.3747 0.0
C545 C 0.04168 0.03066 0.39513 0.0
C546 C 0.00538 0.03926 0.42827 0.0
C547 C 0.92038 0.04402 0.44557 0.0
C548 C 0.87259 0.03957 0.42961 0.0
C549 C 0.9577 0.02654 0.41729 0.0
C550 C 0.86176 0.00997 0.38983 0.0
C551 C 0.89881 0.98978 0.36298 0.0
H552 H 0.25921 0.74656 0.70573 0.0
H553 H 0.11661 0.80516 0.69969 0.0
H554 H 0.08277 0.73053 0.73141 0.0
H555 H 0.09194 0.64431 0.74449 0.0
H556 H 0.23281 0.58244 0.73745 0.0
H557 H 0.26856 0.66247 0.729 0.0
C558 C 0.22099 0.74352 0.7131 0.0
C559 C 0.19046 0.78122 0.70032 0.0
C560 C 0.20135 0.69959 0.72939 0.0
C561 C 0.14086 0.77654 0.70917 0.0
C562 C 0.12143 0.73382 0.72727 0.0
C563 C 0.13079 0.64866 0.74354 0.0
C564 C 0.15959 0.60754 0.74096 0.0
C565 C 0.15109 0.69442 0.73546 0.0
C566 C 0.20979 0.61342 0.73986 0.0
C567 C 0.2304 0.65923 0.73446 0.0
H568 H 0.53102 0.0736 0.82475 0.0
H569 H 0.42493 0.98857 0.90084 0.0
H570 H 0.4862 0.96243 0.95743 0.0
H571 H 0.57111 0.9535 0.97713 0.0
H572 H 0.67843 0.02973 0.89472 0.0
H573 H 0.61543 0.0708 0.85014 0.0
C574 C 0.52096 0.05085 0.85483 0.0
C575 C 0.47362 0.03267 0.8583 0.0
C576 C 0.55664 0.03502 0.88675 0.0
C577 C 0.46118 0.00293 0.89721 0.0
C578 C 0.49624 0.98784 0.92959 0.0
C579 C 0.58055 0.98111 0.95116 0.0
C580 C 0.62905 0.98912 0.93941 0.0
C581 C 0.54425 0.00251 0.92387 0.0
C582 C 0.64119 0.0238 0.9048 0.0
C583 C 0.60517 0.047 0.87905 0.0
H584 H 0.29931 0.20954 0.19697 0.0
H585 H 0.18688 0.26457 0.10664 0.0
H586 H 0.20047 0.34505 0.14029 0.0
H587 H 0.25501 0.40106 0.18412 0.0
H588 H 0.36852 0.34452 0.27222 0.0
H589 H 0.34194 0.26252 0.25329 0.0
C590 C 0.27603 0.23841 0.18653 0.0
C591 C 0.24176 0.23079 0.14996 0.0
C592 C 0.28432 0.28435 0.20582 0.0
C593 C 0.21342 0.2694 0.13495 0.0
C594 C 0.22125 0.31546 0.15413 0.0
C595 C 0.27219 0.37068 0.20106 0.0
C596 C 0.31346 0.37846 0.22959 0.0
C597 C 0.25798 0.32366 0.18816 0.0
C598 C 0.33634 0.33909 0.25063 0.0
C599 C 0.3216 0.29229 0.23917 0.0
H600 H 0.03801 0.99349 0.08484 0.0
H601 H 0.96685 0.07988 0.19113 0.0
H602 H 0.8889 0.0475 0.16507 0.0
H603 H 0.84338 0.98315 0.12287 0.0
H604 H 0.91589 0.89304 0.02094 0.0
H605 H 0.99052 0.93865 0.03367 0.0
C606 C 0.00535 0.00645 0.10106 0.0
C607 C 0.0083 0.03852 0.14012 0.0
C608 C 0.96082 0.98653 0.08689 0.0
C609 C 0.96563 0.05504 0.16104 0.0
C610 C 0.92102 0.0361 0.14654 0.0
C611 C 0.87512 0.97514 0.10189 0.0
C612 C 0.87439 0.93532 0.07071 0.0
C613 C 0.91845 0.0002 0.11102 0.0
C614 C 0.91573 0.92416 0.04447 0.0
C615 C 0.95851 0.94995 0.05211 0.0
H616 H 0.21293 0.76539 0.45716 0.0
H617 H 0.2797 0.71131 0.58604 0.0
H618 H 0.29288 0.63407 0.54689 0.0
H619 H 0.29984 0.58875 0.47182 0.0
H620 H 0.24397 0.64871 0.34041 0.0
H621 H 0.21054 0.71527 0.38512 0.0
C622 C 0.22967 0.73638 0.47677 0.0
C623 C 0.24668 0.74424 0.52364 0.0
C624 C 0.23879 0.69272 0.45355 0.0
C625 C 0.2676 0.70632 0.54923 0.0
C626 C 0.27483 0.66207 0.52704 0.0
C627 C 0.27917 0.61571 0.45311 0.0
C628 C 0.27637 0.61477 0.40261 0.0
C629 C 0.26272 0.65575 0.47847 0.0
C630 C 0.24755 0.64871 0.37914 0.0
C631 C 0.22866 0.68723 0.40457 0.0
H632 H 0.479 0.04401 0.58575 0.0
H633 H 0.53747 0.94734 0.69097 0.0
H634 H 0.61869 0.96515 0.6623 0.0
H635 H 0.67212 0.02378 0.62194 0.0
H636 H 0.61285 0.12333 0.5203 0.0
H637 H 0.53296 0.08741 0.53106 0.0
C638 C 0.50925 0.02518 0.60089 0.0
C639 C 0.50234 0.9953 0.64103 0.0
C640 C 0.55584 0.03645 0.5849 0.0
C641 C 0.5419 0.97103 0.6604 0.0
C642 C 0.58845 0.98155 0.6443 0.0
C643 C 0.64208 0.03553 0.60012 0.0
C644 C 0.64794 0.07599 0.5705 0.0
C645 C 0.5959 0.01637 0.60854 0.0
C646 C 0.60898 0.09181 0.54286 0.0
C647 C 0.56317 0.0718 0.54968 0.0
H648 H 0.32036 0.25592 0.98598 0.0
H649 H 0.26678 0.14775 0.88706 0.0
H650 H 0.24764 0.2101 0.82882 0.0
H651 H 0.22596 0.29432 0.81594 0.0
H652 H 0.2755 0.40254 0.91641 0.0
H653 H 0.3168 0.34135 0.96356 0.0
C654 C 0.30591 0.24581 0.95102 0.0
C655 C 0.29352 0.19741 0.9415 0.0
C656 C 0.29315 0.28194 0.91829 0.0
C657 C 0.27571 0.18482 0.89574 0.0
C658 C 0.26432 0.22046 0.86248 0.0
C659 C 0.24759 0.30468 0.84699 0.0
C660 C 0.2476 0.35263 0.86298 0.0
C661 C 0.26972 0.26911 0.87478 0.0
C662 C 0.27525 0.36574 0.9035 0.0
C663 C 0.29838 0.33069 0.93069 0.0
H664 H 0.37706 0.04577 0.1639 0.0
H665 H 0.34579 0.96748 0.03317 0.0
H666 H 0.39322 0.89994 0.06205 0.0
H667 H 0.43205 0.85939 0.12971 0.0
H668 H 0.46755 0.93964 0.25852 0.0
H669 H 0.43184 0.01134 0.22398 0.0
C670 C 0.38122 0.01416 0.14153 0.0
C671 C 0.35739 0.01112 0.09695 0.0
C672 C 0.40945 0.97611 0.15783 0.0
C673 C 0.36362 0.97042 0.0678 0.0
C674 C 0.39078 0.93189 0.08426 0.0
C675 C 0.43415 0.89297 0.14954 0.0
C676 C 0.45148 0.89364 0.19727 0.0
C677 C 0.41263 0.93382 0.12986 0.0
C678 C 0.4538 0.93784 0.22206 0.0
C679 C 0.43264 0.97868 0.20265 0.0
H680 H 0.78334 0.52881 0.05521 0.0
H681 H 0.88428 0.43107 0.99168 0.0
H682 H 0.9336 0.49892 0.96428 0.0
H683 H 0.93862 0.58456 0.94436 0.0
H684 H 0.83412 0.68209 0.0011 0.0
H685 H 0.79578 0.61603 0.046 0.0
C686 C 0.81688 0.52236 0.03662 0.0
C687 C 0.82966 0.4751 0.02446 0.0
C688 C 0.84377 0.56156 0.01896 0.0
C689 C 0.87338 0.46719 0.0008 0.0
C690 C 0.90128 0.50595 0.98466 0.0
C691 C 0.90828 0.59143 0.96772 0.0
C692 C 0.88918 0.6378 0.96997 0.0
C693 C 0.88533 0.55308 0.99123 0.0
C694 C 0.8495 0.64658 -0.00048 0.0
C695 C 0.82746 0.6088 0.02471 0.0
H696 H 0.79775 0.6677 0.15348 0.0
H697 H 0.74787 0.5876 0.27657 0.0
H698 H 0.67156 0.6302 0.27436 0.0
H699 H 0.61458 0.67759 0.22733 0.0
H700 H 0.66335 0.75297 0.1009 0.0
H701 H 0.74507 0.72488 0.11467 0.0
C702 C 0.77069 0.66079 0.18076 0.0
C703 C 0.77766 0.62421 0.21454 0.0
C704 C 0.72682 0.68453 0.17856 0.0
C705 C 0.74295 0.61563 0.25011 0.0
C706 C 0.69926 0.63969 0.2486 0.0
C707 C 0.64361 0.69011 0.20434 0.0
C708 C 0.63316 0.71722 0.16312 0.0
C709 C 0.6901 0.67266 0.21167 0.0
C710 C 0.67085 0.73239 0.13304 0.0
C711 C 0.71739 0.71606 0.14068 0.0
H712 H 0.59105 0.53925 0.46671 0.0
H713 H 0.68739 0.46602 0.56253 0.0
H714 H 0.65766 0.38838 0.53258 0.0
H715 H 0.61407 0.34251 0.46944 0.0
H716 H 0.51875 0.41666 0.37326 0.0
H717 H 0.53666 0.49267 0.4143 0.0
C718 C 0.60397 0.50637 0.4826 0.0
C719 C 0.64095 0.5085 0.51718 0.0
C720 C 0.58721 0.46195 0.46463 0.0
C721 C 0.65857 0.46541 0.53619 0.0
C722 C 0.64187 0.42095 0.51876 0.0
C723 C 0.59566 0.37496 0.45895 0.0
C724 C 0.5652 0.37412 0.41844 0.0
C725 C 0.60745 0.41885 0.4817 0.0
C726 C 0.54219 0.41657 0.4045 0.0
C727 C 0.55295 0.4601 0.4275 0.0
H728 H 0.21003 0.90752 0.31625 0.0
H729 H 0.20941 0.90087 0.16094 0.0
H730 H 0.27363 0.84231 0.16288 0.0
H731 H 0.33582 0.80179 0.20739 0.0
H732 H 0.34836 0.82121 0.36068 0.0
H733 H 0.27074 0.86244 0.36175 0.0
C734 C 0.22317 0.89228 0.28292 0.0
C735 C 0.20531 0.90857 0.23848 0.0
C736 C 0.26115 0.85974 0.28428 0.0
C737 C 0.22281 0.88903 0.19553 0.0
C738 C 0.25952 0.85562 0.19662 0.0
C739 C 0.32043 0.81336 0.24131 0.0
C740 C 0.34687 0.80793 0.28404 0.0
C741 C 0.27946 0.84155 0.24066 0.0
C742 C 0.32781 0.82416 0.32766 0.0
C743 C 0.28411 0.84856 0.32796 0.0
H744 H 0.13994 0.99443 0.51269 0.0
H745 H 0.09768 0.94761 0.65424 0.0
H746 H 0.04617 0.01675 0.66296 0.0
H747 H 0.02614 0.09729 0.63749 0.0
H748 H 0.08354 0.15264 0.50463 0.0
H749 H 0.11265 0.0731 0.48345 0.0
C750 C 0.11777 0.9986 0.54443 0.0
C751 C 0.12244 0.96643 0.58284 0.0
C752 C 0.09012 0.04006 0.55028 0.0
C753 C 0.09461 0.97232 0.62436 0.0
C754 C 0.06498 0.01175 0.62928 0.0
C755 C 0.04328 0.09129 0.60299 0.0
C756 C 0.05368 0.13076 0.57328 0.0
C757 C 0.06407 0.04686 0.59339 0.0
C758 C 0.07526 0.12282 0.52833 0.0
C759 C 0.09285 0.07747 0.51664 0.0
H760 H 0.72484 0.44044 0.16934 0.0
H761 H 0.83757 0.35099 0.22441 0.0
H762 H 0.77733 0.29651 0.2593 0.0
H763 H 0.69478 0.28229 0.28671 0.0
H764 H 0.5825 0.37529 0.23733 0.0
H765 H 0.6403 0.42003 0.1879 0.0
C766 C 0.73623 0.40824 0.18781 0.0
C767 C 0.78564 0.4 0.19462 0.0
C768 C 0.70157 0.37806 0.20972 0.0
C769 C 0.79979 0.35827 0.21886 0.0
C770 C 0.76547 0.32716 0.23903 0.0
C771 C 0.68267 0.31109 0.26362 0.0
C772 C 0.63445 0.32539 0.26564 0.0
C773 C 0.71646 0.33774 0.23653 0.0
C774 C 0.61947 0.36356 0.23628 0.0
C775 C 0.65262 0.38952 0.20844 0.0
H776 H 0.7848 0.5758 0.69152 0.0
H777 H 0.66434 0.64164 0.76192 0.0
H778 H 0.71884 0.69697 0.80402 0.0
H779 H 0.80035 0.71584 0.83255 0.0
H780 H 0.92126 0.64673 0.76667 0.0
H781 H 0.8673 0.60557 0.70982 0.0
C782 C 0.7704 0.60324 0.71496 0.0
C783 C 0.72061 0.60382 0.72439 0.0
C784 C 0.80214 0.63446 0.74016 0.0
C785 C 0.70251 0.63986 0.75456 0.0
C786 C 0.73366 0.6716 0.77874 0.0
C787 C 0.81499 0.69286 0.80478 0.0
C788 C 0.86471 0.68384 0.80443 0.0
C789 C 0.78356 0.66759 0.77369 0.0
C790 C 0.88323 0.65452 0.76779 0.0
C791 C 0.85222 0.63032 0.73568 0.0
H792 H 0.47682 0.8434 0.46941 0.0
H793 H 0.57036 0.93053 0.55894 0.0
H794 H 0.59472 0.97819 0.48955 0.0
H795 H 0.6056 0.97979 0.40205 0.0
H796 H 0.51896 0.88631 0.31191 0.0
H797 H 0.47481 0.85747 0.38207 0.0
C798 C 0.50127 0.87385 0.47395 0.0
C799 C 0.52235 0.88315 0.51921 0.0
C800 C 0.51715 0.8993 0.43325 0.0
C801 C 0.55365 0.92288 0.52458 0.0
C802 C 0.56806 0.94971 0.4847 0.0
C803 C 0.5757 0.95458 0.39776 0.0
C804 C 0.566 0.93462 0.35218 0.0
C805 C 0.55246 0.93613 0.43856 0.0
C806 C 0.52699 0.9023 0.34666 0.0
C807 C 0.5023 0.88513 0.38695 0.0
H808 H 0.42514 0.22849 0.74436 0.0
H809 H 0.34313 0.3332 0.82235 0.0
H810 H 0.2964 0.34997 0.75014 0.0
H811 H 0.2836 0.34072 0.66449 0.0
H812 H 0.37712 0.25018 0.58204 0.0
H813 H 0.41499 0.2219 0.65649 0.0
C814 C 0.39635 0.25434 0.74564 0.0
C815 C 0.38616 0.27847 0.78883 0.0
C816 C 0.37184 0.26622 0.7033 0.0
C817 C 0.35017 0.31305 0.78983 0.0
C818 C 0.32363 0.32278 0.74863 0.0
C819 C 0.31098 0.31335 0.66296 0.0
C820 C 0.32661 0.29624 0.61827 0.0
C821 C 0.33442 0.29995 0.70518 0.0
C822 C 0.36394 0.26285 0.61637 0.0
C823 C 0.38591 0.24729 0.65875 0.0
H824 H 0.02954 0.13703 0.98293 0.0
H825 H 0.90471 0.0845 0.05921 0.0
H826 H 0.87689 0.04171 0.98793 0.0
H827 H 0.87805 0.03516 0.90043 0.0
H828 H 0.99547 0.09766 0.82052 0.0
H829 H 0.0367 0.11949 0.89581 0.0
C830 C 0.99695 0.11515 0.98417 0.0
C831 C 0.96975 0.11325 0.02682 0.0
C832 C 0.9794 0.09299 0.94177 0.0
C833 C 0.9272 0.08537 0.02757 0.0
C834 C 0.91081 0.06141 0.98643 0.0
C835 C 0.91369 0.05163 0.89968 0.0
C836 C 0.93363 0.06507 0.85522 0.0
C837 C 0.93537 0.06689 0.94286 0.0
C838 C 0.9796 0.0867 0.85437 0.0
C839 C 0.00266 0.10005 0.89746 0.0
H840 H 0.13218 0.80263 0.20971 0.0
H841 H 0.22808 0.71696 0.29477 0.0
H842 H 0.27382 0.69642 0.22313 0.0
H843 H 0.27338 0.68764 0.13532 0.0
H844 H 0.17789 0.77356 0.04983 0.0
H845 H 0.14632 0.81072 0.12268 0.0
C846 C 0.1639 0.78062 0.21274 0.0
C847 C 0.17568 0.75961 0.25705 0.0
C848 C 0.18964 0.7685 0.17117 0.0
C849 C 0.21746 0.7321 0.26069 0.0
C850 C 0.24361 0.72036 0.21971 0.0
C851 C 0.24744 0.71623 0.13239 0.0
C852 C 0.2268 0.7267 0.08748 0.0
C853 C 0.22829 0.73615 0.17444 0.0
C854 C 0.19359 0.76426 0.08426 0.0
C855 C 0.17497 0.78495 0.1259 0.0
H856 H 0.42504 0.10301 0.9658 0.0
H857 H 0.40376 0.22666 0.05662 0.0
H858 H 0.42359 0.17941 0.12762 0.0
H859 H 0.47339 0.11303 0.15723 0.0
H860 H 0.50232 0.99329 0.06314 0.0
H861 H 0.44981 0.02739 0.00201 0.0
C862 C 0.42278 0.11902 0.00137 0.0
C863 C 0.41566 0.1686 0.00598 0.0
C864 C 0.43697 0.09253 0.04158 0.0
C865 C 0.41082 0.18872 0.05214 0.0
C866 C 0.42273 0.16187 0.09275 0.0
C867 C 0.46733 0.09388 0.12362 0.0
C868 C 0.49334 0.05197 0.11382 0.0
C869 C 0.44034 0.11526 0.08702 0.0
C870 C 0.48377 0.02629 0.07117 0.0
C871 C 0.45471 0.04615 0.03569 0.0
H872 H 0.03823 0.19003 0.2982 0.0
H873 H 0.14471 0.23478 0.19484 0.0
H874 H 0.19116 0.27531 0.25807 0.0
H875 H 0.19266 0.31101 0.33901 0.0
H876 H 0.08576 0.26803 0.4426 0.0
H877 H 0.04936 0.21233 0.38392 0.0
C878 C 0.07246 0.20719 0.28983 0.0
C879 C 0.08753 0.21039 0.24154 0.0
C880 C 0.0988 0.23095 0.32656 0.0
C881 C 0.13213 0.23241 0.23146 0.0
C882 C 0.15848 0.25598 0.26758 0.0
C883 C 0.16272 0.28777 0.34927 0.0
C884 C 0.14202 0.29323 0.39498 0.0
C885 C 0.141 0.25734 0.31478 0.0
C886 C 0.10272 0.26373 0.40784 0.0
C887 C 0.08145 0.2325 0.37398 0.0
H888 H 0.08288 0.80598 0.51661 0.0
H889 H 0.02383 0.8999 0.40884 0.0
H890 H 0.98991 0.95012 0.47183 0.0
H891 H 0.966 0.96018 0.55546 0.0
H892 H 0.01811 0.8623 0.66291 0.0
H893 H 0.06734 0.82218 0.60236 0.0
C894 C 0.06378 0.83827 0.50692 0.0
C895 C 0.05517 0.84872 0.45811 0.0
C896 C 0.04315 0.86647 0.54325 0.0
C897 C 0.03059 0.89078 0.4461 0.0
C898 C 0.01121 0.91966 0.48205 0.0
C899 C 0.98925 0.93098 0.56585 0.0
C900 C 0.98834 0.914 0.61338 0.0
C901 C 0.01553 0.90677 0.53052 0.0
C902 C 0.01813 0.87574 0.62636 0.0
C903 C 0.04603 0.85269 0.59172 0.0
H904 H 0.43463 0.77539 0.74966 0.0
H905 H 0.39121 0.67837 0.63543 0.0
H906 H 0.34545 0.62982 0.69225 0.0
H907 H 0.32798 0.60829 0.77555 0.0
H908 H 0.37461 0.70228 0.89086 0.0
H909 H 0.40644 0.75981 0.83242 0.0
C910 C 0.41383 0.74453 0.73701 0.0
C911 C 0.41708 0.72996 0.68861 0.0
C912 C 0.38806 0.71614 0.77017 0.0
C913 C 0.3898 0.69004 0.67262 0.0
C914 C 0.36383 0.66203 0.70517 0.0
C915 C 0.34455 0.64168 0.78792 0.0
C916 C 0.34955 0.65047 0.83752 0.0
C917 C 0.36442 0.67363 0.75426 0.0
C918 C 0.36997 0.69452 0.8529 0.0
C919 C 0.38875 0.72726 0.81947 0.0
H920 H 0.49549 0.40901 0.77084 0.0
H921 H 0.59788 0.4703 0.87157 0.0
H922 H 0.53245 0.4908 0.92596 0.0
H923 H 0.44768 0.51095 0.93337 0.0
H924 H 0.34527 0.45662 0.82934 0.0
H925 H 0.4089 0.4124 0.78858 0.0
C926 C 0.50368 0.42517 0.80554 0.0
C927 C 0.55128 0.43961 0.8165 0.0
C928 C 0.46577 0.43868 0.8358 0.0
C929 C 0.56144 0.45978 0.86188 0.0
C930 C 0.52408 0.47175 0.89291 0.0
C931 C 0.43898 0.48741 0.90326 0.0
C932 C 0.39219 0.487 0.88416 0.0
C933 C 0.47614 0.46441 0.87864 0.0
C934 C 0.3812 0.45719 0.84461 0.0
C935 C 0.4177 0.43246 0.82101 0.0
H936 H 0.75393 0.23681 0.09658 0.0
H937 H 0.63124 0.31773 0.14275 0.0
H938 H 0.601 0.24906 0.18767 0.0
H939 H 0.60009 0.16276 0.19924 0.0
H940 H 0.71129 0.07701 0.1359 0.0
H941 H 0.75623 0.14993 0.11428 0.0
C942 C 0.72131 0.23968 0.1176 0.0
C943 C 0.6954 0.28275 0.11719 0.0
C944 C 0.7018 0.19855 0.14001 0.0
C945 C 0.65266 0.28562 0.14371 0.0
C946 C 0.63493 0.24604 0.16888 0.0
C947 C 0.63462 0.16004 0.18142 0.0
C948 C 0.65155 0.11464 0.16793 0.0
C949 C 0.65793 0.20183 0.16529 0.0
C950 C 0.69713 0.11151 0.14643 0.0
C951 C 0.72254 0.1533 0.1334 0.0
H952 H 0.95871 0.52875 0.34313 0.0
H953 H 0.04619 0.51646 0.21587 0.0
H954 H 0.11602 0.49762 0.265 0.0
H955 H 0.1461 0.46619 0.34098 0.0
H956 H 0.05721 0.47003 0.46732 0.0
H957 H 0.99545 0.51368 0.42267 0.0
C958 C 0.99342 0.52326 0.32645 0.0
C959 C 0.9972 0.52242 0.27608 0.0
C960 C 0.03319 0.51078 0.35486 0.0
C961 C 0.04231 0.51589 0.25465 0.0
C962 C 0.08227 0.50523 0.28267 0.0
C963 C 0.11378 0.47809 0.35897 0.0
C964 C 0.10546 0.46449 0.40671 0.0
C965 C 0.07731 0.49975 0.3324 0.0
C966 C 0.06393 0.48004 0.43028 0.0
C967 C 0.02832 0.50407 0.4046 0.0
H968 H 0.77183 0.71014 0.67126 0.0
H969 H 0.69148 0.78498 0.5625 0.0
H970 H 0.72635 0.8614 0.58933 0.0
H971 H 0.78984 0.90468 0.63434 0.0
H972 H 0.87379 0.82927 0.73958 0.0
H973 H 0.82626 0.75594 0.72501 0.0
C974 C 0.76064 0.74339 0.65472 0.0
C975 C 0.72952 0.74181 0.61472 0.0
C976 C 0.78155 0.78726 0.66983 0.0
C977 C 0.71542 0.78513 0.59335 0.0
C978 C 0.73583 0.82888 0.60828 0.0
C979 C 0.79622 0.87269 0.65553 0.0
C980 C 0.83493 0.87226 0.68814 0.0
C981 C 0.77025 0.83014 0.6453 0.0
C982 C 0.84372 0.83041 0.71472 0.0
C983 C 0.81685 0.78838 0.70604 0.0
H984 H 0.54579 0.44208 0.55607 0.0
H985 H 0.48573 0.54709 0.6517 0.0
H986 H 0.40623 0.53369 0.61552 0.0
H987 H 0.35243 0.47913 0.56854 0.0
H988 H 0.4144 0.37709 0.47079 0.0
H989 H 0.4948 0.40323 0.49489 0.0
C990 C 0.51587 0.46362 0.56746 0.0
C991 C 0.52177 0.4953 0.60654 0.0
C992 C 0.47051 0.45609 0.54613 0.0
C993 C 0.48221 0.52227 0.62175 0.0
C994 C 0.43666 0.51456 0.6011 0.0
C995 C 0.38353 0.46504 0.55008 0.0
C996 C 0.37757 0.42567 0.51852 0.0
C997 C 0.43004 0.47998 0.56463 0.0
C998 C 0.41816 0.40752 0.49503 0.0
C999 C 0.46428 0.42198 0.50938 0.0
H1000 H 0.75027 0.31466 0.84255 0.0
H1001 H 0.68312 0.22482 0.9502 0.0
H1002 H 0.70999 0.15306 0.9085 0.0
H1003 H 0.76185 0.11653 0.84817 0.0
H1004 H 0.82845 0.2047 0.73931 0.0
H1005 H 0.79031 0.27623 0.77292 0.0
C1006 C 0.74053 0.2793 0.85604 0.0
C1007 C 0.71549 0.27496 0.89973 0.0
C1008 C 0.75589 0.23796 0.83162 0.0
C1009 C 0.70257 0.22908 0.91674 0.0
C1010 C 0.71834 0.188 0.89321 0.0
C1011 C 0.76688 0.15129 0.83113 0.0
C1012 C 0.79815 0.15569 0.79184 0.0
C1013 C 0.7463 0.19211 0.85159 0.0
C1014 C 0.8043 0.20061 0.76958 0.0
C1015 C 0.78314 0.24154 0.78926 0.0
H1016 H 0.00018 0.49959 0.06621 0.0
H1017 H 0.93976 0.641 0.07727 0.0
H1018 H 0.00958 0.67557 0.03679 0.0
H1019 H 0.08936 0.66658 0.00268 0.0
H1020 H 0.15759 0.52818 0.01145 0.0
H1021 H 0.08112 0.49149 0.03284 0.0
C1022 C 0.00155 0.5377 0.0581 0.0
C1023 C 0.96483 0.56768 0.07454 0.0
C1024 C 0.04253 0.55775 0.03585 0.0
C1025 C 0.96762 0.61718 0.06495 0.0
C1026 C 0.00728 0.63693 0.04125 0.0
C1027 C 0.08805 0.62825 0.0096 0.0
C1028 C 0.13045 0.60105 0.00716 0.0
C1029 C 0.04535 0.60767 0.02732 0.0
C1030 C 0.12639 0.55086 0.01298 0.0
C1031 C 0.08253 0.5295 0.02603 0.0
H1032 H 0.78352 0.76978 0.43193 0.0
H1033 H 0.6895 0.6707 0.3557 0.0
H1034 H 0.67627 0.73061 0.29355 0.0
H1035 H 0.68012 0.81342 0.26846 0.0
H1036 H 0.76093 0.91714 0.35236 0.0
H1037 H 0.79423 0.85241 0.40145 0.0
C1038 C 0.76149 0.76082 0.40078 0.0
C1039 C 0.7371 0.71619 0.39844 0.0
C1040 C 0.75282 0.79594 0.36579 0.0
C1041 C 0.7084 0.70495 0.35825 0.0
C1042 C 0.70117 0.73894 0.32246 0.0
C1043 C 0.70677 0.82152 0.29612 0.0
C1044 C 0.71834 0.86954 0.30694 0.0
C1045 C 0.72171 0.78496 0.32678 0.0
C1046 C 0.75209 0.88013 0.34331 0.0
C1047 C 0.77031 0.84323 0.37182 0.0
H1048 H 0.83555 0.52912 0.42445 0.0
H1049 H 0.88664 0.5695 0.56608 0.0
H1050 H 0.94686 0.50716 0.56253 0.0
H1051 H 0.97694 0.43564 0.52528 0.0
H1052 H 0.91585 0.38467 0.39164 0.0
H1053 H 0.87155 0.45988 0.38307 0.0
C1054 C 0.86106 0.52536 0.45377 0.0
C1055 C 0.85647 0.55346 0.49569 0.0
C1056 C 0.89519 0.4888 0.45191 0.0
C1057 C 0.88942 0.5482 0.53353 0.0
C1058 C 0.92417 0.51287 0.53138 0.0
C1059 C 0.95558 0.44199 0.49317 0.0
C1060 C 0.94969 0.40519 0.45895 0.0
C1061 C 0.92645 0.48227 0.49147 0.0
C1062 C 0.92134 0.41307 0.41794 0.0
C1063 C 0.89525 0.45551 0.41374 0.0
H1064 H 0.3897 0.93379 0.52111 0.0
H1065 H 0.3088 0.02932 0.61112 0.0
H1066 H 0.35232 0.09859 0.5776 0.0
H1067 H 0.40566 0.13247 0.51439 0.0
H1068 H 0.48916 0.03654 0.42743 0.0
H1069 H 0.45264 0.96727 0.4682 0.0
C1070 C 0.38248 0.96974 0.53419 0.0
C1071 C 0.34587 0.97645 0.56828 0.0
C1072 C 0.40795 0.00944 0.51504 0.0
C1073 C 0.33703 0.02314 0.58517 0.0
C1074 C 0.36164 0.06285 0.5657 0.0
C1075 C 0.41714 0.09639 0.50576 0.0
C1076 C 0.4503 0.08957 0.46824 0.0
C1077 C 0.39612 0.05656 0.52951 0.0
C1078 C 0.46437 0.04267 0.45674 0.0
C1079 C 0.44323 0.00302 0.47974 0.0
H1080 H 0.26403 0.13515 0.7765 0.0
H1081 H 0.33767 0.15636 0.64174 0.0
H1082 H 0.27341 0.20729 0.61342 0.0
H1083 H 0.19314 0.23802 0.62251 0.0
H1084 H 0.11156 0.20432 0.7495 0.0
H1085 H 0.18272 0.16885 0.7867 0.0
C1086 C 0.26676 0.15245 0.74168 0.0
C1087 C 0.30615 0.1428 0.71164 0.0
C1088 C 0.22869 0.18074 0.72486 0.0
C1089 C 0.30832 0.16393 0.66594 0.0
C1090 C 0.27162 0.19324 0.6497 0.0
C1091 C 0.19182 0.22513 0.65933 0.0
C1092 C 0.14788 0.22471 0.68384 0.0
C1093 C 0.23143 0.20133 0.67848 0.0
C1094 C 0.14559 0.20611 0.73068 0.0
C1095 C 0.18609 0.18516 0.7515 0.0
H1096 H 0.15822 0.96653 0.07736 0.0
H1097 H 0.10072 0.0761 0.98484 0.0
H1098 H 0.05025 0.01609 0.94411 0.0
H1099 H 0.03509 0.93146 0.92427 0.0
H1100 H 0.09493 0.82094 0.01337 0.0
H1101 H 0.13003 0.88219 0.06705 0.0
C1102 C 0.13365 0.97747 0.04918 0.0
C1103 C 0.13397 0.02565 0.03354 0.0
C1104 C 0.10517 0.94248 0.02511 0.0
C1105 C 0.10158 0.03927 0.99729 0.0
C1106 C 0.07275 0.00495 0.97382 0.0
C1107 C 0.05399 0.92088 0.9567 0.0
C1108 C 0.06249 0.87185 0.96484 0.0
C1109 C 0.07601 0.95625 0.98587 0.0
C1110 C 0.08734 0.85842 0.0067 0.0
C1111 C 0.10826 0.89352 0.03685 0.0
H1112 H 0.71116 0.35199 0.60441 0.0
H1113 H 0.78702 0.39739 0.7327 0.0
H1114 H 0.86012 0.35923 0.70375 0.0
H1115 H 0.90538 0.32762 0.63484 0.0
H1116 H 0.8285 0.27894 0.50828 0.0
H1117 H 0.75243 0.30182 0.54465 0.0
C1118 C 0.74343 0.35259 0.62649 0.0
C1119 C 0.74408 0.37845 0.67002 0.0
C1120 C 0.78511 0.32997 0.60994 0.0
C1121 C 0.78576 0.37812 0.69878 0.0
C1122 C 0.82762 0.35637 0.68219 0.0
C1123 C 0.87191 0.31995 0.61597 0.0
C1124 C 0.87285 0.30273 0.56825 0.0
C1125 C 0.82827 0.3341 0.63681 0.0
C1126 C 0.82886 0.29292 0.54467 0.0
C1127 C 0.78536 0.30653 0.56524 0.0
H1128 H 0.57187 0.46211 0.04263 0.0
H1129 H 0.65742 0.52703 0.93072 0.0
H1130 H 0.61812 0.60412 0.94445 0.0
H1131 H 0.57125 0.6555 -0.00022 0.0
H1132 H 0.49079 0.58831 0.11462 0.0
H1133 H 0.51821 0.51071 0.08962 0.0
C1134 C 0.58079 0.49264 0.02011 0.0
C1135 C 0.61749 0.48891 0.98594 0.0
C1136 C 0.55925 0.53681 0.02917 0.0
C1137 C 0.6292 0.52902 0.95738 0.0
C1138 C 0.60685 0.57314 0.96535 0.0
C1139 C 0.55736 0.62343 0.01734 0.0
C1140 C 0.52902 0.62799 0.05906 0.0
C1141 C 0.57324 0.57789 0.00263 0.0
C1142 C 0.51172 0.58622 0.08189 0.0
C1143 C 0.52742 0.54131 0.0676 0.0
H1144 H 0.30829 0.87009 0.77321 0.0
H1145 H 0.22793 0.9815 0.70295 0.0
H1146 H 0.15264 0.94463 0.72962 0.0
H1147 H 0.11034 0.88676 0.78156 0.0
H1148 H 0.18948 0.77393 0.85008 0.0
H1149 H 0.26461 0.80487 0.81519 0.0
C1150 C 0.27422 0.88567 0.76301 0.0
C1151 C 0.27361 0.92862 0.73661 0.0
C1152 C 0.23096 0.86441 0.77867 0.0
C1153 C 0.22931 0.94838 0.72329 0.0
C1154 C 0.18621 0.92756 0.73879 0.0
C1155 C 0.14395 0.86834 0.78755 0.0
C1156 C 0.14485 0.82829 0.81793 0.0
C1157 C 0.1867 0.88644 0.76765 0.0
C1158 C 0.18829 0.80459 0.82619 0.0
C1159 C 0.23118 0.82263 0.80682 0.0
H1160 H 0.28182 0.10045 0.21157 0.0
H1161 H 0.18852 0.16841 0.31406 0.0
H1162 H 0.25764 0.2053 0.35436 0.0
H1163 H 0.34466 0.20525 0.36964 0.0
H1164 H 0.43872 0.13551 0.26938 0.0
H1165 H 0.36975 0.11333 0.2185 0.0
C1166 C 0.27661 0.12436 0.24193 0.0
C1167 C 0.22992 0.13222 0.25937 0.0
C1168 C 0.31688 0.14431 0.26598 0.0
C1169 C 0.22386 0.16288 0.29907 0.0
C1170 C 0.26351 0.18344 0.32264 0.0
C1171 C 0.35004 0.18665 0.33575 0.0
C1172 C 0.39637 0.17169 0.32331 0.0
C1173 C 0.31018 0.17277 0.30761 0.0
C1174 C 0.40327 0.14758 0.27946 0.0
C1175 C 0.36377 0.13414 0.25084 0.0
loop_
_geom_bond_atom_site_label_1
_geom_bond_atom_site_label_2
_geom_bond_distance
_geom_bond_site_symmetry_2
_ccdc_geom_bond_type
In0 O1 2.294 . S
In0 O2 2.326 . S
In0 O6 2.266 . S
In0 O7 2.326 1_455 S
In0 O8 2.266 1_455 S
In0 O9 2.326 . S
In0 O11 2.294 1_455 S
In0 O12 2.326 1_455 S
O1 In0 2.294 . S
O1 C10 1.240 . S
O2 In0 2.326 . S
O2 C10 1.252 . S
C3 O6 1.252 1_655 S
C3 O7 1.260 . S
C4 O11 1.240 . S
C4 O12 1.252 . S
C5 O8 1.252 1_455 S
C5 O9 1.260 . S
O6 In0 2.266 . S
O6 C3 1.252 1_455 S
O7 In0 2.326 1_655 S
O7 C3 1.260 . S
O8 In0 2.266 1_655 S
O8 C5 1.252 1_655 S
O9 In0 2.326 . S
O9 C5 1.260 . S
C10 O1 1.240 . S
C10 O2 1.252 . S
O11 In0 2.294 1_655 S
O11 C4 1.240 . S
O12 In0 2.326 1_655 S
O12 C4 1.252 . S
In13 O14 2.294 1_455 S
In13 O15 2.326 . S
In13 O19 2.266 1_455 S
In13 O20 2.326 1_455 S
In13 O21 2.266 . S
In13 O22 2.326 . S
In13 O24 2.294 . S
In13 O25 2.326 1_455 S
O14 In13 2.294 1_655 S
O14 C23 1.240 1_655 S
O15 In13 2.326 . S
O15 C23 1.252 . S
C16 O19 1.252 . S
C16 O20 1.260 . S
C17 O24 1.240 1_655 S
C17 O25 1.252 . S
C18 O21 1.252 . S
C18 O22 1.260 . S
O19 In13 2.266 1_655 S
O19 C16 1.252 . S
O20 In13 2.326 1_655 S
O20 C16 1.260 . S
O21 In13 2.266 . S
O21 C18 1.252 . S
O22 In13 2.326 . S
O22 C18 1.260 . S
C23 O14 1.240 1_455 S
C23 O15 1.252 . S
O24 In13 2.294 . S
O24 C17 1.240 1_455 S
O25 In13 2.326 1_655 S
O25 C17 1.252 . S
In26 O27 2.294 . S
In26 O28 2.326 . S
In26 O32 2.266 . S
In26 O33 2.326 . S
In26 O34 2.266 . S
In26 O35 2.326 . S
In26 O37 2.294 . S
In26 O38 2.326 . S
O27 In26 2.294 . S
O27 C36 1.240 . S
O28 In26 2.326 . S
O28 C36 1.252 . S
C29 O32 1.252 . S
C29 O33 1.260 . S
C30 O37 1.240 . S
C30 O38 1.252 . S
C31 O34 1.252 . S
C31 O35 1.260 . S
O32 In26 2.266 . S
O32 C29 1.252 . S
O33 In26 2.326 . S
O33 C29 1.260 . S
O34 In26 2.266 . S
O34 C31 1.252 . S
O35 In26 2.326 . S
O35 C31 1.260 . S
C36 O27 1.240 . S
C36 O28 1.252 . S
O37 In26 2.294 . S
O37 C30 1.240 . S
O38 In26 2.326 . S
O38 C30 1.252 . S
In39 O40 2.294 . S
In39 O41 2.326 . S
In39 O45 2.266 . S
In39 O46 2.326 . S
In39 O47 2.266 . S
In39 O48 2.326 . S
In39 O50 2.294 . S
In39 O51 2.326 . S
O40 In39 2.294 . S
O40 C49 1.240 . S
O41 In39 2.326 . S
O41 C49 1.252 . S
C42 O45 1.252 . S
C42 O46 1.260 . S
C43 O50 1.240 . S
C43 O51 1.252 . S
C44 O47 1.252 . S
C44 O48 1.260 . S
O45 In39 2.266 . S
O45 C42 1.252 . S
O46 In39 2.326 . S
O46 C42 1.260 . S
O47 In39 2.266 . S
O47 C44 1.252 . S
O48 In39 2.326 . S
O48 C44 1.260 . S
C49 O40 1.240 . S
C49 O41 1.252 . S
O50 In39 2.294 . S
O50 C43 1.240 . S
O51 In39 2.326 . S
O51 C43 1.252 . S
In52 O53 2.294 1_545 S
In52 O54 2.326 1_545 S
In52 O58 2.266 1_545 S
In52 O59 2.326 . S
In52 O60 2.266 . S
In52 O61 2.326 1_545 S
In52 O63 2.294 . S
In52 O64 2.326 . S
O53 In52 2.294 1_565 S
O53 C62 1.240 . S
O54 In52 2.326 1_565 S
O54 C62 1.252 . S
C55 O58 1.252 1_545 S
C55 O59 1.260 . S
C56 O63 1.240 . S
C56 O64 1.252 . S
C57 O60 1.252 1_565 S
C57 O61 1.260 . S
O58 In52 2.266 1_565 S
O58 C55 1.252 1_565 S
O59 In52 2.326 . S
O59 C55 1.260 . S
O60 In52 2.266 . S
O60 C57 1.252 1_545 S
O61 In52 2.326 1_565 S
O61 C57 1.260 . S
C62 O53 1.240 . S
C62 O54 1.252 . S
O63 In52 2.294 . S
O63 C56 1.240 . S
O64 In52 2.326 . S
O64 C56 1.252 . S
In65 O66 2.294 . S
In65 O67 2.326 . S
In65 O71 2.266 . S
In65 O72 2.326 . S
In65 O73 2.266 . S
In65 O74 2.326 . S
In65 O76 2.294 . S
In65 O77 2.326 . S
O66 In65 2.294 . S
O66 C75 1.240 . S
O67 In65 2.326 . S
O67 C75 1.252 . S
C68 O71 1.252 . S
C68 O72 1.260 . S
C69 O76 1.240 . S
C69 O77 1.252 . S
C70 O73 1.252 . S
C70 O74 1.260 . S
O71 In65 2.266 . S
O71 C68 1.252 . S
O72 In65 2.326 . S
O72 C68 1.260 . S
O73 In65 2.266 . S
O73 C70 1.252 . S
O74 In65 2.326 . S
O74 C70 1.260 . S
C75 O66 1.240 . S
C75 O67 1.252 . S
O76 In65 2.294 . S
O76 C69 1.240 . S
O77 In65 2.326 . S
O77 C69 1.252 . S
In78 O79 2.294 1_545 S
In78 O80 2.326 1_545 S
In78 O84 2.266 1_545 S
In78 O85 2.326 . S
In78 O86 2.266 . S
In78 O87 2.326 1_545 S
In78 O89 2.294 . S
In78 O90 2.326 . S
O79 In78 2.294 1_565 S
O79 C88 1.240 . S
O80 In78 2.326 1_565 S
O80 C88 1.252 . S
C81 O84 1.252 1_545 S
C81 O85 1.260 . S
C82 O89 1.240 . S
C82 O90 1.252 . S
C83 O86 1.252 1_565 S
C83 O87 1.260 . S
O84 In78 2.266 1_565 S
O84 C81 1.252 1_565 S
O85 In78 2.326 . S
O85 C81 1.260 . S
O86 In78 2.266 . S
O86 C83 1.252 1_545 S
O87 In78 2.326 1_565 S
O87 C83 1.260 . S
C88 O79 1.240 . S
C88 O80 1.252 . S
O89 In78 2.294 . S
O89 C82 1.240 . S
O90 In78 2.326 . S
O90 C82 1.252 . S
In91 O92 2.294 . S
In91 O93 2.326 . S
In91 O97 2.266 . S
In91 O98 2.326 1_554 S
In91 O99 2.266 1_554 S
In91 O100 2.326 . S
In91 O102 2.294 1_554 S
In91 O103 2.326 1_554 S
O92 In91 2.294 . S
O92 C101 1.240 . S
O93 In91 2.326 . S
O93 C101 1.252 . S
C94 O97 1.252 1_556 S
C94 O98 1.260 . S
C95 O102 1.240 . S
C95 O103 1.252 . S
C96 O99 1.252 1_554 S
C96 O100 1.260 . S
O97 In91 2.266 . S
O97 C94 1.252 1_554 S
O98 In91 2.326 1_556 S
O98 C94 1.260 . S
O99 In91 2.266 1_556 S
O99 C96 1.252 1_556 S
O100 In91 2.326 . S
O100 C96 1.260 . S
C101 O92 1.240 . S
C101 O93 1.252 . S
O102 In91 2.294 1_556 S
O102 C95 1.240 . S
O103 In91 2.326 1_556 S
O103 C95 1.252 . S
In104 O105 2.294 . S
In104 O106 2.326 . S
In104 O110 2.266 . S
In104 O111 2.326 1_554 S
In104 O112 2.266 1_554 S
In104 O113 2.326 . S
In104 O115 2.294 1_554 S
In104 O116 2.326 1_554 S
O105 In104 2.294 . S
O105 C114 1.240 . S
O106 In104 2.326 . S
O106 C114 1.252 . S
C107 O110 1.252 1_556 S
C107 O111 1.260 . S
C108 O115 1.240 . S
C108 O116 1.252 . S
C109 O112 1.252 1_554 S
C109 O113 1.260 . S
O110 In104 2.266 . S
O110 C107 1.252 1_554 S
O111 In104 2.326 1_556 S
O111 C107 1.260 . S
O112 In104 2.266 1_556 S
O112 C109 1.252 1_556 S
O113 In104 2.326 . S
O113 C109 1.260 . S
C114 O105 1.240 . S
C114 O106 1.252 . S
O115 In104 2.294 1_556 S
O115 C108 1.240 . S
O116 In104 2.326 1_556 S
O116 C108 1.252 . S
In117 O118 2.294 . S
In117 O119 2.326 . S
In117 O123 2.266 . S
In117 O124 2.326 . S
In117 O125 2.266 . S
In117 O126 2.326 . S
In117 O128 2.294 . S
In117 O129 2.326 . S
O118 In117 2.294 . S
O118 C127 1.240 . S
O119 In117 2.326 . S
O119 C127 1.252 . S
C120 O123 1.252 . S
C120 O124 1.260 . S
C121 O128 1.240 . S
C121 O129 1.252 . S
C122 O125 1.252 . S
C122 O126 1.260 . S
O123 In117 2.266 . S
O123 C120 1.252 . S
O124 In117 2.326 . S
O124 C120 1.260 . S
O125 In117 2.266 . S
O125 C122 1.252 . S
O126 In117 2.326 . S
O126 C122 1.260 . S
C127 O118 1.240 . S
C127 O119 1.252 . S
O128 In117 2.294 . S
O128 C121 1.240 . S
O129 In117 2.326 . S
O129 C121 1.252 . S
In130 O131 2.294 . S
In130 O132 2.326 . S
In130 O136 2.266 . S
In130 O137 2.326 . S
In130 O138 2.266 . S
In130 O139 2.326 . S
In130 O141 2.294 . S
In130 O142 2.326 . S
O131 In130 2.294 . S
O131 C140 1.240 . S
O132 In130 2.326 . S
O132 C140 1.252 . S
C133 O136 1.252 . S
C133 O137 1.260 . S
C134 O141 1.240 . S
C134 O142 1.252 . S
C135 O138 1.252 . S
C135 O139 1.260 . S
O136 In130 2.266 . S
O136 C133 1.252 . S
O137 In130 2.326 . S
O137 C133 1.260 . S
O138 In130 2.266 . S
O138 C135 1.252 . S
O139 In130 2.326 . S
O139 C135 1.260 . S
C140 O131 1.240 . S
C140 O132 1.252 . S
O141 In130 2.294 . S
O141 C134 1.240 . S
O142 In130 2.326 . S
O142 C134 1.252 . S
In143 O144 2.294 . S
In143 O145 2.326 . S
In143 O149 2.266 . S
In143 O150 2.326 . S
In143 O151 2.266 . S
In143 O152 2.326 . S
In143 O154 2.294 . S
In143 O155 2.326 . S
O144 In143 2.294 . S
O144 C153 1.240 . S
O145 In143 2.326 . S
O145 C153 1.252 . S
C146 O149 1.252 . S
C146 O150 1.260 . S
C147 O154 1.240 . S
C147 O155 1.252 . S
C148 O151 1.252 . S
C148 O152 1.260 . S
O149 In143 2.266 . S
O149 C146 1.252 . S
O150 In143 2.326 . S
O150 C146 1.260 . S
O151 In143 2.266 . S
O151 C148 1.252 . S
O152 In143 2.326 . S
O152 C148 1.260 . S
C153 O144 1.240 . S
C153 O145 1.252 . S
O154 In143 2.294 . S
O154 C147 1.240 . S
O155 In143 2.326 . S
O155 C147 1.252 . S
H156 C164 0.930 . S
H157 C167 0.930 . S
H158 C169 0.930 . S
H159 C170 0.970 . S
H160 C170 0.970 . S
H161 C172 0.930 . S
H162 C174 0.930 . S
H163 C176 0.930 . S
C164 H156 0.930 . S
C164 C165 1.382 . S
C164 C166 1.426 . S
C165 C164 1.382 . S
C165 C169 1.389 . S
C166 C164 1.426 . S
C166 C167 1.375 . S
C166 C170 1.532 . S
C167 H157 0.930 . S
C167 C166 1.375 . S
C167 C168 1.416 . S
C168 C167 1.416 . S
C168 C169 1.371 . S
C169 H158 0.930 . S
C169 C165 1.389 . S
C169 C168 1.371 . S
C170 H159 0.970 . S
C170 H160 0.970 . S
C170 C166 1.532 . S
C170 C171 1.499 . S
C171 C170 1.499 . S
C171 C172 1.370 1_455 S
C171 C176 1.415 1_455 S
C172 H161 0.930 . S
C172 C171 1.370 1_655 S
C172 C173 1.407 . S
C173 C172 1.407 . S
C173 C174 1.365 . S
C174 H162 0.930 . S
C174 C173 1.365 . S
C174 C175 1.393 . S
C175 C174 1.393 . S
C175 C176 1.387 . S
C176 H163 0.930 . S
C176 C171 1.415 1_655 S
C176 C175 1.387 . S
H177 C185 0.930 . S
H178 C188 0.930 . S
H179 C190 0.930 . S
H180 C191 0.970 . S
H181 C191 0.970 . S
H182 C193 0.930 . S
H183 C195 0.930 . S
H184 C197 0.930 1_455 S
C185 H177 0.930 . S
C185 C186 1.382 . S
C185 C187 1.426 . S
C186 C185 1.382 . S
C186 C190 1.389 . S
C187 C185 1.426 . S
C187 C188 1.375 . S
C187 C191 1.532 . S
C188 H178 0.930 . S
C188 C187 1.375 . S
C188 C189 1.416 . S
C189 C188 1.416 . S
C189 C190 1.371 . S
C190 H179 0.930 . S
C190 C186 1.389 . S
C190 C189 1.371 . S
C191 H180 0.970 . S
C191 H181 0.970 . S
C191 C187 1.532 . S
C191 C192 1.499 . S
C192 C191 1.499 . S
C192 C193 1.370 1_455 S
C192 C197 1.415 1_455 S
C193 H182 0.930 . S
C193 C192 1.370 1_655 S
C193 C194 1.407 . S
C194 C193 1.407 . S
C194 C195 1.365 . S
C195 H183 0.930 . S
C195 C194 1.365 . S
C195 C196 1.393 . S
C196 C195 1.393 . S
C196 C197 1.387 . S
C197 H184 0.930 1_655 S
C197 C192 1.415 1_655 S
C197 C196 1.387 . S
H198 C206 0.930 . S
H199 C209 0.930 . S
H200 C211 0.930 . S
H201 C212 0.970 . S
H202 C212 0.970 . S
H203 C214 0.930 . S
H204 C216 0.930 . S
H205 C218 0.930 . S
C206 H198 0.930 . S
C206 C207 1.382 . S
C206 C208 1.426 . S
C207 C206 1.382 . S
C207 C211 1.389 . S
C208 C206 1.426 . S
C208 C209 1.375 . S
C208 C212 1.532 . S
C209 H199 0.930 . S
C209 C208 1.375 . S
C209 C210 1.416 . S
C210 C209 1.416 . S
C210 C211 1.371 . S
C211 H200 0.930 . S
C211 C207 1.389 . S
C211 C210 1.371 . S
C212 H201 0.970 . S
C212 H202 0.970 . S
C212 C208 1.532 . S
C212 C213 1.499 . S
C213 C212 1.499 . S
C213 C214 1.370 . S
C213 C218 1.415 . S
C214 H203 0.930 . S
C214 C213 1.370 . S
C214 C215 1.407 . S
C215 C214 1.407 . S
C215 C216 1.365 . S
C216 H204 0.930 . S
C216 C215 1.365 . S
C216 C217 1.393 . S
C217 C216 1.393 . S
C217 C218 1.387 . S
C218 H205 0.930 . S
C218 C213 1.415 . S
C218 C217 1.387 . S
H219 C227 0.930 . S
H220 C230 0.930 . S
H221 C232 0.930 . S
H222 C233 0.970 . S
H223 C233 0.970 . S
H224 C235 0.930 . S
H225 C237 0.930 . S
H226 C239 0.930 . S
C227 H219 0.930 . S
C227 C228 1.382 . S
C227 C229 1.426 . S
C228 C227 1.382 . S
C228 C232 1.389 . S
C229 C227 1.426 . S
C229 C230 1.375 . S
C229 C233 1.532 . S
C230 H220 0.930 . S
C230 C229 1.375 . S
C230 C231 1.416 . S
C231 C230 1.416 . S
C231 C232 1.371 . S
C232 H221 0.930 . S
C232 C228 1.389 . S
C232 C231 1.371 . S
C233 H222 0.970 . S
C233 H223 0.970 . S
C233 C229 1.532 . S
C233 C234 1.499 . S
C234 C233 1.499 . S
C234 C235 1.370 . S
C234 C239 1.415 . S
C235 H224 0.930 . S
C235 C234 1.370 . S
C235 C236 1.407 . S
C236 C235 1.407 . S
C236 C237 1.365 . S
C237 H225 0.930 . S
C237 C236 1.365 . S
C237 C238 1.393 . S
C238 C237 1.393 . S
C238 C239 1.387 . S
C239 H226 0.930 . S
C239 C234 1.415 . S
C239 C238 1.387 . S
H240 C248 0.930 . S
H241 C251 0.930 . S
H242 C253 0.930 . S
H243 C254 0.970 . S
H244 C254 0.970 . S
H245 C256 0.930 . S
H246 C258 0.930 . S
H247 C260 0.930 . S
C248 H240 0.930 . S
C248 C249 1.382 . S
C248 C250 1.426 1_545 S
C249 C248 1.382 . S
C249 C253 1.389 . S
C250 C248 1.426 1_565 S
C250 C251 1.375 1_565 S
C250 C254 1.532 . S
C251 H241 0.930 . S
C251 C250 1.375 1_545 S
C251 C252 1.416 . S
C252 C251 1.416 . S
C252 C253 1.371 . S
C253 H242 0.930 . S
C253 C249 1.389 . S
C253 C252 1.371 . S
C254 H243 0.970 . S
C254 H244 0.970 . S
C254 C250 1.532 . S
C254 C255 1.499 . S
C255 C254 1.499 . S
C255 C256 1.370 . S
C255 C260 1.415 . S
C256 H245 0.930 . S
C256 C255 1.370 . S
C256 C257 1.407 . S
C257 C256 1.407 . S
C257 C258 1.365 . S
C258 H246 0.930 . S
C258 C257 1.365 . S
C258 C259 1.393 . S
C259 C258 1.393 . S
C259 C260 1.387 . S
C260 H247 0.930 . S
C260 C255 1.415 . S
C260 C259 1.387 . S
H261 C269 0.930 . S
H262 C272 0.930 . S
H263 C274 0.930 . S
H264 C275 0.970 . S
H265 C275 0.970 . S
H266 C277 0.930 . S
H267 C279 0.930 . S
H268 C281 0.930 . S
C269 H261 0.930 . S
C269 C270 1.382 . S
C269 C271 1.426 . S
C270 C269 1.382 . S
C270 C274 1.389 . S
C271 C269 1.426 . S
C271 C272 1.375 . S
C271 C275 1.532 . S
C272 H262 0.930 . S
C272 C271 1.375 . S
C272 C273 1.416 . S
C273 C272 1.416 . S
C273 C274 1.371 . S
C274 H263 0.930 . S
C274 C270 1.389 . S
C274 C273 1.371 . S
C275 H264 0.970 . S
C275 H265 0.970 . S
C275 C271 1.532 . S
C275 C276 1.499 . S
C276 C275 1.499 . S
C276 C277 1.370 . S
C276 C281 1.415 . S
C277 H266 0.930 . S
C277 C276 1.370 . S
C277 C278 1.407 . S
C278 C277 1.407 . S
C278 C279 1.365 . S
C279 H267 0.930 . S
C279 C278 1.365 . S
C279 C280 1.393 . S
C280 C279 1.393 . S
C280 C281 1.387 . S
C281 H268 0.930 . S
C281 C276 1.415 . S
C281 C280 1.387 . S
H282 C290 0.930 . S
H283 C293 0.930 . S
H284 C295 0.930 . S
H285 C296 0.970 . S
H286 C296 0.970 . S
H287 C298 0.930 . S
H288 C300 0.930 . S
H289 C302 0.930 . S
C290 H282 0.930 . S
C290 C291 1.382 . S
C290 C292 1.426 1_565 S
C291 C290 1.382 . S
C291 C295 1.389 . S
C292 C290 1.426 1_545 S
C292 C293 1.375 1_545 S
C292 C296 1.532 . S
C293 H283 0.930 . S
C293 C292 1.375 1_565 S
C293 C294 1.416 . S
C294 C293 1.416 . S
C294 C295 1.371 . S
C295 H284 0.930 . S
C295 C291 1.389 . S
C295 C294 1.371 . S
C296 H285 0.970 . S
C296 H286 0.970 . S
C296 C292 1.532 . S
C296 C297 1.499 . S
C297 C296 1.499 . S
C297 C298 1.370 . S
C297 C302 1.415 . S
C298 H287 0.930 . S
C298 C297 1.370 . S
C298 C299 1.407 . S
C299 C298 1.407 . S
C299 C300 1.365 . S
C300 H288 0.930 . S
C300 C299 1.365 . S
C300 C301 1.393 . S
C301 C300 1.393 . S
C301 C302 1.387 . S
C302 H289 0.930 . S
C302 C297 1.415 . S
C302 C301 1.387 . S
H303 C311 0.930 . S
H304 C314 0.930 . S
H305 C316 0.930 . S
H306 C317 0.970 . S
H307 C317 0.970 . S
H308 C319 0.930 . S
H309 C321 0.930 . S
H310 C323 0.930 . S
C311 H303 0.930 . S
C311 C312 1.382 . S
C311 C313 1.426 . S
C312 C311 1.382 . S
C312 C316 1.389 . S
C313 C311 1.426 . S
C313 C314 1.375 . S
C313 C317 1.532 . S
C314 H304 0.930 . S
C314 C313 1.375 . S
C314 C315 1.416 . S
C315 C314 1.416 . S
C315 C316 1.371 . S
C316 H305 0.930 . S
C316 C312 1.389 . S
C316 C315 1.371 . S
C317 H306 0.970 . S
C317 H307 0.970 . S
C317 C313 1.532 . S
C317 C318 1.499 . S
C318 C317 1.499 . S
C318 C319 1.370 1_554 S
C318 C323 1.415 1_554 S
C319 H308 0.930 . S
C319 C318 1.370 1_556 S
C319 C320 1.407 . S
C320 C319 1.407 . S
C320 C321 1.365 . S
C321 H309 0.930 . S
C321 C320 1.365 . S
C321 C322 1.393 . S
C322 C321 1.393 . S
C322 C323 1.387 . S
C323 H310 0.930 . S
C323 C318 1.415 1_556 S
C323 C322 1.387 . S
H324 C332 0.930 . S
H325 C335 0.930 . S
H326 C337 0.930 . S
H327 C338 0.970 . S
H328 C338 0.970 . S
H329 C340 0.930 . S
H330 C342 0.930 . S
H331 C344 0.930 . S
C332 H324 0.930 . S
C332 C333 1.382 . S
C332 C334 1.426 . S
C333 C332 1.382 . S
C333 C337 1.389 . S
C334 C332 1.426 . S
C334 C335 1.375 . S
C334 C338 1.532 . S
C335 H325 0.930 . S
C335 C334 1.375 . S
C335 C336 1.416 . S
C336 C335 1.416 . S
C336 C337 1.371 . S
C337 H326 0.930 . S
C337 C333 1.389 . S
C337 C336 1.371 . S
C338 H327 0.970 . S
C338 H328 0.970 . S
C338 C334 1.532 . S
C338 C339 1.499 . S
C339 C338 1.499 . S
C339 C340 1.370 1_554 S
C339 C344 1.415 1_554 S
C340 H329 0.930 . S
C340 C339 1.370 1_556 S
C340 C341 1.407 . S
C341 C340 1.407 . S
C341 C342 1.365 . S
C342 H330 0.930 . S
C342 C341 1.365 . S
C342 C343 1.393 . S
C343 C342 1.393 . S
C343 C344 1.387 . S
C344 H331 0.930 . S
C344 C339 1.415 1_556 S
C344 C343 1.387 . S
H345 C353 0.930 . S
H346 C356 0.930 . S
H347 C358 0.930 . S
H348 C359 0.970 . S
H349 C359 0.970 . S
H350 C361 0.930 . S
H351 C363 0.930 . S
H352 C365 0.930 . S
C353 H345 0.930 . S
C353 C354 1.382 . S
C353 C355 1.426 . S
C354 C353 1.382 . S
C354 C358 1.389 . S
C355 C353 1.426 . S
C355 C356 1.375 . S
C355 C359 1.532 . S
C356 H346 0.930 . S
C356 C355 1.375 . S
C356 C357 1.416 . S
C357 C356 1.416 . S
C357 C358 1.371 . S
C358 H347 0.930 . S
C358 C354 1.389 . S
C358 C357 1.371 . S
C359 H348 0.970 . S
C359 H349 0.970 . S
C359 C355 1.532 . S
C359 C360 1.499 . S
C360 C359 1.499 . S
C360 C361 1.370 . S
C360 C365 1.415 . S
C361 H350 0.930 . S
C361 C360 1.370 . S
C361 C362 1.407 . S
C362 C361 1.407 . S
C362 C363 1.365 . S
C363 H351 0.930 . S
C363 C362 1.365 . S
C363 C364 1.393 . S
C364 C363 1.393 . S
C364 C365 1.387 . S
C365 H352 0.930 . S
C365 C360 1.415 . S
C365 C364 1.387 . S
H366 C374 0.930 . S
H367 C377 0.930 . S
H368 C379 0.930 . S
H369 C380 0.970 . S
H370 C380 0.970 . S
H371 C382 0.930 . S
H372 C384 0.930 . S
H373 C386 0.930 . S
C374 H366 0.930 . S
C374 C375 1.382 . S
C374 C376 1.426 . S
C375 C374 1.382 . S
C375 C379 1.389 . S
C376 C374 1.426 . S
C376 C377 1.375 . S
C376 C380 1.532 . S
C377 H367 0.930 . S
C377 C376 1.375 . S
C377 C378 1.416 . S
C378 C377 1.416 . S
C378 C379 1.371 . S
C379 H368 0.930 . S
C379 C375 1.389 . S
C379 C378 1.371 . S
C380 H369 0.970 . S
C380 H370 0.970 . S
C380 C376 1.532 . S
C380 C381 1.499 . S
C381 C380 1.499 . S
C381 C382 1.370 . S
C381 C386 1.415 . S
C382 H371 0.930 . S
C382 C381 1.370 . S
C382 C383 1.407 . S
C383 C382 1.407 . S
C383 C384 1.365 . S
C384 H372 0.930 . S
C384 C383 1.365 . S
C384 C385 1.393 . S
C385 C384 1.393 . S
C385 C386 1.387 . S
C386 H373 0.930 . S
C386 C381 1.415 . S
C386 C385 1.387 . S
H387 C395 0.930 . S
H388 C398 0.930 . S
H389 C400 0.930 . S
H390 C401 0.970 . S
H391 C401 0.970 . S
H392 C403 0.930 . S
H393 C405 0.930 . S
H394 C407 0.930 . S
C395 H387 0.930 . S
C395 C396 1.382 . S
C395 C397 1.426 . S
C396 C395 1.382 . S
C396 C400 1.389 . S
C397 C395 1.426 . S
C397 C398 1.375 . S
C397 C401 1.532 . S
C398 H388 0.930 . S
C398 C397 1.375 . S
C398 C399 1.416 . S
C399 C398 1.416 . S
C399 C400 1.371 . S
C400 H389 0.930 . S
C400 C396 1.389 . S
C400 C399 1.371 . S
C401 H390 0.970 . S
C401 H391 0.970 . S
C401 C397 1.532 . S
C401 C402 1.499 . S
C402 C401 1.499 . S
C402 C403 1.370 . S
C402 C407 1.415 . S
C403 H392 0.930 . S
C403 C402 1.370 . S
C403 C404 1.407 . S
C404 C403 1.407 . S
C404 C405 1.365 . S
C405 H393 0.930 . S
C405 C404 1.365 . S
C405 C406 1.393 . S
C406 C405 1.393 . S
C406 C407 1.387 . S
C407 H394 0.930 . S
C407 C402 1.415 . S
C407 C406 1.387 . S
H408 C414 0.930 1_554 S
H409 C417 0.930 . S
H410 C418 0.930 . S
H411 C419 0.930 1_655 S
H412 C422 0.930 . S
H413 C423 0.930 . S
C414 H408 0.930 1_556 S
C414 C415 1.355 1_556 S
C414 C416 1.415 . S
C415 C414 1.355 1_554 S
C415 C417 1.419 1_455 S
C416 C414 1.415 . S
C416 C421 1.425 . S
C416 C423 1.409 . S
C417 H409 0.930 . S
C417 C415 1.419 1_655 S
C417 C418 1.362 1_554 S
C418 H410 0.930 . S
C418 C417 1.362 1_556 S
C418 C421 1.409 1_655 S
C419 H411 0.930 1_455 S
C419 C420 1.355 . S
C419 C421 1.415 . S
C420 C419 1.355 . S
C420 C422 1.419 . S
C421 C416 1.425 . S
C421 C418 1.409 1_455 S
C421 C419 1.415 . S
C422 H412 0.930 . S
C422 C420 1.419 . S
C422 C423 1.362 . S
C423 H413 0.930 . S
C423 C416 1.409 . S
C423 C422 1.362 . S
H424 C430 0.930 . S
H425 C433 0.930 . S
H426 C434 0.930 . S
H427 C435 0.930 . S
H428 C438 0.930 . S
H429 C439 0.930 . S
C430 H424 0.930 . S
C430 C431 1.355 . S
C430 C432 1.415 . S
C431 C430 1.355 . S
C431 C433 1.419 . S
C432 C430 1.415 . S
C432 C437 1.425 . S
C432 C439 1.409 . S
C433 H425 0.930 . S
C433 C431 1.419 . S
C433 C434 1.362 . S
C434 H426 0.930 . S
C434 C433 1.362 . S
C434 C437 1.409 . S
C435 H427 0.930 . S
C435 C436 1.355 . S
C435 C437 1.415 . S
C436 C435 1.355 . S
C436 C438 1.419 . S
C437 C432 1.425 . S
C437 C434 1.409 . S
C437 C435 1.415 . S
C438 H428 0.930 . S
C438 C436 1.419 . S
C438 C439 1.362 . S
C439 H429 0.930 . S
C439 C432 1.409 . S
C439 C438 1.362 . S
H440 C446 0.930 . S
H441 C449 0.930 . S
H442 C450 0.930 . S
H443 C451 0.930 . S
H444 C454 0.930 . S
H445 C455 0.930 . S
C446 H440 0.930 . S
C446 C447 1.355 . S
C446 C448 1.415 . S
C447 C446 1.355 . S
C447 C449 1.419 . S
C448 C446 1.415 . S
C448 C453 1.425 . S
C448 C455 1.409 . S
C449 H441 0.930 . S
C449 C447 1.419 . S
C449 C450 1.362 . S
C450 H442 0.930 . S
C450 C449 1.362 . S
C450 C453 1.409 . S
C451 H443 0.930 . S
C451 C452 1.355 . S
C451 C453 1.415 . S
C452 C451 1.355 . S
C452 C454 1.419 . S
C453 C448 1.425 . S
C453 C450 1.409 . S
C453 C451 1.415 . S
C454 H444 0.930 . S
C454 C452 1.419 . S
C454 C455 1.362 . S
C455 H445 0.930 . S
C455 C448 1.409 . S
C455 C454 1.362 . S
H456 C462 0.930 . S
H457 C465 0.930 . S
H458 C466 0.930 . S
H459 C467 0.930 . S
H460 C470 0.930 . S
H461 C471 0.930 . S
C462 H456 0.930 . S
C462 C463 1.355 . S
C462 C464 1.415 . S
C463 C462 1.355 . S
C463 C465 1.419 . S
C464 C462 1.415 . S
C464 C469 1.425 . S
C464 C471 1.409 . S
C465 H457 0.930 . S
C465 C463 1.419 . S
C465 C466 1.362 . S
C466 H458 0.930 . S
C466 C465 1.362 . S
C466 C469 1.409 . S
C467 H459 0.930 . S
C467 C468 1.355 . S
C467 C469 1.415 . S
C468 C467 1.355 . S
C468 C470 1.419 . S
C469 C464 1.425 . S
C469 C466 1.409 . S
C469 C467 1.415 . S
C470 H460 0.930 . S
C470 C468 1.419 . S
C470 C471 1.362 . S
C471 H461 0.930 . S
C471 C464 1.409 . S
C471 C470 1.362 . S
H472 C478 0.930 . S
H473 C481 0.930 . S
H474 C482 0.930 . S
H475 C483 0.930 1_655 S
H476 C486 0.930 . S
H477 C487 0.930 . S
C478 H472 0.930 . S
C478 C479 1.355 . S
C478 C480 1.415 . S
C479 C478 1.355 . S
C479 C481 1.419 1_455 S
C480 C478 1.415 . S
C480 C485 1.425 . S
C480 C487 1.409 . S
C481 H473 0.930 . S
C481 C479 1.419 1_655 S
C481 C482 1.362 . S
C482 H474 0.930 . S
C482 C481 1.362 . S
C482 C485 1.409 1_655 S
C483 H475 0.930 1_455 S
C483 C484 1.355 . S
C483 C485 1.415 . S
C484 C483 1.355 . S
C484 C486 1.419 . S
C485 C480 1.425 . S
C485 C482 1.409 1_455 S
C485 C483 1.415 . S
C486 H476 0.930 . S
C486 C484 1.419 . S
C486 C487 1.362 . S
C487 H477 0.930 . S
C487 C480 1.409 . S
C487 C486 1.362 . S
H488 C494 0.930 . S
H489 C497 0.930 . S
H490 C498 0.930 . S
H491 C499 0.930 . S
H492 C502 0.930 . S
H493 C503 0.930 . S
C494 H488 0.930 . S
C494 C495 1.355 . S
C494 C496 1.415 . S
C495 C494 1.355 . S
C495 C497 1.419 . S
C496 C494 1.415 . S
C496 C501 1.425 . S
C496 C503 1.409 . S
C497 H489 0.930 . S
C497 C495 1.419 . S
C497 C498 1.362 . S
C498 H490 0.930 . S
C498 C497 1.362 . S
C498 C501 1.409 . S
C499 H491 0.930 . S
C499 C500 1.355 . S
C499 C501 1.415 . S
C500 C499 1.355 . S
C500 C502 1.419 . S
C501 C496 1.425 . S
C501 C498 1.409 . S
C501 C499 1.415 . S
C502 H492 0.930 . S
C502 C500 1.419 . S
C502 C503 1.362 . S
C503 H493 0.930 . S
C503 C496 1.409 . S
C503 C502 1.362 . S
H504 C510 0.930 1_556 S
H505 C513 0.930 1_556 S
H506 C514 0.930 . S
H507 C515 0.930 . S
H508 C518 0.930 . S
H509 C519 0.930 . S
C510 H504 0.930 1_554 S
C510 C511 1.355 1_554 S
C510 C512 1.415 . S
C511 C510 1.355 1_556 S
C511 C513 1.419 1_556 S
C512 C510 1.415 . S
C512 C517 1.425 . S
C512 C519 1.409 . S
C513 H505 0.930 1_554 S
C513 C511 1.419 1_554 S
C513 C514 1.362 . S
C514 H506 0.930 . S
C514 C513 1.362 . S
C514 C517 1.409 . S
C515 H507 0.930 . S
C515 C516 1.355 . S
C515 C517 1.415 . S
C516 C515 1.355 . S
C516 C518 1.419 . S
C517 C512 1.425 . S
C517 C514 1.409 . S
C517 C515 1.415 . S
C518 H508 0.930 . S
C518 C516 1.419 . S
C518 C519 1.362 . S
C519 H509 0.930 . S
C519 C512 1.409 . S
C519 C518 1.362 . S
H520 C526 0.930 . S
H521 C529 0.930 . S
H522 C530 0.930 . S
H523 C531 0.930 . S
H524 C534 0.930 . S
H525 C535 0.930 . S
C526 H520 0.930 . S
C526 C527 1.355 . S
C526 C528 1.415 . S
C527 C526 1.355 . S
C527 C529 1.419 . S
C528 C526 1.415 . S
C528 C533 1.425 . S
C528 C535 1.409 . S
C529 H521 0.930 . S
C529 C527 1.419 . S
C529 C530 1.362 . S
C530 H522 0.930 . S
C530 C529 1.362 . S
C530 C533 1.409 . S
C531 H523 0.930 . S
C531 C532 1.355 . S
C531 C533 1.415 . S
C532 C531 1.355 . S
C532 C534 1.419 . S
C533 C528 1.425 . S
C533 C530 1.409 . S
C533 C531 1.415 . S
C534 H524 0.930 . S
C534 C532 1.419 . S
C534 C535 1.362 . S
C535 H525 0.930 . S
C535 C528 1.409 . S
C535 C534 1.362 . S
H536 C542 0.930 . S
H537 C545 0.930 . S
H538 C546 0.930 . S
H539 C547 0.930 . S
H540 C550 0.930 . S
H541 C551 0.930 . S
C542 H536 0.930 . S
C542 C543 1.355 1_665 S
C542 C544 1.415 1_565 S
C543 C542 1.355 1_445 S
C543 C545 1.419 . S
C544 C542 1.415 1_545 S
C544 C549 1.425 . S
C544 C551 1.409 1_545 S
C545 H537 0.930 . S
C545 C543 1.419 . S
C545 C546 1.362 1_455 S
C546 H538 0.930 . S
C546 C545 1.362 1_655 S
C546 C549 1.409 . S
C547 H539 0.930 . S
C547 C548 1.355 . S
C547 C549 1.415 . S
C548 C547 1.355 . S
C548 C550 1.419 1_545 S
C549 C544 1.425 . S
C549 C546 1.409 . S
C549 C547 1.415 . S
C550 H540 0.930 . S
C550 C548 1.419 1_565 S
C550 C551 1.362 . S
C551 H541 0.930 . S
C551 C544 1.409 1_565 S
C551 C550 1.362 . S
H552 C558 0.930 . S
H553 C561 0.930 . S
H554 C562 0.930 . S
H555 C563 0.930 . S
H556 C566 0.930 . S
H557 C567 0.930 . S
C558 H552 0.930 . S
C558 C559 1.355 . S
C558 C560 1.415 . S
C559 C558 1.355 . S
C559 C561 1.419 . S
C560 C558 1.415 . S
C560 C565 1.425 . S
C560 C567 1.409 . S
C561 H553 0.930 . S
C561 C559 1.419 . S
C561 C562 1.362 . S
C562 H554 0.930 . S
C562 C561 1.362 . S
C562 C565 1.409 . S
C563 H555 0.930 . S
C563 C564 1.355 . S
C563 C565 1.415 . S
C564 C563 1.355 . S
C564 C566 1.419 . S
C565 C560 1.425 . S
C565 C562 1.409 . S
C565 C563 1.415 . S
C566 H556 0.930 . S
C566 C564 1.419 . S
C566 C567 1.362 . S
C567 H557 0.930 . S
C567 C560 1.409 . S
C567 C566 1.362 . S
H568 C574 0.930 . S
H569 C577 0.930 . S
H570 C578 0.930 . S
H571 C579 0.930 . S
H572 C582 0.930 1_545 S
H573 C583 0.930 . S
C574 H568 0.930 . S
C574 C575 1.355 1_545 S
C574 C576 1.415 1_545 S
C575 C574 1.355 1_565 S
C575 C577 1.419 . S
C576 C574 1.415 1_565 S
C576 C581 1.425 . S
C576 C583 1.409 1_565 S
C577 H569 0.930 . S
C577 C575 1.419 . S
C577 C578 1.362 . S
C578 H570 0.930 . S
C578 C577 1.362 . S
C578 C581 1.409 . S
C579 H571 0.930 . S
C579 C580 1.355 . S
C579 C581 1.415 . S
C580 C579 1.355 . S
C580 C582 1.419 . S
C581 C576 1.425 . S
C581 C578 1.409 . S
C581 C579 1.415 . S
C582 H572 0.930 1_565 S
C582 C580 1.419 . S
C582 C583 1.362 1_565 S
C583 H573 0.930 . S
C583 C576 1.409 1_545 S
C583 C582 1.362 1_545 S
H584 C590 0.930 . S
H585 C593 0.930 . S
H586 C594 0.930 . S
H587 C595 0.930 . S
H588 C598 0.930 . S
H589 C599 0.930 . S
C590 H584 0.930 . S
C590 C591 1.355 . S
C590 C592 1.415 . S
C591 C590 1.355 . S
C591 C593 1.419 . S
C592 C590 1.415 . S
C592 C597 1.425 . S
C592 C599 1.409 . S
C593 H585 0.930 . S
C593 C591 1.419 . S
C593 C594 1.362 . S
C594 H586 0.930 . S
C594 C593 1.362 . S
C594 C597 1.409 . S
C595 H587 0.930 . S
C595 C596 1.355 . S
C595 C597 1.415 . S
C596 C595 1.355 . S
C596 C598 1.419 . S
C597 C592 1.425 . S
C597 C594 1.409 . S
C597 C595 1.415 . S
C598 H588 0.930 . S
C598 C596 1.419 . S
C598 C599 1.362 . S
C599 H589 0.930 . S
C599 C592 1.409 . S
C599 C598 1.362 . S
H600 C606 0.930 . S
H601 C609 0.930 . S
H602 C610 0.930 . S
H603 C611 0.930 . S
H604 C614 0.930 . S
H605 C615 0.930 . S
C606 H600 0.930 . S
C606 C607 1.355 . S
C606 C608 1.415 1_455 S
C607 C606 1.355 . S
C607 C609 1.419 1_455 S
C608 C606 1.415 1_655 S
C608 C613 1.425 . S
C608 C615 1.409 . S
C609 H601 0.930 . S
C609 C607 1.419 1_655 S
C609 C610 1.362 . S
C610 H602 0.930 . S
C610 C609 1.362 . S
C610 C613 1.409 . S
C611 H603 0.930 . S
C611 C612 1.355 . S
C611 C613 1.415 . S
C612 C611 1.355 . S
C612 C614 1.419 . S
C613 C608 1.425 . S
C613 C610 1.409 . S
C613 C611 1.415 . S
C614 H604 0.930 . S
C614 C612 1.419 . S
C614 C615 1.362 . S
C615 H605 0.930 . S
C615 C608 1.409 . S
C615 C614 1.362 . S
H616 C622 0.930 . S
H617 C625 0.930 . S
H618 C626 0.930 . S
H619 C627 0.930 . S
H620 C630 0.930 . S
H621 C631 0.930 . S
C622 H616 0.930 . S
C622 C623 1.355 . S
C622 C624 1.415 . S
C623 C622 1.355 . S
C623 C625 1.419 . S
C624 C622 1.415 . S
C624 C629 1.425 . S
C624 C631 1.409 . S
C625 H617 0.930 . S
C625 C623 1.419 . S
C625 C626 1.362 . S
C626 H618 0.930 . S
C626 C625 1.362 . S
C626 C629 1.409 . S
C627 H619 0.930 . S
C627 C628 1.355 . S
C627 C629 1.415 . S
C628 C627 1.355 . S
C628 C630 1.419 . S
C629 C624 1.425 . S
C629 C626 1.409 . S
C629 C627 1.415 . S
C630 H620 0.930 . S
C630 C628 1.419 . S
C630 C631 1.362 . S
C631 H621 0.930 . S
C631 C624 1.409 . S
C631 C630 1.362 . S
H632 C638 0.930 . S
H633 C641 0.930 . S
H634 C642 0.931 1_565 S
H635 C643 0.930 . S
H636 C646 0.930 . S
H637 C647 0.930 . S
C638 H632 0.930 . S
C638 C639 1.355 . S
C638 C640 1.415 . S
C639 C638 1.355 . S
C639 C641 1.419 1_545 S
C640 C638 1.415 . S
C640 C645 1.425 . S
C640 C647 1.409 . S
C641 H633 0.930 . S
C641 C639 1.419 1_565 S
C641 C642 1.362 1_565 S
C642 H634 0.931 1_545 S
C642 C641 1.362 1_545 S
C642 C645 1.408 . S
C643 H635 0.930 . S
C643 C644 1.355 . S
C643 C645 1.415 . S
C644 C643 1.355 . S
C644 C646 1.419 . S
C645 C640 1.425 . S
C645 C642 1.408 . S
C645 C643 1.415 . S
C646 H636 0.930 . S
C646 C644 1.419 . S
C646 C647 1.362 . S
C647 H637 0.930 . S
C647 C640 1.409 . S
C647 C646 1.362 . S
H648 C654 0.930 . S
H649 C657 0.930 . S
H650 C658 0.930 . S
H651 C659 0.930 . S
H652 C662 0.930 . S
H653 C663 0.930 . S
C654 H648 0.930 . S
C654 C655 1.355 . S
C654 C656 1.415 . S
C655 C654 1.355 . S
C655 C657 1.419 . S
C656 C654 1.415 . S
C656 C661 1.425 . S
C656 C663 1.409 . S
C657 H649 0.930 . S
C657 C655 1.419 . S
C657 C658 1.362 . S
C658 H650 0.930 . S
C658 C657 1.362 . S
C658 C661 1.409 . S
C659 H651 0.930 . S
C659 C660 1.355 . S
C659 C661 1.415 . S
C660 C659 1.355 . S
C660 C662 1.419 . S
C661 C656 1.425 . S
C661 C658 1.409 . S
C661 C659 1.415 . S
C662 H652 0.930 . S
C662 C660 1.419 . S
C662 C663 1.362 . S
C663 H653 0.930 . S
C663 C656 1.409 . S
C663 C662 1.362 . S
H664 C670 0.930 . S
H665 C673 0.930 . S
H666 C674 0.930 . S
H667 C675 0.929 . S
H668 C678 0.930 . S
H669 C679 0.930 . S
C670 H664 0.930 . S
C670 C671 1.355 . S
C670 C672 1.415 1_545 S
C671 C670 1.355 . S
C671 C673 1.419 1_544 S
C672 C670 1.415 1_565 S
C672 C677 1.425 . S
C672 C679 1.409 . S
C673 H665 0.930 . S
C673 C671 1.419 1_566 S
C673 C674 1.362 . S
C674 H666 0.930 . S
C674 C673 1.362 . S
C674 C677 1.409 1_556 S
C675 H667 0.929 . S
C675 C676 1.355 . S
C675 C677 1.415 . S
C676 C675 1.355 . S
C676 C678 1.419 . S
C677 C672 1.425 . S
C677 C674 1.409 1_554 S
C677 C675 1.415 . S
C678 H668 0.930 . S
C678 C676 1.419 . S
C678 C679 1.362 . S
C679 H669 0.930 . S
C679 C672 1.409 . S
C679 C678 1.362 . S
H680 C686 0.930 . S
H681 C689 0.930 . S
H682 C690 0.930 . S
H683 C691 0.930 . S
H684 C694 0.930 . S
H685 C695 0.930 . S
C686 H680 0.930 . S
C686 C687 1.355 1_554 S
C686 C688 1.415 1_554 S
C687 C686 1.355 1_556 S
C687 C689 1.419 . S
C688 C686 1.415 1_556 S
C688 C693 1.425 . S
C688 C695 1.409 1_556 S
C689 H681 0.930 . S
C689 C687 1.419 . S
C689 C690 1.362 . S
C690 H682 0.930 . S
C690 C689 1.362 . S
C690 C693 1.409 . S
C691 H683 0.930 . S
C691 C692 1.355 . S
C691 C693 1.415 . S
C692 C691 1.355 . S
C692 C694 1.419 1_556 S
C693 C688 1.425 . S
C693 C690 1.409 . S
C693 C691 1.415 . S
C694 H684 0.930 . S
C694 C692 1.419 1_554 S
C694 C695 1.362 . S
C695 H685 0.930 . S
C695 C688 1.409 1_554 S
C695 C694 1.362 . S
H696 C702 0.930 . S
H697 C705 0.930 . S
H698 C706 0.930 . S
H699 C707 0.930 . S
H700 C710 0.930 . S
H701 C711 0.930 . S
C702 H696 0.930 . S
C702 C703 1.355 . S
C702 C704 1.415 . S
C703 C702 1.355 . S
C703 C705 1.419 . S
C704 C702 1.415 . S
C704 C709 1.425 . S
C704 C711 1.409 . S
C705 H697 0.930 . S
C705 C703 1.419 . S
C705 C706 1.362 . S
C706 H698 0.930 . S
C706 C705 1.362 . S
C706 C709 1.409 . S
C707 H699 0.930 . S
C707 C708 1.355 . S
C707 C709 1.415 . S
C708 C707 1.355 . S
C708 C710 1.419 . S
C709 C704 1.425 . S
C709 C706 1.409 . S
C709 C707 1.415 . S
C710 H700 0.930 . S
C710 C708 1.419 . S
C710 C711 1.362 . S
C711 H701 0.930 . S
C711 C704 1.409 . S
C711 C710 1.362 . S
H712 C718 0.930 . S
H713 C721 0.930 . S
H714 C722 0.930 . S
H715 C723 0.930 . S
H716 C726 0.930 . S
H717 C727 0.930 . S
C718 H712 0.930 . S
C718 C719 1.355 . S
C718 C720 1.415 . S
C719 C718 1.355 . S
C719 C721 1.419 . S
C720 C718 1.415 . S
C720 C725 1.425 . S
C720 C727 1.409 . S
C721 H713 0.930 . S
C721 C719 1.419 . S
C721 C722 1.362 . S
C722 H714 0.930 . S
C722 C721 1.362 . S
C722 C725 1.409 . S
C723 H715 0.930 . S
C723 C724 1.355 . S
C723 C725 1.415 . S
C724 C723 1.355 . S
C724 C726 1.419 . S
C725 C720 1.425 . S
C725 C722 1.409 . S
C725 C723 1.415 . S
C726 H716 0.930 . S
C726 C724 1.419 . S
C726 C727 1.362 . S
C727 H717 0.930 . S
C727 C720 1.409 . S
C727 C726 1.362 . S
H728 C734 0.930 . S
H729 C737 0.930 . S
H730 C738 0.930 . S
H731 C739 0.930 . S
H732 C742 0.930 . S
H733 C743 0.930 . S
C734 H728 0.930 . S
C734 C735 1.355 . S
C734 C736 1.415 . S
C735 C734 1.355 . S
C735 C737 1.419 . S
C736 C734 1.415 . S
C736 C741 1.425 . S
C736 C743 1.409 . S
C737 H729 0.930 . S
C737 C735 1.419 . S
C737 C738 1.362 . S
C738 H730 0.930 . S
C738 C737 1.362 . S
C738 C741 1.409 . S
C739 H731 0.930 . S
C739 C740 1.355 . S
C739 C741 1.415 . S
C740 C739 1.355 . S
C740 C742 1.419 . S
C741 C736 1.425 . S
C741 C738 1.409 . S
C741 C739 1.415 . S
C742 H732 0.930 . S
C742 C740 1.419 . S
C742 C743 1.362 . S
C743 H733 0.930 . S
C743 C736 1.409 . S
C743 C742 1.362 . S
H744 C750 0.930 . S
H745 C753 0.930 . S
H746 C754 0.930 . S
H747 C755 0.930 . S
H748 C758 0.930 . S
H749 C759 0.930 . S
C750 H744 0.930 . S
C750 C751 1.355 1_545 S
C750 C752 1.415 . S
C751 C750 1.355 1_565 S
C751 C753 1.419 . S
C752 C750 1.415 . S
C752 C757 1.425 . S
C752 C759 1.409 . S
C753 H745 0.930 . S
C753 C751 1.419 . S
C753 C754 1.362 1_565 S
C754 H746 0.930 . S
C754 C753 1.362 1_545 S
C754 C757 1.409 . S
C755 H747 0.930 . S
C755 C756 1.355 . S
C755 C757 1.415 . S
C756 C755 1.355 . S
C756 C758 1.419 . S
C757 C752 1.425 . S
C757 C754 1.409 . S
C757 C755 1.415 . S
C758 H748 0.930 . S
C758 C756 1.419 . S
C758 C759 1.362 . S
C759 H749 0.930 . S
C759 C752 1.409 . S
C759 C758 1.362 . S
H760 C766 0.930 . S
H761 C769 0.930 . S
H762 C770 0.930 . S
H763 C771 0.930 . S
H764 C774 0.930 . S
H765 C775 0.930 . S
C766 H760 0.930 . S
C766 C767 1.355 . S
C766 C768 1.415 . S
C767 C766 1.355 . S
C767 C769 1.419 . S
C768 C766 1.415 . S
C768 C773 1.425 . S
C768 C775 1.409 . S
C769 H761 0.930 . S
C769 C767 1.419 . S
C769 C770 1.362 . S
C770 H762 0.930 . S
C770 C769 1.362 . S
C770 C773 1.409 . S
C771 H763 0.930 . S
C771 C772 1.355 . S
C771 C773 1.415 . S
C772 C771 1.355 . S
C772 C774 1.419 . S
C773 C768 1.425 . S
C773 C770 1.409 . S
C773 C771 1.415 . S
C774 H764 0.930 . S
C774 C772 1.419 . S
C774 C775 1.362 . S
C775 H765 0.930 . S
C775 C768 1.409 . S
C775 C774 1.362 . S
H776 C782 0.930 . S
H777 C785 0.930 . S
H778 C786 0.930 . S
H779 C787 0.930 . S
H780 C790 0.930 . S
H781 C791 0.930 . S
C782 H776 0.930 . S
C782 C783 1.355 . S
C782 C784 1.415 . S
C783 C782 1.355 . S
C783 C785 1.419 . S
C784 C782 1.415 . S
C784 C789 1.425 . S
C784 C791 1.409 . S
C785 H777 0.930 . S
C785 C783 1.419 . S
C785 C786 1.362 . S
C786 H778 0.930 . S
C786 C785 1.362 . S
C786 C789 1.409 . S
C787 H779 0.930 . S
C787 C788 1.355 . S
C787 C789 1.415 . S
C788 C787 1.355 . S
C788 C790 1.419 . S
C789 C784 1.425 . S
C789 C786 1.409 . S
C789 C787 1.415 . S
C790 H780 0.930 . S
C790 C788 1.419 . S
C790 C791 1.362 . S
C791 H781 0.930 . S
C791 C784 1.409 . S
C791 C790 1.362 . S
H792 C798 0.930 . S
H793 C801 0.930 . S
H794 C802 0.930 . S
H795 C803 0.930 . S
H796 C806 0.930 . S
H797 C807 0.930 . S
C798 H792 0.930 . S
C798 C799 1.355 . S
C798 C800 1.415 . S
C799 C798 1.355 . S
C799 C801 1.419 . S
C800 C798 1.415 . S
C800 C805 1.425 . S
C800 C807 1.409 . S
C801 H793 0.930 . S
C801 C799 1.419 . S
C801 C802 1.362 . S
C802 H794 0.930 . S
C802 C801 1.362 . S
C802 C805 1.409 . S
C803 H795 0.930 . S
C803 C804 1.355 . S
C803 C805 1.415 . S
C804 C803 1.355 . S
C804 C806 1.419 . S
C805 C800 1.425 . S
C805 C802 1.409 . S
C805 C803 1.415 . S
C806 H796 0.930 . S
C806 C804 1.419 . S
C806 C807 1.362 . S
C807 H797 0.930 . S
C807 C800 1.409 . S
C807 C806 1.362 . S
H808 C814 0.930 . S
H809 C817 0.930 . S
H810 C818 0.930 . S
H811 C819 0.930 . S
H812 C822 0.930 . S
H813 C823 0.930 . S
C814 H808 0.930 . S
C814 C815 1.355 . S
C814 C816 1.415 . S
C815 C814 1.355 . S
C815 C817 1.419 . S
C816 C814 1.415 . S
C816 C821 1.425 . S
C816 C823 1.409 . S
C817 H809 0.930 . S
C817 C815 1.419 . S
C817 C818 1.362 . S
C818 H810 0.930 . S
C818 C817 1.362 . S
C818 C821 1.409 . S
C819 H811 0.930 . S
C819 C820 1.355 . S
C819 C821 1.415 . S
C820 C819 1.355 . S
C820 C822 1.419 . S
C821 C816 1.425 . S
C821 C818 1.409 . S
C821 C819 1.415 . S
C822 H812 0.930 . S
C822 C820 1.419 . S
C822 C823 1.362 . S
C823 H813 0.930 . S
C823 C816 1.409 . S
C823 C822 1.362 . S
H824 C830 0.930 . S
H825 C833 0.930 . S
H826 C834 0.930 . S
H827 C835 0.930 . S
H828 C838 0.930 1_455 S
H829 C839 0.930 . S
C830 H824 0.930 . S
C830 C831 1.355 1_456 S
C830 C832 1.415 1_455 S
C831 C830 1.355 1_654 S
C831 C833 1.419 . S
C832 C830 1.415 1_655 S
C832 C837 1.425 . S
C832 C839 1.409 1_655 S
C833 H825 0.930 . S
C833 C831 1.419 . S
C833 C834 1.362 1_554 S
C834 H826 0.930 . S
C834 C833 1.362 1_556 S
C834 C837 1.409 . S
C835 H827 0.930 . S
C835 C836 1.355 . S
C835 C837 1.415 . S
C836 C835 1.355 . S
C836 C838 1.419 . S
C837 C832 1.425 . S
C837 C834 1.409 . S
C837 C835 1.415 . S
C838 H828 0.930 1_655 S
C838 C836 1.419 . S
C838 C839 1.362 1_655 S
C839 H829 0.930 . S
C839 C832 1.409 1_455 S
C839 C838 1.362 1_455 S
H840 C846 0.930 . S
H841 C849 0.930 . S
H842 C850 0.930 . S
H843 C851 0.930 . S
H844 C854 0.930 . S
H845 C855 0.930 . S
C846 H840 0.930 . S
C846 C847 1.355 . S
C846 C848 1.415 . S
C847 C846 1.355 . S
C847 C849 1.419 . S
C848 C846 1.415 . S
C848 C853 1.425 . S
C848 C855 1.409 . S
C849 H841 0.930 . S
C849 C847 1.419 . S
C849 C850 1.362 . S
C850 H842 0.930 . S
C850 C849 1.362 . S
C850 C853 1.409 . S
C851 H843 0.930 . S
C851 C852 1.355 . S
C851 C853 1.415 . S
C852 C851 1.355 . S
C852 C854 1.419 . S
C853 C848 1.425 . S
C853 C850 1.409 . S
C853 C851 1.415 . S
C854 H844 0.930 . S
C854 C852 1.419 . S
C854 C855 1.362 . S
C855 H845 0.930 . S
C855 C848 1.409 . S
C855 C854 1.362 . S
H856 C862 0.930 . S
H857 C865 0.930 . S
H858 C866 0.930 . S
H859 C867 0.930 . S
H860 C870 0.930 . S
H861 C871 0.930 . S
C862 H856 0.930 . S
C862 C863 1.355 . S
C862 C864 1.413 1_556 S
C863 C862 1.355 . S
C863 C865 1.419 1_556 S
C864 C862 1.413 1_554 S
C864 C869 1.425 . S
C864 C871 1.409 . S
C865 H857 0.930 . S
C865 C863 1.419 1_554 S
C865 C866 1.362 . S
C866 H858 0.930 . S
C866 C865 1.362 . S
C866 C869 1.409 . S
C867 H859 0.930 . S
C867 C868 1.355 . S
C867 C869 1.415 . S
C868 C867 1.355 . S
C868 C870 1.419 . S
C869 C864 1.425 . S
C869 C866 1.409 . S
C869 C867 1.415 . S
C870 H860 0.930 . S
C870 C868 1.419 . S
C870 C871 1.362 . S
C871 H861 0.930 . S
C871 C864 1.409 . S
C871 C870 1.362 . S
H872 C878 0.930 . S
H873 C881 0.930 . S
H874 C882 0.930 . S
H875 C883 0.930 . S
H876 C886 0.930 . S
H877 C887 0.930 . S
C878 H872 0.930 . S
C878 C879 1.355 . S
C878 C880 1.415 . S
C879 C878 1.355 . S
C879 C881 1.419 . S
C880 C878 1.415 . S
C880 C885 1.425 . S
C880 C887 1.409 . S
C881 H873 0.930 . S
C881 C879 1.419 . S
C881 C882 1.362 . S
C882 H874 0.930 . S
C882 C881 1.362 . S
C882 C885 1.409 . S
C883 H875 0.930 . S
C883 C884 1.355 . S
C883 C885 1.415 . S
C884 C883 1.355 . S
C884 C886 1.419 . S
C885 C880 1.425 . S
C885 C882 1.409 . S
C885 C883 1.415 . S
C886 H876 0.930 . S
C886 C884 1.419 . S
C886 C887 1.362 . S
C887 H877 0.930 . S
C887 C880 1.409 . S
C887 C886 1.362 . S
H888 C894 0.930 . S
H889 C897 0.930 . S
H890 C898 0.930 . S
H891 C899 0.930 . S
H892 C902 0.920 1_455 S
H893 C903 0.930 . S
C894 H888 0.930 . S
C894 C895 1.355 1_455 S
C894 C896 1.415 1_455 S
C895 C894 1.355 1_655 S
C895 C897 1.419 . S
C896 C894 1.415 1_655 S
C896 C901 1.425 . S
C896 C903 1.409 1_655 S
C897 H889 0.930 . S
C897 C895 1.419 . S
C897 C898 1.362 . S
C898 H890 0.930 . S
C898 C897 1.362 . S
C898 C901 1.409 . S
C899 H891 0.930 . S
C899 C900 1.355 . S
C899 C901 1.415 . S
C900 C899 1.355 . S
C900 C902 1.436 . S
C901 C896 1.425 . S
C901 C898 1.409 . S
C901 C899 1.415 . S
C902 H892 0.920 1_655 S
C902 C900 1.436 . S
C902 C903 1.356 1_655 S
C903 H893 0.930 . S
C903 C896 1.409 1_455 S
C903 C902 1.356 1_455 S
H904 C910 0.930 . S
H905 C913 0.930 . S
H906 C914 0.930 . S
H907 C915 0.930 . S
H908 C918 0.930 . S
H909 C919 0.930 . S
C910 H904 0.930 . S
C910 C911 1.355 . S
C910 C912 1.415 . S
C911 C910 1.355 . S
C911 C913 1.419 . S
C912 C910 1.415 . S
C912 C917 1.425 . S
C912 C919 1.409 . S
C913 H905 0.930 . S
C913 C911 1.419 . S
C913 C914 1.362 . S
C914 H906 0.930 . S
C914 C913 1.362 . S
C914 C917 1.409 . S
C915 H907 0.930 . S
C915 C916 1.355 . S
C915 C917 1.415 . S
C916 C915 1.355 . S
C916 C918 1.419 . S
C917 C912 1.425 . S
C917 C914 1.409 . S
C917 C915 1.415 . S
C918 H908 0.930 . S
C918 C916 1.419 . S
C918 C919 1.362 . S
C919 H909 0.930 . S
C919 C912 1.409 . S
C919 C918 1.362 . S
H920 C926 0.930 . S
H921 C929 0.930 . S
H922 C930 0.930 . S
H923 C931 0.930 . S
H924 C934 0.930 . S
H925 C935 0.930 . S
C926 H920 0.930 . S
C926 C927 1.355 . S
C926 C928 1.415 . S
C927 C926 1.355 . S
C927 C929 1.419 . S
C928 C926 1.415 . S
C928 C933 1.425 . S
C928 C935 1.409 . S
C929 H921 0.930 . S
C929 C927 1.419 . S
C929 C930 1.362 . S
C930 H922 0.930 . S
C930 C929 1.362 . S
C930 C933 1.409 . S
C931 H923 0.930 . S
C931 C932 1.355 . S
C931 C933 1.415 . S
C932 C931 1.355 . S
C932 C934 1.419 . S
C933 C928 1.425 . S
C933 C930 1.409 . S
C933 C931 1.415 . S
C934 H924 0.930 . S
C934 C932 1.419 . S
C934 C935 1.362 . S
C935 H925 0.930 . S
C935 C928 1.409 . S
C935 C934 1.362 . S
H936 C942 0.930 . S
H937 C945 0.930 . S
H938 C946 0.930 . S
H939 C947 0.930 . S
H940 C950 0.930 . S
H941 C951 0.930 . S
C942 H936 0.930 . S
C942 C943 1.355 . S
C942 C944 1.415 . S
C943 C942 1.355 . S
C943 C945 1.419 . S
C944 C942 1.415 . S
C944 C949 1.425 . S
C944 C951 1.409 . S
C945 H937 0.930 . S
C945 C943 1.419 . S
C945 C946 1.362 . S
C946 H938 0.930 . S
C946 C945 1.362 . S
C946 C949 1.409 . S
C947 H939 0.930 . S
C947 C948 1.355 . S
C947 C949 1.415 . S
C948 C947 1.355 . S
C948 C950 1.419 . S
C949 C944 1.425 . S
C949 C946 1.409 . S
C949 C947 1.415 . S
C950 H940 0.930 . S
C950 C948 1.419 . S
C950 C951 1.362 . S
C951 H941 0.930 . S
C951 C944 1.409 . S
C951 C950 1.362 . S
H952 C958 0.936 . S
H953 C961 0.930 . S
H954 C962 0.930 . S
H955 C963 0.930 . S
H956 C966 0.930 . S
H957 C967 0.930 . S
C958 H952 0.936 . S
C958 C959 1.357 . S
C958 C960 1.406 1_655 S
C959 C958 1.357 . S
C959 C961 1.419 1_655 S
C960 C958 1.406 1_455 S
C960 C965 1.425 . S
C960 C967 1.409 . S
C961 H953 0.930 . S
C961 C959 1.419 1_455 S
C961 C962 1.362 . S
C962 H954 0.930 . S
C962 C961 1.362 . S
C962 C965 1.409 . S
C963 H955 0.930 . S
C963 C964 1.355 . S
C963 C965 1.415 . S
C964 C963 1.355 . S
C964 C966 1.419 . S
C965 C960 1.425 . S
C965 C962 1.409 . S
C965 C963 1.415 . S
C966 H956 0.930 . S
C966 C964 1.419 . S
C966 C967 1.362 . S
C967 H957 0.930 . S
C967 C960 1.409 . S
C967 C966 1.362 . S
H968 C974 0.930 . S
H969 C977 0.930 . S
H970 C978 0.930 . S
H971 C979 0.930 . S
H972 C982 0.930 . S
H973 C983 0.930 . S
C974 H968 0.930 . S
C974 C975 1.355 . S
C974 C976 1.415 . S
C975 C974 1.355 . S
C975 C977 1.419 . S
C976 C974 1.415 . S
C976 C981 1.425 . S
C976 C983 1.409 . S
C977 H969 0.930 . S
C977 C975 1.419 . S
C977 C978 1.362 . S
C978 H970 0.930 . S
C978 C977 1.362 . S
C978 C981 1.409 . S
C979 H971 0.930 . S
C979 C980 1.355 . S
C979 C981 1.415 . S
C980 C979 1.355 . S
C980 C982 1.419 . S
C981 C976 1.425 . S
C981 C978 1.409 . S
C981 C979 1.415 . S
C982 H972 0.930 . S
C982 C980 1.419 . S
C982 C983 1.362 . S
C983 H973 0.930 . S
C983 C976 1.409 . S
C983 C982 1.362 . S
H984 C990 0.930 . S
H985 C993 0.930 . S
H986 C994 0.930 . S
H987 C995 0.930 . S
H988 C998 0.930 . S
H989 C999 0.930 . S
C990 H984 0.930 . S
C990 C991 1.355 . S
C990 C992 1.415 . S
C991 C990 1.355 . S
C991 C993 1.419 . S
C992 C990 1.415 . S
C992 C997 1.425 . S
C992 C999 1.409 . S
C993 H985 0.930 . S
C993 C991 1.419 . S
C993 C994 1.362 . S
C994 H986 0.930 . S
C994 C993 1.362 . S
C994 C997 1.409 . S
C995 H987 0.930 . S
C995 C996 1.355 . S
C995 C997 1.415 . S
C996 C995 1.355 . S
C996 C998 1.419 . S
C997 C992 1.425 . S
C997 C994 1.409 . S
C997 C995 1.415 . S
C998 H988 0.930 . S
C998 C996 1.419 . S
C998 C999 1.362 . S
C999 H989 0.930 . S
C999 C992 1.409 . S
C999 C998 1.362 . S
H1000 C1006 0.930 . S
H1001 C1009 0.930 . S
H1002 C1010 0.930 . S
H1003 C1011 0.930 . S
H1004 C1014 0.930 . S
H1005 C1015 0.930 . S
C1006 H1000 0.930 . S
C1006 C1007 1.355 . S
C1006 C1008 1.415 . S
C1007 C1006 1.355 . S
C1007 C1009 1.419 . S
C1008 C1006 1.415 . S
C1008 C1013 1.425 . S
C1008 C1015 1.409 . S
C1009 H1001 0.930 . S
C1009 C1007 1.419 . S
C1009 C1010 1.362 . S
C1010 H1002 0.930 . S
C1010 C1009 1.362 . S
C1010 C1013 1.409 . S
C1011 H1003 0.930 . S
C1011 C1012 1.355 . S
C1011 C1013 1.415 . S
C1012 C1011 1.355 . S
C1012 C1014 1.419 . S
C1013 C1008 1.425 . S
C1013 C1010 1.409 . S
C1013 C1011 1.415 . S
C1014 H1004 0.930 . S
C1014 C1012 1.419 . S
C1014 C1015 1.362 . S
C1015 H1005 0.930 . S
C1015 C1008 1.409 . S
C1015 C1014 1.362 . S
H1016 C1022 0.930 1_655 S
H1017 C1025 0.930 . S
H1018 C1026 0.930 . S
H1019 C1027 0.930 . S
H1020 C1030 0.930 . S
H1021 C1031 0.930 . S
C1022 H1016 0.930 1_455 S
C1022 C1023 1.355 1_455 S
C1022 C1024 1.415 . S
C1023 C1022 1.355 1_655 S
C1023 C1025 1.419 1_655 S
C1024 C1022 1.415 . S
C1024 C1029 1.425 . S
C1024 C1031 1.409 . S
C1025 H1017 0.930 . S
C1025 C1023 1.419 1_455 S
C1025 C1026 1.362 . S
C1026 H1018 0.930 . S
C1026 C1025 1.362 . S
C1026 C1029 1.409 . S
C1027 H1019 0.930 . S
C1027 C1028 1.355 . S
C1027 C1029 1.415 . S
C1028 C1027 1.355 . S
C1028 C1030 1.419 . S
C1029 C1024 1.425 . S
C1029 C1026 1.409 . S
C1029 C1027 1.415 . S
C1030 H1020 0.930 . S
C1030 C1028 1.419 . S
C1030 C1031 1.362 . S
C1031 H1021 0.930 . S
C1031 C1024 1.409 . S
C1031 C1030 1.362 . S
H1032 C1038 0.930 . S
H1033 C1041 0.930 . S
H1034 C1042 0.930 . S
H1035 C1043 0.930 . S
H1036 C1046 0.930 . S
H1037 C1047 0.930 . S
C1038 H1032 0.930 . S
C1038 C1039 1.355 . S
C1038 C1040 1.415 . S
C1039 C1038 1.355 . S
C1039 C1041 1.419 . S
C1040 C1038 1.415 . S
C1040 C1045 1.425 . S
C1040 C1047 1.409 . S
C1041 H1033 0.930 . S
C1041 C1039 1.419 . S
C1041 C1042 1.362 . S
C1042 H1034 0.930 . S
C1042 C1041 1.362 . S
C1042 C1045 1.409 . S
C1043 H1035 0.930 . S
C1043 C1044 1.355 . S
C1043 C1045 1.415 . S
C1044 C1043 1.355 . S
C1044 C1046 1.419 . S
C1045 C1040 1.425 . S
C1045 C1042 1.409 . S
C1045 C1043 1.415 . S
C1046 H1036 0.930 . S
C1046 C1044 1.419 . S
C1046 C1047 1.362 . S
C1047 H1037 0.930 . S
C1047 C1040 1.409 . S
C1047 C1046 1.362 . S
H1048 C1054 0.930 . S
H1049 C1057 0.930 . S
H1050 C1058 0.930 . S
H1051 C1059 0.930 . S
H1052 C1062 0.930 . S
H1053 C1063 0.930 . S
C1054 H1048 0.930 . S
C1054 C1055 1.355 . S
C1054 C1056 1.415 . S
C1055 C1054 1.355 . S
C1055 C1057 1.419 . S
C1056 C1054 1.415 . S
C1056 C1061 1.425 . S
C1056 C1063 1.409 . S
C1057 H1049 0.930 . S
C1057 C1055 1.419 . S
C1057 C1058 1.362 . S
C1058 H1050 0.930 . S
C1058 C1057 1.362 . S
C1058 C1061 1.409 . S
C1059 H1051 0.930 . S
C1059 C1060 1.355 . S
C1059 C1061 1.415 . S
C1060 C1059 1.355 . S
C1060 C1062 1.419 . S
C1061 C1056 1.425 . S
C1061 C1058 1.409 . S
C1061 C1059 1.415 . S
C1062 H1052 0.930 . S
C1062 C1060 1.419 . S
C1062 C1063 1.362 . S
C1063 H1053 0.930 . S
C1063 C1056 1.409 . S
C1063 C1062 1.362 . S
H1064 C1070 0.925 1_565 S
H1065 C1073 0.930 . S
H1066 C1074 0.930 . S
H1067 C1075 0.930 . S
H1068 C1078 0.930 . S
H1069 C1079 0.930 . S
C1070 H1064 0.925 1_545 S
C1070 C1071 1.353 1_545 S
C1070 C1072 1.421 . S
C1071 C1070 1.353 1_565 S
C1071 C1073 1.419 1_565 S
C1072 C1070 1.421 . S
C1072 C1077 1.425 . S
C1072 C1079 1.409 . S
C1073 H1065 0.930 . S
C1073 C1071 1.419 1_545 S
C1073 C1074 1.362 . S
C1074 H1066 0.930 . S
C1074 C1073 1.362 . S
C1074 C1077 1.409 . S
C1075 H1067 0.930 . S
C1075 C1076 1.355 . S
C1075 C1077 1.415 . S
C1076 C1075 1.355 . S
C1076 C1078 1.419 . S
C1077 C1072 1.425 . S
C1077 C1074 1.409 . S
C1077 C1075 1.415 . S
C1078 H1068 0.930 . S
C1078 C1076 1.419 . S
C1078 C1079 1.362 . S
C1079 H1069 0.930 . S
C1079 C1072 1.409 . S
C1079 C1078 1.362 . S
H1080 C1086 0.930 . S
H1081 C1089 0.930 . S
H1082 C1090 0.930 . S
H1083 C1091 0.930 . S
H1084 C1094 0.930 . S
H1085 C1095 0.930 . S
C1086 H1080 0.930 . S
C1086 C1087 1.355 . S
C1086 C1088 1.415 . S
C1087 C1086 1.355 . S
C1087 C1089 1.419 . S
C1088 C1086 1.415 . S
C1088 C1093 1.425 . S
C1088 C1095 1.409 . S
C1089 H1081 0.930 . S
C1089 C1087 1.419 . S
C1089 C1090 1.362 . S
C1090 H1082 0.930 . S
C1090 C1089 1.362 . S
C1090 C1093 1.409 . S
C1091 H1083 0.930 . S
C1091 C1092 1.355 . S
C1091 C1093 1.415 . S
C1092 C1091 1.355 . S
C1092 C1094 1.419 . S
C1093 C1088 1.425 . S
C1093 C1090 1.409 . S
C1093 C1091 1.415 . S
C1094 H1084 0.930 . S
C1094 C1092 1.419 . S
C1094 C1095 1.362 . S
C1095 H1085 0.930 . S
C1095 C1088 1.409 . S
C1095 C1094 1.362 . S
H1096 C1102 0.930 . S
H1097 C1105 0.930 . S
H1098 C1106 0.930 . S
H1099 C1107 0.930 . S
H1100 C1110 0.930 . S
H1101 C1111 0.930 . S
C1102 H1096 0.930 . S
C1102 C1103 1.355 1_565 S
C1102 C1104 1.415 . S
C1103 C1102 1.355 1_545 S
C1103 C1105 1.419 . S
C1104 C1102 1.415 . S
C1104 C1109 1.425 . S
C1104 C1111 1.409 . S
C1105 H1097 0.930 . S
C1105 C1103 1.419 . S
C1105 C1106 1.362 1_545 S
C1106 H1098 0.930 . S
C1106 C1105 1.362 1_565 S
C1106 C1109 1.409 . S
C1107 H1099 0.930 . S
C1107 C1108 1.355 . S
C1107 C1109 1.415 . S
C1108 C1107 1.355 . S
C1108 C1110 1.419 . S
C1109 C1104 1.425 . S
C1109 C1106 1.409 . S
C1109 C1107 1.415 . S
C1110 H1100 0.930 . S
C1110 C1108 1.419 . S
C1110 C1111 1.362 . S
C1111 H1101 0.930 . S
C1111 C1104 1.409 . S
C1111 C1110 1.362 . S
H1112 C1118 0.930 . S
H1113 C1121 0.930 . S
H1114 C1122 0.930 . S
H1115 C1123 0.930 . S
H1116 C1126 0.930 . S
H1117 C1127 0.930 . S
C1118 H1112 0.930 . S
C1118 C1119 1.355 . S
C1118 C1120 1.415 . S
C1119 C1118 1.355 . S
C1119 C1121 1.419 . S
C1120 C1118 1.415 . S
C1120 C1125 1.425 . S
C1120 C1127 1.409 . S
C1121 H1113 0.930 . S
C1121 C1119 1.419 . S
C1121 C1122 1.362 . S
C1122 H1114 0.930 . S
C1122 C1121 1.362 . S
C1122 C1125 1.409 . S
C1123 H1115 0.930 . S
C1123 C1124 1.355 . S
C1123 C1125 1.415 . S
C1124 C1123 1.355 . S
C1124 C1126 1.419 . S
C1125 C1120 1.425 . S
C1125 C1122 1.409 . S
C1125 C1123 1.415 . S
C1126 H1116 0.930 . S
C1126 C1124 1.419 . S
C1126 C1127 1.362 . S
C1127 H1117 0.930 . S
C1127 C1120 1.409 . S
C1127 C1126 1.362 . S
H1128 C1134 0.930 . S
H1129 C1137 0.930 . S
H1130 C1138 0.930 . S
H1131 C1139 0.930 . S
H1132 C1142 0.930 . S
H1133 C1143 0.930 . S
C1134 H1128 0.930 . S
C1134 C1135 1.355 . S
C1134 C1136 1.415 . S
C1135 C1134 1.355 . S
C1135 C1137 1.419 . S
C1136 C1134 1.415 . S
C1136 C1141 1.425 . S
C1136 C1143 1.409 . S
C1137 H1129 0.930 . S
C1137 C1135 1.419 . S
C1137 C1138 1.362 . S
C1138 H1130 0.930 . S
C1138 C1137 1.362 . S
C1138 C1141 1.409 . S
C1139 H1131 0.930 . S
C1139 C1140 1.355 . S
C1139 C1141 1.415 . S
C1140 C1139 1.355 . S
C1140 C1142 1.419 . S
C1141 C1136 1.425 . S
C1141 C1138 1.409 . S
C1141 C1139 1.415 . S
C1142 H1132 0.930 . S
C1142 C1140 1.419 . S
C1142 C1143 1.362 . S
C1143 H1133 0.930 . S
C1143 C1136 1.409 . S
C1143 C1142 1.362 . S
H1144 C1150 0.930 . S
H1145 C1153 0.930 . S
H1146 C1154 0.930 . S
H1147 C1155 0.930 . S
H1148 C1158 0.930 . S
H1149 C1159 0.930 . S
C1150 H1144 0.930 . S
C1150 C1151 1.355 . S
C1150 C1152 1.415 . S
C1151 C1150 1.355 . S
C1151 C1153 1.419 . S
C1152 C1150 1.415 . S
C1152 C1157 1.425 . S
C1152 C1159 1.409 . S
C1153 H1145 0.930 . S
C1153 C1151 1.419 . S
C1153 C1154 1.362 . S
C1154 H1146 0.930 . S
C1154 C1153 1.362 . S
C1154 C1157 1.409 . S
C1155 H1147 0.930 . S
C1155 C1156 1.355 . S
C1155 C1157 1.415 . S
C1156 C1155 1.355 . S
C1156 C1158 1.419 . S
C1157 C1152 1.425 . S
C1157 C1154 1.409 . S
C1157 C1155 1.415 . S
C1158 H1148 0.930 . S
C1158 C1156 1.419 . S
C1158 C1159 1.362 . S
C1159 H1149 0.930 . S
C1159 C1152 1.409 . S
C1159 C1158 1.362 . S
H1160 C1166 0.930 . S
H1161 C1169 0.930 . S
H1162 C1170 0.930 . S
H1163 C1171 0.930 . S
H1164 C1174 0.930 . S
H1165 C1175 0.930 . S
C1166 H1160 0.930 . S
C1166 C1167 1.355 . S
C1166 C1168 1.415 . S
C1167 C1166 1.355 . S
C1167 C1169 1.419 . S
C1168 C1166 1.415 . S
C1168 C1173 1.425 . S
C1168 C1175 1.409 . S
C1169 H1161 0.930 . S
C1169 C1167 1.419 . S
C1169 C1170 1.362 . S
C1170 H1162 0.930 . S
C1170 C1169 1.362 . S
C1170 C1173 1.409 . S
C1171 H1163 0.930 . S
C1171 C1172 1.355 . S
C1171 C1173 1.415 . S
C1172 C1171 1.355 . S
C1172 C1174 1.419 . S
C1173 C1168 1.425 . S
C1173 C1170 1.409 . S
C1173 C1171 1.415 . S
C1174 H1164 0.930 . S
C1174 C1172 1.419 . S
C1174 C1175 1.362 . S
C1175 H1165 0.930 . S
C1175 C1168 1.409 . S
C1175 C1174 1.362 . S
C420 C404 1.135 . S
C415 C5 1.327 . S
C431 C16 1.331 . S
C436 C333 1.101 . S
C447 C36 1.304 . S
C452 C362 1.114 . S
C468 C375 1.198 . S
C463 C49 1.323 . S
C479 C23 1.316 . S
C484 C396 1.101 . S
C500 C341 1.259 . S
C495 C29 1.316 . S
C516 C354 1.057 . S
C511 C42 1.311 . S
C532 C383 1.215 . S
C527 C4 1.331 . S
C543 C55 1.286 . S
C548 C385 1.188 . S
C564 C399 1.200 . S
C559 C69 1.339 . S
C580 C343 1.206 . S
C575 C83 1.296 . S
C596 C357 1.161 . S
C591 C101 1.285 . S
C607 C57 1.265 . S
C612 C336 1.184 . S
C623 C75 1.280 . S
C628 C364 1.157 . S
C639 C81 1.278 . S
C644 C378 1.148 . S
C660 C406 1.215 . S
C655 C95 1.333 . S
C676 C215 1.112 . S
C671 C96 1.292 . S
C692 C196 1.168 . S
C687 C107 1.260 . S
C708 C210 1.154 . S
C703 C121 1.279 . S
C724 C231 1.225 . S
C719 C133 1.257 . S
C735 C62 1.326 . S
C740 C217 1.205 . S
C751 C68 1.287 . S
C756 C168 1.256 . S
C767 C127 1.335 . S
C772 C228 1.219 . S
C783 C147 1.332 . S
C788 C194 1.231 . S
C804 C257 1.199 . S
C799 C30 1.321 . S
C820 C270 1.154 . S
C815 C43 1.276 . S
C831 C3 1.308 . S
C836 C299 1.248 . S
C847 C18 1.332 . S
C852 C312 1.175 . S
C868 C249 1.039 . S
C863 C44 1.277 . S
C884 C278 1.217 . S
C879 C10 1.333 . S
C895 C17 1.302 . S
C900 C291 1.195 . S
C916 C320 1.255 . S
C911 C31 1.318 . S
C927 C146 1.336 . S
C932 C322 1.196 . S
C943 C114 1.292 . S
C948 C252 1.255 . S
C964 C280 1.064 . S
C959 C122 1.280 . S
C975 C140 1.275 . S
C980 C294 1.264 . S
C996 C273 1.190 . S
C991 C148 1.279 . S
C1007 C108 1.298 . S
C1012 C301 1.077 . S
C1028 C315 1.217 . S
C1023 C120 1.274 . S
C1044 C259 1.172 . S
C1039 C134 1.330 . S
C1060 C175 1.207 . S
C1055 C135 1.311 . S
C1076 C238 1.107 . S
C1071 C70 1.283 . S
C1087 C82 1.312 . S
C1092 C165 1.203 . S
C1108 C189 1.195 . S
C1103 C94 1.330 . S
C1124 C173 1.164 . S
C1119 C153 1.280 . S
C1135 C109 1.271 . S
C1140 C207 1.069 . S
C1151 C88 1.282 . S
C1156 C186 1.043 . S
C1167 C56 1.316 . S
C1172 C236 1.208 . S
