# Generated by pormake.
# Topology pth, (4,4)-cn, num edge types: 1
# Building blocks:
#     Node 0, Type 0, BuildingBlock: QUQFOY_clean_sbu_3, # of connection points: 4
#     Node 1, Type 0, BuildingBlock: QUQFOY_clean_sbu_3, # of connection points: 4
#     Node 2, Type 0, BuildingBlock: QUQFOY_clean_sbu_3, # of connection points: 4
#     Node 3, Type 1, BuildingBlock: MUDLON_clean_linker_0, # of connection points: 4
#     Node 4, Type 1, BuildingBlock: MUDLON_clean_linker_0, # of connection points: 4
#     Node 5, Type 1, BuildingBlock: MUDLON_clean_linker_0, # of connection points: 4
#     Edge 6, Type (0, 1), BuildingBlock: ZUJKAS_clean_linker_0, # of connection points: 2
#     Edge 7, Type (0, 1), BuildingBlock: ZUJKAS_clean_linker_0, # of connection points: 2
#     Edge 8, Type (0, 1), BuildingBlock: ZUJKAS_clean_linker_0, # of connection points: 2
#     Edge 9, Type (0, 1), BuildingBlock: ZUJKAS_clean_linker_0, # of connection points: 2
#     Edge 10, Type (0, 1), BuildingBlock: ZUJKAS_clean_linker_0, # of connection points: 2
#     Edge 11, Type (0, 1), BuildingBlock: ZUJKAS_clean_linker_0, # of connection points: 2
#     Edge 12, Type (0, 1), BuildingBlock: ZUJKAS_clean_linker_0, # of connection points: 2
#     Edge 13, Type (0, 1), BuildingBlock: ZUJKAS_clean_linker_0, # of connection points: 2
#     Edge 14, Type (0, 1), BuildingBlock: ZUJKAS_clean_linker_0, # of connection points: 2
#     Edge 15, Type (0, 1), BuildingBlock: ZUJKAS_clean_linker_0, # of connection points: 2
#     Edge 16, Type (0, 1), BuildingBlock: ZUJKAS_clean_linker_0, # of connection points: 2
#     Edge 17, Type (0, 1), BuildingBlock: ZUJKAS_clean_linker_0, # of connection points: 2
# Relax obj value: 0.036
# Max RMSD: 0.098
# Mean RMSD: 0.090
data_MOF--net-pth--node1-QUQFOY_clean_sbu_3--node2-MUDLON_clean_linker_0--edge1-ZUJKAS_clean_linker_0
_symmetry_space_group_name_H-M    P1
_symmetry_Int_Tables_number       1
_symmetry_cell_setting            triclinic
loop_
_symmetry_equiv_pos_as_xyz
'x, y, z'
_cell_length_a     41.66509
_cell_length_b     41.374412
_cell_length_c     86.282287
_cell_angle_alpha  89.92489
_cell_angle_beta   90.62891
_cell_angle_gamma 120.83136
loop_
_atom_site_label
_atom_site_type_symbol
_atom_site_fract_x
_atom_site_fract_y
_atom_site_fract_z
_atom_type_partial_charge
C0 C 0.97941 0.06728 0.04723 0.0
O1 O 0.95939 0.0642 0.03548 0.0
Cd2 Cd 0.95185 0.02632 0.0133 0.0
O3 O -0.00471 0.04792 0.04817 0.0
Cd4 Cd -0.00121 -0.0014 0.03284 0.0
C5 C 0.04496 0.06269 0.00475 0.0
O6 O 0.93473 0.96538 0.02275 0.0
O7 O 0.9724 0.95103 0.01213 0.0
O8 O 0.99066 0.96458 0.05696 0.0
C9 C 0.93937 0.94468 0.01333 0.0
O10 O 0.01327 0.05853 0.00123 0.0
C11 C 0.01779 0.9593 0.05497 0.0
O12 O 0.04849 0.04546 0.01629 0.0
O13 O 0.03699 0.97335 0.04283 0.0
C14 C 0.08494 0.03296 0.37777 0.0
O15 O 0.09954 0.05177 0.36556 0.0
Cd16 Cd 0.06411 0.05433 0.34406 0.0
O17 O 0.0496 0.0156 0.37953 0.0
Cd18 Cd -0.00673 0.00691 0.36519 0.0
C19 C 0.00804 0.95912 0.33713 0.0
O20 O 0.02091 0.07017 0.35434 0.0
O21 O 0.96695 0.02887 0.34501 0.0
O22 O 0.97119 0.01665 0.38972 0.0
C23 C -0.00676 0.06294 0.34567 0.0
O24 O 0.03412 0.9913 0.33272 0.0
C25 C 0.93845 0.9881 0.38859 0.0
O26 O 0.98939 0.95595 0.34923 0.0
O27 O 0.93137 0.96719 0.37674 0.0
C28 C 0.94867 0.03766 0.68341 0.0
O29 O 0.95156 0.05485 0.696 0.0
Cd30 Cd 0.99028 0.05893 0.71751 0.0
O31 O 0.96771 0.02179 0.68138 0.0
Cd32 Cd 0.01448 0.01316 0.69624 0.0
C33 C 0.95141 0.96438 0.72414 0.0
O34 O 0.05016 0.0762 0.7075 0.0
O35 O 0.06147 0.035 0.71724 0.0
O36 O 0.04966 0.02475 0.67251 0.0
C37 C 0.07002 0.0691 0.71648 0.0
O38 O 0.95816 -0.00364 0.72897 0.0
C39 C 0.05253 -0.0043 0.67334 0.0
O40 O 0.96613 0.96156 0.71173 0.0
O41 O 0.03637 0.97363 0.68461 0.0
H42 H -0.00524 0.64669 0.2063 0.0
N43 N 0.06669 0.66213 0.20363 0.0
H44 H 0.96984 0.66513 0.22787 0.0
H45 H 0.09973 0.69041 0.2308 0.0
H46 H 0.07509 0.70902 0.25245 0.0
H47 H 0.1173 0.73198 0.19603 0.0
H48 H 0.11495 0.76875 0.17428 0.0
H49 H 0.01404 0.63551 0.1804 0.0
H50 H 0.01097 0.67225 0.15868 0.0
H51 H 0.00462 0.59164 0.20706 0.0
H52 H 0.12148 0.65116 0.19558 0.0
H53 H 0.00322 0.53198 0.20605 0.0
H54 H 0.11995 0.59161 0.19353 0.0
H55 H -0.0009 0.38129 0.21429 0.0
H56 H 0.98381 0.33683 0.23565 0.0
H57 H 0.0999 0.3681 0.23893 0.0
H58 H 0.11424 0.41083 0.21707 0.0
H59 H 0.11765 0.42358 0.18088 0.0
H60 H 0.10737 0.38188 0.15882 0.0
H61 H 0.98817 0.32649 0.16569 0.0
H62 H -0.00132 0.36812 0.18756 0.0
H63 H 0.00695 0.42756 0.19129 0.0
H64 H 0.00556 0.48583 0.19088 0.0
H65 H 0.11803 0.54582 0.20985 0.0
N66 N 0.06662 0.42032 0.19998 0.0
H67 H 0.11971 0.4878 0.2093 0.0
C68 C 0.04935 0.66757 0.21693 0.0
C69 C 0.01227 0.65975 0.21642 0.0
C70 C -0.00192 0.67039 0.22874 0.0
C71 C 0.02057 0.68874 0.24182 0.0
C72 C 0.05691 0.69459 0.24262 0.0
C73 C 0.07112 0.68415 0.23027 0.0
C74 C 0.06598 0.68123 0.1898 0.0
C75 C 0.09434 0.71872 0.18776 0.0
C76 C 0.09274 0.73969 0.17543 0.0
C77 C 0.06256 0.72353 0.16485 0.0
C78 C 0.03469 0.68543 0.16658 0.0
C79 C 0.03632 0.66443 0.17899 0.0
C80 C 0.06354 0.62602 0.20173 0.0
C81 C 0.02993 0.59189 0.20418 0.0
C82 C 0.0291 0.55763 0.20344 0.0
C83 C 0.06165 0.55682 0.19996 0.0
C84 C 0.09461 0.59103 0.19673 0.0
C85 C 0.09553 0.62514 0.19773 0.0
C86 C 0.05775 0.39878 0.21399 0.0
C87 C 0.02117 0.3786 0.21968 0.0
C88 C 0.01258 0.35344 0.23198 0.0
C89 C 0.04052 0.34837 0.23885 0.0
C90 C 0.07749 0.3705 0.23367 0.0
C91 C 0.08589 0.39523 0.22131 0.0
C92 C 0.0591 0.39925 0.18579 0.0
C93 C 0.08933 0.40294 0.17737 0.0
C94 C 0.0834 0.37892 0.1649 0.0
C95 C 0.04696 0.35075 0.16059 0.0
C96 C 0.01655 0.34816 0.16862 0.0
C97 C 0.02255 0.37205 0.18116 0.0
C98 C 0.06384 0.45357 0.20007 0.0
C99 C 0.0314 0.45328 0.1952 0.0
C100 C 0.03054 0.48671 0.19511 0.0
C101 C 0.06186 0.52086 0.20014 0.0
C102 C 0.09375 0.52049 0.20545 0.0
C103 C 0.09472 0.48729 0.2053 0.0
H104 H 0.71141 0.10017 0.53755 0.0
N105 N 0.64448 0.0484 0.52709 0.0
H106 H 0.74597 0.09551 0.55963 0.0
H107 H 0.61741 0.99065 0.54786 0.0
H108 H 0.65143 0.98583 0.57029 0.0
H109 H 0.63086 0.97743 0.52126 0.0
H110 H 0.65797 0.95957 0.50039 0.0
H111 H 0.68025 0.08933 0.50257 0.0
H112 H 0.70707 0.07157 0.48143 0.0
H113 H 0.62767 0.09604 0.5397 0.0
H114 H 0.57712 0.98672 0.51796 0.0
H115 H 0.56637 0.08935 0.54212 0.0
H116 H 0.51599 0.98081 0.51931 0.0
H117 H 0.39137 0.0769 0.55092 0.0
H118 H 0.34825 0.06308 0.57227 0.0
H119 H 0.30637 0.94415 0.56624 0.0
H120 H 0.34866 0.95849 0.5445 0.0
H121 H 0.34802 0.96393 0.51615 0.0
H122 H 0.3096 0.95911 0.49344 0.0
H123 H 0.35963 0.08001 0.49382 0.0
H124 H 0.39744 0.08428 0.51651 0.0
H125 H 0.4613 0.08847 0.52849 0.0
H126 H 0.52144 0.09201 0.52718 0.0
H127 H 0.46603 0.97179 0.53466 0.0
N128 N 0.39451 0.02768 0.53226 0.0
H129 H 0.40574 0.9686 0.53486 0.0
C130 C 0.66202 0.04594 0.54114 0.0
C131 C 0.69807 0.07541 0.54482 0.0
C132 C 0.71765 0.0727 0.55747 0.0
C133 C 0.70147 0.04029 0.56677 0.0
C134 C 0.66485 0.01098 0.56327 0.0
C135 C 0.64526 0.01376 0.55054 0.0
C136 C 0.6537 0.03488 0.51346 0.0
C137 C 0.64673 -0.00212 0.51243 0.0
C138 C 0.66218 0.98767 0.50045 0.0
C139 C 0.68502 0.0143 0.48936 0.0
C140 C 0.69007 0.05059 0.48994 0.0
C141 C 0.67453 0.06071 0.50189 0.0
C142 C 0.60731 0.04236 0.52846 0.0
C143 C 0.6033 0.07071 0.53532 0.0
C144 C 0.56817 0.06693 0.53655 0.0
C145 C 0.53601 0.0348 0.53065 0.0
C146 C 0.53994 0.00586 0.52409 0.0
C147 C 0.57516 0.0094 0.52314 0.0
C148 C 0.37337 0.01885 0.54625 0.0
C149 C 0.37338 0.04796 0.55447 0.0
C150 C 0.34876 0.03992 0.5667 0.0
C151 C 0.32363 0.00242 0.571 0.0
C152 C 0.32491 0.9733 0.56312 0.0
C153 C 0.34942 0.98145 0.5508 0.0
C154 C 0.37531 0.02449 0.51793 0.0
C155 C 0.35087 0.98929 0.51118 0.0
C156 C 0.32893 0.98661 0.49828 0.0
C157 C 0.33156 0.01919 0.49188 0.0
C158 C 0.35727 0.05446 0.49836 0.0
C159 C 0.37882 0.057 0.51131 0.0
C160 C 0.42933 0.0285 0.53198 0.0
C161 C 0.46232 0.06298 0.52984 0.0
C162 C 0.49669 0.06488 0.52925 0.0
C163 C 0.49894 0.03225 0.53105 0.0
C164 C 0.46554 -0.0025 0.53312 0.0
C165 C 0.43099 -0.00439 0.53343 0.0
H166 H 0.61314 0.73163 0.87225 0.0
N167 N 0.59319 0.66538 0.85971 0.0
H168 H 0.65303 0.76106 0.89511 0.0
H169 H 0.62252 0.63347 0.8786 0.0
H170 H 0.66226 0.66251 0.90154 0.0
H171 H 0.65193 0.65553 0.85312 0.0
H172 H 0.69239 0.68011 0.83074 0.0
H173 H 0.58272 0.69622 0.83462 0.0
H174 H 0.62208 0.71939 0.81165 0.0
H175 H 0.5275 0.64869 0.87073 0.0
H176 H 0.58666 0.5978 0.8519 0.0
H177 H 0.47175 0.58664 0.87365 0.0
H178 H 0.53047 0.53573 0.85388 0.0
H179 H 0.31094 0.40712 0.88772 0.0
H180 H 0.28473 0.36436 0.90962 0.0
H181 H 0.36188 0.3256 0.9016 0.0
H182 H 0.38624 0.36694 0.87923 0.0
H183 H 0.39109 0.37704 0.85176 0.0
H184 H 0.36394 0.33724 0.82862 0.0
H185 H 0.27301 0.35909 0.82912 0.0
H186 H 0.30038 0.39861 0.85219 0.0
H187 H 0.36695 0.47702 0.86129 0.0
H188 H 0.42395 0.53834 0.85895 0.0
H189 H 0.48966 0.48783 0.87091 0.0
N190 N 0.36096 0.41175 0.86779 0.0
H191 H 0.43246 0.42638 0.87231 0.0
C192 C 0.61493 0.68057 0.87374 0.0
C193 C 0.62355 0.71636 0.87871 0.0
C194 C 0.64615 0.73297 0.89178 0.0
C195 C 0.66075 0.71406 0.90013 0.0
C196 C 0.65169 0.67789 0.89526 0.0
C197 C 0.62887 0.6612 0.8822 0.0
C198 C 0.61456 0.67469 0.84567 0.0
C199 C 0.64503 0.66922 0.84411 0.0
C200 C 0.66804 0.68303 0.83117 0.0
C201 C 0.66084 0.70219 0.81942 0.0
C202 C 0.62901 0.70558 0.82062 0.0
C203 C 0.60627 0.69209 0.83365 0.0
C204 C 0.56096 0.62804 0.86089 0.0
C205 C 0.5282 0.62405 0.86704 0.0
C206 C 0.49632 0.58853 0.86859 0.0
C207 C 0.49629 0.556 0.86381 0.0
C208 C 0.52945 0.56002 0.85781 0.0
C209 C 0.5616 0.59566 0.85648 0.0
C210 C 0.35066 0.39054 0.88194 0.0
C211 C 0.32257 0.38985 0.89092 0.0
C212 C 0.3078 0.36546 0.90349 0.0
C213 C 0.3211 0.34132 0.90744 0.0
C214 C 0.35054 0.34332 0.89879 0.0
C215 C 0.36496 0.36744 0.88608 0.0
C216 C 0.34745 0.39049 0.85365 0.0
C217 C 0.36542 0.3733 0.84682 0.0
C218 C 0.34987 0.35058 0.83363 0.0
C219 C 0.31637 0.34509 0.82704 0.0
C220 C 0.29911 0.36318 0.83377 0.0
C221 C 0.31451 0.38557 0.84696 0.0
C222 C 0.39536 0.44735 0.8672 0.0
C223 C 0.39374 0.47937 0.86345 0.0
C224 C 0.42639 0.51441 0.86222 0.0
C225 C 0.46159 0.51831 0.86492 0.0
C226 C 0.46315 0.48595 0.86863 0.0
C227 C 0.43034 0.45072 0.86963 0.0
H228 H 0.946 0.10918 0.04987 0.0
H229 H 0.95795 0.1567 0.06948 0.0
H230 H 0.0377 0.13517 0.09226 0.0
H231 H 0.02611 0.08753 0.07263 0.0
H232 H 0.95121 0.14832 0.10281 0.0
H233 H 0.09589 0.25071 0.08397 0.0
H234 H 0.0628 0.21217 0.07182 0.0
H235 H 0.08581 0.20362 0.08763 0.0
C236 C 0.96605 0.11441 0.05906 0.0
C237 C 0.98527 0.09465 0.05962 0.0
C238 C 0.97278 0.14157 0.07026 0.0
C239 C -0.00096 0.14974 0.08217 0.0
C240 C 0.01773 0.12961 0.083 0.0
H241 H 0.08499 0.3138 0.15688 0.0
H242 H 0.0728 0.26488 0.13789 0.0
C243 C 0.01091 0.10228 0.07182 0.0
C244 C 0.00683 0.17947 0.09366 0.0
H245 H 0.07448 0.26656 0.10629 0.0
C246 C 0.97812 0.17422 0.10359 0.0
C247 C 0.04198 0.21312 0.09461 0.0
C248 C 0.0734 0.22058 0.08389 0.0
C249 C 0.98379 0.20158 0.11464 0.0
C250 C 0.01887 0.23547 0.1155 0.0
C251 C 0.04761 0.24062 0.10558 0.0
C252 C 0.02651 0.26578 0.12672 0.0
C253 C 0.95246 0.19354 0.12553 0.0
C254 C 0.00501 0.28309 0.12655 0.0
C255 C 0.01189 0.31105 0.13741 0.0
C256 C 0.04075 0.32257 0.14849 0.0
C257 C 0.06284 0.30586 0.14837 0.0
C258 C 0.05579 0.27776 0.13758 0.0
H259 H 0.93177 0.1629 0.12625 0.0
H260 H 0.96336 0.20436 0.13737 0.0
H261 H 0.93759 0.20767 0.12119 0.0
H262 H 0.98291 0.27498 0.11801 0.0
H263 H -0.00527 0.32376 0.1371 0.0
H264 H 0.94646 0.02931 0.41449 0.0
H265 H 0.89765 0.02251 0.43185 0.0
H266 H 0.81576 0.92515 0.40602 0.0
H267 H 0.8646 0.93217 0.38833 0.0
H268 H 0.79388 0.97638 0.41066 0.0
H269 H 0.84243 0.94888 0.46627 0.0
H270 H 0.87883 0.99003 0.45701 0.0
H271 H 0.86009 0.94469 0.44783 0.0
C272 C 0.91819 0.00606 0.41261 0.0
C273 C 0.90942 0.98125 0.40003 0.0
C274 C 0.89032 0.00207 0.42263 0.0
C275 C 0.85314 0.97296 0.42039 0.0
C276 C 0.84433 0.94764 0.40802 0.0
H277 H 0.66027 0.94981 0.47207 0.0
H278 H 0.69738 0.93461 0.45484 0.0
C279 C 0.87227 0.95165 0.39795 0.0
C280 C 0.82335 0.97114 0.43027 0.0
H281 H 0.80085 0.97327 0.46803 0.0
C282 C 0.79489 0.97488 0.42319 0.0
C283 C 0.82462 0.96903 0.44661 0.0
C284 C 0.85293 0.96253 0.45486 0.0
C285 C 0.76907 0.97887 0.43209 0.0
C286 C 0.7718 0.97896 0.44841 0.0
C287 C 0.79909 0.97346 0.45548 0.0
C288 C 0.74868 0.98788 0.45837 0.0
C289 C 0.74023 0.98488 0.42405 0.0
C290 C 0.76535 0.02276 0.46599 0.0
C291 C 0.74437 0.03151 0.47574 0.0
C292 C 0.70628 0.00542 0.47816 0.0
C293 C 0.68956 0.97043 0.47045 0.0
C294 C 0.71062 0.96178 0.46058 0.0
H295 H 0.74373 0.98709 0.41128 0.0
H296 H 0.71185 0.96099 0.42663 0.0
H297 H 0.742 0.01094 0.42849 0.0
H298 H 0.79476 0.04316 0.46445 0.0
H299 H 0.75828 0.05839 0.48172 0.0
H300 H 0.92807 0.96075 0.75378 0.0
H301 H 0.87979 0.90579 0.76737 0.0
H302 H 0.86486 0.8359 0.72772 0.0
H303 H 0.9136 0.89102 0.71395 0.0
H304 H 0.79733 0.83168 0.73987 0.0
H305 H 0.88109 0.81262 0.78541 0.0
H306 H 0.89213 0.86043 0.78318 0.0
H307 H 0.90112 0.83752 0.76757 0.0
C308 C 0.91491 0.93365 0.74798 0.0
C309 C 0.92464 0.93026 0.73277 0.0
C310 C 0.88747 0.90223 0.75581 0.0
C311 C 0.86907 0.8668 0.7486 0.0
C312 C 0.87901 0.86303 0.73351 0.0
H313 H 0.70143 0.67715 0.80381 0.0
H314 H 0.75039 0.71159 0.78468 0.0
C315 C 0.90688 0.89449 0.72569 0.0
C316 C 0.83761 0.83465 0.75655 0.0
H317 H 0.8155 0.78469 0.7902 0.0
C318 C 0.80127 0.8208 0.75072 0.0
C319 C 0.84289 0.82035 0.77061 0.0
C320 C 0.88144 0.8332 0.77702 0.0
C321 C 0.76992 0.79469 0.75911 0.0
C322 C 0.77519 0.78238 0.7737 0.0
C323 C 0.81155 0.7944 0.77905 0.0
C324 C 0.74361 0.76001 0.78424 0.0
C325 C 0.73139 0.78127 0.75253 0.0
C326 C 0.72373 0.77592 0.79033 0.0
C327 C 0.69621 0.75667 0.8014 0.0
C328 C 0.68789 0.72097 0.80662 0.0
C329 C 0.70736 0.70474 0.80021 0.0
C330 C 0.73517 0.72422 0.7892 0.0
H331 H 0.73194 0.7846 0.73974 0.0
H332 H 0.71187 0.75126 0.75541 0.0
H333 H 0.72037 0.79823 0.75762 0.0
H334 H 0.73042 0.80389 0.78691 0.0
H335 H 0.68253 0.77052 0.80629 0.0
H336 H 0.06904 0.937 0.0522 0.0
H337 H 0.07813 0.89526 0.06949 0.0
H338 H -0.00684 0.88834 0.09976 0.0
H339 H 0.9834 0.92937 0.08243 0.0
H340 H 0.0989 0.90248 0.10012 0.0
H341 H 0.95709 0.77806 0.09169 0.0
H342 H 0.97555 0.81885 0.07934 0.0
H343 H 0.9563 0.81901 0.0979 0.0
C344 C 0.05235 0.92665 0.06256 0.0
C345 C 0.02531 0.93627 0.06589 0.0
C346 C 0.05755 0.90277 0.07241 0.0
C347 C 0.03575 0.88803 0.08573 0.0
C348 C 0.00959 0.89857 0.08933 0.0
H349 H 0.07564 0.79497 0.16761 0.0
H350 H 0.07084 0.83395 0.14755 0.0
C351 C 0.00426 0.92228 0.07947 0.0
C352 C 0.04063 0.86206 0.09601 0.0
H353 H -0.00692 0.77543 0.1129 0.0
C354 C 0.07585 0.87458 0.10282 0.0
C355 C 0.01073 0.82537 0.09929 0.0
C356 C 0.97289 0.80933 0.09155 0.0
C357 C 0.08162 0.85195 0.11327 0.0
C358 C 0.05115 0.81615 0.11724 0.0
C359 C 0.0163 0.80306 0.10999 0.0
C360 C 0.05452 0.7924 0.1293 0.0
C361 C 0.12035 0.86658 0.11991 0.0
C362 C 0.04581 0.75559 0.12583 0.0
C363 C 0.04835 0.73308 0.13734 0.0
C364 C 0.05958 0.74701 0.15252 0.0
C365 C 0.06777 0.78371 0.15596 0.0
C366 C 0.06509 0.80607 0.14449 0.0
H367 H 0.14212 0.88821 0.11229 0.0
H368 H 0.12264 0.87992 0.13133 0.0
H369 H 0.1262 0.84346 0.12158 0.0
H370 H 0.0373 0.74438 0.11419 0.0
H371 H 0.04197 0.70498 0.13432 0.0
H372 H 0.16133 0.07124 0.37896 0.0
H373 H 0.2015 0.0659 0.39835 0.0
H374 H 0.10435 0.98404 0.42323 0.0
H375 H 0.06371 0.98907 0.40385 0.0
H376 H 0.2024 0.07826 0.43157 0.0
H377 H 0.16784 0.93315 0.41631 0.0
H378 H 0.15881 0.96183 0.40325 0.0
H379 H 0.12896 0.93973 0.41951 0.0
C380 C 0.14839 0.05206 0.38854 0.0
C381 C 0.10924 0.03049 0.38981 0.0
C382 C 0.17144 0.04907 0.39961 0.0
C383 C 0.15585 0.02424 0.41208 0.0
C384 C 0.11686 0.00295 0.41353 0.0
H385 H 0.25626 0.97024 0.48921 0.0
H386 H 0.21336 0.97061 0.46967 0.0
C387 C 0.09372 0.00605 0.4025 0.0
C388 C 0.18062 0.02134 0.42371 0.0
H389 H 0.2083 0.96214 0.43779 0.0
C390 C 0.20376 0.05291 0.43294 0.0
C391 C 0.18208 0.98815 0.42548 0.0
C392 C 0.15834 0.95377 0.41557 0.0
C393 C 0.22824 0.05213 0.44403 0.0
C394 C 0.23029 0.01916 0.44562 0.0
C395 C 0.20681 0.98742 0.43648 0.0
C396 C 0.2566 0.01718 0.45674 0.0
C397 C 0.25112 0.08639 0.45414 0.0
C398 C 0.29523 0.04239 0.45564 0.0
C399 C 0.31975 0.04228 0.46679 0.0
C400 C 0.30613 0.01661 0.47913 0.0
C401 C 0.26761 0.99017 0.47978 0.0
C402 C 0.24306 0.99047 0.46867 0.0
H403 H 0.23881 0.10467 0.45451 0.0
H404 H 0.25352 0.07824 0.46617 0.0
H405 H 0.27968 0.10325 0.44936 0.0
H406 H 0.30638 0.06256 0.44629 0.0
H407 H 0.34936 0.06258 0.46585 0.0
H408 H 0.11282 0.06085 0.73861 0.0
H409 H 0.15894 0.10929 0.75618 0.0
H410 H 0.13979 0.19213 0.73462 0.0
H411 H 0.09335 0.14391 0.71719 0.0
H412 H 0.22524 0.1788 0.74998 0.0
H413 H 0.12036 0.19908 0.7807 0.0
H414 H 0.10739 0.15922 0.76818 0.0
H415 H 0.12008 0.2042 0.76004 0.0
C416 C 0.11848 0.0894 0.7376 0.0
C417 C 0.09917 0.09849 0.72662 0.0
C418 C 0.14488 0.11702 0.74761 0.0
C419 C 0.1523 0.1541 0.74684 0.0
C420 C 0.13391 0.16349 0.73559 0.0
H421 H 0.28435 0.35633 0.80138 0.0
H422 H 0.24777 0.31073 0.78098 0.0
C423 C 0.10748 0.13593 0.72561 0.0
C424 C 0.17868 0.18286 0.75801 0.0
H425 H 0.18397 0.24193 0.78679 0.0
C426 C 0.21629 0.19258 0.75807 0.0
C427 C 0.1668 0.20064 0.76856 0.0
C428 C 0.12641 0.19008 0.76952 0.0
C429 C 0.24256 0.22027 0.76822 0.0
C430 C 0.23067 0.2382 0.77869 0.0
C431 C 0.19304 0.22831 0.77866 0.0
C432 C 0.25645 0.26695 0.79002 0.0
C433 C 0.28289 0.23063 0.76746 0.0
C434 C 0.27382 0.25757 0.80175 0.0
C435 C 0.29471 0.28357 0.81344 0.0
C436 C 0.29823 0.31924 0.81366 0.0
C437 C 0.28177 0.32892 0.80161 0.0
C438 C 0.26101 0.30298 0.78992 0.0
H439 H 0.28914 0.22171 0.75631 0.0
H440 H 0.30197 0.26146 0.76891 0.0
H441 H 0.28883 0.21632 0.77698 0.0
H442 H 0.27 0.22965 0.80222 0.0
H443 H 0.30662 0.27512 0.82268 0.0
H444 H 0.89896 0.06201 0.68508 0.0
H445 H 0.85503 0.05786 0.66511 0.0
H446 H 0.89445 0.00444 0.63408 0.0
H447 H 0.93872 0.00845 0.65402 0.0
H448 H 0.88933 0.06602 0.62113 0.0
H449 H 0.75866 0.96062 0.65011 0.0
H450 H 0.79025 7e-05 0.66205 0.0
H451 H 0.80399 0.96786 0.65538 0.0
C452 C 0.89834 0.0493 0.67403 0.0
C453 C 0.92235 0.03547 0.67117 0.0
C454 C 0.87302 0.04675 0.66267 0.0
C455 C 0.87116 0.03036 0.64823 0.0
C456 C 0.89532 0.01694 0.64522 0.0
H457 H 0.70457 0.97794 0.57514 0.0
H458 H 0.74491 0.97384 0.59493 0.0
C459 C 0.92058 0.01927 0.65662 0.0
C460 C 0.84475 0.02841 0.63614 0.0
H461 H 0.7519 0.99201 0.62827 0.0
C462 C 0.85928 0.04965 0.62262 0.0
C463 C 0.80558 0.00672 0.63809 0.0
C464 C 0.78855 0.98222 0.65212 0.0
C465 C 0.83563 0.0507 0.61118 0.0
C466 C 0.79654 0.03019 0.61342 0.0
C467 C 0.78193 0.00798 0.6267 0.0
C468 C 0.77052 0.03201 0.60215 0.0
C469 C 0.85259 0.07376 0.59679 0.0
C470 C 0.77089 0.06579 0.6 0.0
C471 C 0.74765 0.06815 0.58885 0.0
C472 C 0.72359 0.03674 0.5796 0.0
C473 C 0.72245 0.00255 0.58215 0.0
C474 C 0.74564 0.0002 0.59338 0.0
H475 H 0.88196 0.08092 0.59525 0.0
H476 H 0.83604 0.05844 0.58632 0.0
H477 H 0.85244 0.10043 0.59772 0.0
H478 H 0.78945 0.09045 0.60688 0.0
H479 H 0.74871 0.09469 0.58741 0.0
H480 H 0.94189 0.89796 0.99164 0.0
H481 H 0.89192 0.8554 0.97374 0.0
H482 H 0.81774 0.88705 -0.00602 0.0
H483 H 0.86754 0.92986 0.01184 0.0
H484 H 0.81748 0.79368 0.98017 0.0
H485 H 0.81762 0.90917 0.94709 0.0
H486 H 0.8555 0.9171 0.95994 0.0
H487 H 0.81282 0.91072 0.96771 0.0
C488 C 0.91491 0.89578 0.99231 0.0
C489 C 0.90874 0.9175 0.00306 0.0
C490 C 0.88641 0.87141 0.98211 0.0
C491 C 0.85139 0.86853 0.98243 0.0
C492 C 0.84481 0.88937 -0.00659 0.0
H493 H 0.6537 0.75464 0.92345 0.0
H494 H 0.69853 0.78955 0.94433 0.0
C495 C 0.87325 0.9137 0.00363 0.0
C496 C 0.82196 0.84427 0.97105 0.0
H497 H 0.77089 0.84707 0.94046 0.0
C498 C 0.80725 0.80525 0.97147 0.0
C499 C 0.80877 0.85958 0.95975 0.0
C500 C 0.82463 0.90145 0.95844 0.0
C501 C 0.77919 0.78099 0.96095 0.0
C502 C 0.76614 0.79634 0.94959 0.0
C503 C 0.78084 0.83537 0.94923 0.0
C504 C 0.73781 0.7727 0.9377 0.0
C505 C 0.76333 0.73914 0.96229 0.0
C506 C 0.745 0.75158 0.92707 0.0
C507 C 0.71944 0.73162 0.91514 0.0
C508 C 0.68642 0.73277 0.91351 0.0
C509 C 0.67906 0.75351 0.92431 0.0
C510 C 0.70455 0.77333 0.93628 0.0
H511 H 0.76839 0.73135 0.97401 0.0
H512 H 0.7328 0.72324 0.95983 0.0
H513 H 0.77708 0.7303 0.95374 0.0
H514 H 0.7709 0.75144 0.92772 0.0
H515 H 0.72618 0.71641 0.90685 0.0
H516 H 0.96122 0.88472 0.34469 0.0
H517 H 0.95488 0.82936 0.33131 0.0
H518 H 0.0327 0.9014 0.29673 0.0
H519 H 0.0395 0.95659 0.30995 0.0
H520 H 0.93383 0.80276 0.29992 0.0
H521 H 0.0792 0.84127 0.31409 0.0
H522 H 0.05593 0.86204 0.32385 0.0
H523 H 0.07637 0.87894 0.30514 0.0
C524 C 0.97678 0.88874 0.33417 0.0
C525 C 0.0012 0.92516 0.32849 0.0
C526 C 0.97311 0.8571 0.32657 0.0
C527 C -0.0061 0.86143 0.31323 0.0
C528 C 0.01703 0.89755 0.3072 0.0
H529 H 0.9852 0.72816 0.23742 0.0
H530 H 0.97266 0.76311 0.25673 0.0
C531 C 0.02075 0.92907 0.31476 0.0
C532 C -0.00762 0.82862 0.30562 0.0
H533 H 0.0487 0.79642 0.29359 0.0
C534 C 0.95875 0.80095 0.29871 0.0
C535 C 0.02471 0.82588 0.30436 0.0
C536 C 0.06101 0.8534 0.31239 0.0
C537 C 0.95721 0.77181 0.28976 0.0
C538 C 0.99032 0.77085 0.28749 0.0
C539 C 0.02336 0.79728 0.29519 0.0
C540 C -0.00754 0.74489 0.27625 0.0
C541 C 0.92026 0.74264 0.2827 0.0
C542 C 0.00788 0.723 0.28074 0.0
C543 C 0.01546 0.70324 0.26966 0.0
C544 C 0.00775 0.70502 0.25388 0.0
C545 C 0.99085 0.72565 0.24951 0.0
C546 C 0.98352 0.74558 0.26057 0.0
H547 H 0.89652 0.7391 0.28976 0.0
H548 H 0.91732 0.75201 0.27099 0.0
H549 H 0.91826 0.71493 0.28158 0.0
H550 H 0.01518 0.72219 0.29277 0.0
H551 H 0.02826 0.68736 0.27338 0.0
H552 H 0.06245 0.93518 0.67141 0.0
H553 H 0.10458 0.92773 0.65413 0.0
H554 H 0.13789 0.03519 0.63338 0.0
H555 H 0.0953 0.04234 0.65023 0.0
H556 H 0.12648 0.98312 0.61183 0.0
H557 H 0.21724 0.9826 0.65938 0.0
H558 H 0.16889 0.94645 0.6607 0.0
H559 H 0.18218 -0.00495 0.66252 0.0
C560 C 0.07857 0.95706 0.66308 0.0
C561 C 0.07568 0.98944 0.66224 0.0
C562 C 0.10285 0.95291 0.6533 0.0
C563 C 0.12495 0.98126 0.64268 0.0
C564 C 0.12124 0.01303 0.64154 0.0
H565 H 0.3305 0.04097 0.59792 0.0
H566 H 0.28065 0.03176 0.61531 0.0
C567 C 0.09685 0.01707 0.65119 0.0
C568 C 0.15234 0.97845 0.63277 0.0
H569 H 0.23241 0.97479 0.63392 0.0
C570 C 0.14952 0.98106 0.61665 0.0
C571 C 0.18264 0.97623 0.6391 0.0
C572 C 0.18826 0.97526 0.65637 0.0
C573 C 0.1765 0.98223 0.60669 0.0
C574 C 0.20662 0.97964 0.613 0.0
C575 C 0.20912 0.9764 0.62911 0.0
C576 C 0.23712 0.98287 0.60315 0.0
C577 C 0.17329 0.98789 0.58957 0.0
C578 C 0.22946 0.95777 0.59082 0.0
C579 C 0.25779 0.96337 0.58068 0.0
C580 C 0.29452 0.99389 0.5828 0.0
C581 C 0.30244 0.01768 0.59572 0.0
C582 C 0.27402 0.01226 0.60576 0.0
H583 H 0.15426 -0.00123 0.5872 0.0
H584 H 0.20105 0.00785 0.58463 0.0
H585 H 0.16178 0.96051 0.58345 0.0
H586 H 0.20136 0.93437 0.5888 0.0
H587 H 0.25049 0.94458 0.57083 0.0
H588 H 0.0479 0.10805 0.98116 0.0
H589 H 0.10186 0.15165 0.96601 0.0
H590 H 0.17093 0.12017 0.99172 0.0
H591 H 0.11689 0.07666 0.0073 0.0
H592 H 0.20478 0.19672 0.98814 0.0
H593 H 0.15021 0.12567 0.93164 0.0
H594 H 0.11772 0.13547 0.94084 0.0
H595 H 0.12942 0.1034 0.94978 0.0
C596 C 0.07445 0.1101 0.98359 0.0
C597 C 0.07795 0.08859 -0.0046 0.0
C598 C 0.10527 0.13496 0.97483 0.0
C599 C 0.14024 0.13859 0.97751 0.0
C600 C 0.14409 0.11754 0.98938 0.0
H601 H 0.30705 0.26885 0.90765 0.0
H602 H 0.2701 0.21929 0.92616 0.0
C603 C 0.11318 0.09267 -0.00175 0.0
C604 C 0.17271 0.16529 0.9681 0.0
H605 H 0.19933 0.19066 0.9307 0.0
C606 C 0.20393 0.19514 0.97559 0.0
C607 C 0.17199 0.16276 0.95174 0.0
C608 C 0.1407 0.12985 0.94305 0.0
C609 C 0.23349 0.22368 0.96709 0.0
C610 C 0.23125 0.22275 0.95069 0.0
C611 C 0.20096 0.19176 0.94326 0.0
C612 C 0.25861 0.25434 0.94092 0.0
C613 C 0.26667 0.25452 0.9758 0.0
C614 C 0.26523 0.29088 0.94319 0.0
C615 C 0.28713 0.31961 0.9328 0.0
C616 C 0.30223 0.31227 0.91968 0.0
C617 C 0.29647 0.27587 0.91771 0.0
C618 C 0.27499 0.2473 0.92823 0.0
H619 H 0.27069 0.2443 0.98716 0.0
H620 H 0.29277 0.26564 0.96906 0.0
H621 H 0.26166 0.27793 0.97814 0.0
H622 H 0.25224 0.29693 0.95266 0.0
H623 H 0.29136 0.34735 0.93484 0.0
H624 H 0.05007 0.13536 0.34161 0.0
H625 H 0.05059 0.18297 0.32469 0.0
H626 H 0.93636 0.10489 0.31099 0.0
H627 H 0.93596 0.0567 0.32762 0.0
H628 H 0.97862 0.13817 0.28643 0.0
H629 H 0.00492 0.24756 0.32978 0.0
H630 H 0.03947 0.23407 0.33102 0.0
H631 H -0.00862 0.2001 0.33517 0.0
C632 C 0.02494 0.12841 0.3351 0.0
C633 C -0.00703 0.09227 0.33595 0.0
C634 C 0.02517 0.15578 0.32553 0.0
C635 C -0.00673 0.14778 0.3168 0.0
C636 C 0.9612 0.11178 0.31771 0.0
H637 H 0.99068 0.32719 0.26285 0.0
H638 H 0.97442 0.27669 0.28164 0.0
C639 C 0.96103 0.08428 0.3272 0.0
C640 C -0.00562 0.17611 0.3059 0.0
H641 H 0.01801 0.26808 0.30323 0.0
C642 C 0.98673 0.16642 0.29015 0.0
C643 C 0.00426 0.21278 0.31076 0.0
C644 C 0.01006 0.22413 0.32763 0.0
C645 C 0.99045 0.19287 0.27904 0.0
C646 C 0.00307 0.2303 0.28376 0.0
C647 C 0.0089 0.23953 0.2996 0.0
C648 C 0.01233 0.26062 0.27237 0.0
C649 C 0.98097 0.18044 0.26234 0.0
C650 C 0.03939 0.26868 0.2611 0.0
C651 C 0.0484 0.29709 0.25029 0.0
C652 C 0.03102 0.31862 0.25066 0.0
C653 C 0.00428 0.31089 0.26213 0.0
C654 C -0.00488 0.28221 0.27292 0.0
H655 H 0.96053 0.14974 0.26143 0.0
H656 H 0.96921 0.19581 0.25626 0.0
H657 H 0.00673 0.18614 0.25631 0.0
H658 H 0.05365 0.25297 0.26065 0.0
H659 H 0.0687 0.30179 0.24151 0.0
loop_
_geom_bond_atom_site_label_1
_geom_bond_atom_site_label_2
_geom_bond_distance
_geom_bond_site_symmetry_2
_ccdc_geom_bond_type
C0 O1 1.306 1_455 S
C0 O3 1.160 . S
O1 C0 1.306 1_655 S
O1 Cd2 2.228 . S
Cd2 O1 2.228 . S
Cd2 O6 2.273 1_545 S
Cd2 O10 2.277 1_655 S
O3 C0 1.160 . S
O3 Cd4 2.203 . S
Cd4 O3 2.203 . S
Cd4 O6 2.411 1_445 S
Cd4 O7 2.333 1_545 S
Cd4 O8 2.352 1_545 S
Cd4 O12 2.277 . S
Cd4 O13 2.356 1_545 S
C5 O10 1.209 . S
C5 O12 1.226 . S
O6 Cd2 2.273 1_565 S
O6 Cd4 2.411 1_665 S
O6 C9 1.320 . S
O7 Cd4 2.333 1_565 S
O7 C9 1.214 1_455 S
O8 Cd4 2.352 1_565 S
O8 C11 1.258 . S
C9 O6 1.320 . S
C9 O7 1.214 1_655 S
O10 Cd2 2.277 1_455 S
O10 C5 1.209 . S
C11 O8 1.258 . S
C11 O13 1.282 . S
O12 Cd4 2.277 . S
O12 C5 1.226 . S
O13 Cd4 2.356 1_565 S
O13 C11 1.282 . S
C14 O15 1.306 . S
C14 O17 1.160 1_545 S
O15 C14 1.306 . S
O15 Cd16 2.228 . S
Cd16 O15 2.228 . S
Cd16 O20 2.273 . S
Cd16 O24 2.277 1_545 S
O17 C14 1.160 1_565 S
O17 Cd18 2.203 1_565 S
Cd18 O17 2.203 1_545 S
Cd18 O20 2.411 . S
Cd18 O21 2.333 1_455 S
Cd18 O22 2.352 1_455 S
Cd18 O26 2.277 1_445 S
Cd18 O27 2.356 1_445 S
C19 O24 1.209 . S
C19 O26 1.226 1_455 S
O20 Cd16 2.273 . S
O20 Cd18 2.411 . S
O20 C23 1.320 . S
O21 Cd18 2.333 1_655 S
O21 C23 1.214 1_655 S
O22 Cd18 2.352 1_655 S
O22 C25 1.258 . S
C23 O20 1.320 . S
C23 O21 1.214 1_455 S
O24 Cd16 2.277 1_565 S
O24 C19 1.209 . S
C25 O22 1.258 . S
C25 O27 1.282 1_545 S
O26 Cd18 2.277 1_665 S
O26 C19 1.226 1_655 S
O27 Cd18 2.356 1_665 S
O27 C25 1.282 1_565 S
C28 O29 1.306 . S
C28 O31 1.193 . S
O29 C28 1.306 . S
O29 Cd30 2.228 . S
Cd30 O29 2.228 . S
Cd30 O34 2.273 1_655 S
Cd30 O38 2.277 1_545 S
O31 C28 1.193 . S
O31 Cd32 2.195 1_655 S
Cd32 O31 2.195 1_455 S
Cd32 O34 2.411 . S
Cd32 O35 2.333 . S
Cd32 O36 2.352 . S
Cd32 O40 2.277 1_445 S
Cd32 O41 2.356 1_545 S
C33 O38 1.209 . S
C33 O40 1.226 . S
O34 Cd30 2.273 1_455 S
O34 Cd32 2.411 . S
O34 C37 1.320 . S
O35 Cd32 2.333 . S
O35 C37 1.214 . S
O36 Cd32 2.352 . S
O36 C39 1.258 . S
C37 O34 1.320 . S
C37 O35 1.214 . S
O38 Cd30 2.277 1_565 S
O38 C33 1.209 . S
C39 O36 1.258 . S
C39 O41 1.282 1_545 S
O40 Cd32 2.277 1_665 S
O40 C33 1.226 . S
O41 Cd32 2.356 1_565 S
O41 C39 1.282 1_565 S
H42 C69 0.929 1_655 S
N43 C68 1.433 . S
N43 C74 1.435 . S
N43 C80 1.423 . S
H44 C70 0.930 . S
H45 C73 0.931 . S
H46 C72 0.929 . S
H47 C75 0.930 . S
H48 C76 0.932 . S
H49 C79 0.929 1_655 S
H50 C78 0.931 1_655 S
H51 C81 0.929 . S
H52 C85 0.932 . S
H53 C82 0.931 . S
H54 C84 0.929 . S
H55 C87 0.929 1_655 S
H56 C88 0.930 . S
H57 C90 0.929 . S
H58 C91 0.931 . S
H59 C93 0.930 . S
H60 C94 0.932 . S
H61 C96 0.931 1_655 S
H62 C97 0.929 1_655 S
H63 C99 0.929 . S
H64 C100 0.931 . S
H65 C102 0.929 . S
N66 C86 1.433 . S
N66 C92 1.435 . S
N66 C98 1.423 . S
H67 C103 0.932 . S
C68 N43 1.433 . S
C68 C69 1.363 . S
C68 C73 1.370 . S
C69 H42 0.929 1_455 S
C69 C68 1.363 . S
C69 C70 1.385 . S
C70 H44 0.930 . S
C70 C69 1.385 . S
C70 C71 1.357 . S
C71 C70 1.357 . S
C71 C72 1.406 . S
C72 H46 0.929 . S
C72 C71 1.406 . S
C72 C73 1.391 . S
C73 H45 0.931 . S
C73 C68 1.370 . S
C73 C72 1.391 . S
C74 N43 1.435 . S
C74 C75 1.358 . S
C74 C79 1.371 . S
C75 H47 0.930 . S
C75 C74 1.358 . S
C75 C76 1.405 . S
C76 H48 0.932 . S
C76 C75 1.405 . S
C76 C77 1.383 . S
C77 C76 1.383 . S
C77 C78 1.393 . S
C78 H50 0.931 1_455 S
C78 C77 1.393 . S
C78 C79 1.382 . S
C79 H49 0.929 1_455 S
C79 C74 1.371 . S
C79 C78 1.382 . S
C80 N43 1.423 . S
C80 C81 1.362 1_455 S
C80 C85 1.388 . S
C81 H51 0.929 . S
C81 C80 1.362 1_655 S
C81 C82 1.376 . S
C82 H53 0.931 . S
C82 C81 1.376 . S
C82 C83 1.396 1_655 S
C83 C82 1.396 1_455 S
C83 C84 1.348 . S
C83 C101 1.472 . S
C84 H54 0.929 . S
C84 C83 1.348 . S
C84 C85 1.443 . S
C85 H52 0.932 . S
C85 C80 1.388 . S
C85 C84 1.443 . S
C86 N66 1.433 . S
C86 C87 1.363 . S
C86 C91 1.370 . S
C87 H55 0.929 1_455 S
C87 C86 1.363 . S
C87 C88 1.385 . S
C88 H56 0.930 . S
C88 C87 1.385 . S
C88 C89 1.357 . S
C89 C88 1.357 . S
C89 C90 1.406 . S
C90 H57 0.929 . S
C90 C89 1.406 . S
C90 C91 1.391 . S
C91 H58 0.931 . S
C91 C86 1.370 . S
C91 C90 1.391 . S
C92 N66 1.435 . S
C92 C93 1.358 . S
C92 C97 1.371 . S
C93 H59 0.930 . S
C93 C92 1.358 . S
C93 C94 1.405 . S
C94 H60 0.932 . S
C94 C93 1.405 . S
C94 C95 1.383 . S
C95 C94 1.383 . S
C95 C96 1.393 . S
C96 H61 0.931 1_455 S
C96 C95 1.393 . S
C96 C97 1.382 . S
C97 H62 0.929 1_455 S
C97 C92 1.371 . S
C97 C96 1.382 . S
C98 N66 1.423 . S
C98 C99 1.362 1_455 S
C98 C103 1.388 . S
C99 H63 0.929 . S
C99 C98 1.362 1_655 S
C99 C100 1.376 . S
C100 H64 0.931 . S
C100 C99 1.376 . S
C100 C101 1.396 1_655 S
C101 C83 1.472 . S
C101 C100 1.396 1_455 S
C101 C102 1.348 . S
C102 H65 0.929 . S
C102 C101 1.348 . S
C102 C103 1.443 . S
C103 H67 0.932 . S
C103 C98 1.388 . S
C103 C102 1.443 . S
H104 C131 0.929 . S
N105 C130 1.433 . S
N105 C136 1.435 . S
N105 C142 1.423 . S
H106 C132 0.930 . S
H107 C135 0.931 1_565 S
H108 C134 0.931 . S
H109 C137 0.930 . S
H110 C138 0.932 . S
H111 C141 0.929 . S
H112 C140 0.931 . S
H113 C143 0.929 . S
H114 C147 0.932 1_565 S
H115 C144 0.931 . S
H116 C146 0.929 . S
H117 C149 0.929 . S
H118 C150 0.930 . S
H119 C152 0.934 . S
H120 C153 0.931 1_565 S
H121 C155 0.930 . S
H122 C156 0.932 . S
H123 C158 0.931 . S
H124 C159 0.929 . S
H125 C161 0.929 . S
H126 C162 0.931 . S
H127 C164 0.929 . S
N128 C148 1.433 . S
N128 C154 1.435 . S
N128 C160 1.423 . S
H129 C165 0.932 1_565 S
C130 N105 1.433 . S
C130 C131 1.363 . S
C130 C135 1.370 . S
C131 H104 0.929 . S
C131 C130 1.363 . S
C131 C132 1.385 . S
C132 H106 0.930 . S
C132 C131 1.385 . S
C132 C133 1.357 . S
C133 C132 1.357 . S
C133 C134 1.407 1_545 S
C134 H108 0.931 . S
C134 C133 1.407 1_565 S
C134 C135 1.390 1_565 S
C135 H107 0.931 1_545 S
C135 C130 1.370 . S
C135 C134 1.390 1_545 S
C136 N105 1.435 . S
C136 C137 1.358 1_545 S
C136 C141 1.371 . S
C137 H109 0.930 . S
C137 C136 1.358 1_565 S
C137 C138 1.405 . S
C138 H110 0.932 . S
C138 C137 1.405 . S
C138 C139 1.383 1_565 S
C139 C138 1.383 1_545 S
C139 C140 1.393 . S
C140 H112 0.931 . S
C140 C139 1.393 . S
C140 C141 1.382 . S
C141 H111 0.929 . S
C141 C136 1.371 . S
C141 C140 1.382 . S
C142 N105 1.423 . S
C142 C143 1.362 . S
C142 C147 1.388 . S
C143 H113 0.929 . S
C143 C142 1.362 . S
C143 C144 1.376 . S
C144 H115 0.931 . S
C144 C143 1.376 . S
C144 C145 1.396 . S
C145 C144 1.396 . S
C145 C146 1.348 . S
C145 C163 1.472 . S
C146 H116 0.929 . S
C146 C145 1.348 . S
C146 C147 1.443 . S
C147 H114 0.932 1_545 S
C147 C142 1.388 . S
C147 C146 1.443 . S
C148 N128 1.433 . S
C148 C149 1.363 . S
C148 C153 1.370 . S
C149 H117 0.929 . S
C149 C148 1.363 . S
C149 C150 1.385 . S
C150 H118 0.930 . S
C150 C149 1.385 . S
C150 C151 1.357 . S
C151 C150 1.357 . S
C151 C152 1.401 1_545 S
C152 H119 0.934 . S
C152 C151 1.401 1_565 S
C152 C153 1.392 1_565 S
C153 H120 0.931 1_545 S
C153 C148 1.370 . S
C153 C152 1.392 1_545 S
C154 N128 1.435 . S
C154 C155 1.358 1_545 S
C154 C159 1.371 . S
C155 H121 0.930 . S
C155 C154 1.358 1_565 S
C155 C156 1.405 . S
C156 H122 0.932 . S
C156 C155 1.405 . S
C156 C157 1.383 1_565 S
C157 C156 1.383 1_545 S
C157 C158 1.393 . S
C158 H123 0.931 . S
C158 C157 1.393 . S
C158 C159 1.382 . S
C159 H124 0.929 . S
C159 C154 1.371 . S
C159 C158 1.382 . S
C160 N128 1.423 . S
C160 C161 1.362 . S
C160 C165 1.388 . S
C161 H125 0.929 . S
C161 C160 1.362 . S
C161 C162 1.376 . S
C162 H126 0.931 . S
C162 C161 1.376 . S
C162 C163 1.396 . S
C163 C145 1.472 . S
C163 C162 1.396 . S
C163 C164 1.348 . S
C164 H127 0.929 . S
C164 C163 1.348 . S
C164 C165 1.443 . S
C165 H129 0.932 1_545 S
C165 C160 1.388 . S
C165 C164 1.443 . S
H166 C193 0.929 . S
N167 C192 1.433 . S
N167 C198 1.435 . S
N167 C204 1.423 . S
H168 C194 0.930 . S
H169 C197 0.931 . S
H170 C196 0.929 . S
H171 C199 0.930 . S
H172 C200 0.932 . S
H173 C203 0.929 . S
H174 C202 0.931 . S
H175 C205 0.929 . S
H176 C209 0.932 . S
H177 C206 0.931 . S
H178 C208 0.929 . S
H179 C211 0.929 . S
H180 C212 0.930 . S
H181 C214 0.929 . S
H182 C215 0.931 . S
H183 C217 0.930 . S
H184 C218 0.932 . S
H185 C220 0.931 . S
H186 C221 0.929 . S
H187 C223 0.929 . S
H188 C224 0.931 . S
H189 C226 0.929 . S
N190 C210 1.433 . S
N190 C216 1.435 . S
N190 C222 1.423 . S
H191 C227 0.932 . S
C192 N167 1.433 . S
C192 C193 1.363 . S
C192 C197 1.370 . S
C193 H166 0.929 . S
C193 C192 1.363 . S
C193 C194 1.385 . S
C194 H168 0.930 . S
C194 C193 1.385 . S
C194 C195 1.357 . S
C195 C194 1.357 . S
C195 C196 1.406 . S
C196 H170 0.929 . S
C196 C195 1.406 . S
C196 C197 1.391 . S
C197 H169 0.931 . S
C197 C192 1.370 . S
C197 C196 1.391 . S
C198 N167 1.435 . S
C198 C199 1.358 . S
C198 C203 1.371 . S
C199 H171 0.930 . S
C199 C198 1.358 . S
C199 C200 1.405 . S
C200 H172 0.932 . S
C200 C199 1.405 . S
C200 C201 1.383 . S
C201 C200 1.383 . S
C201 C202 1.393 . S
C202 H174 0.931 . S
C202 C201 1.393 . S
C202 C203 1.382 . S
C203 H173 0.929 . S
C203 C198 1.371 . S
C203 C202 1.382 . S
C204 N167 1.423 . S
C204 C205 1.362 . S
C204 C209 1.388 . S
C205 H175 0.929 . S
C205 C204 1.362 . S
C205 C206 1.376 . S
C206 H177 0.931 . S
C206 C205 1.376 . S
C206 C207 1.396 . S
C207 C206 1.396 . S
C207 C208 1.348 . S
C207 C225 1.472 . S
C208 H178 0.929 . S
C208 C207 1.348 . S
C208 C209 1.443 . S
C209 H176 0.932 . S
C209 C204 1.388 . S
C209 C208 1.443 . S
C210 N190 1.433 . S
C210 C211 1.363 . S
C210 C215 1.370 . S
C211 H179 0.929 . S
C211 C210 1.363 . S
C211 C212 1.385 . S
C212 H180 0.930 . S
C212 C211 1.385 . S
C212 C213 1.357 . S
C213 C212 1.357 . S
C213 C214 1.406 . S
C214 H181 0.929 . S
C214 C213 1.406 . S
C214 C215 1.391 . S
C215 H182 0.931 . S
C215 C210 1.370 . S
C215 C214 1.391 . S
C216 N190 1.435 . S
C216 C217 1.358 . S
C216 C221 1.371 . S
C217 H183 0.930 . S
C217 C216 1.358 . S
C217 C218 1.405 . S
C218 H184 0.932 . S
C218 C217 1.405 . S
C218 C219 1.383 . S
C219 C218 1.383 . S
C219 C220 1.393 . S
C220 H185 0.931 . S
C220 C219 1.393 . S
C220 C221 1.382 . S
C221 H186 0.929 . S
C221 C216 1.371 . S
C221 C220 1.382 . S
C222 N190 1.423 . S
C222 C223 1.362 . S
C222 C227 1.388 . S
C223 H187 0.929 . S
C223 C222 1.362 . S
C223 C224 1.376 . S
C224 H188 0.931 . S
C224 C223 1.376 . S
C224 C225 1.396 . S
C225 C207 1.472 . S
C225 C224 1.396 . S
C225 C226 1.348 . S
C226 H189 0.929 . S
C226 C225 1.348 . S
C226 C227 1.443 . S
C227 H191 0.932 . S
C227 C222 1.388 . S
C227 C226 1.443 . S
H228 C236 0.929 . S
H229 C238 0.930 . S
H230 C240 0.930 . S
H231 C243 0.929 . S
H232 C246 0.947 . S
H233 C248 0.960 . S
H234 C248 0.960 . S
H235 C248 0.960 . S
C236 H228 0.929 . S
C236 C237 1.377 . S
C236 C238 1.384 . S
C237 C236 1.377 . S
C237 C243 1.390 . S
C238 H229 0.930 . S
C238 C236 1.384 . S
C238 C239 1.372 . S
C239 C238 1.372 . S
C239 C240 1.400 . S
C239 C244 1.490 . S
C240 H230 0.930 . S
C240 C239 1.400 . S
C240 C243 1.386 . S
H241 C257 0.930 . S
H242 C258 0.931 . S
C243 H231 0.929 . S
C243 C237 1.390 . S
C243 C240 1.386 . S
C244 C239 1.490 . S
C244 C246 1.364 1_455 S
C244 C247 1.403 . S
H245 C251 0.930 . S
C246 H232 0.947 . S
C246 C244 1.364 1_655 S
C246 C249 1.417 . S
C247 C244 1.403 . S
C247 C248 1.524 . S
C247 C251 1.400 . S
C248 H233 0.960 . S
C248 H234 0.960 . S
C248 H235 0.960 . S
C248 C247 1.524 . S
C249 C246 1.417 . S
C249 C250 1.392 1_655 S
C249 C253 1.495 . S
C250 C249 1.392 1_455 S
C250 C251 1.385 . S
C250 C252 1.478 . S
C251 H245 0.930 . S
C251 C247 1.400 . S
C251 C250 1.385 . S
C252 C250 1.478 . S
C252 C254 1.381 . S
C252 C258 1.383 . S
C253 C249 1.495 . S
C253 H259 0.959 . S
C253 H260 0.961 . S
C253 H261 0.960 . S
C254 C252 1.381 . S
C254 C255 1.394 . S
C254 H262 0.930 . S
C255 C254 1.394 . S
C255 C256 1.383 . S
C255 H263 0.929 . S
C256 C255 1.383 . S
C256 C257 1.377 . S
C257 H241 0.930 . S
C257 C256 1.377 . S
C257 C258 1.379 . S
C258 H242 0.931 . S
C258 C252 1.383 . S
C258 C257 1.379 . S
H259 C253 0.959 . S
H260 C253 0.961 . S
H261 C253 0.960 . S
H262 C254 0.930 . S
H263 C255 0.929 . S
H264 C272 0.929 . S
H265 C274 0.930 . S
H266 C276 0.930 . S
H267 C279 0.929 . S
H268 C282 0.930 . S
H269 C284 0.960 . S
H270 C284 0.960 . S
H271 C284 0.960 1_565 S
C272 H264 0.929 . S
C272 C273 1.377 . S
C272 C274 1.384 . S
C273 C272 1.377 . S
C273 C279 1.390 1_545 S
C274 H265 0.930 . S
C274 C272 1.384 . S
C274 C275 1.372 . S
C275 C274 1.372 . S
C275 C276 1.400 1_545 S
C275 C280 1.490 . S
C276 H266 0.930 . S
C276 C275 1.400 1_565 S
C276 C279 1.386 . S
H277 C293 0.930 . S
H278 C294 0.931 . S
C279 H267 0.929 . S
C279 C273 1.390 1_565 S
C279 C276 1.386 . S
C280 C275 1.490 . S
C280 C282 1.395 . S
C280 C283 1.403 . S
H281 C287 0.930 . S
C282 H268 0.930 . S
C282 C280 1.395 . S
C282 C285 1.403 . S
C283 C280 1.403 . S
C283 C284 1.524 . S
C283 C287 1.400 . S
C284 H269 0.960 . S
C284 H270 0.960 . S
C284 H271 0.960 1_545 S
C284 C283 1.524 . S
C285 C282 1.403 . S
C285 C286 1.392 . S
C285 C289 1.495 . S
C286 C285 1.392 . S
C286 C287 1.385 . S
C286 C288 1.478 . S
C287 H281 0.930 . S
C287 C283 1.400 . S
C287 C286 1.385 . S
C288 C286 1.478 . S
C288 C290 1.381 . S
C288 C294 1.383 1_545 S
C289 C285 1.495 . S
C289 H295 0.959 . S
C289 H296 0.961 1_545 S
C289 H297 0.960 . S
C290 C288 1.381 . S
C290 C291 1.394 . S
C290 H298 0.930 . S
C291 C290 1.394 . S
C291 C292 1.383 . S
C291 H299 0.929 . S
C292 C291 1.383 . S
C292 C293 1.377 1_545 S
C293 H277 0.930 . S
C293 C292 1.377 1_565 S
C293 C294 1.379 . S
C294 H278 0.931 . S
C294 C288 1.383 1_565 S
C294 C293 1.379 . S
H295 C289 0.959 . S
H296 C289 0.961 1_565 S
H297 C289 0.960 . S
H298 C290 0.930 . S
H299 C291 0.929 . S
H300 C308 0.929 . S
H301 C310 0.930 . S
H302 C312 0.930 . S
H303 C315 0.929 . S
H304 C318 0.930 . S
H305 C320 0.960 . S
H306 C320 0.960 . S
H307 C320 0.960 . S
C308 H300 0.929 . S
C308 C309 1.377 . S
C308 C310 1.384 . S
C309 C308 1.377 . S
C309 C315 1.390 . S
C310 H301 0.930 . S
C310 C308 1.384 . S
C310 C311 1.372 . S
C311 C310 1.372 . S
C311 C312 1.400 . S
C311 C316 1.490 . S
C312 H302 0.930 . S
C312 C311 1.400 . S
C312 C315 1.386 . S
H313 C329 0.930 . S
H314 C330 0.931 . S
C315 H303 0.929 . S
C315 C309 1.390 . S
C315 C312 1.386 . S
C316 C311 1.490 . S
C316 C318 1.395 . S
C316 C319 1.403 . S
H317 C323 0.930 . S
C318 H304 0.930 . S
C318 C316 1.395 . S
C318 C321 1.403 . S
C319 C316 1.403 . S
C319 C320 1.524 . S
C319 C323 1.400 . S
C320 H305 0.960 . S
C320 H306 0.960 . S
C320 H307 0.960 . S
C320 C319 1.524 . S
C321 C318 1.403 . S
C321 C322 1.392 . S
C321 C325 1.495 . S
C322 C321 1.392 . S
C322 C323 1.385 . S
C322 C324 1.478 . S
C323 H317 0.930 . S
C323 C319 1.400 . S
C323 C322 1.385 . S
C324 C322 1.478 . S
C324 C326 1.381 . S
C324 C330 1.383 . S
C325 C321 1.495 . S
C325 H331 0.959 . S
C325 H332 0.961 . S
C325 H333 0.960 . S
C326 C324 1.381 . S
C326 C327 1.394 . S
C326 H334 0.930 . S
C327 C326 1.394 . S
C327 C328 1.383 . S
C327 H335 0.929 . S
C328 C327 1.383 . S
C328 C329 1.377 . S
C329 H313 0.930 . S
C329 C328 1.377 . S
C329 C330 1.379 . S
C330 H314 0.931 . S
C330 C324 1.383 . S
C330 C329 1.379 . S
H331 C325 0.959 . S
H332 C325 0.961 . S
H333 C325 0.960 . S
H334 C326 0.930 . S
H335 C327 0.929 . S
H336 C344 0.929 . S
H337 C346 0.930 . S
H338 C348 0.930 . S
H339 C351 0.929 . S
H340 C354 0.930 . S
H341 C356 0.960 . S
H342 C356 0.960 . S
H343 C356 0.960 . S
C344 H336 0.929 . S
C344 C345 1.377 . S
C344 C346 1.384 . S
C345 C344 1.377 . S
C345 C351 1.390 . S
C346 H337 0.930 . S
C346 C344 1.384 . S
C346 C347 1.372 . S
C347 C346 1.372 . S
C347 C348 1.400 . S
C347 C352 1.490 . S
C348 H338 0.930 . S
C348 C347 1.400 . S
C348 C351 1.386 . S
H349 C365 0.930 . S
H350 C366 0.931 . S
C351 H339 0.929 . S
C351 C345 1.390 . S
C351 C348 1.386 . S
C352 C347 1.490 . S
C352 C354 1.395 . S
C352 C355 1.403 . S
H353 C359 0.930 1_655 S
C354 H340 0.930 . S
C354 C352 1.395 . S
C354 C357 1.403 . S
C355 C352 1.403 . S
C355 C356 1.524 1_455 S
C355 C359 1.400 . S
C356 H341 0.960 . S
C356 H342 0.960 . S
C356 H343 0.960 . S
C356 C355 1.524 1_655 S
C357 C354 1.403 . S
C357 C358 1.392 . S
C357 C361 1.495 . S
C358 C357 1.392 . S
C358 C359 1.385 . S
C358 C360 1.478 . S
C359 H353 0.930 1_455 S
C359 C355 1.400 . S
C359 C358 1.385 . S
C360 C358 1.478 . S
C360 C362 1.381 . S
C360 C366 1.383 . S
C361 C357 1.495 . S
C361 H367 0.959 . S
C361 H368 0.961 . S
C361 H369 0.960 . S
C362 C360 1.381 . S
C362 C363 1.394 . S
C362 H370 0.930 . S
C363 C362 1.394 . S
C363 C364 1.383 . S
C363 H371 0.929 . S
C364 C363 1.383 . S
C364 C365 1.377 . S
C365 H349 0.930 . S
C365 C364 1.377 . S
C365 C366 1.379 . S
C366 H350 0.931 . S
C366 C360 1.383 . S
C366 C365 1.379 . S
H367 C361 0.959 . S
H368 C361 0.961 . S
H369 C361 0.960 . S
H370 C362 0.930 . S
H371 C363 0.929 . S
H372 C380 0.929 . S
H373 C382 0.930 . S
H374 C384 0.930 . S
H375 C387 0.929 . S
H376 C390 0.930 . S
H377 C392 0.960 . S
H378 C392 0.960 . S
H379 C392 0.960 . S
C380 H372 0.929 . S
C380 C381 1.377 . S
C380 C382 1.384 . S
C381 C380 1.377 . S
C381 C387 1.390 1_545 S
C382 H373 0.930 . S
C382 C380 1.384 . S
C382 C383 1.372 . S
C383 C382 1.372 . S
C383 C384 1.400 1_545 S
C383 C388 1.490 . S
C384 H374 0.930 . S
C384 C383 1.400 1_565 S
C384 C387 1.386 . S
H385 C401 0.930 . S
H386 C402 0.931 . S
C387 H375 0.929 . S
C387 C381 1.390 1_565 S
C387 C384 1.386 . S
C388 C383 1.490 . S
C388 C390 1.395 . S
C388 C391 1.403 1_545 S
H389 C395 0.930 . S
C390 H376 0.930 . S
C390 C388 1.395 . S
C390 C393 1.403 . S
C391 C388 1.403 1_565 S
C391 C392 1.524 . S
C391 C395 1.400 . S
C392 H377 0.960 . S
C392 H378 0.960 . S
C392 H379 0.960 . S
C392 C391 1.524 . S
C393 C390 1.403 . S
C393 C394 1.392 . S
C393 C397 1.495 . S
C394 C393 1.392 . S
C394 C395 1.385 1_545 S
C394 C396 1.478 . S
C395 H389 0.930 . S
C395 C391 1.400 . S
C395 C394 1.385 1_565 S
C396 C394 1.478 . S
C396 C398 1.381 . S
C396 C402 1.383 1_545 S
C397 C393 1.495 . S
C397 H403 0.959 . S
C397 H404 0.961 . S
C397 H405 0.960 . S
C398 C396 1.381 . S
C398 C399 1.394 . S
C398 H406 0.930 . S
C399 C398 1.394 . S
C399 C400 1.383 . S
C399 H407 0.929 . S
C400 C399 1.383 . S
C400 C401 1.377 1_545 S
C401 H385 0.930 . S
C401 C400 1.377 1_565 S
C401 C402 1.379 . S
C402 H386 0.931 . S
C402 C396 1.383 1_565 S
C402 C401 1.379 . S
H403 C397 0.959 . S
H404 C397 0.961 . S
H405 C397 0.960 . S
H406 C398 0.930 . S
H407 C399 0.929 . S
H408 C416 0.929 . S
H409 C418 0.930 . S
H410 C420 0.930 . S
H411 C423 0.929 . S
H412 C426 0.930 . S
H413 C428 0.960 . S
H414 C428 0.960 . S
H415 C428 0.960 . S
C416 H408 0.929 . S
C416 C417 1.377 . S
C416 C418 1.384 . S
C417 C416 1.377 . S
C417 C423 1.390 . S
C418 H409 0.930 . S
C418 C416 1.384 . S
C418 C419 1.372 . S
C419 C418 1.372 . S
C419 C420 1.400 . S
C419 C424 1.490 . S
C420 H410 0.930 . S
C420 C419 1.400 . S
C420 C423 1.386 . S
H421 C437 0.930 . S
H422 C438 0.931 . S
C423 H411 0.929 . S
C423 C417 1.390 . S
C423 C420 1.386 . S
C424 C419 1.490 . S
C424 C426 1.395 . S
C424 C427 1.403 . S
H425 C431 0.930 . S
C426 H412 0.930 . S
C426 C424 1.395 . S
C426 C429 1.403 . S
C427 C424 1.403 . S
C427 C428 1.524 . S
C427 C431 1.400 . S
C428 H413 0.960 . S
C428 H414 0.960 . S
C428 H415 0.960 . S
C428 C427 1.524 . S
C429 C426 1.403 . S
C429 C430 1.392 . S
C429 C433 1.495 . S
C430 C429 1.392 . S
C430 C431 1.385 . S
C430 C432 1.478 . S
C431 H425 0.930 . S
C431 C427 1.400 . S
C431 C430 1.385 . S
C432 C430 1.478 . S
C432 C434 1.381 . S
C432 C438 1.383 . S
C433 C429 1.495 . S
C433 H439 0.959 . S
C433 H440 0.961 . S
C433 H441 0.960 . S
C434 C432 1.381 . S
C434 C435 1.394 . S
C434 H442 0.930 . S
C435 C434 1.394 . S
C435 C436 1.383 . S
C435 H443 0.929 . S
C436 C435 1.383 . S
C436 C437 1.377 . S
C437 H421 0.930 . S
C437 C436 1.377 . S
C437 C438 1.379 . S
C438 H422 0.931 . S
C438 C432 1.383 . S
C438 C437 1.379 . S
H439 C433 0.959 . S
H440 C433 0.961 . S
H441 C433 0.960 . S
H442 C434 0.930 . S
H443 C435 0.929 . S
H444 C452 0.929 . S
H445 C454 0.930 . S
H446 C456 0.930 . S
H447 C459 0.929 . S
H448 C462 0.930 . S
H449 C464 0.960 . S
H450 C464 0.960 1_545 S
H451 C464 0.960 . S
C452 H444 0.929 . S
C452 C453 1.377 . S
C452 C454 1.384 . S
C453 C452 1.377 . S
C453 C459 1.390 1_545 S
C454 H445 0.930 . S
C454 C452 1.384 . S
C454 C455 1.372 . S
C455 C454 1.372 . S
C455 C456 1.400 1_545 S
C455 C460 1.490 . S
C456 H446 0.930 . S
C456 C455 1.400 1_565 S
C456 C459 1.386 . S
H457 C473 0.930 . S
H458 C474 0.931 . S
C459 H447 0.929 . S
C459 C453 1.390 1_565 S
C459 C456 1.386 . S
C460 C455 1.490 . S
C460 C462 1.395 . S
C460 C463 1.403 . S
H461 C467 0.930 1_565 S
C462 H448 0.930 . S
C462 C460 1.395 . S
C462 C465 1.403 . S
C463 C460 1.403 . S
C463 C464 1.524 1_545 S
C463 C467 1.400 . S
C464 H449 0.960 . S
C464 H450 0.960 1_565 S
C464 H451 0.960 . S
C464 C463 1.524 1_565 S
C465 C462 1.403 . S
C465 C466 1.392 . S
C465 C469 1.495 . S
C466 C465 1.392 . S
C466 C467 1.385 . S
C466 C468 1.478 . S
C467 H461 0.930 1_545 S
C467 C463 1.400 . S
C467 C466 1.385 . S
C468 C466 1.478 . S
C468 C470 1.381 . S
C468 C474 1.383 1_545 S
C469 C465 1.495 . S
C469 H475 0.959 . S
C469 H476 0.961 . S
C469 H477 0.960 . S
C470 C468 1.381 . S
C470 C471 1.394 . S
C470 H478 0.930 . S
C471 C470 1.394 . S
C471 C472 1.383 . S
C471 H479 0.929 . S
C472 C471 1.383 . S
C472 C473 1.377 1_545 S
C473 H457 0.930 . S
C473 C472 1.377 1_565 S
C473 C474 1.379 . S
C474 H458 0.931 . S
C474 C468 1.383 1_565 S
C474 C473 1.379 . S
H475 C469 0.959 . S
H476 C469 0.961 . S
H477 C469 0.960 . S
H478 C470 0.930 . S
H479 C471 0.929 . S
H480 C488 0.929 . S
H481 C490 0.930 . S
H482 C492 0.930 . S
H483 C495 0.929 . S
H484 C498 0.930 . S
H485 C500 0.960 . S
H486 C500 0.960 . S
H487 C500 0.960 . S
C488 H480 0.929 . S
C488 C489 1.377 . S
C488 C490 1.384 1_554 S
C489 C488 1.377 . S
C489 C495 1.390 . S
C490 H481 0.930 . S
C490 C488 1.384 1_556 S
C490 C491 1.372 . S
C491 C490 1.372 . S
C491 C492 1.400 . S
C491 C496 1.490 . S
C492 H482 0.930 . S
C492 C491 1.400 . S
C492 C495 1.386 1_556 S
H493 C509 0.930 . S
H494 C510 0.931 . S
C495 H483 0.929 . S
C495 C489 1.390 . S
C495 C492 1.386 1_554 S
C496 C491 1.490 . S
C496 C498 1.395 . S
C496 C499 1.403 . S
H497 C503 0.930 . S
C498 H484 0.930 . S
C498 C496 1.395 . S
C498 C501 1.403 . S
C499 C496 1.403 . S
C499 C500 1.524 . S
C499 C503 1.400 . S
C500 H485 0.960 . S
C500 H486 0.960 . S
C500 H487 0.960 . S
C500 C499 1.524 . S
C501 C498 1.403 . S
C501 C502 1.392 . S
C501 C505 1.495 . S
C502 C501 1.392 . S
C502 C503 1.385 . S
C502 C504 1.478 . S
C503 H497 0.930 . S
C503 C499 1.400 . S
C503 C502 1.385 . S
C504 C502 1.478 . S
C504 C506 1.381 . S
C504 C510 1.383 . S
C505 C501 1.495 . S
C505 H511 0.959 . S
C505 H512 0.961 . S
C505 H513 0.960 . S
C506 C504 1.381 . S
C506 C507 1.394 . S
C506 H514 0.930 . S
C507 C506 1.394 . S
C507 C508 1.383 . S
C507 H515 0.929 . S
C508 C507 1.383 . S
C508 C509 1.377 . S
C509 H493 0.930 . S
C509 C508 1.377 . S
C509 C510 1.379 . S
C510 H494 0.931 . S
C510 C504 1.383 . S
C510 C509 1.379 . S
H511 C505 0.959 . S
H512 C505 0.961 . S
H513 C505 0.960 . S
H514 C506 0.930 . S
H515 C507 0.929 . S
H516 C524 0.929 . S
H517 C526 0.930 . S
H518 C528 0.930 . S
H519 C531 0.929 . S
H520 C534 0.930 . S
H521 C536 0.960 . S
H522 C536 0.960 . S
H523 C536 0.960 . S
C524 H516 0.929 . S
C524 C525 1.377 . S
C524 C526 1.384 . S
C525 C524 1.377 . S
C525 C531 1.390 . S
C526 H517 0.930 . S
C526 C524 1.384 . S
C526 C527 1.372 . S
C527 C526 1.372 . S
C527 C528 1.400 . S
C527 C532 1.490 . S
C528 H518 0.930 . S
C528 C527 1.400 . S
C528 C531 1.386 . S
H529 C545 0.930 . S
H530 C546 0.931 . S
C531 H519 0.929 . S
C531 C525 1.390 . S
C531 C528 1.386 . S
C532 C527 1.490 . S
C532 C534 1.395 1_455 S
C532 C535 1.403 . S
H533 C539 0.930 . S
C534 H520 0.930 . S
C534 C532 1.395 1_655 S
C534 C537 1.403 . S
C535 C532 1.403 . S
C535 C536 1.524 . S
C535 C539 1.400 . S
C536 H521 0.960 . S
C536 H522 0.960 . S
C536 H523 0.960 . S
C536 C535 1.524 . S
C537 C534 1.403 . S
C537 C538 1.392 1_655 S
C537 C541 1.495 . S
C538 C537 1.392 1_455 S
C538 C539 1.385 . S
C538 C540 1.478 . S
C539 H533 0.930 . S
C539 C535 1.400 . S
C539 C538 1.385 . S
C540 C538 1.478 . S
C540 C542 1.381 . S
C540 C546 1.383 . S
C541 C537 1.495 . S
C541 H547 0.959 . S
C541 H548 0.961 . S
C541 H549 0.960 . S
C542 C540 1.381 . S
C542 C543 1.394 . S
C542 H550 0.930 . S
C543 C542 1.394 . S
C543 C544 1.383 . S
C543 H551 0.929 . S
C544 C543 1.383 . S
C544 C545 1.377 . S
C545 H529 0.930 . S
C545 C544 1.377 . S
C545 C546 1.379 . S
C546 H530 0.931 . S
C546 C540 1.383 . S
C546 C545 1.379 . S
H547 C541 0.959 . S
H548 C541 0.961 . S
H549 C541 0.960 . S
H550 C542 0.930 . S
H551 C543 0.929 . S
H552 C560 0.929 . S
H553 C562 0.930 . S
H554 C564 0.930 . S
H555 C567 0.929 . S
H556 C570 0.930 . S
H557 C572 0.960 . S
H558 C572 0.960 1_565 S
H559 C572 0.960 . S
C560 H552 0.929 . S
C560 C561 1.377 1_565 S
C560 C562 1.384 . S
C561 C560 1.377 1_545 S
C561 C567 1.390 . S
C562 H553 0.930 . S
C562 C560 1.384 . S
C562 C563 1.372 1_565 S
C563 C562 1.372 1_545 S
C563 C564 1.400 . S
C563 C568 1.490 . S
C564 H554 0.930 . S
C564 C563 1.400 . S
C564 C567 1.386 . S
H565 C581 0.930 . S
H566 C582 0.931 . S
C567 H555 0.929 . S
C567 C561 1.390 . S
C567 C564 1.386 . S
C568 C563 1.490 . S
C568 C570 1.395 . S
C568 C571 1.403 . S
H569 C575 0.930 . S
C570 H556 0.930 . S
C570 C568 1.395 . S
C570 C573 1.403 . S
C571 C568 1.403 . S
C571 C572 1.524 . S
C571 C575 1.400 . S
C572 H557 0.960 . S
C572 H558 0.960 1_545 S
C572 H559 0.960 . S
C572 C571 1.524 . S
C573 C570 1.403 . S
C573 C574 1.392 . S
C573 C577 1.495 . S
C574 C573 1.392 . S
C574 C575 1.385 . S
C574 C576 1.478 . S
C575 H569 0.930 . S
C575 C571 1.400 . S
C575 C574 1.385 . S
C576 C574 1.478 . S
C576 C578 1.381 1_545 S
C576 C582 1.383 . S
C577 C573 1.495 . S
C577 H583 0.959 . S
C577 H584 0.961 . S
C577 H585 0.960 1_545 S
C578 C576 1.381 1_565 S
C578 C579 1.394 . S
C578 H586 0.930 . S
C579 C578 1.394 . S
C579 C580 1.383 1_565 S
C579 H587 0.929 . S
C580 C579 1.383 1_545 S
C580 C581 1.377 . S
C581 H565 0.930 . S
C581 C580 1.377 . S
C581 C582 1.379 . S
C582 H566 0.931 . S
C582 C576 1.383 . S
C582 C581 1.379 . S
H583 C577 0.959 . S
H584 C577 0.961 . S
H585 C577 0.960 1_565 S
H586 C578 0.930 . S
H587 C579 0.929 . S
H588 C596 0.929 . S
H589 C598 0.930 . S
H590 C600 0.930 . S
H591 C603 0.918 1_554 S
H592 C606 0.930 . S
H593 C608 0.960 . S
H594 C608 0.960 . S
H595 C608 0.960 . S
C596 H588 0.929 . S
C596 C597 1.377 . S
C596 C598 1.384 1_554 S
C597 C596 1.377 . S
C597 C603 1.390 1_554 S
C598 H589 0.930 . S
C598 C596 1.384 1_556 S
C598 C599 1.372 . S
C599 C598 1.372 . S
C599 C600 1.400 . S
C599 C604 1.490 . S
C600 H590 0.930 . S
C600 C599 1.400 . S
C600 C603 1.386 . S
H601 C617 0.930 . S
H602 C618 0.931 . S
C603 H591 0.918 1_556 S
C603 C597 1.390 1_556 S
C603 C600 1.386 . S
C604 C599 1.490 . S
C604 C606 1.395 . S
C604 C607 1.403 . S
H605 C611 0.930 . S
C606 H592 0.930 . S
C606 C604 1.395 . S
C606 C609 1.403 . S
C607 C604 1.403 . S
C607 C608 1.524 . S
C607 C611 1.400 . S
C608 H593 0.960 . S
C608 H594 0.960 . S
C608 H595 0.960 . S
C608 C607 1.524 . S
C609 C606 1.403 . S
C609 C610 1.392 . S
C609 C613 1.495 . S
C610 C609 1.392 . S
C610 C611 1.385 . S
C610 C612 1.478 . S
C611 H605 0.930 . S
C611 C607 1.400 . S
C611 C610 1.385 . S
C612 C610 1.478 . S
C612 C614 1.381 . S
C612 C618 1.383 . S
C613 C609 1.495 . S
C613 H619 0.959 . S
C613 H620 0.961 . S
C613 H621 0.960 . S
C614 C612 1.381 . S
C614 C615 1.394 . S
C614 H622 0.930 . S
C615 C614 1.394 . S
C615 C616 1.383 . S
C615 H623 0.929 . S
C616 C615 1.383 . S
C616 C617 1.377 . S
C617 H601 0.930 . S
C617 C616 1.377 . S
C617 C618 1.379 . S
C618 H602 0.931 . S
C618 C612 1.383 . S
C618 C617 1.379 . S
H619 C613 0.959 . S
H620 C613 0.961 . S
H621 C613 0.960 . S
H622 C614 0.930 . S
H623 C615 0.929 . S
H624 C632 0.929 . S
H625 C634 0.930 . S
H626 C636 0.930 . S
H627 C639 0.929 . S
H628 C642 0.930 . S
H629 C644 0.960 . S
H630 C644 0.960 . S
H631 C644 0.960 . S
C632 H624 0.929 . S
C632 C633 1.377 . S
C632 C634 1.384 . S
C633 C632 1.377 . S
C633 C639 1.390 1_455 S
C634 H625 0.930 . S
C634 C632 1.384 . S
C634 C635 1.372 . S
C635 C634 1.372 . S
C635 C636 1.400 1_455 S
C635 C640 1.490 . S
C636 H626 0.930 . S
C636 C635 1.400 1_655 S
C636 C639 1.386 . S
H637 C653 0.930 1_655 S
H638 C654 0.931 1_655 S
C639 H627 0.929 . S
C639 C633 1.390 1_655 S
C639 C636 1.386 . S
C640 C635 1.490 . S
C640 C642 1.395 . S
C640 C643 1.403 . S
H641 C647 0.930 1_655 S
C642 H628 0.930 . S
C642 C640 1.395 . S
C642 C645 1.403 . S
C643 C640 1.403 . S
C643 C644 1.524 1_455 S
C643 C647 1.400 . S
C644 H629 0.960 . S
C644 H630 0.960 . S
C644 H631 0.960 . S
C644 C643 1.524 1_655 S
C645 C642 1.403 . S
C645 C646 1.392 . S
C645 C649 1.495 . S
C646 C645 1.392 . S
C646 C647 1.385 . S
C646 C648 1.478 . S
C647 H641 0.930 1_455 S
C647 C643 1.400 . S
C647 C646 1.385 . S
C648 C646 1.478 . S
C648 C650 1.381 . S
C648 C654 1.383 . S
C649 C645 1.495 . S
C649 H655 0.959 . S
C649 H656 0.961 . S
C649 H657 0.960 . S
C650 C648 1.381 . S
C650 C651 1.394 . S
C650 H658 0.930 . S
C651 C650 1.394 . S
C651 C652 1.383 . S
C651 H659 0.929 . S
C652 C651 1.383 . S
C652 C653 1.377 . S
C653 H637 0.930 1_455 S
C653 C652 1.377 . S
C653 C654 1.379 . S
C654 H638 0.931 1_455 S
C654 C648 1.383 . S
C654 C653 1.379 . S
H655 C649 0.959 . S
H656 C649 0.961 . S
H657 C649 0.960 . S
H658 C650 0.930 . S
H659 C651 0.929 . S
C256 C95 1.311 . S
C237 C0 1.322 . S
C273 C25 1.385 . S
C292 C139 1.384 . S
C309 C33 1.417 . S
C328 C201 1.412 . S
C345 C11 1.341 . S
C364 C77 1.338 . S
C400 C157 1.340 . S
C381 C14 1.361 . S
C417 C37 1.425 . S
C436 C219 1.408 . S
C472 C133 1.584 . S
C453 C28 1.704 . S
C489 C9 1.758 . S
C508 C195 1.695 . S
C544 C71 1.698 . S
C525 C19 1.797 . S
C580 C151 1.602 . S
C561 C39 1.731 . S
C616 C213 1.680 . S
C597 C5 1.751 . S
C633 C23 1.799 . S
C652 C89 1.689 . S
