# Generated by pormake.
# Topology apo, (3,6)-cn, num edge types: 1
# Building blocks:
#     Node 0, Type 0, BuildingBlock: BETDAH_clean_linker_0, # of connection points: 3
#     Node 1, Type 0, BuildingBlock: BETDAH_clean_linker_0, # of connection points: 3
#     Node 2, Type 0, BuildingBlock: BETDAH_clean_linker_0, # of connection points: 3
#     Node 3, Type 0, BuildingBlock: BETDAH_clean_linker_0, # of connection points: 3
#     Node 4, Type 0, BuildingBlock: BETDAH_clean_linker_0, # of connection points: 3
#     Node 5, Type 0, BuildingBlock: BETDAH_clean_linker_0, # of connection points: 3
#     Node 6, Type 0, BuildingBlock: BETDAH_clean_linker_0, # of connection points: 3
#     Node 7, Type 0, BuildingBlock: BETDAH_clean_linker_0, # of connection points: 3
#     Node 8, Type 1, BuildingBlock: KUMBUR_clean_sbu_1, # of connection points: 6
#     Node 9, Type 1, BuildingBlock: KUMBUR_clean_sbu_1, # of connection points: 6
#     Node 10, Type 1, BuildingBlock: KUMBUR_clean_sbu_1, # of connection points: 6
#     Node 11, Type 1, BuildingBlock: KUMBUR_clean_sbu_1, # of connection points: 6
#     Edge 12, Type (0, 1), BuildingBlock: ZUJKAS_clean_linker_0, # of connection points: 2
#     Edge 13, Type (0, 1), BuildingBlock: ZUJKAS_clean_linker_0, # of connection points: 2
#     Edge 14, Type (0, 1), BuildingBlock: ZUJKAS_clean_linker_0, # of connection points: 2
#     Edge 15, Type (0, 1), BuildingBlock: ZUJKAS_clean_linker_0, # of connection points: 2
#     Edge 16, Type (0, 1), BuildingBlock: ZUJKAS_clean_linker_0, # of connection points: 2
#     Edge 17, Type (0, 1), BuildingBlock: ZUJKAS_clean_linker_0, # of connection points: 2
#     Edge 18, Type (0, 1), BuildingBlock: ZUJKAS_clean_linker_0, # of connection points: 2
#     Edge 19, Type (0, 1), BuildingBlock: ZUJKAS_clean_linker_0, # of connection points: 2
#     Edge 20, Type (0, 1), BuildingBlock: ZUJKAS_clean_linker_0, # of connection points: 2
#     Edge 21, Type (0, 1), BuildingBlock: ZUJKAS_clean_linker_0, # of connection points: 2
#     Edge 22, Type (0, 1), BuildingBlock: ZUJKAS_clean_linker_0, # of connection points: 2
#     Edge 23, Type (0, 1), BuildingBlock: ZUJKAS_clean_linker_0, # of connection points: 2
#     Edge 24, Type (0, 1), BuildingBlock: ZUJKAS_clean_linker_0, # of connection points: 2
#     Edge 25, Type (0, 1), BuildingBlock: ZUJKAS_clean_linker_0, # of connection points: 2
#     Edge 26, Type (0, 1), BuildingBlock: ZUJKAS_clean_linker_0, # of connection points: 2
#     Edge 27, Type (0, 1), BuildingBlock: ZUJKAS_clean_linker_0, # of connection points: 2
#     Edge 28, Type (0, 1), BuildingBlock: ZUJKAS_clean_linker_0, # of connection points: 2
#     Edge 29, Type (0, 1), BuildingBlock: ZUJKAS_clean_linker_0, # of connection points: 2
#     Edge 30, Type (0, 1), BuildingBlock: ZUJKAS_clean_linker_0, # of connection points: 2
#     Edge 31, Type (0, 1), BuildingBlock: ZUJKAS_clean_linker_0, # of connection points: 2
#     Edge 32, Type (0, 1), BuildingBlock: ZUJKAS_clean_linker_0, # of connection points: 2
#     Edge 33, Type (0, 1), BuildingBlock: ZUJKAS_clean_linker_0, # of connection points: 2
#     Edge 34, Type (0, 1), BuildingBlock: ZUJKAS_clean_linker_0, # of connection points: 2
#     Edge 35, Type (0, 1), BuildingBlock: ZUJKAS_clean_linker_0, # of connection points: 2
# Relax obj value: 0.037
# Max RMSD: 0.207
# Mean RMSD: 0.149
data_MOF--net-apo--node1-KUMBUR_clean_sbu_1--node2-BETDAH_clean_linker_0--edge1-ZUJKAS_clean_linker_0
_symmetry_space_group_name_H-M    P1
_symmetry_Int_Tables_number       1
_symmetry_cell_setting            triclinic
loop_
_symmetry_equiv_pos_as_xyz
'x, y, z'
_cell_length_a     35.30246
_cell_length_b     55.038788
_cell_length_c     64.764198
_cell_angle_alpha  89.60508
_cell_angle_beta   89.918529
_cell_angle_gamma 90.124828
loop_
_atom_site_label
_atom_site_type_symbol
_atom_site_fract_x
_atom_site_fract_y
_atom_site_fract_z
_atom_type_partial_charge
H0 H 0.34415 0.41411 0.42378 0.0
H1 H 0.28956 0.36757 0.37945 0.0
H2 H 0.29943 0.3449 0.44286 0.0
C3 C 0.32946 0.39737 0.42012 0.0
C4 C 0.32296 0.38021 0.43585 0.0
C5 C 0.31744 0.39314 0.39971 0.0
C6 C 0.29884 0.3711 0.39507 0.0
C7 C 0.29213 0.35378 0.41082 0.0
C8 C 0.30422 0.35853 0.43096 0.0
N9 N 0.27385 0.33116 0.40737 0.0
C10 C 0.25753 0.32318 0.3891 0.0
H11 H 0.15794 0.09812 0.92358 0.0
H12 H 0.22786 0.1364 0.87934 0.0
H13 H 0.21928 0.16199 0.94166 0.0
C14 C 0.17736 0.11279 0.91986 0.0
C15 C 0.18654 0.1298 0.9351 0.0
C16 C 0.1922 0.11485 0.8997 0.0
C17 C 0.21612 0.13466 0.89474 0.0
C18 C 0.22574 0.15168 0.91003 0.0
C19 C 0.21104 0.149 0.92998 0.0
N20 N 0.25077 0.17151 0.90648 0.0
C21 C 0.26536 0.17933 0.88762 0.0
H22 H 0.84413 0.10095 0.59104 0.0
H23 H 0.78234 0.1436 0.63548 0.0
H24 H 0.78526 0.16538 0.57176 0.0
C25 C 0.82701 0.11663 0.59481 0.0
C26 C 0.8164 0.13271 0.57893 0.0
C27 C 0.81494 0.12026 0.61534 0.0
C28 C 0.79152 0.14035 0.61979 0.0
C29 C 0.7807 0.15651 0.60391 0.0
C30 C 0.79321 0.15252 0.58374 0.0
N31 N 0.75768 0.17723 0.6073 0.0
C32 C 0.74241 0.18471 0.626 0.0
H33 H 0.66153 0.40811 0.09097 0.0
H34 H 0.73599 0.37374 0.13518 0.0
H35 H 0.73009 0.34745 0.07304 0.0
C36 C 0.68252 0.39447 0.0948 0.0
C37 C 0.69363 0.37785 0.07962 0.0
C38 C 0.69767 0.39334 0.11493 0.0
C39 C 0.72364 0.37471 0.1199 0.0
C40 C 0.73516 0.35814 0.10467 0.0
C41 C 0.72036 0.36001 0.08472 0.0
N42 N 0.76315 0.34014 0.10825 0.0
C43 C 0.77237 0.32977 0.1272 0.0
H44 H 0.65889 0.60258 0.59194 0.0
H45 H 0.73572 0.63894 0.63321 0.0
H46 H 0.73549 0.65713 0.56862 0.0
C47 C 0.68049 0.61624 0.59458 0.0
C48 C 0.69488 0.62966 0.57777 0.0
C49 C 0.6951 0.61933 0.61461 0.0
C50 C 0.72406 0.63655 0.61789 0.0
C51 C 0.73845 0.65021 0.60117 0.0
C52 C 0.72408 0.64646 0.58131 0.0
N53 N 0.76869 0.66703 0.60331 0.0
C54 C 0.77691 0.68034 0.62092 0.0
H55 H 0.85367 0.91453 0.09196 0.0
H56 H 0.7827 0.85651 0.07052 0.0
H57 H 0.78474 0.87387 0.13511 0.0
C58 C 0.83354 0.9001 0.09515 0.0
C59 C 0.82107 0.89598 0.11557 0.0
C60 C 0.82022 0.88587 0.07878 0.0
C61 C 0.79383 0.86741 0.08301 0.0
C62 C 0.78099 0.8629 0.10314 0.0
C63 C 0.79459 0.87724 0.1195 0.0
N64 N 0.75391 0.84402 0.10591 0.0
C65 C 0.74148 0.83422 0.12459 0.0
H66 H 0.16302 0.9062 0.4251 0.0
H67 H 0.23004 0.86705 0.38059 0.0
H68 H 0.22985 0.84502 0.44428 0.0
C69 C 0.18194 0.89142 0.42129 0.0
C70 C 0.19436 0.87583 0.43712 0.0
C71 C 0.19462 0.88858 0.40078 0.0
C72 C 0.22023 0.86965 0.39627 0.0
C73 C 0.23308 0.85408 0.41211 0.0
C74 C 0.2202 0.8574 0.43232 0.0
N75 N 0.25921 0.83494 0.40866 0.0
C76 C 0.2704 0.82593 0.38961 0.0
H77 H 0.34998 0.60356 0.92355 0.0
H78 H 0.28675 0.667 0.94037 0.0
H79 H 0.27983 0.64001 0.87848 0.0
C80 C 0.33028 0.61788 0.91947 0.0
C81 C 0.31578 0.61932 0.89921 0.0
C82 C 0.32038 0.63511 0.9344 0.0
C83 C 0.29547 0.65386 0.92892 0.0
C84 C 0.28124 0.65597 0.90886 0.0
C85 C 0.29156 0.63876 0.89389 0.0
N86 N 0.25553 0.67521 0.90484 0.0
C87 C 0.24515 0.68409 0.88553 0.0
Tb88 Tb 0.04856 0.11952 0.23836 0.0
C89 C 0.9038 0.07547 0.27351 0.0
N90 N 0.91215 0.09934 0.27077 0.0
C91 C 0.85207 0.10577 0.25443 0.0
C92 C 0.8699 0.06545 0.26589 0.0
C93 C 0.8863 0.11479 0.26215 0.0
C94 C 0.84405 0.08092 0.25605 0.0
C95 C 0.92146 0.03653 0.28803 0.0
C96 C 0.92928 0.06129 0.28431 0.0
C97 C 0.88865 0.02603 0.27959 0.0
C98 C 0.86285 0.04049 0.26857 0.0
Tb99 Tb 0.96907 0.11226 0.28327 0.0
N100 N 0.96034 0.07225 0.2924 0.0
C101 C 0.94602 0.02337 0.30081 0.0
C102 C 0.98184 0.06016 0.30665 0.0
C103 C 0.97586 0.03541 0.31055 0.0
H104 H 0.8924 0.13399 0.26095 0.0
H105 H 0.99381 0.02577 0.32137 0.0
H106 H 0.11607 0.08051 0.25441 0.0
H107 H 0.05956 0.21464 0.21944 0.0
H108 H 0.00317 0.06965 0.31536 0.0
H109 H 0.9411 1.00429 0.30407 0.0
H110 H 0.03063 0.17361 0.21903 0.0
H111 H 0.83195 0.11795 0.24721 0.0
H112 H 0.88238 0.00695 0.28205 0.0
H113 H 0.83722 0.03232 0.26257 0.0
H114 H 0.17654 0.08292 0.27296 0.0
H115 H 0.81762 0.07396 0.24997 0.0
H116 H 0.11944 0.22154 0.23843 0.0
N117 N 0.10727 0.11886 0.25378 0.0
C118 C 0.12425 0.14087 0.25615 0.0
C119 C 0.16179 0.09942 0.26868 0.0
C120 C 0.15983 0.14312 0.26582 0.0
C121 C 0.1268 0.09815 0.25862 0.0
C122 C 0.17804 0.12204 0.27269 0.0
N123 N 0.07306 0.15791 0.23813 0.0
C124 C 0.05658 0.17659 0.22746 0.0
C125 C 0.1245 0.18402 0.24831 0.0
C126 C 0.10696 0.16104 0.24762 0.0
C127 C 0.10687 0.20357 0.23829 0.0
C128 C 0.073 0.19976 0.22759 0.0
H129 H 0.20539 0.12296 0.28022 0.0
H130 H 0.20382 0.16833 0.27514 0.0
H131 H 0.1729 0.20416 0.25968 0.0
O132 O 0.03735 0.12277 0.2064 0.0
O133 O 0.03678 0.14793 0.26114 0.0
O134 O 0.02436 0.12781 0.29129 0.0
O135 O 0.08974 0.10796 0.21714 0.0
O136 O 0.99235 0.13496 0.23142 0.0
O137 O 0.96396 0.14444 0.26306 0.0
O138 O 0.94538 0.1085 0.31305 0.0
O139 O 0.95872 0.09983 0.25152 0.0
O140 O 0.01552 0.08576 0.23938 0.0
O141 O 0.94381 0.14267 0.29707 0.0
O142 O 0.02623 0.09772 0.28918 0.0
O143 O 0.04949 0.08608 0.25729 0.0
C144 C 0.0405 0.1458 0.28118 0.0
C145 C 0.09173 0.13011 0.18587 0.0
C146 C 0.10657 0.14045 0.14997 0.0
C147 C 0.13183 0.15839 0.15695 0.0
C148 C 0.11798 0.14765 0.19238 0.0
C149 C 0.1375 0.16188 0.17801 0.0
C150 C 0.08635 0.1264 0.1646 0.0
C151 C 0.96857 0.14775 0.2429 0.0
C152 C 0.07076 0.11516 0.2011 0.0
C153 C 0.17668 0.16619 0.26756 0.0
C154 C 0.15913 0.18659 0.25873 0.0
C155 C 0.97862 0.08363 0.2415 0.0
C156 C 0.95324 0.14347 0.33325 0.0
C157 C 0.95462 0.14736 0.37085 0.0
C158 C 0.98452 0.16416 0.36888 0.0
C159 C 0.98286 0.16048 0.33173 0.0
C160 C 0.93899 0.13711 0.35287 0.0
C161 C 0.9984 0.17066 0.34944 0.0
C162 C 0.04685 0.08331 0.27751 0.0
C163 C 0.93827 0.13152 0.31459 0.0
H164 H 0.14813 0.16926 0.14611 0.0
H165 H 0.12395 0.15016 0.20853 0.0
H166 H 0.15758 0.1754 0.18322 0.0
H167 H 0.06662 0.1126 0.15945 0.0
H168 H 0.99685 0.17255 0.38238 0.0
H169 H 0.99412 0.16588 0.31686 0.0
H170 H 0.91633 0.12385 0.35414 0.0
H171 H 0.02133 0.18361 0.3481 0.0
Tb172 Tb 0.46201 0.39308 0.73563 0.0
C173 C 0.62155 0.41949 0.76856 0.0
N174 N 0.60439 0.39737 0.7695 0.0
C175 C 0.66201 0.37821 0.75868 0.0
C176 C 0.65954 0.42188 0.76213 0.0
C177 C 0.62418 0.37677 0.76502 0.0
C178 C 0.67973 0.40087 0.75711 0.0
C179 C 0.61688 0.46319 0.7723 0.0
C180 C 0.60038 0.43987 0.77345 0.0
C181 C 0.65467 0.46571 0.76578 0.0
C182 C 0.67594 0.44511 0.76072 0.0
Tb183 Tb 0.54235 0.39735 0.77948 0.0
N184 N 0.56345 0.43678 0.77902 0.0
C185 C 0.59494 0.48325 0.77783 0.0
C186 C 0.54308 0.4561 0.78602 0.0
C187 C 0.55809 0.47962 0.78507 0.0
H188 H 0.61113 0.35917 0.76677 0.0
H189 H 0.54144 0.4949 0.79028 0.0
H190 H 0.39538 0.43339 0.74749 0.0
H191 H 0.45715 0.29549 0.7258 0.0
H192 H 0.51591 0.45355 0.79309 0.0
H193 H 0.60652 0.50149 0.77714 0.0
H194 H 0.48633 0.33587 0.72416 0.0
H195 H 0.67753 0.36183 0.75509 0.0
H196 H 0.66773 0.48351 0.76466 0.0
H197 H 0.70505 0.44734 0.75571 0.0
H198 H 0.32823 0.43262 0.7579 0.0
H199 H 0.70899 0.40193 0.75212 0.0
H200 H 0.39021 0.29106 0.73647 0.0
N201 N 0.39961 0.39498 0.74478 0.0
C202 C 0.38087 0.37338 0.74538 0.0
C203 C 0.34278 0.41581 0.75456 0.0
C204 C 0.34229 0.37213 0.75091 0.0
C205 C 0.38105 0.41614 0.74895 0.0
C206 C 0.32333 0.39371 0.75562 0.0
N207 N 0.43835 0.3543 0.7362 0.0
C208 C 0.45806 0.3343 0.73005 0.0
C209 C 0.38245 0.32961 0.74137 0.0
C210 C 0.40081 0.35237 0.74084 0.0
C211 C 0.40328 0.30889 0.73632 0.0
C212 C 0.44114 0.3113 0.73043 0.0
H213 H 0.29367 0.39352 0.75995 0.0
H214 H 0.29431 0.34812 0.75583 0.0
H215 H 0.32933 0.31095 0.74719 0.0
O216 O 0.47161 0.38476 0.70436 0.0
O217 O 0.44986 0.37753 0.76635 0.0
O218 O 0.50681 0.36453 0.77983 0.0
O219 O 0.4258 0.40803 0.71316 0.0
O220 O 0.51749 0.37556 0.73031 0.0
O221 O 0.54144 0.36352 0.76212 0.0
O222 O 0.53551 0.40606 0.81088 0.0
O223 O 0.554 0.41214 0.74828 0.0
O224 O 0.49694 0.42597 0.73584 0.0
O225 O 0.57896 0.38143 0.80131 0.0
O226 O 0.48621 0.41353 0.78516 0.0
O227 O 0.46323 0.42665 0.75353 0.0
C228 C 0.46983 0.36256 0.77782 0.0
C229 C 0.45328 0.41507 0.68057 0.0
C230 C 0.45075 0.42455 0.64366 0.0
C231 C 0.4698 0.44655 0.64754 0.0
C232 C 0.47191 0.43714 0.68406 0.0
C233 C 0.48017 0.45276 0.66762 0.0
C234 C 0.44269 0.40882 0.66038 0.0
C235 C 0.53913 0.36141 0.7419 0.0
C236 C 0.4442 0.39858 0.69784 0.0
C237 C 0.32396 0.34946 0.75162 0.0
C238 C 0.34395 0.32827 0.74677 0.0
C239 C 0.534 0.42755 0.73721 0.0
C240 C 0.55253 0.37509 0.83433 0.0
C241 C 0.55571 0.3655 0.87123 0.0
C242 C 0.5345 0.34425 0.86758 0.0
C243 C 0.53154 0.35382 0.8311 0.0
C244 C 0.56451 0.3809 0.85439 0.0
C245 C 0.52249 0.33854 0.84766 0.0
C246 C 0.46467 0.42795 0.77383 0.0
C247 C 0.56213 0.39136 0.81695 0.0
H248 H 0.47594 0.45923 0.63511 0.0
H249 H 0.47965 0.44239 0.69951 0.0
H250 H 0.49421 0.46986 0.67051 0.0
H251 H 0.42834 0.39169 0.65772 0.0
H252 H 0.52775 0.33177 0.88005 0.0
H253 H 0.5224 0.34893 0.8158 0.0
H254 H 0.58044 0.39749 0.85684 0.0
H255 H 0.50636 0.3221 0.84502 0.0
Tb256 Tb 0.03727 0.89896 0.73245 0.0
C257 C 0.88406 0.87049 0.76554 0.0
N258 N 0.9017 0.89232 0.76755 0.0
C259 C 0.84513 0.91253 0.7561 0.0
C260 C 0.84693 0.86873 0.7577 0.0
C261 C 0.88175 0.91329 0.76431 0.0
C262 C 0.82792 0.89013 0.75236 0.0
C263 C 0.88448 0.82709 0.77232 0.0
C264 C 0.90237 0.84997 0.77276 0.0
C265 C 0.84823 0.82502 0.76358 0.0
C266 C 0.82952 0.84581 0.75624 0.0
Tb267 Tb 0.96292 0.89075 0.77956 0.0
N268 N 0.93772 0.85261 0.78062 0.0
C269 C 0.90338 0.80713 0.78097 0.0
C270 C 0.95545 0.83356 0.79016 0.0
C271 C 0.93879 0.81046 0.79021 0.0
H272 H 0.89357 0.93074 0.76829 0.0
H273 H 0.95327 0.79526 0.79734 0.0
H274 H 0.11616 0.87797 0.75286 0.0
H275 H 0.00673 0.98554 0.69579 0.0
H276 H 0.9827 0.83617 0.79737 0.0
H277 H 0.8906 0.78921 0.78095 0.0
H278 H 0.99904 0.94154 0.70173 0.0
H279 H 0.82995 0.92923 0.75302 0.0
H280 H 0.83414 0.80755 0.76281 0.0
H281 H 0.80118 0.84405 0.75002 0.0
H282 H 0.1774 0.89456 0.76503 0.0
H283 H 0.79937 0.88959 0.74626 0.0
H284 H 0.06053 0.00741 0.7117 0.0
N285 N 0.09477 0.91245 0.74367 0.0
C286 C 0.10233 0.93641 0.74078 0.0
C287 C 0.15638 0.90656 0.75839 0.0
C288 C 0.13662 0.94674 0.74754 0.0
C289 C 0.12171 0.89723 0.75156 0.0
C290 C 0.16368 0.93149 0.75664 0.0
N291 N 0.04409 0.93915 0.72341 0.0
C292 C 0.02093 0.95115 0.70991 0.0
C293 C 0.08244 0.97525 0.72695 0.0
C294 C 0.07558 0.95038 0.73072 0.0
C295 C 0.05639 0.98825 0.71496 0.0
C296 C 0.02593 0.97599 0.70601 0.0
H297 H 0.19045 0.93869 0.76203 0.0
H298 H 0.16877 0.98018 0.75014 0.0
H299 H 0.1213 1.00519 0.73202 0.0
O300 O 0.05747 0.90322 0.70195 0.0
O301 O 0.04997 0.91149 0.76399 0.0
O302 O 0.99356 0.92515 0.77673 0.0
O303 O 0.06308 0.86924 0.71793 0.0
O304 O 0.97916 0.91267 0.72792 0.0
O305 O 0.95837 0.92398 0.76042 0.0
O306 O 0.98168 0.88881 0.81036 0.0
O307 O 0.97178 0.86238 0.75637 0.0
O308 O 0.9817 0.88278 0.72601 0.0
O309 O 0.92438 0.89846 0.80347 0.0
O310 O 0.01975 0.87514 0.78422 0.0
O311 O 0.04466 0.86627 0.75169 0.0
C312 C 0.03032 0.92747 0.77442 0.0
C313 C 0.05105 0.86786 0.68204 0.0
C314 C 0.0503 0.86197 0.64463 0.0
C315 C 0.02047 0.84519 0.64711 0.0
C316 C 0.02143 0.85093 0.68409 0.0
C317 C 0.00624 0.83972 0.66672 0.0
C318 C 0.06552 0.87323 0.66227 0.0
C319 C 0.95853 0.92649 0.74012 0.0
C320 C 0.06633 0.88047 0.70028 0.0
C321 C 0.14283 0.97177 0.74479 0.0
C322 C 0.11573 0.98603 0.73454 0.0
C323 C 0.96639 0.86473 0.73646 0.0
C324 C 0.95125 0.91544 0.83328 0.0
C325 C 0.94231 0.92892 0.86885 0.0
C326 C 0.95449 0.95232 0.86288 0.0
C327 C 0.96298 0.93891 0.82764 0.0
C328 C 0.94091 0.91051 0.85384 0.0
C329 C 0.96468 0.95721 0.84241 0.0
C330 C 0.04231 0.86263 0.77188 0.0
C331 C 0.9495 0.89593 0.81791 0.0
H332 H 0.00849 0.83599 0.6339 0.0
H333 H 0.01004 0.84631 0.69912 0.0
H334 H 0.98341 0.82669 0.66846 0.0
H335 H 0.08817 0.88644 0.66063 0.0
H336 H 0.95547 0.96698 0.87394 0.0
H337 H 0.97059 0.94308 0.81184 0.0
H338 H 0.9321 0.89229 0.85814 0.0
H339 H 0.9736 0.97532 0.83793 0.0
Tb340 Tb 0.46952 0.61511 0.23467 0.0
C341 C 0.63149 0.63727 0.2697 0.0
N342 N 0.61213 0.61592 0.27061 0.0
C343 C 0.66863 0.59416 0.26177 0.0
C344 C 0.67022 0.63794 0.26443 0.0
C345 C 0.63019 0.59443 0.26702 0.0
C346 C 0.68871 0.61601 0.26037 0.0
C347 C 0.63094 0.68118 0.27268 0.0
C348 C 0.61203 0.65861 0.27364 0.0
C349 C 0.66955 0.68196 0.26744 0.0
C350 C 0.68912 0.6604 0.26328 0.0
Tb351 Tb 0.54939 0.61874 0.27885 0.0
N352 N 0.57433 0.6572 0.27796 0.0
C353 C 0.61045 0.70226 0.27703 0.0
C354 C 0.55489 0.67759 0.28342 0.0
C355 C 0.57238 0.7004 0.28266 0.0
H356 H 0.61527 0.57739 0.26863 0.0
H357 H 0.5566 0.71652 0.28673 0.0
H358 H 0.40114 0.65334 0.24797 0.0
H359 H 0.46973 0.51768 0.22311 0.0
H360 H 0.52632 0.67647 0.28895 0.0
H361 H 0.62393 0.71995 0.27652 0.0
H362 H 0.49553 0.55899 0.22059 0.0
H363 H 0.68279 0.57709 0.2589 0.0
H364 H 0.68455 0.69913 0.26659 0.0
H365 H 0.71888 0.66129 0.25922 0.0
H366 H 0.33482 0.6507 0.25976 0.0
H367 H 0.71847 0.61574 0.25627 0.0
H368 H 0.40468 0.51112 0.23632 0.0
N369 N 0.40755 0.61515 0.2448 0.0
C370 C 0.39023 0.59307 0.24556 0.0
C371 C 0.35018 0.63432 0.25596 0.0
C372 C 0.35229 0.59069 0.25208 0.0
C373 C 0.38797 0.63574 0.24954 0.0
C374 C 0.3323 0.6117 0.25735 0.0
N375 N 0.44814 0.57573 0.23483 0.0
C376 C 0.46836 0.55643 0.22767 0.0
C377 C 0.39458 0.54939 0.24145 0.0
C378 C 0.41122 0.57268 0.24045 0.0
C379 C 0.41636 0.52934 0.23573 0.0
C380 C 0.4532 0.53294 0.22846 0.0
H381 H 0.30308 0.61066 0.26242 0.0
H382 H 0.30665 0.56528 0.25838 0.0
H383 H 0.34361 0.52914 0.24898 0.0
O384 O 0.47583 0.60648 0.20323 0.0
O385 O 0.45754 0.6003 0.26581 0.0
O386 O 0.51432 0.58598 0.27813 0.0
O387 O 0.43312 0.63154 0.21301 0.0
O388 O 0.52556 0.59873 0.22901 0.0
O389 O 0.54828 0.58538 0.26065 0.0
O390 O 0.53953 0.62826 0.30979 0.0
O391 O 0.56234 0.63452 0.24829 0.0
O392 O 0.50568 0.64764 0.23443 0.0
O393 O 0.58318 0.60285 0.30205 0.0
O394 O 0.49394 0.63637 0.28395 0.0
O395 O 0.47085 0.64888 0.2521 0.0
C396 C 0.47728 0.58456 0.27664 0.0
C397 C 0.45941 0.6377 0.17993 0.0
C398 C 0.4565 0.64725 0.14303 0.0
C399 C 0.47818 0.6683 0.14665 0.0
C400 C 0.48085 0.65879 0.18314 0.0
C401 C 0.49027 0.67396 0.16657 0.0
C402 C 0.44732 0.63197 0.15989 0.0
C403 C 0.547 0.58422 0.24034 0.0
C404 C 0.44954 0.6215 0.1973 0.0
C405 C 0.33573 0.56749 0.25332 0.0
C406 C 0.35682 0.5469 0.24802 0.0
C407 C 0.54268 0.64938 0.23655 0.0
C408 C 0.55356 0.59806 0.33449 0.0
C409 C 0.55559 0.58898 0.37148 0.0
C410 C 0.53052 0.56945 0.36826 0.0
C411 C 0.5287 0.5785 0.33166 0.0
C412 C 0.56701 0.60323 0.35439 0.0
C413 C 0.51724 0.56428 0.34846 0.0
C414 C 0.47284 0.6508 0.27234 0.0
C415 C 0.56518 0.61351 0.31694 0.0
H416 H 0.48524 0.68068 0.13415 0.0
H417 H 0.4901 0.6636 0.19845 0.0
H418 H 0.50676 0.69025 0.16919 0.0
H419 H 0.43105 0.61551 0.15744 0.0
H420 H 0.52157 0.55795 0.381 0.0
H421 H 0.51818 0.57425 0.31649 0.0
H422 H 0.5859 0.61855 0.35658 0.0
H423 H 0.49807 0.54917 0.34613 0.0
H424 H 0.12358 0.90772 0.39575 0.0
H425 H 0.10345 0.93892 0.37133 0.0
H426 H 0.21455 0.93915 0.34355 0.0
H427 H 0.23567 0.90877 0.3688 0.0
H428 H 0.19155 0.98418 0.35012 0.0
H429 H 0.07515 0.93492 0.31182 0.0
H430 H 0.06838 0.93518 0.33924 0.0
H431 H 0.10876 0.91978 0.32844 0.0
C432 C 0.14386 0.91438 0.38449 0.0
C433 C 0.18139 0.90577 0.38439 0.0
C434 C 0.13207 0.93201 0.37028 0.0
C435 C 0.15722 0.94115 0.35531 0.0
C436 C 0.19451 0.93226 0.35485 0.0
H437 H 0.06749 0.04005 0.26044 0.0
H438 H 0.09868 1.00567 0.27754 0.0
C439 C 0.20646 0.91472 0.36921 0.0
C440 C 0.14514 0.96108 0.34112 0.0
H441 H 0.07386 0.97859 0.30869 0.0
C442 C 0.16609 0.98282 0.34084 0.0
C443 C 0.11232 0.95927 0.32866 0.0
C444 C 0.09014 0.93592 0.32687 0.0
C445 C 0.15425 1.00306 0.32921 0.0
C446 C 0.11991 1.00181 0.31798 0.0
C447 C 0.09988 0.97974 0.31752 0.0
C448 C 0.10353 0.02332 0.30719 0.0
C449 C 0.1788 0.02555 0.32904 0.0
C450 C 0.09599 0.04476 0.31809 0.0
C451 C 0.07867 0.06451 0.30827 0.0
C452 C 0.06771 0.06305 0.28747 0.0
C453 C 0.07568 0.04173 0.27648 0.0
C454 C 0.09333 0.02203 0.28626 0.0
H455 H 0.20892 0.02099 0.33212 0.0
H456 H 0.17708 0.03532 0.31401 0.0
H457 H 0.16919 0.03796 0.3414 0.0
H458 H 0.10269 0.04606 0.33435 0.0
H459 H 0.07313 0.08078 0.3171 0.0
H460 H 0.32067 0.57032 0.90575 0.0
H461 H 0.34274 0.53932 0.88182 0.0
H462 H 0.35516 0.59357 0.83398 0.0
H463 H 0.33377 0.62503 0.85805 0.0
H464 H 0.31775 0.54484 0.82296 0.0
H465 H 0.45762 0.53812 0.86189 0.0
H466 H 0.41689 0.53717 0.87859 0.0
H467 H 0.42741 0.56441 0.86426 0.0
C468 C 0.32823 0.57576 0.89017 0.0
C469 C 0.326 0.60027 0.88393 0.0
C470 C 0.34063 0.55797 0.87649 0.0
C471 C 0.35097 0.56422 0.85624 0.0
C472 C 0.34735 0.58843 0.84959 0.0
H473 H 0.43899 0.471 0.75761 0.0
H474 H 0.4096 0.50467 0.77627 0.0
C475 C 0.33502 0.60635 0.86334 0.0
C476 C 0.36701 0.54546 0.84246 0.0
H477 H 0.44332 0.50805 0.83716 0.0
C478 C 0.34533 0.53689 0.82588 0.0
C479 C 0.40296 0.53518 0.84638 0.0
C480 C 0.42783 0.54425 0.86364 0.0
C481 C 0.35817 0.51761 0.81354 0.0
C482 C 0.3939 0.50702 0.81771 0.0
C483 C 0.41585 0.51606 0.83403 0.0
C484 C 0.40892 0.48611 0.80585 0.0
C485 C 0.33281 0.50817 0.79665 0.0
C486 C 0.41858 0.46454 0.81626 0.0
C487 C 0.43558 0.44539 0.80569 0.0
C488 C 0.4433 0.44738 0.78445 0.0
C489 C 0.43287 0.46878 0.77391 0.0
C490 C 0.416 0.48802 0.78455 0.0
H491 H 0.30297 0.51403 0.79878 0.0
H492 H 0.34284 0.51536 0.78155 0.0
H493 H 0.33361 0.48802 0.79605 0.0
H494 H 0.41347 0.46266 0.83269 0.0
H495 H 0.44325 0.42916 0.81425 0.0
H496 H 0.62179 0.61045 0.62549 0.0
H497 H 0.59814 0.57966 0.64971 0.0
H498 H 0.71299 0.56017 0.66522 0.0
H499 H 0.73671 0.5915 0.64136 0.0
H500 H 0.609 0.5323 0.64566 0.0
H501 H 0.66555 0.56031 0.72176 0.0
H502 H 0.66539 0.58038 0.6996 0.0
H503 H 0.70131 0.55744 0.70221 0.0
C504 C 0.64195 0.59993 0.63441 0.0
C505 C 0.68107 0.60337 0.63158 0.0
C506 C 0.62844 0.58232 0.64822 0.0
C507 C 0.65371 0.56763 0.65944 0.0
C508 C 0.69286 0.57159 0.65715 0.0
H509 H 0.60818 0.43042 0.72475 0.0
H510 H 0.63963 0.46451 0.70702 0.0
C511 C 0.70642 0.58947 0.64347 0.0
C512 C 0.63887 0.54679 0.67186 0.0
H513 H 0.63748 0.52094 0.72009 0.0
C514 C 0.61528 0.52991 0.66194 0.0
C515 C 0.64706 0.54353 0.69311 0.0
C516 C 0.67092 0.56148 0.70487 0.0
C517 C 0.59958 0.51005 0.67263 0.0
C518 C 0.60753 0.5069 0.69384 0.0
C519 C 0.63158 0.52343 0.70378 0.0
C520 C 0.58959 0.48706 0.70598 0.0
C521 C 0.57388 0.49285 0.6612 0.0
C522 C 0.55127 0.48867 0.7115 0.0
C523 C 0.53345 0.46945 0.7219 0.0
C524 C 0.55348 0.4481 0.72672 0.0
C525 C 0.59206 0.44668 0.72139 0.0
C526 C 0.61004 0.46609 0.71122 0.0
H527 H 0.57869 0.49374 0.64425 0.0
H528 H 0.57781 0.4738 0.66652 0.0
H529 H 0.54409 0.49811 0.66423 0.0
H530 H 0.53506 0.50475 0.70761 0.0
H531 H 0.50388 0.4713 0.72609 0.0
H532 H 0.89389 0.9111 0.12186 0.0
H533 H 0.91644 0.94151 0.14625 0.0
H534 H 0.80411 0.94739 0.17186 0.0
H535 H 0.781 0.91714 0.14714 0.0
H536 H 0.88423 0.99028 0.14766 0.0
H537 H 0.87758 0.94123 0.22307 0.0
H538 H 0.8801 0.92547 0.19872 0.0
H539 H 0.83667 0.93952 0.20655 0.0
C540 C 0.87394 0.91873 0.13274 0.0
C541 C 0.83552 0.91186 0.13239 0.0
C542 C 0.88694 0.93604 0.14673 0.0
C543 C 0.86199 0.94669 0.16086 0.0
C544 C 0.82393 0.93919 0.16122 0.0
H545 H 0.90833 0.0839 0.22397 0.0
H546 H 0.87679 0.05053 0.2058 0.0
C547 C 0.8108 0.92186 0.14712 0.0
C548 C 0.87552 0.9669 0.17402 0.0
H549 H 0.89718 0.98231 0.22368 0.0
C550 C 0.88684 0.98861 0.16429 0.0
C551 C 0.87905 0.96458 0.19568 0.0
C552 C 0.86797 0.94144 0.20674 0.0
C553 C 0.90191 0.008 0.17563 0.0
C554 C 0.90559 1.00569 0.19729 0.0
C555 C 0.89408 0.98404 0.20707 0.0
C556 C 0.92307 0.02523 0.20976 0.0
C557 C 0.91476 0.03063 0.16431 0.0
C558 C 0.95919 0.02189 0.21833 0.0
C559 C 0.97718 0.04089 0.22872 0.0
C560 C 0.95913 0.06345 0.23093 0.0
C561 C 0.92266 0.0666 0.2227 0.0
C562 C 0.90473 0.04763 0.21223 0.0
H563 H 0.91578 0.02798 0.14732 0.0
H564 H 0.89479 0.04565 0.1676 0.0
H565 H 0.94329 0.03629 0.16969 0.0
H566 H 0.97382 1.00474 0.21656 0.0
H567 H 0.00522 0.03795 0.23502 0.0
H568 H 0.77304 0.10224 0.64794 0.0
H569 H 0.79247 0.07203 0.67378 0.0
H570 H 0.90266 0.06779 0.64522 0.0
H571 H 0.88428 0.09873 0.62016 0.0
H572 H 0.81243 0.02591 0.66832 0.0
H573 H 0.93254 0.07376 0.70448 0.0
H574 H 0.89939 0.08907 0.6877 0.0
H575 H 0.93857 0.07234 0.67704 0.0
C576 C 0.80169 0.09529 0.64745 0.0
C577 C 0.82703 0.10294 0.63189 0.0
C578 C 0.81267 0.07787 0.66215 0.0
C579 C 0.84925 0.06784 0.66168 0.0
C580 C 0.87461 0.07561 0.64628 0.0
H581 H 0.92866 0.92829 0.70133 0.0
H582 H 0.89847 0.96291 0.6843 0.0
C583 C 0.8638 0.09309 0.63171 0.0
C584 C 0.86037 0.0482 0.67638 0.0
H585 H 0.93155 0.03016 0.70866 0.0
C586 C 0.83819 0.027 0.67738 0.0
C587 C 0.89357 0.04969 0.68856 0.0
C588 C 0.91712 0.07256 0.68957 0.0
C589 C 0.84927 0.00687 0.68939 0.0
C590 C 0.884 0.0077 0.70029 0.0
C591 C 0.9052 0.02932 0.70009 0.0
C592 C 0.89983 0.98609 0.71118 0.0
C593 C 0.82359 0.98493 0.69025 0.0
C594 C 0.91127 0.98759 0.73191 0.0
C595 C 0.92921 0.96791 0.74157 0.0
C596 C 0.93626 0.94642 0.73064 0.0
C597 C 0.92377 0.94468 0.71011 0.0
C598 C 0.90613 0.96439 0.70042 0.0
H599 H 0.7936 0.99008 0.68747 0.0
H600 H 0.83198 0.97205 0.67796 0.0
H601 H 0.82547 0.97544 0.7054 0.0
H602 H 0.9069 1.00416 0.74052 0.0
H603 H 0.93864 0.96981 0.75739 0.0
H604 H 0.68835 0.44209 0.10843 0.0
H605 H 0.66572 0.47248 0.13273 0.0
H606 H 0.66031 0.41809 0.18084 0.0
H607 H 0.68221 0.3872 0.15639 0.0
H608 H 0.59301 0.46734 0.15576 0.0
H609 H 0.71991 0.47832 0.20593 0.0
H610 H 0.72331 0.46679 0.17993 0.0
H611 H 0.7041 0.44798 0.20009 0.0
C612 C 0.68223 0.43646 0.12414 0.0
C613 C 0.68668 0.41207 0.13036 0.0
C614 C 0.66955 0.45394 0.13805 0.0
C615 C 0.66147 0.44756 0.15857 0.0
C616 C 0.66679 0.42342 0.16509 0.0
H617 H 0.57262 0.54115 0.25662 0.0
H618 H 0.60098 0.50712 0.23788 0.0
C619 C 0.67936 0.40581 0.15111 0.0
C620 C 0.64545 0.46607 0.17262 0.0
H621 H 0.66678 0.5026 0.21347 0.0
C622 C 0.60904 0.47498 0.16845 0.0
C623 C 0.66632 0.4758 0.18925 0.0
C624 C 0.70569 0.46692 0.19415 0.0
C625 C 0.59307 0.4936 0.1803 0.0
C626 C 0.61452 0.50408 0.19642 0.0
C627 C 0.65053 0.49468 0.20101 0.0
C628 C 0.60025 0.52529 0.20816 0.0
C629 C 0.55323 0.50178 0.1755 0.0
C630 C 0.59159 0.54706 0.1978 0.0
C631 C 0.57543 0.56646 0.20842 0.0
C632 C 0.56797 0.56462 0.2297 0.0
C633 C 0.57824 0.5432 0.24026 0.0
C634 C 0.59431 0.52371 0.22957 0.0
H635 H 0.53707 0.48754 0.16719 0.0
H636 H 0.53761 0.5065 0.18981 0.0
H637 H 0.55439 0.51816 0.16543 0.0
H638 H 0.59674 0.54889 0.18137 0.0
H639 H 0.56816 0.58278 0.19987 0.0
H640 H 0.34627 0.38635 0.36073 0.0
H641 H 0.36894 0.41787 0.33659 0.0
H642 H 0.33073 0.47342 0.37827 0.0
H643 H 0.30767 0.44221 0.40224 0.0
H644 H 0.33089 0.46284 0.31793 0.0
H645 H 0.44983 0.48127 0.37187 0.0
H646 H 0.42258 0.45347 0.37281 0.0
H647 H 0.40328 0.48097 0.38319 0.0
C648 C 0.34189 0.40528 0.3645 0.0
C649 C 0.32567 0.41178 0.38353 0.0
C650 C 0.35496 0.42324 0.35074 0.0
C651 C 0.35198 0.44794 0.35582 0.0
C652 C 0.33373 0.45446 0.37419 0.0
H653 H 0.40356 0.58208 0.28978 0.0
H654 H 0.37197 0.54788 0.30715 0.0
C655 C 0.32068 0.43659 0.38789 0.0
C656 C 0.37051 0.46691 0.3429 0.0
H657 H 0.443 0.50809 0.34348 0.0
C658 C 0.35547 0.47271 0.32343 0.0
C659 C 0.40281 0.47955 0.35005 0.0
C660 C 0.42089 0.47346 0.37055 0.0
C661 C 0.37151 0.49126 0.31111 0.0
C662 C 0.40316 0.50434 0.31857 0.0
C663 C 0.41858 0.49815 0.33785 0.0
C664 C 0.42113 0.52445 0.30666 0.0
C665 C 0.35485 0.49655 0.29012 0.0
C666 C 0.45928 0.52272 0.30075 0.0
C667 C 0.47728 0.54216 0.29077 0.0
C668 C 0.4576 0.56384 0.2867 0.0
C669 C 0.41931 0.5655 0.29249 0.0
C670 C 0.40121 0.54596 0.30238 0.0
H671 H 0.33646 0.48147 0.28472 0.0
H672 H 0.33737 0.51325 0.29096 0.0
H673 H 0.37758 0.49975 0.27854 0.0
H674 H 0.47522 0.50633 0.30398 0.0
H675 H 0.50673 0.54025 0.28636 0.0
H676 H 0.19117 0.0657 0.90516 0.0
H677 H 0.16788 0.03488 0.88137 0.0
H678 H 0.14718 0.09029 0.83539 0.0
H679 H 0.17045 0.1214 0.85927 0.0
H680 H 0.09446 0.03423 0.86565 0.0
H681 H 0.20124 0.03639 0.80252 0.0
H682 H 0.21024 0.04908 0.8277 0.0
H683 H 0.18155 0.06533 0.8094 0.0
C684 C 0.18192 0.07134 0.88993 0.0
C685 C 0.18232 0.09604 0.88417 0.0
C686 C 0.16874 0.05368 0.87632 0.0
C687 C 0.1559 0.06023 0.85658 0.0
C688 C 0.15749 0.08476 0.85044 0.0
H689 H 0.0016 0.97196 0.78352 0.0
H690 H 0.03244 1.00485 0.8025 0.0
C691 C 0.17077 0.10253 0.8641 0.0
C692 C 0.13819 0.04152 0.84324 0.0
H693 H 0.14674 0.0119 0.79723 0.0
C694 C 0.1059 0.02936 0.85069 0.0
C695 C 0.15331 0.03507 0.82379 0.0
C696 C 0.18867 0.04696 0.81537 0.0
C697 C 0.08824 0.01099 0.83925 0.0
C698 C 0.10293 1.00481 0.81965 0.0
C699 C 0.13538 0.01682 0.8122 0.0
C700 C 0.08519 0.98556 0.80693 0.0
C701 C 0.0543 0.99809 0.8484 0.0
C702 C 0.1049 0.96402 0.80273 0.0
C703 C 0.08721 0.94515 0.79201 0.0
C704 C 0.04973 0.94764 0.78507 0.0
C705 C 0.03041 0.96946 0.78885 0.0
C706 C 0.048 0.98826 0.79965 0.0
H707 H 0.05245 1.00062 0.86538 0.0
H708 H 0.02815 1.00562 0.84139 0.0
H709 H 0.05519 0.97832 0.84514 0.0
H710 H 0.1336 0.96156 0.80824 0.0
H711 H 0.10254 0.92839 0.7896 0.0
H712 H 0.1602 0.16606 0.96 0.0
H713 H 0.13908 0.16283 0.99584 0.0
H714 H 0.15491 0.08521 0.99424 0.0
H715 H 0.17754 0.08837 0.95856 0.0
H716 H 0.07966 0.13727 0.01414 0.0
H717 H 0.21888 0.10524 0.0437 0.0
H718 H 0.21316 0.11771 0.01806 0.0
H719 H 0.19846 0.08707 0.02364 0.0
C720 C 0.1595 0.1483 0.96729 0.0
C721 C 0.17107 0.12752 0.95645 0.0
C722 C 0.14708 0.14647 0.98774 0.0
C723 C 0.14598 0.12384 0.99783 0.0
C724 C 0.15619 0.10292 0.98687 0.0
H725 H 0.10825 0.09677 0.13004 0.0
H726 H 0.1119 0.09 0.09267 0.0
C727 C 0.16874 0.10474 0.9664 0.0
C728 C 0.13509 0.12247 0.01996 0.0
H729 H 0.16981 0.1095 0.06798 0.0
C730 C 0.09926 0.13103 0.02591 0.0
C731 C 0.16066 0.11427 0.0353 0.0
C732 C 0.20006 0.10573 0.02997 0.0
C733 C 0.08857 0.13198 0.04679 0.0
C734 C 0.11457 0.12447 0.06214 0.0
C735 C 0.14987 0.11515 0.05617 0.0
C736 C 0.10724 0.12806 0.08448 0.0
C737 C 0.04963 0.14117 0.05226 0.0
C738 C 0.10293 0.15164 0.09223 0.0
C739 C 0.10087 0.15552 0.11349 0.0
C740 C 0.10319 0.13591 0.12746 0.0
C741 C 0.10598 0.1122 0.11965 0.0
C742 C 0.10827 0.10833 0.09834 0.0
H743 H 0.02958 0.13908 0.03918 0.0
H744 H 0.03803 0.13143 0.06596 0.0
H745 H 0.05145 0.16079 0.05597 0.0
H746 H 0.10276 0.16717 0.08187 0.0
H747 H 0.09853 0.17398 0.11905 0.0
H748 H 0.3912 0.3988 0.44834 0.0
H749 H 0.41313 0.40536 0.48372 0.0
H750 H 0.30655 0.37846 0.50723 0.0
H751 H 0.28444 0.37183 0.47193 0.0
H752 H 0.38287 0.43431 0.51437 0.0
H753 H 0.38296 0.33761 0.53921 0.0
H754 H 0.37937 0.3467 0.51245 0.0
H755 H 0.33847 0.34784 0.529 0.0
C756 C 0.37235 0.3944 0.46104 0.0
C757 C 0.33613 0.38467 0.45732 0.0
C758 C 0.38499 0.39805 0.48125 0.0
C759 C 0.36176 0.39198 0.49813 0.0
C760 C 0.32535 0.38268 0.49447 0.0
H761 H 0.38314 0.40493 0.63126 0.0
H762 H 0.36214 0.39686 0.59594 0.0
C763 C 0.31272 0.37895 0.47428 0.0
C764 C 0.37531 0.39593 0.51955 0.0
H765 H 0.393 0.36697 0.56537 0.0
C766 C 0.38529 0.41957 0.52549 0.0
C767 C 0.37835 0.37668 0.53406 0.0
C768 C 0.36957 0.35074 0.52836 0.0
C769 C 0.39758 0.42458 0.54564 0.0
C770 C 0.40062 0.40533 0.56015 0.0
C771 C 0.39063 0.38169 0.55422 0.0
C772 C 0.41404 0.40941 0.58156 0.0
C773 C 0.40637 0.45052 0.55134 0.0
C774 C 0.45051 0.4186 0.58523 0.0
C775 C 0.46261 0.42318 0.60539 0.0
C776 C 0.43859 0.41846 0.62231 0.0
C777 C 0.40246 0.40858 0.6186 0.0
C778 C 0.39034 0.40407 0.59842 0.0
H779 H 0.39334 0.46366 0.54037 0.0
H780 H 0.39618 0.45462 0.56717 0.0
H781 H 0.4375 0.45334 0.55095 0.0
H782 H 0.46962 0.42228 0.57249 0.0
H783 H 0.49087 0.43035 0.60772 0.0
H784 H 0.66846 0.34032 0.05589 0.0
H785 H 0.6456 0.34197 0.02031 0.0
H786 H 0.66031 0.41977 0.01951 0.0
H787 H 0.68303 0.41827 0.05527 0.0
H788 H 0.59314 0.40569 1.0017 0.0
H789 H 0.71193 0.3522 0.96972 0.0
H790 H 0.68782 0.33664 0.99033 0.0
H791 H 0.71276 0.3645 0.99547 0.0
C792 C 0.66702 0.35777 0.04811 0.0
C793 C 0.67792 0.37913 0.05833 0.0
C794 C 0.65403 0.35868 0.02775 0.0
C795 C 0.65206 0.38092 0.01708 0.0
C796 C 0.66186 0.40239 0.0274 0.0
H797 H 0.62466 0.38402 0.88289 0.0
H798 H 0.64775 0.39109 0.91793 0.0
C799 C 0.67469 0.40151 0.04785 0.0
C800 C 0.63963 0.38166 0.99517 0.0
H801 H 0.65835 0.35774 0.94773 0.0
C802 C 0.60756 0.39537 0.98985 0.0
C803 C 0.65889 0.36859 0.97961 0.0
C804 C 0.69499 0.35486 0.98399 0.0
C805 C 0.59342 0.39564 0.96957 0.0
C806 C 0.61142 0.38143 0.95429 0.0
C807 C 0.64428 0.36843 0.95947 0.0
C808 C 0.59617 0.37912 0.933 0.0
C809 C 0.55951 0.41128 0.96469 0.0
C810 C 0.55943 0.37012 0.92976 0.0
C811 C 0.54599 0.36632 0.90975 0.0
C812 C 0.56917 0.37114 0.89248 0.0
C813 C 0.60583 0.38043 0.89577 0.0
C814 C 0.61919 0.38432 0.91582 0.0
H815 H 0.55685 0.42653 0.97576 0.0
H816 H 0.56122 0.4189 0.9488 0.0
H817 H 0.53341 0.40009 0.96592 0.0
H818 H 0.54139 0.36547 0.94274 0.0
H819 H 0.51749 0.3594 0.90782 0.0
H820 H 0.88794 0.12069 0.56614 0.0
H821 H 0.91167 0.11862 0.53062 0.0
H822 H 0.80032 0.13581 0.50759 0.0
H823 H 0.77616 0.13738 0.543 0.0
H824 H 0.8393 0.09782 0.48549 0.0
H825 H 0.9269 0.18103 0.49526 0.0
H826 H 0.93456 0.15738 0.51406 0.0
H827 H 0.88968 0.17265 0.51309 0.0
C828 C 0.86836 0.12364 0.55351 0.0
C829 C 0.83022 0.12941 0.5574 0.0
C830 C 0.88204 0.12266 0.53324 0.0
C831 C 0.85787 0.12744 0.51651 0.0
C832 C 0.81949 0.13222 0.52029 0.0
H833 H 0.88066 0.14405 0.38342 0.0
H834 H 0.85698 0.13706 0.41855 0.0
C835 C 0.80581 0.13327 0.54054 0.0
C836 C 0.8728 0.12843 0.4951 0.0
H837 H 0.93186 0.16081 0.46343 0.0
C838 C 0.85958 0.11155 0.48062 0.0
C839 C 0.89917 0.1464 0.48882 0.0
C840 C 0.91327 0.16556 0.50352 0.0
C841 C 0.87247 0.11196 0.46006 0.0
C842 C 0.89864 0.13008 0.45374 0.0
C843 C 0.9119 0.14688 0.46828 0.0
C844 C 0.91251 0.13228 0.43212 0.0
C845 C 0.85848 0.09273 0.44543 0.0
C846 C 0.95158 0.13216 0.42805 0.0
C847 C 0.96514 0.13638 0.40807 0.0
C848 C 0.93992 0.14085 0.39169 0.0
C849 C 0.90075 0.14035 0.39567 0.0
C850 C 0.88719 0.13629 0.41573 0.0
H851 H 0.84787 0.07643 0.45387 0.0
H852 H 0.83469 0.10018 0.43619 0.0
H853 H 0.88121 0.08703 0.43464 0.0
H854 H 0.97166 0.12914 0.44044 0.0
H855 H 0.99545 0.13638 0.40545 0.0
H856 H 0.84002 0.85217 0.04976 0.0
H857 H 0.86139 0.85947 0.01429 0.0
H858 H 0.85311 0.93675 0.02367 0.0
H859 H 0.83068 0.92961 0.05899 0.0
H860 H 0.82068 0.92134 0.98665 0.0
H861 H 0.96585 0.88439 0.99603 0.0
H862 H 0.92882 0.86389 1.00391 0.0
H863 H 0.93594 0.89173 0.01774 0.0
C864 C 0.84254 0.87073 0.04425 0.0
C865 C 0.83373 0.89031 0.05726 0.0
C866 C 0.85517 0.87487 0.02404 0.0
C867 C 0.85941 0.89866 0.01643 0.0
C868 C 0.85032 0.91825 0.02928 0.0
H869 H 0.97621 0.94466 0.90443 0.0
H870 H 0.95554 0.93761 0.94007 0.0
C871 C 0.83775 0.91413 0.04951 0.0
C872 C 0.87244 0.90312 0.99491 0.0
H873 H 0.94637 0.89381 0.9618 0.0
C874 C 0.84819 0.91537 0.98122 0.0
C875 C 0.90853 0.89558 0.98793 0.0
C876 C 0.93649 0.88336 1.00219 0.0
C877 C 0.8588 0.91994 0.96063 0.0
C878 C 0.89442 0.91175 0.95347 0.0
C879 C 0.91893 0.89986 0.96726 0.0
C880 C 0.907 0.9157 0.93181 0.0
C881 C 0.83203 0.93386 0.94681 0.0
C882 C 0.88689 0.90543 0.91533 0.0
C883 C 0.89852 0.90952 0.89493 0.0
C884 C 0.9306 0.92391 0.89059 0.0
C885 C 0.95105 0.93381 0.90719 0.0
C886 C 0.93943 0.92967 0.92758 0.0
H887 H 0.81058 0.94403 0.95585 0.0
H888 H 0.84772 0.9469 0.93679 0.0
H889 H 0.81679 0.92092 0.9367 0.0
H890 H 0.86215 0.89425 0.91825 0.0
H891 H 0.88195 0.90177 0.88255 0.0
H892 H 0.73503 0.62776 0.54153 0.0
H893 H 0.71058 0.62226 0.5066 0.0
H894 H 0.5971 0.61607 0.53081 0.0
H895 H 0.62111 0.62257 0.56576 0.0
H896 H 0.67205 0.58364 0.49042 0.0
H897 H 0.58389 0.66681 0.48559 0.0
H898 H 0.61869 0.66217 0.50561 0.0
H899 H 0.57304 0.64773 0.5074 0.0
C900 C 0.70478 0.62563 0.53943 0.0
C901 C 0.68002 0.62584 0.55649 0.0
C902 C 0.69089 0.6223 0.51944 0.0
C903 C 0.65194 0.61916 0.51603 0.0
C904 C 0.62717 0.61898 0.53301 0.0
H905 H 0.51552 0.589 0.40772 0.0
H906 H 0.53944 0.59623 0.44261 0.0
C907 C 0.64102 0.62239 0.55303 0.0
C908 C 0.63752 0.6154 0.49474 0.0
H909 H 0.57696 0.63835 0.45841 0.0
C910 C 0.65141 0.59567 0.48339 0.0
C911 C 0.61057 0.63113 0.48556 0.0
C912 C 0.5959 0.65328 0.49657 0.0
C913 C 0.63864 0.591 0.46327 0.0
C914 C 0.61161 0.60665 0.45415 0.0
C915 C 0.59766 0.62637 0.46547 0.0
C916 C 0.59724 0.60273 0.4329 0.0
C917 C 0.65357 0.56904 0.45208 0.0
C918 C 0.62171 0.60436 0.41584 0.0
C919 C 0.60815 0.60018 0.39588 0.0
C920 C 0.56983 0.5943 0.39261 0.0
C921 C 0.54529 0.59312 0.40973 0.0
C922 C 0.55884 0.59739 0.42967 0.0
H923 H 0.66724 0.55589 0.46281 0.0
H924 H 0.63045 0.5596 0.44371 0.0
H925 H 0.67505 0.57496 0.44057 0.0
H926 H 0.65133 0.60882 0.41798 0.0
H927 H 0.62784 0.6011 0.38306 0.0
H928 H 0.32763 0.59477 0.95923 0.0
H929 H 0.34987 0.59311 0.99509 0.0
H930 H 0.37025 0.67038 0.99353 0.0
H931 H 0.34807 0.67218 0.95783 0.0
H932 H 0.4184 0.60594 0.01292 0.0
H933 H 0.30204 0.66238 0.04393 0.0
H934 H 0.30075 0.64955 0.01837 0.0
H935 H 0.32711 0.67696 0.02313 0.0
C936 C 0.33713 0.61136 0.9665 0.0
C937 C 0.33569 0.63366 0.95577 0.0
C938 C 0.34968 0.6104 0.987 0.0
C939 C 0.36094 0.6317 0.99712 0.0
C940 C 0.36072 0.65382 0.98621 0.0
H941 H 0.4951 0.65259 0.1065 0.0
H942 H 0.47125 0.64642 0.07156 0.0
C943 C 0.34807 0.65482 0.9658 0.0
C944 C 0.37302 0.63096 0.01907 0.0
H945 H 0.35497 0.65591 0.06618 0.0
C946 C 0.40436 0.61669 0.02462 0.0
C947 C 0.35424 0.64462 0.03441 0.0
C948 C 0.31893 0.65905 0.02974 0.0
C949 C 0.41831 0.61647 0.04495 0.0
C950 C 0.40083 0.63124 0.06001 0.0
C951 C 0.36864 0.64478 0.0546 0.0
C952 C 0.416 0.63359 0.0813 0.0
C953 C 0.45149 0.6003 0.05009 0.0
C954 C 0.3927 0.62887 0.09846 0.0
C955 C 0.40606 0.63279 0.1185 0.0
C956 C 0.44298 0.64165 0.12179 0.0
C957 C 0.4664 0.64601 0.10455 0.0
C958 C 0.45299 0.64215 0.08454 0.0
H959 H 0.4537 0.58491 0.03915 0.0
H960 H 0.47805 0.61105 0.04893 0.0
H961 H 0.4492 0.59288 0.06603 0.0
H962 H 0.36395 0.62245 0.09634 0.0
H963 H 0.38706 0.62956 0.13138 0.0
H964 H 0.23431 0.87283 0.47333 0.0
H965 H 0.20935 0.87353 0.50862 0.0
H966 H 0.09684 0.88554 0.48491 0.0
H967 H 0.12139 0.8843 0.44955 0.0
H968 H 0.16656 0.91005 0.53004 0.0
H969 H 0.08679 0.82358 0.52112 0.0
H970 H 0.12336 0.83305 0.50328 0.0
H971 H 0.07707 0.84645 0.50193 0.0
C972 C 0.20423 0.87556 0.47562 0.0
C973 C 0.17979 0.87827 0.4586 0.0
C974 C 0.19007 0.87612 0.49579 0.0
C975 C 0.1512 0.87924 0.49936 0.0
C976 C 0.12688 0.88277 0.48248 0.0
H977 H 0.01034 0.87006 0.60911 0.0
H978 H 0.03519 0.87618 0.5742 0.0
C979 C 0.14101 0.88227 0.46229 0.0
C980 C 0.13599 0.87809 0.52071 0.0
H981 H 0.07849 0.8446 0.55243 0.0
C982 C 0.14731 0.89576 0.53498 0.0
C983 C 0.11095 0.85939 0.52709 0.0
C984 C 0.09899 0.83939 0.51265 0.0
C985 C 0.13373 0.89545 0.55541 0.0
C986 C 0.10879 0.87667 0.56182 0.0
C987 C 0.0975 0.85904 0.5475 0.0
C988 C 0.09411 0.87473 0.58329 0.0
C989 C 0.14559 0.91551 0.56979 0.0
C990 C 0.11894 0.87194 0.60007 0.0
C991 C 0.10478 0.86847 0.62008 0.0
C992 C 0.0655 0.8674 0.62366 0.0
C993 C 0.04074 0.87051 0.60685 0.0
C994 C 0.0549 0.87411 0.58689 0.0
H995 H 0.15555 0.93184 0.56116 0.0
H996 H 0.12188 0.92089 0.58007 0.0
H997 H 0.16931 0.90902 0.57959 0.0
H998 H 0.14929 0.87176 0.59763 0.0
H999 H 0.12458 0.86579 0.63265 0.0
H1000 H 0.28395 0.2846 0.36845 0.0
H1001 H 0.24648 0.25631 0.34765 0.0
H1002 H 0.14848 0.30224 0.35473 0.0
H1003 H 0.18598 0.33034 0.37586 0.0
H1004 H 0.13419 0.25525 0.36573 0.0
H1005 H 0.20483 0.25748 0.28926 0.0
H1006 H 0.23689 0.25188 0.31024 0.0
H1007 H 0.21266 0.28054 0.30851 0.0
C1008 C 0.25473 0.28899 0.36494 0.0
C1009 C 0.23783 0.30972 0.37334 0.0
C1010 C 0.23333 0.27284 0.35308 0.0
C1011 C 0.19471 0.27725 0.34941 0.0
C1012 C 0.17825 0.29853 0.35725 0.0
H1013 H 0.04335 0.19385 0.27147 0.0
H1014 H 0.0803 0.22565 0.28838 0.0
C1015 C 0.19968 0.31466 0.36915 0.0
C1016 C 0.17077 0.25857 0.33921 0.0
H1017 H 0.1616 0.22481 0.2954 0.0
C1018 C 0.1401 0.24869 0.35031 0.0
C1019 C 0.17832 0.25008 0.31904 0.0
C1020 C 0.20974 0.2607 0.30597 0.0
C1021 C 0.11719 0.23033 0.34194 0.0
C1022 C 0.12542 0.22138 0.32203 0.0
C1023 C 0.15566 0.2315 0.31077 0.0
C1024 C 0.10221 0.20204 0.31235 0.0
C1025 C 0.08375 0.22104 0.35418 0.0
C1026 C 0.10215 0.1782 0.32026 0.0
C1027 C 0.08125 0.1599 0.31048 0.0
C1028 C 0.06041 0.16519 0.29256 0.0
C1029 C 0.05978 0.18919 0.28503 0.0
C1030 C 0.08074 0.20738 0.29471 0.0
H1031 H 0.07817 0.23218 0.36809 0.0
H1032 H 0.05799 0.22104 0.34436 0.0
H1033 H 0.08914 0.20207 0.35926 0.0
H1034 H 0.11883 0.17365 0.33376 0.0
H1035 H 0.0822 0.14154 0.31659 0.0
H1036 H 0.33498 0.17084 0.87199 0.0
H1037 H 0.37171 0.19863 0.84977 0.0
H1038 H 0.27542 0.24656 0.84572 0.0
H1039 H 0.23863 0.21857 0.86759 0.0
H1040 H 0.31497 0.24282 0.80844 0.0
H1041 H 0.41234 0.26201 0.87374 0.0
H1042 H 0.40925 0.2306 0.86659 0.0
H1043 H 0.36845 0.2456 0.87712 0.0
C1044 C 0.32148 0.18698 0.86582 0.0
C1045 C 0.28405 0.1926 0.87121 0.0
C1046 C 0.34254 0.20297 0.85337 0.0
C1047 C 0.32656 0.22494 0.84644 0.0
C1048 C 0.28838 0.22979 0.85094 0.0
H1049 H 0.39543 0.36003 0.78912 0.0
H1050 H 0.3617 0.32549 0.80441 0.0
C1051 C 0.26733 0.21377 0.86332 0.0
C1052 C 0.34997 0.24357 0.83562 0.0
H1053 H 0.42531 0.2819 0.84218 0.0
C1054 C 0.33919 0.25129 0.81578 0.0
C1055 C 0.38152 0.2547 0.84524 0.0
C1056 C 0.39349 0.24802 0.86691 0.0
C1057 C 0.35909 0.26979 0.8053 0.0
C1058 C 0.39024 0.28116 0.81505 0.0
C1059 C 0.40146 0.27314 0.83472 0.0
C1060 C 0.41074 0.30198 0.80545 0.0
C1061 C 0.34671 0.27692 0.78384 0.0
C1062 C 0.44977 0.30051 0.8014 0.0
C1063 C 0.46913 0.32027 0.79261 0.0
C1064 C 0.44989 0.34194 0.7879 0.0
C1065 C 0.41096 0.34348 0.7923 0.0
C1066 C 0.3916 0.32371 0.80098 0.0
H1067 H 0.32999 0.26227 0.77639 0.0
H1068 H 0.32854 0.2933 0.78474 0.0
H1069 H 0.3715 0.28129 0.77392 0.0
H1070 H 0.46515 0.28397 0.80485 0.0
H1071 H 0.49904 0.31843 0.78922 0.0
H1072 H 0.66755 0.19149 0.62871 0.0
H1073 H 0.63471 0.21937 0.65199 0.0
H1074 H 0.7403 0.23449 0.68291 0.0
H1075 H 0.77333 0.20693 0.65917 0.0
H1076 H 0.62513 0.22324 0.69372 0.0
H1077 H 0.70812 0.30145 0.66308 0.0
H1078 H 0.70932 0.27186 0.65134 0.0
H1079 H 0.73625 0.27769 0.67433 0.0
C1080 C 0.68349 0.20039 0.6408 0.0
C1081 C 0.72273 0.19712 0.64235 0.0
C1082 C 0.66479 0.21635 0.65404 0.0
C1083 C 0.68514 0.2294 0.66895 0.0
C1084 C 0.72416 0.22501 0.67125 0.0
H1085 H 0.57216 0.32168 0.76008 0.0
H1086 H 0.60858 0.28958 0.74343 0.0
C1087 C 0.74292 0.2091 0.65789 0.0
C1088 C 0.66567 0.24855 0.68107 0.0
H1089 H 0.66416 0.30977 0.68953 0.0
C1090 C 0.63377 0.24214 0.69291 0.0
C1091 C 0.67655 0.2733 0.67969 0.0
C1092 C 0.70919 0.28161 0.66629 0.0
C1093 C 0.61241 0.25978 0.70334 0.0
C1094 C 0.62369 0.28446 0.70222 0.0
C1095 C 0.65569 0.29084 0.69048 0.0
C1096 C 0.602 0.3041 0.71251 0.0
C1097 C 0.57721 0.2519 0.71485 0.0
C1098 C 0.58703 0.32336 0.70077 0.0
C1099 C 0.56671 0.342 0.71029 0.0
C1100 C 0.56111 0.34182 0.73179 0.0
C1101 C 0.57623 0.32253 0.74352 0.0
C1102 C 0.59671 0.30398 0.73399 0.0
H1103 H 0.56708 0.2338 0.70972 0.0
H1104 H 0.58367 0.2506 0.73158 0.0
H1105 H 0.55398 0.26525 0.71272 0.0
H1106 H 0.59084 0.32389 0.68417 0.0
H1107 H 0.55547 0.35655 0.7008 0.0
H1108 H 0.82368 0.34103 0.15677 0.0
H1109 H 0.85469 0.31206 0.1804 0.0
H1110 H 0.78422 0.25439 0.15689 0.0
H1111 H 0.75274 0.2834 0.13379 0.0
H1112 H 0.79481 0.24979 0.19829 0.0
H1113 H 0.93253 0.2647 0.15857 0.0
H1114 H 0.91255 0.29158 0.16969 0.0
H1115 H 0.88863 0.27677 0.14873 0.0
C1116 C 0.81431 0.32227 0.15712 0.0
C1117 C 0.78583 0.3143 0.1437 0.0
C1118 C 0.83226 0.3057 0.1704 0.0
C1119 C 0.82236 0.28092 0.17009 0.0
C1120 C 0.79245 0.27335 0.15737 0.0
H1121 H 0.96003 0.15649 0.20143 0.0
H1122 H 0.92374 0.18894 0.18485 0.0
C1123 C 0.77441 0.28991 0.14423 0.0
C1124 C 0.84429 0.26252 0.18201 0.0
H1125 H 0.93238 0.2375 0.18685 0.0
C1126 C 0.82493 0.24717 0.19588 0.0
C1127 C 0.88348 0.2588 0.17855 0.0
C1128 C 0.90553 0.27365 0.16295 0.0
C1129 C 0.84359 0.22818 0.20632 0.0
C1130 C 0.88293 0.22478 0.20316 0.0
C1131 C 0.9023 0.24021 0.18937 0.0
C1132 C 0.90439 0.20486 0.21345 0.0
C1133 C 0.82069 0.21146 0.22007 0.0
C1134 C 0.90591 0.20307 0.23506 0.0
C1135 C 0.92639 0.18439 0.2446 0.0
C1136 C 0.94627 0.16728 0.23273 0.0
C1137 C 0.94506 0.16929 0.21108 0.0
C1138 C 0.92434 0.18788 0.20156 0.0
H1139 H 0.78998 0.2123 0.21639 0.0
H1140 H 0.83027 0.19235 0.21862 0.0
H1141 H 0.8243 0.21703 0.23638 0.0
H1142 H 0.89159 0.21629 0.24459 0.0
H1143 H 0.92701 0.1836 0.26131 0.0
H1144 H 0.76762 0.72849 0.61873 0.0
H1145 H 0.7976 0.75915 0.64063 0.0
H1146 H 0.84561 0.70224 0.67849 0.0
H1147 H 0.81619 0.6715 0.65616 0.0
H1148 H 0.79419 0.77017 0.68172 0.0
H1149 H 0.93906 0.73992 0.66059 0.0
H1150 H 0.89734 0.72925 0.64738 0.0
H1151 H 0.91015 0.7166 0.67207 0.0
C1152 C 0.78409 0.72261 0.63195 0.0
C1153 C 0.78965 0.69782 0.63592 0.0
C1154 C 0.80126 0.74009 0.64441 0.0
C1155 C 0.82447 0.73303 0.66098 0.0
C1156 C 0.82852 0.70812 0.66553 0.0
H1157 H 0.96325 0.81655 0.74591 0.0
H1158 H 0.92729 0.7848 0.72825 0.0
C1159 C 0.81143 0.6906 0.65296 0.0
C1160 C 0.84544 0.7518 0.67284 0.0
H1161 H 0.93456 0.77117 0.68532 0.0
C1162 C 0.82488 0.77037 0.68251 0.0
C1163 C 0.88554 0.75218 0.67375 0.0
C1164 C 0.9094 0.73358 0.66275 0.0
C1165 C 0.84329 0.78913 0.69322 0.0
C1166 C 0.88329 0.78944 0.69412 0.0
C1167 C 0.90387 0.77083 0.68461 0.0
C1168 C 0.90442 0.80892 0.70491 0.0
C1169 C 0.81987 0.80831 0.70374 0.0
C1170 C 0.90386 0.83296 0.69749 0.0
C1171 C 0.92432 0.85115 0.70761 0.0
C1172 C 0.94549 0.84557 0.72536 0.0
C1173 C 0.94649 0.82143 0.73253 0.0
C1174 C 0.92618 0.80327 0.72239 0.0
H1175 H 0.78969 0.8028 0.70526 0.0
H1176 H 0.83128 0.81219 0.71933 0.0
H1177 H 0.82113 0.82539 0.69456 0.0
H1178 H 0.88778 0.83761 0.68379 0.0
H1179 H 0.92328 0.8696 0.70171 0.0
H1180 H 0.77019 0.79391 0.14231 0.0
H1181 H 0.73579 0.76493 0.16449 0.0
H1182 H 0.63907 0.81269 0.16478 0.0
H1183 H 0.67338 0.84152 0.14239 0.0
H1184 H 0.69913 0.76793 0.20352 0.0
H1185 H 0.59739 0.74946 0.14008 0.0
H1186 H 0.6411 0.76585 0.13596 0.0
H1187 H 0.60113 0.78078 0.14743 0.0
C1188 C 0.74194 0.79842 0.14758 0.0
C1189 C 0.72437 0.81989 0.14089 0.0
C1190 C 0.72226 0.78185 0.16015 0.0
C1191 C 0.68462 0.78644 0.166 0.0
C1192 C 0.66785 0.80859 0.16018 0.0
H1193 H 0.51418 0.69361 0.22495 0.0
H1194 H 0.54842 0.72763 0.20892 0.0
C1195 C 0.68753 0.82514 0.1476 0.0
C1196 C 0.66236 0.76741 0.17705 0.0
H1197 H 0.58642 0.72932 0.17177 0.0
C1198 C 0.67444 0.75951 0.19662 0.0
C1199 C 0.63018 0.75639 0.16799 0.0
C1200 C 0.61675 0.76335 0.14664 0.0
C1201 C 0.65504 0.74103 0.20743 0.0
C1202 C 0.62313 0.72983 0.19826 0.0
C1203 C 0.61082 0.73793 0.1788 0.0
C1204 C 0.60258 0.70929 0.20831 0.0
C1205 C 0.66855 0.73392 0.22871 0.0
C1206 C 0.62144 0.68751 0.21299 0.0
C1207 C 0.60187 0.66799 0.22196 0.0
C1208 C 0.56298 0.66981 0.22637 0.0
C1209 C 0.54404 0.69155 0.22152 0.0
C1210 C 0.56362 0.71106 0.2125 0.0
H1211 H 0.68586 0.74851 0.23582 0.0
H1212 H 0.6443 0.72971 0.23906 0.0
H1213 H 0.68648 0.71744 0.22758 0.0
H1214 H 0.65125 0.68547 0.20946 0.0
H1215 H 0.61718 0.6514 0.22532 0.0
H1216 H 0.32993 0.83828 0.36543 0.0
H1217 H 0.36276 0.81158 0.34095 0.0
H1218 H 0.27976 0.75544 0.35264 0.0
H1219 H 0.24672 0.7823 0.37668 0.0
H1220 H 0.39559 0.76929 0.3513 0.0
H1221 H 0.28901 0.75171 0.29069 0.0
H1222 H 0.28429 0.77621 0.30891 0.0
H1223 H 0.27072 0.74573 0.31607 0.0
C1224 C 0.31817 0.82051 0.36218 0.0
C1225 C 0.28564 0.81234 0.37254 0.0
C1226 C 0.33699 0.80523 0.34834 0.0
C1227 C 0.3235 0.78157 0.34472 0.0
C1228 C 0.29021 0.77378 0.35471 0.0
H1229 H 0.45339 0.65433 0.31312 0.0
H1230 H 0.41793 0.6869 0.32982 0.0
C1231 C 0.27138 0.78908 0.36847 0.0
C1232 C 0.34619 0.76418 0.33231 0.0
H1233 H 0.34056 0.72333 0.29292 0.0
C1234 C 0.38367 0.75947 0.33838 0.0
C1235 C 0.33085 0.75148 0.31531 0.0
C1236 C 0.29164 0.75671 0.30722 0.0
C1237 C 0.40574 0.74189 0.32839 0.0
C1238 C 0.38968 0.72824 0.31215 0.0
C1239 C 0.35268 0.73354 0.30558 0.0
C1240 C 0.41073 0.70828 0.30193 0.0
C1241 C 0.44615 0.73819 0.33528 0.0
C1242 C 0.41761 0.7091 0.28058 0.0
C1243 C 0.43766 0.69041 0.27096 0.0
C1244 C 0.45098 0.67041 0.28248 0.0
C1245 C 0.44373 0.66953 0.30382 0.0
C1246 C 0.42361 0.6882 0.31342 0.0
H1247 H 0.45735 0.75443 0.34337 0.0
H1248 H 0.44733 0.7226 0.34622 0.0
H1249 H 0.46493 0.73416 0.32197 0.0
H1250 H 0.40787 0.72437 0.2714 0.0
H1251 H 0.44304 0.69176 0.25453 0.0
H1252 H 0.1914 0.67081 0.85799 0.0
H1253 H 0.15961 0.69785 0.83309 0.0
H1254 H 0.23319 0.75665 0.85127 0.0
H1255 H 0.26536 0.72951 0.87559 0.0
H1256 H 0.1198 0.73674 0.84302 0.0
H1257 H 0.23365 0.76631 0.78996 0.0
H1258 H 0.23895 0.7406 0.80715 0.0
H1259 H 0.24702 0.77101 0.81631 0.0
C1260 C 0.20145 0.6893 0.85606 0.0
C1261 C 0.23105 0.69813 0.86831 0.0
C1262 C 0.18321 0.70477 0.84197 0.0
C1263 C 0.19431 0.72926 0.84004 0.0
C1264 C 0.22476 0.73773 0.85197 0.0
H1265 H 0.05434 0.8529 0.81289 0.0
H1266 H 0.09061 0.81954 0.828 0.0
C1267 C 0.24306 0.72226 0.86592 0.0
C1268 C 0.17163 0.74663 0.82745 0.0
H1269 H 0.17922 0.79275 0.79208 0.0
C1270 C 0.13273 0.74873 0.83165 0.0
C1271 C 0.18825 0.76213 0.8124 0.0
C1272 C 0.22918 0.75972 0.80603 0.0
C1273 C 0.11042 0.76651 0.82192 0.0
C1274 C 0.12764 0.78312 0.80799 0.0
C1275 C 0.16613 0.78033 0.80305 0.0
C1276 C 0.10633 0.80374 0.7987 0.0
C1277 C 0.06857 0.76728 0.82668 0.0
C1278 C 0.10425 0.80656 0.77717 0.0
C1279 C 0.08388 0.82584 0.76845 0.0
C1280 C 0.06518 0.84274 0.7811 0.0
C1281 C 0.06799 0.84012 0.80266 0.0
C1282 C 0.08854 0.82093 0.81135 0.0
H1283 H 0.05799 0.74931 0.8321 0.0
H1284 H 0.06343 0.78056 0.83918 0.0
H1285 H 0.05191 0.77292 0.81293 0.0
H1286 H 0.11798 0.79364 0.7671 0.0
H1287 H 0.0824 0.82728 0.75179 0.0
loop_
_geom_bond_atom_site_label_1
_geom_bond_atom_site_label_2
_geom_bond_distance
_geom_bond_site_symmetry_2
_ccdc_geom_bond_type
H0 C3 0.929 . S
H1 C6 0.929 . S
H2 C8 0.930 . S
C3 H0 0.929 . S
C3 C4 1.398 . S
C3 C5 1.396 . S
C4 C3 1.398 . S
C4 C8 1.407 . S
C5 C3 1.396 . S
C5 C6 1.394 . S
C6 H1 0.929 . S
C6 C5 1.394 . S
C6 C7 1.382 . S
C7 C6 1.382 . S
C7 C8 1.392 . S
C7 N9 1.420 . S
C8 H2 0.930 . S
C8 C4 1.407 . S
C8 C7 1.392 . S
N9 C7 1.420 . S
N9 C10 1.244 . S
C10 N9 1.244 . S
H11 C14 0.929 . S
H12 C17 0.929 . S
H13 C19 0.930 . S
C14 H11 0.929 . S
C14 C15 1.398 . S
C14 C16 1.396 . S
C15 C14 1.398 . S
C15 C19 1.407 . S
C16 C14 1.396 . S
C16 C17 1.394 . S
C17 H12 0.929 . S
C17 C16 1.394 . S
C17 C18 1.382 . S
C18 C17 1.382 . S
C18 C19 1.392 . S
C18 N20 1.420 . S
C19 H13 0.930 . S
C19 C15 1.407 . S
C19 C18 1.392 . S
N20 C18 1.420 . S
N20 C21 1.244 . S
C21 N20 1.244 . S
H22 C25 0.929 . S
H23 C28 0.929 . S
H24 C30 0.930 . S
C25 H22 0.929 . S
C25 C26 1.398 . S
C25 C27 1.396 . S
C26 C25 1.398 . S
C26 C30 1.407 . S
C27 C25 1.396 . S
C27 C28 1.394 . S
C28 H23 0.929 . S
C28 C27 1.394 . S
C28 C29 1.382 . S
C29 C28 1.382 . S
C29 C30 1.392 . S
C29 N31 1.420 . S
C30 H24 0.930 . S
C30 C26 1.407 . S
C30 C29 1.392 . S
N31 C29 1.420 . S
N31 C32 1.244 . S
C32 N31 1.244 . S
H33 C36 0.929 . S
H34 C39 0.929 . S
H35 C41 0.930 . S
C36 H33 0.929 . S
C36 C37 1.398 . S
C36 C38 1.396 . S
C37 C36 1.398 . S
C37 C41 1.407 . S
C38 C36 1.396 . S
C38 C39 1.394 . S
C39 H34 0.929 . S
C39 C38 1.394 . S
C39 C40 1.382 . S
C40 C39 1.382 . S
C40 C41 1.392 . S
C40 N42 1.420 . S
C41 H35 0.930 . S
C41 C37 1.407 . S
C41 C40 1.392 . S
N42 C40 1.420 . S
N42 C43 1.244 . S
C43 N42 1.244 . S
H44 C47 0.929 . S
H45 C50 0.929 . S
H46 C52 0.930 . S
C47 H44 0.929 . S
C47 C48 1.398 . S
C47 C49 1.396 . S
C48 C47 1.398 . S
C48 C52 1.407 . S
C49 C47 1.396 . S
C49 C50 1.394 . S
C50 H45 0.929 . S
C50 C49 1.394 . S
C50 C51 1.382 . S
C51 C50 1.382 . S
C51 C52 1.392 . S
C51 N53 1.420 . S
C52 H46 0.930 . S
C52 C48 1.407 . S
C52 C51 1.392 . S
N53 C51 1.420 . S
N53 C54 1.244 . S
C54 N53 1.244 . S
H55 C58 0.929 . S
H56 C61 0.929 . S
H57 C63 0.930 . S
C58 H55 0.929 . S
C58 C59 1.398 . S
C58 C60 1.396 . S
C59 C58 1.398 . S
C59 C63 1.407 . S
C60 C58 1.396 . S
C60 C61 1.394 . S
C61 H56 0.929 . S
C61 C60 1.394 . S
C61 C62 1.382 . S
C62 C61 1.382 . S
C62 C63 1.392 . S
C62 N64 1.420 . S
C63 H57 0.930 . S
C63 C59 1.407 . S
C63 C62 1.392 . S
N64 C62 1.420 . S
N64 C65 1.244 . S
C65 N64 1.244 . S
H66 C69 0.929 . S
H67 C72 0.929 . S
H68 C74 0.930 . S
C69 H66 0.929 . S
C69 C70 1.398 . S
C69 C71 1.396 . S
C70 C69 1.398 . S
C70 C74 1.407 . S
C71 C69 1.396 . S
C71 C72 1.394 . S
C72 H67 0.929 . S
C72 C71 1.394 . S
C72 C73 1.382 . S
C73 C72 1.382 . S
C73 C74 1.392 . S
C73 N75 1.420 . S
C74 H68 0.930 . S
C74 C70 1.407 . S
C74 C73 1.392 . S
N75 C73 1.420 . S
N75 C76 1.244 . S
C76 N75 1.244 . S
H77 C80 0.929 . S
H78 C83 0.929 . S
H79 C85 0.930 . S
C80 H77 0.929 . S
C80 C81 1.398 . S
C80 C82 1.396 . S
C81 C80 1.398 . S
C81 C85 1.407 . S
C82 C80 1.396 . S
C82 C83 1.394 . S
C83 H78 0.929 . S
C83 C82 1.394 . S
C83 C84 1.382 . S
C84 C83 1.382 . S
C84 C85 1.392 . S
C84 N86 1.420 . S
C85 H79 0.930 . S
C85 C81 1.407 . S
C85 C84 1.392 . S
N86 C84 1.420 . S
N86 C87 1.244 . S
C87 N86 1.244 . S
Tb88 N117 2.617 . S
Tb88 N123 2.572 . S
Tb88 O132 2.465 . S
Tb88 O133 2.387 . S
Tb88 O135 2.428 . S
Tb88 O136 2.308 . S
Tb88 O140 2.349 . S
Tb88 O143 2.393 . S
Tb88 C152 2.802 . S
C89 N90 1.379 . S
C89 C92 1.416 . S
C89 C96 1.424 . S
N90 C89 1.379 . S
N90 C93 1.334 . S
N90 Tb99 2.617 . S
C91 C93 1.390 . S
C91 C94 1.339 . S
C91 H111 0.930 . S
C92 C89 1.416 . S
C92 C94 1.416 . S
C92 C98 1.448 . S
C93 N90 1.334 . S
C93 C91 1.390 . S
C93 H104 0.930 . S
C94 C91 1.339 . S
C94 C92 1.416 . S
C94 H115 0.930 . S
C95 C96 1.413 . S
C95 C97 1.427 . S
C95 C101 1.416 . S
C96 C89 1.424 . S
C96 C95 1.413 . S
C96 N100 1.361 . S
C97 C95 1.427 . S
C97 C98 1.328 . S
C97 H112 0.929 . S
C98 C92 1.448 . S
C98 C97 1.328 . S
C98 H113 0.930 . S
Tb99 N90 2.617 . S
Tb99 N100 2.572 . S
Tb99 O134 2.349 1_655 S
Tb99 O137 2.393 . S
Tb99 O138 2.465 . S
Tb99 O139 2.387 . S
Tb99 O141 2.428 . S
Tb99 O142 2.308 1_655 S
Tb99 C163 2.802 . S
N100 C96 1.361 . S
N100 Tb99 2.572 . S
N100 C102 1.340 . S
C101 C95 1.416 . S
C101 C103 1.332 . S
C101 H109 0.931 . S
C102 N100 1.340 . S
C102 C103 1.407 . S
C102 H108 0.930 . S
C103 C101 1.332 . S
C103 C102 1.407 . S
C103 H105 0.929 . S
H104 C93 0.930 . S
H105 C103 0.929 . S
H106 C121 0.930 . S
H107 C128 0.929 . S
H108 C102 0.930 . S
H109 C101 0.931 . S
H110 C124 0.930 . S
H111 C91 0.930 . S
H112 C97 0.929 . S
H113 C98 0.930 . S
H114 C119 0.930 . S
H115 C94 0.930 . S
H116 C127 0.931 . S
N117 Tb88 2.617 . S
N117 C118 1.379 . S
N117 C121 1.334 . S
C118 N117 1.379 . S
C118 C120 1.416 . S
C118 C126 1.424 . S
C119 H114 0.930 . S
C119 C121 1.390 . S
C119 C122 1.339 . S
C120 C118 1.416 . S
C120 C122 1.416 . S
C120 C153 1.448 . S
C121 H106 0.930 . S
C121 N117 1.334 . S
C121 C119 1.390 . S
C122 C119 1.339 . S
C122 C120 1.416 . S
C122 H129 0.930 . S
N123 Tb88 2.572 . S
N123 C124 1.340 . S
N123 C126 1.361 . S
C124 H110 0.930 . S
C124 N123 1.340 . S
C124 C128 1.407 . S
C125 C126 1.413 . S
C125 C127 1.416 . S
C125 C154 1.427 . S
C126 C118 1.424 . S
C126 N123 1.361 . S
C126 C125 1.413 . S
C127 H116 0.931 . S
C127 C125 1.416 . S
C127 C128 1.332 . S
C128 H107 0.929 . S
C128 C124 1.407 . S
C128 C127 1.332 . S
H129 C122 0.930 . S
H130 C153 0.930 . S
H131 C154 0.929 . S
O132 Tb88 2.465 . S
O132 C152 1.264 . S
O133 Tb88 2.387 . S
O133 C144 1.264 . S
O134 Tb99 2.349 1_455 S
O134 C144 1.243 . S
O135 Tb88 2.428 . S
O135 C152 1.256 . S
O136 Tb88 2.308 . S
O136 C151 1.266 1_455 S
O137 Tb99 2.393 . S
O137 C151 1.248 . S
O138 Tb99 2.465 . S
O138 C163 1.264 . S
O139 Tb99 2.387 . S
O139 C155 1.264 . S
O140 Tb88 2.349 . S
O140 C155 1.243 1_455 S
O141 Tb99 2.428 . S
O141 C163 1.256 . S
O142 Tb99 2.308 1_455 S
O142 C162 1.266 . S
O143 Tb88 2.393 . S
O143 C162 1.248 . S
C144 O133 1.264 . S
C144 O134 1.243 . S
C145 C148 1.399 . S
C145 C150 1.383 . S
C145 C152 1.496 . S
C146 C147 1.399 . S
C146 C150 1.389 . S
C147 C146 1.399 . S
C147 C149 1.380 . S
C147 H164 0.929 . S
C148 C145 1.399 . S
C148 C149 1.392 . S
C148 H165 0.929 . S
C149 C147 1.380 . S
C149 C148 1.392 . S
C149 H166 0.929 . S
C150 C145 1.383 . S
C150 C146 1.389 . S
C150 H167 0.931 . S
C151 O136 1.266 1_655 S
C151 O137 1.248 . S
C152 Tb88 2.802 . S
C152 O132 1.264 . S
C152 O135 1.256 . S
C152 C145 1.496 . S
C153 C120 1.448 . S
C153 H130 0.930 . S
C153 C154 1.328 . S
C154 C125 1.427 . S
C154 H131 0.929 . S
C154 C153 1.328 . S
C155 O139 1.264 . S
C155 O140 1.243 1_655 S
C156 C159 1.399 . S
C156 C160 1.383 . S
C156 C163 1.496 . S
C157 C158 1.399 . S
C157 C160 1.389 . S
C158 C157 1.399 . S
C158 C161 1.380 . S
C158 H168 0.929 . S
C159 C156 1.399 . S
C159 C161 1.392 . S
C159 H169 0.929 . S
C160 C156 1.383 . S
C160 C157 1.389 . S
C160 H170 0.931 . S
C161 C158 1.380 . S
C161 C159 1.392 . S
C161 H171 0.929 . S
C162 O142 1.266 . S
C162 O143 1.248 . S
C163 Tb99 2.802 . S
C163 O138 1.264 . S
C163 O141 1.256 . S
C163 C156 1.496 . S
H164 C147 0.929 . S
H165 C148 0.929 . S
H166 C149 0.929 . S
H167 C150 0.931 . S
H168 C158 0.929 . S
H169 C159 0.929 . S
H170 C160 0.931 . S
H171 C161 0.929 . S
Tb172 N201 2.617 . S
Tb172 N207 2.572 . S
Tb172 O216 2.465 . S
Tb172 O217 2.387 . S
Tb172 O219 2.428 . S
Tb172 O220 2.308 . S
Tb172 O224 2.349 . S
Tb172 O227 2.393 . S
Tb172 C236 2.802 . S
C173 N174 1.379 . S
C173 C176 1.416 . S
C173 C180 1.424 . S
N174 C173 1.379 . S
N174 C177 1.334 . S
N174 Tb183 2.617 . S
C175 C177 1.390 . S
C175 C178 1.339 . S
C175 H195 0.930 . S
C176 C173 1.416 . S
C176 C178 1.416 . S
C176 C182 1.448 . S
C177 N174 1.334 . S
C177 C175 1.390 . S
C177 H188 0.930 . S
C178 C175 1.339 . S
C178 C176 1.416 . S
C178 H199 0.930 . S
C179 C180 1.413 . S
C179 C181 1.427 . S
C179 C185 1.416 . S
C180 C173 1.424 . S
C180 C179 1.413 . S
C180 N184 1.361 . S
C181 C179 1.427 . S
C181 C182 1.328 . S
C181 H196 0.929 . S
C182 C176 1.448 . S
C182 C181 1.328 . S
C182 H197 0.930 . S
Tb183 N174 2.617 . S
Tb183 N184 2.572 . S
Tb183 O218 2.349 . S
Tb183 O221 2.393 . S
Tb183 O222 2.465 . S
Tb183 O223 2.387 . S
Tb183 O225 2.428 . S
Tb183 O226 2.308 . S
Tb183 C247 2.802 . S
N184 C180 1.361 . S
N184 Tb183 2.572 . S
N184 C186 1.340 . S
C185 C179 1.416 . S
C185 C187 1.332 . S
C185 H193 0.931 . S
C186 N184 1.340 . S
C186 C187 1.407 . S
C186 H192 0.930 . S
C187 C185 1.332 . S
C187 C186 1.407 . S
C187 H189 0.929 . S
H188 C177 0.930 . S
H189 C187 0.929 . S
H190 C205 0.930 . S
H191 C212 0.929 . S
H192 C186 0.930 . S
H193 C185 0.931 . S
H194 C208 0.930 . S
H195 C175 0.930 . S
H196 C181 0.929 . S
H197 C182 0.930 . S
H198 C203 0.930 . S
H199 C178 0.930 . S
H200 C211 0.931 . S
N201 Tb172 2.617 . S
N201 C202 1.379 . S
N201 C205 1.334 . S
C202 N201 1.379 . S
C202 C204 1.416 . S
C202 C210 1.424 . S
C203 H198 0.930 . S
C203 C205 1.390 . S
C203 C206 1.339 . S
C204 C202 1.416 . S
C204 C206 1.416 . S
C204 C237 1.448 . S
C205 H190 0.930 . S
C205 N201 1.334 . S
C205 C203 1.390 . S
C206 C203 1.339 . S
C206 C204 1.416 . S
C206 H213 0.930 . S
N207 Tb172 2.572 . S
N207 C208 1.340 . S
N207 C210 1.361 . S
C208 H194 0.930 . S
C208 N207 1.340 . S
C208 C212 1.407 . S
C209 C210 1.413 . S
C209 C211 1.416 . S
C209 C238 1.427 . S
C210 C202 1.424 . S
C210 N207 1.361 . S
C210 C209 1.413 . S
C211 H200 0.931 . S
C211 C209 1.416 . S
C211 C212 1.332 . S
C212 H191 0.929 . S
C212 C208 1.407 . S
C212 C211 1.332 . S
H213 C206 0.930 . S
H214 C237 0.930 . S
H215 C238 0.929 . S
O216 Tb172 2.465 . S
O216 C236 1.264 . S
O217 Tb172 2.387 . S
O217 C228 1.264 . S
O218 Tb183 2.349 . S
O218 C228 1.243 . S
O219 Tb172 2.428 . S
O219 C236 1.256 . S
O220 Tb172 2.308 . S
O220 C235 1.266 . S
O221 Tb183 2.393 . S
O221 C235 1.248 . S
O222 Tb183 2.465 . S
O222 C247 1.264 . S
O223 Tb183 2.387 . S
O223 C239 1.264 . S
O224 Tb172 2.349 . S
O224 C239 1.243 . S
O225 Tb183 2.428 . S
O225 C247 1.256 . S
O226 Tb183 2.308 . S
O226 C246 1.266 . S
O227 Tb172 2.393 . S
O227 C246 1.248 . S
C228 O217 1.264 . S
C228 O218 1.243 . S
C229 C232 1.399 . S
C229 C234 1.383 . S
C229 C236 1.496 . S
C230 C231 1.399 . S
C230 C234 1.389 . S
C231 C230 1.399 . S
C231 C233 1.380 . S
C231 H248 0.929 . S
C232 C229 1.399 . S
C232 C233 1.392 . S
C232 H249 0.929 . S
C233 C231 1.380 . S
C233 C232 1.392 . S
C233 H250 0.929 . S
C234 C229 1.383 . S
C234 C230 1.389 . S
C234 H251 0.931 . S
C235 O220 1.266 . S
C235 O221 1.248 . S
C236 Tb172 2.802 . S
C236 O216 1.264 . S
C236 O219 1.256 . S
C236 C229 1.496 . S
C237 C204 1.448 . S
C237 H214 0.930 . S
C237 C238 1.328 . S
C238 C209 1.427 . S
C238 H215 0.929 . S
C238 C237 1.328 . S
C239 O223 1.264 . S
C239 O224 1.243 . S
C240 C243 1.399 . S
C240 C244 1.383 . S
C240 C247 1.496 . S
C241 C242 1.399 . S
C241 C244 1.389 . S
C242 C241 1.399 . S
C242 C245 1.380 . S
C242 H252 0.929 . S
C243 C240 1.399 . S
C243 C245 1.392 . S
C243 H253 0.929 . S
C244 C240 1.383 . S
C244 C241 1.389 . S
C244 H254 0.931 . S
C245 C242 1.380 . S
C245 C243 1.392 . S
C245 H255 0.929 . S
C246 O226 1.266 . S
C246 O227 1.248 . S
C247 Tb183 2.802 . S
C247 O222 1.264 . S
C247 O225 1.256 . S
C247 C240 1.496 . S
H248 C231 0.929 . S
H249 C232 0.929 . S
H250 C233 0.929 . S
H251 C234 0.931 . S
H252 C242 0.929 . S
H253 C243 0.929 . S
H254 C244 0.931 . S
H255 C245 0.929 . S
Tb256 N285 2.617 . S
Tb256 N291 2.572 . S
Tb256 O300 2.465 . S
Tb256 O301 2.387 . S
Tb256 O303 2.428 . S
Tb256 O304 2.308 . S
Tb256 O308 2.349 . S
Tb256 O311 2.393 . S
Tb256 C320 2.802 . S
C257 N258 1.379 . S
C257 C260 1.416 . S
C257 C264 1.424 . S
N258 C257 1.379 . S
N258 C261 1.334 . S
N258 Tb267 2.617 . S
C259 C261 1.390 . S
C259 C262 1.339 . S
C259 H279 0.930 . S
C260 C257 1.416 . S
C260 C262 1.416 . S
C260 C266 1.448 . S
C261 N258 1.334 . S
C261 C259 1.390 . S
C261 H272 0.930 . S
C262 C259 1.339 . S
C262 C260 1.416 . S
C262 H283 0.930 . S
C263 C264 1.413 . S
C263 C265 1.427 . S
C263 C269 1.416 . S
C264 C257 1.424 . S
C264 C263 1.413 . S
C264 N268 1.361 . S
C265 C263 1.427 . S
C265 C266 1.328 . S
C265 H280 0.929 . S
C266 C260 1.448 . S
C266 C265 1.328 . S
C266 H281 0.930 . S
Tb267 N258 2.617 . S
Tb267 N268 2.572 . S
Tb267 O302 2.349 1_655 S
Tb267 O305 2.393 . S
Tb267 O306 2.465 . S
Tb267 O307 2.387 . S
Tb267 O309 2.428 . S
Tb267 O310 2.308 1_655 S
Tb267 C331 2.802 . S
N268 C264 1.361 . S
N268 Tb267 2.572 . S
N268 C270 1.340 . S
C269 C263 1.416 . S
C269 C271 1.332 . S
C269 H277 0.931 . S
C270 N268 1.340 . S
C270 C271 1.407 . S
C270 H276 0.930 . S
C271 C269 1.332 . S
C271 C270 1.407 . S
C271 H273 0.929 . S
H272 C261 0.930 . S
H273 C271 0.929 . S
H274 C289 0.930 . S
H275 C296 0.929 . S
H276 C270 0.930 . S
H277 C269 0.931 . S
H278 C292 0.930 . S
H279 C259 0.930 . S
H280 C265 0.929 . S
H281 C266 0.930 . S
H282 C287 0.930 . S
H283 C262 0.930 . S
H284 C295 0.931 . S
N285 Tb256 2.617 . S
N285 C286 1.379 . S
N285 C289 1.334 . S
C286 N285 1.379 . S
C286 C288 1.416 . S
C286 C294 1.424 . S
C287 H282 0.930 . S
C287 C289 1.390 . S
C287 C290 1.339 . S
C288 C286 1.416 . S
C288 C290 1.416 . S
C288 C321 1.448 . S
C289 H274 0.930 . S
C289 N285 1.334 . S
C289 C287 1.390 . S
C290 C287 1.339 . S
C290 C288 1.416 . S
C290 H297 0.930 . S
N291 Tb256 2.572 . S
N291 C292 1.340 . S
N291 C294 1.361 . S
C292 H278 0.930 . S
C292 N291 1.340 . S
C292 C296 1.407 . S
C293 C294 1.413 . S
C293 C295 1.416 . S
C293 C322 1.427 . S
C294 C286 1.424 . S
C294 N291 1.361 . S
C294 C293 1.413 . S
C295 H284 0.931 . S
C295 C293 1.416 . S
C295 C296 1.332 . S
C296 H275 0.929 . S
C296 C292 1.407 . S
C296 C295 1.332 . S
H297 C290 0.930 . S
H298 C321 0.930 . S
H299 C322 0.929 . S
O300 Tb256 2.465 . S
O300 C320 1.264 . S
O301 Tb256 2.387 . S
O301 C312 1.264 . S
O302 Tb267 2.349 1_455 S
O302 C312 1.243 . S
O303 Tb256 2.428 . S
O303 C320 1.256 . S
O304 Tb256 2.308 . S
O304 C319 1.266 1_455 S
O305 Tb267 2.393 . S
O305 C319 1.248 . S
O306 Tb267 2.465 . S
O306 C331 1.264 . S
O307 Tb267 2.387 . S
O307 C323 1.264 . S
O308 Tb256 2.349 . S
O308 C323 1.243 1_455 S
O309 Tb267 2.428 . S
O309 C331 1.256 . S
O310 Tb267 2.308 1_455 S
O310 C330 1.266 . S
O311 Tb256 2.393 . S
O311 C330 1.248 . S
C312 O301 1.264 . S
C312 O302 1.243 . S
C313 C316 1.399 . S
C313 C318 1.383 . S
C313 C320 1.496 . S
C314 C315 1.399 . S
C314 C318 1.389 . S
C315 C314 1.399 . S
C315 C317 1.380 . S
C315 H332 0.929 . S
C316 C313 1.399 . S
C316 C317 1.392 . S
C316 H333 0.929 . S
C317 C315 1.380 . S
C317 C316 1.392 . S
C317 H334 0.929 . S
C318 C313 1.383 . S
C318 C314 1.389 . S
C318 H335 0.931 . S
C319 O304 1.266 1_655 S
C319 O305 1.248 . S
C320 Tb256 2.802 . S
C320 O300 1.264 . S
C320 O303 1.256 . S
C320 C313 1.496 . S
C321 C288 1.448 . S
C321 H298 0.930 . S
C321 C322 1.328 . S
C322 C293 1.427 . S
C322 H299 0.929 . S
C322 C321 1.328 . S
C323 O307 1.264 . S
C323 O308 1.243 1_655 S
C324 C327 1.399 . S
C324 C328 1.383 . S
C324 C331 1.496 . S
C325 C326 1.399 . S
C325 C328 1.389 . S
C326 C325 1.399 . S
C326 C329 1.380 . S
C326 H336 0.929 . S
C327 C324 1.399 . S
C327 C329 1.392 . S
C327 H337 0.929 . S
C328 C324 1.383 . S
C328 C325 1.389 . S
C328 H338 0.931 . S
C329 C326 1.380 . S
C329 C327 1.392 . S
C329 H339 0.929 . S
C330 O310 1.266 . S
C330 O311 1.248 . S
C331 Tb267 2.802 . S
C331 O306 1.264 . S
C331 O309 1.256 . S
C331 C324 1.496 . S
H332 C315 0.929 . S
H333 C316 0.929 . S
H334 C317 0.929 . S
H335 C318 0.931 . S
H336 C326 0.929 . S
H337 C327 0.929 . S
H338 C328 0.931 . S
H339 C329 0.929 . S
Tb340 N369 2.617 . S
Tb340 N375 2.572 . S
Tb340 O384 2.465 . S
Tb340 O385 2.387 . S
Tb340 O387 2.428 . S
Tb340 O388 2.308 . S
Tb340 O392 2.349 . S
Tb340 O395 2.393 . S
Tb340 C404 2.802 . S
C341 N342 1.379 . S
C341 C344 1.416 . S
C341 C348 1.424 . S
N342 C341 1.379 . S
N342 C345 1.334 . S
N342 Tb351 2.617 . S
C343 C345 1.390 . S
C343 C346 1.339 . S
C343 H363 0.930 . S
C344 C341 1.416 . S
C344 C346 1.416 . S
C344 C350 1.448 . S
C345 N342 1.334 . S
C345 C343 1.390 . S
C345 H356 0.930 . S
C346 C343 1.339 . S
C346 C344 1.416 . S
C346 H367 0.930 . S
C347 C348 1.413 . S
C347 C349 1.427 . S
C347 C353 1.416 . S
C348 C341 1.424 . S
C348 C347 1.413 . S
C348 N352 1.361 . S
C349 C347 1.427 . S
C349 C350 1.328 . S
C349 H364 0.929 . S
C350 C344 1.448 . S
C350 C349 1.328 . S
C350 H365 0.930 . S
Tb351 N342 2.617 . S
Tb351 N352 2.572 . S
Tb351 O386 2.349 . S
Tb351 O389 2.393 . S
Tb351 O390 2.465 . S
Tb351 O391 2.387 . S
Tb351 O393 2.428 . S
Tb351 O394 2.308 . S
Tb351 C415 2.802 . S
N352 C348 1.361 . S
N352 Tb351 2.572 . S
N352 C354 1.340 . S
C353 C347 1.416 . S
C353 C355 1.332 . S
C353 H361 0.931 . S
C354 N352 1.340 . S
C354 C355 1.407 . S
C354 H360 0.930 . S
C355 C353 1.332 . S
C355 C354 1.407 . S
C355 H357 0.929 . S
H356 C345 0.930 . S
H357 C355 0.929 . S
H358 C373 0.930 . S
H359 C380 0.929 . S
H360 C354 0.930 . S
H361 C353 0.931 . S
H362 C376 0.930 . S
H363 C343 0.930 . S
H364 C349 0.929 . S
H365 C350 0.930 . S
H366 C371 0.930 . S
H367 C346 0.930 . S
H368 C379 0.931 . S
N369 Tb340 2.617 . S
N369 C370 1.379 . S
N369 C373 1.334 . S
C370 N369 1.379 . S
C370 C372 1.416 . S
C370 C378 1.424 . S
C371 H366 0.930 . S
C371 C373 1.390 . S
C371 C374 1.339 . S
C372 C370 1.416 . S
C372 C374 1.416 . S
C372 C405 1.448 . S
C373 H358 0.930 . S
C373 N369 1.334 . S
C373 C371 1.390 . S
C374 C371 1.339 . S
C374 C372 1.416 . S
C374 H381 0.930 . S
N375 Tb340 2.572 . S
N375 C376 1.340 . S
N375 C378 1.361 . S
C376 H362 0.930 . S
C376 N375 1.340 . S
C376 C380 1.407 . S
C377 C378 1.413 . S
C377 C379 1.416 . S
C377 C406 1.427 . S
C378 C370 1.424 . S
C378 N375 1.361 . S
C378 C377 1.413 . S
C379 H368 0.931 . S
C379 C377 1.416 . S
C379 C380 1.332 . S
C380 H359 0.929 . S
C380 C376 1.407 . S
C380 C379 1.332 . S
H381 C374 0.930 . S
H382 C405 0.930 . S
H383 C406 0.929 . S
O384 Tb340 2.465 . S
O384 C404 1.264 . S
O385 Tb340 2.387 . S
O385 C396 1.264 . S
O386 Tb351 2.349 . S
O386 C396 1.243 . S
O387 Tb340 2.428 . S
O387 C404 1.256 . S
O388 Tb340 2.308 . S
O388 C403 1.266 . S
O389 Tb351 2.393 . S
O389 C403 1.248 . S
O390 Tb351 2.465 . S
O390 C415 1.264 . S
O391 Tb351 2.387 . S
O391 C407 1.264 . S
O392 Tb340 2.349 . S
O392 C407 1.243 . S
O393 Tb351 2.428 . S
O393 C415 1.256 . S
O394 Tb351 2.308 . S
O394 C414 1.266 . S
O395 Tb340 2.393 . S
O395 C414 1.248 . S
C396 O385 1.264 . S
C396 O386 1.243 . S
C397 C400 1.399 . S
C397 C402 1.383 . S
C397 C404 1.496 . S
C398 C399 1.399 . S
C398 C402 1.389 . S
C399 C398 1.399 . S
C399 C401 1.380 . S
C399 H416 0.929 . S
C400 C397 1.399 . S
C400 C401 1.392 . S
C400 H417 0.929 . S
C401 C399 1.380 . S
C401 C400 1.392 . S
C401 H418 0.929 . S
C402 C397 1.383 . S
C402 C398 1.389 . S
C402 H419 0.931 . S
C403 O388 1.266 . S
C403 O389 1.248 . S
C404 Tb340 2.802 . S
C404 O384 1.264 . S
C404 O387 1.256 . S
C404 C397 1.496 . S
C405 C372 1.448 . S
C405 H382 0.930 . S
C405 C406 1.328 . S
C406 C377 1.427 . S
C406 H383 0.929 . S
C406 C405 1.328 . S
C407 O391 1.264 . S
C407 O392 1.243 . S
C408 C411 1.399 . S
C408 C412 1.383 . S
C408 C415 1.496 . S
C409 C410 1.399 . S
C409 C412 1.389 . S
C410 C409 1.399 . S
C410 C413 1.380 . S
C410 H420 0.929 . S
C411 C408 1.399 . S
C411 C413 1.392 . S
C411 H421 0.929 . S
C412 C408 1.383 . S
C412 C409 1.389 . S
C412 H422 0.931 . S
C413 C410 1.380 . S
C413 C411 1.392 . S
C413 H423 0.929 . S
C414 O394 1.266 . S
C414 O395 1.248 . S
C415 Tb351 2.802 . S
C415 O390 1.264 . S
C415 O393 1.256 . S
C415 C408 1.496 . S
H416 C399 0.929 . S
H417 C400 0.929 . S
H418 C401 0.929 . S
H419 C402 0.931 . S
H420 C410 0.929 . S
H421 C411 0.929 . S
H422 C412 0.931 . S
H423 C413 0.929 . S
H424 C432 0.929 . S
H425 C434 0.930 . S
H426 C436 0.930 . S
H427 C439 0.929 . S
H428 C442 0.930 . S
H429 C444 0.960 . S
H430 C444 0.960 . S
H431 C444 0.960 . S
C432 H424 0.929 . S
C432 C433 1.377 . S
C432 C434 1.384 . S
C433 C432 1.377 . S
C433 C439 1.390 . S
C434 H425 0.930 . S
C434 C432 1.384 . S
C434 C435 1.372 . S
C435 C434 1.372 . S
C435 C436 1.400 . S
C435 C440 1.490 . S
C436 H426 0.930 . S
C436 C435 1.400 . S
C436 C439 1.386 . S
H437 C453 0.930 . S
H438 C454 0.931 . S
C439 H427 0.929 . S
C439 C433 1.390 . S
C439 C436 1.386 . S
C440 C435 1.490 . S
C440 C442 1.395 . S
C440 C443 1.403 . S
H441 C447 0.930 . S
C442 H428 0.930 . S
C442 C440 1.395 . S
C442 C445 1.403 1_565 S
C443 C440 1.403 . S
C443 C444 1.524 . S
C443 C447 1.400 . S
C444 H429 0.960 . S
C444 H430 0.960 . S
C444 H431 0.960 . S
C444 C443 1.524 . S
C445 C442 1.403 1_545 S
C445 C446 1.392 1_545 S
C445 C449 1.495 . S
C446 C445 1.392 1_565 S
C446 C447 1.385 . S
C446 C448 1.478 1_565 S
C447 H441 0.930 . S
C447 C443 1.400 . S
C447 C446 1.385 . S
C448 C446 1.478 1_545 S
C448 C450 1.381 . S
C448 C454 1.383 . S
C449 C445 1.495 . S
C449 H455 0.959 . S
C449 H456 0.961 . S
C449 H457 0.960 . S
C450 C448 1.381 . S
C450 C451 1.394 . S
C450 H458 0.930 . S
C451 C450 1.394 . S
C451 C452 1.383 . S
C451 H459 0.929 . S
C452 C451 1.383 . S
C452 C453 1.377 . S
C453 H437 0.930 . S
C453 C452 1.377 . S
C453 C454 1.379 . S
C454 H438 0.931 . S
C454 C448 1.383 . S
C454 C453 1.379 . S
H455 C449 0.959 . S
H456 C449 0.961 . S
H457 C449 0.960 . S
H458 C450 0.930 . S
H459 C451 0.929 . S
H460 C468 0.929 . S
H461 C470 0.930 . S
H462 C472 0.930 . S
H463 C475 0.929 . S
H464 C478 0.930 . S
H465 C480 0.960 . S
H466 C480 0.960 . S
H467 C480 0.960 . S
C468 H460 0.929 . S
C468 C469 1.377 . S
C468 C470 1.384 . S
C469 C468 1.377 . S
C469 C475 1.390 . S
C470 H461 0.930 . S
C470 C468 1.384 . S
C470 C471 1.372 . S
C471 C470 1.372 . S
C471 C472 1.400 . S
C471 C476 1.490 . S
C472 H462 0.930 . S
C472 C471 1.400 . S
C472 C475 1.386 . S
H473 C489 0.930 . S
H474 C490 0.931 . S
C475 H463 0.929 . S
C475 C469 1.390 . S
C475 C472 1.386 . S
C476 C471 1.490 . S
C476 C478 1.395 . S
C476 C479 1.403 . S
H477 C483 0.930 . S
C478 H464 0.930 . S
C478 C476 1.395 . S
C478 C481 1.403 . S
C479 C476 1.403 . S
C479 C480 1.524 . S
C479 C483 1.400 . S
C480 H465 0.960 . S
C480 H466 0.960 . S
C480 H467 0.960 . S
C480 C479 1.524 . S
C481 C478 1.403 . S
C481 C482 1.392 . S
C481 C485 1.495 . S
C482 C481 1.392 . S
C482 C483 1.385 . S
C482 C484 1.478 . S
C483 H477 0.930 . S
C483 C479 1.400 . S
C483 C482 1.385 . S
C484 C482 1.478 . S
C484 C486 1.381 . S
C484 C490 1.383 . S
C485 C481 1.495 . S
C485 H491 0.959 . S
C485 H492 0.961 . S
C485 H493 0.960 . S
C486 C484 1.381 . S
C486 C487 1.394 . S
C486 H494 0.930 . S
C487 C486 1.394 . S
C487 C488 1.383 . S
C487 H495 0.929 . S
C488 C487 1.383 . S
C488 C489 1.377 . S
C489 H473 0.930 . S
C489 C488 1.377 . S
C489 C490 1.379 . S
C490 H474 0.931 . S
C490 C484 1.383 . S
C490 C489 1.379 . S
H491 C485 0.959 . S
H492 C485 0.961 . S
H493 C485 0.960 . S
H494 C486 0.930 . S
H495 C487 0.929 . S
H496 C504 0.929 . S
H497 C506 0.930 . S
H498 C508 0.930 . S
H499 C511 0.929 . S
H500 C514 0.930 . S
H501 C516 0.960 . S
H502 C516 0.960 . S
H503 C516 0.960 . S
C504 H496 0.929 . S
C504 C505 1.377 . S
C504 C506 1.384 . S
C505 C504 1.377 . S
C505 C511 1.390 . S
C506 H497 0.930 . S
C506 C504 1.384 . S
C506 C507 1.372 . S
C507 C506 1.372 . S
C507 C508 1.400 . S
C507 C512 1.490 . S
C508 H498 0.930 . S
C508 C507 1.400 . S
C508 C511 1.386 . S
H509 C525 0.930 . S
H510 C526 0.931 . S
C511 H499 0.929 . S
C511 C505 1.390 . S
C511 C508 1.386 . S
C512 C507 1.490 . S
C512 C514 1.395 . S
C512 C515 1.403 . S
H513 C519 0.930 . S
C514 H500 0.930 . S
C514 C512 1.395 . S
C514 C517 1.403 . S
C515 C512 1.403 . S
C515 C516 1.524 . S
C515 C519 1.400 . S
C516 H501 0.960 . S
C516 H502 0.960 . S
C516 H503 0.960 . S
C516 C515 1.524 . S
C517 C514 1.403 . S
C517 C518 1.392 . S
C517 C521 1.495 . S
C518 C517 1.392 . S
C518 C519 1.385 . S
C518 C520 1.478 . S
C519 H513 0.930 . S
C519 C515 1.400 . S
C519 C518 1.385 . S
C520 C518 1.478 . S
C520 C522 1.381 . S
C520 C526 1.383 . S
C521 C517 1.495 . S
C521 H527 0.959 . S
C521 H528 0.961 . S
C521 H529 0.960 . S
C522 C520 1.381 . S
C522 C523 1.394 . S
C522 H530 0.930 . S
C523 C522 1.394 . S
C523 C524 1.383 . S
C523 H531 0.929 . S
C524 C523 1.383 . S
C524 C525 1.377 . S
C525 H509 0.930 . S
C525 C524 1.377 . S
C525 C526 1.379 . S
C526 H510 0.931 . S
C526 C520 1.383 . S
C526 C525 1.379 . S
H527 C521 0.959 . S
H528 C521 0.961 . S
H529 C521 0.960 . S
H530 C522 0.930 . S
H531 C523 0.929 . S
H532 C540 0.929 . S
H533 C542 0.930 . S
H534 C544 0.930 . S
H535 C547 0.929 . S
H536 C550 0.930 . S
H537 C552 0.960 . S
H538 C552 0.960 . S
H539 C552 0.960 . S
C540 H532 0.929 . S
C540 C541 1.377 . S
C540 C542 1.384 . S
C541 C540 1.377 . S
C541 C547 1.390 . S
C542 H533 0.930 . S
C542 C540 1.384 . S
C542 C543 1.372 . S
C543 C542 1.372 . S
C543 C544 1.400 . S
C543 C548 1.490 . S
C544 H534 0.930 . S
C544 C543 1.400 . S
C544 C547 1.386 . S
H545 C561 0.930 . S
H546 C562 0.931 . S
C547 H535 0.929 . S
C547 C541 1.390 . S
C547 C544 1.386 . S
C548 C543 1.490 . S
C548 C550 1.395 . S
C548 C551 1.403 . S
H549 C555 0.930 . S
C550 H536 0.930 . S
C550 C548 1.395 . S
C550 C553 1.403 1_565 S
C551 C548 1.403 . S
C551 C552 1.524 . S
C551 C555 1.400 . S
C552 H537 0.960 . S
C552 H538 0.960 . S
C552 H539 0.960 . S
C552 C551 1.524 . S
C553 C550 1.403 1_545 S
C553 C554 1.392 . S
C553 C557 1.495 . S
C554 C553 1.392 . S
C554 C555 1.385 1_545 S
C554 C556 1.478 . S
C555 H549 0.930 . S
C555 C551 1.400 . S
C555 C554 1.385 1_565 S
C556 C554 1.478 . S
C556 C558 1.381 . S
C556 C562 1.383 . S
C557 C553 1.495 . S
C557 H563 0.959 . S
C557 H564 0.961 . S
C557 H565 0.960 . S
C558 C556 1.381 . S
C558 C559 1.394 . S
C558 H566 0.930 . S
C559 C558 1.394 . S
C559 C560 1.383 . S
C559 H567 0.929 1_655 S
C560 C559 1.383 . S
C560 C561 1.377 . S
C561 H545 0.930 . S
C561 C560 1.377 . S
C561 C562 1.379 . S
C562 H546 0.931 . S
C562 C556 1.383 . S
C562 C561 1.379 . S
H563 C557 0.959 . S
H564 C557 0.961 . S
H565 C557 0.960 . S
H566 C558 0.930 . S
H567 C559 0.929 1_455 S
H568 C576 0.929 . S
H569 C578 0.930 . S
H570 C580 0.930 . S
H571 C583 0.929 . S
H572 C586 0.930 . S
H573 C588 0.960 . S
H574 C588 0.960 . S
H575 C588 0.960 . S
C576 H568 0.929 . S
C576 C577 1.377 . S
C576 C578 1.384 . S
C577 C576 1.377 . S
C577 C583 1.390 . S
C578 H569 0.930 . S
C578 C576 1.384 . S
C578 C579 1.372 . S
C579 C578 1.372 . S
C579 C580 1.400 . S
C579 C584 1.490 . S
C580 H570 0.930 . S
C580 C579 1.400 . S
C580 C583 1.386 . S
H581 C597 0.930 . S
H582 C598 0.931 . S
C583 H571 0.929 . S
C583 C577 1.390 . S
C583 C580 1.386 . S
C584 C579 1.490 . S
C584 C586 1.395 . S
C584 C587 1.403 . S
H585 C591 0.930 . S
C586 H572 0.930 . S
C586 C584 1.395 . S
C586 C589 1.403 1_545 S
C587 C584 1.403 . S
C587 C588 1.524 . S
C587 C591 1.400 . S
C588 H573 0.960 . S
C588 H574 0.960 . S
C588 H575 0.960 . S
C588 C587 1.524 . S
C589 C586 1.403 1_565 S
C589 C590 1.392 1_565 S
C589 C593 1.495 . S
C590 C589 1.392 1_545 S
C590 C591 1.385 . S
C590 C592 1.478 1_545 S
C591 H585 0.930 . S
C591 C587 1.400 . S
C591 C590 1.385 . S
C592 C590 1.478 1_565 S
C592 C594 1.381 . S
C592 C598 1.383 . S
C593 C589 1.495 . S
C593 H599 0.959 . S
C593 H600 0.961 . S
C593 H601 0.960 . S
C594 C592 1.381 . S
C594 C595 1.394 . S
C594 H602 0.930 . S
C595 C594 1.394 . S
C595 C596 1.383 . S
C595 H603 0.929 . S
C596 C595 1.383 . S
C596 C597 1.377 . S
C597 H581 0.930 . S
C597 C596 1.377 . S
C597 C598 1.379 . S
C598 H582 0.931 . S
C598 C592 1.383 . S
C598 C597 1.379 . S
H599 C593 0.959 . S
H600 C593 0.961 . S
H601 C593 0.960 . S
H602 C594 0.930 . S
H603 C595 0.929 . S
H604 C612 0.929 . S
H605 C614 0.930 . S
H606 C616 0.930 . S
H607 C619 0.929 . S
H608 C622 0.930 . S
H609 C624 0.960 . S
H610 C624 0.960 . S
H611 C624 0.960 . S
C612 H604 0.929 . S
C612 C613 1.377 . S
C612 C614 1.384 . S
C613 C612 1.377 . S
C613 C619 1.390 . S
C614 H605 0.930 . S
C614 C612 1.384 . S
C614 C615 1.372 . S
C615 C614 1.372 . S
C615 C616 1.400 . S
C615 C620 1.490 . S
C616 H606 0.930 . S
C616 C615 1.400 . S
C616 C619 1.386 . S
H617 C633 0.930 . S
H618 C634 0.931 . S
C619 H607 0.929 . S
C619 C613 1.390 . S
C619 C616 1.386 . S
C620 C615 1.490 . S
C620 C622 1.395 . S
C620 C623 1.403 . S
H621 C627 0.930 . S
C622 H608 0.930 . S
C622 C620 1.395 . S
C622 C625 1.403 . S
C623 C620 1.403 . S
C623 C624 1.524 . S
C623 C627 1.400 . S
C624 H609 0.960 . S
C624 H610 0.960 . S
C624 H611 0.960 . S
C624 C623 1.524 . S
C625 C622 1.403 . S
C625 C626 1.392 . S
C625 C629 1.495 . S
C626 C625 1.392 . S
C626 C627 1.385 . S
C626 C628 1.478 . S
C627 H621 0.930 . S
C627 C623 1.400 . S
C627 C626 1.385 . S
C628 C626 1.478 . S
C628 C630 1.381 . S
C628 C634 1.383 . S
C629 C625 1.495 . S
C629 H635 0.959 . S
C629 H636 0.961 . S
C629 H637 0.960 . S
C630 C628 1.381 . S
C630 C631 1.394 . S
C630 H638 0.930 . S
C631 C630 1.394 . S
C631 C632 1.383 . S
C631 H639 0.929 . S
C632 C631 1.383 . S
C632 C633 1.377 . S
C633 H617 0.930 . S
C633 C632 1.377 . S
C633 C634 1.379 . S
C634 H618 0.931 . S
C634 C628 1.383 . S
C634 C633 1.379 . S
H635 C629 0.959 . S
H636 C629 0.961 . S
H637 C629 0.960 . S
H638 C630 0.930 . S
H639 C631 0.929 . S
H640 C648 0.929 . S
H641 C650 0.930 . S
H642 C652 0.930 . S
H643 C655 0.929 . S
H644 C658 0.930 . S
H645 C660 0.960 . S
H646 C660 0.960 . S
H647 C660 0.960 . S
C648 H640 0.929 . S
C648 C649 1.377 . S
C648 C650 1.384 . S
C649 C648 1.377 . S
C649 C655 1.390 . S
C650 H641 0.930 . S
C650 C648 1.384 . S
C650 C651 1.372 . S
C651 C650 1.372 . S
C651 C652 1.400 . S
C651 C656 1.490 . S
C652 H642 0.930 . S
C652 C651 1.400 . S
C652 C655 1.386 . S
H653 C669 0.930 . S
H654 C670 0.931 . S
C655 H643 0.929 . S
C655 C649 1.390 . S
C655 C652 1.386 . S
C656 C651 1.490 . S
C656 C658 1.395 . S
C656 C659 1.403 . S
H657 C663 0.930 . S
C658 H644 0.930 . S
C658 C656 1.395 . S
C658 C661 1.403 . S
C659 C656 1.403 . S
C659 C660 1.524 . S
C659 C663 1.400 . S
C660 H645 0.960 . S
C660 H646 0.960 . S
C660 H647 0.960 . S
C660 C659 1.524 . S
C661 C658 1.403 . S
C661 C662 1.392 . S
C661 C665 1.495 . S
C662 C661 1.392 . S
C662 C663 1.385 . S
C662 C664 1.478 . S
C663 H657 0.930 . S
C663 C659 1.400 . S
C663 C662 1.385 . S
C664 C662 1.478 . S
C664 C666 1.381 . S
C664 C670 1.383 . S
C665 C661 1.495 . S
C665 H671 0.959 . S
C665 H672 0.961 . S
C665 H673 0.960 . S
C666 C664 1.381 . S
C666 C667 1.394 . S
C666 H674 0.930 . S
C667 C666 1.394 . S
C667 C668 1.383 . S
C667 H675 0.929 . S
C668 C667 1.383 . S
C668 C669 1.377 . S
C669 H653 0.930 . S
C669 C668 1.377 . S
C669 C670 1.379 . S
C670 H654 0.931 . S
C670 C664 1.383 . S
C670 C669 1.379 . S
H671 C665 0.959 . S
H672 C665 0.961 . S
H673 C665 0.960 . S
H674 C666 0.930 . S
H675 C667 0.929 . S
H676 C684 0.929 . S
H677 C686 0.930 . S
H678 C688 0.930 . S
H679 C691 0.929 . S
H680 C694 0.930 . S
H681 C696 0.960 . S
H682 C696 0.960 . S
H683 C696 0.960 . S
C684 H676 0.929 . S
C684 C685 1.377 . S
C684 C686 1.384 . S
C685 C684 1.377 . S
C685 C691 1.390 . S
C686 H677 0.930 . S
C686 C684 1.384 . S
C686 C687 1.372 . S
C687 C686 1.372 . S
C687 C688 1.400 . S
C687 C692 1.490 . S
C688 H678 0.930 . S
C688 C687 1.400 . S
C688 C691 1.386 . S
H689 C705 0.930 . S
H690 C706 0.931 1_545 S
C691 H679 0.929 . S
C691 C685 1.390 . S
C691 C688 1.386 . S
C692 C687 1.490 . S
C692 C694 1.395 . S
C692 C695 1.403 . S
H693 C699 0.930 . S
C694 H680 0.930 . S
C694 C692 1.395 . S
C694 C697 1.383 1_545 S
C695 C692 1.403 . S
C695 C696 1.524 . S
C695 C699 1.400 . S
C696 H681 0.960 . S
C696 H682 0.960 . S
C696 H683 0.960 . S
C696 C695 1.524 . S
C697 C694 1.383 1_565 S
C697 C698 1.392 1_565 S
C697 C701 1.516 . S
C698 C697 1.392 1_545 S
C698 C699 1.391 . S
C698 C700 1.472 1_545 S
C699 H693 0.930 . S
C699 C695 1.400 . S
C699 C698 1.391 . S
C700 C698 1.472 1_565 S
C700 C702 1.381 . S
C700 C706 1.383 . S
C701 C697 1.516 . S
C701 H707 0.959 . S
C701 H708 0.961 . S
C701 H709 0.960 . S
C702 C700 1.381 . S
C702 C703 1.394 . S
C702 H710 0.930 . S
C703 C702 1.394 . S
C703 C704 1.383 . S
C703 H711 0.929 . S
C704 C703 1.383 . S
C704 C705 1.377 . S
C705 H689 0.930 . S
C705 C704 1.377 . S
C705 C706 1.379 . S
C706 H690 0.931 1_565 S
C706 C700 1.383 . S
C706 C705 1.379 . S
H707 C701 0.959 . S
H708 C701 0.961 . S
H709 C701 0.960 . S
H710 C702 0.930 . S
H711 C703 0.929 . S
H712 C720 0.929 . S
H713 C722 0.930 . S
H714 C724 0.930 . S
H715 C727 0.929 . S
H716 C730 0.930 . S
H717 C732 0.960 . S
H718 C732 0.960 . S
H719 C732 0.960 . S
C720 H712 0.929 . S
C720 C721 1.377 . S
C720 C722 1.384 . S
C721 C720 1.377 . S
C721 C727 1.390 . S
C722 H713 0.930 . S
C722 C720 1.384 . S
C722 C723 1.372 . S
C723 C722 1.372 . S
C723 C724 1.400 . S
C723 C728 1.490 1_556 S
C724 H714 0.930 . S
C724 C723 1.400 . S
C724 C727 1.386 . S
H725 C741 0.930 . S
H726 C742 0.931 . S
C727 H715 0.929 . S
C727 C721 1.390 . S
C727 C724 1.386 . S
C728 C723 1.490 1_554 S
C728 C730 1.395 . S
C728 C731 1.403 . S
H729 C735 0.930 . S
C730 H716 0.930 . S
C730 C728 1.395 . S
C730 C733 1.403 . S
C731 C728 1.403 . S
C731 C732 1.524 . S
C731 C735 1.400 . S
C732 H717 0.960 . S
C732 H718 0.960 . S
C732 H719 0.960 . S
C732 C731 1.524 . S
C733 C730 1.403 . S
C733 C734 1.392 . S
C733 C737 1.495 . S
C734 C733 1.392 . S
C734 C735 1.385 . S
C734 C736 1.478 . S
C735 H729 0.930 . S
C735 C731 1.400 . S
C735 C734 1.385 . S
C736 C734 1.478 . S
C736 C738 1.381 . S
C736 C742 1.383 . S
C737 C733 1.495 . S
C737 H743 0.959 . S
C737 H744 0.961 . S
C737 H745 0.960 . S
C738 C736 1.381 . S
C738 C739 1.394 . S
C738 H746 0.930 . S
C739 C738 1.394 . S
C739 C740 1.383 . S
C739 H747 0.929 . S
C740 C739 1.383 . S
C740 C741 1.377 . S
C741 H725 0.930 . S
C741 C740 1.377 . S
C741 C742 1.379 . S
C742 H726 0.931 . S
C742 C736 1.383 . S
C742 C741 1.379 . S
H743 C737 0.959 . S
H744 C737 0.961 . S
H745 C737 0.960 . S
H746 C738 0.930 . S
H747 C739 0.929 . S
H748 C756 0.929 . S
H749 C758 0.930 . S
H750 C760 0.930 . S
H751 C763 0.929 . S
H752 C766 0.930 . S
H753 C768 0.960 . S
H754 C768 0.960 . S
H755 C768 0.960 . S
C756 H748 0.929 . S
C756 C757 1.377 . S
C756 C758 1.384 . S
C757 C756 1.377 . S
C757 C763 1.390 . S
C758 H749 0.930 . S
C758 C756 1.384 . S
C758 C759 1.372 . S
C759 C758 1.372 . S
C759 C760 1.400 . S
C759 C764 1.490 . S
C760 H750 0.930 . S
C760 C759 1.400 . S
C760 C763 1.386 . S
H761 C777 0.930 . S
H762 C778 0.931 . S
C763 H751 0.929 . S
C763 C757 1.390 . S
C763 C760 1.386 . S
C764 C759 1.490 . S
C764 C766 1.395 . S
C764 C767 1.403 . S
H765 C771 0.930 . S
C766 H752 0.930 . S
C766 C764 1.395 . S
C766 C769 1.403 . S
C767 C764 1.403 . S
C767 C768 1.524 . S
C767 C771 1.400 . S
C768 H753 0.960 . S
C768 H754 0.960 . S
C768 H755 0.960 . S
C768 C767 1.524 . S
C769 C766 1.403 . S
C769 C770 1.392 . S
C769 C773 1.495 . S
C770 C769 1.392 . S
C770 C771 1.385 . S
C770 C772 1.478 . S
C771 H765 0.930 . S
C771 C767 1.400 . S
C771 C770 1.385 . S
C772 C770 1.478 . S
C772 C774 1.381 . S
C772 C778 1.383 . S
C773 C769 1.495 . S
C773 H779 0.959 . S
C773 H780 0.961 . S
C773 H781 0.960 . S
C774 C772 1.381 . S
C774 C775 1.394 . S
C774 H782 0.930 . S
C775 C774 1.394 . S
C775 C776 1.383 . S
C775 H783 0.929 . S
C776 C775 1.383 . S
C776 C777 1.377 . S
C777 H761 0.930 . S
C777 C776 1.377 . S
C777 C778 1.379 . S
C778 H762 0.931 . S
C778 C772 1.383 . S
C778 C777 1.379 . S
H779 C773 0.959 . S
H780 C773 0.961 . S
H781 C773 0.960 . S
H782 C774 0.930 . S
H783 C775 0.929 . S
H784 C792 0.929 . S
H785 C794 0.930 . S
H786 C796 0.930 . S
H787 C799 0.929 . S
H788 C802 0.930 . S
H789 C804 0.960 . S
H790 C804 0.960 . S
H791 C804 0.960 . S
C792 H784 0.929 . S
C792 C793 1.377 . S
C792 C794 1.384 . S
C793 C792 1.377 . S
C793 C799 1.390 . S
C794 H785 0.930 . S
C794 C792 1.384 . S
C794 C795 1.372 . S
C795 C794 1.372 . S
C795 C796 1.400 . S
C795 C800 1.490 1_554 S
C796 H786 0.930 . S
C796 C795 1.400 . S
C796 C799 1.386 . S
H797 C813 0.930 . S
H798 C814 0.931 . S
C799 H787 0.929 . S
C799 C793 1.390 . S
C799 C796 1.386 . S
C800 C795 1.490 1_556 S
C800 C802 1.395 . S
C800 C803 1.403 . S
H801 C807 0.930 . S
C802 H788 0.930 . S
C802 C800 1.395 . S
C802 C805 1.403 . S
C803 C800 1.403 . S
C803 C804 1.524 . S
C803 C807 1.400 . S
C804 H789 0.960 . S
C804 H790 0.960 . S
C804 H791 0.960 . S
C804 C803 1.524 . S
C805 C802 1.403 . S
C805 C806 1.392 . S
C805 C809 1.495 . S
C806 C805 1.392 . S
C806 C807 1.385 . S
C806 C808 1.478 . S
C807 H801 0.930 . S
C807 C803 1.400 . S
C807 C806 1.385 . S
C808 C806 1.478 . S
C808 C810 1.381 . S
C808 C814 1.383 . S
C809 C805 1.495 . S
C809 H815 0.959 . S
C809 H816 0.961 . S
C809 H817 0.960 . S
C810 C808 1.381 . S
C810 C811 1.394 . S
C810 H818 0.930 . S
C811 C810 1.394 . S
C811 C812 1.383 . S
C811 H819 0.929 . S
C812 C811 1.383 . S
C812 C813 1.377 . S
C813 H797 0.930 . S
C813 C812 1.377 . S
C813 C814 1.379 . S
C814 H798 0.931 . S
C814 C808 1.383 . S
C814 C813 1.379 . S
H815 C809 0.959 . S
H816 C809 0.961 . S
H817 C809 0.960 . S
H818 C810 0.930 . S
H819 C811 0.929 . S
H820 C828 0.929 . S
H821 C830 0.930 . S
H822 C832 0.930 . S
H823 C835 0.929 . S
H824 C838 0.930 . S
H825 C840 0.960 . S
H826 C840 0.960 . S
H827 C840 0.960 . S
C828 H820 0.929 . S
C828 C829 1.377 . S
C828 C830 1.384 . S
C829 C828 1.377 . S
C829 C835 1.390 . S
C830 H821 0.930 . S
C830 C828 1.384 . S
C830 C831 1.372 . S
C831 C830 1.372 . S
C831 C832 1.400 . S
C831 C836 1.490 . S
C832 H822 0.930 . S
C832 C831 1.400 . S
C832 C835 1.386 . S
H833 C849 0.930 . S
H834 C850 0.931 . S
C835 H823 0.929 . S
C835 C829 1.390 . S
C835 C832 1.386 . S
C836 C831 1.490 . S
C836 C838 1.395 . S
C836 C839 1.403 . S
H837 C843 0.930 . S
C838 H824 0.930 . S
C838 C836 1.395 . S
C838 C841 1.403 . S
C839 C836 1.403 . S
C839 C840 1.524 . S
C839 C843 1.400 . S
C840 H825 0.960 . S
C840 H826 0.960 . S
C840 H827 0.960 . S
C840 C839 1.524 . S
C841 C838 1.403 . S
C841 C842 1.392 . S
C841 C845 1.495 . S
C842 C841 1.392 . S
C842 C843 1.385 . S
C842 C844 1.478 . S
C843 H837 0.930 . S
C843 C839 1.400 . S
C843 C842 1.385 . S
C844 C842 1.478 . S
C844 C846 1.381 . S
C844 C850 1.383 . S
C845 C841 1.495 . S
C845 H851 0.959 . S
C845 H852 0.961 . S
C845 H853 0.960 . S
C846 C844 1.381 . S
C846 C847 1.394 . S
C846 H854 0.930 . S
C847 C846 1.394 . S
C847 C848 1.383 . S
C847 H855 0.929 . S
C848 C847 1.383 . S
C848 C849 1.377 . S
C849 H833 0.930 . S
C849 C848 1.377 . S
C849 C850 1.379 . S
C850 H834 0.931 . S
C850 C844 1.383 . S
C850 C849 1.379 . S
H851 C845 0.959 . S
H852 C845 0.961 . S
H853 C845 0.960 . S
H854 C846 0.930 . S
H855 C847 0.929 . S
H856 C864 0.929 . S
H857 C866 0.930 . S
H858 C868 0.930 . S
H859 C871 0.929 . S
H860 C874 0.930 . S
H861 C876 0.960 1_556 S
H862 C876 0.960 . S
H863 C876 0.960 . S
C864 H856 0.929 . S
C864 C865 1.377 . S
C864 C866 1.384 . S
C865 C864 1.377 . S
C865 C871 1.390 . S
C866 H857 0.930 . S
C866 C864 1.384 . S
C866 C867 1.372 . S
C867 C866 1.372 . S
C867 C868 1.400 . S
C867 C872 1.490 1_554 S
C868 H858 0.930 . S
C868 C867 1.400 . S
C868 C871 1.386 . S
H869 C885 0.930 . S
H870 C886 0.931 . S
C871 H859 0.929 . S
C871 C865 1.390 . S
C871 C868 1.386 . S
C872 C867 1.490 1_556 S
C872 C874 1.395 . S
C872 C875 1.403 . S
H873 C879 0.930 . S
C874 H860 0.930 . S
C874 C872 1.395 . S
C874 C877 1.403 . S
C875 C872 1.403 . S
C875 C876 1.524 1_556 S
C875 C879 1.400 . S
C876 H861 0.960 1_554 S
C876 H862 0.960 . S
C876 H863 0.960 . S
C876 C875 1.524 1_554 S
C877 C874 1.403 . S
C877 C878 1.392 . S
C877 C881 1.495 . S
C878 C877 1.392 . S
C878 C879 1.385 . S
C878 C880 1.478 . S
C879 H873 0.930 . S
C879 C875 1.400 . S
C879 C878 1.385 . S
C880 C878 1.478 . S
C880 C882 1.381 . S
C880 C886 1.383 . S
C881 C877 1.495 . S
C881 H887 0.959 . S
C881 H888 0.961 . S
C881 H889 0.960 . S
C882 C880 1.381 . S
C882 C883 1.394 . S
C882 H890 0.930 . S
C883 C882 1.394 . S
C883 C884 1.383 . S
C883 H891 0.929 . S
C884 C883 1.383 . S
C884 C885 1.377 . S
C885 H869 0.930 . S
C885 C884 1.377 . S
C885 C886 1.379 . S
C886 H870 0.931 . S
C886 C880 1.383 . S
C886 C885 1.379 . S
H887 C881 0.959 . S
H888 C881 0.961 . S
H889 C881 0.960 . S
H890 C882 0.930 . S
H891 C883 0.929 . S
H892 C900 0.929 . S
H893 C902 0.930 . S
H894 C904 0.930 . S
H895 C907 0.929 . S
H896 C910 0.930 . S
H897 C912 0.960 . S
H898 C912 0.960 . S
H899 C912 0.960 . S
C900 H892 0.929 . S
C900 C901 1.377 . S
C900 C902 1.384 . S
C901 C900 1.377 . S
C901 C907 1.390 . S
C902 H893 0.930 . S
C902 C900 1.384 . S
C902 C903 1.372 . S
C903 C902 1.372 . S
C903 C904 1.400 . S
C903 C908 1.490 . S
C904 H894 0.930 . S
C904 C903 1.400 . S
C904 C907 1.386 . S
H905 C921 0.930 . S
H906 C922 0.931 . S
C907 H895 0.929 . S
C907 C901 1.390 . S
C907 C904 1.386 . S
C908 C903 1.490 . S
C908 C910 1.395 . S
C908 C911 1.403 . S
H909 C915 0.930 . S
C910 H896 0.930 . S
C910 C908 1.395 . S
C910 C913 1.403 . S
C911 C908 1.403 . S
C911 C912 1.524 . S
C911 C915 1.400 . S
C912 H897 0.960 . S
C912 H898 0.960 . S
C912 H899 0.960 . S
C912 C911 1.524 . S
C913 C910 1.403 . S
C913 C914 1.392 . S
C913 C917 1.495 . S
C914 C913 1.392 . S
C914 C915 1.385 . S
C914 C916 1.478 . S
C915 H909 0.930 . S
C915 C911 1.400 . S
C915 C914 1.385 . S
C916 C914 1.478 . S
C916 C918 1.381 . S
C916 C922 1.383 . S
C917 C913 1.495 . S
C917 H923 0.959 . S
C917 H924 0.961 . S
C917 H925 0.960 . S
C918 C916 1.381 . S
C918 C919 1.394 . S
C918 H926 0.930 . S
C919 C918 1.394 . S
C919 C920 1.383 . S
C919 H927 0.929 . S
C920 C919 1.383 . S
C920 C921 1.377 . S
C921 H905 0.930 . S
C921 C920 1.377 . S
C921 C922 1.379 . S
C922 H906 0.931 . S
C922 C916 1.383 . S
C922 C921 1.379 . S
H923 C917 0.959 . S
H924 C917 0.961 . S
H925 C917 0.960 . S
H926 C918 0.930 . S
H927 C919 0.929 . S
H928 C936 0.929 . S
H929 C938 0.930 . S
H930 C940 0.930 . S
H931 C943 0.929 . S
H932 C946 0.930 . S
H933 C948 0.960 . S
H934 C948 0.960 . S
H935 C948 0.960 . S
C936 H928 0.929 . S
C936 C937 1.377 . S
C936 C938 1.384 . S
C937 C936 1.377 . S
C937 C943 1.390 . S
C938 H929 0.930 . S
C938 C936 1.384 . S
C938 C939 1.372 . S
C939 C938 1.372 . S
C939 C940 1.400 . S
C939 C944 1.490 1_556 S
C940 H930 0.930 . S
C940 C939 1.400 . S
C940 C943 1.386 . S
H941 C957 0.930 . S
H942 C958 0.931 . S
C943 H931 0.929 . S
C943 C937 1.390 . S
C943 C940 1.386 . S
C944 C939 1.490 1_554 S
C944 C946 1.395 . S
C944 C947 1.403 . S
H945 C951 0.930 . S
C946 H932 0.930 . S
C946 C944 1.395 . S
C946 C949 1.403 . S
C947 C944 1.403 . S
C947 C948 1.524 . S
C947 C951 1.400 . S
C948 H933 0.960 . S
C948 H934 0.960 . S
C948 H935 0.960 . S
C948 C947 1.524 . S
C949 C946 1.403 . S
C949 C950 1.392 . S
C949 C953 1.495 . S
C950 C949 1.392 . S
C950 C951 1.385 . S
C950 C952 1.478 . S
C951 H945 0.930 . S
C951 C947 1.400 . S
C951 C950 1.385 . S
C952 C950 1.478 . S
C952 C954 1.381 . S
C952 C958 1.383 . S
C953 C949 1.495 . S
C953 H959 0.959 . S
C953 H960 0.961 . S
C953 H961 0.960 . S
C954 C952 1.381 . S
C954 C955 1.394 . S
C954 H962 0.930 . S
C955 C954 1.394 . S
C955 C956 1.383 . S
C955 H963 0.929 . S
C956 C955 1.383 . S
C956 C957 1.377 . S
C957 H941 0.930 . S
C957 C956 1.377 . S
C957 C958 1.379 . S
C958 H942 0.931 . S
C958 C952 1.383 . S
C958 C957 1.379 . S
H959 C953 0.959 . S
H960 C953 0.961 . S
H961 C953 0.960 . S
H962 C954 0.930 . S
H963 C955 0.929 . S
H964 C972 0.929 . S
H965 C974 0.930 . S
H966 C976 0.930 . S
H967 C979 0.929 . S
H968 C982 0.930 . S
H969 C984 0.960 . S
H970 C984 0.960 . S
H971 C984 0.960 . S
C972 H964 0.929 . S
C972 C973 1.377 . S
C972 C974 1.384 . S
C973 C972 1.377 . S
C973 C979 1.390 . S
C974 H965 0.930 . S
C974 C972 1.384 . S
C974 C975 1.372 . S
C975 C974 1.372 . S
C975 C976 1.400 . S
C975 C980 1.490 . S
C976 H966 0.930 . S
C976 C975 1.400 . S
C976 C979 1.386 . S
H977 C993 0.930 . S
H978 C994 0.931 . S
C979 H967 0.929 . S
C979 C973 1.390 . S
C979 C976 1.386 . S
C980 C975 1.490 . S
C980 C982 1.395 . S
C980 C983 1.403 . S
H981 C987 0.930 . S
C982 H968 0.930 . S
C982 C980 1.395 . S
C982 C985 1.403 . S
C983 C980 1.403 . S
C983 C984 1.524 . S
C983 C987 1.400 . S
C984 H969 0.960 . S
C984 H970 0.960 . S
C984 H971 0.960 . S
C984 C983 1.524 . S
C985 C982 1.403 . S
C985 C986 1.392 . S
C985 C989 1.495 . S
C986 C985 1.392 . S
C986 C987 1.385 . S
C986 C988 1.478 . S
C987 H981 0.930 . S
C987 C983 1.400 . S
C987 C986 1.385 . S
C988 C986 1.478 . S
C988 C990 1.381 . S
C988 C994 1.383 . S
C989 C985 1.495 . S
C989 H995 0.959 . S
C989 H996 0.961 . S
C989 H997 0.960 . S
C990 C988 1.381 . S
C990 C991 1.394 . S
C990 H998 0.930 . S
C991 C990 1.394 . S
C991 C992 1.383 . S
C991 H999 0.929 . S
C992 C991 1.383 . S
C992 C993 1.377 . S
C993 H977 0.930 . S
C993 C992 1.377 . S
C993 C994 1.379 . S
C994 H978 0.931 . S
C994 C988 1.383 . S
C994 C993 1.379 . S
H995 C989 0.959 . S
H996 C989 0.961 . S
H997 C989 0.960 . S
H998 C990 0.930 . S
H999 C991 0.929 . S
H1000 C1008 0.929 . S
H1001 C1010 0.930 . S
H1002 C1012 0.930 . S
H1003 C1015 0.929 . S
H1004 C1018 0.930 . S
H1005 C1020 0.960 . S
H1006 C1020 0.960 . S
H1007 C1020 0.960 . S
C1008 H1000 0.929 . S
C1008 C1009 1.377 . S
C1008 C1010 1.384 . S
C1009 C1008 1.377 . S
C1009 C1015 1.390 . S
C1010 H1001 0.930 . S
C1010 C1008 1.384 . S
C1010 C1011 1.372 . S
C1011 C1010 1.372 . S
C1011 C1012 1.400 . S
C1011 C1016 1.490 . S
C1012 H1002 0.930 . S
C1012 C1011 1.400 . S
C1012 C1015 1.386 . S
H1013 C1029 0.930 . S
H1014 C1030 0.931 . S
C1015 H1003 0.929 . S
C1015 C1009 1.390 . S
C1015 C1012 1.386 . S
C1016 C1011 1.490 . S
C1016 C1018 1.395 . S
C1016 C1019 1.403 . S
H1017 C1023 0.930 . S
C1018 H1004 0.930 . S
C1018 C1016 1.395 . S
C1018 C1021 1.403 . S
C1019 C1016 1.403 . S
C1019 C1020 1.524 . S
C1019 C1023 1.400 . S
C1020 H1005 0.960 . S
C1020 H1006 0.960 . S
C1020 H1007 0.960 . S
C1020 C1019 1.524 . S
C1021 C1018 1.403 . S
C1021 C1022 1.392 . S
C1021 C1025 1.495 . S
C1022 C1021 1.392 . S
C1022 C1023 1.385 . S
C1022 C1024 1.478 . S
C1023 H1017 0.930 . S
C1023 C1019 1.400 . S
C1023 C1022 1.385 . S
C1024 C1022 1.478 . S
C1024 C1026 1.381 . S
C1024 C1030 1.383 . S
C1025 C1021 1.495 . S
C1025 H1031 0.959 . S
C1025 H1032 0.961 . S
C1025 H1033 0.960 . S
C1026 C1024 1.381 . S
C1026 C1027 1.394 . S
C1026 H1034 0.930 . S
C1027 C1026 1.394 . S
C1027 C1028 1.383 . S
C1027 H1035 0.929 . S
C1028 C1027 1.383 . S
C1028 C1029 1.377 . S
C1029 H1013 0.930 . S
C1029 C1028 1.377 . S
C1029 C1030 1.379 . S
C1030 H1014 0.931 . S
C1030 C1024 1.383 . S
C1030 C1029 1.379 . S
H1031 C1025 0.959 . S
H1032 C1025 0.961 . S
H1033 C1025 0.960 . S
H1034 C1026 0.930 . S
H1035 C1027 0.929 . S
H1036 C1044 0.929 . S
H1037 C1046 0.930 . S
H1038 C1048 0.930 . S
H1039 C1051 0.929 . S
H1040 C1054 0.930 . S
H1041 C1056 0.960 . S
H1042 C1056 0.960 . S
H1043 C1056 0.960 . S
C1044 H1036 0.929 . S
C1044 C1045 1.377 . S
C1044 C1046 1.384 . S
C1045 C1044 1.377 . S
C1045 C1051 1.390 . S
C1046 H1037 0.930 . S
C1046 C1044 1.384 . S
C1046 C1047 1.372 . S
C1047 C1046 1.372 . S
C1047 C1048 1.400 . S
C1047 C1052 1.490 . S
C1048 H1038 0.930 . S
C1048 C1047 1.400 . S
C1048 C1051 1.386 . S
H1049 C1065 0.930 . S
H1050 C1066 0.931 . S
C1051 H1039 0.929 . S
C1051 C1045 1.390 . S
C1051 C1048 1.386 . S
C1052 C1047 1.490 . S
C1052 C1054 1.395 . S
C1052 C1055 1.403 . S
H1053 C1059 0.930 . S
C1054 H1040 0.930 . S
C1054 C1052 1.395 . S
C1054 C1057 1.403 . S
C1055 C1052 1.403 . S
C1055 C1056 1.524 . S
C1055 C1059 1.400 . S
C1056 H1041 0.960 . S
C1056 H1042 0.960 . S
C1056 H1043 0.960 . S
C1056 C1055 1.524 . S
C1057 C1054 1.403 . S
C1057 C1058 1.392 . S
C1057 C1061 1.495 . S
C1058 C1057 1.392 . S
C1058 C1059 1.385 . S
C1058 C1060 1.478 . S
C1059 H1053 0.930 . S
C1059 C1055 1.400 . S
C1059 C1058 1.385 . S
C1060 C1058 1.478 . S
C1060 C1062 1.381 . S
C1060 C1066 1.383 . S
C1061 C1057 1.495 . S
C1061 H1067 0.959 . S
C1061 H1068 0.961 . S
C1061 H1069 0.960 . S
C1062 C1060 1.381 . S
C1062 C1063 1.394 . S
C1062 H1070 0.930 . S
C1063 C1062 1.394 . S
C1063 C1064 1.383 . S
C1063 H1071 0.929 . S
C1064 C1063 1.383 . S
C1064 C1065 1.377 . S
C1065 H1049 0.930 . S
C1065 C1064 1.377 . S
C1065 C1066 1.379 . S
C1066 H1050 0.931 . S
C1066 C1060 1.383 . S
C1066 C1065 1.379 . S
H1067 C1061 0.959 . S
H1068 C1061 0.961 . S
H1069 C1061 0.960 . S
H1070 C1062 0.930 . S
H1071 C1063 0.929 . S
H1072 C1080 0.929 . S
H1073 C1082 0.930 . S
H1074 C1084 0.930 . S
H1075 C1087 0.929 . S
H1076 C1090 0.930 . S
H1077 C1092 0.960 . S
H1078 C1092 0.960 . S
H1079 C1092 0.960 . S
C1080 H1072 0.929 . S
C1080 C1081 1.377 . S
C1080 C1082 1.384 . S
C1081 C1080 1.377 . S
C1081 C1087 1.390 . S
C1082 H1073 0.930 . S
C1082 C1080 1.384 . S
C1082 C1083 1.372 . S
C1083 C1082 1.372 . S
C1083 C1084 1.400 . S
C1083 C1088 1.490 . S
C1084 H1074 0.930 . S
C1084 C1083 1.400 . S
C1084 C1087 1.386 . S
H1085 C1101 0.930 . S
H1086 C1102 0.931 . S
C1087 H1075 0.929 . S
C1087 C1081 1.390 . S
C1087 C1084 1.386 . S
C1088 C1083 1.490 . S
C1088 C1090 1.395 . S
C1088 C1091 1.403 . S
H1089 C1095 0.930 . S
C1090 H1076 0.930 . S
C1090 C1088 1.395 . S
C1090 C1093 1.403 . S
C1091 C1088 1.403 . S
C1091 C1092 1.524 . S
C1091 C1095 1.400 . S
C1092 H1077 0.960 . S
C1092 H1078 0.960 . S
C1092 H1079 0.960 . S
C1092 C1091 1.524 . S
C1093 C1090 1.403 . S
C1093 C1094 1.392 . S
C1093 C1097 1.495 . S
C1094 C1093 1.392 . S
C1094 C1095 1.385 . S
C1094 C1096 1.478 . S
C1095 H1089 0.930 . S
C1095 C1091 1.400 . S
C1095 C1094 1.385 . S
C1096 C1094 1.478 . S
C1096 C1098 1.381 . S
C1096 C1102 1.383 . S
C1097 C1093 1.495 . S
C1097 H1103 0.959 . S
C1097 H1104 0.961 . S
C1097 H1105 0.960 . S
C1098 C1096 1.381 . S
C1098 C1099 1.394 . S
C1098 H1106 0.930 . S
C1099 C1098 1.394 . S
C1099 C1100 1.383 . S
C1099 H1107 0.929 . S
C1100 C1099 1.383 . S
C1100 C1101 1.377 . S
C1101 H1085 0.930 . S
C1101 C1100 1.377 . S
C1101 C1102 1.379 . S
C1102 H1086 0.931 . S
C1102 C1096 1.383 . S
C1102 C1101 1.379 . S
H1103 C1097 0.959 . S
H1104 C1097 0.961 . S
H1105 C1097 0.960 . S
H1106 C1098 0.930 . S
H1107 C1099 0.929 . S
H1108 C1116 0.929 . S
H1109 C1118 0.930 . S
H1110 C1120 0.930 . S
H1111 C1123 0.929 . S
H1112 C1126 0.930 . S
H1113 C1128 0.960 . S
H1114 C1128 0.960 . S
H1115 C1128 0.960 . S
C1116 H1108 0.929 . S
C1116 C1117 1.377 . S
C1116 C1118 1.384 . S
C1117 C1116 1.377 . S
C1117 C1123 1.390 . S
C1118 H1109 0.930 . S
C1118 C1116 1.384 . S
C1118 C1119 1.372 . S
C1119 C1118 1.372 . S
C1119 C1120 1.400 . S
C1119 C1124 1.490 . S
C1120 H1110 0.930 . S
C1120 C1119 1.400 . S
C1120 C1123 1.386 . S
H1121 C1137 0.930 . S
H1122 C1138 0.931 . S
C1123 H1111 0.929 . S
C1123 C1117 1.390 . S
C1123 C1120 1.386 . S
C1124 C1119 1.490 . S
C1124 C1126 1.395 . S
C1124 C1127 1.403 . S
H1125 C1131 0.930 . S
C1126 H1112 0.930 . S
C1126 C1124 1.395 . S
C1126 C1129 1.403 . S
C1127 C1124 1.403 . S
C1127 C1128 1.524 . S
C1127 C1131 1.400 . S
C1128 H1113 0.960 . S
C1128 H1114 0.960 . S
C1128 H1115 0.960 . S
C1128 C1127 1.524 . S
C1129 C1126 1.403 . S
C1129 C1130 1.392 . S
C1129 C1133 1.495 . S
C1130 C1129 1.392 . S
C1130 C1131 1.385 . S
C1130 C1132 1.478 . S
C1131 H1125 0.930 . S
C1131 C1127 1.400 . S
C1131 C1130 1.385 . S
C1132 C1130 1.478 . S
C1132 C1134 1.381 . S
C1132 C1138 1.383 . S
C1133 C1129 1.495 . S
C1133 H1139 0.959 . S
C1133 H1140 0.961 . S
C1133 H1141 0.960 . S
C1134 C1132 1.381 . S
C1134 C1135 1.394 . S
C1134 H1142 0.930 . S
C1135 C1134 1.394 . S
C1135 C1136 1.383 . S
C1135 H1143 0.929 1_655 S
C1136 C1135 1.383 . S
C1136 C1137 1.377 . S
C1137 H1121 0.930 . S
C1137 C1136 1.377 . S
C1137 C1138 1.379 . S
C1138 H1122 0.931 . S
C1138 C1132 1.383 . S
C1138 C1137 1.379 . S
H1139 C1133 0.959 . S
H1140 C1133 0.961 . S
H1141 C1133 0.960 . S
H1142 C1134 0.930 . S
H1143 C1135 0.929 1_455 S
H1144 C1152 0.929 . S
H1145 C1154 0.930 . S
H1146 C1156 0.930 . S
H1147 C1159 0.929 . S
H1148 C1162 0.930 . S
H1149 C1164 0.960 . S
H1150 C1164 0.960 . S
H1151 C1164 0.960 . S
C1152 H1144 0.929 . S
C1152 C1153 1.377 . S
C1152 C1154 1.384 . S
C1153 C1152 1.377 . S
C1153 C1159 1.390 . S
C1154 H1145 0.930 . S
C1154 C1152 1.384 . S
C1154 C1155 1.372 . S
C1155 C1154 1.372 . S
C1155 C1156 1.400 . S
C1155 C1160 1.490 . S
C1156 H1146 0.930 . S
C1156 C1155 1.400 . S
C1156 C1159 1.386 . S
H1157 C1173 0.930 . S
H1158 C1174 0.931 . S
C1159 H1147 0.929 . S
C1159 C1153 1.390 . S
C1159 C1156 1.386 . S
C1160 C1155 1.490 . S
C1160 C1162 1.395 . S
C1160 C1163 1.403 . S
H1161 C1167 0.930 . S
C1162 H1148 0.930 . S
C1162 C1160 1.395 . S
C1162 C1165 1.403 . S
C1163 C1160 1.403 . S
C1163 C1164 1.524 . S
C1163 C1167 1.400 . S
C1164 H1149 0.960 . S
C1164 H1150 0.960 . S
C1164 H1151 0.960 . S
C1164 C1163 1.524 . S
C1165 C1162 1.403 . S
C1165 C1166 1.392 . S
C1165 C1169 1.495 . S
C1166 C1165 1.392 . S
C1166 C1167 1.385 . S
C1166 C1168 1.478 . S
C1167 H1161 0.930 . S
C1167 C1163 1.400 . S
C1167 C1166 1.385 . S
C1168 C1166 1.478 . S
C1168 C1170 1.381 . S
C1168 C1174 1.383 . S
C1169 C1165 1.495 . S
C1169 H1175 0.959 . S
C1169 H1176 0.961 . S
C1169 H1177 0.960 . S
C1170 C1168 1.381 . S
C1170 C1171 1.394 . S
C1170 H1178 0.930 . S
C1171 C1170 1.394 . S
C1171 C1172 1.383 . S
C1171 H1179 0.929 . S
C1172 C1171 1.383 . S
C1172 C1173 1.377 . S
C1173 H1157 0.930 . S
C1173 C1172 1.377 . S
C1173 C1174 1.379 . S
C1174 H1158 0.931 . S
C1174 C1168 1.383 . S
C1174 C1173 1.379 . S
H1175 C1169 0.959 . S
H1176 C1169 0.961 . S
H1177 C1169 0.960 . S
H1178 C1170 0.930 . S
H1179 C1171 0.929 . S
H1180 C1188 0.929 . S
H1181 C1190 0.930 . S
H1182 C1192 0.930 . S
H1183 C1195 0.929 . S
H1184 C1198 0.930 . S
H1185 C1200 0.960 . S
H1186 C1200 0.960 . S
H1187 C1200 0.960 . S
C1188 H1180 0.929 . S
C1188 C1189 1.377 . S
C1188 C1190 1.384 . S
C1189 C1188 1.377 . S
C1189 C1195 1.390 . S
C1190 H1181 0.930 . S
C1190 C1188 1.384 . S
C1190 C1191 1.372 . S
C1191 C1190 1.372 . S
C1191 C1192 1.400 . S
C1191 C1196 1.490 . S
C1192 H1182 0.930 . S
C1192 C1191 1.400 . S
C1192 C1195 1.386 . S
H1193 C1209 0.930 . S
H1194 C1210 0.931 . S
C1195 H1183 0.929 . S
C1195 C1189 1.390 . S
C1195 C1192 1.386 . S
C1196 C1191 1.490 . S
C1196 C1198 1.395 . S
C1196 C1199 1.403 . S
H1197 C1203 0.930 . S
C1198 H1184 0.930 . S
C1198 C1196 1.395 . S
C1198 C1201 1.403 . S
C1199 C1196 1.403 . S
C1199 C1200 1.524 . S
C1199 C1203 1.400 . S
C1200 H1185 0.960 . S
C1200 H1186 0.960 . S
C1200 H1187 0.960 . S
C1200 C1199 1.524 . S
C1201 C1198 1.403 . S
C1201 C1202 1.392 . S
C1201 C1205 1.495 . S
C1202 C1201 1.392 . S
C1202 C1203 1.385 . S
C1202 C1204 1.478 . S
C1203 H1197 0.930 . S
C1203 C1199 1.400 . S
C1203 C1202 1.385 . S
C1204 C1202 1.478 . S
C1204 C1206 1.381 . S
C1204 C1210 1.383 . S
C1205 C1201 1.495 . S
C1205 H1211 0.959 . S
C1205 H1212 0.961 . S
C1205 H1213 0.960 . S
C1206 C1204 1.381 . S
C1206 C1207 1.394 . S
C1206 H1214 0.930 . S
C1207 C1206 1.394 . S
C1207 C1208 1.383 . S
C1207 H1215 0.929 . S
C1208 C1207 1.383 . S
C1208 C1209 1.377 . S
C1209 H1193 0.930 . S
C1209 C1208 1.377 . S
C1209 C1210 1.379 . S
C1210 H1194 0.931 . S
C1210 C1204 1.383 . S
C1210 C1209 1.379 . S
H1211 C1205 0.959 . S
H1212 C1205 0.961 . S
H1213 C1205 0.960 . S
H1214 C1206 0.930 . S
H1215 C1207 0.929 . S
H1216 C1224 0.929 . S
H1217 C1226 0.930 . S
H1218 C1228 0.930 . S
H1219 C1231 0.929 . S
H1220 C1234 0.930 . S
H1221 C1236 0.960 . S
H1222 C1236 0.960 . S
H1223 C1236 0.960 . S
C1224 H1216 0.929 . S
C1224 C1225 1.377 . S
C1224 C1226 1.384 . S
C1225 C1224 1.377 . S
C1225 C1231 1.390 . S
C1226 H1217 0.930 . S
C1226 C1224 1.384 . S
C1226 C1227 1.372 . S
C1227 C1226 1.372 . S
C1227 C1228 1.400 . S
C1227 C1232 1.490 . S
C1228 H1218 0.930 . S
C1228 C1227 1.400 . S
C1228 C1231 1.386 . S
H1229 C1245 0.930 . S
H1230 C1246 0.931 . S
C1231 H1219 0.929 . S
C1231 C1225 1.390 . S
C1231 C1228 1.386 . S
C1232 C1227 1.490 . S
C1232 C1234 1.395 . S
C1232 C1235 1.403 . S
H1233 C1239 0.930 . S
C1234 H1220 0.930 . S
C1234 C1232 1.395 . S
C1234 C1237 1.403 . S
C1235 C1232 1.403 . S
C1235 C1236 1.524 . S
C1235 C1239 1.400 . S
C1236 H1221 0.960 . S
C1236 H1222 0.960 . S
C1236 H1223 0.960 . S
C1236 C1235 1.524 . S
C1237 C1234 1.403 . S
C1237 C1238 1.392 . S
C1237 C1241 1.495 . S
C1238 C1237 1.392 . S
C1238 C1239 1.385 . S
C1238 C1240 1.478 . S
C1239 H1233 0.930 . S
C1239 C1235 1.400 . S
C1239 C1238 1.385 . S
C1240 C1238 1.478 . S
C1240 C1242 1.381 . S
C1240 C1246 1.383 . S
C1241 C1237 1.495 . S
C1241 H1247 0.959 . S
C1241 H1248 0.961 . S
C1241 H1249 0.960 . S
C1242 C1240 1.381 . S
C1242 C1243 1.394 . S
C1242 H1250 0.930 . S
C1243 C1242 1.394 . S
C1243 C1244 1.383 . S
C1243 H1251 0.929 . S
C1244 C1243 1.383 . S
C1244 C1245 1.377 . S
C1245 H1229 0.930 . S
C1245 C1244 1.377 . S
C1245 C1246 1.379 . S
C1246 H1230 0.931 . S
C1246 C1240 1.383 . S
C1246 C1245 1.379 . S
H1247 C1241 0.959 . S
H1248 C1241 0.961 . S
H1249 C1241 0.960 . S
H1250 C1242 0.930 . S
H1251 C1243 0.929 . S
H1252 C1260 0.929 . S
H1253 C1262 0.930 . S
H1254 C1264 0.930 . S
H1255 C1267 0.929 . S
H1256 C1270 0.930 . S
H1257 C1272 0.960 . S
H1258 C1272 0.960 . S
H1259 C1272 0.960 . S
C1260 H1252 0.929 . S
C1260 C1261 1.377 . S
C1260 C1262 1.384 . S
C1261 C1260 1.377 . S
C1261 C1267 1.390 . S
C1262 H1253 0.930 . S
C1262 C1260 1.384 . S
C1262 C1263 1.372 . S
C1263 C1262 1.372 . S
C1263 C1264 1.400 . S
C1263 C1268 1.490 . S
C1264 H1254 0.930 . S
C1264 C1263 1.400 . S
C1264 C1267 1.386 . S
H1265 C1281 0.930 . S
H1266 C1282 0.931 . S
C1267 H1255 0.929 . S
C1267 C1261 1.390 . S
C1267 C1264 1.386 . S
C1268 C1263 1.490 . S
C1268 C1270 1.395 . S
C1268 C1271 1.403 . S
H1269 C1275 0.930 . S
C1270 H1256 0.930 . S
C1270 C1268 1.395 . S
C1270 C1273 1.403 . S
C1271 C1268 1.403 . S
C1271 C1272 1.524 . S
C1271 C1275 1.400 . S
C1272 H1257 0.960 . S
C1272 H1258 0.960 . S
C1272 H1259 0.960 . S
C1272 C1271 1.524 . S
C1273 C1270 1.403 . S
C1273 C1274 1.392 . S
C1273 C1277 1.495 . S
C1274 C1273 1.392 . S
C1274 C1275 1.385 . S
C1274 C1276 1.478 . S
C1275 H1269 0.930 . S
C1275 C1271 1.400 . S
C1275 C1274 1.385 . S
C1276 C1274 1.478 . S
C1276 C1278 1.381 . S
C1276 C1282 1.383 . S
C1277 C1273 1.495 . S
C1277 H1283 0.959 . S
C1277 H1284 0.961 . S
C1277 H1285 0.960 . S
C1278 C1276 1.381 . S
C1278 C1279 1.394 . S
C1278 H1286 0.930 . S
C1279 C1278 1.394 . S
C1279 C1280 1.383 . S
C1279 H1287 0.929 . S
C1280 C1279 1.383 . S
C1280 C1281 1.377 . S
C1281 H1265 0.930 . S
C1281 C1280 1.377 . S
C1281 C1282 1.379 . S
C1282 H1266 0.931 . S
C1282 C1276 1.383 . S
C1282 C1281 1.379 . S
H1283 C1277 0.959 . S
H1284 C1277 0.961 . S
H1285 C1277 0.960 . S
H1286 C1278 0.930 . S
H1287 C1279 0.929 . S
C433 C71 1.680 . S
C452 C162 1.672 . S
C488 C246 1.614 . S
C469 C81 1.649 . S
C524 C239 1.666 . S
C505 C49 1.671 . S
C541 C59 1.638 . S
C560 C155 1.631 . S
C596 C319 1.668 . S
C577 C27 1.679 . S
C632 C403 1.717 . S
C613 C38 1.725 . S
C649 C5 1.667 . S
C668 C396 1.670 . S
C685 C16 1.717 . S
C704 C312 1.713 . S
C740 C146 1.448 . S
C721 C15 1.573 . S
C776 C230 1.431 . S
C757 C4 1.586 . S
C812 C241 1.432 . S
C793 C37 1.586 . S
C848 C157 1.407 . S
C829 C26 1.597 . S
C884 C325 1.446 . S
C865 C60 1.629 . S
C901 C48 1.664 . S
C920 C409 1.458 . S
C956 C398 1.478 . S
C937 C82 1.644 . S
C973 C70 1.675 . S
C992 C314 1.448 . S
C1028 C144 1.513 . S
C1009 C10 1.505 . S
C1064 C228 1.569 . S
C1045 C21 1.564 . S
C1081 C32 1.500 . S
C1100 C235 1.467 . S
C1136 C151 1.515 . S
C1117 C43 1.558 . S
C1172 C323 1.616 . S
C1153 C54 1.612 . S
C1189 C65 1.563 . S
C1208 C407 1.557 . S
C1225 C76 1.605 . S
C1244 C414 1.603 . S
C1261 C87 1.558 . S
C1280 C330 1.545 . S
