# Generated by pormake.
# Topology pyr, (3,6)-cn, num edge types: 1
# Building blocks:
#     Node 0, Type 0, BuildingBlock: BELTOD_clean_linker_0, # of connection points: 3
#     Node 1, Type 0, BuildingBlock: BELTOD_clean_linker_0, # of connection points: 3
#     Node 2, Type 0, BuildingBlock: BELTOD_clean_linker_0, # of connection points: 3
#     Node 3, Type 0, BuildingBlock: BELTOD_clean_linker_0, # of connection points: 3
#     Node 4, Type 0, BuildingBlock: BELTOD_clean_linker_0, # of connection points: 3
#     Node 5, Type 0, BuildingBlock: BELTOD_clean_linker_0, # of connection points: 3
#     Node 6, Type 0, BuildingBlock: BELTOD_clean_linker_0, # of connection points: 3
#     Node 7, Type 0, BuildingBlock: BELTOD_clean_linker_0, # of connection points: 3
#     Node 8, Type 1, BuildingBlock: BETFAJ_clean_sbu_0, # of connection points: 6
#     Node 9, Type 1, BuildingBlock: BETFAJ_clean_sbu_0, # of connection points: 6
#     Node 10, Type 1, BuildingBlock: BETFAJ_clean_sbu_0, # of connection points: 6
#     Node 11, Type 1, BuildingBlock: BETFAJ_clean_sbu_0, # of connection points: 6
#     Edge 12, Type (0, 1), BuildingBlock: XIVTED_clean_linker_0, # of connection points: 2
#     Edge 13, Type (0, 1), BuildingBlock: XIVTED_clean_linker_0, # of connection points: 2
#     Edge 14, Type (0, 1), BuildingBlock: XIVTED_clean_linker_0, # of connection points: 2
#     Edge 15, Type (0, 1), BuildingBlock: XIVTED_clean_linker_0, # of connection points: 2
#     Edge 16, Type (0, 1), BuildingBlock: XIVTED_clean_linker_0, # of connection points: 2
#     Edge 17, Type (0, 1), BuildingBlock: XIVTED_clean_linker_0, # of connection points: 2
#     Edge 18, Type (0, 1), BuildingBlock: XIVTED_clean_linker_0, # of connection points: 2
#     Edge 19, Type (0, 1), BuildingBlock: XIVTED_clean_linker_0, # of connection points: 2
#     Edge 20, Type (0, 1), BuildingBlock: XIVTED_clean_linker_0, # of connection points: 2
#     Edge 21, Type (0, 1), BuildingBlock: XIVTED_clean_linker_0, # of connection points: 2
#     Edge 22, Type (0, 1), BuildingBlock: XIVTED_clean_linker_0, # of connection points: 2
#     Edge 23, Type (0, 1), BuildingBlock: XIVTED_clean_linker_0, # of connection points: 2
#     Edge 24, Type (0, 1), BuildingBlock: XIVTED_clean_linker_0, # of connection points: 2
#     Edge 25, Type (0, 1), BuildingBlock: XIVTED_clean_linker_0, # of connection points: 2
#     Edge 26, Type (0, 1), BuildingBlock: XIVTED_clean_linker_0, # of connection points: 2
#     Edge 27, Type (0, 1), BuildingBlock: XIVTED_clean_linker_0, # of connection points: 2
#     Edge 28, Type (0, 1), BuildingBlock: XIVTED_clean_linker_0, # of connection points: 2
#     Edge 29, Type (0, 1), BuildingBlock: XIVTED_clean_linker_0, # of connection points: 2
#     Edge 30, Type (0, 1), BuildingBlock: XIVTED_clean_linker_0, # of connection points: 2
#     Edge 31, Type (0, 1), BuildingBlock: XIVTED_clean_linker_0, # of connection points: 2
#     Edge 32, Type (0, 1), BuildingBlock: XIVTED_clean_linker_0, # of connection points: 2
#     Edge 33, Type (0, 1), BuildingBlock: XIVTED_clean_linker_0, # of connection points: 2
#     Edge 34, Type (0, 1), BuildingBlock: XIVTED_clean_linker_0, # of connection points: 2
#     Edge 35, Type (0, 1), BuildingBlock: XIVTED_clean_linker_0, # of connection points: 2
# Relax obj value: 0.104
# Max RMSD: 0.124
# Mean RMSD: 0.059
data_MOF--net-pyr--node1-BETFAJ_clean_sbu_0--node2-BELTOD_clean_linker_0--edge1-XIVTED_clean_linker_0
_symmetry_space_group_name_H-M    P1
_symmetry_Int_Tables_number       1
_symmetry_cell_setting            triclinic
loop_
_symmetry_equiv_pos_as_xyz
'x, y, z'
_cell_length_a     43.368424
_cell_length_b     46.602886
_cell_length_c     41.808548
_cell_angle_alpha  90.965507
_cell_angle_beta   88.944064
_cell_angle_gamma 100.91449
loop_
_atom_site_label
_atom_site_type_symbol
_atom_site_fract_x
_atom_site_fract_y
_atom_site_fract_z
_atom_type_partial_charge
P0 P 0.37455 0.31236 0.24103 0.0
H1 H 0.43311 0.29029 0.24311 0.0
H2 H 0.44915 0.24702 0.21985 0.0
H3 H 0.36174 0.22673 0.16872 0.0
H4 H 0.3454 0.2694 0.19327 0.0
H5 H 0.33764 0.35537 0.25976 0.0
H6 H 0.30119 0.37878 0.23107 0.0
H7 H 0.33123 0.34368 0.14185 0.0
H8 H 0.3674 0.31971 0.17113 0.0
H9 H 0.37726 0.29831 0.30928 0.0
H10 H 0.30902 0.2855 0.23408 0.0
O11 O 0.40397 0.33353 0.26029 0.0
H12 H 0.33723 0.27306 0.34679 0.0
H13 H 0.26944 0.26026 0.27089 0.0
C14 C 0.38845 0.28358 0.21922 0.0
C15 C 0.41766 0.27685 0.22641 0.0
C16 C 0.4268 0.25202 0.21305 0.0
C17 C 0.4068 0.23331 0.19227 0.0
C18 C 0.37762 0.24038 0.18488 0.0
C19 C 0.36843 0.26509 0.1985 0.0
C20 C 0.35455 0.33516 0.21772 0.0
C21 C 0.33684 0.35317 0.23393 0.0
C22 C 0.31604 0.36669 0.21739 0.0
C23 C 0.31284 0.36279 0.1841 0.0
C24 C 0.33253 0.34654 0.16757 0.0
C25 C 0.35332 0.33287 0.18428 0.0
C26 C 0.34586 0.29428 0.26916 0.0
C27 C 0.35368 0.29024 0.30093 0.0
C28 C 0.33088 0.27574 0.32223 0.0
C29 C 0.30008 0.26513 0.31188 0.0
C30 C 0.2927 0.26885 0.27983 0.0
C31 C 0.3154 0.28314 0.25868 0.0
P32 P 0.35124 0.89687 0.56403 0.0
H33 H 0.40915 0.90271 0.59989 0.0
H34 H 0.42342 0.92131 0.65394 0.0
H35 H 0.33308 0.94684 0.66518 0.0
H36 H 0.319 0.92832 0.61183 0.0
H37 H 0.36501 0.84834 0.52426 0.0
H38 H 0.35617 0.79565 0.53266 0.0
H39 H 0.31286 0.80779 0.62474 0.0
H40 H 0.32325 0.86038 0.61671 0.0
H41 H 0.33722 0.95077 0.53927 0.0
H42 H 0.28545 0.8654 0.56426 0.0
O43 O 0.37905 0.90704 0.5362 0.0
H44 H 0.28779 0.9683 0.53469 0.0
H45 H 0.23653 0.8829 0.56091 0.0
C46 C 0.36332 0.91461 0.60152 0.0
C47 C 0.39274 0.91287 0.61382 0.0
C48 C 0.40075 0.92329 0.64472 0.0
C49 C 0.3794 0.93566 0.66369 0.0
C50 C 0.35025 0.93795 0.65093 0.0
C51 C 0.34219 0.92731 0.62026 0.0
C52 C 0.34546 0.85819 0.57017 0.0
C53 C 0.35391 0.83959 0.54634 0.0
C54 C 0.34837 0.80943 0.55103 0.0
C55 C 0.33377 0.79739 0.57943 0.0
C56 C 0.32468 0.81625 0.60288 0.0
C57 C 0.33065 0.84637 0.59834 0.0
C58 C 0.31513 0.90685 0.55213 0.0
C59 C 0.31526 0.93564 0.54301 0.0
C60 C 0.28703 0.9457 0.54085 0.0
C61 C 0.25828 0.9271 0.54798 0.0
C62 C 0.25821 0.89776 0.55512 0.0
C63 C 0.2864 0.88774 0.5572 0.0
P64 P 0.67257 0.33434 0.83572 0.0
H65 H 0.7262 0.38024 0.81972 0.0
H66 H 0.76966 0.40745 0.85085 0.0
H67 H 0.72694 0.36715 0.93714 0.0
H68 H 0.68332 0.34026 0.90588 0.0
H69 H 0.60453 0.31222 0.85057 0.0
H70 H 0.577 0.26831 0.87786 0.0
H71 H 0.6663 0.24509 0.89885 0.0
H72 H 0.69325 0.28821 0.87064 0.0
H73 H 0.66785 0.39701 0.82988 0.0
H74 H 0.62623 0.31479 0.78619 0.0
O75 O 0.69395 0.31914 0.8091 0.0
H76 H 0.64367 0.42302 0.78989 0.0
H77 H 0.60115 0.34048 0.74668 0.0
C78 C 0.70135 0.35809 0.86026 0.0
C79 C 0.72584 0.37765 0.84542 0.0
C80 C 0.75077 0.39323 0.86332 0.0
C81 C 0.75209 0.38939 0.89659 0.0
C82 C 0.72702 0.37037 0.91155 0.0
C83 C 0.70186 0.35505 0.89363 0.0
C84 C 0.65106 0.30363 0.85844 0.0
C85 C 0.61815 0.29771 0.86112 0.0
C86 C 0.60241 0.27252 0.87696 0.0
C87 C 0.61923 0.25266 0.89057 0.0
C88 C 0.65227 0.25921 0.88824 0.0
C89 C 0.66785 0.28418 0.87232 0.0
C90 C 0.64882 0.35376 0.81138 0.0
C91 C 0.65293 0.38442 0.81217 0.0
C92 C 0.63894 0.39936 0.78912 0.0
C93 C 0.62055 0.38406 0.7645 0.0
C94 C 0.61557 0.35325 0.76467 0.0
C95 C 0.62958 0.3384 0.78767 0.0
P96 P 0.84019 0.69321 0.33837 0.0
H97 H 0.84889 0.75537 0.32218 0.0
H98 H 0.87514 0.80028 0.34791 0.0
H99 H 0.90819 0.75 0.42139 0.0
H100 H 0.88104 0.70468 0.39544 0.0
H101 H 0.88374 0.71071 0.28519 0.0
H102 H 0.91154 0.68406 0.24727 0.0
H103 H 0.878 0.6045 0.29928 0.0
H104 H 0.85225 0.63192 0.33825 0.0
H105 H 0.81706 0.70393 0.40382 0.0
H106 H 0.79796 0.63605 0.33179 0.0
O107 O 0.81719 0.70438 0.31151 0.0
H108 H 0.77346 0.67887 0.43619 0.0
H109 H 0.75531 0.60977 0.36486 0.0
C110 C 0.86248 0.72637 0.35698 0.0
C111 C 0.86178 0.75378 0.34378 0.0
C112 C 0.87715 0.7797 0.35852 0.0
C113 C 0.89393 0.77916 0.38698 0.0
C114 C 0.8952 0.75154 0.39982 0.0
C115 C 0.87984 0.72548 0.38487 0.0
C116 C 0.86542 0.67347 0.31457 0.0
C117 C 0.88289 0.68762 0.28882 0.0
C118 C 0.89846 0.67208 0.26668 0.0
C119 C 0.89676 0.64165 0.26929 0.0
C120 C 0.88025 0.62779 0.29605 0.0
C121 C 0.86504 0.64352 0.31846 0.0
C122 C 0.8122 0.67137 0.36578 0.0
C123 C 0.80442 0.68299 0.39542 0.0
C124 C 0.7791 0.66847 0.41409 0.0
C125 C 0.76049 0.64186 0.40363 0.0
C126 C 0.76859 0.6302 0.37395 0.0
C127 C 0.79369 0.64496 0.35517 0.0
P128 P 0.69592 0.80317 0.84099 0.0
H129 H 0.67977 0.80983 0.90751 0.0
H130 H 0.63687 0.82855 0.93289 0.0
H131 H 0.58786 0.8203 0.84293 0.0
H132 H 0.63204 0.80276 0.81741 0.0
H133 H 0.75558 0.78858 0.82449 0.0
H134 H 0.78192 0.74952 0.83987 0.0
H135 H 0.69883 0.70907 0.89283 0.0
H136 H 0.67271 0.74912 0.87768 0.0
H137 H 0.69448 0.8539 0.80266 0.0
H138 H 0.69469 0.76243 0.78589 0.0
O139 O 0.72164 0.83178 0.85472 0.0
H140 H 0.70842 0.86402 0.74704 0.0
H141 H 0.70808 0.77217 0.72953 0.0
C142 C 0.65929 0.80539 0.86059 0.0
C143 C 0.65933 0.81117 0.89349 0.0
C144 C 0.63452 0.82182 0.90802 0.0
C145 C 0.60893 0.8266 0.88988 0.0
C146 C 0.60753 0.81772 0.85747 0.0
C147 C 0.63267 0.80737 0.84287 0.0
C148 C 0.71233 0.77173 0.85003 0.0
C149 C 0.74287 0.7711 0.83909 0.0
C150 C 0.75781 0.74854 0.8477 0.0
C151 C 0.74248 0.72598 0.86749 0.0
C152 C 0.71138 0.72623 0.87776 0.0
C153 C 0.69637 0.74901 0.86905 0.0
C154 C 0.6948 0.8077 0.79851 0.0
C155 C 0.69651 0.83582 0.78664 0.0
C156 C 0.70421 0.84148 0.75458 0.0
C157 C 0.7102 0.81898 0.73383 0.0
C158 C 0.70445 0.79011 0.74506 0.0
C159 C 0.69679 0.7845 0.77728 0.0
P160 P 0.79398 0.26106 0.41972 0.0
H161 H 0.77907 0.31388 0.44925 0.0
H162 H 0.73793 0.32128 0.48726 0.0
H163 H 0.71384 0.22815 0.50206 0.0
H164 H 0.75528 0.22088 0.4641 0.0
H165 H 0.77554 0.19807 0.40777 0.0
H166 H 0.80097 0.1569 0.41914 0.0
H167 H 0.87853 0.21653 0.46149 0.0
H168 H 0.85316 0.25762 0.44963 0.0
H169 H 0.80971 0.25399 0.35257 0.0
H170 H 0.72535 0.24837 0.41039 0.0
O171 O 0.82105 0.29096 0.41282 0.0
H172 H 0.77792 0.23545 0.30626 0.0
H173 H 0.69366 0.23021 0.36439 0.0
C174 C 0.77031 0.2669 0.45399 0.0
C175 C 0.76579 0.29516 0.46159 0.0
C176 C 0.74234 0.29935 0.48349 0.0
C177 C 0.72271 0.27523 0.49763 0.0
C178 C 0.7287 0.24707 0.49155 0.0
C179 C 0.75242 0.24295 0.46991 0.0
C180 C 0.81296 0.23091 0.42716 0.0
C181 C 0.7982 0.20231 0.41915 0.0
C182 C 0.81257 0.17877 0.42593 0.0
C183 C 0.84184 0.18356 0.4409 0.0
C184 C 0.85625 0.21226 0.44933 0.0
C185 C 0.84181 0.23574 0.44264 0.0
C186 C 0.77001 0.25261 0.38491 0.0
C187 C 0.78436 0.24939 0.35512 0.0
C188 C 0.76616 0.23884 0.32869 0.0
C189 C 0.73329 0.23119 0.33175 0.0
C190 C 0.71896 0.23553 0.3614 0.0
C191 C 0.73715 0.2461 0.38775 0.0
P192 P 0.36723 0.68833 0.20593 0.0
H193 H 0.33518 0.69833 0.14774 0.0
H194 H 0.28358 0.67782 0.12623 0.0
H195 H 0.25822 0.63181 0.2145 0.0
H196 H 0.30995 0.65255 0.23591 0.0
H197 H 0.42976 0.72241 0.19323 0.0
H198 H 0.44881 0.77223 0.17597 0.0
H199 H 0.35541 0.79095 0.18881 0.0
H200 H 0.33634 0.74025 0.20494 0.0
H201 H 0.36108 0.62888 0.2287 0.0
H202 H 0.39431 0.71524 0.26724 0.0
O203 O 0.38753 0.67199 0.17927 0.0
H204 H 0.37818 0.60741 0.27644 0.0
H205 H 0.4122 0.6938 0.31533 0.0
C206 C 0.32664 0.67719 0.19354 0.0
C207 C 0.3183 0.68432 0.16278 0.0
C208 C 0.28866 0.6725 0.15045 0.0
C209 C 0.26658 0.6529 0.16845 0.0
C210 C 0.2747 0.64644 0.19969 0.0
C211 C 0.30434 0.65849 0.21211 0.0
C212 C 0.38156 0.72732 0.20026 0.0
C213 C 0.4134 0.73731 0.19281 0.0
C214 C 0.42433 0.76612 0.18297 0.0
C215 C 0.40379 0.78613 0.18065 0.0
C216 C 0.372 0.77632 0.18957 0.0
C217 C 0.36104 0.74728 0.19925 0.0
C218 C 0.37598 0.67373 0.2443 0.0
C219 C 0.3717 0.64331 0.2477 0.0
C220 C 0.38191 0.631 0.27502 0.0
C221 C 0.39705 0.64872 0.29989 0.0
C222 C 0.40051 0.67934 0.29691 0.0
C223 C 0.39026 0.6917 0.26933 0.0
P224 P 0.17909 0.35343 0.7371 0.0
H225 H 0.19106 0.29382 0.73287 0.0
H226 H 0.16649 0.24958 0.70462 0.0
H227 H 0.09958 0.29602 0.66426 0.0
H228 H 0.12451 0.34075 0.69317 0.0
H229 H 0.23745 0.39379 0.75206 0.0
H230 H 0.28095 0.41951 0.71948 0.0
H231 H 0.23028 0.38816 0.63388 0.0
H232 H 0.18704 0.36197 0.66683 0.0
H233 H 0.11991 0.33613 0.77332 0.0
H234 H 0.18309 0.41645 0.75091 0.0
O235 O 0.19895 0.34143 0.76627 0.0
H236 H 0.09152 0.36248 0.81143 0.0
H237 H 0.15567 0.44276 0.78941 0.0
C238 C 0.15935 0.3207 0.71581 0.0
C239 C 0.17088 0.29463 0.7183 0.0
C240 C 0.15669 0.26912 0.70206 0.0
C241 C 0.13071 0.26889 0.6823 0.0
C242 C 0.11953 0.29527 0.6792 0.0
C243 C 0.13364 0.32087 0.69588 0.0
C244 C 0.20895 0.37563 0.71204 0.0
C245 C 0.23552 0.39264 0.72626 0.0
C246 C 0.26044 0.40756 0.70749 0.0
C247 C 0.25953 0.4059 0.67383 0.0
C248 C 0.23226 0.38962 0.65966 0.0
C249 C 0.20727 0.37472 0.67853 0.0
C250 C 0.15329 0.37424 0.7584 0.0
C251 C 0.12725 0.35958 0.77594 0.0
C252 C 0.11131 0.3747 0.79828 0.0
C253 C 0.1212 0.40496 0.80401 0.0
C254 C 0.14681 0.41966 0.78562 0.0
C255 C 0.16266 0.40451 0.76332 0.0
Sm256 Sm 0.03053 0.03781 0.50061 0.0
Sm257 Sm 0.99861 1.01369 0.56067 0.0
C258 C 0.05108 0.05855 0.44409 0.0
C259 C 0.07578 0.08292 0.43433 0.0
C260 C 0.07689 0.09331 0.40305 0.0
C261 C 0.10074 0.11631 0.39368 0.0
C262 C 0.12385 0.12911 0.41549 0.0
C263 C 0.12239 0.11879 0.44695 0.0
C264 C 0.09843 0.09595 0.45635 0.0
C265 C 0.06952 1.01671 0.54113 0.0
C266 C 0.0415 0.08043 0.56286 0.0
C267 C 0.97618 0.99236 0.61615 0.0
C268 C 0.94863 0.96955 0.62336 0.0
C269 C 0.94246 0.94354 0.60506 0.0
C270 C 0.91405 0.92394 0.60887 0.0
C271 C 0.89117 0.93021 0.63069 0.0
C272 C 0.89768 0.95589 0.64949 0.0
C273 C 0.92621 0.97535 0.6459 0.0
C274 C 0.96178 0.03857 0.52048 0.0
C275 C 0.98705 0.97074 0.49912 0.0
O276 O 0.02681 0.0658 0.45889 0.0
O277 O 0.06084 0.03686 0.45755 0.0
O278 O 0.04185 1.00403 0.53481 0.0
O279 O 0.07719 0.04105 0.52588 0.0
O280 O 0.04021 0.08008 0.53127 0.0
O281 O 0.03122 0.05626 0.57923 0.0
O282 O 0.99988 0.98393 0.60136 0.0
O283 O 0.96964 1.01632 0.60453 0.0
O284 O 0.98966 0.04851 0.52768 0.0
O285 O 0.95126 1.01452 0.53556 0.0
O286 O 0.98729 0.97159 0.53062 0.0
O287 O 0.99867 0.99442 0.48244 0.0
H288 H 0.05949 0.08349 0.38585 0.0
H289 H 0.10149 0.12367 0.36919 0.0
H290 H 0.13968 0.12846 0.46432 0.0
H291 H 0.09766 0.08833 0.48075 0.0
H292 H 0.95913 0.93874 0.58709 0.0
H293 H 0.90956 0.90435 0.59404 0.0
H294 H 0.88061 0.96099 0.66686 0.0
H295 H 0.93038 0.99539 0.66 0.0
Sm296 Sm 0.52964 0.03053 0.05285 0.0
Sm297 Sm 0.46811 1.01977 0.02673 0.0
C298 C 0.58484 0.05331 0.07775 0.0
C299 C 0.5968 0.07509 0.1024 0.0
C300 C 0.62847 0.08867 0.10161 0.0
C301 C 0.64054 0.10849 0.12574 0.0
C302 C 0.62106 0.11498 0.15106 0.0
C303 C 0.58908 0.10177 0.15131 0.0
C304 C 0.57703 0.08201 0.12713 0.0
C305 C 0.4942 0.97864 0.07497 0.0
C306 C 0.47542 0.06065 0.0874 0.0
C307 C 0.41449 0.99914 0.99796 0.0
C308 C 0.40715 0.99487 0.96378 0.0
C309 C 0.3892 0.9684 0.9529 0.0
C310 C 0.38521 0.96288 0.9201 0.0
C311 C 0.39901 0.98386 0.89771 0.0
C312 C 0.41633 1.01063 0.90874 0.0
C313 C 0.42054 1.01602 0.94143 0.0
C314 C 0.50493 0.07055 1.00308 0.0
C315 C 0.52201 0.98689 0.99376 0.0
O316 O 0.5743 0.06322 0.05191 0.0
O317 O 0.56702 0.02933 0.08789 0.0
O318 O 0.48389 1.0023 0.0727 0.0
O319 O 0.52336 0.98225 0.06579 0.0
O320 O 0.50531 0.06406 0.07922 0.0
O321 O 0.45496 0.0395 0.0743 0.0
O322 O 0.43249 0.98228 1.0092 0.0
O323 O 0.42233 0.02616 1.00808 0.0
O324 O 0.51398 0.04647 1.00611 0.0
O325 O 0.4759 0.06803 1.01209 0.0
O326 O 0.49184 0.98701 0.99766 0.0
O327 O 0.54316 1.00514 1.00978 0.0
H328 H 0.64399 0.08356 0.08263 0.0
H329 H 0.66533 0.11805 0.12507 0.0
H330 H 0.57341 0.10662 0.17028 0.0
H331 H 0.55242 0.07181 0.12798 0.0
H332 H 0.37895 0.95171 0.96974 0.0
H333 H 0.37155 0.94214 0.91224 0.0
H334 H 0.4276 0.02702 0.89204 0.0
H335 H 0.43501 0.03643 0.94913 0.0
Sm336 Sm 0.514 0.4967 0.51122 0.0
Sm337 Sm 0.50441 0.54891 0.56203 0.0
C338 C 0.5385 0.46112 0.47342 0.0
C339 C 0.5424 0.43129 0.47991 0.0
C340 C 0.55918 0.41637 0.45858 0.0
C341 C 0.56706 0.38994 0.46751 0.0
C342 C 0.5586 0.37845 0.49806 0.0
C343 C 0.54041 0.39277 0.51867 0.0
C344 C 0.53217 0.4189 0.50955 0.0
C345 C 0.45631 0.48281 0.54351 0.0
C346 C 0.53569 0.49363 0.58745 0.0
C347 C 0.47919 0.57976 0.60519 0.0
C348 C 0.44875 0.5884 0.61 0.0
C349 C 0.42394 0.57815 0.58922 0.0
C350 C 0.3969 0.59036 0.59048 0.0
C351 C 0.39451 0.61314 0.61236 0.0
C352 C 0.41867 0.6218 0.63454 0.0
C353 C 0.44559 0.60952 0.63331 0.0
C354 C 0.56262 0.56179 0.53059 0.0
C355 C 0.48268 0.55131 0.48624 0.0
O356 O 0.55558 0.48109 0.49145 0.0
O357 O 0.50941 0.46477 0.47081 0.0
O358 O 0.47705 0.50565 0.54626 0.0
O359 O 0.46613 0.46601 0.52209 0.0
O360 O 0.53451 0.48222 0.55804 0.0
O361 O 0.52557 0.51816 0.59466 0.0
O362 O 0.47974 0.55197 0.60854 0.0
O363 O 0.49546 0.59138 0.58036 0.0
O364 O 0.54105 0.53976 0.52732 0.0
O365 O 0.55395 0.57819 0.5532 0.0
O366 O 0.4778 0.55873 0.51659 0.0
O367 O 0.49914 0.53085 0.47833 0.0
H368 H 0.56735 0.42577 0.43572 0.0
H369 H 0.58147 0.37947 0.45136 0.0
H370 H 0.53362 0.38432 0.54228 0.0
H371 H 0.51907 0.43018 0.52626 0.0
H372 H 0.42615 0.56178 0.57103 0.0
H373 H 0.37858 0.583 0.57333 0.0
H374 H 0.41794 0.63958 0.65138 0.0
H375 H 0.46466 0.61768 0.64942 0.0
Sm376 Sm 0.01333 0.49042 0.05048 0.0
Sm377 Sm 1.00029 0.55349 1.02189 0.0
C378 C 0.0383 0.4432 0.05543 0.0
C379 C 0.06399 0.4347 0.07315 0.0
C380 C 0.08651 0.45607 0.08802 0.0
C381 C 0.11327 0.4486 0.1011 0.0
C382 C 0.11789 0.4195 0.09979 0.0
C383 C 0.0945 0.39796 0.086 0.0
C384 C 0.06785 0.40555 0.07265 0.0
C385 C 0.98799 0.52371 0.09678 0.0
C386 C 0.06509 0.55297 0.06252 0.0
C387 C 0.97436 0.59973 1.01492 0.0
C388 C 0.94962 0.6076 0.99497 0.0
C389 C 0.92014 0.58897 0.99246 0.0
C390 C 0.89612 0.59752 0.9754 0.0
C391 C 0.9012 0.62465 0.96018 0.0
C392 C 0.93098 0.64284 0.96177 0.0
C393 C 0.95495 0.63443 0.97919 0.0
C394 C 0.02642 0.52059 0.97586 0.0
C395 C 0.94812 0.49128 1.01034 0.0
O396 O 0.04728 0.46343 0.03405 0.0
O397 O 0.01329 0.44694 0.07194 0.0
O398 O 0.9952 0.52954 0.06793 0.0
O399 O 0.99386 0.49781 0.10217 0.0
O400 O 0.05866 0.52386 0.06286 0.0
O401 O 0.04601 0.56895 0.05009 0.0
O402 O 0.9649 0.57959 0.03631 0.0
O403 O 1.00091 0.59715 1.00056 0.0
O404 O 0.01844 0.5144 1.00446 0.0
O405 O 0.0209 0.54662 0.97067 0.0
O406 O 0.95515 0.5203 1.00931 0.0
O407 O 0.96676 0.47515 1.02331 0.0
H408 H 0.08389 0.4787 0.08849 0.0
H409 H 0.13084 0.46586 0.11114 0.0
H410 H 0.09692 0.37525 0.08514 0.0
H411 H 0.05067 0.38878 0.06122 0.0
H412 H 0.91541 0.56797 1.00412 0.0
H413 H 0.87348 0.58297 0.97424 0.0
H414 H 0.93542 0.66398 0.95041 0.0
H415 H 0.97747 0.6491 0.98081 0.0
H416 H 0.30559 0.22313 0.35552 0.0
H417 H 0.12019 0.17702 0.37998 0.0
H418 H 0.23878 0.27109 0.31774 0.0
H419 H 0.18653 0.1346 0.42743 0.0
H420 H 0.16373 0.21372 0.35992 0.0
H421 H 0.26297 0.19297 0.38588 0.0
C422 C 0.28205 0.22763 0.35404 0.0
C423 C 0.27561 0.24934 0.33373 0.0
C424 C 0.16881 0.19655 0.37495 0.0
C425 C 0.22675 0.21473 0.3679 0.0
C426 C 0.14396 0.17551 0.38622 0.0
C427 C 0.14983 0.15264 0.40513 0.0
C428 C 0.1998 0.19453 0.38234 0.0
C429 C 0.18101 0.15196 0.41299 0.0
C430 C 0.25771 0.21031 0.37121 0.0
C431 C 0.24466 0.25413 0.33256 0.0
N432 N 0.20489 0.17245 0.40128 0.0
N433 N 0.22135 0.23676 0.34911 0.0
H434 H 0.40469 0.90575 0.709 0.0
H435 H 0.3866 1.01972 0.85034 0.0
H436 H 0.3692 0.98506 0.69525 0.0
H437 H 0.40641 0.93377 0.86592 0.0
H438 H 0.38471 1.00942 0.79278 0.0
H439 H 0.41101 0.91812 0.76587 0.0
C440 C 0.39866 0.92598 0.71788 0.0
C441 C 0.38631 0.94437 0.69743 0.0
C442 C 0.38942 0.99279 0.80879 0.0
C443 C 0.39301 0.95844 0.76249 0.0
C444 C 0.39057 0.99869 0.84161 0.0
C445 C 0.39654 0.97751 0.86291 0.0
C446 C 0.39451 0.9656 0.79715 0.0
C447 C 0.40129 0.95054 0.85036 0.0
C448 C 0.40197 0.93289 0.75038 0.0
C449 C 0.37846 0.97011 0.71029 0.0
N450 N 0.40026 0.94538 0.81828 0.0
N451 N 0.38187 0.97635 0.74202 0.0
H452 H 0.61398 0.36905 0.70034 0.0
H453 H 0.54271 0.50925 0.65129 0.0
H454 H 0.59785 0.43594 0.76783 0.0
H455 H 0.55808 0.44182 0.58415 0.0
H456 H 0.56296 0.48298 0.69396 0.0
H457 H 0.5935 0.39521 0.65786 0.0
C458 C 0.60591 0.38908 0.70646 0.0
C459 C 0.60766 0.4 0.73815 0.0
C460 C 0.56195 0.47392 0.66991 0.0
C461 C 0.58437 0.43065 0.68882 0.0
C462 C 0.55036 0.48897 0.64538 0.0
C463 C 0.54858 0.47793 0.61376 0.0
C464 C 0.57196 0.44744 0.66309 0.0
C465 C 0.55894 0.45139 0.60797 0.0
C466 C 0.59438 0.40419 0.68196 0.0
C467 C 0.59738 0.4266 0.74393 0.0
N468 N 0.57009 0.43716 0.63226 0.0
N469 N 0.58622 0.44087 0.71967 0.0
H470 H 0.92132 0.59103 0.27558 0.0
H471 H 0.98095 0.58158 0.09345 0.0
H472 H 0.90584 0.65254 0.2042 0.0
H473 H 0.96642 0.50833 0.15697 0.0
H474 H 0.95871 0.61037 0.1347 0.0
H475 H 0.943 0.56301 0.23383 0.0
C476 C 0.92222 0.59875 0.25126 0.0
C477 C 0.91136 0.62451 0.24393 0.0
C478 C 0.96018 0.58792 0.13951 0.0
C479 C 0.93727 0.59234 0.19554 0.0
C480 C 0.9726 0.57136 0.11576 0.0
C481 C 0.97482 0.54217 0.12123 0.0
C482 C 0.95047 0.57544 0.16936 0.0
C483 C 0.96492 0.53062 0.15142 0.0
C484 C 0.93489 0.58268 0.22734 0.0
C485 C 0.91423 0.63331 0.21164 0.0
N486 N 0.95332 0.5472 0.17421 0.0
N487 N 0.92688 0.61741 0.18887 0.0
H488 H 0.36952 0.17929 0.18173 0.0
H489 H 0.51212 0.10652 0.11799 0.0
H490 H 0.46543 0.22548 0.17251 0.0
H491 H 0.41503 0.06646 0.10366 0.0
H492 H 0.49517 0.14715 0.14594 0.0
H493 H 0.38559 0.1354 0.15954 0.0
C494 C 0.39391 0.18033 0.1749 0.0
C495 C 0.41612 0.2063 0.17893 0.0
C496 C 0.47752 0.12942 0.13687 0.0
C497 C 0.4347 0.15583 0.15422 0.0
C498 C 0.48717 0.10606 0.12101 0.0
C499 C 0.46495 0.08309 0.10817 0.0
C500 C 0.44538 0.12994 0.14004 0.0
C501 C 0.43297 0.08374 0.11306 0.0
C502 C 0.40307 0.15516 0.16246 0.0
C503 C 0.4475 0.20598 0.17031 0.0
N504 N 0.42411 0.10693 0.12845 0.0
N505 N 0.45581 0.1812 0.15839 0.0
H506 H 0.19919 0.90101 0.52868 0.0
H507 H 0.12562 0.04152 0.5655 0.0
H508 H 0.25006 0.9793 0.57405 0.0
H509 H 0.06926 0.9579 0.54058 0.0
H510 H 0.17073 1.01804 0.57229 0.0
H511 H 0.15081 0.92044 0.53478 0.0
C512 C 0.20018 0.92223 0.54001 0.0
C513 C 0.2288 0.93872 0.5505 0.0
C514 C 0.14842 1.00466 0.56586 0.0
C515 C 0.17361 0.96104 0.55751 0.0
C516 C 0.12268 1.01805 0.56212 0.0
C517 C 0.09396 1.00158 0.55222 0.0
C518 C 0.14549 0.97467 0.55903 0.0
C519 C 0.09115 0.97129 0.54821 0.0
C520 C 0.17255 0.93326 0.54355 0.0
C521 C 0.22871 0.96614 0.56485 0.0
N522 N 0.11685 0.95881 0.55105 0.0
N523 N 0.20159 0.97648 0.56776 0.0
H524 H 0.78357 0.36704 0.94415 0.0
H525 H 0.90802 0.51574 0.97385 0.0
H526 H 0.78468 0.44605 0.89153 0.0
H527 H 0.91965 0.43281 1.01144 0.0
H528 H 0.86019 0.49136 0.94757 0.0
H529 H 0.83031 0.39149 0.97286 0.0
C530 C 0.79342 0.38961 0.93879 0.0
C531 C 0.77998 0.40442 0.91525 0.0
C532 C 0.87313 0.47845 0.96158 0.0
C533 C 0.83387 0.43262 0.94813 0.0
C534 C 0.90054 0.4924 0.97679 0.0
C535 C 0.9182 0.47641 0.99506 0.0
C536 C 0.86283 0.44816 0.96466 0.0
C537 C 0.90702 0.44613 0.99764 0.0
C538 C 0.8203 0.40349 0.95507 0.0
C539 C 0.79425 0.43357 0.90916 0.0
N540 N 0.88011 0.43305 0.98271 0.0
N541 N 0.82023 0.44665 0.92548 0.0
H542 H 0.75149 0.64134 0.46947 0.0
H543 H 0.5787 0.54127 0.47111 0.0
H544 H 0.70431 0.60823 0.38255 0.0
H545 H 0.61507 0.60016 0.54786 0.0
H546 H 0.62752 0.55858 0.44006 0.0
H547 H 0.70462 0.61983 0.50006 0.0
C548 C 0.73139 0.62971 0.4566 0.0
C549 C 0.73227 0.62711 0.42299 0.0
C550 C 0.62484 0.56751 0.46381 0.0
C551 C 0.67815 0.60144 0.45857 0.0
C552 C 0.5971 0.55747 0.48161 0.0
C553 C 0.59281 0.56922 0.51218 0.0
C554 C 0.64865 0.58911 0.47689 0.0
C555 C 0.61731 0.59047 0.52441 0.0
C556 C 0.70457 0.61719 0.47427 0.0
C557 C 0.70533 0.61076 0.40829 0.0
N558 N 0.64404 0.59962 0.50687 0.0
N559 N 0.67953 0.59865 0.42608 0.0
H560 H 0.27543 0.33562 0.13598 0.0
H561 H 0.15233 0.44206 0.15217 0.0
H562 H 0.29089 0.41389 0.1949 0.0
H563 H 0.15142 0.37987 0.07423 0.0
H564 H 0.20181 0.43046 0.16985 0.0
H565 H 0.22926 0.35041 0.11387 0.0
C566 C 0.26953 0.35617 0.1439 0.0
C567 C 0.28712 0.37342 0.16755 0.0
C568 C 0.1908 0.41942 0.14882 0.0
C569 C 0.2336 0.39004 0.14289 0.0
C570 C 0.16254 0.42607 0.13863 0.0
C571 C 0.14751 0.41193 0.11161 0.0
C572 C 0.20411 0.39827 0.1321 0.0
C573 C 0.16172 0.39098 0.0955 0.0
C574 C 0.24293 0.36447 0.13143 0.0
C575 C 0.27777 0.39957 0.17722 0.0
N576 N 0.18913 0.38473 0.10605 0.0
N577 N 0.25151 0.40692 0.16509 0.0
H578 H 0.63616 0.19824 0.89174 0.0
H579 H 0.48667 0.12286 0.99674 0.0
H580 H 0.56419 0.24375 0.92691 0.0
H581 H 0.56337 0.07926 0.97258 0.0
H582 H 0.51423 0.16655 0.9697 0.0
H583 H 0.6097 0.15436 0.91941 0.0
C584 C 0.61494 0.19924 0.90541 0.0
C585 C 0.60269 0.22521 0.9069 0.0
C586 C 0.52517 0.14752 0.97025 0.0
C587 C 0.57174 0.17424 0.93849 0.0
C588 C 0.50939 0.12244 0.98572 0.0
C589 C 0.52262 0.09719 0.98693 0.0
C590 C 0.55458 0.14763 0.95554 0.0
C591 C 0.55222 0.09817 0.97224 0.0
C592 C 0.59971 0.17395 0.92111 0.0
C593 C 0.57456 0.22444 0.92453 0.0
N594 N 0.56713 0.12289 0.9571 0.0
N595 N 0.56018 0.19954 0.93952 0.0
H596 H 0.92386 0.83085 0.35944 0.0
H597 H 0.95956 0.91851 0.52614 0.0
H598 H 0.89929 0.79234 0.45177 0.0
H599 H 0.98331 0.95793 0.43412 0.0
H600 H 0.93805 0.87231 0.49927 0.0
H601 H 0.94618 0.87705 0.38607 0.0
C602 C 0.92299 0.83199 0.38531 0.0
C603 C 0.90932 0.80731 0.40319 0.0
C604 C 0.94795 0.89101 0.48487 0.0
C605 C 0.93543 0.86073 0.43412 0.0
C606 C 0.9603 0.91757 0.50025 0.0
C607 C 0.97342 0.94247 0.48251 0.0
C608 C 0.94856 0.88894 0.45129 0.0
C609 C 0.97349 0.93952 0.44893 0.0
C610 C 0.93596 0.8585 0.40055 0.0
C611 C 0.90972 0.81041 0.43677 0.0
N612 N 0.96132 0.91336 0.4345 0.0
N613 N 0.92237 0.83649 0.45102 0.0
H614 H 0.31859 0.75166 0.53646 0.0
H615 H 0.36287 0.63815 0.65962 0.0
H616 H 0.33993 0.77034 0.63607 0.0
H617 H 0.37107 0.63011 0.5569 0.0
H618 H 0.33565 0.67896 0.65264 0.0
H619 H 0.32025 0.70027 0.54552 0.0
C620 C 0.32333 0.74499 0.56028 0.0
C621 C 0.32983 0.76556 0.58536 0.0
C622 C 0.34278 0.66775 0.63167 0.0
C623 C 0.33103 0.70676 0.59595 0.0
C624 C 0.35833 0.64451 0.63561 0.0
C625 C 0.3701 0.63123 0.60884 0.0
C626 C 0.33897 0.67771 0.60075 0.0
C627 C 0.36269 0.63978 0.57829 0.0
C628 C 0.32396 0.71562 0.56546 0.0
C629 C 0.33477 0.7554 0.61595 0.0
N630 N 0.34815 0.66289 0.57508 0.0
N631 N 0.33567 0.7268 0.62027 0.0
H632 H 0.75816 0.79443 0.70891 0.0
H633 H 0.83276 0.94412 0.63276 0.0
H634 H 0.70518 0.86197 0.69063 0.0
H635 H 0.87995 0.87066 0.63584 0.0
H636 H 0.78299 0.91148 0.64473 0.0
H637 H 0.7985 0.8173 0.67162 0.0
C638 C 0.75435 0.81352 0.69628 0.0
C639 C 0.72855 0.82678 0.7038 0.0
C640 C 0.8041 0.90235 0.64227 0.0
C641 C 0.77559 0.8538 0.66185 0.0
C642 C 0.83254 0.92103 0.63573 0.0
C643 C 0.86053 0.91012 0.63403 0.0
C644 C 0.80374 0.87262 0.64769 0.0
C645 C 0.8589 0.87997 0.63723 0.0
C646 C 0.77774 0.82681 0.67515 0.0
C647 C 0.72523 0.85157 0.68651 0.0
N648 N 0.83106 0.86233 0.6445 0.0
N649 N 0.74892 0.86476 0.667 0.0
H650 H 0.73864 0.24511 0.26806 0.0
H651 H 0.60908 0.10728 0.2151 0.0
H652 H 0.68484 0.18427 0.33412 0.0
H653 H 0.66377 0.16651 0.14808 0.0
H654 H 0.63376 0.13765 0.25913 0.0
H655 H 0.70903 0.21875 0.22383 0.0
C656 C 0.72055 0.22626 0.27325 0.0
C657 C 0.71423 0.21686 0.30481 0.0
C658 C 0.64025 0.14415 0.2348 0.0
C659 C 0.68026 0.18666 0.25442 0.0
C660 C 0.626 0.1269 0.20964 0.0
C661 C 0.63444 0.13433 0.17786 0.0
C662 C 0.66317 0.16902 0.2282 0.0
C663 C 0.6569 0.15975 0.17223 0.0
C664 C 0.70358 0.2113 0.24804 0.0
C665 C 0.69025 0.19253 0.31022 0.0
N666 N 0.67057 0.17614 0.19717 0.0
N667 N 0.67428 0.1782 0.28528 0.0
H668 H 0.42643 0.6013 0.29954 0.0
H669 H 0.4503 0.59734 0.48987 0.0
H670 H 0.39805 0.6648 0.36436 0.0
H671 H 0.48475 0.54008 0.42151 0.0
H672 H 0.42976 0.62171 0.44542 0.0
H673 H 0.44639 0.57825 0.34464 0.0
C674 C 0.42412 0.61037 0.32328 0.0
C675 C 0.41011 0.63505 0.32786 0.0
C676 C 0.44183 0.60381 0.44019 0.0
C677 C 0.43359 0.60853 0.38033 0.0
C678 C 0.45355 0.58979 0.46563 0.0
C679 C 0.46942 0.56645 0.45971 0.0
C680 C 0.44578 0.59445 0.40843 0.0
C681 C 0.4728 0.55788 0.42757 0.0
C682 C 0.4358 0.59721 0.34916 0.0
C683 C 0.40872 0.64597 0.35942 0.0
N684 N 0.46113 0.57175 0.40339 0.0
N685 N 0.42012 0.63262 0.38435 0.0
H686 H 0.09606 0.38486 0.8629 0.0
H687 H 0.05487 0.53921 0.91958 0.0
H688 H 0.11118 0.46195 0.80456 0.0
H689 H 0.02965 0.46142 0.97575 0.0
H690 H 0.077 0.51106 0.87833 0.0
H691 H 0.07286 0.41186 0.90481 0.0
C692 C 0.09433 0.40733 0.8586 0.0
C693 C 0.10584 0.42092 0.82973 0.0
C694 C 0.06685 0.50003 0.89971 0.0
C695 C 0.07951 0.45235 0.87845 0.0
C696 C 0.0542 0.51617 0.92342 0.0
C697 C 0.04081 0.50287 0.95163 0.0
C698 C 0.0662 0.47005 0.90384 0.0
C699 C 0.04048 0.47282 0.95493 0.0
C700 C 0.08121 0.42284 0.88281 0.0
C701 C 0.10326 0.45041 0.82633 0.0
N702 N 0.05297 0.45746 0.9314 0.0
N703 N 0.09053 0.46497 0.85023 0.0
H704 H 0.58686 0.82843 0.95205 0.0
H705 H 0.4952 0.95861 0.94002 0.0
H706 H 0.58079 0.86667 0.85938 0.0
H707 H 0.57025 0.95992 1.0067 0.0
H708 H 0.51031 0.91563 0.91305 0.0
H709 H 0.56226 0.86678 0.97618 0.0
C710 C 0.58002 0.84452 0.93664 0.0
C711 C 0.58685 0.84465 0.90364 0.0
C712 C 0.52333 0.92553 0.93357 0.0
C713 C 0.55766 0.88779 0.93115 0.0
C714 C 0.5149 0.94996 0.94879 0.0
C715 C 0.53186 0.96296 0.97525 0.0
C716 C 0.54795 0.91361 0.94585 0.0
C717 C 0.55694 0.95084 0.98602 0.0
C718 C 0.56587 0.86625 0.95048 0.0
C719 C 0.57615 0.86552 0.88488 0.0
N720 N 0.564 0.92661 0.97151 0.0
N721 N 0.56233 0.88649 0.89896 0.0
H722 H 0.81585 0.13 0.46571 0.0
H723 H 0.98333 0.08808 0.48832 0.0
H724 H 0.90348 0.18087 0.43138 0.0
H725 H 0.89742 0.02936 0.51397 0.0
H726 H 0.95318 0.12014 0.46371 0.0
H727 H 0.84367 0.09098 0.48012 0.0
C728 C 0.84086 0.1328 0.46088 0.0
C729 C 0.85753 0.15884 0.44774 0.0
C730 C 0.94072 0.10014 0.47433 0.0
C731 C 0.88932 0.11457 0.46423 0.0
C732 C 0.95801 0.08168 0.48828 0.0
C733 C 0.94283 0.05599 0.50308 0.0
C734 C 0.90782 0.09326 0.47563 0.0
C735 C 0.90994 0.04903 0.50274 0.0
C736 C 0.85669 0.11058 0.46917 0.0
C737 C 0.88985 0.16143 0.4421 0.0
N738 N 0.89339 0.06782 0.48953 0.0
N739 N 0.90468 0.13968 0.45056 0.0
H740 H 0.2358 0.59577 0.17426 0.0
H741 H 0.09115 0.61187 0.06266 0.0
H742 H 0.22738 0.67653 0.12934 0.0
H743 H 0.10719 0.52941 0.09758 0.0
H744 H 0.13935 0.63641 0.08877 0.0
H745 H 0.18705 0.57187 0.14892 0.0
C746 C 0.2236 0.60862 0.15935 0.0
C747 C 0.23595 0.63835 0.15409 0.0
C748 C 0.13234 0.61293 0.09066 0.0
C749 C 0.17985 0.6108 0.12448 0.0
C750 C 0.10473 0.59883 0.07572 0.0
C751 C 0.09486 0.56835 0.07769 0.0
C752 C 0.15031 0.59657 0.10801 0.0
C753 C 0.11369 0.55284 0.09511 0.0
C754 C 0.19581 0.59484 0.14462 0.0
C755 C 0.21911 0.65356 0.13393 0.0
N756 N 0.14029 0.56707 0.10957 0.0
N757 N 0.19203 0.63968 0.11997 0.0
H758 H 0.30086 0.45844 0.6839 0.0
H759 H 0.4117 0.43468 0.53364 0.0
H760 H 0.28268 0.38514 0.61801 0.0
H761 H 0.43217 0.51058 0.59544 0.0
H762 H 0.36361 0.4177 0.56409 0.0
H763 H 0.34786 0.47891 0.65223 0.0
C764 C 0.30662 0.44658 0.66283 0.0
C765 C 0.28745 0.41984 0.65383 0.0
C766 C 0.37842 0.43814 0.57112 0.0
C767 C 0.34151 0.44348 0.61718 0.0
C768 C 0.40604 0.44794 0.55365 0.0
C769 C 0.42626 0.47415 0.56197 0.0
C770 C 0.37055 0.45449 0.59752 0.0
C771 C 0.41741 0.49028 0.58816 0.0
C772 C 0.33347 0.45843 0.64465 0.0
C773 C 0.29617 0.40592 0.62589 0.0
N774 N 0.3903 0.48015 0.6051 0.0
N775 N 0.32243 0.41779 0.60881 0.0
H776 H 0.7409 0.70249 0.92747 0.0
H777 H 0.90174 0.64858 0.90083 0.0
H778 H 0.78485 0.69946 0.83425 0.0
H779 H 0.84155 0.62344 0.98288 0.0
H780 H 0.85923 0.66777 0.87608 0.0
H781 H 0.77655 0.67277 0.94826 0.0
C782 C 0.75757 0.69511 0.91118 0.0
C783 C 0.76015 0.70392 0.87913 0.0
C784 C 0.85519 0.65775 0.89935 0.0
C785 C 0.80157 0.67055 0.90305 0.0
C786 C 0.87949 0.647 0.91352 0.0
C787 C 0.87512 0.63455 0.94394 0.0
C788 C 0.82652 0.65651 0.91598 0.0
C789 C 0.84577 0.63276 0.9593 0.0
C790 C 0.77808 0.67829 0.92316 0.0
C791 C 0.78253 0.69388 0.85932 0.0
N792 N 0.82268 0.64395 0.94532 0.0
N793 N 0.80268 0.67813 0.8717 0.0
H794 H 0.4624 0.82124 0.18741 0.0
H795 H 0.43083 0.95915 0.08931 0.0
H796 H 0.37236 0.8213 0.14498 0.0
H797 H 0.52206 0.93678 0.10005 0.0
H798 H 0.40709 0.91333 0.11664 0.0
H799 H 0.48264 0.86825 0.16301 0.0
C800 C 0.44676 0.8309 0.1729 0.0
C801 C 0.41556 0.81653 0.16803 0.0
C802 C 0.43231 0.91862 0.11304 0.0
C803 C 0.43883 0.87157 0.14038 0.0
C804 C 0.44585 0.94479 0.09758 0.0
C805 C 0.47851 0.9519 0.09235 0.0
C806 C 0.45166 0.89977 0.12389 0.0
C807 C 0.4968 0.93232 0.10342 0.0
C808 C 0.45841 0.85802 0.15907 0.0
C809 C 0.39648 0.83127 0.14975 0.0
N810 N 0.48322 0.90745 0.1187 0.0
N811 N 0.40839 0.85783 0.13658 0.0
H812 H 0.11839 0.21273 0.70518 0.0
H813 H 0.05908 0.13571 0.53812 0.0
H814 H 0.10907 0.26134 0.62018 0.0
H815 H 0.0535 0.08958 0.62725 0.0
H816 H 0.07946 0.18143 0.56689 0.0
H817 H 0.09674 0.16744 0.67648 0.0
C818 C 0.11186 0.21396 0.68043 0.0
C819 C 0.11581 0.24115 0.66518 0.0
C820 C 0.07375 0.16133 0.58019 0.0
C821 C 0.09075 0.18881 0.63187 0.0
C822 C 0.06216 0.13509 0.56373 0.0
C823 C 0.05445 0.10849 0.58015 0.0
C824 C 0.07803 0.16121 0.61345 0.0
C825 C 0.05901 0.10937 0.61343 0.0
C826 C 0.09932 0.18798 0.66405 0.0
C827 C 0.10633 0.24108 0.63313 0.0
N828 N 0.07053 0.13515 0.62885 0.0
N829 N 0.0945 0.21542 0.61756 0.0
H830 H 0.66405 0.24462 0.48586 0.0
H831 H 0.58961 0.37635 0.55372 0.0
H832 H 0.71345 0.31592 0.54324 0.0
H833 H 0.56001 0.32583 0.46857 0.0
H834 H 0.62316 0.34155 0.56666 0.0
H835 H 0.61494 0.2613 0.49765 0.0
C836 C 0.6644 0.26311 0.502 0.0
C837 C 0.6929 0.27934 0.51309 0.0
C838 C 0.60862 0.33766 0.54565 0.0
C839 C 0.637 0.29868 0.52612 0.0
C840 C 0.58941 0.35739 0.5383 0.0
C841 C 0.57253 0.35411 0.50973 0.0
C842 C 0.61073 0.31453 0.52434 0.0
C843 C 0.57317 0.32933 0.49051 0.0
C844 C 0.63639 0.27273 0.50848 0.0
C845 C 0.692 0.30321 0.53372 0.0
N846 N 0.59238 0.31065 0.49793 0.0
N847 N 0.66452 0.31256 0.53908 0.0
loop_
_geom_bond_atom_site_label_1
_geom_bond_atom_site_label_2
_geom_bond_distance
_geom_bond_site_symmetry_2
_ccdc_geom_bond_type
P0 O11 1.490 . S
P0 C14 1.812 . S
P0 C20 1.803 . S
P0 C26 1.819 . S
H1 C15 0.941 . S
H2 C16 0.939 . S
H3 C18 0.940 . S
H4 C19 0.940 . S
H5 C21 0.939 . S
H6 C22 0.942 . S
H7 C24 0.940 . S
H8 C25 0.939 . S
H9 C27 0.941 . S
H10 C31 0.939 . S
O11 P0 1.490 . S
H12 C28 0.939 . S
H13 C30 0.940 . S
C14 P0 1.812 . S
C14 C15 1.389 . S
C14 C19 1.391 . S
C15 H1 0.941 . S
C15 C14 1.389 . S
C15 C16 1.397 . S
C16 H2 0.939 . S
C16 C15 1.397 . S
C16 C17 1.378 . S
C17 C16 1.378 . S
C17 C18 1.378 . S
C18 H3 0.940 . S
C18 C17 1.378 . S
C18 C19 1.396 . S
C19 H4 0.940 . S
C19 C14 1.391 . S
C19 C18 1.396 . S
C20 P0 1.803 . S
C20 C21 1.378 . S
C20 C25 1.400 . S
C21 H5 0.939 . S
C21 C20 1.378 . S
C21 C22 1.361 . S
C22 H6 0.942 . S
C22 C21 1.361 . S
C22 C23 1.369 . S
C23 C22 1.369 . S
C23 C24 1.404 . S
C24 H7 0.940 . S
C24 C23 1.404 . S
C24 C25 1.389 . S
C25 H8 0.939 . S
C25 C20 1.400 . S
C25 C24 1.389 . S
C26 P0 1.819 . S
C26 C27 1.391 . S
C26 C31 1.391 . S
C27 H9 0.941 . S
C27 C26 1.391 . S
C27 C28 1.396 . S
C28 H12 0.939 . S
C28 C27 1.396 . S
C28 C29 1.397 . S
C29 C28 1.397 . S
C29 C30 1.385 . S
C30 H13 0.940 . S
C30 C29 1.385 . S
C30 C31 1.388 . S
C31 H10 0.939 . S
C31 C26 1.391 . S
C31 C30 1.388 . S
P32 O43 1.490 . S
P32 C46 1.812 . S
P32 C52 1.803 . S
P32 C58 1.819 . S
H33 C47 0.941 . S
H34 C48 0.939 . S
H35 C50 0.940 . S
H36 C51 0.940 . S
H37 C53 0.939 . S
H38 C54 0.942 . S
H39 C56 0.940 . S
H40 C57 0.939 . S
H41 C59 0.941 . S
H42 C63 0.939 . S
O43 P32 1.490 . S
H44 C60 0.939 . S
H45 C62 0.940 . S
C46 P32 1.812 . S
C46 C47 1.389 . S
C46 C51 1.391 . S
C47 H33 0.941 . S
C47 C46 1.389 . S
C47 C48 1.397 . S
C48 H34 0.939 . S
C48 C47 1.397 . S
C48 C49 1.378 . S
C49 C48 1.378 . S
C49 C50 1.378 . S
C50 H35 0.940 . S
C50 C49 1.378 . S
C50 C51 1.396 . S
C51 H36 0.940 . S
C51 C46 1.391 . S
C51 C50 1.396 . S
C52 P32 1.803 . S
C52 C53 1.378 . S
C52 C57 1.400 . S
C53 H37 0.939 . S
C53 C52 1.378 . S
C53 C54 1.361 . S
C54 H38 0.942 . S
C54 C53 1.361 . S
C54 C55 1.369 . S
C55 C54 1.369 . S
C55 C56 1.404 . S
C56 H39 0.940 . S
C56 C55 1.404 . S
C56 C57 1.389 . S
C57 H40 0.939 . S
C57 C52 1.400 . S
C57 C56 1.389 . S
C58 P32 1.819 . S
C58 C59 1.391 . S
C58 C63 1.391 . S
C59 H41 0.941 . S
C59 C58 1.391 . S
C59 C60 1.396 . S
C60 H44 0.939 . S
C60 C59 1.396 . S
C60 C61 1.397 . S
C61 C60 1.397 . S
C61 C62 1.385 . S
C62 H45 0.940 . S
C62 C61 1.385 . S
C62 C63 1.388 . S
C63 H42 0.939 . S
C63 C58 1.391 . S
C63 C62 1.388 . S
P64 O75 1.490 . S
P64 C78 1.812 . S
P64 C84 1.803 . S
P64 C90 1.819 . S
H65 C79 0.941 . S
H66 C80 0.939 . S
H67 C82 0.940 . S
H68 C83 0.940 . S
H69 C85 0.939 . S
H70 C86 0.942 . S
H71 C88 0.940 . S
H72 C89 0.939 . S
H73 C91 0.941 . S
H74 C95 0.939 . S
O75 P64 1.490 . S
H76 C92 0.939 . S
H77 C94 0.940 . S
C78 P64 1.812 . S
C78 C79 1.389 . S
C78 C83 1.391 . S
C79 H65 0.941 . S
C79 C78 1.389 . S
C79 C80 1.397 . S
C80 H66 0.939 . S
C80 C79 1.397 . S
C80 C81 1.378 . S
C81 C80 1.378 . S
C81 C82 1.378 . S
C82 H67 0.940 . S
C82 C81 1.378 . S
C82 C83 1.396 . S
C83 H68 0.940 . S
C83 C78 1.391 . S
C83 C82 1.396 . S
C84 P64 1.803 . S
C84 C85 1.378 . S
C84 C89 1.400 . S
C85 H69 0.939 . S
C85 C84 1.378 . S
C85 C86 1.361 . S
C86 H70 0.942 . S
C86 C85 1.361 . S
C86 C87 1.369 . S
C87 C86 1.369 . S
C87 C88 1.404 . S
C88 H71 0.940 . S
C88 C87 1.404 . S
C88 C89 1.389 . S
C89 H72 0.939 . S
C89 C84 1.400 . S
C89 C88 1.389 . S
C90 P64 1.819 . S
C90 C91 1.391 . S
C90 C95 1.391 . S
C91 H73 0.941 . S
C91 C90 1.391 . S
C91 C92 1.396 . S
C92 H76 0.939 . S
C92 C91 1.396 . S
C92 C93 1.397 . S
C93 C92 1.397 . S
C93 C94 1.385 . S
C94 H77 0.940 . S
C94 C93 1.385 . S
C94 C95 1.388 . S
C95 H74 0.939 . S
C95 C90 1.391 . S
C95 C94 1.388 . S
P96 O107 1.490 . S
P96 C110 1.812 . S
P96 C116 1.803 . S
P96 C122 1.819 . S
H97 C111 0.941 . S
H98 C112 0.939 . S
H99 C114 0.940 . S
H100 C115 0.940 . S
H101 C117 0.939 . S
H102 C118 0.942 . S
H103 C120 0.940 . S
H104 C121 0.939 . S
H105 C123 0.941 . S
H106 C127 0.939 . S
O107 P96 1.490 . S
H108 C124 0.939 . S
H109 C126 0.940 . S
C110 P96 1.812 . S
C110 C111 1.389 . S
C110 C115 1.391 . S
C111 H97 0.941 . S
C111 C110 1.389 . S
C111 C112 1.397 . S
C112 H98 0.939 . S
C112 C111 1.397 . S
C112 C113 1.378 . S
C113 C112 1.378 . S
C113 C114 1.378 . S
C114 H99 0.940 . S
C114 C113 1.378 . S
C114 C115 1.396 . S
C115 H100 0.940 . S
C115 C110 1.391 . S
C115 C114 1.396 . S
C116 P96 1.803 . S
C116 C117 1.378 . S
C116 C121 1.400 . S
C117 H101 0.939 . S
C117 C116 1.378 . S
C117 C118 1.361 . S
C118 H102 0.942 . S
C118 C117 1.361 . S
C118 C119 1.369 . S
C119 C118 1.369 . S
C119 C120 1.404 . S
C120 H103 0.940 . S
C120 C119 1.404 . S
C120 C121 1.389 . S
C121 H104 0.939 . S
C121 C116 1.400 . S
C121 C120 1.389 . S
C122 P96 1.819 . S
C122 C123 1.391 . S
C122 C127 1.391 . S
C123 H105 0.941 . S
C123 C122 1.391 . S
C123 C124 1.396 . S
C124 H108 0.939 . S
C124 C123 1.396 . S
C124 C125 1.397 . S
C125 C124 1.397 . S
C125 C126 1.385 . S
C126 H109 0.940 . S
C126 C125 1.385 . S
C126 C127 1.388 . S
C127 H106 0.939 . S
C127 C122 1.391 . S
C127 C126 1.388 . S
P128 O139 1.490 . S
P128 C142 1.812 . S
P128 C148 1.803 . S
P128 C154 1.819 . S
H129 C143 0.941 . S
H130 C144 0.939 . S
H131 C146 0.940 . S
H132 C147 0.940 . S
H133 C149 0.939 . S
H134 C150 0.942 . S
H135 C152 0.940 . S
H136 C153 0.939 . S
H137 C155 0.941 . S
H138 C159 0.939 . S
O139 P128 1.490 . S
H140 C156 0.939 . S
H141 C158 0.940 . S
C142 P128 1.812 . S
C142 C143 1.389 . S
C142 C147 1.391 . S
C143 H129 0.941 . S
C143 C142 1.389 . S
C143 C144 1.397 . S
C144 H130 0.939 . S
C144 C143 1.397 . S
C144 C145 1.378 . S
C145 C144 1.378 . S
C145 C146 1.378 . S
C146 H131 0.940 . S
C146 C145 1.378 . S
C146 C147 1.396 . S
C147 H132 0.940 . S
C147 C142 1.391 . S
C147 C146 1.396 . S
C148 P128 1.803 . S
C148 C149 1.378 . S
C148 C153 1.400 . S
C149 H133 0.939 . S
C149 C148 1.378 . S
C149 C150 1.361 . S
C150 H134 0.942 . S
C150 C149 1.361 . S
C150 C151 1.369 . S
C151 C150 1.369 . S
C151 C152 1.404 . S
C152 H135 0.940 . S
C152 C151 1.404 . S
C152 C153 1.389 . S
C153 H136 0.939 . S
C153 C148 1.400 . S
C153 C152 1.389 . S
C154 P128 1.819 . S
C154 C155 1.391 . S
C154 C159 1.391 . S
C155 H137 0.941 . S
C155 C154 1.391 . S
C155 C156 1.396 . S
C156 H140 0.939 . S
C156 C155 1.396 . S
C156 C157 1.397 . S
C157 C156 1.397 . S
C157 C158 1.385 . S
C158 H141 0.940 . S
C158 C157 1.385 . S
C158 C159 1.388 . S
C159 H138 0.939 . S
C159 C154 1.391 . S
C159 C158 1.388 . S
P160 O171 1.490 . S
P160 C174 1.812 . S
P160 C180 1.803 . S
P160 C186 1.819 . S
H161 C175 0.941 . S
H162 C176 0.939 . S
H163 C178 0.940 . S
H164 C179 0.940 . S
H165 C181 0.939 . S
H166 C182 0.942 . S
H167 C184 0.940 . S
H168 C185 0.939 . S
H169 C187 0.941 . S
H170 C191 0.939 . S
O171 P160 1.490 . S
H172 C188 0.939 . S
H173 C190 0.940 . S
C174 P160 1.812 . S
C174 C175 1.389 . S
C174 C179 1.391 . S
C175 H161 0.941 . S
C175 C174 1.389 . S
C175 C176 1.397 . S
C176 H162 0.939 . S
C176 C175 1.397 . S
C176 C177 1.378 . S
C177 C176 1.378 . S
C177 C178 1.378 . S
C178 H163 0.940 . S
C178 C177 1.378 . S
C178 C179 1.396 . S
C179 H164 0.940 . S
C179 C174 1.391 . S
C179 C178 1.396 . S
C180 P160 1.803 . S
C180 C181 1.378 . S
C180 C185 1.400 . S
C181 H165 0.939 . S
C181 C180 1.378 . S
C181 C182 1.361 . S
C182 H166 0.942 . S
C182 C181 1.361 . S
C182 C183 1.369 . S
C183 C182 1.369 . S
C183 C184 1.404 . S
C184 H167 0.940 . S
C184 C183 1.404 . S
C184 C185 1.389 . S
C185 H168 0.939 . S
C185 C180 1.400 . S
C185 C184 1.389 . S
C186 P160 1.819 . S
C186 C187 1.391 . S
C186 C191 1.391 . S
C187 H169 0.941 . S
C187 C186 1.391 . S
C187 C188 1.396 . S
C188 H172 0.939 . S
C188 C187 1.396 . S
C188 C189 1.397 . S
C189 C188 1.397 . S
C189 C190 1.385 . S
C190 H173 0.940 . S
C190 C189 1.385 . S
C190 C191 1.388 . S
C191 H170 0.939 . S
C191 C186 1.391 . S
C191 C190 1.388 . S
P192 O203 1.490 . S
P192 C206 1.812 . S
P192 C212 1.803 . S
P192 C218 1.819 . S
H193 C207 0.941 . S
H194 C208 0.939 . S
H195 C210 0.940 . S
H196 C211 0.940 . S
H197 C213 0.939 . S
H198 C214 0.942 . S
H199 C216 0.940 . S
H200 C217 0.939 . S
H201 C219 0.941 . S
H202 C223 0.939 . S
O203 P192 1.490 . S
H204 C220 0.939 . S
H205 C222 0.940 . S
C206 P192 1.812 . S
C206 C207 1.389 . S
C206 C211 1.391 . S
C207 H193 0.941 . S
C207 C206 1.389 . S
C207 C208 1.397 . S
C208 H194 0.939 . S
C208 C207 1.397 . S
C208 C209 1.378 . S
C209 C208 1.378 . S
C209 C210 1.378 . S
C210 H195 0.940 . S
C210 C209 1.378 . S
C210 C211 1.396 . S
C211 H196 0.940 . S
C211 C206 1.391 . S
C211 C210 1.396 . S
C212 P192 1.803 . S
C212 C213 1.378 . S
C212 C217 1.400 . S
C213 H197 0.939 . S
C213 C212 1.378 . S
C213 C214 1.361 . S
C214 H198 0.942 . S
C214 C213 1.361 . S
C214 C215 1.369 . S
C215 C214 1.369 . S
C215 C216 1.404 . S
C216 H199 0.940 . S
C216 C215 1.404 . S
C216 C217 1.389 . S
C217 H200 0.939 . S
C217 C212 1.400 . S
C217 C216 1.389 . S
C218 P192 1.819 . S
C218 C219 1.391 . S
C218 C223 1.391 . S
C219 H201 0.941 . S
C219 C218 1.391 . S
C219 C220 1.396 . S
C220 H204 0.939 . S
C220 C219 1.396 . S
C220 C221 1.397 . S
C221 C220 1.397 . S
C221 C222 1.385 . S
C222 H205 0.940 . S
C222 C221 1.385 . S
C222 C223 1.388 . S
C223 H202 0.939 . S
C223 C218 1.391 . S
C223 C222 1.388 . S
P224 O235 1.490 . S
P224 C238 1.812 . S
P224 C244 1.803 . S
P224 C250 1.819 . S
H225 C239 0.941 . S
H226 C240 0.939 . S
H227 C242 0.940 . S
H228 C243 0.940 . S
H229 C245 0.939 . S
H230 C246 0.942 . S
H231 C248 0.940 . S
H232 C249 0.939 . S
H233 C251 0.941 . S
H234 C255 0.939 . S
O235 P224 1.490 . S
H236 C252 0.939 . S
H237 C254 0.940 . S
C238 P224 1.812 . S
C238 C239 1.389 . S
C238 C243 1.391 . S
C239 H225 0.941 . S
C239 C238 1.389 . S
C239 C240 1.397 . S
C240 H226 0.939 . S
C240 C239 1.397 . S
C240 C241 1.378 . S
C241 C240 1.378 . S
C241 C242 1.378 . S
C242 H227 0.940 . S
C242 C241 1.378 . S
C242 C243 1.396 . S
C243 H228 0.940 . S
C243 C238 1.391 . S
C243 C242 1.396 . S
C244 P224 1.803 . S
C244 C245 1.378 . S
C244 C249 1.400 . S
C245 H229 0.939 . S
C245 C244 1.378 . S
C245 C246 1.361 . S
C246 H230 0.942 . S
C246 C245 1.361 . S
C246 C247 1.369 . S
C247 C246 1.369 . S
C247 C248 1.404 . S
C248 H231 0.940 . S
C248 C247 1.404 . S
C248 C249 1.389 . S
C249 H232 0.939 . S
C249 C244 1.400 . S
C249 C248 1.389 . S
C250 P224 1.819 . S
C250 C251 1.391 . S
C250 C255 1.391 . S
C251 H233 0.941 . S
C251 C250 1.391 . S
C251 C252 1.396 . S
C252 H236 0.939 . S
C252 C251 1.396 . S
C252 C253 1.397 . S
C253 C252 1.397 . S
C253 C254 1.385 . S
C254 H237 0.940 . S
C254 C253 1.385 . S
C254 C255 1.388 . S
C255 H234 0.939 . S
C255 C250 1.391 . S
C255 C254 1.388 . S
Sm256 C258 2.846 . S
Sm256 O276 2.543 . S
Sm256 O277 2.450 . S
Sm256 O278 2.681 1_545 S
Sm256 O279 2.464 1_545 S
Sm256 O280 2.396 . S
Sm256 O284 2.386 1_455 S
Sm256 O287 2.408 1_445 S
Sm257 C267 2.846 . S
Sm257 O278 2.386 1_655 S
Sm257 O281 2.408 1_665 S
Sm257 O282 2.543 . S
Sm257 O283 2.450 . S
Sm257 O284 2.681 1_565 S
Sm257 O285 2.464 1_565 S
Sm257 O286 2.396 . S
C258 Sm256 2.846 . S
C258 C259 1.506 . S
C258 O276 1.261 . S
C258 O277 1.242 . S
C259 C258 1.506 . S
C259 C260 1.358 . S
C259 C264 1.382 . S
C260 C259 1.358 . S
C260 C261 1.385 . S
C260 H288 0.930 . S
C261 C260 1.385 . S
C261 C262 1.395 . S
C261 H289 0.929 . S
C262 C261 1.395 . S
C262 C263 1.335 . S
C263 C262 1.335 . S
C263 C264 1.398 . S
C263 H290 0.930 . S
C264 C259 1.382 . S
C264 C263 1.398 . S
C264 H291 0.929 . S
C265 O278 1.271 . S
C265 O279 1.251 . S
C266 O280 1.252 . S
C266 O281 1.272 . S
C267 Sm257 2.846 . S
C267 C268 1.506 . S
C267 O282 1.261 . S
C267 O283 1.242 . S
C268 C267 1.506 . S
C268 C269 1.358 . S
C268 C273 1.382 . S
C269 C268 1.358 . S
C269 C270 1.385 . S
C269 H292 0.930 . S
C270 C269 1.385 . S
C270 C271 1.395 . S
C270 H293 0.929 . S
C271 C270 1.395 . S
C271 C272 1.335 . S
C272 C271 1.335 . S
C272 C273 1.398 . S
C272 H294 0.930 . S
C273 C268 1.382 . S
C273 C272 1.398 . S
C273 H295 0.929 . S
C274 O284 1.271 . S
C274 O285 1.251 . S
C275 O286 1.252 . S
C275 O287 1.272 . S
O276 Sm256 2.543 . S
O276 C258 1.261 . S
O277 Sm256 2.450 . S
O277 C258 1.242 . S
O278 Sm256 2.681 1_565 S
O278 Sm257 2.386 1_455 S
O278 C265 1.271 . S
O279 Sm256 2.464 1_565 S
O279 C265 1.251 . S
O280 Sm256 2.396 . S
O280 C266 1.252 . S
O281 Sm257 2.408 1_445 S
O281 C266 1.272 . S
O282 Sm257 2.543 . S
O282 C267 1.261 . S
O283 Sm257 2.450 . S
O283 C267 1.242 . S
O284 Sm256 2.386 1_655 S
O284 Sm257 2.681 1_545 S
O284 C274 1.271 . S
O285 Sm257 2.464 1_545 S
O285 C274 1.251 . S
O286 Sm257 2.396 . S
O286 C275 1.252 . S
O287 Sm256 2.408 1_665 S
O287 C275 1.272 . S
H288 C260 0.930 . S
H289 C261 0.929 . S
H290 C263 0.930 . S
H291 C264 0.929 . S
H292 C269 0.930 . S
H293 C270 0.929 . S
H294 C272 0.930 . S
H295 C273 0.929 . S
Sm296 C298 2.846 . S
Sm296 O316 2.543 . S
Sm296 O317 2.450 . S
Sm296 O318 2.681 1_545 S
Sm296 O319 2.464 1_545 S
Sm296 O320 2.396 . S
Sm296 O324 2.386 1_554 S
Sm296 O327 2.408 1_544 S
Sm297 C307 2.846 1_545 S
Sm297 O318 2.386 1_546 S
Sm297 O321 2.408 1_556 S
Sm297 O322 2.543 1_545 S
Sm297 O323 2.450 . S
Sm297 O324 2.681 . S
Sm297 O325 2.464 . S
Sm297 O326 2.396 1_545 S
C298 Sm296 2.846 . S
C298 C299 1.506 . S
C298 O316 1.261 . S
C298 O317 1.242 . S
C299 C298 1.506 . S
C299 C300 1.358 . S
C299 C304 1.382 . S
C300 C299 1.358 . S
C300 C301 1.385 . S
C300 H328 0.930 . S
C301 C300 1.385 . S
C301 C302 1.395 . S
C301 H329 0.929 . S
C302 C301 1.395 . S
C302 C303 1.335 . S
C303 C302 1.335 . S
C303 C304 1.398 . S
C303 H330 0.930 . S
C304 C299 1.382 . S
C304 C303 1.398 . S
C304 H331 0.929 . S
C305 O318 1.271 . S
C305 O319 1.251 . S
C306 O320 1.252 . S
C306 O321 1.272 . S
C307 Sm297 2.846 1_565 S
C307 C308 1.506 . S
C307 O322 1.261 . S
C307 O323 1.235 1_565 S
C308 C307 1.506 . S
C308 C309 1.358 . S
C308 C313 1.382 . S
C309 C308 1.358 . S
C309 C310 1.385 . S
C309 H332 0.930 . S
C310 C309 1.385 . S
C310 C311 1.395 . S
C310 H333 0.929 . S
C311 C310 1.395 . S
C311 C312 1.335 . S
C312 C311 1.335 . S
C312 C313 1.398 . S
C312 H334 0.930 . S
C313 C308 1.382 . S
C313 C312 1.398 . S
C313 H335 0.929 . S
C314 O324 1.271 . S
C314 O325 1.251 . S
C315 O326 1.252 . S
C315 O327 1.272 . S
O316 Sm296 2.543 . S
O316 C298 1.261 . S
O317 Sm296 2.450 . S
O317 C298 1.242 . S
O318 Sm296 2.681 1_565 S
O318 Sm297 2.386 1_564 S
O318 C305 1.271 . S
O319 Sm296 2.464 1_565 S
O319 C305 1.251 . S
O320 Sm296 2.396 . S
O320 C306 1.252 . S
O321 Sm297 2.408 1_554 S
O321 C306 1.272 . S
O322 Sm297 2.543 1_565 S
O322 C307 1.261 . S
O323 Sm297 2.450 . S
O323 C307 1.235 1_545 S
O324 Sm296 2.386 1_556 S
O324 Sm297 2.681 . S
O324 C314 1.271 . S
O325 Sm297 2.464 . S
O325 C314 1.251 . S
O326 Sm297 2.396 1_565 S
O326 C315 1.252 . S
O327 Sm296 2.408 1_566 S
O327 C315 1.272 . S
H328 C300 0.930 . S
H329 C301 0.929 . S
H330 C303 0.930 . S
H331 C304 0.929 . S
H332 C309 0.930 . S
H333 C310 0.929 . S
H334 C312 0.930 . S
H335 C313 0.929 . S
Sm336 C338 2.846 . S
Sm336 O356 2.543 . S
Sm336 O357 2.450 . S
Sm336 O358 2.681 . S
Sm336 O359 2.464 . S
Sm336 O360 2.396 . S
Sm336 O364 2.386 . S
Sm336 O367 2.408 . S
Sm337 C347 2.846 . S
Sm337 O358 2.386 . S
Sm337 O361 2.408 . S
Sm337 O362 2.543 . S
Sm337 O363 2.450 . S
Sm337 O364 2.681 . S
Sm337 O365 2.464 . S
Sm337 O366 2.396 . S
C338 Sm336 2.846 . S
C338 C339 1.506 . S
C338 O356 1.261 . S
C338 O357 1.242 . S
C339 C338 1.506 . S
C339 C340 1.358 . S
C339 C344 1.382 . S
C340 C339 1.358 . S
C340 C341 1.385 . S
C340 H368 0.930 . S
C341 C340 1.385 . S
C341 C342 1.395 . S
C341 H369 0.929 . S
C342 C341 1.395 . S
C342 C343 1.335 . S
C343 C342 1.335 . S
C343 C344 1.398 . S
C343 H370 0.930 . S
C344 C339 1.382 . S
C344 C343 1.398 . S
C344 H371 0.929 . S
C345 O358 1.271 . S
C345 O359 1.251 . S
C346 O360 1.252 . S
C346 O361 1.272 . S
C347 Sm337 2.846 . S
C347 C348 1.506 . S
C347 O362 1.261 . S
C347 O363 1.242 . S
C348 C347 1.506 . S
C348 C349 1.358 . S
C348 C353 1.382 . S
C349 C348 1.358 . S
C349 C350 1.385 . S
C349 H372 0.930 . S
C350 C349 1.385 . S
C350 C351 1.395 . S
C350 H373 0.929 . S
C351 C350 1.395 . S
C351 C352 1.335 . S
C352 C351 1.335 . S
C352 C353 1.398 . S
C352 H374 0.930 . S
C353 C348 1.382 . S
C353 C352 1.398 . S
C353 H375 0.929 . S
C354 O364 1.271 . S
C354 O365 1.251 . S
C355 O366 1.252 . S
C355 O367 1.272 . S
O356 Sm336 2.543 . S
O356 C338 1.261 . S
O357 Sm336 2.450 . S
O357 C338 1.242 . S
O358 Sm336 2.681 . S
O358 Sm337 2.386 . S
O358 C345 1.271 . S
O359 Sm336 2.464 . S
O359 C345 1.251 . S
O360 Sm336 2.396 . S
O360 C346 1.252 . S
O361 Sm337 2.408 . S
O361 C346 1.272 . S
O362 Sm337 2.543 . S
O362 C347 1.261 . S
O363 Sm337 2.450 . S
O363 C347 1.242 . S
O364 Sm336 2.386 . S
O364 Sm337 2.681 . S
O364 C354 1.271 . S
O365 Sm337 2.464 . S
O365 C354 1.251 . S
O366 Sm337 2.396 . S
O366 C355 1.252 . S
O367 Sm336 2.408 . S
O367 C355 1.272 . S
H368 C340 0.930 . S
H369 C341 0.929 . S
H370 C343 0.930 . S
H371 C344 0.929 . S
H372 C349 0.930 . S
H373 C350 0.929 . S
H374 C352 0.930 . S
H375 C353 0.929 . S
Sm376 C378 2.846 . S
Sm376 O396 2.543 . S
Sm376 O397 2.450 . S
Sm376 O398 2.681 1_455 S
Sm376 O399 2.464 1_455 S
Sm376 O400 2.396 . S
Sm376 O404 2.386 1_554 S
Sm376 O407 2.391 1_454 S
Sm377 C387 2.846 . S
Sm377 O398 2.386 1_556 S
Sm377 O401 2.408 1_656 S
Sm377 O402 2.543 . S
Sm377 O403 2.450 . S
Sm377 O404 2.681 1_655 S
Sm377 O405 2.464 1_655 S
Sm377 O406 2.396 . S
C378 Sm376 2.846 . S
C378 C379 1.506 . S
C378 O396 1.261 . S
C378 O397 1.242 . S
C379 C378 1.506 . S
C379 C380 1.358 . S
C379 C384 1.382 . S
C380 C379 1.358 . S
C380 C381 1.385 . S
C380 H408 0.930 . S
C381 C380 1.385 . S
C381 C382 1.395 . S
C381 H409 0.929 . S
C382 C381 1.395 . S
C382 C383 1.335 . S
C383 C382 1.335 . S
C383 C384 1.398 . S
C383 H410 0.930 . S
C384 C379 1.382 . S
C384 C383 1.398 . S
C384 H411 0.929 . S
C385 O398 1.271 . S
C385 O399 1.251 . S
C386 O400 1.252 . S
C386 O401 1.272 . S
C387 Sm377 2.846 . S
C387 C388 1.506 . S
C387 O402 1.261 . S
C387 O403 1.242 . S
C388 C387 1.506 . S
C388 C389 1.358 . S
C388 C393 1.382 . S
C389 C388 1.358 . S
C389 C390 1.385 . S
C389 H412 0.930 . S
C390 C389 1.385 . S
C390 C391 1.395 . S
C390 H413 0.929 . S
C391 C390 1.395 . S
C391 C392 1.335 . S
C392 C391 1.335 . S
C392 C393 1.398 . S
C392 H414 0.930 . S
C393 C388 1.382 . S
C393 C392 1.398 . S
C393 H415 0.929 . S
C394 O404 1.271 . S
C394 O405 1.251 . S
C395 O406 1.252 . S
C395 O407 1.294 . S
O396 Sm376 2.543 . S
O396 C378 1.261 . S
O397 Sm376 2.450 . S
O397 C378 1.242 . S
O398 Sm376 2.681 1_655 S
O398 Sm377 2.386 1_554 S
O398 C385 1.271 . S
O399 Sm376 2.464 1_655 S
O399 C385 1.251 . S
O400 Sm376 2.396 . S
O400 C386 1.252 . S
O401 Sm377 2.408 1_454 S
O401 C386 1.272 . S
O402 Sm377 2.543 . S
O402 C387 1.261 . S
O403 Sm377 2.450 . S
O403 C387 1.242 . S
O404 Sm376 2.386 1_556 S
O404 Sm377 2.681 1_455 S
O404 C394 1.271 . S
O405 Sm377 2.464 1_455 S
O405 C394 1.251 . S
O406 Sm377 2.396 . S
O406 C395 1.252 . S
O407 Sm376 2.391 1_656 S
O407 C395 1.294 . S
H408 C380 0.930 . S
H409 C381 0.929 . S
H410 C383 0.930 . S
H411 C384 0.929 . S
H412 C389 0.930 . S
H413 C390 0.929 . S
H414 C392 0.930 . S
H415 C393 0.929 . S
H416 C422 0.930 . S
H417 C426 0.930 . S
H418 C431 0.929 . S
H419 C429 0.929 . S
H420 C424 0.929 . S
H421 C430 0.929 . S
C422 H416 0.930 . S
C422 C423 1.367 . S
C422 C430 1.378 . S
C423 C422 1.367 . S
C423 C431 1.433 . S
C424 H420 0.929 . S
C424 C426 1.378 . S
C424 C428 1.350 . S
C425 C428 1.463 . S
C425 C430 1.350 . S
C425 N433 1.427 . S
C426 H417 0.930 . S
C426 C424 1.378 . S
C426 C427 1.367 . S
C427 C426 1.367 . S
C427 C429 1.433 . S
C428 C424 1.350 . S
C428 C425 1.463 . S
C428 N432 1.427 . S
C429 H419 0.929 . S
C429 C427 1.433 . S
C429 N432 1.384 . S
C430 H421 0.929 . S
C430 C422 1.378 . S
C430 C425 1.350 . S
C431 H418 0.929 . S
C431 C423 1.433 . S
C431 N433 1.384 . S
N432 C428 1.427 . S
N432 C429 1.384 . S
N433 C425 1.427 . S
N433 C431 1.384 . S
H434 C440 0.930 . S
H435 C444 0.930 . S
H436 C449 0.929 . S
H437 C447 0.929 . S
H438 C442 0.929 . S
H439 C448 0.929 . S
C440 H434 0.930 . S
C440 C441 1.367 . S
C440 C448 1.378 . S
C441 C440 1.367 . S
C441 C449 1.433 . S
C442 H438 0.929 . S
C442 C444 1.378 . S
C442 C446 1.350 . S
C443 C446 1.463 . S
C443 C448 1.350 . S
C443 N451 1.427 . S
C444 H435 0.930 . S
C444 C442 1.378 . S
C444 C445 1.367 . S
C445 C444 1.367 . S
C445 C447 1.433 . S
C446 C442 1.350 . S
C446 C443 1.463 . S
C446 N450 1.427 . S
C447 H437 0.929 . S
C447 C445 1.433 . S
C447 N450 1.384 . S
C448 H439 0.929 . S
C448 C440 1.378 . S
C448 C443 1.350 . S
C449 H436 0.929 . S
C449 C441 1.433 . S
C449 N451 1.384 . S
N450 C446 1.427 . S
N450 C447 1.384 . S
N451 C443 1.427 . S
N451 C449 1.384 . S
H452 C458 0.930 . S
H453 C462 0.930 . S
H454 C467 0.929 . S
H455 C465 0.929 . S
H456 C460 0.929 . S
H457 C466 0.929 . S
C458 H452 0.930 . S
C458 C459 1.367 . S
C458 C466 1.378 . S
C459 C458 1.367 . S
C459 C467 1.433 . S
C460 H456 0.929 . S
C460 C462 1.378 . S
C460 C464 1.350 . S
C461 C464 1.463 . S
C461 C466 1.350 . S
C461 N469 1.427 . S
C462 H453 0.930 . S
C462 C460 1.378 . S
C462 C463 1.367 . S
C463 C462 1.367 . S
C463 C465 1.433 . S
C464 C460 1.350 . S
C464 C461 1.463 . S
C464 N468 1.427 . S
C465 H455 0.929 . S
C465 C463 1.433 . S
C465 N468 1.384 . S
C466 H457 0.929 . S
C466 C458 1.378 . S
C466 C461 1.350 . S
C467 H454 0.929 . S
C467 C459 1.433 . S
C467 N469 1.384 . S
N468 C464 1.427 . S
N468 C465 1.384 . S
N469 C461 1.427 . S
N469 C467 1.384 . S
H470 C476 0.930 . S
H471 C480 0.930 . S
H472 C485 0.929 . S
H473 C483 0.929 . S
H474 C478 0.929 . S
H475 C484 0.929 . S
C476 H470 0.930 . S
C476 C477 1.367 . S
C476 C484 1.378 . S
C477 C476 1.367 . S
C477 C485 1.433 . S
C478 H474 0.929 . S
C478 C480 1.378 . S
C478 C482 1.350 . S
C479 C482 1.463 . S
C479 C484 1.350 . S
C479 N487 1.427 . S
C480 H471 0.930 . S
C480 C478 1.378 . S
C480 C481 1.367 . S
C481 C480 1.367 . S
C481 C483 1.433 . S
C482 C478 1.350 . S
C482 C479 1.463 . S
C482 N486 1.427 . S
C483 H473 0.929 . S
C483 C481 1.433 . S
C483 N486 1.384 . S
C484 H475 0.929 . S
C484 C476 1.378 . S
C484 C479 1.350 . S
C485 H472 0.929 . S
C485 C477 1.433 . S
C485 N487 1.384 . S
N486 C482 1.427 . S
N486 C483 1.384 . S
N487 C479 1.427 . S
N487 C485 1.384 . S
H488 C494 0.930 . S
H489 C498 0.930 . S
H490 C503 0.929 . S
H491 C501 0.929 . S
H492 C496 0.929 . S
H493 C502 0.929 . S
C494 H488 0.930 . S
C494 C495 1.367 . S
C494 C502 1.378 . S
C495 C494 1.367 . S
C495 C503 1.433 . S
C496 H492 0.929 . S
C496 C498 1.378 . S
C496 C500 1.350 . S
C497 C500 1.463 . S
C497 C502 1.350 . S
C497 N505 1.427 . S
C498 H489 0.930 . S
C498 C496 1.378 . S
C498 C499 1.367 . S
C499 C498 1.367 . S
C499 C501 1.433 . S
C500 C496 1.350 . S
C500 C497 1.463 . S
C500 N504 1.427 . S
C501 H491 0.929 . S
C501 C499 1.433 . S
C501 N504 1.384 . S
C502 H493 0.929 . S
C502 C494 1.378 . S
C502 C497 1.350 . S
C503 H490 0.929 . S
C503 C495 1.433 . S
C503 N505 1.384 . S
N504 C500 1.427 . S
N504 C501 1.384 . S
N505 C497 1.427 . S
N505 C503 1.384 . S
H506 C512 0.930 . S
H507 C516 0.930 . S
H508 C521 0.929 . S
H509 C519 0.929 . S
H510 C514 0.929 . S
H511 C520 0.929 . S
C512 H506 0.930 . S
C512 C513 1.367 . S
C512 C520 1.378 . S
C513 C512 1.367 . S
C513 C521 1.433 . S
C514 H510 0.929 . S
C514 C516 1.378 . S
C514 C518 1.350 . S
C515 C518 1.463 . S
C515 C520 1.350 . S
C515 N523 1.427 . S
C516 H507 0.930 . S
C516 C514 1.378 . S
C516 C517 1.367 . S
C517 C516 1.367 . S
C517 C519 1.433 . S
C518 C514 1.350 . S
C518 C515 1.463 . S
C518 N522 1.427 . S
C519 H509 0.929 . S
C519 C517 1.433 . S
C519 N522 1.384 . S
C520 H511 0.929 . S
C520 C512 1.378 . S
C520 C515 1.350 . S
C521 H508 0.929 . S
C521 C513 1.433 . S
C521 N523 1.384 . S
N522 C518 1.427 . S
N522 C519 1.384 . S
N523 C515 1.427 . S
N523 C521 1.384 . S
H524 C530 0.930 . S
H525 C534 0.930 . S
H526 C539 0.929 . S
H527 C537 0.929 1_554 S
H528 C532 0.929 . S
H529 C538 0.929 . S
C530 H524 0.930 . S
C530 C531 1.367 . S
C530 C538 1.378 . S
C531 C530 1.367 . S
C531 C539 1.433 . S
C532 H528 0.929 . S
C532 C534 1.378 . S
C532 C536 1.350 . S
C533 C536 1.463 . S
C533 C538 1.350 . S
C533 N541 1.427 . S
C534 H525 0.930 . S
C534 C532 1.378 . S
C534 C535 1.367 . S
C535 C534 1.367 . S
C535 C537 1.433 . S
C536 C532 1.350 . S
C536 C533 1.463 . S
C536 N540 1.427 . S
C537 H527 0.929 1_556 S
C537 C535 1.433 . S
C537 N540 1.384 . S
C538 H529 0.929 . S
C538 C530 1.378 . S
C538 C533 1.350 . S
C539 H526 0.929 . S
C539 C531 1.433 . S
C539 N541 1.384 . S
N540 C536 1.427 . S
N540 C537 1.384 . S
N541 C533 1.427 . S
N541 C539 1.384 . S
H542 C548 0.930 . S
H543 C552 0.930 . S
H544 C557 0.929 . S
H545 C555 0.929 . S
H546 C550 0.929 . S
H547 C556 0.929 . S
C548 H542 0.930 . S
C548 C549 1.367 . S
C548 C556 1.378 . S
C549 C548 1.367 . S
C549 C557 1.433 . S
C550 H546 0.929 . S
C550 C552 1.378 . S
C550 C554 1.350 . S
C551 C554 1.463 . S
C551 C556 1.350 . S
C551 N559 1.427 . S
C552 H543 0.930 . S
C552 C550 1.378 . S
C552 C553 1.367 . S
C553 C552 1.367 . S
C553 C555 1.433 . S
C554 C550 1.350 . S
C554 C551 1.463 . S
C554 N558 1.427 . S
C555 H545 0.929 . S
C555 C553 1.433 . S
C555 N558 1.384 . S
C556 H547 0.929 . S
C556 C548 1.378 . S
C556 C551 1.350 . S
C557 H544 0.929 . S
C557 C549 1.433 . S
C557 N559 1.384 . S
N558 C554 1.427 . S
N558 C555 1.384 . S
N559 C551 1.427 . S
N559 C557 1.384 . S
H560 C566 0.930 . S
H561 C570 0.930 . S
H562 C575 0.929 . S
H563 C573 0.929 . S
H564 C568 0.929 . S
H565 C574 0.929 . S
C566 H560 0.930 . S
C566 C567 1.367 . S
C566 C574 1.378 . S
C567 C566 1.367 . S
C567 C575 1.433 . S
C568 H564 0.929 . S
C568 C570 1.378 . S
C568 C572 1.350 . S
C569 C572 1.463 . S
C569 C574 1.350 . S
C569 N577 1.427 . S
C570 H561 0.930 . S
C570 C568 1.378 . S
C570 C571 1.367 . S
C571 C570 1.367 . S
C571 C573 1.433 . S
C572 C568 1.350 . S
C572 C569 1.463 . S
C572 N576 1.427 . S
C573 H563 0.929 . S
C573 C571 1.433 . S
C573 N576 1.384 . S
C574 H565 0.929 . S
C574 C566 1.378 . S
C574 C569 1.350 . S
C575 H562 0.929 . S
C575 C567 1.433 . S
C575 N577 1.384 . S
N576 C572 1.427 . S
N576 C573 1.384 . S
N577 C569 1.427 . S
N577 C575 1.384 . S
H578 C584 0.930 . S
H579 C588 0.930 . S
H580 C593 0.929 . S
H581 C591 0.929 . S
H582 C586 0.929 . S
H583 C592 0.929 . S
C584 H578 0.930 . S
C584 C585 1.367 . S
C584 C592 1.378 . S
C585 C584 1.367 . S
C585 C593 1.433 . S
C586 H582 0.929 . S
C586 C588 1.378 . S
C586 C590 1.350 . S
C587 C590 1.463 . S
C587 C592 1.350 . S
C587 N595 1.427 . S
C588 H579 0.930 . S
C588 C586 1.378 . S
C588 C589 1.367 . S
C589 C588 1.367 . S
C589 C591 1.433 . S
C590 C586 1.350 . S
C590 C587 1.463 . S
C590 N594 1.427 . S
C591 H581 0.929 . S
C591 C589 1.433 . S
C591 N594 1.384 . S
C592 H583 0.929 . S
C592 C584 1.378 . S
C592 C587 1.350 . S
C593 H580 0.929 . S
C593 C585 1.433 . S
C593 N595 1.384 . S
N594 C590 1.427 . S
N594 C591 1.384 . S
N595 C587 1.427 . S
N595 C593 1.384 . S
H596 C602 0.930 . S
H597 C606 0.930 . S
H598 C611 0.929 . S
H599 C609 0.929 . S
H600 C604 0.929 . S
H601 C610 0.929 . S
C602 H596 0.930 . S
C602 C603 1.367 . S
C602 C610 1.378 . S
C603 C602 1.367 . S
C603 C611 1.433 . S
C604 H600 0.929 . S
C604 C606 1.378 . S
C604 C608 1.350 . S
C605 C608 1.463 . S
C605 C610 1.350 . S
C605 N613 1.427 . S
C606 H597 0.930 . S
C606 C604 1.378 . S
C606 C607 1.367 . S
C607 C606 1.367 . S
C607 C609 1.433 . S
C608 C604 1.350 . S
C608 C605 1.463 . S
C608 N612 1.427 . S
C609 H599 0.929 . S
C609 C607 1.433 . S
C609 N612 1.384 . S
C610 H601 0.929 . S
C610 C602 1.378 . S
C610 C605 1.350 . S
C611 H598 0.929 . S
C611 C603 1.433 . S
C611 N613 1.384 . S
N612 C608 1.427 . S
N612 C609 1.384 . S
N613 C605 1.427 . S
N613 C611 1.384 . S
H614 C620 0.930 . S
H615 C624 0.930 . S
H616 C629 0.929 . S
H617 C627 0.929 . S
H618 C622 0.929 . S
H619 C628 0.929 . S
C620 H614 0.930 . S
C620 C621 1.367 . S
C620 C628 1.378 . S
C621 C620 1.367 . S
C621 C629 1.433 . S
C622 H618 0.929 . S
C622 C624 1.378 . S
C622 C626 1.350 . S
C623 C626 1.463 . S
C623 C628 1.350 . S
C623 N631 1.427 . S
C624 H615 0.930 . S
C624 C622 1.378 . S
C624 C625 1.367 . S
C625 C624 1.367 . S
C625 C627 1.433 . S
C626 C622 1.350 . S
C626 C623 1.463 . S
C626 N630 1.427 . S
C627 H617 0.929 . S
C627 C625 1.433 . S
C627 N630 1.384 . S
C628 H619 0.929 . S
C628 C620 1.378 . S
C628 C623 1.350 . S
C629 H616 0.929 . S
C629 C621 1.433 . S
C629 N631 1.384 . S
N630 C626 1.427 . S
N630 C627 1.384 . S
N631 C623 1.427 . S
N631 C629 1.384 . S
H632 C638 0.930 . S
H633 C642 0.930 . S
H634 C647 0.929 . S
H635 C645 0.929 . S
H636 C640 0.929 . S
H637 C646 0.929 . S
C638 H632 0.930 . S
C638 C639 1.367 . S
C638 C646 1.378 . S
C639 C638 1.367 . S
C639 C647 1.433 . S
C640 H636 0.929 . S
C640 C642 1.378 . S
C640 C644 1.350 . S
C641 C644 1.463 . S
C641 C646 1.350 . S
C641 N649 1.427 . S
C642 H633 0.930 . S
C642 C640 1.378 . S
C642 C643 1.367 . S
C643 C642 1.367 . S
C643 C645 1.433 . S
C644 C640 1.350 . S
C644 C641 1.463 . S
C644 N648 1.427 . S
C645 H635 0.929 . S
C645 C643 1.433 . S
C645 N648 1.384 . S
C646 H637 0.929 . S
C646 C638 1.378 . S
C646 C641 1.350 . S
C647 H634 0.929 . S
C647 C639 1.433 . S
C647 N649 1.384 . S
N648 C644 1.427 . S
N648 C645 1.384 . S
N649 C641 1.427 . S
N649 C647 1.384 . S
H650 C656 0.930 . S
H651 C660 0.930 . S
H652 C665 0.929 . S
H653 C663 0.929 . S
H654 C658 0.929 . S
H655 C664 0.929 . S
C656 H650 0.930 . S
C656 C657 1.367 . S
C656 C664 1.378 . S
C657 C656 1.367 . S
C657 C665 1.433 . S
C658 H654 0.929 . S
C658 C660 1.378 . S
C658 C662 1.350 . S
C659 C662 1.463 . S
C659 C664 1.350 . S
C659 N667 1.427 . S
C660 H651 0.930 . S
C660 C658 1.378 . S
C660 C661 1.367 . S
C661 C660 1.367 . S
C661 C663 1.433 . S
C662 C658 1.350 . S
C662 C659 1.463 . S
C662 N666 1.427 . S
C663 H653 0.929 . S
C663 C661 1.433 . S
C663 N666 1.384 . S
C664 H655 0.929 . S
C664 C656 1.378 . S
C664 C659 1.350 . S
C665 H652 0.929 . S
C665 C657 1.433 . S
C665 N667 1.384 . S
N666 C662 1.427 . S
N666 C663 1.384 . S
N667 C659 1.427 . S
N667 C665 1.384 . S
H668 C674 0.930 . S
H669 C678 0.930 . S
H670 C683 0.929 . S
H671 C681 0.929 . S
H672 C676 0.929 . S
H673 C682 0.929 . S
C674 H668 0.930 . S
C674 C675 1.367 . S
C674 C682 1.378 . S
C675 C674 1.367 . S
C675 C683 1.433 . S
C676 H672 0.929 . S
C676 C678 1.378 . S
C676 C680 1.350 . S
C677 C680 1.463 . S
C677 C682 1.350 . S
C677 N685 1.427 . S
C678 H669 0.930 . S
C678 C676 1.378 . S
C678 C679 1.367 . S
C679 C678 1.367 . S
C679 C681 1.433 . S
C680 C676 1.350 . S
C680 C677 1.463 . S
C680 N684 1.427 . S
C681 H671 0.929 . S
C681 C679 1.433 . S
C681 N684 1.384 . S
C682 H673 0.929 . S
C682 C674 1.378 . S
C682 C677 1.350 . S
C683 H670 0.929 . S
C683 C675 1.433 . S
C683 N685 1.384 . S
N684 C680 1.427 . S
N684 C681 1.384 . S
N685 C677 1.427 . S
N685 C683 1.384 . S
H686 C692 0.930 . S
H687 C696 0.930 . S
H688 C701 0.929 . S
H689 C699 0.929 . S
H690 C694 0.929 . S
H691 C700 0.929 . S
C692 H686 0.930 . S
C692 C693 1.367 . S
C692 C700 1.378 . S
C693 C692 1.367 . S
C693 C701 1.433 . S
C694 H690 0.929 . S
C694 C696 1.378 . S
C694 C698 1.350 . S
C695 C698 1.463 . S
C695 C700 1.350 . S
C695 N703 1.427 . S
C696 H687 0.930 . S
C696 C694 1.378 . S
C696 C697 1.367 . S
C697 C696 1.367 . S
C697 C699 1.433 . S
C698 C694 1.350 . S
C698 C695 1.463 . S
C698 N702 1.427 . S
C699 H689 0.929 . S
C699 C697 1.433 . S
C699 N702 1.384 . S
C700 H691 0.929 . S
C700 C692 1.378 . S
C700 C695 1.350 . S
C701 H688 0.929 . S
C701 C693 1.433 . S
C701 N703 1.384 . S
N702 C698 1.427 . S
N702 C699 1.384 . S
N703 C695 1.427 . S
N703 C701 1.384 . S
H704 C710 0.930 . S
H705 C714 0.930 . S
H706 C719 0.929 . S
H707 C717 0.929 . S
H708 C712 0.929 . S
H709 C718 0.929 . S
C710 H704 0.930 . S
C710 C711 1.367 . S
C710 C718 1.378 . S
C711 C710 1.367 . S
C711 C719 1.433 . S
C712 H708 0.929 . S
C712 C714 1.378 . S
C712 C716 1.350 . S
C713 C716 1.463 . S
C713 C718 1.350 . S
C713 N721 1.427 . S
C714 H705 0.930 . S
C714 C712 1.378 . S
C714 C715 1.367 . S
C715 C714 1.367 . S
C715 C717 1.433 . S
C716 C712 1.350 . S
C716 C713 1.463 . S
C716 N720 1.427 . S
C717 H707 0.929 . S
C717 C715 1.433 . S
C717 N720 1.384 . S
C718 H709 0.929 . S
C718 C710 1.378 . S
C718 C713 1.350 . S
C719 H706 0.929 . S
C719 C711 1.433 . S
C719 N721 1.384 . S
N720 C716 1.427 . S
N720 C717 1.384 . S
N721 C713 1.427 . S
N721 C719 1.384 . S
H722 C728 0.930 . S
H723 C732 0.930 . S
H724 C737 0.929 . S
H725 C735 0.929 . S
H726 C730 0.929 . S
H727 C736 0.929 . S
C728 H722 0.930 . S
C728 C729 1.367 . S
C728 C736 1.378 . S
C729 C728 1.367 . S
C729 C737 1.433 . S
C730 H726 0.929 . S
C730 C732 1.378 . S
C730 C734 1.350 . S
C731 C734 1.463 . S
C731 C736 1.350 . S
C731 N739 1.427 . S
C732 H723 0.930 . S
C732 C730 1.378 . S
C732 C733 1.367 . S
C733 C732 1.367 . S
C733 C735 1.433 . S
C734 C730 1.350 . S
C734 C731 1.463 . S
C734 N738 1.427 . S
C735 H725 0.929 . S
C735 C733 1.433 . S
C735 N738 1.384 . S
C736 H727 0.929 . S
C736 C728 1.378 . S
C736 C731 1.350 . S
C737 H724 0.929 . S
C737 C729 1.433 . S
C737 N739 1.384 . S
N738 C734 1.427 . S
N738 C735 1.384 . S
N739 C731 1.427 . S
N739 C737 1.384 . S
H740 C746 0.930 . S
H741 C750 0.930 . S
H742 C755 0.929 . S
H743 C753 0.929 . S
H744 C748 0.929 . S
H745 C754 0.929 . S
C746 H740 0.930 . S
C746 C747 1.367 . S
C746 C754 1.378 . S
C747 C746 1.367 . S
C747 C755 1.433 . S
C748 H744 0.929 . S
C748 C750 1.378 . S
C748 C752 1.350 . S
C749 C752 1.463 . S
C749 C754 1.350 . S
C749 N757 1.427 . S
C750 H741 0.930 . S
C750 C748 1.378 . S
C750 C751 1.367 . S
C751 C750 1.367 . S
C751 C753 1.433 . S
C752 C748 1.350 . S
C752 C749 1.463 . S
C752 N756 1.427 . S
C753 H743 0.929 . S
C753 C751 1.433 . S
C753 N756 1.384 . S
C754 H745 0.929 . S
C754 C746 1.378 . S
C754 C749 1.350 . S
C755 H742 0.929 . S
C755 C747 1.433 . S
C755 N757 1.384 . S
N756 C752 1.427 . S
N756 C753 1.384 . S
N757 C749 1.427 . S
N757 C755 1.384 . S
H758 C764 0.930 . S
H759 C768 0.930 . S
H760 C773 0.929 . S
H761 C771 0.929 . S
H762 C766 0.929 . S
H763 C772 0.929 . S
C764 H758 0.930 . S
C764 C765 1.367 . S
C764 C772 1.378 . S
C765 C764 1.367 . S
C765 C773 1.433 . S
C766 H762 0.929 . S
C766 C768 1.378 . S
C766 C770 1.350 . S
C767 C770 1.463 . S
C767 C772 1.350 . S
C767 N775 1.427 . S
C768 H759 0.930 . S
C768 C766 1.378 . S
C768 C769 1.367 . S
C769 C768 1.367 . S
C769 C771 1.433 . S
C770 C766 1.350 . S
C770 C767 1.463 . S
C770 N774 1.427 . S
C771 H761 0.929 . S
C771 C769 1.433 . S
C771 N774 1.384 . S
C772 H763 0.929 . S
C772 C764 1.378 . S
C772 C767 1.350 . S
C773 H760 0.929 . S
C773 C765 1.433 . S
C773 N775 1.384 . S
N774 C770 1.427 . S
N774 C771 1.384 . S
N775 C767 1.427 . S
N775 C773 1.384 . S
H776 C782 0.930 . S
H777 C786 0.930 . S
H778 C791 0.929 . S
H779 C789 0.929 . S
H780 C784 0.929 . S
H781 C790 0.929 . S
C782 H776 0.930 . S
C782 C783 1.367 . S
C782 C790 1.378 . S
C783 C782 1.367 . S
C783 C791 1.433 . S
C784 H780 0.929 . S
C784 C786 1.378 . S
C784 C788 1.350 . S
C785 C788 1.463 . S
C785 C790 1.350 . S
C785 N793 1.427 . S
C786 H777 0.930 . S
C786 C784 1.378 . S
C786 C787 1.367 . S
C787 C786 1.367 . S
C787 C789 1.433 . S
C788 C784 1.350 . S
C788 C785 1.463 . S
C788 N792 1.427 . S
C789 H779 0.929 . S
C789 C787 1.433 . S
C789 N792 1.384 . S
C790 H781 0.929 . S
C790 C782 1.378 . S
C790 C785 1.350 . S
C791 H778 0.929 . S
C791 C783 1.433 . S
C791 N793 1.384 . S
N792 C788 1.427 . S
N792 C789 1.384 . S
N793 C785 1.427 . S
N793 C791 1.384 . S
H794 C800 0.930 . S
H795 C804 0.930 . S
H796 C809 0.929 . S
H797 C807 0.929 . S
H798 C802 0.929 . S
H799 C808 0.929 . S
C800 H794 0.930 . S
C800 C801 1.367 . S
C800 C808 1.378 . S
C801 C800 1.367 . S
C801 C809 1.433 . S
C802 H798 0.929 . S
C802 C804 1.378 . S
C802 C806 1.350 . S
C803 C806 1.463 . S
C803 C808 1.350 . S
C803 N811 1.427 . S
C804 H795 0.930 . S
C804 C802 1.378 . S
C804 C805 1.367 . S
C805 C804 1.367 . S
C805 C807 1.433 . S
C806 C802 1.350 . S
C806 C803 1.463 . S
C806 N810 1.427 . S
C807 H797 0.929 . S
C807 C805 1.433 . S
C807 N810 1.384 . S
C808 H799 0.929 . S
C808 C800 1.378 . S
C808 C803 1.350 . S
C809 H796 0.929 . S
C809 C801 1.433 . S
C809 N811 1.384 . S
N810 C806 1.427 . S
N810 C807 1.384 . S
N811 C803 1.427 . S
N811 C809 1.384 . S
H812 C818 0.930 . S
H813 C822 0.930 . S
H814 C827 0.929 . S
H815 C825 0.929 . S
H816 C820 0.929 . S
H817 C826 0.929 . S
C818 H812 0.930 . S
C818 C819 1.367 . S
C818 C826 1.378 . S
C819 C818 1.367 . S
C819 C827 1.433 . S
C820 H816 0.929 . S
C820 C822 1.378 . S
C820 C824 1.350 . S
C821 C824 1.463 . S
C821 C826 1.350 . S
C821 N829 1.427 . S
C822 H813 0.930 . S
C822 C820 1.378 . S
C822 C823 1.367 . S
C823 C822 1.367 . S
C823 C825 1.433 . S
C824 C820 1.350 . S
C824 C821 1.463 . S
C824 N828 1.427 . S
C825 H815 0.929 . S
C825 C823 1.433 . S
C825 N828 1.384 . S
C826 H817 0.929 . S
C826 C818 1.378 . S
C826 C821 1.350 . S
C827 H814 0.929 . S
C827 C819 1.433 . S
C827 N829 1.384 . S
N828 C824 1.427 . S
N828 C825 1.384 . S
N829 C821 1.427 . S
N829 C827 1.384 . S
H830 C836 0.930 . S
H831 C840 0.930 . S
H832 C845 0.929 . S
H833 C843 0.929 . S
H834 C838 0.929 . S
H835 C844 0.929 . S
C836 H830 0.930 . S
C836 C837 1.367 . S
C836 C844 1.378 . S
C837 C836 1.367 . S
C837 C845 1.433 . S
C838 H834 0.929 . S
C838 C840 1.378 . S
C838 C842 1.350 . S
C839 C842 1.463 . S
C839 C844 1.350 . S
C839 N847 1.427 . S
C840 H831 0.930 . S
C840 C838 1.378 . S
C840 C841 1.367 . S
C841 C840 1.367 . S
C841 C843 1.433 . S
C842 C838 1.350 . S
C842 C839 1.463 . S
C842 N846 1.427 . S
C843 H833 0.929 . S
C843 C841 1.433 . S
C843 N846 1.384 . S
C844 H835 0.929 . S
C844 C836 1.378 . S
C844 C839 1.350 . S
C845 H832 0.929 . S
C845 C837 1.433 . S
C845 N847 1.384 . S
N846 C842 1.427 . S
N846 C843 1.384 . S
N847 C839 1.427 . S
N847 C845 1.384 . S
C423 C29 1.216 . S
C427 C262 1.217 . S
C441 C49 0.910 . S
C445 C311 0.917 . S
C463 C346 2.513 . S
C459 C93 2.513 . S
C477 C119 2.307 . S
C481 C385 2.299 . S
C499 C306 2.304 . S
C495 C17 2.277 . S
C517 C265 0.855 . S
C513 C61 0.869 . S
C535 C395 1.891 . S
C531 C81 1.921 . S
C553 C354 1.673 . S
C549 C125 1.656 . S
C567 C23 1.596 . S
C571 C382 1.604 . S
C589 C314 2.292 . S
C585 C87 2.343 . S
C603 C113 2.328 . S
C607 C275 2.367 . S
C621 C55 0.831 . S
C625 C351 0.850 . S
C643 C271 1.189 . S
C639 C157 1.048 . S
C657 C189 0.953 . S
C661 C302 0.963 . S
C675 C221 2.473 . S
C679 C355 2.467 . S
C693 C253 2.372 . S
C697 C394 2.380 . S
C711 C145 2.137 . S
C715 C315 2.387 . S
C733 C274 0.784 . S
C729 C183 0.794 . S
C751 C386 1.936 . S
C747 C209 1.936 . S
C769 C345 1.620 . S
C765 C247 1.611 . S
C783 C151 1.473 . S
C787 C391 1.623 . S
C805 C305 2.300 . S
C801 C215 2.338 . S
C823 C266 2.329 . S
C819 C241 2.281 . S
C837 C177 0.828 . S
C841 C342 0.837 . S
