# Generated by pormake.
# Topology eea, (3,6)-cn, num edge types: 1
# Building blocks:
#     Node 0, Type 0, BuildingBlock: BETDAH_clean_linker_0, # of connection points: 3
#     Node 1, Type 0, BuildingBlock: BETDAH_clean_linker_0, # of connection points: 3
#     Node 2, Type 0, BuildingBlock: BETDAH_clean_linker_0, # of connection points: 3
#     Node 3, Type 0, BuildingBlock: BETDAH_clean_linker_0, # of connection points: 3
#     Node 4, Type 0, BuildingBlock: BETDAH_clean_linker_0, # of connection points: 3
#     Node 5, Type 0, BuildingBlock: BETDAH_clean_linker_0, # of connection points: 3
#     Node 6, Type 0, BuildingBlock: BETDAH_clean_linker_0, # of connection points: 3
#     Node 7, Type 0, BuildingBlock: BETDAH_clean_linker_0, # of connection points: 3
#     Node 8, Type 0, BuildingBlock: BETDAH_clean_linker_0, # of connection points: 3
#     Node 9, Type 0, BuildingBlock: BETDAH_clean_linker_0, # of connection points: 3
#     Node 10, Type 0, BuildingBlock: BETDAH_clean_linker_0, # of connection points: 3
#     Node 11, Type 0, BuildingBlock: BETDAH_clean_linker_0, # of connection points: 3
#     Node 12, Type 0, BuildingBlock: BETDAH_clean_linker_0, # of connection points: 3
#     Node 13, Type 0, BuildingBlock: BETDAH_clean_linker_0, # of connection points: 3
#     Node 14, Type 0, BuildingBlock: BETDAH_clean_linker_0, # of connection points: 3
#     Node 15, Type 0, BuildingBlock: BETDAH_clean_linker_0, # of connection points: 3
#     Node 16, Type 0, BuildingBlock: BETDAH_clean_linker_0, # of connection points: 3
#     Node 17, Type 0, BuildingBlock: BETDAH_clean_linker_0, # of connection points: 3
#     Node 18, Type 1, BuildingBlock: KUMBUR_clean_sbu_0, # of connection points: 6
#     Node 19, Type 1, BuildingBlock: KUMBUR_clean_sbu_0, # of connection points: 6
#     Node 20, Type 1, BuildingBlock: KUMBUR_clean_sbu_0, # of connection points: 6
#     Node 21, Type 1, BuildingBlock: KUMBUR_clean_sbu_0, # of connection points: 6
#     Node 22, Type 1, BuildingBlock: KUMBUR_clean_sbu_0, # of connection points: 6
#     Node 23, Type 1, BuildingBlock: KUMBUR_clean_sbu_0, # of connection points: 6
#     Node 24, Type 1, BuildingBlock: KUMBUR_clean_sbu_0, # of connection points: 6
#     Node 25, Type 1, BuildingBlock: KUMBUR_clean_sbu_0, # of connection points: 6
#     Node 26, Type 1, BuildingBlock: KUMBUR_clean_sbu_0, # of connection points: 6
#     Edge 27, Type (0, 1), BuildingBlock: XUDNAN_clean_linker_2, # of connection points: 2
#     Edge 28, Type (0, 1), BuildingBlock: XUDNAN_clean_linker_2, # of connection points: 2
#     Edge 29, Type (0, 1), BuildingBlock: XUDNAN_clean_linker_2, # of connection points: 2
#     Edge 30, Type (0, 1), BuildingBlock: XUDNAN_clean_linker_2, # of connection points: 2
#     Edge 31, Type (0, 1), BuildingBlock: XUDNAN_clean_linker_2, # of connection points: 2
#     Edge 32, Type (0, 1), BuildingBlock: XUDNAN_clean_linker_2, # of connection points: 2
#     Edge 33, Type (0, 1), BuildingBlock: XUDNAN_clean_linker_2, # of connection points: 2
#     Edge 34, Type (0, 1), BuildingBlock: XUDNAN_clean_linker_2, # of connection points: 2
#     Edge 35, Type (0, 1), BuildingBlock: XUDNAN_clean_linker_2, # of connection points: 2
#     Edge 36, Type (0, 1), BuildingBlock: XUDNAN_clean_linker_2, # of connection points: 2
#     Edge 37, Type (0, 1), BuildingBlock: XUDNAN_clean_linker_2, # of connection points: 2
#     Edge 38, Type (0, 1), BuildingBlock: XUDNAN_clean_linker_2, # of connection points: 2
#     Edge 39, Type (0, 1), BuildingBlock: XUDNAN_clean_linker_2, # of connection points: 2
#     Edge 40, Type (0, 1), BuildingBlock: XUDNAN_clean_linker_2, # of connection points: 2
#     Edge 41, Type (0, 1), BuildingBlock: XUDNAN_clean_linker_2, # of connection points: 2
#     Edge 42, Type (0, 1), BuildingBlock: XUDNAN_clean_linker_2, # of connection points: 2
#     Edge 43, Type (0, 1), BuildingBlock: XUDNAN_clean_linker_2, # of connection points: 2
#     Edge 44, Type (0, 1), BuildingBlock: XUDNAN_clean_linker_2, # of connection points: 2
#     Edge 45, Type (0, 1), BuildingBlock: XUDNAN_clean_linker_2, # of connection points: 2
#     Edge 46, Type (0, 1), BuildingBlock: XUDNAN_clean_linker_2, # of connection points: 2
#     Edge 47, Type (0, 1), BuildingBlock: XUDNAN_clean_linker_2, # of connection points: 2
#     Edge 48, Type (0, 1), BuildingBlock: XUDNAN_clean_linker_2, # of connection points: 2
#     Edge 49, Type (0, 1), BuildingBlock: XUDNAN_clean_linker_2, # of connection points: 2
#     Edge 50, Type (0, 1), BuildingBlock: XUDNAN_clean_linker_2, # of connection points: 2
#     Edge 51, Type (0, 1), BuildingBlock: XUDNAN_clean_linker_2, # of connection points: 2
#     Edge 52, Type (0, 1), BuildingBlock: XUDNAN_clean_linker_2, # of connection points: 2
#     Edge 53, Type (0, 1), BuildingBlock: XUDNAN_clean_linker_2, # of connection points: 2
#     Edge 54, Type (0, 1), BuildingBlock: XUDNAN_clean_linker_2, # of connection points: 2
#     Edge 55, Type (0, 1), BuildingBlock: XUDNAN_clean_linker_2, # of connection points: 2
#     Edge 56, Type (0, 1), BuildingBlock: XUDNAN_clean_linker_2, # of connection points: 2
#     Edge 57, Type (0, 1), BuildingBlock: XUDNAN_clean_linker_2, # of connection points: 2
#     Edge 58, Type (0, 1), BuildingBlock: XUDNAN_clean_linker_2, # of connection points: 2
#     Edge 59, Type (0, 1), BuildingBlock: XUDNAN_clean_linker_2, # of connection points: 2
#     Edge 60, Type (0, 1), BuildingBlock: XUDNAN_clean_linker_2, # of connection points: 2
#     Edge 61, Type (0, 1), BuildingBlock: XUDNAN_clean_linker_2, # of connection points: 2
#     Edge 62, Type (0, 1), BuildingBlock: XUDNAN_clean_linker_2, # of connection points: 2
#     Edge 63, Type (0, 1), BuildingBlock: XUDNAN_clean_linker_2, # of connection points: 2
#     Edge 64, Type (0, 1), BuildingBlock: XUDNAN_clean_linker_2, # of connection points: 2
#     Edge 65, Type (0, 1), BuildingBlock: XUDNAN_clean_linker_2, # of connection points: 2
#     Edge 66, Type (0, 1), BuildingBlock: XUDNAN_clean_linker_2, # of connection points: 2
#     Edge 67, Type (0, 1), BuildingBlock: XUDNAN_clean_linker_2, # of connection points: 2
#     Edge 68, Type (0, 1), BuildingBlock: XUDNAN_clean_linker_2, # of connection points: 2
#     Edge 69, Type (0, 1), BuildingBlock: XUDNAN_clean_linker_2, # of connection points: 2
#     Edge 70, Type (0, 1), BuildingBlock: XUDNAN_clean_linker_2, # of connection points: 2
#     Edge 71, Type (0, 1), BuildingBlock: XUDNAN_clean_linker_2, # of connection points: 2
#     Edge 72, Type (0, 1), BuildingBlock: XUDNAN_clean_linker_2, # of connection points: 2
#     Edge 73, Type (0, 1), BuildingBlock: XUDNAN_clean_linker_2, # of connection points: 2
#     Edge 74, Type (0, 1), BuildingBlock: XUDNAN_clean_linker_2, # of connection points: 2
#     Edge 75, Type (0, 1), BuildingBlock: XUDNAN_clean_linker_2, # of connection points: 2
#     Edge 76, Type (0, 1), BuildingBlock: XUDNAN_clean_linker_2, # of connection points: 2
#     Edge 77, Type (0, 1), BuildingBlock: XUDNAN_clean_linker_2, # of connection points: 2
#     Edge 78, Type (0, 1), BuildingBlock: XUDNAN_clean_linker_2, # of connection points: 2
#     Edge 79, Type (0, 1), BuildingBlock: XUDNAN_clean_linker_2, # of connection points: 2
#     Edge 80, Type (0, 1), BuildingBlock: XUDNAN_clean_linker_2, # of connection points: 2
# Relax obj value: 0.023
# Max RMSD: 0.164
# Mean RMSD: 0.118
data_MOF--net-eea--node1-KUMBUR_clean_sbu_0--node2-BETDAH_clean_linker_0--edge1-XUDNAN_clean_linker_2
_symmetry_space_group_name_H-M    P1
_symmetry_Int_Tables_number       1
_symmetry_cell_setting            triclinic
loop_
_symmetry_equiv_pos_as_xyz
'x, y, z'
_cell_length_a     54.538877
_cell_length_b     55.74134
_cell_length_c     66.139632
_cell_angle_alpha  90.151414
_cell_angle_beta   90.113655
_cell_angle_gamma 120.03197
loop_
_atom_site_label
_atom_site_type_symbol
_atom_site_fract_x
_atom_site_fract_y
_atom_site_fract_z
_atom_type_partial_charge
H0 H 0.23588 0.07141 0.44266 0.0
H1 H 0.25924 0.15576 0.42902 0.0
H2 H 0.22918 0.09418 0.38179 0.0
C3 C 0.23801 0.087 0.43192 0.0
C4 C 0.2309 0.07946 0.41159 0.0
C5 C 0.24862 0.11451 0.43838 0.0
C6 C 0.25136 0.13454 0.42423 0.0
C7 C 0.24415 0.12706 0.40378 0.0
C8 C 0.23472 0.09978 0.39754 0.0
N9 N 0.24645 0.14644 0.38901 0.0
C10 C 0.24069 0.16766 0.39271 0.0
H11 H 0.94817 0.17747 0.44181 0.0
H12 H 0.88837 0.09 0.43551 0.0
H13 H 0.9516 0.13255 0.39004 0.0
C14 C 0.9397 0.15821 0.4334 0.0
C15 C 0.95231 0.15799 0.4149 0.0
C16 C 0.91694 0.13369 0.44134 0.0
C17 C 0.90621 0.10894 0.42994 0.0
C18 C 0.91878 0.10857 0.41143 0.0
C19 C 0.94214 0.13294 0.40436 0.0
N20 N 0.90893 0.08409 0.39959 0.0
C21 C 0.8813 0.06184 0.39954 0.0
H22 H 0.82512 0.77467 0.43606 0.0
H23 H 0.90613 0.77833 0.43373 0.0
H24 H 0.88451 0.82116 0.38946 0.0
C25 C 0.8453 0.7815 0.42875 0.0
C26 C 0.8521 0.79843 0.41161 0.0
C27 C 0.8644 0.77387 0.43693 0.0
C28 C 0.89122 0.78396 0.42771 0.0
C29 C 0.89842 0.80118 0.41052 0.0
C30 C 0.87883 0.8082 0.40278 0.0
N31 N 0.92504 0.81266 0.40045 0.0
C32 C 0.94643 0.806 0.40255 0.0
H33 H 0.07628 0.23384 0.59879 0.0
H34 H 0.15592 0.23628 0.60866 0.0
H35 H 0.09316 0.20701 0.65537 0.0
C36 C 0.09042 0.23056 0.60844 0.0
C37 C 0.08126 0.2192 0.62782 0.0
C38 C 0.11728 0.23655 0.60118 0.0
C39 C 0.13506 0.23132 0.6138 0.0
C40 C 0.12639 0.22093 0.63345 0.0
C41 C 0.09967 0.21503 0.64021 0.0
N42 N 0.14424 0.21751 0.64743 0.0
C43 C 0.16586 0.21201 0.64284 0.0
H44 H 0.76967 0.83505 0.5991 0.0
H45 H 0.79348 0.91967 0.58577 0.0
H46 H 0.83943 0.90271 0.63056 0.0
C47 C 0.78316 0.85705 0.60183 0.0
C48 C 0.80454 0.86622 0.61673 0.0
C49 C 0.77917 0.87612 0.59032 0.0
C50 C 0.79636 0.90467 0.59429 0.0
C51 C 0.81778 0.91409 0.60897 0.0
C52 C 0.82213 0.89496 0.61977 0.0
N53 N 0.83664 0.94282 0.61188 0.0
C54 C 0.82814 0.96055 0.62 0.0
H55 H 0.18262 0.92911 0.59699 0.0
H56 H 0.09885 0.86249 0.61171 0.0
H57 H 0.14662 0.92658 0.6551 0.0
C58 C 0.16502 0.91917 0.60733 0.0
C59 C 0.1674 0.93149 0.62641 0.0
C60 C 0.14054 0.89414 0.60163 0.0
C61 C 0.11803 0.88145 0.61565 0.0
C62 C 0.12039 0.89311 0.63498 0.0
C63 C 0.14493 0.91801 0.6401 0.0
N64 N 0.09919 0.88022 0.6501 0.0
C65 C 0.07182 0.85779 0.64759 0.0
H66 H 0.92305 0.41265 0.77813 0.0
H67 H 0.90618 0.47914 0.7661 0.0
H68 H 0.89094 0.41864 0.72021 0.0
C69 C 0.9155 0.42296 0.76819 0.0
C70 C 0.90616 0.41211 0.74864 0.0
C71 C 0.9159 0.44727 0.77483 0.0
C72 C 0.90626 0.46055 0.76142 0.0
C73 C 0.89731 0.45016 0.7417 0.0
C74 C 0.89733 0.4261 0.73555 0.0
N75 N 0.88949 0.46383 0.7271 0.0
C76 C 0.88227 0.48414 0.73074 0.0
H77 H 0.61325 0.52523 0.76856 0.0
H78 H 0.55311 0.43761 0.7679 0.0
H79 H 0.61813 0.47336 0.72249 0.0
C80 C 0.60514 0.50493 0.76174 0.0
C81 C 0.61839 0.50229 0.74434 0.0
C82 C 0.58168 0.48183 0.7705 0.0
C83 C 0.57137 0.45549 0.76152 0.0
C84 C 0.58458 0.45243 0.74415 0.0
C85 C 0.60831 0.47578 0.73598 0.0
N86 N 0.57492 0.42639 0.73438 0.0
C87 C 0.54781 0.40324 0.7356 0.0
H88 H 0.51643 0.11699 0.77695 0.0
H89 H 0.59082 0.10979 0.7664 0.0
H90 H 0.55813 0.13897 0.7194 0.0
C91 C 0.5332 0.11889 0.76715 0.0
C92 C 0.53513 0.12915 0.74745 0.0
C93 C 0.55335 0.11203 0.77442 0.0
C94 C 0.57559 0.11562 0.76143 0.0
C95 C 0.57715 0.1252 0.74153 0.0
C96 C 0.55691 0.1318 0.73479 0.0
N97 N 0.59706 0.12628 0.72716 0.0
C98 C 0.62506 0.13336 0.73088 0.0
H99 H 0.73903 0.57101 0.93436 0.0
H100 H 0.8209 0.57874 0.94565 0.0
H101 H 0.75876 0.55122 0.99267 0.0
C102 C 0.75375 0.56902 0.94426 0.0
C103 C 0.74524 0.55934 0.96409 0.0
C104 C 0.78109 0.57619 0.93726 0.0
C105 C 0.79987 0.57344 0.9506 0.0
C106 C 0.7918 0.56461 0.97062 0.0
C107 C 0.76469 0.55779 0.97716 0.0
N108 N 0.81087 0.56428 0.98516 0.0
C109 C 0.83163 0.55721 0.98155 0.0
H110 H 0.44689 0.17026 0.93528 0.0
H111 H 0.41641 0.22798 0.94165 0.0
H112 H 0.44902 0.20654 0.99319 0.0
C113 C 0.44312 0.18423 0.94444 0.0
C114 C 0.45026 0.18722 0.96509 0.0
C115 C 0.4309 0.19881 0.93564 0.0
C116 C 0.42585 0.21655 0.94794 0.0
C117 C 0.43243 0.2193 0.9686 0.0
C118 C 0.44459 0.2047 0.9771 0.0
N119 N 0.42411 0.2344 0.98129 0.0
C120 C 0.44001 0.26303 0.98318 0.0
H121 H 0.84129 0.28017 0.93397 0.0
H122 H 0.76878 0.19834 0.942 0.0
H123 H 0.79862 0.2568 0.99114 0.0
C124 C 0.82473 0.26483 0.94349 0.0
C125 C 0.82223 0.27188 0.96344 0.0
C126 C 0.8056 0.23835 0.93553 0.0
C127 C 0.78377 0.21861 0.94799 0.0
C128 C 0.78123 0.22559 0.9681 0.0
C129 C 0.80067 0.25187 0.97559 0.0
N130 N 0.75965 0.20748 0.98164 0.0
C131 C 0.73613 0.18165 0.97762 0.0
H132 H 0.57466 0.73792 0.10074 0.0
H133 H 0.53448 0.78744 0.10859 0.0
H134 H 0.50982 0.72981 0.05957 0.0
C135 C 0.55936 0.74386 0.0962 0.0
C136 C 0.54279 0.73159 0.07878 0.0
C137 C 0.55678 0.76424 0.1073 0.0
C138 C 0.53752 0.7724 0.10027 0.0
C139 C 0.52088 0.7601 0.08296 0.0
C140 C 0.52325 0.73952 0.07265 0.0
N141 N 0.50069 0.76715 0.07594 0.0
C142 C 0.50574 0.79416 0.07519 0.0
H143 H 0.28781 0.84932 0.11062 0.0
H144 H 0.2276 0.76248 0.10197 0.0
H145 H 0.29078 0.80748 0.05683 0.0
C146 C 0.27964 0.83049 0.10171 0.0
C147 C 0.29215 0.83141 0.08293 0.0
C148 C 0.25654 0.80569 0.10897 0.0
C149 C 0.24537 0.78169 0.09669 0.0
C150 C 0.25783 0.78232 0.07787 0.0
C151 C 0.28146 0.80703 0.07139 0.0
N152 N 0.24752 0.75863 0.06504 0.0
C153 C 0.22071 0.7351 0.06601 0.0
H154 H 0.17375 0.44322 0.10843 0.0
H155 H 0.24828 0.43682 0.09667 0.0
H156 H 0.21434 0.46591 0.05044 0.0
C157 C 0.19031 0.44531 0.09832 0.0
C158 C 0.19181 0.45581 0.07875 0.0
C159 C 0.21073 0.43858 0.10516 0.0
C160 C 0.23282 0.44247 0.09193 0.0
C161 C 0.23394 0.45213 0.07211 0.0
C162 C 0.21342 0.45861 0.06576 0.0
N163 N 0.2537 0.4534 0.05749 0.0
C164 C 0.28186 0.46065 0.06084 0.0
H165 H 0.4027 0.91325 0.26896 0.0
H166 H 0.46785 0.89161 0.2773 0.0
H167 H 0.40596 0.87356 0.3237 0.0
C168 C 0.41278 0.90447 0.27807 0.0
C169 C 0.40165 0.89366 0.29723 0.0
C170 C 0.43657 0.90361 0.27055 0.0
C171 C 0.44943 0.89217 0.28277 0.0
C172 C 0.43841 0.88127 0.30196 0.0
C173 C 0.41445 0.88192 0.30891 0.0
N174 N 0.45028 0.86894 0.31458 0.0
C175 C 0.47757 0.8728 0.31311 0.0
H176 H 0.10531 0.5127 0.26163 0.0
H177 H 0.13501 0.59899 0.2736 0.0
H178 H 0.1596 0.55381 0.31279 0.0
C179 C 0.11758 0.53109 0.27075 0.0
C180 C 0.13235 0.52984 0.28788 0.0
C181 C 0.1181 0.55584 0.26549 0.0
C182 C 0.13389 0.57962 0.27755 0.0
C183 C 0.14911 0.57874 0.29437 0.0
C184 C 0.1484 0.55409 0.29934 0.0
N185 N 0.16571 0.60243 0.30654 0.0
C186 C 0.1577 0.62178 0.31138 0.0
H187 H 0.49927 0.61349 0.26315 0.0
H188 H 0.43511 0.52849 0.27451 0.0
H189 H 0.46333 0.58836 0.32245 0.0
C190 C 0.48483 0.59747 0.27336 0.0
C191 C 0.48298 0.60446 0.29352 0.0
C192 C 0.46758 0.5701 0.26618 0.0
C193 C 0.44805 0.54976 0.27952 0.0
C194 C 0.44663 0.55646 0.29982 0.0
C195 C 0.46426 0.58358 0.30666 0.0
N196 N 0.42996 0.5359 0.31422 0.0
C197 C 0.40118 0.51697 0.3121 0.0
Tb198 Tb 0.49659 0.99442 0.99925 0.0
C199 C 0.5603 0.08783 0.06208 0.0
C200 C 0.60843 0.09664 0.06236 0.0
C201 C 0.59891 0.13352 0.07128 0.0
C202 C 0.57924 0.07872 0.05895 0.0
C203 C 0.56978 0.1152 0.06859 0.0
C204 C 0.61821 0.12422 0.06823 0.0
C205 C 0.52088 0.10357 0.0709 0.0
N206 N 0.53236 0.06934 0.05961 0.0
C207 C 0.51254 0.07658 0.06458 0.0
C208 C 0.54964 0.12307 0.07272 0.0
Tb209 Tb 0.52074 0.02568 0.04889 0.0
N210 N 0.56883 0.05181 0.05367 0.0
C211 C 0.58653 0.04106 0.05287 0.0
C212 C 0.62678 0.08611 0.06029 0.0
C213 C 0.61572 0.05809 0.05577 0.0
H214 H 0.49023 0.06184 0.06324 0.0
H215 H 0.62964 0.04956 0.05453 0.0
H216 H 0.64058 0.13837 0.07077 0.0
H217 H 0.5051 0.10931 0.07439 0.0
H218 H 0.57847 0.01948 0.04945 0.0
H219 H 0.38943 0.97585 0.99415 0.0
H220 H 0.64938 0.09923 0.06263 0.0
H221 H 0.52372 0.95544 0.98501 0.0
H222 H 0.44088 0.00399 0.99873 0.0
H223 H 0.50635 0.90699 0.97484 0.0
H224 H 0.60665 0.1547 0.07615 0.0
H225 H 0.36719 0.92567 0.98693 0.0
H226 H 0.37328 0.88472 0.97931 0.0
H227 H 0.55604 0.14392 0.07773 0.0
H228 H 0.40513 0.86587 0.97417 0.0
N229 N 0.44827 0.97009 0.995 0.0
C230 C 0.43177 0.98217 0.99566 0.0
C231 C 0.38991 0.93793 0.98905 0.0
C232 C 0.40704 0.92599 0.98715 0.0
C233 C 0.4024 0.96624 0.99306 0.0
C234 C 0.43647 0.94286 0.99022 0.0
H235 H 0.45485 0.87406 0.97237 0.0
N236 N 0.48245 0.94996 0.98905 0.0
C237 C 0.49144 0.91384 0.97829 0.0
C238 C 0.45424 0.93238 0.98715 0.0
C239 C 0.50119 0.94135 0.98403 0.0
C240 C 0.46236 0.8953 0.97698 0.0
C241 C 0.44334 0.90459 0.98108 0.0
O242 O 0.51841 1.00152 0.9716 0.0
O243 O 0.53144 0.02428 0.0176 0.0
O244 O 0.52372 0.05813 0.02901 0.0
O245 O 0.49078 0.03067 1.00435 0.0
O246 O 0.54022 0.00314 0.99634 0.0
O247 O 0.48739 0.01407 0.97567 0.0
O248 O 0.49623 0.01467 0.07543 0.0
O249 O 0.4863 0.9954 0.03044 0.0
O250 O 0.49533 0.96246 0.01948 0.0
O251 O 0.52844 0.99105 0.04363 0.0
O252 O 0.4766 0.01611 0.05119 0.0
O253 O 0.53246 0.00929 0.07341 0.0
C254 C 0.55143 0.02209 0.00994 0.0
C255 C 0.49475 0.00383 0.94222 0.0
C256 C 0.49817 0.01411 0.90583 0.0
C257 C 0.50785 0.02221 0.92593 0.0
C258 C 0.47519 0.9872 0.90249 0.0
C259 C 0.47187 0.97727 0.93837 0.0
C260 C 0.46221 0.96905 0.91862 0.0
C261 C 0.50642 0.05479 0.01382 0.0
C262 C 0.50502 0.01272 0.96311 0.0
C263 C 0.41397 0.88733 0.97871 0.0
C264 C 0.39584 0.89806 0.98163 0.0
C265 C 0.46582 0.99691 0.03774 0.0
C266 C 0.51898 0.01609 0.10613 0.0
C267 C 0.5067 0.99666 0.12189 0.0
C268 C 0.51198 0.00519 0.14235 0.0
C269 C 0.5299 0.03351 0.14667 0.0
C270 C 0.53684 0.04412 0.11089 0.0
C271 C 0.54224 0.05273 0.13105 0.0
C272 C 0.51301 0.96662 0.0347 0.0
C273 C 0.51198 0.0069 0.08489 0.0
H274 H 0.52533 0.04286 0.929 0.0
H275 H 0.46746 0.97989 0.88734 0.0
H276 H 0.46151 0.9629 0.9506 0.0
H277 H 0.44461 0.94843 0.91576 0.0
H278 H 0.49266 0.97501 0.1182 0.0
H279 H 0.53477 0.0408 0.16215 0.0
H280 H 0.54647 0.05936 0.09906 0.0
H281 H 0.55608 0.07443 0.13461 0.0
Tb282 Tb 0.02667 0.50846 0.99962 0.0
C283 C 0.93126 0.47195 0.06046 0.0
C284 C 0.91599 0.50562 0.05692 0.0
C285 C 0.88204 0.45828 0.06645 0.0
C286 C 0.93729 0.49839 0.0558 0.0
C287 C 0.90376 0.45168 0.06631 0.0
C288 C 0.88815 0.48523 0.06174 0.0
C289 C 0.92192 0.42083 0.073 0.0
N290 N 0.95291 0.46657 0.06025 0.0
C291 C 0.94889 0.44173 0.06718 0.0
C292 C 0.89916 0.4257 0.07233 0.0
Tb293 Tb 0.99604 0.50157 0.04946 0.0
N294 N 0.96452 0.51746 0.05151 0.0
C295 C 0.97224 0.5448 0.04972 0.0
C296 C 0.92352 0.53329 0.05388 0.0
C297 C 0.95188 0.55304 0.05067 0.0
H298 H 0.9663 0.43771 0.06759 0.0
H299 H 0.9581 0.57463 0.04881 0.0
H300 H 0.8714 0.49029 0.06244 0.0
H301 H 0.91869 0.40098 0.07798 0.0
H302 H 0.99393 0.56041 0.04701 0.0
H303 H 0.06058 0.43229 1.00202 0.0
H304 H 0.90781 0.53973 0.05456 0.0
H305 H 0.05799 0.57185 0.98079 0.0
H306 H 0.02629 0.44846 1.00394 0.0
H307 H 0.10566 0.60678 0.96902 0.0
H308 H 0.86067 0.44292 0.07068 0.0
H309 H 0.11067 0.46514 0.9938 0.0
H310 H 0.14786 0.51339 0.9838 0.0
H311 H 0.87832 0.40952 0.07691 0.0
H312 H 0.16019 0.56099 0.97478 0.0
N313 N 0.05653 0.49062 0.99739 0.0
C314 C 0.04792 0.46321 1.00022 0.0
C315 C 0.09565 0.47244 0.99457 0.0
C316 C 0.104 0.50009 0.99052 0.0
C317 C 0.06739 0.45384 0.99917 0.0
C318 C 0.08362 0.50853 0.99192 0.0
H319 H 0.14447 0.59594 0.96896 0.0
N320 N 0.06989 0.54179 0.98779 0.0
C321 C 0.10173 0.58672 0.97409 0.0
C322 C 0.09056 0.53512 0.98693 0.0
C323 C 0.07474 0.56686 0.9807 0.0
C324 C 0.1236 0.58055 0.97412 0.0
C325 C 0.11806 0.55432 0.98031 0.0
O326 O 0.0161 0.51829 0.97131 0.0
O327 O 0.99425 0.50898 0.01773 0.0
O328 O 0.9653 0.46724 0.03109 0.0
O329 O 0.9936 0.46473 1.00574 0.0
O330 O 0.00964 0.53648 0.99477 0.0
O331 O 0.00966 0.47755 0.97714 0.0
O332 O 1.00646 0.49252 0.07806 0.0
O333 O 0.02905 0.50174 0.03148 0.0
O334 O 0.05721 0.54449 0.01754 0.0
O335 O 0.02745 0.54508 0.04267 0.0
O336 O 0.01375 0.47416 0.05441 0.0
O337 O 0.01129 0.53253 0.07195 0.0
C338 C 0.99107 0.52727 1.00892 0.0
C339 C 0.01858 0.4932 0.94327 0.0
C340 C 0.01175 0.49067 0.90662 0.0
C341 C 1.00238 0.49187 0.92621 0.0
C342 C 0.03741 0.49088 0.90422 0.0
C343 C 0.0442 0.49342 0.94054 0.0
C344 C 0.05351 0.49225 0.9211 0.0
C345 C 0.9694 0.45414 0.01593 0.0
C346 C 0.00824 0.49392 0.96373 0.0
C347 C 0.13884 0.54647 0.97964 0.0
C348 C 0.13182 0.51938 0.98476 0.0
C349 C 0.03248 0.48366 0.04039 0.0
C350 C 1.0002 0.51616 0.10543 0.0
C351 C 0.01735 0.52539 0.12289 0.0
C352 C 1.00559 0.5259 0.14175 0.0
C353 C 0.97641 0.51655 0.14291 0.0
C354 C 0.97124 0.50712 0.10702 0.0
C355 C 0.95941 0.50719 0.12566 0.0
C356 C 0.05173 0.55694 0.03258 0.0
C357 C 0.01274 0.51652 0.08564 0.0
H358 H 0.98258 0.49175 0.92817 0.0
H359 H 0.045 0.49006 0.88925 0.0
H360 H 0.05691 0.49433 0.9534 0.0
H361 H 0.07328 0.49239 0.91911 0.0
H362 H 0.03982 0.53269 0.12171 0.0
H363 H 0.96668 0.5163 0.15723 0.0
H364 H 0.95775 0.50014 0.0939 0.0
H365 H 0.937 0.50007 0.12671 0.0
Tb366 Tb 0.52636 0.50939 0.0429 0.0
C367 C 0.4626 0.53108 0.97595 0.0
C368 C 0.41414 0.4958 0.98224 0.0
C369 C 0.42427 0.53944 0.96701 0.0
C370 C 0.44345 0.50542 0.98332 0.0
C371 C 0.4533 0.54811 0.96707 0.0
C372 C 0.40469 0.5133 0.97464 0.0
C373 C 0.50157 0.57919 0.95691 0.0
N374 N 0.4903 0.53846 0.97614 0.0
C375 C 0.50967 0.56152 0.96593 0.0
C376 C 0.47333 0.57273 0.95782 0.0
Tb377 Tb 0.50206 0.50883 0.99158 0.0
N378 N 0.45353 0.48909 0.99015 0.0
C379 C 0.43503 0.46183 0.99446 0.0
C380 C 0.39525 0.46856 0.98804 0.0
C381 C 0.40575 0.45133 0.99377 0.0
H382 H 0.53162 0.56682 0.96538 0.0
H383 H 0.39132 0.42998 0.99778 0.0
H384 H 0.38229 0.50645 0.97392 0.0
H385 H 0.51713 0.59783 0.94935 0.0
H386 H 0.44248 0.44808 0.99911 0.0
H387 H 0.63813 0.58528 0.0387 0.0
H388 H 0.37257 0.46037 0.98751 0.0
H389 H 0.49286 0.44859 0.06585 0.0
H390 H 0.58725 0.56874 0.03592 0.0
H391 H 0.50497 0.41568 0.08155 0.0
H392 H 0.41669 0.55236 0.96051 0.0
H393 H 0.6547 0.55381 0.0507 0.0
H394 H 0.64263 0.50722 0.06467 0.0
H395 H 0.46707 0.58639 0.95078 0.0
H396 H 0.60637 0.46103 0.07646 0.0
N397 N 0.57446 0.52764 0.04563 0.0
C398 C 0.59387 0.5546 0.04124 0.0
C399 C 0.6322 0.54633 0.0495 0.0
C400 C 0.6123 0.5193 0.05515 0.0
C401 C 0.62292 0.56417 0.04278 0.0
C402 C 0.58327 0.51057 0.05312 0.0
H403 H 0.55493 0.42681 0.08307 0.0
N404 N 0.53548 0.47776 0.05808 0.0
C405 C 0.52151 0.43498 0.07536 0.0
C406 C 0.56304 0.48472 0.05966 0.0
C407 C 0.51474 0.45371 0.0665 0.0
C408 C 0.54973 0.44132 0.07615 0.0
C409 C 0.57097 0.46664 0.06852 0.0
O410 O 0.50511 0.50332 0.07068 0.0
O411 O 0.49317 0.50671 0.02351 0.0
O412 O 0.50944 0.54785 1.00537 0.0
O413 O 0.53756 0.55148 0.03342 0.0
O414 O 0.48087 0.48126 0.04785 0.0
O415 O 0.54217 0.54232 0.06379 0.0
O416 O 0.52184 0.51524 0.96307 0.0
O417 O 0.53553 0.51244 0.01096 0.0
O418 O 0.5225 0.47269 0.02821 0.0
O419 O 0.49184 0.46686 1.00153 0.0
O420 O 0.54741 0.53692 0.98611 0.0
O421 O 0.48786 0.47513 0.97146 0.0
C422 C 0.47152 0.48914 0.03293 0.0
C423 C 0.53366 0.52941 0.09827 0.0
C424 C 0.52895 0.53475 0.13464 0.0
C425 C 0.51919 0.53297 0.11459 0.0
C426 C 0.55331 0.53265 0.138 0.0
C427 C 0.55795 0.52755 0.10208 0.0
C428 C 0.56763 0.5291 0.12184 0.0
C429 C 0.52626 0.56181 0.02082 0.0
C430 C 0.52328 0.52789 0.07742 0.0
C431 C 0.5998 0.47471 0.06987 0.0
C432 C 0.62045 0.50101 0.06317 0.0
C433 C 0.55705 0.52988 1.00133 0.0
C434 C 0.49139 0.48719 0.93679 0.0
C435 C 0.50676 0.4899 0.91892 0.0
C436 C 0.49435 0.48799 0.89979 0.0
C437 C 0.46644 0.48297 0.89878 0.0
C438 C 0.46347 0.48205 0.93526 0.0
C439 C 0.45112 0.47989 0.91638 0.0
C440 C 0.50485 0.45764 0.01358 0.0
C441 C 0.50457 0.49011 0.95692 0.0
H442 H 0.50061 0.53475 0.11161 0.0
H443 H 0.56113 0.53337 0.15318 0.0
H444 H 0.56952 0.52503 0.08983 0.0
H445 H 0.58632 0.52751 0.12465 0.0
H446 H 0.52841 0.49413 0.9199 0.0
H447 H 0.45649 0.48152 0.88427 0.0
H448 H 0.45114 0.47971 0.94864 0.0
H449 H 0.42962 0.476 0.91539 0.0
Tb450 Tb 0.15832 0.32343 0.32985 0.0
C451 C 0.20822 0.42238 0.38859 0.0
C452 C 0.25861 0.43963 0.38798 0.0
C453 C 0.24111 0.4715 0.39375 0.0
C454 C 0.23045 0.41765 0.38618 0.0
C455 C 0.21315 0.44924 0.39278 0.0
C456 C 0.26383 0.46669 0.39135 0.0
C457 C 0.16263 0.42968 0.39624 0.0
N458 N 0.18164 0.40031 0.38756 0.0
C459 C 0.15889 0.4034 0.39215 0.0
C460 C 0.18986 0.45277 0.3963 0.0
Tb461 Tb 0.17738 0.35844 0.37887 0.0
N462 N 0.2244 0.39124 0.38285 0.0
C463 C 0.24578 0.38512 0.38275 0.0
C464 C 0.28058 0.43363 0.38676 0.0
C465 C 0.27408 0.40618 0.38448 0.0
H466 H 0.13769 0.38581 0.39199 0.0
H467 H 0.29087 0.4012 0.38389 0.0
H468 H 0.28532 0.48391 0.39256 0.0
H469 H 0.1445 0.43209 0.39931 0.0
H470 H 0.2414 0.36417 0.38072 0.0
H471 H 0.04484 0.27837 0.32228 0.0
H472 H 0.30252 0.44991 0.38799 0.0
H473 H 0.19985 0.29888 0.31581 0.0
H474 H 0.09386 0.31609 0.32664 0.0
H475 H 0.19476 0.25422 0.30522 0.0
H476 H 0.24537 0.49236 0.39676 0.0
H477 H 0.03462 0.23024 0.31721 0.0
H478 H 0.05334 0.19767 0.31151 0.0
H479 H 0.19271 0.47309 0.3995 0.0
H480 H 0.09436 0.19112 0.30647 0.0
N481 N 0.11175 0.28977 0.32527 0.0
C482 C 0.09 0.29531 0.32459 0.0
C483 C 0.0563 0.24677 0.3193 0.0
C484 C 0.07879 0.24153 0.31832 0.0
C485 C 0.06199 0.2739 0.32208 0.0
C486 C 0.10657 0.26379 0.32129 0.0
H487 H 0.14722 0.21235 0.30336 0.0
N488 N 0.15561 0.28261 0.3202 0.0
C489 C 0.17618 0.25555 0.30901 0.0
C490 C 0.12941 0.2601 0.31848 0.0
C491 C 0.17896 0.28088 0.315 0.0
C492 C 0.14933 0.23194 0.30805 0.0
C493 C 0.12546 0.23408 0.31261 0.0
O494 O 0.18113 0.33512 0.30245 0.0
O495 O 0.1887 0.35776 0.34787 0.0
O496 O 0.17107 0.38503 0.3577 0.0
O497 O 0.14149 0.35182 0.334 0.0
O498 O 0.20461 0.34289 0.32685 0.0
O499 O 0.1429 0.33688 0.30578 0.0
O500 O 0.1532 0.34541 0.40555 0.0
O501 O 0.14637 0.32369 0.36102 0.0
O502 O 0.1648 0.29645 0.35069 0.0
O503 O 0.19347 0.32955 0.37469 0.0
O504 O 0.13182 0.34141 0.3814 0.0
O505 O 0.19337 0.3472 0.404 0.0
C506 C 0.21164 0.36187 0.3403 0.0
C507 C 0.15497 0.33042 0.27262 0.0
C508 C 0.15931 0.3397 0.2361 0.0
C509 C 0.1674 0.34881 0.25626 0.0
C510 C 0.13869 0.31177 0.23272 0.0
C511 C 0.13456 0.30274 0.26876 0.0
C512 C 0.12652 0.29353 0.24891 0.0
C513 C 0.15256 0.37669 0.34258 0.0
C514 C 0.1632 0.34059 0.29357 0.0
C515 C 0.09787 0.21139 0.31074 0.0
C516 C 0.07453 0.21511 0.31361 0.0
C517 C 0.12407 0.32187 0.36832 0.0
C518 C 0.17737 0.35157 0.43645 0.0
C519 C 0.16945 0.3323 0.45236 0.0
C520 C 0.17321 0.34112 0.47276 0.0
C521 C 0.18522 0.36962 0.47685 0.0
C522 C 0.18943 0.37982 0.44096 0.0
C523 C 0.19333 0.38874 0.46107 0.0
C524 C 0.18288 0.30474 0.36612 0.0
C525 C 0.17167 0.34163 0.41532 0.0
H526 H 0.18301 0.37028 0.25929 0.0
H527 H 0.13226 0.30385 0.21749 0.0
H528 H 0.1248 0.28831 0.28107 0.0
H529 H 0.11078 0.27209 0.24604 0.0
H530 H 0.15987 0.31042 0.44884 0.0
H531 H 0.18877 0.3772 0.49228 0.0
H532 H 0.19561 0.39492 0.42897 0.0
H533 H 0.20265 0.4106 0.46446 0.0
Tb534 Tb 0.68351 0.84209 0.32763 0.0
C535 C 0.58899 0.80538 0.39099 0.0
C536 C 0.5734 0.83905 0.39112 0.0
C537 C 0.54089 0.79151 0.40108 0.0
C538 C 0.59437 0.8319 0.3873 0.0
C539 C 0.56226 0.78484 0.39799 0.0
C540 C 0.54651 0.81862 0.39778 0.0
C541 C 0.5804 0.75326 0.39963 0.0
N542 N 0.61035 0.79992 0.38813 0.0
C543 C 0.60667 0.77444 0.39291 0.0
C544 C 0.55803 0.75842 0.40207 0.0
Tb545 Tb 0.65266 0.83609 0.37732 0.0
N546 N 0.62081 0.85115 0.38136 0.0
C547 C 0.6281 0.87842 0.38016 0.0
C548 C 0.58033 0.86666 0.38871 0.0
C549 C 0.6079 0.88647 0.3834 0.0
H550 H 0.62374 0.77012 0.39104 0.0
H551 H 0.61367 0.90799 0.38189 0.0
H552 H 0.53005 0.82366 0.40065 0.0
H553 H 0.57745 0.73298 0.40297 0.0
H554 H 0.64938 0.89411 0.37633 0.0
H555 H 0.71152 0.76165 0.33156 0.0
H556 H 0.56478 0.87298 0.39137 0.0
H557 H 0.71858 0.90524 0.30852 0.0
H558 H 0.67921 0.78021 0.33204 0.0
H559 H 0.76759 0.93863 0.29821 0.0
H560 H 0.52016 0.77601 0.4064 0.0
H561 H 0.76258 0.79267 0.3251 0.0
H562 H 0.8022 0.84034 0.31618 0.0
H563 H 0.53776 0.74202 0.40741 0.0
H564 H 0.81754 0.88866 0.30704 0.0
N565 N 0.71145 0.82196 0.32627 0.0
C566 C 0.70128 0.79422 0.32903 0.0
C567 C 0.74842 0.80103 0.32519 0.0
C568 C 0.75844 0.82903 0.3212 0.0
C569 C 0.71962 0.78347 0.3288 0.0
C570 C 0.7391 0.83884 0.32165 0.0
H571 H 0.80466 0.92544 0.29999 0.0
N572 N 0.72794 0.87366 0.31642 0.0
C573 C 0.76231 0.9182 0.30339 0.0
C574 C 0.74769 0.86576 0.31656 0.0
C575 C 0.73455 0.89919 0.30915 0.0
C576 C 0.78319 0.91071 0.30448 0.0
C577 C 0.77591 0.88404 0.31083 0.0
O578 O 0.67671 0.85234 0.29818 0.0
O579 O 0.65216 0.84494 0.34561 0.0
O580 O 0.62033 0.80444 0.35785 0.0
O581 O 0.64927 0.79924 0.33459 0.0
O582 O 0.66861 0.87148 0.32185 0.0
O583 O 0.66236 0.81006 0.30643 0.0
O584 O 0.66372 0.82677 0.40559 0.0
O585 O 0.68551 0.83576 0.35944 0.0
O586 O 0.71359 0.87829 0.34568 0.0
O587 O 0.68395 0.87959 0.37068 0.0
O588 O 0.67035 0.80851 0.38232 0.0
O589 O 0.66802 0.86679 0.40001 0.0
C590 C 0.65063 0.86392 0.33633 0.0
C591 C 0.67352 0.82154 0.27209 0.0
C592 C 0.66423 0.81204 0.23587 0.0
C593 C 0.65777 0.81958 0.25463 0.0
C594 C 0.68689 0.80684 0.23478 0.0
C595 C 0.69631 0.81664 0.27057 0.0
C596 C 0.70293 0.80937 0.25199 0.0
C597 C 0.62434 0.79022 0.34348 0.0
C598 C 0.66467 0.82677 0.2919 0.0
C599 C 0.79566 0.87487 0.31118 0.0
C600 C 0.78693 0.84737 0.31637 0.0
C601 C 0.68919 0.81795 0.3684 0.0
C602 C 0.65768 0.84963 0.43358 0.0
C603 C 0.67154 0.84789 0.45104 0.0
C604 C 0.65978 0.84602 0.47034 0.0
C605 C 0.6341 0.84606 0.47191 0.0
C606 C 0.6323 0.85007 0.43561 0.0
C607 C 0.62058 0.8482 0.45466 0.0
C608 C 0.70826 0.89101 0.36064 0.0
C609 C 0.66975 0.85058 0.41343 0.0
H610 H 0.64004 0.82319 0.25575 0.0
H611 H 0.6924 0.80115 0.22053 0.0
H612 H 0.70867 0.81799 0.28378 0.0
H613 H 0.72044 0.80547 0.25096 0.0
H614 H 0.69118 0.84757 0.44959 0.0
H615 H 0.6247 0.8449 0.48655 0.0
H616 H 0.62155 0.85197 0.42257 0.0
H617 H 0.60096 0.84849 0.45606 0.0
Tb618 Tb 0.1859 0.8432 0.3817 0.0
C619 C 0.12512 0.86723 0.31808 0.0
C620 C 0.07706 0.82906 0.32132 0.0
C621 C 0.08543 0.87421 0.31064 0.0
C622 C 0.10656 0.83984 0.32305 0.0
C623 C 0.11475 0.88449 0.31132 0.0
C624 C 0.06663 0.84652 0.31554 0.0
C625 C 0.16287 0.9197 0.30397 0.0
N626 N 0.15333 0.8764 0.31853 0.0
C627 C 0.17213 0.90175 0.31052 0.0
C628 C 0.13409 0.91122 0.30468 0.0
Tb629 Tb 0.16599 0.84568 0.33084 0.0
N630 N 0.11738 0.82337 0.3283 0.0
C631 C 0.09958 0.79541 0.33049 0.0
C632 C 0.05888 0.80084 0.32473 0.0
C633 C 0.07022 0.78388 0.32892 0.0
H634 H 0.19446 0.90866 0.31001 0.0
H635 H 0.05633 0.76188 0.33116 0.0
H636 H 0.04405 0.83861 0.31428 0.0
H637 H 0.17793 0.94006 0.29834 0.0
H638 H 0.10728 0.78153 0.33394 0.0
H639 H 0.22613 0.92737 0.43579 0.0
H640 H 0.03611 0.79181 0.3236 0.0
H641 H 0.21567 0.80869 0.36217 0.0
H642 H 0.18929 0.88856 0.41563 0.0
H643 H 0.26267 0.8131 0.36137 0.0
H644 H 0.07707 0.88723 0.30569 0.0
H645 H 0.27633 0.93975 0.43266 0.0
H646 H 0.31206 0.9283 0.4185 0.0
H647 H 0.12694 0.9251 0.29942 0.0
H648 H 0.32189 0.89669 0.39858 0.0
N649 N 0.21865 0.88051 0.40014 0.0
C650 C 0.21124 0.89415 0.41397 0.0
C651 C 0.2603 0.92298 0.4236 0.0
C652 C 0.26736 0.90724 0.41091 0.0
C653 C 0.232 0.91605 0.42543 0.0
C654 C 0.24568 0.8856 0.39949 0.0
H655 H 0.3035 0.8533 0.37763 0.0
N656 N 0.22907 0.84587 0.3791 0.0
C657 C 0.25977 0.82868 0.36901 0.0
C658 C 0.25105 0.86754 0.38867 0.0
C659 C 0.23296 0.82619 0.36962 0.0
C660 C 0.28273 0.85138 0.37822 0.0
C661 C 0.27849 0.87099 0.38844 0.0
O662 O 0.18879 0.81546 0.40188 0.0
O663 O 0.15004 0.83072 0.36098 0.0
O664 O 0.1715 0.88288 0.34704 0.0
O665 O 0.19816 0.88632 0.37576 0.0
O666 O 0.15047 0.84962 0.38793 0.0
O667 O 0.16254 0.83272 0.40884 0.0
O668 O 0.18673 0.83103 0.31176 0.0
O669 O 0.19971 0.84962 0.35046 0.0
O670 O 0.16926 0.80144 0.3693 0.0
O671 O 0.15559 0.80297 0.336 0.0
O672 O 0.2092 0.88043 0.3298 0.0
O673 O 0.15822 0.84243 0.29925 0.0
C674 C 0.13611 0.83871 0.37173 0.0
C675 C 0.18818 0.8289 0.43607 0.0
C676 C 0.1865 0.84277 0.47102 0.0
C677 C 0.17273 0.83064 0.45259 0.0
C678 C 0.21571 0.85288 0.47283 0.0
C679 C 0.21728 0.83851 0.43855 0.0
C680 C 0.23089 0.85052 0.45676 0.0
C681 C 0.18669 0.8963 0.36317 0.0
C682 C 0.1745 0.81942 0.41593 0.0
C683 C 0.3006 0.89352 0.39876 0.0
C684 C 0.29502 0.91158 0.41003 0.0
C685 C 0.21993 0.87201 0.34341 0.0
C686 C 0.1967 0.84901 0.27865 0.0
C687 C 0.19604 0.83474 0.26077 0.0
C688 C 0.21601 0.84845 0.24518 0.0
C689 C 0.23642 0.87661 0.24789 0.0
C690 C 0.21737 0.87704 0.28074 0.0
C691 C 0.23708 0.89065 0.26551 0.0
C692 C 0.15926 0.78999 0.3514 0.0
C693 C 0.17628 0.83447 0.29519 0.0
H694 H 0.15029 0.8233 0.45094 0.0
H695 H 0.22672 0.86225 0.48685 0.0
H696 H 0.22975 0.83731 0.4263 0.0
H697 H 0.25337 0.85819 0.45838 0.0
H698 H 0.18028 0.81301 0.25913 0.0
H699 H 0.25167 0.88808 0.23618 0.0
H700 H 0.21841 0.8886 0.29407 0.0
H701 H 0.25286 0.91232 0.26731 0.0
Tb702 Tb 0.83025 0.66266 0.65935 0.0
C703 C 0.88653 0.74754 0.72638 0.0
C704 C 0.93531 0.75885 0.7227 0.0
C705 C 0.92468 0.79375 0.73499 0.0
C706 C 0.90603 0.73979 0.72079 0.0
C707 C 0.89563 0.77421 0.73432 0.0
C708 C 0.94449 0.7861 0.72912 0.0
C709 C 0.84699 0.75909 0.74287 0.0
N710 N 0.85864 0.72815 0.72562 0.0
C711 C 0.83898 0.73299 0.7347 0.0
C712 C 0.87536 0.78002 0.74221 0.0
Tb713 Tb 0.84779 0.68701 0.71073 0.0
N714 N 0.89633 0.71311 0.71487 0.0
C715 C 0.91509 0.70364 0.71284 0.0
C716 C 0.95447 0.74969 0.7189 0.0
C717 C 0.94428 0.72184 0.71443 0.0
H718 H 0.81701 0.71697 0.73535 0.0
H719 H 0.95893 0.71434 0.71208 0.0
H720 H 0.96688 0.8011 0.73036 0.0
H721 H 0.83128 0.76307 0.74956 0.0
H722 H 0.90834 0.68239 0.70934 0.0
H723 H 0.72085 0.63567 0.65045 0.0
H724 H 0.9771 0.7637 0.72011 0.0
H725 H 0.86333 0.62837 0.6469 0.0
H726 H 0.77192 0.66736 0.6559 0.0
H727 H 0.85011 0.58036 0.63754 0.0
H728 H 0.93209 0.8145 0.74072 0.0
H729 H 0.70266 0.58569 0.64458 0.0
H730 H 0.71311 0.54697 0.63914 0.0
H731 H 0.88152 0.80022 0.74853 0.0
H732 H 0.74832 0.53188 0.63558 0.0
N733 N 0.78263 0.63557 0.6537 0.0
C734 C 0.76435 0.64563 0.65328 0.0
C735 C 0.72513 0.59951 0.64696 0.0
C736 C 0.74418 0.58964 0.64616 0.0
C737 C 0.73533 0.62772 0.65021 0.0
C738 C 0.77317 0.60848 0.64949 0.0
H739 H 0.79955 0.54428 0.63473 0.0
N740 N 0.82063 0.61919 0.64997 0.0
C741 C 0.8338 0.58559 0.6404 0.0
C742 C 0.79285 0.59998 0.64745 0.0
C743 C 0.84123 0.61274 0.64563 0.0
C744 C 0.80523 0.56526 0.63886 0.0
C745 C 0.78433 0.57244 0.64206 0.0
O746 O 0.8546 0.67201 0.63286 0.0
O747 O 0.86148 0.69275 0.6797 0.0
O748 O 0.84166 0.71848 0.69515 0.0
O749 O 0.82291 0.69803 0.6635 0.0
O750 O 0.87616 0.67786 0.65786 0.0
O751 O 0.81793 0.67687 0.63375 0.0
O752 O 0.82521 0.6501 0.72748 0.0
O753 O 0.81502 0.65963 0.69 0.0
O754 O 0.82774 0.63003 0.67905 0.0
O755 O 0.86102 0.65657 0.70334 0.0
O756 O 0.80464 0.68004 0.71085 0.0
O757 O 0.853 0.68794 0.74257 0.0
C758 C 0.88406 0.6958 0.67224 0.0
C759 C 0.83024 0.66582 0.60189 0.0
C760 C 0.82606 0.67031 0.56526 0.0
C761 C 0.83327 0.68238 0.58479 0.0
C762 C 0.81647 0.64185 0.56311 0.0
C763 C 0.82041 0.63748 0.59908 0.0
C764 C 0.8137 0.62565 0.57986 0.0
C765 C 0.83058 0.71824 0.67711 0.0
C766 C 0.83812 0.67811 0.62246 0.0
C767 C 0.75537 0.55324 0.63954 0.0
C768 C 0.73533 0.56184 0.64156 0.0
C769 C 0.7945 0.66192 0.69652 0.0
C770 C 0.81326 0.65448 0.76112 0.0
C771 C 0.81834 0.64738 0.78055 0.0
C772 C 0.7976 0.63892 0.7959 0.0
C773 C 0.77195 0.63814 0.79145 0.0
C774 C 0.7873 0.65315 0.7572 0.0
C775 C 0.76691 0.64514 0.77228 0.0
C776 C 0.84562 0.63283 0.69361 0.0
C777 C 0.83455 0.66192 0.74488 0.0
H778 H 0.84067 0.70427 0.58672 0.0
H779 H 0.81097 0.63205 0.54834 0.0
H780 H 0.81811 0.62437 0.61165 0.0
H781 H 0.80625 0.60377 0.57796 0.0
H782 H 0.83814 0.64788 0.78354 0.0
H783 H 0.75579 0.6324 0.80288 0.0
H784 H 0.78249 0.65802 0.7425 0.0
H785 H 0.74702 0.6443 0.76908 0.0
Tb786 Tb 0.37064 0.1777 0.66009 0.0
C787 C 0.26845 0.12505 0.71611 0.0
C788 C 0.24948 0.156 0.71461 0.0
C789 C 0.218 0.10688 0.7207 0.0
C790 C 0.27251 0.15125 0.7133 0.0
C791 C 0.24131 0.10264 0.72039 0.0
C792 C 0.22208 0.13355 0.71778 0.0
C793 C 0.26276 0.07427 0.72553 0.0
N794 N 0.29154 0.12193 0.71583 0.0
C795 C 0.28927 0.09722 0.7213 0.0
C796 C 0.23862 0.07691 0.72486 0.0
Tb797 Tb 0.33389 0.16043 0.70798 0.0
N798 N 0.29933 0.17234 0.71047 0.0
C799 C 0.30484 0.19914 0.71045 0.0
C800 C 0.25485 0.18326 0.71335 0.0
C801 C 0.28272 0.20495 0.71167 0.0
H802 H 0.30781 0.09496 0.72177 0.0
H803 H 0.28724 0.22618 0.71121 0.0
H804 H 0.20406 0.13671 0.7186 0.0
H805 H 0.26097 0.05457 0.72931 0.0
H806 H 0.32617 0.21621 0.70895 0.0
H807 H 0.42005 0.11419 0.65912 0.0
H808 H 0.23776 0.18782 0.71424 0.0
H809 H 0.39459 0.24241 0.64522 0.0
H810 H 0.38048 0.12307 0.66172 0.0
H811 H 0.43998 0.28247 0.63483 0.0
H812 H 0.19689 0.08986 0.72373 0.0
H813 H 0.46844 0.15275 0.65237 0.0
H814 H 0.50039 0.20324 0.6445 0.0
H815 H 0.21813 0.05915 0.72827 0.0
H816 H 0.5058 0.24907 0.63768 0.0
N817 N 0.40588 0.1667 0.65715 0.0
C818 C 0.40127 0.14026 0.65869 0.0
C819 C 0.45106 0.15685 0.65352 0.0
C820 C 0.45542 0.18356 0.65075 0.0
C821 C 0.42378 0.13505 0.65726 0.0
C822 C 0.43209 0.18778 0.65258 0.0
H823 H 0.48323 0.27864 0.63358 0.0
N824 N 0.41191 0.2161 0.65029 0.0
C825 C 0.43896 0.26318 0.63883 0.0
C826 C 0.4352 0.21342 0.64893 0.0
C827 C 0.41323 0.24036 0.64472 0.0
C828 C 0.46333 0.26096 0.63818 0.0
C829 C 0.46162 0.23579 0.64311 0.0
O830 O 0.35727 0.187 0.6328 0.0
O831 O 0.33418 0.17138 0.67694 0.0
O832 O 0.30784 0.12653 0.68696 0.0
O833 O 0.34263 0.13242 0.66386 0.0
O834 O 0.35015 0.20293 0.65684 0.0
O835 O 0.3603 0.15006 0.63562 0.0
O836 O 0.34549 0.14955 0.73531 0.0
O837 O 0.37081 0.16726 0.69143 0.0
O838 O 0.39711 0.21202 0.68055 0.0
O839 O 0.36369 0.2058 0.70517 0.0
O840 O 0.35443 0.13541 0.71143 0.0
O841 O 0.34199 0.1863 0.73334 0.0
C842 C 0.32999 0.1898 0.66951 0.0
C843 C 0.36474 0.1687 0.6028 0.0
C844 C 0.35372 0.16382 0.56659 0.0
C845 C 0.34519 0.16175 0.58693 0.0
C846 C 0.38257 0.17373 0.56253 0.0
C847 C 0.39333 0.17856 0.59845 0.0
C848 C 0.40216 0.18115 0.57836 0.0
C849 C 0.31716 0.11729 0.67206 0.0
C850 C 0.35438 0.16505 0.62368 0.0
C851 C 0.48523 0.23207 0.64194 0.0
C852 C 0.48215 0.20599 0.64581 0.0
C853 C 0.37504 0.14894 0.69913 0.0
C854 C 0.3335 0.16417 0.76512 0.0
C855 C 0.3507 0.17002 0.78231 0.0
C856 C 0.33876 0.16276 0.80177 0.0
C857 C 0.3091 0.14985 0.80363 0.0
C858 C 0.30408 0.15154 0.76732 0.0
C859 C 0.29199 0.14448 0.78652 0.0
C860 C 0.38875 0.22096 0.69625 0.0
C861 C 0.34684 0.17043 0.74511 0.0
H862 H 0.32325 0.1547 0.59054 0.0
H863 H 0.38999 0.17521 0.54717 0.0
H864 H 0.40868 0.18406 0.61052 0.0
H865 H 0.42424 0.18861 0.57504 0.0
H866 H 0.37347 0.18029 0.7804 0.0
H867 H 0.299 0.14344 0.81824 0.0
H868 H 0.2905 0.14699 0.75427 0.0
H869 H 0.26923 0.13451 0.78814 0.0
Tb870 Tb 0.86576 0.17256 0.7139 0.0
C871 C 0.81598 0.2182 0.653 0.0
C872 C 0.76579 0.18521 0.65407 0.0
C873 C 0.78214 0.23366 0.64687 0.0
C874 C 0.79417 0.19158 0.65601 0.0
C875 C 0.81034 0.2395 0.64792 0.0
C876 C 0.75988 0.20653 0.64996 0.0
C877 C 0.86067 0.26995 0.64357 0.0
N878 N 0.84282 0.22287 0.65406 0.0
C879 C 0.86511 0.24803 0.64853 0.0
C880 C 0.83319 0.26578 0.64353 0.0
Tb881 Tb 0.84815 0.18633 0.66388 0.0
N882 N 0.80087 0.17168 0.65994 0.0
C883 C 0.78001 0.14443 0.66049 0.0
C884 C 0.74431 0.15756 0.65583 0.0
C885 C 0.75149 0.13703 0.65869 0.0
H886 H 0.88644 0.25145 0.64873 0.0
H887 H 0.73508 0.1155 0.65969 0.0
H888 H 0.73821 0.20213 0.64864 0.0
H889 H 0.87844 0.29005 0.63982 0.0
H890 H 0.785 0.12824 0.66294 0.0
H891 H 0.98022 0.23595 0.71467 0.0
H892 H 0.72222 0.15178 0.65453 0.0
H893 H 0.82431 0.1109 0.73406 0.0
H894 H 0.93156 0.22706 0.71182 0.0
H895 H 0.82857 0.07153 0.74656 0.0
H896 H 0.77733 0.24979 0.6432 0.0
H897 H 0.98914 0.19768 0.72274 0.0
H898 H 0.96938 0.1477 0.73242 0.0
H899 H 0.82979 0.28277 0.63963 0.0
H900 H 0.92793 0.10273 0.7412 0.0
N901 N 0.91231 0.18367 0.71742 0.0
C902 C 0.93476 0.21 0.7154 0.0
C903 C 0.96757 0.19357 0.72145 0.0
C904 C 0.94459 0.16708 0.72493 0.0
C905 C 0.96261 0.21522 0.71698 0.0
C906 C 0.91696 0.16287 0.7229 0.0
H907 H 0.87526 0.07421 0.74685 0.0
N908 N 0.86799 0.1354 0.72653 0.0
C909 C 0.84712 0.08997 0.74115 0.0
C910 C 0.89389 0.13775 0.72767 0.0
C911 C 0.84481 0.11238 0.73404 0.0
C912 C 0.87349 0.09153 0.74124 0.0
C913 C 0.89742 0.11586 0.73482 0.0
O914 O 0.84163 0.16645 0.74026 0.0
O915 O 0.8361 0.17721 0.69503 0.0
O916 O 0.85551 0.22116 0.68364 0.0
O917 O 0.88401 0.21721 0.70814 0.0
O918 O 0.8195 0.14692 0.71617 0.0
O919 O 0.88377 0.20113 0.73794 0.0
O920 O 0.87163 0.19796 0.63685 0.0
O921 O 0.87777 0.18112 0.68238 0.0
O922 O 0.85605 0.13581 0.69618 0.0
O923 O 0.83369 0.14162 0.66767 0.0
O924 O 0.89416 0.21237 0.66171 0.0
O925 O 0.83309 0.15871 0.63914 0.0
C926 C 0.81291 0.15886 0.70234 0.0
C927 C 0.86689 0.18379 0.77078 0.0
C928 C 0.8595 0.18838 0.80689 0.0
C929 C 0.85474 0.1917 0.78633 0.0
C930 C 0.87645 0.17661 0.81146 0.0
C931 C 0.88364 0.17212 0.77578 0.0
C932 C 0.88829 0.16849 0.79602 0.0
C933 C 0.87394 0.2315 0.69877 0.0
C934 C 0.86173 0.18786 0.74951 0.0
C935 C 0.92476 0.11938 0.73595 0.0
C936 C 0.94834 0.14497 0.73097 0.0
C937 C 0.90082 0.19953 0.67478 0.0
C938 C 0.84652 0.1783 0.60646 0.0
C939 C 0.85618 0.16871 0.59029 0.0
C940 C 0.84988 0.17176 0.57004 0.0
C941 C 0.83363 0.18454 0.56639 0.0
C942 C 0.83035 0.19089 0.60238 0.0
C943 C 0.82398 0.19397 0.58244 0.0
C944 C 0.84092 0.12666 0.67931 0.0
C945 C 0.85386 0.17528 0.62741 0.0
H946 H 0.84146 0.20033 0.78231 0.0
H947 H 0.88115 0.17418 0.82698 0.0
H948 H 0.89321 0.16594 0.76408 0.0
H949 H 0.90138 0.1596 0.79979 0.0
H950 H 0.86892 0.15923 0.5935 0.0
H951 H 0.82795 0.18688 0.55112 0.0
H952 H 0.82268 0.19831 0.61457 0.0
H953 H 0.81141 0.20365 0.57939 0.0
H954 H 0.34428 0.84355 0.06739 0.0
H955 H 0.29178 0.87988 0.0802 0.0
H956 H 0.32898 0.92468 0.06677 0.0
H957 H 0.41021 0.90333 0.08215 0.0
H958 H 0.43079 0.89889 0.06274 0.0
H959 H 0.39944 0.86924 0.07235 0.0
H960 H 0.38038 0.85666 0.03603 0.0
H961 H 0.41066 0.88704 0.02596 0.0
H962 H 0.37534 0.88091 0.02124 0.0
H963 H 0.37205 0.96586 0.05378 0.0
H964 H 0.42003 1.0021 0.04373 0.0
H965 H 0.44578 0.94028 0.03894 0.0
C966 C 0.34062 0.86094 0.06719 0.0
C967 C 0.31508 0.85824 0.07483 0.0
C968 C 0.3112 0.88152 0.07457 0.0
C969 C 0.33214 0.907 0.06683 0.0
C970 C 0.35702 0.90903 0.05946 0.0
C971 C 0.36158 0.88677 0.05974 0.0
C972 C 0.39104 0.89521 0.0519 0.0
C973 C 0.40892 0.89145 0.06826 0.0
C974 C 0.38927 0.879 0.03262 0.0
C975 C 0.40231 0.92571 0.04739 0.0
C976 C 0.38214 0.93306 0.05173 0.0
C977 C 0.38789 0.9603 0.05007 0.0
C978 C 0.41515 0.98073 0.04433 0.0
C979 C 0.43634 0.97391 0.04008 0.0
C980 C 0.42972 0.94594 0.0414 0.0
H981 H 0.13316 0.42639 0.07927 0.0
H982 H 0.20487 0.50556 0.06232 0.0
H983 H 0.17223 0.52105 0.05002 0.0
H984 H 0.08962 0.421 0.03571 0.0
H985 H 0.05693 0.40475 0.04967 0.0
H986 H 0.08585 0.3999 0.0574 0.0
H987 H 0.08456 0.4181 0.09329 0.0
H988 H 0.0556 0.42291 0.08564 0.0
H989 H 0.08738 0.45158 0.09606 0.0
H990 H 0.13176 0.52882 0.04096 0.0
H991 H 0.08656 0.52736 0.03439 0.0
H992 H 0.04055 0.44223 0.05483 0.0
C993 C 0.14191 0.44703 0.07307 0.0
C994 C 0.1716 0.46485 0.07183 0.0
C995 C 0.18224 0.49156 0.06336 0.0
C996 C 0.16386 0.50055 0.05636 0.0
C997 C 0.13475 0.48249 0.05766 0.0
C998 C 0.12379 0.4562 0.06566 0.0
C999 C 0.09161 0.44073 0.06487 0.0
C1000 C 0.08035 0.41507 0.0511 0.0
C1001 C 0.07905 0.43287 0.08624 0.0
C1002 C 0.08624 0.46259 0.05559 0.0
C1003 C 0.11143 0.48653 0.05156 0.0
C1004 C 0.11193 0.50998 0.04372 0.0
C1005 C 0.08605 0.50889 0.03984 0.0
C1006 C 0.05992 0.48434 0.04328 0.0
C1007 C 0.06018 0.46105 0.05151 0.0
H1008 H 0.54406 0.68542 0.09228 0.0
H1009 H 0.54691 0.72986 0.03778 0.0
H1010 H 0.54537 0.69234 0.01698 0.0
H1011 H 0.5874 0.65619 0.07267 0.0
H1012 H 0.56648 0.6237 0.08554 0.0
H1013 H 0.57032 0.65519 0.09622 0.0
H1014 H 0.51571 0.63283 0.09724 0.0
H1015 H 0.51178 0.60142 0.08643 0.0
H1016 H 0.49548 0.61889 0.0743 0.0
H1017 H 0.53907 0.64824 1.002 0.0
H1018 H 0.53141 0.6017 0.99407 0.0
H1019 H 0.53334 0.58594 0.05801 0.0
C1020 C 0.54505 0.68752 0.07599 0.0
C1021 C 0.54551 0.71052 0.06664 0.0
C1022 C 0.54628 0.7123 0.04525 0.0
C1023 C 0.54552 0.69114 0.0333 0.0
C1024 C 0.54421 0.66836 0.04293 0.0
C1025 C 0.54431 0.6665 0.06378 0.0
C1026 C 0.5415 0.63914 0.07024 0.0
C1027 C 0.56801 0.64385 0.08185 0.0
C1028 C 0.51451 0.62207 0.08279 0.0
C1029 C 0.53931 0.62582 0.04979 0.0
C1030 C 0.54095 0.64302 0.03424 0.0
C1031 C 0.53803 0.63468 0.01406 0.0
C1032 C 0.53338 0.60807 0.00966 0.0
C1033 C 0.53176 0.59013 0.02532 0.0
C1034 C 0.53496 0.59932 0.04563 0.0
H1035 H 0.88056 0.30607 0.95948 0.0
H1036 H 0.80583 0.30253 0.98566 0.0
H1037 H 0.83562 0.3482 1.00132 0.0
H1038 H 0.92716 0.33932 1.00131 0.0
H1039 H 0.95779 0.36143 0.98628 0.0
H1040 H 0.93086 0.32855 0.97631 0.0
H1041 H 0.92493 0.35314 0.94509 0.0
H1042 H 0.95198 0.38609 0.95491 0.0
H1043 H 0.91745 0.38091 0.94871 0.0
H1044 H 0.87231 0.39238 0.01535 0.0
H1045 H 0.91443 0.43515 0.02588 0.0
H1046 H 0.96736 0.41301 0.99054 0.0
C1047 C 0.8705 0.3151 0.96831 0.0
C1048 C 0.8408 0.30043 0.97157 0.0
C1049 C 0.82851 0.31297 0.9833 0.0
C1050 C 0.84524 0.33902 0.99217 0.0
C1051 C 0.87435 0.3526 0.98908 0.0
C1052 C 0.88701 0.34138 0.97731 0.0
C1053 C 0.91897 0.36072 0.97672 0.0
C1054 C 0.93461 0.34666 0.98569 0.0
C1055 C 0.92891 0.37081 0.95507 0.0
C1056 C 0.92213 0.38428 0.9902 0.0
C1057 C 0.89597 0.37891 0.99709 0.0
C1058 C 0.89293 0.3969 0.01003 0.0
C1059 C 0.91722 0.42117 0.01607 0.0
C1060 C 0.94449 0.42756 1.00928 0.0
C1061 C 0.9469 0.4088 0.99603 0.0
H1062 H 0.71532 0.58727 0.96155 0.0
H1063 H 0.70925 0.51113 0.98322 0.0
H1064 H 0.66128 0.49596 0.99628 0.0
H1065 H 0.67858 0.59637 1.00424 0.0
H1066 H 0.66101 0.61009 0.98904 0.0
H1067 H 0.69494 0.6151 0.98138 0.0
H1068 H 0.67375 0.59244 0.94662 0.0
H1069 H 0.63983 0.58751 0.95419 0.0
H1070 H 0.64286 0.55831 0.94579 0.0
H1071 H 0.61303 0.48802 1.00563 0.0
H1072 H 0.56867 0.48851 0.01121 0.0
H1073 H 0.60638 0.57076 0.98544 0.0
C1074 C 0.70378 0.56735 0.96894 0.0
C1075 C 0.71602 0.55033 0.97134 0.0
C1076 C 0.70037 0.52455 0.98132 0.0
C1077 C 0.67309 0.51575 0.98877 0.0
C1078 C 0.66172 0.53306 0.98633 0.0
C1079 C 0.67659 0.55838 0.97675 0.0
C1080 C 0.65948 0.57307 0.97631 0.0
C1081 C 0.6744 0.60027 0.98847 0.0
C1082 C 0.65363 0.57812 0.95442 0.0
C1083 C 0.63252 0.55182 0.98673 0.0
C1084 C 0.6343 0.52892 0.99243 0.0
C1085 C 0.61162 0.50608 1.00154 0.0
C1086 C 0.58648 0.50663 1.00485 0.0
C1087 C 0.58432 0.53009 0.99952 0.0
C1088 C 0.60768 0.55284 0.99019 0.0
H1089 H 0.43434 0.13235 0.95973 0.0
H1090 H 0.49551 0.20727 0.99099 0.0
H1091 H 0.51738 0.18189 1.00608 0.0
H1092 H 0.42465 0.08543 0.99981 0.0
H1093 H 0.42137 0.05822 0.98326 0.0
H1094 H 0.41103 0.08245 0.9745 0.0
H1095 H 0.44509 0.09493 0.94405 0.0
H1096 H 0.45556 0.07075 0.95275 0.0
H1097 H 0.48197 0.10646 0.94854 0.0
H1098 H 0.53279 0.14844 0.01754 0.0
H1099 H 0.53926 0.10891 0.02588 0.0
H1100 H 0.46723 0.05538 0.9878 0.0
C1101 C 0.45251 0.14347 0.9696 0.0
C1102 C 0.4633 0.17183 0.97415 0.0
C1103 C 0.48678 0.18552 0.98742 0.0
C1104 C 0.49943 0.17132 0.99597 0.0
C1105 C 0.48829 0.1434 0.99115 0.0
C1106 C 0.46528 0.12957 0.97836 0.0
C1107 C 0.45694 0.09935 0.97609 0.0
C1108 C 0.42671 0.08024 0.98388 0.0
C1109 C 0.46008 0.09248 0.95405 0.0
C1110 C 0.47879 0.09832 0.98967 0.0
C1111 C 0.49679 0.12399 0.9981 0.0
C1112 C 0.5187 0.12821 0.01113 0.0
C1113 C 0.5221 0.10553 0.01586 0.0
C1114 C 0.50348 0.07884 1.00779 0.0
C1115 C 0.48177 0.07541 0.99432 0.0
H1116 H 0.6834 0.17239 0.98585 0.0
H1117 H 0.73186 0.13137 0.97513 0.0
H1118 H 0.69008 0.08634 0.98427 0.0
H1119 H 0.64648 0.13384 0.02851 0.0
H1120 H 0.61282 0.1311 0.02264 0.0
H1121 H 0.64522 0.1603 0.01376 0.0
H1122 H 0.62805 0.15014 0.97675 0.0
H1123 H 0.59486 0.12174 0.98534 0.0
H1124 H 0.61513 0.11587 0.96649 0.0
H1125 H 0.64394 0.04639 0.99545 0.0
H1126 H 0.59472 0.0128 1.005 0.0
H1127 H 0.57559 0.07932 1.0093 0.0
C1128 C 0.68486 0.15374 0.98495 0.0
C1129 C 0.71052 0.15501 0.97942 0.0
C1130 C 0.71213 0.13053 0.97894 0.0
C1131 C 0.68862 0.10499 0.98428 0.0
C1132 C 0.66374 0.10442 0.99013 0.0
C1133 C 0.6615 0.12804 0.99021 0.0
C1134 C 0.63231 0.12162 0.99726 0.0
C1135 C 0.63432 0.13766 0.01671 0.0
C1136 C 0.61666 0.1277 0.98045 0.0
C1137 C 0.61853 0.09074 1.00123 0.0
C1138 C 0.63716 0.08135 0.99706 0.0
C1139 C 0.62923 0.05352 0.99884 0.0
C1140 C 0.60131 0.03463 1.00437 0.0
C1141 C 0.58162 0.04355 1.00831 0.0
C1142 C 0.59045 0.07206 1.00698 0.0
H1143 H 0.88935 0.58843 0.98226 0.0
H1144 H 0.81893 0.50427 0.98502 0.0
H1145 H 0.85212 0.48731 0.99261 0.0
H1146 H 0.94025 0.57134 0.95892 0.0
H1147 H 0.96977 0.59734 0.97332 0.0
H1148 H 0.94056 0.60244 0.96693 0.0
H1149 H 0.93467 0.60979 1.00475 0.0
H1150 H 0.96298 0.60358 0.01167 0.0
H1151 H 0.92834 0.58299 0.02263 0.0
H1152 H 0.8925 0.47986 1.00187 0.0
H1153 H 0.93768 0.48182 1.00926 0.0
H1154 H 0.98273 0.57064 1.00023 0.0
C1155 C 0.88113 0.56638 0.98396 0.0
C1156 C 0.85174 0.54747 0.98273 0.0
C1157 C 0.84148 0.5189 0.98556 0.0
C1158 C 0.86014 0.50914 0.99001 0.0
C1159 C 0.88901 0.52829 0.99151 0.0
C1160 C 0.89956 0.55627 0.98829 0.0
C1161 C 0.9315 0.57243 0.99116 0.0
C1162 C 0.9464 0.58673 0.9714 0.0
C1163 C 0.93986 0.59344 1.00859 0.0
C1164 C 0.93721 0.54922 0.99657 0.0
C1165 C 0.91235 0.52397 0.99684 0.0
C1166 C 0.91208 0.49954 1.00171 0.0
C1167 C 0.93789 0.50088 1.00617 0.0
C1168 C 0.96367 0.52644 1.00595 0.0
C1169 C 0.96326 0.55086 1.00082 0.0
H1170 H 0.42531 0.30115 0.97258 0.0
H1171 H 0.48891 0.29036 1.00394 0.0
H1172 H 0.51353 0.33979 0.01428 0.0
H1173 H 0.47352 0.37221 0.95469 0.0
H1174 H 0.44772 0.38301 0.95828 0.0
H1175 H 0.43628 0.34738 0.95226 0.0
H1176 H 0.40476 0.33172 0.98425 0.0
H1177 H 0.41626 0.36729 0.99043 0.0
H1178 H 0.42054 0.34558 1.00858 0.0
H1179 H 0.52928 0.3892 0.02294 0.0
H1180 H 0.53663 0.43607 0.02827 0.0
H1181 H 0.46283 0.41522 0.99106 0.0
C1182 C 0.44471 0.30947 0.98131 0.0
C1183 C 0.45558 0.29237 0.98738 0.0
C1184 C 0.48062 0.30347 0.99905 0.0
C1185 C 0.49464 0.33141 1.005 0.0
C1186 C 0.48326 0.34782 0.99904 0.0
C1187 C 0.459 0.33738 0.98731 0.0
C1188 C 0.45079 0.35927 0.98351 0.0
C1189 C 0.45217 0.36585 0.96083 0.0
C1190 C 0.42134 0.35043 0.99222 0.0
C1191 C 0.47391 0.38348 0.99521 0.0
C1192 C 0.49242 0.37641 1.00401 0.0
C1193 C 0.51502 0.39501 0.01603 0.0
C1194 C 0.51888 0.42157 0.01908 0.0
C1195 C 0.50021 0.42936 0.0102 0.0
C1196 C 0.47753 0.40999 0.99802 0.0
H1197 H 0.20733 0.69088 0.04185 0.0
H1198 H 0.1726 0.72349 0.08575 0.0
H1199 H 0.12522 0.68162 0.08141 0.0
H1200 H 0.1469 0.66034 1.00832 0.0
H1201 H 0.15008 0.63044 1.0024 0.0
H1202 H 0.1811 0.66271 1.00912 0.0
H1203 H 0.19225 0.63792 0.0378 0.0
H1204 H 0.16121 0.60566 0.03103 0.0
H1205 H 0.16566 0.61866 0.05656 0.0
H1206 H 0.08186 0.63664 0.072 0.0
H1207 H 0.04545 0.59108 0.05924 0.0
H1208 H 0.10816 0.58695 0.02126 0.0
C1209 C 0.18969 0.68899 0.05062 0.0
C1210 C 0.19335 0.71012 0.06423 0.0
C1211 C 0.17002 0.70732 0.07536 0.0
C1212 C 0.14312 0.68369 0.07293 0.0
C1213 C 0.14005 0.66319 0.05928 0.0
C1214 C 0.16271 0.66551 0.04835 0.0
C1215 C 0.15362 0.64047 0.03467 0.0
C1216 C 0.1582 0.64902 0.0123 0.0
C1217 C 0.16911 0.62475 0.04036 0.0
C1218 C 0.12232 0.62366 0.03963 0.0
C1219 C 0.11498 0.63722 0.05382 0.0
C1220 C 0.08739 0.62585 0.0609 0.0
C1221 C 0.0668 0.59985 0.05351 0.0
C1222 C 0.07375 0.58526 0.03912 0.0
C1223 C 0.10197 0.59756 0.03205 0.0
H1224 H 0.30908 0.43071 0.06385 0.0
H1225 H 0.32196 0.51252 0.05164 0.0
H1226 H 0.37193 0.52886 0.04265 0.0
H1227 H 0.37955 0.45394 0.08583 0.0
H1228 H 0.38235 0.42587 0.07467 0.0
H1229 H 0.34806 0.42112 0.08093 0.0
H1230 H 0.33172 0.40617 0.04399 0.0
H1231 H 0.36614 0.41153 0.03738 0.0
H1232 H 0.35134 0.4292 0.02361 0.0
H1233 H 0.41978 0.53552 0.03293 0.0
H1234 H 0.46313 0.53319 0.0264 0.0
H1235 H 0.42016 0.44754 0.04581 0.0
C1236 C 0.3227 0.4522 0.05974 0.0
C1237 C 0.31197 0.47059 0.05874 0.0
C1238 C 0.33005 0.49834 0.05281 0.0
C1239 C 0.35837 0.50772 0.04755 0.0
C1240 C 0.36833 0.48906 0.04832 0.0
C1241 C 0.35118 0.46197 0.05455 0.0
C1242 C 0.36716 0.44614 0.05388 0.0
C1243 C 0.36941 0.43619 0.07509 0.0
C1244 C 0.35326 0.42182 0.03882 0.0
C1245 C 0.39587 0.4685 0.04634 0.0
C1246 C 0.39599 0.49302 0.043 0.0
C1247 C 0.41992 0.51644 0.03558 0.0
C1248 C 0.44443 0.51488 0.03175 0.0
C1249 C 0.44489 0.49005 0.03525 0.0
C1250 C 0.4203 0.4667 0.04282 0.0
H1251 H 0.47538 0.80905 0.05114 0.0
H1252 H 0.54676 0.84107 0.09244 0.0
H1253 H 0.55629 0.88886 0.08628 0.0
H1254 H 0.507 0.86418 0.0149 0.0
H1255 H 0.47477 0.86458 0.00966 0.0
H1256 H 0.47317 0.83299 0.01766 0.0
H1257 H 0.44029 0.82924 0.0473 0.0
H1258 H 0.44202 0.8609 0.03923 0.0
H1259 H 0.45178 0.85785 0.06473 0.0
H1260 H 0.55854 0.93252 0.07531 0.0
H1261 H 0.55333 0.97022 0.06095 0.0
H1262 H 0.4801 0.91045 0.02632 0.0
C1263 C 0.49284 0.82622 0.05897 0.0
C1264 C 0.51036 0.82176 0.07234 0.0
C1265 C 0.53315 0.84438 0.08225 0.0
C1266 C 0.53868 0.87146 0.07881 0.0
C1267 C 0.52117 0.87535 0.06541 0.0
C1268 C 0.49861 0.8534 0.05569 0.0
C1269 C 0.48332 0.86347 0.04189 0.0
C1270 C 0.48466 0.85585 0.01971 0.0
C1271 C 0.45253 0.85219 0.0487 0.0
C1272 C 0.50092 0.89449 0.04529 0.0
C1273 C 0.52258 0.90077 0.05894 0.0
C1274 C 0.54166 0.92788 0.06463 0.0
C1275 C 0.53846 0.94919 0.05632 0.0
C1276 C 0.51634 0.94343 0.04238 0.0
C1277 C 0.49739 0.91562 0.03676 0.0
H1278 H 1.00516 0.16997 0.4013 0.0
H1279 H 0.95034 0.20501 0.40823 0.0
H1280 H 0.98667 0.24843 0.39244 0.0
H1281 H 0.06897 0.23191 0.41433 0.0
H1282 H 0.09096 0.22649 0.39673 0.0
H1283 H 0.05967 0.19725 0.40681 0.0
H1284 H 0.04181 0.18063 0.3704 0.0
H1285 H 0.07269 0.21027 0.36013 0.0
H1286 H 0.03775 0.20341 0.35318 0.0
H1287 H 0.02882 0.28834 0.37789 0.0
H1288 H 0.07688 0.32497 0.36872 0.0
H1289 H 0.10636 0.26585 0.37138 0.0
C1290 C 1.00082 0.18677 0.39928 0.0
C1291 C 0.9749 0.18418 0.40591 0.0
C1292 C 0.97008 0.20667 0.40336 0.0
C1293 C 0.99047 0.23127 0.39422 0.0
C1294 C 0.01572 0.23319 0.3878 0.0
C1295 C 0.02124 0.21177 0.39043 0.0
C1296 C 0.05121 0.22036 0.38373 0.0
C1297 C 0.06873 0.21892 0.40146 0.0
C1298 C 0.05084 0.20261 0.36579 0.0
C1299 C 0.0618 0.25012 0.37732 0.0
C1300 C 0.04065 0.25676 0.37949 0.0
C1301 C 0.04543 0.28333 0.37587 0.0
C1302 C 0.07275 0.30396 0.37061 0.0
C1303 C 0.09502 0.29803 0.36886 0.0
C1304 C 0.08942 0.27063 0.3719 0.0
H1305 H 0.79392 0.76554 0.40704 0.0
H1306 H 0.86341 0.84907 0.39701 0.0
H1307 H 0.82979 0.86232 0.38324 0.0
H1308 H 0.75329 0.76182 0.36194 0.0
H1309 H 0.71953 0.74249 0.37432 0.0
H1310 H 0.74909 0.73895 0.38254 0.0
H1311 H 0.74343 0.75245 0.41905 0.0
H1312 H 0.71378 0.75588 0.41098 0.0
H1313 H 0.74359 0.78448 0.42336 0.0
H1314 H 0.78835 0.86734 0.37217 0.0
H1315 H 0.74246 0.86363 0.36464 0.0
H1316 H 0.69919 0.77695 0.3814 0.0
C1317 C 0.80211 0.78665 0.402 0.0
C1318 C 0.83151 0.80621 0.4031 0.0
C1319 C 0.84118 0.83354 0.3961 0.0
C1320 C 0.82218 0.84132 0.38831 0.0
C1321 C 0.79344 0.82157 0.38749 0.0
C1322 C 0.78341 0.79478 0.3941 0.0
C1323 C 0.75138 0.77775 0.3919 0.0
C1324 C 0.74283 0.75383 0.37678 0.0
C1325 C 0.73722 0.76702 0.41255 0.0
C1326 C 0.74492 0.79932 0.3835 0.0
C1327 C 0.76955 0.82439 0.38089 0.0
C1328 C 0.769 0.84767 0.37388 0.0
C1329 C 0.74269 0.8453 0.36944 0.0
C1330 C 0.71712 0.81976 0.3717 0.0
C1331 C 0.7184 0.79659 0.37906 0.0
H1332 H 0.2475 0.05817 0.38031 0.0
H1333 H 0.18658 0.03472 0.42896 0.0
H1334 H 0.16623 0.98546 0.41957 0.0
H1335 H 0.20083 0.00422 0.344 0.0
H1336 H 0.22859 0.99848 0.33485 0.0
H1337 H 0.23705 0.03221 0.34416 0.0
H1338 H 0.27271 0.03131 0.36969 0.0
H1339 H 0.26443 0.99769 0.36039 0.0
H1340 H 0.26083 0.00263 0.38693 0.0
H1341 H 0.15416 0.93927 0.40649 0.0
H1342 H 0.15236 0.89799 0.39133 0.0
H1343 H 0.22116 0.95019 0.35111 0.0
C1344 C 0.22961 0.04262 0.38874 0.0
C1345 C 0.21848 0.05012 0.40532 0.0
C1346 C 0.19543 0.02929 0.41629 0.0
C1347 C 0.18364 1.00133 0.41098 0.0
C1348 C 0.1952 0.99455 0.3947 0.0
C1349 C 0.21773 0.01449 0.38376 0.0
C1350 C 0.22726 1.00129 0.3678 0.0
C1351 C 0.22318 0.00955 0.34643 0.0
C1352 C 0.25813 0.00867 0.37143 0.0
C1353 C 0.20684 0.97085 0.37173 0.0
C1354 C 0.18834 0.96756 0.38717 0.0
C1355 C 0.16828 0.94155 0.39424 0.0
C1356 C 0.16737 0.91825 0.38553 0.0
C1357 C 0.18632 0.92112 0.36995 0.0
C1358 C 0.20613 0.94765 0.36277 0.0
H1359 H 0.54028 0.64134 0.28856 0.0
H1360 H 0.46408 0.63302 0.31578 0.0
H1361 H 0.49187 0.67984 0.33049 0.0
H1362 H 0.5864 0.67687 0.32988 0.0
H1363 H 0.61639 0.69968 0.31457 0.0
H1364 H 0.59049 0.6661 0.30499 0.0
H1365 H 0.58262 0.68905 0.27353 0.0
H1366 H 0.60861 0.72271 0.28298 0.0
H1367 H 0.57338 0.71566 0.2769 0.0
H1368 H 0.52745 0.72638 0.34324 0.0
H1369 H 0.56894 0.77048 0.3533 0.0
H1370 H 0.62329 0.74962 0.31853 0.0
C1371 C 0.52945 0.6496 0.29736 0.0
C1372 C 0.49998 0.63348 0.30108 0.0
C1373 C 0.48664 0.64486 0.31291 0.0
C1374 C 0.50222 0.67149 0.32126 0.0
C1375 C 0.53122 0.68662 0.31765 0.0
C1376 C 0.5448 0.67624 0.30595 0.0
C1377 C 0.57644 0.6967 0.3051 0.0
C1378 C 0.59343 0.68408 0.31418 0.0
C1379 C 0.58581 0.70661 0.28333 0.0
C1380 C 0.57846 0.71995 0.31833 0.0
C1381 C 0.55203 0.71366 0.32528 0.0
C1382 C 0.54827 0.73155 0.33791 0.0
C1383 C 0.5721 0.75655 0.34366 0.0
C1384 C 0.59957 0.76352 0.33695 0.0
C1385 C 0.60266 0.74494 0.32397 0.0
H1386 H 0.34466 0.85702 0.29219 0.0
H1387 H 0.40415 0.93408 0.32162 0.0
H1388 H 0.36429 0.93658 0.33743 0.0
H1389 H 0.28966 0.8752 0.28231 0.0
H1390 H 0.26101 0.84066 0.28713 0.0
H1391 H 0.29417 0.84579 0.2775 0.0
H1392 H 0.29696 0.81776 0.30742 0.0
H1393 H 0.26462 0.81341 0.31811 0.0
H1394 H 0.2968 0.82904 0.33292 0.0
H1395 H 0.31752 0.93115 0.34938 0.0
H1396 H 0.26769 0.91741 0.35716 0.0
H1397 H 0.23873 0.84253 0.32175 0.0
C1398 C 0.34914 0.87451 0.30181 0.0
C1399 C 0.37739 0.89555 0.3056 0.0
C1400 C 0.38261 0.91795 0.31845 0.0
C1401 C 0.36011 0.91948 0.3275 0.0
C1402 C 0.33245 0.89835 0.32361 0.0
C1403 C 0.32686 0.8763 0.31101 0.0
C1404 C 0.29521 0.8561 0.30962 0.0
C1405 C 0.28439 0.85434 0.28785 0.0
C1406 C 0.28795 0.82737 0.31749 0.0
C1407 C 0.28394 0.87001 0.32357 0.0
C1408 C 0.30572 0.89453 0.3313 0.0
C1409 C 0.30037 0.91176 0.34365 0.0
C1410 C 0.27207 0.90378 0.3481 0.0
C1411 C 0.24955 0.8784 0.34081 0.0
C1412 C 0.25563 0.8615 0.32821 0.0
H1413 H 0.17311 0.52186 0.30675 0.0
H1414 H 0.08634 0.47708 0.28448 0.0
H1415 H 0.0822 0.4334 0.29626 0.0
H1416 H 0.19227 0.47079 0.29601 0.0
H1417 H 0.2123 0.4766 0.31901 0.0
H1418 H 0.20909 0.50442 0.30799 0.0
H1419 H 0.18899 0.51097 0.34175 0.0
H1420 H 0.19213 0.48311 0.35282 0.0
H1421 H 0.15844 0.48182 0.3528 0.0
H1422 H 0.08758 0.3944 0.30985 0.0
H1423 H 0.10183 0.36293 0.32522 0.0
H1424 H 0.18316 0.43343 0.34179 0.0
C1425 C 0.15306 0.50301 0.30449 0.0
C1426 C 0.13014 0.50319 0.29444 0.0
C1427 C 0.10455 0.47771 0.29159 0.0
C1428 C 0.10182 0.45272 0.29846 0.0
C1429 C 0.12467 0.45348 0.30849 0.0
C1430 C 0.14972 0.47797 0.31167 0.0
C1431 C 0.17082 0.47313 0.32334 0.0
C1432 C 0.1977 0.48174 0.31083 0.0
C1433 C 0.17801 0.48816 0.3439 0.0
C1434 C 0.1538 0.44203 0.32599 0.0
C1435 C 0.1273 0.4311 0.31721 0.0
C1436 C 0.10818 0.40273 0.31691 0.0
C1437 C 0.11649 0.38502 0.32563 0.0
C1438 C 0.14353 0.39578 0.33472 0.0
C1439 C 0.16223 0.42469 0.33515 0.0
H1440 H 0.37547 0.46104 0.31519 0.0
H1441 H 0.35983 0.52992 0.31496 0.0
H1442 H 0.3093 0.49787 0.32309 0.0
H1443 H 0.30798 0.40989 0.29274 0.0
H1444 H 0.30508 0.38203 0.30823 0.0
H1445 H 0.33948 0.41039 0.30168 0.0
H1446 H 0.35249 0.41881 0.33967 0.0
H1447 H 0.31787 0.39108 0.34654 0.0
H1448 H 0.33069 0.42541 0.35664 0.0
H1449 H 0.26072 0.45821 0.3324 0.0
H1450 H 0.21745 0.41383 0.33973 0.0
H1451 H 0.26468 0.37069 0.33393 0.0
C1452 C 0.36119 0.46917 0.31647 0.0
C1453 C 0.37116 0.49773 0.31416 0.0
C1454 C 0.35226 0.50794 0.31637 0.0
C1455 C 0.32365 0.48994 0.32111 0.0
C1456 C 0.31441 0.46184 0.32362 0.0
C1457 C 0.33256 0.45145 0.32116 0.0
C1458 C 0.31739 0.42048 0.32486 0.0
C1459 C 0.31748 0.40477 0.30574 0.0
C1460 C 0.33039 0.41354 0.34301 0.0
C1461 C 0.28787 0.415 0.32966 0.0
C1462 C 0.28663 0.43915 0.32906 0.0
C1463 C 0.26154 0.43922 0.33299 0.0
C1464 C 0.23706 0.41392 0.33736 0.0
C1465 C 0.23789 0.38894 0.33798 0.0
C1466 C 0.26362 0.38959 0.33391 0.0
H1467 H 0.49138 0.83263 0.31919 0.0
H1468 H 0.52698 0.92118 0.31224 0.0
H1469 H 0.57492 0.9284 0.31911 0.0
H1470 H 0.53392 0.83517 0.35934 0.0
H1471 H 0.54031 0.80766 0.35159 0.0
H1472 H 0.5082 0.80702 0.3441 0.0
H1473 H 0.51724 0.80492 0.30639 0.0
H1474 H 0.54821 0.80286 0.31299 0.0
H1475 H 0.55116 0.82926 0.29583 0.0
H1476 H 0.61873 0.92602 0.32634 0.0
H1477 H 0.65618 0.91434 0.33273 0.0
H1478 H 0.5927 0.82734 0.33665 0.0
C1479 C 0.50942 0.85345 0.31881 0.0
C1480 C 0.50576 0.87643 0.31499 0.0
C1481 C 0.52957 0.9034 0.31492 0.0
C1482 C 0.55679 0.90765 0.31889 0.0
C1483 C 0.55977 0.88466 0.32292 0.0
C1484 C 0.53682 0.85803 0.32269 0.0
C1485 C 0.54598 0.83701 0.32763 0.0
C1486 C 0.53126 0.82074 0.34682 0.0
C1487 C 0.54032 0.81736 0.30964 0.0
C1488 C 0.57759 0.85601 0.33102 0.0
C1489 C 0.58503 0.88339 0.32801 0.0
C1490 C 0.61311 0.90472 0.32897 0.0
C1491 C 0.63423 0.89792 0.33267 0.0
C1492 C 0.62726 0.87014 0.33585 0.0
C1493 C 0.59851 0.84888 0.3351 0.0
H1494 H 0.16317 0.66743 0.29252 0.0
H1495 H 0.13811 0.62126 0.34852 0.0
H1496 H 0.13133 0.65786 0.3643 0.0
H1497 H 0.20308 0.73307 0.31429 0.0
H1498 H 0.19289 0.75096 0.29649 0.0
H1499 H 0.1927 0.71985 0.28892 0.0
H1500 H 0.13996 0.69764 0.2783 0.0
H1501 H 0.14007 0.72881 0.28579 0.0
H1502 H 0.11437 0.69591 0.29632 0.0
H1503 H 0.13323 0.70172 0.37511 0.0
H1504 H 0.14109 0.7491 0.37975 0.0
H1505 H 0.16286 0.76615 0.31633 0.0
C1506 C 0.1556 0.66488 0.30794 0.0
C1507 C 0.15082 0.64169 0.3194 0.0
C1508 C 0.14153 0.63895 0.33959 0.0
C1509 C 0.13764 0.65956 0.34863 0.0
C1510 C 0.14297 0.68257 0.33712 0.0
C1511 C 0.15145 0.68524 0.31714 0.0
C1512 C 0.15733 0.71279 0.30854 0.0
C1513 C 0.18834 0.73018 0.30167 0.0
C1514 C 0.13669 0.70852 0.29122 0.0
C1515 C 0.15159 0.72543 0.32694 0.0
C1516 C 0.14329 0.70765 0.34325 0.0
C1517 C 0.13913 0.71563 0.36235 0.0
C1518 C 0.14374 0.74256 0.36487 0.0
C1519 C 0.15215 0.76103 0.34834 0.0
C1520 C 0.15571 0.75217 0.32911 0.0
H1521 H 0.86686 0.01727 0.37563 0.0
H1522 H 0.83277 0.05387 0.41664 0.0
H1523 H 0.78428 0.01452 0.4103 0.0
H1524 H 0.81001 0.99127 0.33914 0.0
H1525 H 0.8107 0.95984 0.33407 0.0
H1526 H 0.84256 0.99062 0.34197 0.0
H1527 H 0.84804 0.96354 0.37181 0.0
H1528 H 0.81623 0.93274 0.36385 0.0
H1529 H 0.81918 0.94563 0.38929 0.0
H1530 H 0.73984 0.97147 0.39932 0.0
H1531 H 0.70238 0.92696 0.38563 0.0
H1532 H 0.76529 0.91801 0.35144 0.0
C1533 C 0.8491 0.01678 0.38333 0.0
C1534 C 0.85322 0.03828 0.3967 0.0
C1535 C 0.82978 0.03735 0.40646 0.0
C1536 C 0.80228 0.01518 0.40288 0.0
C1537 C 0.79876 0.99427 0.38947 0.0
C1538 C 0.82153 0.99479 0.37991 0.0
C1539 C 0.81193 0.96968 0.36625 0.0
C1540 C 0.81924 0.97839 0.34404 0.0
C1541 C 0.8246 0.95184 0.37323 0.0
C1542 C 0.78021 0.95492 0.36965 0.0
C1543 C 0.7731 0.96951 0.38306 0.0
C1544 C 0.74518 0.95989 0.38881 0.0
C1545 C 0.72401 0.93452 0.3809 0.0
C1546 C 0.73076 0.91891 0.36735 0.0
C1547 C 0.7593 0.92952 0.36154 0.0
H1548 H 0.99809 0.8488 0.39373 0.0
H1549 H 0.95238 0.76017 0.40358 0.0
H1550 H 0.99555 0.75809 0.39457 0.0
H1551 H 0.03633 0.84816 0.35104 0.0
H1552 H 0.06912 0.87927 0.35711 0.0
H1553 H 0.0359 0.87521 0.36567 0.0
H1554 H 0.05199 0.88245 0.40288 0.0
H1555 H 0.08612 0.88843 0.39483 0.0
H1556 H 0.06632 0.86225 0.41345 0.0
H1557 H 0.04478 0.76645 0.38473 0.0
H1558 H 0.09535 0.78453 0.37628 0.0
H1559 H 0.1078 0.86727 0.37134 0.0
C1560 C 0.99737 0.82904 0.39431 0.0
C1561 C 0.97216 0.80467 0.39966 0.0
C1562 C 0.97169 0.77909 0.39984 0.0
C1563 C 0.99605 0.77775 0.3946 0.0
C1564 C 0.02059 0.80217 0.38909 0.0
C1565 C 0.02143 0.82738 0.38907 0.0
C1566 C 0.05022 0.8506 0.38244 0.0
C1567 C 0.04776 0.86412 0.3629 0.0
C1568 C 0.0645 0.8722 0.39941 0.0
C1569 C 0.0656 0.83465 0.37876 0.0
C1570 C 0.04821 0.80672 0.38267 0.0
C1571 C 0.05834 0.78819 0.38133 0.0
C1572 C 0.08699 0.79854 0.37631 0.0
C1573 C 0.10506 0.82704 0.37225 0.0
C1574 C 0.09413 0.84521 0.37356 0.0
H1575 H 0.2005 0.17043 0.37088 0.0
H1576 H 0.26545 0.21359 0.41631 0.0
H1577 H 0.25567 0.25256 0.41571 0.0
H1578 H 0.21561 0.22911 0.3415 0.0
H1579 H 0.17899 0.21676 0.33536 0.0
H1580 H 0.19044 0.19243 0.34096 0.0
H1581 H 0.15148 0.17145 0.36871 0.0
H1582 H 0.14116 0.19683 0.36322 0.0
H1583 H 0.1513 0.19358 0.38857 0.0
H1584 H 0.24087 0.28755 0.40853 0.0
H1585 H 0.22241 0.31672 0.39577 0.0
H1586 H 0.16667 0.25092 0.3545 0.0
C1587 C 0.21222 0.18794 0.38094 0.0
C1588 C 0.23352 0.18924 0.39377 0.0
C1589 C 0.2489 0.21239 0.40653 0.0
C1590 C 0.24347 0.2345 0.40626 0.0
C1591 C 0.22255 0.23288 0.39318 0.0
C1592 C 0.20702 0.21012 0.38085 0.0
C1593 C 0.18679 0.21417 0.36744 0.0
C1594 C 0.19341 0.21308 0.34499 0.0
C1595 C 0.15585 0.19273 0.37228 0.0
C1596 C 0.19379 0.24306 0.37381 0.0
C1597 C 0.21428 0.2533 0.38881 0.0
C1598 C 0.22471 0.2797 0.39688 0.0
C1599 C 0.21405 0.29617 0.38942 0.0
C1600 C 0.19317 0.28634 0.37392 0.0
C1601 C 0.18278 0.25924 0.36618 0.0
H1602 H 0.67052 0.51202 0.72989 0.0
H1603 H 0.6182 0.54998 0.73612 0.0
H1604 H 0.65595 0.59293 0.72094 0.0
H1605 H 0.73565 0.57207 0.74302 0.0
H1606 H 0.75693 0.56592 0.72524 0.0
H1607 H 0.72497 0.5372 0.73508 0.0
H1608 H 0.70691 0.52183 0.69845 0.0
H1609 H 0.73857 0.55096 0.68852 0.0
H1610 H 0.70425 0.54579 0.6816 0.0
H1611 H 0.70004 0.6329 0.7081 0.0
H1612 H 0.74887 0.66815 0.69892 0.0
H1613 H 0.77365 0.60547 0.69974 0.0
C1614 C 0.66691 0.52926 0.72774 0.0
C1615 C 0.64133 0.5276 0.73429 0.0
C1616 C 0.63764 0.55079 0.73147 0.0
C1617 C 0.65889 0.57524 0.7227 0.0
C1618 C 0.6839 0.57637 0.71667 0.0
C1619 C 0.68814 0.55408 0.71904 0.0
C1620 C 0.71789 0.56168 0.71235 0.0
C1621 C 0.73485 0.55906 0.72998 0.0
C1622 C 0.71683 0.54401 0.69415 0.0
C1623 C 0.72974 0.59179 0.70632 0.0
C1624 C 0.70957 0.59965 0.70877 0.0
C1625 C 0.71585 0.62687 0.70573 0.0
C1626 C 0.74358 0.64673 0.70047 0.0
C1627 C 0.7647 0.63935 0.69802 0.0
C1628 C 0.7576 0.61142 0.70073 0.0
H1629 H 0.47699 0.09762 0.74452 0.0
H1630 H 0.54782 0.17955 0.73258 0.0
H1631 H 0.51505 0.19361 0.71805 0.0
H1632 H 0.4391 0.09261 0.69826 0.0
H1633 H 0.40461 0.07399 0.70973 0.0
H1634 H 0.43349 0.07065 0.71977 0.0
H1635 H 0.42577 0.08594 0.75515 0.0
H1636 H 0.39678 0.08913 0.74518 0.0
H1637 H 0.4259 0.11822 0.75772 0.0
H1638 H 0.47405 0.19917 0.70582 0.0
H1639 H 0.42843 0.19522 0.69613 0.0
H1640 H 0.38462 0.10868 0.71337 0.0
C1641 C 0.48547 0.11858 0.73903 0.0
C1642 C 0.51489 0.13763 0.73984 0.0
C1643 C 0.52533 0.16473 0.73216 0.0
C1644 C 0.50689 0.17286 0.72386 0.0
C1645 C 0.47802 0.15354 0.72306 0.0
C1646 C 0.46737 0.12691 0.73034 0.0
C1647 C 0.43556 0.10997 0.72718 0.0
C1648 C 0.42774 0.08535 0.71288 0.0
C1649 C 0.4201 0.10025 0.74752 0.0
C1650 C 0.42996 0.13131 0.7173 0.0
C1651 C 0.4547 0.15635 0.71509 0.0
C1652 C 0.45462 0.1795 0.70718 0.0
C1653 C 0.42857 0.17702 0.70151 0.0
C1654 C 0.40301 0.15139 0.70328 0.0
C1655 C 0.4039 0.12836 0.71135 0.0
H1656 H 0.86673 0.36855 0.72504 0.0
H1657 H 0.94725 0.39858 0.75603 0.0
H1658 H 0.94819 0.35671 0.7454 0.0
H1659 H 0.83771 0.29713 0.73683 0.0
H1660 H 0.82081 0.2844 0.71262 0.0
H1661 H 0.82649 0.31712 0.72211 0.0
H1662 H 0.85376 0.34135 0.68945 0.0
H1663 H 0.84804 0.3086 0.67991 0.0
H1664 H 0.88349 0.33775 0.6818 0.0
H1665 H 0.93984 0.3112 0.73299 0.0
H1666 H 0.92297 0.26458 0.71915 0.0
H1667 H 0.84863 0.26368 0.69454 0.0
C1668 C 0.88474 0.3665 0.72939 0.0
C1669 C 0.90681 0.38691 0.74161 0.0
C1670 C 0.92979 0.38312 0.7471 0.0
C1671 C 0.93066 0.35949 0.74096 0.0
C1672 C 0.90855 0.33978 0.72912 0.0
C1673 C 0.88605 0.343 0.72326 0.0
C1674 C 0.86479 0.31824 0.7108 0.0
C1675 C 0.83574 0.30334 0.72122 0.0
C1676 C 0.86239 0.32702 0.68921 0.0
C1677 C 0.87873 0.3005 0.71086 0.0
C1678 C 0.90397 0.31347 0.7215 0.0
C1679 C 0.92024 0.30094 0.72447 0.0
C1680 C 0.91039 0.27434 0.71656 0.0
C1681 C 0.88452 0.26042 0.70565 0.0
C1682 C 0.86867 0.27391 0.70256 0.0
H1683 H 0.17189 0.9758 0.64873 0.0
H1684 H 0.22273 0.94742 0.61743 0.0
H1685 H 0.26583 0.99139 0.62578 0.0
H1686 H 0.21238 0.04719 0.63438 0.0
H1687 H 0.20907 0.06055 0.65844 0.0
H1688 H 0.18184 0.02684 0.65001 0.0
H1689 H 0.18756 0.00465 0.68288 0.0
H1690 H 0.21417 0.03858 0.69132 0.0
H1691 H 0.22225 0.01097 0.69002 0.0
H1692 H 0.30348 0.03891 0.63649 0.0
H1693 H 0.33338 0.08605 0.65003 0.0
H1694 H 0.25914 0.08347 0.67622 0.0
C1695 C 0.19209 0.97865 0.6438 0.0
C1696 C 0.19364 0.958 0.63216 0.0
C1697 C 0.22065 0.96294 0.6259 0.0
C1698 C 0.24539 0.98784 0.63073 0.0
C1699 C 0.24303 0.00772 0.64203 0.0
C1700 C 0.21712 0.00339 0.64862 0.0
C1701 C 0.22063 0.02825 0.66062 0.0
C1702 C 0.20505 0.04149 0.65024 0.0
C1703 C 0.21056 0.0201 0.68251 0.0
C1704 C 0.25255 0.04721 0.65969 0.0
C1705 C 0.26497 0.03495 0.64877 0.0
C1706 C 0.29401 0.04862 0.6452 0.0
C1707 C 0.31085 0.0755 0.65295 0.0
C1708 C 0.29877 0.08854 0.66436 0.0
C1709 C 0.26915 0.07402 0.6678 0.0
H1710 H 0.05534 0.25078 0.63046 0.0
H1711 H 0.04223 0.16881 0.64261 0.0
H1712 H 0.99522 0.1549 0.65712 0.0
H1713 H 0.02262 0.25611 0.67648 0.0
H1714 H 0.00709 0.27457 0.6648 0.0
H1715 H 0.0394 0.27789 0.6549 0.0
H1716 H 0.01601 0.26224 0.6195 0.0
H1717 H 0.98377 0.25911 0.62931 0.0
H1718 H 0.98314 0.22992 0.617 0.0
H1719 H 0.9487 0.1495 0.66954 0.0
H1720 H 0.90699 0.15352 0.67893 0.0
H1721 H 0.9516 0.23974 0.66088 0.0
C1722 C 0.04239 0.22984 0.63599 0.0
C1723 C 0.05232 0.21079 0.63531 0.0
C1724 C 0.03499 0.1837 0.643 0.0
C1725 C 0.00828 0.17562 0.65128 0.0
C1726 C 0.99923 0.19497 0.65201 0.0
C1727 C 0.01579 0.22155 0.64463 0.0
C1728 C 1.00129 0.23847 0.64758 0.0
C1729 C 0.01865 0.26323 0.66178 0.0
C1730 C 0.99572 0.24799 0.62713 0.0
C1731 C 0.9739 0.21719 0.65747 0.0
C1732 C 0.97306 0.19219 0.65991 0.0
C1733 C 0.94934 0.16912 0.66796 0.0
C1734 C 0.9258 0.17163 0.67344 0.0
C1735 C 0.92638 0.19716 0.67124 0.0
C1736 C 0.95082 0.22014 0.66317 0.0
H1737 H 0.79928 0.81585 0.60516 0.0
H1738 H 0.81851 0.87063 0.65696 0.0
H1739 H 0.82694 0.83884 0.67765 0.0
H1740 H 0.76151 0.75159 0.63374 0.0
H1741 H 0.77471 0.7336 0.61858 0.0
H1742 H 0.77028 0.76073 0.60756 0.0
H1743 H 0.82291 0.78636 0.59663 0.0
H1744 H 0.82749 0.75934 0.60766 0.0
H1745 H 0.85014 0.79485 0.61537 0.0
H1746 H 0.83538 0.80247 0.69249 0.0
H1747 H 0.84081 0.76258 0.70102 0.0
H1748 H 0.81299 0.72905 0.64065 0.0
C1749 C 0.80492 0.82106 0.62091 0.0
C1750 C 0.80852 0.8461 0.62927 0.0
C1751 C 0.81624 0.85204 0.64995 0.0
C1752 C 0.82088 0.83397 0.66193 0.0
C1753 C 0.81743 0.80973 0.65317 0.0
C1754 C 0.8094 0.80306 0.63319 0.0
C1755 C 0.80709 0.77552 0.62763 0.0
C1756 C 0.77658 0.75409 0.62152 0.0
C1757 C 0.82816 0.77925 0.61083 0.0
C1758 C 0.81527 0.76793 0.64757 0.0
C1759 C 0.82126 0.78807 0.66203 0.0
C1760 C 0.83033 0.78636 0.68137 0.0
C1761 C 0.83324 0.76343 0.68613 0.0
C1762 C 0.82682 0.74216 0.67177 0.0
C1763 C 0.8177 0.74461 0.65217 0.0
H1764 H 0.04778 0.80118 0.6463 0.0
H1765 H 0.02941 0.86775 0.65442 0.0
H1766 H 0.97953 0.83354 0.66224 0.0
H1767 H 0.97997 0.75205 0.62259 0.0
H1768 H 0.97782 0.7223 0.63499 0.0
H1769 H 0.0119 0.75196 0.62955 0.0
H1770 H 0.02561 0.7551 0.66738 0.0
H1771 H 0.99139 0.72577 0.67304 0.0
H1772 H 1.00348 0.7581 0.68625 0.0
H1773 H 0.93253 0.79264 0.6709 0.0
H1774 H 0.89007 0.74734 0.67677 0.0
H1775 H 0.93732 0.7061 0.66208 0.0
C1776 C 0.03302 0.80837 0.64936 0.0
C1777 C 0.04214 0.83699 0.64953 0.0
C1778 C 0.02258 0.84584 0.65397 0.0
C1779 C 0.9943 0.82659 0.65855 0.0
C1780 C 0.9859 0.7985 0.65857 0.0
C1781 C 1.00452 0.7893 0.65386 0.0
C1782 C 0.9898 0.75786 0.65501 0.0
C1783 C 0.98988 0.74531 0.6343 0.0
C1784 C 1.00339 0.74868 0.67139 0.0
C1785 C 0.96009 0.75091 0.66101 0.0
C1786 C 0.95848 0.77474 0.66322 0.0
C1787 C 0.93353 0.77384 0.6691 0.0
C1788 C 0.90946 0.74792 0.67253 0.0
C1789 C 0.91038 0.72312 0.67015 0.0
C1790 C 0.93606 0.72473 0.66416 0.0
H1791 H 0.22315 0.2452 0.64506 0.0
H1792 H 0.15565 0.1596 0.64297 0.0
H1793 H 0.19037 0.14416 0.64949 0.0
H1794 H 0.27788 0.23406 0.62095 0.0
H1795 H 0.30572 0.25937 0.63689 0.0
H1796 H 0.27575 0.26326 0.63057 0.0
H1797 H 0.26701 0.26603 0.66858 0.0
H1798 H 0.29599 0.26084 0.67543 0.0
H1799 H 0.26094 0.23782 0.68495 0.0
H1800 H 0.23205 0.13826 0.65864 0.0
H1801 H 0.2781 0.14221 0.66692 0.0
H1802 H 0.31892 0.23163 0.66267 0.0
C1803 C 0.21593 0.22322 0.64541 0.0
C1804 C 0.18693 0.20346 0.64314 0.0
C1805 C 0.17793 0.17492 0.64428 0.0
C1806 C 0.19745 0.16601 0.64811 0.0
C1807 C 0.22591 0.18597 0.65071 0.0
C1808 C 0.23522 0.21399 0.64911 0.0
C1809 C 0.26684 0.23115 0.65306 0.0
C1810 C 0.28247 0.24795 0.63424 0.0
C1811 C 0.27306 0.25008 0.67161 0.0
C1812 C 0.27381 0.20848 0.65726 0.0
C1813 C 0.24987 0.18257 0.65596 0.0
C1814 C 0.25093 0.15847 0.65963 0.0
C1815 C 0.27716 0.1609 0.66454 0.0
C1816 C 0.30195 0.18725 0.6659 0.0
C1817 C 0.3002 0.21125 0.66196 0.0
H1818 H 0.84179 0.01204 0.60715 0.0
H1819 H 0.80353 0.95388 0.65633 0.0
H1820 H 0.79924 0.98942 0.67612 0.0
H1821 H 0.88328 0.07077 0.63713 0.0
H1822 H 0.87891 0.09484 0.62152 0.0
H1823 H 0.8764 0.06417 0.61043 0.0
H1824 H 0.82656 0.04997 0.59635 0.0
H1825 H 0.82905 0.08074 0.60734 0.0
H1826 H 0.79947 0.04716 0.61337 0.0
H1827 H 0.80363 0.03247 0.69177 0.0
H1828 H 0.81432 0.07953 0.70167 0.0
H1829 H 0.84877 0.10994 0.64219 0.0
C1830 C 0.83188 0.00672 0.62189 0.0
C1831 C 0.82258 0.98028 0.63025 0.0
C1832 C 0.81036 0.974 0.64969 0.0
C1833 C 0.80791 0.99405 0.661 0.0
C1834 C 0.81766 0.02017 0.65253 0.0
C1835 C 0.82915 0.02651 0.63333 0.0
C1836 C 0.83932 0.05659 0.62822 0.0
C1837 C 0.87138 0.07252 0.62409 0.0
C1838 C 0.82259 0.05873 0.61026 0.0
C1839 C 0.83234 0.06632 0.64768 0.0
C1840 C 0.81983 0.04496 0.66149 0.0
C1841 C 0.8131 0.04925 0.681 0.0
C1842 C 0.81948 0.07607 0.68657 0.0
C1843 C 0.83234 0.09822 0.67272 0.0
C1844 C 0.83845 0.09318 0.65293 0.0
H1845 H 0.53713 0.36213 0.70932 0.0
H1846 H 0.49874 0.38634 0.75643 0.0
H1847 H 0.45326 0.34226 0.75142 0.0
H1848 H 0.47622 0.33 0.67645 0.0
H1849 H 0.48303 0.30299 0.66843 0.0
H1850 H 0.51197 0.3361 0.67611 0.0
H1851 H 0.52709 0.31151 0.70249 0.0
H1852 H 0.49793 0.27843 0.6948 0.0
H1853 H 0.50178 0.28899 0.72094 0.0
H1854 H 0.41186 0.29501 0.74084 0.0
H1855 H 0.37848 0.24924 0.72614 0.0
H1856 H 0.44446 0.25636 0.68575 0.0
C1857 C 0.51911 0.35801 0.71862 0.0
C1858 C 0.52123 0.37739 0.7333 0.0
C1859 C 0.49738 0.37158 0.74516 0.0
C1860 C 0.47154 0.34665 0.74237 0.0
C1861 C 0.47004 0.32788 0.72766 0.0
C1862 C 0.49327 0.3333 0.71602 0.0
C1863 C 0.48618 0.30997 0.70111 0.0
C1864 C 0.48955 0.32041 0.67923 0.0
C1865 C 0.50432 0.29643 0.70508 0.0
C1866 C 0.45534 0.29042 0.70617 0.0
C1867 C 0.44637 0.30108 0.72151 0.0
C1868 C 0.41872 0.28655 0.72881 0.0
C1869 C 0.39987 0.26049 0.72033 0.0
C1870 C 0.40862 0.24906 0.70464 0.0
C1871 C 0.43682 0.26446 0.69753 0.0
H1872 H 0.6497 0.10134 0.72847 0.0
H1873 H 0.66745 0.18624 0.72821 0.0
H1874 H 0.71766 0.20244 0.71992 0.0
H1875 H 0.71724 0.1154 0.75077 0.0
H1876 H 0.71925 0.08966 0.73544 0.0
H1877 H 0.68524 0.08523 0.74217 0.0
H1878 H 0.6717 0.08038 0.70421 0.0
H1879 H 0.70592 0.08549 0.69728 0.0
H1880 H 0.69386 0.1077 0.68698 0.0
H1881 H 0.76559 0.20902 0.70983 0.0
H1882 H 0.80817 0.2058 0.70209 0.0
H1883 H 0.75952 0.11669 0.70941 0.0
C1884 C 0.6644 0.12336 0.72714 0.0
C1885 C 0.65504 0.14269 0.72933 0.0
C1886 C 0.6745 0.17126 0.72696 0.0
C1887 C 0.70296 0.18059 0.72209 0.0
C1888 C 0.71156 0.16102 0.71964 0.0
C1889 C 0.69293 0.13302 0.72236 0.0
C1890 C 0.7075 0.11628 0.71869 0.0
C1891 C 0.7073 0.10073 0.73792 0.0
C1892 C 0.69393 0.09628 0.70072 0.0
C1893 C 0.73719 0.13917 0.7136 0.0
C1894 C 0.73905 0.16482 0.71397 0.0
C1895 C 0.76432 0.18902 0.70952 0.0
C1896 C 0.78839 0.18699 0.70493 0.0
C1897 C 0.78699 0.16093 0.7047 0.0
C1898 C 0.76105 0.13682 0.70921 0.0
H1899 H 0.91172 0.54085 0.73256 0.0
H1900 H 0.82811 0.46929 0.72445 0.0
H1901 H 0.80912 0.50003 0.7158 0.0
H1902 H 0.88693 0.58736 0.75423 0.0
H1903 H 0.91421 0.61747 0.74153 0.0
H1904 H 0.92067 0.59007 0.7491 0.0
H1905 H 0.93393 0.58578 0.71221 0.0
H1906 H 0.92717 0.61289 0.7045 0.0
H1907 H 0.90896 0.57954 0.69215 0.0
H1908 H 0.8006 0.53746 0.70364 0.0
H1909 H 0.80156 0.58 0.69237 0.0
H1910 H 0.88993 0.62864 0.71012 0.0
C1911 C 0.88927 0.53187 0.72959 0.0
C1912 C 0.87113 0.50282 0.72945 0.0
C1913 C 0.8421 0.49155 0.72494 0.0
C1914 C 0.83119 0.50883 0.71993 0.0
C1915 C 0.84963 0.53738 0.71969 0.0
C1916 C 0.87795 0.54895 0.72476 0.0
C1917 C 0.89325 0.58029 0.72252 0.0
C1918 C 0.90442 0.59464 0.74307 0.0
C1919 C 0.91724 0.59019 0.70692 0.0
C1920 C 0.86932 0.58437 0.71486 0.0
C1921 C 0.84439 0.55927 0.71328 0.0
C1922 C 0.81984 0.55729 0.70519 0.0
C1923 C 0.82065 0.58158 0.69871 0.0
C1924 C 0.84574 0.60766 0.70055 0.0
C1925 C 0.87034 0.60904 0.70886 0.0
H1926 H 0.44538 0.95195 0.25249 0.0
H1927 H 0.4529 0.8791 0.24167 0.0
H1928 H 0.47135 0.89619 0.20744 0.0
H1929 H 0.42357 0.95762 0.20161 0.0
H1930 H 0.44363 0.99495 0.20156 0.0
H1931 H 0.43027 0.97661 0.225 0.0
H1932 H 0.48101 1.00178 0.24005 0.0
H1933 H 0.49451 0.0202 0.21668 0.0
H1934 H 0.50901 0.99999 0.22694 0.0
H1935 H 0.48911 0.92139 0.17412 0.0
H1936 H 0.50721 0.95386 0.14532 0.0
H1937 H 0.48858 0.01053 0.17787 0.0
C1938 C 0.45067 0.93946 0.24285 0.0
C1939 C 0.44765 0.91412 0.24984 0.0
C1940 C 0.45526 0.89868 0.2368 0.0
C1941 C 0.4656 0.90814 0.21726 0.0
C1942 C 0.46836 0.93319 0.21087 0.0
C1943 C 0.46124 0.94872 0.22332 0.0
C1944 C 0.46704 0.97535 0.21302 0.0
C1945 C 0.43949 0.97617 0.21013 0.0
C1946 C 0.48921 1.00083 0.22488 0.0
C1947 C 0.47869 0.97248 0.1929 0.0
C1948 C 0.47902 0.94789 0.19188 0.0
C1949 C 0.4889 0.94068 0.17477 0.0
C1950 C 0.49899 0.9592 0.15841 0.0
C1951 C 0.49941 0.98482 0.15925 0.0
C1952 C 0.48885 0.99127 0.17676 0.0
H1953 H 0.11074 0.53053 0.22819 0.0
H1954 H 0.08749 0.58254 0.26269 0.0
H1955 H 0.0592 0.58318 0.23382 0.0
H1956 H 0.11482 0.56131 0.1789 0.0
H1957 H 0.09952 0.52862 0.16566 0.0
H1958 H 0.11964 0.53371 0.18851 0.0
H1959 H 0.07706 0.49051 0.20434 0.0
H1960 H 0.05688 0.48523 0.18153 0.0
H1961 H 0.04307 0.48853 0.20547 0.0
H1962 H 0.03149 0.57635 0.20213 0.0
H1963 H 1.00542 0.56181 0.16976 0.0
H1964 H 0.04542 0.51329 0.15582 0.0
C1965 C 0.09971 0.54206 0.22971 0.0
C1966 C 0.10158 0.55665 0.24776 0.0
C1967 C 0.08692 0.57163 0.24896 0.0
C1968 C 0.07065 0.57202 0.23266 0.0
C1969 C 0.06919 0.55733 0.21519 0.0
C1970 C 0.08328 0.54261 0.21359 0.0
C1971 C 0.0772 0.52767 0.19339 0.0
C1972 C 0.10442 0.53848 0.18088 0.0
C1973 C 0.06268 0.49611 0.19637 0.0
C1974 C 0.05714 0.53596 0.18404 0.0
C1975 C 0.05299 0.55323 0.19685 0.0
C1976 C 0.03466 0.56293 0.19193 0.0
C1977 C 0.01986 0.55446 0.17356 0.0
C1978 C 0.02335 0.53639 0.1603 0.0
C1979 C 0.0426 0.52739 0.16553 0.0
H1980 H 0.51678 0.58707 0.24486 0.0
H1981 H 0.42546 0.53596 0.23958 0.0
H1982 H 0.43089 0.5227 0.20486 0.0
H1983 H 0.52975 0.6118 0.19292 0.0
H1984 H 0.56224 0.61088 0.19112 0.0
H1985 H 0.55094 0.617 0.21521 0.0
H1986 H 0.55346 0.5755 0.23045 0.0
H1987 H 0.56468 0.56921 0.20641 0.0
H1988 H 0.53385 0.54187 0.21862 0.0
H1989 H 0.44668 0.51421 0.1707 0.0
H1990 H 0.47143 0.5101 0.14074 0.0
H1991 H 0.55225 0.56753 0.1684 0.0
C1992 C 0.49786 0.57342 0.23632 0.0
C1993 C 0.47066 0.56265 0.24499 0.0
C1994 C 0.44653 0.54433 0.23338 0.0
C1995 C 0.4494 0.53681 0.21358 0.0
C1996 C 0.47654 0.54777 0.20555 0.0
C1997 C 0.50034 0.56568 0.21659 0.0
C1998 C 0.52716 0.57389 0.20478 0.0
C1999 C 0.54348 0.60526 0.20077 0.0
C2000 C 0.54588 0.56455 0.21572 0.0
C2001 C 0.5148 0.5576 0.18542 0.0
C2002 C 0.48557 0.54279 0.18607 0.0
C2003 C 0.46956 0.52585 0.17001 0.0
C2004 C 0.48382 0.52378 0.15299 0.0
C2005 C 0.51383 0.53844 0.15214 0.0
C2006 C 0.52933 0.55578 0.16859 0.0
H2007 H 0.91344 0.41975 0.81036 0.0
H2008 H 0.94703 0.50249 0.78566 0.0
H2009 H 0.97077 0.52242 0.81814 0.0
H2010 H 0.90476 0.43554 0.86279 0.0
H2011 H 0.91657 0.41308 0.87303 0.0
H2012 H 0.89888 0.40527 0.84884 0.0
H2013 H 0.94144 0.4043 0.83238 0.0
H2014 H 0.95921 0.41207 0.85648 0.0
H2015 H 0.97646 0.43397 0.83505 0.0
H2016 H 0.99467 0.53355 0.85236 0.0
H2017 H 0.01743 0.53457 0.88511 0.0
H2018 H 0.97079 0.44491 0.88678 0.0
C2019 C 0.92567 0.44208 0.81166 0.0
C2020 C 0.92806 0.4594 0.7952 0.0
C2021 C 0.94413 0.48857 0.79797 0.0
C2022 C 0.95794 0.50017 0.8164 0.0
C2023 C 0.95568 0.48244 0.83203 0.0
C2024 C 0.93995 0.45401 0.82984 0.0
C2025 C 0.94276 0.43948 0.84833 0.0
C2026 C 0.91403 0.42233 0.85887 0.0
C2027 C 0.95574 0.42139 0.84272 0.0
C2028 C 0.96296 0.46418 0.86115 0.0
C2029 C 0.96987 0.48881 0.85158 0.0
C2030 C 0.98913 0.51441 0.86007 0.0
C2031 C 1.0019 0.51484 0.87864 0.0
C2032 C 0.99545 0.48987 0.88846 0.0
C2033 C 0.97558 0.46426 0.87969 0.0
H2034 H 0.56417 0.4514 0.80608 0.0
H2035 H 0.56774 0.52203 0.77574 0.0
H2036 H 0.5482 0.53214 0.806 0.0
H2037 H 0.49793 0.43016 0.83265 0.0
H2038 H 0.50887 0.4201 0.8553 0.0
H2039 H 0.523 0.41811 0.83115 0.0
H2040 H 0.57388 0.44913 0.84498 0.0
H2041 H 0.55988 0.45148 0.8691 0.0
H2042 H 0.58376 0.4826 0.85563 0.0
H2043 H 0.5284 0.535 0.83909 0.0
H2044 H 0.50717 0.52906 0.87297 0.0
H2045 H 0.51629 0.45711 0.88305 0.0
C2046 C 0.56055 0.4688 0.80577 0.0
C2047 C 0.56775 0.48607 0.78852 0.0
C2048 C 0.56283 0.50875 0.78882 0.0
C2049 C 0.55167 0.51465 0.80594 0.0
C2050 C 0.54541 0.49769 0.82281 0.0
C2051 C 0.54944 0.47511 0.8229 0.0
C2052 C 0.5407 0.46027 0.84315 0.0
C2053 C 0.51616 0.43039 0.84039 0.0
C2054 C 0.56607 0.46092 0.85384 0.0
C2055 C 0.5311 0.47803 0.85432 0.0
C2056 C 0.53409 0.49951 0.84221 0.0
C2057 C 0.52605 0.51835 0.84875 0.0
C2058 C 0.51411 0.51488 0.86801 0.0
C2059 C 0.51041 0.49288 0.88065 0.0
C2060 C 0.51938 0.47441 0.87381 0.0
H2061 H 0.50483 0.0754 0.79504 0.0
H2062 H 0.59626 0.12324 0.80157 0.0
H2063 H 0.59225 0.10465 0.83603 0.0
H2064 H 0.48833 0.08445 0.84669 0.0
H2065 H 0.4583 0.04988 0.84826 0.0
H2066 H 0.46845 0.06724 0.82422 0.0
H2067 H 0.4721 0.02617 0.8092 0.0
H2068 H 0.462 0.00871 0.83318 0.0
H2069 H 0.49456 0.01535 0.82137 0.0
H2070 H 0.57803 0.08006 0.8701 0.0
H2071 H 0.55505 0.05083 0.89996 0.0
H2072 H 0.47288 0.02035 0.87149 0.0
C2073 C 0.52405 0.08229 0.80375 0.0
C2074 C 0.55091 0.1009 0.79542 0.0
C2075 C 0.57546 0.1088 0.80737 0.0
C2076 C 0.57338 0.09848 0.82708 0.0
C2077 C 0.54659 0.08023 0.83478 0.0
C2078 C 0.52236 0.07221 0.82345 0.0
C2079 C 0.49612 0.05198 0.83507 0.0
C2080 C 0.47666 0.06412 0.83878 0.0
C2081 C 0.48027 0.02389 0.82405 0.0
C2082 C 0.50934 0.04968 0.85465 0.0
C2083 C 0.53846 0.06621 0.85426 0.0
C2084 C 0.55521 0.06716 0.87057 0.0
C2085 C 0.54191 0.05058 0.88758 0.0
C2086 C 0.51206 0.03313 0.88825 0.0
C2087 C 0.49573 0.03308 0.87151 0.0
H2088 H 0.11322 0.2788 0.58273 0.0
H2089 H 0.14281 0.22058 0.57268 0.0
H2090 H 0.15879 0.23975 0.53844 0.0
H2091 H 0.08822 0.27776 0.5316 0.0
H2092 H 0.0999 0.31426 0.53154 0.0
H2093 H 0.08992 0.29531 0.55495 0.0
H2094 H 0.13884 0.32997 0.57036 0.0
H2095 H 0.14897 0.34902 0.54701 0.0
H2096 H 0.17062 0.33611 0.55756 0.0
H2097 H 0.17158 0.26543 0.50501 0.0
H2098 H 0.18264 0.29728 0.4761 0.0
H2099 H 0.14564 0.33942 0.50815 0.0
C2100 C 0.12281 0.2699 0.57325 0.0
C2101 C 0.12667 0.24808 0.58042 0.0
C2102 C 0.13979 0.23739 0.56762 0.0
C2103 C 0.1488 0.24805 0.54809 0.0
C2104 C 0.14474 0.26958 0.54152 0.0
C2105 C 0.13221 0.2805 0.55377 0.0
C2106 C 0.13125 0.30427 0.54335 0.0
C2107 C 0.10049 0.29748 0.54017 0.0
C2108 C 0.14845 0.33145 0.55528 0.0
C2109 C 0.14531 0.3051 0.52337 0.0
C2110 C 0.15268 0.28475 0.52252 0.0
C2111 C 0.16587 0.28143 0.50554 0.0
C2112 C 0.17193 0.29953 0.48912 0.0
C2113 C 0.16509 0.32094 0.48979 0.0
C2114 C 0.15142 0.32349 0.50719 0.0
H2115 H 0.7845 0.89743 0.55207 0.0
H2116 H 0.72458 0.83259 0.59159 0.0
H2117 H 0.68843 0.81629 0.5645 0.0
H2118 H 0.73508 0.91346 0.52913 0.0
H2119 H 0.75099 0.91963 0.50443 0.0
H2120 H 0.77238 0.92548 0.52667 0.0
H2121 H 0.78845 0.89213 0.51262 0.0
H2122 H 0.76696 0.88605 0.49037 0.0
H2123 H 0.76218 0.85726 0.50561 0.0
H2124 H 0.65815 0.80839 0.53371 0.0
H2125 H 0.6359 0.80934 0.50136 0.0
H2126 H 0.71553 0.87896 0.48161 0.0
C2127 C 0.76374 0.87986 0.55506 0.0
C2128 C 0.75738 0.86628 0.57399 0.0
C2129 C 0.73005 0.84314 0.57717 0.0
C2130 C 0.70935 0.83379 0.56189 0.0
C2131 C 0.71633 0.84766 0.54344 0.0
C2132 C 0.74287 0.87017 0.53994 0.0
C2133 C 0.74478 0.88167 0.51888 0.0
C2134 C 0.75118 0.91184 0.51984 0.0
C2135 C 0.76691 0.87911 0.50612 0.0
C2136 C 0.71502 0.86236 0.51116 0.0
C2137 C 0.69898 0.84286 0.52557 0.0
C2138 C 0.67055 0.82345 0.52228 0.0
C2139 C 0.65809 0.82419 0.50389 0.0
C2140 C 0.67402 0.84414 0.48897 0.0
C2141 C 0.70297 0.86321 0.49261 0.0
H2142 H 0.16642 0.91967 0.56548 0.0
H2143 H 0.11263 0.83826 0.59159 0.0
H2144 H 0.11351 0.81671 0.55933 0.0
H2145 H 0.14125 0.90393 0.51335 0.0
H2146 H 0.17631 0.92444 0.50304 0.0
H2147 H 0.16771 0.93377 0.52702 0.0
H2148 H 0.2097 0.93201 0.54389 0.0
H2149 H 0.2185 0.92284 0.51998 0.0
H2150 H 0.212 0.90095 0.54166 0.0
H2151 H 0.12288 0.80357 0.52448 0.0
H2152 H 0.14357 0.8004 0.49188 0.0
H2153 H 0.19537 0.88984 0.4904 0.0
C2154 C 0.15479 0.89729 0.56467 0.0
C2155 C 0.1393 0.88092 0.58146 0.0
C2156 C 0.1241 0.85163 0.57909 0.0
C2157 C 0.12461 0.83905 0.56074 0.0
C2158 C 0.14067 0.85588 0.54481 0.0
C2159 C 0.1557 0.88438 0.5467 0.0
C2160 C 0.17369 0.89776 0.52815 0.0
C2161 C 0.16416 0.91605 0.51725 0.0
C2162 C 0.20534 0.91436 0.53376 0.0
C2163 C 0.16691 0.87232 0.51568 0.0
C2164 C 0.14728 0.84835 0.5253 0.0
C2165 C 0.13815 0.82224 0.5168 0.0
C2166 C 0.14988 0.8206 0.49827 0.0
C2167 C 0.17088 0.84486 0.48867 0.0
C2168 C 0.17917 0.87101 0.4974 0.0
H2169 H 0.57505 0.73975 0.13556 0.0
H2170 H 0.57768 0.81736 0.12228 0.0
H2171 H 0.60329 0.83701 0.15419 0.0
H2172 H 0.56709 0.74005 0.18902 0.0
H2173 H 0.59038 0.72667 0.19448 0.0
H2174 H 0.57117 0.71807 0.17091 0.0
H2175 H 0.61818 0.73714 0.15111 0.0
H2176 H 0.63752 0.7456 0.17462 0.0
H2177 H 0.64638 0.77206 0.15585 0.0
H2178 H 0.6276 0.84802 0.18838 0.0
H2179 H 0.65286 0.85081 0.22028 0.0
H2180 H 0.63829 0.76789 0.20971 0.0
C2181 C 0.58126 0.76101 0.13909 0.0
C2182 C 0.57374 0.7767 0.12625 0.0
C2183 C 0.58224 0.8044 0.13191 0.0
C2184 C 0.59707 0.81593 0.15002 0.0
C2185 C 0.60379 0.79977 0.16231 0.0
C2186 C 0.59654 0.77306 0.15693 0.0
C2187 C 0.60724 0.76043 0.17246 0.0
C2188 C 0.58249 0.73479 0.1823 0.0
C2189 C 0.6286 0.7534 0.16294 0.0
C2190 C 0.62156 0.78419 0.18744 0.0
C2191 C 0.61902 0.80658 0.18144 0.0
C2192 C 0.6299 0.83068 0.19313 0.0
C2193 C 0.64407 0.83205 0.21125 0.0
C2194 C 0.64762 0.80965 0.21737 0.0
C2195 C 0.63609 0.78542 0.20528 0.0
H2196 H 0.28506 0.83096 0.14407 0.0
H2197 H 0.20023 0.77982 0.11995 0.0
H2198 H 0.18025 0.78164 0.15312 0.0
H2199 H 0.27044 0.80232 0.19517 0.0
H2200 H 0.29351 0.83547 0.20679 0.0
H2201 H 0.30089 0.8282 0.18167 0.0
H2202 H 0.30103 0.87191 0.16826 0.0
H2203 H 0.29371 0.87932 0.1933 0.0
H2204 H 0.27063 0.8759 0.17259 0.0
H2205 H 0.16966 0.79232 0.18874 0.0
H2206 H 0.16969 0.81108 0.22273 0.0
H2207 H 0.26157 0.85428 0.2233 0.0
C2208 C 0.26225 0.82005 0.14572 0.0
C2209 C 0.24425 0.80527 0.12928 0.0
C2210 C 0.21452 0.79103 0.13229 0.0
C2211 C 0.20297 0.79203 0.1511 0.0
C2212 C 0.22137 0.80716 0.16686 0.0
C2213 C 0.25041 0.82078 0.16434 0.0
C2214 C 0.2657 0.8365 0.18331 0.0
C2215 C 0.2837 0.82492 0.19226 0.0
C2216 C 0.28383 0.86775 0.17911 0.0
C2217 C 0.24077 0.83019 0.1968 0.0
C2218 C 0.21534 0.81307 0.18717 0.0
C2219 C 0.1895 0.80549 0.19646 0.0
C2220 C 0.18971 0.81612 0.21587 0.0
C2221 C 0.2156 0.83427 0.2258 0.0
C2222 C 0.24135 0.84073 0.21615 0.0
H2223 H 0.16302 0.39983 0.12533 0.0
H2224 H 0.254 0.4518 0.13232 0.0
H2225 H 0.25079 0.43337 0.16679 0.0
H2226 H 0.14447 0.40638 0.17682 0.0
H2227 H 0.11604 0.37094 0.17811 0.0
H2228 H 0.12553 0.38863 0.15418 0.0
H2229 H 0.13279 0.3497 0.13908 0.0
H2230 H 0.12332 0.3319 0.16295 0.0
H2231 H 0.15672 0.34085 0.15139 0.0
H2232 H 0.23737 0.40899 0.20092 0.0
H2233 H 0.21532 0.37925 0.23075 0.0
H2234 H 0.13314 0.34337 0.2014 0.0
C2235 C 0.18227 0.40757 0.13416 0.0
C2236 C 0.20879 0.42739 0.12603 0.0
C2237 C 0.23347 0.43649 0.13806 0.0
C2238 C 0.23183 0.42625 0.15774 0.0
C2239 C 0.20535 0.40679 0.16526 0.0
C2240 C 0.18103 0.39746 0.15378 0.0
C2241 C 0.15526 0.37595 0.16518 0.0
C2242 C 0.13408 0.38609 0.16879 0.0
C2243 C 0.1412 0.34794 0.15398 0.0
C2244 C 0.16885 0.3745 0.18484 0.0
C2245 C 0.19773 0.39259 0.18467 0.0
C2246 C 0.21475 0.39481 0.20118 0.0
C2247 C 0.20199 0.37793 0.21815 0.0
C2248 C 0.17246 0.35885 0.21854 0.0
C2249 C 0.1558 0.35745 0.2016 0.0
H2250 H 0.74929 0.56057 0.902 0.0
H2251 H 0.83351 0.61779 0.92494 0.0
H2252 H 0.84805 0.63769 0.89084 0.0
H2253 H 0.77056 0.5497 0.85219 0.0
H2254 H 0.74075 0.54879 0.83963 0.0
H2255 H 0.73764 0.53759 0.8655 0.0
H2256 H 0.72195 0.57267 0.87604 0.0
H2257 H 0.72498 0.58395 0.85023 0.0
H2258 H 0.74418 0.6088 0.86995 0.0
H2259 H 0.85269 0.65334 0.85422 0.0
H2260 H 0.84644 0.6638 0.81888 0.0
H2261 H 0.75918 0.59666 0.82011 0.0
C2262 C 0.77082 0.57728 0.89994 0.0
C2263 C 0.79023 0.58741 0.91633 0.0
C2264 C 0.81829 0.60917 0.9127 0.0
C2265 C 0.82675 0.62078 0.89334 0.0
C2266 C 0.80698 0.61047 0.87763 0.0
C2267 C 0.77959 0.58918 0.88074 0.0
C2268 C 0.76206 0.58261 0.86156 0.0
C2269 C 0.75218 0.55291 0.85429 0.0
C2270 C 0.73681 0.5873 0.86464 0.0
C2271 C 0.78371 0.60383 0.84726 0.0
C2272 C 0.80958 0.61957 0.85673 0.0
C2273 C 0.83256 0.64097 0.84663 0.0
C2274 C 0.82886 0.64667 0.82648 0.0
C2275 C 0.80232 0.63117 0.8166 0.0
C2276 C 0.77969 0.60918 0.8272 0.0
H2277 H 0.3839 0.19666 0.91805 0.0
H2278 H 0.45888 0.19155 0.90369 0.0
H2279 H 0.44346 0.18171 0.8681 0.0
H2280 H 0.33599 0.14353 0.8854 0.0
H2281 H 0.31739 0.16121 0.87789 0.0
H2282 H 0.33432 0.1681 0.9023 0.0
H2283 H 0.36319 0.22052 0.89408 0.0
H2284 H 0.34613 0.21383 0.86972 0.0
H2285 H 0.38423 0.23174 0.87141 0.0
H2286 H 0.41856 0.16992 0.83444 0.0
H2287 H 0.38776 0.16012 0.80469 0.0
H2288 H 0.33138 0.17733 0.84033 0.0
C2289 C 0.39743 0.194 0.90743 0.0
C2290 C 0.42256 0.19469 0.91386 0.0
C2291 C 0.43924 0.19056 0.89935 0.0
C2292 C 0.43078 0.18515 0.87902 0.0
C2293 C 0.40576 0.18429 0.87332 0.0
C2294 C 0.38952 0.18895 0.88703 0.0
C2295 C 0.36361 0.18703 0.87696 0.0
C2296 C 0.33621 0.16357 0.88619 0.0
C2297 C 0.36435 0.21494 0.87811 0.0
C2298 C 0.36764 0.1802 0.85548 0.0
C2299 C 0.39201 0.1786 0.85373 0.0
C2300 C 0.39967 0.17158 0.83554 0.0
C2301 C 0.38207 0.16625 0.81865 0.0
C2302 C 0.35717 0.16826 0.81993 0.0
C2303 C 0.35004 0.17537 0.83871 0.0
H2304 H 0.80798 0.19361 0.91975 0.0
H2305 H 0.81074 0.27 0.90276 0.0
H2306 H 0.82148 0.26375 0.86757 0.0
H2307 H 0.86551 0.20334 0.89024 0.0
H2308 H 0.85087 0.16756 0.8829 0.0
H2309 H 0.84024 0.17614 0.90631 0.0
H2310 H 0.78764 0.14816 0.8952 0.0
H2311 H 0.7981 0.13928 0.8718 0.0
H2312 H 0.777 0.15589 0.87141 0.0
H2313 H 0.83631 0.25177 0.83507 0.0
H2314 H 0.85326 0.2344 0.80729 0.0
H2315 H 0.83986 0.16482 0.84458 0.0
C2316 C 0.81015 0.2086 0.90848 0.0
C2317 C 0.80847 0.23229 0.91398 0.0
C2318 C 0.81204 0.25178 0.8989 0.0
C2319 C 0.81807 0.24836 0.87885 0.0
C2320 C 0.82038 0.22524 0.874 0.0
C2321 C 0.81632 0.20555 0.88831 0.0
C2322 C 0.82166 0.1835 0.87926 0.0
C2323 C 0.84602 0.1826 0.89034 0.0
C2324 C 0.79448 0.15502 0.87943 0.0
C2325 C 0.82999 0.19428 0.85784 0.0
C2326 C 0.82886 0.21825 0.8551 0.0
C2327 C 0.83682 0.23274 0.83692 0.0
C2328 C 0.84628 0.22256 0.82113 0.0
C2329 C 0.84779 0.19804 0.8235 0.0
C2330 C 0.83921 0.18369 0.84216 0.0
H2331 H 0.29853 0.15763 0.45319 0.0
H2332 H 0.21891 0.08708 0.47194 0.0
H2333 H 0.23611 0.09415 0.50719 0.0
H2334 H 0.34213 0.14432 0.48362 0.0
H2335 H 0.36705 0.17985 0.49004 0.0
H2336 H 0.3475 0.17181 0.46667 0.0
H2337 H 0.32837 0.20443 0.47644 0.0
H2338 H 0.34822 0.21292 0.49975 0.0
H2339 H 0.31056 0.19973 0.50027 0.0
H2340 H 0.26372 0.10491 0.53922 0.0
H2341 H 0.29882 0.12051 0.5667 0.0
H2342 H 0.36032 0.18587 0.52808 0.0
C2343 C 0.28443 0.14425 0.46484 0.0
C2344 C 0.25736 0.12181 0.45985 0.0
C2345 C 0.23976 0.10431 0.47544 0.0
C2346 C 0.24931 0.1082 0.4955 0.0
C2347 C 0.27646 0.12987 0.49982 0.0
C2348 C 0.29368 0.14787 0.48503 0.0
C2349 C 0.32258 0.16843 0.4936 0.0
C2350 C 0.3462 0.16594 0.48284 0.0
C2351 C 0.32773 0.19814 0.49245 0.0
C2352 C 0.31916 0.15859 0.51533 0.0
C2353 C 0.29233 0.13644 0.51858 0.0
C2354 C 0.2846 0.12268 0.53702 0.0
C2355 C 0.30474 0.13186 0.55262 0.0
C2356 C 0.33241 0.15478 0.54984 0.0
C2357 C 0.33949 0.16829 0.53085 0.0
H2358 H 0.90734 0.17383 0.45808 0.0
H2359 H 0.90004 0.09422 0.47109 0.0
H2360 H 0.88233 0.0952 0.50523 0.0
H2361 H 0.93204 0.20366 0.50739 0.0
H2362 H 0.91269 0.22206 0.50752 0.0
H2363 H 0.92411 0.21476 0.48392 0.0
H2364 H 0.87243 0.19013 0.47064 0.0
H2365 H 0.86086 0.1974 0.49418 0.0
H2366 H 0.84499 0.16224 0.48506 0.0
H2367 H 0.86635 0.1055 0.53859 0.0
H2368 H 0.85162 0.12331 0.5676 0.0
H2369 H 0.87038 0.19665 0.53307 0.0
C2370 C 0.90214 0.15661 0.4681 0.0
C2371 C 0.90509 0.13388 0.46173 0.0
C2372 C 0.89761 0.11168 0.47537 0.0
C2373 C 0.88772 0.11214 0.4949 0.0
C2374 C 0.88533 0.13496 0.5007 0.0
C2375 C 0.89222 0.15674 0.48765 0.0
C2376 C 0.88775 0.17882 0.49759 0.0
C2377 C 0.91582 0.20645 0.4992 0.0
C2378 C 0.86516 0.18234 0.48619 0.0
C2379 C 0.87728 0.16609 0.51827 0.0
C2380 C 0.87612 0.14083 0.5198 0.0
C2381 C 0.86721 0.12527 0.53752 0.0
C2382 C 0.85906 0.13568 0.55401 0.0
C2383 C 0.85976 0.16141 0.55274 0.0
C2384 C 0.8692 0.17676 0.53455 0.0
H2385 H 0.89473 0.77654 0.47188 0.0
H2386 H 0.81293 0.72778 0.4425 0.0
H2387 H 0.79436 0.69918 0.47292 0.0
H2388 H 0.89295 0.71751 0.4979 0.0
H2389 H 0.91021 0.73709 0.52039 0.0
H2390 H 0.91748 0.75422 0.49627 0.0
H2391 H 0.9033 0.78868 0.51085 0.0
H2392 H 0.89555 0.77137 0.53493 0.0
H2393 H 0.86881 0.77559 0.52203 0.0
H2394 H 0.7834 0.67684 0.50629 0.0
H2395 H 0.78235 0.65728 0.53982 0.0
H2396 H 0.87119 0.71784 0.54862 0.0
C2397 C 0.87304 0.75962 0.47179 0.0
C2398 C 0.85516 0.75485 0.45479 0.0
C2399 C 0.8269 0.7324 0.45538 0.0
C2400 C 0.81611 0.71594 0.47263 0.0
C2401 C 0.83383 0.72175 0.48929 0.0
C2402 C 0.86183 0.74263 0.48901 0.0
C2403 C 0.87624 0.74357 0.50902 0.0
C2404 C 0.90067 0.73775 0.50569 0.0
C2405 C 0.88659 0.77147 0.51984 0.0
C2406 C 0.85189 0.72001 0.52048 0.0
C2407 C 0.82762 0.70804 0.50873 0.0
C2408 C 0.80229 0.68591 0.51561 0.0
C2409 C 0.80187 0.67501 0.53472 0.0
C2410 C 0.82661 0.68599 0.54686 0.0
C2411 C 0.85187 0.70925 0.53979 0.0
loop_
_geom_bond_atom_site_label_1
_geom_bond_atom_site_label_2
_geom_bond_distance
_geom_bond_site_symmetry_2
_ccdc_geom_bond_type
H0 C3 0.929 . S
H1 C6 0.929 . S
H2 C8 0.930 . S
C3 H0 0.929 . S
C3 C4 1.398 . S
C3 C5 1.396 . S
C4 C3 1.398 . S
C4 C8 1.407 . S
C5 C3 1.396 . S
C5 C6 1.394 . S
C6 H1 0.929 . S
C6 C5 1.394 . S
C6 C7 1.382 . S
C7 C6 1.382 . S
C7 C8 1.392 . S
C7 N9 1.420 . S
C8 H2 0.930 . S
C8 C4 1.407 . S
C8 C7 1.392 . S
N9 C7 1.420 . S
N9 C10 1.244 . S
C10 N9 1.244 . S
H11 C14 0.929 . S
H12 C17 0.929 . S
H13 C19 0.930 . S
C14 H11 0.929 . S
C14 C15 1.398 . S
C14 C16 1.396 . S
C15 C14 1.398 . S
C15 C19 1.407 . S
C16 C14 1.396 . S
C16 C17 1.394 . S
C17 H12 0.929 . S
C17 C16 1.394 . S
C17 C18 1.382 . S
C18 C17 1.382 . S
C18 C19 1.392 . S
C18 N20 1.420 . S
C19 H13 0.930 . S
C19 C15 1.407 . S
C19 C18 1.392 . S
N20 C18 1.420 . S
N20 C21 1.244 . S
C21 N20 1.244 . S
H22 C25 0.929 . S
H23 C28 0.929 . S
H24 C30 0.930 . S
C25 H22 0.929 . S
C25 C26 1.398 . S
C25 C27 1.396 . S
C26 C25 1.398 . S
C26 C30 1.407 . S
C27 C25 1.396 . S
C27 C28 1.394 . S
C28 H23 0.929 . S
C28 C27 1.394 . S
C28 C29 1.382 . S
C29 C28 1.382 . S
C29 C30 1.392 . S
C29 N31 1.420 . S
C30 H24 0.930 . S
C30 C26 1.407 . S
C30 C29 1.392 . S
N31 C29 1.420 . S
N31 C32 1.244 . S
C32 N31 1.244 . S
H33 C36 0.929 . S
H34 C39 0.929 . S
H35 C41 0.930 . S
C36 H33 0.929 . S
C36 C37 1.398 . S
C36 C38 1.396 . S
C37 C36 1.398 . S
C37 C41 1.407 . S
C38 C36 1.396 . S
C38 C39 1.394 . S
C39 H34 0.929 . S
C39 C38 1.394 . S
C39 C40 1.382 . S
C40 C39 1.382 . S
C40 C41 1.392 . S
C40 N42 1.420 . S
C41 H35 0.930 . S
C41 C37 1.407 . S
C41 C40 1.392 . S
N42 C40 1.420 . S
N42 C43 1.244 . S
C43 N42 1.244 . S
H44 C47 0.929 . S
H45 C50 0.929 . S
H46 C52 0.930 . S
C47 H44 0.929 . S
C47 C48 1.398 . S
C47 C49 1.396 . S
C48 C47 1.398 . S
C48 C52 1.407 . S
C49 C47 1.396 . S
C49 C50 1.394 . S
C50 H45 0.929 . S
C50 C49 1.394 . S
C50 C51 1.382 . S
C51 C50 1.382 . S
C51 C52 1.392 . S
C51 N53 1.420 . S
C52 H46 0.930 . S
C52 C48 1.407 . S
C52 C51 1.392 . S
N53 C51 1.420 . S
N53 C54 1.244 . S
C54 N53 1.244 . S
H55 C58 0.929 . S
H56 C61 0.929 . S
H57 C63 0.930 . S
C58 H55 0.929 . S
C58 C59 1.398 . S
C58 C60 1.396 . S
C59 C58 1.398 . S
C59 C63 1.407 . S
C60 C58 1.396 . S
C60 C61 1.394 . S
C61 H56 0.929 . S
C61 C60 1.394 . S
C61 C62 1.382 . S
C62 C61 1.382 . S
C62 C63 1.392 . S
C62 N64 1.420 . S
C63 H57 0.930 . S
C63 C59 1.407 . S
C63 C62 1.392 . S
N64 C62 1.420 . S
N64 C65 1.244 . S
C65 N64 1.244 . S
H66 C69 0.929 . S
H67 C72 0.929 . S
H68 C74 0.930 . S
C69 H66 0.929 . S
C69 C70 1.398 . S
C69 C71 1.396 . S
C70 C69 1.398 . S
C70 C74 1.407 . S
C71 C69 1.396 . S
C71 C72 1.394 . S
C72 H67 0.929 . S
C72 C71 1.394 . S
C72 C73 1.382 . S
C73 C72 1.382 . S
C73 C74 1.392 . S
C73 N75 1.420 . S
C74 H68 0.930 . S
C74 C70 1.407 . S
C74 C73 1.392 . S
N75 C73 1.420 . S
N75 C76 1.244 . S
C76 N75 1.244 . S
H77 C80 0.929 . S
H78 C83 0.929 . S
H79 C85 0.930 . S
C80 H77 0.929 . S
C80 C81 1.398 . S
C80 C82 1.396 . S
C81 C80 1.398 . S
C81 C85 1.407 . S
C82 C80 1.396 . S
C82 C83 1.394 . S
C83 H78 0.929 . S
C83 C82 1.394 . S
C83 C84 1.382 . S
C84 C83 1.382 . S
C84 C85 1.392 . S
C84 N86 1.420 . S
C85 H79 0.930 . S
C85 C81 1.407 . S
C85 C84 1.392 . S
N86 C84 1.420 . S
N86 C87 1.244 . S
C87 N86 1.244 . S
H88 C91 0.929 . S
H89 C94 0.929 . S
H90 C96 0.930 . S
C91 H88 0.929 . S
C91 C92 1.398 . S
C91 C93 1.396 . S
C92 C91 1.398 . S
C92 C96 1.407 . S
C93 C91 1.396 . S
C93 C94 1.394 . S
C94 H89 0.929 . S
C94 C93 1.394 . S
C94 C95 1.382 . S
C95 C94 1.382 . S
C95 C96 1.392 . S
C95 N97 1.420 . S
C96 H90 0.930 . S
C96 C92 1.407 . S
C96 C95 1.392 . S
N97 C95 1.420 . S
N97 C98 1.244 . S
C98 N97 1.244 . S
H99 C102 0.929 . S
H100 C105 0.929 . S
H101 C107 0.930 . S
C102 H99 0.929 . S
C102 C103 1.398 . S
C102 C104 1.396 . S
C103 C102 1.398 . S
C103 C107 1.407 . S
C104 C102 1.396 . S
C104 C105 1.394 . S
C105 H100 0.929 . S
C105 C104 1.394 . S
C105 C106 1.382 . S
C106 C105 1.382 . S
C106 C107 1.392 . S
C106 N108 1.420 . S
C107 H101 0.930 . S
C107 C103 1.407 . S
C107 C106 1.392 . S
N108 C106 1.420 . S
N108 C109 1.244 . S
C109 N108 1.244 . S
H110 C113 0.929 . S
H111 C116 0.929 . S
H112 C118 0.930 . S
C113 H110 0.929 . S
C113 C114 1.398 . S
C113 C115 1.396 . S
C114 C113 1.398 . S
C114 C118 1.407 . S
C115 C113 1.396 . S
C115 C116 1.394 . S
C116 H111 0.929 . S
C116 C115 1.394 . S
C116 C117 1.382 . S
C117 C116 1.382 . S
C117 C118 1.392 . S
C117 N119 1.420 . S
C118 H112 0.930 . S
C118 C114 1.407 . S
C118 C117 1.392 . S
N119 C117 1.420 . S
N119 C120 1.244 . S
C120 N119 1.244 . S
H121 C124 0.929 . S
H122 C127 0.929 . S
H123 C129 0.930 . S
C124 H121 0.929 . S
C124 C125 1.398 . S
C124 C126 1.396 . S
C125 C124 1.398 . S
C125 C129 1.407 . S
C126 C124 1.396 . S
C126 C127 1.394 . S
C127 H122 0.929 . S
C127 C126 1.394 . S
C127 C128 1.382 . S
C128 C127 1.382 . S
C128 C129 1.392 . S
C128 N130 1.420 . S
C129 H123 0.930 . S
C129 C125 1.407 . S
C129 C128 1.392 . S
N130 C128 1.420 . S
N130 C131 1.244 . S
C131 N130 1.244 . S
H132 C135 0.929 . S
H133 C138 0.929 . S
H134 C140 0.930 . S
C135 H132 0.929 . S
C135 C136 1.398 . S
C135 C137 1.396 . S
C136 C135 1.398 . S
C136 C140 1.407 . S
C137 C135 1.396 . S
C137 C138 1.394 . S
C138 H133 0.929 . S
C138 C137 1.394 . S
C138 C139 1.382 . S
C139 C138 1.382 . S
C139 C140 1.392 . S
C139 N141 1.420 . S
C140 H134 0.930 . S
C140 C136 1.407 . S
C140 C139 1.392 . S
N141 C139 1.420 . S
N141 C142 1.244 . S
C142 N141 1.244 . S
H143 C146 0.929 . S
H144 C149 0.929 . S
H145 C151 0.930 . S
C146 H143 0.929 . S
C146 C147 1.398 . S
C146 C148 1.396 . S
C147 C146 1.398 . S
C147 C151 1.407 . S
C148 C146 1.396 . S
C148 C149 1.394 . S
C149 H144 0.929 . S
C149 C148 1.394 . S
C149 C150 1.382 . S
C150 C149 1.382 . S
C150 C151 1.392 . S
C150 N152 1.420 . S
C151 H145 0.930 . S
C151 C147 1.407 . S
C151 C150 1.392 . S
N152 C150 1.420 . S
N152 C153 1.244 . S
C153 N152 1.244 . S
H154 C157 0.929 . S
H155 C160 0.929 . S
H156 C162 0.930 . S
C157 H154 0.929 . S
C157 C158 1.398 . S
C157 C159 1.396 . S
C158 C157 1.398 . S
C158 C162 1.407 . S
C159 C157 1.396 . S
C159 C160 1.394 . S
C160 H155 0.929 . S
C160 C159 1.394 . S
C160 C161 1.382 . S
C161 C160 1.382 . S
C161 C162 1.392 . S
C161 N163 1.420 . S
C162 H156 0.930 . S
C162 C158 1.407 . S
C162 C161 1.392 . S
N163 C161 1.420 . S
N163 C164 1.244 . S
C164 N163 1.244 . S
H165 C168 0.929 . S
H166 C171 0.929 . S
H167 C173 0.930 . S
C168 H165 0.929 . S
C168 C169 1.398 . S
C168 C170 1.396 . S
C169 C168 1.398 . S
C169 C173 1.407 . S
C170 C168 1.396 . S
C170 C171 1.394 . S
C171 H166 0.929 . S
C171 C170 1.394 . S
C171 C172 1.382 . S
C172 C171 1.382 . S
C172 C173 1.392 . S
C172 N174 1.420 . S
C173 H167 0.930 . S
C173 C169 1.407 . S
C173 C172 1.392 . S
N174 C172 1.420 . S
N174 C175 1.244 . S
C175 N174 1.244 . S
H176 C179 0.929 . S
H177 C182 0.929 . S
H178 C184 0.930 . S
C179 H176 0.929 . S
C179 C180 1.398 . S
C179 C181 1.396 . S
C180 C179 1.398 . S
C180 C184 1.407 . S
C181 C179 1.396 . S
C181 C182 1.394 . S
C182 H177 0.929 . S
C182 C181 1.394 . S
C182 C183 1.382 . S
C183 C182 1.382 . S
C183 C184 1.392 . S
C183 N185 1.420 . S
C184 H178 0.930 . S
C184 C180 1.407 . S
C184 C183 1.392 . S
N185 C183 1.420 . S
N185 C186 1.244 . S
C186 N185 1.244 . S
H187 C190 0.929 . S
H188 C193 0.929 . S
H189 C195 0.930 . S
C190 H187 0.929 . S
C190 C191 1.398 . S
C190 C192 1.396 . S
C191 C190 1.398 . S
C191 C195 1.407 . S
C192 C190 1.396 . S
C192 C193 1.394 . S
C193 H188 0.929 . S
C193 C192 1.394 . S
C193 C194 1.382 . S
C194 C193 1.382 . S
C194 C195 1.392 . S
C194 N196 1.420 . S
C195 H189 0.930 . S
C195 C191 1.407 . S
C195 C194 1.392 . S
N196 C194 1.420 . S
N196 C197 1.244 . S
C197 N196 1.244 . S
Tb198 N229 2.660 . S
Tb198 N236 2.600 . S
Tb198 O242 2.546 . S
Tb198 O243 2.610 1_566 S
Tb198 O245 2.320 1_565 S
Tb198 O246 2.552 1_565 S
Tb198 O247 2.413 1_565 S
Tb198 O249 2.362 1_556 S
Tb198 O250 2.418 . S
Tb198 C262 2.832 1_565 S
C199 C202 1.432 . S
C199 C203 1.414 . S
C199 N206 1.359 . S
C200 C202 1.417 . S
C200 C204 1.432 . S
C200 C212 1.410 . S
C201 C203 1.444 . S
C201 C204 1.317 . S
C201 H224 0.929 . S
C202 C199 1.432 . S
C202 C200 1.417 . S
C202 N210 1.360 . S
C203 C199 1.414 . S
C203 C201 1.444 . S
C203 C208 1.385 . S
C204 C200 1.432 . S
C204 C201 1.317 . S
C204 H216 0.930 . S
C205 C207 1.392 . S
C205 C208 1.370 . S
C205 H217 0.931 . S
N206 C199 1.359 . S
N206 C207 1.327 . S
N206 Tb209 2.600 . S
C207 C205 1.392 . S
C207 N206 1.327 . S
C207 H214 0.930 . S
C208 C203 1.385 . S
C208 C205 1.370 . S
C208 H227 0.930 . S
Tb209 N206 2.600 . S
Tb209 N210 2.660 . S
Tb209 O243 2.362 . S
Tb209 O244 2.421 . S
Tb209 O248 2.546 . S
Tb209 O249 2.610 1_545 S
Tb209 O251 2.320 1_545 S
Tb209 O252 2.552 1_545 S
Tb209 O253 2.413 1_545 S
Tb209 C273 2.833 . S
N210 C202 1.360 . S
N210 Tb209 2.660 . S
N210 C211 1.305 . S
C211 N210 1.305 . S
C211 C213 1.407 . S
C211 H218 0.930 . S
C212 C200 1.410 . S
C212 C213 1.345 . S
C212 H220 0.930 . S
C213 C211 1.407 . S
C213 C212 1.345 . S
C213 H215 0.930 . S
H214 C207 0.930 . S
H215 C213 0.930 . S
H216 C204 0.930 . S
H217 C205 0.931 . S
H218 C211 0.930 . S
H219 C233 0.930 . S
H220 C212 0.930 . S
H221 C239 0.930 . S
H222 C230 0.930 . S
H223 C237 0.931 . S
H224 C201 0.929 . S
H225 C231 0.930 . S
H226 C264 0.930 . S
H227 C208 0.930 . S
H228 C263 0.929 . S
N229 Tb198 2.660 . S
N229 C230 1.305 . S
N229 C234 1.360 . S
C230 H222 0.930 . S
C230 N229 1.305 . S
C230 C233 1.407 . S
C231 H225 0.930 . S
C231 C232 1.410 . S
C231 C233 1.345 . S
C232 C231 1.410 . S
C232 C234 1.417 . S
C232 C264 1.432 . S
C233 H219 0.930 . S
C233 C230 1.407 . S
C233 C231 1.345 . S
C234 N229 1.360 . S
C234 C232 1.417 . S
C234 C238 1.432 . S
H235 C240 0.930 . S
N236 Tb198 2.600 . S
N236 C238 1.359 . S
N236 C239 1.327 . S
C237 H223 0.931 . S
C237 C239 1.392 . S
C237 C240 1.370 . S
C238 C234 1.432 . S
C238 N236 1.359 . S
C238 C241 1.414 . S
C239 H221 0.930 . S
C239 N236 1.327 . S
C239 C237 1.392 . S
C240 H235 0.930 . S
C240 C237 1.370 . S
C240 C241 1.385 . S
C241 C238 1.414 . S
C241 C240 1.385 . S
C241 C263 1.444 . S
O242 Tb198 2.546 . S
O242 C262 1.242 1_565 S
O243 Tb198 2.610 1_544 S
O243 Tb209 2.362 . S
O243 C254 1.283 1_554 S
O244 Tb209 2.421 . S
O244 C261 1.262 . S
O245 Tb198 2.320 1_545 S
O245 C261 1.260 1_556 S
O246 Tb198 2.552 1_545 S
O246 C254 1.243 . S
O247 Tb198 2.413 1_545 S
O247 C262 1.264 . S
O248 Tb209 2.546 . S
O248 C273 1.251 . S
O249 Tb198 2.362 1_554 S
O249 Tb209 2.610 1_565 S
O249 C265 1.283 . S
O250 Tb198 2.418 . S
O250 C272 1.268 1_556 S
O251 Tb209 2.320 1_565 S
O251 C272 1.260 . S
O252 Tb209 2.552 1_565 S
O252 C265 1.243 . S
O253 Tb209 2.413 1_565 S
O253 C273 1.256 1_565 S
C254 O243 1.283 1_556 S
C254 O246 1.243 . S
C255 C257 1.382 . S
C255 C259 1.393 1_545 S
C255 C262 1.501 . S
C256 C257 1.400 . S
C256 C258 1.384 . S
C257 C255 1.382 . S
C257 C256 1.400 . S
C257 H274 0.930 . S
C258 C256 1.384 . S
C258 C260 1.392 1_545 S
C258 H275 0.931 . S
C259 C255 1.393 1_565 S
C259 C260 1.401 . S
C259 H276 0.930 . S
C260 C258 1.392 1_565 S
C260 C259 1.401 . S
C260 H277 0.930 . S
C261 O244 1.262 . S
C261 O245 1.260 1_554 S
C262 Tb198 2.832 1_545 S
C262 O242 1.242 1_545 S
C262 O247 1.264 . S
C262 C255 1.501 . S
C263 H228 0.929 . S
C263 C241 1.444 . S
C263 C264 1.317 . S
C264 H226 0.930 . S
C264 C232 1.432 . S
C264 C263 1.317 . S
C265 O249 1.283 . S
C265 O252 1.243 . S
C266 C267 1.382 1_545 S
C266 C270 1.393 . S
C266 C273 1.500 . S
C267 C266 1.382 1_565 S
C267 C268 1.400 . S
C267 H278 0.930 . S
C268 C267 1.400 . S
C268 C269 1.384 . S
C269 C268 1.384 . S
C269 C271 1.392 1_565 S
C269 H279 0.931 . S
C270 C266 1.393 . S
C270 C271 1.401 . S
C270 H280 0.930 . S
C271 C269 1.392 1_545 S
C271 C270 1.401 . S
C271 H281 0.930 . S
C272 O250 1.268 1_554 S
C272 O251 1.260 . S
C273 Tb209 2.833 . S
C273 O248 1.251 . S
C273 O253 1.256 1_545 S
C273 C266 1.500 . S
H274 C257 0.930 . S
H275 C258 0.931 . S
H276 C259 0.930 . S
H277 C260 0.930 . S
H278 C267 0.930 . S
H279 C269 0.931 . S
H280 C270 0.930 . S
H281 C271 0.930 . S
Tb282 N313 2.660 . S
Tb282 N320 2.600 . S
Tb282 O326 2.546 . S
Tb282 O327 2.610 1_456 S
Tb282 O329 2.320 1_455 S
Tb282 O330 2.552 1_455 S
Tb282 O331 2.415 . S
Tb282 O333 2.362 1_556 S
Tb282 O334 2.392 1_556 S
Tb282 C346 2.833 . S
C283 C286 1.432 . S
C283 C287 1.414 . S
C283 N290 1.359 . S
C284 C286 1.417 . S
C284 C288 1.432 . S
C284 C296 1.410 . S
C285 C287 1.444 . S
C285 C288 1.317 . S
C285 H308 0.929 . S
C286 C283 1.432 . S
C286 C284 1.417 . S
C286 N294 1.360 . S
C287 C283 1.414 . S
C287 C285 1.444 . S
C287 C292 1.385 . S
C288 C284 1.432 . S
C288 C285 1.317 . S
C288 H300 0.930 . S
C289 C291 1.392 . S
C289 C292 1.370 . S
C289 H301 0.931 . S
N290 C283 1.359 . S
N290 C291 1.327 . S
N290 Tb293 2.600 . S
C291 C289 1.392 . S
C291 N290 1.327 . S
C291 H298 0.930 . S
C292 C287 1.385 . S
C292 C289 1.370 . S
C292 H311 0.930 . S
Tb293 N290 2.600 . S
Tb293 N294 2.660 . S
Tb293 O327 2.362 . S
Tb293 O328 2.421 . S
Tb293 O332 2.546 . S
Tb293 O333 2.610 1_655 S
Tb293 O335 2.320 1_655 S
Tb293 O336 2.552 1_655 S
Tb293 O337 2.413 1_655 S
Tb293 C357 2.833 . S
N294 C286 1.360 . S
N294 Tb293 2.660 . S
N294 C295 1.305 . S
C295 N294 1.305 . S
C295 C297 1.407 . S
C295 H302 0.930 . S
C296 C284 1.410 . S
C296 C297 1.345 . S
C296 H304 0.930 . S
C297 C295 1.407 . S
C297 C296 1.345 . S
C297 H299 0.930 . S
H298 C291 0.930 . S
H299 C297 0.930 . S
H300 C288 0.930 . S
H301 C289 0.931 . S
H302 C295 0.930 . S
H303 C317 0.930 . S
H304 C296 0.930 . S
H305 C323 0.930 . S
H306 C314 0.930 . S
H307 C321 0.931 . S
H308 C285 0.929 . S
H309 C315 0.930 . S
H310 C348 0.930 . S
H311 C292 0.930 . S
H312 C347 0.929 . S
N313 Tb282 2.660 . S
N313 C314 1.305 . S
N313 C318 1.360 . S
C314 H306 0.930 . S
C314 N313 1.305 . S
C314 C317 1.407 . S
C315 H309 0.930 . S
C315 C316 1.410 . S
C315 C317 1.345 . S
C316 C315 1.410 . S
C316 C318 1.417 . S
C316 C348 1.432 . S
C317 H303 0.930 . S
C317 C314 1.407 . S
C317 C315 1.345 . S
C318 N313 1.360 . S
C318 C316 1.417 . S
C318 C322 1.432 . S
H319 C324 0.930 . S
N320 Tb282 2.600 . S
N320 C322 1.359 . S
N320 C323 1.327 . S
C321 H307 0.931 . S
C321 C323 1.392 . S
C321 C324 1.370 . S
C322 C318 1.432 . S
C322 N320 1.359 . S
C322 C325 1.414 . S
C323 H305 0.930 . S
C323 N320 1.327 . S
C323 C321 1.392 . S
C324 H319 0.930 . S
C324 C321 1.370 . S
C324 C325 1.385 . S
C325 C322 1.414 . S
C325 C324 1.385 . S
C325 C347 1.444 . S
O326 Tb282 2.546 . S
O326 C346 1.251 . S
O327 Tb282 2.610 1_654 S
O327 Tb293 2.362 . S
O327 C338 1.283 1_554 S
O328 Tb293 2.421 . S
O328 C345 1.262 . S
O329 Tb282 2.320 1_655 S
O329 C345 1.260 1_556 S
O330 Tb282 2.552 1_655 S
O330 C338 1.243 . S
O331 Tb282 2.415 . S
O331 C346 1.255 . S
O332 Tb293 2.546 . S
O332 C357 1.251 . S
O333 Tb282 2.362 1_554 S
O333 Tb293 2.610 1_455 S
O333 C349 1.283 . S
O334 Tb282 2.392 1_554 S
O334 C356 1.321 . S
O335 Tb293 2.320 1_455 S
O335 C356 1.260 . S
O336 Tb293 2.552 1_455 S
O336 C349 1.243 . S
O337 Tb293 2.413 1_455 S
O337 C357 1.256 1_455 S
C338 O327 1.283 1_556 S
C338 O330 1.243 . S
C339 C341 1.382 1_455 S
C339 C343 1.393 . S
C339 C346 1.500 . S
C340 C341 1.400 . S
C340 C342 1.384 . S
C341 C339 1.382 1_655 S
C341 C340 1.400 . S
C341 H358 0.930 . S
C342 C340 1.384 . S
C342 C344 1.392 1_655 S
C342 H359 0.931 . S
C343 C339 1.393 . S
C343 C344 1.401 . S
C343 H360 0.930 . S
C344 C342 1.392 1_455 S
C344 C343 1.401 . S
C344 H361 0.930 . S
C345 O328 1.262 . S
C345 O329 1.260 1_554 S
C346 Tb282 2.833 . S
C346 O326 1.251 . S
C346 O331 1.255 . S
C346 C339 1.500 . S
C347 H312 0.929 . S
C347 C325 1.444 . S
C347 C348 1.317 . S
C348 H310 0.930 . S
C348 C316 1.432 . S
C348 C347 1.317 . S
C349 O333 1.283 . S
C349 O336 1.243 . S
C350 C351 1.382 . S
C350 C354 1.393 1_455 S
C350 C357 1.500 1_455 S
C351 C350 1.382 . S
C351 C352 1.400 . S
C351 H362 0.930 . S
C352 C351 1.400 . S
C352 C353 1.384 . S
C353 C352 1.384 . S
C353 C355 1.392 1_455 S
C353 H363 0.931 . S
C354 C350 1.393 1_655 S
C354 C355 1.401 . S
C354 H364 0.930 . S
C355 C353 1.392 1_655 S
C355 C354 1.401 . S
C355 H365 0.930 . S
C356 O334 1.321 . S
C356 O335 1.260 . S
C357 Tb293 2.833 . S
C357 O332 1.251 . S
C357 O337 1.256 1_655 S
C357 C350 1.500 1_655 S
H358 C341 0.930 . S
H359 C342 0.931 . S
H360 C343 0.930 . S
H361 C344 0.930 . S
H362 C351 0.930 . S
H363 C353 0.931 . S
H364 C354 0.930 . S
H365 C355 0.930 . S
Tb366 N397 2.660 . S
Tb366 N404 2.600 . S
Tb366 O410 2.546 . S
Tb366 O411 2.610 . S
Tb366 O413 2.320 . S
Tb366 O414 2.552 . S
Tb366 O415 2.413 . S
Tb366 O417 2.362 . S
Tb366 O418 2.421 . S
Tb366 C430 2.833 . S
C367 C370 1.432 . S
C367 C371 1.414 . S
C367 N374 1.359 . S
C368 C370 1.417 . S
C368 C372 1.432 . S
C368 C380 1.410 . S
C369 C371 1.444 . S
C369 C372 1.317 . S
C369 H392 0.929 . S
C370 C367 1.432 . S
C370 C368 1.417 . S
C370 N378 1.360 . S
C371 C367 1.414 . S
C371 C369 1.444 . S
C371 C376 1.385 . S
C372 C368 1.432 . S
C372 C369 1.317 . S
C372 H384 0.930 . S
C373 C375 1.392 . S
C373 C376 1.370 . S
C373 H385 0.931 . S
N374 C367 1.359 . S
N374 C375 1.327 . S
N374 Tb377 2.600 . S
C375 C373 1.392 . S
C375 N374 1.327 . S
C375 H382 0.930 . S
C376 C371 1.385 . S
C376 C373 1.370 . S
C376 H395 0.930 . S
Tb377 N374 2.600 . S
Tb377 N378 2.660 . S
Tb377 O411 2.362 1_556 S
Tb377 O412 2.421 1_556 S
Tb377 O416 2.546 . S
Tb377 O417 2.610 1_556 S
Tb377 O419 2.320 . S
Tb377 O420 2.552 . S
Tb377 O421 2.413 . S
Tb377 C441 2.833 . S
N378 C370 1.360 . S
N378 Tb377 2.660 . S
N378 C379 1.305 . S
C379 N378 1.305 . S
C379 C381 1.407 . S
C379 H386 0.930 . S
C380 C368 1.410 . S
C380 C381 1.345 . S
C380 H388 0.930 . S
C381 C379 1.407 . S
C381 C380 1.345 . S
C381 H383 0.930 . S
H382 C375 0.930 . S
H383 C381 0.930 . S
H384 C372 0.930 . S
H385 C373 0.931 . S
H386 C379 0.930 . S
H387 C401 0.930 . S
H388 C380 0.930 . S
H389 C407 0.930 . S
H390 C398 0.930 . S
H391 C405 0.931 . S
H392 C369 0.929 . S
H393 C399 0.930 . S
H394 C432 0.930 . S
H395 C376 0.930 . S
H396 C431 0.929 . S
N397 Tb366 2.660 . S
N397 C398 1.305 . S
N397 C402 1.360 . S
C398 H390 0.930 . S
C398 N397 1.305 . S
C398 C401 1.407 . S
C399 H393 0.930 . S
C399 C400 1.410 . S
C399 C401 1.345 . S
C400 C399 1.410 . S
C400 C402 1.417 . S
C400 C432 1.432 . S
C401 H387 0.930 . S
C401 C398 1.407 . S
C401 C399 1.345 . S
C402 N397 1.360 . S
C402 C400 1.417 . S
C402 C406 1.432 . S
H403 C408 0.930 . S
N404 Tb366 2.600 . S
N404 C406 1.359 . S
N404 C407 1.327 . S
C405 H391 0.931 . S
C405 C407 1.392 . S
C405 C408 1.370 . S
C406 C402 1.432 . S
C406 N404 1.359 . S
C406 C409 1.414 . S
C407 H389 0.930 . S
C407 N404 1.327 . S
C407 C405 1.392 . S
C408 H403 0.930 . S
C408 C405 1.370 . S
C408 C409 1.385 . S
C409 C406 1.414 . S
C409 C408 1.385 . S
C409 C431 1.444 . S
O410 Tb366 2.546 . S
O410 C430 1.251 . S
O411 Tb366 2.610 . S
O411 Tb377 2.362 1_554 S
O411 C422 1.283 . S
O412 Tb377 2.421 1_554 S
O412 C429 1.262 . S
O413 Tb366 2.320 . S
O413 C429 1.260 . S
O414 Tb366 2.552 . S
O414 C422 1.243 . S
O415 Tb366 2.413 . S
O415 C430 1.256 . S
O416 Tb377 2.546 . S
O416 C441 1.251 . S
O417 Tb366 2.362 . S
O417 Tb377 2.610 1_554 S
O417 C433 1.283 1_554 S
O418 Tb366 2.421 . S
O418 C440 1.262 . S
O419 Tb377 2.320 . S
O419 C440 1.260 1_556 S
O420 Tb377 2.552 . S
O420 C433 1.243 . S
O421 Tb377 2.413 . S
O421 C441 1.256 . S
C422 O411 1.283 . S
C422 O414 1.243 . S
C423 C425 1.382 . S
C423 C427 1.393 . S
C423 C430 1.500 . S
C424 C425 1.400 . S
C424 C426 1.384 . S
C425 C423 1.382 . S
C425 C424 1.400 . S
C425 H442 0.930 . S
C426 C424 1.384 . S
C426 C428 1.392 . S
C426 H443 0.931 . S
C427 C423 1.393 . S
C427 C428 1.401 . S
C427 H444 0.930 . S
C428 C426 1.392 . S
C428 C427 1.401 . S
C428 H445 0.930 . S
C429 O412 1.262 . S
C429 O413 1.260 . S
C430 Tb366 2.833 . S
C430 O410 1.251 . S
C430 O415 1.256 . S
C430 C423 1.500 . S
C431 H396 0.929 . S
C431 C409 1.444 . S
C431 C432 1.317 . S
C432 H394 0.930 . S
C432 C400 1.432 . S
C432 C431 1.317 . S
C433 O417 1.283 1_556 S
C433 O420 1.243 . S
C434 C435 1.382 . S
C434 C438 1.393 . S
C434 C441 1.500 . S
C435 C434 1.382 . S
C435 C436 1.400 . S
C435 H446 0.930 . S
C436 C435 1.400 . S
C436 C437 1.384 . S
C437 C436 1.384 . S
C437 C439 1.392 . S
C437 H447 0.931 . S
C438 C434 1.393 . S
C438 C439 1.401 . S
C438 H448 0.930 . S
C439 C437 1.392 . S
C439 C438 1.401 . S
C439 H449 0.930 . S
C440 O418 1.262 . S
C440 O419 1.260 1_554 S
C441 Tb377 2.833 . S
C441 O416 1.251 . S
C441 O421 1.256 . S
C441 C434 1.500 . S
H442 C425 0.930 . S
H443 C426 0.931 . S
H444 C427 0.930 . S
H445 C428 0.930 . S
H446 C435 0.930 . S
H447 C437 0.931 . S
H448 C438 0.930 . S
H449 C439 0.930 . S
Tb450 N481 2.660 . S
Tb450 N488 2.600 . S
Tb450 O494 2.546 . S
Tb450 O495 2.610 . S
Tb450 O497 2.320 . S
Tb450 O498 2.552 . S
Tb450 O499 2.413 . S
Tb450 O501 2.362 . S
Tb450 O502 2.421 . S
Tb450 C514 2.833 . S
C451 C454 1.432 . S
C451 C455 1.414 . S
C451 N458 1.359 . S
C452 C454 1.417 . S
C452 C456 1.432 . S
C452 C464 1.410 . S
C453 C455 1.444 . S
C453 C456 1.317 . S
C453 H476 0.929 . S
C454 C451 1.432 . S
C454 C452 1.417 . S
C454 N462 1.360 . S
C455 C451 1.414 . S
C455 C453 1.444 . S
C455 C460 1.385 . S
C456 C452 1.432 . S
C456 C453 1.317 . S
C456 H468 0.930 . S
C457 C459 1.392 . S
C457 C460 1.370 . S
C457 H469 0.931 . S
N458 C451 1.359 . S
N458 C459 1.327 . S
N458 Tb461 2.600 . S
C459 C457 1.392 . S
C459 N458 1.327 . S
C459 H466 0.930 . S
C460 C455 1.385 . S
C460 C457 1.370 . S
C460 H479 0.930 . S
Tb461 N458 2.600 . S
Tb461 N462 2.660 . S
Tb461 O495 2.362 . S
Tb461 O496 2.421 . S
Tb461 O500 2.546 . S
Tb461 O501 2.610 . S
Tb461 O503 2.320 . S
Tb461 O504 2.552 . S
Tb461 O505 2.413 . S
Tb461 C525 2.833 . S
N462 C454 1.360 . S
N462 Tb461 2.660 . S
N462 C463 1.305 . S
C463 N462 1.305 . S
C463 C465 1.407 . S
C463 H470 0.930 . S
C464 C452 1.410 . S
C464 C465 1.345 . S
C464 H472 0.930 . S
C465 C463 1.407 . S
C465 C464 1.345 . S
C465 H467 0.930 . S
H466 C459 0.930 . S
H467 C465 0.930 . S
H468 C456 0.930 . S
H469 C457 0.931 . S
H470 C463 0.930 . S
H471 C485 0.930 . S
H472 C464 0.930 . S
H473 C491 0.930 . S
H474 C482 0.930 . S
H475 C489 0.931 . S
H476 C453 0.929 . S
H477 C483 0.943 . S
H478 C516 0.930 . S
H479 C460 0.930 . S
H480 C515 0.929 . S
N481 Tb450 2.660 . S
N481 C482 1.305 . S
N481 C486 1.360 . S
C482 H474 0.930 . S
C482 N481 1.305 . S
C482 C485 1.407 . S
C483 H477 0.943 . S
C483 C484 1.410 . S
C483 C485 1.345 . S
C484 C483 1.410 . S
C484 C486 1.417 . S
C484 C516 1.432 . S
C485 H471 0.930 . S
C485 C482 1.407 . S
C485 C483 1.345 . S
C486 N481 1.360 . S
C486 C484 1.417 . S
C486 C490 1.432 . S
H487 C492 0.930 . S
N488 Tb450 2.600 . S
N488 C490 1.359 . S
N488 C491 1.327 . S
C489 H475 0.931 . S
C489 C491 1.392 . S
C489 C492 1.370 . S
C490 C486 1.432 . S
C490 N488 1.359 . S
C490 C493 1.414 . S
C491 H473 0.930 . S
C491 N488 1.327 . S
C491 C489 1.392 . S
C492 H487 0.930 . S
C492 C489 1.370 . S
C492 C493 1.385 . S
C493 C490 1.414 . S
C493 C492 1.385 . S
C493 C515 1.444 . S
O494 Tb450 2.546 . S
O494 C514 1.251 . S
O495 Tb450 2.610 . S
O495 Tb461 2.362 . S
O495 C506 1.283 . S
O496 Tb461 2.421 . S
O496 C513 1.262 . S
O497 Tb450 2.320 . S
O497 C513 1.260 . S
O498 Tb450 2.552 . S
O498 C506 1.243 . S
O499 Tb450 2.413 . S
O499 C514 1.256 . S
O500 Tb461 2.546 . S
O500 C525 1.251 . S
O501 Tb450 2.362 . S
O501 Tb461 2.610 . S
O501 C517 1.283 . S
O502 Tb450 2.421 . S
O502 C524 1.262 . S
O503 Tb461 2.320 . S
O503 C524 1.260 . S
O504 Tb461 2.552 . S
O504 C517 1.243 . S
O505 Tb461 2.413 . S
O505 C525 1.256 . S
C506 O495 1.283 . S
C506 O498 1.243 . S
C507 C509 1.382 . S
C507 C511 1.393 . S
C507 C514 1.500 . S
C508 C509 1.400 . S
C508 C510 1.384 . S
C509 C507 1.382 . S
C509 C508 1.400 . S
C509 H526 0.930 . S
C510 C508 1.384 . S
C510 C512 1.392 . S
C510 H527 0.931 . S
C511 C507 1.393 . S
C511 C512 1.401 . S
C511 H528 0.930 . S
C512 C510 1.392 . S
C512 C511 1.401 . S
C512 H529 0.930 . S
C513 O496 1.262 . S
C513 O497 1.260 . S
C514 Tb450 2.833 . S
C514 O494 1.251 . S
C514 O499 1.256 . S
C514 C507 1.500 . S
C515 H480 0.929 . S
C515 C493 1.444 . S
C515 C516 1.317 . S
C516 H478 0.930 . S
C516 C484 1.432 . S
C516 C515 1.317 . S
C517 O501 1.283 . S
C517 O504 1.243 . S
C518 C519 1.382 . S
C518 C522 1.393 . S
C518 C525 1.500 . S
C519 C518 1.382 . S
C519 C520 1.400 . S
C519 H530 0.930 . S
C520 C519 1.400 . S
C520 C521 1.384 . S
C521 C520 1.384 . S
C521 C523 1.392 . S
C521 H531 0.931 . S
C522 C518 1.393 . S
C522 C523 1.401 . S
C522 H532 0.930 . S
C523 C521 1.392 . S
C523 C522 1.401 . S
C523 H533 0.930 . S
C524 O502 1.262 . S
C524 O503 1.260 . S
C525 Tb461 2.833 . S
C525 O500 1.251 . S
C525 O505 1.256 . S
C525 C518 1.500 . S
H526 C509 0.930 . S
H527 C510 0.931 . S
H528 C511 0.930 . S
H529 C512 0.930 . S
H530 C519 0.930 . S
H531 C521 0.931 . S
H532 C522 0.930 . S
H533 C523 0.930 . S
Tb534 N565 2.660 . S
Tb534 N572 2.600 . S
Tb534 O578 2.546 . S
Tb534 O579 2.610 . S
Tb534 O581 2.320 . S
Tb534 O582 2.552 . S
Tb534 O583 2.413 . S
Tb534 O585 2.362 . S
Tb534 O586 2.421 . S
Tb534 C598 2.833 . S
C535 C538 1.432 . S
C535 C539 1.414 . S
C535 N542 1.359 . S
C536 C538 1.417 . S
C536 C540 1.432 . S
C536 C548 1.410 . S
C537 C539 1.444 . S
C537 C540 1.317 . S
C537 H560 0.929 . S
C538 C535 1.432 . S
C538 C536 1.417 . S
C538 N546 1.360 . S
C539 C535 1.414 . S
C539 C537 1.444 . S
C539 C544 1.385 . S
C540 C536 1.432 . S
C540 C537 1.317 . S
C540 H552 0.930 . S
C541 C543 1.392 . S
C541 C544 1.370 . S
C541 H553 0.931 . S
N542 C535 1.359 . S
N542 C543 1.327 . S
N542 Tb545 2.600 . S
C543 C541 1.392 . S
C543 N542 1.327 . S
C543 H550 0.930 . S
C544 C539 1.385 . S
C544 C541 1.370 . S
C544 H563 0.930 . S
Tb545 N542 2.600 . S
Tb545 N546 2.660 . S
Tb545 O579 2.362 . S
Tb545 O580 2.421 . S
Tb545 O584 2.546 . S
Tb545 O585 2.610 . S
Tb545 O587 2.320 . S
Tb545 O588 2.552 . S
Tb545 O589 2.413 . S
Tb545 C609 2.833 . S
N546 C538 1.360 . S
N546 Tb545 2.660 . S
N546 C547 1.305 . S
C547 N546 1.305 . S
C547 C549 1.407 . S
C547 H554 0.930 . S
C548 C536 1.410 . S
C548 C549 1.345 . S
C548 H556 0.930 . S
C549 C547 1.407 . S
C549 C548 1.345 . S
C549 H551 0.930 . S
H550 C543 0.930 . S
H551 C549 0.930 . S
H552 C540 0.930 . S
H553 C541 0.931 . S
H554 C547 0.930 . S
H555 C569 0.930 . S
H556 C548 0.930 . S
H557 C575 0.930 . S
H558 C566 0.930 . S
H559 C573 0.931 . S
H560 C537 0.929 . S
H561 C567 0.930 . S
H562 C600 0.930 . S
H563 C544 0.930 . S
H564 C599 0.929 . S
N565 Tb534 2.660 . S
N565 C566 1.305 . S
N565 C570 1.360 . S
C566 H558 0.930 . S
C566 N565 1.305 . S
C566 C569 1.407 . S
C567 H561 0.930 . S
C567 C568 1.410 . S
C567 C569 1.345 . S
C568 C567 1.410 . S
C568 C570 1.417 . S
C568 C600 1.432 . S
C569 H555 0.930 . S
C569 C566 1.407 . S
C569 C567 1.345 . S
C570 N565 1.360 . S
C570 C568 1.417 . S
C570 C574 1.432 . S
H571 C576 0.930 . S
N572 Tb534 2.600 . S
N572 C574 1.359 . S
N572 C575 1.327 . S
C573 H559 0.931 . S
C573 C575 1.392 . S
C573 C576 1.370 . S
C574 C570 1.432 . S
C574 N572 1.359 . S
C574 C577 1.414 . S
C575 H557 0.930 . S
C575 N572 1.327 . S
C575 C573 1.392 . S
C576 H571 0.930 . S
C576 C573 1.370 . S
C576 C577 1.385 . S
C577 C574 1.414 . S
C577 C576 1.385 . S
C577 C599 1.444 . S
O578 Tb534 2.546 . S
O578 C598 1.251 . S
O579 Tb534 2.610 . S
O579 Tb545 2.362 . S
O579 C590 1.283 . S
O580 Tb545 2.421 . S
O580 C597 1.262 . S
O581 Tb534 2.320 . S
O581 C597 1.260 . S
O582 Tb534 2.552 . S
O582 C590 1.243 . S
O583 Tb534 2.413 . S
O583 C598 1.256 . S
O584 Tb545 2.546 . S
O584 C609 1.251 . S
O585 Tb534 2.362 . S
O585 Tb545 2.610 . S
O585 C601 1.283 . S
O586 Tb534 2.421 . S
O586 C608 1.262 . S
O587 Tb545 2.320 . S
O587 C608 1.260 . S
O588 Tb545 2.552 . S
O588 C601 1.243 . S
O589 Tb545 2.413 . S
O589 C609 1.256 . S
C590 O579 1.283 . S
C590 O582 1.243 . S
C591 C593 1.382 . S
C591 C595 1.393 . S
C591 C598 1.500 . S
C592 C593 1.400 . S
C592 C594 1.384 . S
C593 C591 1.382 . S
C593 C592 1.400 . S
C593 H610 0.930 . S
C594 C592 1.384 . S
C594 C596 1.392 . S
C594 H611 0.931 . S
C595 C591 1.393 . S
C595 C596 1.401 . S
C595 H612 0.930 . S
C596 C594 1.392 . S
C596 C595 1.401 . S
C596 H613 0.930 . S
C597 O580 1.262 . S
C597 O581 1.260 . S
C598 Tb534 2.833 . S
C598 O578 1.251 . S
C598 O583 1.256 . S
C598 C591 1.500 . S
C599 H564 0.929 . S
C599 C577 1.444 . S
C599 C600 1.317 . S
C600 H562 0.930 . S
C600 C568 1.432 . S
C600 C599 1.317 . S
C601 O585 1.283 . S
C601 O588 1.243 . S
C602 C603 1.382 . S
C602 C606 1.393 . S
C602 C609 1.500 . S
C603 C602 1.382 . S
C603 C604 1.400 . S
C603 H614 0.930 . S
C604 C603 1.400 . S
C604 C605 1.384 . S
C605 C604 1.384 . S
C605 C607 1.392 . S
C605 H615 0.931 . S
C606 C602 1.393 . S
C606 C607 1.401 . S
C606 H616 0.930 . S
C607 C605 1.392 . S
C607 C606 1.401 . S
C607 H617 0.930 . S
C608 O586 1.262 . S
C608 O587 1.260 . S
C609 Tb545 2.833 . S
C609 O584 1.251 . S
C609 O589 1.256 . S
C609 C602 1.500 . S
H610 C593 0.930 . S
H611 C594 0.931 . S
H612 C595 0.930 . S
H613 C596 0.930 . S
H614 C603 0.930 . S
H615 C605 0.931 . S
H616 C606 0.930 . S
H617 C607 0.930 . S
Tb618 N649 2.660 . S
Tb618 N656 2.600 . S
Tb618 O662 2.546 . S
Tb618 O663 2.610 . S
Tb618 O665 2.320 . S
Tb618 O666 2.552 . S
Tb618 O667 2.413 . S
Tb618 O669 2.362 . S
Tb618 O670 2.421 . S
Tb618 C682 2.833 . S
C619 C622 1.432 . S
C619 C623 1.414 . S
C619 N626 1.359 . S
C620 C622 1.417 . S
C620 C624 1.432 . S
C620 C632 1.410 . S
C621 C623 1.444 . S
C621 C624 1.317 . S
C621 H644 0.929 . S
C622 C619 1.432 . S
C622 C620 1.417 . S
C622 N630 1.360 . S
C623 C619 1.414 . S
C623 C621 1.444 . S
C623 C628 1.385 . S
C624 C620 1.432 . S
C624 C621 1.317 . S
C624 H636 0.930 . S
C625 C627 1.392 . S
C625 C628 1.370 . S
C625 H637 0.931 . S
N626 C619 1.359 . S
N626 C627 1.327 . S
N626 Tb629 2.600 . S
C627 C625 1.392 . S
C627 N626 1.327 . S
C627 H634 0.930 . S
C628 C623 1.385 . S
C628 C625 1.370 . S
C628 H647 0.930 . S
Tb629 N626 2.600 . S
Tb629 N630 2.660 . S
Tb629 O663 2.362 . S
Tb629 O664 2.421 . S
Tb629 O668 2.546 . S
Tb629 O669 2.610 . S
Tb629 O671 2.320 . S
Tb629 O672 2.552 . S
Tb629 O673 2.413 . S
Tb629 C693 2.833 . S
N630 C622 1.360 . S
N630 Tb629 2.660 . S
N630 C631 1.305 . S
C631 N630 1.305 . S
C631 C633 1.407 . S
C631 H638 0.930 . S
C632 C620 1.410 . S
C632 C633 1.345 . S
C632 H640 0.930 . S
C633 C631 1.407 . S
C633 C632 1.345 . S
C633 H635 0.930 . S
H634 C627 0.930 . S
H635 C633 0.930 . S
H636 C624 0.930 . S
H637 C625 0.931 . S
H638 C631 0.930 . S
H639 C653 0.930 . S
H640 C632 0.930 . S
H641 C659 0.930 . S
H642 C650 0.930 . S
H643 C657 0.931 . S
H644 C621 0.929 . S
H645 C651 0.930 . S
H646 C684 0.930 . S
H647 C628 0.930 . S
H648 C683 0.929 . S
N649 Tb618 2.660 . S
N649 C650 1.305 . S
N649 C654 1.360 . S
C650 H642 0.930 . S
C650 N649 1.305 . S
C650 C653 1.407 . S
C651 H645 0.930 . S
C651 C652 1.410 . S
C651 C653 1.345 . S
C652 C651 1.410 . S
C652 C654 1.417 . S
C652 C684 1.432 . S
C653 H639 0.930 . S
C653 C650 1.407 . S
C653 C651 1.345 . S
C654 N649 1.360 . S
C654 C652 1.417 . S
C654 C658 1.432 . S
H655 C660 0.930 . S
N656 Tb618 2.600 . S
N656 C658 1.359 . S
N656 C659 1.327 . S
C657 H643 0.931 . S
C657 C659 1.392 . S
C657 C660 1.370 . S
C658 C654 1.432 . S
C658 N656 1.359 . S
C658 C661 1.414 . S
C659 H641 0.930 . S
C659 N656 1.327 . S
C659 C657 1.392 . S
C660 H655 0.930 . S
C660 C657 1.370 . S
C660 C661 1.385 . S
C661 C658 1.414 . S
C661 C660 1.385 . S
C661 C683 1.444 . S
O662 Tb618 2.546 . S
O662 C682 1.251 . S
O663 Tb618 2.610 . S
O663 Tb629 2.362 . S
O663 C674 1.283 . S
O664 Tb629 2.421 . S
O664 C681 1.262 . S
O665 Tb618 2.320 . S
O665 C681 1.260 . S
O666 Tb618 2.552 . S
O666 C674 1.243 . S
O667 Tb618 2.413 . S
O667 C682 1.256 . S
O668 Tb629 2.546 . S
O668 C693 1.251 . S
O669 Tb618 2.362 . S
O669 Tb629 2.610 . S
O669 C685 1.283 . S
O670 Tb618 2.421 . S
O670 C692 1.262 . S
O671 Tb629 2.320 . S
O671 C692 1.260 . S
O672 Tb629 2.552 . S
O672 C685 1.243 . S
O673 Tb629 2.413 . S
O673 C693 1.256 . S
C674 O663 1.283 . S
C674 O666 1.243 . S
C675 C677 1.382 . S
C675 C679 1.393 . S
C675 C682 1.500 . S
C676 C677 1.400 . S
C676 C678 1.384 . S
C677 C675 1.382 . S
C677 C676 1.400 . S
C677 H694 0.930 . S
C678 C676 1.384 . S
C678 C680 1.392 . S
C678 H695 0.931 . S
C679 C675 1.393 . S
C679 C680 1.401 . S
C679 H696 0.930 . S
C680 C678 1.392 . S
C680 C679 1.401 . S
C680 H697 0.930 . S
C681 O664 1.262 . S
C681 O665 1.260 . S
C682 Tb618 2.833 . S
C682 O662 1.251 . S
C682 O667 1.256 . S
C682 C675 1.500 . S
C683 H648 0.929 . S
C683 C661 1.444 . S
C683 C684 1.317 . S
C684 H646 0.930 . S
C684 C652 1.432 . S
C684 C683 1.317 . S
C685 O669 1.283 . S
C685 O672 1.243 . S
C686 C687 1.382 . S
C686 C690 1.393 . S
C686 C693 1.500 . S
C687 C686 1.382 . S
C687 C688 1.400 . S
C687 H698 0.930 . S
C688 C687 1.400 . S
C688 C689 1.384 . S
C689 C688 1.384 . S
C689 C691 1.392 . S
C689 H699 0.931 . S
C690 C686 1.393 . S
C690 C691 1.401 . S
C690 H700 0.930 . S
C691 C689 1.392 . S
C691 C690 1.401 . S
C691 H701 0.930 . S
C692 O670 1.262 . S
C692 O671 1.260 . S
C693 Tb629 2.833 . S
C693 O668 1.251 . S
C693 O673 1.256 . S
C693 C686 1.500 . S
H694 C677 0.930 . S
H695 C678 0.931 . S
H696 C679 0.930 . S
H697 C680 0.930 . S
H698 C687 0.930 . S
H699 C689 0.931 . S
H700 C690 0.930 . S
H701 C691 0.930 . S
Tb702 N733 2.660 . S
Tb702 N740 2.600 . S
Tb702 O746 2.546 . S
Tb702 O747 2.610 . S
Tb702 O749 2.320 . S
Tb702 O750 2.552 . S
Tb702 O751 2.413 . S
Tb702 O753 2.362 . S
Tb702 O754 2.421 . S
Tb702 C766 2.833 . S
C703 C706 1.432 . S
C703 C707 1.414 . S
C703 N710 1.359 . S
C704 C706 1.417 . S
C704 C708 1.432 . S
C704 C716 1.410 . S
C705 C707 1.444 . S
C705 C708 1.317 . S
C705 H728 0.929 . S
C706 C703 1.432 . S
C706 C704 1.417 . S
C706 N714 1.360 . S
C707 C703 1.414 . S
C707 C705 1.444 . S
C707 C712 1.385 . S
C708 C704 1.432 . S
C708 C705 1.317 . S
C708 H720 0.930 . S
C709 C711 1.392 . S
C709 C712 1.370 . S
C709 H721 0.931 . S
N710 C703 1.359 . S
N710 C711 1.327 . S
N710 Tb713 2.600 . S
C711 C709 1.392 . S
C711 N710 1.327 . S
C711 H718 0.930 . S
C712 C707 1.385 . S
C712 C709 1.370 . S
C712 H731 0.930 . S
Tb713 N710 2.600 . S
Tb713 N714 2.660 . S
Tb713 O747 2.362 . S
Tb713 O748 2.421 . S
Tb713 O752 2.546 . S
Tb713 O753 2.610 . S
Tb713 O755 2.320 . S
Tb713 O756 2.552 . S
Tb713 O757 2.413 . S
Tb713 C777 2.833 . S
N714 C706 1.360 . S
N714 Tb713 2.660 . S
N714 C715 1.305 . S
C715 N714 1.305 . S
C715 C717 1.407 . S
C715 H722 0.930 . S
C716 C704 1.410 . S
C716 C717 1.345 . S
C716 H724 0.930 . S
C717 C715 1.407 . S
C717 C716 1.345 . S
C717 H719 0.930 . S
H718 C711 0.930 . S
H719 C717 0.930 . S
H720 C708 0.930 . S
H721 C709 0.931 . S
H722 C715 0.930 . S
H723 C737 0.930 . S
H724 C716 0.930 . S
H725 C743 0.930 . S
H726 C734 0.930 . S
H727 C741 0.931 . S
H728 C705 0.929 . S
H729 C735 0.930 . S
H730 C768 0.930 . S
H731 C712 0.930 . S
H732 C767 0.929 . S
N733 Tb702 2.660 . S
N733 C734 1.305 . S
N733 C738 1.360 . S
C734 H726 0.930 . S
C734 N733 1.305 . S
C734 C737 1.407 . S
C735 H729 0.930 . S
C735 C736 1.410 . S
C735 C737 1.345 . S
C736 C735 1.410 . S
C736 C738 1.417 . S
C736 C768 1.432 . S
C737 H723 0.930 . S
C737 C734 1.407 . S
C737 C735 1.345 . S
C738 N733 1.360 . S
C738 C736 1.417 . S
C738 C742 1.432 . S
H739 C744 0.930 . S
N740 Tb702 2.600 . S
N740 C742 1.359 . S
N740 C743 1.327 . S
C741 H727 0.931 . S
C741 C743 1.392 . S
C741 C744 1.370 . S
C742 C738 1.432 . S
C742 N740 1.359 . S
C742 C745 1.414 . S
C743 H725 0.930 . S
C743 N740 1.327 . S
C743 C741 1.392 . S
C744 H739 0.930 . S
C744 C741 1.370 . S
C744 C745 1.385 . S
C745 C742 1.414 . S
C745 C744 1.385 . S
C745 C767 1.444 . S
O746 Tb702 2.546 . S
O746 C766 1.251 . S
O747 Tb702 2.610 . S
O747 Tb713 2.362 . S
O747 C758 1.283 . S
O748 Tb713 2.421 . S
O748 C765 1.262 . S
O749 Tb702 2.320 . S
O749 C765 1.260 . S
O750 Tb702 2.552 . S
O750 C758 1.243 . S
O751 Tb702 2.413 . S
O751 C766 1.256 . S
O752 Tb713 2.546 . S
O752 C777 1.251 . S
O753 Tb702 2.362 . S
O753 Tb713 2.610 . S
O753 C769 1.283 . S
O754 Tb702 2.421 . S
O754 C776 1.262 . S
O755 Tb713 2.320 . S
O755 C776 1.260 . S
O756 Tb713 2.552 . S
O756 C769 1.243 . S
O757 Tb713 2.413 . S
O757 C777 1.256 . S
C758 O747 1.283 . S
C758 O750 1.243 . S
C759 C761 1.382 . S
C759 C763 1.393 . S
C759 C766 1.500 . S
C760 C761 1.400 . S
C760 C762 1.384 . S
C761 C759 1.382 . S
C761 C760 1.400 . S
C761 H778 0.930 . S
C762 C760 1.384 . S
C762 C764 1.392 . S
C762 H779 0.931 . S
C763 C759 1.393 . S
C763 C764 1.401 . S
C763 H780 0.930 . S
C764 C762 1.392 . S
C764 C763 1.401 . S
C764 H781 0.930 . S
C765 O748 1.262 . S
C765 O749 1.260 . S
C766 Tb702 2.833 . S
C766 O746 1.251 . S
C766 O751 1.256 . S
C766 C759 1.500 . S
C767 H732 0.929 . S
C767 C745 1.444 . S
C767 C768 1.317 . S
C768 H730 0.930 . S
C768 C736 1.432 . S
C768 C767 1.317 . S
C769 O753 1.283 . S
C769 O756 1.243 . S
C770 C771 1.382 . S
C770 C774 1.393 . S
C770 C777 1.500 . S
C771 C770 1.382 . S
C771 C772 1.400 . S
C771 H782 0.930 . S
C772 C771 1.400 . S
C772 C773 1.384 . S
C773 C772 1.384 . S
C773 C775 1.392 . S
C773 H783 0.931 . S
C774 C770 1.393 . S
C774 C775 1.401 . S
C774 H784 0.930 . S
C775 C773 1.392 . S
C775 C774 1.401 . S
C775 H785 0.930 . S
C776 O754 1.262 . S
C776 O755 1.260 . S
C777 Tb713 2.833 . S
C777 O752 1.251 . S
C777 O757 1.256 . S
C777 C770 1.500 . S
H778 C761 0.930 . S
H779 C762 0.931 . S
H780 C763 0.930 . S
H781 C764 0.930 . S
H782 C771 0.930 . S
H783 C773 0.931 . S
H784 C774 0.930 . S
H785 C775 0.930 . S
Tb786 N817 2.660 . S
Tb786 N824 2.600 . S
Tb786 O830 2.546 . S
Tb786 O831 2.610 . S
Tb786 O833 2.320 . S
Tb786 O834 2.552 . S
Tb786 O835 2.413 . S
Tb786 O837 2.362 . S
Tb786 O838 2.421 . S
Tb786 C850 2.833 . S
C787 C790 1.432 . S
C787 C791 1.414 . S
C787 N794 1.359 . S
C788 C790 1.417 . S
C788 C792 1.432 . S
C788 C800 1.410 . S
C789 C791 1.444 . S
C789 C792 1.317 . S
C789 H812 0.929 . S
C790 C787 1.432 . S
C790 C788 1.417 . S
C790 N798 1.360 . S
C791 C787 1.414 . S
C791 C789 1.444 . S
C791 C796 1.385 . S
C792 C788 1.432 . S
C792 C789 1.317 . S
C792 H804 0.930 . S
C793 C795 1.392 . S
C793 C796 1.370 . S
C793 H805 0.931 . S
N794 C787 1.359 . S
N794 C795 1.327 . S
N794 Tb797 2.600 . S
C795 C793 1.392 . S
C795 N794 1.327 . S
C795 H802 0.930 . S
C796 C791 1.385 . S
C796 C793 1.370 . S
C796 H815 0.930 . S
Tb797 N794 2.600 . S
Tb797 N798 2.660 . S
Tb797 O831 2.362 . S
Tb797 O832 2.421 . S
Tb797 O836 2.546 . S
Tb797 O837 2.610 . S
Tb797 O839 2.320 . S
Tb797 O840 2.552 . S
Tb797 O841 2.413 . S
Tb797 C861 2.833 . S
N798 C790 1.360 . S
N798 Tb797 2.660 . S
N798 C799 1.305 . S
C799 N798 1.305 . S
C799 C801 1.407 . S
C799 H806 0.930 . S
C800 C788 1.410 . S
C800 C801 1.345 . S
C800 H808 0.930 . S
C801 C799 1.407 . S
C801 C800 1.345 . S
C801 H803 0.930 . S
H802 C795 0.930 . S
H803 C801 0.930 . S
H804 C792 0.930 . S
H805 C793 0.931 . S
H806 C799 0.930 . S
H807 C821 0.930 . S
H808 C800 0.930 . S
H809 C827 0.930 . S
H810 C818 0.930 . S
H811 C825 0.931 . S
H812 C789 0.929 . S
H813 C819 0.930 . S
H814 C852 0.930 . S
H815 C796 0.930 . S
H816 C851 0.929 . S
N817 Tb786 2.660 . S
N817 C818 1.305 . S
N817 C822 1.360 . S
C818 H810 0.930 . S
C818 N817 1.305 . S
C818 C821 1.407 . S
C819 H813 0.930 . S
C819 C820 1.410 . S
C819 C821 1.345 . S
C820 C819 1.410 . S
C820 C822 1.417 . S
C820 C852 1.432 . S
C821 H807 0.930 . S
C821 C818 1.407 . S
C821 C819 1.345 . S
C822 N817 1.360 . S
C822 C820 1.417 . S
C822 C826 1.432 . S
H823 C828 0.930 . S
N824 Tb786 2.600 . S
N824 C826 1.359 . S
N824 C827 1.327 . S
C825 H811 0.931 . S
C825 C827 1.392 . S
C825 C828 1.370 . S
C826 C822 1.432 . S
C826 N824 1.359 . S
C826 C829 1.414 . S
C827 H809 0.930 . S
C827 N824 1.327 . S
C827 C825 1.392 . S
C828 H823 0.930 . S
C828 C825 1.370 . S
C828 C829 1.385 . S
C829 C826 1.414 . S
C829 C828 1.385 . S
C829 C851 1.444 . S
O830 Tb786 2.546 . S
O830 C850 1.251 . S
O831 Tb786 2.610 . S
O831 Tb797 2.362 . S
O831 C842 1.283 . S
O832 Tb797 2.421 . S
O832 C849 1.262 . S
O833 Tb786 2.320 . S
O833 C849 1.260 . S
O834 Tb786 2.552 . S
O834 C842 1.243 . S
O835 Tb786 2.413 . S
O835 C850 1.256 . S
O836 Tb797 2.546 . S
O836 C861 1.251 . S
O837 Tb786 2.362 . S
O837 Tb797 2.610 . S
O837 C853 1.283 . S
O838 Tb786 2.421 . S
O838 C860 1.262 . S
O839 Tb797 2.320 . S
O839 C860 1.260 . S
O840 Tb797 2.552 . S
O840 C853 1.243 . S
O841 Tb797 2.413 . S
O841 C861 1.256 . S
C842 O831 1.283 . S
C842 O834 1.243 . S
C843 C845 1.382 . S
C843 C847 1.393 . S
C843 C850 1.500 . S
C844 C845 1.400 . S
C844 C846 1.384 . S
C845 C843 1.382 . S
C845 C844 1.400 . S
C845 H862 0.930 . S
C846 C844 1.384 . S
C846 C848 1.392 . S
C846 H863 0.931 . S
C847 C843 1.393 . S
C847 C848 1.401 . S
C847 H864 0.930 . S
C848 C846 1.392 . S
C848 C847 1.401 . S
C848 H865 0.930 . S
C849 O832 1.262 . S
C849 O833 1.260 . S
C850 Tb786 2.833 . S
C850 O830 1.251 . S
C850 O835 1.256 . S
C850 C843 1.500 . S
C851 H816 0.929 . S
C851 C829 1.444 . S
C851 C852 1.317 . S
C852 H814 0.930 . S
C852 C820 1.432 . S
C852 C851 1.317 . S
C853 O837 1.283 . S
C853 O840 1.243 . S
C854 C855 1.382 . S
C854 C858 1.393 . S
C854 C861 1.500 . S
C855 C854 1.382 . S
C855 C856 1.400 . S
C855 H866 0.930 . S
C856 C855 1.400 . S
C856 C857 1.384 . S
C857 C856 1.384 . S
C857 C859 1.392 . S
C857 H867 0.931 . S
C858 C854 1.393 . S
C858 C859 1.401 . S
C858 H868 0.930 . S
C859 C857 1.392 . S
C859 C858 1.401 . S
C859 H869 0.930 . S
C860 O838 1.262 . S
C860 O839 1.260 . S
C861 Tb797 2.833 . S
C861 O836 1.251 . S
C861 O841 1.256 . S
C861 C854 1.500 . S
H862 C845 0.930 . S
H863 C846 0.931 . S
H864 C847 0.930 . S
H865 C848 0.930 . S
H866 C855 0.930 . S
H867 C857 0.931 . S
H868 C858 0.930 . S
H869 C859 0.930 . S
Tb870 N901 2.660 . S
Tb870 N908 2.600 . S
Tb870 O914 2.546 . S
Tb870 O915 2.610 . S
Tb870 O917 2.320 . S
Tb870 O918 2.552 . S
Tb870 O919 2.413 . S
Tb870 O921 2.362 . S
Tb870 O922 2.421 . S
Tb870 C934 2.833 . S
C871 C874 1.432 . S
C871 C875 1.414 . S
C871 N878 1.359 . S
C872 C874 1.417 . S
C872 C876 1.432 . S
C872 C884 1.410 . S
C873 C875 1.444 . S
C873 C876 1.317 . S
C873 H896 0.929 . S
C874 C871 1.432 . S
C874 C872 1.417 . S
C874 N882 1.360 . S
C875 C871 1.414 . S
C875 C873 1.444 . S
C875 C880 1.385 . S
C876 C872 1.432 . S
C876 C873 1.317 . S
C876 H888 0.930 . S
C877 C879 1.392 . S
C877 C880 1.370 . S
C877 H889 0.931 . S
N878 C871 1.359 . S
N878 C879 1.327 . S
N878 Tb881 2.600 . S
C879 C877 1.392 . S
C879 N878 1.327 . S
C879 H886 0.930 . S
C880 C875 1.385 . S
C880 C877 1.370 . S
C880 H899 0.930 . S
Tb881 N878 2.600 . S
Tb881 N882 2.660 . S
Tb881 O915 2.362 . S
Tb881 O916 2.421 . S
Tb881 O920 2.546 . S
Tb881 O921 2.610 . S
Tb881 O923 2.320 . S
Tb881 O924 2.552 . S
Tb881 O925 2.413 . S
Tb881 C945 2.833 . S
N882 C874 1.360 . S
N882 Tb881 2.660 . S
N882 C883 1.305 . S
C883 N882 1.305 . S
C883 C885 1.407 . S
C883 H890 0.930 . S
C884 C872 1.410 . S
C884 C885 1.345 . S
C884 H892 0.930 . S
C885 C883 1.407 . S
C885 C884 1.345 . S
C885 H887 0.930 . S
H886 C879 0.930 . S
H887 C885 0.930 . S
H888 C876 0.930 . S
H889 C877 0.931 . S
H890 C883 0.930 . S
H891 C905 0.930 . S
H892 C884 0.930 . S
H893 C911 0.930 . S
H894 C902 0.930 . S
H895 C909 0.931 . S
H896 C873 0.929 . S
H897 C903 0.930 1_455 S
H898 C936 0.930 1_455 S
H899 C880 0.930 . S
H900 C935 0.929 . S
N901 Tb870 2.660 . S
N901 C902 1.305 . S
N901 C906 1.360 . S
C902 H894 0.930 . S
C902 N901 1.305 . S
C902 C905 1.407 . S
C903 H897 0.930 1_655 S
C903 C904 1.410 . S
C903 C905 1.345 . S
C904 C903 1.410 . S
C904 C906 1.417 . S
C904 C936 1.432 . S
C905 H891 0.930 . S
C905 C902 1.407 . S
C905 C903 1.345 . S
C906 N901 1.360 . S
C906 C904 1.417 . S
C906 C910 1.432 . S
H907 C912 0.930 . S
N908 Tb870 2.600 . S
N908 C910 1.359 . S
N908 C911 1.327 . S
C909 H895 0.931 . S
C909 C911 1.392 . S
C909 C912 1.370 . S
C910 C906 1.432 . S
C910 N908 1.359 . S
C910 C913 1.414 . S
C911 H893 0.930 . S
C911 N908 1.327 . S
C911 C909 1.392 . S
C912 H907 0.930 . S
C912 C909 1.370 . S
C912 C913 1.385 . S
C913 C910 1.414 . S
C913 C912 1.385 . S
C913 C935 1.444 . S
O914 Tb870 2.546 . S
O914 C934 1.251 . S
O915 Tb870 2.610 . S
O915 Tb881 2.362 . S
O915 C926 1.283 . S
O916 Tb881 2.421 . S
O916 C933 1.262 . S
O917 Tb870 2.320 . S
O917 C933 1.260 . S
O918 Tb870 2.552 . S
O918 C926 1.243 . S
O919 Tb870 2.413 . S
O919 C934 1.256 . S
O920 Tb881 2.546 . S
O920 C945 1.251 . S
O921 Tb870 2.362 . S
O921 Tb881 2.610 . S
O921 C937 1.283 . S
O922 Tb870 2.421 . S
O922 C944 1.262 . S
O923 Tb881 2.320 . S
O923 C944 1.260 . S
O924 Tb881 2.552 . S
O924 C937 1.243 . S
O925 Tb881 2.413 . S
O925 C945 1.256 . S
C926 O915 1.283 . S
C926 O918 1.243 . S
C927 C929 1.382 . S
C927 C931 1.393 . S
C927 C934 1.500 . S
C928 C929 1.400 . S
C928 C930 1.384 . S
C929 C927 1.382 . S
C929 C928 1.400 . S
C929 H946 0.930 . S
C930 C928 1.384 . S
C930 C932 1.392 . S
C930 H947 0.931 . S
C931 C927 1.393 . S
C931 C932 1.401 . S
C931 H948 0.930 . S
C932 C930 1.392 . S
C932 C931 1.401 . S
C932 H949 0.930 . S
C933 O916 1.262 . S
C933 O917 1.260 . S
C934 Tb870 2.833 . S
C934 O914 1.251 . S
C934 O919 1.256 . S
C934 C927 1.500 . S
C935 H900 0.929 . S
C935 C913 1.444 . S
C935 C936 1.317 . S
C936 H898 0.930 1_655 S
C936 C904 1.432 . S
C936 C935 1.317 . S
C937 O921 1.283 . S
C937 O924 1.243 . S
C938 C939 1.382 . S
C938 C942 1.393 . S
C938 C945 1.500 . S
C939 C938 1.382 . S
C939 C940 1.400 . S
C939 H950 0.930 . S
C940 C939 1.400 . S
C940 C941 1.384 . S
C941 C940 1.384 . S
C941 C943 1.392 . S
C941 H951 0.931 . S
C942 C938 1.393 . S
C942 C943 1.401 . S
C942 H952 0.930 . S
C943 C941 1.392 . S
C943 C942 1.401 . S
C943 H953 0.930 . S
C944 O922 1.262 . S
C944 O923 1.260 . S
C945 Tb881 2.833 . S
C945 O920 1.251 . S
C945 O925 1.256 . S
C945 C938 1.500 . S
H946 C929 0.930 . S
H947 C930 0.931 . S
H948 C931 0.930 . S
H949 C932 0.930 . S
H950 C939 0.930 . S
H951 C941 0.931 . S
H952 C942 0.930 . S
H953 C943 0.930 . S
H954 C966 0.930 . S
H955 C968 0.930 . S
H956 C969 0.930 . S
H957 C973 0.959 . S
H958 C973 0.959 . S
H959 C973 0.961 . S
H960 C974 0.959 1_556 S
H961 C974 0.961 1_556 S
H962 C974 0.959 . S
H963 C977 0.929 . S
H964 C978 0.931 . S
H965 C980 0.930 . S
C966 H954 0.930 . S
C966 C967 1.399 . S
C966 C971 1.399 . S
C967 C966 1.399 . S
C967 C968 1.376 . S
C968 H955 0.930 . S
C968 C967 1.376 . S
C968 C969 1.388 . S
C969 H956 0.930 . S
C969 C968 1.388 . S
C969 C970 1.390 . S
C970 C969 1.390 . S
C970 C971 1.394 . S
C970 C976 1.465 . S
C971 C966 1.399 . S
C971 C970 1.394 . S
C971 C972 1.516 . S
C972 C971 1.516 . S
C972 C973 1.502 . S
C972 C974 1.561 . S
C972 C975 1.526 . S
C973 H957 0.959 . S
C973 H958 0.959 . S
C973 H959 0.961 . S
C973 C972 1.502 . S
C974 H960 0.959 1_554 S
C974 H961 0.961 1_554 S
C974 H962 0.959 . S
C974 C972 1.561 . S
C975 C972 1.526 . S
C975 C976 1.396 . S
C975 C980 1.390 . S
C976 C970 1.465 . S
C976 C975 1.396 . S
C976 C977 1.399 . S
C977 H963 0.929 . S
C977 C976 1.399 . S
C977 C978 1.385 . S
C978 H964 0.931 . S
C978 C977 1.385 . S
C978 C979 1.389 . S
C979 C978 1.389 . S
C979 C980 1.387 . S
C980 H965 0.930 . S
C980 C975 1.390 . S
C980 C979 1.387 . S
H981 C993 0.930 . S
H982 C995 0.930 . S
H983 C996 0.930 . S
H984 C1000 0.959 . S
H985 C1000 0.959 . S
H986 C1000 0.961 . S
H987 C1001 0.960 . S
H988 C1001 0.961 . S
H989 C1001 0.959 . S
H990 C1004 0.929 . S
H991 C1005 0.931 . S
H992 C1007 0.930 . S
C993 H981 0.930 . S
C993 C994 1.399 . S
C993 C998 1.399 . S
C994 C993 1.399 . S
C994 C995 1.376 . S
C995 H982 0.930 . S
C995 C994 1.376 . S
C995 C996 1.388 . S
C996 H983 0.930 . S
C996 C995 1.388 . S
C996 C997 1.390 . S
C997 C996 1.390 . S
C997 C998 1.394 . S
C997 C1003 1.465 . S
C998 C993 1.399 . S
C998 C997 1.394 . S
C998 C999 1.516 . S
C999 C998 1.516 . S
C999 C1000 1.502 . S
C999 C1001 1.561 . S
C999 C1002 1.526 . S
C1000 H984 0.959 . S
C1000 H985 0.959 . S
C1000 H986 0.961 . S
C1000 C999 1.502 . S
C1001 H987 0.960 . S
C1001 H988 0.961 . S
C1001 H989 0.959 . S
C1001 C999 1.561 . S
C1002 C999 1.526 . S
C1002 C1003 1.396 . S
C1002 C1007 1.390 . S
C1003 C997 1.465 . S
C1003 C1002 1.396 . S
C1003 C1004 1.399 . S
C1004 H990 0.929 . S
C1004 C1003 1.399 . S
C1004 C1005 1.385 . S
C1005 H991 0.931 . S
C1005 C1004 1.385 . S
C1005 C1006 1.389 . S
C1006 C1005 1.389 . S
C1006 C1007 1.387 . S
C1007 H992 0.930 . S
C1007 C1002 1.390 . S
C1007 C1006 1.387 . S
H1008 C1020 0.930 . S
H1009 C1022 0.930 . S
H1010 C1023 0.930 . S
H1011 C1027 0.959 . S
H1012 C1027 0.959 . S
H1013 C1027 0.961 . S
H1014 C1028 0.960 . S
H1015 C1028 0.961 . S
H1016 C1028 0.959 . S
H1017 C1031 0.929 . S
H1018 C1032 0.931 . S
H1019 C1034 0.930 . S
C1020 H1008 0.930 . S
C1020 C1021 1.399 . S
C1020 C1025 1.399 . S
C1021 C1020 1.399 . S
C1021 C1022 1.376 . S
C1022 H1009 0.930 . S
C1022 C1021 1.376 . S
C1022 C1023 1.388 . S
C1023 H1010 0.930 . S
C1023 C1022 1.388 . S
C1023 C1024 1.390 . S
C1024 C1023 1.390 . S
C1024 C1025 1.394 . S
C1024 C1030 1.465 . S
C1025 C1020 1.399 . S
C1025 C1024 1.394 . S
C1025 C1026 1.516 . S
C1026 C1025 1.516 . S
C1026 C1027 1.502 . S
C1026 C1028 1.561 . S
C1026 C1029 1.526 . S
C1027 H1011 0.959 . S
C1027 H1012 0.959 . S
C1027 H1013 0.961 . S
C1027 C1026 1.502 . S
C1028 H1014 0.960 . S
C1028 H1015 0.961 . S
C1028 H1016 0.959 . S
C1028 C1026 1.561 . S
C1029 C1026 1.526 . S
C1029 C1030 1.396 . S
C1029 C1034 1.390 . S
C1030 C1024 1.465 . S
C1030 C1029 1.396 . S
C1030 C1031 1.399 . S
C1031 H1017 0.929 . S
C1031 C1030 1.399 . S
C1031 C1032 1.385 . S
C1032 H1018 0.931 . S
C1032 C1031 1.385 . S
C1032 C1033 1.389 . S
C1033 C1032 1.389 . S
C1033 C1034 1.387 . S
C1034 H1019 0.930 . S
C1034 C1029 1.390 . S
C1034 C1033 1.387 . S
H1035 C1047 0.930 . S
H1036 C1049 0.930 . S
H1037 C1050 0.930 1_554 S
H1038 C1054 0.959 . S
H1039 C1054 0.959 . S
H1040 C1054 0.961 . S
H1041 C1055 0.960 . S
H1042 C1055 0.961 . S
H1043 C1055 0.959 . S
H1044 C1058 0.929 . S
H1045 C1059 0.931 . S
H1046 C1061 0.930 . S
C1047 H1035 0.930 . S
C1047 C1048 1.399 . S
C1047 C1052 1.399 . S
C1048 C1047 1.399 . S
C1048 C1049 1.376 . S
C1049 H1036 0.930 . S
C1049 C1048 1.376 . S
C1049 C1050 1.388 . S
C1050 H1037 0.930 1_556 S
C1050 C1049 1.388 . S
C1050 C1051 1.390 . S
C1051 C1050 1.390 . S
C1051 C1052 1.394 . S
C1051 C1057 1.465 . S
C1052 C1047 1.399 . S
C1052 C1051 1.394 . S
C1052 C1053 1.516 . S
C1053 C1052 1.516 . S
C1053 C1054 1.502 . S
C1053 C1055 1.561 . S
C1053 C1056 1.526 . S
C1054 H1038 0.959 . S
C1054 H1039 0.959 . S
C1054 H1040 0.961 . S
C1054 C1053 1.502 . S
C1055 H1041 0.960 . S
C1055 H1042 0.961 . S
C1055 H1043 0.959 . S
C1055 C1053 1.561 . S
C1056 C1053 1.526 . S
C1056 C1057 1.396 . S
C1056 C1061 1.390 . S
C1057 C1051 1.465 . S
C1057 C1056 1.396 . S
C1057 C1058 1.399 1_556 S
C1058 H1044 0.929 . S
C1058 C1057 1.399 1_554 S
C1058 C1059 1.385 . S
C1059 H1045 0.931 . S
C1059 C1058 1.385 . S
C1059 C1060 1.389 1_554 S
C1060 C1059 1.389 1_556 S
C1060 C1061 1.387 . S
C1061 H1046 0.930 . S
C1061 C1056 1.390 . S
C1061 C1060 1.387 . S
H1062 C1074 0.930 . S
H1063 C1076 0.930 . S
H1064 C1077 0.930 1_554 S
H1065 C1081 0.959 . S
H1066 C1081 0.959 . S
H1067 C1081 0.961 . S
H1068 C1082 0.960 . S
H1069 C1082 0.961 . S
H1070 C1082 0.959 . S
H1071 C1085 0.929 . S
H1072 C1086 0.931 . S
H1073 C1088 0.930 . S
C1074 H1062 0.930 . S
C1074 C1075 1.399 . S
C1074 C1079 1.399 . S
C1075 C1074 1.399 . S
C1075 C1076 1.376 . S
C1076 H1063 0.930 . S
C1076 C1075 1.376 . S
C1076 C1077 1.388 . S
C1077 H1064 0.930 1_556 S
C1077 C1076 1.388 . S
C1077 C1078 1.390 . S
C1078 C1077 1.390 . S
C1078 C1079 1.394 . S
C1078 C1084 1.465 . S
C1079 C1074 1.399 . S
C1079 C1078 1.394 . S
C1079 C1080 1.516 . S
C1080 C1079 1.516 . S
C1080 C1081 1.502 . S
C1080 C1082 1.561 . S
C1080 C1083 1.526 . S
C1081 H1065 0.959 . S
C1081 H1066 0.959 . S
C1081 H1067 0.961 . S
C1081 C1080 1.502 . S
C1082 H1068 0.960 . S
C1082 H1069 0.961 . S
C1082 H1070 0.959 . S
C1082 C1080 1.561 . S
C1083 C1080 1.526 . S
C1083 C1084 1.396 . S
C1083 C1088 1.390 . S
C1084 C1078 1.465 . S
C1084 C1083 1.396 . S
C1084 C1085 1.399 1_556 S
C1085 H1071 0.929 . S
C1085 C1084 1.399 1_554 S
C1085 C1086 1.385 . S
C1086 H1072 0.931 . S
C1086 C1085 1.385 . S
C1086 C1087 1.389 1_554 S
C1087 C1086 1.389 1_556 S
C1087 C1088 1.387 . S
C1088 H1073 0.930 . S
C1088 C1083 1.390 . S
C1088 C1087 1.387 . S
H1089 C1101 0.930 . S
H1090 C1103 0.930 . S
H1091 C1104 0.930 . S
H1092 C1108 0.959 . S
H1093 C1108 0.959 . S
H1094 C1108 0.961 . S
H1095 C1109 0.960 . S
H1096 C1109 0.961 . S
H1097 C1109 0.959 . S
H1098 C1112 0.929 . S
H1099 C1113 0.931 . S
H1100 C1115 0.929 . S
C1101 H1089 0.930 . S
C1101 C1102 1.399 . S
C1101 C1106 1.399 . S
C1102 C1101 1.399 . S
C1102 C1103 1.376 . S
C1103 H1090 0.930 . S
C1103 C1102 1.376 . S
C1103 C1104 1.388 . S
C1104 H1091 0.930 . S
C1104 C1103 1.388 . S
C1104 C1105 1.390 . S
C1105 C1104 1.390 . S
C1105 C1106 1.394 . S
C1105 C1111 1.465 . S
C1106 C1101 1.399 . S
C1106 C1105 1.394 . S
C1106 C1107 1.516 . S
C1107 C1106 1.516 . S
C1107 C1108 1.502 1_556 S
C1107 C1109 1.561 . S
C1107 C1110 1.526 . S
C1108 H1092 0.959 . S
C1108 H1093 0.959 . S
C1108 H1094 0.961 . S
C1108 C1107 1.502 1_554 S
C1109 H1095 0.960 . S
C1109 H1096 0.961 . S
C1109 H1097 0.959 . S
C1109 C1107 1.561 . S
C1110 C1107 1.526 . S
C1110 C1111 1.396 . S
C1110 C1115 1.390 1_556 S
C1111 C1105 1.465 . S
C1111 C1110 1.396 . S
C1111 C1112 1.399 . S
C1112 H1098 0.929 . S
C1112 C1111 1.399 . S
C1112 C1113 1.385 . S
C1113 H1099 0.931 . S
C1113 C1112 1.385 . S
C1113 C1114 1.389 . S
C1114 C1113 1.389 . S
C1114 C1115 1.387 1_556 S
C1115 H1100 0.929 . S
C1115 C1110 1.390 1_554 S
C1115 C1114 1.387 1_554 S
H1116 C1128 0.930 . S
H1117 C1130 0.930 . S
H1118 C1131 0.930 . S
H1119 C1135 0.959 . S
H1120 C1135 0.959 . S
H1121 C1135 0.961 . S
H1122 C1136 0.960 . S
H1123 C1136 0.961 . S
H1124 C1136 0.959 . S
H1125 C1139 0.929 . S
H1126 C1140 0.931 1_554 S
H1127 C1142 0.930 . S
C1128 H1116 0.930 . S
C1128 C1129 1.399 . S
C1128 C1133 1.399 . S
C1129 C1128 1.399 . S
C1129 C1130 1.376 . S
C1130 H1117 0.930 . S
C1130 C1129 1.376 . S
C1130 C1131 1.388 . S
C1131 H1118 0.930 . S
C1131 C1130 1.388 . S
C1131 C1132 1.390 . S
C1132 C1131 1.390 . S
C1132 C1133 1.394 . S
C1132 C1138 1.465 . S
C1133 C1128 1.399 . S
C1133 C1132 1.394 . S
C1133 C1134 1.516 . S
C1134 C1133 1.516 . S
C1134 C1135 1.502 . S
C1134 C1136 1.561 . S
C1134 C1137 1.526 . S
C1135 H1119 0.959 . S
C1135 H1120 0.959 . S
C1135 H1121 0.961 . S
C1135 C1134 1.502 . S
C1136 H1122 0.960 . S
C1136 H1123 0.961 . S
C1136 H1124 0.959 . S
C1136 C1134 1.561 . S
C1137 C1134 1.526 . S
C1137 C1138 1.396 . S
C1137 C1142 1.390 . S
C1138 C1132 1.465 . S
C1138 C1137 1.396 . S
C1138 C1139 1.399 . S
C1139 H1125 0.929 . S
C1139 C1138 1.399 . S
C1139 C1140 1.385 . S
C1140 H1126 0.931 1_556 S
C1140 C1139 1.385 . S
C1140 C1141 1.389 . S
C1141 C1140 1.389 . S
C1141 C1142 1.387 . S
C1142 H1127 0.930 . S
C1142 C1137 1.390 . S
C1142 C1141 1.387 . S
H1143 C1155 0.930 . S
H1144 C1157 0.930 . S
H1145 C1158 0.930 . S
H1146 C1162 0.957 . S
H1147 C1162 0.961 1_554 S
H1148 C1162 0.961 1_554 S
H1149 C1163 0.960 . S
H1150 C1163 0.961 . S
H1151 C1163 0.959 . S
H1152 C1166 0.929 . S
H1153 C1167 0.931 . S
H1154 C1169 0.929 . S
C1155 H1143 0.930 . S
C1155 C1156 1.399 . S
C1155 C1160 1.399 . S
C1156 C1155 1.399 . S
C1156 C1157 1.376 . S
C1157 H1144 0.930 . S
C1157 C1156 1.376 . S
C1157 C1158 1.388 . S
C1158 H1145 0.930 . S
C1158 C1157 1.388 . S
C1158 C1159 1.390 . S
C1159 C1158 1.390 . S
C1159 C1160 1.394 . S
C1159 C1165 1.465 . S
C1160 C1155 1.399 . S
C1160 C1159 1.394 . S
C1160 C1161 1.516 . S
C1161 C1160 1.516 . S
C1161 C1162 1.502 . S
C1161 C1163 1.561 1_556 S
C1161 C1164 1.526 . S
C1162 H1146 0.957 . S
C1162 H1147 0.961 1_556 S
C1162 H1148 0.961 1_556 S
C1162 C1161 1.502 . S
C1163 H1149 0.960 . S
C1163 H1150 0.961 . S
C1163 H1151 0.959 . S
C1163 C1161 1.561 1_554 S
C1164 C1161 1.526 . S
C1164 C1165 1.396 . S
C1164 C1169 1.390 1_556 S
C1165 C1159 1.465 . S
C1165 C1164 1.396 . S
C1165 C1166 1.399 . S
C1166 H1152 0.929 . S
C1166 C1165 1.399 . S
C1166 C1167 1.385 . S
C1167 H1153 0.931 . S
C1167 C1166 1.385 . S
C1167 C1168 1.389 . S
C1168 C1167 1.389 . S
C1168 C1169 1.387 1_556 S
C1169 H1154 0.929 . S
C1169 C1164 1.390 1_554 S
C1169 C1168 1.387 1_554 S
H1170 C1182 0.930 . S
H1171 C1184 0.912 1_554 S
H1172 C1185 0.930 . S
H1173 C1189 0.959 . S
H1174 C1189 0.959 . S
H1175 C1189 0.961 . S
H1176 C1190 0.960 . S
H1177 C1190 0.961 . S
H1178 C1190 0.959 . S
H1179 C1193 0.929 . S
H1180 C1194 0.931 . S
H1181 C1196 0.930 . S
C1182 H1170 0.930 . S
C1182 C1183 1.399 . S
C1182 C1187 1.399 . S
C1183 C1182 1.399 . S
C1183 C1184 1.376 . S
C1184 H1171 0.912 1_556 S
C1184 C1183 1.376 . S
C1184 C1185 1.388 1_556 S
C1185 H1172 0.930 . S
C1185 C1184 1.388 1_554 S
C1185 C1186 1.390 1_554 S
C1186 C1185 1.390 1_556 S
C1186 C1187 1.394 . S
C1186 C1192 1.465 . S
C1187 C1182 1.399 . S
C1187 C1186 1.394 . S
C1187 C1188 1.516 . S
C1188 C1187 1.516 . S
C1188 C1189 1.502 . S
C1188 C1190 1.561 . S
C1188 C1191 1.526 . S
C1189 H1173 0.959 . S
C1189 H1174 0.959 . S
C1189 H1175 0.961 . S
C1189 C1188 1.502 . S
C1190 H1176 0.960 . S
C1190 H1177 0.961 . S
C1190 H1178 0.959 . S
C1190 C1188 1.561 . S
C1191 C1188 1.526 . S
C1191 C1192 1.396 . S
C1191 C1196 1.390 . S
C1192 C1186 1.465 . S
C1192 C1191 1.396 . S
C1192 C1193 1.399 1_556 S
C1193 H1179 0.929 . S
C1193 C1192 1.399 1_554 S
C1193 C1194 1.385 . S
C1194 H1180 0.931 . S
C1194 C1193 1.385 . S
C1194 C1195 1.389 1_554 S
C1195 C1194 1.389 1_556 S
C1195 C1196 1.387 . S
C1196 H1181 0.930 . S
C1196 C1191 1.390 . S
C1196 C1195 1.387 . S
H1197 C1209 0.930 . S
H1198 C1211 0.930 . S
H1199 C1212 0.930 . S
H1200 C1216 0.959 . S
H1201 C1216 0.959 . S
H1202 C1216 0.961 . S
H1203 C1217 0.960 . S
H1204 C1217 0.961 . S
H1205 C1217 0.959 . S
H1206 C1220 0.929 . S
H1207 C1221 0.931 . S
H1208 C1223 0.930 . S
C1209 H1197 0.930 . S
C1209 C1210 1.399 . S
C1209 C1214 1.399 . S
C1210 C1209 1.399 . S
C1210 C1211 1.376 . S
C1211 H1198 0.930 . S
C1211 C1210 1.376 . S
C1211 C1212 1.388 . S
C1212 H1199 0.930 . S
C1212 C1211 1.388 . S
C1212 C1213 1.390 . S
C1213 C1212 1.390 . S
C1213 C1214 1.394 . S
C1213 C1219 1.465 . S
C1214 C1209 1.399 . S
C1214 C1213 1.394 . S
C1214 C1215 1.516 . S
C1215 C1214 1.516 . S
C1215 C1216 1.502 . S
C1215 C1217 1.561 . S
C1215 C1218 1.526 . S
C1216 H1200 0.959 . S
C1216 H1201 0.959 . S
C1216 H1202 0.961 . S
C1216 C1215 1.502 . S
C1217 H1203 0.960 . S
C1217 H1204 0.961 . S
C1217 H1205 0.959 . S
C1217 C1215 1.561 . S
C1218 C1215 1.526 . S
C1218 C1219 1.396 . S
C1218 C1223 1.390 . S
C1219 C1213 1.465 . S
C1219 C1218 1.396 . S
C1219 C1220 1.399 . S
C1220 H1206 0.929 . S
C1220 C1219 1.399 . S
C1220 C1221 1.385 . S
C1221 H1207 0.931 . S
C1221 C1220 1.385 . S
C1221 C1222 1.389 . S
C1222 C1221 1.389 . S
C1222 C1223 1.387 . S
C1223 H1208 0.930 . S
C1223 C1218 1.390 . S
C1223 C1222 1.387 . S
H1224 C1236 0.930 . S
H1225 C1238 0.930 . S
H1226 C1239 0.930 . S
H1227 C1243 0.959 . S
H1228 C1243 0.959 . S
H1229 C1243 0.961 . S
H1230 C1244 0.960 . S
H1231 C1244 0.961 . S
H1232 C1244 0.959 . S
H1233 C1247 0.929 . S
H1234 C1248 0.931 . S
H1235 C1250 0.930 . S
C1236 H1224 0.930 . S
C1236 C1237 1.399 . S
C1236 C1241 1.399 . S
C1237 C1236 1.399 . S
C1237 C1238 1.376 . S
C1238 H1225 0.930 . S
C1238 C1237 1.376 . S
C1238 C1239 1.388 . S
C1239 H1226 0.930 . S
C1239 C1238 1.388 . S
C1239 C1240 1.390 . S
C1240 C1239 1.390 . S
C1240 C1241 1.394 . S
C1240 C1246 1.465 . S
C1241 C1236 1.399 . S
C1241 C1240 1.394 . S
C1241 C1242 1.516 . S
C1242 C1241 1.516 . S
C1242 C1243 1.502 . S
C1242 C1244 1.561 . S
C1242 C1245 1.526 . S
C1243 H1227 0.959 . S
C1243 H1228 0.959 . S
C1243 H1229 0.961 . S
C1243 C1242 1.502 . S
C1244 H1230 0.960 . S
C1244 H1231 0.961 . S
C1244 H1232 0.959 . S
C1244 C1242 1.561 . S
C1245 C1242 1.526 . S
C1245 C1246 1.396 . S
C1245 C1250 1.390 . S
C1246 C1240 1.465 . S
C1246 C1245 1.396 . S
C1246 C1247 1.399 . S
C1247 H1233 0.929 . S
C1247 C1246 1.399 . S
C1247 C1248 1.385 . S
C1248 H1234 0.931 . S
C1248 C1247 1.385 . S
C1248 C1249 1.389 . S
C1249 C1248 1.389 . S
C1249 C1250 1.387 . S
C1250 H1235 0.930 . S
C1250 C1245 1.390 . S
C1250 C1249 1.387 . S
H1251 C1263 0.930 . S
H1252 C1265 0.930 . S
H1253 C1266 0.930 . S
H1254 C1270 0.959 . S
H1255 C1270 0.959 1_556 S
H1256 C1270 0.969 . S
H1257 C1271 0.960 . S
H1258 C1271 0.961 . S
H1259 C1271 0.959 1_554 S
H1260 C1274 0.929 . S
H1261 C1275 0.931 . S
H1262 C1277 0.930 . S
C1263 H1251 0.930 . S
C1263 C1264 1.399 . S
C1263 C1268 1.399 . S
C1264 C1263 1.399 . S
C1264 C1265 1.376 . S
C1265 H1252 0.930 . S
C1265 C1264 1.376 . S
C1265 C1266 1.388 . S
C1266 H1253 0.930 . S
C1266 C1265 1.388 . S
C1266 C1267 1.390 . S
C1267 C1266 1.390 . S
C1267 C1268 1.394 . S
C1267 C1273 1.465 . S
C1268 C1263 1.399 . S
C1268 C1267 1.394 . S
C1268 C1269 1.516 . S
C1269 C1268 1.516 . S
C1269 C1270 1.502 . S
C1269 C1271 1.561 1_554 S
C1269 C1272 1.526 . S
C1270 H1254 0.959 . S
C1270 H1255 0.959 1_554 S
C1270 H1256 0.969 . S
C1270 C1269 1.502 . S
C1271 H1257 0.960 . S
C1271 H1258 0.961 . S
C1271 H1259 0.959 1_556 S
C1271 C1269 1.561 1_556 S
C1272 C1269 1.526 . S
C1272 C1273 1.396 . S
C1272 C1277 1.390 . S
C1273 C1267 1.465 . S
C1273 C1272 1.396 . S
C1273 C1274 1.399 . S
C1274 H1260 0.929 . S
C1274 C1273 1.399 . S
C1274 C1275 1.385 . S
C1275 H1261 0.931 . S
C1275 C1274 1.385 . S
C1275 C1276 1.389 . S
C1276 C1275 1.389 . S
C1276 C1277 1.387 . S
C1277 H1262 0.930 . S
C1277 C1272 1.390 . S
C1277 C1276 1.387 . S
H1278 C1290 0.930 . S
H1279 C1292 0.930 . S
H1280 C1293 0.930 . S
H1281 C1297 0.959 . S
H1282 C1297 0.959 . S
H1283 C1297 0.961 1_655 S
H1284 C1298 0.960 . S
H1285 C1298 0.961 . S
H1286 C1298 0.959 . S
H1287 C1301 0.929 . S
H1288 C1302 0.931 . S
H1289 C1304 0.930 . S
C1290 H1278 0.930 . S
C1290 C1291 1.399 . S
C1290 C1295 1.399 . S
C1291 C1290 1.399 . S
C1291 C1292 1.376 . S
C1292 H1279 0.930 . S
C1292 C1291 1.376 . S
C1292 C1293 1.388 . S
C1293 H1280 0.930 . S
C1293 C1292 1.388 . S
C1293 C1294 1.390 . S
C1294 C1293 1.390 . S
C1294 C1295 1.394 . S
C1294 C1300 1.465 1_655 S
C1295 C1290 1.399 . S
C1295 C1294 1.394 . S
C1295 C1296 1.516 1_655 S
C1296 C1295 1.516 1_455 S
C1296 C1297 1.502 . S
C1296 C1298 1.561 1_455 S
C1296 C1299 1.526 . S
C1297 H1281 0.959 . S
C1297 H1282 0.959 . S
C1297 H1283 0.961 1_455 S
C1297 C1296 1.502 . S
C1298 H1284 0.960 . S
C1298 H1285 0.961 . S
C1298 H1286 0.959 . S
C1298 C1296 1.561 1_655 S
C1299 C1296 1.526 . S
C1299 C1300 1.396 . S
C1299 C1304 1.390 . S
C1300 C1294 1.465 1_455 S
C1300 C1299 1.396 . S
C1300 C1301 1.399 . S
C1301 H1287 0.929 . S
C1301 C1300 1.399 . S
C1301 C1302 1.385 . S
C1302 H1288 0.931 . S
C1302 C1301 1.385 . S
C1302 C1303 1.389 . S
C1303 C1302 1.389 . S
C1303 C1304 1.387 . S
C1304 H1289 0.930 . S
C1304 C1299 1.390 . S
C1304 C1303 1.387 . S
H1305 C1317 0.930 . S
H1306 C1319 0.930 . S
H1307 C1320 0.930 . S
H1308 C1324 0.959 . S
H1309 C1324 0.959 . S
H1310 C1324 0.961 . S
H1311 C1325 0.960 . S
H1312 C1325 0.961 . S
H1313 C1325 0.959 . S
H1314 C1328 0.929 . S
H1315 C1329 0.931 . S
H1316 C1331 0.930 . S
C1317 H1305 0.930 . S
C1317 C1318 1.399 . S
C1317 C1322 1.399 . S
C1318 C1317 1.399 . S
C1318 C1319 1.376 . S
C1319 H1306 0.930 . S
C1319 C1318 1.376 . S
C1319 C1320 1.388 . S
C1320 H1307 0.930 . S
C1320 C1319 1.388 . S
C1320 C1321 1.390 . S
C1321 C1320 1.390 . S
C1321 C1322 1.394 . S
C1321 C1327 1.465 . S
C1322 C1317 1.399 . S
C1322 C1321 1.394 . S
C1322 C1323 1.516 . S
C1323 C1322 1.516 . S
C1323 C1324 1.502 . S
C1323 C1325 1.561 . S
C1323 C1326 1.526 . S
C1324 H1308 0.959 . S
C1324 H1309 0.959 . S
C1324 H1310 0.961 . S
C1324 C1323 1.502 . S
C1325 H1311 0.960 . S
C1325 H1312 0.961 . S
C1325 H1313 0.959 . S
C1325 C1323 1.561 . S
C1326 C1323 1.526 . S
C1326 C1327 1.396 . S
C1326 C1331 1.390 . S
C1327 C1321 1.465 . S
C1327 C1326 1.396 . S
C1327 C1328 1.399 . S
C1328 H1314 0.929 . S
C1328 C1327 1.399 . S
C1328 C1329 1.385 . S
C1329 H1315 0.931 . S
C1329 C1328 1.385 . S
C1329 C1330 1.389 . S
C1330 C1329 1.389 . S
C1330 C1331 1.387 . S
C1331 H1316 0.930 . S
C1331 C1326 1.390 . S
C1331 C1330 1.387 . S
H1332 C1344 0.930 . S
H1333 C1346 0.930 . S
H1334 C1347 0.930 . S
H1335 C1351 0.959 1_565 S
H1336 C1351 0.958 1_565 S
H1337 C1351 0.961 . S
H1338 C1352 0.960 . S
H1339 C1352 0.961 . S
H1340 C1352 0.959 . S
H1341 C1355 0.929 . S
H1342 C1356 0.931 . S
H1343 C1358 0.930 . S
C1344 H1332 0.930 . S
C1344 C1345 1.399 . S
C1344 C1349 1.399 . S
C1345 C1344 1.399 . S
C1345 C1346 1.376 . S
C1346 H1333 0.930 . S
C1346 C1345 1.376 . S
C1346 C1347 1.388 . S
C1347 H1334 0.930 . S
C1347 C1346 1.388 . S
C1347 C1348 1.390 . S
C1348 C1347 1.390 . S
C1348 C1349 1.394 . S
C1348 C1354 1.465 1_545 S
C1349 C1344 1.399 . S
C1349 C1348 1.394 . S
C1349 C1350 1.516 . S
C1350 C1349 1.516 . S
C1350 C1351 1.502 . S
C1350 C1352 1.561 . S
C1350 C1353 1.526 1_545 S
C1351 H1335 0.959 1_545 S
C1351 H1336 0.958 1_545 S
C1351 H1337 0.961 . S
C1351 C1350 1.502 . S
C1352 H1338 0.960 . S
C1352 H1339 0.961 . S
C1352 H1340 0.959 . S
C1352 C1350 1.561 . S
C1353 C1350 1.526 1_565 S
C1353 C1354 1.396 . S
C1353 C1358 1.390 . S
C1354 C1348 1.465 1_565 S
C1354 C1353 1.396 . S
C1354 C1355 1.399 . S
C1355 H1341 0.929 . S
C1355 C1354 1.399 . S
C1355 C1356 1.385 . S
C1356 H1342 0.931 . S
C1356 C1355 1.385 . S
C1356 C1357 1.389 . S
C1357 C1356 1.389 . S
C1357 C1358 1.387 . S
C1358 H1343 0.930 . S
C1358 C1353 1.390 . S
C1358 C1357 1.387 . S
H1359 C1371 0.930 . S
H1360 C1373 0.930 . S
H1361 C1374 0.930 . S
H1362 C1378 0.959 . S
H1363 C1378 0.959 . S
H1364 C1378 0.961 . S
H1365 C1379 0.960 . S
H1366 C1379 0.961 . S
H1367 C1379 0.959 . S
H1368 C1382 0.929 . S
H1369 C1383 0.931 . S
H1370 C1385 0.930 . S
C1371 H1359 0.930 . S
C1371 C1372 1.399 . S
C1371 C1376 1.399 . S
C1372 C1371 1.399 . S
C1372 C1373 1.376 . S
C1373 H1360 0.930 . S
C1373 C1372 1.376 . S
C1373 C1374 1.388 . S
C1374 H1361 0.930 . S
C1374 C1373 1.388 . S
C1374 C1375 1.390 . S
C1375 C1374 1.390 . S
C1375 C1376 1.394 . S
C1375 C1381 1.465 . S
C1376 C1371 1.399 . S
C1376 C1375 1.394 . S
C1376 C1377 1.516 . S
C1377 C1376 1.516 . S
C1377 C1378 1.502 . S
C1377 C1379 1.561 . S
C1377 C1380 1.526 . S
C1378 H1362 0.959 . S
C1378 H1363 0.959 . S
C1378 H1364 0.961 . S
C1378 C1377 1.502 . S
C1379 H1365 0.960 . S
C1379 H1366 0.961 . S
C1379 H1367 0.959 . S
C1379 C1377 1.561 . S
C1380 C1377 1.526 . S
C1380 C1381 1.396 . S
C1380 C1385 1.390 . S
C1381 C1375 1.465 . S
C1381 C1380 1.396 . S
C1381 C1382 1.399 . S
C1382 H1368 0.929 . S
C1382 C1381 1.399 . S
C1382 C1383 1.385 . S
C1383 H1369 0.931 . S
C1383 C1382 1.385 . S
C1383 C1384 1.389 . S
C1384 C1383 1.389 . S
C1384 C1385 1.387 . S
C1385 H1370 0.930 . S
C1385 C1380 1.390 . S
C1385 C1384 1.387 . S
H1386 C1398 0.930 . S
H1387 C1400 0.930 . S
H1388 C1401 0.930 . S
H1389 C1405 0.959 . S
H1390 C1405 0.959 . S
H1391 C1405 0.961 . S
H1392 C1406 0.960 . S
H1393 C1406 0.961 . S
H1394 C1406 0.959 . S
H1395 C1409 0.929 . S
H1396 C1410 0.931 . S
H1397 C1412 0.930 . S
C1398 H1386 0.930 . S
C1398 C1399 1.399 . S
C1398 C1403 1.399 . S
C1399 C1398 1.399 . S
C1399 C1400 1.376 . S
C1400 H1387 0.930 . S
C1400 C1399 1.376 . S
C1400 C1401 1.388 . S
C1401 H1388 0.930 . S
C1401 C1400 1.388 . S
C1401 C1402 1.390 . S
C1402 C1401 1.390 . S
C1402 C1403 1.394 . S
C1402 C1408 1.465 . S
C1403 C1398 1.399 . S
C1403 C1402 1.394 . S
C1403 C1404 1.516 . S
C1404 C1403 1.516 . S
C1404 C1405 1.502 . S
C1404 C1406 1.561 . S
C1404 C1407 1.526 . S
C1405 H1389 0.959 . S
C1405 H1390 0.959 . S
C1405 H1391 0.961 . S
C1405 C1404 1.502 . S
C1406 H1392 0.960 . S
C1406 H1393 0.961 . S
C1406 H1394 0.959 . S
C1406 C1404 1.561 . S
C1407 C1404 1.526 . S
C1407 C1408 1.396 . S
C1407 C1412 1.390 . S
C1408 C1402 1.465 . S
C1408 C1407 1.396 . S
C1408 C1409 1.399 . S
C1409 H1395 0.929 . S
C1409 C1408 1.399 . S
C1409 C1410 1.385 . S
C1410 H1396 0.931 . S
C1410 C1409 1.385 . S
C1410 C1411 1.389 . S
C1411 C1410 1.389 . S
C1411 C1412 1.387 . S
C1412 H1397 0.930 . S
C1412 C1407 1.390 . S
C1412 C1411 1.387 . S
H1413 C1425 0.930 . S
H1414 C1427 0.930 . S
H1415 C1428 0.930 . S
H1416 C1432 0.959 . S
H1417 C1432 0.959 . S
H1418 C1432 0.961 . S
H1419 C1433 0.960 . S
H1420 C1433 0.961 . S
H1421 C1433 0.959 . S
H1422 C1436 0.929 . S
H1423 C1437 0.931 . S
H1424 C1439 0.930 . S
C1425 H1413 0.930 . S
C1425 C1426 1.399 . S
C1425 C1430 1.399 . S
C1426 C1425 1.399 . S
C1426 C1427 1.376 . S
C1427 H1414 0.930 . S
C1427 C1426 1.376 . S
C1427 C1428 1.388 . S
C1428 H1415 0.930 . S
C1428 C1427 1.388 . S
C1428 C1429 1.390 . S
C1429 C1428 1.390 . S
C1429 C1430 1.394 . S
C1429 C1435 1.465 . S
C1430 C1425 1.399 . S
C1430 C1429 1.394 . S
C1430 C1431 1.516 . S
C1431 C1430 1.516 . S
C1431 C1432 1.502 . S
C1431 C1433 1.561 . S
C1431 C1434 1.526 . S
C1432 H1416 0.959 . S
C1432 H1417 0.959 . S
C1432 H1418 0.961 . S
C1432 C1431 1.502 . S
C1433 H1419 0.960 . S
C1433 H1420 0.961 . S
C1433 H1421 0.959 . S
C1433 C1431 1.561 . S
C1434 C1431 1.526 . S
C1434 C1435 1.396 . S
C1434 C1439 1.390 . S
C1435 C1429 1.465 . S
C1435 C1434 1.396 . S
C1435 C1436 1.399 . S
C1436 H1422 0.929 . S
C1436 C1435 1.399 . S
C1436 C1437 1.385 . S
C1437 H1423 0.931 . S
C1437 C1436 1.385 . S
C1437 C1438 1.389 . S
C1438 C1437 1.389 . S
C1438 C1439 1.387 . S
C1439 H1424 0.930 . S
C1439 C1434 1.390 . S
C1439 C1438 1.387 . S
H1440 C1452 0.930 . S
H1441 C1454 0.930 . S
H1442 C1455 0.930 . S
H1443 C1459 0.959 . S
H1444 C1459 0.959 . S
H1445 C1459 0.961 . S
H1446 C1460 0.960 . S
H1447 C1460 0.961 . S
H1448 C1460 0.959 . S
H1449 C1463 0.929 . S
H1450 C1464 0.931 . S
H1451 C1466 0.930 . S
C1452 H1440 0.930 . S
C1452 C1453 1.399 . S
C1452 C1457 1.399 . S
C1453 C1452 1.399 . S
C1453 C1454 1.376 . S
C1454 H1441 0.930 . S
C1454 C1453 1.376 . S
C1454 C1455 1.388 . S
C1455 H1442 0.930 . S
C1455 C1454 1.388 . S
C1455 C1456 1.390 . S
C1456 C1455 1.390 . S
C1456 C1457 1.394 . S
C1456 C1462 1.465 . S
C1457 C1452 1.399 . S
C1457 C1456 1.394 . S
C1457 C1458 1.516 . S
C1458 C1457 1.516 . S
C1458 C1459 1.502 . S
C1458 C1460 1.561 . S
C1458 C1461 1.526 . S
C1459 H1443 0.959 . S
C1459 H1444 0.959 . S
C1459 H1445 0.961 . S
C1459 C1458 1.502 . S
C1460 H1446 0.960 . S
C1460 H1447 0.961 . S
C1460 H1448 0.959 . S
C1460 C1458 1.561 . S
C1461 C1458 1.526 . S
C1461 C1462 1.396 . S
C1461 C1466 1.390 . S
C1462 C1456 1.465 . S
C1462 C1461 1.396 . S
C1462 C1463 1.399 . S
C1463 H1449 0.929 . S
C1463 C1462 1.399 . S
C1463 C1464 1.385 . S
C1464 H1450 0.931 . S
C1464 C1463 1.385 . S
C1464 C1465 1.389 . S
C1465 C1464 1.389 . S
C1465 C1466 1.387 . S
C1466 H1451 0.930 . S
C1466 C1461 1.390 . S
C1466 C1465 1.387 . S
H1467 C1479 0.930 . S
H1468 C1481 0.930 . S
H1469 C1482 0.930 . S
H1470 C1486 0.959 . S
H1471 C1486 0.959 . S
H1472 C1486 0.961 . S
H1473 C1487 0.960 . S
H1474 C1487 0.961 . S
H1475 C1487 0.959 . S
H1476 C1490 0.929 . S
H1477 C1491 0.931 . S
H1478 C1493 0.930 . S
C1479 H1467 0.930 . S
C1479 C1480 1.399 . S
C1479 C1484 1.399 . S
C1480 C1479 1.399 . S
C1480 C1481 1.376 . S
C1481 H1468 0.930 . S
C1481 C1480 1.376 . S
C1481 C1482 1.388 . S
C1482 H1469 0.930 . S
C1482 C1481 1.388 . S
C1482 C1483 1.390 . S
C1483 C1482 1.390 . S
C1483 C1484 1.394 . S
C1483 C1489 1.465 . S
C1484 C1479 1.399 . S
C1484 C1483 1.394 . S
C1484 C1485 1.516 . S
C1485 C1484 1.516 . S
C1485 C1486 1.502 . S
C1485 C1487 1.561 . S
C1485 C1488 1.526 . S
C1486 H1470 0.959 . S
C1486 H1471 0.959 . S
C1486 H1472 0.961 . S
C1486 C1485 1.502 . S
C1487 H1473 0.960 . S
C1487 H1474 0.961 . S
C1487 H1475 0.959 . S
C1487 C1485 1.561 . S
C1488 C1485 1.526 . S
C1488 C1489 1.396 . S
C1488 C1493 1.390 . S
C1489 C1483 1.465 . S
C1489 C1488 1.396 . S
C1489 C1490 1.399 . S
C1490 H1476 0.929 . S
C1490 C1489 1.399 . S
C1490 C1491 1.385 . S
C1491 H1477 0.931 . S
C1491 C1490 1.385 . S
C1491 C1492 1.389 . S
C1492 C1491 1.389 . S
C1492 C1493 1.387 . S
C1493 H1478 0.930 . S
C1493 C1488 1.390 . S
C1493 C1492 1.387 . S
H1494 C1506 0.930 . S
H1495 C1508 0.930 . S
H1496 C1509 0.930 . S
H1497 C1513 0.959 . S
H1498 C1513 0.959 . S
H1499 C1513 0.961 . S
H1500 C1514 0.960 . S
H1501 C1514 0.961 . S
H1502 C1514 0.959 . S
H1503 C1517 0.929 . S
H1504 C1518 0.931 . S
H1505 C1520 0.930 . S
C1506 H1494 0.930 . S
C1506 C1507 1.399 . S
C1506 C1511 1.399 . S
C1507 C1506 1.399 . S
C1507 C1508 1.376 . S
C1508 H1495 0.930 . S
C1508 C1507 1.376 . S
C1508 C1509 1.388 . S
C1509 H1496 0.930 . S
C1509 C1508 1.388 . S
C1509 C1510 1.390 . S
C1510 C1509 1.390 . S
C1510 C1511 1.394 . S
C1510 C1516 1.465 . S
C1511 C1506 1.399 . S
C1511 C1510 1.394 . S
C1511 C1512 1.516 . S
C1512 C1511 1.516 . S
C1512 C1513 1.502 . S
C1512 C1514 1.561 . S
C1512 C1515 1.526 . S
C1513 H1497 0.959 . S
C1513 H1498 0.959 . S
C1513 H1499 0.961 . S
C1513 C1512 1.502 . S
C1514 H1500 0.960 . S
C1514 H1501 0.961 . S
C1514 H1502 0.959 . S
C1514 C1512 1.561 . S
C1515 C1512 1.526 . S
C1515 C1516 1.396 . S
C1515 C1520 1.390 . S
C1516 C1510 1.465 . S
C1516 C1515 1.396 . S
C1516 C1517 1.399 . S
C1517 H1503 0.929 . S
C1517 C1516 1.399 . S
C1517 C1518 1.385 . S
C1518 H1504 0.931 . S
C1518 C1517 1.385 . S
C1518 C1519 1.389 . S
C1519 C1518 1.389 . S
C1519 C1520 1.387 . S
C1520 H1505 0.930 . S
C1520 C1515 1.390 . S
C1520 C1519 1.387 . S
H1521 C1533 0.930 . S
H1522 C1535 0.930 . S
H1523 C1536 0.930 . S
H1524 C1540 0.959 . S
H1525 C1540 0.959 . S
H1526 C1540 0.961 . S
H1527 C1541 0.960 . S
H1528 C1541 0.961 . S
H1529 C1541 0.959 . S
H1530 C1544 0.929 . S
H1531 C1545 0.931 . S
H1532 C1547 0.930 . S
C1533 H1521 0.930 . S
C1533 C1534 1.399 . S
C1533 C1538 1.399 1_545 S
C1534 C1533 1.399 . S
C1534 C1535 1.376 . S
C1535 H1522 0.930 . S
C1535 C1534 1.376 . S
C1535 C1536 1.388 1_545 S
C1536 H1523 0.930 . S
C1536 C1535 1.388 1_565 S
C1536 C1537 1.390 . S
C1537 C1536 1.390 . S
C1537 C1538 1.394 . S
C1537 C1543 1.465 . S
C1538 C1533 1.399 1_565 S
C1538 C1537 1.394 . S
C1538 C1539 1.516 . S
C1539 C1538 1.516 . S
C1539 C1540 1.502 . S
C1539 C1541 1.561 . S
C1539 C1542 1.526 . S
C1540 H1524 0.959 . S
C1540 H1525 0.959 . S
C1540 H1526 0.961 . S
C1540 C1539 1.502 . S
C1541 H1527 0.960 . S
C1541 H1528 0.961 . S
C1541 H1529 0.959 . S
C1541 C1539 1.561 . S
C1542 C1539 1.526 . S
C1542 C1543 1.396 . S
C1542 C1547 1.390 . S
C1543 C1537 1.465 . S
C1543 C1542 1.396 . S
C1543 C1544 1.399 . S
C1544 H1530 0.929 . S
C1544 C1543 1.399 . S
C1544 C1545 1.385 . S
C1545 H1531 0.931 . S
C1545 C1544 1.385 . S
C1545 C1546 1.389 . S
C1546 C1545 1.389 . S
C1546 C1547 1.387 . S
C1547 H1532 0.930 . S
C1547 C1542 1.390 . S
C1547 C1546 1.387 . S
H1548 C1560 0.930 . S
H1549 C1562 0.930 . S
H1550 C1563 0.930 . S
H1551 C1567 0.959 . S
H1552 C1567 0.959 . S
H1553 C1567 0.961 . S
H1554 C1568 0.960 . S
H1555 C1568 0.961 . S
H1556 C1568 0.959 . S
H1557 C1571 0.929 . S
H1558 C1572 0.931 . S
H1559 C1574 0.930 . S
C1560 H1548 0.930 . S
C1560 C1561 1.399 1_455 S
C1560 C1565 1.399 . S
C1561 C1560 1.399 1_655 S
C1561 C1562 1.376 . S
C1562 H1549 0.930 . S
C1562 C1561 1.376 . S
C1562 C1563 1.388 1_655 S
C1563 H1550 0.930 . S
C1563 C1562 1.388 1_455 S
C1563 C1564 1.390 . S
C1564 C1563 1.390 . S
C1564 C1565 1.394 . S
C1564 C1570 1.465 . S
C1565 C1560 1.399 . S
C1565 C1564 1.394 . S
C1565 C1566 1.516 . S
C1566 C1565 1.516 . S
C1566 C1567 1.502 . S
C1566 C1568 1.561 . S
C1566 C1569 1.526 . S
C1567 H1551 0.959 . S
C1567 H1552 0.959 . S
C1567 H1553 0.961 . S
C1567 C1566 1.502 . S
C1568 H1554 0.960 . S
C1568 H1555 0.961 . S
C1568 H1556 0.959 . S
C1568 C1566 1.561 . S
C1569 C1566 1.526 . S
C1569 C1570 1.396 . S
C1569 C1574 1.390 . S
C1570 C1564 1.465 . S
C1570 C1569 1.396 . S
C1570 C1571 1.399 . S
C1571 H1557 0.929 . S
C1571 C1570 1.399 . S
C1571 C1572 1.385 . S
C1572 H1558 0.931 . S
C1572 C1571 1.385 . S
C1572 C1573 1.389 . S
C1573 C1572 1.389 . S
C1573 C1574 1.387 . S
C1574 H1559 0.930 . S
C1574 C1569 1.390 . S
C1574 C1573 1.387 . S
H1575 C1587 0.930 . S
H1576 C1589 0.930 . S
H1577 C1590 0.930 . S
H1578 C1594 0.959 . S
H1579 C1594 0.959 . S
H1580 C1594 0.961 . S
H1581 C1595 0.960 . S
H1582 C1595 0.961 . S
H1583 C1595 0.959 . S
H1584 C1598 0.929 . S
H1585 C1599 0.931 . S
H1586 C1601 0.930 . S
C1587 H1575 0.930 . S
C1587 C1588 1.399 . S
C1587 C1592 1.399 . S
C1588 C1587 1.399 . S
C1588 C1589 1.376 . S
C1589 H1576 0.930 . S
C1589 C1588 1.376 . S
C1589 C1590 1.388 . S
C1590 H1577 0.930 . S
C1590 C1589 1.388 . S
C1590 C1591 1.390 . S
C1591 C1590 1.390 . S
C1591 C1592 1.394 . S
C1591 C1597 1.465 . S
C1592 C1587 1.399 . S
C1592 C1591 1.394 . S
C1592 C1593 1.516 . S
C1593 C1592 1.516 . S
C1593 C1594 1.502 . S
C1593 C1595 1.561 . S
C1593 C1596 1.526 . S
C1594 H1578 0.959 . S
C1594 H1579 0.959 . S
C1594 H1580 0.961 . S
C1594 C1593 1.502 . S
C1595 H1581 0.960 . S
C1595 H1582 0.961 . S
C1595 H1583 0.959 . S
C1595 C1593 1.561 . S
C1596 C1593 1.526 . S
C1596 C1597 1.396 . S
C1596 C1601 1.390 . S
C1597 C1591 1.465 . S
C1597 C1596 1.396 . S
C1597 C1598 1.399 . S
C1598 H1584 0.929 . S
C1598 C1597 1.399 . S
C1598 C1599 1.385 . S
C1599 H1585 0.931 . S
C1599 C1598 1.385 . S
C1599 C1600 1.389 . S
C1600 C1599 1.389 . S
C1600 C1601 1.387 . S
C1601 H1586 0.930 . S
C1601 C1596 1.390 . S
C1601 C1600 1.387 . S
H1602 C1614 0.930 . S
H1603 C1616 0.930 . S
H1604 C1617 0.930 . S
H1605 C1621 0.959 . S
H1606 C1621 0.959 . S
H1607 C1621 0.961 . S
H1608 C1622 0.960 . S
H1609 C1622 0.961 . S
H1610 C1622 0.959 . S
H1611 C1625 0.929 . S
H1612 C1626 0.931 . S
H1613 C1628 0.930 . S
C1614 H1602 0.930 . S
C1614 C1615 1.399 . S
C1614 C1619 1.399 . S
C1615 C1614 1.399 . S
C1615 C1616 1.376 . S
C1616 H1603 0.930 . S
C1616 C1615 1.376 . S
C1616 C1617 1.388 . S
C1617 H1604 0.930 . S
C1617 C1616 1.388 . S
C1617 C1618 1.390 . S
C1618 C1617 1.390 . S
C1618 C1619 1.394 . S
C1618 C1624 1.465 . S
C1619 C1614 1.399 . S
C1619 C1618 1.394 . S
C1619 C1620 1.516 . S
C1620 C1619 1.516 . S
C1620 C1621 1.502 . S
C1620 C1622 1.561 . S
C1620 C1623 1.526 . S
C1621 H1605 0.959 . S
C1621 H1606 0.959 . S
C1621 H1607 0.961 . S
C1621 C1620 1.502 . S
C1622 H1608 0.960 . S
C1622 H1609 0.961 . S
C1622 H1610 0.959 . S
C1622 C1620 1.561 . S
C1623 C1620 1.526 . S
C1623 C1624 1.396 . S
C1623 C1628 1.390 . S
C1624 C1618 1.465 . S
C1624 C1623 1.396 . S
C1624 C1625 1.399 . S
C1625 H1611 0.929 . S
C1625 C1624 1.399 . S
C1625 C1626 1.385 . S
C1626 H1612 0.931 . S
C1626 C1625 1.385 . S
C1626 C1627 1.389 . S
C1627 C1626 1.389 . S
C1627 C1628 1.387 . S
C1628 H1613 0.930 . S
C1628 C1623 1.390 . S
C1628 C1627 1.387 . S
H1629 C1641 0.930 . S
H1630 C1643 0.930 . S
H1631 C1644 0.930 . S
H1632 C1648 0.959 . S
H1633 C1648 0.959 . S
H1634 C1648 0.961 . S
H1635 C1649 0.960 . S
H1636 C1649 0.961 . S
H1637 C1649 0.959 . S
H1638 C1652 0.929 . S
H1639 C1653 0.931 . S
H1640 C1655 0.930 . S
C1641 H1629 0.930 . S
C1641 C1642 1.399 . S
C1641 C1646 1.399 . S
C1642 C1641 1.399 . S
C1642 C1643 1.376 . S
C1643 H1630 0.930 . S
C1643 C1642 1.376 . S
C1643 C1644 1.388 . S
C1644 H1631 0.930 . S
C1644 C1643 1.388 . S
C1644 C1645 1.390 . S
C1645 C1644 1.390 . S
C1645 C1646 1.394 . S
C1645 C1651 1.465 . S
C1646 C1641 1.399 . S
C1646 C1645 1.394 . S
C1646 C1647 1.516 . S
C1647 C1646 1.516 . S
C1647 C1648 1.502 . S
C1647 C1649 1.561 . S
C1647 C1650 1.526 . S
C1648 H1632 0.959 . S
C1648 H1633 0.959 . S
C1648 H1634 0.961 . S
C1648 C1647 1.502 . S
C1649 H1635 0.960 . S
C1649 H1636 0.961 . S
C1649 H1637 0.959 . S
C1649 C1647 1.561 . S
C1650 C1647 1.526 . S
C1650 C1651 1.396 . S
C1650 C1655 1.390 . S
C1651 C1645 1.465 . S
C1651 C1650 1.396 . S
C1651 C1652 1.399 . S
C1652 H1638 0.929 . S
C1652 C1651 1.399 . S
C1652 C1653 1.385 . S
C1653 H1639 0.931 . S
C1653 C1652 1.385 . S
C1653 C1654 1.389 . S
C1654 C1653 1.389 . S
C1654 C1655 1.387 . S
C1655 H1640 0.930 . S
C1655 C1650 1.390 . S
C1655 C1654 1.387 . S
H1656 C1668 0.930 . S
H1657 C1670 0.930 . S
H1658 C1671 0.930 . S
H1659 C1675 0.959 . S
H1660 C1675 0.959 . S
H1661 C1675 0.961 . S
H1662 C1676 0.960 . S
H1663 C1676 0.961 . S
H1664 C1676 0.959 . S
H1665 C1679 0.929 . S
H1666 C1680 0.931 . S
H1667 C1682 0.930 . S
C1668 H1656 0.930 . S
C1668 C1669 1.399 . S
C1668 C1673 1.399 . S
C1669 C1668 1.399 . S
C1669 C1670 1.376 . S
C1670 H1657 0.930 . S
C1670 C1669 1.376 . S
C1670 C1671 1.388 . S
C1671 H1658 0.930 . S
C1671 C1670 1.388 . S
C1671 C1672 1.390 . S
C1672 C1671 1.390 . S
C1672 C1673 1.394 . S
C1672 C1678 1.465 . S
C1673 C1668 1.399 . S
C1673 C1672 1.394 . S
C1673 C1674 1.516 . S
C1674 C1673 1.516 . S
C1674 C1675 1.502 . S
C1674 C1676 1.561 . S
C1674 C1677 1.526 . S
C1675 H1659 0.959 . S
C1675 H1660 0.959 . S
C1675 H1661 0.961 . S
C1675 C1674 1.502 . S
C1676 H1662 0.960 . S
C1676 H1663 0.961 . S
C1676 H1664 0.959 . S
C1676 C1674 1.561 . S
C1677 C1674 1.526 . S
C1677 C1678 1.396 . S
C1677 C1682 1.390 . S
C1678 C1672 1.465 . S
C1678 C1677 1.396 . S
C1678 C1679 1.399 . S
C1679 H1665 0.929 . S
C1679 C1678 1.399 . S
C1679 C1680 1.385 . S
C1680 H1666 0.931 . S
C1680 C1679 1.385 . S
C1680 C1681 1.389 . S
C1681 C1680 1.389 . S
C1681 C1682 1.387 . S
C1682 H1667 0.930 . S
C1682 C1677 1.390 . S
C1682 C1681 1.387 . S
H1683 C1695 0.930 . S
H1684 C1697 0.930 . S
H1685 C1698 0.930 . S
H1686 C1702 0.959 . S
H1687 C1702 0.959 . S
H1688 C1702 0.961 1_565 S
H1689 C1703 0.960 . S
H1690 C1703 0.961 . S
H1691 C1703 0.959 . S
H1692 C1706 0.929 . S
H1693 C1707 0.931 . S
H1694 C1709 0.930 . S
C1695 H1683 0.930 . S
C1695 C1696 1.399 . S
C1695 C1700 1.399 . S
C1696 C1695 1.399 . S
C1696 C1697 1.376 . S
C1697 H1684 0.930 . S
C1697 C1696 1.376 . S
C1697 C1698 1.388 . S
C1698 H1685 0.930 . S
C1698 C1697 1.388 . S
C1698 C1699 1.390 . S
C1699 C1698 1.390 . S
C1699 C1700 1.394 . S
C1699 C1705 1.465 1_565 S
C1700 C1695 1.399 . S
C1700 C1699 1.394 . S
C1700 C1701 1.515 . S
C1701 C1700 1.515 . S
C1701 C1702 1.504 1_565 S
C1701 C1703 1.559 . S
C1701 C1704 1.527 1_565 S
C1702 H1686 0.959 . S
C1702 H1687 0.959 . S
C1702 H1688 0.961 1_545 S
C1702 C1701 1.504 1_545 S
C1703 H1689 0.960 . S
C1703 H1690 0.961 . S
C1703 H1691 0.959 . S
C1703 C1701 1.559 . S
C1704 C1701 1.527 1_545 S
C1704 C1705 1.396 . S
C1704 C1709 1.390 . S
C1705 C1699 1.465 1_545 S
C1705 C1704 1.396 . S
C1705 C1706 1.399 . S
C1706 H1692 0.929 . S
C1706 C1705 1.399 . S
C1706 C1707 1.385 . S
C1707 H1693 0.931 . S
C1707 C1706 1.385 . S
C1707 C1708 1.389 . S
C1708 C1707 1.389 . S
C1708 C1709 1.387 . S
C1709 H1694 0.930 . S
C1709 C1704 1.390 . S
C1709 C1708 1.387 . S
H1710 C1722 0.930 . S
H1711 C1724 0.930 . S
H1712 C1725 0.930 . S
H1713 C1729 0.958 1_455 S
H1714 C1729 0.959 . S
H1715 C1729 0.942 1_455 S
H1716 C1730 0.960 . S
H1717 C1730 0.961 . S
H1718 C1730 0.959 . S
H1719 C1733 0.929 . S
H1720 C1734 0.931 . S
H1721 C1736 0.930 . S
C1722 H1710 0.930 . S
C1722 C1723 1.399 . S
C1722 C1727 1.399 . S
C1723 C1722 1.399 . S
C1723 C1724 1.376 . S
C1724 H1711 0.930 . S
C1724 C1723 1.376 . S
C1724 C1725 1.388 . S
C1725 H1712 0.930 . S
C1725 C1724 1.388 . S
C1725 C1726 1.390 . S
C1726 C1725 1.390 . S
C1726 C1727 1.394 . S
C1726 C1732 1.465 1_455 S
C1727 C1722 1.399 . S
C1727 C1726 1.394 . S
C1727 C1728 1.516 1_455 S
C1728 C1727 1.516 1_655 S
C1728 C1729 1.502 . S
C1728 C1730 1.561 . S
C1728 C1731 1.526 . S
C1729 H1713 0.958 1_655 S
C1729 H1714 0.959 . S
C1729 H1715 0.942 1_655 S
C1729 C1728 1.502 . S
C1730 H1716 0.960 . S
C1730 H1717 0.961 . S
C1730 H1718 0.959 . S
C1730 C1728 1.561 . S
C1731 C1728 1.526 . S
C1731 C1732 1.396 . S
C1731 C1736 1.390 . S
C1732 C1726 1.465 1_655 S
C1732 C1731 1.396 . S
C1732 C1733 1.399 . S
C1733 H1719 0.929 . S
C1733 C1732 1.399 . S
C1733 C1734 1.385 . S
C1734 H1720 0.931 . S
C1734 C1733 1.385 . S
C1734 C1735 1.389 . S
C1735 C1734 1.389 . S
C1735 C1736 1.387 . S
C1736 H1721 0.930 . S
C1736 C1731 1.390 . S
C1736 C1735 1.387 . S
H1737 C1749 0.930 . S
H1738 C1751 0.930 . S
H1739 C1752 0.930 . S
H1740 C1756 0.959 . S
H1741 C1756 0.959 . S
H1742 C1756 0.961 . S
H1743 C1757 0.960 . S
H1744 C1757 0.961 . S
H1745 C1757 0.959 . S
H1746 C1760 0.929 . S
H1747 C1761 0.931 . S
H1748 C1763 0.930 . S
C1749 H1737 0.930 . S
C1749 C1750 1.399 . S
C1749 C1754 1.399 . S
C1750 C1749 1.399 . S
C1750 C1751 1.376 . S
C1751 H1738 0.930 . S
C1751 C1750 1.376 . S
C1751 C1752 1.388 . S
C1752 H1739 0.930 . S
C1752 C1751 1.388 . S
C1752 C1753 1.390 . S
C1753 C1752 1.390 . S
C1753 C1754 1.394 . S
C1753 C1759 1.465 . S
C1754 C1749 1.399 . S
C1754 C1753 1.394 . S
C1754 C1755 1.516 . S
C1755 C1754 1.516 . S
C1755 C1756 1.502 . S
C1755 C1757 1.561 . S
C1755 C1758 1.526 . S
C1756 H1740 0.959 . S
C1756 H1741 0.959 . S
C1756 H1742 0.961 . S
C1756 C1755 1.502 . S
C1757 H1743 0.960 . S
C1757 H1744 0.961 . S
C1757 H1745 0.959 . S
C1757 C1755 1.561 . S
C1758 C1755 1.526 . S
C1758 C1759 1.396 . S
C1758 C1763 1.390 . S
C1759 C1753 1.465 . S
C1759 C1758 1.396 . S
C1759 C1760 1.399 . S
C1760 H1746 0.929 . S
C1760 C1759 1.399 . S
C1760 C1761 1.385 . S
C1761 H1747 0.931 . S
C1761 C1760 1.385 . S
C1761 C1762 1.389 . S
C1762 C1761 1.389 . S
C1762 C1763 1.387 . S
C1763 H1748 0.930 . S
C1763 C1758 1.390 . S
C1763 C1762 1.387 . S
H1764 C1776 0.930 . S
H1765 C1778 0.930 1_455 S
H1766 C1779 0.930 . S
H1767 C1783 0.959 . S
H1768 C1783 0.959 . S
H1769 C1783 0.961 . S
H1770 C1784 0.960 . S
H1771 C1784 0.961 . S
H1772 C1784 0.959 . S
H1773 C1787 0.929 . S
H1774 C1788 0.931 . S
H1775 C1790 0.930 . S
C1776 H1764 0.930 . S
C1776 C1777 1.399 . S
C1776 C1781 1.399 1_455 S
C1777 C1776 1.399 . S
C1777 C1778 1.376 1_455 S
C1778 H1765 0.930 1_655 S
C1778 C1777 1.376 1_655 S
C1778 C1779 1.388 . S
C1779 H1766 0.930 . S
C1779 C1778 1.388 . S
C1779 C1780 1.390 . S
C1780 C1779 1.390 . S
C1780 C1781 1.394 . S
C1780 C1786 1.465 . S
C1781 C1776 1.399 1_655 S
C1781 C1780 1.394 . S
C1781 C1782 1.516 . S
C1782 C1781 1.516 . S
C1782 C1783 1.502 . S
C1782 C1784 1.561 . S
C1782 C1785 1.526 . S
C1783 H1767 0.959 . S
C1783 H1768 0.959 . S
C1783 H1769 0.961 . S
C1783 C1782 1.502 . S
C1784 H1770 0.960 . S
C1784 H1771 0.961 . S
C1784 H1772 0.959 . S
C1784 C1782 1.561 . S
C1785 C1782 1.526 . S
C1785 C1786 1.396 . S
C1785 C1790 1.390 . S
C1786 C1780 1.465 . S
C1786 C1785 1.396 . S
C1786 C1787 1.399 . S
C1787 H1773 0.929 . S
C1787 C1786 1.399 . S
C1787 C1788 1.385 . S
C1788 H1774 0.931 . S
C1788 C1787 1.385 . S
C1788 C1789 1.389 . S
C1789 C1788 1.389 . S
C1789 C1790 1.387 . S
C1790 H1775 0.930 . S
C1790 C1785 1.390 . S
C1790 C1789 1.387 . S
H1791 C1803 0.930 . S
H1792 C1805 0.930 . S
H1793 C1806 0.930 . S
H1794 C1810 0.959 . S
H1795 C1810 0.959 . S
H1796 C1810 0.961 . S
H1797 C1811 0.960 . S
H1798 C1811 0.961 . S
H1799 C1811 0.959 . S
H1800 C1814 0.929 . S
H1801 C1815 0.931 . S
H1802 C1817 0.930 . S
C1803 H1791 0.930 . S
C1803 C1804 1.399 . S
C1803 C1808 1.399 . S
C1804 C1803 1.399 . S
C1804 C1805 1.376 . S
C1805 H1792 0.930 . S
C1805 C1804 1.376 . S
C1805 C1806 1.388 . S
C1806 H1793 0.930 . S
C1806 C1805 1.388 . S
C1806 C1807 1.390 . S
C1807 C1806 1.390 . S
C1807 C1808 1.394 . S
C1807 C1813 1.465 . S
C1808 C1803 1.399 . S
C1808 C1807 1.394 . S
C1808 C1809 1.516 . S
C1809 C1808 1.516 . S
C1809 C1810 1.502 . S
C1809 C1811 1.561 . S
C1809 C1812 1.526 . S
C1810 H1794 0.959 . S
C1810 H1795 0.959 . S
C1810 H1796 0.961 . S
C1810 C1809 1.502 . S
C1811 H1797 0.960 . S
C1811 H1798 0.961 . S
C1811 H1799 0.959 . S
C1811 C1809 1.561 . S
C1812 C1809 1.526 . S
C1812 C1813 1.396 . S
C1812 C1817 1.390 . S
C1813 C1807 1.465 . S
C1813 C1812 1.396 . S
C1813 C1814 1.399 . S
C1814 H1800 0.929 . S
C1814 C1813 1.399 . S
C1814 C1815 1.385 . S
C1815 H1801 0.931 . S
C1815 C1814 1.385 . S
C1815 C1816 1.389 . S
C1816 C1815 1.389 . S
C1816 C1817 1.387 . S
C1817 H1802 0.930 . S
C1817 C1812 1.390 . S
C1817 C1816 1.387 . S
H1818 C1830 0.930 . S
H1819 C1832 0.930 . S
H1820 C1833 0.930 . S
H1821 C1837 0.959 . S
H1822 C1837 0.959 . S
H1823 C1837 0.961 . S
H1824 C1838 0.960 . S
H1825 C1838 0.961 . S
H1826 C1838 0.959 . S
H1827 C1841 0.929 . S
H1828 C1842 0.931 . S
H1829 C1844 0.930 . S
C1830 H1818 0.930 . S
C1830 C1831 1.399 1_545 S
C1830 C1835 1.399 . S
C1831 C1830 1.399 1_565 S
C1831 C1832 1.376 . S
C1832 H1819 0.930 . S
C1832 C1831 1.376 . S
C1832 C1833 1.388 1_565 S
C1833 H1820 0.930 . S
C1833 C1832 1.388 1_545 S
C1833 C1834 1.390 . S
C1834 C1833 1.390 . S
C1834 C1835 1.394 . S
C1834 C1840 1.465 . S
C1835 C1830 1.399 . S
C1835 C1834 1.394 . S
C1835 C1836 1.516 . S
C1836 C1835 1.516 . S
C1836 C1837 1.502 . S
C1836 C1838 1.561 . S
C1836 C1839 1.526 . S
C1837 H1821 0.959 . S
C1837 H1822 0.959 . S
C1837 H1823 0.961 . S
C1837 C1836 1.502 . S
C1838 H1824 0.960 . S
C1838 H1825 0.961 . S
C1838 H1826 0.959 . S
C1838 C1836 1.561 . S
C1839 C1836 1.526 . S
C1839 C1840 1.396 . S
C1839 C1844 1.390 . S
C1840 C1834 1.465 . S
C1840 C1839 1.396 . S
C1840 C1841 1.399 . S
C1841 H1827 0.929 . S
C1841 C1840 1.399 . S
C1841 C1842 1.385 . S
C1842 H1828 0.931 . S
C1842 C1841 1.385 . S
C1842 C1843 1.389 . S
C1843 C1842 1.389 . S
C1843 C1844 1.387 . S
C1844 H1829 0.930 . S
C1844 C1839 1.390 . S
C1844 C1843 1.387 . S
H1845 C1857 0.930 . S
H1846 C1859 0.930 . S
H1847 C1860 0.930 . S
H1848 C1864 0.959 . S
H1849 C1864 0.959 . S
H1850 C1864 0.961 . S
H1851 C1865 0.960 . S
H1852 C1865 0.961 . S
H1853 C1865 0.959 . S
H1854 C1868 0.929 . S
H1855 C1869 0.931 . S
H1856 C1871 0.930 . S
C1857 H1845 0.930 . S
C1857 C1858 1.399 . S
C1857 C1862 1.399 . S
C1858 C1857 1.399 . S
C1858 C1859 1.376 . S
C1859 H1846 0.930 . S
C1859 C1858 1.376 . S
C1859 C1860 1.388 . S
C1860 H1847 0.930 . S
C1860 C1859 1.388 . S
C1860 C1861 1.390 . S
C1861 C1860 1.390 . S
C1861 C1862 1.394 . S
C1861 C1867 1.465 . S
C1862 C1857 1.399 . S
C1862 C1861 1.394 . S
C1862 C1863 1.516 . S
C1863 C1862 1.516 . S
C1863 C1864 1.502 . S
C1863 C1865 1.561 . S
C1863 C1866 1.526 . S
C1864 H1848 0.959 . S
C1864 H1849 0.959 . S
C1864 H1850 0.961 . S
C1864 C1863 1.502 . S
C1865 H1851 0.960 . S
C1865 H1852 0.961 . S
C1865 H1853 0.959 . S
C1865 C1863 1.561 . S
C1866 C1863 1.526 . S
C1866 C1867 1.396 . S
C1866 C1871 1.390 . S
C1867 C1861 1.465 . S
C1867 C1866 1.396 . S
C1867 C1868 1.399 . S
C1868 H1854 0.929 . S
C1868 C1867 1.399 . S
C1868 C1869 1.385 . S
C1869 H1855 0.931 . S
C1869 C1868 1.385 . S
C1869 C1870 1.389 . S
C1870 C1869 1.389 . S
C1870 C1871 1.387 . S
C1871 H1856 0.930 . S
C1871 C1866 1.390 . S
C1871 C1870 1.387 . S
H1872 C1884 0.930 . S
H1873 C1886 0.930 . S
H1874 C1887 0.930 . S
H1875 C1891 0.959 . S
H1876 C1891 0.959 . S
H1877 C1891 0.961 . S
H1878 C1892 0.960 . S
H1879 C1892 0.961 . S
H1880 C1892 0.959 . S
H1881 C1895 0.929 . S
H1882 C1896 0.931 . S
H1883 C1898 0.930 . S
C1884 H1872 0.930 . S
C1884 C1885 1.399 . S
C1884 C1889 1.399 . S
C1885 C1884 1.399 . S
C1885 C1886 1.376 . S
C1886 H1873 0.930 . S
C1886 C1885 1.376 . S
C1886 C1887 1.388 . S
C1887 H1874 0.930 . S
C1887 C1886 1.388 . S
C1887 C1888 1.390 . S
C1888 C1887 1.390 . S
C1888 C1889 1.394 . S
C1888 C1894 1.465 . S
C1889 C1884 1.399 . S
C1889 C1888 1.394 . S
C1889 C1890 1.516 . S
C1890 C1889 1.516 . S
C1890 C1891 1.502 . S
C1890 C1892 1.561 . S
C1890 C1893 1.526 . S
C1891 H1875 0.959 . S
C1891 H1876 0.959 . S
C1891 H1877 0.961 . S
C1891 C1890 1.502 . S
C1892 H1878 0.960 . S
C1892 H1879 0.961 . S
C1892 H1880 0.959 . S
C1892 C1890 1.561 . S
C1893 C1890 1.526 . S
C1893 C1894 1.396 . S
C1893 C1898 1.390 . S
C1894 C1888 1.465 . S
C1894 C1893 1.396 . S
C1894 C1895 1.399 . S
C1895 H1881 0.929 . S
C1895 C1894 1.399 . S
C1895 C1896 1.385 . S
C1896 H1882 0.931 . S
C1896 C1895 1.385 . S
C1896 C1897 1.389 . S
C1897 C1896 1.389 . S
C1897 C1898 1.387 . S
C1898 H1883 0.930 . S
C1898 C1893 1.390 . S
C1898 C1897 1.387 . S
H1899 C1911 0.930 . S
H1900 C1913 0.930 . S
H1901 C1914 0.930 . S
H1902 C1918 0.959 . S
H1903 C1918 0.959 . S
H1904 C1918 0.961 . S
H1905 C1919 0.960 . S
H1906 C1919 0.961 . S
H1907 C1919 0.959 . S
H1908 C1922 0.929 . S
H1909 C1923 0.931 . S
H1910 C1925 0.930 . S
C1911 H1899 0.930 . S
C1911 C1912 1.399 . S
C1911 C1916 1.399 . S
C1912 C1911 1.399 . S
C1912 C1913 1.376 . S
C1913 H1900 0.930 . S
C1913 C1912 1.376 . S
C1913 C1914 1.388 . S
C1914 H1901 0.930 . S
C1914 C1913 1.388 . S
C1914 C1915 1.390 . S
C1915 C1914 1.390 . S
C1915 C1916 1.394 . S
C1915 C1921 1.465 . S
C1916 C1911 1.399 . S
C1916 C1915 1.394 . S
C1916 C1917 1.516 . S
C1917 C1916 1.516 . S
C1917 C1918 1.502 . S
C1917 C1919 1.561 . S
C1917 C1920 1.526 . S
C1918 H1902 0.959 . S
C1918 H1903 0.959 . S
C1918 H1904 0.961 . S
C1918 C1917 1.502 . S
C1919 H1905 0.960 . S
C1919 H1906 0.961 . S
C1919 H1907 0.959 . S
C1919 C1917 1.561 . S
C1920 C1917 1.526 . S
C1920 C1921 1.396 . S
C1920 C1925 1.390 . S
C1921 C1915 1.465 . S
C1921 C1920 1.396 . S
C1921 C1922 1.399 . S
C1922 H1908 0.929 . S
C1922 C1921 1.399 . S
C1922 C1923 1.385 . S
C1923 H1909 0.931 . S
C1923 C1922 1.385 . S
C1923 C1924 1.389 . S
C1924 C1923 1.389 . S
C1924 C1925 1.387 . S
C1925 H1910 0.930 . S
C1925 C1920 1.390 . S
C1925 C1924 1.387 . S
H1926 C1938 0.930 . S
H1927 C1940 0.930 . S
H1928 C1941 0.930 . S
H1929 C1945 0.959 . S
H1930 C1945 0.959 . S
H1931 C1945 0.961 . S
H1932 C1946 0.960 . S
H1933 C1946 0.961 . S
H1934 C1946 0.959 . S
H1935 C1949 0.929 . S
H1936 C1950 0.931 . S
H1937 C1952 0.930 . S
C1938 H1926 0.930 . S
C1938 C1939 1.399 . S
C1938 C1943 1.399 . S
C1939 C1938 1.399 . S
C1939 C1940 1.376 . S
C1940 H1927 0.930 . S
C1940 C1939 1.376 . S
C1940 C1941 1.388 . S
C1941 H1928 0.930 . S
C1941 C1940 1.388 . S
C1941 C1942 1.390 . S
C1942 C1941 1.390 . S
C1942 C1943 1.394 . S
C1942 C1948 1.465 . S
C1943 C1938 1.399 . S
C1943 C1942 1.394 . S
C1943 C1944 1.516 . S
C1944 C1943 1.516 . S
C1944 C1945 1.502 . S
C1944 C1946 1.561 . S
C1944 C1947 1.526 . S
C1945 H1929 0.959 . S
C1945 H1930 0.959 . S
C1945 H1931 0.961 . S
C1945 C1944 1.502 . S
C1946 H1932 0.960 . S
C1946 H1933 0.961 . S
C1946 H1934 0.959 . S
C1946 C1944 1.561 . S
C1947 C1944 1.526 . S
C1947 C1948 1.396 . S
C1947 C1952 1.390 . S
C1948 C1942 1.465 . S
C1948 C1947 1.396 . S
C1948 C1949 1.399 . S
C1949 H1935 0.929 . S
C1949 C1948 1.399 . S
C1949 C1950 1.385 . S
C1950 H1936 0.931 . S
C1950 C1949 1.385 . S
C1950 C1951 1.389 . S
C1951 C1950 1.389 . S
C1951 C1952 1.387 . S
C1952 H1937 0.930 . S
C1952 C1947 1.390 . S
C1952 C1951 1.387 . S
H1953 C1965 0.930 . S
H1954 C1967 0.930 . S
H1955 C1968 0.930 . S
H1956 C1972 0.959 . S
H1957 C1972 0.959 . S
H1958 C1972 0.961 . S
H1959 C1973 0.960 . S
H1960 C1973 0.961 . S
H1961 C1973 0.959 . S
H1962 C1976 0.929 . S
H1963 C1977 0.931 . S
H1964 C1979 0.930 . S
C1965 H1953 0.930 . S
C1965 C1966 1.399 . S
C1965 C1970 1.399 . S
C1966 C1965 1.399 . S
C1966 C1967 1.376 . S
C1967 H1954 0.930 . S
C1967 C1966 1.376 . S
C1967 C1968 1.388 . S
C1968 H1955 0.930 . S
C1968 C1967 1.388 . S
C1968 C1969 1.390 . S
C1969 C1968 1.390 . S
C1969 C1970 1.394 . S
C1969 C1975 1.465 . S
C1970 C1965 1.399 . S
C1970 C1969 1.394 . S
C1970 C1971 1.516 . S
C1971 C1970 1.516 . S
C1971 C1972 1.502 . S
C1971 C1973 1.561 . S
C1971 C1974 1.526 . S
C1972 H1956 0.959 . S
C1972 H1957 0.959 . S
C1972 H1958 0.961 . S
C1972 C1971 1.502 . S
C1973 H1959 0.960 . S
C1973 H1960 0.961 . S
C1973 H1961 0.959 . S
C1973 C1971 1.561 . S
C1974 C1971 1.526 . S
C1974 C1975 1.396 . S
C1974 C1979 1.390 . S
C1975 C1969 1.465 . S
C1975 C1974 1.396 . S
C1975 C1976 1.399 . S
C1976 H1962 0.929 . S
C1976 C1975 1.399 . S
C1976 C1977 1.385 . S
C1977 H1963 0.931 . S
C1977 C1976 1.385 . S
C1977 C1978 1.389 . S
C1978 C1977 1.389 . S
C1978 C1979 1.387 . S
C1979 H1964 0.930 . S
C1979 C1974 1.390 . S
C1979 C1978 1.387 . S
H1980 C1992 0.930 . S
H1981 C1994 0.930 . S
H1982 C1995 0.930 . S
H1983 C1999 0.959 . S
H1984 C1999 0.959 . S
H1985 C1999 0.961 . S
H1986 C2000 0.960 . S
H1987 C2000 0.961 . S
H1988 C2000 0.959 . S
H1989 C2003 0.929 . S
H1990 C2004 0.931 . S
H1991 C2006 0.930 . S
C1992 H1980 0.930 . S
C1992 C1993 1.399 . S
C1992 C1997 1.399 . S
C1993 C1992 1.399 . S
C1993 C1994 1.376 . S
C1994 H1981 0.930 . S
C1994 C1993 1.376 . S
C1994 C1995 1.388 . S
C1995 H1982 0.930 . S
C1995 C1994 1.388 . S
C1995 C1996 1.390 . S
C1996 C1995 1.390 . S
C1996 C1997 1.394 . S
C1996 C2002 1.465 . S
C1997 C1992 1.399 . S
C1997 C1996 1.394 . S
C1997 C1998 1.516 . S
C1998 C1997 1.516 . S
C1998 C1999 1.502 . S
C1998 C2000 1.561 . S
C1998 C2001 1.526 . S
C1999 H1983 0.959 . S
C1999 H1984 0.959 . S
C1999 H1985 0.961 . S
C1999 C1998 1.502 . S
C2000 H1986 0.960 . S
C2000 H1987 0.961 . S
C2000 H1988 0.959 . S
C2000 C1998 1.561 . S
C2001 C1998 1.526 . S
C2001 C2002 1.396 . S
C2001 C2006 1.390 . S
C2002 C1996 1.465 . S
C2002 C2001 1.396 . S
C2002 C2003 1.399 . S
C2003 H1989 0.929 . S
C2003 C2002 1.399 . S
C2003 C2004 1.385 . S
C2004 H1990 0.931 . S
C2004 C2003 1.385 . S
C2004 C2005 1.389 . S
C2005 C2004 1.389 . S
C2005 C2006 1.387 . S
C2006 H1991 0.930 . S
C2006 C2001 1.390 . S
C2006 C2005 1.387 . S
H2007 C2019 0.930 . S
H2008 C2021 0.930 . S
H2009 C2022 0.930 . S
H2010 C2026 0.959 . S
H2011 C2026 0.959 . S
H2012 C2026 0.961 . S
H2013 C2027 0.960 . S
H2014 C2027 0.961 . S
H2015 C2027 0.959 . S
H2016 C2030 0.929 . S
H2017 C2031 0.931 . S
H2018 C2033 0.930 . S
C2019 H2007 0.930 . S
C2019 C2020 1.399 . S
C2019 C2024 1.399 . S
C2020 C2019 1.399 . S
C2020 C2021 1.376 . S
C2021 H2008 0.930 . S
C2021 C2020 1.376 . S
C2021 C2022 1.388 . S
C2022 H2009 0.930 . S
C2022 C2021 1.388 . S
C2022 C2023 1.390 . S
C2023 C2022 1.390 . S
C2023 C2024 1.394 . S
C2023 C2029 1.465 . S
C2024 C2019 1.399 . S
C2024 C2023 1.394 . S
C2024 C2025 1.516 . S
C2025 C2024 1.516 . S
C2025 C2026 1.502 . S
C2025 C2027 1.561 . S
C2025 C2028 1.526 . S
C2026 H2010 0.959 . S
C2026 H2011 0.959 . S
C2026 H2012 0.961 . S
C2026 C2025 1.502 . S
C2027 H2013 0.960 . S
C2027 H2014 0.961 . S
C2027 H2015 0.959 . S
C2027 C2025 1.561 . S
C2028 C2025 1.526 . S
C2028 C2029 1.396 . S
C2028 C2033 1.390 . S
C2029 C2023 1.465 . S
C2029 C2028 1.396 . S
C2029 C2030 1.399 . S
C2030 H2016 0.929 . S
C2030 C2029 1.399 . S
C2030 C2031 1.385 . S
C2031 H2017 0.931 . S
C2031 C2030 1.385 . S
C2031 C2032 1.389 . S
C2032 C2031 1.389 . S
C2032 C2033 1.387 . S
C2033 H2018 0.930 . S
C2033 C2028 1.390 . S
C2033 C2032 1.387 . S
H2034 C2046 0.930 . S
H2035 C2048 0.930 . S
H2036 C2049 0.930 . S
H2037 C2053 0.959 . S
H2038 C2053 0.959 . S
H2039 C2053 0.961 . S
H2040 C2054 0.960 . S
H2041 C2054 0.961 . S
H2042 C2054 0.959 . S
H2043 C2057 0.929 . S
H2044 C2058 0.931 . S
H2045 C2060 0.930 . S
C2046 H2034 0.930 . S
C2046 C2047 1.399 . S
C2046 C2051 1.399 . S
C2047 C2046 1.399 . S
C2047 C2048 1.376 . S
C2048 H2035 0.930 . S
C2048 C2047 1.376 . S
C2048 C2049 1.388 . S
C2049 H2036 0.930 . S
C2049 C2048 1.388 . S
C2049 C2050 1.390 . S
C2050 C2049 1.390 . S
C2050 C2051 1.394 . S
C2050 C2056 1.465 . S
C2051 C2046 1.399 . S
C2051 C2050 1.394 . S
C2051 C2052 1.516 . S
C2052 C2051 1.516 . S
C2052 C2053 1.502 . S
C2052 C2054 1.561 . S
C2052 C2055 1.526 . S
C2053 H2037 0.959 . S
C2053 H2038 0.959 . S
C2053 H2039 0.961 . S
C2053 C2052 1.502 . S
C2054 H2040 0.960 . S
C2054 H2041 0.961 . S
C2054 H2042 0.959 . S
C2054 C2052 1.561 . S
C2055 C2052 1.526 . S
C2055 C2056 1.396 . S
C2055 C2060 1.390 . S
C2056 C2050 1.465 . S
C2056 C2055 1.396 . S
C2056 C2057 1.399 . S
C2057 H2043 0.929 . S
C2057 C2056 1.399 . S
C2057 C2058 1.385 . S
C2058 H2044 0.931 . S
C2058 C2057 1.385 . S
C2058 C2059 1.389 . S
C2059 C2058 1.389 . S
C2059 C2060 1.387 . S
C2060 H2045 0.930 . S
C2060 C2055 1.390 . S
C2060 C2059 1.387 . S
H2061 C2073 0.930 . S
H2062 C2075 0.930 . S
H2063 C2076 0.930 . S
H2064 C2080 0.959 . S
H2065 C2080 0.959 . S
H2066 C2080 0.961 . S
H2067 C2081 0.960 . S
H2068 C2081 0.961 . S
H2069 C2081 0.959 . S
H2070 C2084 0.929 . S
H2071 C2085 0.931 . S
H2072 C2087 0.930 . S
C2073 H2061 0.930 . S
C2073 C2074 1.399 . S
C2073 C2078 1.399 . S
C2074 C2073 1.399 . S
C2074 C2075 1.376 . S
C2075 H2062 0.930 . S
C2075 C2074 1.376 . S
C2075 C2076 1.388 . S
C2076 H2063 0.930 . S
C2076 C2075 1.388 . S
C2076 C2077 1.390 . S
C2077 C2076 1.390 . S
C2077 C2078 1.394 . S
C2077 C2083 1.465 . S
C2078 C2073 1.399 . S
C2078 C2077 1.394 . S
C2078 C2079 1.516 . S
C2079 C2078 1.516 . S
C2079 C2080 1.502 . S
C2079 C2081 1.561 . S
C2079 C2082 1.526 . S
C2080 H2064 0.959 . S
C2080 H2065 0.959 . S
C2080 H2066 0.961 . S
C2080 C2079 1.502 . S
C2081 H2067 0.960 . S
C2081 H2068 0.961 . S
C2081 H2069 0.959 . S
C2081 C2079 1.561 . S
C2082 C2079 1.526 . S
C2082 C2083 1.396 . S
C2082 C2087 1.390 . S
C2083 C2077 1.465 . S
C2083 C2082 1.396 . S
C2083 C2084 1.399 . S
C2084 H2070 0.929 . S
C2084 C2083 1.399 . S
C2084 C2085 1.385 . S
C2085 H2071 0.931 . S
C2085 C2084 1.385 . S
C2085 C2086 1.389 . S
C2086 C2085 1.389 . S
C2086 C2087 1.387 . S
C2087 H2072 0.930 . S
C2087 C2082 1.390 . S
C2087 C2086 1.387 . S
H2088 C2100 0.930 . S
H2089 C2102 0.930 . S
H2090 C2103 0.930 . S
H2091 C2107 0.959 . S
H2092 C2107 0.959 . S
H2093 C2107 0.961 . S
H2094 C2108 0.960 . S
H2095 C2108 0.961 . S
H2096 C2108 0.959 . S
H2097 C2111 0.929 . S
H2098 C2112 0.931 . S
H2099 C2114 0.930 . S
C2100 H2088 0.930 . S
C2100 C2101 1.399 . S
C2100 C2105 1.399 . S
C2101 C2100 1.399 . S
C2101 C2102 1.376 . S
C2102 H2089 0.930 . S
C2102 C2101 1.376 . S
C2102 C2103 1.388 . S
C2103 H2090 0.930 . S
C2103 C2102 1.388 . S
C2103 C2104 1.390 . S
C2104 C2103 1.390 . S
C2104 C2105 1.394 . S
C2104 C2110 1.465 . S
C2105 C2100 1.399 . S
C2105 C2104 1.394 . S
C2105 C2106 1.516 . S
C2106 C2105 1.516 . S
C2106 C2107 1.502 . S
C2106 C2108 1.561 . S
C2106 C2109 1.526 . S
C2107 H2091 0.959 . S
C2107 H2092 0.959 . S
C2107 H2093 0.961 . S
C2107 C2106 1.502 . S
C2108 H2094 0.960 . S
C2108 H2095 0.961 . S
C2108 H2096 0.959 . S
C2108 C2106 1.561 . S
C2109 C2106 1.526 . S
C2109 C2110 1.396 . S
C2109 C2114 1.390 . S
C2110 C2104 1.465 . S
C2110 C2109 1.396 . S
C2110 C2111 1.399 . S
C2111 H2097 0.929 . S
C2111 C2110 1.399 . S
C2111 C2112 1.385 . S
C2112 H2098 0.931 . S
C2112 C2111 1.385 . S
C2112 C2113 1.389 . S
C2113 C2112 1.389 . S
C2113 C2114 1.387 . S
C2114 H2099 0.930 . S
C2114 C2109 1.390 . S
C2114 C2113 1.387 . S
H2115 C2127 0.930 . S
H2116 C2129 0.930 . S
H2117 C2130 0.930 . S
H2118 C2134 0.959 . S
H2119 C2134 0.959 . S
H2120 C2134 0.961 . S
H2121 C2135 0.960 . S
H2122 C2135 0.961 . S
H2123 C2135 0.959 . S
H2124 C2138 0.929 . S
H2125 C2139 0.931 . S
H2126 C2141 0.930 . S
C2127 H2115 0.930 . S
C2127 C2128 1.399 . S
C2127 C2132 1.399 . S
C2128 C2127 1.399 . S
C2128 C2129 1.376 . S
C2129 H2116 0.930 . S
C2129 C2128 1.376 . S
C2129 C2130 1.388 . S
C2130 H2117 0.930 . S
C2130 C2129 1.388 . S
C2130 C2131 1.390 . S
C2131 C2130 1.390 . S
C2131 C2132 1.394 . S
C2131 C2137 1.465 . S
C2132 C2127 1.399 . S
C2132 C2131 1.394 . S
C2132 C2133 1.516 . S
C2133 C2132 1.516 . S
C2133 C2134 1.502 . S
C2133 C2135 1.561 . S
C2133 C2136 1.526 . S
C2134 H2118 0.959 . S
C2134 H2119 0.959 . S
C2134 H2120 0.961 . S
C2134 C2133 1.502 . S
C2135 H2121 0.960 . S
C2135 H2122 0.961 . S
C2135 H2123 0.959 . S
C2135 C2133 1.561 . S
C2136 C2133 1.526 . S
C2136 C2137 1.396 . S
C2136 C2141 1.390 . S
C2137 C2131 1.465 . S
C2137 C2136 1.396 . S
C2137 C2138 1.399 . S
C2138 H2124 0.929 . S
C2138 C2137 1.399 . S
C2138 C2139 1.385 . S
C2139 H2125 0.931 . S
C2139 C2138 1.385 . S
C2139 C2140 1.389 . S
C2140 C2139 1.389 . S
C2140 C2141 1.387 . S
C2141 H2126 0.930 . S
C2141 C2136 1.390 . S
C2141 C2140 1.387 . S
H2142 C2154 0.930 . S
H2143 C2156 0.930 . S
H2144 C2157 0.930 . S
H2145 C2161 0.959 . S
H2146 C2161 0.959 . S
H2147 C2161 0.961 . S
H2148 C2162 0.960 . S
H2149 C2162 0.961 . S
H2150 C2162 0.959 . S
H2151 C2165 0.929 . S
H2152 C2166 0.931 . S
H2153 C2168 0.930 . S
C2154 H2142 0.930 . S
C2154 C2155 1.399 . S
C2154 C2159 1.399 . S
C2155 C2154 1.399 . S
C2155 C2156 1.376 . S
C2156 H2143 0.930 . S
C2156 C2155 1.376 . S
C2156 C2157 1.388 . S
C2157 H2144 0.930 . S
C2157 C2156 1.388 . S
C2157 C2158 1.390 . S
C2158 C2157 1.390 . S
C2158 C2159 1.394 . S
C2158 C2164 1.465 . S
C2159 C2154 1.399 . S
C2159 C2158 1.394 . S
C2159 C2160 1.516 . S
C2160 C2159 1.516 . S
C2160 C2161 1.502 . S
C2160 C2162 1.561 . S
C2160 C2163 1.526 . S
C2161 H2145 0.959 . S
C2161 H2146 0.959 . S
C2161 H2147 0.961 . S
C2161 C2160 1.502 . S
C2162 H2148 0.960 . S
C2162 H2149 0.961 . S
C2162 H2150 0.959 . S
C2162 C2160 1.561 . S
C2163 C2160 1.526 . S
C2163 C2164 1.396 . S
C2163 C2168 1.390 . S
C2164 C2158 1.465 . S
C2164 C2163 1.396 . S
C2164 C2165 1.399 . S
C2165 H2151 0.929 . S
C2165 C2164 1.399 . S
C2165 C2166 1.385 . S
C2166 H2152 0.931 . S
C2166 C2165 1.385 . S
C2166 C2167 1.389 . S
C2167 C2166 1.389 . S
C2167 C2168 1.387 . S
C2168 H2153 0.930 . S
C2168 C2163 1.390 . S
C2168 C2167 1.387 . S
H2169 C2181 0.930 . S
H2170 C2183 0.930 . S
H2171 C2184 0.930 . S
H2172 C2188 0.959 . S
H2173 C2188 0.959 . S
H2174 C2188 0.961 . S
H2175 C2189 0.960 . S
H2176 C2189 0.961 . S
H2177 C2189 0.959 . S
H2178 C2192 0.929 . S
H2179 C2193 0.931 . S
H2180 C2195 0.930 . S
C2181 H2169 0.930 . S
C2181 C2182 1.399 . S
C2181 C2186 1.399 . S
C2182 C2181 1.399 . S
C2182 C2183 1.376 . S
C2183 H2170 0.930 . S
C2183 C2182 1.376 . S
C2183 C2184 1.388 . S
C2184 H2171 0.930 . S
C2184 C2183 1.388 . S
C2184 C2185 1.390 . S
C2185 C2184 1.390 . S
C2185 C2186 1.394 . S
C2185 C2191 1.465 . S
C2186 C2181 1.399 . S
C2186 C2185 1.394 . S
C2186 C2187 1.516 . S
C2187 C2186 1.516 . S
C2187 C2188 1.502 . S
C2187 C2189 1.561 . S
C2187 C2190 1.526 . S
C2188 H2172 0.959 . S
C2188 H2173 0.959 . S
C2188 H2174 0.961 . S
C2188 C2187 1.502 . S
C2189 H2175 0.960 . S
C2189 H2176 0.961 . S
C2189 H2177 0.959 . S
C2189 C2187 1.561 . S
C2190 C2187 1.526 . S
C2190 C2191 1.396 . S
C2190 C2195 1.390 . S
C2191 C2185 1.465 . S
C2191 C2190 1.396 . S
C2191 C2192 1.399 . S
C2192 H2178 0.929 . S
C2192 C2191 1.399 . S
C2192 C2193 1.385 . S
C2193 H2179 0.931 . S
C2193 C2192 1.385 . S
C2193 C2194 1.389 . S
C2194 C2193 1.389 . S
C2194 C2195 1.387 . S
C2195 H2180 0.930 . S
C2195 C2190 1.390 . S
C2195 C2194 1.387 . S
H2196 C2208 0.930 . S
H2197 C2210 0.930 . S
H2198 C2211 0.930 . S
H2199 C2215 0.959 . S
H2200 C2215 0.959 . S
H2201 C2215 0.961 . S
H2202 C2216 0.960 . S
H2203 C2216 0.961 . S
H2204 C2216 0.959 . S
H2205 C2219 0.929 . S
H2206 C2220 0.931 . S
H2207 C2222 0.930 . S
C2208 H2196 0.930 . S
C2208 C2209 1.399 . S
C2208 C2213 1.399 . S
C2209 C2208 1.399 . S
C2209 C2210 1.376 . S
C2210 H2197 0.930 . S
C2210 C2209 1.376 . S
C2210 C2211 1.388 . S
C2211 H2198 0.930 . S
C2211 C2210 1.388 . S
C2211 C2212 1.390 . S
C2212 C2211 1.390 . S
C2212 C2213 1.394 . S
C2212 C2218 1.465 . S
C2213 C2208 1.399 . S
C2213 C2212 1.394 . S
C2213 C2214 1.516 . S
C2214 C2213 1.516 . S
C2214 C2215 1.502 . S
C2214 C2216 1.561 . S
C2214 C2217 1.526 . S
C2215 H2199 0.959 . S
C2215 H2200 0.959 . S
C2215 H2201 0.961 . S
C2215 C2214 1.502 . S
C2216 H2202 0.960 . S
C2216 H2203 0.961 . S
C2216 H2204 0.959 . S
C2216 C2214 1.561 . S
C2217 C2214 1.526 . S
C2217 C2218 1.396 . S
C2217 C2222 1.390 . S
C2218 C2212 1.465 . S
C2218 C2217 1.396 . S
C2218 C2219 1.399 . S
C2219 H2205 0.929 . S
C2219 C2218 1.399 . S
C2219 C2220 1.385 . S
C2220 H2206 0.931 . S
C2220 C2219 1.385 . S
C2220 C2221 1.389 . S
C2221 C2220 1.389 . S
C2221 C2222 1.387 . S
C2222 H2207 0.930 . S
C2222 C2217 1.390 . S
C2222 C2221 1.387 . S
H2223 C2235 0.930 . S
H2224 C2237 0.930 . S
H2225 C2238 0.930 . S
H2226 C2242 0.959 . S
H2227 C2242 0.959 . S
H2228 C2242 0.961 . S
H2229 C2243 0.960 . S
H2230 C2243 0.961 . S
H2231 C2243 0.959 . S
H2232 C2246 0.929 . S
H2233 C2247 0.931 . S
H2234 C2249 0.930 . S
C2235 H2223 0.930 . S
C2235 C2236 1.399 . S
C2235 C2240 1.399 . S
C2236 C2235 1.399 . S
C2236 C2237 1.376 . S
C2237 H2224 0.930 . S
C2237 C2236 1.376 . S
C2237 C2238 1.388 . S
C2238 H2225 0.930 . S
C2238 C2237 1.388 . S
C2238 C2239 1.390 . S
C2239 C2238 1.390 . S
C2239 C2240 1.394 . S
C2239 C2245 1.465 . S
C2240 C2235 1.399 . S
C2240 C2239 1.394 . S
C2240 C2241 1.516 . S
C2241 C2240 1.516 . S
C2241 C2242 1.502 . S
C2241 C2243 1.561 . S
C2241 C2244 1.526 . S
C2242 H2226 0.959 . S
C2242 H2227 0.959 . S
C2242 H2228 0.961 . S
C2242 C2241 1.502 . S
C2243 H2229 0.960 . S
C2243 H2230 0.961 . S
C2243 H2231 0.959 . S
C2243 C2241 1.561 . S
C2244 C2241 1.526 . S
C2244 C2245 1.396 . S
C2244 C2249 1.390 . S
C2245 C2239 1.465 . S
C2245 C2244 1.396 . S
C2245 C2246 1.399 . S
C2246 H2232 0.929 . S
C2246 C2245 1.399 . S
C2246 C2247 1.385 . S
C2247 H2233 0.931 . S
C2247 C2246 1.385 . S
C2247 C2248 1.389 . S
C2248 C2247 1.389 . S
C2248 C2249 1.387 . S
C2249 H2234 0.930 . S
C2249 C2244 1.390 . S
C2249 C2248 1.387 . S
H2250 C2262 0.930 . S
H2251 C2264 0.930 . S
H2252 C2265 0.930 . S
H2253 C2269 0.959 . S
H2254 C2269 0.959 . S
H2255 C2269 0.961 . S
H2256 C2270 0.960 . S
H2257 C2270 0.961 . S
H2258 C2270 0.959 . S
H2259 C2273 0.929 . S
H2260 C2274 0.931 . S
H2261 C2276 0.930 . S
C2262 H2250 0.930 . S
C2262 C2263 1.399 . S
C2262 C2267 1.399 . S
C2263 C2262 1.399 . S
C2263 C2264 1.376 . S
C2264 H2251 0.930 . S
C2264 C2263 1.376 . S
C2264 C2265 1.388 . S
C2265 H2252 0.930 . S
C2265 C2264 1.388 . S
C2265 C2266 1.390 . S
C2266 C2265 1.390 . S
C2266 C2267 1.394 . S
C2266 C2272 1.465 . S
C2267 C2262 1.399 . S
C2267 C2266 1.394 . S
C2267 C2268 1.516 . S
C2268 C2267 1.516 . S
C2268 C2269 1.502 . S
C2268 C2270 1.561 . S
C2268 C2271 1.526 . S
C2269 H2253 0.959 . S
C2269 H2254 0.959 . S
C2269 H2255 0.961 . S
C2269 C2268 1.502 . S
C2270 H2256 0.960 . S
C2270 H2257 0.961 . S
C2270 H2258 0.959 . S
C2270 C2268 1.561 . S
C2271 C2268 1.526 . S
C2271 C2272 1.396 . S
C2271 C2276 1.390 . S
C2272 C2266 1.465 . S
C2272 C2271 1.396 . S
C2272 C2273 1.399 . S
C2273 H2259 0.929 . S
C2273 C2272 1.399 . S
C2273 C2274 1.385 . S
C2274 H2260 0.931 . S
C2274 C2273 1.385 . S
C2274 C2275 1.389 . S
C2275 C2274 1.389 . S
C2275 C2276 1.387 . S
C2276 H2261 0.930 . S
C2276 C2271 1.390 . S
C2276 C2275 1.387 . S
H2277 C2289 0.930 . S
H2278 C2291 0.930 . S
H2279 C2292 0.930 . S
H2280 C2296 0.959 . S
H2281 C2296 0.959 . S
H2282 C2296 0.961 . S
H2283 C2297 0.960 . S
H2284 C2297 0.961 . S
H2285 C2297 0.959 . S
H2286 C2300 0.929 . S
H2287 C2301 0.931 . S
H2288 C2303 0.930 . S
C2289 H2277 0.930 . S
C2289 C2290 1.399 . S
C2289 C2294 1.399 . S
C2290 C2289 1.399 . S
C2290 C2291 1.376 . S
C2291 H2278 0.930 . S
C2291 C2290 1.376 . S
C2291 C2292 1.388 . S
C2292 H2279 0.930 . S
C2292 C2291 1.388 . S
C2292 C2293 1.390 . S
C2293 C2292 1.390 . S
C2293 C2294 1.394 . S
C2293 C2299 1.465 . S
C2294 C2289 1.399 . S
C2294 C2293 1.394 . S
C2294 C2295 1.516 . S
C2295 C2294 1.516 . S
C2295 C2296 1.502 . S
C2295 C2297 1.561 . S
C2295 C2298 1.526 . S
C2296 H2280 0.959 . S
C2296 H2281 0.959 . S
C2296 H2282 0.961 . S
C2296 C2295 1.502 . S
C2297 H2283 0.960 . S
C2297 H2284 0.961 . S
C2297 H2285 0.959 . S
C2297 C2295 1.561 . S
C2298 C2295 1.526 . S
C2298 C2299 1.396 . S
C2298 C2303 1.390 . S
C2299 C2293 1.465 . S
C2299 C2298 1.396 . S
C2299 C2300 1.399 . S
C2300 H2286 0.929 . S
C2300 C2299 1.399 . S
C2300 C2301 1.385 . S
C2301 H2287 0.931 . S
C2301 C2300 1.385 . S
C2301 C2302 1.389 . S
C2302 C2301 1.389 . S
C2302 C2303 1.387 . S
C2303 H2288 0.930 . S
C2303 C2298 1.390 . S
C2303 C2302 1.387 . S
H2304 C2316 0.930 . S
H2305 C2318 0.930 . S
H2306 C2319 0.930 . S
H2307 C2323 0.959 . S
H2308 C2323 0.959 . S
H2309 C2323 0.961 . S
H2310 C2324 0.960 . S
H2311 C2324 0.961 . S
H2312 C2324 0.959 . S
H2313 C2327 0.929 . S
H2314 C2328 0.931 . S
H2315 C2330 0.930 . S
C2316 H2304 0.930 . S
C2316 C2317 1.399 . S
C2316 C2321 1.399 . S
C2317 C2316 1.399 . S
C2317 C2318 1.376 . S
C2318 H2305 0.930 . S
C2318 C2317 1.376 . S
C2318 C2319 1.388 . S
C2319 H2306 0.930 . S
C2319 C2318 1.388 . S
C2319 C2320 1.390 . S
C2320 C2319 1.390 . S
C2320 C2321 1.394 . S
C2320 C2326 1.465 . S
C2321 C2316 1.399 . S
C2321 C2320 1.394 . S
C2321 C2322 1.516 . S
C2322 C2321 1.516 . S
C2322 C2323 1.502 . S
C2322 C2324 1.561 . S
C2322 C2325 1.526 . S
C2323 H2307 0.959 . S
C2323 H2308 0.959 . S
C2323 H2309 0.961 . S
C2323 C2322 1.502 . S
C2324 H2310 0.960 . S
C2324 H2311 0.961 . S
C2324 H2312 0.959 . S
C2324 C2322 1.561 . S
C2325 C2322 1.526 . S
C2325 C2326 1.396 . S
C2325 C2330 1.390 . S
C2326 C2320 1.465 . S
C2326 C2325 1.396 . S
C2326 C2327 1.399 . S
C2327 H2313 0.929 . S
C2327 C2326 1.399 . S
C2327 C2328 1.385 . S
C2328 H2314 0.931 . S
C2328 C2327 1.385 . S
C2328 C2329 1.389 . S
C2329 C2328 1.389 . S
C2329 C2330 1.387 . S
C2330 H2315 0.930 . S
C2330 C2325 1.390 . S
C2330 C2329 1.387 . S
H2331 C2343 0.930 . S
H2332 C2345 0.930 . S
H2333 C2346 0.930 . S
H2334 C2350 0.959 . S
H2335 C2350 0.959 . S
H2336 C2350 0.961 . S
H2337 C2351 0.960 . S
H2338 C2351 0.961 . S
H2339 C2351 0.959 . S
H2340 C2354 0.929 . S
H2341 C2355 0.931 . S
H2342 C2357 0.930 . S
C2343 H2331 0.930 . S
C2343 C2344 1.399 . S
C2343 C2348 1.399 . S
C2344 C2343 1.399 . S
C2344 C2345 1.376 . S
C2345 H2332 0.930 . S
C2345 C2344 1.376 . S
C2345 C2346 1.388 . S
C2346 H2333 0.930 . S
C2346 C2345 1.388 . S
C2346 C2347 1.390 . S
C2347 C2346 1.390 . S
C2347 C2348 1.394 . S
C2347 C2353 1.465 . S
C2348 C2343 1.399 . S
C2348 C2347 1.394 . S
C2348 C2349 1.516 . S
C2349 C2348 1.516 . S
C2349 C2350 1.502 . S
C2349 C2351 1.561 . S
C2349 C2352 1.526 . S
C2350 H2334 0.959 . S
C2350 H2335 0.959 . S
C2350 H2336 0.961 . S
C2350 C2349 1.502 . S
C2351 H2337 0.960 . S
C2351 H2338 0.961 . S
C2351 H2339 0.959 . S
C2351 C2349 1.561 . S
C2352 C2349 1.526 . S
C2352 C2353 1.396 . S
C2352 C2357 1.390 . S
C2353 C2347 1.465 . S
C2353 C2352 1.396 . S
C2353 C2354 1.399 . S
C2354 H2340 0.929 . S
C2354 C2353 1.399 . S
C2354 C2355 1.385 . S
C2355 H2341 0.931 . S
C2355 C2354 1.385 . S
C2355 C2356 1.389 . S
C2356 C2355 1.389 . S
C2356 C2357 1.387 . S
C2357 H2342 0.930 . S
C2357 C2352 1.390 . S
C2357 C2356 1.387 . S
H2358 C2370 0.930 . S
H2359 C2372 0.930 . S
H2360 C2373 0.930 . S
H2361 C2377 0.959 . S
H2362 C2377 0.959 . S
H2363 C2377 0.961 . S
H2364 C2378 0.960 . S
H2365 C2378 0.961 . S
H2366 C2378 0.959 . S
H2367 C2381 0.929 . S
H2368 C2382 0.931 . S
H2369 C2384 0.930 . S
C2370 H2358 0.930 . S
C2370 C2371 1.399 . S
C2370 C2375 1.399 . S
C2371 C2370 1.399 . S
C2371 C2372 1.376 . S
C2372 H2359 0.930 . S
C2372 C2371 1.376 . S
C2372 C2373 1.388 . S
C2373 H2360 0.930 . S
C2373 C2372 1.388 . S
C2373 C2374 1.390 . S
C2374 C2373 1.390 . S
C2374 C2375 1.394 . S
C2374 C2380 1.465 . S
C2375 C2370 1.399 . S
C2375 C2374 1.394 . S
C2375 C2376 1.516 . S
C2376 C2375 1.516 . S
C2376 C2377 1.502 . S
C2376 C2378 1.561 . S
C2376 C2379 1.526 . S
C2377 H2361 0.959 . S
C2377 H2362 0.959 . S
C2377 H2363 0.961 . S
C2377 C2376 1.502 . S
C2378 H2364 0.960 . S
C2378 H2365 0.961 . S
C2378 H2366 0.959 . S
C2378 C2376 1.561 . S
C2379 C2376 1.526 . S
C2379 C2380 1.396 . S
C2379 C2384 1.390 . S
C2380 C2374 1.465 . S
C2380 C2379 1.396 . S
C2380 C2381 1.399 . S
C2381 H2367 0.929 . S
C2381 C2380 1.399 . S
C2381 C2382 1.385 . S
C2382 H2368 0.931 . S
C2382 C2381 1.385 . S
C2382 C2383 1.389 . S
C2383 C2382 1.389 . S
C2383 C2384 1.387 . S
C2384 H2369 0.930 . S
C2384 C2379 1.390 . S
C2384 C2383 1.387 . S
H2385 C2397 0.930 . S
H2386 C2399 0.930 . S
H2387 C2400 0.930 . S
H2388 C2404 0.959 . S
H2389 C2404 0.959 . S
H2390 C2404 0.961 . S
H2391 C2405 0.960 . S
H2392 C2405 0.961 . S
H2393 C2405 0.959 . S
H2394 C2408 0.929 . S
H2395 C2409 0.931 . S
H2396 C2411 0.930 . S
C2397 H2385 0.930 . S
C2397 C2398 1.399 . S
C2397 C2402 1.399 . S
C2398 C2397 1.399 . S
C2398 C2399 1.376 . S
C2399 H2386 0.930 . S
C2399 C2398 1.376 . S
C2399 C2400 1.388 . S
C2400 H2387 0.930 . S
C2400 C2399 1.388 . S
C2400 C2401 1.390 . S
C2401 C2400 1.390 . S
C2401 C2402 1.394 . S
C2401 C2407 1.465 . S
C2402 C2397 1.399 . S
C2402 C2401 1.394 . S
C2402 C2403 1.516 . S
C2403 C2402 1.516 . S
C2403 C2404 1.502 . S
C2403 C2405 1.561 . S
C2403 C2406 1.526 . S
C2404 H2388 0.959 . S
C2404 H2389 0.959 . S
C2404 H2390 0.961 . S
C2404 C2403 1.502 . S
C2405 H2391 0.960 . S
C2405 H2392 0.961 . S
C2405 H2393 0.959 . S
C2405 C2403 1.561 . S
C2406 C2403 1.526 . S
C2406 C2407 1.396 . S
C2406 C2411 1.390 . S
C2407 C2401 1.465 . S
C2407 C2406 1.396 . S
C2407 C2408 1.399 . S
C2408 H2394 0.929 . S
C2408 C2407 1.399 . S
C2408 C2409 1.385 . S
C2409 H2395 0.931 . S
C2409 C2408 1.385 . S
C2409 C2410 1.389 . S
C2410 C2409 1.389 . S
C2410 C2411 1.387 . S
C2411 H2396 0.930 . S
C2411 C2406 1.390 . S
C2411 C2410 1.387 . S
C967 C147 1.434 . S
C979 C265 1.353 . S
C994 C158 1.473 . S
C1006 C349 1.411 . S
C1021 C136 1.455 . S
C1033 C429 1.420 . S
C1048 C125 1.436 . S
C1060 C345 1.422 1_556 S
C1087 C433 1.415 . S
C1075 C103 1.443 . S
C1102 C114 1.389 . S
C1114 C261 1.413 1_556 S
C1141 C254 1.416 . S
C1129 C131 1.494 . S
C1168 C338 1.459 . S
C1156 C109 1.511 . S
C1183 C120 1.529 . S
C1195 C440 1.445 1_556 S
C1210 C153 1.483 . S
C1222 C356 1.410 . S
C1237 C164 1.473 . S
C1249 C422 1.430 . S
C1276 C272 1.455 . S
C1264 C142 1.443 . S
C1303 C517 1.347 . S
C1291 C15 1.432 . S
C1318 C26 1.471 . S
C1330 C601 1.408 . S
C1345 C4 1.425 . S
C1357 C681 1.442 . S
C1372 C191 1.436 . S
C1384 C597 1.423 . S
C1399 C169 1.431 . S
C1411 C685 1.392 . S
C1426 C180 1.387 . S
C1438 C513 1.390 . S
C1453 C197 1.515 . S
C1465 C506 1.465 . S
C1480 C175 1.506 . S
C1492 C590 1.426 . S
C1519 C692 1.443 . S
C1507 C186 1.529 . S
C1534 C21 1.461 . S
C1546 C608 1.462 . S
C1573 C674 1.377 . S
C1561 C32 1.460 . S
C1588 C10 1.481 . S
C1600 C524 1.396 . S
C1627 C769 1.348 . S
C1615 C81 1.433 . S
C1642 C92 1.469 . S
C1654 C853 1.401 . S
C1681 C933 1.436 . S
C1669 C70 1.427 . S
C1708 C849 1.419 . S
C1696 C59 1.407 . S
C1735 C937 1.416 . S
C1723 C37 1.442 . S
C1750 C48 1.414 . S
C1762 C765 1.382 . S
C1777 C65 1.476 . S
C1789 C758 1.408 . S
C1804 C43 1.512 . S
C1816 C842 1.462 . S
C1843 C944 1.443 . S
C1831 C54 1.529 . S
C1858 C87 1.500 . S
C1870 C860 1.418 . S
C1885 C98 1.487 . S
C1897 C926 1.440 . S
C1912 C76 1.487 . S
C1924 C776 1.417 . S
C1939 C170 1.570 . S
C1951 C268 1.470 . S
C1978 C352 1.413 . S
C1966 C181 1.593 . S
C1993 C192 1.575 . S
C2005 C424 1.347 . S
C2020 C71 1.582 . S
C2032 C340 1.320 . S
C2047 C82 1.550 . S
C2059 C436 1.408 . S
C2086 C256 1.391 . S
C2074 C93 1.538 . S
C2101 C38 1.570 . S
C2113 C520 1.475 . S
C2128 C49 1.589 . S
C2140 C604 1.433 . S
C2155 C60 1.564 . S
C2167 C676 1.314 . S
C2182 C137 1.582 . S
C2194 C592 1.320 . S
C2221 C688 1.379 . S
C2209 C148 1.553 . S
C2236 C159 1.538 . S
C2248 C508 1.390 . S
C2263 C104 1.532 . S
C2275 C772 1.375 . S
C2290 C115 1.592 . S
C2302 C856 1.467 . S
C2329 C928 1.442 . S
C2317 C126 1.553 . S
C2344 C5 1.581 . S
C2356 C844 1.452 . S
C2371 C16 1.588 . S
C2383 C940 1.454 . S
C2398 C27 1.500 . S
C2410 C760 1.329 . S
