# Generated by pormake.
# Topology pyr, (3,6)-cn, num edge types: 1
# Building blocks:
#     Node 0, Type 0, BuildingBlock: BELTOD_clean_linker_0, # of connection points: 3
#     Node 1, Type 0, BuildingBlock: BELTOD_clean_linker_0, # of connection points: 3
#     Node 2, Type 0, BuildingBlock: BELTOD_clean_linker_0, # of connection points: 3
#     Node 3, Type 0, BuildingBlock: BELTOD_clean_linker_0, # of connection points: 3
#     Node 4, Type 0, BuildingBlock: BELTOD_clean_linker_0, # of connection points: 3
#     Node 5, Type 0, BuildingBlock: BELTOD_clean_linker_0, # of connection points: 3
#     Node 6, Type 0, BuildingBlock: BELTOD_clean_linker_0, # of connection points: 3
#     Node 7, Type 0, BuildingBlock: BELTOD_clean_linker_0, # of connection points: 3
#     Node 8, Type 1, BuildingBlock: BETDIP_clean_sbu_0, # of connection points: 6
#     Node 9, Type 1, BuildingBlock: BETDIP_clean_sbu_0, # of connection points: 6
#     Node 10, Type 1, BuildingBlock: BETDIP_clean_sbu_0, # of connection points: 6
#     Node 11, Type 1, BuildingBlock: BETDIP_clean_sbu_0, # of connection points: 6
#     Edge 12, Type (0, 1), BuildingBlock: ZUJKAS_clean_linker_0, # of connection points: 2
#     Edge 13, Type (0, 1), BuildingBlock: ZUJKAS_clean_linker_0, # of connection points: 2
#     Edge 14, Type (0, 1), BuildingBlock: ZUJKAS_clean_linker_0, # of connection points: 2
#     Edge 15, Type (0, 1), BuildingBlock: ZUJKAS_clean_linker_0, # of connection points: 2
#     Edge 16, Type (0, 1), BuildingBlock: ZUJKAS_clean_linker_0, # of connection points: 2
#     Edge 17, Type (0, 1), BuildingBlock: ZUJKAS_clean_linker_0, # of connection points: 2
#     Edge 18, Type (0, 1), BuildingBlock: ZUJKAS_clean_linker_0, # of connection points: 2
#     Edge 19, Type (0, 1), BuildingBlock: ZUJKAS_clean_linker_0, # of connection points: 2
#     Edge 20, Type (0, 1), BuildingBlock: ZUJKAS_clean_linker_0, # of connection points: 2
#     Edge 21, Type (0, 1), BuildingBlock: ZUJKAS_clean_linker_0, # of connection points: 2
#     Edge 22, Type (0, 1), BuildingBlock: ZUJKAS_clean_linker_0, # of connection points: 2
#     Edge 23, Type (0, 1), BuildingBlock: ZUJKAS_clean_linker_0, # of connection points: 2
#     Edge 24, Type (0, 1), BuildingBlock: ZUJKAS_clean_linker_0, # of connection points: 2
#     Edge 25, Type (0, 1), BuildingBlock: ZUJKAS_clean_linker_0, # of connection points: 2
#     Edge 26, Type (0, 1), BuildingBlock: ZUJKAS_clean_linker_0, # of connection points: 2
#     Edge 27, Type (0, 1), BuildingBlock: ZUJKAS_clean_linker_0, # of connection points: 2
#     Edge 28, Type (0, 1), BuildingBlock: ZUJKAS_clean_linker_0, # of connection points: 2
#     Edge 29, Type (0, 1), BuildingBlock: ZUJKAS_clean_linker_0, # of connection points: 2
#     Edge 30, Type (0, 1), BuildingBlock: ZUJKAS_clean_linker_0, # of connection points: 2
#     Edge 31, Type (0, 1), BuildingBlock: ZUJKAS_clean_linker_0, # of connection points: 2
#     Edge 32, Type (0, 1), BuildingBlock: ZUJKAS_clean_linker_0, # of connection points: 2
#     Edge 33, Type (0, 1), BuildingBlock: ZUJKAS_clean_linker_0, # of connection points: 2
#     Edge 34, Type (0, 1), BuildingBlock: ZUJKAS_clean_linker_0, # of connection points: 2
#     Edge 35, Type (0, 1), BuildingBlock: ZUJKAS_clean_linker_0, # of connection points: 2
# Relax obj value: 0.104
# Max RMSD: 0.181
# Mean RMSD: 0.084
data_MOF--net-pyr--node1-BETDIP_clean_sbu_0--node2-BELTOD_clean_linker_0--edge1-ZUJKAS_clean_linker_0
_symmetry_space_group_name_H-M    P1
_symmetry_Int_Tables_number       1
_symmetry_cell_setting            triclinic
loop_
_symmetry_equiv_pos_as_xyz
'x, y, z'
_cell_length_a     51.238449
_cell_length_b     56.382084
_cell_length_c     54.856937
_cell_angle_alpha  88.921209
_cell_angle_beta   92.750415
_cell_angle_gamma 103.13722
loop_
_atom_site_label
_atom_site_type_symbol
_atom_site_fract_x
_atom_site_fract_y
_atom_site_fract_z
_atom_type_partial_charge
P0 P 0.35602 0.29729 0.23324 0.0
H1 H 0.38024 0.2964 0.18616 0.0
H2 H 0.40096 0.26674 0.16721 0.0
H3 H 0.3869 0.22083 0.23143 0.0
H4 H 0.36662 0.25071 0.25036 0.0
H5 H 0.34904 0.34713 0.22771 0.0
H6 H 0.32078 0.36584 0.19983 0.0
H7 H 0.29269 0.29701 0.16299 0.0
H8 H 0.32161 0.2787 0.19048 0.0
H9 H 0.35057 0.30603 0.28516 0.0
H10 H 0.30943 0.25656 0.22944 0.0
O11 O 0.38034 0.31828 0.24686 0.0
H12 H 0.31773 0.28653 0.31454 0.0
H13 H 0.2766 0.23694 0.25867 0.0
C14 C 0.37116 0.27539 0.21934 0.0
C15 C 0.38144 0.27986 0.19606 0.0
C16 C 0.39326 0.26289 0.18525 0.0
C17 C 0.39535 0.24133 0.19773 0.0
C18 C 0.3857 0.2373 0.22138 0.0
C19 C 0.37384 0.25426 0.23213 0.0
C20 C 0.33771 0.31165 0.21091 0.0
C21 C 0.33719 0.33621 0.21333 0.0
C22 C 0.32083 0.34682 0.19751 0.0
C23 C 0.30441 0.33291 0.17918 0.0
C24 C 0.30537 0.30835 0.17662 0.0
C25 C 0.32181 0.29781 0.19242 0.0
C26 C 0.33244 0.28268 0.25516 0.0
C27 C 0.33454 0.29092 0.27927 0.0
C28 C 0.3158 0.27972 0.29606 0.0
C29 C 0.29454 0.26023 0.2889 0.0
C30 C 0.29252 0.25212 0.26466 0.0
C31 C 0.31134 0.26324 0.24796 0.0
P32 P 0.22778 0.80415 0.67583 0.0
H33 H 0.28156 0.82466 0.6963 0.0
H34 H 0.29925 0.83419 0.73789 0.0
H35 H 0.22114 0.80234 0.76519 0.0
H36 H 0.20345 0.79323 0.72328 0.0
H37 H 0.23306 0.78432 0.62828 0.0
H38 H 0.24094 0.74538 0.61574 0.0
H39 H 0.23036 0.71812 0.68963 0.0
H40 H 0.22276 0.75732 0.7021 0.0
H41 H 0.20466 0.83976 0.6996 0.0
H42 H 0.18051 0.7858 0.64327 0.0
O43 O 0.24789 0.8238 0.65797 0.0
H44 H 0.16418 0.85461 0.69078 0.0
H45 H 0.13985 0.80088 0.63413 0.0
C46 C 0.24108 0.80884 0.70674 0.0
C47 C 0.26826 0.81964 0.71123 0.0
C48 C 0.2784 0.82487 0.73507 0.0
C49 C 0.26154 0.81917 0.75485 0.0
C50 C 0.23452 0.80731 0.75031 0.0
C51 C 0.22441 0.80207 0.72642 0.0
C52 C 0.22801 0.7739 0.6662 0.0
C53 C 0.232 0.76983 0.6417 0.0
C54 C 0.23628 0.74746 0.63452 0.0
C55 C 0.23656 0.72872 0.65177 0.0
C56 C 0.23069 0.73234 0.67602 0.0
C57 C 0.22631 0.75475 0.68316 0.0
C58 C 0.1953 0.81123 0.67254 0.0
C59 C 0.19019 0.83051 0.6859 0.0
C60 C 0.16699 0.83903 0.68083 0.0
C61 C 0.14875 0.82881 0.66186 0.0
C62 C 0.15356 0.80906 0.64888 0.0
C63 C 0.17671 0.80036 0.65417 0.0
P64 P 0.65697 0.33628 0.82774 0.0
H65 H 0.70807 0.32732 0.84635 0.0
H66 H 0.74453 0.35046 0.87242 0.0
H67 H 0.70005 0.40632 0.87989 0.0
H68 H 0.66369 0.38307 0.85327 0.0
H69 H 0.61973 0.29053 0.8145 0.0
H70 H 0.59605 0.25624 0.83875 0.0
H71 H 0.62158 0.29762 0.90457 0.0
H72 H 0.64546 0.33171 0.88019 0.0
H73 H 0.67925 0.3805 0.80093 0.0
H74 H 0.6008 0.3345 0.81037 0.0
O75 O 0.67149 0.32094 0.80878 0.0
H76 H 0.66062 0.40428 0.77005 0.0
H77 H 0.58168 0.35862 0.77963 0.0
C78 C 0.68345 0.35373 0.84741 0.0
C79 C 0.7062 0.34461 0.85348 0.0
C80 C 0.72696 0.35779 0.86862 0.0
C81 C 0.72533 0.38034 0.87827 0.0
C82 C 0.70218 0.38923 0.87249 0.0
C83 C 0.68135 0.37595 0.85732 0.0
C84 C 0.6346 0.31365 0.84545 0.0
C85 C 0.6198 0.2924 0.83412 0.0
C86 C 0.60621 0.27277 0.84806 0.0
C87 C 0.60715 0.27395 0.87373 0.0
C88 C 0.62085 0.29584 0.88492 0.0
C89 C 0.63437 0.31549 0.87092 0.0
C90 C 0.64139 0.35603 0.80843 0.0
C91 C 0.65782 0.37592 0.79684 0.0
C92 C 0.64707 0.38956 0.77909 0.0
C93 C 0.61954 0.38354 0.77226 0.0
C94 C 0.60299 0.36372 0.78421 0.0
C95 C 0.61385 0.35004 0.80204 0.0
P96 P 0.8437 0.69763 0.31447 0.0
H97 H 0.86707 0.74788 0.29987 0.0
H98 H 0.88849 0.78434 0.32291 0.0
H99 H 0.88726 0.74088 0.38868 0.0
H100 H 0.86585 0.70433 0.36539 0.0
H101 H 0.8281 0.64782 0.2959 0.0
H102 H 0.84765 0.62576 0.2665 0.0
H103 H 0.91677 0.68598 0.26376 0.0
H104 H 0.89728 0.70764 0.29383 0.0
H105 H 0.79227 0.70483 0.32892 0.0
H106 H 0.84145 0.65348 0.34556 0.0
O107 O 0.82621 0.70939 0.29287 0.0
H108 H 0.7584 0.68281 0.35576 0.0
H109 H 0.80758 0.63132 0.3731 0.0
C110 C 0.8645 0.72333 0.33089 0.0
C111 C 0.87169 0.74607 0.31919 0.0
C112 C 0.88377 0.76701 0.33246 0.0
C113 C 0.88921 0.76572 0.35779 0.0
C114 C 0.88339 0.74262 0.36923 0.0
C115 C 0.87111 0.72165 0.35591 0.0
C116 C 0.86153 0.67914 0.29782 0.0
C117 C 0.8479 0.65597 0.28967 0.0
C118 C 0.85895 0.64351 0.27241 0.0
C119 C 0.8838 0.65405 0.2624 0.0
C120 C 0.8978 0.67703 0.27116 0.0
C121 C 0.88669 0.68947 0.28851 0.0
C122 C 0.81914 0.68051 0.33473 0.0
C123 C 0.79576 0.6887 0.33833 0.0
C124 C 0.77645 0.67617 0.35397 0.0
C125 C 0.78012 0.65519 0.36672 0.0
C126 C 0.80385 0.64718 0.36335 0.0
C127 C 0.82328 0.65985 0.34764 0.0
P128 P 0.74313 0.84037 0.89056 0.0
H129 H 0.72236 0.86295 0.93045 0.0
H130 H 0.67883 0.87152 0.93683 0.0
H131 H 0.64707 0.83379 0.87015 0.0
H132 H 0.69127 0.82569 0.86363 0.0
H133 H 0.77994 0.81316 0.87232 0.0
H134 H 0.78915 0.77377 0.88349 0.0
H135 H 0.72463 0.76123 0.93341 0.0
H136 H 0.71527 0.80079 0.92189 0.0
H137 H 0.76711 0.88808 0.87074 0.0
H138 H 0.73486 0.81578 0.84307 0.0
O139 O 0.76528 0.85785 0.90977 0.0
H140 H 0.77916 0.90256 0.82971 0.0
H141 H 0.74779 0.82986 0.80199 0.0
C142 C 0.7101 0.84404 0.89638 0.0
C143 C 0.70603 0.85634 0.91727 0.0
C144 C 0.68097 0.86103 0.92102 0.0
C145 C 0.65941 0.85333 0.90399 0.0
C146 C 0.66334 0.84019 0.88345 0.0
C147 C 0.68853 0.8355 0.87974 0.0
C148 C 0.7464 0.80959 0.8957 0.0
C149 C 0.76714 0.80162 0.88503 0.0
C150 C 0.77241 0.77907 0.89146 0.0
C151 C 0.75743 0.7643 0.90916 0.0
C152 C 0.7364 0.7722 0.91964 0.0
C153 C 0.73095 0.79472 0.91296 0.0
C154 C 0.75093 0.85072 0.86001 0.0
C155 C 0.76286 0.87526 0.85582 0.0
C156 C 0.76982 0.88349 0.83235 0.0
C157 C 0.76489 0.86728 0.81259 0.0
C158 C 0.75185 0.84285 0.81675 0.0
C159 C 0.74471 0.83469 0.84027 0.0
P160 P 0.85018 0.31049 0.32626 0.0
H161 H 0.85286 0.35019 0.36059 0.0
H162 H 0.81828 0.36401 0.38218 0.0
H163 H 0.75833 0.30347 0.35268 0.0
H164 H 0.79284 0.28985 0.33122 0.0
H165 H 0.90297 0.29987 0.32359 0.0
H166 H 0.92363 0.26889 0.34306 0.0
H167 H 0.8521 0.24235 0.38326 0.0
H168 H 0.83193 0.27376 0.36414 0.0
H169 H 0.82908 0.33121 0.2827 0.0
H170 H 0.83376 0.25979 0.30944 0.0
O171 O 0.87337 0.33528 0.31917 0.0
H172 H 0.80212 0.3128 0.24692 0.0
H173 H 0.80667 0.24135 0.27417 0.0
C174 C 0.8253 0.31937 0.34388 0.0
C175 C 0.83228 0.33987 0.35889 0.0
C176 C 0.81254 0.34767 0.37129 0.0
C177 C 0.78554 0.335 0.36884 0.0
C178 C 0.77887 0.31389 0.35451 0.0
C179 C 0.7986 0.30607 0.34227 0.0
C180 C 0.86619 0.28944 0.34282 0.0
C181 C 0.89197 0.28765 0.33694 0.0
C182 C 0.90362 0.26975 0.34789 0.0
C183 C 0.88952 0.2531 0.36473 0.0
C184 C 0.86371 0.25512 0.3707 0.0
C185 C 0.85212 0.27308 0.35976 0.0
C186 C 0.83385 0.29694 0.29849 0.0
C187 C 0.82471 0.31162 0.28065 0.0
C188 C 0.8091 0.30106 0.26036 0.0
C189 C 0.80231 0.27561 0.25767 0.0
C190 C 0.81194 0.26103 0.27544 0.0
C191 C 0.82746 0.27159 0.29571 0.0
P192 P 0.38357 0.67648 0.20372 0.0
H193 H 0.36701 0.65508 0.15589 0.0
H194 H 0.32362 0.63717 0.13622 0.0
H195 H 0.28422 0.65247 0.20009 0.0
H196 H 0.32817 0.66994 0.22 0.0
H197 H 0.43486 0.71098 0.19798 0.0
H198 H 0.44673 0.75334 0.18435 0.0
H199 H 0.3632 0.75644 0.18366 0.0
H200 H 0.35146 0.71384 0.19696 0.0
H201 H 0.35612 0.63421 0.23197 0.0
H202 H 0.4205 0.69737 0.24444 0.0
O203 O 0.40575 0.66485 0.18935 0.0
H204 H 0.36637 0.61773 0.27167 0.0
H205 H 0.43181 0.68045 0.28382 0.0
C206 C 0.35091 0.66339 0.18963 0.0
C207 C 0.34909 0.65446 0.16579 0.0
C208 C 0.32414 0.64441 0.15442 0.0
C209 C 0.30028 0.64332 0.16651 0.0
C210 C 0.30215 0.65265 0.19035 0.0
C211 C 0.32724 0.66272 0.20175 0.0
C212 C 0.39223 0.70905 0.19821 0.0
C213 C 0.41911 0.72086 0.19524 0.0
C214 C 0.42589 0.7452 0.1875 0.0
C215 C 0.40591 0.75837 0.1826 0.0
C216 C 0.37908 0.74678 0.18677 0.0
C217 C 0.37233 0.72239 0.19458 0.0
C218 C 0.38697 0.66746 0.23537 0.0
C219 C 0.37203 0.64493 0.24351 0.0
C220 C 0.37829 0.63524 0.26616 0.0
C221 C 0.40018 0.64754 0.28105 0.0
C222 C 0.41461 0.67052 0.27315 0.0
C223 C 0.40812 0.6803 0.25053 0.0
P224 P 0.1599 0.33831 0.73076 0.0
H225 H 0.17756 0.29793 0.71047 0.0
H226 H 0.1558 0.26308 0.68558 0.0
H227 H 0.08121 0.28655 0.68578 0.0
H228 H 0.10336 0.32156 0.71123 0.0
H229 H 0.20729 0.3771 0.74165 0.0
H230 H 0.24189 0.40106 0.71623 0.0
H231 H 0.19746 0.36867 0.65164 0.0
H232 H 0.16285 0.34494 0.67714 0.0
H233 H 0.11935 0.31947 0.76623 0.0
H234 H 0.15732 0.3898 0.73747 0.0
O235 O 0.17966 0.32735 0.75095 0.0
H236 H 0.09937 0.33913 0.79757 0.0
H237 H 0.13799 0.40962 0.76899 0.0
C238 C 0.14204 0.31219 0.71308 0.0
C239 C 0.15645 0.29553 0.70535 0.0
C240 C 0.14399 0.27566 0.69084 0.0
C241 C 0.11669 0.2719 0.68346 0.0
C242 C 0.10218 0.28867 0.69128 0.0
C243 C 0.11481 0.30875 0.70581 0.0
C244 C 0.1825 0.35907 0.71141 0.0
C245 C 0.20474 0.37548 0.72199 0.0
C246 C 0.22452 0.38921 0.70741 0.0
C247 C 0.22263 0.38663 0.68187 0.0
C248 C 0.19977 0.37083 0.67126 0.0
C249 C 0.17984 0.35731 0.68587 0.0
C250 C 0.13966 0.35302 0.7492 0.0
C251 C 0.1229 0.33915 0.76627 0.0
C252 C 0.11179 0.35049 0.78448 0.0
C253 C 0.11726 0.37609 0.78618 0.0
C254 C 0.13308 0.38992 0.76829 0.0
C255 C 0.14422 0.37853 0.75012 0.0
Tb256 Tb 0.96957 1.01546 0.51993 0.0
Tb257 Tb 0.02899 0.03197 0.50528 0.0
C258 C 0.92307 0.99019 0.52458 0.0
C259 C 0.90825 0.97978 0.54595 0.0
C260 C 0.8803 0.97163 0.54412 0.0
C261 C 0.86621 0.96186 0.56457 0.0
C262 C 0.87992 0.96007 0.58716 0.0
C263 C 0.90802 0.96826 0.58878 0.0
C264 C 0.92201 0.97813 0.5684 0.0
C265 C 0.99575 0.05372 0.54645 0.0
C266 C 0.01611 0.99748 0.55038 0.0
C267 C 0.07556 0.05225 0.49342 0.0
C268 C 0.09079 0.07486 0.48266 0.0
C269 C 0.07844 0.09364 0.47488 0.0
C270 C 0.09295 0.11379 0.46221 0.0
C271 C 0.12006 0.11544 0.45737 0.0
C272 C 0.13246 0.09688 0.46602 0.0
C273 C 0.11792 0.07678 0.4785 0.0
C274 C 1.00152 0.98909 0.48908 0.0
C275 C 0.98377 0.05573 0.47977 0.0
O276 O 0.94363 0.98098 0.51993 0.0
O277 O 0.92861 1.01404 0.52298 0.0
O278 O 0.004 0.04241 0.53008 0.0
O279 O 0.97092 0.04263 0.54906 0.0
O280 O 0.99027 0.9934 0.54371 0.0
O281 O 0.03459 1.0144 0.53996 0.0
O282 O 0.0669 0.05353 0.51537 0.0
O283 O 0.05772 0.03847 0.47874 0.0
O284 O 0.99278 1.00818 0.49069 0.0
O285 O 0.02673 0.99405 0.49568 0.0
O286 O 0.00957 0.05814 0.48602 0.0
O287 O 0.96489 0.03779 0.48816 0.0
H288 H 0.86939 0.97292 0.52691 0.0
H289 H 0.84456 0.95601 0.56277 0.0
H290 H 0.91929 0.9668 0.60573 0.0
H291 H 0.94362 0.98443 0.57017 0.0
H292 H 0.05753 0.09245 0.47816 0.0
H293 H 0.08293 0.1279 0.45597 0.0
H294 H 0.15314 0.09739 0.46229 0.0
H295 H 0.12769 0.06234 0.48429 0.0
Tb296 Tb 0.53115 0.03348 0.04894 0.0
Tb297 Tb 0.47006 1.01528 0.03361 0.0
C298 C 0.57824 0.05587 0.06008 0.0
C299 C 0.59315 0.07976 0.0687 0.0
C300 C 0.5801 0.09822 0.07417 0.0
C301 C 0.59469 0.11994 0.08471 0.0
C302 C 0.62252 0.1235 0.08966 0.0
C303 C 0.63551 0.10521 0.08323 0.0
C304 C 0.62092 0.08354 0.07289 0.0
C305 C 0.50609 0.99078 0.06637 0.0
C306 C 0.48673 0.05616 0.07276 0.0
C307 C 0.42407 0.98818 0.02927 0.0
C308 C 0.40887 0.97511 1.00842 0.0
C309 C 0.42059 0.97634 0.98572 0.0
C310 C 0.40724 0.96224 0.96635 0.0
C311 C 0.38189 0.94674 0.96933 0.0
C312 C 0.36989 0.94607 0.99195 0.0
C313 C 0.38338 0.96011 1.01141 0.0
C314 C 0.49362 0.05376 1.00702 0.0
C315 C 0.51494 0.99873 1.00413 0.0
O316 O 0.56768 0.05491 0.03776 0.0
O317 O 0.56212 0.0428 0.07563 0.0
O318 O 0.49651 1.00939 0.06333 0.0
O319 O 0.53104 0.9962 0.06084 0.0
O320 O 0.51215 0.05909 0.06696 0.0
O321 O 0.4674 0.03799 0.06438 0.0
O322 O 0.44551 0.98039 0.03632 0.0
O323 O 0.42862 1.01205 0.02811 0.0
O324 O 0.50313 0.04253 1.02384 0.0
O325 O 0.46865 0.04244 1.00383 0.0
O326 O 0.48955 0.99415 1.01029 0.0
O327 O 0.53407 1.0156 1.0149 0.0
H328 H 0.55866 0.09561 0.0708 0.0
H329 H 0.58418 0.13378 0.08928 0.0
H330 H 0.65681 0.10718 0.08715 0.0
H331 H 0.63125 0.06941 0.06881 0.0
H332 H 0.44029 0.98788 0.98314 0.0
H333 H 0.4168 0.96339 0.94904 0.0
H334 H 0.35045 0.93418 0.99479 0.0
H335 H 0.37418 0.95888 0.02891 0.0
Tb336 Tb 0.50595 0.54358 0.5401 0.0
Tb337 Tb 0.5085 0.49176 0.52156 0.0
C338 C 0.49078 0.58168 0.54899 0.0
C339 C 0.46589 0.58697 0.55752 0.0
C340 C 0.45459 0.60432 0.54492 0.0
C341 C 0.43064 0.60924 0.55221 0.0
C342 C 0.41759 0.59694 0.57233 0.0
C343 C 0.42894 0.57954 0.58495 0.0
C344 C 0.45284 0.57452 0.57756 0.0
C345 C 0.53161 0.5175 0.56879 0.0
C346 C 0.45676 0.49716 0.54822 0.0
C347 C 0.52333 0.45242 0.52119 0.0
C348 C 0.54108 0.4419 0.50665 0.0
C349 C 0.55027 0.42183 0.51593 0.0
C350 C 0.5693 0.41299 0.50365 0.0
C351 C 0.57943 0.42412 0.48184 0.0
C352 C 0.56966 0.44392 0.47227 0.0
C353 C 0.55072 0.45285 0.48468 0.0
C354 C 0.49 0.51771 0.48647 0.0
C355 C 0.55457 0.53913 0.50902 0.0
O356 O 0.48892 0.57216 0.52723 0.0
O357 O 0.50484 0.57128 0.56469 0.0
O358 O 0.51062 0.50979 0.55569 0.0
O359 O 0.5384 0.5411 0.56696 0.0
O360 O 0.46633 0.52116 0.54887 0.0
O361 O 0.47042 0.482 0.53958 0.0
O362 O 0.53558 0.47126 0.5343 0.0
O363 O 0.50093 0.45545 0.5102 0.0
O364 O 0.49774 0.52325 0.50808 0.0
O365 O 0.49222 0.4954 0.48374 0.0
O366 O 0.54725 0.515 0.51138 0.0
O367 O 0.54013 0.55394 0.51705 0.0
H368 H 0.4643 0.61406 0.52939 0.0
H369 H 0.42256 0.62298 0.54234 0.0
H370 H 0.4192 0.56965 0.60039 0.0
H371 H 0.46101 0.56084 0.58745 0.0
H372 H 0.54315 0.4133 0.53298 0.0
H373 H 0.57624 0.39756 0.51131 0.0
H374 H 0.57731 0.45298 0.45563 0.0
H375 H 0.54407 0.46861 0.47746 0.0
Tb376 Tb 0.00523 0.53754 1.01034 0.0
Tb377 Tb 0.00894 0.49578 0.04337 0.0
C378 C 0.98937 0.56946 0.98494 0.0
C379 C 0.9674 0.58221 0.98559 0.0
C380 C 0.94185 0.57026 0.99307 0.0
C381 C 0.92087 0.5824 0.99218 0.0
C382 C 0.92523 0.60673 0.98411 0.0
C383 C 0.95102 0.61877 0.97729 0.0
C384 C 0.97189 0.60658 0.97797 0.0
C385 C 0.05292 0.54067 0.03229 0.0
C386 C 0.9837 0.53584 0.0645 0.0
C387 C 0.02437 0.4637 0.06894 0.0
C388 C 0.04646 0.45101 0.06914 0.0
C389 C 0.07227 0.46306 0.06249 0.0
C390 C 0.09357 0.45137 0.06517 0.0
C391 C 0.08937 0.4274 0.07438 0.0
C392 C 0.06318 0.41507 0.07986 0.0
C393 C 0.04196 0.42682 0.07734 0.0
C394 C 0.9613 0.49291 1.02138 0.0
C395 C 0.03016 0.49742 0.98902 0.0
O396 O 0.98236 0.54614 0.98031 0.0
O397 O 0.00801 0.57462 1.0024 0.0
O398 O 0.03049 0.53269 0.04137 0.0
O399 O 0.04906 0.54881 1.01047 0.0
O400 O 0.982 0.54375 0.04165 0.0
O401 O 0.99601 0.51813 0.07013 0.0
O402 O 0.03112 0.48699 0.07377 0.0
O403 O 0.00637 0.45864 0.05093 0.0
O404 O 0.9838 0.50068 1.01242 0.0
O405 O 0.96501 0.48468 0.04319 0.0
O406 O 0.03198 0.48947 1.01187 0.0
O407 O 0.01797 0.51523 0.98352 0.0
H408 H 0.93802 0.55146 0.99925 0.0
H409 H 0.90124 0.57277 0.99771 0.0
H410 H 0.95489 0.63742 0.9707 0.0
H411 H 0.99147 0.61606 0.97216 0.0
H412 H 0.07615 0.48173 0.05594 0.0
H413 H 0.11348 0.46148 0.06096 0.0
H414 H 0.05914 0.39645 0.08652 0.0
H415 H 0.02212 0.41718 0.08235 0.0
H416 H 0.30411 0.24703 0.33614 0.0
H417 H 0.2714 0.22586 0.36488 0.0
H418 H 0.20742 0.22529 0.3107 0.0
H419 H 0.24001 0.24637 0.28183 0.0
H420 H 0.22656 0.23878 0.38336 0.0
H421 H 0.19721 0.15346 0.32965 0.0
H422 H 0.22654 0.17694 0.32343 0.0
H423 H 0.19378 0.18051 0.31324 0.0
C424 C 0.28305 0.24257 0.33042 0.0
C425 C 0.27465 0.2482 0.30666 0.0
C426 C 0.26441 0.23043 0.34683 0.0
C427 C 0.23706 0.22368 0.33978 0.0
C428 C 0.22851 0.22985 0.31631 0.0
H429 H 0.10242 0.13447 0.41513 0.0
H430 H 0.129 0.16368 0.38723 0.0
C431 C 0.24714 0.24188 0.29985 0.0
C432 C 0.2176 0.20993 0.35697 0.0
H433 H 0.17352 0.15537 0.36511 0.0
C434 C 0.2149 0.22056 0.37937 0.0
C435 C 0.20238 0.18619 0.35167 0.0
C436 C 0.20521 0.17346 0.3283 0.0
C437 C 0.19739 0.20805 0.39668 0.0
C438 C 0.18252 0.18418 0.39153 0.0
C439 C 0.18485 0.17373 0.36894 0.0
C440 C 0.16564 0.16903 0.40979 0.0
C441 C 0.19486 0.22054 0.42024 0.0
C442 C 0.17736 0.16263 0.43185 0.0
C443 C 0.16221 0.14608 0.44787 0.0
C444 C 0.13509 0.13546 0.44203 0.0
C445 C 0.12316 0.14255 0.4203 0.0
C446 C 0.13835 0.1591 0.40427 0.0
H447 H 0.20098 0.24068 0.41836 0.0
H448 H 0.17397 0.21553 0.4264 0.0
H449 H 0.2082 0.21481 0.4346 0.0
H450 H 0.19849 0.16971 0.43628 0.0
H451 H 0.17192 0.14112 0.46455 0.0
H452 H 0.31009 0.81715 0.77693 0.0
H453 H 0.3291 0.83504 0.81598 0.0
H454 H 0.25557 0.85712 0.82814 0.0
H455 H 0.23653 0.83959 0.78904 0.0
H456 H 0.33508 0.88519 0.82574 0.0
H457 H 0.2735 0.82698 0.89436 0.0
H458 H 0.27555 0.81713 0.86349 0.0
H459 H 0.25476 0.83781 0.86973 0.0
C460 C 0.29788 0.82562 0.78803 0.0
C461 C 0.27184 0.82705 0.77985 0.0
C462 C 0.30871 0.83569 0.81036 0.0
C463 C 0.29364 0.84718 0.82499 0.0
C464 C 0.26732 0.84789 0.81733 0.0
H465 H 0.32918 0.93841 0.95331 0.0
H466 H 0.30764 0.91348 0.91859 0.0
C467 C 0.25648 0.83785 0.79497 0.0
C468 C 0.30635 0.86053 0.847 0.0
H469 H 0.30213 0.86385 0.9087 0.0
C470 C 0.32805 0.88043 0.84392 0.0
C471 C 0.29686 0.85438 0.87058 0.0
C472 C 0.27402 0.83279 0.87488 0.0
C473 C 0.34031 0.89464 0.86378 0.0
C474 C 0.33097 0.88842 0.88743 0.0
C475 C 0.30924 0.86852 0.89053 0.0
C476 C 0.34362 0.90243 0.90911 0.0
C477 C 0.36269 0.91657 0.85915 0.0
C478 C 0.37077 0.904 0.91553 0.0
C479 C 0.3831 0.91825 0.9352 0.0
C480 C 0.3684 0.93099 0.94899 0.0
C481 C 0.34096 0.92874 0.94304 0.0
C482 C 0.32867 0.91456 0.92323 0.0
H483 H 0.36248 0.92255 0.83974 0.0
H484 H 0.36128 0.93209 0.8708 0.0
H485 H 0.38226 0.91182 0.86356 0.0
H486 H 0.38249 0.89429 0.90522 0.0
H487 H 0.40414 0.91922 0.9397 0.0
H488 H 0.63338 0.43265 0.76197 0.0
H489 H 0.61808 0.45445 0.72716 0.0
H490 H 0.5657 0.38769 0.70171 0.0
H491 H 0.58125 0.36558 0.7362 0.0
H492 H 0.6219 0.44493 0.67673 0.0
H493 H 0.51608 0.43612 0.70097 0.0
H494 H 0.54178 0.4311 0.72288 0.0
H495 H 0.52718 0.40809 0.70091 0.0
C496 C 0.61864 0.42252 0.74899 0.0
C497 C 0.60863 0.39725 0.75202 0.0
C498 C 0.60982 0.43508 0.72911 0.0
C499 C 0.59056 0.4228 0.71189 0.0
C500 C 0.58022 0.39768 0.71498 0.0
H501 H 0.5129 0.46935 0.58002 0.0
H502 H 0.52826 0.44601 0.6137 0.0
C503 C 0.5891 0.38505 0.73481 0.0
C504 C 0.58209 0.43614 0.69028 0.0
H505 H 0.52807 0.45314 0.66223 0.0
C506 C 0.6014 0.4468 0.67359 0.0
C507 C 0.55532 0.43845 0.68608 0.0
C508 C 0.53387 0.42803 0.70371 0.0
C509 C 0.59462 0.4594 0.65269 0.0
C510 C 0.56788 0.46198 0.64861 0.0
C511 C 0.54855 0.4512 0.66528 0.0
C512 C 0.55954 0.47597 0.62737 0.0
C513 C 0.61608 0.4693 0.6349 0.0
C514 C 0.57193 0.50064 0.6237 0.0
C515 C 0.56335 0.51394 0.60427 0.0
C516 C 0.542 0.50295 0.58824 0.0
C517 C 0.52961 0.47827 0.59188 0.0
C518 C 0.53829 0.46495 0.61123 0.0
H519 H 0.63271 0.45962 0.6366 0.0
H520 H 0.60775 0.46774 0.61578 0.0
H521 H 0.62466 0.48883 0.63879 0.0
H522 H 0.5879 0.50979 0.63618 0.0
H523 H 0.5731 0.53298 0.60211 0.0
H524 H 0.93615 0.65215 0.25429 0.0
H525 H 0.95278 0.63254 0.22068 0.0
H526 H 0.87199 0.60836 0.19068 0.0
H527 H 0.85523 0.62796 0.22402 0.0
H528 H 0.89892 0.57202 0.19053 0.0
H529 H 0.96142 0.65556 0.15039 0.0
H530 H 0.96962 0.65109 0.18207 0.0
H531 H 0.93727 0.65654 0.17303 0.0
C532 C 0.9219 0.64287 0.24045 0.0
C533 C 0.89426 0.64173 0.24208 0.0
C534 C 0.93148 0.63166 0.22114 0.0
C535 C 0.91375 0.61919 0.20279 0.0
C536 C 0.88617 0.61783 0.2045 0.0
H537 H 0.95736 0.57344 0.06099 0.0
H538 H 0.93985 0.59311 0.09409 0.0
C539 C 0.87657 0.62898 0.22377 0.0
C540 C 0.92371 0.60716 0.18207 0.0
H541 H 0.96585 0.61784 0.13443 0.0
C542 C 0.91353 0.58209 0.17827 0.0
C543 C 0.94249 0.62023 0.16569 0.0
C544 C 0.95318 0.64738 0.16778 0.0
C545 C 0.92187 0.56975 0.15899 0.0
C546 C 0.94131 0.58266 0.14311 0.0
C547 C 0.95115 0.60781 0.14663 0.0
C548 C 0.95172 0.5704 0.12284 0.0
C549 C 0.90931 0.54304 0.15555 0.0
C550 C 0.96449 0.55113 0.12779 0.0
C551 C 0.97447 0.5398 0.10888 0.0
C552 C 0.97214 0.54749 0.08443 0.0
C553 C 0.95945 0.56688 0.0795 0.0
C554 C 0.94947 0.57823 0.09847 0.0
H555 H 0.88976 0.53763 0.16441 0.0
H556 H 0.9061 0.53841 0.13589 0.0
H557 H 0.92289 0.53212 0.16401 0.0
H558 H 0.96708 0.54502 0.14639 0.0
H559 H 0.98428 0.5251 0.11353 0.0
H560 H 0.38711 0.22544 0.15063 0.0
H561 H 0.40547 0.19425 0.13163 0.0
H562 H 0.44856 0.1844 0.19915 0.0
H563 H 0.43032 0.21565 0.21831 0.0
H564 H 0.45865 0.19213 0.12554 0.0
H565 H 0.40606 0.11529 0.1828 0.0
H566 H 0.39709 0.14446 0.18149 0.0
H567 H 0.42607 0.14062 0.19954 0.0
C568 C 0.40068 0.2168 0.16138 0.0
C569 C 0.40716 0.22293 0.18601 0.0
C570 C 0.41106 0.19892 0.15053 0.0
C571 C 0.42804 0.18679 0.16409 0.0
C572 C 0.43502 0.19319 0.18852 0.0
H573 H 0.52032 0.0943 0.09682 0.0
H574 H 0.50765 0.12603 0.12032 0.0
C575 C 0.42459 0.21103 0.19943 0.0
C576 C 0.43832 0.16741 0.15255 0.0
H577 H 0.43653 0.10652 0.15517 0.0
C578 C 0.45392 0.17341 0.13204 0.0
C579 C 0.43185 0.143 0.16098 0.0
C580 C 0.41416 0.13531 0.18227 0.0
C581 C 0.46313 0.1556 0.11959 0.0
C582 C 0.45693 0.13124 0.12819 0.0
C583 C 0.44145 0.12527 0.14879 0.0
C584 C 0.46491 0.11141 0.11518 0.0
C585 C 0.47866 0.16288 0.0969 0.0
C586 C 0.44511 0.09223 0.10526 0.0
C587 C 0.45224 0.07398 0.09198 0.0
C588 C 0.47938 0.07456 0.08837 0.0
C589 C 0.49922 0.09344 0.09898 0.0
C590 C 0.49204 0.11166 0.11235 0.0
H591 H 0.4764 0.18088 0.08968 0.0
H592 H 0.50029 0.16411 0.10129 0.0
H593 H 0.472 0.14911 0.08235 0.0
H594 H 0.42405 0.09166 0.10735 0.0
H595 H 0.43642 0.05974 0.08413 0.0
H596 H 0.13484 0.84056 0.61548 0.0
H597 H 0.10432 0.86643 0.6028 0.0
H598 H 0.08273 0.87039 0.67742 0.0
H599 H 0.11375 0.84474 0.69033 0.0
H600 H 0.05096 0.86455 0.60614 0.0
H601 H 0.1124 0.94142 0.66051 0.0
H602 H 0.12337 0.91374 0.65574 0.0
H603 H 0.09852 0.91439 0.6776 0.0
C604 C 0.12314 0.84645 0.62913 0.0
C605 C 0.12682 0.84079 0.65392 0.0
C606 C 0.10578 0.86133 0.62188 0.0
C607 C 0.0917 0.87076 0.63924 0.0
C608 C 0.09393 0.86381 0.66381 0.0
H609 H 0.98493 0.96187 0.57798 0.0
H610 H 0.99992 0.93117 0.60373 0.0
C611 C 0.11152 0.84908 0.67114 0.0
C612 C 0.07632 0.88914 0.63151 0.0
H613 H 0.07649 0.94948 0.6362 0.0
C614 C 0.05624 0.88306 0.61292 0.0
C615 C 0.0835 0.91332 0.64028 0.0
C616 C 0.10575 0.92127 0.65948 0.0
C617 C 0.04391 0.90071 0.60209 0.0
C618 C 0.05144 0.92498 0.61057 0.0
C619 C 0.07067 0.93082 0.62989 0.0
C620 C 0.0421 0.94509 0.59771 0.0
C621 C 0.02416 0.89351 0.58073 0.0
C622 C 0.06092 0.96384 0.58689 0.0
C623 C 0.0525 0.98159 0.57249 0.0
C624 C 0.02503 0.98088 0.56852 0.0
C625 C 0.00624 0.96281 0.58044 0.0
C626 C 0.01474 0.94514 0.59504 0.0
H627 H 0.02471 0.87538 0.57344 0.0
H628 H 0.00356 0.89262 0.58665 0.0
H629 H 0.0283 0.90715 0.56572 0.0
H630 H 0.08216 0.96422 0.58881 0.0
H631 H 0.06755 0.99525 0.56368 0.0
H632 H 0.74634 0.42978 0.87832 0.0
H633 H 0.78527 0.45238 0.90247 0.0
H634 H 0.79445 0.38562 0.93775 0.0
H635 H 0.75547 0.36297 0.91402 0.0
H636 H 0.79635 0.45618 0.95419 0.0
H637 H 0.86798 0.41339 0.90825 0.0
H638 H 0.83427 0.4119 0.89611 0.0
H639 H 0.84023 0.39199 0.92069 0.0
C640 C 0.75642 0.41993 0.89145 0.0
C641 C 0.7479 0.39447 0.894 0.0
C642 C 0.77874 0.43288 0.90516 0.0
C643 C 0.79305 0.42062 0.92159 0.0
C644 C 0.78407 0.39538 0.92479 0.0
H645 H 0.91192 0.47126 0.03745 0.0
H646 H 0.87052 0.4564 1.01273 0.0
C647 C 0.76179 0.38245 0.91115 0.0
C648 C 0.81769 0.43403 0.93508 0.0
H649 H 0.88474 0.43657 0.94365 0.0
C650 C 0.81572 0.45202 0.95181 0.0
C651 C 0.84303 0.42887 0.93167 0.0
C652 C 0.84667 0.41065 0.91305 0.0
C653 C 0.8383 0.46443 0.96579 0.0
C654 C 0.8634 0.45848 0.96312 0.0
C655 C 0.86547 0.44102 0.94584 0.0
C656 C 0.88772 0.46961 0.9784 0.0
C657 C 0.83512 0.4839 0.98315 0.0
C658 C 0.91124 0.48192 0.96738 0.0
C659 C 0.93496 0.4903 0.98147 0.0
C660 C 0.93565 0.48636 1.00684 0.0
C661 C 0.91195 0.47462 1.01795 0.0
C662 C 0.88823 0.46625 1.00385 0.0
H663 H 0.81705 0.49102 0.97814 0.0
H664 H 0.83283 0.47605 1.00184 0.0
H665 H 0.85301 0.49932 0.98353 0.0
H666 H 0.91138 0.48461 0.94777 0.0
H667 H 0.95293 0.49916 0.97238 0.0
H668 H 0.75014 0.67456 0.3978 0.0
H669 H 0.71352 0.6531 0.42245 0.0
H670 H 0.72542 0.58426 0.39809 0.0
H671 H 0.762 0.60563 0.37305 0.0
H672 H 0.66614 0.62145 0.40553 0.0
H673 H 0.72235 0.57444 0.47236 0.0
H674 H 0.73879 0.59948 0.4535 0.0
H675 H 0.72744 0.56955 0.44083 0.0
C676 C 0.74502 0.65485 0.39759 0.0
C677 C 0.75906 0.64189 0.38323 0.0
C678 C 0.72411 0.64258 0.41184 0.0
C679 C 0.71677 0.61703 0.41235 0.0
C680 C 0.73098 0.60396 0.3984 0.0
H681 H 0.58734 0.51554 0.48518 0.0
H682 H 0.62642 0.53378 0.4616 0.0
C683 C 0.75195 0.61624 0.38407 0.0
C684 C 0.6934 0.60431 0.42654 0.0
H685 H 0.67503 0.56483 0.47411 0.0
C686 C 0.66812 0.60911 0.42055 0.0
C687 C 0.69586 0.58802 0.44603 0.0
C688 C 0.72258 0.58264 0.45378 0.0
C689 C 0.64531 0.59807 0.43338 0.0
C690 C 0.64784 0.58217 0.45323 0.0
C691 C 0.67304 0.57706 0.459 0.0
C692 C 0.62463 0.57104 0.46838 0.0
C693 C 0.61859 0.60325 0.4252 0.0
C694 C 0.61088 0.58583 0.48059 0.0
C695 C 0.58846 0.57548 0.49402 0.0
C696 C 0.57935 0.55002 0.49584 0.0
C697 C 0.59367 0.53521 0.48421 0.0
C698 C 0.61608 0.54561 0.47068 0.0
H699 H 0.61852 0.60958 0.4059 0.0
H700 H 0.60207 0.58683 0.4271 0.0
H701 H 0.61448 0.61787 0.43667 0.0
H702 H 0.61742 0.60548 0.47966 0.0
H703 H 0.57818 0.58753 0.50285 0.0
H704 H 0.27347 0.36325 0.1935 0.0
H705 H 0.24005 0.37898 0.16899 0.0
H706 H 0.2576 0.342 0.10582 0.0
H707 H 0.29154 0.32638 0.13018 0.0
H708 H 0.24559 0.40751 0.12458 0.0
H709 H 0.17547 0.31664 0.1139 0.0
H710 H 0.20287 0.32225 0.13654 0.0
H711 H 0.20937 0.31931 0.10502 0.0
C712 C 0.27062 0.35877 0.1743 0.0
C713 C 0.28519 0.34353 0.16381 0.0
C714 C 0.2514 0.36768 0.16036 0.0
C715 C 0.24622 0.36145 0.1357 0.0
C716 C 0.26108 0.34672 0.12493 0.0
H717 H 0.13391 0.42963 0.04754 0.0
H718 H 0.17319 0.41305 0.05876 0.0
C719 C 0.2804 0.33779 0.13889 0.0
C720 C 0.22462 0.36994 0.12171 0.0
H721 H 0.16075 0.35048 0.09773 0.0
C722 C 0.22717 0.39507 0.11835 0.0
C723 C 0.20062 0.35358 0.11382 0.0
C724 C 0.19666 0.32643 0.11756 0.0
C725 C 0.20597 0.40438 0.10796 0.0
C726 C 0.18173 0.38805 0.1006 0.0
C727 C 0.17948 0.36288 0.10326 0.0
C728 C 0.15757 0.39684 0.09266 0.0
C729 C 0.20911 0.43161 0.10604 0.0
C730 C 0.13567 0.39273 0.10775 0.0
C731 C 0.11337 0.40223 0.10152 0.0
C732 C 0.11242 0.41593 0.07992 0.0
C733 C 0.13416 0.41946 0.06446 0.0
C734 C 0.15656 0.40996 0.07079 0.0
H735 H 0.22773 0.44171 0.11577 0.0
H736 H 0.20991 0.4372 0.08654 0.0
H737 H 0.19164 0.43702 0.11366 0.0
H738 H 0.13616 0.38272 0.12477 0.0
H739 H 0.09725 0.3995 0.11407 0.0
H740 H 0.62788 0.25752 0.9162 0.0
H741 H 0.60974 0.22044 0.93939 0.0
H742 H 0.54151 0.2034 0.88849 0.0
H743 H 0.55946 0.24048 0.8652 0.0
H744 H 0.5621 0.20464 0.96252 0.0
H745 H 0.56899 0.14118 0.88839 0.0
H746 H 0.5852 0.17312 0.88739 0.0
H747 H 0.54994 0.16325 0.87955 0.0
C748 C 0.60884 0.24607 0.91005 0.0
C749 C 0.59523 0.25203 0.88869 0.0
C750 C 0.59857 0.22475 0.92329 0.0
C751 C 0.57451 0.2088 0.91547 0.0
C752 C 0.56047 0.21503 0.89457 0.0
H753 H 0.47536 0.07313 0.96581 0.0
H754 H 0.49606 0.11076 0.94454 0.0
C755 C 0.57075 0.23631 0.88128 0.0
C756 C 0.5641 0.18573 0.92919 0.0
H757 H 0.5452 0.12386 0.92297 0.0
C758 C 0.55857 0.18696 0.95392 0.0
C759 C 0.5596 0.1626 0.91804 0.0
C760 C 0.56647 0.15984 0.89195 0.0
C761 C 0.54791 0.16584 0.96755 0.0
C762 C 0.54302 0.14275 0.95627 0.0
C763 C 0.54888 0.14152 0.93163 0.0
C764 C 0.53091 0.11973 0.96936 0.0
C765 C 0.54118 0.16849 0.99369 0.0
C766 C 0.54372 0.11197 0.9903 0.0
C767 C 0.53186 0.09037 1.0025 0.0
C768 C 0.50711 0.07606 0.99388 0.0
C769 C 0.4945 0.08374 0.97284 0.0
C770 C 0.50632 0.10524 0.96065 0.0
H771 H 0.54006 0.18745 0.99778 0.0
H772 H 0.52175 0.15606 0.99784 0.0
H773 H 0.55702 0.16367 1.00602 0.0
H774 H 0.56288 0.1226 0.99721 0.0
H775 H 0.54178 0.08516 1.0189 0.0
H776 H 0.92839 0.77385 0.39489 0.0
H777 H 0.94548 0.81135 0.41826 0.0
H778 H 0.89133 0.84663 0.37679 0.0
H779 H 0.87403 0.80929 0.35353 0.0
H780 H 0.96914 0.85973 0.39815 0.0
H781 H 0.87817 0.859 0.44963 0.0
H782 H 0.88399 0.832 0.43566 0.0
H783 H 0.87295 0.85478 0.4172 0.0
C784 C 0.91996 0.78952 0.39086 0.0
C785 C 0.89984 0.78848 0.37223 0.0
C786 C 0.92982 0.81099 0.40419 0.0
C787 C 0.91951 0.83178 0.3995 0.0
C788 C 0.8994 0.83078 0.38099 0.0
H789 H 0.9537 0.97885 0.46178 0.0
H790 H 0.93341 0.94081 0.44002 0.0
C791 C 0.88972 0.80944 0.36751 0.0
C792 C 0.93036 0.85476 0.41335 0.0
H793 H 0.91363 0.89404 0.45353 0.0
C794 C 0.95705 0.86717 0.41035 0.0
C795 C 0.9145 0.86468 0.42904 0.0
C796 C 0.88585 0.85192 0.43331 0.0
C797 C 0.96821 0.8893 0.42231 0.0
C798 C 0.95254 0.89905 0.43844 0.0
C799 C 0.92574 0.88668 0.4413 0.0
C800 C 0.96383 0.92179 0.45272 0.0
C801 C 0.99651 0.90233 0.41692 0.0
C802 C 0.98714 0.92364 0.46782 0.0
C803 C 0.99882 0.94534 0.47997 0.0
C804 C 0.98725 0.96567 0.47778 0.0
C805 C 0.96315 0.96353 0.46373 0.0
C806 C 0.95157 0.94179 0.45129 0.0
H807 H 1.00235 0.89699 0.39893 0.0
H808 H 0.99893 0.92241 0.41699 0.0
H809 H 0.01059 0.89736 0.43106 0.0
H810 H 0.99655 0.90832 0.47002 0.0
H811 H 0.01718 0.94629 0.49093 0.0
H812 H 0.27143 0.70684 0.6778 0.0
H813 H 0.2938 0.67622 0.6634 0.0
H814 H 0.24658 0.67098 0.59571 0.0
H815 H 0.22388 0.70162 0.61003 0.0
H816 H 0.27702 0.62734 0.64343 0.0
H817 H 0.32545 0.69741 0.57672 0.0
H818 H 0.30753 0.70477 0.60198 0.0
H819 H 0.2894 0.68993 0.57558 0.0
C820 C 0.26516 0.69866 0.66015 0.0
C821 C 0.24609 0.70687 0.64493 0.0
C822 C 0.27805 0.68121 0.65192 0.0
C823 C 0.27213 0.67169 0.62837 0.0
C824 C 0.25169 0.67844 0.61382 0.0
H825 H 0.37406 0.60279 0.54411 0.0
H826 H 0.33507 0.61673 0.5571 0.0
C827 C 0.2388 0.69595 0.62201 0.0
C828 C 0.28949 0.65701 0.6182 0.0
H829 H 0.3385 0.66023 0.57754 0.0
C830 C 0.29029 0.63435 0.62885 0.0
C831 C 0.30683 0.66632 0.59925 0.0
C832 C 0.30754 0.69101 0.58777 0.0
C833 C 0.3082 0.62079 0.62113 0.0
C834 C 0.32606 0.63044 0.60266 0.0
C835 C 0.32471 0.65281 0.59162 0.0
C836 C 0.34756 0.61866 0.59541 0.0
C837 C 0.30783 0.59629 0.63283 0.0
C838 C 0.36739 0.61489 0.61266 0.0
C839 C 0.38965 0.60691 0.60528 0.0
C840 C 0.39266 0.6029 0.58046 0.0
C841 C 0.3724 0.60601 0.56332 0.0
C842 C 0.35007 0.61382 0.57073 0.0
H843 H 0.28797 0.58816 0.64031 0.0
H844 H 0.31265 0.58341 0.61961 0.0
H845 H 0.32305 0.5986 0.64821 0.0
H846 H 0.36628 0.61915 0.63169 0.0
H847 H 0.40511 0.60496 0.61885 0.0
H848 H 0.812 0.89848 0.80155 0.0
H849 H 0.8276 0.91252 0.76138 0.0
H850 H 0.75562 0.86826 0.72758 0.0
H851 H 0.73919 0.85493 0.76791 0.0
H852 H 0.83803 0.88532 0.72395 0.0
H853 H 0.75878 0.93418 0.69488 0.0
H854 H 0.76352 0.92465 0.72606 0.0
H855 H 0.74666 0.90291 0.70367 0.0
C856 C 0.79919 0.89207 0.78564 0.0
C857 C 0.77419 0.87575 0.788 0.0
C858 C 0.80827 0.89995 0.76266 0.0
C859 C 0.79262 0.89169 0.74152 0.0
C860 C 0.76778 0.87523 0.74369 0.0
H861 H 0.83696 0.92091 0.58957 0.0
H862 H 0.81398 0.90318 0.62609 0.0
C863 C 0.75858 0.8674 0.76675 0.0
C864 C 0.80295 0.89992 0.71729 0.0
H865 H 0.79113 0.93208 0.66612 0.0
C866 C 0.82771 0.89546 0.71128 0.0
C867 C 0.78941 0.91312 0.70078 0.0
C868 C 0.76323 0.91923 0.70667 0.0
C869 C 0.8395 0.90414 0.68936 0.0
C870 C 0.82621 0.91766 0.67312 0.0
C871 C 0.80114 0.92162 0.67871 0.0
C872 C 0.83895 0.929 0.65092 0.0
C873 C 0.86627 0.89911 0.68376 0.0
C874 C 0.86018 0.94958 0.65292 0.0
C875 C 0.87313 0.9599 0.63218 0.0
C876 C 0.86516 0.94973 0.60902 0.0
C877 C 0.84344 0.92933 0.60707 0.0
C878 C 0.83038 0.9191 0.62788 0.0
H879 H 0.87178 0.88503 0.69615 0.0
H880 H 0.866 0.89301 0.6646 0.0
H881 H 0.88205 0.91615 0.68586 0.0
H882 H 0.86684 0.95755 0.6706 0.0
H883 H 0.88938 0.97588 0.6343 0.0
H884 H 0.80674 0.23693 0.2301 0.0
H885 H 0.77462 0.21565 0.19894 0.0
H886 H 0.72466 0.26669 0.20781 0.0
H887 H 0.75656 0.28798 0.23919 0.0
H888 H 0.7206 0.19414 0.20756 0.0
H889 H 0.72969 0.26323 0.13291 0.0
H890 H 0.75493 0.26463 0.15733 0.0
H891 H 0.72428 0.27366 0.16263 0.0
C892 C 0.78899 0.24371 0.22534 0.0
C893 C 0.78417 0.26411 0.23715 0.0
C894 C 0.77074 0.23161 0.20746 0.0
C895 C 0.74742 0.23974 0.20095 0.0
C896 C 0.7428 0.26041 0.21226 0.0
H897 H 0.60749 0.14456 0.12959 0.0
H898 H 0.63576 0.17566 0.15586 0.0
C899 C 0.76107 0.27256 0.23017 0.0
C900 C 0.72709 0.22542 0.18365 0.0
H901 H 0.6956 0.22724 0.12756 0.0
C902 C 0.71506 0.20138 0.1901 0.0
C903 C 0.72004 0.23496 0.16088 0.0
C904 C 0.73301 0.26047 0.15283 0.0
C905 C 0.69628 0.18647 0.1743 0.0
C906 C 0.68904 0.19603 0.15159 0.0
C907 C 0.70099 0.22012 0.14513 0.0
C908 C 0.67048 0.18056 0.13377 0.0
C909 C 0.68494 0.16038 0.18173 0.0
C910 C 0.68025 0.17401 0.11205 0.0
C911 C 0.6641 0.15643 0.0969 0.0
C912 C 0.63788 0.14513 0.10322 0.0
C913 C 0.62755 0.15298 0.12416 0.0
C914 C 0.64374 0.17058 0.1393 0.0
H915 H 0.69658 0.15456 0.19744 0.0
H916 H 0.66397 0.15843 0.18715 0.0
H917 H 0.68472 0.14789 0.16627 0.0
H918 H 0.7008 0.18163 0.10741 0.0
H919 H 0.67246 0.15104 0.08068 0.0
H920 H 0.4211 0.6688 0.32491 0.0
H921 H 0.43768 0.64922 0.36085 0.0
H922 H 0.41488 0.57971 0.32501 0.0
H923 H 0.39956 0.59912 0.28878 0.0
H924 H 0.41298 0.61321 0.39179 0.0
H925 H 0.49215 0.58198 0.34486 0.0
H926 H 0.47467 0.60365 0.3312 0.0
H927 H 0.45969 0.57151 0.33007 0.0
C928 C 0.41985 0.64938 0.32454 0.0
C929 C 0.409 0.63566 0.30372 0.0
C930 C 0.42919 0.63817 0.34522 0.0
C931 C 0.42805 0.61302 0.34555 0.0
C932 C 0.41659 0.59921 0.32509 0.0
H933 H 0.46117 0.50218 0.44479 0.0
H934 H 0.44653 0.52674 0.41182 0.0
C935 C 0.4074 0.61037 0.30443 0.0
C936 C 0.43864 0.60105 0.36719 0.0
H937 H 0.48101 0.56403 0.38393 0.0
C938 C 0.42807 0.60268 0.39013 0.0
C939 C 0.45851 0.58741 0.36515 0.0
C940 C 0.47213 0.58622 0.34155 0.0
C941 C 0.43601 0.59028 0.41074 0.0
C942 C 0.45515 0.57598 0.40843 0.0
C943 C 0.46617 0.57482 0.38566 0.0
C944 C 0.46337 0.56134 0.42911 0.0
C945 C 0.42323 0.59187 0.43468 0.0
C946 C 0.47796 0.57259 0.44978 0.0
C947 C 0.48649 0.55853 0.46864 0.0
C948 C 0.48038 0.53298 0.46727 0.0
C949 C 0.46593 0.52182 0.44651 0.0
C950 C 0.45755 0.53583 0.42764 0.0
H951 H 0.4055 0.6001 0.43247 0.0
H952 H 0.41693 0.57351 0.44309 0.0
H953 H 0.43811 0.60329 0.44748 0.0
H954 H 0.48331 0.59226 0.45105 0.0
H955 H 0.49863 0.56768 0.4838 0.0
H956 H 0.09865 0.41843 0.78596 0.0
H957 H 0.08501 0.43881 0.82067 0.0
H958 H 0.10005 0.3816 0.86872 0.0
H959 H 0.11439 0.36148 0.83436 0.0
H960 H 0.04391 0.42244 0.85289 0.0
H961 H 0.14254 0.44248 0.9037 0.0
H962 H 0.13872 0.43326 0.87215 0.0
H963 H 0.13021 0.41097 0.89605 0.0
C964 C 0.0993 0.41024 0.80393 0.0
C965 C 0.10776 0.38823 0.80718 0.0
C966 C 0.09133 0.42189 0.8238 0.0
C967 C 0.09187 0.41204 0.84751 0.0
C968 C 0.0999 0.38991 0.85077 0.0
H969 H 0.05194 0.45684 0.99116 0.0
H970 H 0.0666 0.43609 0.95717 0.0
C971 C 0.10778 0.37821 0.83094 0.0
C972 C 0.08361 0.42465 0.86871 0.0
H973 H 0.10573 0.45032 0.92425 0.0
C974 C 0.0575 0.42863 0.86842 0.0
C975 C 0.10119 0.43267 0.88917 0.0
C976 C 0.12981 0.42986 0.8903 0.0
C977 C 0.04838 0.43995 0.88803 0.0
C978 C 0.06603 0.44816 0.90841 0.0
C979 C 0.09212 0.44409 0.90874 0.0
C980 C 0.05787 0.46126 0.92934 0.0
C981 C 0.01963 0.44241 0.88692 0.0
C982 C 0.0487 0.48275 0.92535 0.0
C983 C 0.04023 0.49461 0.94473 0.0
C984 C 0.04096 0.4855 0.9688 0.0
C985 C 0.051 0.46442 0.97293 0.0
C986 C 0.05939 0.45249 0.95345 0.0
H987 H 0.00686 0.429 0.87424 0.0
H988 H 0.01101 0.43984 0.90523 0.0
H989 H 0.01882 0.4609 0.88013 0.0
H990 H 0.04801 0.4904 0.90714 0.0
H991 H 0.03289 0.51088 0.94073 0.0
H992 H 0.63331 0.85413 0.94615 0.0
H993 H 0.5968 0.87397 0.9526 0.0
H994 H 0.5899 0.88834 0.87529 0.0
H995 H 0.62768 0.86969 0.86888 0.0
H996 H 0.59458 0.92826 0.89869 0.0
H997 H 0.51769 0.86052 0.94423 0.0
H998 H 0.54922 0.86135 0.9601 0.0
H999 H 0.54433 0.85192 0.9286 0.0
C1000 C 0.62381 0.86121 0.93044 0.0
C1001 C 0.63368 0.86064 0.90706 0.0
C1002 C 0.60254 0.87219 0.9341 0.0
C1003 C 0.59026 0.8824 0.91439 0.0
C1004 C 0.59893 0.88045 0.89076 0.0
H1005 H 0.48186 0.96426 0.97511 0.0
H1006 H 0.49523 0.93664 0.94674 0.0
C1007 C 0.62044 0.86964 0.8871 0.0
C1008 C 0.57165 0.89828 0.91925 0.0
H1009 H 0.52253 0.90315 0.95737 0.0
C1010 C 0.57829 0.92254 0.91096 0.0
C1011 C 0.54987 0.89088 0.93468 0.0
C1012 C 0.53972 0.86464 0.94212 0.0
C1013 C 0.5656 0.94004 0.91968 0.0
C1014 C 0.54641 0.93325 0.93771 0.0
C1015 C 0.53777 0.90855 0.94402 0.0
C1016 C 0.53783 0.95164 0.95247 0.0
C1017 C 0.57367 0.96582 0.91012 0.0
C1018 C 0.5573 0.96928 0.96508 0.0
C1019 C 0.54977 0.98513 0.98112 0.0
C1020 C 0.52257 0.98345 0.98529 0.0
C1021 C 0.50299 0.96605 0.97234 0.0
C1022 C 0.51059 0.95025 0.9561 0.0
H1023 H 0.57917 0.96602 0.89076 0.0
H1024 H 0.55733 0.97566 0.91148 0.0
H1025 H 0.59161 0.97576 0.92084 0.0
H1026 H 0.57846 0.97022 0.96322 0.0
H1027 H 0.56542 0.99815 0.99089 0.0
H1028 H 0.88728 0.23567 0.41178 0.0
H1029 H 0.90547 0.20208 0.4288 0.0
H1030 H 0.93717 0.19234 0.35921 0.0
H1031 H 0.91817 0.22528 0.34177 0.0
H1032 H 0.91085 0.14919 0.37941 0.0
H1033 H 0.98347 0.20245 0.44724 0.0
H1034 H 0.94985 0.20612 0.45002 0.0
H1035 H 0.96744 0.21666 0.42286 0.0
C1036 C 0.89803 0.22633 0.40006 0.0
C1037 C 0.90136 0.23325 0.37543 0.0
C1038 C 0.90869 0.20733 0.4099 0.0
C1039 C 0.92307 0.195 0.39538 0.0
C1040 C 0.92634 0.20177 0.37078 0.0
H1041 H 0.01596 0.09418 0.45646 0.0
H1042 H 1.00214 0.12727 0.43368 0.0
C1043 C 0.91565 0.22073 0.36091 0.0
C1044 C 0.93388 0.17447 0.40562 0.0
H1045 H 0.9747 0.15918 0.45136 0.0
C1046 C 0.92498 0.1514 0.39503 0.0
C1047 C 0.95263 0.17746 0.42574 0.0
C1048 C 0.96414 0.20205 0.43699 0.0
C1049 C 0.93368 0.13106 0.4045 0.0
C1050 C 0.95139 0.13383 0.42537 0.0
C1051 C 0.96094 0.15705 0.43549 0.0
C1052 C 0.95964 0.11281 0.43751 0.0
C1053 C 0.92395 0.10685 0.39198 0.0
C1054 C 0.94034 0.09363 0.44713 0.0
C1055 C 0.94816 0.07466 0.46012 0.0
C1056 C 0.9755 0.07461 0.46399 0.0
C1057 C 0.99477 0.09365 0.45393 0.0
C1058 C 0.98691 0.1126 0.44089 0.0
H1059 H 0.91747 0.1092 0.37263 0.0
H1060 H 0.9398 0.09628 0.39253 0.0
H1061 H 0.90642 0.09608 0.40146 0.0
H1062 H 0.91922 0.09368 0.44521 0.0
H1063 H 0.93275 0.06043 0.46772 0.0
H1064 H 0.28446 0.64773 0.11845 0.0
H1065 H 0.24205 0.62802 0.09768 0.0
H1066 H 0.21325 0.59454 0.16549 0.0
H1067 H 0.25588 0.61388 0.18644 0.0
H1068 H 0.21915 0.57689 0.09483 0.0
H1069 H 0.15231 0.62662 0.13917 0.0
H1070 H 0.18832 0.63747 0.13989 0.0
H1071 H 0.17325 0.61275 0.15945 0.0
C1072 C 0.26921 0.63609 0.129 0.0
C1073 C 0.27374 0.63236 0.15417 0.0
C1074 C 0.24489 0.62492 0.11708 0.0
C1075 C 0.22439 0.60994 0.13004 0.0
C1076 C 0.22862 0.60634 0.15519 0.0
H1077 H 0.06218 0.53357 0.08114 0.0
H1078 H 0.10408 0.54805 0.10538 0.0
C1079 C 0.25302 0.61747 0.16715 0.0
C1080 C 0.19895 0.59762 0.11694 0.0
H1081 H 0.13168 0.59531 0.11192 0.0
C1082 C 0.20001 0.58089 0.09858 0.0
C1083 C 0.17396 0.60271 0.12197 0.0
C1084 C 0.17174 0.62099 0.14105 0.0
C1085 C 0.17679 0.56912 0.0851 0.0
C1086 C 0.15187 0.57465 0.08969 0.0
C1087 C 0.15075 0.59106 0.10838 0.0
C1088 C 0.12695 0.56437 0.07474 0.0
C1089 C 0.17914 0.55064 0.06627 0.0
C1090 C 0.12581 0.56861 0.04943 0.0
C1091 C 0.10196 0.56021 0.03555 0.0
C1092 C 0.07865 0.5476 0.04671 0.0
C1093 C 0.07986 0.54307 0.07199 0.0
C1094 C 0.10376 0.55144 0.08588 0.0
H1095 H 0.1971 0.54302 0.07019 0.0
H1096 H 0.16107 0.5354 0.06542 0.0
H1097 H 0.18122 0.55961 0.04806 0.0
H1098 H 0.1432 0.57899 0.04047 0.0
H1099 H 0.1016 0.5641 1.01614 0.0
H1100 H 0.24479 0.36804 0.64417 0.0
H1101 H 0.28319 0.38807 0.62068 0.0
H1102 H 0.28948 0.45419 0.66102 0.0
H1103 H 0.25139 0.43408 0.68492 0.0
H1104 H 0.29242 0.42662 0.59067 0.0
H1105 H 0.36489 0.44582 0.67004 0.0
H1106 H 0.33189 0.42634 0.67232 0.0
H1107 H 0.33643 0.45895 0.67287 0.0
C1108 C 0.25421 0.38691 0.64794 0.0
C1109 C 0.24505 0.39939 0.66657 0.0
C1110 C 0.27628 0.39834 0.63453 0.0
C1111 C 0.28973 0.42254 0.63935 0.0
C1112 C 0.28006 0.4353 0.65739 0.0
H1113 H 0.42643 0.52092 0.57466 0.0
H1114 H 0.38535 0.50331 0.59565 0.0
C1115 C 0.25816 0.42381 0.67099 0.0
C1116 C 0.31377 0.4343 0.62545 0.0
H1117 H 0.38 0.46351 0.63217 0.0
C1118 C 0.31157 0.4346 0.59979 0.0
C1119 C 0.33892 0.44471 0.63724 0.0
C1120 C 0.34332 0.44376 0.66461 0.0
C1121 C 0.33358 0.44518 0.58571 0.0
C1122 C 0.35856 0.45569 0.59753 0.0
C1123 C 0.36079 0.45556 0.62313 0.0
C1124 C 0.3828 0.4665 0.58368 0.0
C1125 C 0.32993 0.44532 0.55827 0.0
C1126 C 0.39509 0.45169 0.56992 0.0
C1127 C 0.41876 0.46168 0.558 0.0
C1128 C 0.43064 0.48675 0.5595 0.0
C1129 C 0.41794 0.50159 0.57298 0.0
C1130 C 0.39442 0.49154 0.58507 0.0
H1131 H 0.3084 0.441 0.55214 0.0
H1132 H 0.33977 0.46335 0.55065 0.0
H1133 H 0.3395 0.43147 0.55066 0.0
H1134 H 0.38668 0.43228 0.56882 0.0
H1135 H 0.42791 0.44965 0.54787 0.0
H1136 H 0.76393 0.75024 0.95651 0.0
H1137 H 0.7862 0.71837 0.97145 0.0
H1138 H 0.79263 0.69674 0.8974 0.0
H1139 H 0.77046 0.72867 0.8823 0.0
H1140 H 0.77897 0.66628 0.96469 0.0
H1141 H 0.87094 0.72162 0.92426 0.0
H1142 H 0.84133 0.73323 0.92782 0.0
H1143 H 0.84254 0.71296 0.90321 0.0
C1144 C 0.76938 0.73824 0.94344 0.0
C1145 C 0.76579 0.74212 0.91822 0.0
C1146 C 0.78214 0.72009 0.952 0.0
C1147 C 0.79144 0.70556 0.93548 0.0
C1148 C 0.78595 0.70808 0.91039 0.0
H1149 H 0.87496 0.5892 0.96377 0.0
H1150 H 0.84028 0.61198 0.95448 0.0
C1151 C 0.77334 0.7263 0.90181 0.0
C1152 C 0.8095 0.68986 0.94428 0.0
H1153 H 0.87415 0.68404 0.94219 0.0
C1154 C 0.79978 0.67006 0.95979 0.0
C1155 C 0.83674 0.69521 0.93819 0.0
C1156 C 0.84866 0.71702 0.92264 0.0
C1157 C 0.81662 0.65521 0.96912 0.0
C1158 C 0.84369 0.66027 0.96253 0.0
C1159 C 0.85336 0.68019 0.94718 0.0
C1160 C 0.86268 0.64537 0.97121 0.0
C1161 C 0.80548 0.63457 0.98628 0.0
C1162 C 0.88669 0.65654 0.98379 0.0
C1163 C 0.90658 0.64365 0.98892 0.0
C1164 C 0.90282 0.61934 0.98154 0.0
C1165 C 0.87826 0.60783 0.96992 0.0
C1166 C 0.85841 0.6208 0.96466 0.0
H1167 H 0.78682 0.63698 0.99441 0.0
H1168 H 0.80062 0.61722 0.97603 0.0
H1169 H 0.8204 0.63297 1.00123 0.0
H1170 H 0.89038 0.6755 0.98898 0.0
H1171 H 0.92518 0.65289 0.99814 0.0
H1172 H 0.37817 0.7786 0.14683 0.0
H1173 H 0.3913 0.81873 0.12752 0.0
H1174 H 0.46324 0.83509 0.17399 0.0
H1175 H 0.44984 0.79531 0.19401 0.0
H1176 H 0.43848 0.87426 0.16867 0.0
H1177 H 0.45043 0.83586 0.07848 0.0
H1178 H 0.41794 0.8251 0.09074 0.0
H1179 H 0.44689 0.81769 0.10606 0.0
C1180 C 0.39658 0.79084 0.15327 0.0
C1181 C 0.413 0.78354 0.17195 0.0
C1182 C 0.40423 0.81372 0.14196 0.0
C1183 C 0.42853 0.8298 0.14895 0.0
C1184 C 0.44451 0.82294 0.16813 0.0
H1185 H 0.52483 0.94954 0.07063 0.0
H1186 H 0.50424 0.91113 0.09052 0.0
C1187 C 0.43689 0.80008 0.17945 0.0
C1188 C 0.43764 0.85353 0.13599 0.0
H1189 H 0.45628 0.87856 0.08043 0.0
C1190 C 0.44227 0.87522 0.14935 0.0
C1191 C 0.44288 0.8548 0.11082 0.0
C1192 C 0.43954 0.83215 0.09567 0.0
C1193 C 0.45202 0.89807 0.13829 0.0
C1194 C 0.45697 0.89934 0.11305 0.0
C1195 C 0.45224 0.87764 0.09969 0.0
C1196 C 0.46878 0.92276 0.10051 0.0
C1197 C 0.45778 0.92058 0.15388 0.0
C1198 C 0.45556 0.94209 0.0991 0.0
C1199 C 0.46738 0.96419 0.08773 0.0
C1200 C 0.49255 0.96727 0.07743 0.0
C1201 C 0.50544 0.94775 0.07845 0.0
C1202 C 0.49367 0.92575 0.08978 0.0
H1203 H 0.45867 0.91604 0.17366 0.0
H1204 H 0.47707 0.93296 0.14924 0.0
H1205 H 0.44159 0.93053 0.15049 0.0
H1206 H 0.43612 0.9401 0.10683 0.0
H1207 H 0.457 0.97893 0.08726 0.0
H1208 H 0.13781 0.25334 0.64489 0.0
H1209 H 0.11794 0.21729 0.62062 0.0
H1210 H 0.04659 0.20556 0.66193 0.0
H1211 H 0.06636 0.24168 0.68634 0.0
H1212 H 0.10211 0.16993 0.63459 0.0
H1213 H 0.01466 0.20058 0.5929 0.0
H1214 H 0.04223 0.22114 0.60858 0.0
H1215 H 0.01641 0.20179 0.62562 0.0
C1216 C 0.11787 0.24313 0.64889 0.0
C1217 C 0.10376 0.25054 0.66771 0.0
C1218 C 0.10648 0.22249 0.63488 0.0
C1219 C 0.08058 0.20871 0.63913 0.0
C1220 C 0.06634 0.2161 0.65781 0.0
H1221 H 0.97804 0.07454 0.58456 0.0
H1222 H 0.99977 0.1118 0.60625 0.0
C1223 C 0.07771 0.23682 0.67182 0.0
C1224 C 0.06895 0.18624 0.62456 0.0
H1225 H 0.01479 0.15872 0.58818 0.0
C1226 C 0.0831 0.16759 0.62429 0.0
C1227 C 0.04417 0.18306 0.611 0.0
C1228 C 0.02859 0.20279 0.60928 0.0
C1229 C 0.07285 0.1457 0.61154 0.0
C1230 C 0.04788 0.14238 0.5983 0.0
C1231 C 0.03389 0.16115 0.59833 0.0
C1232 C 0.03533 0.11928 0.58511 0.0
C1233 C 0.08846 0.12599 0.613 0.0
C1234 C 0.04793 0.11088 0.5658 0.0
C1235 C 0.03546 0.08939 0.55332 0.0
C1236 C 0.01014 0.07592 0.55987 0.0
C1237 C 0.99762 0.0844 0.57913 0.0
C1238 C 0.01001 0.10578 0.59153 0.0
H1239 H 0.10381 0.12898 0.62831 0.0
H1240 H 0.07486 0.10779 0.61533 0.0
H1241 H 0.09894 0.1259 0.59578 0.0
H1242 H 0.06719 0.12118 0.56007 0.0
H1243 H 0.04535 0.08364 0.53828 0.0
H1244 H 0.78598 0.35198 0.41536 0.0
H1245 H 0.75054 0.36704 0.43427 0.0
H1246 H 0.70202 0.35432 0.3673 0.0
H1247 H 0.73714 0.33903 0.34843 0.0
H1248 H 0.7285 0.4055 0.4213 0.0
H1249 H 0.65012 0.31959 0.41663 0.0
H1250 H 0.68488 0.32069 0.41141 0.0
H1251 H 0.66349 0.32943 0.38756 0.0
C1252 C 0.76774 0.3524 0.4047 0.0
C1253 C 0.76422 0.34411 0.3805 0.0
C1254 C 0.7475 0.36093 0.41553 0.0
C1255 C 0.72343 0.36135 0.40234 0.0
C1256 C 0.72009 0.3535 0.37804 0.0
H1257 H 0.58252 0.41566 0.43319 0.0
H1258 H 0.61794 0.4012 0.41341 0.0
C1259 C 0.7402 0.34481 0.36727 0.0
C1260 C 0.70209 0.37059 0.41378 0.0
H1261 H 0.63602 0.35521 0.4276 0.0
C1262 C 0.70832 0.39446 0.42279 0.0
C1263 C 0.67576 0.35615 0.4157 0.0
C1264 C 0.66818 0.32996 0.40753 0.0
C1265 C 0.68883 0.40438 0.43338 0.0
C1266 C 0.66253 0.39 0.43508 0.0
C1267 C 0.65622 0.36619 0.42606 0.0
C1268 C 0.64145 0.39913 0.44688 0.0
C1269 C 0.69633 0.43024 0.44245 0.0
C1270 C 0.64298 0.40254 0.47219 0.0
C1271 C 0.62281 0.41065 0.4835 0.0
C1272 C 0.60078 0.41555 0.46967 0.0
C1273 C 0.59937 0.4122 0.44426 0.0
C1274 C 0.61947 0.40388 0.43298 0.0
H1275 H 0.7159 0.44035 0.43572 0.0
H1276 H 0.68064 0.44016 0.43664 0.0
H1277 H 0.69782 0.43007 0.4627 0.0
H1278 H 0.6597 0.39876 0.48321 0.0
H1279 H 0.62458 0.4133 0.50307 0.0
loop_
_geom_bond_atom_site_label_1
_geom_bond_atom_site_label_2
_geom_bond_distance
_geom_bond_site_symmetry_2
_ccdc_geom_bond_type
P0 O11 1.490 . S
P0 C14 1.812 . S
P0 C20 1.803 . S
P0 C26 1.819 . S
H1 C15 0.941 . S
H2 C16 0.939 . S
H3 C18 0.940 . S
H4 C19 0.940 . S
H5 C21 0.939 . S
H6 C22 0.942 . S
H7 C24 0.940 . S
H8 C25 0.939 . S
H9 C27 0.941 . S
H10 C31 0.939 . S
O11 P0 1.490 . S
H12 C28 0.939 . S
H13 C30 0.940 . S
C14 P0 1.812 . S
C14 C15 1.389 . S
C14 C19 1.391 . S
C15 H1 0.941 . S
C15 C14 1.389 . S
C15 C16 1.397 . S
C16 H2 0.939 . S
C16 C15 1.397 . S
C16 C17 1.378 . S
C17 C16 1.378 . S
C17 C18 1.378 . S
C18 H3 0.940 . S
C18 C17 1.378 . S
C18 C19 1.396 . S
C19 H4 0.940 . S
C19 C14 1.391 . S
C19 C18 1.396 . S
C20 P0 1.803 . S
C20 C21 1.378 . S
C20 C25 1.400 . S
C21 H5 0.939 . S
C21 C20 1.378 . S
C21 C22 1.361 . S
C22 H6 0.942 . S
C22 C21 1.361 . S
C22 C23 1.369 . S
C23 C22 1.369 . S
C23 C24 1.404 . S
C24 H7 0.940 . S
C24 C23 1.404 . S
C24 C25 1.389 . S
C25 H8 0.939 . S
C25 C20 1.400 . S
C25 C24 1.389 . S
C26 P0 1.819 . S
C26 C27 1.391 . S
C26 C31 1.391 . S
C27 H9 0.941 . S
C27 C26 1.391 . S
C27 C28 1.396 . S
C28 H12 0.939 . S
C28 C27 1.396 . S
C28 C29 1.397 . S
C29 C28 1.397 . S
C29 C30 1.385 . S
C30 H13 0.940 . S
C30 C29 1.385 . S
C30 C31 1.388 . S
C31 H10 0.939 . S
C31 C26 1.391 . S
C31 C30 1.388 . S
P32 O43 1.490 . S
P32 C46 1.812 . S
P32 C52 1.803 . S
P32 C58 1.819 . S
H33 C47 0.941 . S
H34 C48 0.939 . S
H35 C50 0.940 . S
H36 C51 0.940 . S
H37 C53 0.939 . S
H38 C54 0.942 . S
H39 C56 0.940 . S
H40 C57 0.939 . S
H41 C59 0.941 . S
H42 C63 0.939 . S
O43 P32 1.490 . S
H44 C60 0.939 . S
H45 C62 0.940 . S
C46 P32 1.812 . S
C46 C47 1.389 . S
C46 C51 1.391 . S
C47 H33 0.941 . S
C47 C46 1.389 . S
C47 C48 1.397 . S
C48 H34 0.939 . S
C48 C47 1.397 . S
C48 C49 1.378 . S
C49 C48 1.378 . S
C49 C50 1.378 . S
C50 H35 0.940 . S
C50 C49 1.378 . S
C50 C51 1.396 . S
C51 H36 0.940 . S
C51 C46 1.391 . S
C51 C50 1.396 . S
C52 P32 1.803 . S
C52 C53 1.378 . S
C52 C57 1.400 . S
C53 H37 0.939 . S
C53 C52 1.378 . S
C53 C54 1.361 . S
C54 H38 0.942 . S
C54 C53 1.361 . S
C54 C55 1.369 . S
C55 C54 1.369 . S
C55 C56 1.404 . S
C56 H39 0.940 . S
C56 C55 1.404 . S
C56 C57 1.389 . S
C57 H40 0.939 . S
C57 C52 1.400 . S
C57 C56 1.389 . S
C58 P32 1.819 . S
C58 C59 1.391 . S
C58 C63 1.391 . S
C59 H41 0.941 . S
C59 C58 1.391 . S
C59 C60 1.396 . S
C60 H44 0.939 . S
C60 C59 1.396 . S
C60 C61 1.397 . S
C61 C60 1.397 . S
C61 C62 1.385 . S
C62 H45 0.940 . S
C62 C61 1.385 . S
C62 C63 1.388 . S
C63 H42 0.939 . S
C63 C58 1.391 . S
C63 C62 1.388 . S
P64 O75 1.490 . S
P64 C78 1.812 . S
P64 C84 1.803 . S
P64 C90 1.819 . S
H65 C79 0.941 . S
H66 C80 0.939 . S
H67 C82 0.940 . S
H68 C83 0.940 . S
H69 C85 0.939 . S
H70 C86 0.942 . S
H71 C88 0.940 . S
H72 C89 0.939 . S
H73 C91 0.941 . S
H74 C95 0.939 . S
O75 P64 1.490 . S
H76 C92 0.939 . S
H77 C94 0.940 . S
C78 P64 1.812 . S
C78 C79 1.389 . S
C78 C83 1.391 . S
C79 H65 0.941 . S
C79 C78 1.389 . S
C79 C80 1.397 . S
C80 H66 0.939 . S
C80 C79 1.397 . S
C80 C81 1.378 . S
C81 C80 1.378 . S
C81 C82 1.378 . S
C82 H67 0.940 . S
C82 C81 1.378 . S
C82 C83 1.396 . S
C83 H68 0.940 . S
C83 C78 1.391 . S
C83 C82 1.396 . S
C84 P64 1.803 . S
C84 C85 1.378 . S
C84 C89 1.400 . S
C85 H69 0.939 . S
C85 C84 1.378 . S
C85 C86 1.361 . S
C86 H70 0.942 . S
C86 C85 1.361 . S
C86 C87 1.369 . S
C87 C86 1.369 . S
C87 C88 1.404 . S
C88 H71 0.940 . S
C88 C87 1.404 . S
C88 C89 1.389 . S
C89 H72 0.939 . S
C89 C84 1.400 . S
C89 C88 1.389 . S
C90 P64 1.819 . S
C90 C91 1.391 . S
C90 C95 1.391 . S
C91 H73 0.941 . S
C91 C90 1.391 . S
C91 C92 1.396 . S
C92 H76 0.939 . S
C92 C91 1.396 . S
C92 C93 1.397 . S
C93 C92 1.397 . S
C93 C94 1.385 . S
C94 H77 0.940 . S
C94 C93 1.385 . S
C94 C95 1.388 . S
C95 H74 0.939 . S
C95 C90 1.391 . S
C95 C94 1.388 . S
P96 O107 1.490 . S
P96 C110 1.812 . S
P96 C116 1.803 . S
P96 C122 1.819 . S
H97 C111 0.941 . S
H98 C112 0.939 . S
H99 C114 0.940 . S
H100 C115 0.940 . S
H101 C117 0.939 . S
H102 C118 0.942 . S
H103 C120 0.940 . S
H104 C121 0.939 . S
H105 C123 0.941 . S
H106 C127 0.939 . S
O107 P96 1.490 . S
H108 C124 0.939 . S
H109 C126 0.940 . S
C110 P96 1.812 . S
C110 C111 1.389 . S
C110 C115 1.391 . S
C111 H97 0.941 . S
C111 C110 1.389 . S
C111 C112 1.397 . S
C112 H98 0.939 . S
C112 C111 1.397 . S
C112 C113 1.378 . S
C113 C112 1.378 . S
C113 C114 1.378 . S
C114 H99 0.940 . S
C114 C113 1.378 . S
C114 C115 1.396 . S
C115 H100 0.940 . S
C115 C110 1.391 . S
C115 C114 1.396 . S
C116 P96 1.803 . S
C116 C117 1.378 . S
C116 C121 1.400 . S
C117 H101 0.939 . S
C117 C116 1.378 . S
C117 C118 1.361 . S
C118 H102 0.942 . S
C118 C117 1.361 . S
C118 C119 1.369 . S
C119 C118 1.369 . S
C119 C120 1.404 . S
C120 H103 0.940 . S
C120 C119 1.404 . S
C120 C121 1.389 . S
C121 H104 0.939 . S
C121 C116 1.400 . S
C121 C120 1.389 . S
C122 P96 1.819 . S
C122 C123 1.391 . S
C122 C127 1.391 . S
C123 H105 0.941 . S
C123 C122 1.391 . S
C123 C124 1.396 . S
C124 H108 0.939 . S
C124 C123 1.396 . S
C124 C125 1.397 . S
C125 C124 1.397 . S
C125 C126 1.385 . S
C126 H109 0.940 . S
C126 C125 1.385 . S
C126 C127 1.388 . S
C127 H106 0.939 . S
C127 C122 1.391 . S
C127 C126 1.388 . S
P128 O139 1.490 . S
P128 C142 1.812 . S
P128 C148 1.803 . S
P128 C154 1.819 . S
H129 C143 0.941 . S
H130 C144 0.939 . S
H131 C146 0.940 . S
H132 C147 0.940 . S
H133 C149 0.939 . S
H134 C150 0.942 . S
H135 C152 0.940 . S
H136 C153 0.939 . S
H137 C155 0.941 . S
H138 C159 0.939 . S
O139 P128 1.490 . S
H140 C156 0.939 . S
H141 C158 0.940 . S
C142 P128 1.812 . S
C142 C143 1.389 . S
C142 C147 1.391 . S
C143 H129 0.941 . S
C143 C142 1.389 . S
C143 C144 1.397 . S
C144 H130 0.939 . S
C144 C143 1.397 . S
C144 C145 1.378 . S
C145 C144 1.378 . S
C145 C146 1.378 . S
C146 H131 0.940 . S
C146 C145 1.378 . S
C146 C147 1.396 . S
C147 H132 0.940 . S
C147 C142 1.391 . S
C147 C146 1.396 . S
C148 P128 1.803 . S
C148 C149 1.378 . S
C148 C153 1.400 . S
C149 H133 0.939 . S
C149 C148 1.378 . S
C149 C150 1.361 . S
C150 H134 0.942 . S
C150 C149 1.361 . S
C150 C151 1.369 . S
C151 C150 1.369 . S
C151 C152 1.404 . S
C152 H135 0.940 . S
C152 C151 1.404 . S
C152 C153 1.389 . S
C153 H136 0.939 . S
C153 C148 1.400 . S
C153 C152 1.389 . S
C154 P128 1.819 . S
C154 C155 1.391 . S
C154 C159 1.391 . S
C155 H137 0.941 . S
C155 C154 1.391 . S
C155 C156 1.396 . S
C156 H140 0.939 . S
C156 C155 1.396 . S
C156 C157 1.397 . S
C157 C156 1.397 . S
C157 C158 1.385 . S
C158 H141 0.940 . S
C158 C157 1.385 . S
C158 C159 1.388 . S
C159 H138 0.939 . S
C159 C154 1.391 . S
C159 C158 1.388 . S
P160 O171 1.490 . S
P160 C174 1.812 . S
P160 C180 1.803 . S
P160 C186 1.819 . S
H161 C175 0.941 . S
H162 C176 0.939 . S
H163 C178 0.940 . S
H164 C179 0.940 . S
H165 C181 0.939 . S
H166 C182 0.942 . S
H167 C184 0.940 . S
H168 C185 0.939 . S
H169 C187 0.941 . S
H170 C191 0.939 . S
O171 P160 1.490 . S
H172 C188 0.939 . S
H173 C190 0.940 . S
C174 P160 1.812 . S
C174 C175 1.389 . S
C174 C179 1.391 . S
C175 H161 0.941 . S
C175 C174 1.389 . S
C175 C176 1.397 . S
C176 H162 0.939 . S
C176 C175 1.397 . S
C176 C177 1.378 . S
C177 C176 1.378 . S
C177 C178 1.378 . S
C178 H163 0.940 . S
C178 C177 1.378 . S
C178 C179 1.396 . S
C179 H164 0.940 . S
C179 C174 1.391 . S
C179 C178 1.396 . S
C180 P160 1.803 . S
C180 C181 1.378 . S
C180 C185 1.400 . S
C181 H165 0.939 . S
C181 C180 1.378 . S
C181 C182 1.361 . S
C182 H166 0.942 . S
C182 C181 1.361 . S
C182 C183 1.369 . S
C183 C182 1.369 . S
C183 C184 1.404 . S
C184 H167 0.940 . S
C184 C183 1.404 . S
C184 C185 1.389 . S
C185 H168 0.939 . S
C185 C180 1.400 . S
C185 C184 1.389 . S
C186 P160 1.819 . S
C186 C187 1.391 . S
C186 C191 1.391 . S
C187 H169 0.941 . S
C187 C186 1.391 . S
C187 C188 1.396 . S
C188 H172 0.939 . S
C188 C187 1.396 . S
C188 C189 1.397 . S
C189 C188 1.397 . S
C189 C190 1.385 . S
C190 H173 0.940 . S
C190 C189 1.385 . S
C190 C191 1.388 . S
C191 H170 0.939 . S
C191 C186 1.391 . S
C191 C190 1.388 . S
P192 O203 1.490 . S
P192 C206 1.812 . S
P192 C212 1.803 . S
P192 C218 1.819 . S
H193 C207 0.941 . S
H194 C208 0.939 . S
H195 C210 0.940 . S
H196 C211 0.940 . S
H197 C213 0.939 . S
H198 C214 0.942 . S
H199 C216 0.940 . S
H200 C217 0.939 . S
H201 C219 0.941 . S
H202 C223 0.939 . S
O203 P192 1.490 . S
H204 C220 0.939 . S
H205 C222 0.940 . S
C206 P192 1.812 . S
C206 C207 1.389 . S
C206 C211 1.391 . S
C207 H193 0.941 . S
C207 C206 1.389 . S
C207 C208 1.397 . S
C208 H194 0.939 . S
C208 C207 1.397 . S
C208 C209 1.378 . S
C209 C208 1.378 . S
C209 C210 1.378 . S
C210 H195 0.940 . S
C210 C209 1.378 . S
C210 C211 1.396 . S
C211 H196 0.940 . S
C211 C206 1.391 . S
C211 C210 1.396 . S
C212 P192 1.803 . S
C212 C213 1.378 . S
C212 C217 1.400 . S
C213 H197 0.939 . S
C213 C212 1.378 . S
C213 C214 1.361 . S
C214 H198 0.942 . S
C214 C213 1.361 . S
C214 C215 1.369 . S
C215 C214 1.369 . S
C215 C216 1.404 . S
C216 H199 0.940 . S
C216 C215 1.404 . S
C216 C217 1.389 . S
C217 H200 0.939 . S
C217 C212 1.400 . S
C217 C216 1.389 . S
C218 P192 1.819 . S
C218 C219 1.391 . S
C218 C223 1.391 . S
C219 H201 0.941 . S
C219 C218 1.391 . S
C219 C220 1.396 . S
C220 H204 0.939 . S
C220 C219 1.396 . S
C220 C221 1.397 . S
C221 C220 1.397 . S
C221 C222 1.385 . S
C222 H205 0.940 . S
C222 C221 1.385 . S
C222 C223 1.388 . S
C223 H202 0.939 . S
C223 C218 1.391 . S
C223 C222 1.388 . S
P224 O235 1.490 . S
P224 C238 1.812 . S
P224 C244 1.803 . S
P224 C250 1.819 . S
H225 C239 0.941 . S
H226 C240 0.939 . S
H227 C242 0.940 . S
H228 C243 0.940 . S
H229 C245 0.939 . S
H230 C246 0.942 . S
H231 C248 0.940 . S
H232 C249 0.939 . S
H233 C251 0.941 . S
H234 C255 0.939 . S
O235 P224 1.490 . S
H236 C252 0.939 . S
H237 C254 0.940 . S
C238 P224 1.812 . S
C238 C239 1.389 . S
C238 C243 1.391 . S
C239 H225 0.941 . S
C239 C238 1.389 . S
C239 C240 1.397 . S
C240 H226 0.939 . S
C240 C239 1.397 . S
C240 C241 1.378 . S
C241 C240 1.378 . S
C241 C242 1.378 . S
C242 H227 0.940 . S
C242 C241 1.378 . S
C242 C243 1.396 . S
C243 H228 0.940 . S
C243 C238 1.391 . S
C243 C242 1.396 . S
C244 P224 1.803 . S
C244 C245 1.378 . S
C244 C249 1.400 . S
C245 H229 0.939 . S
C245 C244 1.378 . S
C245 C246 1.361 . S
C246 H230 0.942 . S
C246 C245 1.361 . S
C246 C247 1.369 . S
C247 C246 1.369 . S
C247 C248 1.404 . S
C248 H231 0.940 . S
C248 C247 1.404 . S
C248 C249 1.389 . S
C249 H232 0.939 . S
C249 C244 1.400 . S
C249 C248 1.389 . S
C250 P224 1.819 . S
C250 C251 1.391 . S
C250 C255 1.391 . S
C251 H233 0.941 . S
C251 C250 1.391 . S
C251 C252 1.396 . S
C252 H236 0.939 . S
C252 C251 1.396 . S
C252 C253 1.397 . S
C253 C252 1.397 . S
C253 C254 1.385 . S
C254 H237 0.940 . S
C254 C253 1.385 . S
C254 C255 1.388 . S
C255 H234 0.939 . S
C255 C250 1.391 . S
C255 C254 1.388 . S
Tb256 C258 2.809 1_545 S
Tb256 O276 2.484 1_545 S
Tb256 O277 2.440 1_545 S
Tb256 O278 2.658 1_655 S
Tb256 O279 2.409 1_655 S
Tb256 O280 2.378 1_645 S
Tb256 O284 2.325 1_545 S
Tb256 O287 2.341 . S
Tb257 C267 2.809 . S
Tb257 O278 2.325 . S
Tb257 O281 2.341 1_545 S
Tb257 O282 2.484 . S
Tb257 O283 2.440 . S
Tb257 O284 2.658 1_445 S
Tb257 O285 2.409 1_545 S
Tb257 O286 2.377 1_455 S
C258 Tb256 2.809 1_565 S
C258 C259 1.514 . S
C258 O276 1.248 . S
C258 O277 1.266 . S
C259 C258 1.514 . S
C259 C260 1.359 . S
C259 C264 1.348 . S
C260 C259 1.359 . S
C260 C261 1.380 . S
C260 H288 0.929 . S
C261 C260 1.380 . S
C261 C262 1.347 . S
C261 H289 0.931 . S
C262 C261 1.347 . S
C262 C263 1.369 . S
C263 C262 1.369 . S
C263 C264 1.408 . S
C263 H290 0.930 . S
C264 C259 1.348 . S
C264 C263 1.408 . S
C264 H291 0.930 . S
C265 O278 1.281 . S
C265 O279 1.254 . S
C266 O280 1.236 . S
C266 O281 1.266 . S
C267 Tb257 2.809 . S
C267 C268 1.514 . S
C267 O282 1.248 . S
C267 O283 1.266 . S
C268 C267 1.514 . S
C268 C269 1.359 . S
C268 C273 1.348 . S
C269 C268 1.359 . S
C269 C270 1.380 . S
C269 H292 0.929 . S
C270 C269 1.380 . S
C270 C271 1.347 . S
C270 H293 0.931 . S
C271 C270 1.347 . S
C271 C272 1.369 . S
C272 C271 1.369 . S
C272 C273 1.408 . S
C272 H294 0.930 . S
C273 C268 1.348 . S
C273 C272 1.408 . S
C273 H295 0.930 . S
C274 O284 1.281 . S
C274 O285 1.254 1_655 S
C275 O286 1.237 . S
C275 O287 1.266 . S
O276 Tb256 2.484 1_565 S
O276 C258 1.248 . S
O277 Tb256 2.440 1_565 S
O277 C258 1.266 . S
O278 Tb256 2.658 1_455 S
O278 Tb257 2.325 . S
O278 C265 1.281 . S
O279 Tb256 2.409 1_455 S
O279 C265 1.254 . S
O280 Tb256 2.378 1_465 S
O280 C266 1.236 . S
O281 Tb257 2.341 1_565 S
O281 C266 1.266 . S
O282 Tb257 2.484 . S
O282 C267 1.248 . S
O283 Tb257 2.440 . S
O283 C267 1.266 . S
O284 Tb256 2.325 1_565 S
O284 Tb257 2.658 1_665 S
O284 C274 1.281 . S
O285 Tb257 2.409 1_565 S
O285 C274 1.254 1_455 S
O286 Tb257 2.377 1_655 S
O286 C275 1.237 . S
O287 Tb256 2.341 . S
O287 C275 1.266 . S
H288 C260 0.929 . S
H289 C261 0.931 . S
H290 C263 0.930 . S
H291 C264 0.930 . S
H292 C269 0.929 . S
H293 C270 0.931 . S
H294 C272 0.930 . S
H295 C273 0.930 . S
Tb296 C298 2.809 . S
Tb296 O316 2.484 . S
Tb296 O317 2.440 . S
Tb296 O318 2.658 1_545 S
Tb296 O319 2.409 1_545 S
Tb296 O320 2.378 . S
Tb296 O324 2.325 1_554 S
Tb296 O327 2.341 1_544 S
Tb297 C307 2.809 1_545 S
Tb297 O318 2.325 1_546 S
Tb297 O321 2.341 1_556 S
Tb297 O322 2.484 1_545 S
Tb297 O323 2.440 1_545 S
Tb297 O324 2.658 . S
Tb297 O325 2.409 . S
Tb297 O326 2.378 1_545 S
C298 Tb296 2.809 . S
C298 C299 1.514 . S
C298 O316 1.248 . S
C298 O317 1.266 . S
C299 C298 1.514 . S
C299 C300 1.359 . S
C299 C304 1.348 . S
C300 C299 1.359 . S
C300 C301 1.380 . S
C300 H328 0.929 . S
C301 C300 1.380 . S
C301 C302 1.347 . S
C301 H329 0.931 . S
C302 C301 1.347 . S
C302 C303 1.369 . S
C303 C302 1.369 . S
C303 C304 1.408 . S
C303 H330 0.930 . S
C304 C299 1.348 . S
C304 C303 1.408 . S
C304 H331 0.930 . S
C305 O318 1.281 . S
C305 O319 1.254 . S
C306 O320 1.236 . S
C306 O321 1.266 . S
C307 Tb297 2.809 1_565 S
C307 C308 1.514 . S
C307 O322 1.248 . S
C307 O323 1.266 . S
C308 C307 1.514 . S
C308 C309 1.359 . S
C308 C313 1.348 . S
C309 C308 1.359 . S
C309 C310 1.380 . S
C309 H332 0.929 . S
C310 C309 1.380 . S
C310 C311 1.347 . S
C310 H333 0.931 . S
C311 C310 1.347 . S
C311 C312 1.369 . S
C312 C311 1.369 . S
C312 C313 1.408 . S
C312 H334 0.930 . S
C313 C308 1.348 . S
C313 C312 1.408 . S
C313 H335 0.930 . S
C314 O324 1.281 . S
C314 O325 1.254 . S
C315 O326 1.236 . S
C315 O327 1.266 . S
O316 Tb296 2.484 . S
O316 C298 1.248 . S
O317 Tb296 2.440 . S
O317 C298 1.266 . S
O318 Tb296 2.658 1_565 S
O318 Tb297 2.325 1_564 S
O318 C305 1.281 . S
O319 Tb296 2.409 1_565 S
O319 C305 1.254 . S
O320 Tb296 2.378 . S
O320 C306 1.236 . S
O321 Tb297 2.341 1_554 S
O321 C306 1.266 . S
O322 Tb297 2.484 1_565 S
O322 C307 1.248 . S
O323 Tb297 2.440 1_565 S
O323 C307 1.266 . S
O324 Tb296 2.325 1_556 S
O324 Tb297 2.658 . S
O324 C314 1.281 . S
O325 Tb297 2.409 . S
O325 C314 1.254 . S
O326 Tb297 2.378 1_565 S
O326 C315 1.236 . S
O327 Tb296 2.341 1_566 S
O327 C315 1.266 . S
H328 C300 0.929 . S
H329 C301 0.931 . S
H330 C303 0.930 . S
H331 C304 0.930 . S
H332 C309 0.929 . S
H333 C310 0.931 . S
H334 C312 0.930 . S
H335 C313 0.930 . S
Tb336 C338 2.809 . S
Tb336 O356 2.484 . S
Tb336 O357 2.440 . S
Tb336 O358 2.658 . S
Tb336 O359 2.409 . S
Tb336 O360 2.378 . S
Tb336 O364 2.325 . S
Tb336 O367 2.341 . S
Tb337 C347 2.809 . S
Tb337 O358 2.325 . S
Tb337 O361 2.341 . S
Tb337 O362 2.484 . S
Tb337 O363 2.440 . S
Tb337 O364 2.658 . S
Tb337 O365 2.409 . S
Tb337 O366 2.378 . S
C338 Tb336 2.809 . S
C338 C339 1.514 . S
C338 O356 1.248 . S
C338 O357 1.266 . S
C339 C338 1.514 . S
C339 C340 1.359 . S
C339 C344 1.348 . S
C340 C339 1.359 . S
C340 C341 1.380 . S
C340 H368 0.929 . S
C341 C340 1.380 . S
C341 C342 1.347 . S
C341 H369 0.931 . S
C342 C341 1.347 . S
C342 C343 1.369 . S
C343 C342 1.369 . S
C343 C344 1.408 . S
C343 H370 0.930 . S
C344 C339 1.348 . S
C344 C343 1.408 . S
C344 H371 0.930 . S
C345 O358 1.281 . S
C345 O359 1.254 . S
C346 O360 1.236 . S
C346 O361 1.266 . S
C347 Tb337 2.809 . S
C347 C348 1.514 . S
C347 O362 1.248 . S
C347 O363 1.266 . S
C348 C347 1.514 . S
C348 C349 1.359 . S
C348 C353 1.348 . S
C349 C348 1.359 . S
C349 C350 1.380 . S
C349 H372 0.929 . S
C350 C349 1.380 . S
C350 C351 1.347 . S
C350 H373 0.931 . S
C351 C350 1.347 . S
C351 C352 1.369 . S
C352 C351 1.369 . S
C352 C353 1.408 . S
C352 H374 0.930 . S
C353 C348 1.348 . S
C353 C352 1.408 . S
C353 H375 0.930 . S
C354 O364 1.281 . S
C354 O365 1.254 . S
C355 O366 1.236 . S
C355 O367 1.266 . S
O356 Tb336 2.484 . S
O356 C338 1.248 . S
O357 Tb336 2.440 . S
O357 C338 1.266 . S
O358 Tb336 2.658 . S
O358 Tb337 2.325 . S
O358 C345 1.281 . S
O359 Tb336 2.409 . S
O359 C345 1.254 . S
O360 Tb336 2.378 . S
O360 C346 1.236 . S
O361 Tb337 2.341 . S
O361 C346 1.266 . S
O362 Tb337 2.484 . S
O362 C347 1.248 . S
O363 Tb337 2.440 . S
O363 C347 1.266 . S
O364 Tb336 2.325 . S
O364 Tb337 2.658 . S
O364 C354 1.281 . S
O365 Tb337 2.409 . S
O365 C354 1.254 . S
O366 Tb337 2.378 . S
O366 C355 1.236 . S
O367 Tb336 2.341 . S
O367 C355 1.266 . S
H368 C340 0.929 . S
H369 C341 0.931 . S
H370 C343 0.930 . S
H371 C344 0.930 . S
H372 C349 0.929 . S
H373 C350 0.931 . S
H374 C352 0.930 . S
H375 C353 0.930 . S
Tb376 C378 2.809 1_455 S
Tb376 O396 2.484 1_455 S
Tb376 O397 2.440 1_455 S
Tb376 O398 2.658 1_556 S
Tb376 O399 2.388 1_556 S
Tb376 O400 2.378 1_456 S
Tb376 O404 2.325 1_455 S
Tb376 O407 2.341 . S
Tb377 C387 2.809 . S
Tb377 O398 2.325 . S
Tb377 O401 2.341 1_455 S
Tb377 O402 2.484 . S
Tb377 O403 2.440 . S
Tb377 O404 2.658 1_454 S
Tb377 O405 2.409 1_455 S
Tb377 O406 2.378 1_554 S
C378 Tb376 2.809 1_655 S
C378 C379 1.514 . S
C378 O396 1.248 . S
C378 O397 1.266 . S
C379 C378 1.514 . S
C379 C380 1.359 . S
C379 C384 1.348 . S
C380 C379 1.359 . S
C380 C381 1.380 . S
C380 H408 0.929 . S
C381 C380 1.380 . S
C381 C382 1.347 . S
C381 H409 0.931 . S
C382 C381 1.347 . S
C382 C383 1.369 . S
C383 C382 1.369 . S
C383 C384 1.408 . S
C383 H410 0.930 . S
C384 C379 1.348 . S
C384 C383 1.408 . S
C384 H411 0.930 . S
C385 O398 1.281 . S
C385 O399 1.278 . S
C386 O400 1.236 . S
C386 O401 1.266 . S
C387 Tb377 2.809 . S
C387 C388 1.514 . S
C387 O402 1.248 . S
C387 O403 1.266 . S
C388 C387 1.514 . S
C388 C389 1.359 . S
C388 C393 1.348 . S
C389 C388 1.359 . S
C389 C390 1.380 . S
C389 H412 0.929 . S
C390 C389 1.380 . S
C390 C391 1.347 . S
C390 H413 0.931 . S
C391 C390 1.347 . S
C391 C392 1.369 . S
C392 C391 1.369 . S
C392 C393 1.408 . S
C392 H414 0.930 . S
C393 C388 1.348 . S
C393 C392 1.408 . S
C393 H415 0.930 . S
C394 O404 1.281 . S
C394 O405 1.254 1_556 S
C395 O406 1.236 . S
C395 O407 1.266 . S
O396 Tb376 2.484 1_655 S
O396 C378 1.248 . S
O397 Tb376 2.440 1_655 S
O397 C378 1.266 . S
O398 Tb376 2.658 1_554 S
O398 Tb377 2.325 . S
O398 C385 1.281 . S
O399 Tb376 2.388 1_554 S
O399 C385 1.278 . S
O400 Tb376 2.378 1_654 S
O400 C386 1.236 . S
O401 Tb377 2.341 1_655 S
O401 C386 1.266 . S
O402 Tb377 2.484 . S
O402 C387 1.248 . S
O403 Tb377 2.440 . S
O403 C387 1.266 . S
O404 Tb376 2.325 1_655 S
O404 Tb377 2.658 1_656 S
O404 C394 1.281 . S
O405 Tb377 2.409 1_655 S
O405 C394 1.254 1_554 S
O406 Tb377 2.378 1_556 S
O406 C395 1.236 . S
O407 Tb376 2.341 . S
O407 C395 1.266 . S
H408 C380 0.929 . S
H409 C381 0.931 . S
H410 C383 0.930 . S
H411 C384 0.930 . S
H412 C389 0.929 . S
H413 C390 0.931 . S
H414 C392 0.930 . S
H415 C393 0.930 . S
H416 C424 0.929 . S
H417 C426 0.930 . S
H418 C428 0.930 . S
H419 C431 0.929 . S
H420 C434 0.930 . S
H421 C436 0.960 . S
H422 C436 0.960 . S
H423 C436 0.960 . S
C424 H416 0.929 . S
C424 C425 1.377 . S
C424 C426 1.384 . S
C425 C424 1.377 . S
C425 C431 1.390 . S
C426 H417 0.930 . S
C426 C424 1.384 . S
C426 C427 1.372 . S
C427 C426 1.372 . S
C427 C428 1.400 . S
C427 C432 1.490 . S
C428 H418 0.930 . S
C428 C427 1.400 . S
C428 C431 1.386 . S
H429 C445 0.930 . S
H430 C446 0.931 . S
C431 H419 0.929 . S
C431 C425 1.390 . S
C431 C428 1.386 . S
C432 C427 1.490 . S
C432 C434 1.395 . S
C432 C435 1.403 . S
H433 C439 0.930 . S
C434 H420 0.930 . S
C434 C432 1.395 . S
C434 C437 1.403 . S
C435 C432 1.403 . S
C435 C436 1.524 . S
C435 C439 1.400 . S
C436 H421 0.960 . S
C436 H422 0.960 . S
C436 H423 0.960 . S
C436 C435 1.524 . S
C437 C434 1.403 . S
C437 C438 1.392 . S
C437 C441 1.495 . S
C438 C437 1.392 . S
C438 C439 1.385 . S
C438 C440 1.478 . S
C439 H433 0.930 . S
C439 C435 1.400 . S
C439 C438 1.385 . S
C440 C438 1.478 . S
C440 C442 1.381 . S
C440 C446 1.383 . S
C441 C437 1.495 . S
C441 H447 0.959 . S
C441 H448 0.961 . S
C441 H449 0.960 . S
C442 C440 1.381 . S
C442 C443 1.394 . S
C442 H450 0.930 . S
C443 C442 1.394 . S
C443 C444 1.383 . S
C443 H451 0.929 . S
C444 C443 1.383 . S
C444 C445 1.377 . S
C445 H429 0.930 . S
C445 C444 1.377 . S
C445 C446 1.379 . S
C446 H430 0.931 . S
C446 C440 1.383 . S
C446 C445 1.379 . S
H447 C441 0.959 . S
H448 C441 0.961 . S
H449 C441 0.960 . S
H450 C442 0.930 . S
H451 C443 0.929 . S
H452 C460 0.929 . S
H453 C462 0.930 . S
H454 C464 0.930 . S
H455 C467 0.929 . S
H456 C470 0.930 . S
H457 C472 0.960 . S
H458 C472 0.960 . S
H459 C472 0.960 . S
C460 H452 0.929 . S
C460 C461 1.377 . S
C460 C462 1.384 . S
C461 C460 1.377 . S
C461 C467 1.390 . S
C462 H453 0.930 . S
C462 C460 1.384 . S
C462 C463 1.372 . S
C463 C462 1.372 . S
C463 C464 1.400 . S
C463 C468 1.490 . S
C464 H454 0.930 . S
C464 C463 1.400 . S
C464 C467 1.386 . S
H465 C481 0.930 . S
H466 C482 0.931 . S
C467 H455 0.929 . S
C467 C461 1.390 . S
C467 C464 1.386 . S
C468 C463 1.490 . S
C468 C470 1.395 . S
C468 C471 1.403 . S
H469 C475 0.930 . S
C470 H456 0.930 . S
C470 C468 1.395 . S
C470 C473 1.403 . S
C471 C468 1.403 . S
C471 C472 1.524 . S
C471 C475 1.400 . S
C472 H457 0.960 . S
C472 H458 0.960 . S
C472 H459 0.960 . S
C472 C471 1.524 . S
C473 C470 1.403 . S
C473 C474 1.392 . S
C473 C477 1.495 . S
C474 C473 1.392 . S
C474 C475 1.385 . S
C474 C476 1.478 . S
C475 H469 0.930 . S
C475 C471 1.400 . S
C475 C474 1.385 . S
C476 C474 1.478 . S
C476 C478 1.381 . S
C476 C482 1.383 . S
C477 C473 1.495 . S
C477 H483 0.959 . S
C477 H484 0.961 . S
C477 H485 0.960 . S
C478 C476 1.381 . S
C478 C479 1.394 . S
C478 H486 0.930 . S
C479 C478 1.394 . S
C479 C480 1.383 . S
C479 H487 0.929 . S
C480 C479 1.383 . S
C480 C481 1.377 . S
C481 H465 0.930 . S
C481 C480 1.377 . S
C481 C482 1.379 . S
C482 H466 0.931 . S
C482 C476 1.383 . S
C482 C481 1.379 . S
H483 C477 0.959 . S
H484 C477 0.961 . S
H485 C477 0.960 . S
H486 C478 0.930 . S
H487 C479 0.929 . S
H488 C496 0.929 . S
H489 C498 0.930 . S
H490 C500 0.930 . S
H491 C503 0.929 . S
H492 C506 0.930 . S
H493 C508 0.960 . S
H494 C508 0.960 . S
H495 C508 0.960 . S
C496 H488 0.929 . S
C496 C497 1.377 . S
C496 C498 1.384 . S
C497 C496 1.377 . S
C497 C503 1.390 . S
C498 H489 0.930 . S
C498 C496 1.384 . S
C498 C499 1.372 . S
C499 C498 1.372 . S
C499 C500 1.400 . S
C499 C504 1.490 . S
C500 H490 0.930 . S
C500 C499 1.400 . S
C500 C503 1.386 . S
H501 C517 0.930 . S
H502 C518 0.931 . S
C503 H491 0.929 . S
C503 C497 1.390 . S
C503 C500 1.386 . S
C504 C499 1.490 . S
C504 C506 1.395 . S
C504 C507 1.403 . S
H505 C511 0.930 . S
C506 H492 0.930 . S
C506 C504 1.395 . S
C506 C509 1.403 . S
C507 C504 1.403 . S
C507 C508 1.524 . S
C507 C511 1.400 . S
C508 H493 0.960 . S
C508 H494 0.960 . S
C508 H495 0.960 . S
C508 C507 1.524 . S
C509 C506 1.403 . S
C509 C510 1.392 . S
C509 C513 1.495 . S
C510 C509 1.392 . S
C510 C511 1.385 . S
C510 C512 1.478 . S
C511 H505 0.930 . S
C511 C507 1.400 . S
C511 C510 1.385 . S
C512 C510 1.478 . S
C512 C514 1.381 . S
C512 C518 1.383 . S
C513 C509 1.495 . S
C513 H519 0.959 . S
C513 H520 0.961 . S
C513 H521 0.960 . S
C514 C512 1.381 . S
C514 C515 1.394 . S
C514 H522 0.930 . S
C515 C514 1.394 . S
C515 C516 1.383 . S
C515 H523 0.929 . S
C516 C515 1.383 . S
C516 C517 1.377 . S
C517 H501 0.930 . S
C517 C516 1.377 . S
C517 C518 1.379 . S
C518 H502 0.931 . S
C518 C512 1.383 . S
C518 C517 1.379 . S
H519 C513 0.959 . S
H520 C513 0.961 . S
H521 C513 0.960 . S
H522 C514 0.930 . S
H523 C515 0.929 . S
H524 C532 0.929 . S
H525 C534 0.930 . S
H526 C536 0.930 . S
H527 C539 0.929 . S
H528 C542 0.930 . S
H529 C544 0.960 . S
H530 C544 0.960 . S
H531 C544 0.960 . S
C532 H524 0.929 . S
C532 C533 1.377 . S
C532 C534 1.384 . S
C533 C532 1.377 . S
C533 C539 1.390 . S
C534 H525 0.930 . S
C534 C532 1.384 . S
C534 C535 1.372 . S
C535 C534 1.372 . S
C535 C536 1.400 . S
C535 C540 1.490 . S
C536 H526 0.930 . S
C536 C535 1.400 . S
C536 C539 1.386 . S
H537 C553 0.930 . S
H538 C554 0.931 . S
C539 H527 0.929 . S
C539 C533 1.390 . S
C539 C536 1.386 . S
C540 C535 1.490 . S
C540 C542 1.395 . S
C540 C543 1.403 . S
H541 C547 0.930 . S
C542 H528 0.930 . S
C542 C540 1.395 . S
C542 C545 1.403 . S
C543 C540 1.403 . S
C543 C544 1.524 . S
C543 C547 1.400 . S
C544 H529 0.960 . S
C544 H530 0.960 . S
C544 H531 0.960 . S
C544 C543 1.524 . S
C545 C542 1.403 . S
C545 C546 1.392 . S
C545 C549 1.495 . S
C546 C545 1.392 . S
C546 C547 1.385 . S
C546 C548 1.478 . S
C547 H541 0.930 . S
C547 C543 1.400 . S
C547 C546 1.385 . S
C548 C546 1.478 . S
C548 C550 1.381 . S
C548 C554 1.383 . S
C549 C545 1.495 . S
C549 H555 0.959 . S
C549 H556 0.961 . S
C549 H557 0.960 . S
C550 C548 1.381 . S
C550 C551 1.394 . S
C550 H558 0.930 . S
C551 C550 1.394 . S
C551 C552 1.383 . S
C551 H559 0.929 . S
C552 C551 1.383 . S
C552 C553 1.377 . S
C553 H537 0.930 . S
C553 C552 1.377 . S
C553 C554 1.379 . S
C554 H538 0.931 . S
C554 C548 1.383 . S
C554 C553 1.379 . S
H555 C549 0.959 . S
H556 C549 0.961 . S
H557 C549 0.960 . S
H558 C550 0.930 . S
H559 C551 0.929 . S
H560 C568 0.929 . S
H561 C570 0.930 . S
H562 C572 0.930 . S
H563 C575 0.929 . S
H564 C578 0.930 . S
H565 C580 0.960 . S
H566 C580 0.960 . S
H567 C580 0.960 . S
C568 H560 0.929 . S
C568 C569 1.377 . S
C568 C570 1.384 . S
C569 C568 1.377 . S
C569 C575 1.390 . S
C570 H561 0.930 . S
C570 C568 1.384 . S
C570 C571 1.372 . S
C571 C570 1.372 . S
C571 C572 1.400 . S
C571 C576 1.490 . S
C572 H562 0.930 . S
C572 C571 1.400 . S
C572 C575 1.386 . S
H573 C589 0.930 . S
H574 C590 0.931 . S
C575 H563 0.929 . S
C575 C569 1.390 . S
C575 C572 1.386 . S
C576 C571 1.490 . S
C576 C578 1.395 . S
C576 C579 1.403 . S
H577 C583 0.930 . S
C578 H564 0.930 . S
C578 C576 1.395 . S
C578 C581 1.403 . S
C579 C576 1.403 . S
C579 C580 1.524 . S
C579 C583 1.400 . S
C580 H565 0.960 . S
C580 H566 0.960 . S
C580 H567 0.960 . S
C580 C579 1.524 . S
C581 C578 1.403 . S
C581 C582 1.392 . S
C581 C585 1.495 . S
C582 C581 1.392 . S
C582 C583 1.385 . S
C582 C584 1.478 . S
C583 H577 0.930 . S
C583 C579 1.400 . S
C583 C582 1.385 . S
C584 C582 1.478 . S
C584 C586 1.381 . S
C584 C590 1.383 . S
C585 C581 1.495 . S
C585 H591 0.959 . S
C585 H592 0.961 . S
C585 H593 0.960 . S
C586 C584 1.381 . S
C586 C587 1.394 . S
C586 H594 0.930 . S
C587 C586 1.394 . S
C587 C588 1.383 . S
C587 H595 0.929 . S
C588 C587 1.383 . S
C588 C589 1.377 . S
C589 H573 0.930 . S
C589 C588 1.377 . S
C589 C590 1.379 . S
C590 H574 0.931 . S
C590 C584 1.383 . S
C590 C589 1.379 . S
H591 C585 0.959 . S
H592 C585 0.961 . S
H593 C585 0.960 . S
H594 C586 0.930 . S
H595 C587 0.929 . S
H596 C604 0.929 . S
H597 C606 0.930 . S
H598 C608 0.930 . S
H599 C611 0.929 . S
H600 C614 0.930 . S
H601 C616 0.960 . S
H602 C616 0.960 . S
H603 C616 0.960 . S
C604 H596 0.929 . S
C604 C605 1.377 . S
C604 C606 1.384 . S
C605 C604 1.377 . S
C605 C611 1.390 . S
C606 H597 0.930 . S
C606 C604 1.384 . S
C606 C607 1.372 . S
C607 C606 1.372 . S
C607 C608 1.400 . S
C607 C612 1.490 . S
C608 H598 0.930 . S
C608 C607 1.400 . S
C608 C611 1.386 . S
H609 C625 0.930 . S
H610 C626 0.931 . S
C611 H599 0.929 . S
C611 C605 1.390 . S
C611 C608 1.386 . S
C612 C607 1.490 . S
C612 C614 1.395 . S
C612 C615 1.403 . S
H613 C619 0.930 . S
C614 H600 0.930 . S
C614 C612 1.395 . S
C614 C617 1.403 . S
C615 C612 1.403 . S
C615 C616 1.524 . S
C615 C619 1.400 . S
C616 H601 0.960 . S
C616 H602 0.960 . S
C616 H603 0.960 . S
C616 C615 1.524 . S
C617 C614 1.403 . S
C617 C618 1.392 . S
C617 C621 1.495 . S
C618 C617 1.392 . S
C618 C619 1.385 . S
C618 C620 1.478 . S
C619 H613 0.930 . S
C619 C615 1.400 . S
C619 C618 1.385 . S
C620 C618 1.478 . S
C620 C622 1.381 . S
C620 C626 1.383 . S
C621 C617 1.495 . S
C621 H627 0.959 . S
C621 H628 0.961 . S
C621 H629 0.960 . S
C622 C620 1.381 . S
C622 C623 1.394 . S
C622 H630 0.930 . S
C623 C622 1.394 . S
C623 C624 1.383 . S
C623 H631 0.929 . S
C624 C623 1.383 . S
C624 C625 1.377 . S
C625 H609 0.930 . S
C625 C624 1.377 . S
C625 C626 1.379 . S
C626 H610 0.931 . S
C626 C620 1.383 . S
C626 C625 1.379 . S
H627 C621 0.959 . S
H628 C621 0.961 . S
H629 C621 0.960 . S
H630 C622 0.930 . S
H631 C623 0.929 . S
H632 C640 0.929 . S
H633 C642 0.930 . S
H634 C644 0.930 . S
H635 C647 0.929 . S
H636 C650 0.930 . S
H637 C652 0.960 . S
H638 C652 0.960 . S
H639 C652 0.960 . S
C640 H632 0.929 . S
C640 C641 1.377 . S
C640 C642 1.384 . S
C641 C640 1.377 . S
C641 C647 1.390 . S
C642 H633 0.930 . S
C642 C640 1.384 . S
C642 C643 1.372 . S
C643 C642 1.372 . S
C643 C644 1.400 . S
C643 C648 1.490 . S
C644 H634 0.930 . S
C644 C643 1.400 . S
C644 C647 1.386 . S
H645 C661 0.930 . S
H646 C662 0.931 . S
C647 H635 0.929 . S
C647 C641 1.390 . S
C647 C644 1.386 . S
C648 C643 1.490 . S
C648 C650 1.395 . S
C648 C651 1.403 . S
H649 C655 0.930 . S
C650 H636 0.930 . S
C650 C648 1.395 . S
C650 C653 1.403 . S
C651 C648 1.403 . S
C651 C652 1.524 . S
C651 C655 1.400 . S
C652 H637 0.960 . S
C652 H638 0.960 . S
C652 H639 0.960 . S
C652 C651 1.524 . S
C653 C650 1.403 . S
C653 C654 1.392 . S
C653 C657 1.495 . S
C654 C653 1.392 . S
C654 C655 1.385 . S
C654 C656 1.478 . S
C655 H649 0.930 . S
C655 C651 1.400 . S
C655 C654 1.385 . S
C656 C654 1.478 . S
C656 C658 1.381 . S
C656 C662 1.383 . S
C657 C653 1.495 . S
C657 H663 0.959 . S
C657 H664 0.961 . S
C657 H665 0.960 . S
C658 C656 1.381 . S
C658 C659 1.394 . S
C658 H666 0.930 . S
C659 C658 1.394 . S
C659 C660 1.383 . S
C659 H667 0.929 . S
C660 C659 1.383 . S
C660 C661 1.377 . S
C661 H645 0.930 . S
C661 C660 1.377 . S
C661 C662 1.379 . S
C662 H646 0.931 . S
C662 C656 1.383 . S
C662 C661 1.379 . S
H663 C657 0.959 . S
H664 C657 0.961 . S
H665 C657 0.960 . S
H666 C658 0.930 . S
H667 C659 0.929 . S
H668 C676 0.929 . S
H669 C678 0.930 . S
H670 C680 0.930 . S
H671 C683 0.929 . S
H672 C686 0.930 . S
H673 C688 0.960 . S
H674 C688 0.960 . S
H675 C688 0.960 . S
C676 H668 0.929 . S
C676 C677 1.377 . S
C676 C678 1.384 . S
C677 C676 1.377 . S
C677 C683 1.390 . S
C678 H669 0.930 . S
C678 C676 1.384 . S
C678 C679 1.372 . S
C679 C678 1.372 . S
C679 C680 1.400 . S
C679 C684 1.490 . S
C680 H670 0.930 . S
C680 C679 1.400 . S
C680 C683 1.386 . S
H681 C697 0.930 . S
H682 C698 0.931 . S
C683 H671 0.929 . S
C683 C677 1.390 . S
C683 C680 1.386 . S
C684 C679 1.490 . S
C684 C686 1.395 . S
C684 C687 1.403 . S
H685 C691 0.930 . S
C686 H672 0.930 . S
C686 C684 1.395 . S
C686 C689 1.403 . S
C687 C684 1.403 . S
C687 C688 1.524 . S
C687 C691 1.400 . S
C688 H673 0.960 . S
C688 H674 0.960 . S
C688 H675 0.960 . S
C688 C687 1.524 . S
C689 C686 1.403 . S
C689 C690 1.392 . S
C689 C693 1.495 . S
C690 C689 1.392 . S
C690 C691 1.385 . S
C690 C692 1.478 . S
C691 H685 0.930 . S
C691 C687 1.400 . S
C691 C690 1.385 . S
C692 C690 1.478 . S
C692 C694 1.381 . S
C692 C698 1.383 . S
C693 C689 1.495 . S
C693 H699 0.959 . S
C693 H700 0.961 . S
C693 H701 0.960 . S
C694 C692 1.381 . S
C694 C695 1.394 . S
C694 H702 0.930 . S
C695 C694 1.394 . S
C695 C696 1.383 . S
C695 H703 0.929 . S
C696 C695 1.383 . S
C696 C697 1.377 . S
C697 H681 0.930 . S
C697 C696 1.377 . S
C697 C698 1.379 . S
C698 H682 0.931 . S
C698 C692 1.383 . S
C698 C697 1.379 . S
H699 C693 0.959 . S
H700 C693 0.961 . S
H701 C693 0.960 . S
H702 C694 0.930 . S
H703 C695 0.929 . S
H704 C712 0.929 . S
H705 C714 0.930 . S
H706 C716 0.930 . S
H707 C719 0.929 . S
H708 C722 0.930 . S
H709 C724 0.960 . S
H710 C724 0.960 . S
H711 C724 0.960 . S
C712 H704 0.929 . S
C712 C713 1.377 . S
C712 C714 1.384 . S
C713 C712 1.377 . S
C713 C719 1.390 . S
C714 H705 0.930 . S
C714 C712 1.384 . S
C714 C715 1.372 . S
C715 C714 1.372 . S
C715 C716 1.400 . S
C715 C720 1.490 . S
C716 H706 0.930 . S
C716 C715 1.400 . S
C716 C719 1.386 . S
H717 C733 0.930 . S
H718 C734 0.931 . S
C719 H707 0.929 . S
C719 C713 1.390 . S
C719 C716 1.386 . S
C720 C715 1.490 . S
C720 C722 1.395 . S
C720 C723 1.403 . S
H721 C727 0.930 . S
C722 H708 0.930 . S
C722 C720 1.395 . S
C722 C725 1.403 . S
C723 C720 1.403 . S
C723 C724 1.524 . S
C723 C727 1.400 . S
C724 H709 0.960 . S
C724 H710 0.960 . S
C724 H711 0.960 . S
C724 C723 1.524 . S
C725 C722 1.403 . S
C725 C726 1.392 . S
C725 C729 1.495 . S
C726 C725 1.392 . S
C726 C727 1.385 . S
C726 C728 1.478 . S
C727 H721 0.930 . S
C727 C723 1.400 . S
C727 C726 1.385 . S
C728 C726 1.478 . S
C728 C730 1.381 . S
C728 C734 1.383 . S
C729 C725 1.495 . S
C729 H735 0.959 . S
C729 H736 0.961 . S
C729 H737 0.960 . S
C730 C728 1.381 . S
C730 C731 1.394 . S
C730 H738 0.930 . S
C731 C730 1.394 . S
C731 C732 1.383 . S
C731 H739 0.929 . S
C732 C731 1.383 . S
C732 C733 1.377 . S
C733 H717 0.930 . S
C733 C732 1.377 . S
C733 C734 1.379 . S
C734 H718 0.931 . S
C734 C728 1.383 . S
C734 C733 1.379 . S
H735 C729 0.959 . S
H736 C729 0.961 . S
H737 C729 0.960 . S
H738 C730 0.930 . S
H739 C731 0.929 . S
H740 C748 0.929 . S
H741 C750 0.930 . S
H742 C752 0.930 . S
H743 C755 0.929 . S
H744 C758 0.930 . S
H745 C760 0.960 . S
H746 C760 0.960 . S
H747 C760 0.960 . S
C748 H740 0.929 . S
C748 C749 1.377 . S
C748 C750 1.384 . S
C749 C748 1.377 . S
C749 C755 1.390 . S
C750 H741 0.930 . S
C750 C748 1.384 . S
C750 C751 1.372 . S
C751 C750 1.372 . S
C751 C752 1.400 . S
C751 C756 1.490 . S
C752 H742 0.930 . S
C752 C751 1.400 . S
C752 C755 1.386 . S
H753 C769 0.930 . S
H754 C770 0.931 . S
C755 H743 0.929 . S
C755 C749 1.390 . S
C755 C752 1.386 . S
C756 C751 1.490 . S
C756 C758 1.395 . S
C756 C759 1.403 . S
H757 C763 0.930 . S
C758 H744 0.930 . S
C758 C756 1.395 . S
C758 C761 1.403 . S
C759 C756 1.403 . S
C759 C760 1.524 . S
C759 C763 1.400 . S
C760 H745 0.960 . S
C760 H746 0.960 . S
C760 H747 0.960 . S
C760 C759 1.524 . S
C761 C758 1.403 . S
C761 C762 1.392 . S
C761 C765 1.495 . S
C762 C761 1.392 . S
C762 C763 1.385 . S
C762 C764 1.478 . S
C763 H757 0.930 . S
C763 C759 1.400 . S
C763 C762 1.385 . S
C764 C762 1.478 . S
C764 C766 1.381 . S
C764 C770 1.383 . S
C765 C761 1.495 . S
C765 H771 0.959 . S
C765 H772 0.961 . S
C765 H773 0.960 . S
C766 C764 1.381 . S
C766 C767 1.394 . S
C766 H774 0.930 . S
C767 C766 1.394 . S
C767 C768 1.383 . S
C767 H775 0.929 . S
C768 C767 1.383 . S
C768 C769 1.377 . S
C769 H753 0.930 . S
C769 C768 1.377 . S
C769 C770 1.379 . S
C770 H754 0.931 . S
C770 C764 1.383 . S
C770 C769 1.379 . S
H771 C765 0.959 . S
H772 C765 0.961 . S
H773 C765 0.960 . S
H774 C766 0.930 . S
H775 C767 0.929 . S
H776 C784 0.929 . S
H777 C786 0.930 . S
H778 C788 0.930 . S
H779 C791 0.929 . S
H780 C794 0.930 . S
H781 C796 0.960 . S
H782 C796 0.960 . S
H783 C796 0.960 . S
C784 H776 0.929 . S
C784 C785 1.377 . S
C784 C786 1.384 . S
C785 C784 1.377 . S
C785 C791 1.390 . S
C786 H777 0.930 . S
C786 C784 1.384 . S
C786 C787 1.372 . S
C787 C786 1.372 . S
C787 C788 1.400 . S
C787 C792 1.490 . S
C788 H778 0.930 . S
C788 C787 1.400 . S
C788 C791 1.386 . S
H789 C805 0.930 . S
H790 C806 0.931 . S
C791 H779 0.929 . S
C791 C785 1.390 . S
C791 C788 1.386 . S
C792 C787 1.490 . S
C792 C794 1.395 . S
C792 C795 1.403 . S
H793 C799 0.930 . S
C794 H780 0.930 . S
C794 C792 1.395 . S
C794 C797 1.403 . S
C795 C792 1.403 . S
C795 C796 1.524 . S
C795 C799 1.400 . S
C796 H781 0.960 . S
C796 H782 0.960 . S
C796 H783 0.960 . S
C796 C795 1.524 . S
C797 C794 1.403 . S
C797 C798 1.392 . S
C797 C801 1.495 . S
C798 C797 1.392 . S
C798 C799 1.385 . S
C798 C800 1.478 . S
C799 H793 0.930 . S
C799 C795 1.400 . S
C799 C798 1.385 . S
C800 C798 1.478 . S
C800 C802 1.381 . S
C800 C806 1.383 . S
C801 C797 1.495 . S
C801 H807 0.959 . S
C801 H808 0.961 . S
C801 H809 0.960 . S
C802 C800 1.381 . S
C802 C803 1.394 . S
C802 H810 0.930 . S
C803 C802 1.394 . S
C803 C804 1.383 . S
C803 H811 0.929 . S
C804 C803 1.383 . S
C804 C805 1.377 . S
C805 H789 0.930 . S
C805 C804 1.377 . S
C805 C806 1.379 . S
C806 H790 0.931 . S
C806 C800 1.383 . S
C806 C805 1.379 . S
H807 C801 0.959 . S
H808 C801 0.961 . S
H809 C801 0.960 . S
H810 C802 0.930 . S
H811 C803 0.929 . S
H812 C820 0.929 . S
H813 C822 0.930 . S
H814 C824 0.930 . S
H815 C827 0.929 . S
H816 C830 0.930 . S
H817 C832 0.960 . S
H818 C832 0.960 . S
H819 C832 0.960 . S
C820 H812 0.929 . S
C820 C821 1.377 . S
C820 C822 1.384 . S
C821 C820 1.377 . S
C821 C827 1.390 . S
C822 H813 0.930 . S
C822 C820 1.384 . S
C822 C823 1.372 . S
C823 C822 1.372 . S
C823 C824 1.400 . S
C823 C828 1.490 . S
C824 H814 0.930 . S
C824 C823 1.400 . S
C824 C827 1.386 . S
H825 C841 0.930 . S
H826 C842 0.931 . S
C827 H815 0.929 . S
C827 C821 1.390 . S
C827 C824 1.386 . S
C828 C823 1.490 . S
C828 C830 1.395 . S
C828 C831 1.403 . S
H829 C835 0.930 . S
C830 H816 0.930 . S
C830 C828 1.395 . S
C830 C833 1.403 . S
C831 C828 1.403 . S
C831 C832 1.524 . S
C831 C835 1.400 . S
C832 H817 0.960 . S
C832 H818 0.960 . S
C832 H819 0.960 . S
C832 C831 1.524 . S
C833 C830 1.403 . S
C833 C834 1.392 . S
C833 C837 1.495 . S
C834 C833 1.392 . S
C834 C835 1.385 . S
C834 C836 1.478 . S
C835 H829 0.930 . S
C835 C831 1.400 . S
C835 C834 1.385 . S
C836 C834 1.478 . S
C836 C838 1.381 . S
C836 C842 1.383 . S
C837 C833 1.495 . S
C837 H843 0.959 . S
C837 H844 0.961 . S
C837 H845 0.960 . S
C838 C836 1.381 . S
C838 C839 1.394 . S
C838 H846 0.930 . S
C839 C838 1.394 . S
C839 C840 1.383 . S
C839 H847 0.929 . S
C840 C839 1.383 . S
C840 C841 1.377 . S
C841 H825 0.930 . S
C841 C840 1.377 . S
C841 C842 1.379 . S
C842 H826 0.931 . S
C842 C836 1.383 . S
C842 C841 1.379 . S
H843 C837 0.959 . S
H844 C837 0.961 . S
H845 C837 0.960 . S
H846 C838 0.930 . S
H847 C839 0.929 . S
H848 C856 0.929 . S
H849 C858 0.930 . S
H850 C860 0.930 . S
H851 C863 0.929 . S
H852 C866 0.930 . S
H853 C868 0.960 . S
H854 C868 0.960 . S
H855 C868 0.960 . S
C856 H848 0.929 . S
C856 C857 1.377 . S
C856 C858 1.384 . S
C857 C856 1.377 . S
C857 C863 1.390 . S
C858 H849 0.930 . S
C858 C856 1.384 . S
C858 C859 1.372 . S
C859 C858 1.372 . S
C859 C860 1.400 . S
C859 C864 1.490 . S
C860 H850 0.930 . S
C860 C859 1.400 . S
C860 C863 1.386 . S
H861 C877 0.930 . S
H862 C878 0.931 . S
C863 H851 0.929 . S
C863 C857 1.390 . S
C863 C860 1.386 . S
C864 C859 1.490 . S
C864 C866 1.395 . S
C864 C867 1.403 . S
H865 C871 0.930 . S
C866 H852 0.930 . S
C866 C864 1.395 . S
C866 C869 1.403 . S
C867 C864 1.403 . S
C867 C868 1.524 . S
C867 C871 1.400 . S
C868 H853 0.960 . S
C868 H854 0.960 . S
C868 H855 0.960 . S
C868 C867 1.524 . S
C869 C866 1.403 . S
C869 C870 1.392 . S
C869 C873 1.495 . S
C870 C869 1.392 . S
C870 C871 1.385 . S
C870 C872 1.478 . S
C871 H865 0.930 . S
C871 C867 1.400 . S
C871 C870 1.385 . S
C872 C870 1.478 . S
C872 C874 1.381 . S
C872 C878 1.383 . S
C873 C869 1.495 . S
C873 H879 0.959 . S
C873 H880 0.961 . S
C873 H881 0.960 . S
C874 C872 1.381 . S
C874 C875 1.394 . S
C874 H882 0.930 . S
C875 C874 1.394 . S
C875 C876 1.383 . S
C875 H883 0.929 . S
C876 C875 1.383 . S
C876 C877 1.377 . S
C877 H861 0.930 . S
C877 C876 1.377 . S
C877 C878 1.379 . S
C878 H862 0.931 . S
C878 C872 1.383 . S
C878 C877 1.379 . S
H879 C873 0.959 . S
H880 C873 0.961 . S
H881 C873 0.960 . S
H882 C874 0.930 . S
H883 C875 0.929 . S
H884 C892 0.929 . S
H885 C894 0.930 . S
H886 C896 0.930 . S
H887 C899 0.929 . S
H888 C902 0.930 . S
H889 C904 0.960 . S
H890 C904 0.960 . S
H891 C904 0.960 . S
C892 H884 0.929 . S
C892 C893 1.377 . S
C892 C894 1.384 . S
C893 C892 1.377 . S
C893 C899 1.390 . S
C894 H885 0.930 . S
C894 C892 1.384 . S
C894 C895 1.372 . S
C895 C894 1.372 . S
C895 C896 1.400 . S
C895 C900 1.490 . S
C896 H886 0.930 . S
C896 C895 1.400 . S
C896 C899 1.386 . S
H897 C913 0.930 . S
H898 C914 0.931 . S
C899 H887 0.929 . S
C899 C893 1.390 . S
C899 C896 1.386 . S
C900 C895 1.490 . S
C900 C902 1.395 . S
C900 C903 1.403 . S
H901 C907 0.930 . S
C902 H888 0.930 . S
C902 C900 1.395 . S
C902 C905 1.403 . S
C903 C900 1.403 . S
C903 C904 1.524 . S
C903 C907 1.400 . S
C904 H889 0.960 . S
C904 H890 0.960 . S
C904 H891 0.960 . S
C904 C903 1.524 . S
C905 C902 1.403 . S
C905 C906 1.392 . S
C905 C909 1.495 . S
C906 C905 1.392 . S
C906 C907 1.385 . S
C906 C908 1.478 . S
C907 H901 0.930 . S
C907 C903 1.400 . S
C907 C906 1.385 . S
C908 C906 1.478 . S
C908 C910 1.381 . S
C908 C914 1.383 . S
C909 C905 1.495 . S
C909 H915 0.959 . S
C909 H916 0.961 . S
C909 H917 0.960 . S
C910 C908 1.381 . S
C910 C911 1.394 . S
C910 H918 0.930 . S
C911 C910 1.394 . S
C911 C912 1.383 . S
C911 H919 0.929 . S
C912 C911 1.383 . S
C912 C913 1.377 . S
C913 H897 0.930 . S
C913 C912 1.377 . S
C913 C914 1.379 . S
C914 H898 0.931 . S
C914 C908 1.383 . S
C914 C913 1.379 . S
H915 C909 0.959 . S
H916 C909 0.961 . S
H917 C909 0.960 . S
H918 C910 0.930 . S
H919 C911 0.929 . S
H920 C928 0.929 . S
H921 C930 0.930 . S
H922 C932 0.930 . S
H923 C935 0.929 . S
H924 C938 0.930 . S
H925 C940 0.960 . S
H926 C940 0.960 . S
H927 C940 0.960 . S
C928 H920 0.929 . S
C928 C929 1.377 . S
C928 C930 1.384 . S
C929 C928 1.377 . S
C929 C935 1.390 . S
C930 H921 0.930 . S
C930 C928 1.384 . S
C930 C931 1.372 . S
C931 C930 1.372 . S
C931 C932 1.400 . S
C931 C936 1.490 . S
C932 H922 0.930 . S
C932 C931 1.400 . S
C932 C935 1.386 . S
H933 C949 0.930 . S
H934 C950 0.931 . S
C935 H923 0.929 . S
C935 C929 1.390 . S
C935 C932 1.386 . S
C936 C931 1.490 . S
C936 C938 1.395 . S
C936 C939 1.403 . S
H937 C943 0.930 . S
C938 H924 0.930 . S
C938 C936 1.395 . S
C938 C941 1.403 . S
C939 C936 1.403 . S
C939 C940 1.524 . S
C939 C943 1.400 . S
C940 H925 0.960 . S
C940 H926 0.960 . S
C940 H927 0.960 . S
C940 C939 1.524 . S
C941 C938 1.403 . S
C941 C942 1.392 . S
C941 C945 1.495 . S
C942 C941 1.392 . S
C942 C943 1.385 . S
C942 C944 1.478 . S
C943 H937 0.930 . S
C943 C939 1.400 . S
C943 C942 1.385 . S
C944 C942 1.478 . S
C944 C946 1.381 . S
C944 C950 1.383 . S
C945 C941 1.495 . S
C945 H951 0.959 . S
C945 H952 0.961 . S
C945 H953 0.960 . S
C946 C944 1.381 . S
C946 C947 1.394 . S
C946 H954 0.930 . S
C947 C946 1.394 . S
C947 C948 1.383 . S
C947 H955 0.929 . S
C948 C947 1.383 . S
C948 C949 1.377 . S
C949 H933 0.930 . S
C949 C948 1.377 . S
C949 C950 1.379 . S
C950 H934 0.931 . S
C950 C944 1.383 . S
C950 C949 1.379 . S
H951 C945 0.959 . S
H952 C945 0.961 . S
H953 C945 0.960 . S
H954 C946 0.930 . S
H955 C947 0.929 . S
H956 C964 0.929 . S
H957 C966 0.930 . S
H958 C968 0.930 . S
H959 C971 0.929 . S
H960 C974 0.930 . S
H961 C976 0.960 . S
H962 C976 0.960 . S
H963 C976 0.960 . S
C964 H956 0.929 . S
C964 C965 1.377 . S
C964 C966 1.384 . S
C965 C964 1.377 . S
C965 C971 1.390 . S
C966 H957 0.930 . S
C966 C964 1.384 . S
C966 C967 1.372 . S
C967 C966 1.372 . S
C967 C968 1.400 . S
C967 C972 1.490 . S
C968 H958 0.930 . S
C968 C967 1.400 . S
C968 C971 1.386 . S
H969 C985 0.930 . S
H970 C986 0.931 . S
C971 H959 0.929 . S
C971 C965 1.390 . S
C971 C968 1.386 . S
C972 C967 1.490 . S
C972 C974 1.395 . S
C972 C975 1.403 . S
H973 C979 0.930 . S
C974 H960 0.930 . S
C974 C972 1.395 . S
C974 C977 1.403 . S
C975 C972 1.403 . S
C975 C976 1.524 . S
C975 C979 1.400 . S
C976 H961 0.960 . S
C976 H962 0.960 . S
C976 H963 0.960 . S
C976 C975 1.524 . S
C977 C974 1.403 . S
C977 C978 1.392 . S
C977 C981 1.495 . S
C978 C977 1.392 . S
C978 C979 1.385 . S
C978 C980 1.478 . S
C979 H973 0.930 . S
C979 C975 1.400 . S
C979 C978 1.385 . S
C980 C978 1.478 . S
C980 C982 1.381 . S
C980 C986 1.383 . S
C981 C977 1.495 . S
C981 H987 0.959 . S
C981 H988 0.961 . S
C981 H989 0.960 . S
C982 C980 1.381 . S
C982 C983 1.394 . S
C982 H990 0.930 . S
C983 C982 1.394 . S
C983 C984 1.383 . S
C983 H991 0.929 . S
C984 C983 1.383 . S
C984 C985 1.377 . S
C985 H969 0.930 . S
C985 C984 1.377 . S
C985 C986 1.379 . S
C986 H970 0.931 . S
C986 C980 1.383 . S
C986 C985 1.379 . S
H987 C981 0.959 . S
H988 C981 0.961 . S
H989 C981 0.960 . S
H990 C982 0.930 . S
H991 C983 0.929 . S
H992 C1000 0.929 . S
H993 C1002 0.930 . S
H994 C1004 0.930 . S
H995 C1007 0.929 . S
H996 C1010 0.930 . S
H997 C1012 0.960 . S
H998 C1012 0.960 . S
H999 C1012 0.960 . S
C1000 H992 0.929 . S
C1000 C1001 1.377 . S
C1000 C1002 1.384 . S
C1001 C1000 1.377 . S
C1001 C1007 1.390 . S
C1002 H993 0.930 . S
C1002 C1000 1.384 . S
C1002 C1003 1.372 . S
C1003 C1002 1.372 . S
C1003 C1004 1.400 . S
C1003 C1008 1.490 . S
C1004 H994 0.930 . S
C1004 C1003 1.400 . S
C1004 C1007 1.386 . S
H1005 C1021 0.930 . S
H1006 C1022 0.931 . S
C1007 H995 0.929 . S
C1007 C1001 1.390 . S
C1007 C1004 1.386 . S
C1008 C1003 1.490 . S
C1008 C1010 1.395 . S
C1008 C1011 1.403 . S
H1009 C1015 0.930 . S
C1010 H996 0.930 . S
C1010 C1008 1.395 . S
C1010 C1013 1.403 . S
C1011 C1008 1.403 . S
C1011 C1012 1.524 . S
C1011 C1015 1.400 . S
C1012 H997 0.960 . S
C1012 H998 0.960 . S
C1012 H999 0.960 . S
C1012 C1011 1.524 . S
C1013 C1010 1.403 . S
C1013 C1014 1.392 . S
C1013 C1017 1.495 . S
C1014 C1013 1.392 . S
C1014 C1015 1.385 . S
C1014 C1016 1.478 . S
C1015 H1009 0.930 . S
C1015 C1011 1.400 . S
C1015 C1014 1.385 . S
C1016 C1014 1.478 . S
C1016 C1018 1.381 . S
C1016 C1022 1.383 . S
C1017 C1013 1.495 . S
C1017 H1023 0.959 . S
C1017 H1024 0.961 . S
C1017 H1025 0.960 . S
C1018 C1016 1.381 . S
C1018 C1019 1.394 . S
C1018 H1026 0.930 . S
C1019 C1018 1.394 . S
C1019 C1020 1.383 . S
C1019 H1027 0.929 . S
C1020 C1019 1.383 . S
C1020 C1021 1.377 . S
C1021 H1005 0.930 . S
C1021 C1020 1.377 . S
C1021 C1022 1.379 . S
C1022 H1006 0.931 . S
C1022 C1016 1.383 . S
C1022 C1021 1.379 . S
H1023 C1017 0.959 . S
H1024 C1017 0.961 . S
H1025 C1017 0.960 . S
H1026 C1018 0.930 . S
H1027 C1019 0.929 . S
H1028 C1036 0.929 . S
H1029 C1038 0.930 . S
H1030 C1040 0.930 . S
H1031 C1043 0.929 . S
H1032 C1046 0.930 . S
H1033 C1048 0.960 . S
H1034 C1048 0.960 . S
H1035 C1048 0.960 . S
C1036 H1028 0.929 . S
C1036 C1037 1.377 . S
C1036 C1038 1.384 . S
C1037 C1036 1.377 . S
C1037 C1043 1.390 . S
C1038 H1029 0.930 . S
C1038 C1036 1.384 . S
C1038 C1039 1.372 . S
C1039 C1038 1.372 . S
C1039 C1040 1.400 . S
C1039 C1044 1.490 . S
C1040 H1030 0.930 . S
C1040 C1039 1.400 . S
C1040 C1043 1.386 . S
H1041 C1057 0.930 . S
H1042 C1058 0.931 . S
C1043 H1031 0.929 . S
C1043 C1037 1.390 . S
C1043 C1040 1.386 . S
C1044 C1039 1.490 . S
C1044 C1046 1.395 . S
C1044 C1047 1.403 . S
H1045 C1051 0.930 . S
C1046 H1032 0.930 . S
C1046 C1044 1.395 . S
C1046 C1049 1.403 . S
C1047 C1044 1.403 . S
C1047 C1048 1.524 . S
C1047 C1051 1.400 . S
C1048 H1033 0.960 . S
C1048 H1034 0.960 . S
C1048 H1035 0.960 . S
C1048 C1047 1.524 . S
C1049 C1046 1.403 . S
C1049 C1050 1.392 . S
C1049 C1053 1.495 . S
C1050 C1049 1.392 . S
C1050 C1051 1.385 . S
C1050 C1052 1.478 . S
C1051 H1045 0.930 . S
C1051 C1047 1.400 . S
C1051 C1050 1.385 . S
C1052 C1050 1.478 . S
C1052 C1054 1.381 . S
C1052 C1058 1.383 . S
C1053 C1049 1.495 . S
C1053 H1059 0.959 . S
C1053 H1060 0.961 . S
C1053 H1061 0.960 . S
C1054 C1052 1.381 . S
C1054 C1055 1.394 . S
C1054 H1062 0.930 . S
C1055 C1054 1.394 . S
C1055 C1056 1.383 . S
C1055 H1063 0.929 . S
C1056 C1055 1.383 . S
C1056 C1057 1.377 . S
C1057 H1041 0.930 . S
C1057 C1056 1.377 . S
C1057 C1058 1.379 . S
C1058 H1042 0.931 . S
C1058 C1052 1.383 . S
C1058 C1057 1.379 . S
H1059 C1053 0.959 . S
H1060 C1053 0.961 . S
H1061 C1053 0.960 . S
H1062 C1054 0.930 . S
H1063 C1055 0.929 . S
H1064 C1072 0.929 . S
H1065 C1074 0.930 . S
H1066 C1076 0.930 . S
H1067 C1079 0.929 . S
H1068 C1082 0.930 . S
H1069 C1084 0.960 . S
H1070 C1084 0.960 . S
H1071 C1084 0.960 . S
C1072 H1064 0.929 . S
C1072 C1073 1.377 . S
C1072 C1074 1.384 . S
C1073 C1072 1.377 . S
C1073 C1079 1.390 . S
C1074 H1065 0.930 . S
C1074 C1072 1.384 . S
C1074 C1075 1.372 . S
C1075 C1074 1.372 . S
C1075 C1076 1.400 . S
C1075 C1080 1.490 . S
C1076 H1066 0.930 . S
C1076 C1075 1.400 . S
C1076 C1079 1.386 . S
H1077 C1093 0.930 . S
H1078 C1094 0.931 . S
C1079 H1067 0.929 . S
C1079 C1073 1.390 . S
C1079 C1076 1.386 . S
C1080 C1075 1.490 . S
C1080 C1082 1.395 . S
C1080 C1083 1.403 . S
H1081 C1087 0.930 . S
C1082 H1068 0.930 . S
C1082 C1080 1.395 . S
C1082 C1085 1.403 . S
C1083 C1080 1.403 . S
C1083 C1084 1.524 . S
C1083 C1087 1.400 . S
C1084 H1069 0.960 . S
C1084 H1070 0.960 . S
C1084 H1071 0.960 . S
C1084 C1083 1.524 . S
C1085 C1082 1.403 . S
C1085 C1086 1.392 . S
C1085 C1089 1.495 . S
C1086 C1085 1.392 . S
C1086 C1087 1.385 . S
C1086 C1088 1.478 . S
C1087 H1081 0.930 . S
C1087 C1083 1.400 . S
C1087 C1086 1.385 . S
C1088 C1086 1.478 . S
C1088 C1090 1.381 . S
C1088 C1094 1.383 . S
C1089 C1085 1.495 . S
C1089 H1095 0.959 . S
C1089 H1096 0.961 . S
C1089 H1097 0.960 . S
C1090 C1088 1.381 . S
C1090 C1091 1.394 . S
C1090 H1098 0.930 . S
C1091 C1090 1.394 . S
C1091 C1092 1.383 . S
C1091 H1099 0.929 . S
C1092 C1091 1.383 . S
C1092 C1093 1.377 . S
C1093 H1077 0.930 . S
C1093 C1092 1.377 . S
C1093 C1094 1.379 . S
C1094 H1078 0.931 . S
C1094 C1088 1.383 . S
C1094 C1093 1.379 . S
H1095 C1089 0.959 . S
H1096 C1089 0.961 . S
H1097 C1089 0.960 . S
H1098 C1090 0.930 . S
H1099 C1091 0.929 . S
H1100 C1108 0.929 . S
H1101 C1110 0.930 . S
H1102 C1112 0.930 . S
H1103 C1115 0.929 . S
H1104 C1118 0.930 . S
H1105 C1120 0.960 . S
H1106 C1120 0.960 . S
H1107 C1120 0.960 . S
C1108 H1100 0.929 . S
C1108 C1109 1.377 . S
C1108 C1110 1.384 . S
C1109 C1108 1.377 . S
C1109 C1115 1.390 . S
C1110 H1101 0.930 . S
C1110 C1108 1.384 . S
C1110 C1111 1.372 . S
C1111 C1110 1.372 . S
C1111 C1112 1.400 . S
C1111 C1116 1.490 . S
C1112 H1102 0.930 . S
C1112 C1111 1.400 . S
C1112 C1115 1.386 . S
H1113 C1129 0.930 . S
H1114 C1130 0.931 . S
C1115 H1103 0.929 . S
C1115 C1109 1.390 . S
C1115 C1112 1.386 . S
C1116 C1111 1.490 . S
C1116 C1118 1.395 . S
C1116 C1119 1.403 . S
H1117 C1123 0.930 . S
C1118 H1104 0.930 . S
C1118 C1116 1.395 . S
C1118 C1121 1.403 . S
C1119 C1116 1.403 . S
C1119 C1120 1.524 . S
C1119 C1123 1.400 . S
C1120 H1105 0.960 . S
C1120 H1106 0.960 . S
C1120 H1107 0.960 . S
C1120 C1119 1.524 . S
C1121 C1118 1.403 . S
C1121 C1122 1.392 . S
C1121 C1125 1.495 . S
C1122 C1121 1.392 . S
C1122 C1123 1.385 . S
C1122 C1124 1.478 . S
C1123 H1117 0.930 . S
C1123 C1119 1.400 . S
C1123 C1122 1.385 . S
C1124 C1122 1.478 . S
C1124 C1126 1.381 . S
C1124 C1130 1.383 . S
C1125 C1121 1.495 . S
C1125 H1131 0.959 . S
C1125 H1132 0.961 . S
C1125 H1133 0.960 . S
C1126 C1124 1.381 . S
C1126 C1127 1.394 . S
C1126 H1134 0.930 . S
C1127 C1126 1.394 . S
C1127 C1128 1.383 . S
C1127 H1135 0.929 . S
C1128 C1127 1.383 . S
C1128 C1129 1.377 . S
C1129 H1113 0.930 . S
C1129 C1128 1.377 . S
C1129 C1130 1.379 . S
C1130 H1114 0.931 . S
C1130 C1124 1.383 . S
C1130 C1129 1.379 . S
H1131 C1125 0.959 . S
H1132 C1125 0.961 . S
H1133 C1125 0.960 . S
H1134 C1126 0.930 . S
H1135 C1127 0.929 . S
H1136 C1144 0.929 . S
H1137 C1146 0.930 . S
H1138 C1148 0.930 . S
H1139 C1151 0.929 . S
H1140 C1154 0.930 . S
H1141 C1156 0.960 . S
H1142 C1156 0.960 . S
H1143 C1156 0.960 . S
C1144 H1136 0.929 . S
C1144 C1145 1.377 . S
C1144 C1146 1.384 . S
C1145 C1144 1.377 . S
C1145 C1151 1.390 . S
C1146 H1137 0.930 . S
C1146 C1144 1.384 . S
C1146 C1147 1.372 . S
C1147 C1146 1.372 . S
C1147 C1148 1.400 . S
C1147 C1152 1.490 . S
C1148 H1138 0.930 . S
C1148 C1147 1.400 . S
C1148 C1151 1.386 . S
H1149 C1165 0.930 . S
H1150 C1166 0.931 . S
C1151 H1139 0.929 . S
C1151 C1145 1.390 . S
C1151 C1148 1.386 . S
C1152 C1147 1.490 . S
C1152 C1154 1.395 . S
C1152 C1155 1.403 . S
H1153 C1159 0.930 . S
C1154 H1140 0.930 . S
C1154 C1152 1.395 . S
C1154 C1157 1.403 . S
C1155 C1152 1.403 . S
C1155 C1156 1.524 . S
C1155 C1159 1.400 . S
C1156 H1141 0.960 . S
C1156 H1142 0.960 . S
C1156 H1143 0.960 . S
C1156 C1155 1.524 . S
C1157 C1154 1.403 . S
C1157 C1158 1.392 . S
C1157 C1161 1.495 . S
C1158 C1157 1.392 . S
C1158 C1159 1.385 . S
C1158 C1160 1.478 . S
C1159 H1153 0.930 . S
C1159 C1155 1.400 . S
C1159 C1158 1.385 . S
C1160 C1158 1.478 . S
C1160 C1162 1.381 . S
C1160 C1166 1.383 . S
C1161 C1157 1.495 . S
C1161 H1167 0.959 . S
C1161 H1168 0.961 . S
C1161 H1169 0.960 . S
C1162 C1160 1.381 . S
C1162 C1163 1.394 . S
C1162 H1170 0.930 . S
C1163 C1162 1.394 . S
C1163 C1164 1.383 . S
C1163 H1171 0.929 . S
C1164 C1163 1.383 . S
C1164 C1165 1.377 . S
C1165 H1149 0.930 . S
C1165 C1164 1.377 . S
C1165 C1166 1.379 . S
C1166 H1150 0.931 . S
C1166 C1160 1.383 . S
C1166 C1165 1.379 . S
H1167 C1161 0.959 . S
H1168 C1161 0.961 . S
H1169 C1161 0.960 . S
H1170 C1162 0.930 . S
H1171 C1163 0.929 . S
H1172 C1180 0.929 . S
H1173 C1182 0.930 . S
H1174 C1184 0.930 . S
H1175 C1187 0.929 . S
H1176 C1190 0.930 . S
H1177 C1192 0.960 . S
H1178 C1192 0.960 . S
H1179 C1192 0.960 . S
C1180 H1172 0.929 . S
C1180 C1181 1.377 . S
C1180 C1182 1.384 . S
C1181 C1180 1.377 . S
C1181 C1187 1.390 . S
C1182 H1173 0.930 . S
C1182 C1180 1.384 . S
C1182 C1183 1.372 . S
C1183 C1182 1.372 . S
C1183 C1184 1.400 . S
C1183 C1188 1.490 . S
C1184 H1174 0.930 . S
C1184 C1183 1.400 . S
C1184 C1187 1.386 . S
H1185 C1201 0.930 . S
H1186 C1202 0.931 . S
C1187 H1175 0.929 . S
C1187 C1181 1.390 . S
C1187 C1184 1.386 . S
C1188 C1183 1.490 . S
C1188 C1190 1.395 . S
C1188 C1191 1.403 . S
H1189 C1195 0.930 . S
C1190 H1176 0.930 . S
C1190 C1188 1.395 . S
C1190 C1193 1.403 . S
C1191 C1188 1.403 . S
C1191 C1192 1.524 . S
C1191 C1195 1.400 . S
C1192 H1177 0.960 . S
C1192 H1178 0.960 . S
C1192 H1179 0.960 . S
C1192 C1191 1.524 . S
C1193 C1190 1.403 . S
C1193 C1194 1.392 . S
C1193 C1197 1.495 . S
C1194 C1193 1.392 . S
C1194 C1195 1.385 . S
C1194 C1196 1.478 . S
C1195 H1189 0.930 . S
C1195 C1191 1.400 . S
C1195 C1194 1.385 . S
C1196 C1194 1.478 . S
C1196 C1198 1.381 . S
C1196 C1202 1.383 . S
C1197 C1193 1.495 . S
C1197 H1203 0.959 . S
C1197 H1204 0.961 . S
C1197 H1205 0.960 . S
C1198 C1196 1.381 . S
C1198 C1199 1.394 . S
C1198 H1206 0.930 . S
C1199 C1198 1.394 . S
C1199 C1200 1.383 . S
C1199 H1207 0.929 . S
C1200 C1199 1.383 . S
C1200 C1201 1.377 . S
C1201 H1185 0.930 . S
C1201 C1200 1.377 . S
C1201 C1202 1.379 . S
C1202 H1186 0.931 . S
C1202 C1196 1.383 . S
C1202 C1201 1.379 . S
H1203 C1197 0.959 . S
H1204 C1197 0.961 . S
H1205 C1197 0.960 . S
H1206 C1198 0.930 . S
H1207 C1199 0.929 . S
H1208 C1216 0.929 . S
H1209 C1218 0.930 . S
H1210 C1220 0.930 . S
H1211 C1223 0.929 . S
H1212 C1226 0.930 . S
H1213 C1228 0.960 . S
H1214 C1228 0.960 . S
H1215 C1228 0.960 . S
C1216 H1208 0.929 . S
C1216 C1217 1.377 . S
C1216 C1218 1.384 . S
C1217 C1216 1.377 . S
C1217 C1223 1.390 . S
C1218 H1209 0.930 . S
C1218 C1216 1.384 . S
C1218 C1219 1.372 . S
C1219 C1218 1.372 . S
C1219 C1220 1.400 . S
C1219 C1224 1.490 . S
C1220 H1210 0.930 . S
C1220 C1219 1.400 . S
C1220 C1223 1.386 . S
H1221 C1237 0.930 . S
H1222 C1238 0.931 . S
C1223 H1211 0.929 . S
C1223 C1217 1.390 . S
C1223 C1220 1.386 . S
C1224 C1219 1.490 . S
C1224 C1226 1.395 . S
C1224 C1227 1.403 . S
H1225 C1231 0.930 . S
C1226 H1212 0.930 . S
C1226 C1224 1.395 . S
C1226 C1229 1.403 . S
C1227 C1224 1.403 . S
C1227 C1228 1.524 . S
C1227 C1231 1.400 . S
C1228 H1213 0.960 . S
C1228 H1214 0.960 . S
C1228 H1215 0.960 . S
C1228 C1227 1.524 . S
C1229 C1226 1.403 . S
C1229 C1230 1.392 . S
C1229 C1233 1.495 . S
C1230 C1229 1.392 . S
C1230 C1231 1.385 . S
C1230 C1232 1.478 . S
C1231 H1225 0.930 . S
C1231 C1227 1.400 . S
C1231 C1230 1.385 . S
C1232 C1230 1.478 . S
C1232 C1234 1.381 . S
C1232 C1238 1.383 . S
C1233 C1229 1.495 . S
C1233 H1239 0.959 . S
C1233 H1240 0.961 . S
C1233 H1241 0.960 . S
C1234 C1232 1.381 . S
C1234 C1235 1.394 . S
C1234 H1242 0.930 . S
C1235 C1234 1.394 . S
C1235 C1236 1.383 . S
C1235 H1243 0.929 . S
C1236 C1235 1.383 . S
C1236 C1237 1.377 . S
C1237 H1221 0.930 . S
C1237 C1236 1.377 . S
C1237 C1238 1.379 . S
C1238 H1222 0.931 . S
C1238 C1232 1.383 . S
C1238 C1237 1.379 . S
H1239 C1233 0.959 . S
H1240 C1233 0.961 . S
H1241 C1233 0.960 . S
H1242 C1234 0.930 . S
H1243 C1235 0.929 . S
H1244 C1252 0.929 . S
H1245 C1254 0.930 . S
H1246 C1256 0.930 . S
H1247 C1259 0.929 . S
H1248 C1262 0.930 . S
H1249 C1264 0.960 . S
H1250 C1264 0.960 . S
H1251 C1264 0.960 . S
C1252 H1244 0.929 . S
C1252 C1253 1.377 . S
C1252 C1254 1.384 . S
C1253 C1252 1.377 . S
C1253 C1259 1.390 . S
C1254 H1245 0.930 . S
C1254 C1252 1.384 . S
C1254 C1255 1.372 . S
C1255 C1254 1.372 . S
C1255 C1256 1.400 . S
C1255 C1260 1.490 . S
C1256 H1246 0.930 . S
C1256 C1255 1.400 . S
C1256 C1259 1.386 . S
H1257 C1273 0.930 . S
H1258 C1274 0.931 . S
C1259 H1247 0.929 . S
C1259 C1253 1.390 . S
C1259 C1256 1.386 . S
C1260 C1255 1.490 . S
C1260 C1262 1.395 . S
C1260 C1263 1.403 . S
H1261 C1267 0.930 . S
C1262 H1248 0.930 . S
C1262 C1260 1.395 . S
C1262 C1265 1.403 . S
C1263 C1260 1.403 . S
C1263 C1264 1.524 . S
C1263 C1267 1.400 . S
C1264 H1249 0.960 . S
C1264 H1250 0.960 . S
C1264 H1251 0.960 . S
C1264 C1263 1.524 . S
C1265 C1262 1.403 . S
C1265 C1266 1.392 . S
C1265 C1269 1.495 . S
C1266 C1265 1.392 . S
C1266 C1267 1.385 . S
C1266 C1268 1.478 . S
C1267 H1261 0.930 . S
C1267 C1263 1.400 . S
C1267 C1266 1.385 . S
C1268 C1266 1.478 . S
C1268 C1270 1.381 . S
C1268 C1274 1.383 . S
C1269 C1265 1.495 . S
C1269 H1275 0.959 . S
C1269 H1276 0.961 . S
C1269 H1277 0.960 . S
C1270 C1268 1.381 . S
C1270 C1271 1.394 . S
C1270 H1278 0.930 . S
C1271 C1270 1.394 . S
C1271 C1272 1.383 . S
C1271 H1279 0.929 . S
C1272 C1271 1.383 . S
C1272 C1273 1.377 . S
C1273 H1257 0.930 . S
C1273 C1272 1.377 . S
C1273 C1274 1.379 . S
C1274 H1258 0.931 . S
C1274 C1268 1.383 . S
C1274 C1273 1.379 . S
H1275 C1269 0.959 . S
H1276 C1269 0.961 . S
H1277 C1269 0.960 . S
H1278 C1270 0.930 . S
H1279 C1271 0.929 . S
C425 C29 1.300 . S
C444 C271 1.290 . S
C461 C49 1.056 . S
C480 C311 1.147 . S
C516 C345 2.213 . S
C497 C93 2.221 . S
C533 C119 2.575 . S
C552 C386 2.525 . S
C588 C306 1.330 . S
C569 C17 1.328 . S
C624 C266 2.112 . S
C605 C61 1.914 . S
C660 C394 1.471 . S
C641 C81 1.461 . S
C696 C355 1.773 . S
C677 C125 1.856 . S
C713 C23 1.155 . S
C732 C391 1.107 . S
C768 C314 1.893 . S
C749 C87 1.926 . S
C785 C113 2.485 . S
C804 C274 2.389 . S
C821 C55 1.387 . S
C840 C342 1.520 . S
C876 C262 1.285 . S
C857 C157 1.202 . S
C893 C189 1.221 . S
C912 C302 1.202 . S
C929 C221 2.136 . S
C948 C354 2.157 . S
C965 C253 2.636 . S
C984 C395 2.598 . S
C1001 C145 1.353 . S
C1020 C315 1.416 . S
C1056 C275 2.050 . S
C1037 C183 2.053 . S
C1092 C385 1.499 . S
C1073 C209 1.465 . S
C1128 C346 1.778 . S
C1109 C247 1.806 . S
C1145 C151 1.057 . S
C1164 C382 1.125 . S
C1200 C305 1.896 . S
C1181 C215 1.872 . S
C1236 C265 2.392 . S
C1217 C241 2.432 . S
C1253 C177 1.536 . S
C1272 C351 1.527 . S
