# Generated by pormake.
# Topology tsx, (6,3)-cn, num edge types: 1
# Building blocks:
#     Node 0, Type 0, BuildingBlock: LEVNOQ01_clean_sbu_1, # of connection points: 6
#     Node 1, Type 0, BuildingBlock: LEVNOQ01_clean_sbu_1, # of connection points: 6
#     Node 2, Type 1, BuildingBlock: BETDIP_clean_linker_0, # of connection points: 3
#     Node 3, Type 1, BuildingBlock: BETDIP_clean_linker_0, # of connection points: 3
#     Node 4, Type 1, BuildingBlock: BETDIP_clean_linker_0, # of connection points: 3
#     Node 5, Type 1, BuildingBlock: BETDIP_clean_linker_0, # of connection points: 3
#     Edge 6, Type (0, 1), BuildingBlock: UVAHIK_clean_linker_0, # of connection points: 2
#     Edge 7, Type (0, 1), BuildingBlock: UVAHIK_clean_linker_0, # of connection points: 2
#     Edge 8, Type (0, 1), BuildingBlock: UVAHIK_clean_linker_0, # of connection points: 2
#     Edge 9, Type (0, 1), BuildingBlock: UVAHIK_clean_linker_0, # of connection points: 2
#     Edge 10, Type (0, 1), BuildingBlock: UVAHIK_clean_linker_0, # of connection points: 2
#     Edge 11, Type (0, 1), BuildingBlock: UVAHIK_clean_linker_0, # of connection points: 2
#     Edge 12, Type (0, 1), BuildingBlock: UVAHIK_clean_linker_0, # of connection points: 2
#     Edge 13, Type (0, 1), BuildingBlock: UVAHIK_clean_linker_0, # of connection points: 2
#     Edge 14, Type (0, 1), BuildingBlock: UVAHIK_clean_linker_0, # of connection points: 2
#     Edge 15, Type (0, 1), BuildingBlock: UVAHIK_clean_linker_0, # of connection points: 2
#     Edge 16, Type (0, 1), BuildingBlock: UVAHIK_clean_linker_0, # of connection points: 2
#     Edge 17, Type (0, 1), BuildingBlock: UVAHIK_clean_linker_0, # of connection points: 2
# Relax obj value: 0.098
# Max RMSD: 0.154
# Mean RMSD: 0.114
data_MOF--net-tsx--node1-LEVNOQ01_clean_sbu_1--node2-BETDIP_clean_linker_0--edge1-UVAHIK_clean_linker_0
_symmetry_space_group_name_H-M    P1
_symmetry_Int_Tables_number       1
_symmetry_cell_setting            triclinic
loop_
_symmetry_equiv_pos_as_xyz
'x, y, z'
_cell_length_a     24.570788
_cell_length_b     29.404547
_cell_length_c     43.951556
_cell_angle_alpha  97.308034
_cell_angle_beta   102.14657
_cell_angle_gamma 91.998475
loop_
_atom_site_label
_atom_site_type_symbol
_atom_site_fract_x
_atom_site_fract_y
_atom_site_fract_z
_atom_type_partial_charge
O0 O 0.11272 0.02739 0.09524 0.0
Mg1 Mg 0.16404 0.02111 0.06269 0.0
O2 O 0.03756 0.00279 0.05826 0.0
Mg3 Mg 0.05667 0.00875 0.0083 0.0
O4 O 0.13534 0.05778 0.02664 0.0
O5 O 0.21598 0.07638 0.06101 0.0
O6 O 0.0759 0.01516 0.95822 0.0
O7 O 0.00535 0.07387 0.0072 0.0
Mg8 Mg 0.95055 0.98951 0.95115 0.0
O9 O 0.97872 0.96002 0.99024 0.0
O10 O 0.00623 0.97967 0.92136 0.0
O11 O 0.93455 0.05861 0.96561 0.0
O12 O 0.90058 0.93405 0.95588 0.0
C13 C 0.15175 0.92859 0.02315 0.0
C14 C 0.06169 0.01373 0.08717 0.0
C15 C 0.17967 0.08529 0.03704 0.0
C16 C 0.0549 -0.00112 0.92957 0.0
C17 C 0.96197 0.08572 0.98909 0.0
C18 C 0.93564 0.93107 0.98177 0.0
O19 O 0.18271 0.95406 0.04618 0.0
O20 O 0.10691 0.94274 0.00788 0.0
O21 O 0.61948 0.50758 0.5909 0.0
Mg22 Mg 0.66549 0.51143 0.55621 0.0
O23 O 0.53951 0.49752 0.55553 0.0
Mg24 Mg 0.55555 0.50877 0.50595 0.0
O25 O 0.63513 0.55727 0.52623 0.0
O26 O 0.71793 0.5679 0.55976 0.0
O27 O 0.57018 0.51916 0.45605 0.0
O28 O 0.5064 0.57541 0.50961 0.0
Mg29 Mg 0.43827 0.49902 0.45266 0.0
O30 O 0.47642 0.46281 0.48642 0.0
O31 O 0.49044 0.50239 0.42051 0.0
O32 O 0.42288 0.56259 0.47698 0.0
O33 O 0.39496 0.43806 0.45549 0.0
C34 C 0.64925 0.42506 0.51203 0.0
C35 C 0.56713 0.49952 0.5838 0.0
C36 C 0.68076 0.58272 0.53853 0.0
C37 C 0.54234 0.51348 0.42764 0.0
C38 C 0.45788 0.58804 0.49827 0.0
C39 C 0.43446 0.43286 0.47899 0.0
O40 O 0.68428 0.44848 0.53419 0.0
O41 O 0.60281 0.44081 0.50035 0.0
H42 H 0.08777 0.97645 0.49169 0.0
H43 H 0.01068 0.03595 0.41031 0.0
H44 H 0.11117 0.9207 0.40005 0.0
H45 H 0.059 0.1051 0.45991 0.0
C46 C 0.0244 0.08999 0.46791 0.0
C47 C 0.08025 0.97677 0.46653 0.0
C48 C 0.10355 0.94421 0.44751 0.0
C49 C 0.0479 0.0104 0.45316 0.0
C50 C 0.0373 0.01076 0.42056 0.0
C51 C 0.0589 0.97783 0.4011 0.0
C52 C 0.09238 0.94496 0.41482 0.0
N53 N 0.02444 0.04306 0.4724 0.0
H54 H 0.95763 0.03746 0.51901 0.0
H55 H 0.04927 0.09782 0.61063 0.0
H56 H 0.93232 0.98215 0.60123 0.0
H57 H 0.02751 0.16466 0.58365 0.0
C58 C 0.04793 0.15086 0.56511 0.0
C59 C 0.96701 0.03848 0.54427 0.0
C60 C 0.94031 0.00624 0.55806 0.0
C61 C 0.00481 0.07273 0.56325 0.0
C62 C 0.01785 0.073 0.59604 0.0
C63 C 0.99263 0.04008 0.60998 0.0
C64 C 0.95311 0.00727 0.59077 0.0
N65 N 0.03114 0.10577 0.54924 0.0
H66 H 0.58799 0.48251 0.9931 0.0
H67 H 0.51515 0.5366 0.90855 0.0
H68 H 0.61743 0.42111 0.90431 0.0
H69 H 0.5537 0.60798 0.95324 0.0
C70 C 0.52141 0.59329 0.96328 0.0
C71 C 0.58192 0.4815 0.96787 0.0
C72 C 0.60594 0.44777 0.95027 0.0
C73 C 0.55021 0.51414 0.95283 0.0
C74 C 0.54169 0.51241 0.92007 0.0
C75 C 0.56522 0.47872 0.90211 0.0
C76 C 0.59759 0.44665 0.91757 0.0
N77 N 0.52498 0.54765 0.97049 0.0
H78 H 0.45056 0.53432 0.01647 0.0
H79 H 0.54372 0.5987 0.10667 0.0
H80 H 0.44471 0.47277 0.09931 0.0
H81 H 0.51237 0.66486 0.07923 0.0
C82 C 0.53345 0.6519 0.06078 0.0
C83 C 0.46254 0.53523 0.04166 0.0
C84 C 0.44307 0.49981 0.05592 0.0
C85 C 0.49785 0.57159 0.05994 0.0
C86 C 0.51458 0.57172 0.09261 0.0
C87 C 0.4962 0.53597 0.10703 0.0
C88 C 0.46009 0.50026 0.08845 0.0
N89 N 0.51893 0.60644 0.04513 0.0
C90 C 0.24687 0.13882 0.02272 0.0
C91 C 0.19116 0.12548 0.02191 0.0
C92 C 0.26054 0.18006 0.01295 0.0
C93 C 0.27859 0.2616 0.98056 0.0
H94 H 0.23539 0.36693 0.03057 0.0
C95 C 0.34923 0.46695 0.02565 0.0
C96 C 0.40593 0.4612 0.0373 0.0
C97 C 0.31228 0.42859 0.01287 0.0
C98 C 0.24678 0.33813 0.01573 0.0
H99 H 0.10556 0.14391 0.00919 0.0
H100 H 0.1299 0.21776 0.99269 0.0
H101 H 0.18632 0.29186 0.02652 0.0
H102 H 0.46933 0.41208 0.0439 0.0
H103 H 0.40551 0.34523 0.0211 0.0
H104 H 0.34153 0.30702 0.97155 0.0
C105 C 0.16273 0.19558 0.00058 0.0
C106 C 0.21859 0.29516 0.01337 0.0
C107 C 0.14883 0.15342 0.00985 0.0
C108 C 0.4258 0.41714 0.03468 0.0
C109 C 0.38924 0.37902 0.02154 0.0
C110 C 0.30671 0.3044 0.98293 0.0
C111 C 0.21892 0.20946 0.00249 0.0
C112 C 0.23623 0.25609 0.9971 0.0
C113 C 0.33188 0.38415 0.01116 0.0
C114 C 0.29297 0.34257 0.00185 0.0
H115 H 0.28031 0.1179 0.03188 0.0
H116 H 0.30423 0.19005 0.0152 0.0
H117 H 0.29255 0.23212 0.96754 0.0
H118 H 0.33317 0.50079 0.02783 0.0
H119 H 0.2683 0.43349 0.00509 0.0
C120 C 0.2051 0.86052 0.03576 0.0
C121 C 0.16991 0.88263 0.01352 0.0
C122 C 0.22869 0.82005 0.0265 0.0
C123 C 0.27953 0.76662 0.96035 0.0
H124 H 0.31071 0.66871 0.01173 0.0
C125 C 0.47747 0.66788 0.96686 0.0
C126 C 0.47341 0.62034 0.96729 0.0
C127 C 0.43162 0.6939 0.96886 0.0
C128 C 0.30179 0.69539 0.99685 0.0
H129 H 0.12946 0.87859 0.96432 0.0
H130 H 0.17201 0.80786 0.9479 0.0
H131 H 0.24039 0.72242 0.02112 0.0
H132 H 0.41795 0.56221 0.96898 0.0
H133 H 0.33798 0.60793 0.9734 0.0
H134 H 0.34226 0.74063 0.9368 0.0
C135 C 0.18094 0.82193 0.97256 0.0
C136 C 0.26175 0.72622 0.00231 0.0
C137 C 0.15649 0.86221 0.98195 0.0
C138 C 0.4227 0.59907 0.96968 0.0
C139 C 0.37681 0.62515 0.97187 0.0
C140 C 0.3198 0.736 0.95503 0.0
C141 C 0.21823 0.80104 0.9947 0.0
C142 C 0.25152 0.76302 0.98478 0.0
C143 C 0.38072 0.67281 0.97125 0.0
C144 C 0.33262 0.70101 0.9739 0.0
H145 H 0.2158 0.87528 0.06029 0.0
H146 H 0.25767 0.8051 0.04407 0.0
H147 H 0.27281 0.79476 0.94657 0.0
H148 H 0.51618 0.68494 0.96495 0.0
H149 H 0.43621 0.73068 0.96889 0.0
C150 C 0.90627 0.85155 0.98623 0.0
C151 C 0.92355 0.89634 0.00105 0.0
C152 C 0.87821 0.82157 0.00071 0.0
C153 C 0.77713 0.83123 0.04882 0.0
H154 H 0.77897 0.69852 0.04146 0.0
C155 C 0.5996 0.72074 0.07615 0.0
C156 C 0.58253 0.67894 0.05665 0.0
C157 C 0.64775 0.74582 0.07422 0.0
C158 C 0.77761 0.73552 0.04343 0.0
H159 H 0.92914 0.94422 0.04342 0.0
H160 H 0.87892 0.89179 0.06884 0.0
H161 H 0.85826 0.74358 0.03259 0.0
H162 H 0.60219 0.63047 0.01966 0.0
H163 H 0.68511 0.67508 0.01528 0.0
H164 H 0.6955 0.82348 0.05781 0.0
C165 C 0.88753 0.87978 0.04609 0.0
C166 C 0.8233 0.7613 0.03869 0.0
C167 C 0.91666 0.90958 0.03175 0.0
C168 C 0.61415 0.66276 0.03486 0.0
C169 C 0.66215 0.68808 0.03269 0.0
C170 C 0.73128 0.8055 0.05323 0.0
C171 C 0.86588 0.83625 0.03004 0.0
C172 C 0.82306 0.80937 0.04077 0.0
C173 C 0.67974 0.72986 0.05248 0.0
C174 C 0.73042 0.75724 0.05 0.0
H175 H 0.91097 0.84084 0.96244 0.0
H176 H 0.86184 0.78843 0.98766 0.0
H177 H 0.77517 0.86814 0.04993 0.0
H178 H 0.57613 0.73371 0.09334 0.0
H179 H 0.66029 0.77742 0.09015 0.0
C180 C 0.93705 0.15899 0.96973 0.0
C181 C 0.94301 0.13225 0.99427 0.0
C182 C 0.90792 0.19872 0.97098 0.0
C183 C 0.83769 0.27996 0.01982 0.0
H184 H 0.73511 0.27984 0.9396 0.0
C185 C 0.69188 0.42684 0.98616 0.0
C186 C 0.64051 0.41342 0.96539 0.0
C187 C 0.72957 0.39383 0.99521 0.0
C188 C 0.76293 0.28018 0.96231 0.0
H189 H 0.92667 0.12683 0.04018 0.0
H190 H 0.87363 0.19606 0.04206 0.0
H191 H 0.80386 0.22298 0.94506 0.0
H192 H 0.58587 0.35557 0.93986 0.0
H193 H 0.65046 0.29784 0.95643 0.0
H194 H 0.79507 0.3371 0.037 0.0
C195 C 0.8925 0.18689 0.02215 0.0
C196 C 0.80318 0.24801 0.9653 0.0
C197 C 0.92271 0.14733 0.02111 0.0
C198 C 0.62551 0.36659 0.95572 0.0
C199 C 0.66267 0.3337 0.96503 0.0
C200 C 0.79708 0.31248 0.01679 0.0
C201 C 0.88278 0.21183 0.99642 0.0
C202 C 0.84128 0.24752 0.99397 0.0
C203 C 0.71609 0.34702 0.98371 0.0
C204 C 0.75904 0.31267 0.98798 0.0
H205 H 0.9528 0.14796 0.94891 0.0
H206 H 0.90256 0.21788 0.95118 0.0
H207 H 0.86647 0.28043 0.04222 0.0
H208 H 0.70426 0.46292 0.99371 0.0
H209 H 0.77041 0.4052 0.00956 0.0
C210 C 0.72575 0.66131 0.55374 0.0
C211 C 0.68983 0.62968 0.53107 0.0
C212 C 0.73728 0.70545 0.54769 0.0
C213 C 0.75958 0.77192 0.48963 0.0
H214 H 0.74893 0.87382 0.55299 0.0
C215 C 0.84218 0.97502 0.53867 0.0
C216 C 0.89892 0.97072 0.53904 0.0
C217 C 0.80391 0.93723 0.52756 0.0
C218 C 0.75121 0.84627 0.53453 0.0
H219 H 0.63724 0.61971 0.4842 0.0
H220 H 0.6593 0.69784 0.4731 0.0
H221 H 0.70181 0.7998 0.553 0.0
H222 H 0.96036 0.92506 0.52683 0.0
H223 H 0.89387 0.85852 0.50781 0.0
H224 H 0.81189 0.81783 0.47228 0.0
C225 C 0.67773 0.68788 0.49572 0.0
C226 C 0.7243 0.80377 0.53467 0.0
C227 C 0.66508 0.64346 0.50208 0.0
C228 C 0.91651 0.92909 0.52629 0.0
C229 C 0.87832 0.89112 0.51536 0.0
C230 C 0.78694 0.81457 0.48957 0.0
C231 C 0.71388 0.71916 0.51864 0.0
C232 C 0.72985 0.76583 0.51297 0.0
C233 C 0.82193 0.89425 0.51709 0.0
C234 C 0.78461 0.85182 0.51273 0.0
H235 H 0.74518 0.652 0.57641 0.0
H236 H 0.76565 0.72875 0.56564 0.0
H237 H 0.76485 0.743 0.47283 0.0
H238 H 0.828 0.00688 0.54865 0.0
H239 H 0.76071 0.94104 0.52878 0.0
C240 C 0.66031 0.36371 0.46897 0.0
C241 C 0.6632 0.3785 0.50094 0.0
C242 C 0.6852 0.32344 0.45985 0.0
C243 C 0.75175 0.22059 0.48961 0.0
H244 H 0.85788 0.24456 0.43875 0.0
C245 C 0.92343 0.09649 0.46942 0.0
C246 C 0.97621 0.11751 0.4707 0.0
C247 C 0.87722 0.12299 0.46929 0.0
C248 C 0.82852 0.23732 0.45302 0.0
H249 H 0.68946 0.36156 0.5481 0.0
H250 H 0.73181 0.29151 0.5324 0.0
H251 H 0.78534 0.29762 0.44363 0.0
H252 H 0.02271 0.18228 0.47349 0.0
H253 H 0.9425 0.22883 0.47405 0.0
H254 H 0.79699 0.16174 0.5005 0.0
C255 C 0.71092 0.31049 0.51423 0.0
C256 C 0.78629 0.26733 0.45537 0.0
C257 C 0.68702 0.35082 0.5233 0.0
C258 C 0.9823 0.16536 0.47239 0.0
C259 C 0.93627 0.19188 0.47239 0.0
C260 C 0.79405 0.19059 0.4873 0.0
C261 C 0.71232 0.29722 0.48257 0.0
C262 C 0.74857 0.26016 0.47454 0.0
C263 C 0.88299 0.17098 0.47039 0.0
C264 C 0.83405 0.19948 0.46981 0.0
H265 H 0.64225 0.38472 0.45136 0.0
H266 H 0.68528 0.31385 0.43523 0.0
H267 H 0.72291 0.21387 0.5043 0.0
H268 H 0.91739 0.0595 0.46749 0.0
H269 H 0.83676 0.10578 0.46752 0.0
C270 C 0.40712 0.35213 0.4817 0.0
C271 C 0.42741 0.39581 0.49758 0.0
C272 C 0.38215 0.32079 0.49668 0.0
C273 C 0.29259 0.32742 0.55136 0.0
H274 H 0.28977 0.19439 0.53798 0.0
C275 C 0.11813 0.21687 0.58139 0.0
C276 C 0.09765 0.17672 0.56072 0.0
C277 C 0.1664 0.24117 0.57883 0.0
C278 C 0.2897 0.2315 0.54168 0.0
H279 H 0.44152 0.44009 0.54213 0.0
H280 H 0.39692 0.38531 0.56846 0.0
H281 H 0.36682 0.23958 0.5268 0.0
H282 H 0.1114 0.13029 0.52105 0.0
H283 H 0.19434 0.17376 0.5155 0.0
H284 H 0.21412 0.31989 0.56426 0.0
C285 C 0.40086 0.37518 0.54448 0.0
C286 C 0.33418 0.25732 0.53562 0.0
C287 C 0.4269 0.40629 0.52957 0.0
C288 C 0.12612 0.16129 0.53722 0.0
C289 C 0.17413 0.18595 0.53435 0.0
C290 C 0.24785 0.30169 0.55705 0.0
C291 C 0.37594 0.333 0.52766 0.0
C292 C 0.33548 0.30554 0.53979 0.0
C293 C 0.195 0.22622 0.55519 0.0
C294 C 0.24516 0.25336 0.55166 0.0
H295 H 0.4067 0.34357 0.45692 0.0
H296 H 0.36309 0.28875 0.48304 0.0
H297 H 0.2918 0.36452 0.55419 0.0
H298 H 0.09715 0.2292 0.59992 0.0
H299 H 0.18152 0.27149 0.59563 0.0
C300 C 0.46161 0.67173 0.49586 0.0
C301 C 0.44182 0.63424 0.5081 0.0
C302 C 0.43435 0.71269 0.49681 0.0
C303 C 0.32752 0.77789 0.52851 0.0
H304 H 0.27827 0.80222 0.44263 0.0
C305 C 0.18414 0.92404 0.4882 0.0
C306 C 0.1414 0.9104 0.4614 0.0
C307 C 0.22424 0.89351 0.4986 0.0
C308 C 0.29178 0.79593 0.46675 0.0
H309 H 0.38131 0.61044 0.53276 0.0
H310 H 0.33458 0.68255 0.53536 0.0
H311 H 0.3486 0.747 0.45457 0.0
H312 H 0.10473 0.85313 0.42604 0.0
H313 H 0.17489 0.80022 0.44396 0.0
H314 H 0.26943 0.82652 0.54038 0.0
C315 C 0.37093 0.68051 0.52505 0.0
C316 C 0.33256 0.76478 0.47366 0.0
C317 C 0.39757 0.63932 0.5236 0.0
C318 C 0.13786 0.86497 0.44631 0.0
C319 C 0.17797 0.83469 0.45656 0.0
C320 C 0.28712 0.80974 0.52163 0.0
C321 C 0.38734 0.71675 0.5103 0.0
C322 C 0.35019 0.7548 0.50448 0.0
C323 C 0.22237 0.84901 0.48226 0.0
C324 C 0.268 0.81817 0.49053 0.0
H325 H 0.49515 0.66812 0.48335 0.0
H326 H 0.4479 0.74019 0.48535 0.0
H327 H 0.34035 0.77068 0.55245 0.0
H328 H 0.18814 0.9589 0.50022 0.0
H329 H 0.2581 0.90535 0.51848 0.0
C330 C 0.03614 0.04518 0.13677 0.0
C331 C 0.03211 0.00862 0.11244 0.0
C332 C 0.02164 0.03811 0.16489 0.0
C333 C 0.02805 0.94917 0.21475 0.0
H334 H 0.96177 0.03814 0.26662 0.0
C335 C 0.03362 0.93638 0.34589 0.0
C336 C 0.04656 0.97782 0.36651 0.0
C337 C 0.02164 0.93647 0.31334 0.0
C338 C 0.98062 0.01306 0.25248 0.0
H339 H 0.00761 0.93648 0.09754 0.0
H340 H 0.98283 0.92368 0.14727 0.0
H341 H 0.95327 0.04457 0.21101 0.0
H342 H 0.05805 0.05176 0.36909 0.0
H343 H 0.03757 0.05196 0.31245 0.0
H344 H 0.05771 0.9189 0.25645 0.0
C345 C 0.99662 0.95795 0.14438 0.0
C346 C 0.97538 0.01658 0.2206 0.0
C347 C 0.01017 0.96532 0.11588 0.0
C348 C 0.04732 0.01932 0.35386 0.0
C349 C 0.03541 0.01941 0.32137 0.0
C350 C 0.03354 0.94578 0.2467 0.0
C351 C 0.00392 -0.00596 0.1695 0.0
C352 C 0.00024 0.98537 0.20157 0.0
C353 C 0.02231 0.97801 0.30069 0.0
C354 C 0.01115 0.97842 0.26612 0.0
H355 H 0.05355 0.07873 0.13467 0.0
H356 H 0.02825 0.0665 0.18385 0.0
H357 H 0.04838 0.92501 0.20079 0.0
H358 H 0.03198 0.90387 0.35491 0.0
H359 H 0.01125 0.90402 0.2981 0.0
C360 C 0.08844 0.96901 0.88233 0.0
C361 C 0.08281 0.00676 0.90411 0.0
C362 C 0.09303 0.97525 0.85203 0.0
C363 C 0.10521 0.05955 0.79722 0.0
H364 H 0.99425 0.97408 0.74034 0.0
C365 C 0.01684 0.07941 0.66592 0.0
C366 C 0.00892 0.03879 0.64437 0.0
C367 C 0.03195 0.07766 0.69828 0.0
C368 C 0.02593 -0.00215 0.75576 0.0
H369 H 0.08222 0.08082 0.91251 0.0
H370 H 0.0897 0.09193 0.85918 0.0
H371 H 0.01663 0.967 0.79585 0.0
H372 H 0.01273 0.96474 0.63987 0.0
H373 H 0.0388 0.96166 0.69604 0.0
H374 H 0.11363 0.09067 0.75666 0.0
C375 C 0.09141 0.05756 0.8656 0.0
C376 C 0.03897 0.99371 0.78764 0.0
C377 C 0.08753 0.05129 0.89619 0.0
C378 C 0.01726 -0.00345 0.65584 0.0
C379 C 0.03234 -0.00518 0.68806 0.0
C380 C 0.09217 0.06366 0.76507 0.0
C381 C 0.09081 0.0193 0.84274 0.0
C382 C 0.07916 0.0241 0.80875 0.0
C383 C 0.03938 0.03525 0.7097 0.0
C384 C 0.05271 0.0325 0.74398 0.0
H385 H 0.08443 0.93436 0.8879 0.0
H386 H 0.09394 0.94519 0.83514 0.0
H387 H 0.13606 0.08367 0.81295 0.0
H388 H 0.01034 0.11247 0.65779 0.0
H389 H 0.03653 0.10937 0.71436 0.0
C390 C 0.52636 0.52812 0.62891 0.0
C391 C 0.53956 0.4909 0.60915 0.0
C392 C 0.51621 0.52193 0.65828 0.0
C393 C 0.55831 0.44605 0.7182 0.0
H394 H 0.46401 0.51952 0.76266 0.0
C395 C 0.54945 0.43453 0.84766 0.0
C396 C 0.55576 0.47694 0.86734 0.0
C397 C 0.54097 0.43293 0.81507 0.0
C398 C 0.49058 0.49886 0.75049 0.0
H399 H 0.55011 0.41785 0.6033 0.0
H400 H 0.53094 0.40647 0.65434 0.0
H401 H 0.45504 0.52061 0.70631 0.0
H402 H 0.5586 0.55096 0.86783 0.0
H403 H 0.54213 0.54792 0.81096 0.0
H404 H 0.59405 0.42463 0.7625 0.0
C405 C 0.5289 0.44057 0.64748 0.0
C406 C 0.48549 0.49946 0.71826 0.0
C407 C 0.53905 0.44685 0.61812 0.0
C408 C 0.55283 0.51765 0.85349 0.0
C409 C 0.54355 0.51599 0.82089 0.0
C410 C 0.563 0.44514 0.75035 0.0
C411 C 0.51965 0.47838 0.66845 0.0
C412 C 0.51994 0.47365 0.7018 0.0
C413 C 0.53775 0.47363 0.80138 0.0
C414 C 0.52983 0.47211 0.7669 0.0
H415 H 0.52776 0.56251 0.62258 0.0
H416 H 0.50975 0.5519 0.67384 0.0
H417 H 0.58641 0.4265 0.70652 0.0
H418 H 0.55037 0.40243 0.85735 0.0
H419 H 0.53623 0.3998 0.80052 0.0
C420 C 0.56908 0.56214 0.39052 0.0
C421 C 0.56944 0.51952 0.40165 0.0
C422 C 0.57681 0.56509 0.36017 0.0
C423 C 0.54673 0.49111 0.28462 0.0
H424 H 0.61161 0.59386 0.25428 0.0
C425 C 0.53065 0.4941 0.15285 0.0
C426 C 0.51534 0.5353 0.14132 0.0
C427 C 0.54655 0.4928 0.18511 0.0
C428 C 0.59309 0.56505 0.26245 0.0
H429 H 0.58143 0.44721 0.3912 0.0
H430 H 0.59676 0.45233 0.33852 0.0
H431 H 0.62803 0.5905 0.31086 0.0
H432 H 0.50574 0.60767 0.15458 0.0
H433 H 0.53326 0.60534 0.21109 0.0
H434 H 0.51053 0.46619 0.23658 0.0
C435 C 0.58985 0.48343 0.35289 0.0
C436 C 0.60264 0.56306 0.29481 0.0
C437 C 0.58189 0.48053 0.38315 0.0
C438 C 0.5177 0.57548 0.16276 0.0
C439 C 0.5336 0.57417 0.19511 0.0
C440 C 0.53722 0.4931 0.25243 0.0
C441 C 0.58456 0.52529 0.34049 0.0
C442 C 0.57931 0.52612 0.30625 0.0
C443 C 0.54747 0.53264 0.20664 0.0
C444 C 0.55999 0.53017 0.24094 0.0
H445 H 0.55835 0.59241 0.40428 0.0
H446 H 0.57215 0.59778 0.35131 0.0
H447 H 0.52676 0.46282 0.29258 0.0
H448 H 0.5304 0.46277 0.1369 0.0
H449 H 0.55797 0.46045 0.19322 0.0
loop_
_geom_bond_atom_site_label_1
_geom_bond_atom_site_label_2
_geom_bond_distance
_geom_bond_site_symmetry_2
_ccdc_geom_bond_type
O0 Mg1 1.990 . S
O0 C14 1.253 . S
Mg1 O0 1.990 . S
Mg1 O4 2.180 . S
Mg1 O5 2.117 . S
Mg1 O19 2.030 1_545 S
O2 Mg3 2.072 . S
O2 C14 1.260 . S
Mg3 O2 2.072 . S
Mg3 O4 2.099 . S
Mg3 O6 2.079 1_554 S
Mg3 O7 2.072 . S
Mg3 O9 2.099 1_444 S
Mg3 O20 2.080 1_545 S
O4 Mg1 2.180 . S
O4 Mg3 2.099 . S
O4 C15 1.279 . S
O5 Mg1 2.117 . S
O5 C15 1.250 . S
O6 Mg3 2.079 1_556 S
O6 C16 1.264 . S
O7 Mg3 2.072 . S
O7 C17 1.260 1_454 S
Mg8 O9 2.180 . S
Mg8 O10 2.030 1_565 S
Mg8 O11 1.990 1_565 S
Mg8 O12 2.117 . S
O9 Mg3 2.099 1_666 S
O9 Mg8 2.180 . S
O9 C18 1.279 . S
O10 Mg8 2.030 1_545 S
O10 C16 1.248 1_655 S
O11 Mg8 1.990 1_545 S
O11 C17 1.253 . S
O12 Mg8 2.117 . S
O12 C18 1.250 . S
C13 O19 1.248 . S
C13 O20 1.277 . S
C14 O0 1.253 . S
C14 O2 1.260 . S
C15 O4 1.279 . S
C15 O5 1.250 . S
C16 O6 1.264 . S
C16 O10 1.248 1_455 S
C17 O7 1.260 1_656 S
C17 O11 1.253 . S
C18 O9 1.279 . S
C18 O12 1.250 . S
O19 Mg1 2.030 1_565 S
O19 C13 1.248 . S
O20 Mg3 2.080 1_565 S
O20 C13 1.277 . S
O21 Mg22 1.990 . S
O21 C35 1.253 . S
Mg22 O21 1.990 . S
Mg22 O25 2.180 . S
Mg22 O26 2.117 . S
Mg22 O40 2.030 . S
O23 Mg24 2.072 . S
O23 C35 1.260 . S
Mg24 O23 2.072 . S
Mg24 O25 2.099 . S
Mg24 O27 2.079 . S
Mg24 O28 2.072 . S
Mg24 O30 2.099 . S
Mg24 O41 2.079 . S
O25 Mg22 2.180 . S
O25 Mg24 2.099 . S
O25 C36 1.279 . S
O26 Mg22 2.117 . S
O26 C36 1.250 . S
O27 Mg24 2.079 . S
O27 C37 1.264 . S
O28 Mg24 2.072 . S
O28 C38 1.260 . S
Mg29 O30 2.180 . S
Mg29 O31 2.030 . S
Mg29 O32 1.990 . S
Mg29 O33 2.117 . S
O30 Mg24 2.099 . S
O30 Mg29 2.180 . S
O30 C39 1.279 . S
O31 Mg29 2.030 . S
O31 C37 1.248 . S
O32 Mg29 1.990 . S
O32 C38 1.253 . S
O33 Mg29 2.117 . S
O33 C39 1.250 . S
C34 O40 1.248 . S
C34 O41 1.264 . S
C35 O21 1.253 . S
C35 O23 1.260 . S
C36 O25 1.279 . S
C36 O26 1.250 . S
C37 O27 1.264 . S
C37 O31 1.248 . S
C38 O28 1.260 . S
C38 O32 1.253 . S
C39 O30 1.279 . S
C39 O33 1.250 . S
O40 Mg22 2.030 . S
O40 C34 1.248 . S
O41 Mg24 2.079 . S
O41 C34 1.264 . S
H42 C47 0.930 . S
H43 C50 0.930 . S
H44 C52 0.930 . S
H45 C46 1.016 . S
C46 H45 1.016 . S
C46 N53 1.286 1_655 S
C47 H42 0.930 . S
C47 C48 1.397 . S
C47 C49 1.361 1_565 S
C48 C47 1.397 . S
C48 C52 1.390 . S
C49 C47 1.361 1_545 S
C49 C50 1.393 . S
C49 N53 1.413 . S
C50 H43 0.930 . S
C50 C49 1.393 . S
C50 C51 1.399 1_545 S
C51 C50 1.399 1_565 S
C51 C52 1.381 . S
C52 H44 0.930 . S
C52 C48 1.390 . S
C52 C51 1.381 . S
N53 C46 1.286 1_455 S
N53 C49 1.413 . S
H54 C59 0.930 . S
H55 C62 0.930 . S
H56 C64 0.930 . S
H57 C58 1.016 . S
C58 H57 1.016 . S
C58 N65 1.286 . S
C59 H54 0.930 . S
C59 C60 1.397 . S
C59 C61 1.361 1_655 S
C60 C59 1.397 . S
C60 C64 1.390 . S
C61 C59 1.361 1_455 S
C61 C62 1.393 . S
C61 N65 1.413 . S
C62 H55 0.930 . S
C62 C61 1.393 . S
C62 C63 1.399 1_455 S
C63 C62 1.399 1_655 S
C63 C64 1.381 . S
C64 H56 0.930 . S
C64 C60 1.390 . S
C64 C63 1.381 . S
N65 C58 1.286 . S
N65 C61 1.413 . S
H66 C71 0.930 . S
H67 C74 0.930 . S
H68 C76 0.930 . S
H69 C70 1.016 . S
C70 H69 1.016 . S
C70 N77 1.286 . S
C71 H66 0.930 . S
C71 C72 1.397 . S
C71 C73 1.361 . S
C72 C71 1.397 . S
C72 C76 1.390 . S
C73 C71 1.361 . S
C73 C74 1.393 . S
C73 N77 1.413 . S
C74 H67 0.930 . S
C74 C73 1.393 . S
C74 C75 1.399 . S
C75 C74 1.399 . S
C75 C76 1.381 . S
C76 H68 0.930 . S
C76 C72 1.390 . S
C76 C75 1.381 . S
N77 C70 1.286 . S
N77 C73 1.413 . S
H78 C83 0.930 . S
H79 C86 0.930 . S
H80 C88 0.930 . S
H81 C82 1.016 . S
C82 H81 1.016 . S
C82 N89 1.286 . S
C83 H78 0.930 . S
C83 C84 1.397 . S
C83 C85 1.361 . S
C84 C83 1.397 . S
C84 C88 1.390 . S
C85 C83 1.361 . S
C85 C86 1.393 . S
C85 N89 1.413 . S
C86 H79 0.930 . S
C86 C85 1.393 . S
C86 C87 1.399 . S
C87 C86 1.399 . S
C87 C88 1.381 . S
C88 H80 0.930 . S
C88 C84 1.390 . S
C88 C87 1.381 . S
N89 C82 1.286 . S
N89 C85 1.413 . S
C90 C91 1.349 . S
C90 C92 1.327 . S
C90 H115 0.950 . S
C91 C90 1.349 . S
C91 C107 1.349 1_554 S
C92 C90 1.327 . S
C92 C111 1.429 . S
C92 H116 0.950 . S
C93 C110 1.574 . S
C93 C112 1.368 . S
C93 H117 0.949 1_554 S
H94 C98 0.949 . S
C95 C96 1.349 . S
C95 C97 1.327 . S
C95 H118 0.950 . S
C96 C95 1.349 . S
C96 C108 1.349 . S
C97 C95 1.327 . S
C97 C113 1.429 . S
C97 H119 0.950 . S
C98 H94 0.949 . S
C98 C106 1.574 . S
C98 C114 1.368 . S
H99 C107 0.950 . S
H100 C105 0.964 . S
H101 C106 0.949 . S
H102 C108 0.950 . S
H103 C109 0.950 . S
H104 C110 0.949 1_556 S
C105 H100 0.964 . S
C105 C107 1.325 . S
C105 C111 1.416 1_556 S
C106 C98 1.574 . S
C106 H101 0.949 . S
C106 C112 1.368 . S
C107 C91 1.349 1_556 S
C107 H99 0.950 . S
C107 C105 1.325 . S
C108 C96 1.349 . S
C108 H102 0.950 . S
C108 C109 1.327 . S
C109 H103 0.950 . S
C109 C108 1.327 . S
C109 C113 1.429 . S
C110 C93 1.574 . S
C110 H104 0.949 1_554 S
C110 C114 1.368 . S
C111 C92 1.429 . S
C111 C105 1.416 1_554 S
C111 C112 1.523 . S
C112 C93 1.368 . S
C112 C106 1.368 . S
C112 C111 1.523 . S
C113 C97 1.429 . S
C113 C109 1.429 . S
C113 C114 1.523 . S
C114 C98 1.368 . S
C114 C110 1.368 . S
C114 C113 1.523 . S
H115 C90 0.950 . S
H116 C92 0.950 . S
H117 C93 0.949 1_556 S
H118 C95 0.950 . S
H119 C97 0.950 . S
C120 C121 1.349 . S
C120 C122 1.327 . S
C120 H145 0.950 . S
C121 C120 1.349 . S
C121 C137 1.349 1_554 S
C122 C120 1.327 . S
C122 C141 1.429 . S
C122 H146 0.950 . S
C123 C140 1.574 . S
C123 C142 1.369 1_556 S
C123 H147 0.949 . S
H124 C128 0.949 . S
C125 C126 1.349 . S
C125 C127 1.327 . S
C125 H148 0.950 . S
C126 C125 1.349 . S
C126 C138 1.349 1_556 S
C127 C125 1.327 . S
C127 C143 1.429 . S
C127 H149 0.950 . S
C128 H124 0.949 . S
C128 C136 1.574 . S
C128 C144 1.368 1_554 S
H129 C137 0.950 . S
H130 C135 0.950 . S
H131 C136 0.949 . S
H132 C138 0.950 . S
H133 C139 0.950 . S
H134 C140 0.949 . S
C135 H130 0.950 . S
C135 C137 1.327 . S
C135 C141 1.429 1_556 S
C136 C128 1.574 . S
C136 H131 0.949 . S
C136 C142 1.368 . S
C137 C121 1.349 1_556 S
C137 H129 0.950 . S
C137 C135 1.327 . S
C138 C126 1.349 1_554 S
C138 H132 0.950 . S
C138 C139 1.327 . S
C139 H133 0.950 . S
C139 C138 1.327 . S
C139 C143 1.429 1_554 S
C140 C123 1.574 . S
C140 H134 0.949 . S
C140 C144 1.368 . S
C141 C122 1.429 . S
C141 C135 1.429 1_554 S
C141 C142 1.523 . S
C142 C123 1.369 1_554 S
C142 C136 1.368 . S
C142 C141 1.523 . S
C143 C127 1.429 . S
C143 C139 1.429 1_556 S
C143 C144 1.523 . S
C144 C128 1.368 1_556 S
C144 C140 1.368 . S
C144 C143 1.523 . S
H145 C120 0.950 . S
H146 C122 0.950 . S
H147 C123 0.949 . S
H148 C125 0.950 . S
H149 C127 0.950 . S
C150 C151 1.349 . S
C150 C152 1.327 . S
C150 H175 0.950 . S
C151 C150 1.349 . S
C151 C167 1.349 . S
C152 C150 1.327 . S
C152 C171 1.429 . S
C152 H176 0.950 . S
C153 C170 1.574 . S
C153 C172 1.368 . S
C153 H177 0.949 . S
H154 C158 0.949 . S
C155 C156 1.349 . S
C155 C157 1.327 . S
C155 H178 0.950 . S
C156 C155 1.349 . S
C156 C168 1.349 . S
C157 C155 1.327 . S
C157 C173 1.429 . S
C157 H179 0.950 . S
C158 H154 0.949 . S
C158 C166 1.574 . S
C158 C174 1.368 . S
H159 C167 0.950 . S
H160 C165 0.950 . S
H161 C166 0.949 . S
H162 C168 0.950 . S
H163 C169 0.950 . S
H164 C170 0.949 . S
C165 H160 0.950 . S
C165 C167 1.327 . S
C165 C171 1.429 . S
C166 C158 1.574 . S
C166 H161 0.949 . S
C166 C172 1.368 . S
C167 C151 1.349 . S
C167 H159 0.950 . S
C167 C165 1.327 . S
C168 C156 1.349 . S
C168 H162 0.950 . S
C168 C169 1.327 . S
C169 H163 0.950 . S
C169 C168 1.327 . S
C169 C173 1.429 . S
C170 C153 1.574 . S
C170 H164 0.949 . S
C170 C174 1.368 . S
C171 C152 1.429 . S
C171 C165 1.429 . S
C171 C172 1.523 . S
C172 C153 1.368 . S
C172 C166 1.368 . S
C172 C171 1.523 . S
C173 C157 1.429 . S
C173 C169 1.429 . S
C173 C174 1.523 . S
C174 C158 1.368 . S
C174 C170 1.368 . S
C174 C173 1.523 . S
H175 C150 0.950 . S
H176 C152 0.950 . S
H177 C153 0.949 . S
H178 C155 0.950 . S
H179 C157 0.950 . S
C180 C181 1.349 . S
C180 C182 1.327 . S
C180 H205 0.950 . S
C181 C180 1.349 . S
C181 C197 1.349 1_556 S
C182 C180 1.327 . S
C182 C201 1.429 . S
C182 H206 0.950 . S
C183 C200 1.574 . S
C183 C202 1.368 1_554 S
C183 H207 0.949 . S
H184 C188 0.949 . S
C185 C186 1.349 . S
C185 C187 1.327 . S
C185 H208 0.950 1_556 S
C186 C185 1.349 . S
C186 C198 1.349 . S
C187 C185 1.327 . S
C187 C203 1.429 . S
C187 H209 0.950 1_556 S
C188 H184 0.949 . S
C188 C196 1.574 . S
C188 C204 1.368 . S
H189 C197 0.950 . S
H190 C195 0.950 . S
H191 C196 0.949 . S
H192 C198 0.950 . S
H193 C199 0.950 . S
H194 C200 0.949 . S
C195 H190 0.950 . S
C195 C197 1.327 . S
C195 C201 1.429 1_554 S
C196 C188 1.574 . S
C196 H191 0.949 . S
C196 C202 1.368 . S
C197 C181 1.349 1_554 S
C197 H189 0.950 . S
C197 C195 1.327 . S
C198 C186 1.349 . S
C198 H192 0.950 . S
C198 C199 1.327 . S
C199 H193 0.950 . S
C199 C198 1.327 . S
C199 C203 1.429 . S
C200 C183 1.574 . S
C200 H194 0.949 . S
C200 C204 1.368 1_554 S
C201 C182 1.429 . S
C201 C195 1.429 1_556 S
C201 C202 1.523 . S
C202 C183 1.368 1_556 S
C202 C196 1.368 . S
C202 C201 1.523 . S
C203 C187 1.429 . S
C203 C199 1.429 . S
C203 C204 1.523 . S
C204 C188 1.368 . S
C204 C200 1.368 1_556 S
C204 C203 1.523 . S
H205 C180 0.950 . S
H206 C182 0.950 . S
H207 C183 0.949 . S
H208 C185 0.950 1_554 S
H209 C187 0.950 1_554 S
C210 C211 1.349 . S
C210 C212 1.327 . S
C210 H235 0.950 . S
C211 C210 1.349 . S
C211 C227 1.349 . S
C212 C210 1.327 . S
C212 C231 1.429 . S
C212 H236 0.950 . S
C213 C230 1.574 . S
C213 C232 1.368 . S
C213 H237 0.949 . S
H214 C218 0.949 . S
C215 C216 1.349 . S
C215 C217 1.327 . S
C215 H238 0.950 . S
C216 C215 1.349 . S
C216 C228 1.349 . S
C217 C215 1.327 . S
C217 C233 1.429 . S
C217 H239 0.950 . S
C218 H214 0.949 . S
C218 C226 1.574 . S
C218 C234 1.368 . S
H219 C227 0.950 . S
H220 C225 0.950 . S
H221 C226 0.949 . S
H222 C228 0.950 . S
H223 C229 0.950 . S
H224 C230 0.949 . S
C225 H220 0.950 . S
C225 C227 1.327 . S
C225 C231 1.429 . S
C226 C218 1.574 . S
C226 H221 0.949 . S
C226 C232 1.368 . S
C227 C211 1.349 . S
C227 H219 0.950 . S
C227 C225 1.327 . S
C228 C216 1.349 . S
C228 H222 0.950 . S
C228 C229 1.327 . S
C229 H223 0.950 . S
C229 C228 1.327 . S
C229 C233 1.429 . S
C230 C213 1.574 . S
C230 H224 0.949 . S
C230 C234 1.368 . S
C231 C212 1.429 . S
C231 C225 1.429 . S
C231 C232 1.523 . S
C232 C213 1.368 . S
C232 C226 1.368 . S
C232 C231 1.523 . S
C233 C217 1.429 . S
C233 C229 1.429 . S
C233 C234 1.523 . S
C234 C218 1.368 . S
C234 C230 1.368 . S
C234 C233 1.523 . S
H235 C210 0.950 . S
H236 C212 0.950 . S
H237 C213 0.949 . S
H238 C215 0.950 . S
H239 C217 0.950 . S
C240 C241 1.349 . S
C240 C242 1.327 . S
C240 H265 0.950 . S
C241 C240 1.349 . S
C241 C257 1.349 . S
C242 C240 1.327 . S
C242 C261 1.429 . S
C242 H266 0.950 . S
C243 C260 1.574 . S
C243 C262 1.368 . S
C243 H267 0.949 . S
H244 C248 0.949 . S
C245 C246 1.349 . S
C245 C247 1.327 . S
C245 H268 0.950 . S
C246 C245 1.349 . S
C246 C258 1.349 . S
C247 C245 1.327 . S
C247 C263 1.429 . S
C247 H269 0.950 . S
C248 H244 0.949 . S
C248 C256 1.574 . S
C248 C264 1.368 . S
H249 C257 0.950 . S
H250 C255 0.950 . S
H251 C256 0.949 . S
H252 C258 0.950 . S
H253 C259 0.950 . S
H254 C260 0.949 . S
C255 H250 0.950 . S
C255 C257 1.327 . S
C255 C261 1.429 . S
C256 C248 1.574 . S
C256 H251 0.949 . S
C256 C262 1.368 . S
C257 C241 1.349 . S
C257 H249 0.950 . S
C257 C255 1.327 . S
C258 C246 1.349 . S
C258 H252 0.950 . S
C258 C259 1.327 . S
C259 H253 0.950 . S
C259 C258 1.327 . S
C259 C263 1.429 . S
C260 C243 1.574 . S
C260 H254 0.949 . S
C260 C264 1.368 . S
C261 C242 1.429 . S
C261 C255 1.429 . S
C261 C262 1.523 . S
C262 C243 1.368 . S
C262 C256 1.368 . S
C262 C261 1.523 . S
C263 C247 1.429 . S
C263 C259 1.429 . S
C263 C264 1.523 . S
C264 C248 1.368 . S
C264 C260 1.368 . S
C264 C263 1.523 . S
H265 C240 0.950 . S
H266 C242 0.950 . S
H267 C243 0.949 . S
H268 C245 0.950 . S
H269 C247 0.950 . S
C270 C271 1.349 . S
C270 C272 1.327 . S
C270 H295 0.950 . S
C271 C270 1.349 . S
C271 C287 1.349 . S
C272 C270 1.327 . S
C272 C291 1.429 . S
C272 H296 0.950 . S
C273 C290 1.574 . S
C273 C292 1.368 . S
C273 H297 0.949 . S
H274 C278 0.949 . S
C275 C276 1.349 . S
C275 C277 1.327 . S
C275 H298 0.950 . S
C276 C275 1.349 . S
C276 C288 1.349 . S
C277 C275 1.327 . S
C277 C293 1.429 . S
C277 H299 0.950 . S
C278 H274 0.949 . S
C278 C286 1.574 . S
C278 C294 1.368 . S
H279 C287 0.950 . S
H280 C285 0.950 . S
H281 C286 0.949 . S
H282 C288 0.950 . S
H283 C289 0.950 . S
H284 C290 0.949 . S
C285 H280 0.950 . S
C285 C287 1.327 . S
C285 C291 1.429 . S
C286 C278 1.574 . S
C286 H281 0.949 . S
C286 C292 1.368 . S
C287 C271 1.349 . S
C287 H279 0.950 . S
C287 C285 1.327 . S
C288 C276 1.349 . S
C288 H282 0.950 . S
C288 C289 1.327 . S
C289 H283 0.950 . S
C289 C288 1.327 . S
C289 C293 1.429 . S
C290 C273 1.574 . S
C290 H284 0.949 . S
C290 C294 1.368 . S
C291 C272 1.429 . S
C291 C285 1.429 . S
C291 C292 1.523 . S
C292 C273 1.368 . S
C292 C286 1.368 . S
C292 C291 1.523 . S
C293 C277 1.429 . S
C293 C289 1.429 . S
C293 C294 1.523 . S
C294 C278 1.368 . S
C294 C290 1.368 . S
C294 C293 1.523 . S
H295 C270 0.950 . S
H296 C272 0.950 . S
H297 C273 0.949 . S
H298 C275 0.950 . S
H299 C277 0.950 . S
C300 C301 1.349 . S
C300 C302 1.327 . S
C300 H325 0.950 . S
C301 C300 1.349 . S
C301 C317 1.349 . S
C302 C300 1.327 . S
C302 C321 1.429 . S
C302 H326 0.950 . S
C303 C320 1.574 . S
C303 C322 1.368 . S
C303 H327 0.949 . S
H304 C308 0.949 . S
C305 C306 1.349 . S
C305 C307 1.327 . S
C305 H328 0.950 . S
C306 C305 1.349 . S
C306 C318 1.349 . S
C307 C305 1.327 . S
C307 C323 1.429 . S
C307 H329 0.950 . S
C308 H304 0.949 . S
C308 C316 1.574 . S
C308 C324 1.368 . S
H309 C317 0.950 . S
H310 C315 0.950 . S
H311 C316 0.949 . S
H312 C318 0.950 . S
H313 C319 0.950 . S
H314 C320 0.949 . S
C315 H310 0.950 . S
C315 C317 1.327 . S
C315 C321 1.429 . S
C316 C308 1.574 . S
C316 H311 0.949 . S
C316 C322 1.368 . S
C317 C301 1.349 . S
C317 H309 0.950 . S
C317 C315 1.327 . S
C318 C306 1.349 . S
C318 H312 0.950 . S
C318 C319 1.327 . S
C319 H313 0.950 . S
C319 C318 1.327 . S
C319 C323 1.429 . S
C320 C303 1.574 . S
C320 H314 0.949 . S
C320 C324 1.368 . S
C321 C302 1.429 . S
C321 C315 1.429 . S
C321 C322 1.523 . S
C322 C303 1.368 . S
C322 C316 1.368 . S
C322 C321 1.523 . S
C323 C307 1.429 . S
C323 C319 1.429 . S
C323 C324 1.523 . S
C324 C308 1.368 . S
C324 C320 1.368 . S
C324 C323 1.523 . S
H325 C300 0.950 . S
H326 C302 0.950 . S
H327 C303 0.949 . S
H328 C305 0.950 . S
H329 C307 0.950 . S
C330 C331 1.349 . S
C330 C332 1.327 . S
C330 H355 0.950 . S
C331 C330 1.349 . S
C331 C347 1.349 1_545 S
C332 C330 1.327 . S
C332 C351 1.430 1_545 S
C332 H356 0.950 . S
C333 C350 1.574 . S
C333 C352 1.368 . S
C333 H357 0.949 . S
H334 C338 0.949 . S
C335 C336 1.349 . S
C335 C337 1.327 . S
C335 H358 0.950 . S
C336 C335 1.349 . S
C336 C348 1.349 1_565 S
C337 C335 1.327 . S
C337 C353 1.429 . S
C337 H359 0.950 . S
C338 H334 0.949 . S
C338 C346 1.574 . S
C338 C354 1.368 1_545 S
H339 C347 0.950 . S
H340 C345 0.950 . S
H341 C346 0.949 . S
H342 C348 0.950 . S
H343 C349 0.950 . S
H344 C350 0.949 . S
C345 H340 0.950 . S
C345 C347 1.327 . S
C345 C351 1.427 . S
C346 C338 1.574 . S
C346 H341 0.949 . S
C346 C352 1.368 1_545 S
C347 C331 1.349 1_565 S
C347 H339 0.950 . S
C347 C345 1.327 . S
C348 C336 1.349 1_545 S
C348 H342 0.950 . S
C348 C349 1.327 . S
C349 H343 0.950 . S
C349 C348 1.327 . S
C349 C353 1.429 1_545 S
C350 C333 1.574 . S
C350 H344 0.949 . S
C350 C354 1.368 . S
C351 C332 1.430 1_565 S
C351 C345 1.427 . S
C351 C352 1.523 . S
C352 C333 1.368 . S
C352 C346 1.368 1_565 S
C352 C351 1.523 . S
C353 C337 1.429 . S
C353 C349 1.429 1_565 S
C353 C354 1.523 . S
C354 C338 1.368 1_565 S
C354 C350 1.368 . S
C354 C353 1.523 . S
H355 C330 0.950 . S
H356 C332 0.950 . S
H357 C333 0.949 . S
H358 C335 0.950 . S
H359 C337 0.950 . S
C360 C361 1.349 1_565 S
C360 C362 1.327 1_455 S
C360 H385 0.950 1_455 S
C361 C360 1.349 1_545 S
C361 C377 1.349 . S
C362 C360 1.327 1_655 S
C362 C381 1.429 1_665 S
C362 H386 0.950 . S
C363 C380 1.574 . S
C363 C382 1.368 . S
C363 H387 0.949 . S
H364 C368 0.949 1_565 S
C365 C366 1.349 1_455 S
C365 C367 1.327 . S
C365 H388 0.950 . S
C366 C365 1.349 1_655 S
C366 C378 1.349 . S
C367 C365 1.327 . S
C367 C383 1.429 . S
C367 H389 0.950 . S
C368 H364 0.949 1_545 S
C368 C376 1.574 . S
C368 C384 1.368 1_655 S
H369 C377 0.950 . S
H370 C375 0.950 . S
H371 C376 0.949 1_565 S
H372 C378 0.943 1_565 S
H373 C379 0.950 1_565 S
H374 C380 0.949 . S
C375 H370 0.950 . S
C375 C377 1.327 . S
C375 C381 1.429 . S
C376 C368 1.574 . S
C376 H371 0.949 1_545 S
C376 C382 1.368 1_655 S
C377 C361 1.349 . S
C377 H369 0.950 . S
C377 C375 1.327 . S
C378 C366 1.349 . S
C378 H372 0.943 1_545 S
C378 C379 1.327 . S
C379 H373 0.950 1_545 S
C379 C378 1.327 . S
C379 C383 1.429 1_655 S
C380 C363 1.574 . S
C380 H374 0.949 . S
C380 C384 1.368 . S
C381 C362 1.429 1_445 S
C381 C375 1.429 . S
C381 C382 1.523 . S
C382 C363 1.368 . S
C382 C376 1.368 1_455 S
C382 C381 1.523 . S
C383 C367 1.429 . S
C383 C379 1.429 1_455 S
C383 C384 1.523 . S
C384 C368 1.368 1_455 S
C384 C380 1.368 . S
C384 C383 1.523 . S
H385 C360 0.950 1_655 S
H386 C362 0.950 . S
H387 C363 0.949 . S
H388 C365 0.950 . S
H389 C367 0.950 . S
C390 C391 1.349 . S
C390 C392 1.327 . S
C390 H415 0.950 . S
C391 C390 1.349 . S
C391 C407 1.349 . S
C392 C390 1.327 . S
C392 C411 1.429 . S
C392 H416 0.950 . S
C393 C410 1.574 . S
C393 C412 1.368 . S
C393 H417 0.949 . S
H394 C398 0.949 . S
C395 C396 1.349 . S
C395 C397 1.327 . S
C395 H418 0.950 . S
C396 C395 1.349 . S
C396 C408 1.349 . S
C397 C395 1.327 . S
C397 C413 1.429 . S
C397 H419 0.950 . S
C398 H394 0.949 . S
C398 C406 1.574 . S
C398 C414 1.368 . S
H399 C407 0.950 . S
H400 C405 0.950 . S
H401 C406 0.949 . S
H402 C408 0.950 . S
H403 C409 0.950 . S
H404 C410 0.949 . S
C405 H400 0.950 . S
C405 C407 1.327 . S
C405 C411 1.429 . S
C406 C398 1.574 . S
C406 H401 0.949 . S
C406 C412 1.368 . S
C407 C391 1.349 . S
C407 H399 0.950 . S
C407 C405 1.327 . S
C408 C396 1.349 . S
C408 H402 0.950 . S
C408 C409 1.327 . S
C409 H403 0.950 . S
C409 C408 1.327 . S
C409 C413 1.429 . S
C410 C393 1.574 . S
C410 H404 0.949 . S
C410 C414 1.368 . S
C411 C392 1.429 . S
C411 C405 1.429 . S
C411 C412 1.523 . S
C412 C393 1.368 . S
C412 C406 1.368 . S
C412 C411 1.523 . S
C413 C397 1.429 . S
C413 C409 1.429 . S
C413 C414 1.523 . S
C414 C398 1.368 . S
C414 C410 1.368 . S
C414 C413 1.523 . S
H415 C390 0.950 . S
H416 C392 0.950 . S
H417 C393 0.949 . S
H418 C395 0.950 . S
H419 C397 0.950 . S
C420 C421 1.349 . S
C420 C422 1.327 . S
C420 H445 0.950 . S
C421 C420 1.349 . S
C421 C437 1.349 . S
C422 C420 1.327 . S
C422 C441 1.429 . S
C422 H446 0.950 . S
C423 C440 1.574 . S
C423 C442 1.368 . S
C423 H447 0.949 . S
H424 C428 0.949 . S
C425 C426 1.349 . S
C425 C427 1.327 . S
C425 H448 0.950 . S
C426 C425 1.349 . S
C426 C438 1.349 . S
C427 C425 1.327 . S
C427 C443 1.429 . S
C427 H449 0.950 . S
C428 H424 0.949 . S
C428 C436 1.574 . S
C428 C444 1.368 . S
H429 C437 0.950 . S
H430 C435 0.950 . S
H431 C436 0.949 . S
H432 C438 0.950 . S
H433 C439 0.950 . S
H434 C440 0.949 . S
C435 H430 0.950 . S
C435 C437 1.327 . S
C435 C441 1.429 . S
C436 C428 1.574 . S
C436 H431 0.949 . S
C436 C442 1.368 . S
C437 C421 1.349 . S
C437 H429 0.950 . S
C437 C435 1.327 . S
C438 C426 1.349 . S
C438 H432 0.950 . S
C438 C439 1.327 . S
C439 H433 0.950 . S
C439 C438 1.327 . S
C439 C443 1.429 . S
C440 C423 1.574 . S
C440 H434 0.949 . S
C440 C444 1.368 . S
C441 C422 1.429 . S
C441 C435 1.429 . S
C441 C442 1.523 . S
C442 C423 1.368 . S
C442 C436 1.368 . S
C442 C441 1.523 . S
C443 C427 1.429 . S
C443 C439 1.429 . S
C443 C444 1.523 . S
C444 C428 1.368 . S
C444 C440 1.368 . S
C444 C443 1.523 . S
H445 C420 0.950 . S
H446 C422 0.950 . S
H447 C423 0.949 . S
H448 C425 0.950 . S
H449 C427 0.950 . S
C96 C84 1.434 . S
C91 C15 1.291 . S
C121 C13 1.372 . S
C126 C70 1.345 . S
C151 C18 1.251 1_554 S
C156 C82 1.394 . S
C181 C17 1.414 . S
C186 C72 1.450 . S
C211 C36 1.291 . S
C216 C60 1.434 1_565 S
C241 C34 1.372 . S
C246 C46 1.345 . S
C276 C58 1.394 . S
C271 C39 1.251 . S
C306 C48 1.450 . S
C301 C38 1.414 . S
C331 C14 1.584 . S
C336 C51 1.630 . S
C361 C16 1.383 . S
C366 C63 1.410 . S
C396 C75 1.630 . S
C391 C35 1.584 . S
C421 C37 1.383 . S
C426 C87 1.410 . S
