# Generated by pormake.
# Topology pyr, (3,6)-cn, num edge types: 1
# Building blocks:
#     Node 0, Type 0, BuildingBlock: KAKCAD_clean_linker_0, # of connection points: 3
#     Node 1, Type 0, BuildingBlock: KAKCAD_clean_linker_0, # of connection points: 3
#     Node 2, Type 0, BuildingBlock: KAKCAD_clean_linker_0, # of connection points: 3
#     Node 3, Type 0, BuildingBlock: KAKCAD_clean_linker_0, # of connection points: 3
#     Node 4, Type 0, BuildingBlock: KAKCAD_clean_linker_0, # of connection points: 3
#     Node 5, Type 0, BuildingBlock: KAKCAD_clean_linker_0, # of connection points: 3
#     Node 6, Type 0, BuildingBlock: KAKCAD_clean_linker_0, # of connection points: 3
#     Node 7, Type 0, BuildingBlock: KAKCAD_clean_linker_0, # of connection points: 3
#     Node 8, Type 1, BuildingBlock: VOLQOD_clean_sbu_1, # of connection points: 6
#     Node 9, Type 1, BuildingBlock: VOLQOD_clean_sbu_1, # of connection points: 6
#     Node 10, Type 1, BuildingBlock: VOLQOD_clean_sbu_1, # of connection points: 6
#     Node 11, Type 1, BuildingBlock: VOLQOD_clean_sbu_1, # of connection points: 6
#     Edge 12, Type (0, 1), BuildingBlock: TEMPAE_clean_linker_10, # of connection points: 2
#     Edge 13, Type (0, 1), BuildingBlock: TEMPAE_clean_linker_10, # of connection points: 2
#     Edge 14, Type (0, 1), BuildingBlock: TEMPAE_clean_linker_10, # of connection points: 2
#     Edge 15, Type (0, 1), BuildingBlock: TEMPAE_clean_linker_10, # of connection points: 2
#     Edge 16, Type (0, 1), BuildingBlock: TEMPAE_clean_linker_10, # of connection points: 2
#     Edge 17, Type (0, 1), BuildingBlock: TEMPAE_clean_linker_10, # of connection points: 2
#     Edge 18, Type (0, 1), BuildingBlock: TEMPAE_clean_linker_10, # of connection points: 2
#     Edge 19, Type (0, 1), BuildingBlock: TEMPAE_clean_linker_10, # of connection points: 2
#     Edge 20, Type (0, 1), BuildingBlock: TEMPAE_clean_linker_10, # of connection points: 2
#     Edge 21, Type (0, 1), BuildingBlock: TEMPAE_clean_linker_10, # of connection points: 2
#     Edge 22, Type (0, 1), BuildingBlock: TEMPAE_clean_linker_10, # of connection points: 2
#     Edge 23, Type (0, 1), BuildingBlock: TEMPAE_clean_linker_10, # of connection points: 2
#     Edge 24, Type (0, 1), BuildingBlock: TEMPAE_clean_linker_10, # of connection points: 2
#     Edge 25, Type (0, 1), BuildingBlock: TEMPAE_clean_linker_10, # of connection points: 2
#     Edge 26, Type (0, 1), BuildingBlock: TEMPAE_clean_linker_10, # of connection points: 2
#     Edge 27, Type (0, 1), BuildingBlock: TEMPAE_clean_linker_10, # of connection points: 2
#     Edge 28, Type (0, 1), BuildingBlock: TEMPAE_clean_linker_10, # of connection points: 2
#     Edge 29, Type (0, 1), BuildingBlock: TEMPAE_clean_linker_10, # of connection points: 2
#     Edge 30, Type (0, 1), BuildingBlock: TEMPAE_clean_linker_10, # of connection points: 2
#     Edge 31, Type (0, 1), BuildingBlock: TEMPAE_clean_linker_10, # of connection points: 2
#     Edge 32, Type (0, 1), BuildingBlock: TEMPAE_clean_linker_10, # of connection points: 2
#     Edge 33, Type (0, 1), BuildingBlock: TEMPAE_clean_linker_10, # of connection points: 2
#     Edge 34, Type (0, 1), BuildingBlock: TEMPAE_clean_linker_10, # of connection points: 2
#     Edge 35, Type (0, 1), BuildingBlock: TEMPAE_clean_linker_10, # of connection points: 2
# Relax obj value: 0.035
# Max RMSD: 0.119
# Mean RMSD: 0.043
data_MOF--net-pry--node1-VOLQOD_clean_sbu_1--node2-KAKCAD_clean_linker_0--edge1-TEMPAE_clean_linker_10
_symmetry_space_group_name_H-M    P1
_symmetry_Int_Tables_number       1
_symmetry_cell_setting            triclinic
loop_
_symmetry_equiv_pos_as_xyz
'x, y, z'
_cell_length_a     45.96566
_cell_length_b     45.911207
_cell_length_c     46.084458
_cell_angle_alpha  90.390784
_cell_angle_beta   89.883838
_cell_angle_gamma 90.273714
loop_
_atom_site_label
_atom_site_type_symbol
_atom_site_fract_x
_atom_site_fract_y
_atom_site_fract_z
_atom_type_partial_charge
C0 C 0.06201 0.0905 0.21166 0.0
C1 C 0.07821 0.09211 0.23741 0.0
C2 C 0.07376 0.10102 0.1857 0.0
C3 C 0.1021 0.11255 0.18513 0.0
C4 C 0.11835 0.11386 0.21086 0.0
C5 C 0.10638 0.10399 0.23686 0.0
C6 C 0.11491 0.12338 0.15786 0.0
C7 C 0.10196 0.14654 0.14309 0.0
C8 C 0.11554 0.15867 0.11861 0.0
C9 C 0.14167 0.14651 0.10837 0.0
C10 C 0.15473 0.12317 0.12285 0.0
C11 C 0.14125 0.11184 0.14772 0.0
C12 C 0.18313 0.11159 0.11282 0.0
C13 C 0.18845 0.10664 0.08315 0.0
C14 C 0.20536 0.10598 0.13288 0.0
C15 C 0.2324 0.09588 0.12347 0.0
C16 C 0.23779 0.09109 0.0938 0.0
C17 C 0.10386 0.18552 0.10528 0.0
C18 C 0.07385 0.18886 0.10053 0.0
C19 C 0.12276 0.2086 0.09833 0.0
C20 C 0.11192 0.23458 0.0873 0.0
C21 C 0.08192 0.23813 0.08296 0.0
C22 C 0.06299 0.2149 0.08935 0.0
C23 C 0.21548 0.0964 0.07374 0.0
H24 H 0.04021 0.08142 0.21174 0.0
H25 H 0.06093 0.09982 0.16603 0.0
H26 H 0.1402 0.12283 0.21087 0.0
H27 H 0.11923 0.1053 0.25652 0.0
H28 H 0.08218 0.15612 0.15166 0.0
H29 H 0.15116 0.09392 0.15922 0.0
H30 H 0.15231 0.1558 0.08954 0.0
H31 H 0.17165 0.11059 0.06722 0.0
H32 H 0.20203 0.10988 0.15586 0.0
H33 H 0.24908 0.09169 0.13946 0.0
H34 H 0.05879 0.17139 0.10556 0.0
H35 H 0.14594 0.20687 0.10208 0.0
H36 H 0.21908 0.0931 0.05072 0.0
H37 H 0.03974 0.2171 0.08634 0.0
H38 H 0.12707 0.25198 0.08226 0.0
C39 C 0.40121 0.93972 0.73429 0.0
C40 C 0.43121 0.94043 0.74 0.0
C41 C 0.39079 0.92925 0.70778 0.0
C42 C 0.41014 0.91936 0.68623 0.0
C43 C 0.44022 0.92104 0.69152 0.0
C44 C 0.45066 0.93149 0.71814 0.0
C45 C 0.39864 0.90555 0.65932 0.0
C46 C 0.37384 0.91679 0.64571 0.0
C47 C 0.36012 0.90164 0.62284 0.0
C48 C 0.3727 0.87559 0.61266 0.0
C49 C 0.39821 0.86464 0.62522 0.0
C50 C 0.41094 0.87969 0.64861 0.0
C51 C 0.41072 0.83669 0.61484 0.0
C52 C 0.41994 0.81561 0.63476 0.0
C53 C 0.41319 0.83072 0.58499 0.0
C54 C 0.42448 0.80418 0.57526 0.0
C55 C 0.43341 0.78299 0.5952 0.0
C56 C 0.3318 0.91203 0.61096 0.0
C57 C 0.31173 0.92649 0.62904 0.0
C58 C 0.32405 0.90679 0.58184 0.0
C59 C 0.29677 0.91504 0.57139 0.0
C60 C 0.2767 0.92941 0.58957 0.0
C61 C 0.28486 0.93545 0.6184 0.0
C62 C 0.43114 0.78905 0.62504 0.0
H63 H 0.38569 0.94685 0.75054 0.0
H64 H 0.36748 0.92796 0.7046 0.0
H65 H 0.4557 0.91388 0.67525 0.0
H66 H 0.4739 0.93166 0.72193 0.0
H67 H 0.36507 0.93731 0.65334 0.0
H68 H 0.43005 0.87082 0.65898 0.0
H69 H 0.36201 0.86298 0.59581 0.0
H70 H 0.41802 0.81941 0.6579 0.0
H71 H 0.40645 0.84664 0.56914 0.0
H72 H 0.42571 0.80001 0.55213 0.0
H73 H 0.31637 0.93051 0.65173 0.0
H74 H 0.33896 0.89618 0.567 0.0
H75 H 0.43805 0.77325 0.64092 0.0
H76 H 0.27048 0.94708 0.63299 0.0
H77 H 0.29132 0.90962 0.54916 0.0
C78 C 0.71119 0.43532 0.94781 0.0
C79 C 0.73221 0.44224 0.92673 0.0
C80 C 0.6843 0.42355 0.93962 0.0
C81 C 0.67783 0.41869 0.91018 0.0
C82 C 0.69862 0.42625 0.8891 0.0
C83 C 0.72552 0.43785 0.89728 0.0
C84 C 0.65003 0.40466 0.90139 0.0
C85 C 0.63449 0.41501 0.8774 0.0
C86 C 0.60939 0.4005 0.8675 0.0
C87 C 0.59968 0.37552 0.88216 0.0
C88 C 0.61499 0.3648 0.90616 0.0
C89 C 0.63999 0.37968 0.91578 0.0
C90 C 0.60604 0.33696 0.91984 0.0
C91 C 0.57658 0.33091 0.92555 0.0
C92 C 0.62694 0.3157 0.92622 0.0
C93 C 0.61854 0.2888 0.93752 0.0
C94 C 0.58905 0.28255 0.94277 0.0
C95 C 0.59471 0.41032 0.84062 0.0
C96 C 0.5905 0.44013 0.83533 0.0
C97 C 0.58628 0.38996 0.81929 0.0
C98 C 0.57469 0.39923 0.79295 0.0
C99 C 0.57128 0.42907 0.78732 0.0
C100 C 0.57887 0.4494 0.80898 0.0
C101 C 0.56818 0.30401 0.93699 0.0
H102 H 0.71583 0.43828 0.97068 0.0
H103 H 0.66861 0.41811 0.95631 0.0
H104 H 0.6944 0.42248 0.86626 0.0
H105 H 0.7412 0.44324 0.88055 0.0
H106 H 0.64245 0.43398 0.86592 0.0
H107 H 0.65214 0.37132 0.93403 0.0
H108 H 0.58061 0.36393 0.87436 0.0
H109 H 0.56001 0.34695 0.92103 0.0
H110 H 0.64978 0.31956 0.92177 0.0
H111 H 0.63515 0.27281 0.94203 0.0
H112 H 0.59654 0.45632 0.85146 0.0
H113 H 0.5895 0.36686 0.82254 0.0
H114 H 0.54527 0.29973 0.94064 0.0
H115 H 0.57667 0.47255 0.80522 0.0
H116 H 0.56871 0.38301 0.77683 0.0
C117 C 0.90407 0.57875 0.28408 0.0
C118 C 0.9342 0.57849 0.27895 0.0
C119 C 0.89309 0.5872 0.31107 0.0
C120 C 0.91198 0.59558 0.3336 0.0
C121 C 0.94216 0.5949 0.32866 0.0
C122 C 0.95318 0.58633 0.30161 0.0
C123 C 0.89996 0.60608 0.36169 0.0
C124 C 0.87578 0.59211 0.37418 0.0
C125 C 0.86238 0.60353 0.39915 0.0
C126 C 0.87379 0.62892 0.41201 0.0
C127 C 0.898 0.64316 0.39988 0.0
C128 C 0.91116 0.63142 0.3749 0.0
C129 C 0.908 0.67155 0.41185 0.0
C130 C 0.88767 0.69319 0.41905 0.0
C131 C 0.9378 0.67764 0.4152 0.0
C132 C 0.94705 0.70489 0.42543 0.0
C133 C 0.92669 0.72666 0.43235 0.0
C134 C 0.83507 0.59041 0.41041 0.0
C135 C 0.81277 0.58232 0.39112 0.0
C136 C 0.83044 0.5873 0.44039 0.0
C137 C 0.8038 0.57689 0.45088 0.0
C138 C 0.78124 0.56961 0.43157 0.0
C139 C 0.78615 0.57206 0.40159 0.0
C140 C 0.8969 0.72042 0.42912 0.0
H141 H 0.88892 0.5725 0.26714 0.0
H142 H 0.86972 0.58784 0.31404 0.0
H143 H 0.95724 0.60107 0.34567 0.0
H144 H 0.9765 0.58649 0.29822 0.0
H145 H 0.86716 0.57243 0.36425 0.0
H146 H 0.92909 0.64296 0.36478 0.0
H147 H 0.86323 0.63818 0.43096 0.0
H148 H 0.86458 0.68934 0.41616 0.0
H149 H 0.95393 0.66128 0.41001 0.0
H150 H 0.97014 0.70886 0.42803 0.0
H151 H 0.81554 0.58475 0.36791 0.0
H152 H 0.84732 0.59317 0.45575 0.0
H153 H 0.88065 0.73684 0.43369 0.0
H154 H 0.76927 0.5663 0.38619 0.0
H155 H 0.80057 0.57535 0.4741 0.0
C156 C 0.95352 0.92593 0.80846 0.0
C157 C 0.94606 0.9542 0.80014 0.0
C158 C 0.94615 0.91579 0.83597 0.0
C159 C 0.93174 0.93395 0.8561 0.0
C160 C 0.92508 0.96266 0.84786 0.0
C161 C 0.93187 0.97256 0.82 0.0
C162 C 0.92242 0.92229 0.88482 0.0
C163 C 0.93889 0.90072 0.89863 0.0
C164 C 0.92833 0.88639 0.92336 0.0
C165 C 0.90186 0.89541 0.93567 0.0
C166 C 0.8855 0.91767 0.92288 0.0
C167 C 0.89582 0.93078 0.89735 0.0
C168 C 0.85665 0.92587 0.93492 0.0
C169 C 0.83703 0.90431 0.94435 0.0
C170 C 0.84814 0.95522 0.93622 0.0
C171 C 0.82049 0.96281 0.94633 0.0
C172 C 0.80076 0.94121 0.95539 0.0
C173 C 0.9433 0.86001 0.93429 0.0
C174 C 0.95453 0.8395 0.91447 0.0
C175 C 0.94467 0.85397 0.96414 0.0
C176 C 0.95618 0.82761 0.97383 0.0
C177 C 0.96667 0.80686 0.95387 0.0
C178 C 0.96612 0.81332 0.92414 0.0
C179 C 0.80943 0.9119 0.9545 0.0
H180 H 0.96414 0.91132 0.79326 0.0
H181 H 0.95099 0.89333 0.84099 0.0
H182 H 0.91444 0.97747 0.86281 0.0
H183 H 0.92602 0.99452 0.81391 0.0
H184 H 0.95978 0.89445 0.88973 0.0
H185 H 0.88227 0.94653 0.88646 0.0
H186 H 0.89347 0.88445 0.95469 0.0
H187 H 0.84269 0.88146 0.94313 0.0
H188 H 0.86289 0.97235 0.92943 0.0
H189 H 0.81456 0.98561 0.94712 0.0
H190 H 0.95326 0.84306 0.8913 0.0
H191 H 0.93651 0.86944 0.97998 0.0
H192 H 0.79456 0.89472 0.96089 0.0
H193 H 0.97351 0.79757 0.90818 0.0
H194 H 0.95657 0.82329 0.9969 0.0
C195 C 0.57408 0.04238 0.33126 0.0
C196 C 0.56573 0.06156 0.30913 0.0
C197 C 0.58141 0.05306 0.35882 0.0
C198 C 0.58038 0.0831 0.3648 0.0
C199 C 0.57185 0.10218 0.34272 0.0
C200 C 0.56467 0.09156 0.31524 0.0
C201 C 0.58931 0.09498 0.39347 0.0
C202 C 0.61513 0.08563 0.4066 0.0
C203 C 0.62564 0.09938 0.43187 0.0
C204 C 0.60968 0.12245 0.44418 0.0
C205 C 0.58384 0.13212 0.43127 0.0
C206 C 0.57354 0.11779 0.40629 0.0
C207 C 0.5693 0.159 0.44196 0.0
C208 C 0.56698 0.16513 0.47183 0.0
C209 C 0.55918 0.17967 0.42204 0.0
C210 C 0.54761 0.20603 0.43166 0.0
C211 C 0.54598 0.21251 0.46143 0.0
C212 C 0.65462 0.09151 0.44364 0.0
C213 C 0.66347 0.06227 0.44477 0.0
C214 C 0.6743 0.11341 0.45234 0.0
C215 C 0.70235 0.10631 0.46131 0.0
C216 C 0.71149 0.07715 0.46166 0.0
C217 C 0.6916 0.05516 0.45369 0.0
C218 C 0.55549 0.19167 0.48147 0.0
H219 H 0.57485 0.01911 0.32731 0.0
H220 H 0.58779 0.03785 0.37548 0.0
H221 H 0.57148 0.1255 0.34643 0.0
H222 H 0.55899 0.10701 0.29855 0.0
H223 H 0.628 0.06887 0.39609 0.0
H224 H 0.55346 0.12488 0.39633 0.0
H225 H 0.61804 0.13365 0.46321 0.0
H226 H 0.57429 0.14954 0.48773 0.0
H227 H 0.56122 0.17602 0.39889 0.0
H228 H 0.54101 0.22186 0.41566 0.0
H229 H 0.64875 0.04488 0.43842 0.0
H230 H 0.66838 0.13619 0.45138 0.0
H231 H 0.55428 0.196 0.50457 0.0
H232 H 0.69803 0.0325 0.4535 0.0
H233 H 0.71702 0.12374 0.46768 0.0
C234 C 0.30827 0.55511 0.08682 0.0
C235 C 0.30381 0.55665 0.0567 0.0
C236 C 0.33435 0.56465 0.09909 0.0
C237 C 0.35668 0.57606 0.0816 0.0
C238 C 0.35257 0.57706 0.0514 0.0
C239 C 0.3264 0.56741 0.03906 0.0
C240 C 0.38317 0.58861 0.09536 0.0
C241 C 0.39587 0.5748 0.11928 0.0
C242 C 0.41775 0.58864 0.13573 0.0
C243 C 0.42804 0.61604 0.12661 0.0
C244 C 0.41648 0.62968 0.10198 0.0
C245 C 0.39395 0.61581 0.08656 0.0
C246 C 0.42675 0.65917 0.09334 0.0
C247 C 0.43264 0.68061 0.11451 0.0
C248 C 0.43034 0.66627 0.0639 0.0
C249 C 0.43951 0.69415 0.05583 0.0
C250 C 0.44546 0.71547 0.07705 0.0
C251 C 0.42808 0.57571 0.16358 0.0
C252 C 0.40914 0.55885 0.18077 0.0
C253 C 0.45625 0.58144 0.17419 0.0
C254 C 0.46459 0.57208 0.20175 0.0
C255 C 0.44533 0.55586 0.2192 0.0
C256 C 0.41782 0.54864 0.20784 0.0
C257 C 0.44199 0.70838 0.10645 0.0
H258 H 0.29115 0.54756 0.10113 0.0
H259 H 0.33653 0.56414 0.12248 0.0
H260 H 0.36948 0.58552 0.03735 0.0
H261 H 0.32375 0.5686 0.01576 0.0
H262 H 0.38813 0.55338 0.12532 0.0
H263 H 0.3837 0.62696 0.06865 0.0
H264 H 0.44463 0.62727 0.13905 0.0
H265 H 0.42948 0.67615 0.13734 0.0
H266 H 0.4263 0.65018 0.04707 0.0
H267 H 0.44224 0.69896 0.03301 0.0
H268 H 0.3871 0.55415 0.17392 0.0
H269 H 0.47189 0.59363 0.16149 0.0
H270 H 0.44593 0.72453 0.12326 0.0
H271 H 0.40257 0.53547 0.22002 0.0
H272 H 0.48589 0.57841 0.20958 0.0
C273 C 0.09732 0.30213 0.57342 0.0
C274 C 0.06763 0.29479 0.57342 0.0
C275 C 0.10626 0.33064 0.5793 0.0
C276 C 0.0857 0.35237 0.5855 0.0
C277 C 0.05598 0.34507 0.58553 0.0
C278 C 0.04701 0.31654 0.57934 0.0
C279 C 0.0955 0.3824 0.5925 0.0
C280 C 0.11713 0.39573 0.57567 0.0
C281 C 0.12875 0.42295 0.58359 0.0
C282 C 0.11725 0.43755 0.60793 0.0
C283 C 0.09566 0.42449 0.62537 0.0
C284 C 0.08493 0.39681 0.61727 0.0
C285 C 0.08612 0.43842 0.65324 0.0
C286 C 0.1055 0.4557 0.66966 0.0
C287 C 0.05809 0.43332 0.66455 0.0
C288 C 0.05029 0.44374 0.69204 0.0
C289 C 0.06995 0.46043 0.70872 0.0
C290 C 0.15498 0.4345 0.56848 0.0
C291 C 0.17742 0.41537 0.56031 0.0
C292 C 0.15892 0.46456 0.56404 0.0
C293 C 0.18512 0.47525 0.5527 0.0
C294 C 0.20774 0.45607 0.54533 0.0
C295 C 0.20339 0.42602 0.54878 0.0
C296 C 0.09735 0.46696 0.69667 0.0
H297 H 0.11366 0.28583 0.56869 0.0
H298 H 0.12933 0.33559 0.57946 0.0
H299 H 0.03971 0.36145 0.59018 0.0
H300 H 0.02399 0.31138 0.57962 0.0
H301 H 0.12535 0.38452 0.55658 0.0
H302 H 0.06946 0.38556 0.63102 0.0
H303 H 0.12605 0.45864 0.61391 0.0
H304 H 0.12745 0.45994 0.66226 0.0
H305 H 0.04216 0.42079 0.65244 0.0
H306 H 0.02908 0.43784 0.70042 0.0
H307 H 0.17553 0.39217 0.56399 0.0
H308 H 0.14196 0.47986 0.56974 0.0
H309 H 0.11291 0.48041 0.70826 0.0
H310 H 0.22061 0.41073 0.54382 0.0
H311 H 0.18786 0.49853 0.55006 0.0
O312 O 0.99265 0.07413 0.53898 0.0
Zn313 Zn 0.97586 0.03365 0.537 0.0
O314 O 0.99887 0.00829 0.51166 0.0
Zn315 Zn 0.97555 0.99674 0.47801 0.0
Zn316 Zn 0.03354 0.0294 0.49881 0.0
Zn317 Zn 0.01056 0.9735 0.53285 0.0
O318 O 0.97247 0.95298 0.47474 0.0
O319 O 0.99545 0.93699 0.51378 0.0
O320 O 0.93447 0.03673 0.52291 0.0
O321 O 0.93474 0.01192 0.48142 0.0
O322 O 0.99311 0.01193 0.44087 0.0
O323 O 0.03549 0.03052 0.45523 0.0
O324 O 0.07021 0.01085 0.51362 0.0
O325 O 0.97494 0.0183 0.57767 0.0
O326 O 0.05421 0.9702 0.53431 0.0
O327 O 0.99603 0.97494 0.57423 0.0
C328 C 0.01547 0.08575 0.52836 0.0
C329 C 0.98106 0.93214 0.49066 0.0
C330 C 0.01752 0.0239 0.43522 0.0
C331 C 0.92143 0.02714 0.5004 0.0
C332 C 0.07494 0.98693 0.52657 0.0
C333 C 0.98309 0.99453 0.58906 0.0
O334 O 0.03303 0.07108 0.51272 0.0
O335 O 0.50895 0.06806 0.9936 0.0
Zn336 Zn 0.49085 0.0282 0.99656 0.0
O337 O 0.5145 0.00248 0.02052 0.0
Zn338 Zn 0.52863 0.96982 0.99698 0.0
Zn339 Zn 0.54754 0.02449 0.03631 0.0
Zn340 Zn 0.49082 0.98735 0.05233 0.0
O341 O 0.51475 0.93121 0.01271 0.0
O342 O 0.48698 0.94377 0.05013 0.0
O343 O 0.48673 0.01227 0.95596 0.0
O344 O 0.51403 0.97253 0.95594 0.0
O345 O 0.57239 0.96936 0.99565 0.0
O346 O 0.58555 0.00685 0.02339 0.0
O347 O 0.54683 0.02483 0.08004 0.0
O348 O 0.45067 0.03321 0.01339 0.0
O349 O 0.50845 0.99749 0.09102 0.0
O350 O 0.45058 0.00435 0.0518 0.0
C351 C 0.53105 0.08013 0.0053 0.0
C352 C 0.49795 0.92436 0.03361 0.0
C353 C 0.59206 0.98524 0.0072 0.0
C354 C 0.49743 0.99026 0.94287 0.0
C355 C 0.53031 0.01279 0.09873 0.0
C356 C 0.43777 0.02231 0.03528 0.0
O357 O 0.54743 0.06611 0.02249 0.0
O358 O 0.52753 0.51075 0.57343 0.0
Zn359 Zn 0.52585 0.52757 0.53313 0.0
O360 O 0.49993 0.50453 0.5082 0.0
Zn361 Zn 0.52218 0.48547 0.47741 0.0
Zn362 Zn 0.48018 0.47493 0.53137 0.0
Zn363 Zn 0.47132 0.53021 0.49064 0.0
O364 O 0.50725 0.49619 0.43777 0.0
O365 O 0.47617 0.53198 0.44728 0.0
O366 O 0.56653 0.52839 0.51669 0.0
O367 O 0.56415 0.49798 0.47907 0.0
O368 O 0.52049 0.4419 0.48083 0.0
O369 O 0.48988 0.43445 0.51732 0.0
O370 O 0.43674 0.47954 0.5294 0.0
O371 O 0.51183 0.56907 0.53712 0.0
O372 O 0.43053 0.51635 0.49909 0.0
O373 O 0.47445 0.57074 0.50682 0.0
C374 C 0.51259 0.4913 0.58637 0.0
C375 C 0.49014 0.51613 0.42933 0.0
C376 C 0.50652 0.42471 0.49742 0.0
C377 C 0.57856 0.51525 0.4954 0.0
C378 C 0.42015 0.49647 0.5153 0.0
C379 C 0.49122 0.58302 0.52518 0.0
O380 O 0.49297 0.47682 0.57306 0.0
O381 O 0.98528 0.50736 0.06235 0.0
Zn382 Zn 0.98787 0.49141 0.02162 0.0
O383 O 0.01383 0.51508 0.99766 0.0
Zn384 Zn 0.99168 0.53373 0.96676 0.0
Zn385 Zn 0.03218 0.54501 0.02187 0.0
Zn386 Zn 0.04363 0.49011 0.98044 0.0
O387 O 0.00771 0.52318 0.92727 0.0
O388 O 0.04 0.48866 0.93696 0.0
O389 O 0.94755 0.49015 0.00479 0.0
O390 O 0.94974 0.52047 0.96751 0.0
O391 O 0.99268 0.5774 0.97078 0.0
O392 O 0.02216 0.58525 0.00811 0.0
O393 O 0.07571 0.54122 0.02119 0.0
O394 O 0.00221 0.45016 0.02462 0.0
O395 O 0.08394 0.50477 0.99038 0.0
O396 O 0.04063 0.44916 0.99545 0.0
C397 C 0.99914 0.52727 0.07594 0.0
C398 C 0.0258 0.50392 0.91895 0.0
C399 C 0.00595 0.59477 0.98795 0.0
C400 C 0.9355 0.50294 0.98355 0.0
C401 C 0.09322 0.52478 0.00734 0.0
C402 C 0.0233 0.43651 0.01294 0.0
O403 O 0.01831 0.54273 0.06323 0.0
C404 C 0.06277 0.10043 0.28854 0.0
C405 C 0.06603 0.08135 0.26497 0.0
C406 C 0.05295 0.09028 0.31547 0.0
C407 C 0.04703 0.0602 0.319 0.0
C408 C 0.04996 0.0409 0.29507 0.0
C409 C 0.05914 0.05182 0.26816 0.0
C410 C 0.04947 0.11164 0.34029 0.0
C411 C 0.04446 0.00863 0.29817 0.0
C412 C 0.05405 0.03332 0.39626 0.0
C413 C 0.02487 0.03124 0.40491 0.0
C414 C 0.0615 0.04168 0.36799 0.0
C415 C 0.03923 0.04888 0.34815 0.0
C416 C 0.0097 0.04649 0.35664 0.0
C417 C 0.00286 0.03734 0.38487 0.0
C418 C 0.09322 0.0433 0.35953 0.0
C419 C 0.9854 0.05459 0.33628 0.0
H420 H 0.06805 0.1233 0.28586 0.0
H421 H 0.06194 0.03713 0.24985 0.0
H422 H 0.02745 0.10955 0.34997 0.0
H423 H 0.06545 0.10673 0.35757 0.0
H424 H 0.05278 0.13455 0.33334 0.0
H425 H 0.04661 0.99676 0.27719 0.0
H426 H 0.06018 0.99938 0.31381 0.0
H427 H 0.02234 0.00467 0.307 0.0
H428 H 0.07112 0.02836 0.41164 0.0
H429 H 0.98027 0.03595 0.39156 0.0
H430 H 0.09939 0.06622 0.35503 0.0
H431 H 0.09707 0.03057 0.33934 0.0
H432 H 0.10773 0.0349 0.37679 0.0
H433 H 0.98717 0.07802 0.33074 0.0
H434 H 0.96357 0.05052 0.34586 0.0
H435 H 0.98721 0.04207 0.3157 0.0
C436 C 0.42778 0.93893 0.7941 0.0
C437 C 0.44197 0.94915 0.76916 0.0
C438 C 0.43765 0.94653 0.82189 0.0
C439 C 0.4624 0.96473 0.82486 0.0
C440 C 0.47688 0.97514 0.79981 0.0
C441 C 0.46649 0.9672 0.77222 0.0
C442 C 0.42168 0.93489 0.84808 0.0
C443 C 0.50333 0.99463 0.80219 0.0
C444 C 0.47048 0.00318 0.89755 0.0
C445 C 0.48983 0.98475 0.91205 0.0
C446 C 0.46199 0.99738 0.86885 0.0
C447 C 0.47313 0.97258 0.85429 0.0
C448 C 0.49323 0.95432 0.86849 0.0
C449 C 0.50133 0.96061 0.89719 0.0
C450 C 0.44048 0.01734 0.85439 0.0
C451 C 0.50561 0.92769 0.85362 0.0
H452 H 0.40914 0.92453 0.7919 0.0
H453 H 0.47738 0.97535 0.75301 0.0
H454 H 0.43661 0.92159 0.86138 0.0
H455 H 0.41409 0.95321 0.86193 0.0
H456 H 0.40258 0.92127 0.84201 0.0
H457 H 0.51206 0.00091 0.78061 0.0
H458 H 0.49779 0.01472 0.81448 0.0
H459 H 0.52071 0.98342 0.81443 0.0
H460 H 0.46153 0.02194 0.90876 0.0
H461 H 0.5164 0.9463 0.90812 0.0
H462 H 0.42004 0.00524 0.84978 0.0
H463 H 0.44925 0.02497 0.83331 0.0
H464 H 0.4352 0.03664 0.86805 0.0
H465 H 0.48787 0.91191 0.84887 0.0
H466 H 0.52226 0.91668 0.86705 0.0
H467 H 0.51562 0.93377 0.83258 0.0
C468 C 0.57205 0.42598 0.73311 0.0
C469 C 0.56104 0.43893 0.75848 0.0
C470 C 0.56322 0.43535 0.70563 0.0
C471 C 0.54286 0.45826 0.70342 0.0
C472 C 0.53155 0.47139 0.72891 0.0
C473 C 0.54082 0.46159 0.75617 0.0
C474 C 0.57587 0.42087 0.67894 0.0
C475 C 0.50971 0.49578 0.72738 0.0
C476 C 0.54205 0.49834 0.63164 0.0
C477 C 0.51899 0.48443 0.61711 0.0
C478 C 0.54957 0.49058 0.66006 0.0
C479 C 0.53361 0.46844 0.67432 0.0
C480 C 0.50978 0.45493 0.66015 0.0
C481 C 0.50277 0.46306 0.63172 0.0
C482 C 0.57513 0.50548 0.6745 0.0
C483 C 0.49219 0.43128 0.6747 0.0
H484 H 0.58805 0.4088 0.73474 0.0
H485 H 0.53205 0.47149 0.77571 0.0
H486 H 0.55816 0.41153 0.6654 0.0
H487 H 0.58748 0.43724 0.66557 0.0
H488 H 0.5913 0.40319 0.68442 0.0
H489 H 0.50293 0.50359 0.74922 0.0
H490 H 0.5191 0.51439 0.71524 0.0
H491 H 0.4901 0.48836 0.71538 0.0
H492 H 0.55469 0.51491 0.62062 0.0
H493 H 0.48483 0.45225 0.62078 0.0
H494 H 0.59254 0.48937 0.67855 0.0
H495 H 0.56852 0.51459 0.69586 0.0
H496 H 0.58428 0.52335 0.66109 0.0
H497 H 0.50618 0.41209 0.67863 0.0
H498 H 0.47324 0.42422 0.66143 0.0
H499 H 0.48418 0.43898 0.69613 0.0
C500 C 0.96932 0.55183 0.2467 0.0
C501 C 0.94559 0.5707 0.24978 0.0
C502 C 0.97972 0.54389 0.21909 0.0
C503 C 0.96612 0.55521 0.19407 0.0
C504 C 0.94241 0.57456 0.19709 0.0
C505 C 0.93244 0.58205 0.22489 0.0
C506 C 0.005 0.52314 0.21667 0.0
C507 C 0.92746 0.58726 0.17093 0.0
C508 C 0.00539 0.55662 0.12158 0.0
C509 C 0.99214 0.53322 0.10684 0.0
C510 C 0.9977 0.56355 0.15028 0.0
C511 C 0.97631 0.54666 0.16461 0.0
C512 C 0.96345 0.52253 0.1502 0.0
C513 C 0.97149 0.51612 0.12148 0.0
C514 C 0.01186 0.58947 0.16496 0.0
C515 C 0.94062 0.50395 0.16484 0.0
H516 H 0.9794 0.54283 0.26588 0.0
H517 H 0.9144 0.59702 0.22718 0.0
H518 H 0.99816 0.50316 0.20478 0.0
H519 H 0.0229 0.53327 0.20403 0.0
H520 H 0.01355 0.51676 0.23823 0.0
H521 H 0.90956 0.60229 0.17704 0.0
H522 H 0.94343 0.59934 0.15747 0.0
H523 H 0.91834 0.56949 0.15722 0.0
H524 H 0.02142 0.56994 0.11053 0.0
H525 H 0.96122 0.49791 0.11037 0.0
H526 H 0.02136 0.58295 0.18604 0.0
H527 H 0.99524 0.60631 0.16963 0.0
H528 H 0.02928 0.59936 0.15144 0.0
H529 H 0.94887 0.49587 0.1859 0.0
H530 H 0.93399 0.48496 0.15128 0.0
H531 H 0.92105 0.51725 0.16953 0.0
C532 C 0.26903 0.05854 0.06308 0.0
C533 C 0.26674 0.08086 0.08387 0.0
C534 C 0.29634 0.04837 0.05395 0.0
C535 C 0.32189 0.06092 0.06584 0.0
C536 C 0.3197 0.08367 0.0866 0.0
C537 C 0.29215 0.09333 0.09539 0.0
C538 C 0.29784 0.02396 0.03188 0.0
C539 C 0.34647 0.09773 0.09963 0.0
C540 C 0.39246 0.01839 0.06532 0.0
C541 C 0.40756 0.03126 0.04217 0.0
C542 C 0.36434 0.02745 0.07288 0.0
C543 C 0.35099 0.05 0.05699 0.0
C544 C 0.36585 0.06276 0.03331 0.0
C545 C 0.39394 0.0532 0.02614 0.0
C546 C 0.34909 0.01324 0.09821 0.0
C547 C 0.35231 0.08691 0.0159 0.0
H548 H 0.24944 0.04865 0.05433 0.0
H549 H 0.29048 0.11088 0.11116 0.0
H550 H 0.31081 0.03094 0.0128 0.0
H551 H 0.30901 0.00492 0.0414 0.0
H552 H 0.27595 0.01695 0.02433 0.0
H553 H 0.34101 0.11549 0.11517 0.0
H554 H 0.3595 0.08116 0.11115 0.0
H555 H 0.36042 0.10684 0.0822 0.0
H556 H 0.40271 0.00134 0.07778 0.0
H557 H 0.40538 0.06329 0.00821 0.0
H558 H 0.32764 0.00451 0.09129 0.0
H559 H 0.345 0.02967 0.11549 0.0
H560 H 0.36198 0.9952 0.10758 0.0
H561 H 0.33094 0.07975 0.0072 0.0
H562 H 0.36632 0.09385 0.99751 0.0
H563 H 0.3483 0.10606 0.03014 0.0
C564 C 0.22316 0.93729 0.59766 0.0
C565 C 0.24725 0.93768 0.57882 0.0
C566 C 0.1955 0.94577 0.58828 0.0
C567 C 0.19141 0.95379 0.55901 0.0
C568 C 0.21531 0.95355 0.5396 0.0
C569 C 0.24301 0.94598 0.54984 0.0
C570 C 0.17066 0.9463 0.60981 0.0
C571 C 0.21161 0.96124 0.50802 0.0
C572 C 0.11331 0.94928 0.53273 0.0
C573 C 0.10511 0.97863 0.53335 0.0
C574 C 0.14173 0.94099 0.53988 0.0
C575 C 0.16205 0.9625 0.54886 0.0
C576 C 0.15386 0.9922 0.54943 0.0
C577 C 0.12558 -4e-05 0.54118 0.0
C578 C 0.14993 0.90922 0.53811 0.0
C579 C 0.17461 0.01566 0.55974 0.0
H580 H 0.22577 0.93018 0.61986 0.0
H581 H 0.26136 0.94686 0.53509 0.0
H582 H 0.16056 0.96821 0.61026 0.0
H583 H 0.15358 0.93052 0.6031 0.0
H584 H 0.17779 0.94083 0.63213 0.0
H585 H 0.23204 0.95846 0.49541 0.0
H586 H 0.19443 0.94734 0.4981 0.0
H587 H 0.20444 0.98417 0.50608 0.0
H588 H 0.09752 0.93282 0.52639 0.0
H589 H 0.11914 0.02264 0.54186 0.0
H590 H 0.15473 0.90092 0.56012 0.0
H591 H 0.16995 0.90654 0.52488 0.0
H592 H 0.13236 0.89559 0.52846 0.0
H593 H 0.18092 0.01147 0.58256 0.0
H594 H 0.16498 0.03776 0.5585 0.0
H595 H 0.19482 0.0153 0.54656 0.0
C596 C 0.76453 0.47468 0.95671 0.0
C597 C 0.76145 0.45295 0.93539 0.0
C598 C 0.79219 0.48456 0.96529 0.0
C599 C 0.81729 0.47222 0.95238 0.0
C600 C 0.81428 0.45033 0.93079 0.0
C601 C 0.7864 0.44102 0.92253 0.0
C602 C 0.79458 0.5081 0.98821 0.0
C603 C 0.84053 0.43646 0.9167 0.0
C604 C 0.89023 0.51136 0.95454 0.0
C605 C 0.90459 0.49645 0.97677 0.0
C606 C 0.86148 0.50428 0.94692 0.0
C607 C 0.84682 0.48165 0.96176 0.0
C608 C 0.86092 0.46697 0.98464 0.0
C609 C 0.88958 0.4746 0.99192 0.0
C610 C 0.84705 0.52055 0.92253 0.0
C611 C 0.84601 0.44263 0.0009 0.0
H612 H 0.74527 0.48413 0.96651 0.0
H613 H 0.78413 0.42393 0.90634 0.0
H614 H 0.80665 0.49979 0.00723 0.0
H615 H 0.80709 0.5269 0.97962 0.0
H616 H 0.77295 0.51589 0.99563 0.0
H617 H 0.83442 0.41998 0.9 0.0
H618 H 0.85427 0.45339 0.90632 0.0
H619 H 0.85402 0.42573 0.93341 0.0
H620 H 0.90155 0.52838 0.9428 0.0
H621 H 0.90043 0.46295 0.00915 0.0
H622 H 0.82587 0.52945 0.92989 0.0
H623 H 0.84253 0.50538 0.90423 0.0
H624 H 0.86074 0.53876 0.91439 0.0
H625 H 0.82495 0.45024 0.00989 0.0
H626 H 0.8595 0.43428 0.01898 0.0
H627 H 0.84117 0.42433 0.98578 0.0
C628 C 0.72704 0.57275 0.4307 0.0
C629 C 0.75225 0.5606 0.44256 0.0
C630 C 0.69938 0.5646 0.44065 0.0
C631 C 0.69684 0.54369 0.46296 0.0
C632 C 0.7222 0.5314 0.47513 0.0
C633 C 0.74966 0.54009 0.46484 0.0
C634 C 0.67286 0.57837 0.42726 0.0
C635 C 0.72029 0.50891 0.49881 0.0
C636 C 0.62492 0.54308 0.50352 0.0
C637 C 0.60962 0.52101 0.48875 0.0
C638 C 0.65368 0.55011 0.49594 0.0
C639 C 0.66752 0.53461 0.47318 0.0
C640 C 0.65259 0.51164 0.45888 0.0
C641 C 0.62381 0.50517 0.46678 0.0
C642 C 0.66891 0.57481 0.51163 0.0
C643 C 0.66671 0.49449 0.43462 0.0
H644 H 0.72898 0.58896 0.4138 0.0
H645 H 0.76912 0.53052 0.4739 0.0
H646 H 0.65886 0.5613 0.41729 0.0
H647 H 0.65976 0.58941 0.4443 0.0
H648 H 0.67862 0.59455 0.41036 0.0
H649 H 0.74208 0.50173 0.50622 0.0
H650 H 0.70822 0.51787 0.51771 0.0
H651 H 0.70799 0.48958 0.49091 0.0
H652 H 0.6142 0.55541 0.52055 0.0
H653 H 0.61228 0.48793 0.45537 0.0
H654 H 0.67324 0.59283 0.49626 0.0
H655 H 0.69023 0.56748 0.52002 0.0
H656 H 0.65584 0.58345 0.53004 0.0
H657 H 0.67092 0.509 0.4159 0.0
H658 H 0.65294 0.47597 0.42715 0.0
H659 H 0.68802 0.48589 0.44177 0.0
C660 C 0.04973 0.26722 0.05026 0.0
C661 C 0.07058 0.26633 0.07241 0.0
C662 C 0.03984 0.29394 0.03945 0.0
C663 C 0.05099 0.32028 0.05121 0.0
C664 C 0.07158 0.31946 0.07398 0.0
C665 C 0.08113 0.29251 0.08427 0.0
C666 C 0.01793 0.294 0.0151 0.0
C667 C 0.08382 0.34708 0.08726 0.0
C668 C 0.05154 0.39022 0.00797 0.0
C669 C 0.02864 0.40575 0.0209 0.0
C670 C 0.05833 0.36192 0.01689 0.0
C671 C 0.0419 0.34882 0.03933 0.0
C672 C 0.01812 0.36392 0.05177 0.0
C673 C 0.01175 0.3922 0.04238 0.0
C674 C 0.08379 0.34644 0.00301 0.0
C675 C 9e-05 0.35064 0.07575 0.0
H676 H 0.04168 0.24701 0.04091 0.0
H677 H 0.09687 0.29191 0.10174 0.0
H678 H 0.99868 0.3071 0.02139 0.0
H679 H 0.02764 0.30433 0.99563 0.0
H680 H 0.01054 0.27167 0.00914 0.0
H681 H 0.09909 0.34265 0.10534 0.0
H682 H 0.09554 0.35979 0.07047 0.0
H683 H 0.06591 0.36092 0.09561 0.0
H684 H 0.06462 0.40039 0.99123 0.0
H685 H 0.99395 0.40394 0.05245 0.0
H686 H 0.07707 0.32449 0.99528 0.0
H687 H 0.10121 0.34339 0.01932 0.0
H688 H 0.09299 0.35871 0.98441 0.0
H689 H 0.99228 0.32866 0.06923 0.0
H690 H 0.981 0.36425 0.08155 0.0
H691 H 0.01372 0.34797 0.09539 0.0
C692 C 0.55942 0.25054 0.97554 0.0
C693 C 0.58011 0.25336 0.95332 0.0
C694 C 0.55073 0.22295 0.98544 0.0
C695 C 0.5629 0.19766 0.97264 0.0
C696 C 0.58379 0.2004 0.9502 0.0
C697 C 0.59217 0.2282 0.94086 0.0
C698 C 0.52855 0.22087 0.00954 0.0
C699 C 0.5971 0.17394 0.93585 0.0
C700 C 0.56134 0.12526 0.01204 0.0
C701 C 0.53826 0.11078 0.99809 0.0
C702 C 0.56914 0.15383 0.00449 0.0
C703 C 0.5536 0.16822 0.98235 0.0
C704 C 0.52995 0.15397 0.96857 0.0
C705 C 0.52252 0.12548 0.97665 0.0
C706 C 0.59437 0.1684 0.01979 0.0
C707 C 0.51293 0.16857 0.94479 0.0
H708 H 0.55025 0.26994 0.98541 0.0
H709 H 0.60785 0.23026 0.92338 0.0
H710 H 0.50914 0.20861 0.00187 0.0
H711 H 0.53775 0.20865 0.02805 0.0
H712 H 0.52146 0.24263 0.01745 0.0
H713 H 0.61322 0.17983 0.91886 0.0
H714 H 0.60805 0.16033 0.95232 0.0
H715 H 0.57979 0.16036 0.92576 0.0
H716 H 0.57355 0.11418 0.02872 0.0
H717 H 0.50464 0.11454 0.96574 0.0
H718 H 0.58751 0.18968 0.029 0.0
H719 H 0.61209 0.17282 0.00402 0.0
H720 H 0.60322 0.15485 0.03757 0.0
H721 H 0.50432 0.18975 0.95261 0.0
H722 H 0.49445 0.15496 0.93702 0.0
H723 H 0.52749 0.17319 0.92612 0.0
C724 C 0.92108 0.77081 0.46417 0.0
C725 C 0.93634 0.75605 0.44219 0.0
C726 C 0.92887 0.79921 0.47254 0.0
C727 C 0.95266 0.81313 0.45878 0.0
C728 C 0.9686 0.79815 0.43707 0.0
C729 C 0.96019 0.76983 0.42896 0.0
C730 C 0.91134 0.81449 0.4958 0.0
C731 C 0.9942 0.81226 0.42203 0.0
C732 C 0.9547 0.8958 0.45945 0.0
C733 C 0.97411 0.90168 0.48223 0.0
C734 C 0.9476 0.86707 0.45155 0.0
C735 C 0.96039 0.84365 0.46664 0.0
C736 C 0.98021 0.84938 0.48945 0.0
C737 C 0.98675 0.87832 0.49705 0.0
C738 C 0.9262 0.86179 0.42723 0.0
C739 C 0.99444 0.82494 0.50587 0.0
H740 H 0.90294 0.76014 0.47484 0.0
H741 H 0.97187 0.75874 0.41171 0.0
H742 H 0.92575 0.8214 0.51388 0.0
H743 H 0.9014 0.83447 0.48681 0.0
H744 H 0.89375 0.80046 0.50468 0.0
H745 H 0.00513 0.79719 0.40656 0.0
H746 H 0.98684 0.8317 0.40996 0.0
H747 H 0.01038 0.81983 0.43828 0.0
H748 H 0.94476 0.91368 0.44792 0.0
H749 H 0.00188 0.88261 0.51459 0.0
H750 H 0.90717 0.84934 0.43544 0.0
H751 H 0.93644 0.84844 0.40989 0.0
H752 H 0.91832 0.88239 0.41755 0.0
H753 H 0.97758 0.81136 0.51658 0.0
H754 H 0.00981 0.83307 0.52268 0.0
H755 H 0.00647 0.81057 0.49061 0.0
C756 C 0.43451 0.72862 0.59811 0.0
C757 C 0.44428 0.75432 0.58493 0.0
C758 C 0.44381 0.70128 0.58817 0.0
C759 C 0.4634 0.69958 0.56449 0.0
C760 C 0.47371 0.72543 0.55135 0.0
C761 C 0.46396 0.75252 0.56169 0.0
C762 C 0.43217 0.67418 0.60264 0.0
C763 C 0.49475 0.72445 0.52616 0.0
C764 C 0.50293 0.62769 0.55471 0.0
C765 C 0.48561 0.61369 0.53375 0.0
C766 C 0.49647 0.65601 0.56437 0.0
C767 C 0.47208 0.67063 0.55283 0.0
C768 C 0.45501 0.65697 0.53111 0.0
C769 C 0.462 0.62872 0.5218 0.0
C770 C 0.51525 0.66998 0.58748 0.0
C771 C 0.42882 0.67186 0.51828 0.0
H772 H 0.419 0.72987 0.61583 0.0
H773 H 0.47184 0.77235 0.55166 0.0
H774 H 0.41961 0.66096 0.58674 0.0
H775 H 0.45043 0.66053 0.6103 0.0
H776 H 0.41784 0.67929 0.62141 0.0
H777 H 0.50156 0.74655 0.5191 0.0
H778 H 0.51441 0.71196 0.53217 0.0
H779 H 0.48455 0.71299 0.50748 0.0
H780 H 0.52127 0.61634 0.56401 0.0
H781 H 0.4485 0.61819 0.50553 0.0
H782 H 0.50227 0.67332 0.60753 0.0
H783 H 0.52288 0.69173 0.58027 0.0
H784 H 0.5345 0.65652 0.59283 0.0
H785 H 0.4123 0.67567 0.53546 0.0
H786 H 0.41863 0.65881 0.5006 0.0
H787 H 0.43512 0.69344 0.50953 0.0
C788 C 0.92864 0.97034 0.75181 0.0
C789 C 0.95185 0.9637 0.77018 0.0
C790 C 0.93348 0.97632 0.72238 0.0
C791 C 0.96228 0.97629 0.71139 0.0
C792 C 0.98588 0.97069 0.73022 0.0
C793 C 0.98032 0.96402 0.75938 0.0
C794 C 0.90772 0.9816 0.70285 0.0
C795 C 0.01693 0.97119 0.71947 0.0
C796 C 0.97468 0.96155 0.63117 0.0
C797 C 0.97773 0.98982 0.62029 0.0
C798 C 0.96925 0.95687 0.66075 0.0
C799 C 0.96764 0.98103 0.67996 0.0
C800 C 0.97112 0.00961 0.66915 0.0
C801 C 0.97575 0.01368 0.63935 0.0
C802 C 0.965 0.9261 0.6714 0.0
C803 C 0.97026 0.03583 0.68909 0.0
H804 H 0.90661 0.96972 0.76027 0.0
H805 H 0.99819 0.95887 0.77376 0.0
H806 H 0.91013 0.00283 0.69175 0.0
H807 H 0.90679 0.96448 0.68575 0.0
H808 H 0.88679 0.9815 0.71494 0.0
H809 H 0.03285 0.96855 0.73735 0.0
H810 H 0.02027 0.95338 0.70344 0.0
H811 H 0.02156 0.99202 0.70825 0.0
H812 H 0.97601 0.94308 0.61645 0.0
H813 H 0.97838 0.03557 0.63103 0.0
H814 H 0.94358 0.92406 0.68239 0.0
H815 H 0.98193 0.92079 0.6876 0.0
H816 H 0.96604 0.9098 0.6535 0.0
H817 H 0.94886 0.03703 0.70016 0.0
H818 H 0.97404 0.05655 0.67731 0.0
H819 H 0.98707 0.03374 0.70619 0.0
C820 C 0.53613 0.06301 0.26359 0.0
C821 C 0.559 0.05072 0.27941 0.0
C822 C 0.53116 0.0551 0.23459 0.0
C823 C 0.54928 0.03412 0.22115 0.0
C824 C 0.57164 0.02073 0.2373 0.0
C825 C 0.57632 0.02928 0.26624 0.0
C826 C 0.50707 0.06987 0.21808 0.0
C827 C 0.5912 0.99806 0.22375 0.0
C828 C 0.52141 0.0006 0.15092 0.0
C829 C 0.53621 0.01721 0.13005 0.0
C830 C 0.52602 0.00531 0.18068 0.0
C831 C 0.54564 0.02736 0.18978 0.0
C832 C 0.56097 0.0439 0.16886 0.0
C833 C 0.55618 0.03852 0.13926 0.0
C834 C 0.50955 0.98702 0.20238 0.0
C835 C 0.58191 0.06778 0.17776 0.0
H836 H 0.5223 0.07917 0.2738 0.0
H837 H 0.59419 0.01987 0.27821 0.0
H838 H 0.51645 0.08243 0.19979 0.0
H839 H 0.49208 0.05336 0.20864 0.0
H840 H 0.49427 0.08495 0.23201 0.0
H841 H 0.606 0.98807 0.23986 0.0
H842 H 0.578 0.98058 0.21342 0.0
H843 H 0.60459 0.00818 0.20645 0.0
H844 H 0.50609 0.98393 0.14402 0.0
H845 H 0.56768 0.05149 0.12332 0.0
H846 H 0.49486 0.00107 0.21542 0.0
H847 H 0.52493 0.9767 0.21768 0.0
H848 H 0.49632 0.96967 0.19177 0.0
H849 H 0.57012 0.08487 0.19014 0.0
H850 H 0.59272 0.07808 0.15882 0.0
H851 H 0.5989 0.05894 0.19226 0.0
C852 C 0.43173 0.54627 0.27122 0.0
C853 C 0.45325 0.54774 0.24955 0.0
C854 C 0.43871 0.53941 0.29996 0.0
C855 C 0.46812 0.53511 0.30768 0.0
C856 C 0.49005 0.53664 0.28615 0.0
C857 C 0.48231 0.54237 0.25728 0.0
C858 C 0.41457 0.53725 0.32216 0.0
C859 C 0.52175 0.53292 0.29374 0.0
C860 C 0.48399 0.54923 0.38729 0.0
C861 C 0.48613 0.52088 0.39803 0.0
C862 C 0.47945 0.55416 0.35764 0.0
C863 C 0.47584 0.5301 0.33856 0.0
C864 C 0.47806 0.50138 0.34935 0.0
C865 C 0.48373 0.49712 0.37894 0.0
C866 C 0.47819 0.5851 0.34681 0.0
C867 C 0.47331 0.4752 0.32989 0.0
H868 H 0.40931 0.55106 0.26602 0.0
H869 H 0.49917 0.54278 0.24084 0.0
H870 H 0.41621 0.51647 0.3342 0.0
H871 H 0.41664 0.55523 0.33823 0.0
H872 H 0.39266 0.53843 0.31212 0.0
H873 H 0.53619 0.53492 0.27449 0.0
H874 H 0.52828 0.54964 0.31001 0.0
H875 H 0.52529 0.51132 0.30371 0.0
H876 H 0.48614 0.56758 0.40208 0.0
H877 H 0.4852 0.47519 0.38738 0.0
H878 H 0.45593 0.58999 0.33908 0.0
H879 H 0.49319 0.58792 0.32813 0.0
H880 H 0.48408 0.60122 0.36393 0.0
H881 H 0.45082 0.47553 0.32117 0.0
H882 H 0.47658 0.45434 0.3415 0.0
H883 H 0.48835 0.47594 0.31107 0.0
C884 C 0.03359 0.47546 0.74713 0.0
C885 C 0.06252 0.46973 0.739 0.0
C886 C 0.02621 0.48194 0.77604 0.0
C887 C 0.0484 0.48391 0.79721 0.0
C888 C 0.07772 0.47946 0.78904 0.0
C889 C 0.08434 0.47184 0.76028 0.0
C890 C 0.9946 0.4858 0.7841 0.0
C891 C 0.10212 0.48212 0.81083 0.0
C892 C 0.03272 0.52256 0.86871 0.0
C893 C 0.03036 0.49897 0.88768 0.0
C894 C 0.03858 0.51804 0.8391 0.0
C895 C 0.04098 0.48923 0.8282 0.0
C896 C 0.03753 0.46534 0.84721 0.0
C897 C 0.03284 0.47053 0.87686 0.0
C898 C 0.04319 0.54405 0.81972 0.0
C899 C 0.03898 0.43429 0.83627 0.0
H900 H 0.01652 0.47464 0.73098 0.0
H901 H 0.10668 0.46685 0.75478 0.0
H902 H 0.9882 0.4692 0.80034 0.0
H903 H 0.99121 0.50747 0.79428 0.0
H904 H 0.97996 0.48372 0.76504 0.0
H905 H 0.1239 0.48106 0.8004 0.0
H906 H 0.10043 0.50301 0.82297 0.0
H907 H 0.10046 0.46429 0.82686 0.0
H908 H 0.03099 0.54456 0.87723 0.0
H909 H 0.0307 0.45232 0.89159 0.0
H910 H 0.02796 0.54318 0.80111 0.0
H911 H 0.06558 0.54361 0.81067 0.0
H912 H 0.04006 0.56501 0.83148 0.0
H913 H 0.02379 0.43114 0.81781 0.0
H914 H 0.03344 0.41829 0.85342 0.0
H915 H 0.0612 0.42953 0.82817 0.0
C916 C 0.75467 0.96927 0.94905 0.0
C917 C 0.77089 0.94903 0.96483 0.0
C918 C 0.72589 0.97581 0.95679 0.0
C919 C 0.71304 0.96178 0.98092 0.0
C920 C 0.72946 0.94175 0.99729 0.0
C921 C 0.75819 0.93559 0.98903 0.0
C922 C 0.70902 0.99723 0.93875 0.0
C923 C 0.71654 0.9265 0.02327 0.0
C924 C 0.64525 0.99571 0.01384 0.0
C925 C 0.62309 0.97877 0.00118 0.0
C926 C 0.67466 0.99025 0.00769 0.0
C927 C 0.68208 0.96735 0.98839 0.0
C928 C 0.65988 0.94999 0.97577 0.0
C929 C 0.63068 0.95588 0.98233 0.0
C930 C 0.69777 0.00917 0.02161 0.0
C931 C 0.66696 0.92537 0.95506 0.0
H932 H 0.76423 0.97945 0.93012 0.0
H933 H 0.77077 0.9202 0.00152 0.0
H934 H 0.69009 0.98611 0.92859 0.0
H935 H 0.70038 0.01495 0.95274 0.0
H936 H 0.72253 0.00708 0.92133 0.0
H937 H 0.73254 0.91232 0.0343 0.0
H938 H 0.70829 0.94275 0.03915 0.0
H939 H 0.69773 0.91291 0.01637 0.0
H940 H 0.63966 0.01341 0.02846 0.0
H941 H 0.61377 0.94264 0.97244 0.0
H942 H 0.7104 0.02066 0.0046 0.0
H943 H 0.71328 0.99547 0.03381 0.0
H944 H 0.68842 0.02564 0.03669 0.0
H945 H 0.67874 0.93399 0.93588 0.0
H946 H 0.64718 0.91364 0.94744 0.0
H947 H 0.68154 0.90953 0.96573 0.0
C948 C 0.74835 0.04577 0.48648 0.0
C949 C 0.74203 0.06988 0.46909 0.0
C950 C 0.77723 0.03832 0.49284 0.0
C951 C 0.80028 0.05541 0.48156 0.0
C952 C 0.79404 0.07994 0.46426 0.0
C953 C 0.76501 0.08682 0.45819 0.0
C954 C 0.78308 0.01201 0.51139 0.0
C955 C 0.81804 0.09866 0.45178 0.0
C956 C 0.87535 0.05204 0.51566 0.0
C957 C 0.8902 0.03384 0.49609 0.0
C958 C 0.84594 0.05893 0.51144 0.0
C959 C 0.83102 0.04728 0.48713 0.0
C960 C 0.84573 0.02859 0.46753 0.0
C961 C 0.87513 0.02213 0.47221 0.0
C962 C 0.83095 0.079 0.53276 0.0
C963 C 0.83051 0.0157 0.44138 0.0
H964 H 0.73069 0.03278 0.49523 0.0
H965 H 0.76034 0.1052 0.44434 0.0
H966 H 0.79599 0.99585 0.4989 0.0
H967 H 0.79618 0.01843 0.53061 0.0
H968 H 0.76272 0.00135 0.51896 0.0
H969 H 0.80948 0.11752 0.43952 0.0
H970 H 0.83228 0.10696 0.46942 0.0
H971 H 0.8318 0.08542 0.43698 0.0
H972 H 0.88675 0.06118 0.53419 0.0
H973 H 0.88633 0.00795 0.45702 0.0
H974 H 0.81124 0.06826 0.54171 0.0
H975 H 0.82368 0.09897 0.5215 0.0
H976 H 0.84534 0.08549 0.55105 0.0
H977 H 0.81089 0.00339 0.4483 0.0
H978 H 0.8448 0.00084 0.42871 0.0
H979 H 0.82311 0.03338 0.42691 0.0
C980 C 0.25937 0.52481 0.05513 0.0
C981 C 0.27496 0.54876 0.04432 0.0
C982 C 0.23054 0.51945 0.04668 0.0
C983 C 0.21705 0.53832 0.02668 0.0
C984 C 0.23319 0.5615 0.01436 0.0
C985 C 0.26193 0.56652 0.02342 0.0
C986 C 0.21407 0.49448 0.0603 0.0
C987 C 0.21963 0.58192 0.99275 0.0
C988 C 0.14503 0.51396 0.99382 0.0
C989 C 0.12498 0.52873 0.01155 0.0
C990 C 0.17513 0.51723 0.99811 0.0
C991 C 0.18536 0.53543 0.02083 0.0
C992 C 0.16526 0.55051 0.03865 0.0
C993 C 0.13536 0.54709 0.03372 0.0
C994 C 0.19596 0.50106 0.97848 0.0
C995 C 0.17532 0.56998 0.06327 0.0
H996 H 0.26949 0.51065 0.07086 0.0
H997 H 0.27369 0.58521 0.01511 0.0
H998 H 0.19647 0.50318 0.07437 0.0
H999 H 0.20363 0.4808 0.04331 0.0
H1000 H 0.22834 0.48047 0.07366 0.0
H1001 H 0.23599 0.59662 0.98267 0.0
H1002 H 0.20844 0.56942 0.97534 0.0
H1003 H 0.20299 0.59548 0.00382 0.0
H1004 H 0.13723 0.49985 0.97654 0.0
H1005 H 0.12009 0.55854 0.04759 0.0
H1006 H 0.20914 0.4857 0.99141 0.0
H1007 H 0.21131 0.51662 0.96819 0.0
H1008 H 0.18453 0.4886 0.96115 0.0
H1009 H 0.18806 0.55711 0.07904 0.0
H1010 H 0.15688 0.58038 0.07494 0.0
H1011 H 0.18985 0.58734 0.05486 0.0
C1012 C 0.2504 0.48933 0.55232 0.0
C1013 C 0.23673 0.46709 0.53633 0.0
C1014 C 0.27958 0.49676 0.54712 0.0
C1015 C 0.29535 0.48163 0.52537 0.0
C1016 C 0.28113 0.46042 0.50799 0.0
C1017 C 0.25198 0.45336 0.51373 0.0
C1018 C 0.294 0.51952 0.5661 0.0
C1019 C 0.29712 0.44402 0.4844 0.0
C1020 C 0.36927 0.51035 0.50158 0.0
C1021 C 0.38817 0.49293 0.51784 0.0
C1022 C 0.33896 0.50702 0.5038 0.0
C1023 C 0.32731 0.48584 0.52277 0.0
C1024 C 0.34623 0.46828 0.5393 0.0
C1025 C 0.37639 0.47201 0.53661 0.0
C1026 C 0.31941 0.52606 0.48581 0.0
C1027 C 0.33461 0.44547 0.55982 0.0
H1028 H 0.23878 0.49982 0.56998 0.0
H1029 H 0.24132 0.43641 0.50109 0.0
H1030 H 0.30999 0.5089 0.58055 0.0
H1031 H 0.30612 0.53546 0.55266 0.0
H1032 H 0.27804 0.53147 0.57979 0.0
H1033 H 0.28222 0.43052 0.47087 0.0
H1034 H 0.30899 0.45939 0.4701 0.0
H1035 H 0.3135 0.4295 0.49432 0.0
H1036 H 0.37813 0.52657 0.487 0.0
H1037 H 0.39074 0.45847 0.54931 0.0
H1038 H 0.30454 0.53857 0.50015 0.0
H1039 H 0.30565 0.51232 0.47141 0.0
H1040 H 0.33191 0.54164 0.47221 0.0
H1041 H 0.32017 0.45576 0.57621 0.0
H1042 H 0.35225 0.43382 0.57133 0.0
H1043 H 0.32137 0.42924 0.54766 0.0
C1044 C 0.95922 0.76183 0.98328 0.0
C1045 C 0.97615 0.77762 0.96347 0.0
C1046 C 0.96556 0.73267 0.98948 0.0
C1047 C 0.98941 0.71905 0.97552 0.0
C1048 C 0.00746 0.73532 0.95666 0.0
C1049 C 0.0006 0.76444 0.95085 0.0
C1050 C 0.94584 0.71602 0.00977 0.0
C1051 C 0.03322 0.72162 0.94154 0.0
C1052 C 0.01596 0.64627 0.00367 0.0
C1053 C 0.00212 0.62663 0.98464 0.0
C1054 C 0.0121 0.67645 0.00097 0.0
C1055 C 0.994 0.68722 0.97874 0.0
C1056 C 0.98008 0.66756 0.9594 0.0
C1057 C 0.98431 0.63753 0.96258 0.0
C1058 C 0.02729 0.69681 0.02196 0.0
C1059 C 0.96062 0.67824 0.93538 0.0
H1060 H 0.94013 0.77181 0.99288 0.0
H1061 H 0.01398 0.77671 0.93583 0.0
H1062 H 0.93361 0.69922 0.99733 0.0
H1063 H 0.95882 0.70455 0.02638 0.0
H1064 H 0.92997 0.73044 0.02095 0.0
H1065 H 0.04654 0.73789 0.92962 0.0
H1066 H 0.0473 0.71046 0.95747 0.0
H1067 H 0.02546 0.70489 0.92584 0.0
H1068 H 0.02976 0.6381 0.02079 0.0
H1069 H 0.97352 0.62259 0.94776 0.0
H1070 H 0.01099 0.70998 0.03396 0.0
H1071 H 0.04142 0.71223 0.00992 0.0
H1072 H 0.04083 0.68496 0.03791 0.0
H1073 H 0.94236 0.69098 0.94469 0.0
H1074 H 0.95145 0.6601 0.92213 0.0
H1075 H 0.97301 0.69297 0.92086 0.0
C1076 C 0.43998 0.76018 0.04675 0.0
C1077 C 0.45472 0.74526 0.06867 0.0
C1078 C 0.44746 0.78898 0.03977 0.0
C1079 C 0.47035 0.80306 0.05495 0.0
C1080 C 0.4858 0.78783 0.07659 0.0
C1081 C 0.47772 0.75914 0.08326 0.0
C1082 C 0.43036 0.80459 0.01671 0.0
C1083 C 0.51051 0.80202 0.09306 0.0
C1084 C 0.50456 0.87115 0.02275 0.0
C1085 C 0.49087 0.89327 0.03885 0.0
C1086 C 0.49808 0.84167 0.0277 0.0
C1087 C 0.47732 0.83414 0.04914 0.0
C1088 C 0.46332 0.85633 0.06534 0.0
C1089 C 0.47031 0.88559 0.06006 0.0
C1090 C 0.51354 0.81857 0.01011 0.0
C1091 C 0.44096 0.84916 0.0883 0.0
H1092 H 0.42201 0.74962 0.03562 0.0
H1093 H 0.4894 0.74752 0.09996 0.0
H1094 H 0.41886 0.82344 0.02653 0.0
H1095 H 0.44526 0.81329 -0.00013 0.0
H1096 H 0.41405 0.79016 0.00605 0.0
H1097 H 0.52121 0.78673 0.10822 0.0
H1098 H 0.5271 0.81043 0.07769 0.0
H1099 H 0.50226 0.8209 0.10571 0.0
H1100 H 0.52049 0.87682 0.00635 0.0
H1101 H 0.45953 0.90247 0.07256 0.0
H1102 H 0.49744 0.80495 0.99823 0.0
H1103 H 0.52569 0.80391 0.02476 0.0
H1104 H 0.52904 0.82803 0.99418 0.0
H1105 H 0.42291 0.83629 0.0786 0.0
H1106 H 0.43173 0.86899 0.09868 0.0
H1107 H 0.45094 0.83557 0.10539 0.0
C1108 C 0.03625 0.25848 0.54729 0.0
C1109 C 0.05839 0.2644 0.56737 0.0
C1110 C 0.02819 0.22969 0.54057 0.0
C1111 C 0.04243 0.20637 0.55452 0.0
C1112 C 0.06443 0.21228 0.57523 0.0
C1113 C 0.07224 0.24124 0.5813 0.0
C1114 C 0.00484 0.22419 0.51817 0.0
C1115 C 0.07985 0.18802 0.59082 0.0
C1116 C 0.00624 0.1319 0.55609 0.0
C1117 C 0.02183 0.11684 0.53455 0.0
C1118 C 0.01255 0.16114 0.56267 0.0
C1119 C 0.03477 0.17574 0.54714 0.0
C1120 C 0.05027 0.16083 0.52506 0.0
C1121 C 0.04372 0.13152 0.51913 0.0
C1122 C 0.99576 0.17626 0.58656 0.0
C1123 C 0.07395 0.17579 0.50785 0.0
H1124 H 0.02571 0.27637 0.53634 0.0
H1125 H 0.08912 0.24581 0.59709 0.0
H1126 H 0.01396 0.21151 0.49973 0.0
H1127 H 0.98698 0.21099 0.52768 0.0
H1128 H 0.99555 0.24473 0.50967 0.0
H1129 H 0.09585 0.19634 0.60694 0.0
H1130 H 0.06378 0.17403 0.60219 0.0
H1131 H 0.09146 0.17402 0.57491 0.0
H1132 H 0.98935 0.12072 0.56818 0.0
H1133 H 0.05576 0.12013 0.50233 0.0
H1134 H 0.98515 0.19609 0.57804 0.0
H1135 H 0.01088 0.18338 0.60398 0.0
H1136 H 0.97879 0.16199 0.59623 0.0
H1137 H 0.06527 0.19569 0.49752 0.0
H1138 H 0.0832 0.16145 0.49068 0.0
H1139 H 0.09178 0.18275 0.52256 0.0
C1140 C 0.55245 0.25746 0.49176 0.0
C1141 C 0.53626 0.24177 0.47112 0.0
C1142 C 0.54591 0.28661 0.49824 0.0
C1143 C 0.52262 0.30032 0.48373 0.0
C1144 C 0.50526 0.28414 0.46401 0.0
C1145 C 0.51231 0.25504 0.45793 0.0
C1146 C 0.5649 0.30316 0.51944 0.0
C1147 C 0.4801 0.29793 0.44828 0.0
C1148 C 0.49546 0.37326 0.51204 0.0
C1149 C 0.51012 0.39281 0.49375 0.0
C1150 C 0.4992 0.34304 0.50903 0.0
C1151 C 0.51804 0.33217 0.48723 0.0
C1152 C 0.53276 0.35174 0.46863 0.0
C1153 C 0.52862 0.38179 0.4721 0.0
C1154 C 0.48313 0.32278 0.52922 0.0
C1155 C 0.55303 0.34095 0.44509 0.0
H1156 H 0.57115 0.24741 0.50183 0.0
H1157 H 0.49949 0.24284 0.44227 0.0
H1158 H 0.57765 0.31994 0.50767 0.0
H1159 H 0.55133 0.31466 0.53577 0.0
H1160 H 0.58029 0.28867 0.53093 0.0
H1161 H 0.46715 0.28171 0.43574 0.0
H1162 H 0.46551 0.30916 0.46391 0.0
H1163 H 0.48847 0.31462 0.43305 0.0
H1164 H 0.48112 0.38153 0.52884 0.0
H1165 H 0.54005 0.39665 0.45784 0.0
H1166 H 0.4989 0.30956 0.54161 0.0
H1167 H 0.46943 0.30739 0.5165 0.0
H1168 H 0.46902 0.3347 0.54483 0.0
H1169 H 0.57089 0.32812 0.45482 0.0
H1170 H 0.56275 0.35904 0.43238 0.0
H1171 H 0.5411 0.32627 0.42999 0.0
loop_
_geom_bond_atom_site_label_1
_geom_bond_atom_site_label_2
_geom_bond_distance
_geom_bond_site_symmetry_2
_ccdc_geom_bond_type
C0 C1 1.386 . S
C0 C2 1.397 . S
C0 H24 0.931 . S
C1 C0 1.386 . S
C1 C5 1.397 . S
C2 C0 1.397 . S
C2 C3 1.384 . S
C2 H25 0.930 . S
C3 C2 1.384 . S
C3 C4 1.377 . S
C3 C6 1.481 . S
C4 C3 1.377 . S
C4 C5 1.389 . S
C4 H26 0.929 . S
C5 C1 1.397 . S
C5 C4 1.389 . S
C5 H27 0.931 . S
C6 C3 1.481 . S
C6 C7 1.387 . S
C6 C11 1.390 . S
C7 C6 1.387 . S
C7 C8 1.401 . S
C7 H28 0.930 . S
C8 C7 1.401 . S
C8 C9 1.376 . S
C8 C17 1.511 . S
C9 C8 1.376 . S
C9 C10 1.392 . S
C9 H30 0.931 . S
C10 C9 1.392 . S
C10 C11 1.361 . S
C10 C12 1.500 . S
C11 C6 1.390 . S
C11 C10 1.361 . S
C11 H29 0.931 . S
C12 C10 1.500 . S
C12 C13 1.371 . S
C12 C14 1.365 . S
C13 C12 1.371 . S
C13 C23 1.386 . S
C13 H31 0.931 . S
C14 C12 1.365 . S
C14 C15 1.409 . S
C14 H32 0.929 . S
C15 C14 1.409 . S
C15 C16 1.380 . S
C15 H33 0.930 . S
C16 C15 1.380 . S
C16 C23 1.357 . S
C17 C8 1.511 . S
C17 C18 1.341 . S
C17 C19 1.371 . S
C18 C17 1.341 . S
C18 C22 1.394 . S
C18 H34 0.930 . S
C19 C17 1.371 . S
C19 C20 1.392 . S
C19 H35 0.931 . S
C20 C19 1.392 . S
C20 C21 1.331 . S
C20 H38 0.932 . S
C21 C20 1.331 . S
C21 C22 1.336 . S
C22 C18 1.394 . S
C22 C21 1.336 . S
C22 H37 0.929 . S
C23 C13 1.386 . S
C23 C16 1.357 . S
C23 H36 0.928 . S
H24 C0 0.931 . S
H25 C2 0.930 . S
H26 C4 0.929 . S
H27 C5 0.931 . S
H28 C7 0.930 . S
H29 C11 0.931 . S
H30 C9 0.931 . S
H31 C13 0.931 . S
H32 C14 0.929 . S
H33 C15 0.930 . S
H34 C18 0.930 . S
H35 C19 0.931 . S
H36 C23 0.928 . S
H37 C22 0.929 . S
H38 C20 0.932 . S
C39 C40 1.386 . S
C39 C41 1.397 . S
C39 H63 0.931 . S
C40 C39 1.386 . S
C40 C44 1.397 . S
C41 C39 1.397 . S
C41 C42 1.384 . S
C41 H64 0.930 . S
C42 C41 1.384 . S
C42 C43 1.377 . S
C42 C45 1.481 . S
C43 C42 1.377 . S
C43 C44 1.389 . S
C43 H65 0.929 . S
C44 C40 1.397 . S
C44 C43 1.389 . S
C44 H66 0.931 . S
C45 C42 1.481 . S
C45 C46 1.387 . S
C45 C50 1.390 . S
C46 C45 1.387 . S
C46 C47 1.401 . S
C46 H67 0.930 . S
C47 C46 1.401 . S
C47 C48 1.376 . S
C47 C56 1.511 . S
C48 C47 1.376 . S
C48 C49 1.392 . S
C48 H69 0.931 . S
C49 C48 1.392 . S
C49 C50 1.361 . S
C49 C51 1.500 . S
C50 C45 1.390 . S
C50 C49 1.361 . S
C50 H68 0.931 . S
C51 C49 1.500 . S
C51 C52 1.371 . S
C51 C53 1.365 . S
C52 C51 1.371 . S
C52 C62 1.386 . S
C52 H70 0.931 . S
C53 C51 1.365 . S
C53 C54 1.409 . S
C53 H71 0.929 . S
C54 C53 1.409 . S
C54 C55 1.380 . S
C54 H72 0.930 . S
C55 C54 1.380 . S
C55 C62 1.357 . S
C56 C47 1.511 . S
C56 C57 1.341 . S
C56 C58 1.371 . S
C57 C56 1.341 . S
C57 C61 1.394 . S
C57 H73 0.930 . S
C58 C56 1.371 . S
C58 C59 1.392 . S
C58 H74 0.931 . S
C59 C58 1.392 . S
C59 C60 1.331 . S
C59 H77 0.932 . S
C60 C59 1.331 . S
C60 C61 1.336 . S
C61 C57 1.394 . S
C61 C60 1.336 . S
C61 H76 0.929 . S
C62 C52 1.386 . S
C62 C55 1.357 . S
C62 H75 0.928 . S
H63 C39 0.931 . S
H64 C41 0.930 . S
H65 C43 0.929 . S
H66 C44 0.931 . S
H67 C46 0.930 . S
H68 C50 0.931 . S
H69 C48 0.931 . S
H70 C52 0.931 . S
H71 C53 0.929 . S
H72 C54 0.930 . S
H73 C57 0.930 . S
H74 C58 0.931 . S
H75 C62 0.928 . S
H76 C61 0.929 . S
H77 C59 0.932 . S
C78 C79 1.386 . S
C78 C80 1.397 . S
C78 H102 0.931 . S
C79 C78 1.386 . S
C79 C83 1.397 . S
C80 C78 1.397 . S
C80 C81 1.384 . S
C80 H103 0.930 . S
C81 C80 1.384 . S
C81 C82 1.377 . S
C81 C84 1.481 . S
C82 C81 1.377 . S
C82 C83 1.389 . S
C82 H104 0.929 . S
C83 C79 1.397 . S
C83 C82 1.389 . S
C83 H105 0.931 . S
C84 C81 1.481 . S
C84 C85 1.387 . S
C84 C89 1.390 . S
C85 C84 1.387 . S
C85 C86 1.401 . S
C85 H106 0.930 . S
C86 C85 1.401 . S
C86 C87 1.376 . S
C86 C95 1.511 . S
C87 C86 1.376 . S
C87 C88 1.392 . S
C87 H108 0.931 . S
C88 C87 1.392 . S
C88 C89 1.361 . S
C88 C90 1.500 . S
C89 C84 1.390 . S
C89 C88 1.361 . S
C89 H107 0.931 . S
C90 C88 1.500 . S
C90 C91 1.371 . S
C90 C92 1.365 . S
C91 C90 1.371 . S
C91 C101 1.386 . S
C91 H109 0.931 . S
C92 C90 1.365 . S
C92 C93 1.409 . S
C92 H110 0.929 . S
C93 C92 1.409 . S
C93 C94 1.380 . S
C93 H111 0.930 . S
C94 C93 1.380 . S
C94 C101 1.357 . S
C95 C86 1.511 . S
C95 C96 1.341 . S
C95 C97 1.371 . S
C96 C95 1.341 . S
C96 C100 1.394 . S
C96 H112 0.930 . S
C97 C95 1.371 . S
C97 C98 1.392 . S
C97 H113 0.931 . S
C98 C97 1.392 . S
C98 C99 1.331 . S
C98 H116 0.932 . S
C99 C98 1.331 . S
C99 C100 1.336 . S
C100 C96 1.394 . S
C100 C99 1.336 . S
C100 H115 0.929 . S
C101 C91 1.386 . S
C101 C94 1.357 . S
C101 H114 0.928 . S
H102 C78 0.931 . S
H103 C80 0.930 . S
H104 C82 0.929 . S
H105 C83 0.931 . S
H106 C85 0.930 . S
H107 C89 0.931 . S
H108 C87 0.931 . S
H109 C91 0.931 . S
H110 C92 0.929 . S
H111 C93 0.930 . S
H112 C96 0.930 . S
H113 C97 0.931 . S
H114 C101 0.928 . S
H115 C100 0.929 . S
H116 C98 0.932 . S
C117 C118 1.386 . S
C117 C119 1.397 . S
C117 H141 0.931 . S
C118 C117 1.386 . S
C118 C122 1.397 . S
C119 C117 1.397 . S
C119 C120 1.384 . S
C119 H142 0.930 . S
C120 C119 1.384 . S
C120 C121 1.377 . S
C120 C123 1.481 . S
C121 C120 1.377 . S
C121 C122 1.389 . S
C121 H143 0.929 . S
C122 C118 1.397 . S
C122 C121 1.389 . S
C122 H144 0.931 . S
C123 C120 1.481 . S
C123 C124 1.387 . S
C123 C128 1.390 . S
C124 C123 1.387 . S
C124 C125 1.401 . S
C124 H145 0.930 . S
C125 C124 1.401 . S
C125 C126 1.376 . S
C125 C134 1.511 . S
C126 C125 1.376 . S
C126 C127 1.392 . S
C126 H147 0.931 . S
C127 C126 1.392 . S
C127 C128 1.361 . S
C127 C129 1.500 . S
C128 C123 1.390 . S
C128 C127 1.361 . S
C128 H146 0.931 . S
C129 C127 1.500 . S
C129 C130 1.371 . S
C129 C131 1.365 . S
C130 C129 1.371 . S
C130 C140 1.386 . S
C130 H148 0.931 . S
C131 C129 1.365 . S
C131 C132 1.409 . S
C131 H149 0.929 . S
C132 C131 1.409 . S
C132 C133 1.380 . S
C132 H150 0.930 . S
C133 C132 1.380 . S
C133 C140 1.357 . S
C134 C125 1.511 . S
C134 C135 1.341 . S
C134 C136 1.371 . S
C135 C134 1.341 . S
C135 C139 1.394 . S
C135 H151 0.930 . S
C136 C134 1.371 . S
C136 C137 1.392 . S
C136 H152 0.931 . S
C137 C136 1.392 . S
C137 C138 1.331 . S
C137 H155 0.932 . S
C138 C137 1.331 . S
C138 C139 1.336 . S
C139 C135 1.394 . S
C139 C138 1.336 . S
C139 H154 0.929 . S
C140 C130 1.386 . S
C140 C133 1.357 . S
C140 H153 0.928 . S
H141 C117 0.931 . S
H142 C119 0.930 . S
H143 C121 0.929 . S
H144 C122 0.931 . S
H145 C124 0.930 . S
H146 C128 0.931 . S
H147 C126 0.931 . S
H148 C130 0.931 . S
H149 C131 0.929 . S
H150 C132 0.930 . S
H151 C135 0.930 . S
H152 C136 0.931 . S
H153 C140 0.928 . S
H154 C139 0.929 . S
H155 C137 0.932 . S
C156 C157 1.386 . S
C156 C158 1.397 . S
C156 H180 0.931 . S
C157 C156 1.386 . S
C157 C161 1.397 . S
C158 C156 1.397 . S
C158 C159 1.384 . S
C158 H181 0.930 . S
C159 C158 1.384 . S
C159 C160 1.377 . S
C159 C162 1.481 . S
C160 C159 1.377 . S
C160 C161 1.389 . S
C160 H182 0.929 . S
C161 C157 1.397 . S
C161 C160 1.389 . S
C161 H183 0.931 1_565 S
C162 C159 1.481 . S
C162 C163 1.387 . S
C162 C167 1.390 . S
C163 C162 1.387 . S
C163 C164 1.401 . S
C163 H184 0.930 . S
C164 C163 1.401 . S
C164 C165 1.376 . S
C164 C173 1.511 . S
C165 C164 1.376 . S
C165 C166 1.392 . S
C165 H186 0.931 . S
C166 C165 1.392 . S
C166 C167 1.361 . S
C166 C168 1.500 . S
C167 C162 1.390 . S
C167 C166 1.361 . S
C167 H185 0.931 . S
C168 C166 1.500 . S
C168 C169 1.371 . S
C168 C170 1.365 . S
C169 C168 1.371 . S
C169 C179 1.386 . S
C169 H187 0.931 . S
C170 C168 1.365 . S
C170 C171 1.409 . S
C170 H188 0.929 . S
C171 C170 1.409 . S
C171 C172 1.380 . S
C171 H189 0.930 1_565 S
C172 C171 1.380 . S
C172 C179 1.357 . S
C173 C164 1.511 . S
C173 C174 1.341 . S
C173 C175 1.371 . S
C174 C173 1.341 . S
C174 C178 1.394 . S
C174 H190 0.930 . S
C175 C173 1.371 . S
C175 C176 1.392 . S
C175 H191 0.931 . S
C176 C175 1.392 . S
C176 C177 1.331 . S
C176 H194 0.932 . S
C177 C176 1.331 . S
C177 C178 1.336 . S
C178 C174 1.394 . S
C178 C177 1.336 . S
C178 H193 0.929 . S
C179 C169 1.386 . S
C179 C172 1.357 . S
C179 H192 0.928 . S
H180 C156 0.931 . S
H181 C158 0.930 . S
H182 C160 0.929 . S
H183 C161 0.931 1_545 S
H184 C163 0.930 . S
H185 C167 0.931 . S
H186 C165 0.931 . S
H187 C169 0.931 . S
H188 C170 0.929 . S
H189 C171 0.930 1_545 S
H190 C174 0.930 . S
H191 C175 0.931 . S
H192 C179 0.928 . S
H193 C178 0.929 . S
H194 C176 0.932 . S
C195 C196 1.386 . S
C195 C197 1.397 . S
C195 H219 0.931 . S
C196 C195 1.386 . S
C196 C200 1.397 . S
C197 C195 1.397 . S
C197 C198 1.384 . S
C197 H220 0.930 . S
C198 C197 1.384 . S
C198 C199 1.377 . S
C198 C201 1.481 . S
C199 C198 1.377 . S
C199 C200 1.389 . S
C199 H221 0.929 . S
C200 C196 1.397 . S
C200 C199 1.389 . S
C200 H222 0.931 . S
C201 C198 1.481 . S
C201 C202 1.387 . S
C201 C206 1.390 . S
C202 C201 1.387 . S
C202 C203 1.401 . S
C202 H223 0.930 . S
C203 C202 1.401 . S
C203 C204 1.376 . S
C203 C212 1.511 . S
C204 C203 1.376 . S
C204 C205 1.392 . S
C204 H225 0.931 . S
C205 C204 1.392 . S
C205 C206 1.361 . S
C205 C207 1.500 . S
C206 C201 1.390 . S
C206 C205 1.361 . S
C206 H224 0.931 . S
C207 C205 1.500 . S
C207 C208 1.371 . S
C207 C209 1.365 . S
C208 C207 1.371 . S
C208 C218 1.386 . S
C208 H226 0.931 . S
C209 C207 1.365 . S
C209 C210 1.409 . S
C209 H227 0.929 . S
C210 C209 1.409 . S
C210 C211 1.380 . S
C210 H228 0.930 . S
C211 C210 1.380 . S
C211 C218 1.357 . S
C212 C203 1.511 . S
C212 C213 1.341 . S
C212 C214 1.371 . S
C213 C212 1.341 . S
C213 C217 1.394 . S
C213 H229 0.930 . S
C214 C212 1.371 . S
C214 C215 1.392 . S
C214 H230 0.931 . S
C215 C214 1.392 . S
C215 C216 1.331 . S
C215 H233 0.932 . S
C216 C215 1.331 . S
C216 C217 1.336 . S
C217 C213 1.394 . S
C217 C216 1.336 . S
C217 H232 0.929 . S
C218 C208 1.386 . S
C218 C211 1.357 . S
C218 H231 0.928 . S
H219 C195 0.931 . S
H220 C197 0.930 . S
H221 C199 0.929 . S
H222 C200 0.931 . S
H223 C202 0.930 . S
H224 C206 0.931 . S
H225 C204 0.931 . S
H226 C208 0.931 . S
H227 C209 0.929 . S
H228 C210 0.930 . S
H229 C213 0.930 . S
H230 C214 0.931 . S
H231 C218 0.928 . S
H232 C217 0.929 . S
H233 C215 0.932 . S
C234 C235 1.386 . S
C234 C236 1.397 . S
C234 H258 0.931 . S
C235 C234 1.386 . S
C235 C239 1.397 . S
C236 C234 1.397 . S
C236 C237 1.384 . S
C236 H259 0.930 . S
C237 C236 1.384 . S
C237 C238 1.377 . S
C237 C240 1.481 . S
C238 C237 1.377 . S
C238 C239 1.389 . S
C238 H260 0.929 . S
C239 C235 1.397 . S
C239 C238 1.389 . S
C239 H261 0.931 . S
C240 C237 1.481 . S
C240 C241 1.387 . S
C240 C245 1.390 . S
C241 C240 1.387 . S
C241 C242 1.401 . S
C241 H262 0.930 . S
C242 C241 1.401 . S
C242 C243 1.376 . S
C242 C251 1.511 . S
C243 C242 1.376 . S
C243 C244 1.392 . S
C243 H264 0.931 . S
C244 C243 1.392 . S
C244 C245 1.361 . S
C244 C246 1.500 . S
C245 C240 1.390 . S
C245 C244 1.361 . S
C245 H263 0.931 . S
C246 C244 1.500 . S
C246 C247 1.371 . S
C246 C248 1.365 . S
C247 C246 1.371 . S
C247 C257 1.386 . S
C247 H265 0.931 . S
C248 C246 1.365 . S
C248 C249 1.409 . S
C248 H266 0.929 . S
C249 C248 1.409 . S
C249 C250 1.380 . S
C249 H267 0.930 . S
C250 C249 1.380 . S
C250 C257 1.357 . S
C251 C242 1.511 . S
C251 C252 1.341 . S
C251 C253 1.371 . S
C252 C251 1.341 . S
C252 C256 1.394 . S
C252 H268 0.930 . S
C253 C251 1.371 . S
C253 C254 1.392 . S
C253 H269 0.931 . S
C254 C253 1.392 . S
C254 C255 1.331 . S
C254 H272 0.932 . S
C255 C254 1.331 . S
C255 C256 1.336 . S
C256 C252 1.394 . S
C256 C255 1.336 . S
C256 H271 0.929 . S
C257 C247 1.386 . S
C257 C250 1.357 . S
C257 H270 0.928 . S
H258 C234 0.931 . S
H259 C236 0.930 . S
H260 C238 0.929 . S
H261 C239 0.931 . S
H262 C241 0.930 . S
H263 C245 0.931 . S
H264 C243 0.931 . S
H265 C247 0.931 . S
H266 C248 0.929 . S
H267 C249 0.930 . S
H268 C252 0.930 . S
H269 C253 0.931 . S
H270 C257 0.928 . S
H271 C256 0.929 . S
H272 C254 0.932 . S
C273 C274 1.386 . S
C273 C275 1.397 . S
C273 H297 0.931 . S
C274 C273 1.386 . S
C274 C278 1.397 . S
C275 C273 1.397 . S
C275 C276 1.384 . S
C275 H298 0.930 . S
C276 C275 1.384 . S
C276 C277 1.377 . S
C276 C279 1.481 . S
C277 C276 1.377 . S
C277 C278 1.389 . S
C277 H299 0.929 . S
C278 C274 1.397 . S
C278 C277 1.389 . S
C278 H300 0.931 . S
C279 C276 1.481 . S
C279 C280 1.387 . S
C279 C284 1.390 . S
C280 C279 1.387 . S
C280 C281 1.401 . S
C280 H301 0.930 . S
C281 C280 1.401 . S
C281 C282 1.376 . S
C281 C290 1.511 . S
C282 C281 1.376 . S
C282 C283 1.392 . S
C282 H303 0.931 . S
C283 C282 1.392 . S
C283 C284 1.361 . S
C283 C285 1.500 . S
C284 C279 1.390 . S
C284 C283 1.361 . S
C284 H302 0.931 . S
C285 C283 1.500 . S
C285 C286 1.371 . S
C285 C287 1.365 . S
C286 C285 1.371 . S
C286 C296 1.386 . S
C286 H304 0.931 . S
C287 C285 1.365 . S
C287 C288 1.409 . S
C287 H305 0.929 . S
C288 C287 1.409 . S
C288 C289 1.380 . S
C288 H306 0.930 . S
C289 C288 1.380 . S
C289 C296 1.357 . S
C290 C281 1.511 . S
C290 C291 1.341 . S
C290 C292 1.371 . S
C291 C290 1.341 . S
C291 C295 1.394 . S
C291 H307 0.930 . S
C292 C290 1.371 . S
C292 C293 1.392 . S
C292 H308 0.931 . S
C293 C292 1.392 . S
C293 C294 1.331 . S
C293 H311 0.932 . S
C294 C293 1.331 . S
C294 C295 1.336 . S
C295 C291 1.394 . S
C295 C294 1.336 . S
C295 H310 0.929 . S
C296 C286 1.386 . S
C296 C289 1.357 . S
C296 H309 0.928 . S
H297 C273 0.931 . S
H298 C275 0.930 . S
H299 C277 0.929 . S
H300 C278 0.931 . S
H301 C280 0.930 . S
H302 C284 0.931 . S
H303 C282 0.931 . S
H304 C286 0.931 . S
H305 C287 0.929 . S
H306 C288 0.930 . S
H307 C291 0.930 . S
H308 C292 0.931 . S
H309 C296 0.928 . S
H310 C295 0.929 . S
H311 C293 0.932 . S
O312 Zn313 1.953 . S
O312 C328 1.225 1_655 S
Zn313 O312 1.953 . S
Zn313 O314 1.949 1_655 S
Zn313 O320 1.919 . S
Zn313 O325 1.924 . S
O314 Zn313 1.949 1_455 S
O314 Zn315 1.923 1_445 S
O314 Zn316 1.950 . S
O314 Zn317 1.945 1_545 S
Zn315 O314 1.923 1_665 S
Zn315 O318 1.933 . S
Zn315 O321 1.941 1_565 S
Zn315 O322 1.965 1_665 S
Zn316 O314 1.950 . S
Zn316 O323 1.938 . S
Zn316 O324 1.930 . S
Zn316 O334 1.953 . S
Zn317 O314 1.945 1_565 S
Zn317 O319 1.932 1_455 S
Zn317 O326 1.977 . S
Zn317 O327 1.910 1_455 S
O318 Zn315 1.933 . S
O318 C329 1.226 . S
O319 Zn317 1.932 1_655 S
O319 C329 1.307 . S
O320 Zn313 1.919 . S
O320 C331 1.253 . S
O321 Zn315 1.941 1_545 S
O321 C331 1.283 . S
O322 Zn315 1.965 1_445 S
O322 C330 1.303 . S
O323 Zn316 1.938 . S
O323 C330 1.247 . S
O324 Zn316 1.930 . S
O324 C332 1.270 1_545 S
O325 Zn313 1.924 . S
O325 C333 1.330 . S
O326 Zn317 1.977 . S
O326 C332 1.272 . S
O327 Zn317 1.910 1_655 S
O327 C333 1.211 1_565 S
C328 O312 1.225 1_455 S
C328 O334 1.298 . S
C329 O318 1.226 . S
C329 O319 1.307 . S
C330 O322 1.303 . S
C330 O323 1.247 . S
C331 O320 1.253 . S
C331 O321 1.283 . S
C332 O324 1.270 1_565 S
C332 O326 1.272 . S
C333 O325 1.330 . S
C333 O327 1.211 1_545 S
O334 Zn316 1.953 . S
O334 C328 1.298 . S
O335 Zn336 1.953 . S
O335 C351 1.225 . S
Zn336 O335 1.953 . S
Zn336 O337 1.949 1_556 S
Zn336 O343 1.919 . S
Zn336 O348 1.924 1_556 S
O337 Zn336 1.949 1_554 S
O337 Zn338 1.923 1_545 S
O337 Zn339 1.950 . S
O337 Zn340 1.938 1_545 S
Zn338 O337 1.923 1_565 S
Zn338 O341 1.933 . S
Zn338 O344 1.941 1_554 S
Zn338 O345 1.965 1_554 S
Zn339 O337 1.950 . S
Zn339 O346 1.938 . S
Zn339 O347 1.906 . S
Zn339 O357 1.953 . S
Zn340 O337 1.938 1_565 S
Zn340 O342 1.964 . S
Zn340 O349 1.968 1_565 S
Zn340 O350 1.893 1_565 S
O341 Zn338 1.933 . S
O341 C352 1.226 . S
O342 Zn340 1.964 . S
O342 C352 1.307 . S
O343 Zn336 1.919 . S
O343 C354 1.253 1_545 S
O344 Zn338 1.941 1_556 S
O344 C354 1.283 . S
O345 Zn338 1.965 1_556 S
O345 C353 1.303 . S
O346 Zn339 1.938 . S
O346 C353 1.247 1_544 S
O347 Zn339 1.906 . S
O347 C355 1.304 . S
O348 Zn336 1.924 1_554 S
O348 C356 1.311 . S
O349 Zn340 1.968 1_545 S
O349 C355 1.272 . S
O350 Zn340 1.893 1_545 S
O350 C356 1.231 . S
C351 O335 1.225 . S
C351 O357 1.298 1_556 S
C352 O341 1.226 . S
C352 O342 1.307 . S
C353 O345 1.303 . S
C353 O346 1.247 1_566 S
C354 O343 1.253 1_565 S
C354 O344 1.283 . S
C355 O347 1.304 . S
C355 O349 1.272 . S
C356 O348 1.311 . S
C356 O350 1.231 . S
O357 Zn339 1.953 . S
O357 C351 1.298 1_554 S
O358 Zn359 1.953 . S
O358 C374 1.225 . S
Zn359 O358 1.953 . S
Zn359 O360 1.949 . S
Zn359 O366 1.919 . S
Zn359 O371 1.924 . S
O360 Zn359 1.949 . S
O360 Zn361 1.923 . S
O360 Zn362 1.950 . S
O360 Zn363 1.945 . S
Zn361 O360 1.923 . S
Zn361 O364 1.933 . S
Zn361 O367 1.941 . S
Zn361 O368 1.965 . S
Zn362 O360 1.950 . S
Zn362 O369 1.938 . S
Zn362 O370 1.906 . S
Zn362 O380 1.953 . S
Zn363 O360 1.945 . S
Zn363 O365 1.932 . S
Zn363 O372 1.977 . S
Zn363 O373 1.910 . S
O364 Zn361 1.933 . S
O364 C375 1.226 . S
O365 Zn363 1.932 . S
O365 C375 1.307 . S
O366 Zn359 1.919 . S
O366 C377 1.253 . S
O367 Zn361 1.941 . S
O367 C377 1.283 . S
O368 Zn361 1.965 . S
O368 C376 1.303 . S
O369 Zn362 1.938 . S
O369 C376 1.247 . S
O370 Zn362 1.906 . S
O370 C378 1.304 . S
O371 Zn359 1.924 . S
O371 C379 1.311 . S
O372 Zn363 1.977 . S
O372 C378 1.272 . S
O373 Zn363 1.910 . S
O373 C379 1.231 . S
C374 O358 1.225 . S
C374 O380 1.298 . S
C375 O364 1.226 . S
C375 O365 1.307 . S
C376 O368 1.303 . S
C376 O369 1.247 . S
C377 O366 1.253 . S
C377 O367 1.283 . S
C378 O370 1.304 . S
C378 O372 1.272 . S
C379 O371 1.311 . S
C379 O373 1.231 . S
O380 Zn362 1.953 . S
O380 C374 1.298 . S
O381 Zn382 1.953 . S
O381 C397 1.225 . S
Zn382 O381 1.953 . S
Zn382 O383 1.949 1_655 S
Zn382 O389 1.919 . S
Zn382 O394 1.924 . S
O383 Zn382 1.949 1_455 S
O383 Zn384 1.923 1_454 S
O383 Zn385 1.950 . S
O383 Zn386 1.945 1_554 S
Zn384 O383 1.923 1_656 S
Zn384 O387 1.933 1_655 S
Zn384 O390 1.941 . S
Zn384 O391 1.965 . S
Zn385 O383 1.950 . S
Zn385 O392 1.938 . S
Zn385 O393 1.906 . S
Zn385 O403 1.953 . S
Zn386 O383 1.945 1_556 S
Zn386 O388 1.932 . S
Zn386 O395 1.977 1_556 S
Zn386 O396 1.910 1_556 S
O387 Zn384 1.933 1_455 S
O387 C398 1.226 . S
O388 Zn386 1.932 . S
O388 C398 1.307 . S
O389 Zn382 1.919 . S
O389 C400 1.253 1_554 S
O390 Zn384 1.941 . S
O390 C400 1.283 . S
O391 Zn384 1.965 . S
O391 C399 1.303 . S
O392 Zn385 1.938 . S
O392 C399 1.247 1_454 S
O393 Zn385 1.906 . S
O393 C401 1.304 . S
O394 Zn382 1.924 . S
O394 C402 1.311 1_655 S
O395 Zn386 1.977 1_554 S
O395 C401 1.272 . S
O396 Zn386 1.910 1_554 S
O396 C402 1.231 . S
C397 O381 1.225 . S
C397 O403 1.298 1_655 S
C398 O387 1.226 . S
C398 O388 1.307 . S
C399 O391 1.303 . S
C399 O392 1.247 1_656 S
C400 O389 1.253 1_556 S
C400 O390 1.283 . S
C401 O393 1.304 . S
C401 O395 1.272 . S
C402 O394 1.311 1_455 S
C402 O396 1.231 . S
O403 Zn385 1.953 . S
O403 C397 1.298 1_455 S
C404 C405 1.391 . S
C404 C406 1.394 . S
C404 H420 0.931 . S
C405 C404 1.391 . S
C405 C409 1.376 . S
C406 C404 1.394 . S
C406 C407 1.369 . S
C406 C410 1.531 . S
C407 C406 1.369 . S
C407 C408 1.410 . S
C407 C415 1.503 . S
C408 C407 1.410 . S
C408 C409 1.392 . S
C408 C411 1.511 . S
C409 C405 1.376 . S
C409 C408 1.392 . S
C409 H421 0.929 . S
C410 C406 1.531 . S
C410 H422 0.960 . S
C410 H423 0.962 . S
C410 H424 0.960 . S
C411 C408 1.511 . S
C411 H425 0.961 . S
C411 H426 0.961 . S
C411 H427 0.961 1_455 S
C412 C413 1.370 . S
C412 C414 1.363 . S
C412 H428 0.931 . S
C413 C412 1.370 . S
C413 C417 1.408 . S
C414 C412 1.363 . S
C414 C415 1.370 . S
C414 C418 1.524 . S
C415 C407 1.503 . S
C415 C414 1.370 . S
C415 C416 1.403 . S
C416 C415 1.403 . S
C416 C417 1.404 . S
C416 C419 1.539 . S
C417 C413 1.408 . S
C417 C416 1.404 . S
C417 H429 0.930 . S
C418 C414 1.524 . S
C418 H430 0.956 . S
C418 H431 0.961 . S
C418 H432 0.961 . S
C419 C416 1.539 . S
C419 H433 0.958 . S
C419 H434 0.961 . S
C419 H435 0.960 . S
H420 C404 0.931 . S
H421 C409 0.929 . S
H422 C410 0.960 . S
H423 C410 0.962 . S
H424 C410 0.960 . S
H425 C411 0.961 . S
H426 C411 0.961 . S
H427 C411 0.961 1_655 S
H428 C412 0.931 . S
H429 C417 0.930 . S
H430 C418 0.956 . S
H431 C418 0.961 . S
H432 C418 0.961 . S
H433 C419 0.958 . S
H434 C419 0.961 . S
H435 C419 0.960 . S
C436 C437 1.391 . S
C436 C438 1.394 . S
C436 H452 0.931 . S
C437 C436 1.391 . S
C437 C441 1.376 . S
C438 C436 1.394 . S
C438 C439 1.369 . S
C438 C442 1.531 . S
C439 C438 1.369 . S
C439 C440 1.410 . S
C439 C447 1.503 . S
C440 C439 1.410 . S
C440 C441 1.392 . S
C440 C443 1.511 . S
C441 C437 1.376 . S
C441 C440 1.392 . S
C441 H453 0.929 . S
C442 C438 1.531 . S
C442 H454 0.960 . S
C442 H455 0.962 . S
C442 H456 0.960 . S
C443 C440 1.511 . S
C443 H457 0.961 . S
C443 H458 0.961 . S
C443 H459 0.961 . S
C444 C445 1.370 . S
C444 C446 1.363 . S
C444 H460 0.931 . S
C445 C444 1.370 . S
C445 C449 1.408 . S
C446 C444 1.363 . S
C446 C447 1.370 . S
C446 C450 1.524 . S
C447 C439 1.503 . S
C447 C446 1.370 . S
C447 C448 1.403 . S
C448 C447 1.403 . S
C448 C449 1.404 . S
C448 C451 1.539 . S
C449 C445 1.408 . S
C449 C448 1.404 . S
C449 H461 0.930 . S
C450 C446 1.524 . S
C450 H462 0.956 . S
C450 H463 0.961 . S
C450 H464 0.961 . S
C451 C448 1.539 . S
C451 H465 0.958 . S
C451 H466 0.961 . S
C451 H467 0.960 . S
H452 C436 0.931 . S
H453 C441 0.929 . S
H454 C442 0.960 . S
H455 C442 0.962 . S
H456 C442 0.960 . S
H457 C443 0.961 . S
H458 C443 0.961 . S
H459 C443 0.961 . S
H460 C444 0.931 . S
H461 C449 0.930 . S
H462 C450 0.956 . S
H463 C450 0.961 . S
H464 C450 0.961 . S
H465 C451 0.958 . S
H466 C451 0.961 . S
H467 C451 0.960 . S
C468 C469 1.391 . S
C468 C470 1.394 . S
C468 H484 0.931 . S
C469 C468 1.391 . S
C469 C473 1.376 . S
C470 C468 1.394 . S
C470 C471 1.369 . S
C470 C474 1.531 . S
C471 C470 1.369 . S
C471 C472 1.410 . S
C471 C479 1.503 . S
C472 C471 1.410 . S
C472 C473 1.392 . S
C472 C475 1.511 . S
C473 C469 1.376 . S
C473 C472 1.392 . S
C473 H485 0.929 . S
C474 C470 1.531 . S
C474 H486 0.960 . S
C474 H487 0.962 . S
C474 H488 0.960 . S
C475 C472 1.511 . S
C475 H489 0.961 . S
C475 H490 0.961 . S
C475 H491 0.961 . S
C476 C477 1.370 . S
C476 C478 1.363 . S
C476 H492 0.931 . S
C477 C476 1.370 . S
C477 C481 1.408 . S
C478 C476 1.363 . S
C478 C479 1.370 . S
C478 C482 1.524 . S
C479 C471 1.503 . S
C479 C478 1.370 . S
C479 C480 1.403 . S
C480 C479 1.403 . S
C480 C481 1.404 . S
C480 C483 1.539 . S
C481 C477 1.408 . S
C481 C480 1.404 . S
C481 H493 0.930 . S
C482 C478 1.524 . S
C482 H494 0.956 . S
C482 H495 0.961 . S
C482 H496 0.961 . S
C483 C480 1.539 . S
C483 H497 0.958 . S
C483 H498 0.961 . S
C483 H499 0.960 . S
H484 C468 0.931 . S
H485 C473 0.929 . S
H486 C474 0.960 . S
H487 C474 0.962 . S
H488 C474 0.960 . S
H489 C475 0.961 . S
H490 C475 0.961 . S
H491 C475 0.961 . S
H492 C476 0.931 . S
H493 C481 0.930 . S
H494 C482 0.956 . S
H495 C482 0.961 . S
H496 C482 0.961 . S
H497 C483 0.958 . S
H498 C483 0.961 . S
H499 C483 0.960 . S
C500 C501 1.391 . S
C500 C502 1.394 . S
C500 H516 0.931 . S
C501 C500 1.391 . S
C501 C505 1.376 . S
C502 C500 1.394 . S
C502 C503 1.369 . S
C502 C506 1.531 . S
C503 C502 1.369 . S
C503 C504 1.410 . S
C503 C511 1.503 . S
C504 C503 1.410 . S
C504 C505 1.392 . S
C504 C507 1.511 . S
C505 C501 1.376 . S
C505 C504 1.392 . S
C505 H517 0.929 . S
C506 C502 1.531 . S
C506 H518 0.960 . S
C506 H519 0.962 1_655 S
C506 H520 0.960 . S
C507 C504 1.511 . S
C507 H521 0.961 . S
C507 H522 0.961 . S
C507 H523 0.961 . S
C508 C509 1.370 . S
C508 C510 1.363 . S
C508 H524 0.944 . S
C509 C508 1.370 . S
C509 C513 1.408 . S
C510 C508 1.363 . S
C510 C511 1.370 . S
C510 C514 1.524 . S
C511 C503 1.503 . S
C511 C510 1.370 . S
C511 C512 1.403 . S
C512 C511 1.403 . S
C512 C513 1.404 . S
C512 C515 1.539 . S
C513 C509 1.408 . S
C513 C512 1.404 . S
C513 H525 0.930 . S
C514 C510 1.524 . S
C514 H526 0.956 1_655 S
C514 H527 0.961 . S
C514 H528 0.961 1_655 S
C515 C512 1.539 . S
C515 H529 0.958 . S
C515 H530 0.961 . S
C515 H531 0.960 . S
H516 C500 0.931 . S
H517 C505 0.929 . S
H518 C506 0.960 . S
H519 C506 0.962 1_455 S
H520 C506 0.960 . S
H521 C507 0.961 . S
H522 C507 0.961 . S
H523 C507 0.961 . S
H524 C508 0.944 . S
H525 C513 0.930 . S
H526 C514 0.956 1_455 S
H527 C514 0.961 . S
H528 C514 0.961 1_455 S
H529 C515 0.958 . S
H530 C515 0.961 . S
H531 C515 0.960 . S
C532 C533 1.391 . S
C532 C534 1.394 . S
C532 H548 0.931 . S
C533 C532 1.391 . S
C533 C537 1.376 . S
C534 C532 1.394 . S
C534 C535 1.369 . S
C534 C538 1.531 . S
C535 C534 1.369 . S
C535 C536 1.410 . S
C535 C543 1.503 . S
C536 C535 1.410 . S
C536 C537 1.392 . S
C536 C539 1.511 . S
C537 C533 1.376 . S
C537 C536 1.392 . S
C537 H549 0.929 . S
C538 C534 1.531 . S
C538 H550 0.960 . S
C538 H551 0.962 . S
C538 H552 0.960 . S
C539 C536 1.511 . S
C539 H553 0.961 . S
C539 H554 0.961 . S
C539 H555 0.961 . S
C540 C541 1.370 . S
C540 C542 1.363 . S
C540 H556 0.931 . S
C541 C540 1.370 . S
C541 C545 1.408 . S
C542 C540 1.363 . S
C542 C543 1.370 . S
C542 C546 1.524 . S
C543 C535 1.503 . S
C543 C542 1.370 . S
C543 C544 1.403 . S
C544 C543 1.403 . S
C544 C545 1.404 . S
C544 C547 1.539 . S
C545 C541 1.408 . S
C545 C544 1.404 . S
C545 H557 0.930 . S
C546 C542 1.524 . S
C546 H558 0.956 . S
C546 H559 0.961 . S
C546 H560 0.961 . S
C547 C544 1.539 . S
C547 H561 0.958 1_554 S
C547 H562 0.961 1_554 S
C547 H563 0.960 . S
H548 C532 0.931 . S
H549 C537 0.929 . S
H550 C538 0.960 . S
H551 C538 0.962 . S
H552 C538 0.960 . S
H553 C539 0.961 . S
H554 C539 0.961 . S
H555 C539 0.961 . S
H556 C540 0.931 . S
H557 C545 0.930 . S
H558 C546 0.956 . S
H559 C546 0.961 . S
H560 C546 0.961 . S
H561 C547 0.958 1_556 S
H562 C547 0.961 1_556 S
H563 C547 0.960 . S
C564 C565 1.391 . S
C564 C566 1.394 . S
C564 H580 0.931 . S
C565 C564 1.391 . S
C565 C569 1.376 . S
C566 C564 1.394 . S
C566 C567 1.369 . S
C566 C570 1.531 . S
C567 C566 1.369 . S
C567 C568 1.410 . S
C567 C575 1.503 . S
C568 C567 1.410 . S
C568 C569 1.392 . S
C568 C571 1.511 . S
C569 C565 1.376 . S
C569 C568 1.392 . S
C569 H581 0.929 . S
C570 C566 1.531 . S
C570 H582 0.960 . S
C570 H583 0.962 . S
C570 H584 0.960 . S
C571 C568 1.511 . S
C571 H585 0.961 . S
C571 H586 0.961 . S
C571 H587 0.961 . S
C572 C573 1.370 . S
C572 C574 1.363 . S
C572 H588 0.931 . S
C573 C572 1.370 . S
C573 C577 1.408 . S
C574 C572 1.363 . S
C574 C575 1.370 . S
C574 C578 1.524 . S
C575 C567 1.503 . S
C575 C574 1.370 . S
C575 C576 1.403 . S
C576 C575 1.403 . S
C576 C577 1.404 . S
C576 C579 1.539 . S
C577 C573 1.408 . S
C577 C576 1.404 . S
C577 H589 0.930 . S
C578 C574 1.524 . S
C578 H590 0.956 . S
C578 H591 0.961 . S
C578 H592 0.961 . S
C579 C576 1.539 . S
C579 H593 0.958 . S
C579 H594 0.961 1_565 S
C579 H595 0.960 . S
H580 C564 0.931 . S
H581 C569 0.929 . S
H582 C570 0.960 . S
H583 C570 0.962 . S
H584 C570 0.960 . S
H585 C571 0.961 . S
H586 C571 0.961 . S
H587 C571 0.961 . S
H588 C572 0.931 . S
H589 C577 0.930 . S
H590 C578 0.956 . S
H591 C578 0.961 . S
H592 C578 0.961 . S
H593 C579 0.958 . S
H594 C579 0.961 1_545 S
H595 C579 0.960 . S
C596 C597 1.391 . S
C596 C598 1.394 . S
C596 H612 0.931 . S
C597 C596 1.391 . S
C597 C601 1.376 . S
C598 C596 1.394 . S
C598 C599 1.369 . S
C598 C602 1.531 . S
C599 C598 1.369 . S
C599 C600 1.410 . S
C599 C607 1.503 . S
C600 C599 1.410 . S
C600 C601 1.392 . S
C600 C603 1.511 . S
C601 C597 1.376 . S
C601 C600 1.392 . S
C601 H613 0.929 . S
C602 C598 1.531 . S
C602 H614 0.960 . S
C602 H615 0.962 . S
C602 H616 0.960 . S
C603 C600 1.511 . S
C603 H617 0.961 . S
C603 H618 0.961 . S
C603 H619 0.961 . S
C604 C605 1.370 . S
C604 C606 1.363 . S
C604 H620 0.931 . S
C605 C604 1.370 . S
C605 C609 1.408 . S
C606 C604 1.363 . S
C606 C607 1.370 . S
C606 C610 1.524 . S
C607 C599 1.503 . S
C607 C606 1.370 . S
C607 C608 1.403 . S
C608 C607 1.403 . S
C608 C609 1.404 . S
C608 C611 1.539 1_556 S
C609 C605 1.408 . S
C609 C608 1.404 . S
C609 H621 0.930 1_556 S
C610 C606 1.524 . S
C610 H622 0.956 . S
C610 H623 0.961 . S
C610 H624 0.961 . S
C611 C608 1.539 1_554 S
C611 H625 0.958 . S
C611 H626 0.961 . S
C611 H627 0.960 . S
H612 C596 0.931 . S
H613 C601 0.929 . S
H614 C602 0.960 . S
H615 C602 0.962 . S
H616 C602 0.960 . S
H617 C603 0.961 . S
H618 C603 0.961 . S
H619 C603 0.961 . S
H620 C604 0.931 . S
H621 C609 0.930 1_554 S
H622 C610 0.956 . S
H623 C610 0.961 . S
H624 C610 0.961 . S
H625 C611 0.958 . S
H626 C611 0.961 . S
H627 C611 0.960 . S
C628 C629 1.391 . S
C628 C630 1.394 . S
C628 H644 0.931 . S
C629 C628 1.391 . S
C629 C633 1.376 . S
C630 C628 1.394 . S
C630 C631 1.369 . S
C630 C634 1.531 . S
C631 C630 1.369 . S
C631 C632 1.410 . S
C631 C639 1.503 . S
C632 C631 1.410 . S
C632 C633 1.392 . S
C632 C635 1.511 . S
C633 C629 1.376 . S
C633 C632 1.392 . S
C633 H645 0.929 . S
C634 C630 1.531 . S
C634 H646 0.960 . S
C634 H647 0.962 . S
C634 H648 0.960 . S
C635 C632 1.511 . S
C635 H649 0.961 . S
C635 H650 0.961 . S
C635 H651 0.961 . S
C636 C637 1.370 . S
C636 C638 1.363 . S
C636 H652 0.931 . S
C637 C636 1.370 . S
C637 C641 1.408 . S
C638 C636 1.363 . S
C638 C639 1.370 . S
C638 C642 1.524 . S
C639 C631 1.503 . S
C639 C638 1.370 . S
C639 C640 1.403 . S
C640 C639 1.403 . S
C640 C641 1.404 . S
C640 C643 1.539 . S
C641 C637 1.408 . S
C641 C640 1.404 . S
C641 H653 0.930 . S
C642 C638 1.524 . S
C642 H654 0.956 . S
C642 H655 0.961 . S
C642 H656 0.961 . S
C643 C640 1.539 . S
C643 H657 0.958 . S
C643 H658 0.961 . S
C643 H659 0.960 . S
H644 C628 0.931 . S
H645 C633 0.929 . S
H646 C634 0.960 . S
H647 C634 0.962 . S
H648 C634 0.960 . S
H649 C635 0.961 . S
H650 C635 0.961 . S
H651 C635 0.961 . S
H652 C636 0.931 . S
H653 C641 0.930 . S
H654 C642 0.956 . S
H655 C642 0.961 . S
H656 C642 0.961 . S
H657 C643 0.958 . S
H658 C643 0.961 . S
H659 C643 0.960 . S
C660 C661 1.391 . S
C660 C662 1.394 . S
C660 H676 0.931 . S
C661 C660 1.391 . S
C661 C665 1.376 . S
C662 C660 1.394 . S
C662 C663 1.369 . S
C662 C666 1.531 . S
C663 C662 1.369 . S
C663 C664 1.410 . S
C663 C671 1.503 . S
C664 C663 1.410 . S
C664 C665 1.392 . S
C664 C667 1.511 . S
C665 C661 1.376 . S
C665 C664 1.392 . S
C665 H677 0.929 . S
C666 C662 1.531 . S
C666 H678 0.960 . S
C666 H679 0.962 . S
C666 H680 0.960 . S
C667 C664 1.511 . S
C667 H681 0.961 . S
C667 H682 0.961 . S
C667 H683 0.961 1_455 S
C668 C669 1.370 . S
C668 C670 1.363 . S
C668 H684 0.931 . S
C669 C668 1.370 . S
C669 C673 1.408 . S
C670 C668 1.363 . S
C670 C671 1.370 . S
C670 C674 1.524 . S
C671 C663 1.503 . S
C671 C670 1.370 . S
C671 C672 1.403 . S
C672 C671 1.403 . S
C672 C673 1.404 . S
C672 C675 1.539 . S
C673 C669 1.408 . S
C673 C672 1.404 . S
C673 H685 0.930 . S
C674 C670 1.524 . S
C674 H686 0.956 . S
C674 H687 0.961 . S
C674 H688 0.961 . S
C675 C672 1.539 . S
C675 H689 0.958 . S
C675 H690 0.961 1_455 S
C675 H691 0.960 . S
H676 C660 0.931 . S
H677 C665 0.929 . S
H678 C666 0.960 . S
H679 C666 0.962 . S
H680 C666 0.960 . S
H681 C667 0.961 . S
H682 C667 0.961 . S
H683 C667 0.961 1_655 S
H684 C668 0.931 . S
H685 C673 0.930 . S
H686 C674 0.956 . S
H687 C674 0.961 . S
H688 C674 0.961 . S
H689 C675 0.958 . S
H690 C675 0.961 1_655 S
H691 C675 0.960 . S
C692 C693 1.391 . S
C692 C694 1.394 . S
C692 H708 0.931 . S
C693 C692 1.391 . S
C693 C697 1.376 . S
C694 C692 1.394 . S
C694 C695 1.369 . S
C694 C698 1.531 1_556 S
C695 C694 1.369 . S
C695 C696 1.410 . S
C695 C703 1.503 . S
C696 C695 1.410 . S
C696 C697 1.392 . S
C696 C699 1.511 . S
C697 C693 1.376 . S
C697 C696 1.392 . S
C697 H709 0.929 . S
C698 C694 1.531 1_554 S
C698 H710 0.960 . S
C698 H711 0.962 . S
C698 H712 0.960 . S
C699 C696 1.511 . S
C699 H713 0.961 . S
C699 H714 0.961 . S
C699 H715 0.961 . S
C700 C701 1.370 . S
C700 C702 1.363 . S
C700 H716 0.931 . S
C701 C700 1.370 . S
C701 C705 1.408 . S
C702 C700 1.363 . S
C702 C703 1.370 . S
C702 C706 1.524 . S
C703 C695 1.503 . S
C703 C702 1.370 . S
C703 C704 1.403 . S
C704 C703 1.403 . S
C704 C705 1.404 . S
C704 C707 1.539 . S
C705 C701 1.408 . S
C705 C704 1.404 . S
C705 H717 0.930 . S
C706 C702 1.524 . S
C706 H718 0.956 . S
C706 H719 0.961 . S
C706 H720 0.961 . S
C707 C704 1.539 . S
C707 H721 0.958 . S
C707 H722 0.961 . S
C707 H723 0.960 . S
H708 C692 0.931 . S
H709 C697 0.929 . S
H710 C698 0.960 . S
H711 C698 0.962 . S
H712 C698 0.960 . S
H713 C699 0.961 . S
H714 C699 0.961 . S
H715 C699 0.961 . S
H716 C700 0.931 . S
H717 C705 0.930 . S
H718 C706 0.956 . S
H719 C706 0.961 . S
H720 C706 0.961 . S
H721 C707 0.958 . S
H722 C707 0.961 . S
H723 C707 0.960 . S
C724 C725 1.391 . S
C724 C726 1.394 . S
C724 H740 0.931 . S
C725 C724 1.391 . S
C725 C729 1.376 . S
C726 C724 1.394 . S
C726 C727 1.369 . S
C726 C730 1.531 . S
C727 C726 1.369 . S
C727 C728 1.410 . S
C727 C735 1.503 . S
C728 C727 1.410 . S
C728 C729 1.392 . S
C728 C731 1.511 1_655 S
C729 C725 1.376 . S
C729 C728 1.392 . S
C729 H741 0.929 . S
C730 C726 1.531 . S
C730 H742 0.960 . S
C730 H743 0.962 . S
C730 H744 0.960 . S
C731 C728 1.511 1_455 S
C731 H745 0.961 . S
C731 H746 0.961 . S
C731 H747 0.961 . S
C732 C733 1.370 . S
C732 C734 1.363 . S
C732 H748 0.931 . S
C733 C732 1.370 . S
C733 C737 1.408 . S
C734 C732 1.363 . S
C734 C735 1.370 . S
C734 C738 1.524 . S
C735 C727 1.503 . S
C735 C734 1.370 . S
C735 C736 1.403 . S
C736 C735 1.403 . S
C736 C737 1.404 . S
C736 C739 1.539 . S
C737 C733 1.408 . S
C737 C736 1.404 . S
C737 H749 0.930 . S
C738 C734 1.524 . S
C738 H750 0.956 . S
C738 H751 0.961 . S
C738 H752 0.961 . S
C739 C736 1.539 . S
C739 H753 0.958 . S
C739 H754 0.961 . S
C739 H755 0.960 . S
H740 C724 0.931 . S
H741 C729 0.929 . S
H742 C730 0.960 . S
H743 C730 0.962 . S
H744 C730 0.960 . S
H745 C731 0.961 . S
H746 C731 0.961 . S
H747 C731 0.961 . S
H748 C732 0.931 . S
H749 C737 0.930 . S
H750 C738 0.956 . S
H751 C738 0.961 . S
H752 C738 0.961 . S
H753 C739 0.958 . S
H754 C739 0.961 . S
H755 C739 0.960 . S
C756 C757 1.391 . S
C756 C758 1.394 . S
C756 H772 0.931 . S
C757 C756 1.391 . S
C757 C761 1.376 . S
C758 C756 1.394 . S
C758 C759 1.369 . S
C758 C762 1.531 . S
C759 C758 1.369 . S
C759 C760 1.410 . S
C759 C767 1.503 . S
C760 C759 1.410 . S
C760 C761 1.392 . S
C760 C763 1.511 . S
C761 C757 1.376 . S
C761 C760 1.392 . S
C761 H773 0.929 . S
C762 C758 1.531 . S
C762 H774 0.960 . S
C762 H775 0.962 . S
C762 H776 0.960 . S
C763 C760 1.511 . S
C763 H777 0.961 . S
C763 H778 0.961 . S
C763 H779 0.961 . S
C764 C765 1.370 . S
C764 C766 1.363 . S
C764 H780 0.931 . S
C765 C764 1.370 . S
C765 C769 1.408 . S
C766 C764 1.363 . S
C766 C767 1.370 . S
C766 C770 1.524 . S
C767 C759 1.503 . S
C767 C766 1.370 . S
C767 C768 1.403 . S
C768 C767 1.403 . S
C768 C769 1.404 . S
C768 C771 1.539 . S
C769 C765 1.408 . S
C769 C768 1.404 . S
C769 H781 0.930 . S
C770 C766 1.524 . S
C770 H782 0.956 . S
C770 H783 0.961 . S
C770 H784 0.961 . S
C771 C768 1.539 . S
C771 H785 0.958 . S
C771 H786 0.961 . S
C771 H787 0.960 . S
H772 C756 0.931 . S
H773 C761 0.929 . S
H774 C762 0.960 . S
H775 C762 0.962 . S
H776 C762 0.960 . S
H777 C763 0.961 . S
H778 C763 0.961 . S
H779 C763 0.961 . S
H780 C764 0.931 . S
H781 C769 0.930 . S
H782 C770 0.956 . S
H783 C770 0.961 . S
H784 C770 0.961 . S
H785 C771 0.958 . S
H786 C771 0.961 . S
H787 C771 0.960 . S
C788 C789 1.391 1_545 S
C788 C790 1.394 . S
C788 H804 0.931 . S
C789 C788 1.391 1_565 S
C789 C793 1.376 . S
C790 C788 1.394 . S
C790 C791 1.368 1_545 S
C790 C794 1.531 . S
C791 C790 1.368 1_565 S
C791 C792 1.412 . S
C791 C799 1.503 1_565 S
C792 C791 1.412 . S
C792 C793 1.392 . S
C792 C795 1.511 1_655 S
C793 C789 1.376 . S
C793 C792 1.392 . S
C793 H805 0.929 1_655 S
C794 C790 1.531 . S
C794 H806 0.960 . S
C794 H807 0.962 . S
C794 H808 0.960 . S
C795 C792 1.511 1_455 S
C795 H809 0.961 . S
C795 H810 0.961 . S
C795 H811 0.965 . S
C796 C797 1.370 1_565 S
C796 C798 1.363 . S
C796 H812 0.931 . S
C797 C796 1.370 1_545 S
C797 C801 1.408 . S
C798 C796 1.363 . S
C798 C799 1.349 1_565 S
C798 C802 1.524 . S
C799 C791 1.503 1_545 S
C799 C798 1.349 1_545 S
C799 C800 1.425 . S
C800 C799 1.425 . S
C800 C801 1.404 . S
C800 C803 1.539 . S
C801 C797 1.408 . S
C801 C800 1.404 . S
C801 H813 0.930 . S
C802 C798 1.524 . S
C802 H814 0.956 . S
C802 H815 0.961 . S
C802 H816 0.961 . S
C803 C800 1.539 . S
C803 H817 0.958 . S
C803 H818 0.961 1_655 S
C803 H819 0.960 . S
H804 C788 0.931 . S
H805 C793 0.929 1_455 S
H806 C794 0.960 . S
H807 C794 0.962 . S
H808 C794 0.960 . S
H809 C795 0.961 . S
H810 C795 0.961 . S
H811 C795 0.965 . S
H812 C796 0.931 . S
H813 C801 0.930 . S
H814 C802 0.956 . S
H815 C802 0.961 . S
H816 C802 0.961 . S
H817 C803 0.958 . S
H818 C803 0.961 1_455 S
H819 C803 0.960 . S
C820 C821 1.391 . S
C820 C822 1.394 . S
C820 H836 0.931 . S
C821 C820 1.391 . S
C821 C825 1.376 . S
C822 C820 1.394 . S
C822 C823 1.369 . S
C822 C826 1.531 . S
C823 C822 1.369 . S
C823 C824 1.410 . S
C823 C831 1.503 . S
C824 C823 1.410 . S
C824 C825 1.392 . S
C824 C827 1.511 . S
C825 C821 1.376 . S
C825 C824 1.392 . S
C825 H837 0.929 . S
C826 C822 1.531 . S
C826 H838 0.960 . S
C826 H839 0.962 . S
C826 H840 0.960 . S
C827 C824 1.511 . S
C827 H841 0.961 . S
C827 H842 0.961 . S
C827 H843 0.961 . S
C828 C829 1.370 1_565 S
C828 C830 1.366 . S
C828 H844 0.931 . S
C829 C828 1.370 1_545 S
C829 C833 1.408 . S
C830 C828 1.366 . S
C830 C831 1.354 1_565 S
C830 C834 1.538 . S
C831 C823 1.503 . S
C831 C830 1.354 1_545 S
C831 C832 1.403 . S
C832 C831 1.403 . S
C832 C833 1.404 . S
C832 C835 1.539 . S
C833 C829 1.408 . S
C833 C832 1.404 . S
C833 H845 0.930 . S
C834 C830 1.538 . S
C834 H846 0.956 . S
C834 H847 0.961 . S
C834 H848 0.961 . S
C835 C832 1.539 . S
C835 H849 0.958 . S
C835 H850 0.961 . S
C835 H851 0.960 . S
H836 C820 0.931 . S
H837 C825 0.929 . S
H838 C826 0.960 . S
H839 C826 0.962 . S
H840 C826 0.960 . S
H841 C827 0.961 . S
H842 C827 0.961 . S
H843 C827 0.961 . S
H844 C828 0.931 . S
H845 C833 0.930 . S
H846 C834 0.956 . S
H847 C834 0.961 . S
H848 C834 0.961 . S
H849 C835 0.958 . S
H850 C835 0.961 . S
H851 C835 0.960 . S
C852 C853 1.391 . S
C852 C854 1.394 . S
C852 H868 0.931 . S
C853 C852 1.391 . S
C853 C857 1.376 . S
C854 C852 1.394 . S
C854 C855 1.369 . S
C854 C858 1.531 . S
C855 C854 1.369 . S
C855 C856 1.410 . S
C855 C863 1.503 . S
C856 C855 1.410 . S
C856 C857 1.392 . S
C856 C859 1.511 . S
C857 C853 1.376 . S
C857 C856 1.392 . S
C857 H869 0.929 . S
C858 C854 1.531 . S
C858 H870 0.960 . S
C858 H871 0.962 . S
C858 H872 0.960 . S
C859 C856 1.511 . S
C859 H873 0.961 . S
C859 H874 0.961 . S
C859 H875 0.961 . S
C860 C861 1.370 . S
C860 C862 1.363 . S
C860 H876 0.931 . S
C861 C860 1.370 . S
C861 C865 1.408 . S
C862 C860 1.363 . S
C862 C863 1.370 . S
C862 C866 1.524 . S
C863 C855 1.503 . S
C863 C862 1.370 . S
C863 C864 1.403 . S
C864 C863 1.403 . S
C864 C865 1.404 . S
C864 C867 1.539 . S
C865 C861 1.408 . S
C865 C864 1.404 . S
C865 H877 0.930 . S
C866 C862 1.524 . S
C866 H878 0.956 . S
C866 H879 0.961 . S
C866 H880 0.961 . S
C867 C864 1.539 . S
C867 H881 0.958 . S
C867 H882 0.961 . S
C867 H883 0.960 . S
H868 C852 0.931 . S
H869 C857 0.929 . S
H870 C858 0.960 . S
H871 C858 0.962 . S
H872 C858 0.960 . S
H873 C859 0.961 . S
H874 C859 0.961 . S
H875 C859 0.961 . S
H876 C860 0.931 . S
H877 C865 0.930 . S
H878 C866 0.956 . S
H879 C866 0.961 . S
H880 C866 0.961 . S
H881 C867 0.958 . S
H882 C867 0.961 . S
H883 C867 0.960 . S
C884 C885 1.391 . S
C884 C886 1.394 . S
C884 H900 0.931 . S
C885 C884 1.391 . S
C885 C889 1.376 . S
C886 C884 1.394 . S
C886 C887 1.369 . S
C886 C890 1.531 1_455 S
C887 C886 1.369 . S
C887 C888 1.410 . S
C887 C895 1.503 . S
C888 C887 1.410 . S
C888 C889 1.392 . S
C888 C891 1.511 . S
C889 C885 1.376 . S
C889 C888 1.392 . S
C889 H901 0.929 . S
C890 C886 1.531 1_655 S
C890 H902 0.960 . S
C890 H903 0.962 . S
C890 H904 0.960 . S
C891 C888 1.511 . S
C891 H905 0.961 . S
C891 H906 0.961 . S
C891 H907 0.961 . S
C892 C893 1.370 . S
C892 C894 1.363 . S
C892 H908 0.931 . S
C893 C892 1.370 . S
C893 C897 1.408 . S
C894 C892 1.363 . S
C894 C895 1.370 . S
C894 C898 1.524 . S
C895 C887 1.503 . S
C895 C894 1.370 . S
C895 C896 1.403 . S
C896 C895 1.403 . S
C896 C897 1.404 . S
C896 C899 1.539 . S
C897 C893 1.408 . S
C897 C896 1.404 . S
C897 H909 0.930 . S
C898 C894 1.524 . S
C898 H910 0.956 . S
C898 H911 0.961 . S
C898 H912 0.961 . S
C899 C896 1.539 . S
C899 H913 0.958 . S
C899 H914 0.961 . S
C899 H915 0.960 . S
H900 C884 0.931 . S
H901 C889 0.929 . S
H902 C890 0.960 . S
H903 C890 0.962 . S
H904 C890 0.960 . S
H905 C891 0.961 . S
H906 C891 0.961 . S
H907 C891 0.961 . S
H908 C892 0.931 . S
H909 C897 0.930 . S
H910 C898 0.956 . S
H911 C898 0.961 . S
H912 C898 0.961 . S
H913 C899 0.958 . S
H914 C899 0.961 . S
H915 C899 0.960 . S
C916 C917 1.408 . S
C916 C918 1.394 . S
C916 H932 0.915 1_565 S
C917 C916 1.408 . S
C917 C921 1.376 . S
C918 C916 1.394 . S
C918 C919 1.387 . S
C918 C922 1.512 1_565 S
C919 C918 1.387 . S
C919 C920 1.410 . S
C919 C927 1.503 . S
C920 C919 1.410 . S
C920 C921 1.392 . S
C920 C923 1.511 1_556 S
C921 C917 1.376 . S
C921 C920 1.392 . S
C921 H933 0.929 1_556 S
C922 C918 1.512 1_545 S
C922 H934 0.960 . S
C922 H935 0.962 . S
C922 H936 0.960 . S
C923 C920 1.511 1_554 S
C923 H937 0.961 . S
C923 H938 0.961 . S
C923 H939 0.961 . S
C924 C925 1.370 1_545 S
C924 C926 1.363 . S
C924 H940 0.931 1_556 S
C925 C924 1.370 1_565 S
C925 C929 1.408 . S
C926 C924 1.363 . S
C926 C927 1.370 1_545 S
C926 C930 1.524 1_556 S
C927 C919 1.503 . S
C927 C926 1.370 1_565 S
C927 C928 1.403 . S
C928 C927 1.403 . S
C928 C929 1.404 . S
C928 C931 1.539 . S
C929 C925 1.408 . S
C929 C928 1.404 . S
C929 H941 0.930 . S
C930 C926 1.524 1_554 S
C930 H942 0.956 1_554 S
C930 H943 0.961 . S
C930 H944 0.961 . S
C931 C928 1.539 . S
C931 H945 0.958 . S
C931 H946 0.961 . S
C931 H947 0.960 . S
H932 C916 0.915 1_545 S
H933 C921 0.929 1_554 S
H934 C922 0.960 . S
H935 C922 0.962 . S
H936 C922 0.960 . S
H937 C923 0.961 . S
H938 C923 0.961 . S
H939 C923 0.961 . S
H940 C924 0.931 1_554 S
H941 C929 0.930 . S
H942 C930 0.956 1_556 S
H943 C930 0.961 . S
H944 C930 0.961 . S
H945 C931 0.958 . S
H946 C931 0.961 . S
H947 C931 0.960 . S
C948 C949 1.391 . S
C948 C950 1.394 . S
C948 H964 0.931 1_545 S
C949 C948 1.391 . S
C949 C953 1.376 . S
C950 C948 1.394 . S
C950 C951 1.369 . S
C950 C954 1.531 1_545 S
C951 C950 1.369 . S
C951 C952 1.410 . S
C951 C959 1.503 . S
C952 C951 1.410 . S
C952 C953 1.392 . S
C952 C955 1.511 . S
C953 C949 1.376 . S
C953 C952 1.392 . S
C953 H965 0.929 . S
C954 C950 1.531 1_565 S
C954 H966 0.960 . S
C954 H967 0.962 . S
C954 H968 0.960 . S
C955 C952 1.511 . S
C955 H969 0.961 . S
C955 H970 0.961 . S
C955 H971 0.961 . S
C956 C957 1.370 . S
C956 C958 1.363 . S
C956 H972 0.931 . S
C957 C956 1.370 . S
C957 C961 1.408 . S
C958 C956 1.363 . S
C958 C959 1.370 . S
C958 C962 1.524 . S
C959 C951 1.503 . S
C959 C958 1.370 . S
C959 C960 1.403 . S
C960 C959 1.403 . S
C960 C961 1.404 . S
C960 C963 1.539 1_545 S
C961 C957 1.408 . S
C961 C960 1.404 . S
C961 H973 0.930 1_545 S
C962 C958 1.524 . S
C962 H974 0.956 . S
C962 H975 0.961 . S
C962 H976 0.961 . S
C963 C960 1.539 1_565 S
C963 H977 0.958 . S
C963 H978 0.961 . S
C963 H979 0.960 . S
H964 C948 0.931 1_565 S
H965 C953 0.929 . S
H966 C954 0.960 . S
H967 C954 0.962 . S
H968 C954 0.960 . S
H969 C955 0.961 . S
H970 C955 0.961 . S
H971 C955 0.961 . S
H972 C956 0.931 . S
H973 C961 0.930 1_565 S
H974 C962 0.956 . S
H975 C962 0.961 . S
H976 C962 0.961 . S
H977 C963 0.958 . S
H978 C963 0.961 . S
H979 C963 0.960 . S
C980 C981 1.391 . S
C980 C982 1.394 . S
C980 H996 0.931 . S
C981 C980 1.391 . S
C981 C985 1.376 . S
C982 C980 1.394 . S
C982 C983 1.369 . S
C982 C986 1.531 . S
C983 C982 1.369 . S
C983 C984 1.410 . S
C983 C991 1.503 . S
C984 C983 1.410 . S
C984 C985 1.392 . S
C984 C987 1.511 1_554 S
C985 C981 1.376 . S
C985 C984 1.392 . S
C985 H997 0.929 . S
C986 C982 1.531 . S
C986 H998 0.960 . S
C986 H999 0.962 . S
C986 H1000 0.960 . S
C987 C984 1.511 1_556 S
C987 H1001 0.961 . S
C987 H1002 0.961 . S
C987 H1003 0.961 . S
C988 C989 1.370 . S
C988 C990 1.363 . S
C988 H1004 0.931 . S
C989 C988 1.370 . S
C989 C993 1.408 . S
C990 C988 1.363 . S
C990 C991 1.370 . S
C990 C994 1.524 . S
C991 C983 1.503 . S
C991 C990 1.370 . S
C991 C992 1.403 . S
C992 C991 1.403 . S
C992 C993 1.404 . S
C992 C995 1.539 . S
C993 C989 1.408 . S
C993 C992 1.404 . S
C993 H1005 0.930 . S
C994 C990 1.524 . S
C994 H1006 0.956 . S
C994 H1007 0.961 . S
C994 H1008 0.961 . S
C995 C992 1.539 . S
C995 H1009 0.958 . S
C995 H1010 0.961 . S
C995 H1011 0.960 . S
H996 C980 0.931 . S
H997 C985 0.929 . S
H998 C986 0.960 . S
H999 C986 0.962 . S
H1000 C986 0.960 . S
H1001 C987 0.961 . S
H1002 C987 0.961 . S
H1003 C987 0.961 . S
H1004 C988 0.931 . S
H1005 C993 0.930 . S
H1006 C994 0.956 . S
H1007 C994 0.961 . S
H1008 C994 0.961 . S
H1009 C995 0.958 . S
H1010 C995 0.961 . S
H1011 C995 0.960 . S
C1012 C1013 1.391 . S
C1012 C1014 1.394 . S
C1012 H1028 0.931 . S
C1013 C1012 1.391 . S
C1013 C1017 1.376 . S
C1014 C1012 1.394 . S
C1014 C1015 1.369 . S
C1014 C1018 1.531 . S
C1015 C1014 1.369 . S
C1015 C1016 1.410 . S
C1015 C1023 1.503 . S
C1016 C1015 1.410 . S
C1016 C1017 1.392 . S
C1016 C1019 1.511 . S
C1017 C1013 1.376 . S
C1017 C1016 1.392 . S
C1017 H1029 0.929 . S
C1018 C1014 1.531 . S
C1018 H1030 0.960 . S
C1018 H1031 0.962 . S
C1018 H1032 0.960 . S
C1019 C1016 1.511 . S
C1019 H1033 0.961 . S
C1019 H1034 0.961 . S
C1019 H1035 0.961 . S
C1020 C1021 1.370 . S
C1020 C1022 1.363 . S
C1020 H1036 0.931 . S
C1021 C1020 1.370 . S
C1021 C1025 1.408 . S
C1022 C1020 1.363 . S
C1022 C1023 1.370 . S
C1022 C1026 1.524 . S
C1023 C1015 1.503 . S
C1023 C1022 1.370 . S
C1023 C1024 1.403 . S
C1024 C1023 1.403 . S
C1024 C1025 1.404 . S
C1024 C1027 1.539 . S
C1025 C1021 1.408 . S
C1025 C1024 1.404 . S
C1025 H1037 0.930 . S
C1026 C1022 1.524 . S
C1026 H1038 0.956 . S
C1026 H1039 0.961 . S
C1026 H1040 0.961 . S
C1027 C1024 1.539 . S
C1027 H1041 0.958 . S
C1027 H1042 0.961 . S
C1027 H1043 0.960 . S
H1028 C1012 0.931 . S
H1029 C1017 0.929 . S
H1030 C1018 0.960 . S
H1031 C1018 0.962 . S
H1032 C1018 0.960 . S
H1033 C1019 0.961 . S
H1034 C1019 0.961 . S
H1035 C1019 0.961 . S
H1036 C1020 0.931 . S
H1037 C1025 0.930 . S
H1038 C1026 0.956 . S
H1039 C1026 0.961 . S
H1040 C1026 0.961 . S
H1041 C1027 0.958 . S
H1042 C1027 0.961 . S
H1043 C1027 0.960 . S
C1044 C1045 1.391 . S
C1044 C1046 1.394 . S
C1044 H1060 0.931 . S
C1045 C1044 1.391 . S
C1045 C1049 1.376 . S
C1046 C1044 1.394 . S
C1046 C1047 1.369 . S
C1046 C1050 1.531 . S
C1047 C1046 1.369 . S
C1047 C1048 1.410 . S
C1047 C1055 1.503 . S
C1048 C1047 1.410 . S
C1048 C1049 1.392 . S
C1048 C1051 1.511 1_655 S
C1049 C1045 1.376 . S
C1049 C1048 1.392 . S
C1049 H1061 0.929 1_655 S
C1050 C1046 1.531 . S
C1050 H1062 0.960 . S
C1050 H1063 0.962 . S
C1050 H1064 0.960 . S
C1051 C1048 1.511 1_455 S
C1051 H1065 0.961 . S
C1051 H1066 0.961 . S
C1051 H1067 0.961 . S
C1052 C1053 1.370 1_554 S
C1052 C1054 1.363 . S
C1052 H1068 0.931 . S
C1053 C1052 1.370 1_556 S
C1053 C1057 1.408 . S
C1054 C1052 1.363 . S
C1054 C1055 1.370 1_554 S
C1054 C1058 1.524 . S
C1055 C1047 1.503 . S
C1055 C1054 1.370 1_556 S
C1055 C1056 1.403 . S
C1056 C1055 1.403 . S
C1056 C1057 1.404 . S
C1056 C1059 1.539 . S
C1057 C1053 1.408 . S
C1057 C1056 1.404 . S
C1057 H1069 0.930 . S
C1058 C1054 1.524 . S
C1058 H1070 0.956 . S
C1058 H1071 0.961 . S
C1058 H1072 0.961 . S
C1059 C1056 1.539 . S
C1059 H1073 0.958 . S
C1059 H1074 0.961 . S
C1059 H1075 0.960 . S
H1060 C1044 0.931 . S
H1061 C1049 0.929 1_455 S
H1062 C1050 0.960 . S
H1063 C1050 0.962 . S
H1064 C1050 0.960 . S
H1065 C1051 0.961 . S
H1066 C1051 0.961 . S
H1067 C1051 0.961 . S
H1068 C1052 0.931 . S
H1069 C1057 0.930 . S
H1070 C1058 0.956 . S
H1071 C1058 0.961 . S
H1072 C1058 0.961 . S
H1073 C1059 0.958 . S
H1074 C1059 0.961 . S
H1075 C1059 0.960 . S
C1076 C1077 1.391 . S
C1076 C1078 1.394 . S
C1076 H1092 0.931 . S
C1077 C1076 1.391 . S
C1077 C1081 1.376 . S
C1078 C1076 1.394 . S
C1078 C1079 1.369 . S
C1078 C1082 1.531 . S
C1079 C1078 1.369 . S
C1079 C1080 1.410 . S
C1079 C1087 1.503 . S
C1080 C1079 1.410 . S
C1080 C1081 1.392 . S
C1080 C1083 1.511 . S
C1081 C1077 1.376 . S
C1081 C1080 1.392 . S
C1081 H1093 0.929 . S
C1082 C1078 1.531 . S
C1082 H1094 0.960 . S
C1082 H1095 0.962 . S
C1082 H1096 0.960 . S
C1083 C1080 1.511 . S
C1083 H1097 0.961 . S
C1083 H1098 0.961 . S
C1083 H1099 0.961 . S
C1084 C1085 1.370 . S
C1084 C1086 1.363 . S
C1084 H1100 0.931 . S
C1085 C1084 1.370 . S
C1085 C1089 1.408 . S
C1086 C1084 1.363 . S
C1086 C1087 1.370 . S
C1086 C1090 1.524 . S
C1087 C1079 1.503 . S
C1087 C1086 1.370 . S
C1087 C1088 1.403 . S
C1088 C1087 1.403 . S
C1088 C1089 1.404 . S
C1088 C1091 1.539 . S
C1089 C1085 1.408 . S
C1089 C1088 1.404 . S
C1089 H1101 0.930 . S
C1090 C1086 1.524 . S
C1090 H1102 0.956 . S
C1090 H1103 0.961 1_554 S
C1090 H1104 0.961 1_554 S
C1091 C1088 1.539 . S
C1091 H1105 0.958 . S
C1091 H1106 0.961 . S
C1091 H1107 0.960 . S
H1092 C1076 0.931 . S
H1093 C1081 0.929 . S
H1094 C1082 0.960 . S
H1095 C1082 0.962 . S
H1096 C1082 0.960 . S
H1097 C1083 0.961 . S
H1098 C1083 0.961 . S
H1099 C1083 0.961 . S
H1100 C1084 0.931 . S
H1101 C1089 0.930 . S
H1102 C1090 0.956 . S
H1103 C1090 0.961 1_556 S
H1104 C1090 0.961 1_556 S
H1105 C1091 0.958 . S
H1106 C1091 0.961 . S
H1107 C1091 0.960 . S
C1108 C1109 1.391 . S
C1108 C1110 1.394 . S
C1108 H1124 0.931 . S
C1109 C1108 1.391 . S
C1109 C1113 1.376 . S
C1110 C1108 1.394 . S
C1110 C1111 1.369 . S
C1110 C1114 1.531 1_455 S
C1111 C1110 1.369 . S
C1111 C1112 1.410 . S
C1111 C1119 1.503 . S
C1112 C1111 1.410 . S
C1112 C1113 1.392 . S
C1112 C1115 1.511 . S
C1113 C1109 1.376 . S
C1113 C1112 1.392 . S
C1113 H1125 0.929 . S
C1114 C1110 1.531 1_655 S
C1114 H1126 0.960 . S
C1114 H1127 0.962 . S
C1114 H1128 0.960 . S
C1115 C1112 1.511 . S
C1115 H1129 0.961 . S
C1115 H1130 0.961 . S
C1115 H1131 0.961 . S
C1116 C1117 1.370 . S
C1116 C1118 1.363 . S
C1116 H1132 0.931 . S
C1117 C1116 1.370 . S
C1117 C1121 1.408 . S
C1118 C1116 1.363 . S
C1118 C1119 1.370 . S
C1118 C1122 1.524 . S
C1119 C1111 1.503 . S
C1119 C1118 1.370 . S
C1119 C1120 1.403 . S
C1120 C1119 1.403 . S
C1120 C1121 1.404 . S
C1120 C1123 1.539 . S
C1121 C1117 1.408 . S
C1121 C1120 1.404 . S
C1121 H1133 0.930 . S
C1122 C1118 1.524 . S
C1122 H1134 0.956 . S
C1122 H1135 0.961 . S
C1122 H1136 0.961 . S
C1123 C1120 1.539 . S
C1123 H1137 0.958 . S
C1123 H1138 0.961 . S
C1123 H1139 0.960 . S
H1124 C1108 0.931 . S
H1125 C1113 0.929 . S
H1126 C1114 0.960 . S
H1127 C1114 0.962 . S
H1128 C1114 0.960 . S
H1129 C1115 0.961 . S
H1130 C1115 0.961 . S
H1131 C1115 0.961 . S
H1132 C1116 0.931 . S
H1133 C1121 0.930 . S
H1134 C1122 0.956 . S
H1135 C1122 0.961 . S
H1136 C1122 0.961 . S
H1137 C1123 0.958 . S
H1138 C1123 0.961 . S
H1139 C1123 0.960 . S
C1140 C1141 1.391 . S
C1140 C1142 1.394 . S
C1140 H1156 0.931 . S
C1141 C1140 1.391 . S
C1141 C1145 1.376 . S
C1142 C1140 1.394 . S
C1142 C1143 1.369 . S
C1142 C1146 1.531 . S
C1143 C1142 1.369 . S
C1143 C1144 1.410 . S
C1143 C1151 1.503 . S
C1144 C1143 1.410 . S
C1144 C1145 1.392 . S
C1144 C1147 1.511 . S
C1145 C1141 1.376 . S
C1145 C1144 1.392 . S
C1145 H1157 0.929 . S
C1146 C1142 1.531 . S
C1146 H1158 0.960 . S
C1146 H1159 0.962 . S
C1146 H1160 0.960 . S
C1147 C1144 1.511 . S
C1147 H1161 0.961 . S
C1147 H1162 0.961 . S
C1147 H1163 0.961 . S
C1148 C1149 1.370 . S
C1148 C1150 1.363 . S
C1148 H1164 0.931 . S
C1149 C1148 1.370 . S
C1149 C1153 1.408 . S
C1150 C1148 1.363 . S
C1150 C1151 1.370 . S
C1150 C1154 1.524 . S
C1151 C1143 1.503 . S
C1151 C1150 1.370 . S
C1151 C1152 1.403 . S
C1152 C1151 1.403 . S
C1152 C1153 1.404 . S
C1152 C1155 1.539 . S
C1153 C1149 1.408 . S
C1153 C1152 1.404 . S
C1153 H1165 0.930 . S
C1154 C1150 1.524 . S
C1154 H1166 0.956 . S
C1154 H1167 0.961 . S
C1154 H1168 0.961 . S
C1155 C1152 1.539 . S
C1155 H1169 0.958 . S
C1155 H1170 0.961 . S
C1155 H1171 0.960 . S
H1156 C1140 0.931 . S
H1157 C1145 0.929 . S
H1158 C1146 0.960 . S
H1159 C1146 0.962 . S
H1160 C1146 0.960 . S
H1161 C1147 0.961 . S
H1162 C1147 0.961 . S
H1163 C1147 0.961 . S
H1164 C1148 0.931 . S
H1165 C1153 0.930 . S
H1166 C1154 0.956 . S
H1167 C1154 0.961 . S
H1168 C1154 0.961 . S
H1169 C1155 0.958 . S
H1170 C1155 0.961 . S
H1171 C1155 0.960 . S
C405 C1 1.611 . S
C413 C330 1.604 . S
C437 C40 1.602 . S
C445 C354 1.568 . S
C477 C374 1.444 . S
C469 C99 1.440 . S
C501 C118 1.432 . S
C509 C397 1.451 . S
C541 C356 1.683 . S
C533 C16 1.714 . S
C573 C332 1.647 . S
C565 C60 1.696 . S
C605 C400 1.589 . S
C597 C79 1.658 . S
C637 C377 1.555 . S
C629 C138 1.585 . S
C661 C21 1.404 . S
C669 C402 1.353 . S
C701 C351 1.669 . S
C693 C94 1.659 . S
C725 C133 1.633 . S
C733 C329 1.637 . S
C757 C55 1.396 . S
C765 C379 1.342 . S
C797 C333 1.738 . S
C789 C157 1.715 . S
C821 C196 1.635 . S
C829 C355 1.661 . S
C853 C255 1.807 . S
C861 C375 1.825 . S
C885 C289 1.777 . S
C893 C398 1.830 . S
C917 C172 1.597 . S
C925 C353 1.619 . S
C957 C331 1.652 . S
C949 C216 1.611 . S
C989 C401 1.541 . S
C981 C235 1.527 . S
C1021 C378 1.546 . S
C1013 C294 1.544 . S
C1045 C177 1.905 . S
C1053 C399 1.906 . S
C1085 C352 1.632 . S
C1077 C250 1.592 . S
C1117 C328 1.613 . S
C1109 C274 1.597 . S
C1141 C211 1.892 . S
C1149 C376 1.878 . S
