# Generated by pormake.
# Topology zzz, (3,6)-cn, num edge types: 1
# Building blocks:
#     Node 0, Type 0, BuildingBlock: MIDCAF_clean_linker_0, # of connection points: 3
#     Node 1, Type 0, BuildingBlock: MIDCAF_clean_linker_0, # of connection points: 3
#     Node 2, Type 0, BuildingBlock: MIDCAF_clean_linker_0, # of connection points: 3
#     Node 3, Type 0, BuildingBlock: MIDCAF_clean_linker_0, # of connection points: 3
#     Node 4, Type 0, BuildingBlock: MIDCAF_clean_linker_0, # of connection points: 3
#     Node 5, Type 0, BuildingBlock: MIDCAF_clean_linker_0, # of connection points: 3
#     Node 6, Type 0, BuildingBlock: MIDCAF_clean_linker_0, # of connection points: 3
#     Node 7, Type 0, BuildingBlock: MIDCAF_clean_linker_0, # of connection points: 3
#     Node 8, Type 1, BuildingBlock: LEVNOQ01_clean_sbu_1, # of connection points: 6
#     Node 9, Type 1, BuildingBlock: LEVNOQ01_clean_sbu_1, # of connection points: 6
#     Node 10, Type 1, BuildingBlock: LEVNOQ01_clean_sbu_1, # of connection points: 6
#     Node 11, Type 1, BuildingBlock: LEVNOQ01_clean_sbu_1, # of connection points: 6
#     Edge 12, Type (0, 1), BuildingBlock: KIFKEQ_clean_linker_1, # of connection points: 2
#     Edge 13, Type (0, 1), BuildingBlock: KIFKEQ_clean_linker_1, # of connection points: 2
#     Edge 14, Type (0, 1), BuildingBlock: KIFKEQ_clean_linker_1, # of connection points: 2
#     Edge 15, Type (0, 1), BuildingBlock: KIFKEQ_clean_linker_1, # of connection points: 2
#     Edge 16, Type (0, 1), BuildingBlock: KIFKEQ_clean_linker_1, # of connection points: 2
#     Edge 17, Type (0, 1), BuildingBlock: KIFKEQ_clean_linker_1, # of connection points: 2
#     Edge 18, Type (0, 1), BuildingBlock: KIFKEQ_clean_linker_1, # of connection points: 2
#     Edge 19, Type (0, 1), BuildingBlock: KIFKEQ_clean_linker_1, # of connection points: 2
#     Edge 20, Type (0, 1), BuildingBlock: KIFKEQ_clean_linker_1, # of connection points: 2
#     Edge 21, Type (0, 1), BuildingBlock: KIFKEQ_clean_linker_1, # of connection points: 2
#     Edge 22, Type (0, 1), BuildingBlock: KIFKEQ_clean_linker_1, # of connection points: 2
#     Edge 23, Type (0, 1), BuildingBlock: KIFKEQ_clean_linker_1, # of connection points: 2
#     Edge 24, Type (0, 1), BuildingBlock: KIFKEQ_clean_linker_1, # of connection points: 2
#     Edge 25, Type (0, 1), BuildingBlock: KIFKEQ_clean_linker_1, # of connection points: 2
#     Edge 26, Type (0, 1), BuildingBlock: KIFKEQ_clean_linker_1, # of connection points: 2
#     Edge 27, Type (0, 1), BuildingBlock: KIFKEQ_clean_linker_1, # of connection points: 2
#     Edge 28, Type (0, 1), BuildingBlock: KIFKEQ_clean_linker_1, # of connection points: 2
#     Edge 29, Type (0, 1), BuildingBlock: KIFKEQ_clean_linker_1, # of connection points: 2
#     Edge 30, Type (0, 1), BuildingBlock: KIFKEQ_clean_linker_1, # of connection points: 2
#     Edge 31, Type (0, 1), BuildingBlock: KIFKEQ_clean_linker_1, # of connection points: 2
#     Edge 32, Type (0, 1), BuildingBlock: KIFKEQ_clean_linker_1, # of connection points: 2
#     Edge 33, Type (0, 1), BuildingBlock: KIFKEQ_clean_linker_1, # of connection points: 2
#     Edge 34, Type (0, 1), BuildingBlock: KIFKEQ_clean_linker_1, # of connection points: 2
#     Edge 35, Type (0, 1), BuildingBlock: KIFKEQ_clean_linker_1, # of connection points: 2
# Relax obj value: 0.308
# Max RMSD: 0.220
# Mean RMSD: 0.208
data_MOF--net-zzz--node1-LEVNOQ01_clean_sbu_1--node2-MIDCAF_clean_linker_0--edge1-KIFKEQ_clean_linker_1
_symmetry_space_group_name_H-M    P1
_symmetry_Int_Tables_number       1
_symmetry_cell_setting            triclinic
loop_
_symmetry_equiv_pos_as_xyz
'x, y, z'
_cell_length_a     55.063798
_cell_length_b     57.926357
_cell_length_c     21.201694
_cell_angle_alpha  89.547863
_cell_angle_beta   90.002911
_cell_angle_gamma 88.317178
loop_
_atom_site_label
_atom_site_type_symbol
_atom_site_fract_x
_atom_site_fract_y
_atom_site_fract_z
_atom_type_partial_charge
C0 C 0.81846 0.6032 0.36455 0.0
C1 C 0.81449 0.58079 0.38734 0.0
C2 C 0.79445 0.56888 0.36378 0.0
C3 C 0.77982 0.57859 0.31556 0.0
H4 H 0.71899 0.57004 0.1694 0.0
H5 H 0.68315 0.55817 0.11101 0.0
H6 H 0.67918 0.62492 0.01817 0.0
H7 H 0.71551 0.63605 0.0738 0.0
H8 H 0.7802 0.62288 0.00032 0.0
H9 H 0.81494 0.61439 0.93267 0.0
H10 H 0.86355 0.6298 0.08538 0.0
H11 H 0.82898 0.63893 0.15261 0.0
H12 H 0.80839 0.62966 0.29825 0.0
H13 H 0.83375 0.61289 0.38068 0.0
H14 H 0.79057 0.55174 0.38101 0.0
H15 H 0.76552 0.56848 0.29558 0.0
N16 N 0.75195 0.60301 0.20926 0.0
N17 N 0.76002 0.6202 0.11056 0.0
N18 N 0.78977 0.61915 0.1887 0.0
C19 C 0.74434 0.60964 0.15027 0.0
C20 C 0.78284 0.62494 0.12939 0.0
C21 C 0.77469 0.60837 0.22902 0.0
C22 C 0.72013 0.60387 0.12567 0.0
C23 C 0.71009 0.58225 0.13736 0.0
C24 C 0.68951 0.57549 0.10383 0.0
C25 C 0.6784 0.59039 0.05866 0.0
C26 C 0.68758 0.61265 0.05083 0.0
C27 C 0.70831 0.61917 0.08327 0.0
C28 C 0.80186 0.63045 0.08277 0.0
C29 C 0.79823 0.62563 0.01867 0.0
C30 C 0.81817 0.62068 0.97985 0.0
C31 C 0.84185 0.62049 0.00475 0.0
C32 C 0.84549 0.62946 0.06515 0.0
C33 C 0.82559 0.63453 0.10389 0.0
C34 C 0.78505 0.60032 0.29005 0.0
C35 C 0.80392 0.61283 0.31682 0.0
C36 C 0.94727 0.81192 0.37087 0.0
C37 C 0.96616 0.80971 0.41545 0.0
C38 C 0.98116 0.78947 0.4139 0.0
C39 C 0.97892 0.77329 0.36522 0.0
H40 H 0.93918 0.70409 0.18171 0.0
H41 H 0.94083 0.66828 0.12046 0.0
H42 H 0.01679 0.67849 0.08203 0.0
H43 H 0.01487 0.71427 0.14229 0.0
H44 H 0.00825 0.7781 0.06405 0.0
H45 H 0.01835 0.81324 0.00546 0.0
H46 H 0.95001 0.84517 0.06221 0.0
H47 H 0.94021 0.81039 0.12125 0.0
H48 H 0.93139 0.79907 0.28676 0.0
H49 H 0.9354 0.82712 0.36917 0.0
H50 H 0.99551 0.78668 0.44823 0.0
H51 H 0.99217 0.75916 0.36176 0.0
N52 N 0.96909 0.74355 0.24417 0.0
N53 N 0.97544 0.75174 0.13607 0.0
N54 N 0.9655 0.78159 0.2054 0.0
C55 C 0.9741 0.73617 0.18414 0.0
C56 C 0.97081 0.7744 0.14658 0.0
C57 C 0.96482 0.7666 0.2545 0.0
C58 C 0.97705 0.71157 0.16785 0.0
C59 C 0.95643 0.69804 0.16252 0.0
C60 C 0.95731 0.67778 0.12665 0.0
C61 C 0.97891 0.67061 0.09607 0.0
C62 C 0.99995 0.68335 0.10549 0.0
C63 C 0.99894 0.70375 0.14038 0.0
C64 C 0.97355 0.7918 0.09701 0.0
C65 C 0.99507 0.79234 0.06175 0.0
C66 C 1.0009 0.81242 0.02889 0.0
C67 C 0.98502 0.83185 0.03017 0.0
C68 C 0.96247 0.83037 0.06037 0.0
C69 C 0.95688 0.81053 0.09408 0.0
C70 C 0.96147 0.77691 0.31767 0.0
C71 C 0.94489 0.7957 0.32314 0.0
C72 C 0.69626 0.9109 0.38718 0.0
C73 C 0.69402 0.93501 0.3941 0.0
C74 C 0.70947 0.94905 0.35838 0.0
C75 C 0.72522 0.93931 0.31321 0.0
H76 H 0.79938 0.9294 0.2092 0.0
H77 H 0.837 0.94073 0.15821 0.0
H78 H 0.81715 0.90351 0.99106 0.0
H79 H 0.78008 0.89174 0.04209 0.0
H80 H 0.72243 0.88915 0.01491 0.0
H81 H 0.68618 0.89362 0.94966 0.0
H82 H 0.64134 0.88462 0.11505 0.0
H83 H 0.6772 0.87864 0.17871 0.0
H84 H 0.71147 0.88281 0.3337 0.0
H85 H 0.68527 0.89945 0.41505 0.0
H86 H 0.70823 0.96767 0.36198 0.0
H87 H 0.73536 0.95064 0.28278 0.0
N88 N 0.75663 0.91099 0.2179 0.0
N89 N 0.74541 0.89451 0.12138 0.0
N90 N 0.71789 0.89597 0.205 0.0
C91 C 0.76251 0.90446 0.15785 0.0
C92 C 0.72304 0.89018 0.14472 0.0
C93 C 0.73434 0.90627 0.24183 0.0
C94 C 0.78647 0.90985 0.1297 0.0
C95 C 0.80319 0.92336 0.16191 0.0
C96 C 0.82474 0.92994 0.13254 0.0
C97 C 0.83012 0.92314 0.07032 0.0
C98 C 0.81385 0.90885 0.03922 0.0
C99 C 0.79236 0.90229 0.06846 0.0
C100 C 0.7027 0.8845 0.10248 0.0
C101 C 0.70484 0.88715 0.0368 0.0
C102 C 0.684 0.88999 -0.00051 0.0
C103 C 0.66077 0.89056 0.02743 0.0
C104 C 0.65879 0.88456 0.09153 0.0
C105 C 0.67953 0.88133 0.12847 0.0
C106 C 0.72558 0.91544 0.30256 0.0
C107 C 0.71165 0.90127 0.34147 0.0
C108 C 0.52944 0.68669 0.10864 0.0
C109 C 0.51483 0.68689 0.05444 0.0
C110 C 0.50318 0.70773 0.03505 0.0
C111 C 0.50518 0.72768 0.07132 0.0
H112 H 0.47524 0.80639 0.14192 0.0
H113 H 0.47554 0.84088 0.07494 0.0
H114 H 0.55035 0.85128 0.12579 0.0
H115 H 0.54976 0.81673 0.19369 0.0
H116 H 0.48507 0.75994 0.37216 0.0
H117 H 0.48179 0.73112 0.45629 0.0
H118 H 0.55345 0.70393 0.40816 0.0
H119 H 0.55704 0.73368 0.3291 0.0
H120 H 0.54223 0.70538 0.18719 0.0
H121 H 0.5384 0.67094 0.12557 0.0
H122 H 0.49201 0.70843 0.99298 0.0
H123 H 0.49521 0.74328 0.05728 0.0
N124 N 0.51448 0.76822 0.1543 0.0
N125 N 0.5164 0.78007 0.26078 0.0
N126 N 0.52015 0.74087 0.23447 0.0
C127 C 0.51404 0.78536 0.19784 0.0
C128 C 0.51936 0.75745 0.27875 0.0
C129 C 0.51777 0.74594 0.17265 0.0
C130 C 0.51226 0.80932 0.1741 0.0
C131 C 0.49137 0.81666 0.14086 0.0
C132 C 0.49164 0.83634 0.10222 0.0
C133 C 0.51302 0.84881 0.0948 0.0
C134 C 0.53365 0.842 0.13035 0.0
C135 C 0.53322 0.82248 0.16992 0.0
C136 C 0.52143 0.74924 0.34463 0.0
C137 C 0.50063 0.7487 0.38276 0.0
C138 C 0.49854 0.73159 0.42973 0.0
C139 C 0.51698 0.71433 0.43842 0.0
C140 C 0.53875 0.71665 0.40432 0.0
C141 C 0.54099 0.73399 0.35873 0.0
C142 C 0.5187 0.72687 0.12745 0.0
C143 C 0.53143 0.70643 0.14448 0.0
C144 C 0.19882 0.41521 0.0589 0.0
C145 C 0.19483 0.43923 0.05469 0.0
C146 C 0.20781 0.45359 0.09503 0.0
C147 C 0.22314 0.444 0.1417 0.0
H148 H 0.30007 0.42741 0.24927 0.0
H149 H 0.33774 0.43595 0.30438 0.0
H150 H 0.30763 0.40941 0.47768 0.0
H151 H 0.27073 0.40029 0.42298 0.0
H152 H 0.21311 0.40062 0.43257 0.0
H153 H 0.17428 0.40593 0.4847 0.0
H154 H 0.13787 0.37964 0.32072 0.0
H155 H 0.1769 0.37498 0.26762 0.0
H156 H 0.21471 0.38706 0.11227 0.0
H157 H 0.18895 0.40374 0.02873 0.0
H158 H 0.20515 0.47217 0.09248 0.0
H159 H 0.23141 0.45536 0.17536 0.0
N160 N 0.25448 0.4149 0.2384 0.0
N161 N 0.24093 0.39816 0.33309 0.0
N162 N 0.21546 0.39981 0.24518 0.0
C163 C 0.25889 0.40821 0.29942 0.0
C164 C 0.21921 0.39383 0.3062 0.0
C165 C 0.23278 0.41026 0.211 0.0
C166 C 0.28224 0.41315 0.33141 0.0
C167 C 0.30159 0.42326 0.29903 0.0
C168 C 0.32318 0.42824 0.33075 0.0
C169 C 0.3259 0.42327 0.3956 0.0
C170 C 0.30656 0.41303 0.42756 0.0
C171 C 0.28516 0.40798 0.39601 0.0
C172 C 0.19797 0.38811 0.34524 0.0
C173 C 0.19698 0.39504 0.4085 0.0
C174 C 0.17456 0.39805 0.43855 0.0
C175 C 0.15284 0.39391 0.40602 0.0
C176 C 0.15422 0.38367 0.34626 0.0
C177 C 0.17661 0.38087 0.316 0.0
C178 C 0.22535 0.41995 0.14937 0.0
C179 C 0.21371 0.40566 0.1063 0.0
C180 C 0.06012 0.20516 0.0525 0.0
C181 C 0.03766 0.20303 0.02191 0.0
C182 C 0.01895 0.21947 0.03479 0.0
C183 C 0.02193 0.23617 0.08171 0.0
H184 H 0.99457 0.29835 0.27551 0.0
H185 H 0.98847 0.33253 0.34145 0.0
H186 H 0.06622 0.33966 0.35297 0.0
H187 H 0.07205 0.30576 0.2861 0.0
H188 H 0.01252 0.23527 0.38764 0.0
H189 H 1.00226 0.20022 0.44591 0.0
H190 H 0.06187 0.1632 0.3562 0.0
H191 H 0.07184 0.198 0.2973 0.0
H192 H 0.07983 0.22152 0.12591 0.0
H193 H 0.07508 0.19314 0.04289 0.0
H194 H 1.00138 0.2183 0.0123 0.0
H195 H 0.00648 0.24706 0.09511 0.0
N196 N 0.03899 0.26894 0.19408 0.0
N197 N 0.03949 0.2596 0.30275 0.0
N198 N 0.04608 0.23064 0.22833 0.0
C199 C 0.03754 0.27563 0.25581 0.0
C200 C 0.04395 0.23712 0.28911 0.0
C201 C 0.04355 0.24617 0.18067 0.0
C202 C 0.03373 0.29985 0.2746 0.0
C203 C 0.01023 0.30796 0.28969 0.0
C204 C 0.00681 0.32727 0.32838 0.0
C205 C 0.02688 0.33867 0.35339 0.0
C206 C 0.05035 0.3315 0.33421 0.0
C207 C 0.05373 0.31217 0.29552 0.0
C208 C 0.04282 0.21912 0.33784 0.0
C209 C 0.02399 0.21988 0.38244 0.0
C210 C 0.01801 0.19986 0.41526 0.0
C211 C 0.03113 0.1791 0.40465 0.0
C212 C 0.05156 0.17905 0.36518 0.0
C213 C 0.05724 0.1989 0.33153 0.0
C214 C 0.04366 0.23672 0.11625 0.0
C215 C 0.06303 0.22172 0.09924 0.0
C216 C 0.31803 0.1073 0.0671 0.0
C217 C 0.31376 0.08506 0.04441 0.0
C218 C 0.29293 0.07373 0.06588 0.0
C219 C 0.27779 0.08376 0.11214 0.0
H220 H 0.2105 0.08155 0.23011 0.0
H221 H 0.17292 0.06882 0.27943 0.0
H222 H 0.1792 0.12145 0.42121 0.0
H223 H 0.21623 0.13431 0.37179 0.0
H224 H 0.27826 0.11979 0.42585 0.0
H225 H 0.31392 0.11128 0.49083 0.0
H226 H 0.35997 0.13763 0.34367 0.0
H227 H 0.32442 0.1466 0.27934 0.0
H228 H 0.30769 0.13389 0.13168 0.0
H229 H 0.3339 0.11657 0.05253 0.0
H230 H 0.2888 0.05674 0.04862 0.0
H231 H 0.26286 0.07401 0.13073 0.0
N232 N 0.24924 0.10838 0.21583 0.0
N233 N 0.25686 0.12394 0.31606 0.0
N234 N 0.28731 0.12321 0.23975 0.0
C235 C 0.2412 0.1144 0.27471 0.0
C236 C 0.27994 0.12842 0.29883 0.0
C237 C 0.27235 0.11329 0.19792 0.0
C238 C 0.21654 0.10876 0.29738 0.0
C239 C 0.20353 0.09072 0.2709 0.0
C240 C 0.18208 0.08335 0.29943 0.0
C241 C 0.1731 0.09401 0.3546 0.0
C242 C 0.18537 0.11296 0.37853 0.0
C243 C 0.20681 0.12019 0.35042 0.0
C244 C 0.29867 0.13305 0.34654 0.0
C245 C 0.29585 0.12487 0.4086 0.0
C246 C 0.3163 0.11982 0.44569 0.0
C247 C 0.33972 0.12299 0.42122 0.0
C248 C 0.34218 0.13475 0.36357 0.0
C249 C 0.32177 0.1398 0.32652 0.0
C250 C 0.28327 0.10526 0.1378 0.0
C251 C 0.30298 0.11726 0.1129 0.0
C252 C 0.54499 0.32769 0.33804 0.0
C253 C 0.52912 0.33245 0.38828 0.0
C254 C 0.51358 0.31531 0.40991 0.0
C255 C 0.51246 0.29437 0.37817 0.0
H256 H 0.47486 0.23215 0.36351 0.0
H257 H 0.4696 0.19763 0.42642 0.0
H258 H 0.50554 0.15682 0.28221 0.0
H259 H 0.51137 0.19208 0.21947 0.0
H260 H 0.471 0.27032 0.10424 0.0
H261 H 0.46791 0.29902 0.01885 0.0
H262 H 0.54608 0.30439 0.02047 0.0
H263 H 0.54887 0.27535 0.10309 0.0
H264 H 0.55472 0.30433 0.26409 0.0
H265 H 0.55709 0.3407 0.32061 0.0
H266 H 0.50136 0.31864 0.44905 0.0
H267 H 0.49913 0.28204 0.39292 0.0
N268 N 0.51091 0.25237 0.30075 0.0
N269 N 0.50246 0.2415 0.19612 0.0
N270 N 0.52065 0.27685 0.21747 0.0
C271 C 0.50244 0.23666 0.25956 0.0
C272 C 0.51174 0.26188 0.17533 0.0
C273 C 0.52028 0.2723 0.2799 0.0
C274 C 0.49354 0.21482 0.28657 0.0
C275 C 0.48103 0.21571 0.3443 0.0
C276 C 0.47793 0.19578 0.38041 0.0
C277 C 0.4873 0.17427 0.35998 0.0
C278 C 0.49837 0.17311 0.29993 0.0
C279 C 0.5014 0.19323 0.26343 0.0
C280 C 0.51021 0.27027 0.10945 0.0
C281 C 0.48752 0.2767 0.08353 0.0
C282 C 0.48577 0.29364 0.0357 0.0
C283 C 0.50669 0.30454 0.01312 0.0
C284 C 0.52949 0.29643 0.03554 0.0
C285 C 0.53118 0.27953 0.08286 0.0
C286 C 0.52654 0.29062 0.32382 0.0
C287 C 0.54358 0.30696 0.3057 0.0
O288 O 0.05157 0.97757 0.81059 0.0
Mg289 Mg 0.0476 0.98245 0.71356 0.0
O290 O 0.01289 0.98695 0.80704 0.0
Mg291 Mg 0.00334 0.00742 0.71511 0.0
O292 O 0.0432 0.01487 0.67448 0.0
O293 O 0.07834 0.99406 0.67742 0.0
O294 O 0.99433 0.0278 0.62215 0.0
O295 O 0.00816 0.04192 0.77228 0.0
Mg296 Mg 0.96063 0.03069 0.70688 0.0
O297 O 0.96361 0.0003 0.75787 0.0
O298 O 0.95513 0.03138 0.6094 0.0
O299 O 0.97393 0.06064 0.74957 0.0
O300 O 0.92959 0.02244 0.74846 0.0
C301 C 0.01215 0.95572 0.6429 0.0
C302 C 0.03105 0.97823 0.83681 0.0
C303 C 0.06631 0.01253 0.66058 0.0
C304 C 0.97621 0.03364 0.58775 0.0
C305 C 0.99455 0.06013 0.77597 0.0
C306 C 0.94067 0.0043 0.77105 0.0
O307 O 0.03422 0.9553 0.65951 0.0
O308 O 0.99808 0.97274 0.65811 0.0
O309 O 0.43841 0.99368 0.73858 0.0
Mg310 Mg 0.4574 0.97451 0.66607 0.0
O311 O 0.46738 0.0161 0.77684 0.0
Mg312 Mg 0.50252 0.00812 0.71782 0.0
O313 O 0.49034 0.97211 0.70579 0.0
O314 O 0.47077 0.94044 0.69026 0.0
O315 O 0.53782 0.0003 0.65957 0.0
O316 O 0.52318 0.99434 0.80336 0.0
Mg317 Mg 0.54709 0.04016 0.777 0.0
O318 O 0.51516 0.04391 0.73114 0.0
O319 O 0.56677 0.02046 0.70687 0.0
O320 O 0.54263 0.01957 0.86075 0.0
O321 O 0.53529 0.07475 0.75307 0.0
C322 C 0.46831 0.01536 0.58529 0.0
C323 C 0.44546 0.00908 0.7768 0.0
C324 C 0.48838 0.95046 0.71779 0.0
C325 C 0.56005 0.00618 0.66508 0.0
C326 C 0.53571 0.9991 0.85162 0.0
C327 C 0.51792 0.06563 0.72223 0.0
O328 O 0.46088 0.99479 0.58189 0.0
O329 O 0.48164 0.02164 0.63089 0.0
O330 O 0.53284 0.45692 0.73405 0.0
Mg331 Mg 0.54511 0.48827 0.69299 0.0
O332 O 0.50067 0.47378 0.77835 0.0
Mg333 Mg 0.5003 0.50882 0.72104 0.0
O334 O 0.54113 0.51626 0.75066 0.0
O335 O 0.57705 0.49894 0.72705 0.0
O336 O 0.50019 0.54401 0.66383 0.0
O337 O 0.49317 0.52943 0.81098 0.0
Mg338 Mg 0.44879 0.53404 0.73094 0.0
O339 O 0.45986 0.50245 0.69761 0.0
O340 O 0.46268 0.55938 0.66845 0.0
O341 O 0.45489 0.53955 0.82806 0.0
O342 O 0.42087 0.51407 0.70174 0.0
C343 C 0.52134 0.48603 0.58451 0.0
C344 C 0.51456 0.45594 0.7704 0.0
C345 C 0.56475 0.51481 0.75642 0.0
C346 C 0.48454 0.56003 0.64941 0.0
C347 C 0.47689 0.53898 0.84538 0.0
C348 C 0.43719 0.49896 0.68461 0.0
O349 O 0.54252 0.49273 0.59475 0.0
O350 O 0.50555 0.4883 0.62797 0.0
O351 O 0.96447 0.48458 0.85557 0.0
Mg352 Mg 0.96176 0.47057 0.76391 0.0
O353 O 0.98075 0.51483 0.81119 0.0
Mg354 Mg 1.0029 0.50638 0.72188 0.0
O355 O 0.99423 0.46796 0.7191 0.0
O356 O 0.97317 0.43699 0.7413 0.0
O357 O 0.02462 0.49867 0.63108 0.0
O358 O 0.03808 0.49786 0.78041 0.0
Mg359 Mg 0.04468 0.54367 0.68093 0.0
O360 O 0.01196 0.54413 0.7242 0.0
O361 O 0.04238 0.52903 0.5897 0.0
O362 O 0.06585 0.52226 0.74475 0.0
O363 O 0.03099 0.57653 0.70928 0.0
C364 C 0.94621 0.50733 0.66257 0.0
C365 C 0.96902 0.50588 0.85638 0.0
C366 C 0.99128 0.446 0.71261 0.0
C367 C 0.03642 0.50807 0.58656 0.0
C368 C 0.05976 0.50541 0.77999 0.0
C369 C 0.01336 0.5659 0.73544 0.0
O370 O 0.94014 0.49059 0.69815 0.0
O371 O 0.96777 0.51513 0.66336 0.0
H372 H 0.16571 0.0485 0.3786 0.0
H373 H 0.13522 0.11661 0.41595 0.0
H374 H 0.13705 0.03193 0.45215 0.0
H375 H 0.10657 0.09979 0.49099 0.0
H376 H 0.04754 0.04728 0.58211 0.0
H377 H 0.07051 0.06904 0.5024 0.0
H378 H 0.13732 0.03769 0.57254 0.0
H379 H 0.11491 0.01632 0.65058 0.0
C380 C 0.15251 0.05992 0.40126 0.0
C381 C 0.1529 0.08391 0.39151 0.0
C382 C 0.13622 0.05042 0.44394 0.0
C383 C 0.11983 0.06463 0.47793 0.0
C384 C 0.11905 0.08848 0.46549 0.0
C385 C 0.13555 0.09806 0.42289 0.0
C386 C 0.06713 0.04537 0.58078 0.0
C387 C 0.0793 0.02958 0.62144 0.0
C388 C 0.08023 0.05777 0.53531 0.0
C389 C 0.1056 0.05443 0.53016 0.0
C390 C 0.11773 0.04007 0.57415 0.0
C391 C 0.10482 0.02789 0.61914 0.0
H392 H 0.45225 0.16168 0.44548 0.0
H393 H 0.52352 0.14116 0.37697 0.0
H394 H 0.45629 0.13322 0.53062 0.0
H395 H 0.52712 0.11231 0.4609 0.0
H396 H 0.52096 0.05273 0.60016 0.0
H397 H 0.51067 0.07615 0.50666 0.0
H398 H 0.48285 0.13068 0.62676 0.0
H399 H 0.49349 0.10726 0.72007 0.0
C400 C 0.46868 0.15097 0.448 0.0
C401 C 0.48769 0.15405 0.40447 0.0
C402 C 0.47094 0.13463 0.49685 0.0
C403 C 0.49212 0.12065 0.50299 0.0
C404 C 0.51048 0.12267 0.4573 0.0
C405 C 0.50835 0.1392 0.40884 0.0
C406 C 0.51207 0.0695 0.60632 0.0
C407 C 0.50742 0.07803 0.66714 0.0
C408 C 0.50645 0.08301 0.55288 0.0
C409 C 0.4959 0.10528 0.55917 0.0
C410 C 0.49058 0.11346 0.62018 0.0
C411 C 0.49663 0.1001 0.67363 0.0
H412 H 0.35336 0.46183 0.38069 0.0
H413 H 0.34896 0.39917 0.49166 0.0
H414 H 0.38625 0.47449 0.44785 0.0
H415 H 0.38139 0.41226 0.55979 0.0
H416 H 0.40337 0.46771 0.71252 0.0
H417 H 0.38101 0.44495 0.63694 0.0
H418 H 0.42914 0.46664 0.4884 0.0
H419 H 0.45161 0.4894 0.56488 0.0
C420 C 0.35972 0.45048 0.4184 0.0
C421 C 0.34816 0.4296 0.43109 0.0
C422 C 0.37863 0.45777 0.45697 0.0
C423 C 0.38633 0.44443 0.50939 0.0
C424 C 0.37567 0.42303 0.52019 0.0
C425 C 0.35695 0.41563 0.48131 0.0
C426 C 0.4098 0.46674 0.66427 0.0
C427 C 0.42944 0.47988 0.64463 0.0
C428 C 0.39696 0.45379 0.62086 0.0
C429 C 0.40318 0.45413 0.55654 0.0
C430 C 0.42384 0.46615 0.53758 0.0
C431 C 0.43693 0.47886 0.58141 0.0
H432 H 0.05087 0.37932 0.37126 0.0
H433 H 0.99579 0.3368 0.45339 0.0
H434 H 0.04684 0.40587 0.46043 0.0
H435 H 0.99148 0.36344 0.54098 0.0
H436 H 0.00519 0.40078 0.72064 0.0
H437 H 0.01635 0.37535 0.63319 0.0
H438 H 0.01403 0.43375 0.50587 0.0
H439 H 0.00396 0.45937 0.59401 0.0
C440 C 0.03782 0.3757 0.408 0.0
C441 C 0.02351 0.35598 0.40474 0.0
C442 C 0.03546 0.39096 0.45889 0.0
C443 C 0.01897 0.38668 0.508 0.0
C444 C 0.0046 0.36708 0.50442 0.0
C445 C 0.0068 0.35198 0.45355 0.0
C446 C 0.00812 0.40831 0.67441 0.0
C447 C 0.0043 0.43213 0.6644 0.0
C448 C 0.0142 0.39373 0.62419 0.0
C449 C 0.01622 0.4026 0.56255 0.0
C450 C 0.01348 0.42658 0.55305 0.0
C451 C 0.00777 0.44125 0.60359 0.0
H452 H 0.86097 0.90096 0.98628 0.0
H453 H 0.84683 0.967 0.07457 0.0
H454 H 0.89091 0.9187 0.91693 0.0
H455 H 0.87705 0.98431 0.00698 0.0
H456 H 0.89464 0.01201 0.8122 0.0
H457 H 0.87215 0.99076 0.88964 0.0
H458 H 0.93215 0.94166 0.9105 0.0
H459 H 0.95531 0.9633 0.83109 0.0
C460 C 0.86452 0.91913 0.9917 0.0
C461 C 0.85124 0.9326 0.03561 0.0
C462 C 0.88186 0.92919 0.95243 0.0
C463 C 0.88611 0.95292 0.95613 0.0
C464 C 0.87397 0.966 0.00268 0.0
C465 C 0.85677 0.956 0.04185 0.0
C466 C 0.90329 0.99669 0.83276 0.0
C467 C 0.92702 0.98956 0.81562 0.0
C468 C 0.89033 0.98459 0.87777 0.0
C469 C 0.90053 0.96484 0.90713 0.0
C470 C 0.92394 0.95699 0.88886 0.0
C471 C 0.93718 0.96937 0.84361 0.0
H472 H 0.54863 0.85559 0.00672 0.0
H473 H 0.47964 0.88373 0.07122 0.0
H474 H 0.54774 0.88288 0.91789 0.0
H475 H 0.47861 0.91075 0.9824 0.0
H476 H 0.48751 0.96612 0.83752 0.0
H477 H 0.49782 0.94434 0.93355 0.0
H478 H 0.52234 0.88651 0.82048 0.0
H479 H 0.51219 0.90856 0.72445 0.0
C480 C 0.5335 0.86789 0.00265 0.0
C481 C 0.51413 0.86742 0.04595 0.0
C482 C 0.5329 0.88337 0.95141 0.0
C483 C 0.51306 0.89893 0.94279 0.0
C484 C 0.49428 0.89917 0.98783 0.0
C485 C 0.49476 0.88355 0.03854 0.0
C486 C 0.49601 0.9491 0.83327 0.0
C487 C 0.49976 0.93924 0.77361 0.0
C488 C 0.50152 0.93646 0.88826 0.0
C489 C 0.5108 0.91362 0.88481 0.0
C490 C 0.51555 0.90416 0.82491 0.0
C491 C 0.50978 0.91675 0.76988 0.0
H492 H 0.64108 0.56099 0.08622 0.0
H493 H 0.6711 0.60117 0.93387 0.0
H494 H 0.61143 0.54552 0.01328 0.0
H495 H 0.64068 0.58702 0.86281 0.0
H496 H 0.60942 0.53149 0.73741 0.0
H497 H 0.6346 0.55163 0.81168 0.0
H498 H 0.57587 0.55249 0.94706 0.0
H499 H 0.55105 0.53099 0.87279 0.0
C500 C 0.64126 0.56674 0.03752 0.0
C501 C 0.65869 0.58232 0.01628 0.0
C502 C 0.62399 0.55811 0.99582 0.0
C503 C 0.6237 0.56488 0.93188 0.0
C504 C 0.64054 0.58109 0.91139 0.0
C505 C 0.65785 0.58952 0.95269 0.0
C506 C 0.60174 0.53631 0.78266 0.0
C507 C 0.57807 0.53016 0.79879 0.0
C508 C 0.61614 0.54801 0.82528 0.0
C509 C 0.6073 0.55389 0.88548 0.0
C510 C 0.58332 0.54818 0.90123 0.0
C511 C 0.56888 0.53635 0.85828 0.0
H512 H 0.946 0.66344 0.00211 0.0
H513 H 0.01264 0.63526 0.08237 0.0
H514 H 0.94915 0.63558 0.9162 0.0
H515 H 0.01579 0.6074 0.99653 0.0
H516 H 0.00798 0.55029 0.85538 0.0
H517 H 0.99625 0.57342 0.94727 0.0
H518 H 0.97844 0.63131 0.82484 0.0
H519 H 0.99096 0.60837 0.73331 0.0
C520 C 0.96103 0.65096 0.0022 0.0
C521 C 0.97909 0.65157 0.04911 0.0
C522 C 0.96293 0.63513 0.95267 0.0
C523 C 0.98272 0.61929 0.94941 0.0
C524 C 1.00018 0.61921 0.99792 0.0
C525 C 0.99848 0.63526 0.04691 0.0
C526 C 1.0006 0.56764 0.84797 0.0
C527 C 0.99982 0.57739 0.78713 0.0
C528 C 0.99421 0.58098 0.90063 0.0
C529 C 0.98632 0.60415 0.8934 0.0
C530 C 0.9841 0.61342 0.83204 0.0
C531 C 0.99116 0.60028 0.77957 0.0
H532 H 0.98574 0.16383 0.38676 0.0
H533 H 0.05534 0.14429 0.46768 0.0
H534 H 0.97067 0.1257 0.41121 0.0
H535 H 0.04007 0.10641 0.49518 0.0
H536 H 0.01549 0.03584 0.51001 0.0
H537 H 0.02796 0.07055 0.45411 0.0
H538 H 0.95864 0.1037 0.49775 0.0
H539 H 0.94598 0.06891 0.55038 0.0
C540 C 0.99761 0.15144 0.41106 0.0
C541 C 0.02155 0.15695 0.42622 0.0
C542 C 0.98906 0.12957 0.42473 0.0
C543 C 0.00419 0.11289 0.45468 0.0
C544 C 0.0281 0.1186 0.47054 0.0
C545 C 0.03677 0.14038 0.45587 0.0
C546 C 1.00269 0.05031 0.50537 0.0
C547 C 0.98003 0.04991 0.53549 0.0
C548 C 0.00991 0.07028 0.47427 0.0
C549 C 0.99465 0.09019 0.47354 0.0
C550 C 0.97092 0.08876 0.49738 0.0
C551 C 0.96358 0.06869 0.52749 0.0
H552 H 0.38655 0.13705 0.43892 0.0
H553 H 0.34059 0.07817 0.45828 0.0
H554 H 0.42206 0.11237 0.46648 0.0
H555 H 0.3757 0.05392 0.48619 0.0
H556 H 0.44301 0.01052 0.47497 0.0
H557 H 0.41396 0.03878 0.42954 0.0
H558 H 0.43568 0.08919 0.56571 0.0
H559 H 0.46345 0.06092 0.61286 0.0
C560 C 0.38401 0.11898 0.44984 0.0
C561 C 0.36077 0.10961 0.44725 0.0
C562 C 0.40427 0.1049 0.46519 0.0
C563 C 0.40159 0.08121 0.47706 0.0
C564 C 0.37832 0.07203 0.47579 0.0
C565 C 0.35815 0.08606 0.46119 0.0
C566 C 0.44212 0.02784 0.49387 0.0
C567 C 0.45597 0.03356 0.54679 0.0
C568 C 0.42546 0.04396 0.4681 0.0
C569 C 0.42256 0.06606 0.49455 0.0
C570 C 0.43778 0.07238 0.54396 0.0
C571 C 0.45403 0.05619 0.57038 0.0
H572 H 0.4875 0.35819 0.39645 0.0
H573 H 0.56475 0.3603 0.42936 0.0
H574 H 0.4829 0.3986 0.42628 0.0
H575 H 0.5602 0.40052 0.46189 0.0
H576 H 0.55111 0.47523 0.48492 0.0
H577 H 0.5513 0.43914 0.42646 0.0
H578 H 0.48443 0.42076 0.51861 0.0
H579 H 0.4839 0.45675 0.57495 0.0
C580 C 0.50342 0.36729 0.41123 0.0
C581 C 0.52643 0.35621 0.41162 0.0
C582 C 0.50084 0.39043 0.42792 0.0
C583 C 0.52119 0.40285 0.44609 0.0
C584 C 0.54422 0.39164 0.44664 0.0
C585 C 0.54684 0.36856 0.42902 0.0
C586 C 0.53602 0.46383 0.49081 0.0
C587 C 0.51765 0.46873 0.53509 0.0
C588 C 0.53628 0.44304 0.45799 0.0
C589 C 0.51825 0.42681 0.46924 0.0
C590 C 0.49859 0.43284 0.50858 0.0
C591 C 0.49823 0.45365 0.54087 0.0
H592 H 0.11776 0.41636 0.33558 0.0
H593 H 0.1357 0.39663 0.52756 0.0
H594 H 0.08625 0.44296 0.374 0.0
H595 H 0.10442 0.42381 0.56568 0.0
H596 H 0.08386 0.49976 0.59966 0.0
H597 H 0.10796 0.46808 0.55445 0.0
H598 H 0.04666 0.44911 0.44111 0.0
H599 H 0.02191 0.48047 0.48949 0.0
C600 C 0.11445 0.417 0.38588 0.0
C601 C 0.12962 0.40462 0.42863 0.0
C602 C 0.09644 0.43241 0.40774 0.0
C603 C 0.09344 0.43582 0.47262 0.0
C604 C 0.10686 0.42181 0.51528 0.0
C605 C 0.12472 0.40627 0.49348 0.0
C606 C 0.07568 0.48908 0.56416 0.0
C607 C 0.05123 0.49254 0.54726 0.0
C608 C 0.0893 0.47075 0.53918 0.0
C609 C 0.07884 0.45576 0.49594 0.0
C610 C 0.05486 0.46019 0.4755 0.0
C611 C 0.04088 0.4782 0.50229 0.0
H612 H 0.96077 0.86247 0.95317 0.0
H613 H 0.02684 0.85253 0.06081 0.0
H614 H 0.97272 0.90137 0.9246 0.0
H615 H 0.03851 0.89171 0.03455 0.0
H616 H 0.06321 0.94734 0.89066 0.0
H617 H 0.05224 0.9128 0.94711 0.0
H618 H 0.97831 0.93937 0.96372 0.0
H619 H 0.98918 0.9738 0.90464 0.0
C620 C 0.97785 0.86871 0.97062 0.0
C621 C 0.99308 0.85453 0.00822 0.0
C622 C 0.98455 0.89107 0.95525 0.0
C623 C 0.00646 0.89978 0.97802 0.0
C624 C 0.02164 0.88549 0.0158 0.0
C625 C 0.01507 0.86303 0.03045 0.0
C626 C 0.04478 0.94625 0.90814 0.0
C627 C 0.02684 0.96291 0.89127 0.0
C628 C 0.03847 0.92634 0.94066 0.0
C629 C 0.01419 0.92297 0.95796 0.0
C630 C 0.99699 0.94111 0.94883 0.0
C631 C 0.00327 0.96095 0.91568 0.0
H632 H 0.6121 0.88054 0.03798 0.0
H633 H 0.66117 0.92665 0.94368 0.0
H634 H 0.57759 0.90491 0.00202 0.0
H635 H 0.62666 0.94981 0.90584 0.0
H636 H 0.54769 0.95769 0.8011 0.0
H637 H 0.57443 0.92756 0.84459 0.0
H638 H 0.58168 0.96657 0.01545 0.0
H639 H 0.55417 0.99708 0.97238 0.0
C640 C 0.61559 0.89553 0.00894 0.0
C641 C 0.63958 0.90164 0.99433 0.0
C642 C 0.59584 0.90937 0.98849 0.0
C643 C 0.59981 0.92924 0.95247 0.0
C644 C 0.62342 0.9346 0.93438 0.0
C645 C 0.64313 0.92102 0.95525 0.0
C646 C 0.554 0.95952 0.84913 0.0
C647 C 0.54835 0.97959 0.88404 0.0
C648 C 0.56942 0.94227 0.87363 0.0
C649 C 0.57966 0.9448 0.93326 0.0
C650 C 0.57348 0.96429 0.96956 0.0
C651 C 0.55791 0.98168 0.94499 0.0
H652 H 0.4719 0.67189 0.00708 0.0
H653 H 0.54758 0.65175 0.03116 0.0
H654 H 0.46379 0.63375 0.96609 0.0
H655 H 0.53911 0.61316 0.9959 0.0
H656 H 0.5206 0.55856 0.85157 0.0
H657 H 0.53033 0.59347 0.90485 0.0
H658 H 0.46002 0.59437 0.99603 0.0
H659 H 0.44997 0.55909 0.94029 0.0
C660 C 0.48683 0.65939 0.00324 0.0
C661 C 0.51037 0.66482 0.02247 0.0
C662 C 0.48206 0.63733 0.98124 0.0
C663 C 0.5007 0.62023 0.97879 0.0
C664 C 0.52432 0.62589 0.99685 0.0
C665 C 0.52916 0.648 0.01757 0.0
C666 C 0.50762 0.56541 0.88536 0.0
C667 C 0.48465 0.55578 0.89245 0.0
C668 C 0.51312 0.58575 0.91557 0.0
C669 C 0.49586 0.59694 0.95422 0.0
C670 C 0.47351 0.58642 0.96532 0.0
C671 C 0.46788 0.56605 0.93432 0.0
H672 H 0.89057 0.62902 0.98824 0.0
H673 H 0.83665 0.57722 0.96263 0.0
H674 H 0.92237 0.60107 0.95514 0.0
H675 H 0.86788 0.54949 0.93273 0.0
H676 H 0.92325 0.51076 0.82024 0.0
H677 H 0.89375 0.54035 0.85042 0.0
H678 H 0.94441 0.56622 0.9871 0.0
H679 H 0.97469 0.53662 0.95346 0.0
C680 C 0.88551 0.61182 0.9747 0.0
C681 C 0.86106 0.6055 0.97634 0.0
C682 C 0.9037 0.59576 0.95662 0.0
C683 C 0.8977 0.57305 0.94084 0.0
C684 C 0.8732 0.56694 0.94267 0.0
C685 C 0.85517 0.58295 0.95958 0.0
C686 C 0.92785 0.52245 0.85781 0.0
C687 C 0.95088 0.52124 0.88581 0.0
C688 C 0.91098 0.5395 0.87505 0.0
C689 C 0.9165 0.55555 0.92189 0.0
C690 C 0.93962 0.55421 0.95059 0.0
C691 C 0.95681 0.53719 0.93223 0.0
H692 H 0.01287 0.20098 0.9094 0.0
H693 H 0.05169 0.15811 0.04552 0.0
H694 H 0.00408 0.16672 0.84798 0.0
H695 H 0.04263 0.12392 0.98502 0.0
H696 H 0.03836 0.06778 0.83473 0.0
H697 H 0.05023 0.10255 0.89051 0.0
H698 H 0.97947 0.13392 0.85308 0.0
H699 H 0.96799 0.09979 0.79642 0.0
C700 C 0.01952 0.18426 0.92623 0.0
C701 C 0.03312 0.1824 0.98221 0.0
C702 C 0.01443 0.16456 0.89115 0.0
C703 C 0.02258 0.14241 0.91144 0.0
C704 C 0.03641 0.14063 0.96712 0.0
C705 C 0.0416 0.16032 0.00192 0.0
C706 C 0.02541 0.08215 0.83832 0.0
C707 C 1.00225 0.08092 0.81083 0.0
C708 C 0.03215 0.10208 0.87056 0.0
C709 C 0.01588 0.12123 0.87615 0.0
C710 C 0.99273 0.11984 0.84877 0.0
C711 C 0.98606 0.10006 0.81657 0.0
H712 H 0.3411 0.10401 0.94946 0.0
H713 H 0.32875 0.03941 0.04606 0.0
H714 H 0.37393 0.08553 0.88941 0.0
H715 H 0.36114 0.02089 0.9846 0.0
H716 H 0.40154 0.99203 0.80944 0.0
H717 H 0.36985 0.0101 0.87376 0.0
H718 H 0.41571 0.06793 0.90725 0.0
H719 H 0.44764 0.04983 0.84226 0.0
C720 C 0.34532 0.08588 0.958 0.0
C721 C 0.33215 0.07327 0.00288 0.0
C722 C 0.36421 0.07532 0.92359 0.0
C723 C 0.37026 0.05179 0.93252 0.0
C724 C 0.3568 0.03902 0.97625 0.0
C725 C 0.33806 0.04963 0.01115 0.0
C726 C 0.40501 0.00855 0.83073 0.0
C727 C 0.42715 0.01951 0.8204 0.0
C728 C 0.38683 0.01885 0.86792 0.0
C729 C 0.3902 0.04049 0.8954 0.0
C730 C 0.41248 0.05134 0.8861 0.0
C731 C 0.43084 0.04089 0.84931 0.0
H732 H 0.47152 0.33953 0.01226 0.0
H733 H 0.53826 0.31797 0.9199 0.0
H734 H 0.47072 0.37523 0.95095 0.0
H735 H 0.53862 0.35429 0.86307 0.0
H736 H 0.52706 0.41301 0.72945 0.0
H737 H 0.52238 0.37628 0.78277 0.0
H738 H 0.48804 0.41141 0.93999 0.0
H739 H 0.49157 0.44829 0.88402 0.0
C740 C 0.48594 0.34221 0.97853 0.0
C741 C 0.50496 0.3256 0.97139 0.0
C742 C 0.48572 0.36302 0.94407 0.0
C743 C 0.50464 0.36799 0.90181 0.0
C744 C 0.52342 0.35119 0.89406 0.0
C745 C 0.52344 0.33031 0.92769 0.0
C746 C 0.51834 0.41291 0.77526 0.0
C747 C 0.50987 0.43363 0.80269 0.0
C748 C 0.51583 0.39175 0.80632 0.0
C749 C 0.50523 0.39061 0.86666 0.0
C750 C 0.49611 0.41137 0.89346 0.0
C751 C 0.49822 0.43261 0.86157 0.0
H752 H 0.15792 0.46918 0.08691 0.0
H753 H 0.18719 0.4305 0.92971 0.0
H754 H 0.12424 0.48357 0.02068 0.0
H755 H 0.1536 0.44512 0.86322 0.0
H756 H 0.10814 0.50276 0.75609 0.0
H757 H 0.14039 0.48588 0.82204 0.0
H758 H 0.08726 0.46605 0.96038 0.0
H759 H 0.05465 0.48271 0.89347 0.0
C760 C 0.15728 0.46398 0.03798 0.0
C761 C 0.17531 0.44895 0.01316 0.0
C762 C 0.13786 0.47197 0.0004 0.0
C763 C 0.1363 0.46539 0.93696 0.0
C764 C 0.15443 0.4505 0.91197 0.0
C765 C 0.17361 0.44217 0.94988 0.0
C766 C 0.10327 0.49474 0.80047 0.0
C767 C 0.07886 0.49416 0.81979 0.0
C768 C 0.12175 0.48495 0.83799 0.0
C769 C 0.11633 0.47472 0.89628 0.0
C770 C 0.09191 0.47397 0.9157 0.0
C771 C 0.07329 0.48338 0.87739 0.0
H772 H 0.93435 0.84247 0.46681 0.0
H773 H 0.0107 0.82292 0.45997 0.0
H774 H 0.94422 0.87825 0.51789 0.0
H775 H 0.02024 0.85734 0.51729 0.0
H776 H 0.03655 0.93099 0.55426 0.0
H777 H 0.02454 0.89592 0.50264 0.0
H778 H 0.9563 0.89883 0.60398 0.0
H779 H 0.96798 0.93508 0.65223 0.0
C780 C 0.95326 0.84555 0.47667 0.0
C781 C 0.97168 0.82966 0.45762 0.0
C782 C 0.95891 0.8661 0.50718 0.0
C783 C 0.98316 0.87123 0.52111 0.0
C784 C 1.0014 0.85463 0.50571 0.0
C785 C 0.99582 0.83437 0.47389 0.0
C786 C 0.01883 0.92426 0.56481 0.0
C787 C 0.0032 0.93578 0.60722 0.0
C788 C 0.01202 0.90386 0.53588 0.0
C789 C 0.98958 0.8939 0.54982 0.0
C790 C 0.97364 0.90585 0.5913 0.0
C791 C 0.98028 0.92668 0.61916 0.0
H792 H 0.6478 0.91963 0.41189 0.0
H793 H 0.69512 0.97429 0.4663 0.0
H794 H 0.61559 0.93633 0.47663 0.0
H795 H 0.66226 0.99197 0.52731 0.0
H796 H 0.60881 0.0047 0.68542 0.0
H797 H 0.64052 0.98738 0.62075 0.0
H798 H 0.58665 0.96696 0.48536 0.0
H799 H 0.55456 0.98359 0.55223 0.0
C800 C 0.65145 0.93516 0.4379 0.0
C801 C 0.67433 0.94538 0.43433 0.0
C802 C 0.63271 0.94502 0.4742 0.0
C803 C 0.63617 0.96556 0.50747 0.0
C804 C 0.65895 0.97593 0.50331 0.0
C805 C 0.67779 0.96593 0.46756 0.0
C806 C 0.60364 0.99659 0.64175 0.0
C807 C 0.57909 0.99565 0.62391 0.0
C808 C 0.62194 0.98674 0.60429 0.0
C809 C 0.61633 0.97589 0.54727 0.0
C810 C 0.59172 0.97491 0.52929 0.0
C811 C 0.57328 0.98455 0.56741 0.0
H812 H 0.5506 0.68537 0.49997 0.0
H813 H 0.47351 0.69323 0.46309 0.0
H814 H 0.54438 0.64748 0.54406 0.0
H815 H 0.46695 0.65682 0.51488 0.0
H816 H 0.46008 0.58161 0.55373 0.0
H817 H 0.46872 0.61835 0.50393 0.0
H818 H 0.53256 0.62362 0.62177 0.0
H819 H 0.52472 0.58576 0.66707 0.0
C820 C 0.53222 0.67929 0.50161 0.0
C821 C 0.5127 0.69268 0.47625 0.0
C822 C 0.52857 0.65745 0.52835 0.0
C823 C 0.50513 0.64845 0.53272 0.0
C824 C 0.48545 0.66244 0.51079 0.0
C825 C 0.48919 0.68394 0.48226 0.0
C826 C 0.47624 0.59049 0.56781 0.0
C827 C 0.49183 0.58079 0.61381 0.0
C828 C 0.48104 0.61187 0.54011 0.0
C829 C 0.50114 0.62466 0.55929 0.0
C830 C 0.51707 0.6145 0.60459 0.0
C831 C 0.51262 0.5927 0.63086 0.0
H832 H 0.83097 0.53561 0.38842 0.0
H833 H 0.83947 0.60035 0.48489 0.0
H834 H 0.86305 0.51798 0.45346 0.0
H835 H 0.87206 0.58278 0.54851 0.0
H836 H 0.94702 0.54895 0.59905 0.0
H837 H 0.91478 0.56659 0.53338 0.0
H838 H 0.8706 0.5073 0.5658 0.0
H839 H 0.90256 0.4897 0.63081 0.0
C840 C 0.83935 0.54603 0.42407 0.0
C841 C 0.83249 0.56945 0.43122 0.0
C842 C 0.85792 0.53594 0.46103 0.0
C843 C 0.87024 0.54905 0.50573 0.0
C844 C 0.86321 0.57234 0.51366 0.0
C845 C 0.84447 0.58238 0.47719 0.0
C846 C 0.93049 0.53964 0.59182 0.0
C847 C 0.9274 0.51792 0.62033 0.0
C848 C 0.91196 0.54981 0.55461 0.0
C849 C 0.89012 0.53834 0.54453 0.0
C850 C 0.88726 0.5165 0.5722 0.0
C851 C 0.90559 0.50647 0.60979 0.0
loop_
_geom_bond_atom_site_label_1
_geom_bond_atom_site_label_2
_geom_bond_distance
_geom_bond_site_symmetry_2
_ccdc_geom_bond_type
C0 C1 1.384 . S
C0 H13 0.947 . S
C0 C35 1.382 . S
C1 C0 1.384 . S
C1 C2 1.378 . S
C2 C1 1.378 . S
C2 C3 1.378 . S
C2 H14 0.952 . S
C3 C2 1.378 . S
C3 H15 0.950 . S
C3 C34 1.383 . S
H4 C23 0.947 . S
H5 C24 0.946 . S
H6 C26 0.953 . S
H7 C27 0.945 1_556 S
H8 C29 0.952 . S
H9 C30 0.949 . S
H10 C32 0.950 . S
H11 C33 0.948 . S
H12 C35 0.951 . S
H13 C0 0.947 . S
H14 C2 0.952 . S
H15 C3 0.950 . S
N16 C19 1.382 . S
N16 C21 1.363 . S
N17 C19 1.371 . S
N17 C20 1.372 . S
N18 C20 1.361 . S
N18 C21 1.377 . S
C19 N16 1.382 . S
C19 N17 1.371 . S
C19 C22 1.480 . S
C20 N17 1.372 . S
C20 N18 1.361 . S
C20 C28 1.457 . S
C21 N16 1.363 . S
C21 N18 1.377 . S
C21 C34 1.479 . S
C22 C19 1.480 . S
C22 C23 1.383 . S
C22 C27 1.385 . S
C23 H4 0.947 . S
C23 C22 1.383 . S
C23 C24 1.388 . S
C24 H5 0.946 . S
C24 C23 1.388 . S
C24 C25 1.384 . S
C25 C24 1.384 . S
C25 C26 1.377 1_554 S
C26 H6 0.953 . S
C26 C25 1.377 1_556 S
C26 C27 1.369 1_556 S
C27 H7 0.945 1_554 S
C27 C22 1.385 . S
C27 C26 1.369 1_554 S
C28 C20 1.457 . S
C28 C29 1.372 1_554 S
C28 C33 1.364 . S
C29 H8 0.952 . S
C29 C28 1.372 1_556 S
C29 C30 1.389 . S
C30 H9 0.949 . S
C30 C29 1.389 . S
C30 C31 1.387 . S
C31 C30 1.387 . S
C31 C32 1.372 . S
C32 H10 0.950 . S
C32 C31 1.372 . S
C32 C33 1.379 1_556 S
C33 H11 0.948 . S
C33 C28 1.364 . S
C33 C32 1.379 1_554 S
C34 C3 1.383 . S
C34 C21 1.479 . S
C34 C35 1.398 . S
C35 C0 1.382 . S
C35 H12 0.951 . S
C35 C34 1.398 . S
C36 C37 1.384 1_655 S
C36 H49 0.948 . S
C36 C71 1.382 1_655 S
C37 C36 1.384 1_455 S
C37 C38 1.378 . S
C38 C37 1.378 . S
C38 C39 1.378 . S
C38 H50 0.952 . S
C39 C38 1.378 . S
C39 H51 0.950 . S
C39 C70 1.383 . S
H40 C59 0.947 . S
H41 C60 0.952 . S
H42 C62 0.953 1_556 S
H43 C63 0.945 1_556 S
H44 C65 0.948 1_655 S
H45 C66 0.957 . S
H46 C68 0.950 1_554 S
H47 C69 0.948 . S
H48 C71 0.951 1_655 S
H49 C36 0.948 . S
H50 C38 0.952 . S
H51 C39 0.950 . S
N52 C55 1.382 . S
N52 C57 1.363 . S
N53 C55 1.371 . S
N53 C56 1.372 . S
N54 C56 1.361 . S
N54 C57 1.377 . S
C55 N52 1.382 . S
C55 N53 1.371 . S
C55 C58 1.480 . S
C56 N53 1.372 . S
C56 N54 1.361 . S
C56 C64 1.457 . S
C57 N52 1.363 . S
C57 N54 1.377 . S
C57 C70 1.479 . S
C58 C55 1.480 . S
C58 C59 1.383 . S
C58 C63 1.385 . S
C59 H40 0.947 . S
C59 C58 1.383 . S
C59 C60 1.385 1_455 S
C60 H41 0.952 . S
C60 C59 1.385 1_655 S
C60 C61 1.382 1_655 S
C61 C60 1.382 1_455 S
C61 C62 1.377 . S
C62 H42 0.953 1_554 S
C62 C61 1.377 . S
C62 C63 1.369 . S
C63 H43 0.945 1_554 S
C63 C58 1.385 . S
C63 C62 1.369 . S
C64 C56 1.457 . S
C64 C65 1.376 1_554 S
C64 C69 1.364 . S
C65 H44 0.948 1_455 S
C65 C64 1.376 1_556 S
C65 C66 1.388 1_455 S
C66 H45 0.957 . S
C66 C65 1.388 1_655 S
C66 C67 1.381 1_655 S
C67 C66 1.381 1_455 S
C67 C68 1.372 . S
C68 H46 0.950 1_556 S
C68 C67 1.372 . S
C68 C69 1.379 1_556 S
C69 H47 0.948 . S
C69 C64 1.364 . S
C69 C68 1.379 1_554 S
C70 C39 1.383 . S
C70 C57 1.479 . S
C70 C71 1.398 . S
C71 C36 1.382 1_455 S
C71 H48 0.951 1_455 S
C71 C70 1.398 . S
C72 C73 1.384 . S
C72 H85 0.947 . S
C72 C107 1.382 . S
C73 C72 1.384 . S
C73 C74 1.378 . S
C74 C73 1.378 . S
C74 C75 1.378 . S
C74 H86 0.952 . S
C75 C74 1.378 . S
C75 H87 0.950 . S
C75 C106 1.383 . S
H76 C95 0.947 . S
H77 C96 0.946 . S
H78 C98 0.953 . S
H79 C99 0.945 1_556 S
H80 C101 0.952 . S
H81 C102 0.949 . S
H82 C104 0.950 . S
H83 C105 0.948 . S
H84 C107 0.951 . S
H85 C72 0.947 . S
H86 C74 0.952 . S
H87 C75 0.950 . S
N88 C91 1.382 . S
N88 C93 1.363 . S
N89 C91 1.371 . S
N89 C92 1.372 . S
N90 C92 1.361 . S
N90 C93 1.377 . S
C91 N88 1.382 . S
C91 N89 1.371 . S
C91 C94 1.480 . S
C92 N89 1.372 . S
C92 N90 1.361 . S
C92 C100 1.457 . S
C93 N88 1.363 . S
C93 N90 1.377 . S
C93 C106 1.479 . S
C94 C91 1.480 . S
C94 C95 1.383 . S
C94 C99 1.385 . S
C95 H76 0.947 . S
C95 C94 1.383 . S
C95 C96 1.388 . S
C96 H77 0.946 . S
C96 C95 1.388 . S
C96 C97 1.384 . S
C97 C96 1.384 . S
C97 C98 1.377 1_554 S
C98 H78 0.953 . S
C98 C97 1.377 1_556 S
C98 C99 1.369 1_556 S
C99 H79 0.945 1_554 S
C99 C94 1.385 . S
C99 C98 1.369 1_554 S
C100 C92 1.457 . S
C100 C101 1.372 1_554 S
C100 C105 1.364 . S
C101 H80 0.952 . S
C101 C100 1.372 1_556 S
C101 C102 1.389 . S
C102 H81 0.949 . S
C102 C101 1.389 . S
C102 C103 1.387 . S
C103 C102 1.387 . S
C103 C104 1.372 . S
C104 H82 0.950 . S
C104 C103 1.372 . S
C104 C105 1.379 1_556 S
C105 H83 0.948 . S
C105 C100 1.364 . S
C105 C104 1.379 1_554 S
C106 C75 1.383 . S
C106 C93 1.479 . S
C106 C107 1.398 . S
C107 C72 1.382 . S
C107 H84 0.951 . S
C107 C106 1.398 . S
C108 C109 1.384 . S
C108 H121 0.947 1_556 S
C108 C143 1.382 1_556 S
C109 C108 1.384 . S
C109 C110 1.378 . S
C110 C109 1.378 . S
C110 C111 1.378 . S
C110 H122 0.952 . S
C111 C110 1.378 . S
C111 H123 0.950 . S
C111 C142 1.383 1_556 S
H112 C131 0.947 . S
H113 C132 0.946 1_556 S
H114 C134 0.953 . S
H115 C135 0.945 . S
H116 C137 0.952 . S
H117 C138 0.949 . S
H118 C140 0.950 . S
H119 C141 0.948 . S
H120 C143 0.951 . S
H121 C108 0.947 1_554 S
H122 C110 0.952 . S
H123 C111 0.950 . S
N124 C127 1.382 . S
N124 C129 1.363 . S
N125 C127 1.371 . S
N125 C128 1.372 . S
N126 C128 1.361 . S
N126 C129 1.377 . S
C127 N124 1.382 . S
C127 N125 1.371 . S
C127 C130 1.480 . S
C128 N125 1.372 . S
C128 N126 1.361 . S
C128 C136 1.457 . S
C129 N124 1.363 . S
C129 N126 1.377 . S
C129 C142 1.479 . S
C130 C127 1.480 . S
C130 C131 1.383 . S
C130 C135 1.385 . S
C131 H112 0.947 . S
C131 C130 1.383 . S
C131 C132 1.388 . S
C132 H113 0.946 1_554 S
C132 C131 1.388 . S
C132 C133 1.384 . S
C133 C132 1.384 . S
C133 C134 1.377 . S
C134 H114 0.953 . S
C134 C133 1.377 . S
C134 C135 1.369 . S
C135 H115 0.945 . S
C135 C130 1.385 . S
C135 C134 1.369 . S
C136 C128 1.457 . S
C136 C137 1.372 . S
C136 C141 1.364 . S
C137 H116 0.952 . S
C137 C136 1.372 . S
C137 C138 1.389 . S
C138 H117 0.949 . S
C138 C137 1.389 . S
C138 C139 1.387 . S
C139 C138 1.387 . S
C139 C140 1.372 . S
C140 H118 0.950 . S
C140 C139 1.372 . S
C140 C141 1.379 . S
C141 H119 0.948 . S
C141 C136 1.364 . S
C141 C140 1.379 . S
C142 C111 1.383 1_554 S
C142 C129 1.479 . S
C142 C143 1.398 . S
C143 C108 1.382 1_554 S
C143 H120 0.951 . S
C143 C142 1.398 . S
C144 C145 1.384 . S
C144 H157 0.947 . S
C144 C179 1.382 . S
C145 C144 1.384 . S
C145 C146 1.378 . S
C146 C145 1.378 . S
C146 C147 1.378 . S
C146 H158 0.952 . S
C147 C146 1.378 . S
C147 H159 0.950 . S
C147 C178 1.383 . S
H148 C167 0.947 . S
H149 C168 0.946 . S
H150 C170 0.953 . S
H151 C171 0.945 . S
H152 C173 0.952 . S
H153 C174 0.949 . S
H154 C176 0.950 . S
H155 C177 0.948 . S
H156 C179 0.951 . S
H157 C144 0.947 . S
H158 C146 0.952 . S
H159 C147 0.950 . S
N160 C163 1.382 . S
N160 C165 1.363 . S
N161 C163 1.371 . S
N161 C164 1.372 . S
N162 C164 1.361 . S
N162 C165 1.377 . S
C163 N160 1.382 . S
C163 N161 1.371 . S
C163 C166 1.480 . S
C164 N161 1.372 . S
C164 N162 1.361 . S
C164 C172 1.457 . S
C165 N160 1.363 . S
C165 N162 1.377 . S
C165 C178 1.479 . S
C166 C163 1.480 . S
C166 C167 1.383 . S
C166 C171 1.385 . S
C167 H148 0.947 . S
C167 C166 1.383 . S
C167 C168 1.388 . S
C168 H149 0.946 . S
C168 C167 1.388 . S
C168 C169 1.384 . S
C169 C168 1.384 . S
C169 C170 1.377 . S
C170 H150 0.953 . S
C170 C169 1.377 . S
C170 C171 1.369 . S
C171 H151 0.945 . S
C171 C166 1.385 . S
C171 C170 1.369 . S
C172 C164 1.457 . S
C172 C173 1.372 . S
C172 C177 1.364 . S
C173 H152 0.952 . S
C173 C172 1.372 . S
C173 C174 1.389 . S
C174 H153 0.949 . S
C174 C173 1.389 . S
C174 C175 1.387 . S
C175 C174 1.387 . S
C175 C176 1.372 . S
C176 H154 0.950 . S
C176 C175 1.372 . S
C176 C177 1.379 . S
C177 H155 0.948 . S
C177 C172 1.364 . S
C177 C176 1.379 . S
C178 C147 1.383 . S
C178 C165 1.479 . S
C178 C179 1.398 . S
C179 C144 1.382 . S
C179 H156 0.951 . S
C179 C178 1.398 . S
C180 C181 1.384 1_655 S
C180 H193 0.947 . S
C180 C215 1.382 1_655 S
C181 C180 1.384 1_455 S
C181 C182 1.378 . S
C182 C181 1.378 . S
C182 C183 1.378 . S
C182 H194 0.952 . S
C183 C182 1.378 . S
C183 H195 0.950 . S
C183 C214 1.383 . S
H184 C203 0.947 . S
H185 C204 0.948 . S
H186 C206 0.953 . S
H187 C207 0.945 . S
H188 C209 0.948 1_655 S
H189 C210 0.954 . S
H190 C212 0.950 . S
H191 C213 0.948 . S
H192 C215 0.950 1_655 S
H193 C180 0.947 . S
H194 C182 0.952 . S
H195 C183 0.950 . S
N196 C199 1.382 . S
N196 C201 1.363 . S
N197 C199 1.371 . S
N197 C200 1.372 . S
N198 C200 1.361 . S
N198 C201 1.377 . S
C199 N196 1.382 . S
C199 N197 1.371 . S
C199 C202 1.480 . S
C200 N197 1.372 . S
C200 N198 1.361 . S
C200 C208 1.457 . S
C201 N196 1.363 . S
C201 N198 1.377 . S
C201 C214 1.479 . S
C202 C199 1.480 . S
C202 C203 1.383 . S
C202 C207 1.385 . S
C203 H184 0.947 . S
C203 C202 1.383 . S
C203 C204 1.387 1_455 S
C204 H185 0.948 . S
C204 C203 1.387 1_655 S
C204 C205 1.382 1_655 S
C205 C204 1.382 1_455 S
C205 C206 1.377 . S
C206 H186 0.953 . S
C206 C205 1.377 . S
C206 C207 1.369 . S
C207 H187 0.945 . S
C207 C202 1.385 . S
C207 C206 1.369 . S
C208 C200 1.457 . S
C208 C209 1.378 . S
C208 C213 1.364 . S
C209 H188 0.948 1_455 S
C209 C208 1.378 . S
C209 C210 1.385 1_455 S
C210 H189 0.954 . S
C210 C209 1.385 1_655 S
C210 C211 1.384 1_655 S
C211 C210 1.384 1_455 S
C211 C212 1.372 . S
C212 H190 0.950 . S
C212 C211 1.372 . S
C212 C213 1.379 . S
C213 H191 0.948 . S
C213 C208 1.364 . S
C213 C212 1.379 . S
C214 C183 1.383 . S
C214 C201 1.479 . S
C214 C215 1.400 . S
C215 C180 1.382 1_455 S
C215 H192 0.950 1_455 S
C215 C214 1.400 . S
C216 C217 1.384 . S
C216 H229 0.947 . S
C216 C251 1.382 . S
C217 C216 1.384 . S
C217 C218 1.378 . S
C218 C217 1.378 . S
C218 C219 1.378 . S
C218 H230 0.952 . S
C219 C218 1.378 . S
C219 H231 0.950 . S
C219 C250 1.383 . S
H220 C239 0.947 . S
H221 C240 0.946 . S
H222 C242 0.953 . S
H223 C243 0.945 . S
H224 C245 0.952 . S
H225 C246 0.949 . S
H226 C248 0.950 . S
H227 C249 0.948 . S
H228 C251 0.951 . S
H229 C216 0.947 . S
H230 C218 0.952 . S
H231 C219 0.950 . S
N232 C235 1.382 . S
N232 C237 1.363 . S
N233 C235 1.371 . S
N233 C236 1.372 . S
N234 C236 1.361 . S
N234 C237 1.377 . S
C235 N232 1.382 . S
C235 N233 1.371 . S
C235 C238 1.480 . S
C236 N233 1.372 . S
C236 N234 1.361 . S
C236 C244 1.457 . S
C237 N232 1.363 . S
C237 N234 1.377 . S
C237 C250 1.479 . S
C238 C235 1.480 . S
C238 C239 1.383 . S
C238 C243 1.385 . S
C239 H220 0.947 . S
C239 C238 1.383 . S
C239 C240 1.388 . S
C240 H221 0.946 . S
C240 C239 1.388 . S
C240 C241 1.384 . S
C241 C240 1.384 . S
C241 C242 1.377 . S
C242 H222 0.953 . S
C242 C241 1.377 . S
C242 C243 1.369 . S
C243 H223 0.945 . S
C243 C238 1.385 . S
C243 C242 1.369 . S
C244 C236 1.457 . S
C244 C245 1.372 . S
C244 C249 1.364 . S
C245 H224 0.952 . S
C245 C244 1.372 . S
C245 C246 1.389 . S
C246 H225 0.949 . S
C246 C245 1.389 . S
C246 C247 1.387 . S
C247 C246 1.387 . S
C247 C248 1.372 . S
C248 H226 0.950 . S
C248 C247 1.372 . S
C248 C249 1.379 . S
C249 H227 0.948 . S
C249 C244 1.364 . S
C249 C248 1.379 . S
C250 C219 1.383 . S
C250 C237 1.479 . S
C250 C251 1.398 . S
C251 C216 1.382 . S
C251 H228 0.951 . S
C251 C250 1.398 . S
C252 C253 1.384 . S
C252 H265 0.947 . S
C252 C287 1.382 . S
C253 C252 1.384 . S
C253 C254 1.378 . S
C254 C253 1.378 . S
C254 C255 1.378 . S
C254 H266 0.952 . S
C255 C254 1.378 . S
C255 H267 0.950 . S
C255 C286 1.383 . S
H256 C275 0.947 . S
H257 C276 0.946 . S
H258 C278 0.953 . S
H259 C279 0.945 . S
H260 C281 0.952 . S
H261 C282 0.949 . S
H262 C284 0.950 . S
H263 C285 0.948 . S
H264 C287 0.951 . S
H265 C252 0.947 . S
H266 C254 0.952 . S
H267 C255 0.950 . S
N268 C271 1.382 . S
N268 C273 1.363 . S
N269 C271 1.371 . S
N269 C272 1.372 . S
N270 C272 1.361 . S
N270 C273 1.377 . S
C271 N268 1.382 . S
C271 N269 1.371 . S
C271 C274 1.480 . S
C272 N269 1.372 . S
C272 N270 1.361 . S
C272 C280 1.457 . S
C273 N268 1.363 . S
C273 N270 1.377 . S
C273 C286 1.479 . S
C274 C271 1.480 . S
C274 C275 1.383 . S
C274 C279 1.385 . S
C275 H256 0.947 . S
C275 C274 1.383 . S
C275 C276 1.388 . S
C276 H257 0.946 . S
C276 C275 1.388 . S
C276 C277 1.384 . S
C277 C276 1.384 . S
C277 C278 1.377 . S
C278 H258 0.953 . S
C278 C277 1.377 . S
C278 C279 1.369 . S
C279 H259 0.945 . S
C279 C274 1.385 . S
C279 C278 1.369 . S
C280 C272 1.457 . S
C280 C281 1.372 . S
C280 C285 1.364 . S
C281 H260 0.952 . S
C281 C280 1.372 . S
C281 C282 1.389 . S
C282 H261 0.949 . S
C282 C281 1.389 . S
C282 C283 1.387 . S
C283 C282 1.387 . S
C283 C284 1.372 . S
C284 H262 0.950 . S
C284 C283 1.372 . S
C284 C285 1.379 . S
C285 H263 0.948 . S
C285 C280 1.364 . S
C285 C284 1.379 . S
C286 C255 1.383 . S
C286 C273 1.479 . S
C286 C287 1.398 . S
C287 C252 1.382 . S
C287 H264 0.951 . S
C287 C286 1.398 . S
O288 Mg289 1.990 . S
O288 C302 1.253 . S
Mg289 O288 1.990 . S
Mg289 O292 2.180 1_565 S
Mg289 O293 2.117 . S
Mg289 O307 2.030 . S
O290 Mg291 2.072 1_465 S
O290 C302 1.260 . S
Mg291 O290 2.072 1_645 S
Mg291 O292 2.099 1_655 S
Mg291 O294 2.079 . S
Mg291 O295 2.072 1_655 S
Mg291 O297 2.099 . S
Mg291 O308 2.079 1_545 S
O292 Mg289 2.180 1_545 S
O292 Mg291 2.099 1_455 S
O292 C303 1.279 . S
O293 Mg289 2.117 . S
O293 C303 1.250 1_565 S
O294 Mg291 2.079 . S
O294 C304 1.264 . S
O295 Mg291 2.072 1_455 S
O295 C305 1.260 . S
Mg296 O297 2.180 . S
Mg296 O298 2.030 . S
Mg296 O299 1.990 . S
Mg296 O300 2.117 . S
O297 Mg291 2.099 . S
O297 Mg296 2.180 . S
O297 C306 1.279 . S
O298 Mg296 2.030 . S
O298 C304 1.248 . S
O299 Mg296 1.990 . S
O299 C305 1.253 1_655 S
O300 Mg296 2.117 . S
O300 C306 1.250 . S
C301 O307 1.248 1_655 S
C301 O308 1.264 . S
C302 O288 1.253 . S
C302 O290 1.260 . S
C303 O292 1.279 . S
C303 O293 1.250 1_545 S
C304 O294 1.264 . S
C304 O298 1.248 . S
C305 O295 1.260 . S
C305 O299 1.253 1_455 S
C306 O297 1.279 . S
C306 O300 1.250 . S
O307 Mg289 2.030 . S
O307 C301 1.248 1_455 S
O308 Mg291 2.079 1_565 S
O308 C301 1.264 . S
O309 Mg310 1.990 1_545 S
O309 C323 1.253 . S
Mg310 O309 1.990 1_565 S
Mg310 O313 2.180 . S
Mg310 O314 2.117 . S
Mg310 O328 2.030 1_565 S
O311 Mg312 2.072 . S
O311 C323 1.260 . S
Mg312 O311 2.072 . S
Mg312 O313 2.099 1_545 S
Mg312 O315 2.079 1_545 S
Mg312 O316 2.072 1_545 S
Mg312 O318 2.099 . S
Mg312 O329 2.079 . S
O313 Mg310 2.180 . S
O313 Mg312 2.099 1_565 S
O313 C324 1.279 . S
O314 Mg310 2.117 . S
O314 C324 1.250 . S
O315 Mg312 2.079 1_565 S
O315 C325 1.264 . S
O316 Mg312 2.072 1_565 S
O316 C326 1.260 1_565 S
Mg317 O318 2.180 . S
Mg317 O319 2.040 . S
Mg317 O320 1.990 . S
Mg317 O321 2.117 . S
O318 Mg312 2.099 . S
O318 Mg317 2.180 . S
O318 C327 1.279 . S
O319 Mg317 2.040 . S
O319 C325 1.241 1_545 S
O320 Mg317 1.990 . S
O320 C326 1.253 . S
O321 Mg317 2.117 . S
O321 C327 1.250 . S
C322 O328 1.248 . S
C322 O329 1.264 . S
C323 O309 1.253 . S
C323 O311 1.260 . S
C324 O313 1.279 . S
C324 O314 1.250 . S
C325 O315 1.264 . S
C325 O319 1.241 1_565 S
C326 O316 1.260 1_545 S
C326 O320 1.253 . S
C327 O318 1.279 . S
C327 O321 1.250 . S
O328 Mg310 2.030 1_545 S
O328 C322 1.248 . S
O329 Mg312 2.079 . S
O329 C322 1.264 . S
O330 Mg331 1.990 . S
O330 C344 1.253 . S
Mg331 O330 1.990 . S
Mg331 O334 2.180 . S
Mg331 O335 2.117 . S
Mg331 O349 2.030 . S
O332 Mg333 2.072 . S
O332 C344 1.260 . S
Mg333 O332 2.072 . S
Mg333 O334 2.099 . S
Mg333 O336 2.079 . S
Mg333 O337 2.072 . S
Mg333 O339 2.099 . S
Mg333 O350 2.079 . S
O334 Mg331 2.180 . S
O334 Mg333 2.099 . S
O334 C345 1.279 . S
O335 Mg331 2.117 . S
O335 C345 1.250 . S
O336 Mg333 2.079 . S
O336 C346 1.264 . S
O337 Mg333 2.072 . S
O337 C347 1.260 . S
Mg338 O339 2.180 . S
Mg338 O340 2.030 . S
Mg338 O341 1.990 . S
Mg338 O342 2.117 . S
O339 Mg333 2.099 . S
O339 Mg338 2.180 . S
O339 C348 1.279 . S
O340 Mg338 2.030 . S
O340 C346 1.248 . S
O341 Mg338 1.990 . S
O341 C347 1.253 . S
O342 Mg338 2.117 . S
O342 C348 1.250 . S
C343 O349 1.248 . S
C343 O350 1.264 . S
C344 O330 1.253 . S
C344 O332 1.260 . S
C345 O334 1.279 . S
C345 O335 1.250 . S
C346 O336 1.264 . S
C346 O340 1.248 . S
C347 O337 1.260 . S
C347 O341 1.253 . S
C348 O339 1.279 . S
C348 O342 1.250 . S
O349 Mg331 2.030 . S
O349 C343 1.248 . S
O350 Mg333 2.079 . S
O350 C343 1.264 . S
O351 Mg352 1.990 . S
O351 C365 1.253 . S
Mg352 O351 1.990 . S
Mg352 O355 2.180 . S
Mg352 O356 2.117 . S
Mg352 O370 2.030 . S
O353 Mg354 2.072 1_655 S
O353 C365 1.260 . S
Mg354 O353 2.072 1_455 S
Mg354 O355 2.099 1_455 S
Mg354 O357 2.079 . S
Mg354 O358 2.072 . S
Mg354 O360 2.099 . S
Mg354 O371 2.079 1_455 S
O355 Mg352 2.180 . S
O355 Mg354 2.099 1_655 S
O355 C366 1.279 . S
O356 Mg352 2.117 . S
O356 C366 1.250 . S
O357 Mg354 2.079 . S
O357 C367 1.264 . S
O358 Mg354 2.072 . S
O358 C368 1.260 . S
Mg359 O360 2.180 . S
Mg359 O361 2.030 . S
Mg359 O362 1.990 . S
Mg359 O363 2.117 . S
O360 Mg354 2.099 . S
O360 Mg359 2.180 . S
O360 C369 1.279 . S
O361 Mg359 2.030 . S
O361 C367 1.248 . S
O362 Mg359 1.990 . S
O362 C368 1.253 . S
O363 Mg359 2.117 . S
O363 C369 1.250 . S
C364 O370 1.248 . S
C364 O371 1.264 . S
C365 O351 1.253 . S
C365 O353 1.260 . S
C366 O355 1.279 . S
C366 O356 1.250 . S
C367 O357 1.264 . S
C367 O361 1.248 . S
C368 O358 1.260 . S
C368 O362 1.253 . S
C369 O360 1.279 . S
C369 O363 1.250 . S
O370 Mg352 2.030 . S
O370 C364 1.248 . S
O371 Mg354 2.079 1_655 S
O371 C364 1.264 . S
H372 C380 0.950 . S
H373 C385 0.950 . S
H374 C382 0.950 . S
H375 C384 0.950 . S
H376 C386 0.950 . S
H377 C388 0.950 . S
H378 C390 0.950 . S
H379 C391 0.950 . S
C380 H372 0.950 . S
C380 C381 1.386 . S
C380 C382 1.391 . S
C381 C380 1.386 . S
C381 C385 1.393 . S
C382 H374 0.950 . S
C382 C380 1.391 . S
C382 C383 1.400 . S
C383 C382 1.400 . S
C383 C384 1.398 . S
C383 C389 1.491 . S
C384 H375 0.950 . S
C384 C383 1.398 . S
C384 C385 1.391 . S
C385 H373 0.950 . S
C385 C381 1.393 . S
C385 C384 1.391 . S
C386 H376 0.950 . S
C386 C387 1.386 . S
C386 C388 1.391 . S
C387 C386 1.386 . S
C387 C391 1.393 . S
C388 H377 0.950 . S
C388 C386 1.391 . S
C388 C389 1.400 . S
C389 C383 1.491 . S
C389 C388 1.400 . S
C389 C390 1.398 . S
C390 H378 0.950 . S
C390 C389 1.398 . S
C390 C391 1.391 . S
C391 H379 0.950 . S
C391 C387 1.393 . S
C391 C390 1.391 . S
H392 C400 0.950 . S
H393 C405 0.950 . S
H394 C402 0.950 . S
H395 C404 0.950 . S
H396 C406 0.950 . S
H397 C408 0.950 . S
H398 C410 0.950 . S
H399 C411 0.950 . S
C400 H392 0.950 . S
C400 C401 1.386 . S
C400 C402 1.391 . S
C401 C400 1.386 . S
C401 C405 1.393 . S
C402 H394 0.950 . S
C402 C400 1.391 . S
C402 C403 1.400 . S
C403 C402 1.400 . S
C403 C404 1.398 . S
C403 C409 1.491 . S
C404 H395 0.950 . S
C404 C403 1.398 . S
C404 C405 1.391 . S
C405 H393 0.950 . S
C405 C401 1.393 . S
C405 C404 1.391 . S
C406 H396 0.950 . S
C406 C407 1.386 . S
C406 C408 1.391 . S
C407 C406 1.386 . S
C407 C411 1.393 . S
C408 H397 0.950 . S
C408 C406 1.391 . S
C408 C409 1.400 . S
C409 C403 1.491 . S
C409 C408 1.400 . S
C409 C410 1.398 . S
C410 H398 0.950 . S
C410 C409 1.398 . S
C410 C411 1.391 . S
C411 H399 0.950 . S
C411 C407 1.393 . S
C411 C410 1.391 . S
H412 C420 0.950 . S
H413 C425 0.950 . S
H414 C422 0.950 . S
H415 C424 0.950 . S
H416 C426 0.950 . S
H417 C428 0.950 . S
H418 C430 0.950 . S
H419 C431 0.950 . S
C420 H412 0.950 . S
C420 C421 1.386 . S
C420 C422 1.391 . S
C421 C420 1.386 . S
C421 C425 1.393 . S
C422 H414 0.950 . S
C422 C420 1.391 . S
C422 C423 1.400 . S
C423 C422 1.400 . S
C423 C424 1.398 . S
C423 C429 1.491 . S
C424 H415 0.950 . S
C424 C423 1.398 . S
C424 C425 1.391 . S
C425 H413 0.950 . S
C425 C421 1.393 . S
C425 C424 1.391 . S
C426 H416 0.950 . S
C426 C427 1.386 . S
C426 C428 1.391 . S
C427 C426 1.386 . S
C427 C431 1.393 . S
C428 H417 0.950 . S
C428 C426 1.391 . S
C428 C429 1.400 . S
C429 C423 1.491 . S
C429 C428 1.400 . S
C429 C430 1.398 . S
C430 H418 0.950 . S
C430 C429 1.398 . S
C430 C431 1.391 . S
C431 H419 0.950 . S
C431 C427 1.393 . S
C431 C430 1.391 . S
H432 C440 0.950 . S
H433 C445 0.950 . S
H434 C442 0.950 . S
H435 C444 0.950 . S
H436 C446 0.950 . S
H437 C448 0.950 . S
H438 C450 0.950 . S
H439 C451 0.950 . S
C440 H432 0.950 . S
C440 C441 1.386 1_455 S
C440 C442 1.391 . S
C441 C440 1.386 1_655 S
C441 C445 1.393 . S
C442 H434 0.950 . S
C442 C440 1.391 . S
C442 C443 1.400 1_455 S
C443 C442 1.400 1_655 S
C443 C444 1.398 . S
C443 C449 1.491 . S
C444 H435 0.950 . S
C444 C443 1.398 . S
C444 C445 1.391 . S
C445 H433 0.950 . S
C445 C441 1.393 . S
C445 C444 1.391 . S
C446 H436 0.950 . S
C446 C447 1.386 . S
C446 C448 1.391 . S
C447 C446 1.386 . S
C447 C451 1.393 1_655 S
C448 H437 0.950 . S
C448 C446 1.391 . S
C448 C449 1.400 . S
C449 C443 1.491 . S
C449 C448 1.400 . S
C449 C450 1.398 1_655 S
C450 H438 0.950 . S
C450 C449 1.398 1_455 S
C450 C451 1.391 . S
C451 H439 0.950 . S
C451 C447 1.393 1_455 S
C451 C450 1.391 . S
H452 C460 0.950 . S
H453 C465 0.950 1_554 S
H454 C462 0.950 . S
H455 C464 0.950 . S
H456 C466 0.950 1_545 S
H457 C468 0.950 . S
H458 C470 0.950 . S
H459 C471 0.950 . S
C460 H452 0.950 . S
C460 C461 1.386 1_556 S
C460 C462 1.391 . S
C461 C460 1.386 1_554 S
C461 C465 1.393 1_554 S
C462 H454 0.950 . S
C462 C460 1.391 . S
C462 C463 1.400 . S
C463 C462 1.400 . S
C463 C464 1.398 . S
C463 C469 1.491 . S
C464 H455 0.950 . S
C464 C463 1.398 . S
C464 C465 1.391 . S
C465 H453 0.950 1_556 S
C465 C461 1.393 1_556 S
C465 C464 1.391 . S
C466 H456 0.950 1_565 S
C466 C467 1.386 . S
C466 C468 1.391 . S
C467 C466 1.386 . S
C467 C471 1.393 . S
C468 H457 0.950 . S
C468 C466 1.391 . S
C468 C469 1.400 . S
C469 C463 1.491 . S
C469 C468 1.400 . S
C469 C470 1.398 . S
C470 H458 0.950 . S
C470 C469 1.398 . S
C470 C471 1.391 . S
C471 H459 0.950 . S
C471 C467 1.393 . S
C471 C470 1.391 . S
H472 C480 0.950 . S
H473 C485 0.950 . S
H474 C482 0.950 . S
H475 C484 0.950 . S
H476 C486 0.950 . S
H477 C488 0.950 . S
H478 C490 0.950 . S
H479 C491 0.950 . S
C480 H472 0.950 . S
C480 C481 1.386 1_556 S
C480 C482 1.391 . S
C481 C480 1.386 1_554 S
C481 C485 1.393 . S
C482 H474 0.950 . S
C482 C480 1.391 . S
C482 C483 1.400 . S
C483 C482 1.400 . S
C483 C484 1.398 . S
C483 C489 1.491 . S
C484 H475 0.950 . S
C484 C483 1.398 . S
C484 C485 1.391 1_556 S
C485 H473 0.950 . S
C485 C481 1.393 . S
C485 C484 1.391 1_554 S
C486 H476 0.950 . S
C486 C487 1.386 . S
C486 C488 1.391 . S
C487 C486 1.386 . S
C487 C491 1.393 . S
C488 H477 0.950 . S
C488 C486 1.391 . S
C488 C489 1.400 . S
C489 C483 1.491 . S
C489 C488 1.400 . S
C489 C490 1.398 . S
C490 H478 0.950 . S
C490 C489 1.398 . S
C490 C491 1.391 . S
C491 H479 0.950 . S
C491 C487 1.393 . S
C491 C490 1.391 . S
H492 C500 0.950 . S
H493 C505 0.950 . S
H494 C502 0.950 . S
H495 C504 0.950 . S
H496 C506 0.950 . S
H497 C508 0.950 . S
H498 C510 0.950 . S
H499 C511 0.950 . S
C500 H492 0.950 . S
C500 C501 1.386 1_554 S
C500 C502 1.391 1_554 S
C501 C500 1.386 1_556 S
C501 C505 1.393 . S
C502 H494 0.950 . S
C502 C500 1.391 1_556 S
C502 C503 1.400 . S
C503 C502 1.400 . S
C503 C504 1.398 . S
C503 C509 1.491 . S
C504 H495 0.950 . S
C504 C503 1.398 . S
C504 C505 1.391 . S
C505 H493 0.950 . S
C505 C501 1.393 . S
C505 C504 1.391 . S
C506 H496 0.950 . S
C506 C507 1.386 . S
C506 C508 1.391 . S
C507 C506 1.386 . S
C507 C511 1.393 . S
C508 H497 0.950 . S
C508 C506 1.391 . S
C508 C509 1.400 . S
C509 C503 1.491 . S
C509 C508 1.400 . S
C509 C510 1.398 . S
C510 H498 0.950 . S
C510 C509 1.398 . S
C510 C511 1.391 . S
C511 H499 0.950 . S
C511 C507 1.393 . S
C511 C510 1.391 . S
H512 C520 0.950 . S
H513 C525 0.950 . S
H514 C522 0.950 . S
H515 C524 0.950 . S
H516 C526 0.950 . S
H517 C528 0.950 . S
H518 C530 0.950 . S
H519 C531 0.950 . S
C520 H512 0.950 . S
C520 C521 1.352 1_656 S
C520 C522 1.391 . S
C521 C520 1.352 1_454 S
C521 C525 1.427 . S
C522 H514 0.950 . S
C522 C520 1.391 . S
C522 C523 1.400 1_655 S
C523 C522 1.400 1_455 S
C523 C524 1.398 . S
C523 C529 1.491 . S
C524 H515 0.950 . S
C524 C523 1.398 . S
C524 C525 1.391 1_556 S
C525 H513 0.950 . S
C525 C521 1.427 . S
C525 C524 1.391 1_554 S
C526 H516 0.950 . S
C526 C527 1.386 . S
C526 C528 1.391 . S
C527 C526 1.386 . S
C527 C531 1.393 1_455 S
C528 H517 0.950 . S
C528 C526 1.391 . S
C528 C529 1.400 . S
C529 C523 1.491 . S
C529 C528 1.400 . S
C529 C530 1.398 1_455 S
C530 H518 0.950 . S
C530 C529 1.398 1_655 S
C530 C531 1.391 . S
C531 H519 0.950 . S
C531 C527 1.393 1_655 S
C531 C530 1.391 . S
H532 C540 0.950 . S
H533 C545 0.950 . S
H534 C542 0.950 . S
H535 C544 0.950 . S
H536 C546 0.950 . S
H537 C548 0.950 . S
H538 C550 0.950 . S
H539 C551 0.950 . S
C540 H532 0.950 . S
C540 C541 1.386 1_655 S
C540 C542 1.391 . S
C541 C540 1.386 1_455 S
C541 C545 1.393 . S
C542 H534 0.950 . S
C542 C540 1.391 . S
C542 C543 1.400 . S
C543 C542 1.400 . S
C543 C544 1.398 1_655 S
C543 C549 1.491 . S
C544 H535 0.950 . S
C544 C543 1.398 1_455 S
C544 C545 1.391 . S
C545 H533 0.950 . S
C545 C541 1.393 . S
C545 C544 1.391 . S
C546 H536 0.950 . S
C546 C547 1.386 1_455 S
C546 C548 1.391 . S
C547 C546 1.386 1_655 S
C547 C551 1.393 . S
C548 H537 0.950 . S
C548 C546 1.391 . S
C548 C549 1.400 1_455 S
C549 C543 1.491 . S
C549 C548 1.400 1_655 S
C549 C550 1.398 . S
C550 H538 0.950 . S
C550 C549 1.398 . S
C550 C551 1.391 . S
C551 H539 0.950 . S
C551 C547 1.393 . S
C551 C550 1.391 . S
H552 C560 0.950 . S
H553 C565 0.950 . S
H554 C562 0.950 . S
H555 C564 0.950 . S
H556 C566 0.951 . S
H557 C568 0.950 . S
H558 C570 0.950 . S
H559 C571 0.950 . S
C560 H552 0.950 . S
C560 C561 1.386 . S
C560 C562 1.391 . S
C561 C560 1.386 . S
C561 C565 1.393 . S
C562 H554 0.950 . S
C562 C560 1.391 . S
C562 C563 1.400 . S
C563 C562 1.400 . S
C563 C564 1.398 . S
C563 C569 1.491 . S
C564 H555 0.950 . S
C564 C563 1.398 . S
C564 C565 1.391 . S
C565 H553 0.950 . S
C565 C561 1.393 . S
C565 C564 1.391 . S
C566 H556 0.951 . S
C566 C567 1.386 . S
C566 C568 1.391 . S
C567 C566 1.386 . S
C567 C571 1.393 . S
C568 H557 0.950 . S
C568 C566 1.391 . S
C568 C569 1.400 . S
C569 C563 1.491 . S
C569 C568 1.400 . S
C569 C570 1.398 . S
C570 H558 0.950 . S
C570 C569 1.398 . S
C570 C571 1.391 . S
C571 H559 0.950 . S
C571 C567 1.393 . S
C571 C570 1.391 . S
H572 C580 0.950 . S
H573 C585 0.950 . S
H574 C582 0.950 . S
H575 C584 0.950 . S
H576 C586 0.950 . S
H577 C588 0.950 . S
H578 C590 0.950 . S
H579 C591 0.950 . S
C580 H572 0.950 . S
C580 C581 1.386 . S
C580 C582 1.391 . S
C581 C580 1.386 . S
C581 C585 1.393 . S
C582 H574 0.950 . S
C582 C580 1.391 . S
C582 C583 1.400 . S
C583 C582 1.400 . S
C583 C584 1.398 . S
C583 C589 1.491 . S
C584 H575 0.950 . S
C584 C583 1.398 . S
C584 C585 1.391 . S
C585 H573 0.950 . S
C585 C581 1.393 . S
C585 C584 1.391 . S
C586 H576 0.950 . S
C586 C587 1.386 . S
C586 C588 1.391 . S
C587 C586 1.386 . S
C587 C591 1.393 . S
C588 H577 0.950 . S
C588 C586 1.391 . S
C588 C589 1.400 . S
C589 C583 1.491 . S
C589 C588 1.400 . S
C589 C590 1.398 . S
C590 H578 0.950 . S
C590 C589 1.398 . S
C590 C591 1.391 . S
C591 H579 0.950 . S
C591 C587 1.393 . S
C591 C590 1.391 . S
H592 C600 0.950 . S
H593 C605 0.950 . S
H594 C602 0.950 . S
H595 C604 0.950 . S
H596 C606 0.950 . S
H597 C608 0.950 . S
H598 C610 0.950 . S
H599 C611 0.950 . S
C600 H592 0.950 . S
C600 C601 1.386 . S
C600 C602 1.391 . S
C601 C600 1.386 . S
C601 C605 1.393 . S
C602 H594 0.950 . S
C602 C600 1.391 . S
C602 C603 1.400 . S
C603 C602 1.400 . S
C603 C604 1.398 . S
C603 C609 1.491 . S
C604 H595 0.950 . S
C604 C603 1.398 . S
C604 C605 1.391 . S
C605 H593 0.950 . S
C605 C601 1.393 . S
C605 C604 1.391 . S
C606 H596 0.950 . S
C606 C607 1.386 . S
C606 C608 1.391 . S
C607 C606 1.386 . S
C607 C611 1.393 . S
C608 H597 0.950 . S
C608 C606 1.391 . S
C608 C609 1.400 . S
C609 C603 1.491 . S
C609 C608 1.400 . S
C609 C610 1.398 . S
C610 H598 0.950 . S
C610 C609 1.398 . S
C610 C611 1.391 . S
C611 H599 0.950 . S
C611 C607 1.393 . S
C611 C610 1.391 . S
H612 C620 0.950 . S
H613 C625 0.950 . S
H614 C622 0.950 . S
H615 C624 0.950 . S
H616 C626 0.950 . S
H617 C628 0.950 . S
H618 C630 0.950 . S
H619 C631 0.950 . S
C620 H612 0.950 . S
C620 C621 1.408 . S
C620 C622 1.391 . S
C621 C620 1.408 . S
C621 C625 1.367 1_655 S
C622 H614 0.950 . S
C622 C620 1.391 . S
C622 C623 1.400 1_655 S
C623 C622 1.400 1_455 S
C623 C624 1.398 . S
C623 C629 1.491 . S
C624 H615 0.950 . S
C624 C623 1.398 . S
C624 C625 1.391 . S
C625 H613 0.950 . S
C625 C621 1.367 1_455 S
C625 C624 1.391 . S
C626 H616 0.950 . S
C626 C627 1.386 . S
C626 C628 1.391 . S
C627 C626 1.386 . S
C627 C631 1.393 1_455 S
C628 H617 0.950 . S
C628 C626 1.391 . S
C628 C629 1.400 . S
C629 C623 1.491 . S
C629 C628 1.400 . S
C629 C630 1.398 1_455 S
C630 H618 0.950 . S
C630 C629 1.398 1_655 S
C630 C631 1.391 . S
C631 H619 0.950 . S
C631 C627 1.393 1_655 S
C631 C630 1.391 . S
H632 C640 0.950 . S
H633 C645 0.950 . S
H634 C642 0.950 . S
H635 C644 0.950 . S
H636 C646 0.950 . S
H637 C648 0.950 . S
H638 C650 0.950 . S
H639 C651 0.950 . S
C640 H632 0.950 . S
C640 C641 1.386 . S
C640 C642 1.391 . S
C641 C640 1.386 . S
C641 C645 1.393 . S
C642 H634 0.950 . S
C642 C640 1.391 . S
C642 C643 1.400 . S
C643 C642 1.400 . S
C643 C644 1.398 . S
C643 C649 1.491 . S
C644 H635 0.950 . S
C644 C643 1.398 . S
C644 C645 1.391 . S
C645 H633 0.950 . S
C645 C641 1.393 . S
C645 C644 1.391 . S
C646 H636 0.950 . S
C646 C647 1.386 . S
C646 C648 1.391 . S
C647 C646 1.386 . S
C647 C651 1.393 . S
C648 H637 0.950 . S
C648 C646 1.391 . S
C648 C649 1.400 . S
C649 C643 1.491 . S
C649 C648 1.400 . S
C649 C650 1.398 . S
C650 H638 0.950 . S
C650 C649 1.398 . S
C650 C651 1.391 . S
C651 H639 0.950 . S
C651 C647 1.393 . S
C651 C650 1.391 . S
H652 C660 0.950 . S
H653 C665 0.950 . S
H654 C662 0.950 . S
H655 C664 0.950 . S
H656 C666 0.950 . S
H657 C668 0.950 . S
H658 C670 0.950 . S
H659 C671 0.950 . S
C660 H652 0.950 . S
C660 C661 1.386 . S
C660 C662 1.391 . S
C661 C660 1.386 . S
C661 C665 1.393 . S
C662 H654 0.950 . S
C662 C660 1.391 . S
C662 C663 1.400 . S
C663 C662 1.400 . S
C663 C664 1.398 . S
C663 C669 1.491 . S
C664 H655 0.950 . S
C664 C663 1.398 . S
C664 C665 1.391 . S
C665 H653 0.950 . S
C665 C661 1.393 . S
C665 C664 1.391 . S
C666 H656 0.950 . S
C666 C667 1.386 . S
C666 C668 1.391 . S
C667 C666 1.386 . S
C667 C671 1.393 . S
C668 H657 0.950 . S
C668 C666 1.391 . S
C668 C669 1.400 . S
C669 C663 1.491 . S
C669 C668 1.400 . S
C669 C670 1.398 . S
C670 H658 0.950 . S
C670 C669 1.398 . S
C670 C671 1.391 . S
C671 H659 0.950 . S
C671 C667 1.393 . S
C671 C670 1.391 . S
H672 C680 0.950 . S
H673 C685 0.950 . S
H674 C682 0.950 . S
H675 C684 0.950 . S
H676 C686 0.950 . S
H677 C688 0.950 . S
H678 C690 0.950 . S
H679 C691 0.950 . S
C680 H672 0.950 . S
C680 C681 1.386 . S
C680 C682 1.391 . S
C681 C680 1.386 . S
C681 C685 1.393 . S
C682 H674 0.950 . S
C682 C680 1.391 . S
C682 C683 1.400 . S
C683 C682 1.400 . S
C683 C684 1.398 . S
C683 C689 1.491 . S
C684 H675 0.950 . S
C684 C683 1.398 . S
C684 C685 1.391 . S
C685 H673 0.950 . S
C685 C681 1.393 . S
C685 C684 1.391 . S
C686 H676 0.950 . S
C686 C687 1.386 . S
C686 C688 1.391 . S
C687 C686 1.386 . S
C687 C691 1.393 . S
C688 H677 0.950 . S
C688 C686 1.391 . S
C688 C689 1.400 . S
C689 C683 1.491 . S
C689 C688 1.400 . S
C689 C690 1.398 . S
C690 H678 0.950 . S
C690 C689 1.398 . S
C690 C691 1.391 . S
C691 H679 0.950 . S
C691 C687 1.393 . S
C691 C690 1.391 . S
H692 C700 0.950 . S
H693 C705 0.950 . S
H694 C702 0.950 . S
H695 C704 0.951 . S
H696 C706 0.950 1_655 S
H697 C708 0.943 1_655 S
H698 C710 0.950 . S
H699 C711 0.950 . S
C700 H692 0.950 . S
C700 C701 1.386 1_556 S
C700 C702 1.391 . S
C701 C700 1.386 1_554 S
C701 C705 1.393 1_455 S
C702 H694 0.950 . S
C702 C700 1.391 . S
C702 C703 1.400 . S
C703 C702 1.400 . S
C703 C704 1.397 1_456 S
C703 C709 1.491 . S
C704 H695 0.951 . S
C704 C703 1.397 1_654 S
C704 C705 1.391 . S
C705 H693 0.950 . S
C705 C701 1.393 1_655 S
C705 C704 1.391 . S
C706 H696 0.950 1_455 S
C706 C707 1.386 . S
C706 C708 1.392 . S
C707 C706 1.386 . S
C707 C711 1.393 . S
C708 H697 0.943 1_455 S
C708 C706 1.392 . S
C708 C709 1.408 . S
C709 C703 1.491 . S
C709 C708 1.408 . S
C709 C710 1.398 . S
C710 H698 0.950 . S
C710 C709 1.398 . S
C710 C711 1.391 . S
C711 H699 0.950 . S
C711 C707 1.393 . S
C711 C710 1.391 . S
H712 C720 0.950 . S
H713 C725 0.950 . S
H714 C722 0.950 . S
H715 C724 0.950 . S
H716 C726 0.950 . S
H717 C728 0.950 . S
H718 C730 0.950 . S
H719 C731 0.950 . S
C720 H712 0.950 . S
C720 C721 1.386 . S
C720 C722 1.391 . S
C721 C720 1.386 . S
C721 C725 1.393 1_554 S
C722 H714 0.950 . S
C722 C720 1.391 . S
C722 C723 1.400 1_554 S
C723 C722 1.400 1_556 S
C723 C724 1.398 . S
C723 C729 1.491 . S
C724 H715 0.950 . S
C724 C723 1.398 . S
C724 C725 1.391 . S
C725 H713 0.950 . S
C725 C721 1.393 1_556 S
C725 C724 1.391 . S
C726 H716 0.950 . S
C726 C727 1.386 . S
C726 C728 1.391 . S
C727 C726 1.386 . S
C727 C731 1.393 . S
C728 H717 0.950 . S
C728 C726 1.391 . S
C728 C729 1.400 . S
C729 C723 1.491 . S
C729 C728 1.400 . S
C729 C730 1.398 . S
C730 H718 0.950 . S
C730 C729 1.398 . S
C730 C731 1.391 . S
C731 H719 0.950 . S
C731 C727 1.393 . S
C731 C730 1.391 . S
H732 C740 0.950 . S
H733 C745 0.950 . S
H734 C742 0.950 . S
H735 C744 0.950 . S
H736 C746 0.950 . S
H737 C748 0.950 . S
H738 C750 0.950 . S
H739 C751 0.950 . S
C740 H732 0.950 . S
C740 C741 1.386 . S
C740 C742 1.391 1_554 S
C741 C740 1.386 . S
C741 C745 1.393 1_554 S
C742 H734 0.950 . S
C742 C740 1.391 1_556 S
C742 C743 1.400 . S
C743 C742 1.400 . S
C743 C744 1.398 . S
C743 C749 1.491 . S
C744 H735 0.950 . S
C744 C743 1.398 . S
C744 C745 1.391 . S
C745 H733 0.950 . S
C745 C741 1.393 1_556 S
C745 C744 1.391 . S
C746 H736 0.950 . S
C746 C747 1.386 . S
C746 C748 1.391 . S
C747 C746 1.386 . S
C747 C751 1.393 . S
C748 H737 0.950 . S
C748 C746 1.391 . S
C748 C749 1.400 . S
C749 C743 1.491 . S
C749 C748 1.400 . S
C749 C750 1.398 . S
C750 H738 0.950 . S
C750 C749 1.398 . S
C750 C751 1.391 . S
C751 H739 0.950 . S
C751 C747 1.393 . S
C751 C750 1.391 . S
H752 C760 0.950 . S
H753 C765 0.950 . S
H754 C762 0.950 . S
H755 C764 0.950 . S
H756 C766 0.950 . S
H757 C768 0.950 . S
H758 C770 0.950 1_554 S
H759 C771 0.950 . S
C760 H752 0.950 . S
C760 C761 1.386 . S
C760 C762 1.391 . S
C761 C760 1.386 . S
C761 C765 1.393 1_554 S
C762 H754 0.950 . S
C762 C760 1.391 . S
C762 C763 1.400 1_554 S
C763 C762 1.400 1_556 S
C763 C764 1.398 . S
C763 C769 1.491 . S
C764 H755 0.950 . S
C764 C763 1.398 . S
C764 C765 1.391 . S
C765 H753 0.950 . S
C765 C761 1.393 1_556 S
C765 C764 1.391 . S
C766 H756 0.950 . S
C766 C767 1.386 . S
C766 C768 1.391 . S
C767 C766 1.386 . S
C767 C771 1.393 . S
C768 H757 0.950 . S
C768 C766 1.391 . S
C768 C769 1.400 . S
C769 C763 1.491 . S
C769 C768 1.400 . S
C769 C770 1.398 . S
C770 H758 0.950 1_556 S
C770 C769 1.398 . S
C770 C771 1.391 . S
C771 H759 0.950 . S
C771 C767 1.393 . S
C771 C770 1.391 . S
H772 C780 0.950 . S
H773 C785 0.950 . S
H774 C782 0.950 . S
H775 C784 0.950 . S
H776 C786 0.950 . S
H777 C788 0.950 . S
H778 C790 0.950 . S
H779 C791 0.950 . S
C780 H772 0.950 . S
C780 C781 1.406 . S
C780 C782 1.391 . S
C781 C780 1.406 . S
C781 C785 1.373 1_655 S
C782 H774 0.950 . S
C782 C780 1.391 . S
C782 C783 1.400 . S
C783 C782 1.400 . S
C783 C784 1.398 1_655 S
C783 C789 1.491 . S
C784 H775 0.950 . S
C784 C783 1.398 1_455 S
C784 C785 1.391 . S
C785 H773 0.950 . S
C785 C781 1.373 1_455 S
C785 C784 1.391 . S
C786 H776 0.950 . S
C786 C787 1.386 1_455 S
C786 C788 1.391 . S
C787 C786 1.386 1_655 S
C787 C791 1.393 . S
C788 H777 0.950 . S
C788 C786 1.391 . S
C788 C789 1.400 1_455 S
C789 C783 1.491 . S
C789 C788 1.400 1_655 S
C789 C790 1.398 . S
C790 H778 0.950 . S
C790 C789 1.398 . S
C790 C791 1.391 . S
C791 H779 0.950 . S
C791 C787 1.393 . S
C791 C790 1.391 . S
H792 C800 0.950 . S
H793 C805 0.950 . S
H794 C802 0.950 . S
H795 C804 0.950 . S
H796 C806 0.950 . S
H797 C808 0.950 . S
H798 C810 0.950 . S
H799 C811 0.950 . S
C800 H792 0.950 . S
C800 C801 1.386 . S
C800 C802 1.391 . S
C801 C800 1.386 . S
C801 C805 1.393 . S
C802 H794 0.950 . S
C802 C800 1.391 . S
C802 C803 1.400 . S
C803 C802 1.400 . S
C803 C804 1.398 . S
C803 C809 1.491 . S
C804 H795 0.950 . S
C804 C803 1.398 . S
C804 C805 1.391 . S
C805 H793 0.950 . S
C805 C801 1.393 . S
C805 C804 1.391 . S
C806 H796 0.950 . S
C806 C807 1.386 . S
C806 C808 1.391 . S
C807 C806 1.386 . S
C807 C811 1.393 . S
C808 H797 0.950 . S
C808 C806 1.391 . S
C808 C809 1.400 . S
C809 C803 1.491 . S
C809 C808 1.400 . S
C809 C810 1.398 . S
C810 H798 0.950 . S
C810 C809 1.398 . S
C810 C811 1.391 . S
C811 H799 0.950 . S
C811 C807 1.393 . S
C811 C810 1.391 . S
H812 C820 0.950 . S
H813 C825 0.950 . S
H814 C822 0.950 . S
H815 C824 0.950 . S
H816 C826 0.950 . S
H817 C828 0.950 . S
H818 C830 0.950 . S
H819 C831 0.950 . S
C820 H812 0.950 . S
C820 C821 1.386 . S
C820 C822 1.391 . S
C821 C820 1.386 . S
C821 C825 1.393 . S
C822 H814 0.950 . S
C822 C820 1.391 . S
C822 C823 1.400 . S
C823 C822 1.400 . S
C823 C824 1.398 . S
C823 C829 1.491 . S
C824 H815 0.950 . S
C824 C823 1.398 . S
C824 C825 1.391 . S
C825 H813 0.950 . S
C825 C821 1.393 . S
C825 C824 1.391 . S
C826 H816 0.950 . S
C826 C827 1.386 . S
C826 C828 1.391 . S
C827 C826 1.386 . S
C827 C831 1.393 . S
C828 H817 0.950 . S
C828 C826 1.391 . S
C828 C829 1.400 . S
C829 C823 1.491 . S
C829 C828 1.400 . S
C829 C830 1.398 . S
C830 H818 0.950 . S
C830 C829 1.398 . S
C830 C831 1.391 . S
C831 H819 0.950 . S
C831 C827 1.393 . S
C831 C830 1.391 . S
H832 C840 0.950 . S
H833 C845 0.950 . S
H834 C842 0.950 . S
H835 C844 0.950 . S
H836 C846 0.950 . S
H837 C848 0.950 . S
H838 C850 0.950 . S
H839 C851 0.950 . S
C840 H832 0.950 . S
C840 C841 1.386 . S
C840 C842 1.391 . S
C841 C840 1.386 . S
C841 C845 1.393 . S
C842 H834 0.950 . S
C842 C840 1.391 . S
C842 C843 1.400 . S
C843 C842 1.400 . S
C843 C844 1.398 . S
C843 C849 1.491 . S
C844 H835 0.950 . S
C844 C843 1.398 . S
C844 C845 1.391 . S
C845 H833 0.950 . S
C845 C841 1.393 . S
C845 C844 1.391 . S
C846 H836 0.950 . S
C846 C847 1.386 . S
C846 C848 1.391 . S
C847 C846 1.386 . S
C847 C851 1.393 . S
C848 H837 0.950 . S
C848 C846 1.391 . S
C848 C849 1.400 . S
C849 C843 1.491 . S
C849 C848 1.400 . S
C849 C850 1.398 . S
C850 H838 0.950 . S
C850 C849 1.398 . S
C850 C851 1.391 . S
C851 H839 0.950 . S
C851 C847 1.393 . S
C851 C850 1.391 . S
C381 C241 1.969 . S
C387 C303 1.886 . S
C407 C327 1.390 . S
C401 C277 1.601 . S
C427 C348 1.874 . S
C421 C169 1.928 . S
C447 C366 1.443 . S
C441 C205 1.579 1_655 S
C467 C306 1.794 1_565 S
C461 C97 1.784 . S
C481 C133 1.467 . S
C487 C324 1.294 . S
C501 C25 1.780 1_556 S
C507 C345 1.749 . S
C521 C61 1.444 . S
C527 C369 1.316 . S
C547 C304 0.405 . S
C541 C211 0.362 . S
C567 C322 0.732 . S
C561 C247 0.722 . S
C587 C343 0.495 . S
C581 C253 0.403 . S
C601 C175 0.738 . S
C607 C367 0.720 . S
C621 C67 0.402 1_655 S
C627 C302 0.397 . S
C647 C326 0.770 1_565 S
C641 C103 0.731 . S
C667 C347 0.471 . S
C661 C109 0.427 . S
C681 C31 0.730 . S
C687 C365 0.765 . S
C701 C181 1.906 . S
C707 C305 1.897 . S
C721 C217 2.142 . S
C727 C323 2.162 . S
C747 C344 1.884 . S
C741 C283 1.843 . S
C767 C368 2.190 . S
C761 C145 2.174 . S
C781 C37 1.795 1_655 S
C787 C301 1.787 . S
C807 C325 1.999 . S
C801 C73 1.979 . S
C827 C346 1.752 . S
C821 C139 1.724 . S
C841 C1 1.979 . S
C847 C364 2.030 . S
