# Generated by pormake.
# Topology pth, (4,4)-cn, num edge types: 1
# Building blocks:
#     Node 0, Type 0, BuildingBlock: GALJAG_clean_sbu_0, # of connection points: 4
#     Node 1, Type 0, BuildingBlock: GALJAG_clean_sbu_0, # of connection points: 4
#     Node 2, Type 0, BuildingBlock: GALJAG_clean_sbu_0, # of connection points: 4
#     Node 3, Type 1, BuildingBlock: MUDLON_clean_linker_0, # of connection points: 4
#     Node 4, Type 1, BuildingBlock: MUDLON_clean_linker_0, # of connection points: 4
#     Node 5, Type 1, BuildingBlock: MUDLON_clean_linker_0, # of connection points: 4
#     Edge 6, Type (0, 1), BuildingBlock: FUNLAD_clean_linker_1, # of connection points: 2
#     Edge 7, Type (0, 1), BuildingBlock: FUNLAD_clean_linker_1, # of connection points: 2
#     Edge 8, Type (0, 1), BuildingBlock: FUNLAD_clean_linker_1, # of connection points: 2
#     Edge 9, Type (0, 1), BuildingBlock: FUNLAD_clean_linker_1, # of connection points: 2
#     Edge 10, Type (0, 1), BuildingBlock: FUNLAD_clean_linker_1, # of connection points: 2
#     Edge 11, Type (0, 1), BuildingBlock: FUNLAD_clean_linker_1, # of connection points: 2
#     Edge 12, Type (0, 1), BuildingBlock: FUNLAD_clean_linker_1, # of connection points: 2
#     Edge 13, Type (0, 1), BuildingBlock: FUNLAD_clean_linker_1, # of connection points: 2
#     Edge 14, Type (0, 1), BuildingBlock: FUNLAD_clean_linker_1, # of connection points: 2
#     Edge 15, Type (0, 1), BuildingBlock: FUNLAD_clean_linker_1, # of connection points: 2
#     Edge 16, Type (0, 1), BuildingBlock: FUNLAD_clean_linker_1, # of connection points: 2
#     Edge 17, Type (0, 1), BuildingBlock: FUNLAD_clean_linker_1, # of connection points: 2
# Relax obj value: 0.014
# Max RMSD: 0.066
# Mean RMSD: 0.062
data_MOF--net-pth--node1-GALJAG_clean_sbu_0--node2-MUDLON_clean_linker_0--edge1-FUNLAD_clean_linker_1
_symmetry_space_group_name_H-M    P1
_symmetry_Int_Tables_number       1
_symmetry_cell_setting            triclinic
loop_
_symmetry_equiv_pos_as_xyz
'x, y, z'
_cell_length_a     35.286467
_cell_length_b     35.340272
_cell_length_c     68.094448
_cell_angle_alpha  90.068018
_cell_angle_beta   90.16654
_cell_angle_gamma 119.93677
loop_
_atom_site_label
_atom_site_type_symbol
_atom_site_fract_x
_atom_site_fract_y
_atom_site_fract_z
_atom_type_partial_charge
In0 In 0.99958 0.00272 0.03982 0.0
O1 O 0.95401 0.02752 0.04996 0.0
O2 O 0.01517 0.05205 0.06453 0.0
C3 C 0.9446 0.93959 0.01492 0.0
C4 C 0.05732 0.06535 0.01565 0.0
C5 C 0.01674 0.95284 0.06422 0.0
O6 O 0.93119 0.95576 0.02783 0.0
O7 O 0.98545 0.95524 0.01453 0.0
O8 O 0.04493 0.98006 0.05263 0.0
O9 O 0.98016 0.95106 0.06371 0.0
C10 C 0.97982 0.05256 0.06298 0.0
O11 O 0.06922 0.04973 0.02944 0.0
O12 O 0.01658 0.04936 0.01398 0.0
In13 In 0.99159 0.99772 0.37542 0.0
O14 O 0.01549 0.06844 0.36611 0.0
O15 O 0.96537 0.01724 0.34914 0.0
C16 C 0.05892 0.0142 0.3995 0.0
C17 C 0.92075 0.97935 0.39741 0.0
C18 C 0.99958 0.94165 0.35131 0.0
O19 O 0.05986 0.04252 0.38793 0.0
O20 O 0.02385 0.97788 0.3992 0.0
O21 O 0.97196 0.92864 0.36505 0.0
O22 O 0.02269 0.98249 0.3497 0.0
C23 C 0.98961 0.05773 0.35166 0.0
O24 O 0.91829 0.95789 0.3822 0.0
O25 O 0.95884 0.00909 0.40182 0.0
In26 In 0.99296 0.00865 0.70969 0.0
O27 O 0.94616 0.93533 0.71464 0.0
O28 O 0.95828 0.97898 0.73842 0.0
C29 C 0.04719 0.00582 0.68266 0.0
C30 C 0.93427 0.02522 0.69192 0.0
C31 C 0.05724 0.06766 0.73292 0.0
O32 O 0.02775 0.97585 0.69515 0.0
O33 O 0.03832 0.03618 0.68346 0.0
O34 O 0.03365 0.07749 0.72256 0.0
O35 O 0.04811 0.02842 0.7317 0.0
C36 C 0.93843 0.94021 0.73227 0.0
O37 O 0.95215 0.04257 0.70805 0.0
O38 O 0.94613 0.99991 0.6847 0.0
H39 H 0.95693 0.65183 0.2184 0.0
N40 N 0.03614 0.65927 0.20956 0.0
H41 H 0.94056 0.68355 0.24667 0.0
H42 H 0.08815 0.70031 0.24002 0.0
H43 H 0.07188 0.73178 0.26859 0.0
H44 H 0.09745 0.73281 0.19355 0.0
H45 H 0.08988 0.77218 0.1659 0.0
H46 H 0.96432 0.62957 0.18564 0.0
H47 H 0.95554 0.66958 0.15826 0.0
H48 H 0.96588 0.58783 0.22705 0.0
H49 H 0.07704 0.62629 0.18915 0.0
H50 H 0.95061 0.51333 0.22631 0.0
H51 H 0.05983 0.55042 0.18712 0.0
H52 H 0.90923 0.28085 0.23039 0.0
H53 H 0.92067 0.24698 0.25904 0.0
H54 H 0.05752 0.34652 0.25974 0.0
H55 H 0.04547 0.37979 0.23096 0.0
H56 H 0.04651 0.35614 0.19769 0.0
H57 H 0.05634 0.31589 0.17099 0.0
H58 H 0.91805 0.25407 0.15772 0.0
H59 H 0.90905 0.2951 0.1842 0.0
H60 H 0.91088 0.37456 0.21092 0.0
H61 H 0.92447 0.44929 0.20882 0.0
H62 H 0.06334 0.49639 0.2046 0.0
N63 N 0.96874 0.34771 0.20991 0.0
H64 H 0.04884 0.4217 0.20505 0.0
C65 C 0.02409 0.67403 0.22701 0.0
C66 C 0.98224 0.66916 0.22925 0.0
C67 C 0.97282 0.68717 0.24548 0.0
C68 C 0.0051 0.71105 0.25961 0.0
C69 C 0.04653 0.71471 0.25771 0.0
C70 C 0.05582 0.69635 0.24151 0.0
C71 C 0.03148 0.67871 0.19178 0.0
C72 C 0.06657 0.71871 0.18573 0.0
C73 C 0.06182 0.74146 0.17005 0.0
C74 C 0.02136 0.7248 0.16025 0.0
C75 C 0.98686 0.68355 0.1657 0.0
C76 C 0.99179 0.66066 0.18134 0.0
C77 C 0.02332 0.61348 0.20829 0.0
C78 C 0.98688 0.58053 0.21829 0.0
C79 C 0.97773 0.53724 0.21769 0.0
C80 C 0.004 0.52538 0.20672 0.0
C81 C 0.03939 0.55815 0.19615 0.0
C82 C 0.04906 0.60159 0.1971 0.0
C83 C 0.97614 0.33285 0.22848 0.0
C84 C 0.94146 0.29578 0.23703 0.0
C85 C 0.9483 0.27642 0.25352 0.0
C86 C 0.9904 0.29398 0.26188 0.0
C87 C 0.02475 0.33219 0.2537 0.0
C88 C 0.01783 0.35141 0.23717 0.0
C89 C 0.9769 0.32882 0.19284 0.0
C90 C 0.01855 0.33482 0.18874 0.0
C91 C 0.02409 0.31154 0.17348 0.0
C92 C 0.9883 0.28189 0.162 0.0
C93 C 0.94684 0.27701 0.16581 0.0
C94 C 0.94141 0.30039 0.18106 0.0
C95 C 0.97867 0.39241 0.20854 0.0
C96 C 0.94417 0.40117 0.20944 0.0
C97 C 0.95215 0.44403 0.2084 0.0
C98 C 0.99516 0.47937 0.20677 0.0
C99 C 0.02972 0.4703 0.20562 0.0
C100 C 0.02154 0.4273 0.20624 0.0
H101 H 0.74552 0.11918 0.54785 0.0
N102 N 0.6643 0.05889 0.53892 0.0
H103 H 0.7902 0.11863 0.57532 0.0
H104 H 0.63492 0.0018 0.56975 0.0
H105 H 0.67914 0.00091 0.59729 0.0
H106 H 0.65561 0.9775 0.53772 0.0
H107 H 0.68741 0.95144 0.51296 0.0
H108 H 0.69523 0.09444 0.50405 0.0
H109 H 0.72611 0.0682 0.47899 0.0
H110 H 0.64401 0.11867 0.54936 0.0
H111 H 0.58584 0.98303 0.53318 0.0
H112 H 0.57164 0.11095 0.552 0.0
H113 H 0.51319 0.97545 0.53452 0.0
H114 H 0.36945 0.09008 0.57262 0.0
H115 H 0.32025 0.07237 0.60067 0.0
H116 H 0.26379 0.935 0.58756 0.0
H117 H 0.31312 0.95309 0.55954 0.0
H118 H 0.32789 0.95988 0.52467 0.0
H119 H 0.27674 0.94536 0.4973 0.0
H120 H 0.3029 0.07846 0.50112 0.0
H121 H 0.35337 0.09215 0.5282 0.0
H122 H 0.44473 0.10113 0.5341 0.0
H123 H 0.5154 0.10475 0.53206 0.0
H124 H 0.45679 0.97267 0.55412 0.0
N125 N 0.36947 0.03514 0.54603 0.0
H126 H 0.38567 0.96873 0.55488 0.0
C127 C 0.687 0.0609 0.55686 0.0
C128 C 0.73066 0.09395 0.5589 0.0
C129 C 0.75607 0.09346 0.57452 0.0
C130 C 0.73819 0.06013 0.58859 0.0
C131 C 0.69379 0.02771 0.58699 0.0
C132 C 0.66841 0.02805 0.5712 0.0
C133 C 0.67347 0.03826 0.52277 0.0
C134 C 0.67003 0.99702 0.52474 0.0
C135 C 0.68817 0.98212 0.51059 0.0
C136 C 0.70895 0.00751 0.49399 0.0
C137 C 0.70955 0.04731 0.49137 0.0
C138 C 0.69204 0.0625 0.5057 0.0
C139 C 0.62054 0.05187 0.54077 0.0
C140 C 0.61549 0.08728 0.54622 0.0
C141 C 0.574 0.08281 0.54752 0.0
C142 C 0.53628 0.04276 0.54307 0.0
C143 C 0.54131 0.00677 0.53812 0.0
C144 C 0.58302 0.01115 0.53715 0.0
C145 C 0.3451 0.02308 0.56406 0.0
C146 C 0.34695 0.05617 0.57605 0.0
C147 C 0.31838 0.04596 0.59187 0.0
C148 C 0.28726 0.00221 0.59594 0.0
C149 C 0.28722 0.96895 0.58463 0.0
C150 C 0.31558 0.97925 0.56868 0.0
C151 C 0.34427 0.02717 0.52835 0.0
C152 C 0.32301 0.98595 0.5193 0.0
C153 C 0.29391 0.97778 0.50369 0.0
C154 C 0.2862 0.01081 0.49674 0.0
C155 C 0.30879 0.05245 0.50554 0.0
C156 C 0.33752 0.0604 0.52115 0.0
C157 C 0.41016 0.03511 0.5449 0.0
C158 C 0.44725 0.07297 0.53841 0.0
C159 C 0.48772 0.07502 0.53746 0.0
C160 C 0.49229 0.03928 0.54329 0.0
C161 C 0.45467 0.00081 0.54943 0.0
C162 C 0.41389 0.99861 0.55007 0.0
H163 H 0.65768 0.683 0.87973 0.0
N164 N 0.67149 0.61444 0.87288 0.0
H165 H 0.68683 0.73438 0.90724 0.0
H166 H 0.71375 0.6095 0.9042 0.0
H167 H 0.74208 0.65987 0.93201 0.0
H168 H 0.7476 0.63488 0.85681 0.0
H169 H 0.77918 0.67589 0.82666 0.0
H170 H 0.63125 0.64329 0.84744 0.0
H171 H 0.66288 0.68512 0.81723 0.0
H172 H 0.59341 0.60807 0.88376 0.0
H173 H 0.65212 0.53529 0.86132 0.0
H174 H 0.52247 0.54134 0.885 0.0
H175 H 0.5809 0.46883 0.86123 0.0
H176 H 0.34293 0.36618 0.89926 0.0
H177 H 0.30051 0.3275 0.92835 0.0
H178 H 0.33281 0.22603 0.9185 0.0
H179 H 0.37454 0.26478 0.88932 0.0
H180 H 0.38195 0.28929 0.84366 0.0
H181 H 0.33115 0.26325 0.81581 0.0
H182 H 0.26928 0.33363 0.83802 0.0
H183 H 0.32041 0.35964 0.86577 0.0
H184 H 0.39352 0.41873 0.86795 0.0
H185 H 0.46308 0.48719 0.86712 0.0
H186 H 0.5305 0.4173 0.88258 0.0
N187 N 0.3825 0.33706 0.87386 0.0
H188 H 0.46101 0.34887 0.88203 0.0
C189 C 0.68417 0.64271 0.88982 0.0
C190 C 0.67597 0.6777 0.8911 0.0
C191 C 0.6926 0.70702 0.90685 0.0
C192 C 0.71794 0.70216 0.9215 0.0
C193 C 0.7242 0.66581 0.92066 0.0
C194 C 0.70757 0.63656 0.9049 0.0
C195 C 0.6874 0.63629 0.85437 0.0
C196 C 0.72896 0.64567 0.84816 0.0
C197 C 0.74708 0.66955 0.83105 0.0
C198 C 0.72392 0.68485 0.81985 0.0
C199 C 0.68154 0.67406 0.8257 0.0
C200 C 0.66347 0.65022 0.84292 0.0
C201 C 0.6284 0.57643 0.87282 0.0
C202 C 0.59107 0.57779 0.879 0.0
C203 C 0.55025 0.53949 0.8795 0.0
C204 C 0.54577 0.49929 0.87348 0.0
C205 C 0.58306 0.4987 0.86658 0.0
C206 C 0.62381 0.53673 0.86642 0.0
C207 C 0.36115 0.31775 0.89205 0.0
C208 C 0.34068 0.33557 0.9034 0.0
C209 C 0.3163 0.31328 0.91996 0.0
C210 C 0.31247 0.27306 0.92543 0.0
C211 C 0.33493 0.25673 0.91455 0.0
C212 C 0.35872 0.27871 0.89794 0.0
C213 C 0.35493 0.32617 0.85676 0.0
C214 C 0.35764 0.29933 0.84237 0.0
C215 C 0.32825 0.28413 0.82662 0.0
C216 C 0.29541 0.29552 0.82506 0.0
C217 C 0.29406 0.32413 0.83899 0.0
C218 C 0.32331 0.33906 0.85483 0.0
C219 C 0.4223 0.37853 0.87466 0.0
C220 C 0.42327 0.41813 0.87101 0.0
C221 C 0.46322 0.45744 0.87074 0.0
C222 C 0.50278 0.45797 0.8745 0.0
C223 C 0.5011 0.41827 0.87899 0.0
C224 C 0.46137 0.37909 0.87891 0.0
H225 H 0.93854 0.07967 0.07269 0.0
C226 C 0.96963 0.08092 0.07505 0.0
H227 H 0.02975 0.11112 0.09039 0.0
H228 H 0.02628 0.28365 0.11028 0.0
H229 H 0.08377 0.3098 0.08588 0.0
H230 H 0.09846 0.25831 0.06749 0.0
H231 H 0.05563 0.18038 0.07333 0.0
C232 C 0.99795 0.10855 0.08846 0.0
C233 C 0.9888 0.13924 0.09969 0.0
C234 C 0.01455 0.18477 0.09628 0.0
C235 C 0.00645 0.21453 0.10704 0.0
C236 C 0.03177 0.2597 0.10289 0.0
C237 C 0.06469 0.27514 0.08882 0.0
C238 C 0.07293 0.24615 0.07846 0.0
C239 C 0.04816 0.20147 0.08201 0.0
H240 H 0.02576 0.25405 0.14826 0.0
C241 C 0.99521 0.25455 0.14738 0.0
H242 H 0.93485 0.2286 0.13199 0.0
H243 H 0.93552 0.05423 0.11101 0.0
H244 H 0.87776 0.0282 0.1352 0.0
H245 H 0.86261 0.07969 0.15329 0.0
H246 H 0.90539 0.15757 0.14737 0.0
C247 C 0.96585 0.22954 0.13361 0.0
C248 C 0.97304 0.19871 0.12141 0.0
C249 C 0.9469 0.15315 0.12465 0.0
C250 C 0.9551 0.12339 0.11395 0.0
C251 C 0.92988 0.07824 0.11822 0.0
C252 C 0.89679 0.06284 0.1322 0.0
C253 C 0.8883 0.09182 0.1424 0.0
C254 C 0.91308 0.13648 0.13882 0.0
H255 H 0.84972 0.95199 0.40139 0.0
C256 C 0.8816 0.9729 0.40801 0.0
H257 H 0.91691 0.0165 0.43093 0.0
H258 H 0.79085 0.0851 0.45201 0.0
H259 H 0.85243 0.14915 0.43816 0.0
H260 H 0.91148 0.14399 0.42133 0.0
H261 H 0.90959 0.07479 0.41859 0.0
C262 C 0.88483 0.99473 0.42467 0.0
C263 C 0.84666 0.99602 0.43326 0.0
C264 C 0.84755 0.03657 0.43422 0.0
C265 C 0.81277 0.03927 0.44336 0.0
C266 C 0.81565 0.08068 0.44483 0.0
C267 C 0.85098 0.1179 0.43698 0.0
C268 C 0.88426 0.11502 0.42755 0.0
C269 C 0.88279 0.075 0.42616 0.0
H270 H 0.75025 0.97818 0.4881 0.0
C271 C 0.73482 0.99486 0.48121 0.0
H272 H 0.72646 0.02136 0.45493 0.0
H273 H 0.83571 0.91359 0.43532 0.0
H274 H 0.77117 0.84828 0.44661 0.0
H275 H 0.70719 0.85162 0.4589 0.0
H276 H 0.70797 0.9206 0.46049 0.0
C277 C 0.74215 0.00529 0.46208 0.0
C278 C 0.77645 0.00115 0.45107 0.0
C279 C 0.77434 0.96014 0.44903 0.0
C280 C 0.81013 0.95779 0.44076 0.0
C281 C 0.80863 0.91699 0.4405 0.0
C282 C 0.77187 0.87924 0.44708 0.0
C283 C 0.73594 0.88115 0.45408 0.0
C284 C 0.73696 0.92102 0.45507 0.0
H285 H 0.90784 0.91163 0.76052 0.0
C286 C 0.90857 0.90414 0.74508 0.0
H287 H 0.88253 0.85523 0.72317 0.0
H288 H 0.82555 0.70287 0.78565 0.0
H289 H 0.87752 0.69414 0.76567 0.0
H290 H 0.91883 0.74684 0.73948 0.0
H291 H 0.90818 0.80836 0.733 0.0
C292 C 0.88177 0.86344 0.73849 0.0
C293 C 0.85252 0.82842 0.75238 0.0
C294 C 0.85903 0.79256 0.75589 0.0
C295 C 0.83572 0.76257 0.7712 0.0
C296 C 0.84286 0.727 0.77441 0.0
C297 C 0.8725 0.72152 0.76301 0.0
C298 C 0.89572 0.75117 0.74825 0.0
C299 C 0.88927 0.78636 0.74469 0.0
H300 H 0.72151 0.71176 0.79073 0.0
C301 C 0.74337 0.7124 0.80218 0.0
H302 H 0.80901 0.7424 0.81201 0.0
H303 H 0.82441 0.88702 0.7463 0.0
H304 H 0.77328 0.89665 0.7665 0.0
H305 H 0.73828 0.84927 0.79512 0.0
H306 H 0.75322 0.79139 0.80339 0.0
C307 C 0.78659 0.74037 0.80057 0.0
C308 C 0.80623 0.76868 0.78307 0.0
C309 C 0.79829 0.80351 0.779 0.0
C310 C 0.82044 0.83252 0.76322 0.0
C311 C 0.81011 0.86546 0.75872 0.0
C312 C 0.78057 0.87113 0.77009 0.0
C313 C 0.76073 0.84433 0.78615 0.0
C314 C 0.76941 0.81095 0.79065 0.0
H315 H 0.05914 0.93018 0.07739 0.0
C316 C 0.02612 0.92513 0.07719 0.0
H317 H 0.9623 0.88934 0.08871 0.0
H318 H 0.05238 0.76645 0.10924 0.0
H319 H 0.05255 0.75623 0.07405 0.0
H320 H 0.02943 0.79519 0.05128 0.0
H321 H 0.00682 0.84526 0.06356 0.0
C322 C 0.99512 0.89391 0.08846 0.0
C323 C 0.00533 0.86719 0.10206 0.0
C324 C 0.01675 0.83667 0.09465 0.0
C325 C 0.02815 0.81266 0.10782 0.0
C326 C 0.04179 0.78427 0.09997 0.0
C327 C 0.04229 0.77827 0.07978 0.0
C328 C 0.02943 0.80033 0.06695 0.0
C329 C 0.01677 0.8292 0.07421 0.0
H330 H 0.98462 0.73222 0.13548 0.0
C331 C 0.01354 0.74977 0.14469 0.0
H332 H 0.06554 0.81256 0.1523 0.0
H333 H 0.98414 0.92239 0.12112 0.0
H334 H 0.98062 0.93011 0.15634 0.0
H335 H 0.99719 0.88615 0.1792 0.0
H336 H 0.01768 0.83444 0.16698 0.0
C337 C 0.03841 0.79331 0.14244 0.0
C338 C 0.02626 0.81784 0.1284 0.0
C339 C 0.01373 0.84753 0.13579 0.0
C340 C 0.00342 0.87232 0.12262 0.0
C341 C 0.99177 0.90229 0.13044 0.0
C342 C 0.98967 0.90712 0.15064 0.0
C343 C 0.99907 0.88242 0.16351 0.0
C344 C 0.01093 0.85293 0.15627 0.0
H345 H 0.12479 0.05578 0.41204 0.0
C346 C 0.09644 0.0231 0.41214 0.0
H347 H 0.06928 0.95885 0.42306 0.0
H348 H 0.25413 0.97943 0.44337 0.0
H349 H 0.23209 0.93017 0.41545 0.0
H350 H 0.16565 0.91269 0.39645 0.0
H351 H 0.12102 0.94461 0.40517 0.0
C352 C 0.09672 0.99206 0.42342 0.0
C353 C 0.13562 0.00122 0.43553 0.0
C354 C 0.16085 0.98156 0.43049 0.0
C355 C 0.19882 0.99111 0.44163 0.0
C356 C 0.22436 0.9724 0.43577 0.0
C357 C 0.21224 0.94428 0.41968 0.0
C358 C 0.17486 0.93449 0.40897 0.0
C359 C 0.14947 0.95296 0.41417 0.0
H360 H 0.22523 0.9662 0.48068 0.0
C361 C 0.25156 0.99993 0.48171 0.0
H362 H 0.27645 0.06377 0.47045 0.0
H363 H 0.09194 0.0408 0.45045 0.0
H364 H 0.1136 0.08955 0.47848 0.0
H365 H 0.17997 0.10701 0.49751 0.0
H366 H 0.2249 0.0756 0.48868 0.0
C367 C 0.25037 0.02997 0.47 0.0
C368 C 0.21096 0.01967 0.45803 0.0
C369 C 0.18547 0.03901 0.46317 0.0
C370 C 0.14754 0.02946 0.45203 0.0
C371 C 0.12178 0.04789 0.458 0.0
C372 C 0.13364 0.0757 0.47418 0.0
C373 C 0.17097 0.08549 0.4849 0.0
C374 C 0.19657 0.06731 0.47961 0.0
H375 H 0.11222 0.08729 0.75337 0.0
C376 C 0.09345 0.0991 0.74537 0.0
H377 H 0.08532 0.15349 0.73972 0.0
H378 H 0.18069 0.23038 0.82271 0.0
H379 H 0.10633 0.21108 0.83052 0.0
H380 H 0.04707 0.17388 0.80615 0.0
H381 H 0.06195 0.15538 0.77383 0.0
C382 C 0.10428 0.14114 0.74709 0.0
C383 C 0.14114 0.17081 0.76015 0.0
C384 C 0.13231 0.18316 0.77862 0.0
C385 C 0.16673 0.2056 0.79248 0.0
C386 C 0.15632 0.21479 0.81132 0.0
C387 C 0.11359 0.20357 0.81607 0.0
C388 C 0.08021 0.18255 0.80237 0.0
C389 C 0.08921 0.17214 0.78388 0.0
H390 H 0.24634 0.29589 0.80472 0.0
C391 C 0.26144 0.27707 0.80945 0.0
H392 H 0.25956 0.21644 0.80726 0.0
H393 H 0.1698 0.15731 0.72497 0.0
H394 H 0.24459 0.17833 0.71659 0.0
H395 H 0.30452 0.21769 0.74047 0.0
H396 H 0.29004 0.23624 0.77285 0.0
C397 C 0.24587 0.23638 0.8024 0.0
C398 C 0.21019 0.21686 0.78751 0.0
C399 C 0.21926 0.20647 0.76862 0.0
C400 C 0.18474 0.18358 0.7549 0.0
C401 C 0.19474 0.17392 0.73608 0.0
C402 C 0.23755 0.18604 0.73104 0.0
C403 C 0.27129 0.20821 0.74448 0.0
C404 C 0.26249 0.21851 0.76305 0.0
H405 H 0.88916 0.05151 0.69062 0.0
C406 C 0.90148 0.03348 0.68246 0.0
H407 H 0.89857 0.00057 0.65619 0.0
H408 H 0.71531 0.95534 0.62452 0.0
H409 H 0.70409 0.88379 0.63267 0.0
H410 H 0.75959 0.8759 0.65147 0.0
H411 H 0.82691 0.93955 0.66201 0.0
C412 C 0.88689 0.01941 0.66415 0.0
C413 C 0.85185 0.02511 0.65475 0.0
C414 C 0.81202 0.98755 0.64918 0.0
C415 C 0.77954 0.99211 0.63874 0.0
C416 C 0.74084 0.95394 0.63274 0.0
C417 C 0.73395 0.91257 0.63731 0.0
C418 C 0.76522 0.90813 0.64786 0.0
C419 C 0.80383 0.94501 0.65376 0.0
H420 H 0.80244 0.07342 0.59969 0.0
C421 C 0.76796 0.05812 0.60345 0.0
H422 H 0.72101 0.02346 0.62541 0.0
H423 H 0.92576 0.10441 0.66165 0.0
H424 H 0.93417 0.17579 0.65597 0.0
H425 H 0.87415 0.18337 0.64148 0.0
H426 H 0.8058 0.11938 0.63202 0.0
C427 C 0.75504 0.03868 0.62105 0.0
C428 C 0.78655 0.03427 0.6342 0.0
C429 C 0.82503 0.07184 0.64098 0.0
C430 C 0.85845 0.06735 0.65059 0.0
C431 C 0.89823 0.10562 0.65538 0.0
C432 C 0.90368 0.14693 0.65204 0.0
C433 C 0.86999 0.15121 0.64379 0.0
C434 C 0.83108 0.11423 0.63828 0.0
H435 H 0.93022 0.89434 0.99014 0.0
C436 C 0.91537 0.90512 0.00115 0.0
H437 H 0.85615 0.89586 0.01314 0.0
H438 H 0.80731 0.80946 0.92273 0.0
H439 H 0.84742 0.88443 0.91155 0.0
H440 H 0.8849 0.94513 0.93517 0.0
H441 H 0.88298 0.93106 0.97013 0.0
C442 C 0.87166 0.88665 0.00181 0.0
C443 C 0.84354 0.85098 0.98789 0.0
C444 C 0.84352 0.85989 0.96759 0.0
C445 C 0.82056 0.825 0.95405 0.0
C446 C 0.82302 0.8347 0.93375 0.0
C447 C 0.84611 0.87763 0.9271 0.0
C448 C 0.86732 0.91179 0.9404 0.0
C449 C 0.86616 0.90323 0.96041 0.0
H450 H 0.72468 0.75753 0.93951 0.0
C451 C 0.73819 0.73619 0.93704 0.0
H452 H 0.79017 0.72492 0.94448 0.0
H453 H 0.83425 0.8231 0.02598 0.0
H454 H 0.79137 0.74835 0.03737 0.0
H455 H 0.75005 0.68801 0.01397 0.0
H456 H 0.75146 0.70203 0.979 0.0
C457 C 0.77475 0.74449 0.94682 0.0
C458 C 0.7964 0.78142 0.96095 0.0
C459 C 0.79483 0.77276 0.98133 0.0
C460 C 0.81836 0.80759 0.99483 0.0
C461 C 0.81677 0.79791 0.01509 0.0
C462 C 0.79231 0.75515 0.02183 0.0
C463 C 0.76906 0.72116 0.00865 0.0
C464 C 0.7702 0.72965 0.98862 0.0
H465 H 0.02833 0.92663 0.32598 0.0
C466 C 0.00499 0.91207 0.33789 0.0
H467 H 0.96039 0.85334 0.35207 0.0
H468 H 0.98809 0.79923 0.26104 0.0
H469 H 0.94709 0.8339 0.25065 0.0
H470 H 0.92364 0.87035 0.27467 0.0
H471 H 0.94188 0.87299 0.30921 0.0
C472 C 0.98264 0.86848 0.33984 0.0
C473 C 0.99021 0.84034 0.32599 0.0
C474 C 0.97744 0.83725 0.30602 0.0
C475 C 0.98917 0.81446 0.29234 0.0
C476 C 0.97849 0.81443 0.27225 0.0
C477 C 0.95518 0.83451 0.26604 0.0
C478 C 0.94213 0.85517 0.27955 0.0
C479 C 0.95305 0.85666 0.29931 0.0
H480 H 0.96022 0.72015 0.27914 0.0
C481 C 0.99453 0.73259 0.27571 0.0
H482 H 0.05919 0.78374 0.28133 0.0
H483 H 0.01781 0.83834 0.36338 0.0
H484 H 0.05631 0.80111 0.37411 0.0
H485 H 0.07438 0.75932 0.35061 0.0
H486 H 0.0543 0.75473 0.31619 0.0
C487 C 0.02467 0.76947 0.28462 0.0
C488 C 0.01182 0.79298 0.29886 0.0
C489 C 0.02328 0.79487 0.31895 0.0
C490 C 0.01246 0.81858 0.33254 0.0
C491 C 0.02495 0.82054 0.35246 0.0
C492 C 0.04707 0.79932 0.35882 0.0
C493 C 0.05727 0.77582 0.34558 0.0
C494 C 0.0456 0.77349 0.32586 0.0
H495 H 0.09513 0.03505 0.65885 0.0
C496 C 0.08026 0.00767 0.66896 0.0
H497 H 0.08027 0.95123 0.67931 0.0
H498 H 0.17177 0.9479 0.59813 0.0
H499 H 0.09863 0.88726 0.59272 0.0
H500 H 0.03988 0.87032 0.6166 0.0
H501 H 0.05397 0.91438 0.64601 0.0
C502 C 0.09481 0.97909 0.66948 0.0
C503 C 0.13163 0.98546 0.65665 0.0
C504 C 0.12337 0.95845 0.63997 0.0
C505 C 0.15759 0.96765 0.62644 0.0
C506 C 0.1476 0.94168 0.60926 0.0
C507 C 0.10558 0.90688 0.60588 0.0
C508 C 0.07247 0.89738 0.61931 0.0
C509 C 0.081 0.9229 0.63613 0.0
H510 H 0.24035 0.95894 0.61848 0.0
C511 C 0.25349 0.99051 0.61133 0.0
H512 H 0.24747 0.04675 0.60792 0.0
H513 H 0.15967 0.04002 0.6886 0.0
H514 H 0.2332 0.09982 0.69457 0.0
H515 H 0.29263 0.11586 0.67119 0.0
H516 H 0.27888 0.07215 0.64173 0.0
C517 C 0.23572 0.01564 0.61527 0.0
C518 C 0.20036 0.00316 0.63001 0.0
C519 C 0.20894 0.02904 0.64715 0.0
C520 C 0.17462 0.02004 0.66055 0.0
C521 C 0.1843 0.04601 0.67771 0.0
C522 C 0.22644 0.08027 0.68139 0.0
C523 C 0.2599 0.08929 0.66824 0.0
C524 C 0.2515 0.06402 0.65134 0.0
H525 H 0.0746 0.10773 0.98964 0.0
C526 C 0.08808 0.09889 0.00204 0.0
H527 H 0.1457 0.11084 0.01691 0.0
H528 H 0.21405 0.17729 0.92593 0.0
H529 H 0.17462 0.10028 0.91773 0.0
H530 H 0.13001 0.04527 0.94257 0.0
H531 H 0.12399 0.0671 0.97564 0.0
C532 C 0.13162 0.11811 0.00426 0.0
C533 C 0.16163 0.15084 0.98981 0.0
C534 C 0.16612 0.13734 0.97076 0.0
C535 C 0.19341 0.16889 0.95671 0.0
C536 C 0.19531 0.15467 0.93746 0.0
C537 C 0.17255 0.11053 0.93249 0.0
C538 C 0.14732 0.07958 0.94645 0.0
C539 C 0.14398 0.09262 0.96537 0.0
H540 H 0.29129 0.22198 0.94818 0.0
C541 C 0.28452 0.24631 0.94191 0.0
H542 H 0.23939 0.2694 0.94156 0.0
H543 H 0.16011 0.1875 0.02499 0.0
H544 H 0.20089 0.26454 0.03345 0.0
H545 H 0.25 0.31906 0.00941 0.0
H546 H 0.25852 0.29693 0.97669 0.0
C547 C 0.24823 0.24652 0.9477 0.0
C548 C 0.21775 0.21371 0.96203 0.0
C549 C 0.21329 0.22716 0.98108 0.0
C550 C 0.18523 0.19567 0.995 0.0
C551 C 0.18118 0.21003 0.01389 0.0
C552 C 0.20438 0.25413 0.01894 0.0
C553 C 0.23202 0.28484 0.00539 0.0
C554 C 0.2366 0.27171 0.98667 0.0
H555 H 0.96444 0.07652 0.32616 0.0
C556 C 0.98703 0.08938 0.33852 0.0
H557 H 0.03216 0.14619 0.35396 0.0
H558 H 0.0073 0.20571 0.26325 0.0
H559 H 0.04614 0.16923 0.25237 0.0
H560 H 0.06852 0.13108 0.27598 0.0
H561 H 0.0513 0.12853 0.31059 0.0
C562 C 0.01065 0.13273 0.3413 0.0
C563 C 0.00509 0.16284 0.32785 0.0
C564 C 0.01744 0.16602 0.30786 0.0
C565 C 0.0064 0.18982 0.29443 0.0
C566 C 0.01643 0.18976 0.27429 0.0
C567 C 0.03851 0.16866 0.2678 0.0
C568 C 0.05097 0.14705 0.28107 0.0
C569 C 0.04062 0.1456 0.30087 0.0
H570 H 0.0352 0.28525 0.28179 0.0
C571 C 1.0009 0.27203 0.27797 0.0
H572 H 0.93651 0.22158 0.28472 0.0
H573 H 0.97964 0.16594 0.36548 0.0
H574 H 0.94414 0.20564 0.37679 0.0
H575 H 0.92752 0.2493 0.35376 0.0
H576 H 0.94602 0.25327 0.31922 0.0
C577 C 0.97129 0.23541 0.28714 0.0
C578 C 0.98491 0.21223 0.30124 0.0
C579 C 0.97456 0.21082 0.32142 0.0
C580 C 0.98463 0.18608 0.33475 0.0
C581 C 0.97305 0.1845 0.35475 0.0
C582 C 0.95266 0.20713 0.36144 0.0
C583 C 0.94327 0.23168 0.34847 0.0
C584 C 0.95398 0.23362 0.32868 0.0
loop_
_geom_bond_atom_site_label_1
_geom_bond_atom_site_label_2
_geom_bond_distance
_geom_bond_site_symmetry_2
_ccdc_geom_bond_type
In0 O1 2.294 1_455 S
In0 O2 2.326 . S
In0 O6 2.266 1_445 S
In0 O7 2.326 1_445 S
In0 O8 2.266 1_545 S
In0 O9 2.326 1_445 S
In0 O11 2.294 . S
In0 O12 2.326 . S
O1 In0 2.294 1_655 S
O1 C10 1.240 1_655 S
O2 In0 2.326 . S
O2 C10 1.252 . S
C3 O6 1.252 . S
C3 O7 1.260 . S
C4 O11 1.240 . S
C4 O12 1.252 . S
C5 O8 1.234 1_655 S
C5 O9 1.291 . S
O6 In0 2.266 1_665 S
O6 C3 1.252 . S
O7 In0 2.326 1_665 S
O7 C3 1.260 . S
O8 In0 2.266 1_565 S
O8 C5 1.234 1_455 S
O9 In0 2.326 1_665 S
O9 C5 1.291 . S
C10 O1 1.240 1_455 S
C10 O2 1.252 . S
O11 In0 2.294 . S
O11 C4 1.240 . S
O12 In0 2.326 . S
O12 C4 1.252 . S
In13 O14 2.292 . S
In13 O15 2.310 1_455 S
In13 O19 2.285 . S
In13 O20 2.339 1_545 S
In13 O21 2.268 1_445 S
In13 O22 2.341 1_545 S
In13 O24 2.275 1_445 S
In13 O25 2.313 1_455 S
O14 In13 2.292 . S
O14 C23 1.240 1_455 S
O15 In13 2.310 1_655 S
O15 C23 1.252 . S
C16 O19 1.232 1_565 S
C16 O20 1.270 . S
C17 O24 1.240 1_545 S
C17 O25 1.252 . S
C18 O21 1.252 1_455 S
C18 O22 1.260 . S
O19 In13 2.285 . S
O19 C16 1.232 1_545 S
O20 In13 2.339 1_565 S
O20 C16 1.270 . S
O21 In13 2.268 1_665 S
O21 C18 1.252 1_655 S
O22 In13 2.341 1_565 S
O22 C18 1.260 . S
C23 O14 1.240 1_655 S
C23 O15 1.252 . S
O24 In13 2.275 1_665 S
O24 C17 1.240 1_565 S
O25 In13 2.313 1_655 S
O25 C17 1.252 . S
In26 O27 2.275 1_445 S
In26 O28 2.310 1_445 S
In26 O32 2.272 1_545 S
In26 O33 2.343 . S
In26 O34 2.285 . S
In26 O35 2.341 . S
In26 O37 2.289 1_455 S
In26 O38 2.308 1_445 S
O27 In26 2.275 1_665 S
O27 C36 1.240 . S
O28 In26 2.310 1_665 S
O28 C36 1.252 . S
C29 O32 1.252 1_545 S
C29 O33 1.260 . S
C30 O37 1.240 1_565 S
C30 O38 1.252 . S
C31 O34 1.252 . S
C31 O35 1.260 . S
O32 In26 2.272 1_565 S
O32 C29 1.252 1_565 S
O33 In26 2.343 . S
O33 C29 1.260 . S
O34 In26 2.285 . S
O34 C31 1.252 . S
O35 In26 2.341 . S
O35 C31 1.260 . S
C36 O27 1.240 . S
C36 O28 1.252 . S
O37 In26 2.289 1_655 S
O37 C30 1.240 1_545 S
O38 In26 2.308 1_665 S
O38 C30 1.252 . S
H39 C66 0.929 . S
N40 C65 1.433 . S
N40 C71 1.435 . S
N40 C77 1.423 . S
H41 C67 0.930 . S
H42 C70 0.931 . S
H43 C69 0.929 . S
H44 C72 0.930 . S
H45 C73 0.932 . S
H46 C76 0.929 . S
H47 C75 0.931 . S
H48 C78 0.929 . S
H49 C82 0.927 1_455 S
H50 C79 0.931 . S
H51 C81 0.929 1_455 S
H52 C84 0.929 . S
H53 C85 0.930 . S
H54 C87 0.929 . S
H55 C88 0.931 . S
H56 C90 0.930 . S
H57 C91 0.932 . S
H58 C93 0.931 . S
H59 C94 0.929 . S
H60 C96 0.929 . S
H61 C97 0.931 . S
H62 C99 0.929 1_455 S
N63 C83 1.433 . S
N63 C89 1.435 . S
N63 C95 1.423 . S
H64 C100 0.920 1_455 S
C65 N40 1.433 . S
C65 C66 1.363 . S
C65 C70 1.370 1_655 S
C66 H39 0.929 . S
C66 C65 1.363 . S
C66 C67 1.385 . S
C67 H41 0.930 . S
C67 C66 1.385 . S
C67 C68 1.357 . S
C68 C67 1.357 . S
C68 C69 1.406 1_655 S
C69 H43 0.929 . S
C69 C68 1.406 1_455 S
C69 C70 1.391 . S
C70 H42 0.931 . S
C70 C65 1.370 1_455 S
C70 C69 1.391 . S
C71 N40 1.435 . S
C71 C72 1.358 1_655 S
C71 C76 1.371 . S
C72 H44 0.930 . S
C72 C71 1.358 1_455 S
C72 C73 1.405 . S
C73 H45 0.932 . S
C73 C72 1.405 . S
C73 C74 1.388 . S
C74 C73 1.388 . S
C74 C75 1.390 1_455 S
C75 H47 0.931 . S
C75 C74 1.390 1_655 S
C75 C76 1.382 . S
C76 H46 0.929 . S
C76 C71 1.371 . S
C76 C75 1.382 . S
C77 N40 1.423 . S
C77 C78 1.362 . S
C77 C82 1.400 . S
C78 H48 0.929 . S
C78 C77 1.362 . S
C78 C79 1.376 . S
C79 H50 0.931 . S
C79 C78 1.376 . S
C79 C80 1.396 . S
C80 C79 1.396 . S
C80 C81 1.348 . S
C80 C98 1.472 . S
C81 H51 0.929 1_655 S
C81 C80 1.348 . S
C81 C82 1.436 . S
C82 H49 0.927 1_655 S
C82 C77 1.400 . S
C82 C81 1.436 . S
C83 N63 1.433 . S
C83 C84 1.363 . S
C83 C88 1.370 1_655 S
C84 H52 0.929 . S
C84 C83 1.363 . S
C84 C85 1.385 . S
C85 H53 0.930 . S
C85 C84 1.385 . S
C85 C86 1.357 . S
C86 C85 1.357 . S
C86 C87 1.406 1_655 S
C87 H54 0.929 . S
C87 C86 1.406 1_455 S
C87 C88 1.391 . S
C88 H55 0.931 . S
C88 C83 1.370 1_455 S
C88 C87 1.391 . S
C89 N63 1.435 . S
C89 C90 1.358 1_655 S
C89 C94 1.371 . S
C90 H56 0.930 . S
C90 C89 1.358 1_455 S
C90 C91 1.405 . S
C91 H57 0.932 . S
C91 C90 1.405 . S
C91 C92 1.389 . S
C92 C91 1.389 . S
C92 C93 1.382 1_455 S
C93 H58 0.931 . S
C93 C92 1.382 1_655 S
C93 C94 1.382 . S
C94 H59 0.929 . S
C94 C89 1.371 . S
C94 C93 1.382 . S
C95 N63 1.423 . S
C95 C96 1.362 . S
C95 C100 1.392 . S
C96 H60 0.929 . S
C96 C95 1.362 . S
C96 C97 1.376 . S
C97 H61 0.931 . S
C97 C96 1.376 . S
C97 C98 1.396 . S
C98 C80 1.472 . S
C98 C97 1.396 . S
C98 C99 1.348 . S
C99 H62 0.929 1_655 S
C99 C98 1.348 . S
C99 C100 1.452 . S
C100 H64 0.920 1_655 S
C100 C95 1.392 . S
C100 C99 1.452 . S
H101 C128 0.929 . S
N102 C127 1.433 . S
N102 C133 1.435 . S
N102 C139 1.423 . S
H103 C129 0.930 . S
H104 C132 0.931 . S
H105 C131 0.929 . S
H106 C134 0.930 . S
H107 C135 0.932 . S
H108 C138 0.929 . S
H109 C137 0.931 . S
H110 C140 0.929 . S
H111 C144 0.932 1_565 S
H112 C141 0.931 . S
H113 C143 0.929 1_565 S
H114 C146 0.929 . S
H115 C147 0.930 . S
H116 C149 0.929 . S
H117 C150 0.931 . S
H118 C152 0.930 . S
H119 C153 0.932 . S
H120 C155 0.931 . S
H121 C156 0.929 . S
H122 C158 0.929 . S
H123 C159 0.931 . S
H124 C161 0.929 1_565 S
N125 C145 1.433 . S
N125 C151 1.435 . S
N125 C157 1.423 . S
H126 C162 0.932 1_565 S
C127 N102 1.433 . S
C127 C128 1.363 . S
C127 C132 1.370 1_545 S
C128 H101 0.929 . S
C128 C127 1.363 . S
C128 C129 1.385 . S
C129 H103 0.930 . S
C129 C128 1.385 . S
C129 C130 1.357 . S
C130 C129 1.357 . S
C130 C131 1.406 1_545 S
C131 H105 0.929 . S
C131 C130 1.406 1_565 S
C131 C132 1.391 . S
C132 H104 0.931 . S
C132 C127 1.370 1_565 S
C132 C131 1.391 . S
C133 N102 1.435 . S
C133 C134 1.358 1_545 S
C133 C138 1.371 . S
C134 H106 0.930 . S
C134 C133 1.358 1_565 S
C134 C135 1.405 . S
C135 H107 0.932 . S
C135 C134 1.405 . S
C135 C136 1.383 1_565 S
C136 C135 1.383 1_545 S
C136 C137 1.393 . S
C137 H109 0.931 . S
C137 C136 1.393 . S
C137 C138 1.382 . S
C138 H108 0.929 . S
C138 C133 1.371 . S
C138 C137 1.382 . S
C139 N102 1.423 . S
C139 C140 1.362 . S
C139 C144 1.388 . S
C140 H110 0.929 . S
C140 C139 1.362 . S
C140 C141 1.376 . S
C141 H112 0.931 . S
C141 C140 1.376 . S
C141 C142 1.396 . S
C142 C141 1.396 . S
C142 C143 1.348 . S
C142 C160 1.472 . S
C143 H113 0.929 1_545 S
C143 C142 1.348 . S
C143 C144 1.443 . S
C144 H111 0.932 1_545 S
C144 C139 1.388 . S
C144 C143 1.443 . S
C145 N125 1.433 . S
C145 C146 1.363 . S
C145 C150 1.370 1_545 S
C146 H114 0.929 . S
C146 C145 1.363 . S
C146 C147 1.385 . S
C147 H115 0.930 . S
C147 C146 1.385 . S
C147 C148 1.357 . S
C148 C147 1.357 . S
C148 C149 1.406 1_545 S
C149 H116 0.929 . S
C149 C148 1.406 1_565 S
C149 C150 1.391 . S
C150 H117 0.931 . S
C150 C145 1.370 1_565 S
C150 C149 1.391 . S
C151 N125 1.435 . S
C151 C152 1.358 1_545 S
C151 C156 1.371 . S
C152 H118 0.930 . S
C152 C151 1.358 1_565 S
C152 C153 1.405 . S
C153 H119 0.932 . S
C153 C152 1.405 . S
C153 C154 1.383 1_565 S
C154 C153 1.383 1_545 S
C154 C155 1.393 . S
C155 H120 0.931 . S
C155 C154 1.393 . S
C155 C156 1.382 . S
C156 H121 0.929 . S
C156 C151 1.371 . S
C156 C155 1.382 . S
C157 N125 1.423 . S
C157 C158 1.362 . S
C157 C162 1.388 . S
C158 H122 0.929 . S
C158 C157 1.362 . S
C158 C159 1.376 . S
C159 H123 0.931 . S
C159 C158 1.376 . S
C159 C160 1.396 . S
C160 C142 1.472 . S
C160 C159 1.396 . S
C160 C161 1.348 . S
C161 H124 0.929 1_545 S
C161 C160 1.348 . S
C161 C162 1.443 . S
C162 H126 0.932 1_545 S
C162 C157 1.388 . S
C162 C161 1.443 . S
H163 C190 0.929 . S
N164 C189 1.433 . S
N164 C195 1.435 . S
N164 C201 1.423 . S
H165 C191 0.930 . S
H166 C194 0.931 . S
H167 C193 0.929 . S
H168 C196 0.930 . S
H169 C197 0.932 . S
H170 C200 0.929 . S
H171 C199 0.931 . S
H172 C202 0.929 . S
H173 C206 0.932 . S
H174 C203 0.931 . S
H175 C205 0.929 . S
H176 C208 0.929 . S
H177 C209 0.930 . S
H178 C211 0.929 . S
H179 C212 0.931 . S
H180 C214 0.930 . S
H181 C215 0.932 . S
H182 C217 0.931 . S
H183 C218 0.929 . S
H184 C220 0.929 . S
H185 C221 0.931 . S
H186 C223 0.929 . S
N187 C207 1.433 . S
N187 C213 1.435 . S
N187 C219 1.423 . S
H188 C224 0.932 . S
C189 N164 1.433 . S
C189 C190 1.363 . S
C189 C194 1.370 . S
C190 H163 0.929 . S
C190 C189 1.363 . S
C190 C191 1.385 . S
C191 H165 0.930 . S
C191 C190 1.385 . S
C191 C192 1.357 . S
C192 C191 1.357 . S
C192 C193 1.406 . S
C193 H167 0.929 . S
C193 C192 1.406 . S
C193 C194 1.391 . S
C194 H166 0.931 . S
C194 C189 1.370 . S
C194 C193 1.391 . S
C195 N164 1.435 . S
C195 C196 1.358 . S
C195 C200 1.371 . S
C196 H168 0.930 . S
C196 C195 1.358 . S
C196 C197 1.405 . S
C197 H169 0.932 . S
C197 C196 1.405 . S
C197 C198 1.383 . S
C198 C197 1.383 . S
C198 C199 1.393 . S
C199 H171 0.931 . S
C199 C198 1.393 . S
C199 C200 1.382 . S
C200 H170 0.929 . S
C200 C195 1.371 . S
C200 C199 1.382 . S
C201 N164 1.423 . S
C201 C202 1.362 . S
C201 C206 1.388 . S
C202 H172 0.929 . S
C202 C201 1.362 . S
C202 C203 1.376 . S
C203 H174 0.931 . S
C203 C202 1.376 . S
C203 C204 1.396 . S
C204 C203 1.396 . S
C204 C205 1.348 . S
C204 C222 1.472 . S
C205 H175 0.929 . S
C205 C204 1.348 . S
C205 C206 1.443 . S
C206 H173 0.932 . S
C206 C201 1.388 . S
C206 C205 1.443 . S
C207 N187 1.433 . S
C207 C208 1.363 . S
C207 C212 1.370 . S
C208 H176 0.929 . S
C208 C207 1.363 . S
C208 C209 1.385 . S
C209 H177 0.930 . S
C209 C208 1.385 . S
C209 C210 1.357 . S
C210 C209 1.357 . S
C210 C211 1.406 . S
C211 H178 0.929 . S
C211 C210 1.406 . S
C211 C212 1.391 . S
C212 H179 0.931 . S
C212 C207 1.370 . S
C212 C211 1.391 . S
C213 N187 1.435 . S
C213 C214 1.358 . S
C213 C218 1.371 . S
C214 H180 0.930 . S
C214 C213 1.358 . S
C214 C215 1.405 . S
C215 H181 0.932 . S
C215 C214 1.405 . S
C215 C216 1.383 . S
C216 C215 1.383 . S
C216 C217 1.393 . S
C217 H182 0.931 . S
C217 C216 1.393 . S
C217 C218 1.382 . S
C218 H183 0.929 . S
C218 C213 1.371 . S
C218 C217 1.382 . S
C219 N187 1.423 . S
C219 C220 1.362 . S
C219 C224 1.388 . S
C220 H184 0.929 . S
C220 C219 1.362 . S
C220 C221 1.376 . S
C221 H185 0.931 . S
C221 C220 1.376 . S
C221 C222 1.396 . S
C222 C204 1.472 . S
C222 C221 1.396 . S
C222 C223 1.348 . S
C223 H186 0.929 . S
C223 C222 1.348 . S
C223 C224 1.443 . S
C224 H188 0.932 . S
C224 C219 1.388 . S
C224 C223 1.443 . S
H225 C226 0.951 . S
C226 H225 0.951 . S
C226 C232 1.257 1_455 S
H227 C232 0.948 . S
H228 C236 0.949 . S
H229 C237 0.950 . S
H230 C238 0.951 . S
H231 C239 0.951 . S
C232 C226 1.257 1_655 S
C232 H227 0.948 . S
C232 C233 1.488 1_655 S
C233 C232 1.488 1_455 S
C233 C234 1.397 . S
C233 C250 1.394 1_455 S
C234 C233 1.397 . S
C234 C235 1.438 . S
C234 C239 1.429 . S
C235 C234 1.438 . S
C235 C236 1.428 . S
C235 C248 1.394 . S
C236 H228 0.949 . S
C236 C235 1.428 . S
C236 C237 1.345 . S
C237 H229 0.950 . S
C237 C236 1.345 . S
C237 C238 1.424 . S
C238 H230 0.951 . S
C238 C237 1.424 . S
C238 C239 1.347 . S
C239 H231 0.951 . S
C239 C234 1.429 . S
C239 C238 1.347 . S
H240 C241 0.952 1_655 S
C241 H240 0.952 1_455 S
C241 C247 1.270 . S
H242 C247 0.950 . S
H243 C251 0.949 . S
H244 C252 0.950 . S
H245 C253 0.951 . S
H246 C254 0.951 . S
C247 C241 1.270 . S
C247 H242 0.950 . S
C247 C248 1.478 . S
C248 C235 1.394 . S
C248 C247 1.478 . S
C248 C249 1.397 1_455 S
C249 C248 1.397 1_655 S
C249 C250 1.438 . S
C249 C254 1.429 . S
C250 C233 1.394 1_655 S
C250 C249 1.438 . S
C250 C251 1.428 . S
C251 H243 0.949 . S
C251 C250 1.428 . S
C251 C252 1.345 . S
C252 H244 0.950 . S
C252 C251 1.345 . S
C252 C253 1.424 . S
C253 H245 0.951 . S
C253 C252 1.424 . S
C253 C254 1.347 . S
C254 H246 0.951 . S
C254 C249 1.429 . S
C254 C253 1.347 . S
H255 C256 0.951 . S
C256 H255 0.951 . S
C256 C262 1.265 . S
H257 C262 0.950 . S
H258 C266 0.949 . S
H259 C267 0.950 . S
H260 C268 0.951 . S
H261 C269 0.951 . S
C262 C256 1.265 . S
C262 H257 0.950 . S
C262 C263 1.478 . S
C263 C262 1.478 . S
C263 C264 1.397 . S
C263 C280 1.394 1_545 S
C264 C263 1.397 . S
C264 C265 1.438 . S
C264 C269 1.429 . S
C265 C264 1.438 . S
C265 C266 1.428 . S
C265 C278 1.394 . S
C266 H258 0.949 . S
C266 C265 1.428 . S
C266 C267 1.345 . S
C267 H259 0.950 . S
C267 C266 1.345 . S
C267 C268 1.424 . S
C268 H260 0.951 . S
C268 C267 1.424 . S
C268 C269 1.347 . S
C269 H261 0.951 . S
C269 C264 1.429 . S
C269 C268 1.347 . S
H270 C271 0.951 . S
C271 H270 0.951 . S
C271 C277 1.269 . S
H272 C277 0.957 1_565 S
H273 C281 0.949 . S
H274 C282 0.950 . S
H275 C283 0.951 . S
H276 C284 0.951 . S
C277 C271 1.269 . S
C277 H272 0.957 1_545 S
C277 C278 1.468 . S
C278 C265 1.394 . S
C278 C277 1.468 . S
C278 C279 1.397 1_545 S
C279 C278 1.397 1_565 S
C279 C280 1.438 . S
C279 C284 1.429 . S
C280 C263 1.394 1_565 S
C280 C279 1.438 . S
C280 C281 1.428 . S
C281 H273 0.949 . S
C281 C280 1.428 . S
C281 C282 1.345 . S
C282 H274 0.950 . S
C282 C281 1.345 . S
C282 C283 1.424 . S
C283 H275 0.951 . S
C283 C282 1.424 . S
C283 C284 1.347 . S
C284 H276 0.951 . S
C284 C279 1.429 . S
C284 C283 1.347 . S
H285 C286 0.951 . S
C286 H285 0.951 . S
C286 C292 1.265 . S
H287 C292 0.950 . S
H288 C296 0.949 . S
H289 C297 0.950 . S
H290 C298 0.951 . S
H291 C299 0.951 . S
C292 C286 1.265 . S
C292 H287 0.950 . S
C292 C293 1.478 . S
C293 C292 1.478 . S
C293 C294 1.397 . S
C293 C310 1.394 . S
C294 C293 1.397 . S
C294 C295 1.438 . S
C294 C299 1.429 . S
C295 C294 1.438 . S
C295 C296 1.428 . S
C295 C308 1.394 . S
C296 H288 0.949 . S
C296 C295 1.428 . S
C296 C297 1.345 . S
C297 H289 0.950 . S
C297 C296 1.345 . S
C297 C298 1.424 . S
C298 H290 0.951 . S
C298 C297 1.424 . S
C298 C299 1.347 . S
C299 H291 0.951 . S
C299 C294 1.429 . S
C299 C298 1.347 . S
H300 C301 0.951 . S
C301 H300 0.951 . S
C301 C307 1.265 . S
H302 C307 0.950 . S
H303 C311 0.949 . S
H304 C312 0.950 . S
H305 C313 0.951 . S
H306 C314 0.951 . S
C307 C301 1.265 . S
C307 H302 0.950 . S
C307 C308 1.478 . S
C308 C295 1.394 . S
C308 C307 1.478 . S
C308 C309 1.397 . S
C309 C308 1.397 . S
C309 C310 1.438 . S
C309 C314 1.429 . S
C310 C293 1.394 . S
C310 C309 1.438 . S
C310 C311 1.428 . S
C311 H303 0.949 . S
C311 C310 1.428 . S
C311 C312 1.345 . S
C312 H304 0.950 . S
C312 C311 1.345 . S
C312 C313 1.424 . S
C313 H305 0.951 . S
C313 C312 1.424 . S
C313 C314 1.347 . S
C314 H306 0.951 . S
C314 C309 1.429 . S
C314 C313 1.347 . S
H315 C316 0.951 . S
C316 H315 0.951 . S
C316 C322 1.265 1_455 S
H317 C322 0.950 . S
H318 C326 0.949 . S
H319 C327 0.950 . S
H320 C328 0.951 . S
H321 C329 0.951 . S
C322 C316 1.265 1_655 S
C322 H317 0.950 . S
C322 C323 1.478 . S
C323 C322 1.478 . S
C323 C324 1.397 . S
C323 C340 1.395 . S
C324 C323 1.397 . S
C324 C325 1.438 1_655 S
C324 C329 1.429 . S
C325 C324 1.438 1_455 S
C325 C326 1.428 . S
C325 C338 1.394 . S
C326 H318 0.949 . S
C326 C325 1.428 . S
C326 C327 1.345 1_455 S
C327 H319 0.950 . S
C327 C326 1.345 1_655 S
C327 C328 1.424 . S
C328 H320 0.951 . S
C328 C327 1.424 . S
C328 C329 1.347 . S
C329 H321 0.951 . S
C329 C324 1.429 . S
C329 C328 1.347 . S
H330 C331 0.951 . S
C331 H330 0.951 . S
C331 C337 1.265 1_655 S
H332 C337 0.950 . S
H333 C341 0.949 . S
H334 C342 0.950 . S
H335 C343 0.951 . S
H336 C344 0.951 . S
C337 C331 1.265 1_455 S
C337 H332 0.950 . S
C337 C338 1.478 . S
C338 C325 1.394 . S
C338 C337 1.478 . S
C338 C339 1.397 . S
C339 C338 1.397 . S
C339 C340 1.426 1_455 S
C339 C344 1.429 . S
C340 C323 1.395 . S
C340 C339 1.426 1_655 S
C340 C341 1.440 . S
C341 H333 0.949 . S
C341 C340 1.440 . S
C341 C342 1.345 1_655 S
C342 H334 0.950 . S
C342 C341 1.345 1_455 S
C342 C343 1.424 . S
C343 H335 0.951 . S
C343 C342 1.424 . S
C343 C344 1.347 . S
C344 H336 0.951 . S
C344 C339 1.429 . S
C344 C343 1.347 . S
H345 C346 0.956 1_545 S
C346 H345 0.956 1_565 S
C346 C352 1.267 . S
H347 C352 0.950 . S
H348 C356 0.949 . S
H349 C357 0.950 . S
H350 C358 0.951 . S
H351 C359 0.951 . S
C352 C346 1.267 . S
C352 H347 0.950 . S
C352 C353 1.476 . S
C353 C352 1.476 . S
C353 C354 1.401 . S
C353 C370 1.392 1_565 S
C354 C353 1.401 . S
C354 C355 1.438 . S
C354 C359 1.429 . S
C355 C354 1.438 . S
C355 C356 1.428 . S
C355 C368 1.394 1_565 S
C356 H348 0.949 . S
C356 C355 1.428 . S
C356 C357 1.345 . S
C357 H349 0.950 . S
C357 C356 1.345 . S
C357 C358 1.424 . S
C358 H350 0.951 . S
C358 C357 1.424 . S
C358 C359 1.347 . S
C359 H351 0.951 . S
C359 C354 1.429 . S
C359 C358 1.347 . S
H360 C361 0.940 . S
C361 H360 0.940 . S
C361 C367 1.265 . S
H362 C367 0.950 . S
H363 C371 0.949 . S
H364 C372 0.950 . S
H365 C373 0.951 . S
H366 C374 0.951 . S
C367 C361 1.265 . S
C367 H362 0.950 . S
C367 C368 1.478 . S
C368 C355 1.394 1_545 S
C368 C367 1.478 . S
C368 C369 1.397 . S
C369 C368 1.397 . S
C369 C370 1.438 . S
C369 C374 1.429 . S
C370 C353 1.392 1_545 S
C370 C369 1.438 . S
C370 C371 1.428 . S
C371 H363 0.949 . S
C371 C370 1.428 . S
C371 C372 1.345 . S
C372 H364 0.950 . S
C372 C371 1.345 . S
C372 C373 1.424 . S
C373 H365 0.951 . S
C373 C372 1.424 . S
C373 C374 1.347 . S
C374 H366 0.951 . S
C374 C369 1.429 . S
C374 C373 1.347 . S
H375 C376 0.951 . S
C376 H375 0.951 . S
C376 C382 1.265 . S
H377 C382 0.950 . S
H378 C386 0.949 . S
H379 C387 0.950 . S
H380 C388 0.951 . S
H381 C389 0.951 . S
C382 C376 1.265 . S
C382 H377 0.950 . S
C382 C383 1.478 . S
C383 C382 1.478 . S
C383 C384 1.397 . S
C383 C400 1.394 . S
C384 C383 1.397 . S
C384 C385 1.438 . S
C384 C389 1.429 . S
C385 C384 1.438 . S
C385 C386 1.428 . S
C385 C398 1.394 . S
C386 H378 0.949 . S
C386 C385 1.428 . S
C386 C387 1.345 . S
C387 H379 0.950 . S
C387 C386 1.345 . S
C387 C388 1.424 . S
C388 H380 0.951 . S
C388 C387 1.424 . S
C388 C389 1.347 . S
C389 H381 0.951 . S
C389 C384 1.429 . S
C389 C388 1.347 . S
H390 C391 0.951 . S
C391 H390 0.951 . S
C391 C397 1.265 . S
H392 C397 0.950 . S
H393 C401 0.949 . S
H394 C402 0.950 . S
H395 C403 0.951 . S
H396 C404 0.951 . S
C397 C391 1.265 . S
C397 H392 0.950 . S
C397 C398 1.478 . S
C398 C385 1.394 . S
C398 C397 1.478 . S
C398 C399 1.397 . S
C399 C398 1.397 . S
C399 C400 1.438 . S
C399 C404 1.429 . S
C400 C383 1.394 . S
C400 C399 1.438 . S
C400 C401 1.428 . S
C401 H393 0.949 . S
C401 C400 1.428 . S
C401 C402 1.345 . S
C402 H394 0.950 . S
C402 C401 1.345 . S
C402 C403 1.424 . S
C403 H395 0.951 . S
C403 C402 1.424 . S
C403 C404 1.347 . S
C404 H396 0.951 . S
C404 C399 1.429 . S
C404 C403 1.347 . S
H405 C406 0.951 . S
C406 H405 0.951 . S
C406 C412 1.265 . S
H407 C412 0.950 . S
H408 C416 0.949 . S
H409 C417 0.950 . S
H410 C418 0.951 . S
H411 C419 0.951 . S
C412 C406 1.265 . S
C412 H407 0.950 . S
C412 C413 1.478 . S
C413 C412 1.478 . S
C413 C414 1.397 . S
C413 C430 1.394 1_565 S
C414 C413 1.397 . S
C414 C415 1.438 . S
C414 C419 1.429 . S
C415 C414 1.438 . S
C415 C416 1.428 . S
C415 C428 1.393 1_565 S
C416 H408 0.949 . S
C416 C415 1.428 . S
C416 C417 1.345 . S
C417 H409 0.950 . S
C417 C416 1.345 . S
C417 C418 1.424 . S
C418 H410 0.951 . S
C418 C417 1.424 . S
C418 C419 1.347 . S
C419 H411 0.951 . S
C419 C414 1.429 . S
C419 C418 1.347 . S
H420 C421 0.951 . S
C421 H420 0.951 . S
C421 C427 1.265 . S
H422 C427 0.950 . S
H423 C431 0.949 . S
H424 C432 0.950 . S
H425 C433 0.951 . S
H426 C434 0.951 . S
C427 C421 1.265 . S
C427 H422 0.950 . S
C427 C428 1.479 . S
C428 C415 1.393 1_545 S
C428 C427 1.479 . S
C428 C429 1.397 . S
C429 C428 1.397 . S
C429 C430 1.438 . S
C429 C434 1.429 . S
C430 C413 1.394 1_545 S
C430 C429 1.438 . S
C430 C431 1.428 . S
C431 H423 0.949 . S
C431 C430 1.428 . S
C431 C432 1.345 . S
C432 H424 0.950 . S
C432 C431 1.345 . S
C432 C433 1.424 . S
C433 H425 0.951 . S
C433 C432 1.424 . S
C433 C434 1.347 . S
C434 H426 0.951 . S
C434 C429 1.429 . S
C434 C433 1.347 . S
H435 C436 0.951 . S
C436 H435 0.951 . S
C436 C442 1.265 1_554 S
H437 C442 0.947 1_554 S
H438 C446 0.949 . S
H439 C447 0.950 . S
H440 C448 0.951 . S
H441 C449 0.951 . S
C442 C436 1.265 1_556 S
C442 H437 0.947 1_556 S
C442 C443 1.478 . S
C443 C442 1.478 . S
C443 C444 1.397 . S
C443 C460 1.394 . S
C444 C443 1.397 . S
C444 C445 1.438 . S
C444 C449 1.429 . S
C445 C444 1.438 . S
C445 C446 1.428 . S
C445 C458 1.394 . S
C446 H438 0.949 . S
C446 C445 1.428 . S
C446 C447 1.345 . S
C447 H439 0.950 . S
C447 C446 1.345 . S
C447 C448 1.424 . S
C448 H440 0.951 . S
C448 C447 1.424 . S
C448 C449 1.347 . S
C449 H441 0.951 . S
C449 C444 1.429 . S
C449 C448 1.347 . S
H450 C451 0.951 . S
C451 H450 0.951 . S
C451 C457 1.265 . S
H452 C457 0.950 . S
H453 C461 0.949 . S
H454 C462 0.950 . S
H455 C463 0.951 . S
H456 C464 0.951 . S
C457 C451 1.265 . S
C457 H452 0.950 . S
C457 C458 1.478 . S
C458 C445 1.394 . S
C458 C457 1.478 . S
C458 C459 1.397 . S
C459 C458 1.397 . S
C459 C460 1.438 . S
C459 C464 1.429 . S
C460 C443 1.394 . S
C460 C459 1.438 . S
C460 C461 1.428 1_556 S
C461 H453 0.949 . S
C461 C460 1.428 1_554 S
C461 C462 1.345 . S
C462 H454 0.950 . S
C462 C461 1.345 . S
C462 C463 1.424 . S
C463 H455 0.951 . S
C463 C462 1.424 . S
C463 C464 1.347 1_554 S
C464 H456 0.951 . S
C464 C459 1.429 . S
C464 C463 1.347 1_556 S
H465 C466 0.951 . S
C466 H465 0.951 . S
C466 C472 1.265 1_455 S
H467 C472 0.950 . S
H468 C476 0.949 . S
H469 C477 0.950 . S
H470 C478 0.951 . S
H471 C479 0.951 . S
C472 C466 1.265 1_655 S
C472 H467 0.950 . S
C472 C473 1.478 . S
C473 C472 1.478 . S
C473 C474 1.397 . S
C473 C490 1.394 1_655 S
C474 C473 1.397 . S
C474 C475 1.438 . S
C474 C479 1.429 . S
C475 C474 1.438 . S
C475 C476 1.428 . S
C475 C488 1.394 1_655 S
C476 H468 0.949 . S
C476 C475 1.428 . S
C476 C477 1.345 . S
C477 H469 0.950 . S
C477 C476 1.345 . S
C477 C478 1.424 . S
C478 H470 0.951 . S
C478 C477 1.424 . S
C478 C479 1.347 . S
C479 H471 0.951 . S
C479 C474 1.429 . S
C479 C478 1.347 . S
H480 C481 0.951 . S
C481 H480 0.951 . S
C481 C487 1.265 1_655 S
H482 C487 0.950 . S
H483 C491 0.949 . S
H484 C492 0.950 . S
H485 C493 0.951 . S
H486 C494 0.951 . S
C487 C481 1.265 1_455 S
C487 H482 0.950 . S
C487 C488 1.478 . S
C488 C475 1.394 1_455 S
C488 C487 1.478 . S
C488 C489 1.397 . S
C489 C488 1.397 . S
C489 C490 1.438 . S
C489 C494 1.429 . S
C490 C473 1.394 1_455 S
C490 C489 1.438 . S
C490 C491 1.428 . S
C491 H483 0.949 . S
C491 C490 1.428 . S
C491 C492 1.345 . S
C492 H484 0.950 . S
C492 C491 1.345 . S
C492 C493 1.424 . S
C493 H485 0.951 . S
C493 C492 1.424 . S
C493 C494 1.347 . S
C494 H486 0.951 . S
C494 C489 1.429 . S
C494 C493 1.347 . S
H495 C496 0.951 . S
C496 H495 0.951 . S
C496 C502 1.269 . S
H497 C502 0.948 1_565 S
H498 C506 0.949 . S
H499 C507 0.950 . S
H500 C508 0.951 . S
H501 C509 0.951 . S
C502 C496 1.269 . S
C502 H497 0.948 1_545 S
C502 C503 1.476 . S
C503 C502 1.476 . S
C503 C504 1.397 1_545 S
C503 C520 1.394 . S
C504 C503 1.397 1_565 S
C504 C505 1.438 . S
C504 C509 1.429 . S
C505 C504 1.438 . S
C505 C506 1.428 . S
C505 C518 1.394 1_565 S
C506 H498 0.949 . S
C506 C505 1.428 . S
C506 C507 1.345 . S
C507 H499 0.950 . S
C507 C506 1.345 . S
C507 C508 1.424 . S
C508 H500 0.951 . S
C508 C507 1.424 . S
C508 C509 1.347 . S
C509 H501 0.951 . S
C509 C504 1.429 . S
C509 C508 1.347 . S
H510 C511 0.951 1_565 S
C511 H510 0.951 1_545 S
C511 C517 1.265 . S
H512 C517 0.950 . S
H513 C521 0.949 . S
H514 C522 0.950 . S
H515 C523 0.951 . S
H516 C524 0.951 . S
C517 C511 1.265 . S
C517 H512 0.950 . S
C517 C518 1.478 . S
C518 C505 1.394 1_545 S
C518 C517 1.478 . S
C518 C519 1.397 . S
C519 C518 1.397 . S
C519 C520 1.438 . S
C519 C524 1.429 . S
C520 C503 1.394 . S
C520 C519 1.438 . S
C520 C521 1.428 . S
C521 H513 0.949 . S
C521 C520 1.428 . S
C521 C522 1.345 . S
C522 H514 0.950 . S
C522 C521 1.345 . S
C522 C523 1.424 . S
C523 H515 0.951 . S
C523 C522 1.424 . S
C523 C524 1.347 . S
C524 H516 0.951 . S
C524 C519 1.429 . S
C524 C523 1.347 . S
H525 C526 0.951 1_556 S
C526 H525 0.951 1_554 S
C526 C532 1.265 . S
H527 C532 0.950 . S
H528 C536 0.949 . S
H529 C537 0.950 . S
H530 C538 0.951 . S
H531 C539 0.951 . S
C532 C526 1.265 . S
C532 H527 0.950 . S
C532 C533 1.478 1_554 S
C533 C532 1.478 1_556 S
C533 C534 1.397 . S
C533 C550 1.394 . S
C534 C533 1.397 . S
C534 C535 1.438 . S
C534 C539 1.429 . S
C535 C534 1.438 . S
C535 C536 1.428 . S
C535 C548 1.394 . S
C536 H528 0.949 . S
C536 C535 1.428 . S
C536 C537 1.345 . S
C537 H529 0.950 . S
C537 C536 1.345 . S
C537 C538 1.424 . S
C538 H530 0.951 . S
C538 C537 1.424 . S
C538 C539 1.347 . S
C539 H531 0.951 . S
C539 C534 1.429 . S
C539 C538 1.347 . S
H540 C541 0.951 . S
C541 H540 0.951 . S
C541 C547 1.265 . S
H542 C547 0.950 . S
H543 C551 0.949 . S
H544 C552 0.950 . S
H545 C553 0.951 . S
H546 C554 0.951 . S
C547 C541 1.265 . S
C547 H542 0.950 . S
C547 C548 1.478 . S
C548 C535 1.394 . S
C548 C547 1.478 . S
C548 C549 1.397 . S
C549 C548 1.397 . S
C549 C550 1.438 . S
C549 C554 1.429 . S
C550 C533 1.394 . S
C550 C549 1.438 . S
C550 C551 1.428 1_556 S
C551 H543 0.949 . S
C551 C550 1.428 1_554 S
C551 C552 1.345 . S
C552 H544 0.950 . S
C552 C551 1.345 . S
C552 C553 1.424 1_554 S
C553 H545 0.951 . S
C553 C552 1.424 1_556 S
C553 C554 1.347 . S
C554 H546 0.951 . S
C554 C549 1.429 . S
C554 C553 1.347 . S
H555 C556 0.951 . S
C556 H555 0.951 . S
C556 C562 1.265 1_655 S
H557 C562 0.950 . S
H558 C566 0.949 . S
H559 C567 0.950 . S
H560 C568 0.951 . S
H561 C569 0.951 . S
C562 C556 1.265 1_455 S
C562 H557 0.950 . S
C562 C563 1.478 . S
C563 C562 1.478 . S
C563 C564 1.397 1_455 S
C563 C580 1.394 . S
C564 C563 1.397 1_655 S
C564 C565 1.438 . S
C564 C569 1.429 . S
C565 C564 1.438 . S
C565 C566 1.428 . S
C565 C578 1.394 . S
C566 H558 0.949 . S
C566 C565 1.428 . S
C566 C567 1.345 . S
C567 H559 0.950 . S
C567 C566 1.345 . S
C567 C568 1.424 . S
C568 H560 0.951 . S
C568 C567 1.424 . S
C568 C569 1.347 . S
C569 H561 0.951 . S
C569 C564 1.429 . S
C569 C568 1.347 . S
H570 C571 0.951 . S
C571 H570 0.951 . S
C571 C577 1.265 1_455 S
H572 C577 0.950 . S
H573 C581 0.949 . S
H574 C582 0.950 . S
H575 C583 0.951 . S
H576 C584 0.958 . S
C577 C571 1.265 1_655 S
C577 H572 0.950 . S
C577 C578 1.478 . S
C578 C565 1.394 . S
C578 C577 1.478 . S
C578 C579 1.397 1_655 S
C579 C578 1.397 1_455 S
C579 C580 1.438 . S
C579 C584 1.429 . S
C580 C563 1.394 . S
C580 C579 1.438 . S
C580 C581 1.428 . S
C581 H573 0.949 . S
C581 C580 1.428 . S
C581 C582 1.345 . S
C582 H574 0.950 . S
C582 C581 1.345 . S
C582 C583 1.424 . S
C583 H575 0.951 . S
C583 C582 1.424 . S
C583 C584 1.347 . S
C584 H576 0.958 . S
C584 C579 1.429 . S
C584 C583 1.347 . S
C241 C92 1.351 . S
C226 C10 1.393 . S
C256 C17 1.393 . S
C271 C136 1.352 . S
C286 C36 1.395 . S
C301 C198 1.400 . S
C316 C5 1.378 1_455 S
C331 C74 1.375 1_655 S
C361 C154 1.354 . S
C346 C16 1.403 . S
C376 C31 1.391 . S
C391 C216 1.387 . S
C421 C130 1.572 . S
C406 C30 1.732 . S
C436 C3 1.746 . S
C451 C192 1.620 . S
C481 C68 1.629 . S
C466 C18 1.748 . S
C511 C148 1.681 . S
C496 C29 1.754 . S
C541 C210 1.673 . S
C526 C4 1.753 . S
C556 C23 1.738 . S
C571 C86 1.609 1_455 S
