# Generated by pormake.
# Topology zzz, (3,6)-cn, num edge types: 1
# Building blocks:
#     Node 0, Type 0, BuildingBlock: PAMTOO_clean_linker_0, # of connection points: 3
#     Node 1, Type 0, BuildingBlock: PAMTOO_clean_linker_0, # of connection points: 3
#     Node 2, Type 0, BuildingBlock: PAMTOO_clean_linker_0, # of connection points: 3
#     Node 3, Type 0, BuildingBlock: PAMTOO_clean_linker_0, # of connection points: 3
#     Node 4, Type 0, BuildingBlock: PAMTOO_clean_linker_0, # of connection points: 3
#     Node 5, Type 0, BuildingBlock: PAMTOO_clean_linker_0, # of connection points: 3
#     Node 6, Type 0, BuildingBlock: PAMTOO_clean_linker_0, # of connection points: 3
#     Node 7, Type 0, BuildingBlock: PAMTOO_clean_linker_0, # of connection points: 3
#     Node 8, Type 1, BuildingBlock: GEDQOX_clean_sbu_0, # of connection points: 6
#     Node 9, Type 1, BuildingBlock: GEDQOX_clean_sbu_0, # of connection points: 6
#     Node 10, Type 1, BuildingBlock: GEDQOX_clean_sbu_0, # of connection points: 6
#     Node 11, Type 1, BuildingBlock: GEDQOX_clean_sbu_0, # of connection points: 6
#     Edge 12, Type (0, 1), BuildingBlock: XIVTED_clean_linker_0, # of connection points: 2
#     Edge 13, Type (0, 1), BuildingBlock: XIVTED_clean_linker_0, # of connection points: 2
#     Edge 14, Type (0, 1), BuildingBlock: XIVTED_clean_linker_0, # of connection points: 2
#     Edge 15, Type (0, 1), BuildingBlock: XIVTED_clean_linker_0, # of connection points: 2
#     Edge 16, Type (0, 1), BuildingBlock: XIVTED_clean_linker_0, # of connection points: 2
#     Edge 17, Type (0, 1), BuildingBlock: XIVTED_clean_linker_0, # of connection points: 2
#     Edge 18, Type (0, 1), BuildingBlock: XIVTED_clean_linker_0, # of connection points: 2
#     Edge 19, Type (0, 1), BuildingBlock: XIVTED_clean_linker_0, # of connection points: 2
#     Edge 20, Type (0, 1), BuildingBlock: XIVTED_clean_linker_0, # of connection points: 2
#     Edge 21, Type (0, 1), BuildingBlock: XIVTED_clean_linker_0, # of connection points: 2
#     Edge 22, Type (0, 1), BuildingBlock: XIVTED_clean_linker_0, # of connection points: 2
#     Edge 23, Type (0, 1), BuildingBlock: XIVTED_clean_linker_0, # of connection points: 2
#     Edge 24, Type (0, 1), BuildingBlock: XIVTED_clean_linker_0, # of connection points: 2
#     Edge 25, Type (0, 1), BuildingBlock: XIVTED_clean_linker_0, # of connection points: 2
#     Edge 26, Type (0, 1), BuildingBlock: XIVTED_clean_linker_0, # of connection points: 2
#     Edge 27, Type (0, 1), BuildingBlock: XIVTED_clean_linker_0, # of connection points: 2
#     Edge 28, Type (0, 1), BuildingBlock: XIVTED_clean_linker_0, # of connection points: 2
#     Edge 29, Type (0, 1), BuildingBlock: XIVTED_clean_linker_0, # of connection points: 2
#     Edge 30, Type (0, 1), BuildingBlock: XIVTED_clean_linker_0, # of connection points: 2
#     Edge 31, Type (0, 1), BuildingBlock: XIVTED_clean_linker_0, # of connection points: 2
#     Edge 32, Type (0, 1), BuildingBlock: XIVTED_clean_linker_0, # of connection points: 2
#     Edge 33, Type (0, 1), BuildingBlock: XIVTED_clean_linker_0, # of connection points: 2
#     Edge 34, Type (0, 1), BuildingBlock: XIVTED_clean_linker_0, # of connection points: 2
#     Edge 35, Type (0, 1), BuildingBlock: XIVTED_clean_linker_0, # of connection points: 2
# Relax obj value: 0.128
# Max RMSD: 0.183
# Mean RMSD: 0.084
data_MOF--net-zzz--node1-GEDQOX_clean_sbu_0--node2-PAMTOO_clean_linker_0--edge1-XIVTED_clean_linker_0
_symmetry_space_group_name_H-M    P1
_symmetry_Int_Tables_number       1
_symmetry_cell_setting            triclinic
loop_
_symmetry_equiv_pos_as_xyz
'x, y, z'
_cell_length_a     54.692202
_cell_length_b     53.438852
_cell_length_c     17.262836
_cell_angle_alpha  79.947885
_cell_angle_beta   88.845207
_cell_angle_gamma 99.875466
loop_
_atom_site_label
_atom_site_type_symbol
_atom_site_fract_x
_atom_site_fract_y
_atom_site_fract_z
_atom_type_partial_charge
H0 H 0.84554 0.54744 0.22079 0.0
H1 H 0.78357 0.52741 0.08034 0.0
H2 H 0.77624 0.57162 0.26336 0.0
H3 H 0.73488 0.52703 0.25158 0.0
C4 C 0.73393 0.53022 0.18628 0.0
O5 O 0.75296 0.54991 0.15291 0.0
H6 H 0.73623 0.51206 0.16609 0.0
C7 C 0.82632 0.54785 0.20684 0.0
C8 C 0.81228 0.56114 0.24845 0.0
C9 C 0.81619 0.53544 0.1468 0.0
C10 C 0.79155 0.53667 0.12735 0.0
C11 C 0.77696 0.54939 0.1702 0.0
C12 C 0.78738 0.56161 0.23092 0.0
H13 H 0.04147 0.83743 0.31048 0.0
H14 H 0.04714 0.78569 0.14861 0.0
H15 H 0.01078 0.75679 0.3787 0.0
H16 H 0.04192 0.71954 0.31973 0.0
C17 C 0.0418 0.72744 0.25574 0.0
O18 O 0.02479 0.74403 0.24421 0.0
H19 H 0.06086 0.73824 0.23674 0.0
C20 C 0.03874 0.81799 0.29765 0.0
C21 C 0.02572 0.79779 0.35355 0.0
C22 C 0.04647 0.81406 0.22363 0.0
C23 C 0.04161 0.789 0.20607 0.0
C24 C 0.02937 0.7681 0.26253 0.0
C25 C 0.02104 0.77262 0.33619 0.0
H26 H 0.70373 1.00787 0.23738 0.0
H27 H 0.76879 0.02524 0.08021 0.0
H28 H 0.77063 0.98103 0.31346 0.0
H29 H 0.81645 0.01869 0.26166 0.0
C30 C 0.81579 0.01984 0.19676 0.0
O31 O 0.79657 1.00148 0.18036 0.0
H32 H 0.81263 0.03954 0.17074 0.0
C33 C 0.72299 1.00648 0.22562 0.0
C34 C 0.7356 0.99282 0.28362 0.0
C35 C 0.7348 0.01836 0.15265 0.0
C36 C 0.75955 0.01631 0.13685 0.0
C37 C 0.77255 1.00301 0.19515 0.0
C38 C 0.76058 0.99133 0.26871 0.0
H39 H 0.4964 0.72664 0.48518 0.0
H40 H 0.51049 0.80102 0.33244 0.0
H41 H 0.54859 0.78873 0.54764 0.0
H42 H 0.5479 0.85113 0.48739 0.0
C43 C 0.53398 0.8428 0.44865 0.0
O44 O 0.5424 0.82268 0.42209 0.0
H45 H 0.51629 0.83577 0.48527 0.0
C46 C 0.50524 0.7468 0.47321 0.0
C47 C 0.52235 0.75587 0.52561 0.0
C48 C 0.50099 0.76269 0.40281 0.0
C49 C 0.51343 0.78844 0.38656 0.0
C50 C 0.53023 0.79795 0.43932 0.0
C51 C 0.53507 0.78152 0.50817 0.0
H52 H 0.21692 0.53316 0.5862 0.0
H53 H 0.27632 0.55078 0.73859 0.0
H54 H 0.28777 0.51208 0.54508 0.0
H55 H 0.31168 0.49288 0.6852 0.0
C56 C 0.31533 0.51029 0.71322 0.0
O57 O 0.30874 0.53107 0.66373 0.0
H58 H 0.3038 0.50631 0.76937 0.0
C59 C 0.23602 0.53305 0.60191 0.0
C60 C 0.25117 0.52141 0.55843 0.0
C61 C 0.24482 0.54386 0.66651 0.0
C62 C 0.26932 0.54277 0.68818 0.0
C63 C 0.28494 0.53154 0.6439 0.0
C64 C 0.27584 0.52095 0.57868 0.0
H65 H 0.03246 0.24292 0.50887 0.0
H66 H 0.02106 0.29322 0.66998 0.0
H67 H 0.03599 0.3239 0.42164 0.0
H68 H 0.05989 0.3601 0.53195 0.0
C69 C 0.04709 0.35176 0.58445 0.0
O70 O 0.02691 0.33549 0.56247 0.0
H71 H 0.05761 0.34055 0.62831 0.0
C72 C 0.03151 0.26215 0.51984 0.0
C73 C 0.03478 0.28271 0.45644 0.0
C74 C 0.02685 0.26564 0.59672 0.0
C75 C 0.02486 0.29034 0.61065 0.0
C76 C 0.02849 0.31158 0.54784 0.0
C77 C 0.0334 0.30771 0.47024 0.0
H78 H 0.34939 0.06173 0.62195 0.0
H79 H 0.28376 0.04125 0.77695 0.0
H80 H 0.2828 0.08999 0.55048 0.0
H81 H 0.25443 0.10487 0.67801 0.0
C82 C 0.24929 0.08571 0.71718 0.0
O83 O 0.25641 0.0669 0.68064 0.0
H84 H 0.25908 0.08647 0.77289 0.0
C85 C 0.33007 0.06276 0.634 0.0
C86 C 0.31773 0.07765 0.57827 0.0
C87 C 0.31802 0.04938 0.70529 0.0
C88 C 0.29324 0.05124 0.72159 0.0
C89 C 0.28051 0.06582 0.66562 0.0
C90 C 0.29268 0.0788 0.59351 0.0
H91 H 0.56331 0.34655 0.37322 0.0
H92 H 0.56004 0.27055 0.51038 0.0
H93 H 0.52136 0.28063 0.29546 0.0
H94 H 0.49743 0.22723 0.41569 0.0
C95 C 0.51167 0.23339 0.45676 0.0
O96 O 0.53293 0.24666 0.4133 0.0
H97 H 0.50385 0.24611 0.49179 0.0
C98 C 0.55732 0.3258 0.38088 0.0
C99 C 0.54197 0.31561 0.32585 0.0
C100 C 0.56377 0.30987 0.44795 0.0
C101 C 0.55518 0.28315 0.45896 0.0
C102 C 0.54016 0.27258 0.4036 0.0
C103 C 0.53321 0.28884 0.33757 0.0
Nd104 Nd 0.01291 0.02445 0.8407 0.0
Nd105 Nd 0.03863 0.04737 0.98762 0.0
C106 C 0.98317 0.99396 0.76393 0.0
C107 C 0.98557 0.97078 0.7301 0.0
C108 C 0.96429 0.95358 0.71708 0.0
C109 C 0.96638 0.93124 0.68689 0.0
C110 C 0.98988 0.92557 0.66886 0.0
C111 C 0.01119 0.94293 0.68253 0.0
C112 C 0.00905 0.96518 0.71305 0.0
C113 C 0.06362 0.04027 0.81091 0.0
C114 C 0.04403 0.98971 0.96859 0.0
C115 C 0.06316 0.07818 0.0763 0.0
C116 C 0.06107 0.10304 0.10045 0.0
C117 C 0.0775 0.11284 0.15367 0.0
C118 C 0.07563 0.13626 0.17754 0.0
C119 C 0.05729 0.15055 0.14852 0.0
C120 C 0.04089 0.1406 0.09476 0.0
C121 C 0.04274 0.11711 0.07124 0.0
C122 C 0.99011 0.02226 0.01255 0.0
C123 C 0.01158 0.08442 0.8499 0.0
O124 O 0.98274 0.99087 0.84106 0.0
O125 O 0.9968 0.01591 0.7293 0.0
O126 O 0.04899 0.03131 0.75994 0.0
O127 O 0.05073 0.04068 0.87139 0.0
O128 O 0.02537 0.99043 0.92105 0.0
O129 O 0.055 1.01027 0.99608 0.0
O130 O 0.06924 0.07914 1.00191 0.0
O131 O 0.04574 0.05844 0.10446 0.0
O132 O 0.00652 0.02119 0.06603 0.0
O133 O 0.99941 0.0371 0.94999 0.0
O134 O 0.02452 0.08179 0.914 0.0
O135 O 0.00389 0.06529 0.81161 0.0
H136 H 0.94598 0.95734 0.73072 0.0
H137 H 0.94952 0.91827 0.67866 0.0
H138 H 0.0296 0.93959 0.66856 0.0
H139 H 0.02578 0.97805 0.72327 0.0
H140 H 0.09172 0.10226 0.17731 0.0
H141 H 0.08833 0.14289 0.22002 0.0
H142 H 0.02671 0.15104 0.07021 0.0
H143 H 0.02982 0.10988 0.03035 0.0
Nd144 Nd 0.52964 0.01608 0.87451 0.0
Nd145 Nd 0.52208 0.0519 0.98622 0.0
C146 C 0.53504 0.97875 0.7969 0.0
C147 C 0.55709 0.97145 0.76255 0.0
C148 C 0.55593 0.96332 0.68963 0.0
C149 C 0.57743 0.95933 0.65189 0.0
C150 C 0.60057 0.96341 0.68645 0.0
C151 C 0.60146 0.97073 0.76094 0.0
C152 C 0.57997 0.97481 0.79844 0.0
C153 C 0.53279 0.0669 0.80359 0.0
C154 C 0.579 0.04646 0.93658 0.0
C155 C 0.51642 0.08911 0.06403 0.0
C156 C 0.49417 0.09473 0.10196 0.0
C157 C 0.4942 0.11879 0.12371 0.0
C158 C 0.47295 0.12377 0.16062 0.0
C159 C 0.45132 0.10471 0.17636 0.0
C160 C 0.45137 0.08078 0.15289 0.0
C161 C 0.47253 0.07589 0.11591 0.0
C162 C 0.51798 1.00099 0.05685 0.0
C163 C 0.47265 0.0213 0.92443 0.0
O164 O 0.53291 0.97534 0.87386 0.0
O165 O 0.52968 1.00085 0.76291 0.0
O166 O 0.54745 0.05204 0.78439 0.0
O167 O 0.51693 0.05469 0.85685 0.0
O168 O 0.56948 0.02567 0.90894 0.0
O169 O 0.56474 0.06144 0.96132 0.0
O170 O 0.5167 0.09208 0.98719 0.0
O171 O 0.52374 0.06783 0.09653 0.0
O172 O 0.50336 0.01613 0.07445 0.0
O173 O 0.5344 0.013 0.00483 0.0
O174 O 0.48211 0.04195 0.95294 0.0
O175 O 0.48696 1.00663 0.89827 0.0
H176 H 0.53852 0.9609 0.6606 0.0
H177 H 0.57605 0.95412 0.59408 0.0
H178 H 0.61885 0.97373 0.78979 0.0
H179 H 0.58139 0.98123 0.85459 0.0
H180 H 0.51069 0.13364 0.1126 0.0
H181 H 0.47349 0.14251 0.17698 0.0
H182 H 0.43531 0.06546 0.16514 0.0
H183 H 0.47211 0.05721 0.09918 0.0
Nd184 Nd 0.51003 0.53835 0.99694 0.0
Nd185 Nd 0.54597 0.53247 0.86861 0.0
C186 C 0.47342 0.55162 0.07377 0.0
C187 C 0.46874 0.57667 0.08822 0.0
C188 C 0.44507 0.57944 0.11397 0.0
C189 C 0.4409 0.60334 0.12879 0.0
C190 C 0.4604 0.6248 0.11805 0.0
C191 C 0.48393 0.62192 0.09014 0.0
C192 C 0.48802 0.59813 0.07515 0.0
C193 C 0.55848 0.54247 0.0392 0.0
C194 C 0.53549 0.58955 0.86359 0.0
C195 C 0.5822 0.51931 0.78971 0.0
C196 C 0.58715 0.4945 0.77407 0.0
C197 C 0.61114 0.49198 0.75077 0.0
C198 C 0.61573 0.46835 0.73498 0.0
C199 C 0.59632 0.44689 0.74209 0.0
C200 C 0.57242 0.44947 0.76768 0.0
C201 C 0.56792 0.473 0.78384 0.0
C202 C 0.49697 0.52744 0.82972 0.0
C203 C 0.52103 0.48127 1.00229 0.0
O204 O 0.47246 0.54853 1.00036 0.0
O205 O 0.49242 0.54351 0.10832 0.0
O206 O 0.53955 0.53171 0.08722 0.0
O207 O 0.55152 0.55219 0.97306 0.0
O208 O 0.51671 0.57829 0.91426 0.0
O209 O 0.5523 0.57654 0.84353 0.0
O210 O 0.58347 0.52223 0.8632 0.0
O211 O 0.56298 0.52731 0.75631 0.0
O212 O 0.51535 0.53895 0.78034 0.0
O213 O 0.50488 0.51803 0.89438 0.0
O214 O 0.53968 0.49262 0.95127 0.0
O215 O 0.50411 0.49418 0.02255 0.0
H216 H 0.4299 0.56309 0.12331 0.0
H217 H 0.42249 0.60494 0.14933 0.0
H218 H 0.49953 0.63778 0.08252 0.0
H219 H 0.5064 0.59636 0.05469 0.0
H220 H 0.62627 0.50833 0.74417 0.0
H221 H 0.63442 0.46697 0.71651 0.0
H222 H 0.5569 0.4336 0.77262 0.0
H223 H 0.5493 0.47455 0.8027 0.0
Nd224 Nd 0.02412 0.55986 0.8345 0.0
Nd225 Nd 0.03302 0.51986 0.98306 0.0
C226 C 0.0082 0.59883 0.74705 0.0
C227 C 0.98594 0.59914 0.70066 0.0
C228 C 0.98065 0.62227 0.65825 0.0
C229 C 0.95901 0.62223 0.61595 0.0
C230 C 0.94227 0.59902 0.61583 0.0
C231 C 0.94778 0.57592 0.65867 0.0
C232 C 0.96937 0.57599 0.70054 0.0
C233 C 0.02171 0.51159 0.79177 0.0
C234 C 0.97681 0.52059 0.93805 0.0
C235 C 0.0507 0.4851 0.08471 0.0
C236 C 0.07466 0.48509 0.12208 0.0
C237 C 0.08109 0.46192 0.16009 0.0
C238 C 0.10376 0.46204 0.19656 0.0
C239 C 0.1204 0.48538 0.19553 0.0
C240 C 0.11391 0.50851 0.15612 0.0
C241 C 0.0913 0.50835 0.11974 0.0
C242 C 0.0255 0.5672 0.01262 0.0
C243 C 0.08137 0.55656 0.87322 0.0
O244 O 1.00368 0.59251 0.82346 0.0
O245 O 0.02522 0.58724 0.72143 0.0
O246 O 0.01918 0.5323 0.74323 0.0
O247 O 0.02536 0.51739 0.85874 0.0
O248 O 0.98551 0.5435 0.89506 0.0
O249 O 0.99174 0.50511 0.97021 0.0
O250 O 0.05133 0.48552 0.00874 0.0
O251 O 0.03707 0.50089 0.10573 0.0
O252 O 0.0168 0.54525 0.05788 0.0
O253 O 0.03844 0.56373 0.95498 0.0
O254 O 0.07269 0.53733 0.93169 0.0
O255 O 0.06665 0.56971 0.82918 0.0
H256 H 0.99316 0.64035 0.65811 0.0
H257 H 0.95526 0.64038 0.58407 0.0
H258 H 0.93563 0.55764 0.65882 0.0
H259 H 0.97315 0.5579 0.73295 0.0
H260 H 0.06854 0.44377 0.16194 0.0
H261 H 0.10825 0.44384 0.22546 0.0
H262 H 0.12598 0.52689 0.15509 0.0
H263 H 0.08667 0.52646 0.09055 0.0
H264 H 0.22283 0.07599 0.86037 0.0
H265 H 0.0906 0.04648 0.6735 0.0
H266 H 0.21298 0.08255 0.61104 0.0
H267 H 0.0982 0.05277 0.9178 0.0
H268 H 0.13558 0.05856 0.65095 0.0
H269 H 0.17752 0.06633 0.88441 0.0
C270 C 0.21107 0.0754 0.81075 0.0
C271 C 0.22155 0.07995 0.7336 0.0
C272 C 0.12749 0.05747 0.70949 0.0
C273 C 0.16985 0.0689 0.76049 0.0
C274 C 0.10179 0.05054 0.72239 0.0
C275 C 0.09072 0.04872 0.79756 0.0
C276 C 0.14235 0.06237 0.77242 0.0
C277 C 0.10606 0.05414 0.85885 0.0
C278 C 0.18526 0.06995 0.82444 0.0
C279 C 0.20556 0.07904 0.67135 0.0
N280 N 0.13117 0.06061 0.84505 0.0
N281 N 0.18053 0.07352 0.68614 0.0
H282 H 0.54153 0.19904 0.42681 0.0
H283 H 0.50116 0.09934 0.83004 0.0
H284 H 0.49281 0.21313 0.60759 0.0
H285 H 0.56039 0.09258 0.67049 0.0
H286 H 0.49724 0.14063 0.74831 0.0
H287 H 0.54802 0.15946 0.51343 0.0
C288 C 0.53247 0.19395 0.48518 0.0
C289 C 0.51707 0.2097 0.51082 0.0
C290 C 0.51119 0.13021 0.73134 0.0
C291 C 0.52388 0.16409 0.60958 0.0
C292 C 0.51346 0.10665 0.77806 0.0
C293 C 0.53113 0.09253 0.75699 0.0
C294 C 0.52656 0.13965 0.66254 0.0
C295 C 0.54651 0.10285 0.68884 0.0
C296 C 0.53611 0.17134 0.53454 0.0
C297 C 0.50519 0.20179 0.58613 0.0
N298 N 0.54377 0.12569 0.6438 0.0
N299 N 0.50882 0.17957 0.63277 0.0
H300 H 0.35559 0.53148 0.60904 0.0
H301 H 0.45681 0.50393 0.92837 0.0
H302 H 0.33707 0.49916 0.854 0.0
H303 H 0.47645 0.54616 0.69264 0.0
H304 H 0.41286 0.50107 0.90055 0.0
H305 H 0.39989 0.53639 0.63653 0.0
C306 C 0.36088 0.52578 0.66879 0.0
C307 C 0.34264 0.51545 0.72969 0.0
C308 C 0.42673 0.511 0.8548 0.0
C309 C 0.39324 0.52033 0.76133 0.0
C310 C 0.45185 0.51261 0.87067 0.0
C311 C 0.47031 0.52533 0.81275 0.0
C312 C 0.41991 0.52204 0.78015 0.0
C313 C 0.4628 0.53616 0.73896 0.0
C314 C 0.38614 0.52846 0.68443 0.0
C315 C 0.35051 0.50766 0.80563 0.0
N316 N 0.43819 0.53423 0.72468 0.0
N317 N 0.37515 0.51024 0.81925 0.0
H318 H 0.02908 0.39389 0.5076 0.0
H319 H 0.03153 0.46626 0.88055 0.0
H320 H 0.04756 0.35962 0.73877 0.0
H321 H 0.01433 0.49949 0.6466 0.0
H322 H 0.03508 0.42602 0.83339 0.0
H323 H 0.02074 0.4315 0.56059 0.0
C324 C 0.03108 0.39419 0.56974 0.0
C325 C 0.03911 0.37365 0.61865 0.0
C326 C 0.03042 0.4421 0.7925 0.0
C327 C 0.02987 0.41683 0.68015 0.0
C328 C 0.02839 0.46506 0.8195 0.0
C329 C 0.02275 0.48635 0.76744 0.0
C330 C 0.02674 0.44039 0.71284 0.0
C331 C 0.01881 0.48365 0.68888 0.0
C332 C 0.02645 0.41571 0.60006 0.0
C333 C 0.04147 0.37506 0.69888 0.0
N334 N 0.02094 0.46126 0.6641 0.0
N335 N 0.03705 0.39631 0.72695 0.0
H336 H 0.83553 0.03527 0.04517 0.0
H337 H 0.96682 0.9948 0.15007 0.0
H338 H 0.85071 0.9944 0.27196 0.0
H339 H 0.95205 0.03511 0.92165 0.0
H340 H 0.92292 0.98986 0.19052 0.0
H341 H 0.87657 0.03118 0.99382 0.0
C342 C 0.84754 0.02532 0.08388 0.0
C343 C 0.84009 0.01566 0.16318 0.0
C344 C 0.92917 0.99955 0.13123 0.0
C345 C 0.88687 1.01074 0.10524 0.0
C346 C 0.95424 1.0023 0.10806 0.0
C347 C 0.96311 0.01563 0.03274 0.0
C348 C 0.91285 1.01035 0.07887 0.0
C349 C 0.94598 0.02484 0.9805 0.0
C350 C 0.8709 0.02295 0.05469 0.0
C351 C 0.85602 1.00252 0.21079 0.0
N352 N 0.92172 0.0223 0.00485 0.0
N353 N 0.87876 1.00068 0.18134 0.0
H354 H 0.5682 0.86903 0.33061 0.0
H355 H 0.48348 0.97275 0.16813 0.0
H356 H 0.49254 0.86458 0.41419 0.0
H357 H 0.55446 0.9714 0.057 0.0
H358 H 0.4863 0.93242 0.25634 0.0
H359 H 0.56358 0.90573 0.22766 0.0
C360 C 0.55054 0.87561 0.32648 0.0
C361 C 0.53068 0.86371 0.38053 0.0
C362 C 0.50122 0.94078 0.2124 0.0
C363 C 0.52533 0.90585 0.26414 0.0
C364 C 0.49961 0.96384 0.16202 0.0
C365 C 0.51884 0.9755 0.10558 0.0
C366 C 0.52234 0.92934 0.20699 0.0
C367 C 0.53925 0.96306 0.09995 0.0
C368 C 0.5479 0.89655 0.26795 0.0
C369 C 0.50827 0.87313 0.37346 0.0
N370 N 0.54059 0.94076 0.15056 0.0
N371 N 0.50625 0.8937 0.31674 0.0
H372 H 0.71874 0.54861 0.03851 0.0
H373 H 0.57512 0.52447 0.18188 0.0
H374 H 0.69162 0.52392 0.28066 0.0
H375 H 0.60141 0.56209 0.94609 0.0
H376 H 0.61797 0.524 0.21748 0.0
H377 H 0.67643 0.55382 1.00153 0.0
C378 C 0.70395 0.54472 0.08397 0.0
C379 C 0.70877 0.5363 0.16297 0.0
C380 C 0.61448 0.53248 0.15795 0.0
C381 C 0.6603 0.54152 0.12106 0.0
C382 C 0.58996 0.53272 0.13755 0.0
C383 C 0.58466 0.54325 0.06081 0.0
C384 C 0.63404 0.54264 0.1011 0.0
C385 C 0.60468 0.55368 0.00586 0.0
C386 C 0.67982 0.54758 0.06287 0.0
C387 C 0.68883 0.53085 0.21929 0.0
N388 N 0.6285 0.55298 0.0269 0.0
N389 N 0.66555 0.53348 0.19726 0.0
H390 H 0.00819 0.68212 0.2981 0.0
H391 H 0.05116 0.6157 0.9459 0.0
H392 H 0.06157 0.72232 0.11176 0.0
H393 H 0.99969 0.57615 0.13857 0.0
H394 H 0.05276 0.65598 0.99805 0.0
H395 H 1.00203 0.64437 0.23295 0.0
C396 C 0.0184 0.68306 0.24293 0.0
C397 C 0.03561 0.70527 0.21082 0.0
C398 C 0.04099 0.63851 0.0286 0.0
C399 C 0.02884 0.662 0.13566 0.0
C400 C 0.04005 0.61553 0.9987 0.0
C401 C 0.0254 0.59244 0.03815 0.0
C402 C 0.02714 0.63845 0.09841 0.0
C403 C 0.01137 0.5934 0.10637 0.0
C404 C 0.01498 0.66147 0.2058 0.0
C405 C 0.04827 0.7055 0.13889 0.0
N406 N 0.01268 0.61587 0.13435 0.0
N407 N 0.04482 0.68416 0.10416 0.0
H408 H 0.98673 0.2438 0.69957 0.0
H409 H 0.01438 0.10803 0.69634 0.0
H410 H 0.06035 0.23422 0.63138 0.0
H411 H 1.0001 0.12053 0.93199 0.0
H412 H 0.01647 0.15442 0.64765 0.0
H413 H 0.9787 0.19852 0.77038 0.0
C414 C 1.00143 0.23249 0.70196 0.0
C415 C 0.0242 0.24257 0.65962 0.0
C416 C 0.01235 0.14676 0.70978 0.0
C417 C 0.0148 0.19126 0.73608 0.0
C418 C 0.01096 0.1204 0.73737 0.0
C419 C 0.0073 0.11064 0.81819 0.0
C420 C 0.00949 0.16318 0.76318 0.0
C421 C 1.0033 0.12753 0.86929 0.0
C422 C 0.99674 0.20673 0.74126 0.0
C423 C 0.04254 0.22704 0.66312 0.0
N424 N 0.00462 0.15317 0.841 0.0
N425 N 0.03723 0.20195 0.69887 0.0
H426 H 0.32817 0.05636 0.85503 0.0
H427 H 0.44616 0.98832 0.83815 0.0
H428 H 0.34172 1.01034 0.68249 0.0
H429 H 0.43722 0.04269 0.98999 0.0
H430 H 0.40259 0.98636 0.80602 0.0
H431 H 0.36199 0.04127 0.93069 0.0
C432 C 0.33771 0.04236 0.83469 0.0
C433 C 0.33247 0.03475 0.76231 0.0
C434 C 0.41007 0.99839 0.8474 0.0
C435 C 0.37138 0.01794 0.84682 0.0
C436 C 0.43495 0.99948 0.86586 0.0
C437 C 0.44551 0.01615 0.91534 0.0
C438 C 0.39572 0.0141 0.87861 0.0
C439 C 0.43001 0.02999 0.95011 0.0
C440 C 0.35715 0.03394 0.87732 0.0
C441 C 0.34547 0.0168 0.73785 0.0
N442 N 0.40602 0.02894 0.93019 0.0
N443 N 0.36461 1.00933 0.7793 0.0
H444 H 0.55163 0.30255 0.60563 0.0
H445 H 0.62576 0.44161 0.61748 0.0
H446 H 0.60644 0.34575 0.42712 0.0
H447 H 0.57569 0.39669 0.8075 0.0
H448 H 0.62608 0.40283 0.56231 0.0
H449 H 0.56718 0.33193 0.69473 0.0
C450 C 0.56749 0.31771 0.5862 0.0
C451 C 0.57748 0.32212 0.50858 0.0
C452 C 0.61532 0.4013 0.61681 0.0
C453 C 0.59494 0.35611 0.60901 0.0
C454 C 0.61525 0.42351 0.64879 0.0
C455 C 0.60022 0.42263 0.71647 0.0
C456 C 0.59996 0.37806 0.65191 0.0
C457 C 0.58691 0.3985 0.75378 0.0
C458 C 0.57625 0.33463 0.63678 0.0
C459 C 0.59793 0.34207 0.48614 0.0
N460 N 0.58671 0.37728 0.7202 0.0
N461 N 0.60566 0.35864 0.53553 0.0
H462 H 0.23041 0.53006 0.82313 0.0
H463 H 0.10743 0.59037 0.74835 0.0
H464 H 0.21837 0.5813 0.61096 0.0
H465 H 0.11758 0.53564 0.95565 0.0
H466 H 0.15138 0.59445 0.70973 0.0
H467 H 0.19313 0.5395 0.88559 0.0
C468 C 0.22036 0.54395 0.7907 0.0
C469 C 0.22725 0.55477 0.71175 0.0
C470 C 0.14406 0.5818 0.76423 0.0
C471 C 0.18439 0.56518 0.78158 0.0
C472 C 0.11892 0.57948 0.78637 0.0
C473 C 0.1086 0.56229 0.85465 0.0
C474 C 0.159 0.56676 0.8105 0.0
C475 C 0.12455 0.54884 0.90182 0.0
C476 C 0.19895 0.54915 0.82594 0.0
C477 C 0.21347 0.57242 0.67185 0.0
N478 N 0.14882 0.55111 0.87836 0.0
N479 N 0.19251 0.57677 0.70672 0.0
H480 H 0.03162 0.82681 0.0738 0.0
H481 H 0.0756 0.97527 0.08433 0.0
H482 H 0.08304 0.85455 0.23879 0.0
H483 H 0.03079 0.9464 0.90493 0.0
H484 H 0.08436 0.93171 0.12898 0.0
H485 H 0.03789 0.87037 0.99562 0.0
C486 C 0.04491 0.84188 0.09206 0.0
C487 C 0.05645 0.83721 0.16358 0.0
C488 C 0.07288 0.93503 0.07916 0.0
C489 C 0.06304 0.8873 0.07626 0.0
C490 C 0.06783 0.9599 0.05384 0.0
C491 C 0.05198 0.96443 0.99205 0.0
C492 C 0.06193 0.91461 0.0425 0.0
C493 C 0.04265 0.94379 0.95409 0.0
C494 C 0.04827 0.86687 0.04797 0.0
C495 C 0.0734 0.85752 0.18467 0.0
N496 N 0.04751 0.9198 0.98052 0.0
N497 N 0.07574 0.88182 0.1423 0.0
H498 H 0.72073 0.06455 0.15385 0.0
H499 H 0.60554 0.07998 0.02106 0.0
H500 H 0.71451 1.00225 0.02351 0.0
H501 H 0.61429 0.02393 0.87513 0.0
H502 H 0.64856 0.08179 0.05509 0.0
H503 H 0.68694 0.0805 0.08232 0.0
C504 C 0.71253 0.05468 0.10833 0.0
C505 C 0.72024 0.03214 0.09423 0.0
C506 C 0.64151 0.06946 0.01427 0.0
C507 C 0.68035 0.04907 0.01539 0.0
C508 C 0.61671 0.06844 0.99486 0.0
C509 C 0.60611 0.0514 0.94653 0.0
C510 C 0.65585 0.05327 0.98497 0.0
C511 C 0.6215 0.03699 0.91399 0.0
C512 C 0.69285 0.06347 0.06827 0.0
C513 C 0.70908 0.01981 0.03551 0.0
N514 N 0.64541 0.03799 0.9347 0.0
N515 N 0.68939 0.02819 0.99919 0.0
H516 H 0.51249 0.76801 0.2451 0.0
H517 H 0.43297 0.63142 0.24546 0.0
H518 H 0.45615 0.72975 0.42549 0.0
H519 H 0.48048 0.67454 0.04683 0.0
H520 H 0.43448 0.67087 0.29859 0.0
H521 H 0.49456 0.73891 0.15856 0.0
C522 C 0.49585 0.75404 0.26562 0.0
C523 C 0.48615 0.75085 0.34327 0.0
C524 C 0.44423 0.67186 0.24263 0.0
C525 C 0.46596 0.717 0.24547 0.0
C526 C 0.44326 0.64927 0.21187 0.0
C527 C 0.45712 0.64944 0.14238 0.0
C528 C 0.45949 0.69475 0.20438 0.0
C529 C 0.47019 0.67327 0.10199 0.0
C530 C 0.48571 0.73724 0.21636 0.0
C531 C 0.46459 0.73237 0.3667 0.0
N532 N 0.47147 0.69485 0.13437 0.0
N533 N 0.45556 0.71576 0.31869 0.0
H534 H 0.83923 0.49592 0.2084 0.0
H535 H 0.95051 0.48033 0.04628 0.0
H536 H 0.83145 0.54665 0.99093 0.0
H537 H 0.94083 0.54535 0.86984 0.0
H538 H 0.90666 0.47428 0.08742 0.0
H539 H 0.87525 0.48384 0.15021 0.0
C540 C 0.84469 0.50376 0.14709 0.0
C541 C 0.83248 0.52233 0.10437 0.0
C542 C 0.91401 0.48998 0.04001 0.0
C543 C 0.8742 0.50896 0.03657 0.0
C544 C 0.93913 0.49323 0.01587 0.0
C545 C 0.9496 0.5138 0.95601 0.0
C546 C 0.89934 0.50767 0.00454 0.0
C547 C 0.9338 0.52961 0.91771 0.0
C548 C 0.86541 0.49689 0.1135 0.0
C549 C 0.84033 0.53216 0.0256 0.0
N550 N 0.90965 0.52642 0.94332 0.0
N551 N 0.86101 0.52575 0.99474 0.0
H552 H 1.00045 0.26666 0.35588 0.0
H553 H 0.09456 0.18842 0.18242 0.0
H554 H 0.07914 0.27984 0.38746 0.0
H555 H 0.01471 0.16958 0.17701 0.0
H556 H 0.09014 0.22697 0.23581 0.0
H557 H 0.00643 0.23774 0.26418 0.0
C558 C 0.01916 0.26452 0.3402 0.0
C559 C 0.03939 0.2761 0.37809 0.0
C560 C 0.07359 0.21452 0.22226 0.0
C561 C 0.04632 0.24186 0.27643 0.0
C562 C 0.07607 0.1923 0.1923 0.0
C563 C 0.05497 0.1753 0.17575 0.0
C564 C 0.04982 0.22004 0.23598 0.0
C565 C 0.03158 0.182 0.18813 0.0
C566 C 0.02254 0.24755 0.28912 0.0
C567 C 0.06314 0.27177 0.35813 0.0
N568 N 0.02966 0.20362 0.21794 0.0
N569 N 0.06591 0.25472 0.30976 0.0
H570 H 0.30958 0.07012 0.42755 0.0
H571 H 0.45067 0.13041 0.30074 0.0
H572 H 0.35878 0.1149 0.56417 0.0
H573 H 0.40164 0.08843 0.15585 0.0
H574 H 0.41497 0.13196 0.38509 0.0
H575 H 0.34016 0.0837 0.31537 0.0
C576 C 0.32645 0.08355 0.4328 0.0
C577 C 0.33183 0.09137 0.50483 0.0
C578 C 0.41192 0.12267 0.33429 0.0
C579 C 0.36707 0.10637 0.37844 0.0
C580 C 0.43236 0.12192 0.28561 0.0
C581 C 0.42931 0.1089 0.22155 0.0
C582 C 0.38819 0.11008 0.31958 0.0
C583 C 0.40502 0.09807 0.20578 0.0
C584 C 0.34401 0.09109 0.36921 0.0
C585 C 0.35407 0.10843 0.50941 0.0
N586 N 0.38547 0.09857 0.25506 0.0
N587 N 0.37103 0.11505 0.44756 0.0
H588 H 0.4954 0.32517 0.29134 0.0
H589 H 0.48607 0.45029 0.11075 0.0
H590 H 0.57248 0.34864 0.21262 0.0
H591 H 0.55327 0.44928 0.97666 0.0
H592 H 0.48686 0.40624 0.17766 0.0
H593 H 0.48567 0.36282 0.20187 0.0
C594 C 0.51014 0.33796 0.25369 0.0
C595 C 0.53476 0.33393 0.25922 0.0
C596 C 0.5011 0.41533 0.13226 0.0
C597 C 0.52411 0.37755 0.1595 0.0
C598 C 0.50078 0.44068 0.09445 0.0
C599 C 0.51973 0.45368 0.03834 0.0
C600 C 0.52058 0.40288 0.11397 0.0
C601 C 0.53833 0.4402 0.01983 0.0
C602 C 0.5047 0.35973 0.20376 0.0
C603 C 0.55326 0.35115 0.21 0.0
N604 N 0.53844 0.41574 0.05821 0.0
N605 N 0.5476 0.37227 0.16269 0.0
H606 H 0.22078 0.4751 0.57159 0.0
H607 H 0.16631 0.51558 0.15134 0.0
H608 H 0.25411 0.54175 0.40163 0.0
H609 H 0.12808 0.45655 0.33822 0.0
H610 H 0.20294 0.51971 0.23022 0.0
H611 H 0.19195 0.46171 0.47371 0.0
C612 C 0.22258 0.48634 0.51246 0.0
C613 C 0.23993 0.50933 0.49395 0.0
C614 C 0.18662 0.50564 0.25351 0.0
C615 C 0.20647 0.49484 0.38273 0.0
C616 C 0.16561 0.50338 0.20874 0.0
C617 C 0.14383 0.48595 0.23849 0.0
C618 C 0.18596 0.49036 0.32872 0.0
C619 C 0.14437 0.47019 0.31246 0.0
C620 C 0.20595 0.47892 0.45693 0.0
C621 C 0.24119 0.52368 0.41745 0.0
N622 N 0.16496 0.47296 0.35522 0.0
N623 N 0.22441 0.51639 0.3648 0.0
H624 H 0.05054 0.80756 0.4832 0.0
H625 H 0.9597 0.90273 0.56482 0.0
H626 H 0.97964 0.80817 0.38004 0.0
H627 H 0.02532 0.89419 0.69468 0.0
H628 H 0.96479 0.86549 0.50597 0.0
H629 H 0.03951 0.83533 0.57251 0.0
C630 C 0.03217 0.81259 0.48198 0.0
C631 C 0.01575 0.80507 0.42543 0.0
C632 C 0.97797 0.87161 0.54785 0.0
C633 C 1.00346 0.83812 0.52432 0.0
C634 C 0.97503 0.89292 0.58193 0.0
C635 C 0.99218 0.90198 0.63485 0.0
C636 C 0.99833 0.85915 0.56599 0.0
C637 C 0.01188 0.88845 0.65311 0.0
C638 C 0.02601 0.82882 0.53204 0.0
C639 C 0.99257 0.81301 0.42408 0.0
N640 N 0.0145 0.86795 0.61842 0.0
N641 N 0.98728 0.82942 0.47175 0.0
H642 H 0.7422 1.00716 0.42688 0.0
H643 H 0.60795 0.92873 0.5914 0.0
H644 H 0.69689 0.95271 0.309 0.0
H645 H 0.6463 0.99469 0.68008 0.0
H646 H 0.6447 0.93016 0.50673 0.0
H647 H 0.71198 0.99501 0.54025 0.0
C648 C 0.72631 0.992 0.42627 0.0
C649 C 0.72193 0.9808 0.35917 0.0
C650 C 0.64516 0.94411 0.5455 0.0
C651 C 0.68713 0.96729 0.4868 0.0
C652 C 0.62412 0.94341 0.59356 0.0
C653 C 0.6238 0.96184 0.6423 0.0
C654 C 0.66612 0.96338 0.54599 0.0
C655 C 0.64562 0.97999 0.64389 0.0
C656 C 0.70895 0.98526 0.49037 0.0
C657 C 0.70087 0.96164 0.36012 0.0
N658 N 0.66576 0.98047 0.59584 0.0
N659 N 0.6841 0.95567 0.42255 0.0
H660 H 0.49048 0.73033 0.64784 0.0
H661 H 0.5715 0.62044 0.75871 0.0
H662 H 0.56563 0.73779 0.55557 0.0
H663 H 0.50268 0.62158 0.88394 0.0
H664 H 0.57125 0.66455 0.69017 0.0
H665 H 0.49613 0.69225 0.74262 0.0
C666 C 0.50842 0.72428 0.64924 0.0
C667 C 0.52769 0.73724 0.59451 0.0
C668 C 0.55636 0.65524 0.7333 0.0
C669 C 0.53409 0.69312 0.70063 0.0
C670 C 0.55645 0.62999 0.77237 0.0
C671 C 0.53694 0.61708 0.82664 0.0
C672 C 0.5365 0.66763 0.748 0.0
C673 C 0.51802 0.63059 0.84215 0.0
C674 C 0.51162 0.70245 0.70289 0.0
C675 C 0.55045 0.72845 0.5976 0.0
N676 N 0.51815 0.65495 0.80247 0.0
N677 N 0.55291 0.70667 0.64892 0.0
H678 H 0.84736 0.60449 0.22498 0.0
H679 H 0.89553 0.57069 0.65741 0.0
H680 H 0.80699 0.54608 0.40822 0.0
H681 H 0.93706 0.62617 0.46823 0.0
H682 H 0.85982 0.56659 0.5747 0.0
H683 H 0.87646 0.61859 0.32114 0.0
C684 C 0.84419 0.59526 0.28628 0.0
C685 C 0.8247 0.57432 0.30921 0.0
C686 C 0.87665 0.57987 0.55157 0.0
C687 C 0.85841 0.58955 0.41904 0.0
C688 C 0.89713 0.58211 0.59859 0.0
C689 C 0.91954 0.59853 0.56945 0.0
C690 C 0.87851 0.5941 0.47453 0.0
C691 C 0.92023 0.61331 0.49343 0.0
C692 C 0.86093 0.60308 0.34101 0.0
C693 C 0.82163 0.56255 0.38874 0.0
N694 N 0.90015 0.61053 0.44842 0.0
N695 N 0.83855 0.57008 0.44072 0.0
loop_
_geom_bond_atom_site_label_1
_geom_bond_atom_site_label_2
_geom_bond_distance
_geom_bond_site_symmetry_2
_ccdc_geom_bond_type
H0 C7 0.929 . S
H1 C10 0.930 . S
H2 C12 0.929 . S
H3 C4 0.969 . S
C4 H3 0.969 . S
C4 O5 1.550 1_556 S
C4 H6 0.973 . S
O5 C4 1.550 1_554 S
O5 C11 1.412 . S
H6 C4 0.973 . S
C7 H0 0.929 . S
C7 C8 1.400 . S
C7 C9 1.364 1_554 S
C8 C7 1.400 . S
C8 C12 1.377 . S
C9 C7 1.364 1_556 S
C9 C10 1.374 . S
C10 H1 0.930 . S
C10 C9 1.374 . S
C10 C11 1.383 1_556 S
C11 O5 1.412 . S
C11 C10 1.383 1_554 S
C11 C12 1.394 . S
C12 H2 0.929 . S
C12 C8 1.377 . S
C12 C11 1.394 . S
H13 C20 0.929 . S
H14 C23 0.930 . S
H15 C25 0.929 . S
H16 C17 0.975 . S
C17 H16 0.975 . S
C17 O18 1.548 1_455 S
C17 H19 0.970 1_455 S
O18 C17 1.548 1_655 S
O18 C24 1.412 . S
H19 C17 0.970 1_655 S
C20 H13 0.929 . S
C20 C21 1.400 . S
C20 C22 1.364 . S
C21 C20 1.400 . S
C21 C25 1.377 . S
C22 C20 1.364 . S
C22 C23 1.374 . S
C23 H14 0.930 . S
C23 C22 1.374 . S
C23 C24 1.383 . S
C24 O18 1.412 . S
C24 C23 1.383 . S
C24 C25 1.394 . S
C25 H15 0.929 . S
C25 C21 1.377 . S
C25 C24 1.394 . S
H26 C33 0.929 . S
H27 C36 0.932 . S
H28 C38 0.929 . S
H29 C30 0.969 . S
C30 H29 0.969 . S
C30 O31 1.550 . S
C30 H32 0.973 1_554 S
O31 C30 1.550 . S
O31 C37 1.412 . S
H32 C30 0.973 1_556 S
C33 H26 0.929 . S
C33 C34 1.400 . S
C33 C35 1.364 . S
C34 C33 1.400 . S
C34 C38 1.377 . S
C35 C33 1.364 . S
C35 C36 1.374 . S
C36 H27 0.932 . S
C36 C35 1.374 . S
C36 C37 1.383 . S
C37 O31 1.412 . S
C37 C36 1.383 . S
C37 C38 1.394 . S
C38 H28 0.929 . S
C38 C34 1.377 . S
C38 C37 1.394 . S
H39 C46 0.929 . S
H40 C49 0.930 . S
H41 C51 0.929 . S
H42 C43 0.969 . S
C43 H42 0.969 . S
C43 O44 1.550 . S
C43 H45 0.973 . S
O44 C43 1.550 . S
O44 C50 1.412 . S
H45 C43 0.973 . S
C46 H39 0.929 . S
C46 C47 1.400 . S
C46 C48 1.364 . S
C47 C46 1.400 . S
C47 C51 1.377 . S
C48 C46 1.364 . S
C48 C49 1.374 . S
C49 H40 0.930 . S
C49 C48 1.374 . S
C49 C50 1.383 . S
C50 O44 1.412 . S
C50 C49 1.383 . S
C50 C51 1.394 . S
C51 H41 0.929 . S
C51 C47 1.377 . S
C51 C50 1.394 . S
H52 C59 0.929 . S
H53 C62 0.930 . S
H54 C64 0.929 . S
H55 C56 0.969 . S
C56 H55 0.969 . S
C56 O57 1.550 . S
C56 H58 0.973 . S
O57 C56 1.550 . S
O57 C63 1.412 . S
H58 C56 0.973 . S
C59 H52 0.929 . S
C59 C60 1.400 . S
C59 C61 1.364 . S
C60 C59 1.400 . S
C60 C64 1.377 . S
C61 C59 1.364 . S
C61 C62 1.374 . S
C62 H53 0.930 . S
C62 C61 1.374 . S
C62 C63 1.383 . S
C63 O57 1.412 . S
C63 C62 1.383 . S
C63 C64 1.394 . S
C64 H54 0.929 . S
C64 C60 1.377 . S
C64 C63 1.394 . S
H65 C72 0.929 . S
H66 C75 0.930 . S
H67 C77 0.929 . S
H68 C69 0.969 . S
C69 H68 0.969 . S
C69 O70 1.550 . S
C69 H71 0.973 . S
O70 C69 1.550 . S
O70 C76 1.412 . S
H71 C69 0.973 . S
C72 H65 0.929 . S
C72 C73 1.400 . S
C72 C74 1.364 . S
C73 C72 1.400 . S
C73 C77 1.377 . S
C74 C72 1.364 . S
C74 C75 1.374 . S
C75 H66 0.930 . S
C75 C74 1.374 . S
C75 C76 1.383 . S
C76 O70 1.412 . S
C76 C75 1.383 . S
C76 C77 1.394 . S
C77 H67 0.929 . S
C77 C73 1.377 . S
C77 C76 1.394 . S
H78 C85 0.929 . S
H79 C88 0.930 . S
H80 C90 0.929 . S
H81 C82 0.969 . S
C82 H81 0.969 . S
C82 O83 1.550 . S
C82 H84 0.973 . S
O83 C82 1.550 . S
O83 C89 1.412 . S
H84 C82 0.973 . S
C85 H78 0.929 . S
C85 C86 1.400 . S
C85 C87 1.364 . S
C86 C85 1.400 . S
C86 C90 1.377 . S
C87 C85 1.364 . S
C87 C88 1.374 . S
C88 H79 0.930 . S
C88 C87 1.374 . S
C88 C89 1.383 . S
C89 O83 1.412 . S
C89 C88 1.383 . S
C89 C90 1.394 . S
C90 H80 0.929 . S
C90 C86 1.377 . S
C90 C89 1.394 . S
H91 C98 0.929 . S
H92 C101 0.930 . S
H93 C103 0.929 . S
H94 C95 0.969 . S
C95 H94 0.969 . S
C95 O96 1.550 . S
C95 H97 0.973 . S
O96 C95 1.550 . S
O96 C102 1.412 . S
H97 C95 0.973 . S
C98 H91 0.929 . S
C98 C99 1.400 . S
C98 C100 1.364 . S
C99 C98 1.400 . S
C99 C103 1.377 . S
C100 C98 1.364 . S
C100 C101 1.374 . S
C101 H92 0.930 . S
C101 C100 1.374 . S
C101 C102 1.383 . S
C102 O96 1.412 . S
C102 C101 1.383 . S
C102 C103 1.394 . S
C103 H93 0.929 . S
C103 C99 1.377 . S
C103 C102 1.394 . S
Nd104 C106 2.836 1_545 S
Nd104 O124 2.500 1_445 S
Nd104 O125 2.492 1_545 S
Nd104 O126 2.487 . S
Nd104 O127 2.682 . S
Nd104 O128 2.410 1_545 S
Nd104 O133 2.414 1_455 S
Nd104 O135 2.424 . S
Nd105 C115 2.836 . S
Nd105 O127 2.414 1_554 S
Nd105 O129 2.424 1_545 S
Nd105 O130 2.500 . S
Nd105 O131 2.492 . S
Nd105 O132 2.487 1_455 S
Nd105 O133 2.682 1_454 S
Nd105 O134 2.410 1_554 S
C106 Nd104 2.836 1_565 S
C106 C107 1.498 . S
C106 O124 1.258 1_455 S
C106 O125 1.239 . S
C107 C106 1.498 . S
C107 C108 1.366 1_455 S
C107 C112 1.407 . S
C108 C107 1.366 1_655 S
C108 C109 1.392 . S
C108 H136 0.930 . S
C109 C108 1.392 . S
C109 C110 1.398 1_655 S
C109 H137 0.929 . S
C110 C109 1.398 1_455 S
C110 C111 1.352 . S
C111 C110 1.352 . S
C111 C112 1.384 . S
C111 H138 0.930 . S
C112 C107 1.407 . S
C112 C111 1.384 . S
C112 H139 0.929 . S
C113 O126 1.241 . S
C113 O127 1.273 . S
C114 O128 1.251 . S
C114 O129 1.268 1_556 S
C115 Nd105 2.836 . S
C115 C116 1.498 . S
C115 O130 1.258 . S
C115 O131 1.239 . S
C116 C115 1.498 . S
C116 C117 1.366 . S
C116 C121 1.407 . S
C117 C116 1.366 . S
C117 C118 1.392 . S
C117 H140 0.930 . S
C118 C117 1.392 . S
C118 C119 1.398 . S
C118 H141 0.929 . S
C119 C118 1.398 . S
C119 C120 1.352 . S
C120 C119 1.352 . S
C120 C121 1.384 . S
C120 H142 0.930 . S
C121 C116 1.407 . S
C121 C120 1.384 . S
C121 H143 0.929 . S
C122 O132 1.241 1_556 S
C122 O133 1.273 . S
C123 O134 1.251 . S
C123 O135 1.268 . S
O124 Nd104 2.500 1_665 S
O124 C106 1.258 1_655 S
O125 Nd104 2.492 1_565 S
O125 C106 1.239 . S
O126 Nd104 2.487 . S
O126 C113 1.241 . S
O127 Nd104 2.682 . S
O127 Nd105 2.414 1_556 S
O127 C113 1.273 . S
O128 Nd104 2.410 1_565 S
O128 C114 1.251 . S
O129 Nd105 2.424 1_565 S
O129 C114 1.268 1_554 S
O130 Nd105 2.500 . S
O130 C115 1.258 . S
O131 Nd105 2.492 . S
O131 C115 1.239 . S
O132 Nd105 2.487 1_655 S
O132 C122 1.241 1_554 S
O133 Nd104 2.414 1_655 S
O133 Nd105 2.682 1_656 S
O133 C122 1.273 . S
O134 Nd105 2.410 1_556 S
O134 C123 1.251 . S
O135 Nd104 2.424 . S
O135 C123 1.268 . S
H136 C108 0.930 . S
H137 C109 0.929 . S
H138 C111 0.930 . S
H139 C112 0.929 . S
H140 C117 0.930 . S
H141 C118 0.929 . S
H142 C120 0.930 . S
H143 C121 0.929 . S
Nd144 C146 2.836 1_545 S
Nd144 O164 2.500 1_545 S
Nd144 O165 2.492 . S
Nd144 O166 2.487 . S
Nd144 O167 2.682 . S
Nd144 O168 2.410 . S
Nd144 O173 2.414 1_545 S
Nd144 O175 2.424 . S
Nd145 C155 2.836 . S
Nd145 O167 2.414 1_554 S
Nd145 O169 2.424 1_554 S
Nd145 O170 2.500 . S
Nd145 O171 2.492 . S
Nd145 O172 2.487 1_545 S
Nd145 O173 2.682 1_544 S
Nd145 O174 2.410 1_554 S
C146 Nd144 2.836 1_565 S
C146 C147 1.498 . S
C146 O164 1.258 . S
C146 O165 1.239 1_565 S
C147 C146 1.498 . S
C147 C148 1.366 . S
C147 C152 1.407 . S
C148 C147 1.366 . S
C148 C149 1.392 . S
C148 H176 0.930 . S
C149 C148 1.392 . S
C149 C150 1.398 . S
C149 H177 0.929 . S
C150 C149 1.398 . S
C150 C151 1.352 . S
C151 C150 1.352 . S
C151 C152 1.384 . S
C151 H178 0.930 . S
C152 C147 1.407 . S
C152 C151 1.384 . S
C152 H179 0.929 1_565 S
C153 O166 1.241 . S
C153 O167 1.273 . S
C154 O168 1.251 . S
C154 O169 1.268 . S
C155 Nd145 2.836 . S
C155 C156 1.498 . S
C155 O170 1.258 . S
C155 O171 1.239 . S
C156 C155 1.498 . S
C156 C157 1.366 . S
C156 C161 1.407 . S
C157 C156 1.366 . S
C157 C158 1.392 . S
C157 H180 0.930 . S
C158 C157 1.392 . S
C158 C159 1.398 . S
C158 H181 0.929 . S
C159 C158 1.398 . S
C159 C160 1.352 . S
C160 C159 1.352 . S
C160 C161 1.384 . S
C160 H182 0.930 . S
C161 C156 1.407 . S
C161 C160 1.384 . S
C161 H183 0.929 . S
C162 O172 1.241 . S
C162 O173 1.273 1_554 S
C163 O174 1.251 . S
C163 O175 1.268 . S
O164 Nd144 2.500 1_565 S
O164 C146 1.258 . S
O165 Nd144 2.492 . S
O165 C146 1.239 1_545 S
O166 Nd144 2.487 . S
O166 C153 1.241 . S
O167 Nd144 2.682 . S
O167 Nd145 2.414 1_556 S
O167 C153 1.273 . S
O168 Nd144 2.410 . S
O168 C154 1.251 . S
O169 Nd145 2.424 1_556 S
O169 C154 1.268 . S
O170 Nd145 2.500 . S
O170 C155 1.258 . S
O171 Nd145 2.492 . S
O171 C155 1.239 . S
O172 Nd145 2.487 1_565 S
O172 C162 1.241 . S
O173 Nd144 2.414 1_565 S
O173 Nd145 2.682 1_566 S
O173 C162 1.273 1_556 S
O174 Nd145 2.410 1_556 S
O174 C163 1.251 . S
O175 Nd144 2.424 . S
O175 C163 1.268 . S
H176 C148 0.930 . S
H177 C149 0.929 . S
H178 C151 0.930 . S
H179 C152 0.929 1_545 S
H180 C157 0.930 . S
H181 C158 0.929 . S
H182 C160 0.930 . S
H183 C161 0.929 . S
Nd184 C186 2.836 . S
Nd184 O204 2.500 . S
Nd184 O205 2.492 . S
Nd184 O206 2.488 . S
Nd184 O207 2.682 1_554 S
Nd184 O208 2.410 1_554 S
Nd184 O213 2.414 1_554 S
Nd184 O215 2.424 . S
Nd185 C195 2.836 . S
Nd185 O207 2.414 . S
Nd185 O209 2.424 . S
Nd185 O210 2.500 . S
Nd185 O211 2.492 . S
Nd185 O212 2.487 . S
Nd185 O213 2.682 . S
Nd185 O214 2.410 . S
C186 Nd184 2.836 . S
C186 C187 1.498 . S
C186 O204 1.258 . S
C186 O205 1.239 . S
C187 C186 1.498 . S
C187 C188 1.366 . S
C187 C192 1.407 . S
C188 C187 1.366 . S
C188 C189 1.392 . S
C188 H216 0.930 . S
C189 C188 1.392 . S
C189 C190 1.398 . S
C189 H217 0.929 . S
C190 C189 1.398 . S
C190 C191 1.352 . S
C191 C190 1.352 . S
C191 C192 1.384 . S
C191 H218 0.930 . S
C192 C187 1.407 . S
C192 C191 1.384 . S
C192 H219 0.929 . S
C193 O206 1.236 1_556 S
C193 O207 1.273 . S
C194 O208 1.251 . S
C194 O209 1.268 . S
C195 Nd185 2.836 . S
C195 C196 1.498 . S
C195 O210 1.258 . S
C195 O211 1.239 . S
C196 C195 1.498 . S
C196 C197 1.366 . S
C196 C201 1.407 . S
C197 C196 1.366 . S
C197 C198 1.392 . S
C197 H220 0.930 . S
C198 C197 1.392 . S
C198 C199 1.398 . S
C198 H221 0.929 . S
C199 C198 1.398 . S
C199 C200 1.352 . S
C200 C199 1.352 . S
C200 C201 1.384 . S
C200 H222 0.930 . S
C201 C196 1.407 . S
C201 C200 1.384 . S
C201 H223 0.929 . S
C202 O212 1.241 . S
C202 O213 1.273 . S
C203 O214 1.251 . S
C203 O215 1.268 1_556 S
O204 Nd184 2.500 . S
O204 C186 1.258 . S
O205 Nd184 2.492 . S
O205 C186 1.239 . S
O206 Nd184 2.488 . S
O206 C193 1.236 1_554 S
O207 Nd184 2.682 1_556 S
O207 Nd185 2.414 . S
O207 C193 1.273 . S
O208 Nd184 2.410 1_556 S
O208 C194 1.251 . S
O209 Nd185 2.424 . S
O209 C194 1.268 . S
O210 Nd185 2.500 . S
O210 C195 1.258 . S
O211 Nd185 2.492 . S
O211 C195 1.239 . S
O212 Nd185 2.487 . S
O212 C202 1.241 . S
O213 Nd184 2.414 1_556 S
O213 Nd185 2.682 . S
O213 C202 1.273 . S
O214 Nd185 2.410 . S
O214 C203 1.251 . S
O215 Nd184 2.424 . S
O215 C203 1.268 1_554 S
H216 C188 0.930 . S
H217 C189 0.929 . S
H218 C191 0.930 . S
H219 C192 0.929 . S
H220 C197 0.930 . S
H221 C198 0.929 . S
H222 C200 0.930 . S
H223 C201 0.929 . S
Nd224 C226 2.836 1_455 S
Nd224 O244 2.500 1_455 S
Nd224 O245 2.492 1_455 S
Nd224 O246 2.487 . S
Nd224 O247 2.682 . S
Nd224 O248 2.410 1_455 S
Nd224 O253 2.414 . S
Nd224 O255 2.424 . S
Nd225 C235 2.836 . S
Nd225 O247 2.414 1_554 S
Nd225 O249 2.424 1_455 S
Nd225 O250 2.500 . S
Nd225 O251 2.492 . S
Nd225 O252 2.487 . S
Nd225 O253 2.682 1_554 S
Nd225 O254 2.410 1_554 S
C226 Nd224 2.836 1_655 S
C226 C227 1.498 . S
C226 O244 1.258 . S
C226 O245 1.239 . S
C227 C226 1.498 . S
C227 C228 1.366 . S
C227 C232 1.407 . S
C228 C227 1.366 . S
C228 C229 1.392 . S
C228 H256 0.930 . S
C229 C228 1.392 . S
C229 C230 1.398 . S
C229 H257 0.929 . S
C230 C229 1.398 . S
C230 C231 1.352 . S
C231 C230 1.352 . S
C231 C232 1.384 . S
C231 H258 0.930 . S
C232 C227 1.407 . S
C232 C231 1.384 . S
C232 H259 0.929 . S
C233 O246 1.241 . S
C233 O247 1.273 . S
C234 O248 1.251 . S
C234 O249 1.268 1_556 S
C235 Nd225 2.836 . S
C235 C236 1.498 . S
C235 O250 1.258 . S
C235 O251 1.239 . S
C236 C235 1.498 . S
C236 C237 1.366 . S
C236 C241 1.407 . S
C237 C236 1.366 . S
C237 C238 1.392 . S
C237 H260 0.930 . S
C238 C237 1.392 . S
C238 C239 1.398 . S
C238 H261 0.929 . S
C239 C238 1.398 . S
C239 C240 1.352 . S
C240 C239 1.352 . S
C240 C241 1.384 . S
C240 H262 0.930 . S
C241 C236 1.407 . S
C241 C240 1.384 . S
C241 H263 0.929 . S
C242 O252 1.241 1_556 S
C242 O253 1.273 . S
C243 O254 1.251 . S
C243 O255 1.268 . S
O244 Nd224 2.500 1_655 S
O244 C226 1.258 . S
O245 Nd224 2.492 1_655 S
O245 C226 1.239 . S
O246 Nd224 2.487 . S
O246 C233 1.241 . S
O247 Nd224 2.682 . S
O247 Nd225 2.414 1_556 S
O247 C233 1.273 . S
O248 Nd224 2.410 1_655 S
O248 C234 1.251 . S
O249 Nd225 2.424 1_655 S
O249 C234 1.268 1_554 S
O250 Nd225 2.500 . S
O250 C235 1.258 . S
O251 Nd225 2.492 . S
O251 C235 1.239 . S
O252 Nd225 2.487 . S
O252 C242 1.241 1_554 S
O253 Nd224 2.414 . S
O253 Nd225 2.682 1_556 S
O253 C242 1.273 . S
O254 Nd225 2.410 1_556 S
O254 C243 1.251 . S
O255 Nd224 2.424 . S
O255 C243 1.268 . S
H256 C228 0.930 . S
H257 C229 0.929 . S
H258 C231 0.930 . S
H259 C232 0.929 . S
H260 C237 0.930 . S
H261 C238 0.929 . S
H262 C240 0.930 . S
H263 C241 0.929 . S
H264 C270 0.930 . S
H265 C274 0.930 . S
H266 C279 0.929 . S
H267 C277 0.929 . S
H268 C272 0.929 . S
H269 C278 0.929 . S
C270 H264 0.930 . S
C270 C271 1.367 . S
C270 C278 1.378 . S
C271 C270 1.367 . S
C271 C279 1.433 . S
C272 H268 0.929 . S
C272 C274 1.378 . S
C272 C276 1.350 . S
C273 C276 1.463 . S
C273 C278 1.350 . S
C273 N281 1.427 . S
C274 H265 0.930 . S
C274 C272 1.378 . S
C274 C275 1.367 . S
C275 C274 1.367 . S
C275 C277 1.433 . S
C276 C272 1.350 . S
C276 C273 1.463 . S
C276 N280 1.427 . S
C277 H267 0.929 . S
C277 C275 1.433 . S
C277 N280 1.384 . S
C278 H269 0.929 . S
C278 C270 1.378 . S
C278 C273 1.350 . S
C279 H266 0.929 . S
C279 C271 1.433 . S
C279 N281 1.384 . S
N280 C276 1.427 . S
N280 C277 1.384 . S
N281 C273 1.427 . S
N281 C279 1.384 . S
H282 C288 0.930 . S
H283 C292 0.930 . S
H284 C297 0.929 . S
H285 C295 0.929 . S
H286 C290 0.929 . S
H287 C296 0.929 . S
C288 H282 0.930 . S
C288 C289 1.367 . S
C288 C296 1.378 . S
C289 C288 1.367 . S
C289 C297 1.433 . S
C290 H286 0.929 . S
C290 C292 1.378 . S
C290 C294 1.350 . S
C291 C294 1.463 . S
C291 C296 1.350 . S
C291 N299 1.427 . S
C292 H283 0.930 . S
C292 C290 1.378 . S
C292 C293 1.367 . S
C293 C292 1.367 . S
C293 C295 1.433 . S
C294 C290 1.350 . S
C294 C291 1.463 . S
C294 N298 1.427 . S
C295 H285 0.929 . S
C295 C293 1.433 . S
C295 N298 1.384 . S
C296 H287 0.929 . S
C296 C288 1.378 . S
C296 C291 1.350 . S
C297 H284 0.929 . S
C297 C289 1.433 . S
C297 N299 1.384 . S
N298 C294 1.427 . S
N298 C295 1.384 . S
N299 C291 1.427 . S
N299 C297 1.384 . S
H300 C306 0.930 . S
H301 C310 0.930 1_554 S
H302 C315 0.929 . S
H303 C313 0.929 . S
H304 C308 0.929 1_554 S
H305 C314 0.929 . S
C306 H300 0.930 . S
C306 C307 1.367 . S
C306 C314 1.378 . S
C307 C306 1.367 . S
C307 C315 1.433 . S
C308 H304 0.929 1_556 S
C308 C310 1.378 . S
C308 C312 1.350 . S
C309 C312 1.463 . S
C309 C314 1.350 . S
C309 N317 1.427 . S
C310 H301 0.930 1_556 S
C310 C308 1.378 . S
C310 C311 1.367 . S
C311 C310 1.367 . S
C311 C313 1.433 . S
C312 C308 1.350 . S
C312 C309 1.463 . S
C312 N316 1.427 . S
C313 H303 0.929 . S
C313 C311 1.433 . S
C313 N316 1.384 . S
C314 H305 0.929 . S
C314 C306 1.378 . S
C314 C309 1.350 . S
C315 H302 0.929 . S
C315 C307 1.433 . S
C315 N317 1.384 . S
N316 C312 1.427 . S
N316 C313 1.384 . S
N317 C309 1.427 . S
N317 C315 1.384 . S
H318 C324 0.930 . S
H319 C328 0.930 . S
H320 C333 0.929 . S
H321 C331 0.929 1_655 S
H322 C326 0.929 . S
H323 C332 0.929 . S
C324 H318 0.930 . S
C324 C325 1.367 . S
C324 C332 1.378 . S
C325 C324 1.367 . S
C325 C333 1.433 . S
C326 H322 0.929 . S
C326 C328 1.378 . S
C326 C330 1.350 . S
C327 C330 1.463 . S
C327 C332 1.350 . S
C327 N335 1.427 . S
C328 H319 0.930 . S
C328 C326 1.378 . S
C328 C329 1.367 . S
C329 C328 1.367 . S
C329 C331 1.433 . S
C330 C326 1.350 . S
C330 C327 1.463 . S
C330 N334 1.427 . S
C331 H321 0.929 1_455 S
C331 C329 1.433 . S
C331 N334 1.384 . S
C332 H323 0.929 . S
C332 C324 1.378 . S
C332 C327 1.350 . S
C333 H320 0.929 . S
C333 C325 1.433 . S
C333 N335 1.384 . S
N334 C330 1.427 . S
N334 C331 1.384 . S
N335 C327 1.427 . S
N335 C333 1.384 . S
H336 C342 0.930 . S
H337 C346 0.930 . S
H338 C351 0.929 . S
H339 C349 0.929 . S
H340 C344 0.929 . S
H341 C350 0.929 . S
C342 H336 0.930 . S
C342 C343 1.367 1_556 S
C342 C350 1.378 . S
C343 C342 1.367 1_554 S
C343 C351 1.433 . S
C344 H340 0.929 . S
C344 C346 1.378 . S
C344 C348 1.350 1_554 S
C345 C348 1.463 1_554 S
C345 C350 1.350 1_554 S
C345 N353 1.427 . S
C346 H337 0.930 . S
C346 C344 1.378 . S
C346 C347 1.367 1_564 S
C347 C346 1.367 1_546 S
C347 C349 1.433 . S
C348 C344 1.350 1_556 S
C348 C345 1.463 1_556 S
C348 N352 1.427 1_565 S
C349 H339 0.929 . S
C349 C347 1.433 . S
C349 N352 1.384 . S
C350 H341 0.929 . S
C350 C342 1.378 . S
C350 C345 1.350 1_556 S
C351 H338 0.929 . S
C351 C343 1.433 . S
C351 N353 1.384 . S
N352 C348 1.427 1_545 S
N352 C349 1.384 . S
N353 C345 1.427 . S
N353 C351 1.384 . S
H354 C360 0.930 . S
H355 C364 0.930 1_556 S
H356 C369 0.929 . S
H357 C367 0.929 . S
H358 C362 0.929 . S
H359 C368 0.929 . S
C360 H354 0.930 . S
C360 C361 1.367 . S
C360 C368 1.378 . S
C361 C360 1.367 . S
C361 C369 1.433 . S
C362 H358 0.929 . S
C362 C364 1.378 . S
C362 C366 1.350 . S
C363 C366 1.463 . S
C363 C368 1.350 . S
C363 N371 1.427 . S
C364 H355 0.930 1_554 S
C364 C362 1.378 . S
C364 C365 1.367 . S
C365 C364 1.367 . S
C365 C367 1.433 . S
C366 C362 1.350 . S
C366 C363 1.463 . S
C366 N370 1.427 . S
C367 H357 0.929 . S
C367 C365 1.433 . S
C367 N370 1.384 . S
C368 H359 0.929 . S
C368 C360 1.378 . S
C368 C363 1.350 . S
C369 H356 0.929 . S
C369 C361 1.433 . S
C369 N371 1.384 . S
N370 C366 1.427 . S
N370 C367 1.384 . S
N371 C363 1.427 . S
N371 C369 1.384 . S
H372 C378 0.930 . S
H373 C382 0.930 1_554 S
H374 C387 0.929 . S
H375 C385 0.929 . S
H376 C380 0.935 . S
H377 C386 0.929 . S
C378 H372 0.930 . S
C378 C379 1.367 . S
C378 C386 1.378 . S
C379 C378 1.367 . S
C379 C387 1.433 1_556 S
C380 H376 0.935 . S
C380 C382 1.377 1_554 S
C380 C384 1.344 1_554 S
C381 C384 1.463 . S
C381 C386 1.350 . S
C381 N389 1.427 1_556 S
C382 H373 0.930 1_556 S
C382 C380 1.377 1_556 S
C382 C383 1.367 . S
C383 C382 1.367 . S
C383 C385 1.433 . S
C384 C380 1.344 1_556 S
C384 C381 1.463 . S
C384 N388 1.427 . S
C385 H375 0.929 . S
C385 C383 1.433 . S
C385 N388 1.384 . S
C386 H377 0.929 . S
C386 C378 1.378 . S
C386 C381 1.350 . S
C387 H374 0.929 . S
C387 C379 1.433 1_554 S
C387 N389 1.384 . S
N388 C384 1.427 . S
N388 C385 1.384 . S
N389 C381 1.427 1_554 S
N389 C387 1.384 . S
H390 C396 0.930 . S
H391 C400 0.930 . S
H392 C405 0.929 . S
H393 C403 0.929 . S
H394 C398 0.929 . S
H395 C404 0.929 . S
C396 H390 0.930 . S
C396 C397 1.369 . S
C396 C404 1.378 . S
C397 C396 1.369 . S
C397 C405 1.424 1_654 S
C398 H394 0.929 . S
C398 C400 1.378 . S
C398 C402 1.350 . S
C399 C402 1.463 1_554 S
C399 C404 1.350 1_455 S
C399 N407 1.427 1_554 S
C400 H391 0.930 . S
C400 C398 1.378 . S
C400 C401 1.367 . S
C401 C400 1.367 . S
C401 C403 1.433 1_556 S
C402 C398 1.350 . S
C402 C399 1.463 1_556 S
C402 N406 1.427 1_556 S
C403 H393 0.929 . S
C403 C401 1.433 1_554 S
C403 N406 1.384 . S
C404 H395 0.929 . S
C404 C396 1.378 . S
C404 C399 1.350 1_655 S
C405 H392 0.929 . S
C405 C397 1.424 1_456 S
C405 N407 1.384 . S
N406 C402 1.427 1_554 S
N406 C403 1.384 . S
N407 C399 1.427 1_556 S
N407 C405 1.384 . S
H408 C414 0.930 . S
H409 C418 0.930 . S
H410 C423 0.929 . S
H411 C421 0.929 . S
H412 C416 0.929 . S
H413 C422 0.929 . S
C414 H408 0.930 . S
C414 C415 1.367 . S
C414 C422 1.378 . S
C415 C414 1.367 . S
C415 C423 1.433 . S
C416 H412 0.929 . S
C416 C418 1.378 . S
C416 C420 1.350 . S
C417 C420 1.463 . S
C417 C422 1.350 . S
C417 N425 1.427 . S
C418 H409 0.930 . S
C418 C416 1.378 . S
C418 C419 1.367 . S
C419 C418 1.367 . S
C419 C421 1.433 . S
C420 C416 1.350 . S
C420 C417 1.463 . S
C420 N424 1.427 . S
C421 H411 0.929 . S
C421 C419 1.433 . S
C421 N424 1.384 . S
C422 H413 0.929 . S
C422 C414 1.378 . S
C422 C417 1.350 . S
C423 H410 0.929 . S
C423 C415 1.433 . S
C423 N425 1.384 . S
N424 C420 1.427 . S
N424 C421 1.384 . S
N425 C417 1.427 . S
N425 C423 1.384 . S
H426 C432 0.930 . S
H427 C436 0.930 . S
H428 C441 0.929 . S
H429 C439 0.929 . S
H430 C434 0.929 . S
H431 C440 0.929 . S
C432 H426 0.930 . S
C432 C433 1.367 . S
C432 C440 1.378 . S
C433 C432 1.367 . S
C433 C441 1.433 . S
C434 H430 0.929 . S
C434 C436 1.378 . S
C434 C438 1.350 . S
C435 C438 1.463 . S
C435 C440 1.350 . S
C435 N443 1.427 . S
C436 H427 0.930 . S
C436 C434 1.378 . S
C436 C437 1.367 . S
C437 C436 1.367 . S
C437 C439 1.433 . S
C438 C434 1.350 . S
C438 C435 1.463 . S
C438 N442 1.427 . S
C439 H429 0.929 . S
C439 C437 1.433 . S
C439 N442 1.384 . S
C440 H431 0.929 . S
C440 C432 1.378 . S
C440 C435 1.350 . S
C441 H428 0.929 . S
C441 C433 1.433 . S
C441 N443 1.384 . S
N442 C438 1.427 . S
N442 C439 1.384 . S
N443 C435 1.427 . S
N443 C441 1.384 . S
H444 C450 0.930 . S
H445 C454 0.930 . S
H446 C459 0.929 . S
H447 C457 0.929 . S
H448 C452 0.929 . S
H449 C458 0.929 . S
C450 H444 0.930 . S
C450 C451 1.367 . S
C450 C458 1.378 . S
C451 C450 1.367 . S
C451 C459 1.433 . S
C452 H448 0.929 . S
C452 C454 1.378 . S
C452 C456 1.350 . S
C453 C456 1.463 . S
C453 C458 1.350 . S
C453 N461 1.427 . S
C454 H445 0.930 . S
C454 C452 1.378 . S
C454 C455 1.367 . S
C455 C454 1.367 . S
C455 C457 1.433 . S
C456 C452 1.350 . S
C456 C453 1.463 . S
C456 N460 1.427 . S
C457 H447 0.929 . S
C457 C455 1.433 . S
C457 N460 1.384 . S
C458 H449 0.929 . S
C458 C450 1.378 . S
C458 C453 1.350 . S
C459 H446 0.929 . S
C459 C451 1.433 . S
C459 N461 1.384 . S
N460 C456 1.427 . S
N460 C457 1.384 . S
N461 C453 1.427 . S
N461 C459 1.384 . S
H462 C468 0.930 1_554 S
H463 C472 0.930 . S
H464 C477 0.929 . S
H465 C475 0.929 1_554 S
H466 C470 0.929 . S
H467 C476 0.929 1_554 S
C468 H462 0.930 1_556 S
C468 C469 1.367 . S
C468 C476 1.378 . S
C469 C468 1.367 . S
C469 C477 1.433 . S
C470 H466 0.929 . S
C470 C472 1.378 . S
C470 C474 1.350 . S
C471 C474 1.463 . S
C471 C476 1.350 . S
C471 N479 1.427 . S
C472 H463 0.930 . S
C472 C470 1.378 . S
C472 C473 1.367 . S
C473 C472 1.367 . S
C473 C475 1.433 . S
C474 C470 1.350 . S
C474 C471 1.463 . S
C474 N478 1.427 . S
C475 H465 0.929 1_556 S
C475 C473 1.433 . S
C475 N478 1.384 . S
C476 H467 0.929 1_556 S
C476 C468 1.378 . S
C476 C471 1.350 . S
C477 H464 0.929 . S
C477 C469 1.433 . S
C477 N479 1.384 . S
N478 C474 1.427 . S
N478 C475 1.384 . S
N479 C471 1.427 . S
N479 C477 1.384 . S
H480 C486 0.930 . S
H481 C490 0.930 . S
H482 C495 0.929 . S
H483 C493 0.929 . S
H484 C488 0.929 . S
H485 C494 0.929 . S
C486 H480 0.930 . S
C486 C487 1.367 . S
C486 C494 1.378 . S
C487 C486 1.367 . S
C487 C495 1.433 1_655 S
C488 H484 0.929 . S
C488 C490 1.378 . S
C488 C492 1.350 . S
C489 C492 1.463 1_554 S
C489 C494 1.350 1_455 S
C489 N497 1.427 . S
C490 H481 0.930 . S
C490 C488 1.378 . S
C490 C491 1.367 . S
C491 C490 1.367 . S
C491 C493 1.433 1_455 S
C492 C488 1.350 . S
C492 C489 1.463 1_556 S
C492 N496 1.427 1_456 S
C493 H483 0.929 . S
C493 C491 1.433 1_655 S
C493 N496 1.384 1_556 S
C494 H485 0.929 . S
C494 C486 1.378 . S
C494 C489 1.350 1_655 S
C495 H482 0.929 . S
C495 C487 1.433 1_455 S
C495 N497 1.384 . S
N496 C492 1.427 1_654 S
N496 C493 1.384 1_554 S
N497 C489 1.427 . S
N497 C495 1.384 . S
H498 C504 0.930 . S
H499 C508 0.930 . S
H500 C513 0.929 . S
H501 C511 0.929 . S
H502 C506 0.929 . S
H503 C512 0.929 . S
C504 H498 0.930 . S
C504 C505 1.367 1_556 S
C504 C512 1.378 . S
C505 C504 1.367 1_554 S
C505 C513 1.433 . S
C506 H502 0.929 . S
C506 C508 1.378 . S
C506 C510 1.350 1_554 S
C507 C510 1.463 . S
C507 C512 1.350 . S
C507 N515 1.427 1_556 S
C508 H499 0.930 . S
C508 C506 1.378 . S
C508 C509 1.367 1_564 S
C509 C508 1.367 1_546 S
C509 C511 1.433 . S
C510 C506 1.350 1_556 S
C510 C507 1.463 . S
C510 N514 1.427 1_565 S
C511 H501 0.929 . S
C511 C509 1.433 . S
C511 N514 1.384 . S
C512 H503 0.929 . S
C512 C504 1.378 . S
C512 C507 1.350 . S
C513 H500 0.929 . S
C513 C505 1.433 . S
C513 N515 1.384 . S
N514 C510 1.427 1_545 S
N514 C511 1.384 . S
N515 C507 1.427 1_554 S
N515 C513 1.384 . S
H516 C522 0.930 . S
H517 C526 0.930 . S
H518 C531 0.929 . S
H519 C529 0.929 . S
H520 C524 0.929 . S
H521 C530 0.929 . S
C522 H516 0.930 . S
C522 C523 1.367 . S
C522 C530 1.378 . S
C523 C522 1.367 . S
C523 C531 1.433 . S
C524 H520 0.929 . S
C524 C526 1.378 . S
C524 C528 1.350 . S
C525 C528 1.463 . S
C525 C530 1.350 . S
C525 N533 1.427 . S
C526 H517 0.930 . S
C526 C524 1.378 . S
C526 C527 1.367 . S
C527 C526 1.367 . S
C527 C529 1.433 . S
C528 C524 1.350 . S
C528 C525 1.463 . S
C528 N532 1.427 . S
C529 H519 0.929 . S
C529 C527 1.433 . S
C529 N532 1.384 . S
C530 H521 0.929 . S
C530 C522 1.378 . S
C530 C525 1.350 . S
C531 H518 0.929 . S
C531 C523 1.433 . S
C531 N533 1.384 . S
N532 C528 1.427 . S
N532 C529 1.384 . S
N533 C525 1.427 . S
N533 C531 1.384 . S
H534 C540 0.930 1_554 S
H535 C544 0.930 . S
H536 C549 0.929 . S
H537 C547 0.929 1_554 S
H538 C542 0.929 . S
H539 C548 0.929 1_554 S
C540 H534 0.930 1_556 S
C540 C541 1.367 . S
C540 C548 1.378 . S
C541 C540 1.367 . S
C541 C549 1.433 . S
C542 H538 0.929 . S
C542 C544 1.378 . S
C542 C546 1.350 . S
C543 C546 1.463 . S
C543 C548 1.350 . S
C543 N551 1.427 . S
C544 H535 0.930 . S
C544 C542 1.378 . S
C544 C545 1.367 . S
C545 C544 1.367 . S
C545 C547 1.433 . S
C546 C542 1.350 . S
C546 C543 1.463 . S
C546 N550 1.427 . S
C547 H537 0.929 1_556 S
C547 C545 1.433 . S
C547 N550 1.384 . S
C548 H539 0.929 1_556 S
C548 C540 1.378 . S
C548 C543 1.350 . S
C549 H536 0.929 . S
C549 C541 1.433 . S
C549 N551 1.384 . S
N550 C546 1.427 . S
N550 C547 1.384 . S
N551 C543 1.427 . S
N551 C549 1.384 . S
H552 C558 0.930 . S
H553 C562 0.930 . S
H554 C567 0.929 . S
H555 C565 0.929 . S
H556 C560 0.929 . S
H557 C566 0.929 . S
C558 H552 0.930 . S
C558 C559 1.367 . S
C558 C566 1.378 . S
C559 C558 1.367 . S
C559 C567 1.433 . S
C560 H556 0.929 . S
C560 C562 1.378 . S
C560 C564 1.350 . S
C561 C564 1.463 . S
C561 C566 1.350 . S
C561 N569 1.427 . S
C562 H553 0.930 . S
C562 C560 1.378 . S
C562 C563 1.367 . S
C563 C562 1.367 . S
C563 C565 1.433 . S
C564 C560 1.350 . S
C564 C561 1.463 . S
C564 N568 1.427 . S
C565 H555 0.929 . S
C565 C563 1.433 . S
C565 N568 1.384 . S
C566 H557 0.929 . S
C566 C558 1.378 . S
C566 C561 1.350 . S
C567 H554 0.929 . S
C567 C559 1.433 . S
C567 N569 1.384 . S
N568 C564 1.427 . S
N568 C565 1.384 . S
N569 C561 1.427 . S
N569 C567 1.384 . S
H570 C576 0.930 . S
H571 C580 0.930 . S
H572 C585 0.929 . S
H573 C583 0.929 . S
H574 C578 0.929 . S
H575 C584 0.929 . S
C576 H570 0.930 . S
C576 C577 1.367 . S
C576 C584 1.378 . S
C577 C576 1.367 . S
C577 C585 1.433 . S
C578 H574 0.929 . S
C578 C580 1.378 . S
C578 C582 1.350 . S
C579 C582 1.463 . S
C579 C584 1.350 . S
C579 N587 1.427 . S
C580 H571 0.930 . S
C580 C578 1.378 . S
C580 C581 1.367 . S
C581 C580 1.367 . S
C581 C583 1.433 . S
C582 C578 1.350 . S
C582 C579 1.463 . S
C582 N586 1.427 . S
C583 H573 0.929 . S
C583 C581 1.433 . S
C583 N586 1.384 . S
C584 H575 0.929 . S
C584 C576 1.378 . S
C584 C579 1.350 . S
C585 H572 0.929 . S
C585 C577 1.433 . S
C585 N587 1.384 . S
N586 C582 1.427 . S
N586 C583 1.384 . S
N587 C579 1.427 . S
N587 C585 1.384 . S
H588 C594 0.930 . S
H589 C598 0.930 . S
H590 C603 0.929 . S
H591 C601 0.930 . S
H592 C596 0.929 . S
H593 C602 0.929 . S
C594 H588 0.930 . S
C594 C595 1.367 . S
C594 C602 1.378 . S
C595 C594 1.367 . S
C595 C603 1.433 . S
C596 H592 0.929 . S
C596 C598 1.378 . S
C596 C600 1.350 . S
C597 C600 1.463 . S
C597 C602 1.350 . S
C597 N605 1.427 . S
C598 H589 0.930 . S
C598 C596 1.378 . S
C598 C599 1.367 . S
C599 C598 1.367 . S
C599 C601 1.433 1_554 S
C600 C596 1.350 . S
C600 C597 1.463 . S
C600 N604 1.427 . S
C601 H591 0.930 . S
C601 C599 1.433 1_556 S
C601 N604 1.383 1_556 S
C602 H593 0.929 . S
C602 C594 1.378 . S
C602 C597 1.350 . S
C603 H590 0.929 . S
C603 C595 1.433 . S
C603 N605 1.384 . S
N604 C600 1.427 . S
N604 C601 1.383 1_554 S
N605 C597 1.427 . S
N605 C603 1.384 . S
H606 C612 0.930 . S
H607 C616 0.930 . S
H608 C621 0.929 . S
H609 C619 0.929 . S
H610 C614 0.929 . S
H611 C620 0.929 . S
C612 H606 0.930 . S
C612 C613 1.367 . S
C612 C620 1.378 . S
C613 C612 1.367 . S
C613 C621 1.433 . S
C614 H610 0.929 . S
C614 C616 1.378 . S
C614 C618 1.350 . S
C615 C618 1.463 . S
C615 C620 1.350 . S
C615 N623 1.427 . S
C616 H607 0.930 . S
C616 C614 1.378 . S
C616 C617 1.367 . S
C617 C616 1.367 . S
C617 C619 1.433 . S
C618 C614 1.350 . S
C618 C615 1.463 . S
C618 N622 1.427 . S
C619 H609 0.929 . S
C619 C617 1.433 . S
C619 N622 1.384 . S
C620 H611 0.929 . S
C620 C612 1.378 . S
C620 C615 1.350 . S
C621 H608 0.929 . S
C621 C613 1.433 . S
C621 N623 1.384 . S
N622 C618 1.427 . S
N622 C619 1.384 . S
N623 C615 1.427 . S
N623 C621 1.384 . S
H624 C630 0.930 . S
H625 C634 0.930 . S
H626 C639 0.929 . S
H627 C637 0.929 . S
H628 C632 0.929 . S
H629 C638 0.929 . S
C630 H624 0.930 . S
C630 C631 1.367 1_455 S
C630 C638 1.378 . S
C631 C630 1.367 1_655 S
C631 C639 1.433 . S
C632 H628 0.929 . S
C632 C634 1.378 . S
C632 C636 1.383 . S
C633 C636 1.461 . S
C633 C638 1.329 1_655 S
C633 N641 1.447 . S
C634 H625 0.930 . S
C634 C632 1.378 . S
C634 C635 1.367 1_655 S
C635 C634 1.367 1_455 S
C635 C637 1.433 . S
C636 C632 1.383 . S
C636 C633 1.461 . S
C636 N640 1.397 1_655 S
C637 H627 0.929 . S
C637 C635 1.433 . S
C637 N640 1.384 . S
C638 H629 0.929 . S
C638 C630 1.378 . S
C638 C633 1.329 1_455 S
C639 H626 0.929 . S
C639 C631 1.433 . S
C639 N641 1.384 . S
N640 C636 1.397 1_455 S
N640 C637 1.384 . S
N641 C633 1.447 . S
N641 C639 1.384 . S
H642 C648 0.930 . S
H643 C652 0.930 . S
H644 C657 0.929 . S
H645 C655 0.929 . S
H646 C650 0.929 . S
H647 C656 0.929 . S
C648 H642 0.930 . S
C648 C649 1.367 . S
C648 C656 1.378 . S
C649 C648 1.367 . S
C649 C657 1.433 . S
C650 H646 0.929 . S
C650 C652 1.378 . S
C650 C654 1.350 . S
C651 C654 1.463 . S
C651 C656 1.350 . S
C651 N659 1.427 . S
C652 H643 0.930 . S
C652 C650 1.378 . S
C652 C653 1.367 . S
C653 C652 1.367 . S
C653 C655 1.433 . S
C654 C650 1.350 . S
C654 C651 1.463 . S
C654 N658 1.427 . S
C655 H645 0.929 . S
C655 C653 1.433 . S
C655 N658 1.384 . S
C656 H647 0.929 . S
C656 C648 1.378 . S
C656 C651 1.350 . S
C657 H644 0.929 . S
C657 C649 1.433 . S
C657 N659 1.384 . S
N658 C654 1.427 . S
N658 C655 1.384 . S
N659 C651 1.427 . S
N659 C657 1.384 . S
H660 C666 0.930 . S
H661 C670 0.930 . S
H662 C675 0.929 . S
H663 C673 0.929 . S
H664 C668 0.929 . S
H665 C674 0.929 . S
C666 H660 0.930 . S
C666 C667 1.367 . S
C666 C674 1.378 . S
C667 C666 1.367 . S
C667 C675 1.433 . S
C668 H664 0.929 . S
C668 C670 1.378 . S
C668 C672 1.350 . S
C669 C672 1.463 . S
C669 C674 1.350 . S
C669 N677 1.427 . S
C670 H661 0.930 . S
C670 C668 1.378 . S
C670 C671 1.367 . S
C671 C670 1.367 . S
C671 C673 1.433 . S
C672 C668 1.350 . S
C672 C669 1.463 . S
C672 N676 1.427 . S
C673 H663 0.929 . S
C673 C671 1.433 . S
C673 N676 1.384 . S
C674 H665 0.929 . S
C674 C666 1.378 . S
C674 C669 1.350 . S
C675 H662 0.929 . S
C675 C667 1.433 . S
C675 N677 1.384 . S
N676 C672 1.427 . S
N676 C673 1.384 . S
N677 C669 1.427 . S
N677 C675 1.384 . S
H678 C684 0.930 . S
H679 C688 0.930 . S
H680 C693 0.929 . S
H681 C691 0.929 . S
H682 C686 0.929 . S
H683 C692 0.929 . S
C684 H678 0.930 . S
C684 C685 1.367 . S
C684 C692 1.378 . S
C685 C684 1.367 . S
C685 C693 1.433 . S
C686 H682 0.929 . S
C686 C688 1.378 . S
C686 C690 1.350 . S
C687 C690 1.463 . S
C687 C692 1.350 . S
C687 N695 1.427 . S
C688 H679 0.930 . S
C688 C686 1.378 . S
C688 C689 1.367 . S
C689 C688 1.367 . S
C689 C691 1.433 . S
C690 C686 1.350 . S
C690 C687 1.463 . S
C690 N694 1.427 . S
C691 H681 0.929 . S
C691 C689 1.433 . S
C691 N694 1.384 . S
C692 H683 0.929 . S
C692 C684 1.378 . S
C692 C687 1.350 . S
C693 H680 0.929 . S
C693 C685 1.433 . S
C693 N695 1.384 . S
N694 C690 1.427 . S
N694 C691 1.384 . S
N695 C687 1.427 . S
N695 C693 1.384 . S
C271 C82 1.697 . S
C275 C113 1.664 . S
C293 C153 1.306 . S
C289 C95 1.226 . S
C311 C202 1.332 . S
C307 C56 1.359 . S
C329 C233 1.655 . S
C325 C69 1.690 . S
C347 C122 1.664 . S
C343 C30 1.596 . S
C361 C43 1.247 . S
C365 C162 1.304 . S
C379 C4 1.324 . S
C383 C193 1.324 . S
C397 C17 1.659 1_655 S
C401 C242 1.666 . S
C419 C123 0.956 . S
C415 C74 0.915 . S
C437 C163 1.500 . S
C433 C87 1.358 . S
C455 C199 0.778 . S
C451 C100 0.790 . S
C469 C61 1.062 . S
C473 C243 1.148 . S
C487 C22 0.901 . S
C491 C114 0.954 . S
C509 C154 1.499 . S
C505 C35 1.349 . S
C527 C190 0.781 . S
C523 C48 0.787 . S
C541 C9 1.033 . S
C545 C234 1.146 . S
C559 C73 1.626 . S
C563 C119 1.664 . S
C577 C86 1.427 . S
C581 C159 1.427 . S
C599 C203 1.938 1_554 S
C595 C99 1.799 . S
C617 C239 1.421 . S
C613 C60 1.432 . S
C631 C21 1.632 . S
C635 C110 1.663 . S
C653 C150 1.427 . S
C649 C34 1.421 . S
C671 C194 1.937 . S
C667 C47 1.804 . S
C685 C8 1.431 . S
C689 C230 1.423 . S
