# Generated by pormake.
# Topology pts, (4,4)-cn, num edge types: 1
# Building blocks:
#     Node 0, Type 0, BuildingBlock: MIFKUJ_clean_linker_1, # of connection points: 4
#     Node 1, Type 0, BuildingBlock: MIFKUJ_clean_linker_1, # of connection points: 4
#     Node 2, Type 1, BuildingBlock: AZAVOO_clean_sbu_0, # of connection points: 4
#     Node 3, Type 1, BuildingBlock: AZAVOO_clean_sbu_0, # of connection points: 4
#     Edge 4, Type (0, 1), BuildingBlock: KIFKEQ_clean_linker_1, # of connection points: 2
#     Edge 5, Type (0, 1), BuildingBlock: KIFKEQ_clean_linker_1, # of connection points: 2
#     Edge 6, Type (0, 1), BuildingBlock: KIFKEQ_clean_linker_1, # of connection points: 2
#     Edge 7, Type (0, 1), BuildingBlock: KIFKEQ_clean_linker_1, # of connection points: 2
#     Edge 8, Type (0, 1), BuildingBlock: KIFKEQ_clean_linker_1, # of connection points: 2
#     Edge 9, Type (0, 1), BuildingBlock: KIFKEQ_clean_linker_1, # of connection points: 2
#     Edge 10, Type (0, 1), BuildingBlock: KIFKEQ_clean_linker_1, # of connection points: 2
#     Edge 11, Type (0, 1), BuildingBlock: KIFKEQ_clean_linker_1, # of connection points: 2
# Relax obj value: 0.003
# Max RMSD: 0.043
# Mean RMSD: 0.032
data_MOF--net-pts--node1-AZAVOO_clean_sbu_0--node2-MIFKUJ_clean_linker_1--edge1-KIFKEQ_clean_linker_1
_symmetry_space_group_name_H-M    P1
_symmetry_Int_Tables_number       1
_symmetry_cell_setting            triclinic
loop_
_symmetry_equiv_pos_as_xyz
'x, y, z'
_cell_length_a     30.134492
_cell_length_b     31.288852
_cell_length_c     41.393359
_cell_angle_alpha  90.283851
_cell_angle_beta   96.197768
_cell_angle_gamma 89.79611
loop_
_atom_site_label
_atom_site_type_symbol
_atom_site_fract_x
_atom_site_fract_y
_atom_site_fract_z
_atom_type_partial_charge
H0 H 0.59579 0.96701 0.07817 0.0
H1 H 0.66667 0.96004 0.11194 0.0
H2 H 0.71639 0.07131 0.06596 0.0
H3 H 0.64407 0.07974 0.03377 0.0
H4 H 0.53395 0.02488 0.07434 0.0
H5 H 0.63084 0.96749 0.99926 0.0
H6 H 0.698 0.96616 0.97101 0.0
H7 H 0.66208 0.0893 0.92891 0.0
H8 H 0.59474 0.0902 0.95709 0.0
H9 H 0.45182 0.08854 0.95046 0.0
H10 H 0.38156 0.08372 0.91508 0.0
H11 H 0.35354 0.96308 0.95901 0.0
H12 H 0.42348 0.9685 0.99457 0.0
H13 H 0.52329 0.03462 0.9542 0.0
H14 H 0.41924 0.08517 0.02666 0.0
H15 H 0.3536 0.08291 0.05674 0.0
H16 H 0.40509 0.9682 0.10528 0.0
H17 H 0.4694 0.96975 0.07436 0.0
C18 C 0.61458 0.02364 0.05313 0.0
C19 C 0.62181 -0.00985 0.07553 0.0
C20 C 0.66273 0.98586 0.09454 0.0
C21 C 0.6977 0.01478 0.09148 0.0
C22 C 0.69025 0.04858 0.06919 0.0
C23 C 0.64901 0.05317 0.05045 0.0
C24 C 0.57097 0.02724 0.03269 0.0
C25 C 0.53161 0.02661 0.04804 0.0
C26 C 0.56788 0.03057 0.99841 0.0
C27 C 0.60802 0.02916 0.98054 0.0
C28 C 0.63756 -0.00572 0.98404 0.0
C29 C 0.67605 -0.00634 0.96799 0.0
C30 C 0.68562 0.02777 0.94785 0.0
C31 C 0.65555 0.06235 0.94399 0.0
C32 C 0.61708 0.06296 0.96011 0.0
C33 C 0.44277 0.02908 0.97532 0.0
C34 C 0.4304 0.06119 0.95254 0.0
C35 C 0.39028 0.05827 0.93227 0.0
C36 C 0.36186 0.02295 0.93413 0.0
C37 C 0.37419 -0.00895 0.95724 0.0
C38 C 0.41427 -0.00596 0.97755 0.0
C39 C 0.48626 0.03129 0.99586 0.0
C40 C 0.52561 0.0332 0.98052 0.0
C41 C 0.48931 0.02853 0.03014 0.0
C42 C 0.44912 0.02741 0.04803 0.0
C43 C 0.41603 0.05924 0.04348 0.0
C44 C 0.37872 0.05813 0.06091 0.0
C45 C 0.37389 0.02524 0.08331 0.0
C46 C 0.40722 -0.00645 0.08781 0.0
C47 C 0.44433 -0.00537 0.07038 0.0
H48 H 0.1027 0.42549 0.47741 0.0
H49 H 0.10234 0.35904 0.4461 0.0
H50 H 0.95969 0.34895 0.44979 0.0
H51 H 0.96131 0.41371 0.48286 0.0
H52 H 0.04542 0.5008 0.45881 0.0
H53 H 0.08337 0.40307 0.54464 0.0
H54 H 0.08017 0.34177 0.5805 0.0
H55 H 0.95067 0.3834 0.6043 0.0
H56 H 0.95352 0.4442 0.56752 0.0
H57 H 0.95265 0.57951 0.55509 0.0
H58 H 0.94946 0.64495 0.58764 0.0
H59 H 0.08991 0.66562 0.58167 0.0
H60 H 0.09273 0.60054 0.5484 0.0
H61 H 0.01171 0.5085 0.57335 0.0
H62 H 0.97631 0.60894 0.48862 0.0
H63 H 0.98088 0.66984 0.45268 0.0
H64 H 0.1067 0.62212 0.42578 0.0
H65 H 0.10315 0.56261 0.46329 0.0
C66 C 0.03215 0.424 0.48269 0.0
C67 C 0.07154 0.40852 0.47165 0.0
C68 C 0.07109 0.37078 0.45342 0.0
C69 C 0.03095 0.34836 0.44522 0.0
C70 C 0.99145 0.36456 0.45613 0.0
C71 C 0.99217 0.40175 0.47494 0.0
C72 C 0.03207 0.46479 0.50074 0.0
C73 C 0.03891 0.50261 0.48406 0.0
C74 C 0.02214 0.4668 0.53328 0.0
C75 C 0.01844 0.42792 0.55307 0.0
C76 C 0.05388 0.39857 0.55704 0.0
C77 C 0.0523 0.3639 0.57795 0.0
C78 C 0.01534 0.358 0.59547 0.0
C79 C 0.97948 0.38698 0.59101 0.0
C80 C 0.98113 0.42176 0.5701 0.0
C81 C 0.02283 0.58554 0.54924 0.0
C82 C 0.9826 0.59841 0.56053 0.0
C83 C 0.98082 0.63566 0.57903 0.0
C84 C 0.01949 0.66002 0.58715 0.0
C85 C 0.05977 0.64712 0.57582 0.0
C86 C 0.06133 0.61028 0.55672 0.0
C87 C 0.02507 0.54471 0.53143 0.0
C88 C 0.01846 0.50682 0.54815 0.0
C89 C 0.03536 0.5427 0.49893 0.0
C90 C 0.03973 0.5815 0.47909 0.0
C91 C 0.00549 0.61219 0.4757 0.0
C92 C 0.00775 0.64662 0.45462 0.0
C93 C 0.04399 0.65074 0.43609 0.0
C94 C 0.07856 0.62026 0.43991 0.0
C95 C 0.07645 0.58605 0.46122 0.0
Mg96 Mg 0.07382 -0.00943 0.28433 0.0
O97 O 0.00616 -0.00932 0.25229 0.0
O98 O 0.95466 0.97529 0.2856 0.0
Mg99 Mg 0.98748 0.96529 0.33737 0.0
C100 C 0.96562 0.98419 0.25745 0.0
C101 C 0.14938 0.00153 0.24546 0.0
O102 O 0.16117 0.97495 0.26937 0.0
O103 O 0.05741 0.05593 0.30561 0.0
O104 O 0.00995 0.03504 0.34044 0.0
O105 O 0.08282 0.91989 0.27739 0.0
O106 O 0.04878 0.94843 0.31678 0.0
C107 C 0.03319 0.06386 0.32848 0.0
C108 C 0.06127 0.91465 0.30243 0.0
O109 O 0.11082 0.01856 0.24395 0.0
Mg110 Mg 0.98123 -0.00251 0.74726 0.0
O111 O 0.0513 -0.0057 0.77614 0.0
O112 O 0.09987 0.98407 0.73961 0.0
Mg113 Mg 0.06291 0.98184 0.68856 0.0
C114 C 0.0912 0.98907 0.76892 0.0
C115 C 0.94407 -0.00511 0.8146 0.0
O116 O 0.96237 0.95677 0.81391 0.0
O117 O 0.99538 0.0655 0.73108 0.0
O118 O 0.04347 0.05207 0.69463 0.0
O119 O 0.97476 0.92581 0.74785 0.0
O120 O 0.00287 0.96217 0.70944 0.0
C121 C 0.0204 0.07808 0.70996 0.0
C122 C 0.99306 0.92583 0.72097 0.0
O123 O 0.94887 0.02075 0.79164 0.0
H124 H 0.3335 0.09248 0.11182 0.0
H125 H 0.32617 0.95548 0.09866 0.0
H126 H 0.27513 0.08897 0.14853 0.0
H127 H 0.26878 0.95209 0.13572 0.0
H128 H 0.22599 0.95845 0.23845 0.0
H129 H 0.27542 0.96615 0.19638 0.0
H130 H 0.19202 0.06716 0.15241 0.0
H131 H 0.14156 0.05931 0.19492 0.0
C132 C 0.31896 0.06175 0.11627 0.0
C133 C 0.33506 0.02415 0.10269 0.0
C134 C 0.28557 0.0598 0.13731 0.0
C135 C 0.26791 0.02021 0.14528 0.0
C136 C 0.2824 0.98297 0.13045 0.0
C137 C 0.31543 0.98492 0.10934 0.0
C138 C 0.21796 0.98243 0.21993 0.0
C139 C 0.17968 0.00822 0.22003 0.0
C140 C 0.24623 0.98659 0.19566 0.0
C141 C 0.23731 0.0169 0.17093 0.0
C142 C 0.1996 0.04349 0.17122 0.0
C143 C 0.17076 0.03895 0.19546 0.0
H144 H 0.08331 0.33009 0.63926 0.0
H145 H 0.94581 0.30446 0.60384 0.0
H146 H 0.08468 0.26692 0.6736 0.0
H147 H 0.9472 0.24117 0.63826 0.0
H148 H 0.95732 0.14001 0.7172 0.0
H149 H 0.95534 0.21258 0.69498 0.0
H150 H 0.08335 0.19071 0.65975 0.0
H151 H 0.08553 0.11905 0.68196 0.0
C152 C 0.05334 0.31099 0.63887 0.0
C153 C 0.01467 0.32183 0.61846 0.0
C154 C 0.05408 0.27495 0.65864 0.0
C155 C 0.01616 0.24891 0.65844 0.0
C156 C 0.9768 0.26087 0.63921 0.0
C157 C 0.97605 0.29701 0.61941 0.0
C158 C 0.98537 0.15113 0.70527 0.0
C159 C 0.0214 0.12374 0.70108 0.0
C160 C 0.98408 0.19249 0.69237 0.0
C161 C 0.01909 0.20725 0.67551 0.0
C162 C 0.05606 0.18051 0.67287 0.0
C163 C 0.05714 0.13926 0.68541 0.0
H164 H 0.74158 0.9405 0.11036 0.0
H165 H 0.75301 0.07793 0.11914 0.0
H166 H 0.80894 0.93228 0.14806 0.0
H167 H 0.82153 0.06933 0.15581 0.0
H168 H 0.96503 0.02982 0.2009 0.0
H169 H 0.90303 0.03703 0.15759 0.0
H170 H 0.8236 0.95183 0.2093 0.0
H171 H 0.88475 0.94511 0.25257 0.0
C172 C 0.75838 0.96899 0.1202 0.0
C173 C 0.74127 0.00991 0.11198 0.0
C174 C 0.79718 0.9642 0.14161 0.0
C175 C 0.82026 0.00016 0.1549 0.0
C176 C 0.80453 0.04108 0.14566 0.0
C177 C 0.7653 0.04593 0.12457 0.0
C178 C 0.93441 0.01244 0.20283 0.0
C179 C 0.92968 0.98702 0.23017 0.0
C180 C 0.89897 0.01673 0.17818 0.0
C181 C 0.85866 -0.0051 0.18013 0.0
C182 C 0.85444 0.96872 0.20706 0.0
C183 C 0.88938 0.9651 0.23191 0.0
H184 H 0.07139 0.67879 0.64349 0.0
H185 H 0.96322 0.72775 0.57692 0.0
H186 H 0.06715 0.74258 0.67791 0.0
H187 H 0.95957 0.79168 0.6109 0.0
H188 H 0.01082 0.91872 0.65833 0.0
H189 H 0.01884 0.85363 0.62697 0.0
H190 H 0.00246 0.7777 0.71157 0.0
H191 H 0.99355 0.84324 0.74323 0.0
C192 C 0.04695 0.70334 0.63621 0.0
C193 C 0.01768 0.69864 0.60762 0.0
C194 C 0.04435 0.73951 0.65594 0.0
C195 C 0.01309 0.77182 0.64693 0.0
C196 C 0.98406 0.76719 0.61822 0.0
C197 C 0.98605 0.73071 0.59889 0.0
C198 C 0.00936 0.88823 0.67045 0.0
C199 C 1.0015 0.88605 0.70326 0.0
C200 C 0.01371 0.85104 0.6524 0.0
C201 C 0.01103 0.81088 0.66689 0.0
C202 C 0.00474 0.80846 0.69997 0.0
C203 C 0.99954 0.84583 0.71798 0.0
H204 H 0.27958 -0.00664 0.94657 0.0
H205 H 0.35069 0.04207 0.86939 0.0
H206 H 0.2133 0.98287 0.90785 0.0
H207 H 0.2842 0.03342 0.83123 0.0
H208 H 0.17824 0.96869 0.7637 0.0
H209 H 0.24186 0.97597 0.80454 0.0
H210 H 0.15496 0.02142 0.87383 0.0
H211 H 0.09063 0.01321 0.83293 0.0
C212 C 0.28107 0.00194 0.9214 0.0
C213 C 0.32057 0.01847 0.91112 0.0
C214 C 0.24292 -0.00366 0.89929 0.0
C215 C 0.24347 0.00702 0.86637 0.0
C216 C 0.28276 0.02418 0.85627 0.0
C217 C 0.32079 0.02973 0.8783 0.0
C218 C 0.17247 0.98007 0.78767 0.0
C219 C 0.12923 -0.0093 0.79489 0.0
C220 C 0.20912 0.9845 0.81107 0.0
C221 C 0.20369 -0.0001 0.84235 0.0
C222 C 0.16031 0.0093 0.85 0.0
C223 C 0.12344 0.00471 0.82653 0.0
H224 H 0.97845 0.27783 0.45036 0.0
H225 H 0.08179 0.32691 0.39594 0.0
H226 H 0.97698 0.21228 0.41927 0.0
H227 H 0.08334 0.25921 0.36691 0.0
H228 H 0.04906 0.14191 0.30138 0.0
H229 H 0.04694 0.21224 0.32759 0.0
H230 H 0.01959 0.1512 0.41686 0.0
H231 H 0.01926 0.08228 0.39037 0.0
C232 C 1.00088 0.27484 0.43173 0.0
C233 C 0.0303 0.30799 0.42586 0.0
C234 C 1.00063 0.23667 0.41421 0.0
C235 C 0.0306 0.22992 0.39085 0.0
C236 C 0.05961 0.26323 0.38455 0.0
C237 C 0.05925 0.30189 0.40168 0.0
C238 C 0.04242 0.14385 0.32655 0.0
C239 C 0.03366 0.10672 0.34366 0.0
C240 C 0.04142 0.18404 0.34166 0.0
C241 C 0.03242 0.18763 0.3743 0.0
C242 C 0.02509 0.15011 0.39144 0.0
C243 C 0.02521 0.11037 0.37626 0.0
H244 H 0.76985 0.00155 0.9713 0.0
H245 H 0.69394 0.05204 0.88534 0.0
H246 H 0.83613 -0.00224 0.94231 0.0
H247 H 0.76007 0.04832 0.85644 0.0
H248 H 0.89328 0.06712 0.81896 0.0
H249 H 0.83382 0.07875 0.85366 0.0
H250 H 0.86242 0.9559 0.89848 0.0
H251 H 0.92231 0.94461 0.86431 0.0
C252 C 0.76726 0.01172 0.94619 0.0
C253 C 0.7265 0.02695 0.93062 0.0
C254 C 0.80528 0.00964 0.9296 0.0
C255 C 0.80347 0.02277 0.89705 0.0
C256 C 0.76289 0.03865 0.88166 0.0
C257 C 0.7249 0.04072 0.89823 0.0
C258 C 0.88737 0.04289 0.83658 0.0
C259 C 0.91235 0.00477 0.83865 0.0
C260 C 0.85304 0.04941 0.8563 0.0
C261 C 0.84298 0.01804 0.87859 0.0
C262 C 0.86943 0.98087 0.88175 0.0
C263 C 0.9037 0.97432 0.86202 0.0
H264 H 0.11647 0.69745 0.42244 0.0
H265 H 0.97441 0.68419 0.39591 0.0
H266 H 0.11795 0.7568 0.38463 0.0
H267 H 0.97592 0.74433 0.35879 0.0
H268 H 0.99578 0.89019 0.33917 0.0
H269 H 0.99052 0.82304 0.3677 0.0
H270 H 0.10467 0.77457 0.32422 0.0
H271 H 0.11007 0.84233 0.29555 0.0
C272 C 0.08566 0.70679 0.4083 0.0
C273 C 0.04526 0.68621 0.41245 0.0
C274 C 0.08656 0.74076 0.38661 0.0
C275 C 0.04704 0.7551 0.36881 0.0
C276 C 0.0068 0.73413 0.37246 0.0
C277 C 0.00594 0.69992 0.39391 0.0
C278 C 0.01949 0.86521 0.33538 0.0
C279 C 0.05366 0.87178 0.31543 0.0
C280 C 0.01624 0.82654 0.35154 0.0
C281 C 0.04741 0.79376 0.34837 0.0
C282 C 0.08047 0.79954 0.32731 0.0
C283 C 0.08332 0.83813 0.31074 0.0
loop_
_geom_bond_atom_site_label_1
_geom_bond_atom_site_label_2
_geom_bond_distance
_geom_bond_site_symmetry_2
_ccdc_geom_bond_type
H0 C19 0.949 . S
H1 C20 0.950 . S
H2 C22 0.950 . S
H3 C23 0.950 . S
H4 C25 0.950 1_565 S
H5 C28 0.950 . S
H6 C29 0.950 . S
H7 C31 0.951 . S
H8 C32 0.949 . S
H9 C34 0.949 . S
H10 C35 0.950 . S
H11 C37 0.950 . S
H12 C38 0.950 . S
H13 C40 0.950 . S
H14 C43 0.950 . S
H15 C44 0.950 . S
H16 C46 0.951 . S
H17 C47 0.949 . S
C18 C19 1.376 1_545 S
C18 C23 1.386 . S
C18 C24 1.483 . S
C19 H0 0.949 . S
C19 C18 1.376 1_565 S
C19 C20 1.397 . S
C20 H1 0.950 . S
C20 C19 1.397 . S
C20 C21 1.391 1_565 S
C21 C20 1.391 1_545 S
C21 C22 1.405 . S
C22 H2 0.950 . S
C22 C21 1.405 . S
C22 C23 1.367 . S
C23 H3 0.950 . S
C23 C18 1.386 . S
C23 C22 1.367 . S
C24 C18 1.483 . S
C24 C25 1.382 . S
C24 C26 1.403 1_554 S
C25 H4 0.950 1_545 S
C25 C24 1.382 . S
C25 C41 1.411 . S
C26 C24 1.403 1_556 S
C26 C27 1.489 . S
C26 C40 1.411 . S
C27 C26 1.489 . S
C27 C28 1.383 1_545 S
C27 C32 1.382 . S
C28 H5 0.950 . S
C28 C27 1.383 1_565 S
C28 C29 1.395 . S
C29 H6 0.950 . S
C29 C28 1.395 . S
C29 C30 1.288 1_565 S
C30 C29 1.288 1_545 S
C30 C31 1.392 . S
C31 H7 0.951 . S
C31 C30 1.392 . S
C31 C32 1.392 . S
C32 H8 0.949 . S
C32 C27 1.382 . S
C32 C31 1.392 . S
C33 C34 1.376 . S
C33 C38 1.386 1_545 S
C33 C39 1.483 . S
C34 H9 0.949 . S
C34 C33 1.376 . S
C34 C35 1.397 . S
C35 H10 0.950 . S
C35 C34 1.397 . S
C35 C36 1.391 . S
C36 C35 1.391 . S
C36 C37 1.405 1_545 S
C37 H11 0.950 . S
C37 C36 1.405 1_565 S
C37 C38 1.367 . S
C38 H12 0.950 . S
C38 C33 1.386 1_565 S
C38 C37 1.367 . S
C39 C33 1.483 . S
C39 C40 1.382 . S
C39 C41 1.403 1_556 S
C40 H13 0.950 . S
C40 C26 1.411 . S
C40 C39 1.382 . S
C41 C25 1.411 . S
C41 C39 1.403 1_554 S
C41 C42 1.489 . S
C42 C41 1.489 . S
C42 C43 1.383 . S
C42 C47 1.382 1_545 S
C43 H14 0.950 . S
C43 C42 1.383 . S
C43 C44 1.395 . S
C44 H15 0.950 . S
C44 C43 1.395 . S
C44 C45 1.288 . S
C45 C44 1.288 . S
C45 C46 1.392 1_545 S
C46 H16 0.951 . S
C46 C45 1.392 1_565 S
C46 C47 1.392 . S
C47 H17 0.949 . S
C47 C42 1.382 1_565 S
C47 C46 1.392 . S
H48 C67 0.949 . S
H49 C68 0.950 . S
H50 C70 0.950 . S
H51 C71 0.950 . S
H52 C73 0.950 . S
H53 C76 0.950 . S
H54 C77 0.950 . S
H55 C79 0.951 . S
H56 C80 0.949 . S
H57 C82 0.949 . S
H58 C83 0.950 . S
H59 C85 0.950 . S
H60 C86 0.950 . S
H61 C88 0.950 . S
H62 C91 0.950 1_655 S
H63 C92 0.950 1_655 S
H64 C94 0.951 . S
H65 C95 0.949 . S
C66 C67 1.376 . S
C66 C71 1.386 1_455 S
C66 C72 1.483 . S
C67 H48 0.949 . S
C67 C66 1.376 . S
C67 C68 1.397 . S
C68 H49 0.950 . S
C68 C67 1.397 . S
C68 C69 1.391 . S
C69 C68 1.391 . S
C69 C70 1.405 1_455 S
C70 H50 0.950 . S
C70 C69 1.405 1_655 S
C70 C71 1.367 . S
C71 H51 0.950 . S
C71 C66 1.386 1_655 S
C71 C70 1.367 . S
C72 C66 1.483 . S
C72 C73 1.382 . S
C72 C74 1.403 . S
C73 H52 0.950 . S
C73 C72 1.382 . S
C73 C89 1.411 . S
C74 C72 1.403 . S
C74 C75 1.489 . S
C74 C88 1.411 . S
C75 C74 1.489 . S
C75 C76 1.383 . S
C75 C80 1.382 1_455 S
C76 H53 0.950 . S
C76 C75 1.383 . S
C76 C77 1.395 . S
C77 H54 0.950 . S
C77 C76 1.395 . S
C77 C78 1.288 . S
C78 C77 1.288 . S
C78 C79 1.392 1_455 S
C79 H55 0.951 . S
C79 C78 1.392 1_655 S
C79 C80 1.392 . S
C80 H56 0.949 . S
C80 C75 1.382 1_655 S
C80 C79 1.392 . S
C81 C82 1.376 1_455 S
C81 C86 1.386 . S
C81 C87 1.483 . S
C82 H57 0.949 . S
C82 C81 1.376 1_655 S
C82 C83 1.397 . S
C83 H58 0.950 . S
C83 C82 1.397 . S
C83 C84 1.391 1_655 S
C84 C83 1.391 1_455 S
C84 C85 1.405 . S
C85 H59 0.950 . S
C85 C84 1.405 . S
C85 C86 1.367 . S
C86 H60 0.950 . S
C86 C81 1.386 . S
C86 C85 1.367 . S
C87 C81 1.483 . S
C87 C88 1.382 . S
C87 C89 1.403 . S
C88 H61 0.950 . S
C88 C74 1.411 . S
C88 C87 1.382 . S
C89 C73 1.411 . S
C89 C87 1.403 . S
C89 C90 1.489 . S
C90 C89 1.489 . S
C90 C91 1.383 . S
C90 C95 1.382 . S
C91 H62 0.950 1_455 S
C91 C90 1.383 . S
C91 C92 1.395 . S
C92 H63 0.950 1_455 S
C92 C91 1.395 . S
C92 C93 1.288 . S
C93 C92 1.288 . S
C93 C94 1.392 . S
C94 H64 0.951 . S
C94 C93 1.392 . S
C94 C95 1.392 . S
C95 H65 0.949 . S
C95 C90 1.382 . S
C95 C94 1.392 . S
Mg96 O97 2.028 . S
Mg96 O103 1.986 . S
Mg96 O105 2.114 1_545 S
Mg96 O106 2.251 1_545 S
Mg96 O109 2.010 . S
O97 Mg96 2.028 . S
O97 C100 1.250 1_455 S
O98 Mg99 2.028 . S
O98 C100 1.248 . S
Mg99 O98 2.028 . S
Mg99 O104 2.032 1_655 S
Mg99 O106 2.079 1_645 S
C100 O97 1.250 1_655 S
C100 O98 1.248 . S
C101 O102 1.264 . S
C101 O109 1.249 . S
O102 C101 1.264 . S
O103 Mg96 1.986 . S
O103 C107 1.246 . S
O104 Mg99 2.032 1_455 S
O104 C107 1.259 . S
O105 Mg96 2.114 1_565 S
O105 C108 1.252 . S
O106 Mg96 2.251 1_565 S
O106 Mg99 2.079 1_465 S
O106 C108 1.273 . S
C107 O103 1.246 . S
C107 O104 1.259 . S
C108 O105 1.252 . S
C108 O106 1.273 . S
O109 Mg96 2.010 . S
O109 C101 1.249 . S
Mg110 O111 2.028 1_655 S
Mg110 O117 1.986 . S
Mg110 O119 2.114 1_545 S
Mg110 O120 2.251 1_645 S
Mg110 O123 2.010 . S
O111 Mg110 2.028 1_455 S
O111 C114 1.250 . S
O112 Mg113 2.028 . S
O112 C114 1.248 . S
Mg113 O112 2.028 . S
Mg113 O118 2.032 . S
Mg113 O120 2.079 1_545 S
C114 O111 1.250 . S
C114 O112 1.248 . S
C115 O116 1.264 . S
C115 O123 1.249 . S
O116 C115 1.264 . S
O117 Mg110 1.986 . S
O117 C121 1.246 1_655 S
O118 Mg113 2.032 . S
O118 C121 1.259 . S
O119 Mg110 2.114 1_565 S
O119 C122 1.252 1_655 S
O120 Mg110 2.251 1_465 S
O120 Mg113 2.079 1_565 S
O120 C122 1.273 . S
C121 O117 1.246 1_455 S
C121 O118 1.259 . S
C122 O119 1.252 1_455 S
C122 O120 1.273 . S
O123 Mg110 2.010 . S
O123 C115 1.249 . S
H124 C132 0.950 . S
H125 C137 0.950 . S
H126 C134 0.950 . S
H127 C136 0.950 . S
H128 C138 0.950 . S
H129 C140 0.950 . S
H130 C142 0.950 . S
H131 C143 0.950 . S
C132 H124 0.950 . S
C132 C133 1.386 . S
C132 C134 1.391 . S
C133 C132 1.386 . S
C133 C137 1.393 1_545 S
C134 H126 0.950 . S
C134 C132 1.391 . S
C134 C135 1.400 . S
C135 C134 1.400 . S
C135 C136 1.398 1_545 S
C135 C141 1.491 . S
C136 H127 0.950 . S
C136 C135 1.398 1_565 S
C136 C137 1.391 . S
C137 H125 0.950 . S
C137 C133 1.393 1_565 S
C137 C136 1.391 . S
C138 H128 0.950 . S
C138 C139 1.386 1_565 S
C138 C140 1.391 . S
C139 C138 1.386 1_545 S
C139 C143 1.393 . S
C140 H129 0.950 . S
C140 C138 1.391 . S
C140 C141 1.400 1_565 S
C141 C135 1.491 . S
C141 C140 1.400 1_545 S
C141 C142 1.398 . S
C142 H130 0.950 . S
C142 C141 1.398 . S
C142 C143 1.391 . S
C143 H131 0.950 . S
C143 C139 1.393 . S
C143 C142 1.391 . S
H144 C152 0.950 . S
H145 C157 0.950 . S
H146 C154 0.950 . S
H147 C156 0.950 . S
H148 C158 0.950 . S
H149 C160 0.950 . S
H150 C162 0.950 . S
H151 C163 0.950 . S
C152 H144 0.950 . S
C152 C153 1.386 . S
C152 C154 1.391 . S
C153 C152 1.386 . S
C153 C157 1.393 1_455 S
C154 H146 0.950 . S
C154 C152 1.391 . S
C154 C155 1.400 . S
C155 C154 1.400 . S
C155 C156 1.398 1_455 S
C155 C161 1.491 . S
C156 H147 0.950 . S
C156 C155 1.398 1_655 S
C156 C157 1.391 . S
C157 H145 0.950 . S
C157 C153 1.393 1_655 S
C157 C156 1.391 . S
C158 H148 0.950 . S
C158 C159 1.386 1_655 S
C158 C160 1.391 . S
C159 C158 1.386 1_455 S
C159 C163 1.393 . S
C160 H149 0.950 . S
C160 C158 1.391 . S
C160 C161 1.400 1_655 S
C161 C155 1.491 . S
C161 C160 1.400 1_455 S
C161 C162 1.398 . S
C162 H150 0.950 . S
C162 C161 1.398 . S
C162 C163 1.391 . S
C163 H151 0.950 . S
C163 C159 1.393 . S
C163 C162 1.391 . S
H164 C172 0.950 . S
H165 C177 0.950 . S
H166 C174 0.950 . S
H167 C176 0.950 . S
H168 C178 0.950 . S
H169 C180 0.950 . S
H170 C182 0.950 . S
H171 C183 0.950 . S
C172 H164 0.950 . S
C172 C173 1.386 1_565 S
C172 C174 1.391 . S
C173 C172 1.386 1_545 S
C173 C177 1.393 . S
C174 H166 0.950 . S
C174 C172 1.391 . S
C174 C175 1.400 1_565 S
C175 C174 1.400 1_545 S
C175 C176 1.398 . S
C175 C181 1.491 . S
C176 H167 0.950 . S
C176 C175 1.398 . S
C176 C177 1.391 . S
C177 H165 0.950 . S
C177 C173 1.393 . S
C177 C176 1.391 . S
C178 H168 0.950 . S
C178 C179 1.386 . S
C178 C180 1.391 . S
C179 C178 1.386 . S
C179 C183 1.393 1_545 S
C180 H169 0.950 . S
C180 C178 1.391 . S
C180 C181 1.400 . S
C181 C175 1.491 . S
C181 C180 1.400 . S
C181 C182 1.398 1_545 S
C182 H170 0.950 . S
C182 C181 1.398 1_565 S
C182 C183 1.391 . S
C183 H171 0.950 . S
C183 C179 1.393 1_565 S
C183 C182 1.391 . S
H184 C192 0.950 . S
H185 C197 0.950 1_655 S
H186 C194 0.950 . S
H187 C196 0.950 1_655 S
H188 C198 0.950 . S
H189 C200 0.950 . S
H190 C202 0.950 . S
H191 C203 0.950 . S
C192 H184 0.950 . S
C192 C193 1.386 . S
C192 C194 1.391 . S
C193 C192 1.386 . S
C193 C197 1.393 . S
C194 H186 0.950 . S
C194 C192 1.391 . S
C194 C195 1.400 . S
C195 C194 1.400 . S
C195 C196 1.398 . S
C195 C201 1.491 . S
C196 H187 0.950 1_455 S
C196 C195 1.398 . S
C196 C197 1.391 . S
C197 H185 0.950 1_455 S
C197 C193 1.393 . S
C197 C196 1.391 . S
C198 H188 0.950 . S
C198 C199 1.386 1_655 S
C198 C200 1.391 . S
C199 C198 1.386 1_455 S
C199 C203 1.393 . S
C200 H189 0.950 . S
C200 C198 1.391 . S
C200 C201 1.400 1_655 S
C201 C195 1.491 . S
C201 C200 1.400 1_455 S
C201 C202 1.398 . S
C202 H190 0.950 . S
C202 C201 1.398 . S
C202 C203 1.391 . S
C203 H191 0.950 . S
C203 C199 1.393 . S
C203 C202 1.391 . S
H204 C212 0.950 . S
H205 C217 0.950 . S
H206 C214 0.950 . S
H207 C216 0.950 . S
H208 C218 0.950 . S
H209 C220 0.950 . S
H210 C222 0.950 . S
H211 C223 0.950 . S
C212 H204 0.950 . S
C212 C213 1.386 . S
C212 C214 1.391 . S
C213 C212 1.386 . S
C213 C217 1.393 1_545 S
C214 H206 0.950 . S
C214 C212 1.391 . S
C214 C215 1.400 . S
C215 C214 1.400 . S
C215 C216 1.398 1_545 S
C215 C221 1.491 . S
C216 H207 0.950 . S
C216 C215 1.398 1_565 S
C216 C217 1.391 . S
C217 H205 0.950 . S
C217 C213 1.393 1_565 S
C217 C216 1.391 . S
C218 H208 0.950 . S
C218 C219 1.386 1_565 S
C218 C220 1.391 . S
C219 C218 1.386 1_545 S
C219 C223 1.393 . S
C220 H209 0.950 . S
C220 C218 1.391 . S
C220 C221 1.400 1_565 S
C221 C215 1.491 . S
C221 C220 1.400 1_545 S
C221 C222 1.398 . S
C222 H210 0.950 . S
C222 C221 1.398 . S
C222 C223 1.391 . S
C223 H211 0.950 . S
C223 C219 1.393 . S
C223 C222 1.391 . S
H224 C232 0.950 1_655 S
H225 C237 0.950 . S
H226 C234 0.950 . S
H227 C236 0.950 . S
H228 C238 0.950 . S
H229 C240 0.950 . S
H230 C242 0.950 . S
H231 C243 0.950 . S
C232 H224 0.950 1_455 S
C232 C233 1.386 . S
C232 C234 1.391 . S
C233 C232 1.386 . S
C233 C237 1.393 . S
C234 H226 0.950 . S
C234 C232 1.391 . S
C234 C235 1.400 . S
C235 C234 1.400 . S
C235 C236 1.398 . S
C235 C241 1.491 . S
C236 H227 0.950 . S
C236 C235 1.398 . S
C236 C237 1.391 . S
C237 H225 0.950 . S
C237 C233 1.393 . S
C237 C236 1.391 . S
C238 H228 0.950 . S
C238 C239 1.386 . S
C238 C240 1.391 . S
C239 C238 1.386 . S
C239 C243 1.393 . S
C240 H229 0.950 . S
C240 C238 1.391 . S
C240 C241 1.400 . S
C241 C235 1.491 . S
C241 C240 1.400 . S
C241 C242 1.398 . S
C242 H230 0.950 . S
C242 C241 1.398 . S
C242 C243 1.391 . S
C243 H231 0.950 . S
C243 C239 1.393 . S
C243 C242 1.391 . S
H244 C252 0.950 . S
H245 C257 0.950 . S
H246 C254 0.950 . S
H247 C256 0.950 . S
H248 C258 0.950 . S
H249 C260 0.950 . S
H250 C262 0.950 . S
H251 C263 0.950 . S
C252 H244 0.950 . S
C252 C253 1.386 1_565 S
C252 C254 1.391 . S
C253 C252 1.386 1_545 S
C253 C257 1.393 . S
C254 H246 0.950 . S
C254 C252 1.391 . S
C254 C255 1.400 1_565 S
C255 C254 1.400 1_545 S
C255 C256 1.398 . S
C255 C261 1.491 . S
C256 H247 0.950 . S
C256 C255 1.398 . S
C256 C257 1.391 . S
C257 H245 0.950 . S
C257 C253 1.393 . S
C257 C256 1.391 . S
C258 H248 0.950 . S
C258 C259 1.386 . S
C258 C260 1.391 . S
C259 C258 1.386 . S
C259 C263 1.393 1_545 S
C260 H249 0.950 . S
C260 C258 1.391 . S
C260 C261 1.400 . S
C261 C255 1.491 . S
C261 C260 1.400 . S
C261 C262 1.398 1_545 S
C262 H250 0.950 . S
C262 C261 1.398 1_565 S
C262 C263 1.391 . S
C263 H251 0.950 . S
C263 C259 1.393 1_565 S
C263 C262 1.391 . S
H264 C272 0.950 . S
H265 C277 0.950 . S
H266 C274 0.950 . S
H267 C276 0.950 . S
H268 C278 0.950 1_655 S
H269 C280 0.950 1_655 S
H270 C282 0.950 . S
H271 C283 0.950 . S
C272 H264 0.950 . S
C272 C273 1.386 . S
C272 C274 1.391 . S
C273 C272 1.386 . S
C273 C277 1.393 1_455 S
C274 H266 0.950 . S
C274 C272 1.391 . S
C274 C275 1.400 . S
C275 C274 1.400 . S
C275 C276 1.398 1_455 S
C275 C281 1.491 . S
C276 H267 0.950 . S
C276 C275 1.398 1_655 S
C276 C277 1.391 . S
C277 H265 0.950 . S
C277 C273 1.393 1_655 S
C277 C276 1.391 . S
C278 H268 0.950 1_455 S
C278 C279 1.386 . S
C278 C280 1.391 . S
C279 C278 1.386 . S
C279 C283 1.393 . S
C280 H269 0.950 1_455 S
C280 C278 1.391 . S
C280 C281 1.400 . S
C281 C275 1.491 . S
C281 C280 1.400 . S
C281 C282 1.398 . S
C282 H270 0.950 . S
C282 C281 1.398 . S
C282 C283 1.391 . S
C283 H271 0.950 . S
C283 C279 1.393 . S
C283 C282 1.391 . S
C139 C101 1.247 . S
C133 C45 1.527 . S
C159 C121 1.486 . S
C153 C78 1.510 . S
C179 C100 1.464 . S
C173 C21 1.519 . S
C199 C122 1.524 . S
C193 C84 1.524 . S
C219 C114 1.484 . S
C213 C36 1.518 . S
C239 C107 1.495 . S
C233 C69 1.518 . S
C259 C115 1.290 . S
C253 C30 1.522 . S
C273 C93 1.520 . S
C279 C108 1.525 . S
