# Generated by pormake.
# Topology ctn, (3,4)-cn, num edge types: 1
# Building blocks:
#     Node 0, Type 0, BuildingBlock: BETDIP_clean_linker_0, # of connection points: 3
#     Node 1, Type 0, BuildingBlock: BETDIP_clean_linker_0, # of connection points: 3
#     Node 2, Type 0, BuildingBlock: BETDIP_clean_linker_0, # of connection points: 3
#     Node 3, Type 0, BuildingBlock: BETDIP_clean_linker_0, # of connection points: 3
#     Node 4, Type 0, BuildingBlock: BETDIP_clean_linker_0, # of connection points: 3
#     Node 5, Type 0, BuildingBlock: BETDIP_clean_linker_0, # of connection points: 3
#     Node 6, Type 0, BuildingBlock: BETDIP_clean_linker_0, # of connection points: 3
#     Node 7, Type 0, BuildingBlock: BETDIP_clean_linker_0, # of connection points: 3
#     Node 8, Type 0, BuildingBlock: BETDIP_clean_linker_0, # of connection points: 3
#     Node 9, Type 0, BuildingBlock: BETDIP_clean_linker_0, # of connection points: 3
#     Node 10, Type 0, BuildingBlock: BETDIP_clean_linker_0, # of connection points: 3
#     Node 11, Type 0, BuildingBlock: BETDIP_clean_linker_0, # of connection points: 3
#     Node 12, Type 0, BuildingBlock: BETDIP_clean_linker_0, # of connection points: 3
#     Node 13, Type 0, BuildingBlock: BETDIP_clean_linker_0, # of connection points: 3
#     Node 14, Type 0, BuildingBlock: BETDIP_clean_linker_0, # of connection points: 3
#     Node 15, Type 0, BuildingBlock: BETDIP_clean_linker_0, # of connection points: 3
#     Node 16, Type 1, BuildingBlock: KUFVIS_clean_sbu_0, # of connection points: 4
#     Node 17, Type 1, BuildingBlock: KUFVIS_clean_sbu_0, # of connection points: 4
#     Node 18, Type 1, BuildingBlock: KUFVIS_clean_sbu_0, # of connection points: 4
#     Node 19, Type 1, BuildingBlock: KUFVIS_clean_sbu_0, # of connection points: 4
#     Node 20, Type 1, BuildingBlock: KUFVIS_clean_sbu_0, # of connection points: 4
#     Node 21, Type 1, BuildingBlock: KUFVIS_clean_sbu_0, # of connection points: 4
#     Node 22, Type 1, BuildingBlock: KUFVIS_clean_sbu_0, # of connection points: 4
#     Node 23, Type 1, BuildingBlock: KUFVIS_clean_sbu_0, # of connection points: 4
#     Node 24, Type 1, BuildingBlock: KUFVIS_clean_sbu_0, # of connection points: 4
#     Node 25, Type 1, BuildingBlock: KUFVIS_clean_sbu_0, # of connection points: 4
#     Node 26, Type 1, BuildingBlock: KUFVIS_clean_sbu_0, # of connection points: 4
#     Node 27, Type 1, BuildingBlock: KUFVIS_clean_sbu_0, # of connection points: 4
#     Edge 28, Type (0, 1), BuildingBlock: AJUNOK_clean_linker_0, # of connection points: 2
#     Edge 29, Type (0, 1), BuildingBlock: AJUNOK_clean_linker_0, # of connection points: 2
#     Edge 30, Type (0, 1), BuildingBlock: AJUNOK_clean_linker_0, # of connection points: 2
#     Edge 31, Type (0, 1), BuildingBlock: AJUNOK_clean_linker_0, # of connection points: 2
#     Edge 32, Type (0, 1), BuildingBlock: AJUNOK_clean_linker_0, # of connection points: 2
#     Edge 33, Type (0, 1), BuildingBlock: AJUNOK_clean_linker_0, # of connection points: 2
#     Edge 34, Type (0, 1), BuildingBlock: AJUNOK_clean_linker_0, # of connection points: 2
#     Edge 35, Type (0, 1), BuildingBlock: AJUNOK_clean_linker_0, # of connection points: 2
#     Edge 36, Type (0, 1), BuildingBlock: AJUNOK_clean_linker_0, # of connection points: 2
#     Edge 37, Type (0, 1), BuildingBlock: AJUNOK_clean_linker_0, # of connection points: 2
#     Edge 38, Type (0, 1), BuildingBlock: AJUNOK_clean_linker_0, # of connection points: 2
#     Edge 39, Type (0, 1), BuildingBlock: AJUNOK_clean_linker_0, # of connection points: 2
#     Edge 40, Type (0, 1), BuildingBlock: AJUNOK_clean_linker_0, # of connection points: 2
#     Edge 41, Type (0, 1), BuildingBlock: AJUNOK_clean_linker_0, # of connection points: 2
#     Edge 42, Type (0, 1), BuildingBlock: AJUNOK_clean_linker_0, # of connection points: 2
#     Edge 43, Type (0, 1), BuildingBlock: AJUNOK_clean_linker_0, # of connection points: 2
#     Edge 44, Type (0, 1), BuildingBlock: AJUNOK_clean_linker_0, # of connection points: 2
#     Edge 45, Type (0, 1), BuildingBlock: AJUNOK_clean_linker_0, # of connection points: 2
#     Edge 46, Type (0, 1), BuildingBlock: AJUNOK_clean_linker_0, # of connection points: 2
#     Edge 47, Type (0, 1), BuildingBlock: AJUNOK_clean_linker_0, # of connection points: 2
#     Edge 48, Type (0, 1), BuildingBlock: AJUNOK_clean_linker_0, # of connection points: 2
#     Edge 49, Type (0, 1), BuildingBlock: AJUNOK_clean_linker_0, # of connection points: 2
#     Edge 50, Type (0, 1), BuildingBlock: AJUNOK_clean_linker_0, # of connection points: 2
#     Edge 51, Type (0, 1), BuildingBlock: AJUNOK_clean_linker_0, # of connection points: 2
#     Edge 52, Type (0, 1), BuildingBlock: AJUNOK_clean_linker_0, # of connection points: 2
#     Edge 53, Type (0, 1), BuildingBlock: AJUNOK_clean_linker_0, # of connection points: 2
#     Edge 54, Type (0, 1), BuildingBlock: AJUNOK_clean_linker_0, # of connection points: 2
#     Edge 55, Type (0, 1), BuildingBlock: AJUNOK_clean_linker_0, # of connection points: 2
#     Edge 56, Type (0, 1), BuildingBlock: AJUNOK_clean_linker_0, # of connection points: 2
#     Edge 57, Type (0, 1), BuildingBlock: AJUNOK_clean_linker_0, # of connection points: 2
#     Edge 58, Type (0, 1), BuildingBlock: AJUNOK_clean_linker_0, # of connection points: 2
#     Edge 59, Type (0, 1), BuildingBlock: AJUNOK_clean_linker_0, # of connection points: 2
#     Edge 60, Type (0, 1), BuildingBlock: AJUNOK_clean_linker_0, # of connection points: 2
#     Edge 61, Type (0, 1), BuildingBlock: AJUNOK_clean_linker_0, # of connection points: 2
#     Edge 62, Type (0, 1), BuildingBlock: AJUNOK_clean_linker_0, # of connection points: 2
#     Edge 63, Type (0, 1), BuildingBlock: AJUNOK_clean_linker_0, # of connection points: 2
#     Edge 64, Type (0, 1), BuildingBlock: AJUNOK_clean_linker_0, # of connection points: 2
#     Edge 65, Type (0, 1), BuildingBlock: AJUNOK_clean_linker_0, # of connection points: 2
#     Edge 66, Type (0, 1), BuildingBlock: AJUNOK_clean_linker_0, # of connection points: 2
#     Edge 67, Type (0, 1), BuildingBlock: AJUNOK_clean_linker_0, # of connection points: 2
#     Edge 68, Type (0, 1), BuildingBlock: AJUNOK_clean_linker_0, # of connection points: 2
#     Edge 69, Type (0, 1), BuildingBlock: AJUNOK_clean_linker_0, # of connection points: 2
#     Edge 70, Type (0, 1), BuildingBlock: AJUNOK_clean_linker_0, # of connection points: 2
#     Edge 71, Type (0, 1), BuildingBlock: AJUNOK_clean_linker_0, # of connection points: 2
#     Edge 72, Type (0, 1), BuildingBlock: AJUNOK_clean_linker_0, # of connection points: 2
#     Edge 73, Type (0, 1), BuildingBlock: AJUNOK_clean_linker_0, # of connection points: 2
#     Edge 74, Type (0, 1), BuildingBlock: AJUNOK_clean_linker_0, # of connection points: 2
#     Edge 75, Type (0, 1), BuildingBlock: AJUNOK_clean_linker_0, # of connection points: 2
# Relax obj value: 0.083
# Max RMSD: 0.188
# Mean RMSD: 0.121
data_MOF--net-ctn--node1-KUFVIS_clean_sbu_0--node2-BETDIP_clean_linker_0--edge1-AJUNOK_clean_linker_0
_symmetry_space_group_name_H-M    P1
_symmetry_Int_Tables_number       1
_symmetry_cell_setting            triclinic
loop_
_symmetry_equiv_pos_as_xyz
'x, y, z'
_cell_length_a     36.846356
_cell_length_b     37.235638
_cell_length_c     41.348537
_cell_angle_alpha  94.809291
_cell_angle_beta   94.286842
_cell_angle_gamma 94.356621
loop_
_atom_site_label
_atom_site_type_symbol
_atom_site_fract_x
_atom_site_fract_y
_atom_site_fract_z
_atom_type_partial_charge
H0 H 0.03275 0.06234 0.09308 0.0
H1 H 0.10565 0.03034 0.02228 0.0
H2 H 0.11138 0.98581 0.11501 0.0
H3 H 0.10371 0.08863 1.01102 0.0
C4 C 0.07505 0.0931 1.0124 0.0
C5 C 0.05515 0.04671 0.08651 0.0
C6 C 0.06927 0.02261 0.10781 0.0
C7 C 0.06943 0.05098 0.0565 0.0
C8 C 0.09674 0.02916 0.04654 0.0
C9 C 0.11195 1.005 0.0671 0.0
C10 C 0.09863 1.00271 0.09818 0.0
N11 N 0.0553 0.07689 0.03649 0.0
H12 H 0.29621 0.66611 0.18269 0.0
H13 H 0.4028 0.71899 0.20837 0.0
H14 H 0.36194 0.63635 0.26561 0.0
H15 H 0.39805 0.72731 0.1514 0.0
C16 C 0.37068 0.73625 0.15152 0.0
C17 C 0.3214 0.66848 0.19828 0.0
C18 C 0.32539 0.64685 0.22449 0.0
C19 C 0.34942 0.69371 0.19189 0.0
C20 C 0.38138 0.69894 0.21288 0.0
C21 C 0.38502 0.67986 0.24071 0.0
C22 C 0.35783 0.65253 0.24535 0.0
N23 N 0.3431 0.71588 0.16606 0.0
H24 H 0.95178 0.50764 1.00641 0.0
H25 H 0.03399 0.47269 0.07184 0.0
H26 H 0.99437 0.57742 0.09179 0.0
H27 H 0.05279 0.44764 0.02115 0.0
C28 C 0.02578 0.43546 1.01217 0.0
C29 C 0.97075 0.51393 0.02777 0.0
C30 C 0.97039 0.54678 0.04728 0.0
C31 C 0.99501 0.48833 0.03563 0.0
C32 C 0.01757 0.49403 0.06464 0.0
C33 C 0.01775 0.526 0.08523 0.0
C34 C 0.99412 0.55247 0.07628 0.0
N35 N 0.99501 0.45611 0.01469 0.0
H36 H 0.70097 0.80113 0.17604 0.0
H37 H 0.74422 0.89318 0.24059 0.0
H38 H 0.79927 0.86196 0.15569 0.0
H39 H 0.72608 0.8534 0.278 0.0
C40 C 0.69908 0.8433 0.26717 0.0
C41 C 0.72124 0.82383 0.18206 0.0
C42 C 0.74979 0.82957 0.1619 0.0
C43 C 0.72004 0.84572 0.21113 0.0
C44 C 0.74622 0.87522 0.21894 0.0
C45 C 0.7749 0.88171 0.199 0.0
C46 C 0.77664 0.85834 0.1707 0.0
N47 N 0.69311 0.83674 0.23269 0.0
H48 H 0.03361 0.96633 0.45774 0.0
H49 H 0.12663 0.99984 0.52597 0.0
H50 H 0.11543 0.04561 0.43409 0.0
H51 H 0.09068 0.97788 0.56195 0.0
C52 C 0.07471 0.95457 0.5492 0.0
C53 C 0.05887 0.98305 0.46443 0.0
C54 C 0.07254 1.00645 0.44248 0.0
C55 C 0.07788 0.9805 0.49477 0.0
C56 C 0.111 1.00213 0.50316 0.0
C57 C 0.12492 0.02604 0.48156 0.0
C58 C 0.10547 0.02754 0.45114 0.0
N59 N 0.06382 0.95483 0.51543 0.0
H60 H 0.2183 0.73871 0.85549 0.0
H61 H 0.27025 0.66494 0.79256 0.0
H62 H 0.32054 0.69914 0.88859 0.0
H63 H 0.23579 0.69522 0.7534 0.0
C64 C 0.21009 0.69588 0.76462 0.0
C65 C 0.24087 0.72224 0.85164 0.0
C66 C 0.26976 0.72263 0.87587 0.0
C67 C 0.24098 0.70202 0.8217 0.0
C68 C 0.27035 0.6812 0.81555 0.0
C69 C 0.29916 0.67991 0.83967 0.0
C70 C 0.29856 0.70045 0.86993 0.0
N71 N 0.21022 0.70243 0.79894 0.0
H72 H 0.03009 0.6066 0.47949 0.0
H73 H 0.95883 0.51028 0.45143 0.0
H74 H 0.94341 0.57681 0.53839 0.0
H75 H 1.00269 0.49657 0.41736 0.0
C76 C 1.0158 0.52212 0.41171 0.0
C77 C 1.00749 0.588 0.48439 0.0
C78 C 0.98861 0.59496 0.51217 0.0
C79 C 0.99733 0.55756 0.46245 0.0
C80 C 0.96758 0.53358 0.4684 0.0
C81 C 0.94783 0.54067 0.4958 0.0
C82 C 0.95842 0.57146 0.51733 0.0
N83 N 1.01677 0.5534 0.4341 0.0
H84 H 0.83609 0.88585 0.7959 0.0
H85 H 0.87952 0.80707 0.85543 0.0
H86 H 0.7773 0.84976 0.8746 0.0
H87 H 0.93122 0.81994 0.83256 0.0
C88 C 0.92429 0.82962 0.80903 0.0
C89 C 0.83426 0.86981 0.81653 0.0
C90 C 0.80358 0.87076 0.83459 0.0
C91 C 0.8625 0.84808 0.82436 0.0
C92 C 0.85943 0.82598 0.85037 0.0
C93 C 0.82855 0.82613 0.86844 0.0
C94 C 0.80134 0.84959 0.861 0.0
N95 N 0.89166 0.84704 0.80361 0.0
H96 H 0.31851 0.37222 0.28768 0.0
H97 H 0.37519 0.30644 0.35186 0.0
H98 H 0.26795 0.33708 0.37132 0.0
H99 H 0.42469 0.32898 0.32915 0.0
C100 C 0.41516 0.33128 0.30399 0.0
C101 C 0.31926 0.35748 0.30923 0.0
C102 C 0.28971 0.3573 0.32876 0.0
C103 C 0.35034 0.33981 0.31752 0.0
C104 C 0.35147 0.32052 0.34542 0.0
C105 C 0.32171 0.3188 0.36491 0.0
C106 C 0.2911 0.33795 0.35663 0.0
N107 N 0.37901 0.34063 0.29626 0.0
H108 H 0.46404 0.01337 0.50372 0.0
H109 H 0.54041 0.9743 0.57257 0.0
H110 H 0.48852 0.07129 0.59855 0.0
H111 H 0.56388 0.95178 0.52415 0.0
C112 C 0.53796 0.94109 0.51141 0.0
C113 C 0.47861 0.01655 0.52768 0.0
C114 C 0.4725 0.04549 0.55018 0.0
C115 C 0.50355 0.99153 0.53533 0.0
C116 C 0.52259 0.99486 0.5662 0.0
C117 C 0.51786 0.02368 0.58935 0.0
C118 C 0.49265 0.04904 0.58105 0.0
N119 N 0.50724 0.96199 0.5121 0.0
H120 H 0.20036 0.2962 0.67999 0.0
H121 H 0.24405 0.38785 0.745 0.0
H122 H 0.29863 0.35712 0.65973 0.0
H123 H 0.22241 0.34895 0.78248 0.0
C124 C 0.19565 0.33978 0.77053 0.0
C125 C 0.2208 0.31873 0.68616 0.0
C126 C 0.24943 0.32439 0.66609 0.0
C127 C 0.21949 0.34064 0.71523 0.0
C128 C 0.2459 0.36994 0.72327 0.0
C129 C 0.2744 0.37658 0.70314 0.0
C130 C 0.27614 0.35325 0.67484 0.0
N131 N 0.1916 0.33229 0.73607 0.0
H132 H 0.80198 0.16908 0.67279 0.0
H133 H 0.90866 0.21898 0.70482 0.0
H134 H 0.85888 0.13941 0.76042 0.0
H135 H 0.88119 0.26731 0.685 0.0
C136 C 0.86888 0.25471 0.66169 0.0
C137 C 0.82607 0.17086 0.68972 0.0
C138 C 0.82728 0.14946 0.71628 0.0
C139 C 0.85501 0.19631 0.68576 0.0
C140 C 0.88566 0.20024 0.70835 0.0
C141 C 0.88653 0.1809 0.73602 0.0
C142 C 0.85782 0.1548 0.73933 0.0
N143 N 0.852 0.21885 0.65977 0.0
H144 H 0.53635 0.57021 0.5954 0.0
H145 H 0.60776 0.53622 0.5241 0.0
H146 H 0.60146 0.48024 0.61043 0.0
H147 H 0.60821 0.59482 0.51373 0.0
C148 C 0.57984 0.60036 0.5153 0.0
C149 C 0.55616 0.55194 0.58759 0.0
C150 C 0.56616 0.52422 0.60691 0.0
C151 C 0.57152 0.55694 0.55824 0.0
C152 C 0.59751 0.53391 0.54774 0.0
C153 C 0.60991 0.50722 0.56701 0.0
C154 C 0.59335 0.50187 0.59628 0.0
N155 N 0.55956 0.5848 0.53938 0.0
H156 H 0.53341 0.46458 0.95644 0.0
H157 H 0.62378 0.49953 0.02713 0.0
H158 H 0.61571 0.54444 0.93469 0.0
H159 H 0.58525 0.47898 0.06212 0.0
C160 C 0.5706 0.455 0.04922 0.0
C161 C 0.55837 0.48158 0.96375 0.0
C162 C 0.57233 0.50541 0.94234 0.0
C163 C 0.57624 0.47959 0.99463 0.0
C164 C 0.60892 0.50159 1.00389 0.0
C165 C 0.62354 0.52539 0.98256 0.0
C166 C 0.60495 0.52678 0.9517 0.0
N167 N 0.56151 0.45414 0.01509 0.0
H168 H 0.7165 0.23673 0.35608 0.0
H169 H 0.77073 0.16602 0.29225 0.0
H170 H 0.82107 0.20109 0.38803 0.0
H171 H 0.73547 0.19468 0.2539 0.0
C172 C 0.7097 0.19629 0.26486 0.0
C173 C 0.7397 0.22121 0.352 0.0
C174 C 0.769 0.2226 0.37595 0.0
C175 C 0.74023 0.20143 0.32192 0.0
C176 C 0.77041 0.18196 0.31535 0.0
C177 C 0.79973 0.18174 0.33914 0.0
C178 C 0.79871 0.20174 0.3696 0.0
N179 N 0.70938 0.2014 0.29922 0.0
H180 H 0.53622 0.1044 0.98578 0.0
H181 H 0.46788 1.0065 0.95624 0.0
H182 H 0.44818 0.0725 0.04239 0.0
H183 H 0.51188 0.99589 0.92018 0.0
C184 C 0.52379 0.0224 0.9157 0.0
C185 C 0.51397 0.08515 0.99025 0.0
C186 C 0.49405 0.0916 0.01742 0.0
C187 C 0.50501 0.05471 0.96807 0.0
C188 C 0.47565 0.0299 0.97336 0.0
C189 C 0.45506 0.03637 1.00036 0.0
C190 C 0.46418 0.06742 0.02191 0.0
N191 N 0.52502 0.0519 0.94 0.0
Mn192 Mn 0.28718 0.87109 0.02906 0.0
Mn193 Mn 0.26992 0.90405 0.95662 0.0
C194 C 0.2635 0.8327 0.98404 0.0
C195 C 0.32188 0.84367 0.06804 0.0
C196 C 0.22565 0.91969 0.01465 0.0
O197 O 0.3212 0.91786 0.03255 0.0
O198 O 0.31011 0.93541 0.9817 0.0
C199 C 0.33849 0.89477 0.92495 0.0
N200 N 0.30191 0.88652 0.92564 0.0
C201 C 0.2994 0.84899 0.87509 0.0
C202 C 0.33705 0.85702 0.87389 0.0
C203 C 0.35665 0.88009 0.89889 0.0
C204 C 0.28271 0.86476 0.90147 0.0
H205 H 0.35373 0.91246 0.94411 0.0
C206 C 0.32753 0.93865 1.00998 0.0
O207 O 0.29607 0.86373 0.07563 0.0
O208 O 0.32953 0.84158 0.03777 0.0
N209 N 0.23212 0.87424 0.93063 0.0
C210 C 0.19615 0.86849 0.93583 0.0
C211 C 0.17285 0.84552 0.91329 0.0
C212 C 0.18674 0.82878 0.88564 0.0
C213 C 0.22387 0.83507 0.88084 0.0
C214 C 0.24578 0.85819 0.90415 0.0
H215 H 0.18536 0.8812 0.95708 0.0
O216 O 0.25694 0.82474 1.01316 0.0
O217 O 0.28117 0.86388 0.98249 0.0
O218 O 0.24176 0.89902 0.03284 0.0
O219 O 0.23468 0.92444 0.98601 0.0
C220 C 0.24007 0.81897 0.85405 0.0
C221 C 0.27782 0.82587 0.8512 0.0
H222 H 0.3512 0.84551 0.85397 0.0
H223 H 0.38572 0.8864 0.89816 0.0
H224 H 0.14425 0.84067 0.91724 0.0
H225 H 0.16871 0.81097 0.86838 0.0
H226 H 0.22378 0.80113 0.83554 0.0
H227 H 0.28999 0.81316 0.83059 0.0
Mn228 Mn 0.15985 0.50269 0.25826 0.0
Mn229 Mn 0.14145 0.59042 0.26226 0.0
C230 C 0.20136 0.54558 0.24165 0.0
C231 C 0.1856 0.45543 0.28407 0.0
C232 C 0.10672 0.53413 0.20934 0.0
O233 O 0.11838 0.50444 0.28839 0.0
O234 O 0.11218 0.56433 0.2929 0.0
C235 C 0.17106 0.61443 0.32983 0.0
N236 N 0.17113 0.61752 0.29724 0.0
C237 C 0.21648 0.66816 0.30613 0.0
C238 C 0.21664 0.66571 0.3398 0.0
C239 C 0.19393 0.63863 0.35168 0.0
C240 C 0.19294 0.64342 0.28555 0.0
H241 H 0.15362 0.59372 0.3391 0.0
C242 C 0.10433 0.53223 0.30082 0.0
O243 O 0.1615 0.4488 0.25923 0.0
O244 O 0.19353 0.48908 0.29433 0.0
N245 N 0.1687 0.6186 0.23423 0.0
C246 C 0.16574 0.61698 0.20108 0.0
C247 C 0.18757 0.64148 0.18529 0.0
C248 C 0.21201 0.66753 0.20371 0.0
C249 C 0.2143 0.66894 0.2378 0.0
C250 C 0.19176 0.64391 0.25219 0.0
H251 H 0.14704 0.59702 0.18676 0.0
O252 O 0.20235 0.5117 0.23192 0.0
O253 O 0.17634 0.55327 0.26111 0.0
O254 O 0.12417 0.50753 0.21799 0.0
O255 O 0.11003 0.56538 0.22503 0.0
C256 C 0.23831 0.69399 0.25803 0.0
C257 C 0.23932 0.69367 0.29218 0.0
H258 H 0.23443 0.68416 0.35672 0.0
H259 H 0.19409 0.63641 0.37761 0.0
H260 H 0.18565 0.64021 0.15897 0.0
H261 H 0.22895 0.68624 0.19143 0.0
H262 H 0.25627 0.71348 0.24758 0.0
H263 H 0.25802 0.71293 0.30748 0.0
Mn264 Mn 0.80071 0.67012 0.01428 0.0
Mn265 Mn 0.71795 0.69247 0.9849 0.0
C266 C 0.74741 0.63174 0.01673 0.0
C267 C 0.85591 0.64213 0.01461 0.0
C268 C 0.75803 0.72853 0.04715 0.0
O269 O 0.81436 0.70852 0.98207 0.0
O270 O 0.75694 0.71678 0.9626 0.0
C271 C 0.71669 0.6552 0.91847 0.0
N272 N 0.70043 0.66204 0.94657 0.0
C273 C 0.64513 0.62732 0.92456 0.0
C274 C 0.66054 0.62148 0.89476 0.0
C275 C 0.69675 0.63492 0.8919 0.0
C276 C 0.66657 0.6472 0.95026 0.0
H277 H 0.74476 0.66479 0.91661 0.0
C278 C 0.7916 0.72241 0.96236 0.0
O279 O 0.85133 0.66977 0.03446 0.0
O280 O 0.82945 0.63227 0.9922 0.0
N281 N 0.67737 0.67051 1.00435 0.0
C282 C 0.66772 0.67624 0.03543 0.0
C283 C 0.6336 0.66163 0.04338 0.0
C284 C 0.6094 0.64216 0.01912 0.0
C285 C 0.61973 0.63715 0.9872 0.0
C286 C 0.65433 0.65171 0.98089 0.0
H287 H 0.68587 0.6919 0.054 0.0
O288 O 0.77552 0.63018 0.03729 0.0
O289 O 0.751 0.6559 0.99634 0.0
O290 O 0.78457 0.70884 0.04638 0.0
O291 O 0.73195 0.72549 0.02479 0.0
C292 C 0.59692 0.6186 0.96133 0.0
C293 C 0.60949 0.61395 0.92994 0.0
H294 H 0.64515 0.60599 0.87419 0.0
H295 H 0.70925 0.62963 0.8693 0.0
H296 H 0.62578 0.66577 0.06804 0.0
H297 H 0.58295 0.63122 0.02525 0.0
H298 H 0.56982 0.60755 0.96545 0.0
H299 H 0.5919 0.59917 0.91031 0.0
Mn300 Mn 0.93423 0.03502 0.2707 0.0
Mn301 Mn 0.95578 0.94811 0.26481 0.0
C302 C 0.89467 0.99024 0.24182 0.0
C303 C 0.90533 0.08231 0.29741 0.0
C304 C 0.98947 1.00485 0.22466 0.0
O305 O 0.97371 0.03469 0.3082 0.0
O306 O 0.98484 0.97569 0.30275 0.0
C307 C 0.92678 0.92533 0.32548 0.0
N308 N 0.92751 0.92066 0.29251 0.0
C309 C 0.88408 0.86853 0.28897 0.0
C310 C 0.88308 0.87264 0.3229 0.0
C311 C 0.90446 0.90121 0.34121 0.0
C312 C 0.90706 0.89323 0.27465 0.0
H313 H 0.94307 0.94732 0.33965 0.0
C314 C 0.98996 1.00764 0.31736 0.0
O315 O 0.93087 0.08878 0.27812 0.0
O316 O 0.89795 0.04874 0.30227 0.0
N317 N 0.92919 0.91825 0.22955 0.0
C318 C 0.93057 0.92012 0.19688 0.0
C319 C 0.90964 0.89431 0.17505 0.0
C320 C 0.88747 0.86691 0.18699 0.0
C321 C 0.88634 0.8656 0.22068 0.0
C322 C 0.9081 0.89184 0.2413 0.0
H323 H 0.94698 0.9415 0.18752 0.0
O324 O 0.89327 0.02376 0.23584 0.0
O325 O 0.91938 0.98387 0.26424 0.0
O326 O 0.97245 0.03134 0.23605 0.0
O327 O 0.98554 0.97341 0.23467 0.0
C328 C 0.86366 0.83995 0.23461 0.0
C329 C 0.86251 0.84143 0.26873 0.0
H330 H 0.86569 0.85427 0.33512 0.0
H331 H 0.90367 0.90468 0.36739 0.0
H332 H 0.91031 0.89577 0.14907 0.0
H333 H 0.87101 0.84737 0.17005 0.0
H334 H 0.84642 0.81944 0.21928 0.0
H335 H 0.84446 0.82198 0.27911 0.0
Mn336 Mn 0.30322 0.16945 0.51561 0.0
Mn337 Mn 0.22331 0.1964 0.48379 0.0
C338 C 0.24864 0.1331 0.51508 0.0
C339 C 0.35739 0.13969 0.5167 0.0
C340 C 0.25907 0.22674 0.54931 0.0
O341 O 0.32066 0.20771 0.48555 0.0
O342 O 0.26526 0.22445 0.46815 0.0
C343 C 0.22985 0.17121 0.41473 0.0
N344 N 0.21093 0.17107 0.4418 0.0
C345 C 0.16069 0.13406 0.41255 0.0
C346 C 0.17957 0.13388 0.38433 0.0
C347 C 0.21442 0.15233 0.3855 0.0
C348 C 0.17774 0.15277 0.44111 0.0
H349 H 0.25643 0.18571 0.41539 0.0
C350 C 0.30016 0.22718 0.46906 0.0
O351 O 0.35311 0.16705 0.53703 0.0
O352 O 0.33097 0.13073 0.49407 0.0
N353 N 0.18007 0.17139 0.49643 0.0
C354 C 0.16557 0.17401 0.52583 0.0
C355 C 0.131 0.1566 0.52893 0.0
C356 C 0.11135 0.1374 0.50163 0.0
C357 C 0.12651 0.13572 0.47149 0.0
C358 C 0.16126 0.15319 0.46997 0.0
H359 H 0.18029 0.18924 0.54676 0.0
O360 O 0.27532 0.13038 0.53688 0.0
O361 O 0.25414 0.15754 0.49504 0.0
O362 O 0.28678 0.20864 0.54732 0.0
O363 O 0.23277 0.22382 0.52714 0.0
C364 C 0.10834 0.11772 0.44282 0.0
C365 C 0.12556 0.11655 0.41344 0.0
H366 H 0.16762 0.1196 0.36168 0.0
H367 H 0.22922 0.15225 0.36385 0.0
H368 H 0.11941 0.1582 0.55224 0.0
H369 H 0.08462 0.12414 0.50407 0.0
H370 H 0.08128 0.10423 0.44318 0.0
H371 H 0.11155 0.10204 0.39169 0.0
Mn372 Mn 0.43254 0.53245 0.77115 0.0
Mn373 Mn 0.4572 0.44665 0.76262 0.0
C374 C 0.39317 0.48704 0.74298 0.0
C375 C 0.40407 0.57868 0.79965 0.0
C376 C 0.48737 0.506 0.72358 0.0
O377 O 0.47435 0.53239 0.80692 0.0
O378 O 0.48535 0.47346 0.80124 0.0
C379 C 0.42959 0.41972 0.82232 0.0
N380 N 0.42994 0.41688 0.78929 0.0
C381 C 0.38746 0.36393 0.78397 0.0
C382 C 0.38683 0.36616 0.81794 0.0
C383 C 0.40794 0.39422 0.83718 0.0
C384 C 0.40977 0.38996 0.77054 0.0
H385 H 0.44566 0.44131 0.83721 0.0
C386 C 0.49055 0.50527 0.81616 0.0
O387 O 0.42828 0.58584 0.77932 0.0
O388 O 0.39781 0.54493 0.8046 0.0
N389 N 0.43113 0.41777 0.72648 0.0
C390 C 0.43258 0.42107 0.69401 0.0
C391 C 0.41176 0.396 0.67139 0.0
C392 C 0.38982 0.36773 0.68234 0.0
C393 C 0.38893 0.36474 0.71585 0.0
C394 C 0.41044 0.39039 0.73726 0.0
H395 H 0.44925 0.44282 0.68541 0.0
O396 O 0.39001 0.52062 0.73794 0.0
O397 O 0.41942 0.48108 0.76413 0.0
O398 O 0.46813 0.53068 0.73473 0.0
O399 O 0.48648 0.47437 0.73337 0.0
C400 C 0.36687 0.33785 0.72886 0.0
C401 C 0.36613 0.33744 0.76289 0.0
H402 H 0.36995 0.34671 0.82949 0.0
H403 H 0.40745 0.39623 0.8634 0.0
H404 H 0.41245 0.39859 0.64556 0.0
H405 H 0.37349 0.3487 0.66481 0.0
H406 H 0.34986 0.31773 0.71294 0.0
H407 H 0.34857 0.317 0.77258 0.0
Mn408 Mn 0.78397 0.37283 0.52684 0.0
Mn409 Mn 0.76379 0.40445 0.45438 0.0
C410 C 0.75963 0.33349 0.48273 0.0
C411 C 0.82166 0.34691 0.56425 0.0
C412 C 0.7216 0.42053 0.51374 0.0
O413 O 0.81681 0.42021 0.5291 0.0
O414 O 0.80452 0.43654 0.47799 0.0
C415 C 0.83095 0.39511 0.42055 0.0
N416 N 0.79462 0.38654 0.42255 0.0
C417 C 0.79057 0.34772 0.37263 0.0
C418 C 0.82796 0.35599 0.37013 0.0
C419 C 0.84819 0.37991 0.39413 0.0
C420 C 0.77478 0.36404 0.39931 0.0
H421 H 0.84665 0.41342 0.43895 0.0
C422 C 0.82225 0.44067 0.50615 0.0
O423 O 0.7958 0.3662 0.57334 0.0
O424 O 0.82723 0.34441 0.53353 0.0
N425 N 0.72538 0.37394 0.42989 0.0
C426 C 0.68978 0.36812 0.43628 0.0
C427 C 0.66591 0.34448 0.41478 0.0
C428 C 0.67886 0.32714 0.38695 0.0
C429 C 0.71563 0.33351 0.38092 0.0
C430 C 0.73814 0.3573 0.40322 0.0
H431 H 0.6797 0.38129 0.45768 0.0
O432 O 0.75431 0.32579 0.51218 0.0
O433 O 0.77631 0.36499 0.48049 0.0
O434 O 0.73806 0.39997 0.53182 0.0
O435 O 0.72979 0.42502 0.48481 0.0
C436 C 0.73092 0.31687 0.35385 0.0
C437 C 0.76837 0.32389 0.34974 0.0
H438 H 0.84143 0.34408 0.34994 0.0
H439 H 0.87706 0.38644 0.39237 0.0
H440 H 0.6376 0.33958 0.41968 0.0
H441 H 0.6604 0.30883 0.37049 0.0
H442 H 0.71413 0.2985 0.33609 0.0
H443 H 0.77984 0.31075 0.32894 0.0
Mn444 Mn 0.6656 1.00816 0.76088 0.0
Mn445 Mn 0.64426 0.09478 0.76201 0.0
C446 C 0.70417 0.05077 0.7402 0.0
C447 C 0.69514 0.96387 0.78771 0.0
C448 C 0.60838 0.03511 0.71279 0.0
O449 O 0.62593 1.01029 0.7929 0.0
O450 O 0.61767 0.06966 0.79494 0.0
C451 C 0.67817 0.12142 0.82766 0.0
N452 N 0.67517 0.12387 0.7949 0.0
C453 C 0.72061 0.17442 0.79998 0.0
C454 C 0.72398 0.17261 0.83379 0.0
C455 C 0.70269 0.14596 0.84768 0.0
C456 C 0.69549 0.14944 0.78128 0.0
H457 H 0.66207 0.10081 0.83842 0.0
C458 C 0.61132 0.03811 0.80457 0.0
O459 O 0.66978 0.95494 0.76417 0.0
O460 O 0.70204 0.99804 0.79624 0.0
N461 N 0.66869 0.12212 0.73164 0.0
C462 C 0.66416 0.11853 0.69848 0.0
C463 C 0.68463 0.14218 0.68075 0.0
C464 C 0.70937 0.16937 0.69725 0.0
C465 C 0.7133 0.17278 0.73139 0.0
C466 C 0.69196 0.1486 0.74778 0.0
H467 H 0.64536 0.09755 0.68564 0.0
O468 O 0.70585 0.01664 0.73198 0.0
O469 O 0.6803 0.05887 0.76069 0.0
O470 O 0.62729 1.00964 0.7218 0.0
O471 O 0.6117 0.06718 0.7269 0.0
C472 C 0.73822 0.19862 0.74976 0.0
C473 C 0.74182 0.19947 0.78403 0.0
H474 H 0.74312 0.19127 0.84928 0.0
H475 H 0.70531 0.14424 0.87373 0.0
H476 H 0.68155 0.13929 0.6544 0.0
H477 H 0.72546 0.18726 0.68347 0.0
H478 H 0.75519 0.21759 0.73776 0.0
H479 H 0.76135 0.21917 0.79787 0.0
Mn480 Mn 0.04156 0.25165 0.87775 0.0
Mn481 Mn 0.95652 0.23737 0.90166 0.0
C482 C 0.99647 0.21767 0.84396 0.0
C483 C 0.08503 0.28451 0.85117 0.0
C484 C 0.02015 0.1977 0.92686 0.0
O485 O 0.04058 0.29157 0.91458 0.0
O486 O 0.98317 0.27943 0.92813 0.0
C487 C 0.92691 0.30471 0.8818 0.0
N488 N 0.92527 0.26789 0.87969 0.0
C489 C 0.87123 0.26326 0.84267 0.0
C490 C 0.8721 0.30109 0.84475 0.0
C491 C 0.90015 0.3219 0.86432 0.0
C492 C 0.89853 0.24762 0.86078 0.0
H493 H 0.94846 0.3209 0.89666 0.0
C494 C 1.01387 0.29847 0.93153 0.0
O495 O 0.09461 0.26354 0.87333 0.0
O496 O 0.05037 0.28773 0.84572 0.0
N497 N 0.92752 0.19797 0.87722 0.0
C498 C 0.93063 0.16179 0.87771 0.0
C499 C 0.90497 0.13724 0.85891 0.0
C500 C 0.87625 0.15011 0.84003 0.0
C501 C 0.87339 0.18746 0.84021 0.0
C502 C 0.89967 0.21062 0.85951 0.0
H503 H 0.9526 0.15177 0.89224 0.0
O504 O 0.0306 0.21328 0.84053 0.0
O505 O 0.99 0.24108 0.86741 0.0
O506 O 0.04379 0.2135 0.91064 0.0
O507 O 0.98657 0.20435 0.92511 0.0
C508 C 0.84559 0.20264 0.82191 0.0
C509 C 0.84458 0.24049 0.82304 0.0
H510 H 0.85161 0.31444 0.83116 0.0
H511 H 0.9012 0.35112 0.86586 0.0
H512 H 0.90734 0.10845 0.85893 0.0
H513 H 0.85661 0.1311 0.82545 0.0
H514 H 0.82487 0.18554 0.80682 0.0
H515 H 0.8233 0.25183 0.8086 0.0
Mn516 Mn 0.54727 0.75461 0.37625 0.0
Mn517 Mn 0.46328 0.74479 0.40327 0.0
C518 C 0.50005 0.72143 0.34423 0.0
C519 C 0.59105 0.78579 0.3489 0.0
C520 C 0.52639 0.70386 0.42788 0.0
O521 O 0.54906 0.79538 0.41267 0.0
O522 O 0.49148 0.78764 0.42729 0.0
C523 C 0.4334 0.81124 0.38157 0.0
N524 N 0.43147 0.7745 0.38094 0.0
C525 C 0.37541 0.76872 0.34646 0.0
C526 C 0.37652 0.8065 0.34712 0.0
C527 C 0.40575 0.82783 0.36463 0.0
C528 C 0.4036 0.75371 0.364 0.0
H529 H 0.45584 0.82778 0.39487 0.0
C530 C 0.52321 0.80479 0.42967 0.0
O531 O 0.60021 0.76441 0.37082 0.0
O532 O 0.55652 0.78979 0.34346 0.0
N533 N 0.4331 0.70475 0.38129 0.0
C534 C 0.43636 0.66872 0.38279 0.0
C535 C 0.40996 0.64362 0.36567 0.0
C536 C 0.38039 0.65583 0.34743 0.0
C537 C 0.37737 0.69306 0.34653 0.0
C538 C 0.40451 0.71678 0.36411 0.0
H539 H 0.45904 0.65921 0.39679 0.0
O540 O 0.53373 0.7158 0.33978 0.0
O541 O 0.49524 0.7458 0.36752 0.0
O542 O 0.54946 0.71713 0.40969 0.0
O543 O 0.49352 0.71259 0.42753 0.0
C544 C 0.34869 0.70762 0.32877 0.0
C545 C 0.34769 0.74538 0.32875 0.0
H546 H 0.35535 0.81938 0.33392 0.0
H547 H 0.40701 0.857 0.36501 0.0
H548 H 0.41242 0.61493 0.36646 0.0
H549 H 0.36035 0.6363 0.33416 0.0
H550 H 0.32725 0.69018 0.31498 0.0
H551 H 0.32559 0.75616 0.31484 0.0
Mn552 Mn 0.04274 0.77076 0.64133 0.0
Mn553 Mn 0.99784 0.69682 0.66707 0.0
C554 C 0.03101 0.71807 0.60689 0.0
C555 C 0.04623 0.82628 0.61827 0.0
C556 C 0.0776 0.7183 0.686 0.0
O557 O 0.01916 0.7921 0.68114 0.0
O558 O 0.99188 0.74058 0.69622 0.0
C559 C 0.92301 0.71871 0.65357 0.0
N560 N 0.94809 0.69397 0.6497 0.0
C561 C 0.9034 0.65113 0.61939 0.0
C562 C 0.87702 0.67607 0.62316 0.0
C563 C 0.88694 0.7101 0.64014 0.0
C564 C 0.93902 0.66146 0.63287 0.0
H565 H 0.93046 0.74476 0.66688 0.0
C566 C 1.00014 0.77471 0.70022 0.0
O567 O 0.072 0.8172 0.63825 0.0
O568 O 0.01764 0.80335 0.61202 0.0
N569 N 1.00047 0.65174 0.64186 0.0
C570 C 0.02932 0.63104 0.63993 0.0
C571 C 0.02415 0.59637 0.62323 0.0
C572 C 0.9892 0.58293 0.60956 0.0
C573 C 0.95973 0.60435 0.61262 0.0
C574 C 0.96665 0.63887 0.62914 0.0
H575 H 0.05609 0.64099 0.65094 0.0
O576 O 0.05723 0.74189 0.60216 0.0
O577 O 1.0119 0.72578 0.6314 0.0
O578 O 0.07914 0.74671 0.6708 0.0
O579 O 0.04871 0.69708 0.68587 0.0
C580 C 0.92376 0.59284 0.59997 0.0
C581 C 0.89572 0.61639 0.60293 0.0
H582 H 0.8491 0.6694 0.61307 0.0
H583 H 0.86677 0.72953 0.6431 0.0
H584 H 0.047 0.57995 0.6211 0.0
H585 H 0.98531 0.55615 0.59676 0.0
H586 H 0.91737 0.56601 0.58767 0.0
H587 H 0.86833 0.60744 0.59256 0.0
Mn588 Mn 0.5416 0.27191 0.14205 0.0
Mn589 Mn 0.49737 0.1987 0.16974 0.0
C590 C 0.53079 0.21835 0.10895 0.0
C591 C 0.54409 0.32678 0.11827 0.0
C592 C 0.57704 0.22173 0.18825 0.0
O593 O 0.51793 0.2939 0.18141 0.0
O594 O 0.48902 0.2433 0.19684 0.0
C595 C 0.42188 0.21732 0.15338 0.0
N596 N 0.44802 0.19346 0.15116 0.0
C597 C 0.40551 0.1482 0.12122 0.0
C598 C 0.37807 0.1722 0.12332 0.0
C599 C 0.38636 0.207 0.13929 0.0
C600 C 0.44051 0.16019 0.13533 0.0
H601 H 0.42809 0.24397 0.1659 0.0
C602 C 0.49758 0.27739 0.20002 0.0
O603 O 0.57021 0.31838 0.13824 0.0
O604 O 0.51581 0.30341 0.11224 0.0
N605 N 0.50227 0.15298 0.14638 0.0
C606 C 0.53201 0.13336 0.14594 0.0
C607 C 0.52851 0.09813 0.13035 0.0
C608 C 0.4943 0.08308 0.11618 0.0
C609 C 0.46389 0.10344 0.11769 0.0
C610 C 0.46913 0.13855 0.1332 0.0
H611 H 0.55824 0.14456 0.15728 0.0
O612 O 0.55641 0.24246 0.10347 0.0
O613 O 0.51147 0.22644 0.13324 0.0
O614 O 0.57847 0.24903 0.17167 0.0
O615 O 0.54799 0.20123 0.18986 0.0
C616 C 0.42856 0.09032 0.1044 0.0
C617 C 0.39951 0.11283 0.10578 0.0
H618 H 0.35057 0.16424 0.11269 0.0
H619 H 0.36536 0.22572 0.14095 0.0
H620 H 0.55209 0.08254 0.12941 0.0
H621 H 0.49169 0.05589 0.10421 0.0
H622 H 0.42347 0.06302 0.09283 0.0
H623 H 0.37263 0.10262 0.09497 0.0
C624 C 0.23661 0.75316 0.92063 0.0
C625 C 0.26966 0.74778 0.90619 0.0
C626 C 0.2346 0.78024 0.94616 0.0
C627 C 0.26548 0.80319 0.95803 0.0
H628 H 0.21181 0.73669 0.91176 0.0
H629 H 0.20857 0.78389 0.956 0.0
S630 S 0.35961 0.79731 0.93296 0.0
N631 N 0.33466 0.76624 0.90832 0.0
N632 N 0.33098 0.81585 0.95693 0.0
C633 C 0.29906 0.79675 0.94544 0.0
C634 C 0.30114 0.76939 0.9194 0.0
C635 C 0.04917 0.55722 0.37237 0.0
C636 C 0.03653 0.52363 0.38228 0.0
C637 C 0.07004 0.55946 0.34558 0.0
C638 C 0.07955 0.52821 0.3275 0.0
H639 H 0.04316 0.5822 0.38549 0.0
H640 H 0.07939 0.58617 0.33952 0.0
S641 S 0.05164 0.43348 0.34277 0.0
N642 N 0.03359 0.45835 0.3714 0.0
N643 N 0.07323 0.46232 0.32109 0.0
C644 C 0.06636 0.49433 0.33679 0.0
C645 C 0.04475 0.49212 0.36407 0.0
C646 C 0.84598 0.79333 0.91836 0.0
C647 C 0.82143 0.79801 0.89142 0.0
C648 C 0.83735 0.76784 0.94081 0.0
C649 C 0.80388 0.74625 0.937 0.0
H650 H 0.87147 0.81016 0.92259 0.0
H651 H 0.85633 0.76599 0.96179 0.0
S652 S 0.73292 0.74504 0.86742 0.0
N653 N 0.76468 0.77623 0.86018 0.0
N654 N 0.74776 0.72979 0.90183 0.0
C655 C 0.78016 0.74987 0.90904 0.0
C656 C 0.7891 0.7753 0.88643 0.0
C657 C 0.01764 0.02136 0.40797 0.0
C658 C 0.05272 1.0088 0.41018 0.0
C659 C 0.99833 0.02317 0.37756 0.0
C660 C 1.01321 0.01179 0.34841 0.0
H661 H 1.00498 0.0296 0.42992 0.0
H662 H 0.97097 0.03202 0.3769 0.0
S663 S 0.10451 0.97796 0.34102 0.0
N664 N 0.10216 0.98643 0.38064 0.0
N665 N 0.06533 0.98846 0.32364 0.0
C666 C 0.04844 0.99974 0.35032 0.0
C667 C 0.06837 0.99866 0.38117 0.0
C668 C 0.22235 0.29138 0.61326 0.0
C669 C 0.25228 0.29936 0.63659 0.0
C670 C 0.22482 0.26821 0.58503 0.0
C671 C 0.25728 0.25187 0.57912 0.0
H672 H 0.19691 0.30345 0.6167 0.0
H673 H 0.20097 0.26296 0.56783 0.0
S674 S 0.34318 0.26326 0.63375 0.0
N675 N 0.31488 0.28837 0.65266 0.0
N676 N 0.32006 0.24541 0.59974 0.0
C677 C 0.28738 0.2596 0.60257 0.0
C678 C 0.28476 0.28317 0.63121 0.0
C679 C 0.50961 0.52455 0.63804 0.0
C680 C 0.54717 0.5191 0.63751 0.0
C681 C 0.49105 0.52179 0.66632 0.0
C682 C 0.50883 0.51253 0.69529 0.0
H683 H 0.49404 0.53063 0.6162 0.0
H684 H 0.46218 0.5258 0.66519 0.0
S685 S 0.60654 0.49595 0.70823 0.0
N686 N 0.60155 0.50536 0.66989 0.0
N687 N 0.56582 0.49783 0.72222 0.0
C688 C 0.54603 0.50648 0.69534 0.0
C689 C 0.56535 0.51025 0.66673 0.0
C690 C 0.8575 0.31523 0.64396 0.0
C691 C 0.86124 0.27842 0.63555 0.0
C692 C 0.84637 0.33787 0.62035 0.0
C693 C 0.83986 0.32472 0.58741 0.0
H694 H 0.86149 0.32621 0.6692 0.0
H695 H 0.84186 0.3656 0.62806 0.0
S696 S 0.84947 0.23124 0.55242 0.0
N697 N 0.85986 0.23028 0.59188 0.0
N698 N 0.84016 0.27318 0.54724 0.0
C699 C 0.84567 0.28849 0.5784 0.0
C700 C 0.85604 0.26519 0.60259 0.0
C701 C 0.57665 0.0177 0.62321 0.0
C702 C 0.53991 0.02649 0.62172 0.0
C703 C 0.59794 0.01858 0.65294 0.0
C704 C 0.58375 0.02905 0.68251 0.0
H705 H 0.58945 1.01056 0.60109 0.0
H706 H 0.62619 0.01239 0.65265 0.0
S707 S 0.4895 0.05356 0.69323 0.0
N708 N 0.49008 0.04422 0.65351 0.0
N709 N 0.531 0.04808 0.70904 0.0
C710 C 0.54736 0.03806 0.68169 0.0
C711 C 0.52527 0.03632 0.65146 0.0
C712 C 0.93375 0.1631 0.77764 0.0
C713 C 0.91579 0.1903 0.76275 0.0
C714 C 0.96052 0.17188 0.80372 0.0
C715 C 0.96931 0.20799 0.81615 0.0
H716 H 0.92707 0.13492 0.76906 0.0
H717 H 0.97371 0.15035 0.81473 0.0
S718 S 0.93295 0.28932 0.78428 0.0
N719 N 0.91025 0.25499 0.76176 0.0
N720 N 0.961 0.27116 0.81004 0.0
C721 C 0.95261 0.23538 0.80085 0.0
C722 C 0.92558 0.22661 0.77442 0.0
C723 C 0.50096 0.88803 0.48143 0.0
C724 C 0.53535 0.90603 0.49132 0.0
C725 C 0.49764 0.85501 0.46229 0.0
C726 C 0.52855 0.83874 0.45174 0.0
H727 H 0.47624 0.89936 0.4886 0.0
H728 H 0.47036 0.84256 0.45529 0.0
S729 S 0.62507 0.87472 0.47209 0.0
N730 N 0.60107 0.90499 0.49034 0.0
N731 N 0.59497 0.84305 0.4536 0.0
C732 C 0.56324 0.85635 0.46181 0.0
C733 C 0.56659 0.88989 0.48181 0.0
C734 C 0.17586 0.31958 0.82295 0.0
C735 C 0.16639 0.32788 0.791 0.0
C736 C 0.14932 0.30618 0.8425 0.0
C737 C 0.11218 0.30143 0.83111 0.0
H738 H 0.20418 0.32253 0.83262 0.0
H739 H 0.15803 0.29925 0.86664 0.0
S740 S 0.07285 0.32151 0.74987 0.0
N741 N 0.11716 0.33181 0.74924 0.0
N742 N 0.06716 0.30743 0.78611 0.0
C743 C 0.1022 0.31086 0.79955 0.0
C744 C 0.12933 0.32386 0.77945 0.0
C745 C 0.5878 0.64341 0.47305 0.0
C746 C 0.5646 0.62646 0.49368 0.0
C747 C 0.57518 0.66818 0.45201 0.0
C748 C 0.53863 0.67713 0.45053 0.0
H749 H 0.61617 0.63753 0.47318 0.0
H750 H 0.59446 0.68041 0.4368 0.0
S751 S 0.46626 0.63942 0.49922 0.0
N752 N 0.50304 0.6198 0.51113 0.0
N753 N 0.47911 0.66626 0.47164 0.0
C754 C 0.51496 0.66012 0.47101 0.0
C755 C 0.52795 0.63485 0.49255 0.0
C756 C 0.97046 0.7924 0.78506 0.0
C757 C 0.94692 0.82006 0.78179 0.0
C758 C 0.98918 0.77927 0.75886 0.0
C759 C 0.98582 0.79393 0.72862 0.0
H760 H 0.97318 0.77962 0.80762 0.0
H761 H 1.00559 0.75666 0.76198 0.0
S762 S 0.93046 0.86903 0.70808 0.0
N763 N 0.92312 0.86338 0.74633 0.0
N764 N 0.95908 0.83896 0.6973 0.0
C765 C 0.96409 0.82297 0.72546 0.0
C766 C 0.94439 0.83597 0.75201 0.0
C767 C 0.04109 0.89356 0.55375 0.0
C768 C 0.0654 0.92283 0.56756 0.0
C769 C 0.03369 0.86298 0.57083 0.0
C770 C 0.05077 0.86034 0.60208 0.0
H771 H 0.02796 0.89402 0.52949 0.0
H772 H 1.01546 0.84076 0.55901 0.0
S773 S 0.11481 0.93056 0.64969 0.0
N774 N 0.1049 0.94794 0.61498 0.0
N775 N 0.09161 0.89055 0.64669 0.0
C776 C 0.07438 0.88982 0.61637 0.0
C777 C 0.08151 0.92102 0.59921 0.0
C778 C 0.17765 0.71319 0.71376 0.0
C779 C 0.17597 0.6988 0.74401 0.0
C780 C 0.14569 0.7192 0.69499 0.0
C781 C 0.11092 0.71012 0.70543 0.0
H782 H 0.20386 0.72093 0.70502 0.0
H783 H 0.14823 0.7311 0.67216 0.0
S784 S 0.09181 0.66947 0.78195 0.0
N785 N 0.13682 0.67429 0.78303 0.0
N786 N 0.07683 0.68478 0.74749 0.0
C787 C 0.10893 0.6945 0.73513 0.0
C788 C 0.14144 0.68906 0.7545 0.0
C789 C 0.97449 0.65044 0.54611 0.0
C790 C 1.00026 0.62684 0.53574 0.0
C791 C 0.98473 0.68013 0.569 0.0
C792 C 0.02093 0.6869 0.58267 0.0
H793 H 0.9462 0.64592 0.53645 0.0
H794 H 0.96414 0.69778 0.57626 0.0
S795 S 0.09875 0.63361 0.56391 0.0
N796 N 0.06362 0.61248 0.541 0.0
N797 N 0.08275 0.66862 0.58372 0.0
C798 C 0.04712 0.66424 0.57194 0.0
C799 C 0.03676 0.63396 0.54872 0.0
C800 C 0.81733 0.9177 0.24224 0.0
C801 C 0.80428 0.91124 0.20917 0.0
C802 C 0.84622 0.9437 0.25249 0.0
C803 C 0.86396 0.96355 0.23005 0.0
H804 H 0.80592 0.90186 0.2604 0.0
H805 H 0.85518 0.94785 0.27818 0.0
S806 S 0.83788 0.96115 0.14167 0.0
N807 N 0.80901 0.93042 0.1546 0.0
N808 N 0.86451 0.97822 0.17407 0.0
C809 C 0.85031 0.95894 0.1973 0.0
C810 C 0.82046 0.93277 0.18676 0.0
C811 C 0.83612 0.12836 0.34737 0.0
C812 C 0.83079 0.15984 0.3317 0.0
C813 C 0.86143 0.10423 0.33699 0.0
C814 C 0.88283 0.1109 0.31086 0.0
H815 H 0.8194 0.12149 0.36678 0.0
H816 H 0.86349 0.07961 0.34899 0.0
S817 S 0.88087 0.19121 0.26344 0.0
N818 N 0.85001 0.19742 0.28992 0.0
N819 N 0.89809 0.15276 0.27087 0.0
C820 C 0.87896 0.14331 0.29613 0.0
C821 C 0.85278 0.16753 0.30638 0.0
C822 C 0.38782 0.02406 1.00365 0.0
C823 C 0.42299 0.0117 1.00571 0.0
C824 C 0.35682 1.00078 1.00715 0.0
C825 C 0.36008 0.96475 0.014 0.0
H826 H 0.38418 0.05156 0.99813 0.0
H827 H 0.33004 1.01068 1.00353 0.0
S828 S 0.44619 0.9199 0.02337 0.0
N829 N 0.45942 0.96158 0.01587 0.0
N830 N 0.40125 0.91809 0.02345 0.0
C831 C 0.39521 0.95256 0.01748 0.0
C832 C 0.42667 0.97598 1.01308 0.0
C833 C 0.23994 0.37293 0.28858 0.0
C834 C 0.25827 0.37855 0.31997 0.0
C835 C 0.21428 0.39641 0.27788 0.0
C836 C 0.2066 0.42689 0.29793 0.0
H837 H 0.24644 0.35088 0.27176 0.0
H838 H 0.20206 0.39185 0.25308 0.0
S839 S 0.24513 0.45208 0.38309 0.0
N840 N 0.26501 0.41532 0.37169 0.0
N841 N 0.21751 0.45981 0.35154 0.0
C842 C 0.2235 0.4318 0.32989 0.0
C843 C 0.24912 0.40755 0.34092 0.0
C844 C 0.16511 0.06855 0.52256 0.0
C845 C 0.15899 0.05038 0.491 0.0
C846 C 0.19501 0.09437 0.53088 0.0
C847 C 0.21913 0.10369 0.50764 0.0
H848 H 0.14592 0.06386 0.54065 0.0
H849 H 0.19823 0.10836 0.55509 0.0
S850 S 0.22004 0.05945 0.42405 0.0
N851 N 0.18368 0.03972 0.43834 0.0
N852 N 0.23832 0.08951 0.45352 0.0
C853 C 0.21473 0.08436 0.47678 0.0
C854 C 0.18497 0.05753 0.46852 0.0
C855 C 0.78469 0.12058 0.7531 0.0
C856 C 0.79568 0.12359 0.72143 0.0
C857 C 0.75481 0.0972 0.75882 0.0
C858 C 0.73405 0.07658 0.73306 0.0
H859 H 0.79889 0.13668 0.77379 0.0
H860 H 0.74789 0.09526 0.78366 0.0
S861 S 0.75274 0.07084 0.64616 0.0
N862 N 0.78482 0.10081 0.66423 0.0
N863 N 0.72765 0.05786 0.67521 0.0
C864 C 0.74509 0.07813 0.70147 0.0
C865 C 0.77588 0.10165 0.69556 0.0
C866 C 0.41089 0.05687 0.5237 0.0
C867 C 0.4442 0.07075 0.54107 0.0
C868 C 0.38386 0.07951 0.51433 0.0
C869 C 0.38854 0.11708 0.52238 0.0
H870 H 0.40519 0.02801 0.51779 0.0
H871 H 0.35847 0.06725 0.50184 0.0
S872 S 0.47133 0.16796 0.56525 0.0
N873 N 0.48104 0.12531 0.56369 0.0
N874 N 0.42964 0.16754 0.54744 0.0
C875 C 0.42179 0.13153 0.53925 0.0
C876 C 0.44965 0.10852 0.54833 0.0
C877 C 0.63785 0.44737 0.55655 0.0
C878 C 0.63993 0.48526 0.55563 0.0
C879 C 0.66442 0.42642 0.54321 0.0
C880 C 0.69363 0.44249 0.52788 0.0
H881 H 0.61509 0.43366 0.5669 0.0
H882 H 0.66165 0.39738 0.54423 0.0
S883 S 0.71487 0.54064 0.52301 0.0
N884 N 0.67671 0.53803 0.54154 0.0
N885 N 0.72492 0.49852 0.51512 0.0
C886 C 0.69666 0.48024 0.52765 0.0
C887 C 0.67032 0.50162 0.54186 0.0
C888 C 0.73517 0.25218 0.42074 0.0
C889 C 0.76835 0.24774 0.40621 0.0
C890 C 0.73233 0.27955 0.44582 0.0
C891 C 0.76249 0.30369 0.4572 0.0
H892 H 0.71087 0.23478 0.41222 0.0
H893 H 0.70619 0.28249 0.45567 0.0
S894 S 0.85685 0.30055 0.43201 0.0
N895 N 0.83281 0.26833 0.40791 0.0
N896 N 0.82766 0.31845 0.45576 0.0
C897 C 0.79629 0.29816 0.44465 0.0
C898 C 0.7992 0.27053 0.41903 0.0
C899 C 0.55685 0.99645 0.86941 0.0
C900 C 0.54398 0.02669 0.88623 0.0
C901 C 0.5781 1.0002 0.8428 0.0
C902 C 0.58694 0.03435 0.83167 0.0
H903 H 0.55125 0.96976 0.8774 0.0
H904 H 0.58801 0.97611 0.83117 0.0
S905 S 0.55653 0.12183 0.86575 0.0
N906 N 0.53938 0.09163 0.88863 0.0
N907 N 0.5788 0.09889 0.8389 0.0
C908 C 0.57294 0.06469 0.84773 0.0
C909 C 0.55162 0.06082 0.8749 0.0
C910 C 0.30943 0.30998 0.42302 0.0
C911 C 0.32218 0.29647 0.39348 0.0
C912 C 0.30587 0.28825 0.44898 0.0
C913 C 0.31555 0.25233 0.4468 0.0
H914 H 0.30094 0.33721 0.42575 0.0
H915 H 0.2936 0.29902 0.47036 0.0
S916 S 0.35067 0.20369 0.3754 0.0
N917 N 0.34478 0.24443 0.36395 0.0
N918 N 0.33902 0.20434 0.41322 0.0
C919 C 0.33003 0.23898 0.41819 0.0
C920 C 0.33314 0.26085 0.39145 0.0
C921 C 0.5579 0.48191 0.88406 0.0
C922 C 0.55311 0.5076 0.90984 0.0
C923 C 0.53888 0.48255 0.85344 0.0
C924 C 0.51432 0.50901 0.84732 0.0
H925 H 0.57608 0.46081 0.88777 0.0
H926 H 0.54293 0.46158 0.83458 0.0
S927 S 0.49286 0.58272 0.90733 0.0
N928 N 0.52268 0.56034 0.92768 0.0
N929 N 0.48711 0.56209 0.87013 0.0
C930 C 0.51018 0.53552 0.87288 0.0
C931 C 0.52944 0.53462 0.90414 0.0
C932 C 0.72276 0.79655 0.10909 0.0
C933 C 0.7526 0.80434 0.13254 0.0
C934 C 0.72493 0.77261 0.0813 0.0
C935 C 0.75695 0.75523 0.076 0.0
H936 H 0.69758 0.80922 0.11218 0.0
H937 H 0.70109 0.76738 0.06408 0.0
S938 S 0.84251 0.76604 0.13105 0.0
N939 N 0.8147 0.79232 0.1493 0.0
N940 N 0.81933 0.74789 0.09717 0.0
C941 C 0.78703 0.76296 0.09947 0.0
C942 C 0.78472 0.78733 0.12766 0.0
C943 C 0.04013 0.04783 0.15777 0.0
C944 C 0.05224 0.01792 0.13941 0.0
C945 C 0.02081 0.04367 0.1856 0.0
C946 C 1.01304 1.00942 0.19678 0.0
H947 H 0.0452 0.07485 0.15037 0.0
H948 H 1.01149 0.06753 0.19815 0.0
S949 S 0.03961 0.92216 0.15818 0.0
N950 N 0.05482 0.95272 0.13474 0.0
N951 N 0.02084 0.94492 0.1876 0.0
C952 C 0.0263 0.97939 0.17933 0.0
C953 C 0.04529 0.98362 0.15066 0.0
C954 C 0.37771 0.77245 0.10372 0.0
C955 C 0.36066 0.76624 0.13226 0.0
C956 C 0.36613 0.79869 0.08358 0.0
C957 C 0.3377 0.82015 0.09176 0.0
H958 H 0.39909 0.75592 0.09623 0.0
H959 H 0.37887 0.80146 0.06104 0.0
S960 S 0.28789 0.81742 0.16666 0.0
N961 N 0.31644 0.78554 0.16934 0.0
N962 N 0.29519 0.83533 0.13231 0.0
C963 C 0.32209 0.81555 0.12144 0.0
C964 C 0.33342 0.78844 0.14148 0.0
C965 C 0.02774 0.54222 0.14607 0.0
C966 C 0.04161 0.53009 0.11659 0.0
C967 C 0.04864 0.54276 0.1761 0.0
C968 C 0.08387 0.53039 0.17794 0.0
H969 H 1.00026 0.5507 0.14605 0.0
H970 H 0.03702 0.55263 0.19812 0.0
S971 S 0.13491 0.50055 0.10805 0.0
N972 N 0.09482 0.50929 0.09128 0.0
N973 N 0.13292 0.50868 0.14772 0.0
C974 C 0.09839 0.51898 0.14878 0.0
C975 C 0.0776 0.51926 0.11817 0.0
C976 C 0.43472 0.66425 0.28137 0.0
C977 C 0.41558 0.69057 0.26626 0.0
C978 C 0.46249 0.67417 0.30646 0.0
C979 C 0.47136 0.71064 0.31771 0.0
H980 H 0.42826 0.6358 0.27374 0.0
H981 H 0.47652 0.65323 0.3176 0.0
S982 S 0.43252 0.79017 0.2846 0.0
N983 N 0.40911 0.75501 0.2639 0.0
N984 N 0.46201 0.77321 0.30993 0.0
C985 C 0.45357 0.73719 0.30212 0.0
C986 C 0.42538 0.72727 0.27678 0.0
C987 C 0.05302 0.38661 0.97937 0.0
C988 C 0.02242 0.3996 0.99337 0.0
C989 C 0.05036 0.3535 0.96008 0.0
C990 C 0.01706 0.33181 0.95454 0.0
H991 H 0.07906 0.40262 0.98265 0.0
H992 H 0.0745 0.34519 0.94906 0.0
S993 S 0.92965 0.35241 0.98913 0.0
N994 N 0.9585 0.38746 1.00251 0.0
N995 N 0.95324 0.32512 0.96703 0.0
C996 C 0.98657 0.34401 0.96978 0.0
C997 C 0.98928 0.37793 0.98897 0.0
C998 C 0.63453 0.8231 0.27701 0.0
C999 C 0.6714 0.83045 0.28872 0.0
C1000 C 0.60846 0.80985 0.29708 0.0
C1001 C 0.61847 0.80281 0.32932 0.0
H1002 H 0.62572 0.82748 0.25217 0.0
H1003 H 0.58045 0.80406 0.28692 0.0
S1004 S 0.71117 0.81917 0.37199 0.0
N1005 N 0.71629 0.83139 0.335 0.0
N1006 N 0.6675 0.80555 0.37239 0.0
C1007 C 0.65512 0.81061 0.34144 0.0
C1008 C 0.68151 0.82472 0.32123 0.0
C1009 C 0.08234 0.13715 0.97097 0.0
C1010 C 0.05927 0.11915 0.99105 0.0
C1011 C 0.0694 0.16223 0.95042 0.0
C1012 C 0.03262 0.17043 0.94886 0.0
H1013 H 0.1109 0.13194 0.97121 0.0
H1014 H 0.08863 0.17529 0.93566 0.0
S1015 S 0.96044 0.12978 0.99611 0.0
N1016 N 0.99758 0.11061 1.00785 0.0
N1017 N 0.973 0.15766 0.96923 0.0
C1018 C 1.00903 0.15228 0.96871 0.0
C1019 C 0.02238 0.1267 0.98978 0.0
C1020 C 0.42877 0.32717 0.24506 0.0
C1021 C 0.43937 0.32244 0.27781 0.0
C1022 C 0.44958 0.31508 0.21982 0.0
C1023 C 0.48158 0.29792 0.22653 0.0
H1024 H 0.40362 0.33912 0.23868 0.0
H1025 H 0.43955 0.31739 0.19484 0.0
S1026 S 0.52252 0.28113 0.30782 0.0
N1027 N 0.48532 0.30143 0.31544 0.0
N1028 N 0.52388 0.27817 0.26785 0.0
C1029 C 0.49328 0.29438 0.25906 0.0
C1030 C 0.47235 0.3069 0.28476 0.0
C1031 C 0.53846 0.39335 0.0534 0.0
C1032 C 0.56154 0.42333 0.06762 0.0
C1033 C 0.53149 0.36271 0.07046 0.0
C1034 C 0.54784 0.36079 0.10207 0.0
H1035 H 0.52601 0.39328 0.02883 0.0
H1036 H 0.51428 0.3399 0.05835 0.0
S1037 S 0.60838 0.43302 0.15083 0.0
N1038 N 0.59891 0.44992 0.1158 0.0
N1039 N 0.58648 0.39236 0.1475 0.0
C1040 C 0.57013 0.39099 0.11679 0.0
C1041 C 0.57678 0.42224 0.09966 0.0
C1042 C 0.64156 0.19587 0.25662 0.0
C1043 C 0.676 0.20065 0.24421 0.0
C1044 C 0.60952 0.20186 0.23803 0.0
C1045 C 0.61088 0.21356 0.20667 0.0
H1046 H 0.63927 0.1876 0.28093 0.0
H1047 H 0.58362 0.19826 0.24864 0.0
S1048 S 0.69394 0.2281 0.1624 0.0
N1049 N 0.70933 0.2159 0.19806 0.0
N1050 N 0.6492 0.22803 0.16338 0.0
C1051 C 0.64504 0.21779 0.19376 0.0
C1052 C 0.67757 0.21104 0.21245 0.0
C1053 C 0.47727 0.14713 0.04961 0.0
C1054 C 0.50406 0.124 0.04071 0.0
C1055 C 0.48616 0.17779 0.07169 0.0
C1056 C 0.52196 0.18599 0.08594 0.0
H1057 H 0.4493 0.1416 0.03931 0.0
H1058 H 0.46488 0.19513 0.07776 0.0
S1059 S 0.60196 0.13434 0.0711 0.0
N1060 N 0.56786 0.11152 0.04808 0.0
N1061 N 0.58445 0.16948 0.08925 0.0
C1062 C 0.54911 0.1637 0.07676 0.0
C1063 C 0.54013 0.13245 0.0544 0.0
C1064 C 0.31767 0.41299 0.74546 0.0
C1065 C 0.30348 0.4065 0.71271 0.0
C1066 C 0.34651 0.43933 0.75495 0.0
C1067 C 0.3629 0.45959 0.73201 0.0
H1068 H 0.30715 0.39695 0.76388 0.0
H1069 H 0.35643 0.44351 0.78042 0.0
S1070 S 0.33341 0.4571 0.64428 0.0
N1071 N 0.30572 0.42589 0.65797 0.0
N1072 N 0.36094 0.47447 0.676 0.0
C1073 C 0.34808 0.45487 0.69961 0.0
C1074 C 0.31838 0.42831 0.68986 0.0
C1075 C 0.34963 0.66159 0.80574 0.0
C1076 C 0.32937 0.65656 0.83279 0.0
C1077 C 0.37536 0.63747 0.7964 0.0
C1078 C 0.38128 0.60683 0.81329 0.0
H1079 H 0.34493 0.68395 0.79121 0.0
H1080 H 0.38941 0.64196 0.77482 0.0
S1081 S 0.3366 0.58254 0.88694 0.0
N1082 N 0.31837 0.61983 0.8774 0.0
N1083 N 0.36597 0.57403 0.85954 0.0
C1084 C 0.36201 0.60217 0.84103 0.0
C1085 C 0.33629 0.62714 0.85086 0.0
C1086 C 0.9196 0.47932 0.50491 0.0
C1087 C 0.91577 0.5162 0.50182 0.0
C1088 C 0.88929 0.45542 0.50909 0.0
C1089 C 0.8541 0.46752 0.5098 0.0
H1090 H 0.94612 0.4688 0.50357 0.0
H1091 H 0.89309 0.42694 0.51004 0.0
S1092 S 0.8296 0.56145 0.50372 0.0
N1093 N 0.87425 0.5639 0.50116 0.0
N1094 N 0.81715 0.5186 0.50779 0.0
C1095 C 0.85001 0.50436 0.50744 0.0
C1096 C 0.88092 0.52884 0.50385 0.0
C1097 C 0.75465 0.88528 0.79326 0.0
C1098 C 0.77307 0.89245 0.8245 0.0
C1099 C 0.72755 0.90707 0.78225 0.0
C1100 C 0.71848 0.93732 0.80183 0.0
H1101 H 0.76172 0.86299 0.77701 0.0
H1102 H 0.71498 0.90125 0.75765 0.0
S1103 S 0.75734 0.96639 0.88624 0.0
N1104 N 0.7789 0.9305 0.87547 0.0
N1105 N 0.72884 0.97208 0.85464 0.0
C1106 C 0.73595 0.94404 0.83349 0.0
C1107 C 0.763 0.92145 0.84487 0.0
C1108 C 0.66312 0.56809 0.02396 0.0
C1109 C 0.65775 0.54928 0.99261 0.0
C1110 C 0.69338 0.59344 0.03267 0.0
C1111 C 0.7187 0.60146 1.01004 0.0
H1112 H 0.64304 0.56434 0.04147 0.0
H1113 H 0.69587 0.60818 0.05655 0.0
S1114 S 0.7219 0.55461 0.92774 0.0
N1115 N 0.68431 0.53637 0.94119 0.0
N1116 N 0.73982 0.58503 0.95706 0.0
C1117 C 0.71509 0.58122 0.9796 0.0
C1118 C 0.68489 0.55502 0.97095 0.0
C1119 C 0.27415 0.60038 0.20277 0.0
C1120 C 0.29498 0.61938 0.22985 0.0
C1121 C 0.24376 0.57654 0.20664 0.0
C1122 C 0.23283 0.57101 0.23768 0.0
H1123 H 0.28127 0.6039 0.17824 0.0
H1124 H 0.22835 0.56282 0.18519 0.0
S1125 S 0.28091 0.60743 0.31668 0.0
N1126 N 0.30364 0.62714 0.28918 0.0
N1127 N 0.24776 0.58097 0.2959 0.0
C1128 C 0.25442 0.58751 0.26493 0.0
C1129 C 0.28515 0.61206 0.26116 0.0
C1130 C 0.92528 0.59204 0.06223 0.0
C1131 C 0.9437 0.5737 0.03805 0.0
C1132 C 0.89784 0.61477 0.05418 0.0
C1133 C 0.88689 0.61971 0.02156 0.0
H1134 H 0.93117 0.58798 0.08765 0.0
H1135 H 0.88412 0.62762 0.07378 0.0
S1136 S 0.92894 0.58214 0.94895 0.0
N1137 N 0.95151 0.56597 0.97982 0.0
N1138 N 0.89819 0.60667 0.96501 0.0
C1139 C 0.90544 0.60246 0.99711 0.0
C1140 C 0.93423 0.58007 1.00526 0.0
C1141 C 0.16811 0.99771 0.03625 0.0
C1142 C 0.14157 0.9826 0.05531 0.0
C1143 C 0.19449 0.97702 0.02265 0.0
C1144 C 0.19627 0.94044 0.02811 0.0
H1145 H 0.16865 0.02596 0.03173 0.0
H1146 H 0.21416 0.99005 1.00826 0.0
S1147 S 0.13336 0.88698 0.07529 0.0
N1148 N 0.11841 0.92775 0.07769 0.0
N1149 N 0.16923 0.88963 0.05366 0.0
C1150 C 0.17049 0.92494 0.04745 0.0
C1151 C 0.14298 0.94579 0.06072 0.0
loop_
_geom_bond_atom_site_label_1
_geom_bond_atom_site_label_2
_geom_bond_distance
_geom_bond_site_symmetry_2
_ccdc_geom_bond_type
H0 C5 0.930 . S
H1 C8 0.913 1_556 S
H2 C10 0.930 1_565 S
H3 C4 1.016 . S
C4 H3 1.016 . S
C4 N11 1.286 1_556 S
C5 H0 0.930 . S
C5 C6 1.397 . S
C5 C7 1.361 . S
C6 C5 1.397 . S
C6 C10 1.390 . S
C7 C5 1.361 . S
C7 C8 1.393 . S
C7 N11 1.413 . S
C8 H1 0.913 1_554 S
C8 C7 1.393 . S
C8 C9 1.399 . S
C9 C8 1.399 . S
C9 C10 1.381 . S
C10 H2 0.930 1_545 S
C10 C6 1.390 . S
C10 C9 1.381 . S
N11 C4 1.286 1_554 S
N11 C7 1.413 . S
H12 C17 0.930 . S
H13 C20 0.930 . S
H14 C22 0.930 . S
H15 C16 1.016 . S
C16 H15 1.016 . S
C16 N23 1.286 . S
C17 H12 0.930 . S
C17 C18 1.397 . S
C17 C19 1.361 . S
C18 C17 1.397 . S
C18 C22 1.390 . S
C19 C17 1.361 . S
C19 C20 1.393 . S
C19 N23 1.413 . S
C20 H13 0.930 . S
C20 C19 1.393 . S
C20 C21 1.399 . S
C21 C20 1.399 . S
C21 C22 1.381 . S
C22 H14 0.930 . S
C22 C18 1.390 . S
C22 C21 1.381 . S
N23 C16 1.286 . S
N23 C19 1.413 . S
H24 C29 0.930 . S
H25 C32 0.930 1_455 S
H26 C34 0.930 . S
H27 C28 1.016 1_454 S
C28 H27 1.016 1_656 S
C28 N35 1.296 . S
C29 H24 0.930 . S
C29 C30 1.397 . S
C29 C31 1.361 . S
C30 C29 1.397 . S
C30 C34 1.390 . S
C31 C29 1.361 . S
C31 C32 1.393 . S
C31 N35 1.390 1_554 S
C32 H25 0.930 1_655 S
C32 C31 1.393 . S
C32 C33 1.399 . S
C33 C32 1.399 . S
C33 C34 1.381 . S
C34 H26 0.930 . S
C34 C30 1.390 . S
C34 C33 1.381 . S
N35 C28 1.296 . S
N35 C31 1.390 1_556 S
H36 C41 0.930 . S
H37 C44 0.930 . S
H38 C46 0.930 . S
H39 C40 1.016 . S
C40 H39 1.016 . S
C40 N47 1.286 . S
C41 H36 0.930 . S
C41 C42 1.397 . S
C41 C43 1.361 . S
C42 C41 1.397 . S
C42 C46 1.390 . S
C43 C41 1.361 . S
C43 C44 1.393 . S
C43 N47 1.413 . S
C44 H37 0.930 . S
C44 C43 1.393 . S
C44 C45 1.399 . S
C45 C44 1.399 . S
C45 C46 1.381 . S
C46 H38 0.930 . S
C46 C42 1.390 . S
C46 C45 1.381 . S
N47 C40 1.286 . S
N47 C43 1.413 . S
H48 C53 0.930 . S
H49 C56 0.930 . S
H50 C58 0.930 . S
H51 C52 1.016 . S
C52 H51 1.016 . S
C52 N59 1.286 . S
C53 H48 0.930 . S
C53 C54 1.396 1_565 S
C53 C55 1.361 . S
C54 C53 1.396 1_545 S
C54 C58 1.391 . S
C55 C53 1.361 . S
C55 C56 1.393 . S
C55 N59 1.413 . S
C56 H49 0.930 . S
C56 C55 1.393 . S
C56 C57 1.399 1_565 S
C57 C56 1.399 1_545 S
C57 C58 1.381 . S
C58 H50 0.930 . S
C58 C54 1.391 . S
C58 C57 1.381 . S
N59 C52 1.286 . S
N59 C55 1.413 . S
H60 C65 0.930 . S
H61 C68 0.930 . S
H62 C70 0.930 . S
H63 C64 1.016 . S
C64 H63 1.016 . S
C64 N71 1.286 . S
C65 H60 0.930 . S
C65 C66 1.397 . S
C65 C67 1.361 . S
C66 C65 1.397 . S
C66 C70 1.390 . S
C67 C65 1.361 . S
C67 C68 1.393 . S
C67 N71 1.413 . S
C68 H61 0.930 . S
C68 C67 1.393 . S
C68 C69 1.399 . S
C69 C68 1.399 . S
C69 C70 1.381 . S
C70 H62 0.930 . S
C70 C66 1.390 . S
C70 C69 1.381 . S
N71 C64 1.286 . S
N71 C67 1.413 . S
H72 C77 0.930 . S
H73 C80 0.930 . S
H74 C82 0.930 . S
H75 C76 1.016 . S
C76 H75 1.016 . S
C76 N83 1.286 . S
C77 H72 0.930 . S
C77 C78 1.397 1_455 S
C77 C79 1.361 . S
C78 C77 1.397 1_655 S
C78 C82 1.390 . S
C79 C77 1.361 . S
C79 C80 1.393 1_455 S
C79 N83 1.413 . S
C80 H73 0.930 . S
C80 C79 1.393 1_655 S
C80 C81 1.399 . S
C81 C80 1.399 . S
C81 C82 1.381 . S
C82 H74 0.930 . S
C82 C78 1.390 . S
C82 C81 1.381 . S
N83 C76 1.286 . S
N83 C79 1.413 . S
H84 C89 0.930 . S
H85 C92 0.930 . S
H86 C94 0.930 . S
H87 C88 1.016 . S
C88 H87 1.016 . S
C88 N95 1.286 . S
C89 H84 0.930 . S
C89 C90 1.397 . S
C89 C91 1.361 . S
C90 C89 1.397 . S
C90 C94 1.390 . S
C91 C89 1.361 . S
C91 C92 1.393 . S
C91 N95 1.413 . S
C92 H85 0.930 . S
C92 C91 1.393 . S
C92 C93 1.399 . S
C93 C92 1.399 . S
C93 C94 1.381 . S
C94 H86 0.930 . S
C94 C90 1.390 . S
C94 C93 1.381 . S
N95 C88 1.286 . S
N95 C91 1.413 . S
H96 C101 0.930 . S
H97 C104 0.930 . S
H98 C106 0.930 . S
H99 C100 1.016 . S
C100 H99 1.016 . S
C100 N107 1.286 . S
C101 H96 0.930 . S
C101 C102 1.397 . S
C101 C103 1.361 . S
C102 C101 1.397 . S
C102 C106 1.390 . S
C103 C101 1.361 . S
C103 C104 1.393 . S
C103 N107 1.413 . S
C104 H97 0.930 . S
C104 C103 1.393 . S
C104 C105 1.399 . S
C105 C104 1.399 . S
C105 C106 1.381 . S
C106 H98 0.930 . S
C106 C102 1.390 . S
C106 C105 1.381 . S
N107 C100 1.286 . S
N107 C103 1.413 . S
H108 C113 0.930 . S
H109 C116 0.930 . S
H110 C118 0.930 . S
H111 C112 1.016 . S
C112 H111 1.016 . S
C112 N119 1.286 . S
C113 H108 0.930 . S
C113 C114 1.397 1_565 S
C113 C115 1.361 . S
C114 C113 1.397 1_545 S
C114 C118 1.390 . S
C115 C113 1.361 . S
C115 C116 1.393 . S
C115 N119 1.413 . S
C116 H109 0.930 . S
C116 C115 1.393 . S
C116 C117 1.399 . S
C117 C116 1.399 . S
C117 C118 1.381 1_565 S
C118 H110 0.930 . S
C118 C114 1.390 . S
C118 C117 1.381 1_545 S
N119 C112 1.286 . S
N119 C115 1.413 . S
H120 C125 0.930 . S
H121 C128 0.930 . S
H122 C130 0.930 . S
H123 C124 1.016 . S
C124 H123 1.016 . S
C124 N131 1.286 . S
C125 H120 0.930 . S
C125 C126 1.397 . S
C125 C127 1.361 . S
C126 C125 1.397 . S
C126 C130 1.390 . S
C127 C125 1.361 . S
C127 C128 1.393 . S
C127 N131 1.413 . S
C128 H121 0.930 . S
C128 C127 1.393 . S
C128 C129 1.399 . S
C129 C128 1.399 . S
C129 C130 1.381 . S
C130 H122 0.930 . S
C130 C126 1.390 . S
C130 C129 1.381 . S
N131 C124 1.286 . S
N131 C127 1.413 . S
H132 C137 0.930 . S
H133 C140 0.930 . S
H134 C142 0.930 . S
H135 C136 1.016 . S
C136 H135 1.016 . S
C136 N143 1.286 . S
C137 H132 0.930 . S
C137 C138 1.397 . S
C137 C139 1.361 . S
C138 C137 1.397 . S
C138 C142 1.390 . S
C139 C137 1.361 . S
C139 C140 1.393 . S
C139 N143 1.413 . S
C140 H133 0.930 . S
C140 C139 1.393 . S
C140 C141 1.399 . S
C141 C140 1.399 . S
C141 C142 1.381 . S
C142 H134 0.930 . S
C142 C138 1.390 . S
C142 C141 1.381 . S
N143 C136 1.286 . S
N143 C139 1.413 . S
H144 C149 0.930 . S
H145 C152 0.930 . S
H146 C154 0.930 . S
H147 C148 1.016 . S
C148 H147 1.016 . S
C148 N155 1.286 . S
C149 H144 0.930 . S
C149 C150 1.397 . S
C149 C151 1.361 . S
C150 C149 1.397 . S
C150 C154 1.390 . S
C151 C149 1.361 . S
C151 C152 1.393 . S
C151 N155 1.413 . S
C152 H145 0.930 . S
C152 C151 1.393 . S
C152 C153 1.399 . S
C153 C152 1.399 . S
C153 C154 1.381 . S
C154 H146 0.930 . S
C154 C150 1.390 . S
C154 C153 1.381 . S
N155 C148 1.286 . S
N155 C151 1.413 . S
H156 C161 0.930 . S
H157 C164 0.930 1_554 S
H158 C166 0.930 . S
H159 C160 1.016 . S
C160 H159 1.016 . S
C160 N167 1.288 . S
C161 H156 0.930 . S
C161 C162 1.397 . S
C161 C163 1.361 . S
C162 C161 1.397 . S
C162 C166 1.390 . S
C163 C161 1.361 . S
C163 C164 1.393 . S
C163 N167 1.410 1_556 S
C164 H157 0.930 1_556 S
C164 C163 1.393 . S
C164 C165 1.399 . S
C165 C164 1.399 . S
C165 C166 1.381 . S
C166 H158 0.930 . S
C166 C162 1.390 . S
C166 C165 1.381 . S
N167 C160 1.288 . S
N167 C163 1.410 1_554 S
H168 C173 0.930 . S
H169 C176 0.930 . S
H170 C178 0.930 . S
H171 C172 1.016 . S
C172 H171 1.016 . S
C172 N179 1.286 . S
C173 H168 0.930 . S
C173 C174 1.397 . S
C173 C175 1.361 . S
C174 C173 1.397 . S
C174 C178 1.390 . S
C175 C173 1.361 . S
C175 C176 1.393 . S
C175 N179 1.413 . S
C176 H169 0.930 . S
C176 C175 1.393 . S
C176 C177 1.399 . S
C177 C176 1.399 . S
C177 C178 1.381 . S
C178 H170 0.930 . S
C178 C174 1.390 . S
C178 C177 1.381 . S
N179 C172 1.286 . S
N179 C175 1.413 . S
H180 C185 0.930 . S
H181 C188 0.930 1_565 S
H182 C190 0.930 . S
H183 C184 1.016 1_565 S
C184 H183 1.016 1_545 S
C184 N191 1.286 . S
C185 H180 0.930 . S
C185 C186 1.397 1_556 S
C185 C187 1.361 . S
C186 C185 1.397 1_554 S
C186 C190 1.390 . S
C187 C185 1.361 . S
C187 C188 1.393 . S
C187 N191 1.413 . S
C188 H181 0.930 1_545 S
C188 C187 1.393 . S
C188 C189 1.399 . S
C189 C188 1.399 . S
C189 C190 1.381 1_556 S
C190 H182 0.930 . S
C190 C186 1.390 . S
C190 C189 1.381 1_554 S
N191 C184 1.286 . S
N191 C187 1.413 . S
Mn192 O197 2.095 . S
Mn192 O207 2.162 . S
Mn192 O208 2.297 . S
Mn192 O216 2.385 . S
Mn192 O217 2.209 1_554 S
Mn192 O218 2.094 . S
Mn193 O198 2.121 . S
Mn193 N200 2.257 . S
Mn193 N209 2.282 . S
Mn193 O217 2.215 . S
Mn193 O219 2.117 . S
C194 O216 1.234 1_556 S
C194 O217 1.283 . S
C195 O207 1.281 . S
C195 O208 1.236 . S
C196 O218 1.240 . S
C196 O219 1.264 1_554 S
O197 Mn192 2.095 . S
O197 C206 1.250 . S
O198 Mn193 2.121 . S
O198 C206 1.258 1_556 S
C199 N200 1.326 . S
C199 C203 1.460 . S
C199 H205 0.929 . S
N200 Mn193 2.257 . S
N200 C199 1.326 . S
N200 C204 1.362 . S
C201 C202 1.258 . S
C201 C204 1.431 . S
C201 C221 1.449 . S
C202 C201 1.258 . S
C202 C203 1.477 . S
C202 H222 0.931 . S
C203 C199 1.460 . S
C203 C202 1.477 . S
C203 H223 0.930 . S
C204 N200 1.362 . S
C204 C201 1.431 . S
C204 C214 1.476 . S
H205 C199 0.929 . S
C206 O197 1.250 . S
C206 O198 1.258 1_554 S
O207 Mn192 2.162 . S
O207 C195 1.281 . S
O208 Mn192 2.297 . S
O208 C195 1.236 . S
N209 Mn193 2.282 . S
N209 C210 1.328 . S
N209 C214 1.318 . S
C210 N209 1.328 . S
C210 C211 1.457 . S
C210 H215 0.929 . S
C211 C210 1.457 . S
C211 C212 1.291 . S
C211 H224 0.931 . S
C212 C211 1.291 . S
C212 C213 1.373 . S
C212 H225 0.929 . S
C213 C212 1.373 . S
C213 C214 1.396 . S
C213 C220 1.403 . S
C214 C204 1.476 . S
C214 N209 1.318 . S
C214 C213 1.396 . S
H215 C210 0.929 . S
O216 Mn192 2.385 . S
O216 C194 1.234 1_554 S
O217 Mn192 2.209 1_556 S
O217 Mn193 2.215 . S
O217 C194 1.283 . S
O218 Mn192 2.094 . S
O218 C196 1.240 . S
O219 Mn193 2.117 . S
O219 C196 1.264 1_556 S
C220 C213 1.403 . S
C220 C221 1.399 . S
C220 H226 0.929 . S
C221 C201 1.449 . S
C221 C220 1.399 . S
C221 H227 0.930 . S
H222 C202 0.931 . S
H223 C203 0.930 . S
H224 C211 0.931 . S
H225 C212 0.929 . S
H226 C220 0.929 . S
H227 C221 0.930 . S
Mn228 O233 2.095 . S
Mn228 O243 2.162 . S
Mn228 O244 2.297 . S
Mn228 O252 2.385 . S
Mn228 O253 2.209 . S
Mn228 O254 2.094 . S
Mn229 O234 2.121 . S
Mn229 N236 2.257 . S
Mn229 N245 2.282 . S
Mn229 O253 2.215 . S
Mn229 O255 2.117 . S
C230 O252 1.234 . S
C230 O253 1.283 . S
C231 O243 1.281 . S
C231 O244 1.236 . S
C232 O254 1.240 . S
C232 O255 1.264 . S
O233 Mn228 2.095 . S
O233 C242 1.250 . S
O234 Mn229 2.121 . S
O234 C242 1.258 . S
C235 N236 1.326 . S
C235 C239 1.460 . S
C235 H241 0.929 . S
N236 Mn229 2.257 . S
N236 C235 1.326 . S
N236 C240 1.362 . S
C237 C238 1.258 . S
C237 C240 1.431 . S
C237 C257 1.449 . S
C238 C237 1.258 . S
C238 C239 1.477 . S
C238 H258 0.931 . S
C239 C235 1.460 . S
C239 C238 1.477 . S
C239 H259 0.930 . S
C240 N236 1.362 . S
C240 C237 1.431 . S
C240 C250 1.476 . S
H241 C235 0.929 . S
C242 O233 1.250 . S
C242 O234 1.258 . S
O243 Mn228 2.162 . S
O243 C231 1.281 . S
O244 Mn228 2.297 . S
O244 C231 1.236 . S
N245 Mn229 2.282 . S
N245 C246 1.328 . S
N245 C250 1.318 . S
C246 N245 1.328 . S
C246 C247 1.457 . S
C246 H251 0.929 . S
C247 C246 1.457 . S
C247 C248 1.291 . S
C247 H260 0.931 . S
C248 C247 1.291 . S
C248 C249 1.373 . S
C248 H261 0.929 . S
C249 C248 1.373 . S
C249 C250 1.396 . S
C249 C256 1.403 . S
C250 C240 1.476 . S
C250 N245 1.318 . S
C250 C249 1.396 . S
H251 C246 0.929 . S
O252 Mn228 2.385 . S
O252 C230 1.234 . S
O253 Mn228 2.209 . S
O253 Mn229 2.215 . S
O253 C230 1.283 . S
O254 Mn228 2.094 . S
O254 C232 1.240 . S
O255 Mn229 2.117 . S
O255 C232 1.264 . S
C256 C249 1.403 . S
C256 C257 1.399 . S
C256 H262 0.929 . S
C257 C237 1.449 . S
C257 C256 1.399 . S
C257 H263 0.930 . S
H258 C238 0.931 . S
H259 C239 0.930 . S
H260 C247 0.931 . S
H261 C248 0.929 . S
H262 C256 0.929 . S
H263 C257 0.930 . S
Mn264 O269 2.095 1_554 S
Mn264 O279 2.162 . S
Mn264 O280 2.297 1_554 S
Mn264 O288 2.385 . S
Mn264 O289 2.209 1_554 S
Mn264 O290 2.094 . S
Mn265 O270 2.121 . S
Mn265 N272 2.257 . S
Mn265 N281 2.282 . S
Mn265 O289 2.215 . S
Mn265 O291 2.117 1_556 S
C266 O288 1.234 . S
C266 O289 1.283 1_554 S
C267 O279 1.281 . S
C267 O280 1.236 1_554 S
C268 O290 1.240 . S
C268 O291 1.264 . S
O269 Mn264 2.095 1_556 S
O269 C278 1.250 . S
O270 Mn265 2.121 . S
O270 C278 1.258 . S
C271 N272 1.326 . S
C271 C275 1.460 . S
C271 H277 0.929 . S
N272 Mn265 2.257 . S
N272 C271 1.326 . S
N272 C276 1.362 . S
C273 C274 1.258 . S
C273 C276 1.431 . S
C273 C293 1.449 . S
C274 C273 1.258 . S
C274 C275 1.477 . S
C274 H294 0.931 . S
C275 C271 1.460 . S
C275 C274 1.477 . S
C275 H295 0.930 . S
C276 N272 1.362 . S
C276 C273 1.431 . S
C276 C286 1.476 . S
H277 C271 0.929 . S
C278 O269 1.250 . S
C278 O270 1.258 . S
O279 Mn264 2.162 . S
O279 C267 1.281 . S
O280 Mn264 2.297 1_556 S
O280 C267 1.236 1_556 S
N281 Mn265 2.282 . S
N281 C282 1.328 1_556 S
N281 C286 1.318 . S
C282 N281 1.328 1_554 S
C282 C283 1.457 . S
C282 H287 0.929 . S
C283 C282 1.457 . S
C283 C284 1.291 . S
C283 H296 0.931 . S
C284 C283 1.291 . S
C284 C285 1.373 1_554 S
C284 H297 0.929 . S
C285 C284 1.373 1_556 S
C285 C286 1.396 . S
C285 C292 1.403 . S
C286 C276 1.476 . S
C286 N281 1.318 . S
C286 C285 1.396 . S
H287 C282 0.929 . S
O288 Mn264 2.385 . S
O288 C266 1.234 . S
O289 Mn264 2.209 1_556 S
O289 Mn265 2.215 . S
O289 C266 1.283 1_556 S
O290 Mn264 2.094 . S
O290 C268 1.240 . S
O291 Mn265 2.117 1_554 S
O291 C268 1.264 . S
C292 C285 1.403 . S
C292 C293 1.399 . S
C292 H298 0.929 . S
C293 C273 1.449 . S
C293 C292 1.399 . S
C293 H299 0.930 . S
H294 C274 0.931 . S
H295 C275 0.930 . S
H296 C283 0.931 . S
H297 C284 0.929 . S
H298 C292 0.929 . S
H299 C293 0.930 . S
Mn300 O305 2.095 . S
Mn300 O315 2.162 . S
Mn300 O316 2.297 . S
Mn300 O324 2.385 . S
Mn300 O325 2.209 1_545 S
Mn300 O326 2.094 . S
Mn301 O306 2.121 . S
Mn301 N308 2.257 . S
Mn301 N317 2.282 . S
Mn301 O325 2.215 . S
Mn301 O327 2.117 . S
C302 O324 1.234 1_565 S
C302 O325 1.283 . S
C303 O315 1.281 . S
C303 O316 1.236 . S
C304 O326 1.240 . S
C304 O327 1.264 1_545 S
O305 Mn300 2.095 . S
O305 C314 1.250 . S
O306 Mn301 2.121 . S
O306 C314 1.258 1_565 S
C307 N308 1.326 . S
C307 C311 1.460 . S
C307 H313 0.929 . S
N308 Mn301 2.257 . S
N308 C307 1.326 . S
N308 C312 1.362 . S
C309 C310 1.258 . S
C309 C312 1.431 . S
C309 C329 1.449 . S
C310 C309 1.258 . S
C310 C311 1.477 . S
C310 H330 0.931 . S
C311 C307 1.460 . S
C311 C310 1.477 . S
C311 H331 0.930 . S
C312 N308 1.362 . S
C312 C309 1.431 . S
C312 C322 1.476 . S
H313 C307 0.929 . S
C314 O305 1.250 . S
C314 O306 1.258 1_545 S
O315 Mn300 2.162 . S
O315 C303 1.281 . S
O316 Mn300 2.297 . S
O316 C303 1.236 . S
N317 Mn301 2.282 . S
N317 C318 1.328 . S
N317 C322 1.318 . S
C318 N317 1.328 . S
C318 C319 1.457 . S
C318 H323 0.929 . S
C319 C318 1.457 . S
C319 C320 1.291 . S
C319 H332 0.931 . S
C320 C319 1.291 . S
C320 C321 1.373 . S
C320 H333 0.929 . S
C321 C320 1.373 . S
C321 C322 1.396 . S
C321 C328 1.403 . S
C322 C312 1.476 . S
C322 N317 1.318 . S
C322 C321 1.396 . S
H323 C318 0.929 . S
O324 Mn300 2.385 . S
O324 C302 1.234 1_545 S
O325 Mn300 2.209 1_565 S
O325 Mn301 2.215 . S
O325 C302 1.283 . S
O326 Mn300 2.094 . S
O326 C304 1.240 . S
O327 Mn301 2.117 . S
O327 C304 1.264 1_565 S
C328 C321 1.403 . S
C328 C329 1.399 . S
C328 H334 0.929 . S
C329 C309 1.449 . S
C329 C328 1.399 . S
C329 H335 0.930 . S
H330 C310 0.931 . S
H331 C311 0.930 . S
H332 C319 0.931 . S
H333 C320 0.929 . S
H334 C328 0.929 . S
H335 C329 0.930 . S
Mn336 O341 2.095 . S
Mn336 O351 2.162 . S
Mn336 O352 2.297 . S
Mn336 O360 2.385 . S
Mn336 O361 2.209 . S
Mn336 O362 2.094 . S
Mn337 O342 2.121 . S
Mn337 N344 2.257 . S
Mn337 N353 2.282 . S
Mn337 O361 2.215 . S
Mn337 O363 2.117 . S
C338 O360 1.234 . S
C338 O361 1.283 . S
C339 O351 1.281 . S
C339 O352 1.236 . S
C340 O362 1.240 . S
C340 O363 1.264 . S
O341 Mn336 2.095 . S
O341 C350 1.250 . S
O342 Mn337 2.121 . S
O342 C350 1.258 . S
C343 N344 1.326 . S
C343 C347 1.460 . S
C343 H349 0.929 . S
N344 Mn337 2.257 . S
N344 C343 1.326 . S
N344 C348 1.362 . S
C345 C346 1.258 . S
C345 C348 1.431 . S
C345 C365 1.449 . S
C346 C345 1.258 . S
C346 C347 1.477 . S
C346 H366 0.931 . S
C347 C343 1.460 . S
C347 C346 1.477 . S
C347 H367 0.930 . S
C348 N344 1.362 . S
C348 C345 1.431 . S
C348 C358 1.476 . S
H349 C343 0.929 . S
C350 O341 1.250 . S
C350 O342 1.258 . S
O351 Mn336 2.162 . S
O351 C339 1.281 . S
O352 Mn336 2.297 . S
O352 C339 1.236 . S
N353 Mn337 2.282 . S
N353 C354 1.328 . S
N353 C358 1.318 . S
C354 N353 1.328 . S
C354 C355 1.457 . S
C354 H359 0.929 . S
C355 C354 1.457 . S
C355 C356 1.291 . S
C355 H368 0.931 . S
C356 C355 1.291 . S
C356 C357 1.373 . S
C356 H369 0.929 . S
C357 C356 1.373 . S
C357 C358 1.396 . S
C357 C364 1.403 . S
C358 C348 1.476 . S
C358 N353 1.318 . S
C358 C357 1.396 . S
H359 C354 0.929 . S
O360 Mn336 2.385 . S
O360 C338 1.234 . S
O361 Mn336 2.209 . S
O361 Mn337 2.215 . S
O361 C338 1.283 . S
O362 Mn336 2.094 . S
O362 C340 1.240 . S
O363 Mn337 2.117 . S
O363 C340 1.264 . S
C364 C357 1.403 . S
C364 C365 1.399 . S
C364 H370 0.929 . S
C365 C345 1.449 . S
C365 C364 1.399 . S
C365 H371 0.930 . S
H366 C346 0.931 . S
H367 C347 0.930 . S
H368 C355 0.931 . S
H369 C356 0.929 . S
H370 C364 0.929 . S
H371 C365 0.930 . S
Mn372 O377 2.095 . S
Mn372 O387 2.162 . S
Mn372 O388 2.297 . S
Mn372 O396 2.385 . S
Mn372 O397 2.209 . S
Mn372 O398 2.094 . S
Mn373 O378 2.121 . S
Mn373 N380 2.257 . S
Mn373 N389 2.282 . S
Mn373 O397 2.215 . S
Mn373 O399 2.117 . S
C374 O396 1.234 . S
C374 O397 1.283 . S
C375 O387 1.281 . S
C375 O388 1.236 . S
C376 O398 1.240 . S
C376 O399 1.264 . S
O377 Mn372 2.095 . S
O377 C386 1.250 . S
O378 Mn373 2.121 . S
O378 C386 1.258 . S
C379 N380 1.326 . S
C379 C383 1.460 . S
C379 H385 0.929 . S
N380 Mn373 2.257 . S
N380 C379 1.326 . S
N380 C384 1.362 . S
C381 C382 1.258 . S
C381 C384 1.431 . S
C381 C401 1.449 . S
C382 C381 1.258 . S
C382 C383 1.477 . S
C382 H402 0.931 . S
C383 C379 1.460 . S
C383 C382 1.477 . S
C383 H403 0.930 . S
C384 N380 1.362 . S
C384 C381 1.431 . S
C384 C394 1.476 . S
H385 C379 0.929 . S
C386 O377 1.250 . S
C386 O378 1.258 . S
O387 Mn372 2.162 . S
O387 C375 1.281 . S
O388 Mn372 2.297 . S
O388 C375 1.236 . S
N389 Mn373 2.282 . S
N389 C390 1.328 . S
N389 C394 1.318 . S
C390 N389 1.328 . S
C390 C391 1.457 . S
C390 H395 0.929 . S
C391 C390 1.457 . S
C391 C392 1.291 . S
C391 H404 0.931 . S
C392 C391 1.291 . S
C392 C393 1.373 . S
C392 H405 0.929 . S
C393 C392 1.373 . S
C393 C394 1.396 . S
C393 C400 1.403 . S
C394 C384 1.476 . S
C394 N389 1.318 . S
C394 C393 1.396 . S
H395 C390 0.929 . S
O396 Mn372 2.385 . S
O396 C374 1.234 . S
O397 Mn372 2.209 . S
O397 Mn373 2.215 . S
O397 C374 1.283 . S
O398 Mn372 2.094 . S
O398 C376 1.240 . S
O399 Mn373 2.117 . S
O399 C376 1.264 . S
C400 C393 1.403 . S
C400 C401 1.399 . S
C400 H406 0.929 . S
C401 C381 1.449 . S
C401 C400 1.399 . S
C401 H407 0.930 . S
H402 C382 0.931 . S
H403 C383 0.930 . S
H404 C391 0.931 . S
H405 C392 0.929 . S
H406 C400 0.929 . S
H407 C401 0.930 . S
Mn408 O413 2.095 . S
Mn408 O423 2.162 . S
Mn408 O424 2.297 . S
Mn408 O432 2.385 . S
Mn408 O433 2.209 . S
Mn408 O434 2.094 . S
Mn409 O414 2.121 . S
Mn409 N416 2.257 . S
Mn409 N425 2.282 . S
Mn409 O433 2.215 . S
Mn409 O435 2.117 . S
C410 O432 1.234 . S
C410 O433 1.283 . S
C411 O423 1.281 . S
C411 O424 1.236 . S
C412 O434 1.240 . S
C412 O435 1.264 . S
O413 Mn408 2.095 . S
O413 C422 1.250 . S
O414 Mn409 2.121 . S
O414 C422 1.258 . S
C415 N416 1.326 . S
C415 C419 1.460 . S
C415 H421 0.929 . S
N416 Mn409 2.257 . S
N416 C415 1.326 . S
N416 C420 1.362 . S
C417 C418 1.258 . S
C417 C420 1.431 . S
C417 C437 1.449 . S
C418 C417 1.258 . S
C418 C419 1.477 . S
C418 H438 0.931 . S
C419 C415 1.460 . S
C419 C418 1.477 . S
C419 H439 0.930 . S
C420 N416 1.362 . S
C420 C417 1.431 . S
C420 C430 1.476 . S
H421 C415 0.929 . S
C422 O413 1.250 . S
C422 O414 1.258 . S
O423 Mn408 2.162 . S
O423 C411 1.281 . S
O424 Mn408 2.297 . S
O424 C411 1.236 . S
N425 Mn409 2.282 . S
N425 C426 1.328 . S
N425 C430 1.318 . S
C426 N425 1.328 . S
C426 C427 1.457 . S
C426 H431 0.929 . S
C427 C426 1.457 . S
C427 C428 1.291 . S
C427 H440 0.931 . S
C428 C427 1.291 . S
C428 C429 1.373 . S
C428 H441 0.929 . S
C429 C428 1.373 . S
C429 C430 1.396 . S
C429 C436 1.403 . S
C430 C420 1.476 . S
C430 N425 1.318 . S
C430 C429 1.396 . S
H431 C426 0.929 . S
O432 Mn408 2.385 . S
O432 C410 1.234 . S
O433 Mn408 2.209 . S
O433 Mn409 2.215 . S
O433 C410 1.283 . S
O434 Mn408 2.094 . S
O434 C412 1.240 . S
O435 Mn409 2.117 . S
O435 C412 1.264 . S
C436 C429 1.403 . S
C436 C437 1.399 . S
C436 H442 0.929 . S
C437 C417 1.449 . S
C437 C436 1.399 . S
C437 H443 0.930 . S
H438 C418 0.931 . S
H439 C419 0.930 . S
H440 C427 0.931 . S
H441 C428 0.929 . S
H442 C436 0.929 . S
H443 C437 0.930 . S
Mn444 O449 2.095 . S
Mn444 O459 2.162 . S
Mn444 O460 2.297 . S
Mn444 O468 2.385 1_565 S
Mn444 O469 2.209 1_565 S
Mn444 O470 2.094 . S
Mn445 O450 2.121 . S
Mn445 N452 2.257 . S
Mn445 N461 2.282 . S
Mn445 O469 2.215 . S
Mn445 O471 2.117 . S
C446 O468 1.234 . S
C446 O469 1.283 . S
C447 O459 1.281 . S
C447 O460 1.236 . S
C448 O470 1.240 . S
C448 O471 1.264 1_565 S
O449 Mn444 2.095 . S
O449 C458 1.250 1_565 S
O450 Mn445 2.121 . S
O450 C458 1.258 . S
C451 N452 1.326 . S
C451 C455 1.460 . S
C451 H457 0.929 . S
N452 Mn445 2.257 . S
N452 C451 1.326 . S
N452 C456 1.362 . S
C453 C454 1.258 . S
C453 C456 1.431 . S
C453 C473 1.449 . S
C454 C453 1.258 . S
C454 C455 1.477 . S
C454 H474 0.931 . S
C455 C451 1.460 . S
C455 C454 1.477 . S
C455 H475 0.930 . S
C456 N452 1.362 . S
C456 C453 1.431 . S
C456 C466 1.476 . S
H457 C451 0.929 . S
C458 O449 1.250 1_545 S
C458 O450 1.258 . S
O459 Mn444 2.162 . S
O459 C447 1.281 . S
O460 Mn444 2.297 . S
O460 C447 1.236 . S
N461 Mn445 2.282 . S
N461 C462 1.328 . S
N461 C466 1.318 . S
C462 N461 1.328 . S
C462 C463 1.457 . S
C462 H467 0.929 . S
C463 C462 1.457 . S
C463 C464 1.291 . S
C463 H476 0.931 . S
C464 C463 1.291 . S
C464 C465 1.373 . S
C464 H477 0.929 . S
C465 C464 1.373 . S
C465 C466 1.396 . S
C465 C472 1.403 . S
C466 C456 1.476 . S
C466 N461 1.318 . S
C466 C465 1.396 . S
H467 C462 0.929 . S
O468 Mn444 2.385 1_545 S
O468 C446 1.234 . S
O469 Mn444 2.209 1_545 S
O469 Mn445 2.215 . S
O469 C446 1.283 . S
O470 Mn444 2.094 . S
O470 C448 1.240 . S
O471 Mn445 2.117 . S
O471 C448 1.264 1_545 S
C472 C465 1.403 . S
C472 C473 1.399 . S
C472 H478 0.929 . S
C473 C453 1.449 . S
C473 C472 1.399 . S
C473 H479 0.930 . S
H474 C454 0.931 . S
H475 C455 0.930 . S
H476 C463 0.931 . S
H477 C464 0.929 . S
H478 C472 0.929 . S
H479 C473 0.930 . S
Mn480 O485 2.095 . S
Mn480 O495 2.162 . S
Mn480 O496 2.297 . S
Mn480 O504 2.385 1_455 S
Mn480 O505 2.209 1_455 S
Mn480 O506 2.094 . S
Mn481 O486 2.121 . S
Mn481 N488 2.257 . S
Mn481 N497 2.282 . S
Mn481 O505 2.215 . S
Mn481 O507 2.117 . S
C482 O504 1.234 . S
C482 O505 1.283 . S
C483 O495 1.281 . S
C483 O496 1.236 . S
C484 O506 1.240 . S
C484 O507 1.264 1_455 S
O485 Mn480 2.095 . S
O485 C494 1.250 1_455 S
O486 Mn481 2.121 . S
O486 C494 1.258 . S
C487 N488 1.326 . S
C487 C491 1.460 . S
C487 H493 0.929 . S
N488 Mn481 2.257 . S
N488 C487 1.326 . S
N488 C492 1.362 . S
C489 C490 1.258 . S
C489 C492 1.431 . S
C489 C509 1.449 . S
C490 C489 1.258 . S
C490 C491 1.477 . S
C490 H510 0.931 . S
C491 C487 1.460 . S
C491 C490 1.477 . S
C491 H511 0.930 . S
C492 N488 1.362 . S
C492 C489 1.431 . S
C492 C502 1.476 . S
H493 C487 0.929 . S
C494 O485 1.250 1_655 S
C494 O486 1.258 . S
O495 Mn480 2.162 . S
O495 C483 1.281 . S
O496 Mn480 2.297 . S
O496 C483 1.236 . S
N497 Mn481 2.282 . S
N497 C498 1.328 . S
N497 C502 1.318 . S
C498 N497 1.328 . S
C498 C499 1.457 . S
C498 H503 0.929 . S
C499 C498 1.457 . S
C499 C500 1.291 . S
C499 H512 0.931 . S
C500 C499 1.291 . S
C500 C501 1.373 . S
C500 H513 0.929 . S
C501 C500 1.373 . S
C501 C502 1.396 . S
C501 C508 1.403 . S
C502 C492 1.476 . S
C502 N497 1.318 . S
C502 C501 1.396 . S
H503 C498 0.929 . S
O504 Mn480 2.385 1_655 S
O504 C482 1.234 . S
O505 Mn480 2.209 1_655 S
O505 Mn481 2.215 . S
O505 C482 1.283 . S
O506 Mn480 2.094 . S
O506 C484 1.240 . S
O507 Mn481 2.117 . S
O507 C484 1.264 1_655 S
C508 C501 1.403 . S
C508 C509 1.399 . S
C508 H514 0.929 . S
C509 C489 1.449 . S
C509 C508 1.399 . S
C509 H515 0.930 . S
H510 C490 0.931 . S
H511 C491 0.930 . S
H512 C499 0.931 . S
H513 C500 0.929 . S
H514 C508 0.929 . S
H515 C509 0.930 . S
Mn516 O521 2.095 . S
Mn516 O531 2.162 . S
Mn516 O532 2.297 . S
Mn516 O540 2.385 . S
Mn516 O541 2.209 . S
Mn516 O542 2.094 . S
Mn517 O522 2.121 . S
Mn517 N524 2.257 . S
Mn517 N533 2.282 . S
Mn517 O541 2.215 . S
Mn517 O543 2.117 . S
C518 O540 1.234 . S
C518 O541 1.283 . S
C519 O531 1.281 . S
C519 O532 1.236 . S
C520 O542 1.240 . S
C520 O543 1.264 . S
O521 Mn516 2.095 . S
O521 C530 1.250 . S
O522 Mn517 2.121 . S
O522 C530 1.258 . S
C523 N524 1.326 . S
C523 C527 1.460 . S
C523 H529 0.929 . S
N524 Mn517 2.257 . S
N524 C523 1.326 . S
N524 C528 1.362 . S
C525 C526 1.258 . S
C525 C528 1.431 . S
C525 C545 1.449 . S
C526 C525 1.258 . S
C526 C527 1.477 . S
C526 H546 0.931 . S
C527 C523 1.460 . S
C527 C526 1.477 . S
C527 H547 0.930 . S
C528 N524 1.362 . S
C528 C525 1.431 . S
C528 C538 1.476 . S
H529 C523 0.929 . S
C530 O521 1.250 . S
C530 O522 1.258 . S
O531 Mn516 2.162 . S
O531 C519 1.281 . S
O532 Mn516 2.297 . S
O532 C519 1.236 . S
N533 Mn517 2.282 . S
N533 C534 1.328 . S
N533 C538 1.318 . S
C534 N533 1.328 . S
C534 C535 1.457 . S
C534 H539 0.929 . S
C535 C534 1.457 . S
C535 C536 1.291 . S
C535 H548 0.931 . S
C536 C535 1.291 . S
C536 C537 1.373 . S
C536 H549 0.929 . S
C537 C536 1.373 . S
C537 C538 1.396 . S
C537 C544 1.403 . S
C538 C528 1.476 . S
C538 N533 1.318 . S
C538 C537 1.396 . S
H539 C534 0.929 . S
O540 Mn516 2.385 . S
O540 C518 1.234 . S
O541 Mn516 2.209 . S
O541 Mn517 2.215 . S
O541 C518 1.283 . S
O542 Mn516 2.094 . S
O542 C520 1.240 . S
O543 Mn517 2.117 . S
O543 C520 1.264 . S
C544 C537 1.403 . S
C544 C545 1.399 . S
C544 H550 0.929 . S
C545 C525 1.449 . S
C545 C544 1.399 . S
C545 H551 0.930 . S
H546 C526 0.931 . S
H547 C527 0.930 . S
H548 C535 0.931 . S
H549 C536 0.929 . S
H550 C544 0.929 . S
H551 C545 0.930 . S
Mn552 O557 2.095 1_455 S
Mn552 O567 2.162 . S
Mn552 O568 2.297 1_455 S
Mn552 O576 2.385 . S
Mn552 O577 2.209 1_455 S
Mn552 O578 2.094 . S
Mn553 O558 2.121 . S
Mn553 N560 2.257 . S
Mn553 N569 2.282 1_655 S
Mn553 O577 2.215 . S
Mn553 O579 2.117 1_655 S
C554 O576 1.234 . S
C554 O577 1.283 1_455 S
C555 O567 1.281 . S
C555 O568 1.236 1_455 S
C556 O578 1.240 . S
C556 O579 1.264 . S
O557 Mn552 2.095 1_655 S
O557 C566 1.250 . S
O558 Mn553 2.121 . S
O558 C566 1.258 . S
C559 N560 1.326 . S
C559 C563 1.460 . S
C559 H565 0.929 . S
N560 Mn553 2.257 . S
N560 C559 1.326 . S
N560 C564 1.362 . S
C561 C562 1.258 . S
C561 C564 1.431 . S
C561 C581 1.449 . S
C562 C561 1.258 . S
C562 C563 1.477 . S
C562 H582 0.931 . S
C563 C559 1.460 . S
C563 C562 1.477 . S
C563 H583 0.930 . S
C564 N560 1.362 . S
C564 C561 1.431 . S
C564 C574 1.476 . S
H565 C559 0.929 . S
C566 O557 1.250 . S
C566 O558 1.258 . S
O567 Mn552 2.162 . S
O567 C555 1.281 . S
O568 Mn552 2.297 1_655 S
O568 C555 1.236 1_655 S
N569 Mn553 2.282 1_455 S
N569 C570 1.328 . S
N569 C574 1.318 1_455 S
C570 N569 1.328 . S
C570 C571 1.457 . S
C570 H575 0.929 . S
C571 C570 1.457 . S
C571 C572 1.291 . S
C571 H584 0.931 . S
C572 C571 1.291 . S
C572 C573 1.373 1_455 S
C572 H585 0.929 . S
C573 C572 1.373 1_655 S
C573 C574 1.396 . S
C573 C580 1.403 . S
C574 C564 1.476 . S
C574 N569 1.318 1_655 S
C574 C573 1.396 . S
H575 C570 0.929 . S
O576 Mn552 2.385 . S
O576 C554 1.234 . S
O577 Mn552 2.209 1_655 S
O577 Mn553 2.215 . S
O577 C554 1.283 1_655 S
O578 Mn552 2.094 . S
O578 C556 1.240 . S
O579 Mn553 2.117 1_455 S
O579 C556 1.264 . S
C580 C573 1.403 . S
C580 C581 1.399 . S
C580 H586 0.929 . S
C581 C561 1.449 . S
C581 C580 1.399 . S
C581 H587 0.930 . S
H582 C562 0.931 . S
H583 C563 0.930 . S
H584 C571 0.931 . S
H585 C572 0.929 . S
H586 C580 0.929 . S
H587 C581 0.930 . S
Mn588 O593 2.095 . S
Mn588 O603 2.162 . S
Mn588 O604 2.297 . S
Mn588 O612 2.385 . S
Mn588 O613 2.209 . S
Mn588 O614 2.094 . S
Mn589 O594 2.121 . S
Mn589 N596 2.257 . S
Mn589 N605 2.282 . S
Mn589 O613 2.215 . S
Mn589 O615 2.117 . S
C590 O612 1.234 . S
C590 O613 1.283 . S
C591 O603 1.281 . S
C591 O604 1.236 . S
C592 O614 1.240 . S
C592 O615 1.264 . S
O593 Mn588 2.095 . S
O593 C602 1.250 . S
O594 Mn589 2.121 . S
O594 C602 1.258 . S
C595 N596 1.326 . S
C595 C599 1.460 . S
C595 H601 0.929 . S
N596 Mn589 2.257 . S
N596 C595 1.326 . S
N596 C600 1.362 . S
C597 C598 1.258 . S
C597 C600 1.431 . S
C597 C617 1.449 . S
C598 C597 1.258 . S
C598 C599 1.477 . S
C598 H618 0.931 . S
C599 C595 1.460 . S
C599 C598 1.477 . S
C599 H619 0.930 . S
C600 N596 1.362 . S
C600 C597 1.431 . S
C600 C610 1.476 . S
H601 C595 0.929 . S
C602 O593 1.250 . S
C602 O594 1.258 . S
O603 Mn588 2.162 . S
O603 C591 1.281 . S
O604 Mn588 2.297 . S
O604 C591 1.236 . S
N605 Mn589 2.282 . S
N605 C606 1.328 . S
N605 C610 1.318 . S
C606 N605 1.328 . S
C606 C607 1.457 . S
C606 H611 0.929 . S
C607 C606 1.457 . S
C607 C608 1.291 . S
C607 H620 0.931 . S
C608 C607 1.291 . S
C608 C609 1.373 . S
C608 H621 0.929 . S
C609 C608 1.373 . S
C609 C610 1.396 . S
C609 C616 1.403 . S
C610 C600 1.476 . S
C610 N605 1.318 . S
C610 C609 1.396 . S
H611 C606 0.929 . S
O612 Mn588 2.385 . S
O612 C590 1.234 . S
O613 Mn588 2.209 . S
O613 Mn589 2.215 . S
O613 C590 1.283 . S
O614 Mn588 2.094 . S
O614 C592 1.240 . S
O615 Mn589 2.117 . S
O615 C592 1.264 . S
C616 C609 1.403 . S
C616 C617 1.399 . S
C616 H622 0.929 . S
C617 C597 1.449 . S
C617 C616 1.399 . S
C617 H623 0.930 . S
H618 C598 0.931 . S
H619 C599 0.930 . S
H620 C607 0.931 . S
H621 C608 0.929 . S
H622 C616 0.929 . S
H623 C617 0.930 . S
C624 C625 1.369 . S
C624 C626 1.419 . S
C624 H628 0.930 . S
C625 C624 1.369 . S
C625 C634 1.429 . S
C626 C624 1.419 . S
C626 C627 1.363 . S
C626 H629 0.929 . S
C627 C626 1.363 . S
C627 C633 1.428 . S
H628 C624 0.930 . S
H629 C626 0.929 . S
S630 N631 1.613 . S
S630 N632 1.610 . S
N631 S630 1.613 . S
N631 C634 1.350 . S
N632 S630 1.610 . S
N632 C633 1.351 . S
C633 C627 1.428 . S
C633 N632 1.351 . S
C633 C634 1.434 . S
C634 C625 1.429 . S
C634 N631 1.350 . S
C634 C633 1.434 . S
C635 C636 1.369 . S
C635 C637 1.419 . S
C635 H639 0.930 . S
C636 C635 1.369 . S
C636 C645 1.429 . S
C637 C635 1.419 . S
C637 C638 1.363 . S
C637 H640 0.929 . S
C638 C637 1.363 . S
C638 C644 1.428 . S
H639 C635 0.930 . S
H640 C637 0.929 . S
S641 N642 1.613 . S
S641 N643 1.610 . S
N642 S641 1.613 . S
N642 C645 1.350 . S
N643 S641 1.610 . S
N643 C644 1.351 . S
C644 C638 1.428 . S
C644 N643 1.351 . S
C644 C645 1.434 . S
C645 C636 1.429 . S
C645 N642 1.350 . S
C645 C644 1.434 . S
C646 C647 1.369 . S
C646 C648 1.419 . S
C646 H650 0.930 . S
C647 C646 1.369 . S
C647 C656 1.429 . S
C648 C646 1.419 . S
C648 C649 1.363 . S
C648 H651 0.929 . S
C649 C648 1.363 . S
C649 C655 1.428 . S
H650 C646 0.930 . S
H651 C648 0.929 . S
S652 N653 1.613 . S
S652 N654 1.610 . S
N653 S652 1.613 . S
N653 C656 1.350 . S
N654 S652 1.610 . S
N654 C655 1.351 . S
C655 C649 1.428 . S
C655 N654 1.351 . S
C655 C656 1.434 . S
C656 C647 1.429 . S
C656 N653 1.350 . S
C656 C655 1.434 . S
C657 C658 1.369 1_655 S
C657 C659 1.419 . S
C657 H661 0.930 . S
C658 C657 1.369 1_455 S
C658 C667 1.429 . S
C659 C657 1.419 . S
C659 C660 1.363 . S
C659 H662 0.929 . S
C660 C659 1.363 . S
C660 C666 1.428 1_655 S
H661 C657 0.930 . S
H662 C659 0.929 . S
S663 N664 1.613 . S
S663 N665 1.610 1_565 S
N664 S663 1.613 . S
N664 C667 1.350 1_565 S
N665 S663 1.610 1_545 S
N665 C666 1.351 . S
C666 C660 1.428 1_455 S
C666 N665 1.351 . S
C666 C667 1.434 . S
C667 C658 1.429 . S
C667 N664 1.350 1_545 S
C667 C666 1.434 . S
C668 C669 1.369 . S
C668 C670 1.419 . S
C668 H672 0.930 . S
C669 C668 1.369 . S
C669 C678 1.429 . S
C670 C668 1.419 . S
C670 C671 1.363 . S
C670 H673 0.929 . S
C671 C670 1.363 . S
C671 C677 1.428 . S
H672 C668 0.930 . S
H673 C670 0.929 . S
S674 N675 1.613 . S
S674 N676 1.610 . S
N675 S674 1.613 . S
N675 C678 1.350 . S
N676 S674 1.610 . S
N676 C677 1.351 . S
C677 C671 1.428 . S
C677 N676 1.351 . S
C677 C678 1.434 . S
C678 C669 1.429 . S
C678 N675 1.350 . S
C678 C677 1.434 . S
C679 C680 1.369 . S
C679 C681 1.419 . S
C679 H683 0.930 . S
C680 C679 1.369 . S
C680 C689 1.429 . S
C681 C679 1.419 . S
C681 C682 1.363 . S
C681 H684 0.929 . S
C682 C681 1.363 . S
C682 C688 1.428 . S
H683 C679 0.930 . S
H684 C681 0.929 . S
S685 N686 1.613 . S
S685 N687 1.610 . S
N686 S685 1.613 . S
N686 C689 1.350 . S
N687 S685 1.610 . S
N687 C688 1.351 . S
C688 C682 1.428 . S
C688 N687 1.351 . S
C688 C689 1.434 . S
C689 C680 1.429 . S
C689 N686 1.350 . S
C689 C688 1.434 . S
C690 C691 1.369 . S
C690 C692 1.419 . S
C690 H694 0.930 . S
C691 C690 1.369 . S
C691 C700 1.429 . S
C692 C690 1.419 . S
C692 C693 1.363 . S
C692 H695 0.929 . S
C693 C692 1.363 . S
C693 C699 1.428 . S
H694 C690 0.930 . S
H695 C692 0.929 . S
S696 N697 1.613 . S
S696 N698 1.610 . S
N697 S696 1.613 . S
N697 C700 1.350 . S
N698 S696 1.610 . S
N698 C699 1.351 . S
C699 C693 1.428 . S
C699 N698 1.351 . S
C699 C700 1.434 . S
C700 C691 1.429 . S
C700 N697 1.350 . S
C700 C699 1.434 . S
C701 C702 1.369 . S
C701 C703 1.419 . S
C701 H705 0.930 . S
C702 C701 1.369 . S
C702 C711 1.429 1_565 S
C703 C701 1.419 . S
C703 C704 1.363 . S
C703 H706 0.929 . S
C704 C703 1.363 . S
C704 C710 1.428 1_565 S
H705 C701 0.930 . S
H706 C703 0.929 . S
S707 N708 1.613 . S
S707 N709 1.610 . S
N708 S707 1.613 . S
N708 C711 1.350 . S
N709 S707 1.610 . S
N709 C710 1.351 . S
C710 C704 1.428 1_545 S
C710 N709 1.351 . S
C710 C711 1.434 . S
C711 C702 1.429 1_545 S
C711 N708 1.350 . S
C711 C710 1.434 . S
C712 C713 1.369 . S
C712 C714 1.419 . S
C712 H716 0.930 . S
C713 C712 1.369 . S
C713 C722 1.429 . S
C714 C712 1.419 . S
C714 C715 1.363 . S
C714 H717 0.929 . S
C715 C714 1.363 . S
C715 C721 1.428 . S
H716 C712 0.930 . S
H717 C714 0.929 . S
S718 N719 1.613 . S
S718 N720 1.610 . S
N719 S718 1.613 . S
N719 C722 1.350 . S
N720 S718 1.610 . S
N720 C721 1.351 . S
C721 C715 1.428 . S
C721 N720 1.351 . S
C721 C722 1.434 . S
C722 C713 1.429 . S
C722 N719 1.350 . S
C722 C721 1.434 . S
C723 C724 1.369 . S
C723 C725 1.419 . S
C723 H727 0.930 . S
C724 C723 1.369 . S
C724 C733 1.429 . S
C725 C723 1.419 . S
C725 C726 1.363 . S
C725 H728 0.929 . S
C726 C725 1.363 . S
C726 C732 1.428 . S
H727 C723 0.930 . S
H728 C725 0.929 . S
S729 N730 1.613 . S
S729 N731 1.610 . S
N730 S729 1.613 . S
N730 C733 1.350 . S
N731 S729 1.610 . S
N731 C732 1.351 . S
C732 C726 1.428 . S
C732 N731 1.351 . S
C732 C733 1.434 . S
C733 C724 1.429 . S
C733 N730 1.350 . S
C733 C732 1.434 . S
C734 C735 1.369 . S
C734 C736 1.419 . S
C734 H738 0.930 . S
C735 C734 1.369 . S
C735 C744 1.429 . S
C736 C734 1.419 . S
C736 C737 1.363 . S
C736 H739 0.929 . S
C737 C736 1.363 . S
C737 C743 1.428 . S
H738 C734 0.930 . S
H739 C736 0.929 . S
S740 N741 1.613 . S
S740 N742 1.610 . S
N741 S740 1.613 . S
N741 C744 1.350 . S
N742 S740 1.610 . S
N742 C743 1.351 . S
C743 C737 1.428 . S
C743 N742 1.351 . S
C743 C744 1.434 . S
C744 C735 1.429 . S
C744 N741 1.350 . S
C744 C743 1.434 . S
C745 C746 1.369 . S
C745 C747 1.419 . S
C745 H749 0.930 . S
C746 C745 1.369 . S
C746 C755 1.429 . S
C747 C745 1.419 . S
C747 C748 1.363 . S
C747 H750 0.929 . S
C748 C747 1.363 . S
C748 C754 1.428 . S
H749 C745 0.930 . S
H750 C747 0.929 . S
S751 N752 1.613 . S
S751 N753 1.610 . S
N752 S751 1.613 . S
N752 C755 1.350 . S
N753 S751 1.610 . S
N753 C754 1.351 . S
C754 C748 1.428 . S
C754 N753 1.351 . S
C754 C755 1.434 . S
C755 C746 1.429 . S
C755 N752 1.350 . S
C755 C754 1.434 . S
C756 C757 1.369 . S
C756 C758 1.419 . S
C756 H760 0.930 . S
C757 C756 1.369 . S
C757 C766 1.429 . S
C758 C756 1.419 . S
C758 C759 1.363 . S
C758 H761 0.929 . S
C759 C758 1.363 . S
C759 C765 1.428 . S
H760 C756 0.930 . S
H761 C758 0.929 . S
S762 N763 1.613 . S
S762 N764 1.610 . S
N763 S762 1.613 . S
N763 C766 1.350 . S
N764 S762 1.610 . S
N764 C765 1.351 . S
C765 C759 1.428 . S
C765 N764 1.351 . S
C765 C766 1.434 . S
C766 C757 1.429 . S
C766 N763 1.350 . S
C766 C765 1.434 . S
C767 C768 1.369 . S
C767 C769 1.419 . S
C767 H771 0.930 . S
C768 C767 1.369 . S
C768 C777 1.429 . S
C769 C767 1.419 . S
C769 C770 1.363 . S
C769 H772 0.929 . S
C770 C769 1.363 . S
C770 C776 1.428 . S
H771 C767 0.930 . S
H772 C769 0.929 . S
S773 N774 1.613 . S
S773 N775 1.610 . S
N774 S773 1.613 . S
N774 C777 1.350 . S
N775 S773 1.610 . S
N775 C776 1.351 . S
C776 C770 1.428 . S
C776 N775 1.351 . S
C776 C777 1.434 . S
C777 C768 1.429 . S
C777 N774 1.350 . S
C777 C776 1.434 . S
C778 C779 1.369 . S
C778 C780 1.419 . S
C778 H782 0.930 . S
C779 C778 1.369 . S
C779 C788 1.429 . S
C780 C778 1.419 . S
C780 C781 1.363 . S
C780 H783 0.929 . S
C781 C780 1.363 . S
C781 C787 1.428 . S
H782 C778 0.930 . S
H783 C780 0.929 . S
S784 N785 1.613 . S
S784 N786 1.610 . S
N785 S784 1.613 . S
N785 C788 1.350 . S
N786 S784 1.610 . S
N786 C787 1.351 . S
C787 C781 1.428 . S
C787 N786 1.351 . S
C787 C788 1.434 . S
C788 C779 1.429 . S
C788 N785 1.350 . S
C788 C787 1.434 . S
C789 C790 1.369 . S
C789 C791 1.419 . S
C789 H793 0.930 . S
C790 C789 1.369 . S
C790 C799 1.429 1_655 S
C791 C789 1.419 . S
C791 C792 1.363 1_655 S
C791 H794 0.929 . S
C792 C791 1.363 1_455 S
C792 C798 1.428 . S
H793 C789 0.930 . S
H794 C791 0.929 . S
S795 N796 1.613 . S
S795 N797 1.610 . S
N796 S795 1.613 . S
N796 C799 1.350 . S
N797 S795 1.610 . S
N797 C798 1.351 . S
C798 C792 1.428 . S
C798 N797 1.351 . S
C798 C799 1.434 . S
C799 C790 1.429 1_455 S
C799 N796 1.350 . S
C799 C798 1.434 . S
C800 C801 1.369 . S
C800 C802 1.419 . S
C800 H804 0.930 . S
C801 C800 1.369 . S
C801 C810 1.429 . S
C802 C800 1.419 . S
C802 C803 1.363 . S
C802 H805 0.929 . S
C803 C802 1.363 . S
C803 C809 1.428 . S
H804 C800 0.930 . S
H805 C802 0.929 . S
S806 N807 1.600 1_545 S
S806 N808 1.607 1_545 S
N807 S806 1.600 1_565 S
N807 C810 1.350 . S
N808 S806 1.607 1_565 S
N808 C809 1.351 . S
C809 C803 1.428 . S
C809 N808 1.351 . S
C809 C810 1.434 . S
C810 C801 1.429 . S
C810 N807 1.350 . S
C810 C809 1.434 . S
C811 C812 1.369 . S
C811 C813 1.419 . S
C811 H815 0.930 . S
C812 C811 1.369 . S
C812 C821 1.429 . S
C813 C811 1.419 . S
C813 C814 1.363 . S
C813 H816 0.929 . S
C814 C813 1.363 . S
C814 C820 1.428 . S
H815 C811 0.930 . S
H816 C813 0.929 . S
S817 N818 1.613 . S
S817 N819 1.610 . S
N818 S817 1.613 . S
N818 C821 1.350 . S
N819 S817 1.610 . S
N819 C820 1.351 . S
C820 C814 1.428 . S
C820 N819 1.351 . S
C820 C821 1.434 . S
C821 C812 1.429 . S
C821 N818 1.350 . S
C821 C820 1.434 . S
C822 C823 1.369 1_554 S
C822 C824 1.419 . S
C822 H826 0.930 1_565 S
C823 C822 1.369 1_556 S
C823 C832 1.429 . S
C824 C822 1.419 . S
C824 C825 1.363 . S
C824 H827 0.929 . S
C825 C824 1.363 . S
C825 C831 1.428 1_554 S
H826 C822 0.930 1_545 S
H827 C824 0.929 . S
S828 N829 1.613 . S
S828 N830 1.610 . S
N829 S828 1.613 . S
N829 C832 1.350 . S
N830 S828 1.610 . S
N830 C831 1.351 . S
C831 C825 1.428 1_556 S
C831 N830 1.351 . S
C831 C832 1.434 . S
C832 C823 1.429 . S
C832 N829 1.350 . S
C832 C831 1.434 . S
C833 C834 1.369 . S
C833 C835 1.419 . S
C833 H837 0.930 . S
C834 C833 1.369 . S
C834 C843 1.429 . S
C835 C833 1.419 . S
C835 C836 1.363 . S
C835 H838 0.929 . S
C836 C835 1.363 . S
C836 C842 1.428 . S
H837 C833 0.930 . S
H838 C835 0.929 . S
S839 N840 1.613 . S
S839 N841 1.610 . S
N840 S839 1.613 . S
N840 C843 1.350 . S
N841 S839 1.610 . S
N841 C842 1.351 . S
C842 C836 1.428 . S
C842 N841 1.351 . S
C842 C843 1.434 . S
C843 C834 1.429 . S
C843 N840 1.350 . S
C843 C842 1.434 . S
C844 C845 1.369 . S
C844 C846 1.419 . S
C844 H848 0.930 . S
C845 C844 1.369 . S
C845 C854 1.429 . S
C846 C844 1.419 . S
C846 C847 1.363 . S
C846 H849 0.929 . S
C847 C846 1.363 . S
C847 C853 1.428 . S
H848 C844 0.930 . S
H849 C846 0.929 . S
S850 N851 1.613 . S
S850 N852 1.610 . S
N851 S850 1.613 . S
N851 C854 1.350 . S
N852 S850 1.610 . S
N852 C853 1.351 . S
C853 C847 1.428 . S
C853 N852 1.351 . S
C853 C854 1.434 . S
C854 C845 1.429 . S
C854 N851 1.350 . S
C854 C853 1.434 . S
C855 C856 1.369 . S
C855 C857 1.419 . S
C855 H859 0.930 . S
C856 C855 1.369 . S
C856 C865 1.429 . S
C857 C855 1.419 . S
C857 C858 1.363 . S
C857 H860 0.929 . S
C858 C857 1.363 . S
C858 C864 1.428 . S
H859 C855 0.930 . S
H860 C857 0.929 . S
S861 N862 1.613 . S
S861 N863 1.610 . S
N862 S861 1.613 . S
N862 C865 1.350 . S
N863 S861 1.610 . S
N863 C864 1.351 . S
C864 C858 1.428 . S
C864 N863 1.351 . S
C864 C865 1.434 . S
C865 C856 1.429 . S
C865 N862 1.350 . S
C865 C864 1.434 . S
C866 C867 1.369 . S
C866 C868 1.419 . S
C866 H870 0.930 . S
C867 C866 1.369 . S
C867 C876 1.429 . S
C868 C866 1.419 . S
C868 C869 1.363 . S
C868 H871 0.929 . S
C869 C868 1.363 . S
C869 C875 1.428 . S
H870 C866 0.930 . S
H871 C868 0.929 . S
S872 N873 1.613 . S
S872 N874 1.610 . S
N873 S872 1.613 . S
N873 C876 1.350 . S
N874 S872 1.610 . S
N874 C875 1.351 . S
C875 C869 1.428 . S
C875 N874 1.351 . S
C875 C876 1.434 . S
C876 C867 1.429 . S
C876 N873 1.350 . S
C876 C875 1.434 . S
C877 C878 1.369 . S
C877 C879 1.419 . S
C877 H881 0.930 . S
C878 C877 1.369 . S
C878 C887 1.429 . S
C879 C877 1.419 . S
C879 C880 1.363 . S
C879 H882 0.929 . S
C880 C879 1.363 . S
C880 C886 1.428 . S
H881 C877 0.930 . S
H882 C879 0.929 . S
S883 N884 1.613 . S
S883 N885 1.610 . S
N884 S883 1.613 . S
N884 C887 1.350 . S
N885 S883 1.610 . S
N885 C886 1.351 . S
C886 C880 1.428 . S
C886 N885 1.351 . S
C886 C887 1.434 . S
C887 C878 1.429 . S
C887 N884 1.350 . S
C887 C886 1.434 . S
C888 C889 1.369 . S
C888 C890 1.419 . S
C888 H892 0.930 . S
C889 C888 1.369 . S
C889 C898 1.429 . S
C890 C888 1.419 . S
C890 C891 1.363 . S
C890 H893 0.929 . S
C891 C890 1.363 . S
C891 C897 1.428 . S
H892 C888 0.930 . S
H893 C890 0.929 . S
S894 N895 1.613 . S
S894 N896 1.610 . S
N895 S894 1.613 . S
N895 C898 1.350 . S
N896 S894 1.610 . S
N896 C897 1.351 . S
C897 C891 1.428 . S
C897 N896 1.351 . S
C897 C898 1.434 . S
C898 C889 1.429 . S
C898 N895 1.350 . S
C898 C897 1.434 . S
C899 C900 1.369 1_565 S
C899 C901 1.419 . S
C899 H903 0.930 . S
C900 C899 1.369 1_545 S
C900 C909 1.429 . S
C901 C899 1.419 . S
C901 C902 1.363 1_565 S
C901 H904 0.929 . S
C902 C901 1.363 1_545 S
C902 C908 1.428 . S
H903 C899 0.930 . S
H904 C901 0.929 . S
S905 N906 1.613 . S
S905 N907 1.610 . S
N906 S905 1.613 . S
N906 C909 1.350 . S
N907 S905 1.610 . S
N907 C908 1.351 . S
C908 C902 1.428 . S
C908 N907 1.351 . S
C908 C909 1.434 . S
C909 C900 1.429 . S
C909 N906 1.350 . S
C909 C908 1.434 . S
C910 C911 1.369 . S
C910 C912 1.419 . S
C910 H914 0.930 . S
C911 C910 1.369 . S
C911 C920 1.429 . S
C912 C910 1.419 . S
C912 C913 1.363 . S
C912 H915 0.929 . S
C913 C912 1.363 . S
C913 C919 1.428 . S
H914 C910 0.930 . S
H915 C912 0.929 . S
S916 N917 1.613 . S
S916 N918 1.610 . S
N917 S916 1.613 . S
N917 C920 1.350 . S
N918 S916 1.610 . S
N918 C919 1.351 . S
C919 C913 1.428 . S
C919 N918 1.351 . S
C919 C920 1.434 . S
C920 C911 1.429 . S
C920 N917 1.350 . S
C920 C919 1.434 . S
C921 C922 1.369 . S
C921 C923 1.419 . S
C921 H925 0.930 . S
C922 C921 1.369 . S
C922 C931 1.429 . S
C923 C921 1.419 . S
C923 C924 1.363 . S
C923 H926 0.929 . S
C924 C923 1.363 . S
C924 C930 1.428 . S
H925 C921 0.930 . S
H926 C923 0.929 . S
S927 N928 1.613 . S
S927 N929 1.610 . S
N928 S927 1.613 . S
N928 C931 1.350 . S
N929 S927 1.610 . S
N929 C930 1.351 . S
C930 C924 1.428 . S
C930 N929 1.351 . S
C930 C931 1.434 . S
C931 C922 1.429 . S
C931 N928 1.350 . S
C931 C930 1.434 . S
C932 C933 1.369 . S
C932 C934 1.419 . S
C932 H936 0.930 . S
C933 C932 1.369 . S
C933 C942 1.429 . S
C934 C932 1.419 . S
C934 C935 1.363 . S
C934 H937 0.929 . S
C935 C934 1.363 . S
C935 C941 1.428 . S
H936 C932 0.930 . S
H937 C934 0.929 . S
S938 N939 1.613 . S
S938 N940 1.610 . S
N939 S938 1.613 . S
N939 C942 1.350 . S
N940 S938 1.610 . S
N940 C941 1.351 . S
C941 C935 1.428 . S
C941 N940 1.351 . S
C941 C942 1.434 . S
C942 C933 1.429 . S
C942 N939 1.350 . S
C942 C941 1.434 . S
C943 C944 1.369 . S
C943 C945 1.419 1_455 S
C943 H947 0.930 . S
C944 C943 1.369 . S
C944 C953 1.429 1_545 S
C945 C943 1.419 1_655 S
C945 C946 1.363 . S
C945 H948 0.929 . S
C946 C945 1.363 . S
C946 C952 1.428 1_645 S
H947 C943 0.930 . S
H948 C945 0.929 . S
S949 N950 1.613 . S
S949 N951 1.610 . S
N950 S949 1.613 . S
N950 C953 1.350 . S
N951 S949 1.610 . S
N951 C952 1.351 . S
C952 C946 1.428 1_465 S
C952 N951 1.351 . S
C952 C953 1.434 . S
C953 C944 1.429 1_565 S
C953 N950 1.350 . S
C953 C952 1.434 . S
C954 C955 1.369 . S
C954 C956 1.419 . S
C954 H958 0.930 . S
C955 C954 1.369 . S
C955 C964 1.429 . S
C956 C954 1.419 . S
C956 C957 1.363 . S
C956 H959 0.929 . S
C957 C956 1.363 . S
C957 C963 1.428 . S
H958 C954 0.930 . S
H959 C956 0.929 . S
S960 N961 1.613 . S
S960 N962 1.610 . S
N961 S960 1.613 . S
N961 C964 1.350 . S
N962 S960 1.610 . S
N962 C963 1.351 . S
C963 C957 1.428 . S
C963 N962 1.351 . S
C963 C964 1.434 . S
C964 C955 1.429 . S
C964 N961 1.350 . S
C964 C963 1.434 . S
C965 C966 1.369 . S
C965 C967 1.419 . S
C965 H969 0.930 1_455 S
C966 C965 1.369 . S
C966 C975 1.429 . S
C967 C965 1.419 . S
C967 C968 1.363 . S
C967 H970 0.929 . S
C968 C967 1.363 . S
C968 C974 1.428 . S
H969 C965 0.930 1_655 S
H970 C967 0.929 . S
S971 N972 1.613 . S
S971 N973 1.610 . S
N972 S971 1.613 . S
N972 C975 1.350 . S
N973 S971 1.610 . S
N973 C974 1.351 . S
C974 C968 1.428 . S
C974 N973 1.351 . S
C974 C975 1.434 . S
C975 C966 1.429 . S
C975 N972 1.350 . S
C975 C974 1.434 . S
C976 C977 1.369 . S
C976 C978 1.419 . S
C976 H980 0.930 . S
C977 C976 1.369 . S
C977 C986 1.429 . S
C978 C976 1.419 . S
C978 C979 1.363 . S
C978 H981 0.929 . S
C979 C978 1.363 . S
C979 C985 1.428 . S
H980 C976 0.930 . S
H981 C978 0.929 . S
S982 N983 1.613 . S
S982 N984 1.610 . S
N983 S982 1.613 . S
N983 C986 1.350 . S
N984 S982 1.610 . S
N984 C985 1.351 . S
C985 C979 1.428 . S
C985 N984 1.351 . S
C985 C986 1.434 . S
C986 C977 1.429 . S
C986 N983 1.350 . S
C986 C985 1.434 . S
C987 C988 1.369 1_455 S
C987 C989 1.419 . S
C987 H991 0.930 . S
C988 C987 1.369 1_655 S
C988 C997 1.429 . S
C989 C987 1.419 . S
C989 C990 1.379 . S
C989 H992 0.929 . S
C990 C989 1.379 . S
C990 C996 1.406 1_455 S
H991 C987 0.930 . S
H992 C989 0.929 . S
S993 N994 1.613 . S
S993 N995 1.610 . S
N994 S993 1.613 . S
N994 C997 1.350 . S
N995 S993 1.610 . S
N995 C996 1.351 . S
C996 C990 1.406 1_655 S
C996 N995 1.351 . S
C996 C997 1.434 . S
C997 C988 1.429 . S
C997 N994 1.350 . S
C997 C996 1.434 . S
C998 C999 1.369 . S
C998 C1000 1.419 . S
C998 H1002 0.930 . S
C999 C998 1.369 . S
C999 C1008 1.429 . S
C1000 C998 1.419 . S
C1000 C1001 1.363 . S
C1000 H1003 0.929 . S
C1001 C1000 1.363 . S
C1001 C1007 1.428 . S
H1002 C998 0.930 . S
H1003 C1000 0.929 . S
S1004 N1005 1.613 . S
S1004 N1006 1.610 . S
N1005 S1004 1.613 . S
N1005 C1008 1.350 . S
N1006 S1004 1.610 . S
N1006 C1007 1.351 . S
C1007 C1001 1.428 . S
C1007 N1006 1.351 . S
C1007 C1008 1.434 . S
C1008 C999 1.429 . S
C1008 N1005 1.350 . S
C1008 C1007 1.434 . S
C1009 C1010 1.369 . S
C1009 C1011 1.419 . S
C1009 H1013 0.930 . S
C1010 C1009 1.369 . S
C1010 C1019 1.429 . S
C1011 C1009 1.419 . S
C1011 C1012 1.363 . S
C1011 H1014 0.929 . S
C1012 C1011 1.363 . S
C1012 C1018 1.428 . S
H1013 C1009 0.930 . S
H1014 C1011 0.929 . S
S1015 N1016 1.613 . S
S1015 N1017 1.610 1_554 S
N1016 S1015 1.613 . S
N1016 C1019 1.350 1_554 S
N1017 S1015 1.610 1_556 S
N1017 C1018 1.351 . S
C1018 C1012 1.428 . S
C1018 N1017 1.351 . S
C1018 C1019 1.434 . S
C1019 C1010 1.429 . S
C1019 N1016 1.350 1_556 S
C1019 C1018 1.434 . S
C1020 C1021 1.369 . S
C1020 C1022 1.419 . S
C1020 H1024 0.930 . S
C1021 C1020 1.369 . S
C1021 C1030 1.429 . S
C1022 C1020 1.419 . S
C1022 C1023 1.363 . S
C1022 H1025 0.929 . S
C1023 C1022 1.363 . S
C1023 C1029 1.428 . S
H1024 C1020 0.930 . S
H1025 C1022 0.929 . S
S1026 N1027 1.613 . S
S1026 N1028 1.610 . S
N1027 S1026 1.613 . S
N1027 C1030 1.350 . S
N1028 S1026 1.610 . S
N1028 C1029 1.351 . S
C1029 C1023 1.428 . S
C1029 N1028 1.351 . S
C1029 C1030 1.434 . S
C1030 C1021 1.429 . S
C1030 N1027 1.350 . S
C1030 C1029 1.434 . S
C1031 C1032 1.369 . S
C1031 C1033 1.419 . S
C1031 H1035 0.930 . S
C1032 C1031 1.369 . S
C1032 C1041 1.429 . S
C1033 C1031 1.419 . S
C1033 C1034 1.363 . S
C1033 H1036 0.929 . S
C1034 C1033 1.363 . S
C1034 C1040 1.428 . S
H1035 C1031 0.930 . S
H1036 C1033 0.929 . S
S1037 N1038 1.613 . S
S1037 N1039 1.610 . S
N1038 S1037 1.613 . S
N1038 C1041 1.350 . S
N1039 S1037 1.610 . S
N1039 C1040 1.351 . S
C1040 C1034 1.428 . S
C1040 N1039 1.351 . S
C1040 C1041 1.434 . S
C1041 C1032 1.429 . S
C1041 N1038 1.350 . S
C1041 C1040 1.434 . S
C1042 C1043 1.369 . S
C1042 C1044 1.419 . S
C1042 H1046 0.930 . S
C1043 C1042 1.369 . S
C1043 C1052 1.429 . S
C1044 C1042 1.419 . S
C1044 C1045 1.363 . S
C1044 H1047 0.929 . S
C1045 C1044 1.363 . S
C1045 C1051 1.428 . S
H1046 C1042 0.930 . S
H1047 C1044 0.929 . S
S1048 N1049 1.613 . S
S1048 N1050 1.610 . S
N1049 S1048 1.613 . S
N1049 C1052 1.350 . S
N1050 S1048 1.610 . S
N1050 C1051 1.351 . S
C1051 C1045 1.428 . S
C1051 N1050 1.351 . S
C1051 C1052 1.434 . S
C1052 C1043 1.429 . S
C1052 N1049 1.350 . S
C1052 C1051 1.434 . S
C1053 C1054 1.369 . S
C1053 C1055 1.419 . S
C1053 H1057 0.930 . S
C1054 C1053 1.369 . S
C1054 C1063 1.429 . S
C1055 C1053 1.419 . S
C1055 C1056 1.363 . S
C1055 H1058 0.929 . S
C1056 C1055 1.363 . S
C1056 C1062 1.428 . S
H1057 C1053 0.930 . S
H1058 C1055 0.929 . S
S1059 N1060 1.613 . S
S1059 N1061 1.610 . S
N1060 S1059 1.613 . S
N1060 C1063 1.350 . S
N1061 S1059 1.610 . S
N1061 C1062 1.351 . S
C1062 C1056 1.428 . S
C1062 N1061 1.351 . S
C1062 C1063 1.434 . S
C1063 C1054 1.429 . S
C1063 N1060 1.350 . S
C1063 C1062 1.434 . S
C1064 C1065 1.369 . S
C1064 C1066 1.419 . S
C1064 H1068 0.930 . S
C1065 C1064 1.369 . S
C1065 C1074 1.429 . S
C1066 C1064 1.419 . S
C1066 C1067 1.363 . S
C1066 H1069 0.929 . S
C1067 C1066 1.363 . S
C1067 C1073 1.428 . S
H1068 C1064 0.930 . S
H1069 C1066 0.929 . S
S1070 N1071 1.613 . S
S1070 N1072 1.610 . S
N1071 S1070 1.613 . S
N1071 C1074 1.350 . S
N1072 S1070 1.610 . S
N1072 C1073 1.351 . S
C1073 C1067 1.428 . S
C1073 N1072 1.351 . S
C1073 C1074 1.434 . S
C1074 C1065 1.429 . S
C1074 N1071 1.350 . S
C1074 C1073 1.434 . S
C1075 C1076 1.369 . S
C1075 C1077 1.419 . S
C1075 H1079 0.930 . S
C1076 C1075 1.369 . S
C1076 C1085 1.429 . S
C1077 C1075 1.419 . S
C1077 C1078 1.363 . S
C1077 H1080 0.929 . S
C1078 C1077 1.363 . S
C1078 C1084 1.428 . S
H1079 C1075 0.930 . S
H1080 C1077 0.929 . S
S1081 N1082 1.613 . S
S1081 N1083 1.610 . S
N1082 S1081 1.613 . S
N1082 C1085 1.350 . S
N1083 S1081 1.610 . S
N1083 C1084 1.351 . S
C1084 C1078 1.428 . S
C1084 N1083 1.351 . S
C1084 C1085 1.434 . S
C1085 C1076 1.429 . S
C1085 N1082 1.350 . S
C1085 C1084 1.434 . S
C1086 C1087 1.369 . S
C1086 C1088 1.419 . S
C1086 H1090 0.930 . S
C1087 C1086 1.369 . S
C1087 C1096 1.429 . S
C1088 C1086 1.419 . S
C1088 C1089 1.363 . S
C1088 H1091 0.929 . S
C1089 C1088 1.363 . S
C1089 C1095 1.428 . S
H1090 C1086 0.930 . S
H1091 C1088 0.929 . S
S1092 N1093 1.613 . S
S1092 N1094 1.610 . S
N1093 S1092 1.613 . S
N1093 C1096 1.350 . S
N1094 S1092 1.610 . S
N1094 C1095 1.351 . S
C1095 C1089 1.428 . S
C1095 N1094 1.351 . S
C1095 C1096 1.434 . S
C1096 C1087 1.429 . S
C1096 N1093 1.350 . S
C1096 C1095 1.434 . S
C1097 C1098 1.369 . S
C1097 C1099 1.419 . S
C1097 H1101 0.930 . S
C1098 C1097 1.369 . S
C1098 C1107 1.429 . S
C1099 C1097 1.419 . S
C1099 C1100 1.363 . S
C1099 H1102 0.929 . S
C1100 C1099 1.363 . S
C1100 C1106 1.428 . S
H1101 C1097 0.930 . S
H1102 C1099 0.929 . S
S1103 N1104 1.613 . S
S1103 N1105 1.610 . S
N1104 S1103 1.613 . S
N1104 C1107 1.350 . S
N1105 S1103 1.610 . S
N1105 C1106 1.351 . S
C1106 C1100 1.428 . S
C1106 N1105 1.351 . S
C1106 C1107 1.434 . S
C1107 C1098 1.429 . S
C1107 N1104 1.350 . S
C1107 C1106 1.434 . S
C1108 C1109 1.369 1_554 S
C1108 C1110 1.419 . S
C1108 H1112 0.930 . S
C1109 C1108 1.369 1_556 S
C1109 C1118 1.429 . S
C1110 C1108 1.419 . S
C1110 C1111 1.363 1_554 S
C1110 H1113 0.929 . S
C1111 C1110 1.363 1_556 S
C1111 C1117 1.428 . S
H1112 C1108 0.930 . S
H1113 C1110 0.929 . S
S1114 N1115 1.613 . S
S1114 N1116 1.610 . S
N1115 S1114 1.613 . S
N1115 C1118 1.350 . S
N1116 S1114 1.610 . S
N1116 C1117 1.351 . S
C1117 C1111 1.428 . S
C1117 N1116 1.351 . S
C1117 C1118 1.434 . S
C1118 C1109 1.429 . S
C1118 N1115 1.350 . S
C1118 C1117 1.434 . S
C1119 C1120 1.369 . S
C1119 C1121 1.419 . S
C1119 H1123 0.930 . S
C1120 C1119 1.369 . S
C1120 C1129 1.429 . S
C1121 C1119 1.419 . S
C1121 C1122 1.363 . S
C1121 H1124 0.929 . S
C1122 C1121 1.363 . S
C1122 C1128 1.428 . S
H1123 C1119 0.930 . S
H1124 C1121 0.929 . S
S1125 N1126 1.613 . S
S1125 N1127 1.610 . S
N1126 S1125 1.613 . S
N1126 C1129 1.350 . S
N1127 S1125 1.610 . S
N1127 C1128 1.351 . S
C1128 C1122 1.428 . S
C1128 N1127 1.351 . S
C1128 C1129 1.434 . S
C1129 C1120 1.429 . S
C1129 N1126 1.350 . S
C1129 C1128 1.434 . S
C1130 C1131 1.369 . S
C1130 C1132 1.419 . S
C1130 H1134 0.930 . S
C1131 C1130 1.369 . S
C1131 C1140 1.429 . S
C1132 C1130 1.419 . S
C1132 C1133 1.363 . S
C1132 H1135 0.929 . S
C1133 C1132 1.363 . S
C1133 C1139 1.428 1_554 S
H1134 C1130 0.930 . S
H1135 C1132 0.929 . S
S1136 N1137 1.613 . S
S1136 N1138 1.610 . S
N1137 S1136 1.613 . S
N1137 C1140 1.350 1_556 S
N1138 S1136 1.610 . S
N1138 C1139 1.351 . S
C1139 C1133 1.428 1_556 S
C1139 N1138 1.351 . S
C1139 C1140 1.434 1_556 S
C1140 C1131 1.429 . S
C1140 N1137 1.350 1_554 S
C1140 C1139 1.434 1_554 S
C1141 C1142 1.369 . S
C1141 C1143 1.419 . S
C1141 H1145 0.930 1_565 S
C1142 C1141 1.369 . S
C1142 C1151 1.429 . S
C1143 C1141 1.419 . S
C1143 C1144 1.363 . S
C1143 H1146 0.929 . S
C1144 C1143 1.363 . S
C1144 C1150 1.428 . S
H1145 C1141 0.930 1_545 S
H1146 C1143 0.929 . S
S1147 N1148 1.613 . S
S1147 N1149 1.610 . S
N1148 S1147 1.613 . S
N1148 C1151 1.350 . S
N1149 S1147 1.610 . S
N1149 C1150 1.351 . S
C1150 C1144 1.428 . S
C1150 N1149 1.351 . S
C1150 C1151 1.434 . S
C1151 C1142 1.429 . S
C1151 N1148 1.350 . S
C1151 C1150 1.434 . S
C627 C194 1.696 . S
C625 C66 1.694 . S
C638 C242 1.327 . S
C636 C76 1.344 . S
C647 C93 1.720 . S
C649 C278 1.628 . S
C660 C314 1.535 . S
C658 C54 1.579 . S
C671 C340 1.484 . S
C669 C126 1.485 . S
C682 C376 1.786 . S
C680 C150 1.815 . S
C691 C136 1.298 . S
C693 C411 1.324 . S
C704 C448 1.759 . S
C702 C117 1.780 . S
C713 C141 1.311 . S
C715 C482 1.309 . S
C726 C530 1.378 . S
C724 C112 1.408 . S
C735 C124 1.487 . S
C737 C483 1.509 . S
C748 C520 1.443 . S
C746 C148 1.439 . S
C757 C88 1.362 . S
C759 C566 1.284 . S
C768 C52 1.638 . S
C770 C555 1.630 . S
C779 C64 1.315 . S
C781 C556 1.320 . S
C790 C78 1.368 . S
C792 C554 1.363 . S
C801 C45 1.615 . S
C803 C302 1.602 . S
C812 C177 1.752 . S
C814 C303 1.759 . S
C825 C206 1.469 . S
C823 C189 1.553 1_565 S
C836 C231 1.569 . S
C834 C102 1.560 . S
C845 C57 1.755 . S
C847 C338 1.756 . S
C858 C446 1.463 . S
C856 C138 1.495 . S
C869 C339 1.744 . S
C867 C114 1.750 . S
C880 C412 1.773 . S
C878 C153 1.776 . S
C891 C410 1.698 . S
C889 C174 1.690 . S
C900 C184 1.344 . S
C902 C458 1.322 . S
C911 C105 1.721 . S
C913 C350 1.633 . S
C924 C386 1.538 . S
C922 C162 1.579 . S
C933 C42 1.486 . S
C935 C268 1.484 . S
C946 C304 1.784 . S
C944 C6 1.816 . S
C957 C195 1.323 . S
C955 C16 1.299 . S
C968 C232 1.758 . S
C966 C33 1.782 1_455 S
C977 C21 1.311 . S
C979 C518 1.309 . S
C988 C28 1.407 . S
C990 C494 1.374 1_455 S
C999 C40 1.482 . S
C1001 C519 1.510 . S
C1010 C4 1.439 . S
C1012 C484 1.442 . S
C1023 C602 1.278 . S
C1021 C100 1.364 . S
C1034 C591 1.630 . S
C1032 C160 1.638 . S
C1045 C592 1.324 . S
C1043 C172 1.308 . S
C1054 C186 1.367 . S
C1056 C590 1.361 . S
C1065 C129 1.612 . S
C1067 C374 1.606 . S
C1078 C375 1.757 . S
C1076 C69 1.754 . S
C1089 C422 1.474 . S
C1087 C81 1.549 . S
C1100 C447 1.569 . S
C1098 C90 1.561 . S
C1109 C165 1.755 . S
C1111 C266 1.756 1_556 S
C1122 C230 1.469 . S
C1120 C18 1.494 . S
C1131 C30 1.749 . S
C1133 C267 1.744 . S
C1144 C196 1.772 . S
C1142 C9 1.777 1_565 S
