# Generated by pormake.
# Topology ssb, (4,4)-cn, num edge types: 1
# Building blocks:
#     Node 0, Type 0, BuildingBlock: KUFVIS_clean_linker_0, # of connection points: 4
#     Node 1, Type 0, BuildingBlock: KUFVIS_clean_linker_0, # of connection points: 4
#     Node 2, Type 0, BuildingBlock: KUFVIS_clean_linker_0, # of connection points: 4
#     Node 3, Type 0, BuildingBlock: KUFVIS_clean_linker_0, # of connection points: 4
#     Node 4, Type 0, BuildingBlock: KUFVIS_clean_linker_0, # of connection points: 4
#     Node 5, Type 0, BuildingBlock: KUFVIS_clean_linker_0, # of connection points: 4
#     Node 6, Type 0, BuildingBlock: KUFVIS_clean_linker_0, # of connection points: 4
#     Node 7, Type 0, BuildingBlock: KUFVIS_clean_linker_0, # of connection points: 4
#     Node 8, Type 1, BuildingBlock: KOZSID_clean_sbu_0, # of connection points: 4
#     Node 9, Type 1, BuildingBlock: KOZSID_clean_sbu_0, # of connection points: 4
#     Node 10, Type 1, BuildingBlock: KOZSID_clean_sbu_0, # of connection points: 4
#     Node 11, Type 1, BuildingBlock: KOZSID_clean_sbu_0, # of connection points: 4
#     Node 12, Type 1, BuildingBlock: KOZSID_clean_sbu_0, # of connection points: 4
#     Node 13, Type 1, BuildingBlock: KOZSID_clean_sbu_0, # of connection points: 4
#     Node 14, Type 1, BuildingBlock: KOZSID_clean_sbu_0, # of connection points: 4
#     Node 15, Type 1, BuildingBlock: KOZSID_clean_sbu_0, # of connection points: 4
#     Edge 16, Type (0, 1), BuildingBlock: OJICUG_clean_linker_0, # of connection points: 2
#     Edge 17, Type (0, 1), BuildingBlock: OJICUG_clean_linker_0, # of connection points: 2
#     Edge 18, Type (0, 1), BuildingBlock: OJICUG_clean_linker_0, # of connection points: 2
#     Edge 19, Type (0, 1), BuildingBlock: OJICUG_clean_linker_0, # of connection points: 2
#     Edge 20, Type (0, 1), BuildingBlock: OJICUG_clean_linker_0, # of connection points: 2
#     Edge 21, Type (0, 1), BuildingBlock: OJICUG_clean_linker_0, # of connection points: 2
#     Edge 22, Type (0, 1), BuildingBlock: OJICUG_clean_linker_0, # of connection points: 2
#     Edge 23, Type (0, 1), BuildingBlock: OJICUG_clean_linker_0, # of connection points: 2
#     Edge 24, Type (0, 1), BuildingBlock: OJICUG_clean_linker_0, # of connection points: 2
#     Edge 25, Type (0, 1), BuildingBlock: OJICUG_clean_linker_0, # of connection points: 2
#     Edge 26, Type (0, 1), BuildingBlock: OJICUG_clean_linker_0, # of connection points: 2
#     Edge 27, Type (0, 1), BuildingBlock: OJICUG_clean_linker_0, # of connection points: 2
#     Edge 28, Type (0, 1), BuildingBlock: OJICUG_clean_linker_0, # of connection points: 2
#     Edge 29, Type (0, 1), BuildingBlock: OJICUG_clean_linker_0, # of connection points: 2
#     Edge 30, Type (0, 1), BuildingBlock: OJICUG_clean_linker_0, # of connection points: 2
#     Edge 31, Type (0, 1), BuildingBlock: OJICUG_clean_linker_0, # of connection points: 2
#     Edge 32, Type (0, 1), BuildingBlock: OJICUG_clean_linker_0, # of connection points: 2
#     Edge 33, Type (0, 1), BuildingBlock: OJICUG_clean_linker_0, # of connection points: 2
#     Edge 34, Type (0, 1), BuildingBlock: OJICUG_clean_linker_0, # of connection points: 2
#     Edge 35, Type (0, 1), BuildingBlock: OJICUG_clean_linker_0, # of connection points: 2
#     Edge 36, Type (0, 1), BuildingBlock: OJICUG_clean_linker_0, # of connection points: 2
#     Edge 37, Type (0, 1), BuildingBlock: OJICUG_clean_linker_0, # of connection points: 2
#     Edge 38, Type (0, 1), BuildingBlock: OJICUG_clean_linker_0, # of connection points: 2
#     Edge 39, Type (0, 1), BuildingBlock: OJICUG_clean_linker_0, # of connection points: 2
#     Edge 40, Type (0, 1), BuildingBlock: OJICUG_clean_linker_0, # of connection points: 2
#     Edge 41, Type (0, 1), BuildingBlock: OJICUG_clean_linker_0, # of connection points: 2
#     Edge 42, Type (0, 1), BuildingBlock: OJICUG_clean_linker_0, # of connection points: 2
#     Edge 43, Type (0, 1), BuildingBlock: OJICUG_clean_linker_0, # of connection points: 2
#     Edge 44, Type (0, 1), BuildingBlock: OJICUG_clean_linker_0, # of connection points: 2
#     Edge 45, Type (0, 1), BuildingBlock: OJICUG_clean_linker_0, # of connection points: 2
#     Edge 46, Type (0, 1), BuildingBlock: OJICUG_clean_linker_0, # of connection points: 2
#     Edge 47, Type (0, 1), BuildingBlock: OJICUG_clean_linker_0, # of connection points: 2
# Relax obj value: 0.004
# Max RMSD: 0.072
# Mean RMSD: 0.035
data_MOF--net-ssb--node1-KOZSID_clean_sbu_0--node2-KUFVIS_clean_linker_0--edge1-OJICUG_clean_linker_0
_symmetry_space_group_name_H-M    P1
_symmetry_Int_Tables_number       1
_symmetry_cell_setting            triclinic
loop_
_symmetry_equiv_pos_as_xyz
'x, y, z'
_cell_length_a     41.374787
_cell_length_b     41.257061
_cell_length_c     30.299777
_cell_angle_alpha  93.319411
_cell_angle_beta   96.550978
_cell_angle_gamma 89.9708
loop_
_atom_site_label
_atom_site_type_symbol
_atom_site_fract_x
_atom_site_fract_y
_atom_site_fract_z
_atom_type_partial_charge
H0 H 0.2021 0.19941 0.39719 0.0
H1 H 0.27847 0.19917 0.3133 0.0
H2 H 0.21012 0.27955 0.31636 0.0
H3 H 0.22686 0.29709 0.25848 0.0
H4 H 0.31146 0.30686 0.19159 0.0
H5 H 0.30713 0.22879 0.27711 0.0
C6 C 0.21452 0.21096 0.37252 0.0
C7 C 0.20295 0.24045 0.35693 0.0
C8 C 0.24205 0.19635 0.35778 0.0
C9 C 0.25781 0.21153 0.32496 0.0
C10 C 0.24686 0.24215 0.30821 0.0
C11 C 0.21932 0.25622 0.32593 0.0
C12 C 0.26411 0.25988 0.27384 0.0
C13 C 0.25053 0.28801 0.25261 0.0
C14 C 0.26781 0.30537 0.22347 0.0
C15 C 0.29817 0.29395 0.21411 0.0
C16 C 0.3118 0.26621 0.23271 0.0
C17 C 0.29508 0.24943 0.26247 0.0
H18 H 0.70194 0.32353 0.18842 0.0
H19 H 0.77992 0.32032 0.29302 0.0
H20 H 0.7165 0.23661 0.25757 0.0
H21 H 0.72948 0.22323 0.32295 0.0
H22 H 0.8104 0.21273 0.42058 0.0
H23 H 0.8124 0.28864 0.33022 0.0
C24 C 0.71551 0.30997 0.21395 0.0
C25 C 0.70568 0.27853 0.22122 0.0
C26 C 0.74268 0.32433 0.23915 0.0
C27 C 0.75993 0.30771 0.27321 0.0
C28 C 0.75074 0.27594 0.28194 0.0
C29 C 0.72375 0.2614 0.25439 0.0
C30 C 0.76827 0.25861 0.3203 0.0
C31 C 0.75341 0.2317 0.33661 0.0
C32 C 0.76886 0.21501 0.37168 0.0
C33 C 0.79862 0.22611 0.39348 0.0
C34 C 0.81411 0.25316 0.3793 0.0
C35 C 0.79939 0.26873 0.34183 0.0
H36 H 0.80594 0.81435 0.40157 0.0
H37 H 0.80515 0.7378 0.30084 0.0
H38 H 0.72283 0.80328 0.30423 0.0
H39 H 0.70546 0.78246 0.24014 0.0
H40 H 0.70244 0.70093 0.1462 0.0
H41 H 0.77729 0.70545 0.25533 0.0
C42 C 0.79312 0.80106 0.3729 0.0
C43 C 0.76268 0.81205 0.35502 0.0
C44 C 0.80806 0.77418 0.35369 0.0
C45 C 0.79233 0.75777 0.31521 0.0
C46 C 0.76103 0.7669 0.29597 0.0
C47 C 0.74662 0.79483 0.31666 0.0
C48 C 0.74437 0.74757 0.25451 0.0
C49 C 0.716 0.75967 0.23017 0.0
C50 C 0.70083 0.74289 0.1915 0.0
C51 C 0.7143 0.71396 0.17579 0.0
C52 C 0.74203 0.70066 0.19822 0.0
C53 C 0.75658 0.71701 0.23806 0.0
H54 H 0.18984 0.82613 0.3341 0.0
H55 H 0.26791 0.81473 0.25487 0.0
H56 H 0.20535 0.73266 0.27152 0.0
H57 H 0.2218 0.71259 0.21096 0.0
H58 H 0.30745 0.69783 0.14583 0.0
H59 H 0.30235 0.78132 0.23411 0.0
C60 C 0.20306 0.81065 0.31226 0.0
C61 C 0.1935 0.77828 0.30271 0.0
C62 C 0.23055 0.82287 0.29615 0.0
C63 C 0.24792 0.80341 0.2682 0.0
C64 C 0.23952 0.77049 0.25791 0.0
C65 C 0.21233 0.75793 0.27674 0.0
C66 C 0.25893 0.75006 0.22744 0.0
C67 C 0.24588 0.72081 0.20626 0.0
C68 C 0.2634 0.70186 0.17745 0.0
C69 C 0.29391 0.71245 0.16823 0.0
C70 C 0.30737 0.74153 0.18781 0.0
C71 C 0.29033 0.75988 0.21797 0.0
H72 H 0.31371 0.71873 0.88047 0.0
H73 H 0.22942 0.72699 0.78682 0.0
H74 H 0.31121 0.794 0.78935 0.0
H75 H 0.28229 0.82443 0.74588 0.0
H76 H 0.20558 0.82323 0.63873 0.0
H77 H 0.21247 0.74454 0.72456 0.0
C78 C 0.30055 0.73129 0.85353 0.0
C79 C 0.31478 0.75841 0.83783 0.0
C80 C 0.27029 0.71934 0.83459 0.0
C81 C 0.25321 0.73623 0.79968 0.0
C82 C 0.26726 0.76393 0.78173 0.0
C83 C 0.29868 0.77404 0.80157 0.0
C84 C 0.25017 0.78149 0.74204 0.0
C85 C 0.26152 0.81186 0.72796 0.0
C86 C 0.24586 0.82656 0.68989 0.0
C87 C 0.21822 0.81156 0.66687 0.0
C88 C 0.20596 0.78251 0.6801 0.0
C89 C 0.2221 0.76754 0.71684 0.0
H90 H 0.31707 0.31889 0.93246 0.0
H91 H 0.29258 0.22912 0.85897 0.0
H92 H 0.23307 0.31451 0.83641 0.0
H93 H 0.19492 0.28277 0.80673 0.0
H94 H 0.18038 0.19954 0.71591 0.0
H95 H 0.27253 0.21312 0.79346 0.0
C96 C 0.30079 0.30471 0.90813 0.0
C97 C 0.27333 0.31948 0.88686 0.0
C98 C 0.30826 0.27241 0.89711 0.0
C99 C 0.28711 0.25446 0.86507 0.0
C100 C 0.25928 0.26901 0.84227 0.0
C101 C 0.2533 0.30196 0.85337 0.0
C102 C 0.23689 0.25022 0.80692 0.0
C103 C 0.20478 0.26081 0.7926 0.0
C104 C 0.18471 0.24292 0.75915 0.0
C105 C 0.19577 0.21348 0.74162 0.0
C106 C 0.2272 0.20278 0.75494 0.0
C107 C 0.24785 0.22145 0.78614 0.0
H108 H 0.7027 0.31254 0.89263 0.0
H109 H 0.7788 0.30514 0.80875 0.0
H110 H 0.70629 0.228 0.8055 0.0
H111 H 0.72447 0.20479 0.74932 0.0
H112 H 0.80669 0.19146 0.67711 0.0
H113 H 0.80497 0.27427 0.76782 0.0
C114 C 0.71458 0.299 0.86729 0.0
C115 C 0.70135 0.26933 0.84943 0.0
C116 C 0.7427 0.31167 0.85338 0.0
C117 C 0.75765 0.29412 0.81951 0.0
C118 C 0.74536 0.26305 0.80072 0.0
C119 C 0.71696 0.25118 0.81725 0.0
C120 C 0.76193 0.243 0.76499 0.0
C121 C 0.7479 0.2136 0.74288 0.0
C122 C 0.76415 0.19487 0.7114 0.0
C123 C 0.79427 0.20558 0.70134 0.0
C124 C 0.80855 0.23428 0.72125 0.0
C125 C 0.79255 0.25275 0.75272 0.0
H126 H 0.69992 0.69106 0.84813 0.0
H127 H 0.7849 0.69996 0.78207 0.0
H128 H 0.72501 0.7841 0.80785 0.0
H129 H 0.74386 0.80418 0.7537 0.0
H130 H 0.83244 0.82028 0.69959 0.0
H131 H 0.82012 0.73152 0.76194 0.0
C132 C 0.71567 0.70598 0.83124 0.0
C133 C 0.70874 0.73886 0.82749 0.0
C134 C 0.74375 0.69258 0.8163 0.0
C135 C 0.76421 0.71171 0.79456 0.0
C136 C 0.75779 0.745 0.78924 0.0
C137 C 0.7303 0.7585 0.80804 0.0
C138 C 0.77923 0.76536 0.76419 0.0
C139 C 0.76806 0.79569 0.74953 0.0
C140 C 0.78762 0.81569 0.72795 0.0
C141 C 0.81817 0.80516 0.71833 0.0
C142 C 0.82933 0.77435 0.72914 0.0
C143 C 0.81024 0.75471 0.75281 0.0
C144 C 0.05463 0.3 0.63294 0.0
C145 C 0.06572 0.32961 0.65323 0.0
C146 C 0.05385 0.35313 0.62578 0.0
C147 C 0.03593 0.33677 0.59056 0.0
N148 N 0.03526 0.3044 0.59443 0.0
Co149 Co 0.01194 0.27218 0.55061 0.0
N150 N 0.98612 0.30656 0.51971 0.0
C151 C 0.99295 0.33853 0.52301 0.0
C152 C 0.97037 0.35635 0.49802 0.0
C153 C 0.94793 0.33416 0.47774 0.0
C154 C 0.95816 0.30403 0.49164 0.0
N155 N 0.9886 0.24015 0.5067 0.0
C156 C 0.96041 0.24329 0.47986 0.0
C157 C 0.95253 0.21481 0.45427 0.0
C158 C 0.97685 0.19318 0.46547 0.0
C159 C 0.99808 0.20962 0.49717 0.0
N160 N 0.03786 0.23757 0.58102 0.0
C161 C 0.04172 0.20715 0.56366 0.0
C162 C 0.06233 0.18879 0.59051 0.0
C163 C 0.07261 0.20896 0.62678 0.0
C164 C 0.05757 0.23875 0.62016 0.0
N165 N 0.97789 0.26762 0.59008 0.0
C166 C 0.92612 0.26053 0.64183 0.0
C167 C 0.94087 0.2334 0.62247 0.0
C168 C 0.96664 0.23744 0.59713 0.0
C169 C 0.93843 0.29136 0.63505 0.0
C170 C 0.9642 0.29435 0.60917 0.0
N171 N 0.04596 0.2765 0.51083 0.0
C172 C 0.10278 0.27682 0.49978 0.0
C173 C 0.09492 0.27545 0.4535 0.0
C174 C 0.06193 0.27603 0.4366 0.0
C175 C 0.03791 0.2769 0.46576 0.0
C176 C 0.07809 0.27722 0.52769 0.0
H177 H 0.01277 0.27697 0.45167 0.0
H178 H 0.08523 0.27707 0.56292 0.0
H179 H 0.97702 0.21603 0.58246 0.0
H180 H 0.97274 0.31838 0.60415 0.0
C181 C 0.01675 0.35113 0.55598 0.0
C182 C 0.06631 0.26842 0.6485 0.0
C183 C 0.94173 0.27336 0.47622 0.0
C184 C 0.02346 0.19581 0.52407 0.0
H185 H 0.08151 0.33372 0.68406 0.0
H186 H 0.0575 0.3791 0.63121 0.0
H187 H 0.96943 0.38248 0.4964 0.0
H188 H 0.92646 0.33948 0.45551 0.0
H189 H 0.93147 0.21018 0.43009 0.0
H190 H 0.97813 0.16807 0.45334 0.0
H191 H 0.06907 0.1637 0.58451 0.0
H192 H 0.09017 0.2026 0.65408 0.0
H193 H 0.93208 0.20904 0.62574 0.0
H194 H 0.9283 0.31311 0.64961 0.0
H195 H 0.12788 0.27607 0.51446 0.0
H196 H 0.05469 0.27536 0.40106 0.0
C197 C 0.71057 0.05786 0.58586 0.0
C198 C 0.68106 0.06731 0.59993 0.0
C199 C 0.65787 0.04686 0.57788 0.0
C200 C 0.67443 0.02591 0.55187 0.0
N201 N 0.70682 0.03172 0.55592 0.0
Co202 Co 0.73955 0.00613 0.52392 0.0
N203 N 0.70531 0.97665 0.49037 0.0
C204 C 0.67286 0.97966 0.49102 0.0
C205 C 0.6551 0.95626 0.46477 0.0
C206 C 0.67755 0.93707 0.44629 0.0
C207 C 0.70788 0.9498 0.46241 0.0
N208 N 0.77253 0.97943 0.4939 0.0
C209 C 0.76912 0.95168 0.46701 0.0
C210 C 0.79895 0.94058 0.45573 0.0
C211 C 0.82198 0.9618 0.47623 0.0
C212 C 0.80507 0.98452 0.49898 0.0
N213 N 0.77375 0.0364 0.55591 0.0
C214 C 0.80566 0.0363 0.55006 0.0
C215 C 0.82325 0.06094 0.57379 0.0
C216 C 0.80126 0.07809 0.59591 0.0
C217 C 0.77133 0.06277 0.58469 0.0
N218 N 0.74471 0.97676 0.57318 0.0
C219 C 0.75303 0.93075 0.63809 0.0
C220 C 0.77972 0.9472 0.6255 0.0
C221 C 0.77501 0.97014 0.59356 0.0
C222 C 0.72193 0.93896 0.61919 0.0
C223 C 0.71836 0.96181 0.58688 0.0
N224 N 0.73445 0.03605 0.4747 0.0
C225 C 0.76028 0.06998 0.42664 0.0
C226 C 0.73368 0.0907 0.42436 0.0
C227 C 0.706 0.08179 0.4429 0.0
C228 C 0.70658 0.05384 0.46668 0.0
C229 C 0.76014 0.0428 0.45178 0.0
H230 H 0.68468 0.04809 0.47992 0.0
H231 H 0.78173 0.02873 0.45374 0.0
H232 H 0.79632 0.98157 0.58497 0.0
H233 H 0.69414 0.96651 0.57278 0.0
C234 C 0.66015 1.00237 0.52047 0.0
C235 C 0.74132 0.07486 0.60147 0.0
C236 C 0.73836 0.93496 0.45101 0.0
C237 C 0.81872 0.01166 0.524 0.0
H238 H 0.67668 0.08724 0.62329 0.0
H239 H 0.63192 0.04763 0.57984 0.0
H240 H 0.62896 0.95289 0.46071 0.0
H241 H 0.67228 0.91575 0.42408 0.0
H242 H 0.80356 0.91936 0.43471 0.0
H243 H 0.84797 0.96082 0.47465 0.0
H244 H 0.84905 0.06579 0.57501 0.0
H245 H 0.80668 0.09963 0.61759 0.0
H246 H 0.80438 0.94152 0.63866 0.0
H247 H 0.70045 0.92734 0.6285 0.0
H248 H 0.782 0.07597 0.41183 0.0
H249 H 0.68456 0.09697 0.44054 0.0
C250 C 0.06367 0.78362 0.57711 0.0
C251 C 0.07589 0.81362 0.59449 0.0
C252 C 0.05627 0.83654 0.57494 0.0
C253 C 0.03327 0.81932 0.54695 0.0
N254 N 0.03666 0.78672 0.54791 0.0
Co255 Co 0.00917 0.75257 0.51158 0.0
N256 N 0.98147 0.7864 0.48083 0.0
C257 C 0.98477 0.81904 0.48707 0.0
C258 C 0.96157 0.83599 0.46211 0.0
C259 C 0.9419 0.81284 0.43901 0.0
C260 C 0.9543 0.78299 0.45136 0.0
N261 N 0.98172 0.71856 0.47486 0.0
C262 C 0.95439 0.72167 0.44607 0.0
C263 C 0.94219 0.69176 0.4286 0.0
C264 C 0.96228 0.66884 0.44744 0.0
C265 C 0.98551 0.68601 0.47521 0.0
N266 N 0.03671 0.71883 0.5427 0.0
C267 C 0.03312 0.68623 0.5368 0.0
C268 C 0.0563 0.66932 0.56192 0.0
C269 C 0.07613 0.69248 0.5849 0.0
C270 C 0.06382 0.72227 0.57236 0.0
N271 N 0.97891 0.7522 0.55845 0.0
C272 C 0.93504 0.75243 0.62394 0.0
C273 C 0.94524 0.7233 0.60407 0.0
C274 C 0.96706 0.72372 0.57181 0.0
C275 C 0.94731 0.78134 0.61028 0.0
C276 C 0.96889 0.78068 0.57797 0.0
N277 N 0.03964 0.75292 0.46491 0.0
C278 C 0.07599 0.72505 0.41787 0.0
C279 C 0.08632 0.75449 0.4033 0.0
C280 C 0.07246 0.78298 0.41979 0.0
C281 C 0.0495 0.78166 0.4501 0.0
C282 C 0.05265 0.72481 0.44813 0.0
H283 H 0.0405 0.80437 0.4616 0.0
H284 H 0.04574 0.70159 0.45778 0.0
H285 H 0.97386 0.70072 0.55797 0.0
H286 H 0.97684 0.80364 0.569 0.0
C287 C 0.00901 0.83307 0.51813 0.0
C288 C 0.07958 0.75307 0.58774 0.0
C289 C 0.93835 0.75226 0.43597 0.0
C290 C 0.00937 0.67233 0.50481 0.0
H291 H 0.09721 0.81845 0.61817 0.0
H292 H 0.0589 0.86264 0.57979 0.0
H293 H 0.95882 0.86206 0.46162 0.0
H294 H 0.9204 0.81738 0.4164 0.0
H295 H 0.92056 0.68704 0.40545 0.0
H296 H 0.95962 0.64273 0.44263 0.0
H297 H 0.05907 0.64324 0.56239 0.0
H298 H 0.09765 0.68802 0.60751 0.0
H299 H 0.9366 0.70019 0.61347 0.0
H300 H 0.93972 0.80468 0.62365 0.0
H301 H 0.08571 0.70225 0.40584 0.0
H302 H 0.07988 0.80652 0.41028 0.0
C303 C 0.29206 0.95936 0.58645 0.0
C304 C 0.32237 0.94876 0.60419 0.0
C305 C 0.34495 0.96828 0.5893 0.0
C306 C 0.32733 0.98982 0.56357 0.0
N307 N 0.2948 0.98526 0.56089 0.0
Co308 Co 0.26074 0.01257 0.52788 0.0
N309 N 0.29415 0.04111 0.50553 0.0
C310 C 0.32679 0.03794 0.51349 0.0
C311 C 0.3439 0.0599 0.49291 0.0
C312 C 0.32086 0.07822 0.47019 0.0
C313 C 0.29081 0.06654 0.47843 0.0
N314 N 0.22659 0.04025 0.49564 0.0
C315 C 0.22933 0.06619 0.47021 0.0
C316 C 0.19901 0.07853 0.45564 0.0
C317 C 0.17642 0.05963 0.47161 0.0
C318 C 0.19401 0.03698 0.49534 0.0
N319 N 0.22727 0.98353 0.54939 0.0
C320 C 0.1946 0.98576 0.53973 0.0
C321 C 0.17756 0.9624 0.55783 0.0
C322 C 0.20061 0.94407 0.58051 0.0
C323 C 0.23063 0.95745 0.57534 0.0
N324 N 0.26023 0.04191 0.58183 0.0
C325 C 0.25738 0.08844 0.65273 0.0
C326 C 0.22939 0.0724 0.63265 0.0
C327 C 0.23139 0.04937 0.5979 0.0
C328 C 0.2872 0.0797 0.63813 0.0
C329 C 0.28808 0.05633 0.60296 0.0
N330 N 0.26108 0.98347 0.4738 0.0
C331 C 0.23131 0.95294 0.41212 0.0
C332 C 0.26002 0.93985 0.39887 0.0
C333 C 0.28951 0.94995 0.42291 0.0
C334 C 0.28948 0.97164 0.46011 0.0
C335 C 0.23243 0.97457 0.44901 0.0
H336 H 0.31259 0.97806 0.47764 0.0
H337 H 0.20961 0.98312 0.45727 0.0
H338 H 0.20901 0.03865 0.58396 0.0
H339 H 0.31141 0.0508 0.59295 0.0
C340 C 0.34059 0.01418 0.54078 0.0
C341 C 0.26152 0.94423 0.59562 0.0
C342 C 0.2599 0.08021 0.45908 0.0
C343 C 0.18065 0.01118 0.51548 0.0
H344 H 0.32764 0.92903 0.62587 0.0
H345 H 0.37114 0.96693 0.59642 0.0
H346 H 0.37005 0.06221 0.4941 0.0
H347 H 0.32569 0.09783 0.44961 0.0
H348 H 0.19366 0.09904 0.4354 0.0
H349 H 0.15022 0.06188 0.46609 0.0
H350 H 0.15143 0.95925 0.55524 0.0
H351 H 0.19578 0.92323 0.5989 0.0
H352 H 0.20559 0.07852 0.6422 0.0
H353 H 0.30964 0.09116 0.6532 0.0
H354 H 0.2077 0.94547 0.39548 0.0
H355 H 0.31247 0.9407 0.41372 0.0
C356 C 0.56053 0.79728 0.0859 0.0
C357 C 0.57216 0.82643 0.10689 0.0
C358 C 0.55414 0.8504 0.08701 0.0
C359 C 0.53264 0.83457 0.0552 0.0
N360 N 0.53553 0.8019 0.05388 0.0
Co361 Co 0.5096 0.76962 0.012 0.0
N362 N 0.48571 0.80505 0.97952 0.0
C363 C 0.4906 0.83738 0.98711 0.0
C364 C 0.4702 0.85576 0.9599 0.0
C365 C 0.45086 0.83387 0.93361 0.0
C366 C 0.4606 0.80333 0.9465 0.0
N367 N 0.48298 0.7373 0.9709 0.0
C368 C 0.45778 0.74208 0.93923 0.0
C369 C 0.44481 0.71289 0.91992 0.0
C370 C 0.46213 0.68878 0.9405 0.0
C371 C 0.48454 0.70452 0.97114 0.0
N372 N 0.53415 0.73417 0.04363 0.0
C373 C 0.53045 0.70177 0.03464 0.0
C374 C 0.55188 0.68351 0.06054 0.0
C375 C 0.57085 0.70554 0.0871 0.0
C376 C 0.55983 0.73608 0.07579 0.0
N377 N 0.47559 0.76891 0.05371 0.0
C378 C 0.4246 0.76628 0.1086 0.0
C379 C 0.43956 0.73809 0.09329 0.0
C380 C 0.4647 0.73995 0.06654 0.0
C381 C 0.43607 0.79604 0.09629 0.0
C382 C 0.46145 0.7968 0.06916 0.0
N383 N 0.54366 0.77002 0.97035 0.0
C384 C 0.57744 0.74023 0.9221 0.0
C385 C 0.59509 0.76814 0.91595 0.0
C386 C 0.58619 0.79731 0.93721 0.0
C387 C 0.56039 0.79776 0.96377 0.0
C388 C 0.55221 0.7417 0.94892 0.0
H389 H 0.55462 0.8207 0.97904 0.0
H390 H 0.54043 0.71931 0.95236 0.0
H391 H 0.4745 0.7174 0.05609 0.0
H392 H 0.46904 0.82017 0.06073 0.0
C393 C 0.51207 0.8497 0.02299 0.0
C394 C 0.57545 0.76609 0.09529 0.0
C395 C 0.44415 0.77358 0.92799 0.0
C396 C 0.50706 0.68927 1.001 0.0
H397 H 0.59226 0.83004 0.13288 0.0
H398 H 0.55728 0.87634 0.09368 0.0
H399 H 0.46874 0.88197 0.96027 0.0
H400 H 0.43123 0.83966 0.90858 0.0
H401 H 0.4245 0.7094 0.89422 0.0
H402 H 0.45844 0.66286 0.93442 0.0
H403 H 0.55389 0.65733 0.0596 0.0
H404 H 0.59093 0.69983 0.1115 0.0
H405 H 0.43137 0.71431 0.10075 0.0
H406 H 0.4256 0.81869 0.10749 0.0
H407 H 0.58359 0.71685 0.90724 0.0
H408 H 0.59893 0.81969 0.93328 0.0
C409 C 0.21015 0.55551 0.08816 0.0
C410 C 0.1793 0.56428 0.09787 0.0
C411 C 0.15789 0.54608 0.06891 0.0
C412 C 0.17694 0.52743 0.04333 0.0
N413 N 0.20919 0.53216 0.05481 0.0
Co414 Co 0.24574 0.51214 0.02495 0.0
N415 N 0.21446 0.48884 0.97853 0.0
C416 C 0.18162 0.4903 0.97425 0.0
C417 C 0.16687 0.4703 0.9401 0.0
C418 C 0.19179 0.45468 0.92205 0.0
C419 C 0.2203 0.46621 0.94634 0.0
N420 N 0.28233 0.49224 0.99515 0.0
C421 C 0.28132 0.46977 0.96077 0.0
C422 C 0.31219 0.46157 0.95039 0.0
C423 C 0.33364 0.4791 0.98008 0.0
C424 C 0.31464 0.49687 1.00666 0.0
N425 N 0.27708 0.53536 0.0713 0.0
C426 C 0.30995 0.53384 0.07579 0.0
C427 C 0.32463 0.55327 0.11059 0.0
C428 C 0.29965 0.56863 0.12879 0.0
C429 C 0.27116 0.55759 0.10384 0.0
N430 N 0.2456 0.47371 0.0634 0.0
C431 C 0.24652 0.41994 0.11946 0.0
C432 C 0.27513 0.43579 0.11171 0.0
C433 C 0.27416 0.462 0.08396 0.0
C434 C 0.21733 0.43133 0.09748 0.0
C435 C 0.21739 0.458 0.0701 0.0
N436 N 0.24606 0.55057 0.98659 0.0
C437 C 0.27621 0.59116 0.95238 0.0
C438 C 0.24775 0.60443 0.93122 0.0
C439 C 0.21821 0.59046 0.93936 0.0
C440 C 0.21792 0.56374 0.96662 0.0
C441 C 0.27484 0.56488 0.97963 0.0
H442 H 0.19462 0.55404 0.97103 0.0
H443 H 0.29757 0.55664 0.99487 0.0
H444 H 0.29705 0.47231 0.07955 0.0
H445 H 0.19431 0.46555 0.05467 0.0
C446 C 0.16541 0.50815 1.00544 0.0
C447 C 0.23955 0.57178 0.10876 0.0
C448 C 0.2521 0.45286 0.94057 0.0
C449 C 0.32633 0.51604 0.04466 0.0
H450 H 0.17303 0.58272 0.12228 0.0
H451 H 0.1316 0.54742 0.06548 0.0
H452 H 0.14106 0.46645 0.93076 0.0
H453 H 0.18929 0.43607 0.89518 0.0
H454 H 0.31843 0.44374 0.92516 0.0
H455 H 0.35994 0.47798 0.98309 0.0
H456 H 0.35042 0.5569 0.12033 0.0
H457 H 0.30207 0.58697 0.15602 0.0
H458 H 0.2986 0.42774 0.12655 0.0
H459 H 0.19436 0.42011 0.10194 0.0
H460 H 0.29979 0.6013 0.94847 0.0
H461 H 0.19535 0.59965 0.92408 0.0
C462 C 0.4551 0.2757 0.98614 0.0
C463 C 0.44292 0.30524 0.97224 0.0
C464 C 0.46287 0.32874 0.99405 0.0
C465 C 0.48607 0.31227 0.0197 0.0
N466 N 0.48265 0.2796 0.0148 0.0
Co467 Co 0.51012 0.24638 0.04708 0.0
N468 N 0.53681 0.28101 0.08366 0.0
C469 C 0.53295 0.31354 0.08221 0.0
C470 C 0.55532 0.33121 0.11064 0.0
C471 C 0.57507 0.3087 0.13092 0.0
C472 C 0.56366 0.27845 0.1134 0.0
N473 N 0.53762 0.21323 0.0796 0.0
C474 C 0.56473 0.21714 0.10932 0.0
C475 C 0.57742 0.18754 0.12204 0.0
C476 C 0.5579 0.16407 0.09918 0.0
C477 C 0.53453 0.18059 0.07383 0.0
N478 N 0.48324 0.21188 0.01037 0.0
C479 C 0.48737 0.17941 0.01131 0.0
C480 C 0.46385 0.16181 0.98464 0.0
C481 C 0.44306 0.18435 0.96623 0.0
C482 C 0.45521 0.21451 0.98273 0.0
N483 N 0.5415 0.24651 1.00148 0.0
C484 C 0.58961 0.24764 0.94181 0.0
C485 C 0.57815 0.21829 0.95523 0.0
C486 C 0.55417 0.21827 0.98457 0.0
C487 C 0.57604 0.27629 0.95831 0.0
C488 C 0.55234 0.27518 0.9876 0.0
N489 N 0.47876 0.24625 0.09253 0.0
C490 C 0.44197 0.21747 0.13381 0.0
C491 C 0.42929 0.24667 0.15012 0.0
C492 C 0.44263 0.27556 0.13798 0.0
C493 C 0.46707 0.2748 0.10966 0.0
C494 C 0.46662 0.21781 0.10557 0.0
H495 H 0.47555 0.29773 0.10124 0.0
H496 H 0.47509 0.19477 0.09407 0.0
H497 H 0.54656 0.1951 0.99346 0.0
H498 H 0.54365 0.29798 0.99917 0.0
C499 C 0.50941 0.32678 0.05173 0.0
C500 C 0.43825 0.24487 0.9738 0.0
C501 C 0.58031 0.24823 0.12422 0.0
C502 C 0.51117 0.16627 0.04157 0.0
H503 H 0.42116 0.30939 0.94992 0.0
H504 H 0.45997 0.35477 0.99284 0.0
H505 H 0.5576 0.35736 0.11509 0.0
H506 H 0.59607 0.31396 0.15501 0.0
H507 H 0.59907 0.18334 0.14453 0.0
H508 H 0.56111 0.13804 0.0997 0.0
H509 H 0.4612 0.13566 0.98081 0.0
H510 H 0.42086 0.17915 0.94445 0.0
H511 H 0.58754 0.19535 0.94313 0.0
H512 H 0.58429 0.29978 0.94975 0.0
H513 H 0.43287 0.19438 0.14261 0.0
H514 H 0.43353 0.29892 0.14898 0.0
C515 C 0.73254 0.56244 0.08112 0.0
C516 C 0.70235 0.57441 0.0896 0.0
C517 C 0.67952 0.55439 0.06608 0.0
C518 C 0.69686 0.5314 0.0445 0.0
N519 N 0.7295 0.53551 0.05258 0.0
Co520 Co 0.76339 0.50681 0.02778 0.0
N521 N 0.72956 0.47749 0.99271 0.0
C522 C 0.69692 0.48107 0.99077 0.0
C523 C 0.6796 0.45763 0.96417 0.0
C524 C 0.70245 0.43788 0.94788 0.0
C525 C 0.73264 0.45045 0.96539 0.0
N526 N 0.79719 0.47763 1.00382 0.0
C527 C 0.79411 0.4501 0.97636 0.0
C528 C 0.82426 0.43755 0.96895 0.0
C529 C 0.84712 0.45754 0.99257 0.0
C530 C 0.8298 0.48118 0.01302 0.0
N531 N 0.79711 0.53661 0.06203 0.0
C532 C 0.82972 0.53377 0.0626 0.0
C533 C 0.84697 0.55775 0.08833 0.0
C534 C 0.82406 0.5772 0.1052 0.0
C535 C 0.79397 0.56398 0.08875 0.0
N536 N 0.76366 0.47969 0.07967 0.0
C537 C 0.76361 0.43792 0.14989 0.0
C538 C 0.79271 0.45076 0.13898 0.0
C539 C 0.79217 0.47153 0.10406 0.0
C540 C 0.73456 0.44727 0.12603 0.0
C541 C 0.73514 0.46804 0.09159 0.0
N542 N 0.7632 0.53395 0.97585 0.0
C543 C 0.79182 0.56304 0.92497 0.0
C544 C 0.7627 0.57612 0.90592 0.0
C545 C 0.73379 0.56657 0.9213 0.0
C546 C 0.73459 0.54554 0.95567 0.0
C547 C 0.79152 0.54218 0.95965 0.0
H548 H 0.71173 0.53967 0.96595 0.0
H549 H 0.81453 0.53352 0.97327 0.0
H550 H 0.81512 0.48025 0.09702 0.0
H551 H 0.71218 0.47371 0.07452 0.0
C552 C 0.68324 0.50612 0.01552 0.0
C553 C 0.76322 0.5781 0.10034 0.0
C554 C 0.76338 0.43525 0.9557 0.0
C555 C 0.84336 0.50763 0.03984 0.0
H556 H 0.69729 0.59559 0.1104 0.0
H557 H 0.65334 0.55649 0.06463 0.0
H558 H 0.65343 0.45502 0.95775 0.0
H559 H 0.69738 0.41644 0.9259 0.0
H560 H 0.82921 0.41626 0.94828 0.0
H561 H 0.87329 0.45528 0.99428 0.0
H562 H 0.87314 0.56057 0.09447 0.0
H563 H 0.82894 0.59856 0.12742 0.0
H564 H 0.81584 0.44448 0.15681 0.0
H565 H 0.71134 0.43759 0.13251 0.0
H566 H 0.81486 0.5693 0.91383 0.0
H567 H 0.71054 0.57632 0.90836 0.0
C568 C 0.14358 0.23852 0.36448 0.0
C569 C 0.17374 0.25439 0.37483 0.0
H570 H 0.09495 0.23301 0.38085 0.0
C571 C 0.1769 0.27961 0.40816 0.0
H572 H 0.14078 0.21861 0.33938 0.0
C573 C 0.1508 0.28763 0.43241 0.0
C574 C 0.12097 0.27071 0.42351 0.0
H575 H 0.2001 0.29181 0.41717 0.0
H576 H 0.15428 0.30633 0.45914 0.0
C577 C 0.11738 0.24678 0.38827 0.0
C578 C 0.75185 0.15782 0.35207 0.0
C579 C 0.75507 0.18432 0.38351 0.0
H580 H 0.74254 0.10667 0.34075 0.0
C581 C 0.74778 0.1805 0.42694 0.0
H582 H 0.75765 0.1604 0.31846 0.0
C583 C 0.7384 0.15017 0.43923 0.0
C584 C 0.73694 0.12329 0.40846 0.0
H585 H 0.75025 0.20074 0.45155 0.0
H586 H 0.7341 0.14727 0.47341 0.0
C587 C 0.74323 0.12731 0.36465 0.0
C588 C 0.86621 0.75771 0.34767 0.0
C589 C 0.84074 0.76404 0.37399 0.0
H590 H 0.91742 0.74884 0.34702 0.0
C591 C 0.84729 0.76303 0.42052 0.0
H592 H 0.86203 0.75859 0.31182 0.0
C593 C 0.87881 0.75751 0.44039 0.0
C594 C 0.90436 0.75268 0.41417 0.0
H595 H 0.82814 0.7674 0.44167 0.0
H596 H 0.8835 0.75817 0.47636 0.0
C597 C 0.89783 0.75218 0.36767 0.0
C598 C 0.22503 0.88282 0.30402 0.0
C599 C 0.24313 0.8549 0.31329 0.0
H600 H 0.21771 0.93283 0.32219 0.0
C601 C 0.27067 0.85677 0.34485 0.0
H602 H 0.20379 0.88169 0.27947 0.0
C603 C 0.2781 0.88557 0.37032 0.0
C604 C 0.25821 0.91294 0.36408 0.0
H605 H 0.28478 0.83524 0.35242 0.0
H606 H 0.29764 0.88538 0.39731 0.0
C607 C 0.23289 0.91186 0.32872 0.0
C608 C 0.14949 0.76 0.67974 0.0
C609 C 0.17515 0.76888 0.65608 0.0
H610 H 0.09869 0.74781 0.67616 0.0
C611 C 0.16991 0.76818 0.60933 0.0
H612 H 0.15272 0.7606 0.71576 0.0
C613 C 0.13914 0.76092 0.58693 0.0
C614 C 0.11317 0.75403 0.61084 0.0
H615 H 0.1893 0.77456 0.59018 0.0
H616 H 0.13522 0.76219 0.5511 0.0
C617 C 0.11864 0.75275 0.65723 0.0
C618 C 0.26411 0.17303 0.70757 0.0
C619 C 0.23877 0.17246 0.73452 0.0
H620 H 0.28987 0.14659 0.66001 0.0
C621 C 0.22282 0.14319 0.73932 0.0
H622 H 0.27665 0.19555 0.70361 0.0
C623 C 0.23086 0.11506 0.71546 0.0
C624 C 0.25442 0.11599 0.68553 0.0
H625 H 0.20347 0.14235 0.76053 0.0
H626 H 0.21759 0.0929 0.71893 0.0
C627 C 0.27181 0.14498 0.683 0.0
C628 C 0.84334 0.27264 0.68517 0.0
C629 C 0.84045 0.24429 0.70796 0.0
H630 H 0.87218 0.29978 0.64564 0.0
C631 C 0.86694 0.22296 0.71232 0.0
H632 H 0.82309 0.28924 0.68082 0.0
C633 C 0.8952 0.22906 0.69274 0.0
C634 C 0.89757 0.25641 0.66749 0.0
H635 H 0.86534 0.20092 0.72977 0.0
H636 H 0.91491 0.21183 0.69659 0.0
C637 C 0.87154 0.2786 0.665 0.0
C638 C 0.74767 0.84666 0.67975 0.0
C639 C 0.77518 0.84657 0.7113 0.0
H640 H 0.71933 0.87334 0.63118 0.0
C641 C 0.79283 0.87536 0.72297 0.0
H642 H 0.73393 0.82452 0.67015 0.0
C643 C 0.78414 0.90356 0.70147 0.0
C644 C 0.75811 0.90316 0.66724 0.0
H645 H 0.81402 0.87568 0.74758 0.0
H646 H 0.79864 0.9253 0.71039 0.0
C647 C 0.73928 0.87469 0.65767 0.0
C648 C 0.85809 0.73714 0.67829 0.0
C649 C 0.85954 0.76274 0.71115 0.0
H650 H 0.88058 0.71396 0.62449 0.0
C651 C 0.88794 0.78183 0.71911 0.0
H652 H 0.83625 0.72243 0.67095 0.0
C653 C 0.91331 0.77706 0.69265 0.0
C654 C 0.91081 0.75328 0.65714 0.0
H655 H 0.88963 0.80181 0.74412 0.0
H656 H 0.9343 0.79302 0.69881 0.0
C657 C 0.88346 0.73246 0.65151 0.0
C658 C 0.24649 0.88798 0.6887 0.0
C659 C 0.25688 0.85759 0.67211 0.0
H660 H 0.23983 0.93893 0.67789 0.0
C661 C 0.27063 0.85648 0.63155 0.0
H662 H 0.23479 0.88963 0.71894 0.0
C663 C 0.27322 0.88461 0.60781 0.0
C664 C 0.26176 0.91476 0.62354 0.0
H665 H 0.27792 0.83339 0.61701 0.0
H666 H 0.28301 0.88254 0.57611 0.0
C667 C 0.24898 0.91616 0.66482 0.0
C668 C 0.15397 0.2748 0.70129 0.0
C669 C 0.15355 0.25575 0.73813 0.0
H670 H 0.12667 0.29338 0.64386 0.0
C671 C 0.12364 0.24377 0.74823 0.0
H672 H 0.17686 0.28356 0.69222 0.0
C673 C 0.09475 0.24983 0.72092 0.0
C674 C 0.09548 0.26734 0.68258 0.0
H675 H 0.12288 0.22836 0.77585 0.0
H676 H 0.07215 0.23922 0.72819 0.0
C677 C 0.12529 0.28035 0.67363 0.0
C678 C 0.73409 0.16358 0.64505 0.0
C679 C 0.75119 0.16363 0.68803 0.0
H680 H 0.71738 0.13568 0.58432 0.0
C681 C 0.76276 0.13373 0.70343 0.0
H682 H 0.72583 0.18628 0.63155 0.0
C683 C 0.75824 0.10482 0.67623 0.0
C684 C 0.74225 0.10499 0.63265 0.0
H685 H 0.77691 0.13301 0.73572 0.0
H686 H 0.7685 0.08247 0.68857 0.0
C687 C 0.72953 0.13464 0.61782 0.0
C688 C 0.85047 0.26508 0.45055 0.0
C689 C 0.84614 0.26367 0.40364 0.0
H690 H 0.88421 0.26934 0.51001 0.0
C691 C 0.87333 0.2687 0.38088 0.0
H692 H 0.82997 0.26161 0.46909 0.0
C693 C 0.90439 0.2732 0.40452 0.0
C694 C 0.90865 0.27291 0.45119 0.0
H695 H 0.87088 0.26747 0.34486 0.0
H696 H 0.92525 0.27566 0.38636 0.0
C697 C 0.8814 0.26958 0.47403 0.0
C698 C 0.74948 0.8442 0.42433 0.0
C699 C 0.74934 0.84202 0.3776 0.0
H700 H 0.74598 0.8748 0.4836 0.0
C701 C 0.74211 0.87041 0.35473 0.0
H702 H 0.75513 0.82301 0.44321 0.0
C703 C 0.737 0.90031 0.37819 0.0
C704 C 0.73874 0.90253 0.42504 0.0
H705 H 0.74237 0.86994 0.319 0.0
H706 H 0.73307 0.92201 0.35988 0.0
C707 C 0.7443 0.87391 0.44761 0.0
C708 C 0.16608 0.74233 0.35214 0.0
C709 C 0.16411 0.76681 0.32157 0.0
H710 H 0.14311 0.71929 0.40237 0.0
C711 C 0.135 0.78429 0.31446 0.0
H712 H 0.18836 0.72875 0.35864 0.0
C713 C 0.10922 0.77896 0.33926 0.0
C714 C 0.11185 0.75614 0.3722 0.0
H715 H 0.13277 0.80322 0.29098 0.0
H716 H 0.08756 0.79359 0.33363 0.0
C717 C 0.14017 0.73702 0.37725 0.0
C718 C 0.26788 0.16759 0.42384 0.0
C719 C 0.25348 0.16575 0.37928 0.0
H720 H 0.28118 0.14245 0.48355 0.0
C721 C 0.24298 0.13503 0.3603 0.0
H722 H 0.27527 0.19095 0.43999 0.0
C723 C 0.24604 0.1072 0.38552 0.0
C724 C 0.25944 0.10933 0.43055 0.0
H725 H 0.23082 0.13284 0.32665 0.0
H726 H 0.23687 0.08413 0.37028 0.0
C727 C 0.27094 0.13983 0.44899 0.0
C728 C 0.68057 0.77476 0.88127 0.0
C729 C 0.67884 0.75185 0.84487 0.0
H730 H 0.65538 0.79787 0.93269 0.0
C731 C 0.64862 0.73771 0.82883 0.0
H732 H 0.70368 0.78578 0.89447 0.0
C733 C 0.62107 0.74476 0.85022 0.0
C734 C 0.62306 0.76579 0.88873 0.0
H735 H 0.64662 0.72009 0.8007 0.0
H736 H 0.59838 0.73269 0.83752 0.0
C737 C 0.6529 0.78165 0.90309 0.0
C738 C 0.2331 0.68669 0.87747 0.0
C739 C 0.25906 0.68798 0.85126 0.0
H740 H 0.209 0.6596 0.92322 0.0
C741 C 0.27898 0.66041 0.84855 0.0
H742 H 0.21769 0.70767 0.88113 0.0
C743 C 0.27435 0.63317 0.8729 0.0
C744 C 0.24959 0.63232 0.90114 0.0
H745 H 0.29937 0.66058 0.82907 0.0
H746 H 0.29089 0.61296 0.87044 0.0
C747 C 0.22831 0.65914 0.9019 0.0
C748 C 0.34852 0.26406 0.96391 0.0
C749 C 0.3393 0.25872 0.91791 0.0
H750 H 0.38713 0.26331 0.01754 0.0
C751 C 0.36188 0.24453 0.89132 0.0
H752 H 0.33163 0.27481 0.98527 0.0
C753 C 0.39372 0.23805 0.90989 0.0
C754 C 0.40329 0.24529 0.95536 0.0
H755 H 0.35559 0.24048 0.85574 0.0
H756 H 0.41131 0.22905 0.88836 0.0
C757 C 0.38018 0.25742 0.98241 0.0
C758 C 0.74877 0.37289 0.85597 0.0
C759 C 0.75529 0.34329 0.87606 0.0
H760 H 0.74622 0.42504 0.86524 0.0
C761 C 0.76696 0.34454 0.92171 0.0
H762 H 0.73886 0.37282 0.8213 0.0
C763 C 0.77097 0.37433 0.94688 0.0
C764 C 0.76306 0.40381 0.9273 0.0
H765 H 0.7714 0.32222 0.9385 0.0
H766 H 0.77887 0.37425 0.98221 0.0
C767 C 0.75263 0.40277 0.88127 0.0
C768 C 0.66983 0.26867 0.14895 0.0
C769 C 0.6756 0.26475 0.19501 0.0
H770 H 0.63511 0.26605 0.09052 0.0
C771 C 0.65076 0.25133 0.2165 0.0
H772 H 0.68854 0.27867 0.13135 0.0
C773 C 0.62015 0.2441 0.19298 0.0
C774 C 0.61404 0.24987 0.14757 0.0
H775 H 0.65435 0.24829 0.25199 0.0
H776 H 0.60079 0.23554 0.21066 0.0
C777 C 0.63938 0.26134 0.12552 0.0
C778 C 0.75012 0.63962 0.19695 0.0
C779 C 0.75446 0.66951 0.17815 0.0
H780 H 0.74936 0.58736 0.18714 0.0
C781 C 0.76428 0.66883 0.13503 0.0
H782 H 0.74176 0.63918 0.2295 0.0
C783 C 0.76857 0.63928 0.11082 0.0
C784 C 0.76277 0.60945 0.12875 0.0
H785 H 0.76716 0.69135 0.11915 0.0
H786 H 0.77503 0.63976 0.07721 0.0
C787 C 0.75416 0.60995 0.1725 0.0
C788 C 0.34095 0.77867 0.14845 0.0
C789 C 0.33917 0.75227 0.17534 0.0
H790 H 0.36911 0.8037 0.10574 0.0
C791 C 0.3668 0.733 0.1843 0.0
H792 H 0.31975 0.79361 0.14064 0.0
C793 C 0.39519 0.73896 0.16498 0.0
C794 C 0.39643 0.7639 0.1353 0.0
H795 H 0.36598 0.71247 0.2049 0.0
H796 H 0.41581 0.72318 0.17212 0.0
C797 C 0.36927 0.7844 0.1285 0.0
C798 C 0.27484 0.36496 0.2142 0.0
C799 C 0.25637 0.3364 0.20304 0.0
H800 H 0.28591 0.41326 0.19792 0.0
C801 C 0.23236 0.33648 0.16612 0.0
H802 H 0.29388 0.36565 0.24194 0.0
C803 C 0.228 0.36391 0.14007 0.0
C804 C 0.24781 0.39191 0.14993 0.0
H805 H 0.21826 0.31468 0.15583 0.0
H806 H 0.21029 0.36248 0.11081 0.0
C807 C 0.27058 0.39218 0.18833 0.0
C808 C 0.3465 0.22999 0.18859 0.0
C809 C 0.34407 0.2559 0.22015 0.0
H810 H 0.3752 0.20679 0.14136 0.0
C811 C 0.37119 0.27626 0.23232 0.0
H812 H 0.32566 0.21439 0.178 0.0
C813 C 0.39955 0.27197 0.21157 0.0
C814 C 0.40136 0.24748 0.17759 0.0
H815 H 0.36977 0.29663 0.25624 0.0
H816 H 0.41962 0.28873 0.22097 0.0
C817 C 0.37488 0.22577 0.16752 0.0
C818 C 0.7323 0.38303 0.23095 0.0
C819 C 0.75321 0.35649 0.22769 0.0
H820 H 0.72012 0.43059 0.21035 0.0
C821 C 0.78083 0.35916 0.20533 0.0
H822 H 0.71085 0.38129 0.24813 0.0
C823 C 0.78579 0.38698 0.18274 0.0
C824 C 0.76322 0.41252 0.18254 0.0
H825 H 0.797 0.3387 0.20215 0.0
H826 H 0.80576 0.38726 0.16257 0.0
C827 C 0.73747 0.411 0.20895 0.0
C828 C 0.66592 0.75367 0.12071 0.0
C829 C 0.66993 0.75436 0.16752 0.0
H830 H 0.63264 0.7569 0.06139 0.0
C831 C 0.64304 0.76207 0.1906 0.0
H832 H 0.68624 0.74807 0.10203 0.0
C833 C 0.61239 0.76713 0.1672 0.0
C834 C 0.60832 0.76474 0.1205 0.0
H835 H 0.64532 0.76244 0.22659 0.0
H836 H 0.59166 0.77169 0.18545 0.0
C837 C 0.63538 0.75872 0.09745 0.0
C838 C 0.24086 0.6467 0.18571 0.0
C839 C 0.25076 0.67011 0.15806 0.0
H840 H 0.22936 0.59642 0.19122 0.0
C841 C 0.25222 0.66175 0.11274 0.0
H842 H 0.23981 0.65259 0.22083 0.0
C843 C 0.24615 0.62992 0.09604 0.0
C844 C 0.23853 0.60615 0.12442 0.0
H845 H 0.25951 0.6795 0.09075 0.0
H846 H 0.24914 0.62344 0.06156 0.0
C847 C 0.23492 0.61474 0.16897 0.0
C848 C 0.37432 0.76881 0.83497 0.0
C849 C 0.34742 0.76885 0.8594 0.0
H850 H 0.42655 0.77012 0.83798 0.0
C851 C 0.35257 0.77392 0.90599 0.0
H852 H 0.37099 0.76452 0.79913 0.0
C853 C 0.38407 0.77704 0.92795 0.0
C854 C 0.41095 0.77506 0.90376 0.0
H855 H 0.33223 0.77397 0.92556 0.0
H856 H 0.38752 0.77956 0.96399 0.0
C857 C 0.40596 0.77177 0.85708 0.0
C858 C 0.26713 0.36334 0.9453 0.0
C859 C 0.26578 0.35343 0.89998 0.0
H860 H 0.26341 0.40296 0.99334 0.0
C861 C 0.25808 0.37625 0.86773 0.0
H862 H 0.2726 0.34613 0.97076 0.0
C863 C 0.25273 0.40867 0.88074 0.0
C864 C 0.25483 0.41842 0.92602 0.0
H865 H 0.25715 0.36922 0.8326 0.0
H866 H 0.24768 0.42623 0.85565 0.0
C867 C 0.26171 0.39561 0.9582 0.0
C868 C 0.64261 0.27749 0.85765 0.0
C869 C 0.67063 0.25849 0.86526 0.0
H870 H 0.59486 0.28839 0.87462 0.0
C871 C 0.67055 0.23333 0.89455 0.0
H872 H 0.64216 0.29718 0.83542 0.0
C873 C 0.64357 0.22858 0.91783 0.0
C874 C 0.61621 0.24898 0.91227 0.0
H875 H 0.69209 0.21873 0.90154 0.0
H876 H 0.64497 0.21021 0.94207 0.0
C877 C 0.61569 0.27268 0.8806 0.0
C878 C 0.73101 0.63376 0.81897 0.0
C879 C 0.75316 0.65958 0.82866 0.0
H880 H 0.7175 0.58609 0.83437 0.0
C881 C 0.78155 0.65536 0.85769 0.0
H882 H 0.70902 0.63656 0.79644 0.0
C883 C 0.78603 0.62692 0.88039 0.0
C884 C 0.76231 0.60215 0.87398 0.0
H885 H 0.7988 0.67515 0.86587 0.0
H886 H 0.8067 0.62564 0.90558 0.0
C887 C 0.73574 0.6051 0.84107 0.0
loop_
_geom_bond_atom_site_label_1
_geom_bond_atom_site_label_2
_geom_bond_distance
_geom_bond_site_symmetry_2
_ccdc_geom_bond_type
H0 C6 0.930 . S
H1 C9 0.931 . S
H2 C11 0.931 . S
H3 C13 0.930 . S
H4 C15 0.930 . S
H5 C17 0.931 . S
C6 H0 0.930 . S
C6 C7 1.380 . S
C6 C8 1.394 . S
C7 C6 1.380 . S
C7 C11 1.382 . S
C8 C6 1.394 . S
C8 C9 1.400 . S
C9 H1 0.931 . S
C9 C8 1.400 . S
C9 C10 1.375 . S
C10 C9 1.375 . S
C10 C11 1.415 . S
C10 C12 1.501 . S
C11 H2 0.931 . S
C11 C7 1.382 . S
C11 C10 1.415 . S
C12 C10 1.501 . S
C12 C13 1.384 . S
C12 C17 1.408 . S
C13 H3 0.930 . S
C13 C12 1.384 . S
C13 C14 1.389 . S
C14 C13 1.389 . S
C14 C15 1.405 . S
C15 H4 0.930 . S
C15 C14 1.405 . S
C15 C16 1.364 . S
C16 C15 1.364 . S
C16 C17 1.400 . S
C17 H5 0.931 . S
C17 C12 1.408 . S
C17 C16 1.400 . S
H18 C24 0.930 . S
H19 C27 0.931 . S
H20 C29 0.931 . S
H21 C31 0.930 . S
H22 C33 0.930 . S
H23 C35 0.931 . S
C24 H18 0.930 . S
C24 C25 1.380 . S
C24 C26 1.394 . S
C25 C24 1.380 . S
C25 C29 1.382 . S
C26 C24 1.394 . S
C26 C27 1.400 . S
C27 H19 0.931 . S
C27 C26 1.400 . S
C27 C28 1.375 . S
C28 C27 1.375 . S
C28 C29 1.415 . S
C28 C30 1.501 . S
C29 H20 0.931 . S
C29 C25 1.382 . S
C29 C28 1.415 . S
C30 C28 1.501 . S
C30 C31 1.384 . S
C30 C35 1.408 . S
C31 H21 0.930 . S
C31 C30 1.384 . S
C31 C32 1.389 . S
C32 C31 1.389 . S
C32 C33 1.405 . S
C33 H22 0.930 . S
C33 C32 1.405 . S
C33 C34 1.364 . S
C34 C33 1.364 . S
C34 C35 1.400 . S
C35 H23 0.931 . S
C35 C30 1.408 . S
C35 C34 1.400 . S
H36 C42 0.930 . S
H37 C45 0.931 . S
H38 C47 0.931 . S
H39 C49 0.930 . S
H40 C51 0.930 . S
H41 C53 0.931 . S
C42 H36 0.930 . S
C42 C43 1.380 . S
C42 C44 1.394 . S
C43 C42 1.380 . S
C43 C47 1.382 . S
C44 C42 1.394 . S
C44 C45 1.400 . S
C45 H37 0.931 . S
C45 C44 1.400 . S
C45 C46 1.375 . S
C46 C45 1.375 . S
C46 C47 1.415 . S
C46 C48 1.501 . S
C47 H38 0.931 . S
C47 C43 1.382 . S
C47 C46 1.415 . S
C48 C46 1.501 . S
C48 C49 1.384 . S
C48 C53 1.408 . S
C49 H39 0.930 . S
C49 C48 1.384 . S
C49 C50 1.389 . S
C50 C49 1.389 . S
C50 C51 1.405 . S
C51 H40 0.930 . S
C51 C50 1.405 . S
C51 C52 1.364 . S
C52 C51 1.364 . S
C52 C53 1.400 . S
C53 H41 0.931 . S
C53 C48 1.408 . S
C53 C52 1.400 . S
H54 C60 0.930 . S
H55 C63 0.931 . S
H56 C65 0.931 . S
H57 C67 0.930 . S
H58 C69 0.930 . S
H59 C71 0.931 . S
C60 H54 0.930 . S
C60 C61 1.380 . S
C60 C62 1.394 . S
C61 C60 1.380 . S
C61 C65 1.382 . S
C62 C60 1.394 . S
C62 C63 1.400 . S
C63 H55 0.931 . S
C63 C62 1.400 . S
C63 C64 1.375 . S
C64 C63 1.375 . S
C64 C65 1.415 . S
C64 C66 1.501 . S
C65 H56 0.931 . S
C65 C61 1.382 . S
C65 C64 1.415 . S
C66 C64 1.501 . S
C66 C67 1.384 . S
C66 C71 1.408 . S
C67 H57 0.930 . S
C67 C66 1.384 . S
C67 C68 1.389 . S
C68 C67 1.389 . S
C68 C69 1.405 . S
C69 H58 0.930 . S
C69 C68 1.405 . S
C69 C70 1.364 . S
C70 C69 1.364 . S
C70 C71 1.400 . S
C71 H59 0.931 . S
C71 C66 1.408 . S
C71 C70 1.400 . S
H72 C78 0.930 . S
H73 C81 0.931 . S
H74 C83 0.931 . S
H75 C85 0.930 . S
H76 C87 0.930 . S
H77 C89 0.931 . S
C78 H72 0.930 . S
C78 C79 1.380 . S
C78 C80 1.394 . S
C79 C78 1.380 . S
C79 C83 1.382 . S
C80 C78 1.394 . S
C80 C81 1.400 . S
C81 H73 0.931 . S
C81 C80 1.400 . S
C81 C82 1.375 . S
C82 C81 1.375 . S
C82 C83 1.415 . S
C82 C84 1.501 . S
C83 H74 0.931 . S
C83 C79 1.382 . S
C83 C82 1.415 . S
C84 C82 1.501 . S
C84 C85 1.384 . S
C84 C89 1.408 . S
C85 H75 0.930 . S
C85 C84 1.384 . S
C85 C86 1.389 . S
C86 C85 1.389 . S
C86 C87 1.405 . S
C87 H76 0.930 . S
C87 C86 1.405 . S
C87 C88 1.364 . S
C88 C87 1.364 . S
C88 C89 1.400 . S
C89 H77 0.931 . S
C89 C84 1.408 . S
C89 C88 1.400 . S
H90 C96 0.930 . S
H91 C99 0.931 . S
H92 C101 0.931 . S
H93 C103 0.930 . S
H94 C105 0.930 . S
H95 C107 0.931 . S
C96 H90 0.930 . S
C96 C97 1.380 . S
C96 C98 1.394 . S
C97 C96 1.380 . S
C97 C101 1.382 . S
C98 C96 1.394 . S
C98 C99 1.400 . S
C99 H91 0.931 . S
C99 C98 1.400 . S
C99 C100 1.375 . S
C100 C99 1.375 . S
C100 C101 1.415 . S
C100 C102 1.501 . S
C101 H92 0.931 . S
C101 C97 1.382 . S
C101 C100 1.415 . S
C102 C100 1.501 . S
C102 C103 1.384 . S
C102 C107 1.408 . S
C103 H93 0.930 . S
C103 C102 1.384 . S
C103 C104 1.389 . S
C104 C103 1.389 . S
C104 C105 1.405 . S
C105 H94 0.930 . S
C105 C104 1.405 . S
C105 C106 1.364 . S
C106 C105 1.364 . S
C106 C107 1.400 . S
C107 H95 0.931 . S
C107 C102 1.408 . S
C107 C106 1.400 . S
H108 C114 0.930 . S
H109 C117 0.931 . S
H110 C119 0.931 . S
H111 C121 0.930 . S
H112 C123 0.930 . S
H113 C125 0.931 . S
C114 H108 0.930 . S
C114 C115 1.380 . S
C114 C116 1.394 . S
C115 C114 1.380 . S
C115 C119 1.382 . S
C116 C114 1.394 . S
C116 C117 1.400 . S
C117 H109 0.931 . S
C117 C116 1.400 . S
C117 C118 1.375 . S
C118 C117 1.375 . S
C118 C119 1.415 . S
C118 C120 1.501 . S
C119 H110 0.931 . S
C119 C115 1.382 . S
C119 C118 1.415 . S
C120 C118 1.501 . S
C120 C121 1.384 . S
C120 C125 1.408 . S
C121 H111 0.930 . S
C121 C120 1.384 . S
C121 C122 1.389 . S
C122 C121 1.389 . S
C122 C123 1.405 . S
C123 H112 0.930 . S
C123 C122 1.405 . S
C123 C124 1.364 . S
C124 C123 1.364 . S
C124 C125 1.400 . S
C125 H113 0.931 . S
C125 C120 1.408 . S
C125 C124 1.400 . S
H126 C132 0.930 . S
H127 C135 0.931 . S
H128 C137 0.931 . S
H129 C139 0.930 . S
H130 C141 0.930 . S
H131 C143 0.931 . S
C132 H126 0.930 . S
C132 C133 1.380 . S
C132 C134 1.394 . S
C133 C132 1.380 . S
C133 C137 1.382 . S
C134 C132 1.394 . S
C134 C135 1.400 . S
C135 H127 0.931 . S
C135 C134 1.400 . S
C135 C136 1.375 . S
C136 C135 1.375 . S
C136 C137 1.415 . S
C136 C138 1.501 . S
C137 H128 0.931 . S
C137 C133 1.382 . S
C137 C136 1.415 . S
C138 C136 1.501 . S
C138 C139 1.384 . S
C138 C143 1.408 . S
C139 H129 0.930 . S
C139 C138 1.384 . S
C139 C140 1.389 . S
C140 C139 1.389 . S
C140 C141 1.405 . S
C141 H130 0.930 . S
C141 C140 1.405 . S
C141 C142 1.364 . S
C142 C141 1.364 . S
C142 C143 1.400 . S
C143 H131 0.931 . S
C143 C138 1.408 . S
C143 C142 1.400 . S
C144 C145 1.443 . S
C144 N148 1.376 . S
C144 C182 1.389 . S
C145 C144 1.443 . S
C145 C146 1.340 . S
C145 H185 0.951 . S
C146 C145 1.340 . S
C146 C147 1.439 . S
C146 H186 0.950 . S
C147 C146 1.439 . S
C147 N148 1.374 . S
C147 C181 1.395 . S
N148 C144 1.376 . S
N148 C147 1.374 . S
N148 Co149 2.008 . S
Co149 N148 2.008 . S
Co149 N150 1.995 1_455 S
Co149 N155 2.008 1_455 S
Co149 N160 1.995 . S
Co149 N165 2.282 1_455 S
Co149 N171 2.282 . S
N150 Co149 1.995 1_655 S
N150 C151 1.376 . S
N150 C154 1.383 . S
C151 N150 1.376 . S
C151 C152 1.446 . S
C151 C181 1.391 1_655 S
C152 C151 1.446 . S
C152 C153 1.339 . S
C152 H187 0.949 . S
C153 C152 1.339 . S
C153 C154 1.439 . S
C153 H188 0.950 . S
C154 N150 1.383 . S
C154 C153 1.439 . S
C154 C183 1.392 . S
N155 Co149 2.008 1_655 S
N155 C156 1.376 . S
N155 C159 1.374 . S
C156 N155 1.376 . S
C156 C157 1.443 . S
C156 C183 1.389 . S
C157 C156 1.443 . S
C157 C158 1.340 . S
C157 H189 0.951 . S
C158 C157 1.340 . S
C158 C159 1.439 . S
C158 H190 0.950 . S
C159 N155 1.374 . S
C159 C158 1.439 . S
C159 C184 1.395 . S
N160 Co149 1.995 . S
N160 C161 1.376 . S
N160 C164 1.383 . S
C161 N160 1.376 . S
C161 C162 1.446 . S
C161 C184 1.391 1_455 S
C162 C161 1.446 . S
C162 C163 1.339 . S
C162 H191 0.949 . S
C163 C162 1.339 . S
C163 C164 1.439 . S
C163 H192 0.950 . S
C164 N160 1.383 . S
C164 C163 1.439 . S
C164 C182 1.392 . S
N165 Co149 2.282 1_655 S
N165 C168 1.332 . S
N165 C170 1.332 . S
C166 C167 1.386 . S
C166 C169 1.388 . S
C167 C166 1.386 . S
C167 C168 1.382 . S
C167 H193 0.950 . S
C168 N165 1.332 . S
C168 C167 1.382 . S
C168 H179 0.952 . S
C169 C166 1.388 . S
C169 C170 1.382 . S
C169 H194 0.950 . S
C170 N165 1.332 . S
C170 C169 1.382 . S
C170 H180 0.948 . S
N171 Co149 2.282 . S
N171 C175 1.332 . S
N171 C176 1.332 . S
C172 C173 1.388 . S
C172 C176 1.382 . S
C172 H195 0.950 . S
C173 C172 1.388 . S
C173 C174 1.386 . S
C174 C173 1.386 . S
C174 C175 1.382 . S
C174 H196 0.950 . S
C175 N171 1.332 . S
C175 C174 1.382 . S
C175 H177 0.952 . S
C176 N171 1.332 . S
C176 C172 1.382 . S
C176 H178 0.948 . S
H177 C175 0.952 . S
H178 C176 0.948 . S
H179 C168 0.952 . S
H180 C170 0.948 . S
C181 C147 1.395 . S
C181 C151 1.391 1_455 S
C182 C144 1.389 . S
C182 C164 1.392 . S
C183 C154 1.392 . S
C183 C156 1.389 . S
C184 C159 1.395 . S
C184 C161 1.391 1_655 S
H185 C145 0.951 . S
H186 C146 0.950 . S
H187 C152 0.949 . S
H188 C153 0.950 . S
H189 C157 0.951 . S
H190 C158 0.950 . S
H191 C162 0.949 . S
H192 C163 0.950 . S
H193 C167 0.950 . S
H194 C169 0.950 . S
H195 C172 0.950 . S
H196 C174 0.950 . S
C197 C198 1.443 . S
C197 N201 1.376 . S
C197 C235 1.389 . S
C198 C197 1.443 . S
C198 C199 1.340 . S
C198 H238 0.951 . S
C199 C198 1.340 . S
C199 C200 1.439 . S
C199 H239 0.950 . S
C200 C199 1.439 . S
C200 N201 1.374 . S
C200 C234 1.395 . S
N201 C197 1.376 . S
N201 C200 1.374 . S
N201 Co202 2.008 . S
Co202 N201 2.008 . S
Co202 N203 1.995 1_545 S
Co202 N208 2.008 1_545 S
Co202 N213 1.995 . S
Co202 N218 2.282 1_545 S
Co202 N224 2.282 . S
N203 Co202 1.995 1_565 S
N203 C204 1.376 . S
N203 C207 1.383 . S
C204 N203 1.376 . S
C204 C205 1.446 . S
C204 C234 1.391 1_565 S
C205 C204 1.446 . S
C205 C206 1.339 . S
C205 H240 0.949 . S
C206 C205 1.339 . S
C206 C207 1.439 . S
C206 H241 0.950 . S
C207 N203 1.383 . S
C207 C206 1.439 . S
C207 C236 1.392 . S
N208 Co202 2.008 1_565 S
N208 C209 1.376 . S
N208 C212 1.374 . S
C209 N208 1.376 . S
C209 C210 1.443 . S
C209 C236 1.389 . S
C210 C209 1.443 . S
C210 C211 1.340 . S
C210 H242 0.951 . S
C211 C210 1.340 . S
C211 C212 1.439 . S
C211 H243 0.950 . S
C212 N208 1.374 . S
C212 C211 1.439 . S
C212 C237 1.395 1_565 S
N213 Co202 1.995 . S
N213 C214 1.376 . S
N213 C217 1.383 . S
C214 N213 1.376 . S
C214 C215 1.446 . S
C214 C237 1.391 . S
C215 C214 1.446 . S
C215 C216 1.339 . S
C215 H244 0.949 . S
C216 C215 1.339 . S
C216 C217 1.439 . S
C216 H245 0.950 . S
C217 N213 1.383 . S
C217 C216 1.439 . S
C217 C235 1.392 . S
N218 Co202 2.282 1_565 S
N218 C221 1.332 . S
N218 C223 1.332 . S
C219 C220 1.386 . S
C219 C222 1.388 . S
C220 C219 1.386 . S
C220 C221 1.382 . S
C220 H246 0.950 . S
C221 N218 1.332 . S
C221 C220 1.382 . S
C221 H232 0.952 . S
C222 C219 1.388 . S
C222 C223 1.382 . S
C222 H247 0.950 . S
C223 N218 1.332 . S
C223 C222 1.382 . S
C223 H233 0.948 . S
N224 Co202 2.282 . S
N224 C228 1.332 . S
N224 C229 1.332 . S
C225 C226 1.388 . S
C225 C229 1.382 . S
C225 H248 0.950 . S
C226 C225 1.388 . S
C226 C227 1.386 . S
C227 C226 1.386 . S
C227 C228 1.382 . S
C227 H249 0.950 . S
C228 N224 1.332 . S
C228 C227 1.382 . S
C228 H230 0.952 . S
C229 N224 1.332 . S
C229 C225 1.382 . S
C229 H231 0.948 . S
H230 C228 0.952 . S
H231 C229 0.948 . S
H232 C221 0.952 . S
H233 C223 0.948 . S
C234 C200 1.395 . S
C234 C204 1.391 1_545 S
C235 C197 1.389 . S
C235 C217 1.392 . S
C236 C207 1.392 . S
C236 C209 1.389 . S
C237 C212 1.395 1_545 S
C237 C214 1.391 . S
H238 C198 0.951 . S
H239 C199 0.950 . S
H240 C205 0.949 . S
H241 C206 0.950 . S
H242 C210 0.951 . S
H243 C211 0.950 . S
H244 C215 0.949 . S
H245 C216 0.950 . S
H246 C220 0.950 . S
H247 C222 0.950 . S
H248 C225 0.950 . S
H249 C227 0.950 . S
C250 C251 1.443 . S
C250 N254 1.376 . S
C250 C288 1.389 . S
C251 C250 1.443 . S
C251 C252 1.340 . S
C251 H291 0.951 . S
C252 C251 1.340 . S
C252 C253 1.439 . S
C252 H292 0.950 . S
C253 C252 1.439 . S
C253 N254 1.374 . S
C253 C287 1.395 . S
N254 C250 1.376 . S
N254 C253 1.374 . S
N254 Co255 2.008 . S
Co255 N254 2.008 . S
Co255 N256 1.995 1_455 S
Co255 N261 2.008 1_455 S
Co255 N266 1.995 . S
Co255 N271 2.282 1_455 S
Co255 N277 2.282 . S
N256 Co255 1.995 1_655 S
N256 C257 1.376 . S
N256 C260 1.383 . S
C257 N256 1.376 . S
C257 C258 1.446 . S
C257 C287 1.391 1_655 S
C258 C257 1.446 . S
C258 C259 1.339 . S
C258 H293 0.949 . S
C259 C258 1.339 . S
C259 C260 1.439 . S
C259 H294 0.950 . S
C260 N256 1.383 . S
C260 C259 1.439 . S
C260 C289 1.392 . S
N261 Co255 2.008 1_655 S
N261 C262 1.376 . S
N261 C265 1.374 . S
C262 N261 1.376 . S
C262 C263 1.443 . S
C262 C289 1.389 . S
C263 C262 1.443 . S
C263 C264 1.340 . S
C263 H295 0.951 . S
C264 C263 1.340 . S
C264 C265 1.439 . S
C264 H296 0.950 . S
C265 N261 1.374 . S
C265 C264 1.439 . S
C265 C290 1.395 . S
N266 Co255 1.995 . S
N266 C267 1.376 . S
N266 C270 1.383 . S
C267 N266 1.376 . S
C267 C268 1.446 . S
C267 C290 1.391 1_455 S
C268 C267 1.446 . S
C268 C269 1.339 . S
C268 H297 0.949 . S
C269 C268 1.339 . S
C269 C270 1.439 . S
C269 H298 0.950 . S
C270 N266 1.383 . S
C270 C269 1.439 . S
C270 C288 1.392 . S
N271 Co255 2.282 1_655 S
N271 C274 1.332 . S
N271 C276 1.332 . S
C272 C273 1.386 . S
C272 C275 1.388 . S
C273 C272 1.386 . S
C273 C274 1.382 . S
C273 H299 0.950 . S
C274 N271 1.332 . S
C274 C273 1.382 . S
C274 H285 0.952 . S
C275 C272 1.388 . S
C275 C276 1.382 . S
C275 H300 0.950 . S
C276 N271 1.332 . S
C276 C275 1.382 . S
C276 H286 0.948 . S
N277 Co255 2.282 . S
N277 C281 1.332 . S
N277 C282 1.332 . S
C278 C279 1.388 . S
C278 C282 1.382 . S
C278 H301 0.950 . S
C279 C278 1.388 . S
C279 C280 1.386 . S
C280 C279 1.386 . S
C280 C281 1.382 . S
C280 H302 0.950 . S
C281 N277 1.332 . S
C281 C280 1.382 . S
C281 H283 0.952 . S
C282 N277 1.332 . S
C282 C278 1.382 . S
C282 H284 0.948 . S
H283 C281 0.952 . S
H284 C282 0.948 . S
H285 C274 0.952 . S
H286 C276 0.948 . S
C287 C253 1.395 . S
C287 C257 1.391 1_455 S
C288 C250 1.389 . S
C288 C270 1.392 . S
C289 C260 1.392 . S
C289 C262 1.389 . S
C290 C265 1.395 . S
C290 C267 1.391 1_655 S
H291 C251 0.951 . S
H292 C252 0.950 . S
H293 C258 0.949 . S
H294 C259 0.950 . S
H295 C263 0.951 . S
H296 C264 0.950 . S
H297 C268 0.949 . S
H298 C269 0.950 . S
H299 C273 0.950 . S
H300 C275 0.950 . S
H301 C278 0.950 . S
H302 C280 0.950 . S
C303 C304 1.443 . S
C303 N307 1.376 . S
C303 C341 1.389 . S
C304 C303 1.443 . S
C304 C305 1.340 . S
C304 H344 0.951 . S
C305 C304 1.340 . S
C305 C306 1.439 . S
C305 H345 0.950 . S
C306 C305 1.439 . S
C306 N307 1.374 . S
C306 C340 1.398 1_565 S
N307 C303 1.376 . S
N307 C306 1.374 . S
N307 Co308 2.008 1_565 S
Co308 N307 2.008 1_545 S
Co308 N309 1.995 . S
Co308 N314 2.008 . S
Co308 N319 1.995 1_545 S
Co308 N324 2.282 . S
Co308 N330 2.282 1_545 S
N309 Co308 1.995 . S
N309 C310 1.376 . S
N309 C313 1.383 . S
C310 N309 1.376 . S
C310 C311 1.446 . S
C310 C340 1.389 . S
C311 C310 1.446 . S
C311 C312 1.339 . S
C311 H346 0.949 . S
C312 C311 1.339 . S
C312 C313 1.439 . S
C312 H347 0.950 . S
C313 N309 1.383 . S
C313 C312 1.439 . S
C313 C342 1.392 . S
N314 Co308 2.008 . S
N314 C315 1.376 . S
N314 C318 1.374 . S
C315 N314 1.376 . S
C315 C316 1.443 . S
C315 C342 1.389 . S
C316 C315 1.443 . S
C316 C317 1.340 . S
C316 H348 0.951 . S
C317 C316 1.340 . S
C317 C318 1.439 . S
C317 H349 0.950 . S
C318 N314 1.374 . S
C318 C317 1.439 . S
C318 C343 1.395 . S
N319 Co308 1.995 1_565 S
N319 C320 1.376 . S
N319 C323 1.383 . S
C320 N319 1.376 . S
C320 C321 1.446 . S
C320 C343 1.391 1_565 S
C321 C320 1.446 . S
C321 C322 1.339 . S
C321 H350 0.949 . S
C322 C321 1.339 . S
C322 C323 1.439 . S
C322 H351 0.950 . S
C323 N319 1.383 . S
C323 C322 1.439 . S
C323 C341 1.392 . S
N324 Co308 2.282 . S
N324 C327 1.332 . S
N324 C329 1.332 . S
C325 C326 1.386 . S
C325 C328 1.388 . S
C326 C325 1.386 . S
C326 C327 1.382 . S
C326 H352 0.950 . S
C327 N324 1.332 . S
C327 C326 1.382 . S
C327 H338 0.952 . S
C328 C325 1.388 . S
C328 C329 1.382 . S
C328 H353 0.950 . S
C329 N324 1.332 . S
C329 C328 1.382 . S
C329 H339 0.948 . S
N330 Co308 2.282 1_565 S
N330 C334 1.332 . S
N330 C335 1.332 . S
C331 C332 1.388 . S
C331 C335 1.382 . S
C331 H354 0.950 . S
C332 C331 1.388 . S
C332 C333 1.386 . S
C333 C332 1.386 . S
C333 C334 1.382 . S
C333 H355 0.950 . S
C334 N330 1.332 . S
C334 C333 1.382 . S
C334 H336 0.952 . S
C335 N330 1.332 . S
C335 C331 1.382 . S
C335 H337 0.948 . S
H336 C334 0.952 . S
H337 C335 0.948 . S
H338 C327 0.952 . S
H339 C329 0.948 . S
C340 C306 1.398 1_545 S
C340 C310 1.389 . S
C341 C303 1.389 . S
C341 C323 1.392 . S
C342 C313 1.392 . S
C342 C315 1.389 . S
C343 C318 1.395 . S
C343 C320 1.391 1_545 S
H344 C304 0.951 . S
H345 C305 0.950 . S
H346 C311 0.949 . S
H347 C312 0.950 . S
H348 C316 0.951 . S
H349 C317 0.950 . S
H350 C321 0.949 . S
H351 C322 0.950 . S
H352 C326 0.950 . S
H353 C328 0.950 . S
H354 C331 0.950 . S
H355 C333 0.950 . S
C356 C357 1.443 . S
C356 N360 1.376 . S
C356 C394 1.389 . S
C357 C356 1.443 . S
C357 C358 1.340 . S
C357 H397 0.951 . S
C358 C357 1.340 . S
C358 C359 1.439 . S
C358 H398 0.950 . S
C359 C358 1.439 . S
C359 N360 1.374 . S
C359 C393 1.395 . S
N360 C356 1.376 . S
N360 C359 1.374 . S
N360 Co361 2.008 . S
Co361 N360 2.008 . S
Co361 N362 1.995 1_554 S
Co361 N367 2.008 1_554 S
Co361 N372 1.995 . S
Co361 N377 2.282 . S
Co361 N383 2.282 1_554 S
N362 Co361 1.995 1_556 S
N362 C363 1.376 . S
N362 C366 1.383 . S
C363 N362 1.376 . S
C363 C364 1.446 . S
C363 C393 1.391 1_556 S
C364 C363 1.446 . S
C364 C365 1.339 . S
C364 H399 0.949 . S
C365 C364 1.339 . S
C365 C366 1.439 . S
C365 H400 0.950 . S
C366 N362 1.383 . S
C366 C365 1.439 . S
C366 C395 1.392 . S
N367 Co361 2.008 1_556 S
N367 C368 1.376 . S
N367 C371 1.374 . S
C368 N367 1.376 . S
C368 C369 1.443 . S
C368 C395 1.389 . S
C369 C368 1.443 . S
C369 C370 1.340 . S
C369 H401 0.951 . S
C370 C369 1.340 . S
C370 C371 1.439 . S
C370 H402 0.950 . S
C371 N367 1.374 . S
C371 C370 1.439 . S
C371 C396 1.410 . S
N372 Co361 1.995 . S
N372 C373 1.376 . S
N372 C376 1.383 . S
C373 N372 1.376 . S
C373 C374 1.446 . S
C373 C396 1.378 1_554 S
C374 C373 1.446 . S
C374 C375 1.339 . S
C374 H403 0.949 . S
C375 C374 1.339 . S
C375 C376 1.439 . S
C375 H404 0.950 . S
C376 N372 1.383 . S
C376 C375 1.439 . S
C376 C394 1.392 . S
N377 Co361 2.282 . S
N377 C380 1.332 . S
N377 C382 1.332 . S
C378 C379 1.386 . S
C378 C381 1.388 . S
C379 C378 1.386 . S
C379 C380 1.382 . S
C379 H405 0.950 . S
C380 N377 1.332 . S
C380 C379 1.382 . S
C380 H391 0.952 . S
C381 C378 1.388 . S
C381 C382 1.382 . S
C381 H406 0.950 . S
C382 N377 1.332 . S
C382 C381 1.382 . S
C382 H392 0.948 . S
N383 Co361 2.282 1_556 S
N383 C387 1.332 . S
N383 C388 1.332 . S
C384 C385 1.388 . S
C384 C388 1.382 . S
C384 H407 0.950 . S
C385 C384 1.388 . S
C385 C386 1.386 . S
C386 C385 1.386 . S
C386 C387 1.382 . S
C386 H408 0.950 . S
C387 N383 1.332 . S
C387 C386 1.382 . S
C387 H389 0.952 . S
C388 N383 1.332 . S
C388 C384 1.382 . S
C388 H390 0.948 . S
H389 C387 0.952 . S
H390 C388 0.948 . S
H391 C380 0.952 . S
H392 C382 0.948 . S
C393 C359 1.395 . S
C393 C363 1.391 1_554 S
C394 C356 1.389 . S
C394 C376 1.392 . S
C395 C366 1.392 . S
C395 C368 1.389 . S
C396 C371 1.410 . S
C396 C373 1.378 1_556 S
H397 C357 0.951 . S
H398 C358 0.950 . S
H399 C364 0.949 . S
H400 C365 0.950 . S
H401 C369 0.951 . S
H402 C370 0.950 . S
H403 C374 0.949 . S
H404 C375 0.950 . S
H405 C379 0.950 . S
H406 C381 0.950 . S
H407 C384 0.950 . S
H408 C386 0.950 . S
C409 C410 1.443 . S
C409 N413 1.376 . S
C409 C447 1.389 . S
C410 C409 1.443 . S
C410 C411 1.340 . S
C410 H450 0.951 . S
C411 C410 1.340 . S
C411 C412 1.439 . S
C411 H451 0.950 . S
C412 C411 1.439 . S
C412 N413 1.374 . S
C412 C446 1.395 . S
N413 C409 1.376 . S
N413 C412 1.374 . S
N413 Co414 2.008 . S
Co414 N413 2.008 . S
Co414 N415 1.995 1_554 S
Co414 N420 2.008 . S
Co414 N425 1.995 . S
Co414 N430 2.282 . S
Co414 N436 2.282 1_554 S
N415 Co414 1.995 1_556 S
N415 C416 1.376 . S
N415 C419 1.383 . S
C416 N415 1.376 . S
C416 C417 1.446 . S
C416 C446 1.391 1_556 S
C417 C416 1.446 . S
C417 C418 1.339 . S
C417 H452 0.949 . S
C418 C417 1.339 . S
C418 C419 1.439 . S
C418 H453 0.950 . S
C419 N415 1.383 . S
C419 C418 1.439 . S
C419 C448 1.392 . S
N420 Co414 2.008 . S
N420 C421 1.376 1_554 S
N420 C424 1.374 . S
C421 N420 1.376 1_556 S
C421 C422 1.443 . S
C421 C448 1.389 . S
C422 C421 1.443 . S
C422 C423 1.340 1_556 S
C422 H454 0.951 . S
C423 C422 1.340 1_554 S
C423 C424 1.439 . S
C423 H455 0.950 . S
C424 N420 1.374 . S
C424 C423 1.439 . S
C424 C449 1.395 . S
N425 Co414 1.995 . S
N425 C426 1.376 . S
N425 C429 1.383 . S
C426 N425 1.376 . S
C426 C427 1.446 . S
C426 C449 1.391 . S
C427 C426 1.446 . S
C427 C428 1.339 . S
C427 H456 0.949 . S
C428 C427 1.339 . S
C428 C429 1.439 . S
C428 H457 0.950 . S
C429 N425 1.383 . S
C429 C428 1.439 . S
C429 C447 1.392 . S
N430 Co414 2.282 . S
N430 C433 1.332 . S
N430 C435 1.332 . S
C431 C432 1.386 . S
C431 C434 1.388 . S
C432 C431 1.386 . S
C432 C433 1.382 . S
C432 H458 0.950 . S
C433 N430 1.332 . S
C433 C432 1.382 . S
C433 H444 0.952 . S
C434 C431 1.388 . S
C434 C435 1.382 . S
C434 H459 0.950 . S
C435 N430 1.332 . S
C435 C434 1.382 . S
C435 H445 0.948 . S
N436 Co414 2.282 1_556 S
N436 C440 1.332 . S
N436 C441 1.332 . S
C437 C438 1.388 . S
C437 C441 1.382 . S
C437 H460 0.950 . S
C438 C437 1.388 . S
C438 C439 1.386 . S
C439 C438 1.386 . S
C439 C440 1.382 . S
C439 H461 0.950 . S
C440 N436 1.332 . S
C440 C439 1.382 . S
C440 H442 0.952 . S
C441 N436 1.332 . S
C441 C437 1.382 . S
C441 H443 0.948 . S
H442 C440 0.952 . S
H443 C441 0.948 . S
H444 C433 0.952 . S
H445 C435 0.948 . S
C446 C412 1.395 . S
C446 C416 1.391 1_554 S
C447 C409 1.389 . S
C447 C429 1.392 . S
C448 C419 1.392 . S
C448 C421 1.389 . S
C449 C424 1.395 . S
C449 C426 1.391 . S
H450 C410 0.951 . S
H451 C411 0.950 . S
H452 C417 0.949 . S
H453 C418 0.950 . S
H454 C422 0.951 . S
H455 C423 0.950 . S
H456 C427 0.949 . S
H457 C428 0.950 . S
H458 C432 0.950 . S
H459 C434 0.950 . S
H460 C437 0.950 . S
H461 C439 0.950 . S
C462 C463 1.443 . S
C462 N466 1.376 1_556 S
C462 C500 1.389 . S
C463 C462 1.443 . S
C463 C464 1.340 1_556 S
C463 H503 0.951 . S
C464 C463 1.340 1_554 S
C464 C465 1.439 . S
C464 H504 0.950 . S
C465 C464 1.439 . S
C465 N466 1.374 . S
C465 C499 1.395 . S
N466 C462 1.376 1_554 S
N466 C465 1.374 . S
N466 Co467 2.008 . S
Co467 N466 2.008 . S
Co467 N468 1.995 . S
Co467 N473 2.008 . S
Co467 N478 1.995 . S
Co467 N483 2.282 1_554 S
Co467 N489 2.282 . S
N468 Co467 1.995 . S
N468 C469 1.376 . S
N468 C472 1.383 . S
C469 N468 1.376 . S
C469 C470 1.446 . S
C469 C499 1.391 . S
C470 C469 1.446 . S
C470 C471 1.339 . S
C470 H505 0.949 . S
C471 C470 1.339 . S
C471 C472 1.439 . S
C471 H506 0.950 . S
C472 N468 1.383 . S
C472 C471 1.439 . S
C472 C501 1.392 . S
N473 Co467 2.008 . S
N473 C474 1.376 . S
N473 C477 1.374 . S
C474 N473 1.376 . S
C474 C475 1.443 . S
C474 C501 1.389 . S
C475 C474 1.443 . S
C475 C476 1.340 . S
C475 H507 0.951 . S
C476 C475 1.340 . S
C476 C477 1.439 . S
C476 H508 0.950 . S
C477 N473 1.374 . S
C477 C476 1.439 . S
C477 C502 1.395 . S
N478 Co467 1.995 . S
N478 C479 1.376 . S
N478 C482 1.383 1_554 S
C479 N478 1.376 . S
C479 C480 1.446 1_554 S
C479 C502 1.391 . S
C480 C479 1.446 1_556 S
C480 C481 1.339 . S
C480 H509 0.949 . S
C481 C480 1.339 . S
C481 C482 1.439 . S
C481 H510 0.950 . S
C482 N478 1.383 1_556 S
C482 C481 1.439 . S
C482 C500 1.392 . S
N483 Co467 2.282 1_556 S
N483 C486 1.332 . S
N483 C488 1.332 . S
C484 C485 1.386 . S
C484 C487 1.388 . S
C485 C484 1.386 . S
C485 C486 1.382 . S
C485 H511 0.950 . S
C486 N483 1.332 . S
C486 C485 1.382 . S
C486 H497 0.952 . S
C487 C484 1.388 . S
C487 C488 1.382 . S
C487 H512 0.950 . S
C488 N483 1.332 . S
C488 C487 1.382 . S
C488 H498 0.948 1_556 S
N489 Co467 2.282 . S
N489 C493 1.332 . S
N489 C494 1.332 . S
C490 C491 1.388 . S
C490 C494 1.382 . S
C490 H513 0.950 . S
C491 C490 1.388 . S
C491 C492 1.386 . S
C492 C491 1.386 . S
C492 C493 1.382 . S
C492 H514 0.950 . S
C493 N489 1.332 . S
C493 C492 1.382 . S
C493 H495 0.952 . S
C494 N489 1.332 . S
C494 C490 1.382 . S
C494 H496 0.948 . S
H495 C493 0.952 . S
H496 C494 0.948 . S
H497 C486 0.952 . S
H498 C488 0.948 1_554 S
C499 C465 1.395 . S
C499 C469 1.391 . S
C500 C462 1.389 . S
C500 C482 1.392 . S
C501 C472 1.392 . S
C501 C474 1.389 . S
C502 C477 1.395 . S
C502 C479 1.391 . S
H503 C463 0.951 . S
H504 C464 0.950 . S
H505 C470 0.949 . S
H506 C471 0.950 . S
H507 C475 0.951 . S
H508 C476 0.950 . S
H509 C480 0.949 . S
H510 C481 0.950 . S
H511 C485 0.950 . S
H512 C487 0.950 . S
H513 C490 0.950 . S
H514 C492 0.950 . S
C515 C516 1.443 . S
C515 N519 1.376 . S
C515 C553 1.389 . S
C516 C515 1.443 . S
C516 C517 1.340 . S
C516 H556 0.951 . S
C517 C516 1.340 . S
C517 C518 1.439 . S
C517 H557 0.950 . S
C518 C517 1.439 . S
C518 N519 1.374 . S
C518 C552 1.395 1_554 S
N519 C515 1.376 . S
N519 C518 1.374 . S
N519 Co520 2.008 . S
Co520 N519 2.008 . S
Co520 N521 1.995 1_554 S
Co520 N526 2.008 1_554 S
Co520 N531 1.995 . S
Co520 N536 2.282 . S
Co520 N542 2.282 1_554 S
N521 Co520 1.995 1_556 S
N521 C522 1.376 . S
N521 C525 1.383 . S
C522 N521 1.376 . S
C522 C523 1.446 . S
C522 C552 1.391 . S
C523 C522 1.446 . S
C523 C524 1.339 . S
C523 H558 0.949 . S
C524 C523 1.339 . S
C524 C525 1.439 . S
C524 H559 0.950 . S
C525 N521 1.383 . S
C525 C524 1.439 . S
C525 C554 1.392 . S
N526 Co520 2.008 1_556 S
N526 C527 1.376 . S
N526 C530 1.374 1_556 S
C527 N526 1.376 . S
C527 C528 1.443 . S
C527 C554 1.389 . S
C528 C527 1.443 . S
C528 C529 1.340 . S
C528 H560 0.951 . S
C529 C528 1.340 . S
C529 C530 1.439 1_556 S
C529 H561 0.950 . S
C530 N526 1.374 1_554 S
C530 C529 1.439 1_554 S
C530 C555 1.395 . S
N531 Co520 1.995 . S
N531 C532 1.376 . S
N531 C535 1.383 . S
C532 N531 1.376 . S
C532 C533 1.446 . S
C532 C555 1.391 . S
C533 C532 1.446 . S
C533 C534 1.339 . S
C533 H562 0.949 . S
C534 C533 1.339 . S
C534 C535 1.439 . S
C534 H563 0.950 . S
C535 N531 1.383 . S
C535 C534 1.439 . S
C535 C553 1.392 . S
N536 Co520 2.282 . S
N536 C539 1.332 . S
N536 C541 1.332 . S
C537 C538 1.386 . S
C537 C540 1.388 . S
C538 C537 1.386 . S
C538 C539 1.382 . S
C538 H564 0.950 . S
C539 N536 1.332 . S
C539 C538 1.382 . S
C539 H550 0.952 . S
C540 C537 1.388 . S
C540 C541 1.382 . S
C540 H565 0.950 . S
C541 N536 1.332 . S
C541 C540 1.382 . S
C541 H551 0.948 . S
N542 Co520 2.282 1_556 S
N542 C546 1.332 . S
N542 C547 1.332 . S
C543 C544 1.388 . S
C543 C547 1.382 . S
C543 H566 0.950 . S
C544 C543 1.388 . S
C544 C545 1.386 . S
C545 C544 1.386 . S
C545 C546 1.382 . S
C545 H567 0.950 . S
C546 N542 1.332 . S
C546 C545 1.382 . S
C546 H548 0.952 . S
C547 N542 1.332 . S
C547 C543 1.382 . S
C547 H549 0.948 . S
H548 C546 0.952 . S
H549 C547 0.948 . S
H550 C539 0.952 . S
H551 C541 0.948 . S
C552 C518 1.395 1_556 S
C552 C522 1.391 . S
C553 C515 1.389 . S
C553 C535 1.392 . S
C554 C525 1.392 . S
C554 C527 1.389 . S
C555 C530 1.395 . S
C555 C532 1.391 . S
H556 C516 0.951 . S
H557 C517 0.950 . S
H558 C523 0.949 . S
H559 C524 0.950 . S
H560 C528 0.951 . S
H561 C529 0.950 . S
H562 C533 0.949 . S
H563 C534 0.950 . S
H564 C538 0.950 . S
H565 C540 0.950 . S
H566 C543 0.950 . S
H567 C545 0.950 . S
C568 C569 1.387 . S
C568 H572 0.950 . S
C568 C577 1.390 . S
C569 C568 1.387 . S
C569 C571 1.387 . S
H570 C577 0.950 . S
C571 C569 1.387 . S
C571 C573 1.390 . S
C571 H575 0.950 . S
H572 C568 0.950 . S
C573 C571 1.390 . S
C573 C574 1.387 . S
C573 H576 0.950 . S
C574 C573 1.387 . S
C574 C577 1.387 . S
H575 C571 0.950 . S
H576 C573 0.950 . S
C577 C568 1.390 . S
C577 H570 0.950 . S
C577 C574 1.387 . S
C578 C579 1.387 . S
C578 H582 0.950 . S
C578 C587 1.390 . S
C579 C578 1.387 . S
C579 C581 1.387 . S
H580 C587 0.950 . S
C581 C579 1.387 . S
C581 C583 1.390 . S
C581 H585 0.950 . S
H582 C578 0.950 . S
C583 C581 1.390 . S
C583 C584 1.387 . S
C583 H586 0.950 . S
C584 C583 1.387 . S
C584 C587 1.387 . S
H585 C581 0.950 . S
H586 C583 0.950 . S
C587 C578 1.390 . S
C587 H580 0.950 . S
C587 C584 1.387 . S
C588 C589 1.387 . S
C588 H592 0.950 . S
C588 C597 1.390 . S
C589 C588 1.387 . S
C589 C591 1.387 . S
H590 C597 0.950 . S
C591 C589 1.387 . S
C591 C593 1.390 . S
C591 H595 0.950 . S
H592 C588 0.950 . S
C593 C591 1.390 . S
C593 C594 1.387 . S
C593 H596 0.950 . S
C594 C593 1.387 . S
C594 C597 1.387 . S
H595 C591 0.950 . S
H596 C593 0.950 . S
C597 C588 1.390 . S
C597 H590 0.950 . S
C597 C594 1.387 . S
C598 C599 1.387 . S
C598 H602 0.950 . S
C598 C607 1.390 . S
C599 C598 1.387 . S
C599 C601 1.387 . S
H600 C607 0.950 . S
C601 C599 1.387 . S
C601 C603 1.390 . S
C601 H605 0.950 . S
H602 C598 0.950 . S
C603 C601 1.390 . S
C603 C604 1.387 . S
C603 H606 0.950 . S
C604 C603 1.387 . S
C604 C607 1.387 . S
H605 C601 0.950 . S
H606 C603 0.950 . S
C607 C598 1.390 . S
C607 H600 0.950 . S
C607 C604 1.387 . S
C608 C609 1.387 . S
C608 H612 0.950 . S
C608 C617 1.390 . S
C609 C608 1.387 . S
C609 C611 1.387 . S
H610 C617 0.950 . S
C611 C609 1.387 . S
C611 C613 1.390 . S
C611 H615 0.950 . S
H612 C608 0.950 . S
C613 C611 1.390 . S
C613 C614 1.387 . S
C613 H616 0.950 . S
C614 C613 1.387 . S
C614 C617 1.387 . S
H615 C611 0.950 . S
H616 C613 0.950 . S
C617 C608 1.390 . S
C617 H610 0.950 . S
C617 C614 1.387 . S
C618 C619 1.387 . S
C618 H622 0.950 . S
C618 C627 1.390 . S
C619 C618 1.387 . S
C619 C621 1.387 . S
H620 C627 0.950 . S
C621 C619 1.387 . S
C621 C623 1.390 . S
C621 H625 0.950 . S
H622 C618 0.950 . S
C623 C621 1.390 . S
C623 C624 1.387 . S
C623 H626 0.950 . S
C624 C623 1.387 . S
C624 C627 1.387 . S
H625 C621 0.950 . S
H626 C623 0.950 . S
C627 C618 1.390 . S
C627 H620 0.950 . S
C627 C624 1.387 . S
C628 C629 1.387 . S
C628 H632 0.950 . S
C628 C637 1.390 . S
C629 C628 1.387 . S
C629 C631 1.387 . S
H630 C637 0.950 . S
C631 C629 1.387 . S
C631 C633 1.390 . S
C631 H635 0.950 . S
H632 C628 0.950 . S
C633 C631 1.390 . S
C633 C634 1.387 . S
C633 H636 0.950 . S
C634 C633 1.387 . S
C634 C637 1.387 . S
H635 C631 0.950 . S
H636 C633 0.950 . S
C637 C628 1.390 . S
C637 H630 0.950 . S
C637 C634 1.387 . S
C638 C639 1.387 . S
C638 H642 0.950 . S
C638 C647 1.390 . S
C639 C638 1.387 . S
C639 C641 1.387 . S
H640 C647 0.950 . S
C641 C639 1.387 . S
C641 C643 1.390 . S
C641 H645 0.950 . S
H642 C638 0.950 . S
C643 C641 1.390 . S
C643 C644 1.387 . S
C643 H646 0.950 . S
C644 C643 1.387 . S
C644 C647 1.387 . S
H645 C641 0.950 . S
H646 C643 0.950 . S
C647 C638 1.390 . S
C647 H640 0.950 . S
C647 C644 1.387 . S
C648 C649 1.387 . S
C648 H652 0.950 . S
C648 C657 1.390 . S
C649 C648 1.387 . S
C649 C651 1.387 . S
H650 C657 0.950 . S
C651 C649 1.387 . S
C651 C653 1.390 . S
C651 H655 0.950 . S
H652 C648 0.950 . S
C653 C651 1.390 . S
C653 C654 1.387 . S
C653 H656 0.950 . S
C654 C653 1.387 . S
C654 C657 1.387 . S
H655 C651 0.950 . S
H656 C653 0.950 . S
C657 C648 1.390 . S
C657 H650 0.950 . S
C657 C654 1.387 . S
C658 C659 1.387 . S
C658 H662 0.950 . S
C658 C667 1.390 . S
C659 C658 1.387 . S
C659 C661 1.387 . S
H660 C667 0.950 . S
C661 C659 1.387 . S
C661 C663 1.390 . S
C661 H665 0.950 . S
H662 C658 0.950 . S
C663 C661 1.390 . S
C663 C664 1.387 . S
C663 H666 0.950 . S
C664 C663 1.387 . S
C664 C667 1.387 . S
H665 C661 0.950 . S
H666 C663 0.950 . S
C667 C658 1.390 . S
C667 H660 0.950 . S
C667 C664 1.387 . S
C668 C669 1.387 . S
C668 H672 0.950 . S
C668 C677 1.390 . S
C669 C668 1.387 . S
C669 C671 1.387 . S
H670 C677 0.950 . S
C671 C669 1.387 . S
C671 C673 1.390 . S
C671 H675 0.950 . S
H672 C668 0.950 . S
C673 C671 1.390 . S
C673 C674 1.387 . S
C673 H676 0.950 . S
C674 C673 1.387 . S
C674 C677 1.387 . S
H675 C671 0.950 . S
H676 C673 0.950 . S
C677 C668 1.390 . S
C677 H670 0.950 . S
C677 C674 1.387 . S
C678 C679 1.387 . S
C678 H682 0.950 . S
C678 C687 1.390 . S
C679 C678 1.387 . S
C679 C681 1.387 . S
H680 C687 0.950 . S
C681 C679 1.387 . S
C681 C683 1.390 . S
C681 H685 0.950 . S
H682 C678 0.950 . S
C683 C681 1.390 . S
C683 C684 1.387 . S
C683 H686 0.950 . S
C684 C683 1.387 . S
C684 C687 1.387 . S
H685 C681 0.950 . S
H686 C683 0.950 . S
C687 C678 1.390 . S
C687 H680 0.950 . S
C687 C684 1.387 . S
C688 C689 1.387 . S
C688 H692 0.950 . S
C688 C697 1.390 . S
C689 C688 1.387 . S
C689 C691 1.387 . S
H690 C697 0.950 . S
C691 C689 1.387 . S
C691 C693 1.390 . S
C691 H695 0.950 . S
H692 C688 0.950 . S
C693 C691 1.390 . S
C693 C694 1.387 . S
C693 H696 0.950 . S
C694 C693 1.387 . S
C694 C697 1.387 . S
H695 C691 0.950 . S
H696 C693 0.950 . S
C697 C688 1.390 . S
C697 H690 0.950 . S
C697 C694 1.387 . S
C698 C699 1.387 . S
C698 H702 0.950 . S
C698 C707 1.390 . S
C699 C698 1.387 . S
C699 C701 1.387 . S
H700 C707 0.950 . S
C701 C699 1.387 . S
C701 C703 1.390 . S
C701 H705 0.950 . S
H702 C698 0.950 . S
C703 C701 1.390 . S
C703 C704 1.387 . S
C703 H706 0.950 . S
C704 C703 1.387 . S
C704 C707 1.387 . S
H705 C701 0.950 . S
H706 C703 0.950 . S
C707 C698 1.390 . S
C707 H700 0.950 . S
C707 C704 1.387 . S
C708 C709 1.387 . S
C708 H712 0.950 . S
C708 C717 1.390 . S
C709 C708 1.387 . S
C709 C711 1.387 . S
H710 C717 0.950 . S
C711 C709 1.387 . S
C711 C713 1.390 . S
C711 H715 0.950 . S
H712 C708 0.950 . S
C713 C711 1.390 . S
C713 C714 1.387 . S
C713 H716 0.950 . S
C714 C713 1.387 . S
C714 C717 1.387 . S
H715 C711 0.950 . S
H716 C713 0.950 . S
C717 C708 1.390 . S
C717 H710 0.950 . S
C717 C714 1.387 . S
C718 C719 1.387 . S
C718 H722 0.950 . S
C718 C727 1.390 . S
C719 C718 1.387 . S
C719 C721 1.387 . S
H720 C727 0.950 . S
C721 C719 1.387 . S
C721 C723 1.390 . S
C721 H725 0.950 . S
H722 C718 0.950 . S
C723 C721 1.390 . S
C723 C724 1.387 . S
C723 H726 0.950 . S
C724 C723 1.387 . S
C724 C727 1.387 . S
H725 C721 0.950 . S
H726 C723 0.950 . S
C727 C718 1.390 . S
C727 H720 0.950 . S
C727 C724 1.387 . S
C728 C729 1.387 . S
C728 H732 0.950 . S
C728 C737 1.390 . S
C729 C728 1.387 . S
C729 C731 1.387 . S
H730 C737 0.950 . S
C731 C729 1.387 . S
C731 C733 1.390 . S
C731 H735 0.950 . S
H732 C728 0.950 . S
C733 C731 1.390 . S
C733 C734 1.387 . S
C733 H736 0.950 . S
C734 C733 1.387 . S
C734 C737 1.387 . S
H735 C731 0.950 . S
H736 C733 0.950 . S
C737 C728 1.390 . S
C737 H730 0.950 . S
C737 C734 1.387 . S
C738 C739 1.387 . S
C738 H742 0.950 . S
C738 C747 1.390 . S
C739 C738 1.387 . S
C739 C741 1.387 . S
H740 C747 0.950 . S
C741 C739 1.387 . S
C741 C743 1.390 . S
C741 H745 0.950 . S
H742 C738 0.950 . S
C743 C741 1.390 . S
C743 C744 1.387 . S
C743 H746 0.950 . S
C744 C743 1.387 . S
C744 C747 1.387 . S
H745 C741 0.950 . S
H746 C743 0.950 . S
C747 C738 1.390 . S
C747 H740 0.950 . S
C747 C744 1.387 . S
C748 C749 1.387 . S
C748 H752 0.950 . S
C748 C757 1.390 . S
C749 C748 1.387 . S
C749 C751 1.387 . S
H750 C757 0.950 . S
C751 C749 1.387 . S
C751 C753 1.390 . S
C751 H755 0.950 . S
H752 C748 0.950 . S
C753 C751 1.390 . S
C753 C754 1.387 . S
C753 H756 0.950 . S
C754 C753 1.387 . S
C754 C757 1.387 . S
H755 C751 0.950 . S
H756 C753 0.950 . S
C757 C748 1.390 . S
C757 H750 0.950 . S
C757 C754 1.387 . S
C758 C759 1.387 . S
C758 H762 0.950 . S
C758 C767 1.390 . S
C759 C758 1.387 . S
C759 C761 1.387 . S
H760 C767 0.950 . S
C761 C759 1.387 . S
C761 C763 1.390 . S
C761 H765 0.950 . S
H762 C758 0.950 . S
C763 C761 1.390 . S
C763 C764 1.387 . S
C763 H766 0.950 . S
C764 C763 1.387 . S
C764 C767 1.387 . S
H765 C761 0.950 . S
H766 C763 0.950 . S
C767 C758 1.390 . S
C767 H760 0.950 . S
C767 C764 1.387 . S
C768 C769 1.387 . S
C768 H772 0.950 . S
C768 C777 1.390 . S
C769 C768 1.387 . S
C769 C771 1.387 . S
H770 C777 0.950 . S
C771 C769 1.387 . S
C771 C773 1.390 . S
C771 H775 0.950 . S
H772 C768 0.950 . S
C773 C771 1.390 . S
C773 C774 1.387 . S
C773 H776 0.950 . S
C774 C773 1.387 . S
C774 C777 1.387 . S
H775 C771 0.950 . S
H776 C773 0.950 . S
C777 C768 1.390 . S
C777 H770 0.950 . S
C777 C774 1.387 . S
C778 C779 1.387 . S
C778 H782 0.950 . S
C778 C787 1.390 . S
C779 C778 1.387 . S
C779 C781 1.387 . S
H780 C787 0.950 . S
C781 C779 1.387 . S
C781 C783 1.390 . S
C781 H785 0.950 . S
H782 C778 0.950 . S
C783 C781 1.390 . S
C783 C784 1.387 . S
C783 H786 0.950 . S
C784 C783 1.387 . S
C784 C787 1.387 . S
H785 C781 0.950 . S
H786 C783 0.950 . S
C787 C778 1.390 . S
C787 H780 0.950 . S
C787 C784 1.387 . S
C788 C789 1.387 . S
C788 H792 0.950 . S
C788 C797 1.390 . S
C789 C788 1.387 . S
C789 C791 1.387 . S
H790 C797 0.950 . S
C791 C789 1.387 . S
C791 C793 1.390 . S
C791 H795 0.950 . S
H792 C788 0.950 . S
C793 C791 1.390 . S
C793 C794 1.387 . S
C793 H796 0.950 . S
C794 C793 1.387 . S
C794 C797 1.387 . S
H795 C791 0.950 . S
H796 C793 0.950 . S
C797 C788 1.390 . S
C797 H790 0.950 . S
C797 C794 1.387 . S
C798 C799 1.387 . S
C798 H802 0.950 . S
C798 C807 1.390 . S
C799 C798 1.387 . S
C799 C801 1.387 . S
H800 C807 0.950 . S
C801 C799 1.387 . S
C801 C803 1.390 . S
C801 H805 0.950 . S
H802 C798 0.950 . S
C803 C801 1.390 . S
C803 C804 1.387 . S
C803 H806 0.950 . S
C804 C803 1.387 . S
C804 C807 1.387 . S
H805 C801 0.950 . S
H806 C803 0.950 . S
C807 C798 1.390 . S
C807 H800 0.950 . S
C807 C804 1.387 . S
C808 C809 1.387 . S
C808 H812 0.950 . S
C808 C817 1.390 . S
C809 C808 1.387 . S
C809 C811 1.387 . S
H810 C817 0.950 . S
C811 C809 1.387 . S
C811 C813 1.390 . S
C811 H815 0.950 . S
H812 C808 0.950 . S
C813 C811 1.390 . S
C813 C814 1.387 . S
C813 H816 0.950 . S
C814 C813 1.387 . S
C814 C817 1.387 . S
H815 C811 0.950 . S
H816 C813 0.950 . S
C817 C808 1.390 . S
C817 H810 0.950 . S
C817 C814 1.387 . S
C818 C819 1.387 . S
C818 H822 0.950 . S
C818 C827 1.390 . S
C819 C818 1.387 . S
C819 C821 1.387 . S
H820 C827 0.950 . S
C821 C819 1.387 . S
C821 C823 1.390 . S
C821 H825 0.950 . S
H822 C818 0.950 . S
C823 C821 1.390 . S
C823 C824 1.387 . S
C823 H826 0.950 . S
C824 C823 1.387 . S
C824 C827 1.387 . S
H825 C821 0.950 . S
H826 C823 0.950 . S
C827 C818 1.390 . S
C827 H820 0.950 . S
C827 C824 1.387 . S
C828 C829 1.387 . S
C828 H832 0.950 . S
C828 C837 1.390 . S
C829 C828 1.387 . S
C829 C831 1.387 . S
H830 C837 0.950 . S
C831 C829 1.387 . S
C831 C833 1.390 . S
C831 H835 0.950 . S
H832 C828 0.950 . S
C833 C831 1.390 . S
C833 C834 1.387 . S
C833 H836 0.950 . S
C834 C833 1.387 . S
C834 C837 1.387 . S
H835 C831 0.950 . S
H836 C833 0.950 . S
C837 C828 1.390 . S
C837 H830 0.950 . S
C837 C834 1.387 . S
C838 C839 1.387 . S
C838 H842 0.950 . S
C838 C847 1.390 . S
C839 C838 1.387 . S
C839 C841 1.387 . S
H840 C847 0.950 . S
C841 C839 1.387 . S
C841 C843 1.390 . S
C841 H845 0.950 . S
H842 C838 0.950 . S
C843 C841 1.390 . S
C843 C844 1.387 . S
C843 H846 0.950 . S
C844 C843 1.387 . S
C844 C847 1.387 . S
H845 C841 0.950 . S
H846 C843 0.950 . S
C847 C838 1.390 . S
C847 H840 0.950 . S
C847 C844 1.387 . S
C848 C849 1.387 . S
C848 H852 0.950 . S
C848 C857 1.390 . S
C849 C848 1.387 . S
C849 C851 1.387 . S
H850 C857 0.950 . S
C851 C849 1.387 . S
C851 C853 1.390 . S
C851 H855 0.950 . S
H852 C848 0.950 . S
C853 C851 1.390 . S
C853 C854 1.387 . S
C853 H856 0.950 . S
C854 C853 1.387 . S
C854 C857 1.387 . S
H855 C851 0.950 . S
H856 C853 0.950 . S
C857 C848 1.390 . S
C857 H850 0.950 . S
C857 C854 1.387 . S
C858 C859 1.387 . S
C858 H862 0.950 . S
C858 C867 1.390 . S
C859 C858 1.387 . S
C859 C861 1.387 . S
H860 C867 0.950 . S
C861 C859 1.387 . S
C861 C863 1.390 . S
C861 H865 0.950 . S
H862 C858 0.950 . S
C863 C861 1.390 . S
C863 C864 1.387 . S
C863 H866 0.950 . S
C864 C863 1.387 . S
C864 C867 1.387 . S
H865 C861 0.950 . S
H866 C863 0.950 . S
C867 C858 1.390 . S
C867 H860 0.950 . S
C867 C864 1.387 . S
C868 C869 1.387 . S
C868 H872 0.950 . S
C868 C877 1.390 . S
C869 C868 1.387 . S
C869 C871 1.387 . S
H870 C877 0.950 . S
C871 C869 1.387 . S
C871 C873 1.390 . S
C871 H875 0.950 . S
H872 C868 0.950 . S
C873 C871 1.390 . S
C873 C874 1.387 . S
C873 H876 0.950 . S
C874 C873 1.387 . S
C874 C877 1.387 . S
H875 C871 0.950 . S
H876 C873 0.950 . S
C877 C868 1.390 . S
C877 H870 0.950 . S
C877 C874 1.387 . S
C878 C879 1.387 . S
C878 H882 0.950 . S
C878 C887 1.390 . S
C879 C878 1.387 . S
C879 C881 1.387 . S
H880 C887 0.950 . S
C881 C879 1.387 . S
C881 C883 1.390 . S
C881 H885 0.950 . S
H882 C878 0.950 . S
C883 C881 1.390 . S
C883 C884 1.387 . S
C883 H886 0.950 . S
C884 C883 1.387 . S
C884 C887 1.387 . S
H885 C881 0.950 . S
H886 C883 0.950 . S
C887 C878 1.390 . S
C887 H880 0.950 . S
C887 C884 1.387 . S
C574 C173 1.496 . S
C569 C7 1.424 . S
C584 C226 1.303 . S
C579 C32 1.255 . S
C594 C289 1.547 . S
C589 C44 1.499 . S
C604 C332 1.283 . S
C599 C62 1.231 . S
C609 C88 1.488 . S
C614 C288 1.550 . S
C624 C325 1.323 . S
C619 C106 1.273 . S
C634 C166 1.498 . S
C629 C124 1.422 . S
C644 C219 1.257 . S
C639 C140 1.205 . S
C654 C272 1.542 . S
C649 C142 1.448 . S
C664 C341 1.816 . S
C659 C86 1.745 . S
C674 C182 1.585 . S
C669 C104 1.514 . S
C684 C235 1.756 . S
C679 C122 1.678 . S
C694 C183 1.579 . S
C689 C34 1.501 . S
C704 C236 1.809 . S
C699 C43 1.732 . S
C714 C279 1.548 . S
C709 C61 1.452 . S
C724 C342 1.773 . S
C719 C8 1.691 . S
C734 C385 1.485 . S
C729 C133 1.402 . S
C739 C80 1.611 . S
C744 C438 1.680 . S
C749 C98 1.517 . S
C754 C500 1.563 . S
C759 C116 1.623 . S
C764 C554 1.683 . S
C769 C25 1.457 . S
C774 C501 1.520 . S
C779 C52 1.676 . S
C784 C553 1.739 . S
C789 C70 1.445 . S
C794 C378 1.516 . S
C804 C431 1.641 . S
C799 C14 1.568 . S
C814 C491 1.514 . S
C809 C16 1.421 . S
C819 C26 1.310 . S
C824 C537 1.383 . S
C829 C50 1.537 . S
C834 C394 1.604 . S
C839 C68 1.296 . S
C844 C447 1.362 . S
C854 C395 1.552 . S
C849 C79 1.468 . S
C864 C448 1.412 . S
C859 C97 1.354 . S
C869 C115 1.466 . S
C874 C484 1.561 . S
C884 C544 1.336 . S
C879 C134 1.260 . S
