# Generated by pormake.
# Topology zzz, (3,6)-cn, num edge types: 1
# Building blocks:
#     Node 0, Type 0, BuildingBlock: VETTIZ_charged_linker_0, # of connection points: 3
#     Node 1, Type 0, BuildingBlock: VETTIZ_charged_linker_0, # of connection points: 3
#     Node 2, Type 0, BuildingBlock: VETTIZ_charged_linker_0, # of connection points: 3
#     Node 3, Type 0, BuildingBlock: VETTIZ_charged_linker_0, # of connection points: 3
#     Node 4, Type 0, BuildingBlock: VETTIZ_charged_linker_0, # of connection points: 3
#     Node 5, Type 0, BuildingBlock: VETTIZ_charged_linker_0, # of connection points: 3
#     Node 6, Type 0, BuildingBlock: VETTIZ_charged_linker_0, # of connection points: 3
#     Node 7, Type 0, BuildingBlock: VETTIZ_charged_linker_0, # of connection points: 3
#     Node 8, Type 1, BuildingBlock: BETDAH_clean_sbu_0, # of connection points: 6
#     Node 9, Type 1, BuildingBlock: BETDAH_clean_sbu_0, # of connection points: 6
#     Node 10, Type 1, BuildingBlock: BETDAH_clean_sbu_0, # of connection points: 6
#     Node 11, Type 1, BuildingBlock: BETDAH_clean_sbu_0, # of connection points: 6
#     Edge 12, Type (0, 1), BuildingBlock: AJUNOK_clean_linker_0, # of connection points: 2
#     Edge 13, Type (0, 1), BuildingBlock: AJUNOK_clean_linker_0, # of connection points: 2
#     Edge 14, Type (0, 1), BuildingBlock: AJUNOK_clean_linker_0, # of connection points: 2
#     Edge 15, Type (0, 1), BuildingBlock: AJUNOK_clean_linker_0, # of connection points: 2
#     Edge 16, Type (0, 1), BuildingBlock: AJUNOK_clean_linker_0, # of connection points: 2
#     Edge 17, Type (0, 1), BuildingBlock: AJUNOK_clean_linker_0, # of connection points: 2
#     Edge 18, Type (0, 1), BuildingBlock: AJUNOK_clean_linker_0, # of connection points: 2
#     Edge 19, Type (0, 1), BuildingBlock: AJUNOK_clean_linker_0, # of connection points: 2
#     Edge 20, Type (0, 1), BuildingBlock: AJUNOK_clean_linker_0, # of connection points: 2
#     Edge 21, Type (0, 1), BuildingBlock: AJUNOK_clean_linker_0, # of connection points: 2
#     Edge 22, Type (0, 1), BuildingBlock: AJUNOK_clean_linker_0, # of connection points: 2
#     Edge 23, Type (0, 1), BuildingBlock: AJUNOK_clean_linker_0, # of connection points: 2
#     Edge 24, Type (0, 1), BuildingBlock: AJUNOK_clean_linker_0, # of connection points: 2
#     Edge 25, Type (0, 1), BuildingBlock: AJUNOK_clean_linker_0, # of connection points: 2
#     Edge 26, Type (0, 1), BuildingBlock: AJUNOK_clean_linker_0, # of connection points: 2
#     Edge 27, Type (0, 1), BuildingBlock: AJUNOK_clean_linker_0, # of connection points: 2
#     Edge 28, Type (0, 1), BuildingBlock: AJUNOK_clean_linker_0, # of connection points: 2
#     Edge 29, Type (0, 1), BuildingBlock: AJUNOK_clean_linker_0, # of connection points: 2
#     Edge 30, Type (0, 1), BuildingBlock: AJUNOK_clean_linker_0, # of connection points: 2
#     Edge 31, Type (0, 1), BuildingBlock: AJUNOK_clean_linker_0, # of connection points: 2
#     Edge 32, Type (0, 1), BuildingBlock: AJUNOK_clean_linker_0, # of connection points: 2
#     Edge 33, Type (0, 1), BuildingBlock: AJUNOK_clean_linker_0, # of connection points: 2
#     Edge 34, Type (0, 1), BuildingBlock: AJUNOK_clean_linker_0, # of connection points: 2
#     Edge 35, Type (0, 1), BuildingBlock: AJUNOK_clean_linker_0, # of connection points: 2
# Relax obj value: 0.507
# Max RMSD: 0.270
# Mean RMSD: 0.259
data_MOF--net-zzz--node1-BETDAH_clean_sbu_0--node2-VETTIZ_charged_linker_0--edge1-AJUNOK_clean_linker_0
_symmetry_space_group_name_H-M    P1
_symmetry_Int_Tables_number       1
_symmetry_cell_setting            triclinic
loop_
_symmetry_equiv_pos_as_xyz
'x, y, z'
_cell_length_a     45.940038
_cell_length_b     45.731511
_cell_length_c     14.34389
_cell_angle_alpha  89.866579
_cell_angle_beta   89.503176
_cell_angle_gamma 90.251705
loop_
_atom_site_label
_atom_site_type_symbol
_atom_site_fract_x
_atom_site_fract_y
_atom_site_fract_z
_atom_type_partial_charge
C0 C 0.82506 0.50957 0.50061 0.0
C1 C 0.84652 0.4934 0.55086 0.0
C2 C 0.84499 0.46267 0.54821 0.0
C3 C 0.8065 0.46438 0.43459 0.0
C4 C 0.80435 0.4942 0.4447 0.0
C5 C 0.77744 0.50512 0.39196 0.0
H6 H 0.67099 0.46615 0.06894 0.0
C7 C 0.78598 0.45429 0.36342 0.0
C8 C 0.76719 0.47742 0.33986 0.0
H9 H 0.67467 0.54885 0.21164 0.0
H10 H 0.71853 0.53277 0.29498 0.0
H11 H 0.73254 0.46836 0.01679 0.0
H12 H 0.68843 0.42206 0.2339 0.0
H13 H 0.71232 0.39731 0.1791 0.0
H14 H 0.68486 0.41528 0.11115 0.0
H15 H 0.72064 0.43162 0.99905 0.0
H16 H 0.75673 0.43996 0.04122 0.0
C17 C 0.78623 0.52969 0.32394 0.0
C18 C 0.75461 0.51518 0.46408 0.0
C19 C 0.82056 0.37107 0.16376 0.0
C20 C 0.81278 0.36377 0.07215 0.0
C21 C 0.78437 0.36987 0.04229 0.0
C22 C 0.7657 0.38676 0.09797 0.0
C23 C 0.77619 0.3988 0.18163 0.0
C24 C 0.80259 0.38959 0.21572 0.0
C25 C 0.8114 0.40578 0.30224 0.0
C26 C 0.7871 0.4285 0.30871 0.0
C27 C 0.76677 0.42425 0.2379 0.0
C28 C 0.84171 0.42003 0.28453 0.0
C29 C 0.81114 0.38377 0.38493 0.0
C30 C 0.68049 0.48068 0.12001 0.0
C31 C 0.66863 0.50845 0.13472 0.0
C32 C 0.683 0.52709 0.19905 0.0
C33 C 0.70826 0.51771 0.24805 0.0
C34 C 0.71961 0.48949 0.23208 0.0
C35 C 0.7056 0.47196 0.16744 0.0
C36 C 0.72155 0.44424 0.14838 0.0
C37 C 0.7455 0.44587 0.21986 0.0
C38 C 0.74525 0.47262 0.26939 0.0
C39 C 0.73341 0.44586 0.04634 0.0
C40 C 0.70077 0.41817 0.1683 0.0
H41 H 0.82432 0.42495 0.49472 0.0
H42 H 0.82442 0.53318 0.50522 0.0
H43 H 0.75038 0.49765 0.5164 0.0
H44 H 0.7336 0.52038 0.43155 0.0
H45 H 0.76242 0.53491 0.50161 0.0
H46 H 0.80377 0.52212 0.27598 0.0
H47 H 0.79437 0.54908 0.36247 0.0
H48 H 0.7676 0.53662 0.28095 0.0
H49 H 0.84215 0.36628 0.18899 0.0
H50 H 0.77768 0.36401 0.97253 0.0
H51 H 0.74469 0.39156 0.07026 0.0
H52 H 0.84868 0.43467 0.34084 0.0
H53 H 0.84161 0.43318 0.21919 0.0
H54 H 0.85895 0.4032 0.27828 0.0
H55 H 0.80602 0.36101 0.36294 0.0
H56 H 0.7944 0.38959 0.43804 0.0
H57 H 0.83272 0.38265 0.41906 0.0
H58 H 0.86016 0.44957 0.58773 0.0
C59 C 0.82477 0.44828 0.49256 0.0
C60 C 0.02066 0.78884 0.87245 0.0
C61 C 1.0054 0.81363 0.84068 0.0
C62 C 0.98038 0.82222 0.89294 0.0
C63 C 0.99779 0.79493 0.02256 0.0
C64 C 0.01724 0.78057 0.96592 0.0
C65 C 0.03505 0.7589 0.01982 0.0
H66 H 0.98637 0.66866 0.2795 0.0
C67 C 1.00333 0.78725 0.11866 0.0
C68 C 0.02407 0.76499 0.11925 0.0
H69 H 0.06223 0.66006 0.09943 0.0
H70 H 0.07374 0.71159 0.12414 0.0
H71 H 0.03106 0.72693 0.43766 0.0
H72 H 0.96213 0.73496 0.23249 0.0
H73 H 0.95694 0.75018 0.34725 0.0
H74 H 0.9568 0.71118 0.33175 0.0
H75 H 0.99813 0.70573 0.4518 0.0
H76 H 0.99746 0.74476 0.46906 0.0
C77 C 0.06763 0.76665 1.00912 0.0
C78 C 0.02778 0.72791 0.98295 0.0
C79 C 0.99466 0.86471 0.36361 0.0
C80 C 1.00643 0.86671 0.45365 0.0
C81 C 0.01666 0.84039 0.49514 0.0
C82 C 0.01504 0.81304 0.44759 0.0
C83 C 1.0032 0.81193 0.3576 0.0
C84 C 0.99394 0.83769 0.3164 0.0
C85 C 0.98688 0.83354 0.21492 0.0
C86 C 0.99526 0.80144 0.20202 0.0
C87 C 1.0023 0.78804 0.28663 0.0
C88 C 1.00633 0.85447 0.1561 0.0
C89 C 0.95399 0.83914 0.19989 0.0
C90 C 1.00587 0.67758 0.24737 0.0
C91 C 0.02255 0.66045 0.18286 0.0
C92 C 0.04852 0.67262 0.14622 0.0
C93 C 0.05507 0.7022 0.15911 0.0
C94 C 0.03561 0.71945 0.20939 0.0
C95 C 1.01427 0.70718 0.26411 0.0
C96 C 1.00021 0.73139 0.323 0.0
C97 C 0.01521 0.75948 0.28534 0.0
C98 C 0.03081 0.7509 0.20464 0.0
C99 C 1.00714 0.72694 0.42654 0.0
C100 C 0.96705 0.73194 0.30766 0.0
H101 H 0.95834 0.82028 0.02499 0.0
H102 H 0.03801 0.77934 0.83111 0.0
H103 H 0.02178 0.72831 0.90802 0.0
H104 H 1.00916 0.71801 0.02192 0.0
H105 H 0.04679 0.71318 0.98585 0.0
H106 H 0.07137 0.79033 0.02244 0.0
H107 H 0.07561 0.7616 0.93763 0.0
H108 H 0.08108 0.75442 0.05931 0.0
H109 H 0.9873 0.88428 0.3285 0.0
H110 H 0.02603 0.84098 0.56408 0.0
H111 H 0.02363 0.7935 0.47963 0.0
H112 H 0.02976 0.85012 0.16882 0.0
H113 H 1.00186 0.87766 0.17354 0.0
H114 H 1.00246 0.85231 0.08061 0.0
H115 H 0.94415 0.85206 0.25762 0.0
H116 H 0.94155 0.8183 0.19536 0.0
H117 H 0.95008 0.85213 0.13582 0.0
H118 H 0.96595 0.83932 0.87061 0.0
C119 C 0.97641 0.81249 0.98435 0.0
C120 C 0.8674 0.02339 0.17093 0.0
C121 C 0.88823 1.00755 0.11576 0.0
C122 C 0.88522 0.97691 0.10907 0.0
C123 C 0.83814 0.97981 0.18168 0.0
C124 C 0.84272 1.0081 0.20825 0.0
C125 C 0.81733 0.01737 0.27278 0.0
H126 H 0.6746 0.97883 0.40291 0.0
C127 C 0.80809 0.97189 0.19843 0.0
C128 C 0.79548 0.99169 0.26133 0.0
H129 H 0.72567 0.04456 0.5419 0.0
H130 H 0.7666 0.0352 0.43319 0.0
H131 H 0.68123 0.99605 0.22955 0.0
H132 H 0.72126 0.92889 0.36848 0.0
H133 H 0.71464 0.91749 0.25246 0.0
H134 H 0.68539 0.93281 0.32052 0.0
H135 H 0.67922 0.96187 0.1747 0.0
H136 H 0.70623 0.98875 0.13836 0.0
C137 C 0.80427 0.04651 0.2405 0.0
C138 C 0.829 0.01918 0.37282 0.0
C139 C 0.75132 0.96181 0.91568 0.0
C140 C 0.7209 0.9646 0.91412 0.0
C141 C 0.70419 0.94732 0.97612 0.0
C142 C 0.71723 0.93621 0.05639 0.0
C143 C 0.74644 0.94305 0.07187 0.0
C144 C 0.76411 0.95103 0.99762 0.0
C145 C 0.7951 0.95519 0.02873 0.0
C146 C 0.79035 0.95671 0.13509 0.0
C147 C 0.76112 0.95172 0.1583 0.0
C148 C 0.80857 0.98344 0.98593 0.0
C149 C 0.81245 0.92797 0.99845 0.0
C150 C 0.69474 0.99082 0.41252 0.0
C151 C 0.69678 1.01182 0.48324 0.0
C152 C 0.72328 0.02791 0.48897 0.0
C153 C 0.74716 0.02224 0.42707 0.0
C154 C 0.74463 1.00039 0.35819 0.0
C155 C 0.71824 0.98575 0.35145 0.0
C156 C 0.71716 0.96554 0.26979 0.0
C157 C 0.74859 0.96691 0.23559 0.0
C158 C 0.76505 0.98788 0.28568 0.0
C159 C 0.69501 0.9785 0.19912 0.0
C160 C 0.70903 0.93447 0.30428 0.0
H161 H 0.85744 0.93961 0.13391 0.0
H162 H 0.86982 0.04668 0.1815 0.0
H163 H 0.83877 0.998 0.39391 0.0
H164 H 0.81174 0.02438 0.42384 0.0
H165 H 0.84608 0.0364 0.37762 0.0
H166 H 0.79717 0.04491 0.16679 0.0
H167 H 0.82057 0.06444 0.24573 0.0
H168 H 0.78509 0.05234 0.28403 0.0
H169 H 0.76414 0.97337 0.86383 0.0
H170 H 0.68064 0.94729 0.97263 0.0
H171 H 0.70381 0.92578 0.10849 0.0
H172 H 0.79673 1.00313 1.01034 0.0
H173 H 0.80843 0.9828 0.90869 0.0
H174 H 0.83176 0.98615 1.00309 0.0
H175 H 0.80749 0.92221 0.92495 0.0
H176 H 0.80695 0.90877 0.04303 0.0
H177 H 0.8362 0.93182 1.0003 0.0
H178 H 0.90118 0.96413 0.07109 0.0
C179 C 0.86015 0.96291 0.14235 0.0
C180 C 0.51963 0.71404 0.47512 0.0
C181 C 0.50324 0.6922 0.52474 0.0
C182 C 0.47265 0.69375 0.52238 0.0
C183 C 0.47506 0.73226 0.40732 0.0
C184 C 0.50461 0.73486 0.41892 0.0
C185 C 0.51554 0.76245 0.36781 0.0
H186 H 0.47833 0.86893 0.04021 0.0
C187 C 0.46555 0.75241 0.33414 0.0
C188 C 0.48842 0.77195 0.31252 0.0
H189 H 0.55687 0.86955 0.20226 0.0
H190 H 0.5419 0.82339 0.27776 0.0
H191 H 0.48531 0.80605 0.98806 0.0
H192 H 0.43123 0.84752 0.19177 0.0
H193 H 0.40984 0.82198 0.12972 0.0
H194 H 0.42808 0.85097 0.06739 0.0
H195 H 0.44891 0.81634 0.96078 0.0
H196 H 0.45731 0.78047 1.00617 0.0
C197 C 0.54119 0.75489 0.30286 0.0
C198 C 0.52386 0.78525 0.44187 0.0
C199 C 0.38713 0.7128 0.12648 0.0
C200 C 0.38029 0.71959 0.03374 0.0
C201 C 0.38706 0.74774 0.99962 0.0
C202 C 0.40342 0.76732 0.05361 0.0
C203 C 0.4141 0.75814 0.14065 0.0
C204 C 0.40488 0.73173 0.17726 0.0
C205 C 0.41976 0.72417 0.26697 0.0
C206 C 0.44122 0.74969 0.27463 0.0
C207 C 0.43785 0.76928 0.20045 0.0
C208 C 0.43548 0.69444 0.25425 0.0
C209 C 0.39651 0.72366 0.34622 0.0
C210 C 0.49205 0.85979 0.09389 0.0
C211 C 0.51832 0.87359 0.11677 0.0
C212 C 0.5362 0.85976 0.18392 0.0
C213 C 0.52739 0.83323 0.22861 0.0
C214 C 0.50049 0.82019 0.20579 0.0
C215 C 0.48381 0.83352 0.13773 0.0
C216 C 0.45759 0.81585 0.11274 0.0
C217 C 0.45875 0.79177 0.18516 0.0
C218 C 0.48422 0.79346 0.23978 0.0
C219 C 0.46226 0.80413 1.01188 0.0
C220 C 0.43012 0.83501 0.12544 0.0
H221 H 0.4354 0.71469 0.46798 0.0
H222 H 0.54311 0.71476 0.48005 0.0
H223 H 0.50563 0.78839 0.49236 0.0
H224 H 0.52874 0.80682 0.41105 0.0
H225 H 0.54323 0.77793 0.48135 0.0
H226 H 0.53482 0.73734 0.25347 0.0
H227 H 0.5601 0.74714 0.34368 0.0
H228 H 0.54821 0.77415 0.2614 0.0
H229 H 0.38219 0.69137 0.15473 0.0
H230 H 0.38177 0.75363 0.92858 0.0
H231 H 0.40861 0.78811 0.02306 0.0
H232 H 0.45036 0.69521 0.19268 0.0
H233 H 0.41964 0.67636 0.24407 0.0
H234 H 0.44855 0.68808 0.31484 0.0
H235 H 0.40012 0.74162 0.39695 0.0
H236 H 0.3964 0.70243 0.38402 0.0
H237 H 0.37398 0.72651 0.31999 0.0
H238 H 0.4594 0.67836 0.56185 0.0
C239 C 0.45863 0.71405 0.46593 0.0
C240 C 0.36127 0.51196 0.37267 0.0
C241 C 0.37699 0.50522 0.45631 0.0
C242 C 0.36101 0.49639 0.53568 0.0
C243 C 0.31622 0.50838 0.46025 0.0
C244 C 0.33003 0.51235 0.37607 0.0
C245 C 0.30664 0.51462 0.29907 0.0
H246 H 0.15507 0.5134 0.22951 0.0
C247 C 0.2852 0.51197 0.45012 0.0
C248 C 0.27769 0.51308 0.3556 0.0
H249 H 0.21874 0.52147 1.0078 0.0
H250 H 0.25816 0.51852 0.1238 0.0
H251 H 0.18862 0.46752 0.36581 0.0
H252 H 0.16996 0.55545 0.33636 0.0
H253 H 0.1922 0.55966 0.43516 0.0
H254 H 0.15871 0.53884 0.44179 0.0
H255 H 0.15574 0.48791 0.38552 0.0
H256 H 0.18151 0.48224 0.47775 0.0
C257 C 0.30964 0.48854 0.23239 0.0
C258 C 0.30983 0.54398 0.24761 0.0
C259 C 0.23183 0.56394 0.70869 0.0
C260 C 0.20204 0.5668 0.72805 0.0
C261 C 0.18186 0.54918 0.67978 0.0
C262 C 0.19099 0.53121 0.60667 0.0
C263 C 0.22038 0.53135 0.58081 0.0
C264 C 0.24054 0.54529 0.63625 0.0
C265 C 0.27109 0.53799 0.60737 0.0
C266 C 0.26519 0.51923 0.5207 0.0
C267 C 0.23564 0.5183 0.50078 0.0
C268 C 0.28563 0.52177 0.68915 0.0
C269 C 0.2879 0.56623 0.58185 0.0
C270 C 0.17728 0.51477 0.20397 0.0
C271 C 0.18305 0.51774 0.10799 0.0
C272 C 0.21298 0.51872 0.08059 0.0
C273 C 0.23591 0.51717 0.14774 0.0
C274 C 0.22913 0.515 0.24384 0.0
C275 C 0.19991 0.51449 0.26922 0.0
C276 C 0.19523 0.51521 0.37255 0.0
C277 C 0.22636 0.51531 0.40682 0.0
C278 C 0.24696 0.51439 0.33228 0.0
C279 C 0.17927 0.48679 0.40242 0.0
C280 C 0.17825 0.54359 0.39835 0.0
H281 H 0.31919 0.48722 0.5942 0.0
H282 H 0.37278 0.51644 0.30805 0.0
H283 H 0.3085 0.56244 0.29775 0.0
H284 H 0.29236 0.54681 0.19569 0.0
H285 H 0.33117 0.54529 0.21069 0.0
H286 H 0.30818 0.4676 0.2717 0.0
H287 H 0.331 0.4893 0.19543 0.0
H288 H 0.29224 0.48851 0.17961 0.0
H289 H 0.2477 0.57661 0.7469 0.0
H290 H 0.15875 0.55067 0.69487 0.0
H291 H 0.17499 0.51821 0.5717 0.0
H292 H 0.27941 0.53142 0.75749 0.0
H293 H 0.30965 0.52392 0.68622 0.0
H294 H 0.27907 0.49835 0.69071 0.0
H295 H 0.27659 0.57843 0.52575 0.0
H296 H 0.31024 0.56108 0.55694 0.0
H297 H 0.28994 0.58077 0.6434 0.0
H298 H 0.37204 0.48894 0.59784 0.0
C299 C 0.3308 0.49692 0.53643 0.0
C300 C 0.86326 0.26346 0.44425 0.0
C301 C 0.85206 0.23526 0.42727 0.0
C302 C 0.85597 0.22323 0.33751 0.0
C303 C 0.89155 0.26056 0.30135 0.0
C304 C 0.88339 0.27561 0.38045 0.0
C305 C 0.90198 0.30247 0.3942 0.0
H306 H 0.03274 0.36754 0.35904 0.0
C307 C 0.91938 0.27296 0.2669 0.0
C308 C 0.92563 0.29774 0.3199 0.0
H309 H 0.95316 0.39881 0.48762 0.0
H310 H 0.92664 0.35953 0.41898 0.0
H311 H 0.02019 0.29192 0.37768 0.0
H312 H 0.9953 0.34753 0.14496 0.0
H313 H 0.01717 0.31656 0.11662 0.0
H314 H 0.03265 0.34618 0.18189 0.0
H315 H 0.0472 0.31364 0.31722 0.0
H316 H 0.03295 0.28095 0.26518 0.0
C317 C 0.91435 0.30188 0.49446 0.0
C318 C 0.88289 0.32965 0.3728 0.0
C319 C 0.97513 0.21065 0.03842 0.0
C320 C 1.00346 0.20986 1.00239 0.0
C321 C 0.02327 0.23174 0.03268 0.0
C322 C 1.01432 0.25425 0.09568 0.0
C323 C 0.98542 0.25461 0.13041 0.0
C324 C 0.96681 0.23252 0.10141 0.0
C325 C 0.93757 0.23389 0.1466 0.0
C326 C 0.94066 0.26112 0.2057 0.0
C327 C 0.96869 0.27392 0.19751 0.0
C328 C 0.93331 0.20558 0.20627 0.0
C329 C 0.9148 0.23797 0.06834 0.0
C330 C 1.00962 0.36555 0.37282 0.0
C331 C 0.99516 0.38637 0.43109 0.0
C332 C 0.96495 0.38339 0.44436 0.0
C333 C 0.94947 0.36031 0.40502 0.0
C334 C 0.964 0.33899 0.35261 0.0
C335 C 0.99323 0.34221 0.33209 0.0
C336 C 1.00292 0.31833 0.26347 0.0
C337 C 0.97488 0.30012 0.25078 0.0
C338 C 0.95275 0.31233 0.30737 0.0
C339 C 0.02725 0.30016 0.30803 0.0
C340 C 1.01265 0.33287 0.17144 0.0
H341 H 0.87971 0.22398 0.21154 0.0
H342 H 0.85963 0.27373 0.51123 0.0
H343 H 0.86144 0.32373 0.34249 0.0
H344 H 0.89336 0.34426 0.32026 0.0
H345 H 0.87822 0.34246 0.43689 0.0
H346 H 0.92368 0.28004 0.51027 0.0
H347 H 0.89703 0.3065 0.54678 0.0
H348 H 0.93192 0.31788 0.50578 0.0
H349 H 0.95955 0.19385 0.01949 0.0
H350 H 0.04549 0.23161 1.007 0.0
H351 H 0.03008 0.27042 0.11593 0.0
H352 H 0.95392 0.19325 0.21542 0.0
H353 H 0.91757 0.19029 0.17367 0.0
H354 H 0.926 0.21031 0.27842 0.0
H355 H 0.92309 0.2533 1.01377 0.0
H356 H 0.89425 0.24768 0.09346 0.0
H357 H 0.9098 0.21684 0.03378 0.0
H358 H 0.84733 0.20189 0.32021 0.0
C359 C 0.8757 0.23576 0.27461 0.0
C360 C 0.32415 0.04614 0.98104 0.0
C361 C 0.34538 0.02304 0.97722 0.0
C362 C 0.33724 0.99632 0.02163 0.0
C363 C 0.29639 0.01938 0.09722 0.0
C364 C 0.29862 0.04274 0.03827 0.0
C365 C 0.27286 0.06304 0.05831 0.0
H366 H 0.17424 0.08795 0.42878 0.0
C367 C 0.27646 0.02656 0.17422 0.0
C368 C 0.257 0.04816 0.14235 0.0
H369 H 0.13907 0.04184 0.19307 0.0
H370 H 0.1883 0.04177 0.11805 0.0
H371 H 0.2325 0.04754 0.46369 0.0
H372 H 0.21814 0.12837 0.40667 0.0
H373 H 0.23537 0.12715 0.29349 0.0
H374 H 0.2568 0.12502 0.39702 0.0
H375 H 0.21424 0.07943 0.50769 0.0
H376 H 0.25218 0.07924 0.50447 0.0
C377 C 0.25257 0.0642 0.97392 0.0
C378 C 0.28403 0.09394 0.08256 0.0
C379 C 0.33477 0.02741 0.47072 0.0
C380 C 0.34574 0.05291 0.51257 0.0
C381 C 0.33019 0.07922 0.50549 0.0
C382 C 0.30527 0.08042 0.4503 0.0
C383 C 0.29636 0.05528 0.40244 0.0
C384 C 0.31237 0.02996 0.40702 0.0
C385 C 0.30972 1.012 0.31902 0.0
C386 C 0.28679 0.02955 0.26699 0.0
C387 C 0.27824 0.05364 0.32066 0.0
C388 C 0.29845 0.98117 0.34311 0.0
C389 C 0.33982 1.01112 0.26819 0.0
C390 C 0.17665 0.07829 0.36046 0.0
C391 C 0.15251 0.06515 0.31773 0.0
C392 C 0.15706 0.0522 0.22853 0.0
C393 C 0.18511 0.05237 0.18471 0.0
C394 C 0.20882 0.06525 0.23082 0.0
C395 C 0.20433 0.07717 0.31855 0.0
C396 C 0.23251 0.08464 0.36499 0.0
C397 C 0.25379 0.07028 0.29689 0.0
C398 C 0.24083 0.06439 0.21093 0.0
C399 C 0.23299 0.07184 0.46524 0.0
C400 C 0.23601 0.11816 0.36557 0.0
H401 H 0.30895 0.9747 0.12139 0.0
H402 H 0.32771 0.06667 0.94547 0.0
H403 H 0.29882 0.09309 0.14344 0.0
H404 H 0.26557 0.10864 0.09994 0.0
H405 H 0.29615 0.1037 0.02271 0.0
H406 H 0.24477 0.04189 0.95573 0.0
H407 H 0.26413 0.07354 0.91223 0.0
H408 H 0.23329 0.07798 0.98968 0.0
H409 H 0.34742 1.00745 0.47064 0.0
H410 H 0.33909 0.09927 0.53374 0.0
H411 H 0.29542 0.10131 0.4374 0.0
H412 H 0.31474 0.96908 0.38492 0.0
H413 H 0.29412 0.96854 0.27873 0.0
H414 H 0.27782 0.98233 0.38407 0.0
H415 H 0.34273 0.03017 0.22072 0.0
H416 H 0.34291 0.99046 0.22956 0.0
H417 H 0.35855 1.01154 0.31629 0.0
H418 H 0.35037 0.97689 0.01387 0.0
C419 C 0.31317 0.99457 0.08244 0.0
C420 C 0.52746 0.32225 0.03056 0.0
C421 C 0.54312 0.33659 0.95669 0.0
C422 C 0.56874 0.32298 0.92284 0.0
C423 C 0.56737 0.28861 0.05003 0.0
C424 C 0.53967 0.29703 0.0735 0.0
C425 C 0.52799 0.27705 0.15114 0.0
H426 H 0.5652 0.17632 0.4894 0.0
C427 C 0.57859 0.26888 0.12155 0.0
C428 C 0.55451 0.25735 0.17116 0.0
H429 H 0.493 0.16114 0.30565 0.0
H430 H 0.50791 0.20418 0.21067 0.0
H431 H 0.61307 0.18914 0.33378 0.0
H432 H 0.56023 0.24361 0.50595 0.0
H433 H 0.58675 0.26816 0.46221 0.0
H434 H 0.59746 0.23758 0.53404 0.0
H435 H 0.61393 0.19251 0.45873 0.0
H436 H 0.63442 0.21706 0.38625 0.0
C437 C 0.50164 0.25961 0.11607 0.0
C438 C 0.51973 0.29534 0.23732 0.0
C439 C 0.66834 0.31313 0.26094 0.0
C440 C 0.6703 0.32013 0.35612 0.0
C441 C 0.66003 0.29957 0.42185 0.0
C442 C 0.64311 0.27578 0.39328 0.0
C443 C 0.63523 0.27344 0.2992 0.0
C444 C 0.64827 0.29155 0.23339 0.0
C445 C 0.63289 0.28997 0.14045 0.0
C446 C 0.60602 0.27147 0.16706 0.0
C447 C 0.60905 0.26025 0.25775 0.0
C448 C 0.65242 0.27338 0.07095 0.0
C449 C 0.62591 0.32119 0.10425 0.0
C450 C 0.55197 0.18266 0.43063 0.0
C451 C 0.52772 0.16565 0.40623 0.0
C452 C 0.51134 0.17432 0.32753 0.0
C453 C 0.51941 0.19938 0.27403 0.0
C454 C 0.54342 0.21643 0.30142 0.0
C455 C 0.55969 0.20733 0.37707 0.0
C456 C 0.58681 0.22545 0.38862 0.0
C457 C 0.58638 0.24346 0.2993 0.0
C458 C 0.55975 0.24047 0.25344 0.0
C459 C 0.61359 0.20504 0.39232 0.0
C460 C 0.58279 0.24464 0.47717 0.0
H461 H 0.60018 0.28876 0.94162 0.0
H462 H 0.50689 0.33085 0.05528 0.0
H463 H 0.53868 0.30849 0.26112 0.0
H464 H 0.51262 0.28089 0.29569 0.0
H465 H 0.50162 0.31051 0.22111 0.0
H466 H 0.50841 0.24337 0.06264 0.0
H467 H 0.48541 0.27451 0.08438 0.0
H468 H 0.49052 0.24812 0.17452 0.0
H469 H 0.67832 0.32758 0.21006 0.0
H470 H 0.66206 0.3036 0.49588 0.0
H471 H 0.63469 0.26163 0.44651 0.0
H472 H 0.65879 0.25174 0.09964 0.0
H473 H 0.67258 0.28611 0.05572 0.0
H474 H 0.64098 0.26947 1.00443 0.0
H475 H 0.60602 0.33012 0.13816 0.0
H476 H 0.62418 0.32202 0.02788 0.0
H477 H 0.64388 0.33684 0.11473 0.0
H478 H 0.58114 0.33245 0.86575 0.0
C479 C 0.58028 0.29839 0.96747 0.0
Ho480 Ho 0.03832 0.03598 0.75965 0.0
Ho481 Ho 0.99167 0.05017 0.64822 0.0
C482 C 1.01283 0.98539 0.62246 0.0
C483 C 0.07291 1.00935 0.87178 0.0
C484 C 0.07347 0.97747 0.88719 0.0
C485 C 0.04945 0.96382 0.93067 0.0
C486 C 0.04249 0.93504 0.9094 0.0
C487 C 0.05981 0.91933 0.84637 0.0
C488 C 0.08673 0.93099 0.81778 0.0
C489 C 0.09339 0.96018 0.83702 0.0
C490 C 0.05738 0.05898 0.59371 0.0
C491 C 0.01827 0.10148 0.78504 0.0
C492 C 0.95326 0.07277 0.53908 0.0
C493 C 0.92856 0.0924 0.55411 0.0
C494 C 0.91027 0.09899 0.47972 0.0
C495 C 0.88791 0.11924 0.49122 0.0
C496 C 0.88344 0.13321 0.57759 0.0
C497 C 0.90092 0.12529 0.65352 0.0
C498 C 0.92328 0.10491 0.64191 0.0
C499 C 0.97185 0.02862 0.81598 0.0
O500 O 0.02487 0.99063 0.70444 0.0
O501 O 1.00126 1.00738 0.57684 0.0
O502 O 0.08085 0.01787 0.78845 0.0
O503 O 0.04926 0.02255 0.89958 0.0
O504 O 0.06652 0.06677 0.67526 0.0
O505 O 0.03712 0.04029 0.60433 0.0
O506 O 1.00138 0.09506 0.71317 0.0
O507 O 0.03476 0.08095 0.82091 0.0
O508 O 0.95053 0.04705 0.5773 0.0
O509 O 0.97911 0.08413 0.55131 0.0
O510 O 0.96176 0.02196 0.73511 0.0
O511 O 0.99288 0.04627 0.80372 0.0
H512 H 0.03426 0.9761 0.97309 0.0
H513 H 0.0225 0.92571 0.93732 0.0
H514 H 0.10138 0.91848 0.77411 0.0
H515 H 0.11255 0.96992 0.80492 0.0
H516 H 0.91395 0.08931 0.41177 0.0
H517 H 0.87548 0.1254 0.43052 0.0
H518 H 0.89817 0.13587 0.72049 0.0
H519 H 0.93705 0.09964 0.70051 0.0
Ho520 Ho 0.53369 0.04152 0.82979 0.0
Ho521 Ho 0.52102 0.99929 0.70216 0.0
C522 C 0.58505 0.02157 0.68664 0.0
C523 C 0.55951 0.07274 0.95403 0.0
C524 C 0.59081 0.07975 0.95433 0.0
C525 C 0.60751 0.06982 0.02934 0.0
C526 C 0.63648 0.06183 0.01454 0.0
C527 C 0.64884 0.06395 0.92485 0.0
C528 C 0.6338 0.07873 0.85484 0.0
C529 C 0.60487 0.08673 0.86945 0.0
C530 C 0.51491 0.06736 0.66854 0.0
C531 C 0.46718 0.02599 0.82472 0.0
C532 C 0.50518 0.9663 0.56566 0.0
C533 C 0.49881 0.97691 0.47188 0.0
C534 C 0.50593 1.00649 0.45614 0.0
C535 C 0.48368 0.02589 0.43438 0.0
C536 C 0.45561 1.01477 0.42168 0.0
C537 C 0.45195 0.98472 0.40405 0.0
C538 C 0.47384 0.96545 0.4303 0.0
C539 C 0.53815 0.97407 0.86756 0.0
O540 O 0.57941 0.02986 0.77318 0.0
O541 O 0.56323 1.01305 0.63533 0.0
O542 O 0.54427 0.08415 0.88695 0.0
O543 O 0.5539 0.04493 0.96492 0.0
O544 O 0.50636 0.0742 0.75197 0.0
O545 O 0.53223 0.04589 0.67426 0.0
O546 O 0.47475 1.01505 0.74213 0.0
O547 O 0.48781 0.03462 0.88173 0.0
O548 O 0.48715 0.97623 0.62882 0.0
O549 O 0.5321 0.96881 0.59161 0.0
O550 O 0.54765 0.96728 0.78589 0.0
O551 O 0.52079 0.9952 0.85763 0.0
H552 H 0.59718 0.06436 0.09536 0.0
H553 H 0.64779 0.05045 0.0697 0.0
H554 H 0.64335 0.08095 0.786 0.0
H555 H 0.59266 0.09467 0.81034 0.0
H556 H 0.52601 1.0155 0.48286 0.0
H557 H 0.48722 0.0491 0.44445 0.0
H558 H 0.43049 0.97593 0.38992 0.0
H559 H 0.4685 0.94245 0.4377 0.0
Ho560 Ho 0.50817 0.52251 0.81837 0.0
Ho561 Ho 0.55161 0.51375 0.69595 0.0
C562 C 0.5286 0.57787 0.69102 0.0
C563 C 0.47005 0.54155 0.93715 0.0
C564 C 0.44693 0.56333 0.9281 0.0
C565 C 0.43181 0.5728 1.0073 0.0
C566 C 0.41173 0.5955 1.00043 0.0
C567 C 0.40633 0.60905 0.91396 0.0
C568 C 0.4207 0.59856 0.83388 0.0
C569 C 0.44086 0.57586 0.84092 0.0
C570 C 0.48569 0.50548 0.64961 0.0
C571 C 0.53028 0.45811 0.82084 0.0
C572 C 0.58952 0.49724 0.57223 0.0
C573 C 0.61385 0.47667 0.56466 0.0
C574 C 0.61357 0.45007 0.61361 0.0
C575 C 0.6337 0.42836 0.59093 0.0
C576 C 0.6542 0.43309 0.51917 0.0
C577 C 0.65661 0.46097 0.47846 0.0
C578 C 0.63639 0.48261 0.50081 0.0
C579 C 0.57419 0.52927 0.86669 0.0
O580 O 0.51842 0.56979 0.77373 0.0
O581 O 0.53932 0.55747 0.63669 0.0
O582 O 0.46653 0.51786 0.88829 0.0
O583 O 0.49659 0.55176 0.93112 0.0
O584 O 0.47918 0.49426 0.72965 0.0
O585 O 0.50548 0.52444 0.66199 0.0
O586 O 0.54068 0.46639 0.73839 0.0
O587 O 0.5201 0.47848 0.87675 0.0
O588 O 0.59338 0.51953 0.62697 0.0
O589 O 0.56346 0.48591 0.58035 0.0
O590 O 0.58109 0.54092 0.78752 0.0
O591 O 0.55389 0.51109 0.85226 0.0
H592 H 0.43635 0.56342 0.07505 0.0
H593 H 0.40184 0.60364 0.06403 0.0
H594 H 0.41724 0.60873 0.76662 0.0
H595 H 0.45243 0.56873 0.7789 0.0
H596 H 0.59657 0.44528 0.6643 0.0
H597 H 0.63124 0.40691 0.62238 0.0
H598 H 0.67213 0.46494 0.42242 0.0
H599 H 0.63712 0.50321 0.46333 0.0
Ho600 Ho 1.00918 0.49787 0.87119 0.0
Ho601 Ho 0.02103 0.54324 0.75932 0.0
C602 C 0.9571 0.52022 0.73721 0.0
C603 C 0.98741 0.45908 0.98335 0.0
C604 C 0.96607 0.43567 0.96998 0.0
C605 C 0.95374 0.43089 0.88201 0.0
C606 C 0.93132 0.41043 0.87164 0.0
C607 C 0.92102 0.39447 0.9491 0.0
C608 C 0.93436 0.39867 0.03626 0.0
C609 C 0.95676 0.41903 0.04641 0.0
C610 C 0.02699 0.4768 0.69996 0.0
C611 C 0.07352 0.52003 0.89055 0.0
C612 C 0.0415 0.58532 0.65789 0.0
C613 C 0.06193 0.60821 0.68718 0.0
C614 C 0.08499 0.61594 0.62794 0.0
C615 C 0.11028 0.628 0.66498 0.0
C616 C 0.11289 0.63211 0.76217 0.0
C617 C 0.08783 0.62919 0.81825 0.0
C618 C 0.06258 0.61689 0.78124 0.0
C619 C 1.00167 0.56312 0.93014 0.0
O620 O 0.96328 0.50902 0.81985 0.0
O621 O 0.97874 0.53175 0.68861 0.0
O622 O 1.01206 0.45578 0.93917 0.0
O623 O 0.97725 0.48559 0.97588 0.0
O624 O 0.03638 0.46814 0.77997 0.0
O625 O 1.00993 0.49801 0.7143 0.0
O626 O 0.06754 0.5314 0.80784 0.0
O627 O 0.05171 0.50923 0.93975 0.0
O628 O 0.01587 0.58605 0.69723 0.0
O629 O 0.05239 0.55896 0.65706 0.0
O630 O 0.99157 0.57072 0.85023 0.0
O631 O 0.02016 0.54315 0.91579 0.0
H632 H 0.96081 0.44369 0.82219 0.0
H633 H 0.92127 0.40789 0.80407 0.0
H634 H 0.92633 0.38755 0.09815 0.0
H635 H 0.96601 0.42259 0.11473 0.0
H636 H 0.08483 0.6095 0.55527 0.0
H637 H 0.129 0.62987 0.61893 0.0
H638 H 0.089 0.63249 0.89291 0.0
H639 H 0.04488 0.61126 0.82848 0.0
C640 C 0.11528 0.08867 0.42527 0.0
C641 C 0.12397 0.0641 0.37218 0.0
C642 C 0.09288 0.08704 0.49303 0.0
C643 C 0.07727 0.061 0.50995 0.0
H644 H 0.12683 0.10924 0.41741 0.0
H645 H 0.08834 0.10624 0.53474 0.0
S646 S 0.08923 0.99063 0.387 0.0
N647 N 0.11369 1.01292 0.33984 0.0
N648 N 0.07094 1.0103 0.46401 0.0
C649 C 0.08425 0.0367 0.45361 0.0
C650 C 0.10758 0.03817 0.38548 0.0
C651 C 0.49964 0.13796 0.53153 0.0
C652 C 0.52127 0.13827 0.46133 0.0
C653 C 0.49693 0.11435 0.59513 0.0
C654 C 0.51569 0.08993 0.59152 0.0
H655 H 0.48552 0.15668 0.53996 0.0
H656 H 0.48054 0.11573 0.64968 0.0
S657 S 0.57474 0.0793 0.41628 0.0
N658 N 0.56086 0.11144 0.38918 0.0
N659 N 0.55574 0.06728 0.50696 0.0
C660 C 0.53658 0.08951 0.5188 0.0
C661 C 0.53941 0.1136 0.45456 0.0
C662 C 0.42345 0.53221 0.49483 0.0
C663 C 0.40957 0.50587 0.46842 0.0
C664 C 0.44986 0.53229 0.54572 0.0
C665 C 0.46323 0.50599 0.57385 0.0
H666 H 0.41248 0.55282 0.48363 0.0
H667 H 0.4584 0.553 0.57009 0.0
S668 S 0.43758 0.43132 0.51525 0.0
N669 N 0.41314 0.45299 0.46763 0.0
N670 N 0.46176 0.45312 0.56425 0.0
C671 C 0.45068 0.47973 0.54233 0.0
C672 C 0.42426 0.47968 0.48934 0.0
C673 C 0.02857 0.40535 0.5577 0.0
C674 C 1.00984 0.41111 0.48261 0.0
C675 C 0.03545 0.42714 0.62431 0.0
C676 C 0.02381 0.45572 0.61939 0.0
H677 H 0.03637 0.38331 0.5688 0.0
H678 H 0.0488 0.421 0.68299 0.0
S679 S 0.97623 0.48302 0.43044 0.0
N680 N 0.98188 0.44842 0.40318 0.0
N681 N 0.99467 0.48895 0.52695 0.0
C682 C 1.00662 0.4622 0.54115 0.0
C683 C 0.99969 0.44009 0.47348 0.0
C684 C 0.90184 0.03078 0.96326 0.0
C685 C 0.91062 0.0213 0.05217 0.0
C686 C 0.92196 0.0342 0.88896 0.0
C687 C 0.95197 0.0287 0.90002 0.0
H688 H 0.87888 0.03344 0.949 0.0
H689 H 0.91371 0.04025 0.8211 0.0
S690 S 0.98672 1.00526 0.11999 0.0
N691 N 0.95176 1.00742 0.14739 0.0
N692 N 0.98956 1.01517 1.00936 0.0
C693 C 0.96132 0.02098 0.9899 0.0
C694 C 0.94071 1.01689 0.06525 0.0
C695 C 0.50607 0.92459 0.05942 0.0
C696 C 0.52646 0.9016 0.06639 0.0
C697 C 0.51075 0.94891 0.99995 0.0
C698 C 0.53585 0.95121 0.94313 0.0
H699 H 0.48576 0.92328 0.09818 0.0
H700 H 0.49384 0.96525 0.995 0.0
S701 S 0.59703 0.89834 0.93911 0.0
N702 N 0.57366 0.88399 0.01475 0.0
N703 N 0.58226 0.92915 0.90264 0.0
C704 C 0.55698 0.92908 0.95246 0.0
C705 C 0.55238 0.90451 0.01401 0.0
C706 C 0.61825 0.49792 0.07057 0.0
C707 C 0.64231 0.5172 0.07816 0.0
C708 C 0.5956 0.50273 1.00612 0.0
C709 C 0.59598 0.52688 0.94475 0.0
H710 H 0.61738 0.47832 0.11307 0.0
H711 H 0.5783 0.48663 1.00166 0.0
S712 S 0.6529 0.58492 0.93869 0.0
N713 N 0.66405 0.56227 0.02073 0.0
N714 N 0.62195 0.57123 0.89998 0.0
C715 C 0.61927 0.54694 0.95413 0.0
C716 C 0.6422 0.54218 0.02051 0.0
C717 C 0.03063 0.60759 0.1368 0.0
C718 C 1.0122 0.63225 0.13977 0.0
C719 C 0.02584 0.58421 0.07416 0.0
C720 C 1.00287 0.58468 1.00963 0.0
H721 H 0.0499 0.60712 0.17974 0.0
H722 H 0.04126 0.56645 0.07266 0.0
S723 S 0.94696 0.64293 0.99326 0.0
N724 N 0.96877 0.65443 0.0766 0.0
N725 N 0.96002 0.6111 0.95877 0.0
C726 C 0.98332 0.60838 0.01577 0.0
C727 C 0.98793 0.63193 0.08055 0.0
C728 C 0.8697 0.21311 0.57328 0.0
C729 C 0.84751 0.21443 0.50607 0.0
C730 C 0.87868 0.18623 0.60946 0.0
C731 C 0.86542 0.16005 0.58066 0.0
H732 H 0.88346 0.23191 0.58656 0.0
H733 H 0.89861 0.18581 0.64916 0.0
S734 S 0.79757 0.15383 0.44439 0.0
N735 N 0.80584 0.18903 0.44075 0.0
N736 N 0.82287 0.13824 0.50865 0.0
C737 C 0.83919 0.16198 0.53133 0.0
C738 C 0.82998 0.18941 0.49479 0.0
C739 C 0.39401 0.06788 0.4561 0.0
C740 C 0.37737 0.05331 0.52529 0.0
C741 C 0.42061 0.05643 0.42533 0.0
C742 C 0.43114 0.03052 0.46433 0.0
H743 H 0.38466 0.08571 0.41666 0.0
H744 H 0.43164 0.06637 0.36612 0.0
S745 S 0.39983 0.98944 0.66514 0.0
N746 N 0.3761 1.01558 0.64414 0.0
N747 N 0.42669 0.99469 0.58972 0.0
C748 C 0.41703 0.01872 0.54356 0.0
C749 C 0.39005 0.03021 0.57409 0.0
C750 C 0.68692 0.35872 0.46978 0.0
C751 C 0.67328 0.35131 0.38523 0.0
C752 C 0.68269 0.38628 0.51106 0.0
C753 C 0.66523 0.40744 0.46794 0.0
H754 H 0.69938 0.34248 0.50715 0.0
H755 H 0.6918 0.39052 0.57912 0.0
S756 S 0.62473 0.39972 0.24721 0.0
N757 N 0.64146 0.36825 0.26111 0.0
N758 N 0.63483 0.4198 0.33652 0.0
C759 C 0.65296 0.40105 0.38132 0.0
C760 C 0.65675 0.37309 0.34027 0.0
C761 C 0.16929 0.58492 0.85189 0.0
C762 C 0.1907 0.59119 0.78444 0.0
C763 C 0.14525 0.60328 0.86248 0.0
C764 C 0.14207 0.62794 0.80408 0.0
H765 H 0.16865 0.56362 0.8847 0.0
H766 H 0.12703 0.59497 0.90318 0.0
S767 S 0.19944 0.66061 0.65395 0.0
N768 N 0.21279 0.62871 0.68635 0.0
N769 N 0.16757 0.66356 0.70735 0.0
C770 C 0.16699 0.63814 0.75659 0.0
C771 C 0.19144 0.61939 0.74561 0.0
C772 C 0.05208 0.83888 0.80039 0.0
C773 C 0.02167 0.83643 0.78573 0.0
C774 C 0.06526 0.86621 0.81238 0.0
C775 C 0.04861 0.89169 0.80772 0.0
H776 H 0.0652 0.82003 0.817 0.0
H777 H 0.08769 0.86714 0.835 0.0
S778 S 0.97278 0.8973 0.72323 0.0
N779 N 0.97941 0.86187 0.72539 0.0
N780 N 1.00297 0.91337 0.75855 0.0
C781 C 0.02011 0.8897 0.77333 0.0
C782 C 1.00721 0.86189 0.75698 0.0
C783 C 0.68279 0.99471 0.83768 0.0
C784 C 0.70845 0.99334 0.88961 0.0
C785 C 0.66498 0.01943 0.84235 0.0
C786 C 0.67217 0.04344 0.89902 0.0
H787 H 0.67517 0.97565 0.80025 0.0
H788 H 0.64397 0.0185 0.80943 0.0
S789 S 0.73781 0.0516 0.04366 0.0
N790 N 0.7411 0.01911 0.99499 0.0
N791 N 0.7073 0.06534 1.00272 0.0
C792 C 0.69869 0.04329 0.94569 0.0
C793 C 0.71699 0.0183 0.94081 0.0
C794 C 0.39679 0.69011 0.89951 0.0
C795 C 0.37558 0.69471 0.96932 0.0
C796 C 0.40412 0.66178 0.87139 0.0
C797 C 0.39041 0.63725 0.91199 0.0
H798 H 0.41066 0.70793 0.87608 0.0
H799 H 0.42296 0.65915 0.82643 0.0
S800 S 0.32594 0.63852 0.06897 0.0
N801 N 0.33533 0.67326 0.05699 0.0
N802 N 0.3491 0.61982 1.00386 0.0
C803 C 0.36563 0.64193 0.9681 0.0
C804 C 0.35809 0.67081 0.99644 0.0
C805 C 0.84063 0.38257 0.93697 0.0
C806 C 0.83684 0.36022 1.00377 0.0
C807 C 0.86856 0.39127 0.90819 0.0
C808 C 0.89338 0.37764 0.94468 0.0
H809 H 0.8225 0.39629 0.91747 0.0
H810 H 0.87063 0.41102 0.86685 0.0
S811 S 0.89414 0.31151 0.09281 0.0
N812 N 0.85932 0.31971 0.08454 0.0
N813 N 0.91201 0.33573 0.02883 0.0
C814 C 0.88947 0.35185 0.99666 0.0
C815 C 0.86104 0.34307 0.02618 0.0
C816 C 0.03195 0.16408 0.96006 0.0
C817 C 1.01114 0.1853 0.93626 0.0
C818 C 0.03481 0.13772 0.90898 0.0
C819 C 0.01707 0.13126 0.83125 0.0
H820 H 0.04511 0.16715 0.02159 0.0
H821 H 0.0505 0.12184 0.93285 0.0
S822 S 0.96098 0.181 0.73488 0.0
N823 N 0.97383 0.19887 0.82567 0.0
N824 N 0.97924 0.15002 0.73003 0.0
C825 C 0.99719 0.15308 0.8042 0.0
C826 C 0.99421 0.17977 0.85644 0.0
C827 C 0.39904 1.00788 0.97071 0.0
C828 C 0.37632 0.02558 0.93465 0.0
C829 C 0.42764 1.00801 0.93369 0.0
C830 C 0.43587 0.02608 0.85863 0.0
H831 H 0.39518 0.99385 0.03035 0.0
H832 H 0.44364 0.99377 0.96497 0.0
S833 S 0.3882 0.08122 0.74756 0.0
N834 N 0.36637 0.0645 0.82297 0.0
N835 N 0.42025 0.06525 0.75684 0.0
C836 C 0.41437 0.04517 0.82433 0.0
C837 C 0.38482 0.0449 0.86151 0.0
C838 C 0.5294 0.38995 0.9801 0.0
C839 C 0.53521 0.36652 0.91892 0.0
C840 C 0.52731 0.41915 0.94774 0.0
C841 C 0.5311 0.42654 0.85254 0.0
H842 H 0.52774 0.3859 0.05439 0.0
H843 H 0.52355 0.43622 0.9986 0.0
S844 S 0.54301 0.37319 0.66125 0.0
N845 N 0.54166 0.35278 0.75631 0.0
N846 N 0.53856 0.40722 0.69665 0.0
C847 C 0.53571 0.40321 0.79018 0.0
C848 C 0.53751 0.37346 0.82291 0.0
C849 C 0.132 0.53615 0.07265 0.0
C850 C 0.15717 0.52101 0.0419 0.0
C851 C 0.10584 0.53633 0.0218 0.0
C852 C 0.10325 0.52241 0.93492 0.0
H853 H 0.13212 0.54765 0.13854 0.0
H854 H 0.08723 0.54729 0.05191 0.0
S855 S 0.16272 0.48234 0.81447 0.0
N856 N 0.17766 0.49295 0.91332 0.0
N857 N 0.129 0.49481 0.81607 0.0
C858 C 0.12854 0.50878 0.89945 0.0
C859 C 0.15525 0.50782 0.95282 0.0
C860 C 0.98472 0.91602 0.49932 0.0
C861 C 1.00855 0.89652 0.50036 0.0
C862 C 0.98638 0.94443 0.53838 0.0
C863 C 1.01193 0.95496 0.58101 0.0
H864 H 0.96433 0.90915 0.46877 0.0
H865 H 0.96722 0.95813 0.53638 0.0
S866 S 0.08243 0.91567 0.58344 0.0
N867 N 0.0598 0.89192 0.53626 0.0
N868 N 0.0629 0.94488 0.60916 0.0
C869 C 0.03631 0.93628 0.57887 0.0
C870 C 0.03461 0.9073 0.53901 0.0
C871 C 0.65592 0.99126 0.58431 0.0
C872 C 0.67068 1.01603 0.54764 0.0
C873 C 0.62893 0.99347 0.63161 0.0
C874 C 0.61534 0.02062 0.64624 0.0
H875 H 0.66497 0.96966 0.57397 0.0
H876 H 0.6183 0.97361 0.65557 0.0
S877 S 0.64382 0.09234 0.56457 0.0
N878 N 0.66896 0.06886 0.53022 0.0
N879 N 0.61848 0.0729 0.6192 0.0
C880 C 0.62994 0.04567 0.61218 0.0
C881 C 0.65753 0.04344 0.56355 0.0
C882 C 0.53087 0.64447 0.52559 0.0
C883 C 0.51614 0.66646 0.57558 0.0
C884 C 0.5357 0.61645 0.56462 0.0
C885 C 0.526 0.60896 0.65561 0.0
H886 H 0.53708 0.64831 0.45355 0.0
H887 H 0.54618 0.60016 0.52131 0.0
S888 S 0.48905 0.65978 0.81958 0.0
N889 N 0.49399 0.67946 0.72401 0.0
N890 N 0.503 0.62732 0.79695 0.0
C891 C 0.5127 0.63135 0.70809 0.0
C892 C 0.50782 0.65984 0.66832 0.0
C893 C 0.89439 0.52132 0.55904 0.0
C894 C 0.8714 0.50659 0.60528 0.0
C895 C 0.92146 0.52657 0.60303 0.0
C896 C 0.927 0.51725 0.69544 0.0
H897 H 0.89208 0.52729 0.48636 0.0
H898 H 0.9386 0.53705 0.56263 0.0
S899 S 0.87318 0.47962 0.84978 0.0
N900 N 0.85557 0.48437 0.75105 0.0
N901 N 0.90582 0.49405 0.83299 0.0
C902 C 0.90364 0.50371 0.74368 0.0
C903 C 0.87615 0.49846 0.69898 0.0
loop_
_geom_bond_atom_site_label_1
_geom_bond_atom_site_label_2
_geom_bond_distance
_geom_bond_site_symmetry_2
_ccdc_geom_bond_type
C0 C1 1.391 . S
C0 C4 1.391 . S
C0 H42 0.948 . S
C1 C0 1.391 . S
C1 C2 1.391 . S
C2 C1 1.391 . S
C2 H58 0.947 . S
C2 C59 1.392 . S
C3 C4 1.391 . S
C3 C7 1.397 . S
C3 C59 1.419 . S
C4 C0 1.391 . S
C4 C3 1.391 . S
C4 C5 1.399 . S
C5 C4 1.399 . S
C5 C8 1.396 . S
C5 C17 1.453 . S
C5 C18 1.684 . S
H6 C30 0.948 . S
C7 C3 1.397 . S
C7 C8 1.394 . S
C7 C26 1.723 . S
C8 C5 1.396 . S
C8 C7 1.394 . S
C8 C38 1.723 . S
H9 C32 0.947 . S
H10 C33 0.948 . S
H11 C39 0.982 . S
H12 C40 0.979 . S
H13 C40 0.980 . S
H14 C40 0.983 . S
H15 C39 0.979 . S
H16 C39 0.977 . S
C17 C5 1.453 . S
C17 H46 0.982 . S
C17 H47 0.979 . S
C17 H48 0.977 . S
C18 C5 1.684 . S
C18 H43 0.979 . S
C18 H44 0.980 . S
C18 H45 0.983 . S
C19 C20 1.391 . S
C19 C24 1.391 . S
C19 H49 0.948 . S
C20 C19 1.391 . S
C20 C21 1.391 . S
C21 C20 1.391 . S
C21 C22 1.392 . S
C21 H50 0.947 . S
C22 C21 1.392 . S
C22 C23 1.419 . S
C22 H51 0.948 . S
C23 C22 1.419 . S
C23 C24 1.391 . S
C23 C27 1.397 . S
C24 C19 1.391 . S
C24 C23 1.391 . S
C24 C25 1.399 . S
C25 C24 1.399 . S
C25 C26 1.396 . S
C25 C28 1.453 . S
C25 C29 1.684 . S
C26 C7 1.723 . S
C26 C25 1.396 . S
C26 C27 1.394 . S
C27 C23 1.397 . S
C27 C26 1.394 . S
C27 C37 1.723 . S
C28 C25 1.453 . S
C28 H52 0.982 . S
C28 H53 0.979 . S
C28 H54 0.977 . S
C29 C25 1.684 . S
C29 H55 0.979 . S
C29 H56 0.980 . S
C29 H57 0.983 . S
C30 H6 0.948 . S
C30 C31 1.391 . S
C30 C35 1.391 . S
C31 C30 1.391 . S
C31 C32 1.391 . S
C32 H9 0.947 . S
C32 C31 1.391 . S
C32 C33 1.392 . S
C33 H10 0.948 . S
C33 C32 1.392 . S
C33 C34 1.419 . S
C34 C33 1.419 . S
C34 C35 1.391 . S
C34 C38 1.397 . S
C35 C30 1.391 . S
C35 C34 1.391 . S
C35 C36 1.399 . S
C36 C35 1.399 . S
C36 C37 1.396 . S
C36 C39 1.453 . S
C36 C40 1.684 . S
C37 C27 1.723 . S
C37 C36 1.396 . S
C37 C38 1.394 . S
C38 C8 1.723 . S
C38 C34 1.397 . S
C38 C37 1.394 . S
C39 H11 0.982 . S
C39 H15 0.979 . S
C39 H16 0.977 . S
C39 C36 1.453 . S
C40 H12 0.979 . S
C40 H13 0.980 . S
C40 H14 0.983 . S
C40 C36 1.684 . S
H41 C59 0.948 . S
H42 C0 0.948 . S
H43 C18 0.979 . S
H44 C18 0.980 . S
H45 C18 0.983 . S
H46 C17 0.982 . S
H47 C17 0.979 . S
H48 C17 0.977 . S
H49 C19 0.948 . S
H50 C21 0.947 . S
H51 C22 0.948 . S
H52 C28 0.982 . S
H53 C28 0.979 . S
H54 C28 0.977 . S
H55 C29 0.979 . S
H56 C29 0.980 . S
H57 C29 0.983 . S
H58 C2 0.947 . S
C59 C2 1.392 . S
C59 C3 1.419 . S
C59 H41 0.948 . S
C60 C61 1.391 . S
C60 C64 1.391 . S
C60 H102 0.948 . S
C61 C60 1.391 . S
C61 C62 1.391 . S
C62 C61 1.391 . S
C62 H118 0.947 . S
C62 C119 1.392 . S
C63 C64 1.391 . S
C63 C67 1.397 1_655 S
C63 C119 1.419 . S
C64 C60 1.391 . S
C64 C63 1.391 . S
C64 C65 1.399 . S
C65 C64 1.399 . S
C65 C68 1.396 1_655 S
C65 C77 1.453 1_655 S
C65 C78 1.684 . S
H66 C90 0.948 . S
C67 C63 1.397 1_455 S
C67 C68 1.394 . S
C67 C86 1.723 . S
C68 C65 1.396 1_455 S
C68 C67 1.394 . S
C68 C98 1.723 . S
H69 C92 0.947 . S
H70 C93 0.948 . S
H71 C99 0.982 . S
H72 C100 0.979 . S
H73 C100 0.980 . S
H74 C100 0.983 . S
H75 C99 0.979 . S
H76 C99 0.977 . S
C77 C65 1.453 1_455 S
C77 H106 0.982 . S
C77 H107 0.979 . S
C77 H108 0.977 . S
C78 C65 1.684 . S
C78 H103 0.979 . S
C78 H104 0.980 . S
C78 H105 0.983 . S
C79 C80 1.391 . S
C79 C84 1.391 . S
C79 H109 0.948 . S
C80 C79 1.391 . S
C80 C81 1.391 . S
C81 C80 1.391 . S
C81 C82 1.392 . S
C81 H110 0.947 . S
C82 C81 1.392 . S
C82 C83 1.419 . S
C82 H111 0.948 . S
C83 C82 1.419 . S
C83 C84 1.391 . S
C83 C87 1.397 1_655 S
C84 C79 1.391 . S
C84 C83 1.391 . S
C84 C85 1.399 . S
C85 C84 1.399 . S
C85 C86 1.396 1_655 S
C85 C88 1.453 1_655 S
C85 C89 1.684 . S
C86 C67 1.723 . S
C86 C85 1.396 1_455 S
C86 C87 1.394 . S
C87 C83 1.397 1_455 S
C87 C86 1.394 . S
C87 C97 1.723 . S
C88 C85 1.453 1_455 S
C88 H112 0.982 . S
C88 H113 0.979 . S
C88 H114 0.977 . S
C89 C85 1.684 . S
C89 H115 0.979 . S
C89 H116 0.980 . S
C89 H117 0.983 . S
C90 H66 0.948 . S
C90 C91 1.391 . S
C90 C95 1.391 . S
C91 C90 1.391 . S
C91 C92 1.391 . S
C92 H69 0.947 . S
C92 C91 1.391 . S
C92 C93 1.392 . S
C93 H70 0.948 . S
C93 C92 1.392 . S
C93 C94 1.419 . S
C94 C93 1.419 . S
C94 C95 1.391 . S
C94 C98 1.397 1_655 S
C95 C90 1.391 . S
C95 C94 1.391 . S
C95 C96 1.399 . S
C96 C95 1.399 . S
C96 C97 1.396 1_655 S
C96 C99 1.453 1_655 S
C96 C100 1.684 . S
C97 C87 1.723 . S
C97 C96 1.396 1_455 S
C97 C98 1.394 . S
C98 C68 1.723 . S
C98 C94 1.397 1_455 S
C98 C97 1.394 . S
C99 H71 0.982 . S
C99 H75 0.979 . S
C99 H76 0.977 . S
C99 C96 1.453 1_455 S
C100 H72 0.979 . S
C100 H73 0.980 . S
C100 H74 0.983 . S
C100 C96 1.684 . S
H101 C119 0.948 . S
H102 C60 0.948 . S
H103 C78 0.979 . S
H104 C78 0.980 . S
H105 C78 0.983 . S
H106 C77 0.982 . S
H107 C77 0.979 . S
H108 C77 0.977 . S
H109 C79 0.948 . S
H110 C81 0.947 . S
H111 C82 0.948 . S
H112 C88 0.982 . S
H113 C88 0.979 . S
H114 C88 0.977 . S
H115 C89 0.979 . S
H116 C89 0.980 . S
H117 C89 0.983 . S
H118 C62 0.947 . S
C119 C62 1.392 . S
C119 C63 1.419 . S
C119 H101 0.948 . S
C120 C121 1.391 . S
C120 C124 1.391 . S
C120 H162 0.948 . S
C121 C120 1.391 . S
C121 C122 1.391 . S
C122 C121 1.391 . S
C122 H178 0.947 . S
C122 C179 1.392 . S
C123 C124 1.391 . S
C123 C127 1.397 1_565 S
C123 C179 1.419 . S
C124 C120 1.391 . S
C124 C123 1.391 . S
C124 C125 1.399 . S
C125 C124 1.399 . S
C125 C128 1.396 1_565 S
C125 C137 1.453 1_565 S
C125 C138 1.684 . S
H126 C150 0.948 . S
C127 C123 1.397 1_545 S
C127 C128 1.394 . S
C127 C146 1.723 . S
C128 C125 1.396 1_545 S
C128 C127 1.394 . S
C128 C158 1.723 . S
H129 C152 0.947 . S
H130 C153 0.948 . S
H131 C159 0.982 . S
H132 C160 0.979 . S
H133 C160 0.980 . S
H134 C160 0.983 . S
H135 C159 0.979 . S
H136 C159 0.977 . S
C137 C125 1.453 1_545 S
C137 H166 0.982 . S
C137 H167 0.979 . S
C137 H168 0.977 . S
C138 C125 1.684 . S
C138 H163 0.979 . S
C138 H164 0.980 . S
C138 H165 0.983 . S
C139 C140 1.391 . S
C139 C144 1.391 . S
C139 H169 0.948 . S
C140 C139 1.391 . S
C140 C141 1.391 . S
C141 C140 1.391 . S
C141 C142 1.392 . S
C141 H170 0.947 . S
C142 C141 1.392 . S
C142 C143 1.419 . S
C142 H171 0.948 . S
C143 C142 1.419 . S
C143 C144 1.391 . S
C143 C147 1.397 1_565 S
C144 C139 1.391 . S
C144 C143 1.391 . S
C144 C145 1.399 . S
C145 C144 1.399 . S
C145 C146 1.396 1_565 S
C145 C148 1.453 1_565 S
C145 C149 1.684 . S
C146 C127 1.723 . S
C146 C145 1.396 1_545 S
C146 C147 1.394 . S
C147 C143 1.397 1_545 S
C147 C146 1.394 . S
C147 C157 1.723 . S
C148 C145 1.453 1_545 S
C148 H172 0.982 . S
C148 H173 0.979 . S
C148 H174 0.977 . S
C149 C145 1.684 . S
C149 H175 0.979 . S
C149 H176 0.980 . S
C149 H177 0.983 . S
C150 H126 0.948 . S
C150 C151 1.391 . S
C150 C155 1.391 . S
C151 C150 1.391 . S
C151 C152 1.391 . S
C152 H129 0.947 . S
C152 C151 1.391 . S
C152 C153 1.392 . S
C153 H130 0.948 . S
C153 C152 1.392 . S
C153 C154 1.419 . S
C154 C153 1.419 . S
C154 C155 1.391 . S
C154 C158 1.397 1_565 S
C155 C150 1.391 . S
C155 C154 1.391 . S
C155 C156 1.399 . S
C156 C155 1.399 . S
C156 C157 1.396 1_565 S
C156 C159 1.453 1_565 S
C156 C160 1.684 . S
C157 C147 1.723 . S
C157 C156 1.396 1_545 S
C157 C158 1.394 . S
C158 C128 1.723 . S
C158 C154 1.397 1_545 S
C158 C157 1.394 . S
C159 H131 0.982 . S
C159 H135 0.979 . S
C159 H136 0.977 . S
C159 C156 1.453 1_545 S
C160 H132 0.979 . S
C160 H133 0.980 . S
C160 H134 0.983 . S
C160 C156 1.684 . S
H161 C179 0.948 . S
H162 C120 0.948 . S
H163 C138 0.979 . S
H164 C138 0.980 . S
H165 C138 0.983 . S
H166 C137 0.982 . S
H167 C137 0.979 . S
H168 C137 0.977 . S
H169 C139 0.948 . S
H170 C141 0.947 . S
H171 C142 0.948 . S
H172 C148 0.982 . S
H173 C148 0.979 . S
H174 C148 0.977 . S
H175 C149 0.979 . S
H176 C149 0.980 . S
H177 C149 0.983 . S
H178 C122 0.947 . S
C179 C122 1.392 . S
C179 C123 1.419 . S
C179 H161 0.948 . S
C180 C181 1.391 . S
C180 C184 1.391 . S
C180 H222 0.948 . S
C181 C180 1.391 . S
C181 C182 1.391 . S
C182 C181 1.391 . S
C182 H238 0.947 . S
C182 C239 1.392 . S
C183 C184 1.391 . S
C183 C187 1.397 . S
C183 C239 1.419 . S
C184 C180 1.391 . S
C184 C183 1.391 . S
C184 C185 1.399 . S
C185 C184 1.399 . S
C185 C188 1.396 . S
C185 C197 1.453 . S
C185 C198 1.684 . S
H186 C210 0.948 . S
C187 C183 1.397 . S
C187 C188 1.394 . S
C187 C206 1.723 . S
C188 C185 1.396 . S
C188 C187 1.394 . S
C188 C218 1.723 . S
H189 C212 0.947 . S
H190 C213 0.948 . S
H191 C219 0.982 . S
H192 C220 0.979 . S
H193 C220 0.980 . S
H194 C220 0.983 . S
H195 C219 0.979 . S
H196 C219 0.977 . S
C197 C185 1.453 . S
C197 H226 0.982 . S
C197 H227 0.979 . S
C197 H228 0.977 . S
C198 C185 1.684 . S
C198 H223 0.979 . S
C198 H224 0.980 . S
C198 H225 0.983 . S
C199 C200 1.391 . S
C199 C204 1.391 . S
C199 H229 0.948 . S
C200 C199 1.391 . S
C200 C201 1.391 . S
C201 C200 1.391 . S
C201 C202 1.392 . S
C201 H230 0.947 . S
C202 C201 1.392 . S
C202 C203 1.419 . S
C202 H231 0.948 . S
C203 C202 1.419 . S
C203 C204 1.391 . S
C203 C207 1.397 . S
C204 C199 1.391 . S
C204 C203 1.391 . S
C204 C205 1.399 . S
C205 C204 1.399 . S
C205 C206 1.396 . S
C205 C208 1.453 . S
C205 C209 1.684 . S
C206 C187 1.723 . S
C206 C205 1.396 . S
C206 C207 1.394 . S
C207 C203 1.397 . S
C207 C206 1.394 . S
C207 C217 1.723 . S
C208 C205 1.453 . S
C208 H232 0.982 . S
C208 H233 0.979 . S
C208 H234 0.977 . S
C209 C205 1.684 . S
C209 H235 0.979 . S
C209 H236 0.980 . S
C209 H237 0.983 . S
C210 H186 0.948 . S
C210 C211 1.391 . S
C210 C215 1.391 . S
C211 C210 1.391 . S
C211 C212 1.391 . S
C212 H189 0.947 . S
C212 C211 1.391 . S
C212 C213 1.392 . S
C213 H190 0.948 . S
C213 C212 1.392 . S
C213 C214 1.419 . S
C214 C213 1.419 . S
C214 C215 1.391 . S
C214 C218 1.397 . S
C215 C210 1.391 . S
C215 C214 1.391 . S
C215 C216 1.399 . S
C216 C215 1.399 . S
C216 C217 1.396 . S
C216 C219 1.453 . S
C216 C220 1.684 . S
C217 C207 1.723 . S
C217 C216 1.396 . S
C217 C218 1.394 . S
C218 C188 1.723 . S
C218 C214 1.397 . S
C218 C217 1.394 . S
C219 H191 0.982 . S
C219 H195 0.979 . S
C219 H196 0.977 . S
C219 C216 1.453 . S
C220 H192 0.979 . S
C220 H193 0.980 . S
C220 H194 0.983 . S
C220 C216 1.684 . S
H221 C239 0.948 . S
H222 C180 0.948 . S
H223 C198 0.979 . S
H224 C198 0.980 . S
H225 C198 0.983 . S
H226 C197 0.982 . S
H227 C197 0.979 . S
H228 C197 0.977 . S
H229 C199 0.948 . S
H230 C201 0.947 . S
H231 C202 0.948 . S
H232 C208 0.982 . S
H233 C208 0.979 . S
H234 C208 0.977 . S
H235 C209 0.979 . S
H236 C209 0.980 . S
H237 C209 0.983 . S
H238 C182 0.947 . S
C239 C182 1.392 . S
C239 C183 1.419 . S
C239 H221 0.948 . S
C240 C241 1.391 . S
C240 C244 1.391 . S
C240 H282 0.948 . S
C241 C240 1.391 . S
C241 C242 1.391 . S
C242 C241 1.391 . S
C242 H298 0.947 . S
C242 C299 1.392 . S
C243 C244 1.391 . S
C243 C247 1.397 . S
C243 C299 1.419 . S
C244 C240 1.391 . S
C244 C243 1.391 . S
C244 C245 1.399 1_554 S
C245 C244 1.399 1_556 S
C245 C248 1.396 . S
C245 C257 1.453 . S
C245 C258 1.684 . S
H246 C270 0.948 . S
C247 C243 1.397 . S
C247 C248 1.394 1_554 S
C247 C266 1.723 . S
C248 C245 1.396 . S
C248 C247 1.394 1_556 S
C248 C278 1.723 . S
H249 C272 0.947 . S
H250 C273 0.948 . S
H251 C279 0.982 . S
H252 C280 0.979 . S
H253 C280 0.980 1_554 S
H254 C280 0.983 . S
H255 C279 0.979 . S
H256 C279 0.977 1_554 S
C257 C245 1.453 . S
C257 H286 0.982 . S
C257 H287 0.979 . S
C257 H288 0.977 . S
C258 C245 1.684 . S
C258 H283 0.979 . S
C258 H284 0.980 . S
C258 H285 0.983 . S
C259 C260 1.391 . S
C259 C264 1.391 . S
C259 H289 0.948 . S
C260 C259 1.391 . S
C260 C261 1.391 . S
C261 C260 1.391 . S
C261 C262 1.392 . S
C261 H290 0.947 . S
C262 C261 1.392 . S
C262 C263 1.419 . S
C262 H291 0.948 . S
C263 C262 1.419 . S
C263 C264 1.391 . S
C263 C267 1.397 . S
C264 C259 1.391 . S
C264 C263 1.391 . S
C264 C265 1.399 . S
C265 C264 1.399 . S
C265 C266 1.396 . S
C265 C268 1.453 . S
C265 C269 1.684 . S
C266 C247 1.723 . S
C266 C265 1.396 . S
C266 C267 1.394 . S
C267 C263 1.397 . S
C267 C266 1.394 . S
C267 C277 1.723 1_554 S
C268 C265 1.453 . S
C268 H292 0.982 . S
C268 H293 0.979 . S
C268 H294 0.977 . S
C269 C265 1.684 . S
C269 H295 0.979 . S
C269 H296 0.980 . S
C269 H297 0.983 . S
C270 H246 0.948 . S
C270 C271 1.391 . S
C270 C275 1.391 . S
C271 C270 1.391 . S
C271 C272 1.391 . S
C272 H249 0.947 . S
C272 C271 1.391 . S
C272 C273 1.392 . S
C273 H250 0.948 . S
C273 C272 1.392 . S
C273 C274 1.419 . S
C274 C273 1.419 . S
C274 C275 1.391 . S
C274 C278 1.397 . S
C275 C270 1.391 . S
C275 C274 1.391 . S
C275 C276 1.399 . S
C276 C275 1.399 . S
C276 C277 1.396 . S
C276 C279 1.453 . S
C276 C280 1.684 . S
C277 C267 1.723 1_556 S
C277 C276 1.396 . S
C277 C278 1.394 . S
C278 C248 1.723 . S
C278 C274 1.397 . S
C278 C277 1.394 . S
C279 H251 0.982 . S
C279 H255 0.979 . S
C279 H256 0.977 1_556 S
C279 C276 1.453 . S
C280 H252 0.979 . S
C280 H253 0.980 1_556 S
C280 H254 0.983 . S
C280 C276 1.684 . S
H281 C299 0.948 . S
H282 C240 0.948 . S
H283 C258 0.979 . S
H284 C258 0.980 . S
H285 C258 0.983 . S
H286 C257 0.982 . S
H287 C257 0.979 . S
H288 C257 0.977 . S
H289 C259 0.948 . S
H290 C261 0.947 . S
H291 C262 0.948 . S
H292 C268 0.982 . S
H293 C268 0.979 . S
H294 C268 0.977 . S
H295 C269 0.979 . S
H296 C269 0.980 . S
H297 C269 0.983 . S
H298 C242 0.947 . S
C299 C242 1.392 . S
C299 C243 1.419 . S
C299 H281 0.948 . S
C300 C301 1.391 . S
C300 C304 1.391 . S
C300 H342 0.948 . S
C301 C300 1.391 . S
C301 C302 1.391 . S
C302 C301 1.391 . S
C302 H358 0.947 . S
C302 C359 1.392 . S
C303 C304 1.391 . S
C303 C307 1.396 1_655 S
C303 C359 1.419 . S
C304 C300 1.391 . S
C304 C303 1.391 . S
C304 C305 1.399 . S
C305 C304 1.399 . S
C305 C308 1.396 1_655 S
C305 C317 1.453 1_655 S
C305 C318 1.684 . S
H306 C330 0.948 . S
C307 C303 1.396 1_455 S
C307 C308 1.395 . S
C307 C326 1.723 1_554 S
C308 C305 1.396 1_455 S
C308 C307 1.395 . S
C308 C338 1.723 . S
H309 C332 0.947 . S
H310 C333 0.948 . S
H311 C339 0.982 . S
H312 C340 0.979 . S
H313 C340 0.980 . S
H314 C340 0.983 . S
H315 C339 0.979 . S
H316 C339 0.977 . S
C317 C305 1.453 1_455 S
C317 H346 0.982 . S
C317 H347 0.979 . S
C317 H348 0.977 . S
C318 C305 1.684 . S
C318 H343 0.979 . S
C318 H344 0.980 . S
C318 H345 0.983 . S
C319 C320 1.391 . S
C319 C324 1.391 . S
C319 H349 0.948 . S
C320 C319 1.391 . S
C320 C321 1.391 . S
C321 C320 1.391 . S
C321 C322 1.392 . S
C321 H350 0.947 . S
C322 C321 1.392 . S
C322 C323 1.419 . S
C322 H351 0.948 . S
C323 C322 1.419 . S
C323 C324 1.391 . S
C323 C327 1.396 1_655 S
C324 C319 1.391 . S
C324 C323 1.391 . S
C324 C325 1.399 . S
C325 C324 1.399 . S
C325 C326 1.396 1_655 S
C325 C328 1.453 1_655 S
C325 C329 1.684 . S
C326 C307 1.723 1_556 S
C326 C325 1.396 1_455 S
C326 C327 1.395 . S
C327 C323 1.396 1_455 S
C327 C326 1.395 . S
C327 C337 1.723 . S
C328 C325 1.453 1_455 S
C328 H352 0.982 . S
C328 H353 0.979 . S
C328 H354 0.977 1_556 S
C329 C325 1.684 . S
C329 H355 0.979 . S
C329 H356 0.980 1_556 S
C329 H357 0.983 . S
C330 H306 0.948 . S
C330 C331 1.391 . S
C330 C335 1.391 . S
C331 C330 1.391 . S
C331 C332 1.391 . S
C332 H309 0.947 . S
C332 C331 1.391 . S
C332 C333 1.392 . S
C333 H310 0.948 . S
C333 C332 1.392 . S
C333 C334 1.419 . S
C334 C333 1.419 . S
C334 C335 1.391 . S
C334 C338 1.396 1_655 S
C335 C330 1.391 . S
C335 C334 1.391 . S
C335 C336 1.399 1_554 S
C336 C335 1.399 1_556 S
C336 C337 1.396 1_655 S
C336 C339 1.453 1_655 S
C336 C340 1.684 . S
C337 C327 1.723 . S
C337 C336 1.396 1_455 S
C337 C338 1.395 1_556 S
C338 C308 1.723 . S
C338 C334 1.396 1_455 S
C338 C337 1.395 1_554 S
C339 H311 0.982 . S
C339 H315 0.979 . S
C339 H316 0.977 . S
C339 C336 1.453 1_455 S
C340 H312 0.979 . S
C340 H313 0.980 . S
C340 H314 0.983 . S
C340 C336 1.684 . S
H341 C359 0.948 . S
H342 C300 0.948 . S
H343 C318 0.979 . S
H344 C318 0.980 . S
H345 C318 0.983 . S
H346 C317 0.982 . S
H347 C317 0.979 . S
H348 C317 0.977 . S
H349 C319 0.948 . S
H350 C321 0.947 . S
H351 C322 0.948 . S
H352 C328 0.982 . S
H353 C328 0.979 . S
H354 C328 0.977 1_554 S
H355 C329 0.979 . S
H356 C329 0.980 1_554 S
H357 C329 0.983 . S
H358 C302 0.947 . S
C359 C302 1.392 . S
C359 C303 1.419 . S
C359 H341 0.948 . S
C360 C361 1.391 . S
C360 C364 1.391 . S
C360 H402 0.948 . S
C361 C360 1.391 . S
C361 C362 1.391 . S
C362 C361 1.391 . S
C362 H418 0.947 . S
C362 C419 1.392 . S
C363 C364 1.391 . S
C363 C367 1.397 1_545 S
C363 C419 1.419 . S
C364 C360 1.391 . S
C364 C363 1.391 . S
C364 C365 1.399 . S
C365 C364 1.399 . S
C365 C368 1.396 1_545 S
C365 C377 1.453 1_545 S
C365 C378 1.684 . S
H366 C390 0.948 . S
C367 C363 1.397 1_565 S
C367 C368 1.394 . S
C367 C386 1.723 1_556 S
C368 C365 1.396 1_565 S
C368 C367 1.394 . S
C368 C398 1.723 1_556 S
H369 C392 0.947 1_556 S
H370 C393 0.948 . S
H371 C399 0.982 . S
H372 C400 0.979 . S
H373 C400 0.980 . S
H374 C400 0.983 . S
H375 C399 0.979 . S
H376 C399 0.977 . S
C377 C365 1.453 1_565 S
C377 H406 0.982 . S
C377 H407 0.979 . S
C377 H408 0.977 . S
C378 C365 1.684 . S
C378 H403 0.979 . S
C378 H404 0.980 . S
C378 H405 0.983 . S
C379 C380 1.391 . S
C379 C384 1.391 . S
C379 H409 0.948 . S
C380 C379 1.391 . S
C380 C381 1.391 . S
C381 C380 1.391 . S
C381 C382 1.392 . S
C381 H410 0.947 . S
C382 C381 1.392 . S
C382 C383 1.419 . S
C382 H411 0.948 . S
C383 C382 1.419 . S
C383 C384 1.391 . S
C383 C387 1.397 1_545 S
C384 C379 1.391 . S
C384 C383 1.391 . S
C384 C385 1.399 . S
C385 C384 1.399 . S
C385 C386 1.396 1_545 S
C385 C388 1.453 1_545 S
C385 C389 1.684 . S
C386 C367 1.723 1_554 S
C386 C385 1.396 1_565 S
C386 C387 1.394 . S
C387 C383 1.397 1_565 S
C387 C386 1.394 . S
C387 C397 1.723 . S
C388 C385 1.453 1_565 S
C388 H412 0.982 . S
C388 H413 0.979 . S
C388 H414 0.977 1_554 S
C389 C385 1.684 . S
C389 H415 0.979 . S
C389 H416 0.980 1_554 S
C389 H417 0.983 . S
C390 H366 0.948 . S
C390 C391 1.391 . S
C390 C395 1.391 . S
C391 C390 1.391 . S
C391 C392 1.391 . S
C392 H369 0.947 1_554 S
C392 C391 1.391 . S
C392 C393 1.392 1_554 S
C393 H370 0.948 . S
C393 C392 1.392 1_556 S
C393 C394 1.419 1_556 S
C394 C393 1.419 1_554 S
C394 C395 1.391 . S
C394 C398 1.397 1_545 S
C395 C390 1.391 . S
C395 C394 1.391 . S
C395 C396 1.399 . S
C396 C395 1.399 . S
C396 C397 1.396 1_545 S
C396 C399 1.453 1_545 S
C396 C400 1.684 . S
C397 C387 1.723 . S
C397 C396 1.396 1_565 S
C397 C398 1.394 . S
C398 C368 1.723 1_554 S
C398 C394 1.397 1_565 S
C398 C397 1.394 . S
C399 H371 0.982 . S
C399 H375 0.979 . S
C399 H376 0.977 . S
C399 C396 1.453 1_565 S
C400 H372 0.979 . S
C400 H373 0.980 . S
C400 H374 0.983 . S
C400 C396 1.684 . S
H401 C419 0.948 . S
H402 C360 0.948 . S
H403 C378 0.979 . S
H404 C378 0.980 . S
H405 C378 0.983 . S
H406 C377 0.982 . S
H407 C377 0.979 . S
H408 C377 0.977 . S
H409 C379 0.948 . S
H410 C381 0.947 . S
H411 C382 0.948 . S
H412 C388 0.982 . S
H413 C388 0.979 . S
H414 C388 0.977 1_556 S
H415 C389 0.979 . S
H416 C389 0.980 1_556 S
H417 C389 0.983 . S
H418 C362 0.947 . S
C419 C362 1.392 . S
C419 C363 1.419 . S
C419 H401 0.948 . S
C420 C421 1.391 . S
C420 C424 1.391 . S
C420 H462 0.948 . S
C421 C420 1.391 . S
C421 C422 1.391 . S
C422 C421 1.391 . S
C422 H478 0.947 . S
C422 C479 1.392 . S
C423 C424 1.391 . S
C423 C427 1.397 . S
C423 C479 1.419 . S
C424 C420 1.391 . S
C424 C423 1.391 . S
C424 C425 1.399 . S
C425 C424 1.399 . S
C425 C428 1.396 . S
C425 C437 1.453 . S
C425 C438 1.684 . S
H426 C450 0.948 . S
C427 C423 1.397 . S
C427 C428 1.394 . S
C427 C446 1.723 1_556 S
C428 C425 1.396 . S
C428 C427 1.394 . S
C428 C458 1.723 1_556 S
H429 C452 0.947 1_556 S
H430 C453 0.948 . S
H431 C459 0.982 . S
H432 C460 0.979 . S
H433 C460 0.980 . S
H434 C460 0.983 . S
H435 C459 0.979 . S
H436 C459 0.977 . S
C437 C425 1.453 . S
C437 H466 0.982 . S
C437 H467 0.979 . S
C437 H468 0.977 . S
C438 C425 1.684 . S
C438 H463 0.979 . S
C438 H464 0.980 . S
C438 H465 0.983 . S
C439 C440 1.391 . S
C439 C444 1.391 . S
C439 H469 0.948 . S
C440 C439 1.391 . S
C440 C441 1.391 . S
C441 C440 1.391 . S
C441 C442 1.392 . S
C441 H470 0.947 . S
C442 C441 1.392 . S
C442 C443 1.419 . S
C442 H471 0.948 . S
C443 C442 1.419 . S
C443 C444 1.391 . S
C443 C447 1.397 . S
C444 C439 1.391 . S
C444 C443 1.391 . S
C444 C445 1.399 . S
C445 C444 1.399 . S
C445 C446 1.396 . S
C445 C448 1.453 . S
C445 C449 1.684 . S
C446 C427 1.723 1_554 S
C446 C445 1.396 . S
C446 C447 1.394 . S
C447 C443 1.397 . S
C447 C446 1.394 . S
C447 C457 1.723 . S
C448 C445 1.453 . S
C448 H472 0.982 . S
C448 H473 0.979 . S
C448 H474 0.977 1_554 S
C449 C445 1.684 . S
C449 H475 0.979 . S
C449 H476 0.980 1_554 S
C449 H477 0.983 . S
C450 H426 0.948 . S
C450 C451 1.391 . S
C450 C455 1.391 . S
C451 C450 1.391 . S
C451 C452 1.391 . S
C452 H429 0.947 1_554 S
C452 C451 1.391 . S
C452 C453 1.392 1_554 S
C453 H430 0.948 . S
C453 C452 1.392 1_556 S
C453 C454 1.419 1_556 S
C454 C453 1.419 1_554 S
C454 C455 1.391 . S
C454 C458 1.397 . S
C455 C450 1.391 . S
C455 C454 1.391 . S
C455 C456 1.399 . S
C456 C455 1.399 . S
C456 C457 1.396 . S
C456 C459 1.453 . S
C456 C460 1.684 . S
C457 C447 1.723 . S
C457 C456 1.396 . S
C457 C458 1.394 . S
C458 C428 1.723 1_554 S
C458 C454 1.397 . S
C458 C457 1.394 . S
C459 H431 0.982 . S
C459 H435 0.979 . S
C459 H436 0.977 . S
C459 C456 1.453 . S
C460 H432 0.979 . S
C460 H433 0.980 . S
C460 H434 0.983 . S
C460 C456 1.684 . S
H461 C479 0.948 . S
H462 C420 0.948 . S
H463 C438 0.979 . S
H464 C438 0.980 . S
H465 C438 0.983 . S
H466 C437 0.982 . S
H467 C437 0.979 . S
H468 C437 0.977 . S
H469 C439 0.948 . S
H470 C441 0.947 . S
H471 C442 0.948 . S
H472 C448 0.982 . S
H473 C448 0.979 . S
H474 C448 0.977 1_556 S
H475 C449 0.979 . S
H476 C449 0.980 1_556 S
H477 C449 0.983 . S
H478 C422 0.947 . S
C479 C422 1.392 . S
C479 C423 1.419 . S
C479 H461 0.948 . S
Ho480 C483 2.811 . S
Ho480 O500 2.322 . S
Ho480 O502 2.378 . S
Ho480 O503 2.524 . S
Ho480 O504 2.381 . S
Ho480 O505 2.669 1_565 S
Ho480 O507 2.346 1_565 S
Ho480 O511 2.305 1_455 S
Ho481 C492 2.811 . S
Ho481 O501 2.346 1_545 S
Ho481 O505 2.305 1_655 S
Ho481 O506 2.322 . S
Ho481 O508 2.378 . S
Ho481 O509 2.524 . S
Ho481 O510 2.381 . S
Ho481 O511 2.669 1_545 S
C482 O500 1.259 1_655 S
C482 O501 1.268 . S
C483 Ho480 2.811 . S
C483 C484 1.488 . S
C483 O502 1.215 . S
C483 O503 1.289 . S
C484 C483 1.488 . S
C484 C485 1.348 1_556 S
C484 C489 1.413 . S
C485 C484 1.348 1_554 S
C485 C486 1.442 . S
C485 H512 0.930 1_454 S
C486 C485 1.442 . S
C486 C487 1.381 . S
C486 H513 0.931 . S
C487 C486 1.381 . S
C487 C488 1.321 . S
C488 C487 1.321 . S
C488 C489 1.403 1_554 S
C488 H514 0.934 . S
C489 C484 1.413 . S
C489 C488 1.403 1_556 S
C489 H515 0.930 . S
C490 O504 1.275 . S
C490 O505 1.256 1_565 S
C491 O506 1.259 1_455 S
C491 O507 1.268 . S
C492 Ho481 2.811 . S
C492 C493 1.488 . S
C492 O508 1.215 . S
C492 O509 1.289 . S
C493 C492 1.488 . S
C493 C494 1.348 . S
C493 C498 1.413 . S
C494 C493 1.348 . S
C494 C495 1.442 . S
C494 H516 0.930 1_655 S
C495 C494 1.442 . S
C495 C496 1.381 . S
C495 H517 0.931 . S
C496 C495 1.381 . S
C496 C497 1.321 . S
C497 C496 1.321 . S
C497 C498 1.403 . S
C497 H518 0.934 . S
C498 C493 1.413 . S
C498 C497 1.403 . S
C498 H519 0.930 . S
C499 O510 1.275 . S
C499 O511 1.256 1_545 S
O500 Ho480 2.322 . S
O500 C482 1.259 1_455 S
O501 Ho481 2.346 1_565 S
O501 C482 1.268 . S
O502 Ho480 2.378 . S
O502 C483 1.215 . S
O503 Ho480 2.524 . S
O503 C483 1.289 . S
O504 Ho480 2.381 . S
O504 C490 1.275 . S
O505 Ho480 2.669 1_545 S
O505 Ho481 2.305 1_455 S
O505 C490 1.256 1_545 S
O506 Ho481 2.322 . S
O506 C491 1.259 1_655 S
O507 Ho480 2.346 1_545 S
O507 C491 1.268 . S
O508 Ho481 2.378 . S
O508 C492 1.215 . S
O509 Ho481 2.524 . S
O509 C492 1.289 . S
O510 Ho481 2.381 . S
O510 C499 1.275 . S
O511 Ho480 2.305 1_655 S
O511 Ho481 2.669 1_565 S
O511 C499 1.256 1_565 S
H512 C485 0.930 1_656 S
H513 C486 0.931 . S
H514 C488 0.934 . S
H515 C489 0.930 . S
H516 C494 0.930 1_455 S
H517 C495 0.931 . S
H518 C497 0.934 . S
H519 C498 0.930 . S
Ho520 C523 2.811 . S
Ho520 O540 2.322 . S
Ho520 O542 2.378 . S
Ho520 O543 2.524 . S
Ho520 O544 2.381 . S
Ho520 O545 2.669 . S
Ho520 O547 2.346 . S
Ho520 O551 2.305 1_545 S
Ho521 C532 2.811 . S
Ho521 O541 2.346 . S
Ho521 O545 2.305 1_565 S
Ho521 O546 2.322 . S
Ho521 O548 2.378 . S
Ho521 O549 2.524 . S
Ho521 O550 2.381 . S
Ho521 O551 2.669 . S
C522 O540 1.259 1_565 S
C522 O541 1.268 . S
C523 Ho520 2.811 . S
C523 C524 1.488 . S
C523 O542 1.215 . S
C523 O543 1.289 . S
C524 C523 1.488 . S
C524 C525 1.348 1_556 S
C524 C529 1.413 . S
C525 C524 1.348 1_554 S
C525 C526 1.442 . S
C525 H552 0.930 1_544 S
C526 C525 1.442 . S
C526 C527 1.381 . S
C526 H553 0.931 . S
C527 C526 1.381 . S
C527 C528 1.321 . S
C528 C527 1.321 . S
C528 C529 1.403 1_554 S
C528 H554 0.934 . S
C529 C524 1.413 . S
C529 C528 1.403 1_556 S
C529 H555 0.930 . S
C530 O544 1.275 . S
C530 O545 1.256 . S
C531 O546 1.259 1_545 S
C531 O547 1.268 . S
C532 Ho521 2.811 . S
C532 C533 1.488 . S
C532 O548 1.215 . S
C532 O549 1.289 . S
C533 C532 1.488 . S
C533 C534 1.348 . S
C533 C538 1.413 . S
C534 C533 1.348 . S
C534 C535 1.442 . S
C534 H556 0.930 1_565 S
C535 C534 1.442 . S
C535 C536 1.381 . S
C535 H557 0.931 . S
C536 C535 1.381 . S
C536 C537 1.321 . S
C537 C536 1.321 . S
C537 C538 1.403 . S
C537 H558 0.934 . S
C538 C533 1.413 . S
C538 C537 1.403 . S
C538 H559 0.930 . S
C539 O550 1.275 . S
C539 O551 1.256 . S
O540 Ho520 2.322 . S
O540 C522 1.259 1_545 S
O541 Ho521 2.346 . S
O541 C522 1.268 . S
O542 Ho520 2.378 . S
O542 C523 1.215 . S
O543 Ho520 2.524 . S
O543 C523 1.289 . S
O544 Ho520 2.381 . S
O544 C530 1.275 . S
O545 Ho520 2.669 . S
O545 Ho521 2.305 1_545 S
O545 C530 1.256 . S
O546 Ho521 2.322 . S
O546 C531 1.259 1_565 S
O547 Ho520 2.346 . S
O547 C531 1.268 . S
O548 Ho521 2.378 . S
O548 C532 1.215 . S
O549 Ho521 2.524 . S
O549 C532 1.289 . S
O550 Ho521 2.381 . S
O550 C539 1.275 . S
O551 Ho520 2.305 1_565 S
O551 Ho521 2.669 . S
O551 C539 1.256 . S
H552 C525 0.930 1_566 S
H553 C526 0.931 . S
H554 C528 0.934 . S
H555 C529 0.930 . S
H556 C534 0.930 1_545 S
H557 C535 0.931 . S
H558 C537 0.934 . S
H559 C538 0.930 . S
Ho560 C563 2.811 . S
Ho560 O580 2.322 . S
Ho560 O582 2.378 . S
Ho560 O583 2.524 . S
Ho560 O584 2.381 . S
Ho560 O585 2.669 . S
Ho560 O587 2.346 . S
Ho560 O591 2.305 . S
Ho561 C572 2.811 . S
Ho561 O581 2.346 . S
Ho561 O585 2.305 . S
Ho561 O586 2.322 . S
Ho561 O588 2.378 . S
Ho561 O589 2.524 . S
Ho561 O590 2.381 . S
Ho561 O591 2.669 . S
C562 O580 1.259 . S
C562 O581 1.268 . S
C563 Ho560 2.811 . S
C563 C564 1.488 . S
C563 O582 1.215 . S
C563 O583 1.289 . S
C564 C563 1.488 . S
C564 C565 1.348 1_556 S
C564 C569 1.413 . S
C565 C564 1.348 1_554 S
C565 C566 1.442 . S
C565 H592 0.931 . S
C566 C565 1.442 . S
C566 C567 1.381 . S
C566 H593 0.931 . S
C567 C566 1.381 . S
C567 C568 1.321 . S
C568 C567 1.321 . S
C568 C569 1.403 1_554 S
C568 H594 0.934 . S
C569 C564 1.413 . S
C569 C568 1.403 1_556 S
C569 H595 0.930 . S
C570 O584 1.275 . S
C570 O585 1.256 . S
C571 O586 1.259 . S
C571 O587 1.268 . S
C572 Ho561 2.811 . S
C572 C573 1.488 . S
C572 O588 1.215 . S
C572 O589 1.289 . S
C573 C572 1.488 . S
C573 C574 1.348 . S
C573 C578 1.413 . S
C574 C573 1.348 . S
C574 C575 1.442 . S
C574 H596 0.930 . S
C575 C574 1.442 . S
C575 C576 1.381 . S
C575 H597 0.931 . S
C576 C575 1.381 . S
C576 C577 1.321 . S
C577 C576 1.321 . S
C577 C578 1.403 . S
C577 H598 0.934 . S
C578 C573 1.413 . S
C578 C577 1.403 . S
C578 H599 0.930 . S
C579 O590 1.275 . S
C579 O591 1.256 . S
O580 Ho560 2.322 . S
O580 C562 1.259 . S
O581 Ho561 2.346 . S
O581 C562 1.268 . S
O582 Ho560 2.378 . S
O582 C563 1.215 . S
O583 Ho560 2.524 . S
O583 C563 1.289 . S
O584 Ho560 2.381 . S
O584 C570 1.275 . S
O585 Ho560 2.669 . S
O585 Ho561 2.305 . S
O585 C570 1.256 . S
O586 Ho561 2.322 . S
O586 C571 1.259 . S
O587 Ho560 2.346 . S
O587 C571 1.268 . S
O588 Ho561 2.378 . S
O588 C572 1.215 . S
O589 Ho561 2.524 . S
O589 C572 1.289 . S
O590 Ho561 2.381 . S
O590 C579 1.275 . S
O591 Ho560 2.305 . S
O591 Ho561 2.669 . S
O591 C579 1.256 . S
H592 C565 0.931 . S
H593 C566 0.931 . S
H594 C568 0.934 . S
H595 C569 0.930 . S
H596 C574 0.930 . S
H597 C575 0.931 . S
H598 C577 0.934 . S
H599 C578 0.930 . S
Ho600 C603 2.811 . S
Ho600 O620 2.322 . S
Ho600 O622 2.378 . S
Ho600 O623 2.524 . S
Ho600 O624 2.381 . S
Ho600 O625 2.669 1_655 S
Ho600 O627 2.346 1_655 S
Ho600 O631 2.305 . S
Ho601 C612 2.811 . S
Ho601 O621 2.346 1_455 S
Ho601 O625 2.305 . S
Ho601 O626 2.322 . S
Ho601 O628 2.378 . S
Ho601 O629 2.524 . S
Ho601 O630 2.381 . S
Ho601 O631 2.669 1_455 S
C602 O620 1.259 . S
C602 O621 1.268 . S
C603 Ho600 2.811 . S
C603 C604 1.488 . S
C603 O622 1.215 . S
C603 O623 1.289 . S
C604 C603 1.488 . S
C604 C605 1.348 1_556 S
C604 C609 1.413 . S
C605 C604 1.348 1_554 S
C605 C606 1.442 . S
C605 H632 0.929 1_554 S
C606 C605 1.442 . S
C606 C607 1.381 . S
C606 H633 0.931 . S
C607 C606 1.381 . S
C607 C608 1.321 . S
C608 C607 1.321 . S
C608 C609 1.403 1_554 S
C608 H634 0.934 . S
C609 C604 1.413 . S
C609 C608 1.403 1_556 S
C609 H635 0.930 . S
C610 O624 1.281 . S
C610 O625 1.252 1_655 S
C611 O626 1.259 . S
C611 O627 1.268 . S
C612 Ho601 2.811 . S
C612 C613 1.488 . S
C612 O628 1.215 . S
C612 O629 1.289 . S
C613 C612 1.488 . S
C613 C614 1.348 . S
C613 C618 1.413 . S
C614 C613 1.348 . S
C614 C615 1.442 . S
C614 H636 0.930 . S
C615 C614 1.442 . S
C615 C616 1.381 . S
C615 H637 0.931 . S
C616 C615 1.381 . S
C616 C617 1.321 . S
C617 C616 1.321 . S
C617 C618 1.403 . S
C617 H638 0.934 . S
C618 C613 1.413 . S
C618 C617 1.403 . S
C618 H639 0.930 . S
C619 O630 1.286 . S
C619 O631 1.250 1_455 S
O620 Ho600 2.322 . S
O620 C602 1.259 . S
O621 Ho601 2.346 1_655 S
O621 C602 1.268 . S
O622 Ho600 2.378 . S
O622 C603 1.215 . S
O623 Ho600 2.524 . S
O623 C603 1.289 . S
O624 Ho600 2.381 . S
O624 C610 1.281 . S
O625 Ho600 2.669 1_455 S
O625 Ho601 2.305 . S
O625 C610 1.252 1_455 S
O626 Ho601 2.322 . S
O626 C611 1.259 . S
O627 Ho600 2.346 1_455 S
O627 C611 1.268 . S
O628 Ho601 2.378 . S
O628 C612 1.215 . S
O629 Ho601 2.524 . S
O629 C612 1.289 . S
O630 Ho601 2.381 . S
O630 C619 1.286 . S
O631 Ho600 2.305 . S
O631 Ho601 2.669 1_655 S
O631 C619 1.250 1_655 S
H632 C605 0.929 1_556 S
H633 C606 0.931 . S
H634 C608 0.934 . S
H635 C609 0.930 . S
H636 C614 0.930 . S
H637 C615 0.931 . S
H638 C617 0.934 . S
H639 C618 0.930 . S
C640 C641 1.371 . S
C640 C642 1.419 . S
C640 H644 0.930 . S
C641 C640 1.371 . S
C641 C650 1.427 1_545 S
C642 C640 1.419 . S
C642 C643 1.390 . S
C642 H645 0.929 . S
C643 C642 1.390 . S
C643 C649 1.401 1_545 S
H644 C640 0.930 . S
H645 C642 0.929 . S
S646 N647 1.613 . S
S646 N648 1.610 . S
N647 S646 1.613 . S
N647 C650 1.350 . S
N648 S646 1.610 . S
N648 C649 1.351 . S
C649 C643 1.401 1_565 S
C649 N648 1.351 . S
C649 C650 1.434 . S
C650 C641 1.427 1_565 S
C650 N647 1.350 . S
C650 C649 1.434 . S
C651 C652 1.369 . S
C651 C653 1.419 . S
C651 H655 0.930 . S
C652 C651 1.369 . S
C652 C661 1.429 . S
C653 C651 1.419 . S
C653 C654 1.363 . S
C653 H656 0.929 . S
C654 C653 1.363 . S
C654 C660 1.428 . S
H655 C651 0.930 . S
H656 C653 0.929 . S
S657 N658 1.613 . S
S657 N659 1.610 . S
N658 S657 1.613 . S
N658 C661 1.350 . S
N659 S657 1.610 . S
N659 C660 1.351 . S
C660 C654 1.428 . S
C660 N659 1.351 . S
C660 C661 1.434 . S
C661 C652 1.429 . S
C661 N658 1.350 . S
C661 C660 1.434 . S
C662 C663 1.369 . S
C662 C664 1.419 . S
C662 H666 0.930 . S
C663 C662 1.369 . S
C663 C672 1.429 . S
C664 C662 1.419 . S
C664 C665 1.363 . S
C664 H667 0.929 . S
C665 C664 1.363 . S
C665 C671 1.428 . S
H666 C662 0.930 . S
H667 C664 0.929 . S
S668 N669 1.613 . S
S668 N670 1.610 . S
N669 S668 1.613 . S
N669 C672 1.350 . S
N670 S668 1.610 . S
N670 C671 1.351 . S
C671 C665 1.428 . S
C671 N670 1.351 . S
C671 C672 1.434 . S
C672 C663 1.429 . S
C672 N669 1.350 . S
C672 C671 1.434 . S
C673 C674 1.385 . S
C673 C675 1.419 . S
C673 H677 0.930 . S
C674 C673 1.385 . S
C674 C683 1.413 1_455 S
C675 C673 1.419 . S
C675 C676 1.363 . S
C675 H678 0.929 . S
C676 C675 1.363 . S
C676 C682 1.428 1_455 S
H677 C673 0.930 . S
H678 C675 0.929 . S
S679 N680 1.613 . S
S679 N681 1.610 . S
N680 S679 1.613 . S
N680 C683 1.350 . S
N681 S679 1.610 . S
N681 C682 1.351 . S
C682 C676 1.428 1_655 S
C682 N681 1.351 . S
C682 C683 1.434 . S
C683 C674 1.413 1_655 S
C683 N680 1.350 . S
C683 C682 1.434 . S
C684 C685 1.368 1_545 S
C684 C686 1.419 . S
C684 H688 0.933 . S
C685 C684 1.368 1_565 S
C685 C694 1.429 . S
C686 C684 1.419 . S
C686 C687 1.361 1_545 S
C686 H689 0.932 . S
C687 C686 1.361 1_565 S
C687 C693 1.430 . S
H688 C684 0.933 . S
H689 C686 0.932 . S
S690 N691 1.613 1_455 S
S690 N692 1.610 1_455 S
N691 S690 1.613 1_655 S
N691 C694 1.350 . S
N692 S690 1.610 1_655 S
N692 C693 1.351 . S
C693 C687 1.430 . S
C693 N692 1.351 . S
C693 C694 1.434 . S
C694 C685 1.429 . S
C694 N691 1.350 . S
C694 C693 1.434 . S
C695 C696 1.369 . S
C695 C697 1.419 . S
C695 H699 0.930 . S
C696 C695 1.369 . S
C696 C705 1.429 . S
C697 C695 1.419 . S
C697 C698 1.363 . S
C697 H700 0.929 . S
C698 C697 1.363 . S
C698 C704 1.428 . S
H699 C695 0.930 . S
H700 C697 0.929 . S
S701 N702 1.613 1_545 S
S701 N703 1.610 1_545 S
N702 S701 1.613 1_565 S
N702 C705 1.350 . S
N703 S701 1.610 1_565 S
N703 C704 1.351 . S
C704 C698 1.428 . S
C704 N703 1.351 . S
C704 C705 1.434 . S
C705 C696 1.429 . S
C705 N702 1.350 . S
C705 C704 1.434 . S
C706 C707 1.369 . S
C706 C708 1.419 . S
C706 H710 0.930 . S
C707 C706 1.369 . S
C707 C716 1.429 . S
C708 C706 1.419 . S
C708 C709 1.363 . S
C708 H711 0.929 . S
C709 C708 1.363 . S
C709 C715 1.428 . S
H710 C706 0.930 . S
H711 C708 0.929 . S
S712 N713 1.613 . S
S712 N714 1.610 . S
N713 S712 1.613 . S
N713 C716 1.350 . S
N714 S712 1.610 . S
N714 C715 1.351 . S
C715 C709 1.428 . S
C715 N714 1.351 . S
C715 C716 1.434 . S
C716 C707 1.429 . S
C716 N713 1.350 . S
C716 C715 1.434 . S
C717 C718 1.369 1_455 S
C717 C719 1.419 . S
C717 H721 0.930 . S
C718 C717 1.369 1_655 S
C718 C727 1.429 . S
C719 C717 1.419 . S
C719 C720 1.363 1_455 S
C719 H722 0.929 . S
C720 C719 1.363 1_655 S
C720 C726 1.428 . S
H721 C717 0.930 . S
H722 C719 0.929 . S
S723 N724 1.613 . S
S723 N725 1.610 . S
N724 S723 1.613 . S
N724 C727 1.350 . S
N725 S723 1.610 . S
N725 C726 1.351 . S
C726 C720 1.428 . S
C726 N725 1.351 . S
C726 C727 1.434 . S
C727 C718 1.429 . S
C727 N724 1.350 . S
C727 C726 1.434 . S
C728 C729 1.369 1_455 S
C728 C730 1.419 1_455 S
C728 H732 0.930 . S
C729 C728 1.369 1_655 S
C729 C738 1.429 . S
C730 C728 1.419 1_655 S
C730 C731 1.363 . S
C730 H733 0.929 . S
C731 C730 1.363 . S
C731 C737 1.428 . S
H732 C728 0.930 . S
H733 C730 0.929 . S
S734 N735 1.613 . S
S734 N736 1.610 . S
N735 S734 1.613 . S
N735 C738 1.350 . S
N736 S734 1.610 . S
N736 C737 1.351 . S
C737 C731 1.428 . S
C737 N736 1.351 . S
C737 C738 1.434 . S
C738 C729 1.429 . S
C738 N735 1.350 . S
C738 C737 1.434 . S
C739 C740 1.369 1_545 S
C739 C741 1.419 1_545 S
C739 H743 0.930 . S
C740 C739 1.369 1_565 S
C740 C749 1.429 . S
C741 C739 1.419 1_565 S
C741 C742 1.363 . S
C741 H744 0.929 . S
C742 C741 1.363 . S
C742 C748 1.428 . S
H743 C739 0.930 . S
H744 C741 0.929 . S
S745 N746 1.613 . S
S745 N747 1.610 . S
N746 S745 1.613 . S
N746 C749 1.350 . S
N747 S745 1.610 . S
N747 C748 1.351 . S
C748 C742 1.428 . S
C748 N747 1.351 . S
C748 C749 1.434 . S
C749 C740 1.429 . S
C749 N746 1.350 . S
C749 C748 1.434 . S
C750 C751 1.369 . S
C750 C752 1.419 . S
C750 H754 0.930 . S
C751 C750 1.369 . S
C751 C760 1.429 . S
C752 C750 1.419 . S
C752 C753 1.363 . S
C752 H755 0.929 . S
C753 C752 1.363 . S
C753 C759 1.428 . S
H754 C750 0.930 . S
H755 C752 0.929 . S
S756 N757 1.613 . S
S756 N758 1.610 . S
N757 S756 1.613 . S
N757 C760 1.350 . S
N758 S756 1.610 . S
N758 C759 1.351 . S
C759 C753 1.428 . S
C759 N758 1.351 . S
C759 C760 1.434 . S
C760 C751 1.429 . S
C760 N757 1.350 . S
C760 C759 1.434 . S
C761 C762 1.369 . S
C761 C763 1.419 . S
C761 H765 0.930 . S
C762 C761 1.369 . S
C762 C771 1.429 . S
C763 C761 1.419 . S
C763 C764 1.363 . S
C763 H766 0.929 . S
C764 C763 1.363 . S
C764 C770 1.428 . S
H765 C761 0.930 . S
H766 C763 0.929 . S
S767 N768 1.613 . S
S767 N769 1.610 . S
N768 S767 1.613 . S
N768 C771 1.350 . S
N769 S767 1.610 . S
N769 C770 1.351 . S
C770 C764 1.428 . S
C770 N769 1.351 . S
C770 C771 1.434 . S
C771 C762 1.429 . S
C771 N768 1.350 . S
C771 C770 1.434 . S
C772 C773 1.369 . S
C772 C774 1.419 . S
C772 H776 0.930 . S
C773 C772 1.369 . S
C773 C782 1.430 . S
C774 C772 1.419 . S
C774 C775 1.363 . S
C774 H777 0.929 . S
C775 C774 1.363 . S
C775 C781 1.428 . S
H776 C772 0.930 . S
H777 C774 0.929 . S
S778 N779 1.613 . S
S778 N780 1.610 1_655 S
N779 S778 1.613 . S
N779 C782 1.328 1_656 S
N780 S778 1.610 1_455 S
N780 C781 1.351 1_556 S
C781 C775 1.428 . S
C781 N780 1.351 1_554 S
C781 C782 1.457 . S
C782 C773 1.430 . S
C782 N779 1.328 1_454 S
C782 C781 1.457 . S
C783 C784 1.369 . S
C783 C785 1.419 . S
C783 H787 0.930 1_545 S
C784 C783 1.369 . S
C784 C793 1.429 . S
C785 C783 1.419 . S
C785 C786 1.363 . S
C785 H788 0.929 . S
C786 C785 1.363 . S
C786 C792 1.428 . S
H787 C783 0.930 1_565 S
H788 C785 0.929 . S
S789 N790 1.613 1_556 S
S789 N791 1.610 . S
N790 S789 1.613 1_554 S
N790 C793 1.350 . S
N791 S789 1.610 . S
N791 C792 1.351 1_556 S
C792 C786 1.428 . S
C792 N791 1.351 1_554 S
C792 C793 1.434 . S
C793 C784 1.429 . S
C793 N790 1.350 . S
C793 C792 1.434 . S
C794 C795 1.369 . S
C794 C796 1.419 . S
C794 H798 0.930 . S
C795 C794 1.369 . S
C795 C804 1.429 . S
C796 C794 1.419 . S
C796 C797 1.363 . S
C796 H799 0.929 . S
C797 C796 1.363 . S
C797 C803 1.428 . S
H798 C794 0.930 . S
H799 C796 0.929 . S
S800 N801 1.613 . S
S800 N802 1.610 . S
N801 S800 1.613 . S
N801 C804 1.350 . S
N802 S800 1.610 . S
N802 C803 1.351 . S
C803 C797 1.428 . S
C803 N802 1.351 . S
C803 C804 1.434 . S
C804 C795 1.429 . S
C804 N801 1.350 . S
C804 C803 1.434 . S
C805 C806 1.369 . S
C805 C807 1.419 . S
C805 H809 0.930 . S
C806 C805 1.369 . S
C806 C815 1.429 . S
C807 C805 1.419 . S
C807 C808 1.363 . S
C807 H810 0.929 . S
C808 C807 1.363 . S
C808 C814 1.428 . S
H809 C805 0.930 . S
H810 C807 0.929 . S
S811 N812 1.613 . S
S811 N813 1.610 . S
N812 S811 1.613 . S
N812 C815 1.350 . S
N813 S811 1.610 . S
N813 C814 1.351 . S
C814 C808 1.428 . S
C814 N813 1.351 . S
C814 C815 1.434 . S
C815 C806 1.429 . S
C815 N812 1.350 . S
C815 C814 1.434 . S
C816 C817 1.369 . S
C816 C818 1.419 . S
C816 H820 0.930 . S
C817 C816 1.369 . S
C817 C826 1.429 1_455 S
C818 C816 1.419 . S
C818 C819 1.363 . S
C818 H821 0.929 . S
C819 C818 1.363 . S
C819 C825 1.428 1_455 S
H820 C816 0.930 . S
H821 C818 0.929 . S
S822 N823 1.613 . S
S822 N824 1.610 . S
N823 S822 1.613 . S
N823 C826 1.350 . S
N824 S822 1.610 . S
N824 C825 1.351 . S
C825 C819 1.428 1_655 S
C825 N824 1.351 . S
C825 C826 1.434 . S
C826 C817 1.429 1_655 S
C826 N823 1.350 . S
C826 C825 1.434 . S
C827 C828 1.369 . S
C827 C829 1.419 . S
C827 H831 0.930 . S
C828 C827 1.369 . S
C828 C837 1.429 . S
C829 C827 1.419 . S
C829 C830 1.363 . S
C829 H832 0.929 . S
C830 C829 1.363 . S
C830 C836 1.428 . S
H831 C827 0.930 . S
H832 C829 0.929 . S
S833 N834 1.613 . S
S833 N835 1.605 1_565 S
N834 S833 1.613 . S
N834 C837 1.350 1_565 S
N835 S833 1.605 1_545 S
N835 C836 1.356 . S
C836 C830 1.428 . S
C836 N835 1.356 . S
C836 C837 1.434 . S
C837 C828 1.429 . S
C837 N834 1.350 1_545 S
C837 C836 1.434 . S
C838 C839 1.369 . S
C838 C840 1.419 . S
C838 H842 0.930 . S
C839 C838 1.369 . S
C839 C848 1.429 . S
C840 C838 1.419 . S
C840 C841 1.363 . S
C840 H843 0.929 . S
C841 C840 1.363 . S
C841 C847 1.428 . S
H842 C838 0.930 . S
H843 C840 0.929 . S
S844 N845 1.613 . S
S844 N846 1.610 . S
N845 S844 1.613 . S
N845 C848 1.350 . S
N846 S844 1.610 . S
N846 C847 1.351 . S
C847 C841 1.428 . S
C847 N846 1.351 . S
C847 C848 1.434 . S
C848 C839 1.429 . S
C848 N845 1.350 . S
C848 C847 1.434 . S
C849 C850 1.369 . S
C849 C851 1.419 . S
C849 H853 0.930 . S
C850 C849 1.369 . S
C850 C859 1.429 . S
C851 C849 1.419 . S
C851 C852 1.363 . S
C851 H854 0.929 . S
C852 C851 1.363 . S
C852 C858 1.428 . S
H853 C849 0.930 . S
H854 C851 0.929 . S
S855 N856 1.613 . S
S855 N857 1.610 . S
N856 S855 1.613 . S
N856 C859 1.350 . S
N857 S855 1.610 . S
N857 C858 1.351 . S
C858 C852 1.428 . S
C858 N857 1.351 . S
C858 C859 1.434 . S
C859 C850 1.429 . S
C859 N856 1.350 . S
C859 C858 1.434 . S
C860 C861 1.369 . S
C860 C862 1.419 . S
C860 H864 0.930 . S
C861 C860 1.369 . S
C861 C870 1.429 1_655 S
C862 C860 1.419 . S
C862 C863 1.363 . S
C862 H865 0.929 . S
C863 C862 1.363 . S
C863 C869 1.428 1_655 S
H864 C860 0.930 . S
H865 C862 0.929 . S
S866 N867 1.613 . S
S866 N868 1.610 . S
N867 S866 1.613 . S
N867 C870 1.350 . S
N868 S866 1.610 . S
N868 C869 1.351 . S
C869 C863 1.428 1_455 S
C869 N868 1.351 . S
C869 C870 1.434 . S
C870 C861 1.429 1_455 S
C870 N867 1.350 . S
C870 C869 1.434 . S
C871 C872 1.369 . S
C871 C873 1.419 . S
C871 H875 0.930 . S
C872 C871 1.369 . S
C872 C881 1.429 1_565 S
C873 C871 1.419 . S
C873 C874 1.363 . S
C873 H876 0.929 . S
C874 C873 1.363 . S
C874 C880 1.428 1_565 S
H875 C871 0.930 . S
H876 C873 0.929 . S
S877 N878 1.613 . S
S877 N879 1.610 . S
N878 S877 1.613 . S
N878 C881 1.350 . S
N879 S877 1.610 . S
N879 C880 1.351 . S
C880 C874 1.428 1_545 S
C880 N879 1.351 . S
C880 C881 1.434 . S
C881 C872 1.429 1_545 S
C881 N878 1.350 . S
C881 C880 1.434 . S
C882 C883 1.369 . S
C882 C884 1.419 . S
C882 H886 0.930 . S
C883 C882 1.369 . S
C883 C892 1.429 . S
C884 C882 1.419 . S
C884 C885 1.363 . S
C884 H887 0.929 . S
C885 C884 1.363 . S
C885 C891 1.428 . S
H886 C882 0.930 . S
H887 C884 0.929 . S
S888 N889 1.613 . S
S888 N890 1.610 . S
N889 S888 1.613 . S
N889 C892 1.350 . S
N890 S888 1.610 . S
N890 C891 1.351 . S
C891 C885 1.428 . S
C891 N890 1.351 . S
C891 C892 1.434 . S
C892 C883 1.429 . S
C892 N889 1.350 . S
C892 C891 1.434 . S
C893 C894 1.369 . S
C893 C895 1.419 . S
C893 H897 0.930 . S
C894 C893 1.369 . S
C894 C903 1.429 . S
C895 C893 1.419 . S
C895 C896 1.363 . S
C895 H898 0.929 . S
C896 C895 1.363 . S
C896 C902 1.428 . S
H897 C893 0.930 . S
H898 C895 0.929 . S
S899 N900 1.613 . S
S899 N901 1.610 . S
N900 S899 1.613 . S
N900 C903 1.350 . S
N901 S899 1.610 . S
N901 C902 1.351 . S
C902 C896 1.428 . S
C902 N901 1.351 . S
C902 C903 1.434 . S
C903 C894 1.429 . S
C903 N900 1.350 . S
C903 C902 1.434 . S
C641 C391 2.652 . S
C643 C490 2.821 1_545 S
C654 C530 2.836 . S
C652 C451 2.663 . S
C665 C570 2.843 . S
C663 C241 2.322 . S
C676 C610 2.826 1_455 S
C674 C331 2.294 1_455 S
C687 C499 2.822 1_564 S
C685 C121 2.294 . S
C696 C211 2.680 . S
C698 C539 2.838 1_554 S
C707 C31 2.683 . S
C709 C579 2.844 1_554 S
C718 C91 2.289 . S
C720 C619 2.828 1_654 S
C731 C496 0.807 . S
C729 C301 0.779 . S
C742 C536 0.805 . S
C740 C380 0.811 1_565 S
C753 C576 0.764 . S
C751 C440 0.786 . S
C762 C260 0.753 . S
C764 C616 0.780 . S
C773 C61 0.819 1_455 S
C775 C487 0.795 . S
C786 C527 0.804 . S
C784 C140 0.803 1_545 S
C797 C567 0.782 . S
C795 C200 0.759 . S
C806 C20 0.761 . S
C808 C607 0.788 . S
C817 C320 3.422 1_455 S
C819 C491 3.740 . S
C828 C361 2.947 . S
C830 C531 3.719 . S
C841 C571 3.712 . S
C839 C421 2.933 . S
C852 C611 3.740 . S
C850 C271 3.420 . S
C861 C80 3.404 . S
C863 C482 3.749 . S
C874 C522 3.719 . S
C872 C151 3.376 . S
C885 C562 3.713 . S
C883 C181 2.973 . S
C894 C1 2.998 . S
C896 C602 3.744 . S
