# Generated by pormake.
# Topology eea, (3,6)-cn, num edge types: 1
# Building blocks:
#     Node 0, Type 0, BuildingBlock: BETDIP_clean_linker_0, # of connection points: 3
#     Node 1, Type 0, BuildingBlock: BETDIP_clean_linker_0, # of connection points: 3
#     Node 2, Type 0, BuildingBlock: BETDIP_clean_linker_0, # of connection points: 3
#     Node 3, Type 0, BuildingBlock: BETDIP_clean_linker_0, # of connection points: 3
#     Node 4, Type 0, BuildingBlock: BETDIP_clean_linker_0, # of connection points: 3
#     Node 5, Type 0, BuildingBlock: BETDIP_clean_linker_0, # of connection points: 3
#     Node 6, Type 0, BuildingBlock: BETDIP_clean_linker_0, # of connection points: 3
#     Node 7, Type 0, BuildingBlock: BETDIP_clean_linker_0, # of connection points: 3
#     Node 8, Type 0, BuildingBlock: BETDIP_clean_linker_0, # of connection points: 3
#     Node 9, Type 0, BuildingBlock: BETDIP_clean_linker_0, # of connection points: 3
#     Node 10, Type 0, BuildingBlock: BETDIP_clean_linker_0, # of connection points: 3
#     Node 11, Type 0, BuildingBlock: BETDIP_clean_linker_0, # of connection points: 3
#     Node 12, Type 0, BuildingBlock: BETDIP_clean_linker_0, # of connection points: 3
#     Node 13, Type 0, BuildingBlock: BETDIP_clean_linker_0, # of connection points: 3
#     Node 14, Type 0, BuildingBlock: BETDIP_clean_linker_0, # of connection points: 3
#     Node 15, Type 0, BuildingBlock: BETDIP_clean_linker_0, # of connection points: 3
#     Node 16, Type 0, BuildingBlock: BETDIP_clean_linker_0, # of connection points: 3
#     Node 17, Type 0, BuildingBlock: BETDIP_clean_linker_0, # of connection points: 3
#     Node 18, Type 1, BuildingBlock: KUMBOL_clean_sbu_0, # of connection points: 6
#     Node 19, Type 1, BuildingBlock: KUMBOL_clean_sbu_0, # of connection points: 6
#     Node 20, Type 1, BuildingBlock: KUMBOL_clean_sbu_0, # of connection points: 6
#     Node 21, Type 1, BuildingBlock: KUMBOL_clean_sbu_0, # of connection points: 6
#     Node 22, Type 1, BuildingBlock: KUMBOL_clean_sbu_0, # of connection points: 6
#     Node 23, Type 1, BuildingBlock: KUMBOL_clean_sbu_0, # of connection points: 6
#     Node 24, Type 1, BuildingBlock: KUMBOL_clean_sbu_0, # of connection points: 6
#     Node 25, Type 1, BuildingBlock: KUMBOL_clean_sbu_0, # of connection points: 6
#     Node 26, Type 1, BuildingBlock: KUMBOL_clean_sbu_0, # of connection points: 6
#     Edge 27, Type (0, 1), BuildingBlock: OJICUG_clean_linker_0, # of connection points: 2
#     Edge 28, Type (0, 1), BuildingBlock: OJICUG_clean_linker_0, # of connection points: 2
#     Edge 29, Type (0, 1), BuildingBlock: OJICUG_clean_linker_0, # of connection points: 2
#     Edge 30, Type (0, 1), BuildingBlock: OJICUG_clean_linker_0, # of connection points: 2
#     Edge 31, Type (0, 1), BuildingBlock: OJICUG_clean_linker_0, # of connection points: 2
#     Edge 32, Type (0, 1), BuildingBlock: OJICUG_clean_linker_0, # of connection points: 2
#     Edge 33, Type (0, 1), BuildingBlock: OJICUG_clean_linker_0, # of connection points: 2
#     Edge 34, Type (0, 1), BuildingBlock: OJICUG_clean_linker_0, # of connection points: 2
#     Edge 35, Type (0, 1), BuildingBlock: OJICUG_clean_linker_0, # of connection points: 2
#     Edge 36, Type (0, 1), BuildingBlock: OJICUG_clean_linker_0, # of connection points: 2
#     Edge 37, Type (0, 1), BuildingBlock: OJICUG_clean_linker_0, # of connection points: 2
#     Edge 38, Type (0, 1), BuildingBlock: OJICUG_clean_linker_0, # of connection points: 2
#     Edge 39, Type (0, 1), BuildingBlock: OJICUG_clean_linker_0, # of connection points: 2
#     Edge 40, Type (0, 1), BuildingBlock: OJICUG_clean_linker_0, # of connection points: 2
#     Edge 41, Type (0, 1), BuildingBlock: OJICUG_clean_linker_0, # of connection points: 2
#     Edge 42, Type (0, 1), BuildingBlock: OJICUG_clean_linker_0, # of connection points: 2
#     Edge 43, Type (0, 1), BuildingBlock: OJICUG_clean_linker_0, # of connection points: 2
#     Edge 44, Type (0, 1), BuildingBlock: OJICUG_clean_linker_0, # of connection points: 2
#     Edge 45, Type (0, 1), BuildingBlock: OJICUG_clean_linker_0, # of connection points: 2
#     Edge 46, Type (0, 1), BuildingBlock: OJICUG_clean_linker_0, # of connection points: 2
#     Edge 47, Type (0, 1), BuildingBlock: OJICUG_clean_linker_0, # of connection points: 2
#     Edge 48, Type (0, 1), BuildingBlock: OJICUG_clean_linker_0, # of connection points: 2
#     Edge 49, Type (0, 1), BuildingBlock: OJICUG_clean_linker_0, # of connection points: 2
#     Edge 50, Type (0, 1), BuildingBlock: OJICUG_clean_linker_0, # of connection points: 2
#     Edge 51, Type (0, 1), BuildingBlock: OJICUG_clean_linker_0, # of connection points: 2
#     Edge 52, Type (0, 1), BuildingBlock: OJICUG_clean_linker_0, # of connection points: 2
#     Edge 53, Type (0, 1), BuildingBlock: OJICUG_clean_linker_0, # of connection points: 2
#     Edge 54, Type (0, 1), BuildingBlock: OJICUG_clean_linker_0, # of connection points: 2
#     Edge 55, Type (0, 1), BuildingBlock: OJICUG_clean_linker_0, # of connection points: 2
#     Edge 56, Type (0, 1), BuildingBlock: OJICUG_clean_linker_0, # of connection points: 2
#     Edge 57, Type (0, 1), BuildingBlock: OJICUG_clean_linker_0, # of connection points: 2
#     Edge 58, Type (0, 1), BuildingBlock: OJICUG_clean_linker_0, # of connection points: 2
#     Edge 59, Type (0, 1), BuildingBlock: OJICUG_clean_linker_0, # of connection points: 2
#     Edge 60, Type (0, 1), BuildingBlock: OJICUG_clean_linker_0, # of connection points: 2
#     Edge 61, Type (0, 1), BuildingBlock: OJICUG_clean_linker_0, # of connection points: 2
#     Edge 62, Type (0, 1), BuildingBlock: OJICUG_clean_linker_0, # of connection points: 2
#     Edge 63, Type (0, 1), BuildingBlock: OJICUG_clean_linker_0, # of connection points: 2
#     Edge 64, Type (0, 1), BuildingBlock: OJICUG_clean_linker_0, # of connection points: 2
#     Edge 65, Type (0, 1), BuildingBlock: OJICUG_clean_linker_0, # of connection points: 2
#     Edge 66, Type (0, 1), BuildingBlock: OJICUG_clean_linker_0, # of connection points: 2
#     Edge 67, Type (0, 1), BuildingBlock: OJICUG_clean_linker_0, # of connection points: 2
#     Edge 68, Type (0, 1), BuildingBlock: OJICUG_clean_linker_0, # of connection points: 2
#     Edge 69, Type (0, 1), BuildingBlock: OJICUG_clean_linker_0, # of connection points: 2
#     Edge 70, Type (0, 1), BuildingBlock: OJICUG_clean_linker_0, # of connection points: 2
#     Edge 71, Type (0, 1), BuildingBlock: OJICUG_clean_linker_0, # of connection points: 2
#     Edge 72, Type (0, 1), BuildingBlock: OJICUG_clean_linker_0, # of connection points: 2
#     Edge 73, Type (0, 1), BuildingBlock: OJICUG_clean_linker_0, # of connection points: 2
#     Edge 74, Type (0, 1), BuildingBlock: OJICUG_clean_linker_0, # of connection points: 2
#     Edge 75, Type (0, 1), BuildingBlock: OJICUG_clean_linker_0, # of connection points: 2
#     Edge 76, Type (0, 1), BuildingBlock: OJICUG_clean_linker_0, # of connection points: 2
#     Edge 77, Type (0, 1), BuildingBlock: OJICUG_clean_linker_0, # of connection points: 2
#     Edge 78, Type (0, 1), BuildingBlock: OJICUG_clean_linker_0, # of connection points: 2
#     Edge 79, Type (0, 1), BuildingBlock: OJICUG_clean_linker_0, # of connection points: 2
#     Edge 80, Type (0, 1), BuildingBlock: OJICUG_clean_linker_0, # of connection points: 2
# Relax obj value: 0.026
# Max RMSD: 0.186
# Mean RMSD: 0.132
data_MOF--net-eea--node1-KUMBOL_clean_sbu_0--node2-BETDIP_clean_linker_0--edge1-OJICUG_clean_linker_0
_symmetry_space_group_name_H-M    P1
_symmetry_Int_Tables_number       1
_symmetry_cell_setting            triclinic
loop_
_symmetry_equiv_pos_as_xyz
'x, y, z'
_cell_length_a     38.759295
_cell_length_b     40.33119
_cell_length_c     52.069365
_cell_angle_alpha  89.637939
_cell_angle_beta   89.533619
_cell_angle_gamma 120.1516
loop_
_atom_site_label
_atom_site_type_symbol
_atom_site_fract_x
_atom_site_fract_y
_atom_site_fract_z
_atom_type_partial_charge
H0 H 0.21491 0.08464 0.37927 0.0
H1 H 0.28153 0.16887 0.43655 0.0
H2 H 0.28683 0.06576 0.43373 0.0
H3 H 0.23799 0.18682 0.43057 0.0
C4 C 0.22994 0.18237 0.41047 0.0
C5 C 0.2351 0.094 0.39535 0.0
C6 C 0.24953 0.07054 0.40497 0.0
C7 C 0.24567 0.12922 0.40683 0.0
C8 C 0.27192 0.14145 0.42774 0.0
C9 C 0.28581 0.1181 0.43783 0.0
C10 C 0.27482 0.083 0.42629 0.0
N11 N 0.22975 0.15174 0.3969 0.0
H12 H 0.94938 0.13754 0.36979 0.0
H13 H 0.8628 0.10088 0.43155 0.0
H14 H 0.95951 0.21689 0.42848 0.0
H15 H 0.86134 0.0445 0.425 0.0
C16 C 0.85836 0.04328 0.40424 0.0
C17 C 0.93859 0.14369 0.38737 0.0
C18 C 0.95867 0.18106 0.39749 0.0
C19 C 0.90424 0.11426 0.3998 0.0
C20 C 0.8898 0.12281 0.4222 0.0
C21 C 0.90966 0.1596 0.43273 0.0
C22 C 0.94415 0.1884 0.42038 0.0
N23 N 0.88358 0.0767 0.38915 0.0
H24 H 0.88697 0.80469 0.36671 0.0
H25 H 0.92775 0.76735 0.43142 0.0
H26 H 0.81292 0.75977 0.43446 0.0
H27 H 0.98974 0.84961 0.3992 0.0
C28 C 0.98577 0.82469 0.38877 0.0
C29 C 0.88255 0.79381 0.38626 0.0
C30 C 0.84657 0.7835 0.39945 0.0
C31 C 0.9123 0.78873 0.39802 0.0
C32 C 0.90566 0.77293 0.42301 0.0
C33 C 0.86942 0.76153 0.43619 0.0
C34 C 0.84066 0.7678 0.42436 0.0
N35 N 0.94636 0.79454 0.38359 0.0
H36 H 0.08746 0.20539 0.66441 0.0
H37 H 0.17133 0.23994 0.60133 0.0
H38 H 0.07091 0.25767 0.59682 0.0
H39 H 0.15262 0.16548 0.62402 0.0
C40 C 0.17036 0.18663 0.6383 0.0
C41 C 0.09677 0.2174 0.64523 0.0
C42 C 0.0742 0.23018 0.63159 0.0
C43 C 0.13173 0.22062 0.6342 0.0
C44 C 0.14412 0.23696 0.60953 0.0
C45 C 0.12261 0.25079 0.59591 0.0
C46 C 0.08755 0.24686 0.60705 0.0
N47 N 0.15616 0.21031 0.6486 0.0
H48 H 0.8131 0.88549 0.6521 0.0
H49 H 0.75196 0.90846 0.59239 0.0
H50 H 0.74479 0.79933 0.59587 0.0
H51 H 0.7972 0.96788 0.59759 0.0
C52 C 0.80429 0.97098 0.61786 0.0
C53 C 0.79472 0.87615 0.63516 0.0
C54 C 0.77972 0.83863 0.62587 0.0
C55 C 0.78608 0.90205 0.62275 0.0
C56 C 0.76044 0.88959 0.6016 0.0
C57 C 0.74546 0.8526 0.59191 0.0
C58 C 0.75577 0.82758 0.60382 0.0
N59 N 0.80282 0.9401 0.63219 0.0
H60 H 0.13003 0.91645 0.6548 0.0
H61 H 0.11349 0.83574 0.59604 0.0
H62 H 0.21442 0.94964 0.59163 0.0
H63 H 0.05736 0.87368 0.65693 0.0
C64 C 0.05437 0.84573 0.65391 0.0
C65 C 0.13975 0.90997 0.63694 0.0
C66 C 0.17503 0.93827 0.62439 0.0
C67 C 0.11768 0.87288 0.62658 0.0
C68 C 0.13075 0.86432 0.60382 0.0
C69 C 0.16491 0.89213 0.59072 0.0
C70 C 0.18693 0.92885 0.60118 0.0
N71 N 0.08324 0.84251 0.63882 0.0
H72 H 0.87961 0.41677 0.71258 0.0
H73 H 0.94459 0.49979 0.77088 0.0
H74 H 0.95006 0.39679 0.76757 0.0
H75 H 0.90154 0.51817 0.76439 0.0
C76 C 0.89398 0.51399 0.74421 0.0
C77 C 0.89933 0.4258 0.7289 0.0
C78 C 0.91348 0.40216 0.73857 0.0
C79 C 0.90958 0.46077 0.74063 0.0
C80 C 0.93523 0.47256 0.76186 0.0
C81 C 0.94887 0.44902 0.77196 0.0
C82 C 0.93822 0.41418 0.76014 0.0
N83 N 0.894 0.4835 0.73061 0.0
H84 H 0.6158 0.47073 0.70326 0.0
H85 H 0.52938 0.43409 0.76511 0.0
H86 H 0.62619 0.55006 0.76204 0.0
H87 H 0.5278 0.37768 0.75849 0.0
C88 C 0.5248 0.37647 0.73774 0.0
C89 C 0.60507 0.47688 0.72086 0.0
C90 C 0.62522 0.51425 0.731 0.0
C91 C 0.57073 0.44746 0.73331 0.0
C92 C 0.55636 0.45602 0.75575 0.0
C93 C 0.57629 0.4928 0.7663 0.0
C94 C 0.61077 0.52159 0.75392 0.0
N95 N 0.55001 0.4099 0.72266 0.0
H96 H 0.55292 0.13811 0.6999 0.0
H97 H 0.59516 0.10207 0.76452 0.0
H98 H 0.4795 0.0927 0.76785 0.0
H99 H 0.6571 0.18161 0.73507 0.0
C100 C 0.65271 0.15769 0.72328 0.0
C101 C 0.54875 0.12724 0.71944 0.0
C102 C 0.51279 0.11662 0.73275 0.0
C103 C 0.57891 0.12275 0.7311 0.0
C104 C 0.57271 0.10716 0.75614 0.0
C105 C 0.53643 0.09528 0.76942 0.0
C106 C 0.50723 0.101 0.75766 0.0
N107 N 0.61319 0.12938 0.71658 0.0
H108 H 0.75523 0.5394 0.99807 0.0
H109 H 0.83909 0.57376 0.935 0.0
H110 H 0.73854 0.59129 0.93032 0.0
H111 H 0.81977 0.49903 0.95799 0.0
C112 C 0.83775 0.52028 0.97216 0.0
C113 C 0.76453 0.55135 0.97887 0.0
C114 C 0.74191 0.564 0.96517 0.0
C115 C 0.79951 0.55458 0.96788 0.0
C116 C 0.81187 0.5708 0.94318 0.0
C117 C 0.79031 0.5845 0.92949 0.0
C118 C 0.75523 0.58057 0.9406 0.0
N119 N 0.82395 0.54435 0.98232 0.0
H120 H 0.48124 0.21919 0.98536 0.0
H121 H 0.41939 0.24168 0.92587 0.0
H122 H 0.4133 0.13302 0.92904 0.0
H123 H 0.46378 0.30118 0.93126 0.0
C124 C 0.47123 0.30431 0.95146 0.0
C125 C 0.46283 0.2098 0.96843 0.0
C126 C 0.44808 0.17234 0.95908 0.0
C127 C 0.45385 0.23555 0.95612 0.0
C128 C 0.42814 0.22296 0.935 0.0
C129 C 0.41343 0.18606 0.92524 0.0
C130 C 0.42408 0.16121 0.93705 0.0
N131 N 0.47032 0.27355 0.96563 0.0
H132 H 0.80506 0.24902 0.992 0.0
H133 H 0.7804 0.16955 0.93088 0.0
H134 H 0.88205 0.28294 0.9248 0.0
H135 H 0.72775 0.2078 0.99182 0.0
C136 C 0.72491 0.17978 0.98948 0.0
C137 C 0.8123 0.24306 0.9731 0.0
C138 C 0.84725 0.2708 0.95993 0.0
C139 C 0.78816 0.20651 0.96238 0.0
C140 C 0.79887 0.19792 0.93872 0.0
C141 C 0.83236 0.2254 0.9249 0.0
C142 C 0.85601 0.26182 0.93546 0.0
N143 N 0.75455 0.17638 0.97543 0.0
H144 H 0.5499 0.75155 0.04591 0.0
H145 H 0.61707 0.83582 0.10304 0.0
H146 H 0.62167 0.73234 0.1003 0.0
H147 H 0.57352 0.85384 0.09721 0.0
C148 C 0.56548 0.84946 0.0771 0.0
C149 C 0.57016 0.76088 0.06195 0.0
C150 C 0.58443 0.73729 0.07157 0.0
C151 C 0.58096 0.79616 0.0734 0.0
C152 C 0.60729 0.80835 0.09426 0.0
C153 C 0.62103 0.78488 0.10435 0.0
C154 C 0.6098 0.74969 0.09285 0.0
N155 N 0.56516 0.81879 0.0635 0.0
H156 H 0.28486 0.80364 0.03813 0.0
H157 H 0.19711 0.77072 0.09897 0.0
H158 H 0.2956 0.8854 0.09514 0.0
H159 H 0.18703 0.7133 0.0929 0.0
C160 C 0.18906 0.71137 0.07222 0.0
C161 C 0.27402 0.81058 0.05535 0.0
C162 C 0.29435 0.84838 0.06485 0.0
C163 C 0.23913 0.78184 0.06782 0.0
C164 C 0.22458 0.79168 0.08964 0.0
C165 C 0.24501 0.82868 0.09976 0.0
C166 C 0.27991 0.8567 0.08738 0.0
N167 N 0.21822 0.74381 0.05774 0.0
H168 H 0.22109 0.47175 0.03358 0.0
H169 H 0.26241 0.43471 0.09817 0.0
H170 H 0.14709 0.42606 0.10129 0.0
H171 H 0.32457 0.51549 0.06806 0.0
C172 C 0.32037 0.49126 0.05669 0.0
C173 C 0.2167 0.46073 0.05309 0.0
C174 C 0.18067 0.45013 0.0663 0.0
C175 C 0.24664 0.45591 0.0648 0.0
C176 C 0.24014 0.44006 0.08977 0.0
C177 C 0.20381 0.42827 0.10294 0.0
C178 C 0.17486 0.43431 0.09116 0.0
N179 N 0.28091 0.46235 0.05036 0.0
H180 H 0.42099 0.87194 0.331 0.0
H181 H 0.50503 0.90662 0.26801 0.0
H182 H 0.40476 0.92458 0.26347 0.0
H183 H 0.48634 0.8322 0.29046 0.0
C184 C 0.50401 0.85326 0.30481 0.0
C185 C 0.43036 0.88402 0.31184 0.0
C186 C 0.40788 0.89691 0.29821 0.0
C187 C 0.46533 0.88722 0.30083 0.0
C188 C 0.47781 0.90365 0.2762 0.0
C189 C 0.4564 0.91759 0.26259 0.0
C190 C 0.42133 0.91368 0.2737 0.0
N191 N 0.48967 0.87678 0.31521 0.0
H192 H 0.14542 0.55198 0.3186 0.0
H193 H 0.08373 0.57477 0.25917 0.0
H194 H 0.07741 0.466 0.26219 0.0
H195 H 0.12842 0.63421 0.2645 0.0
C196 C 0.13587 0.63734 0.28471 0.0
C197 C 0.12701 0.54264 0.30167 0.0
C198 C 0.11221 0.50519 0.29228 0.0
C199 C 0.11812 0.56847 0.28939 0.0
C200 C 0.09241 0.55598 0.26827 0.0
C201 C 0.07764 0.51909 0.25846 0.0
C202 C 0.08821 0.49416 0.27024 0.0
N203 N 0.13472 0.60649 0.29891 0.0
H204 H 0.4633 0.5835 0.32131 0.0
H205 H 0.44684 0.50262 0.26269 0.0
H206 H 0.54777 0.61651 0.25822 0.0
H207 H 0.39072 0.54078 0.32353 0.0
C208 C 0.38772 0.51282 0.32054 0.0
C209 C 0.47302 0.57696 0.30347 0.0
C210 C 0.50832 0.60522 0.29092 0.0
C211 C 0.45096 0.53985 0.29316 0.0
C212 C 0.46408 0.53121 0.27044 0.0
C213 C 0.49827 0.55899 0.25734 0.0
C214 C 0.52026 0.59575 0.26775 0.0
N215 N 0.4165 0.50952 0.3054 0.0
Gd216 Gd 0.5181 0.03286 0.04952 0.0
Gd217 Gd 0.496 0.98879 0.98508 0.0
C218 C 0.38231 0.8748 0.97075 0.0
C219 C 0.40854 0.83254 0.96158 0.0
C220 C 0.45363 0.89982 0.97069 0.0
C221 C 0.42157 0.90541 0.97407 0.0
C222 C 0.44761 0.86361 0.96368 0.0
C223 C 0.37592 0.83811 0.96516 0.0
C224 C 0.35082 0.88231 0.97223 0.0
C225 C 0.35908 0.91987 0.97581 0.0
N226 N 0.42894 0.94137 0.97894 0.0
C227 C 0.39859 0.94931 0.97871 0.0
H228 H 0.40451 0.97816 0.98154 0.0
C229 C 0.52353 0.9278 0.96588 0.0
N230 N 0.49089 0.93057 0.97256 0.0
C231 C 0.51912 0.89246 0.95886 0.0
C232 C 0.48101 0.86008 0.95812 0.0
H233 H 0.55305 0.9527 0.96657 0.0
H234 H 0.34596 0.81415 0.96279 0.0
H235 H 0.6077 0.03934 0.05598 0.0
H236 H 0.32021 0.85958 0.96988 0.0
H237 H 0.33503 0.92616 0.9764 0.0
H238 H 0.40325 0.80437 0.95648 0.0
H239 H 0.46328 0.07346 0.063 0.0
H240 H 0.6943 0.1558 0.07165 0.0
H241 H 0.67711 0.08874 0.06422 0.0
H242 H 0.61585 0.21679 0.07968 0.0
H243 H 0.54509 0.89021 0.9541 0.0
H244 H 0.47766 0.83276 0.95261 0.0
H245 H 0.67122 0.20352 0.07708 0.0
H246 H 0.47355 0.13732 0.0739 0.0
N247 N 0.58532 0.07792 0.05797 0.0
C248 C 0.66363 0.13417 0.06802 0.0
C249 C 0.65403 0.09635 0.06388 0.0
C250 C 0.63335 0.14343 0.06808 0.0
C251 C 0.59394 0.11421 0.06314 0.0
C252 C 0.61446 0.06835 0.05919 0.0
N253 N 0.52529 0.09232 0.06109 0.0
C254 C 0.56292 0.12168 0.06465 0.0
C255 C 0.49897 0.13336 0.07127 0.0
C256 C 0.53766 0.16428 0.07395 0.0
C257 C 0.49325 0.09723 0.06518 0.0
C258 C 0.57022 0.15856 0.07104 0.0
H259 H 0.54201 0.19221 0.07881 0.0
O260 O 0.48327 0.01805 0.08504 0.0
O261 O 0.47469 0.98447 0.02553 0.0
O262 O 0.47212 0.02964 0.99123 0.0
O263 O 0.51356 0.07343 0.02165 0.0
O264 O 0.45133 0.00805 0.05018 0.0
O265 O 0.53376 0.00919 0.08196 0.0
O266 O 0.53138 0.00816 0.94979 0.0
O267 O 0.53891 0.03644 0.0094 0.0
O268 O 0.54155 0.99174 0.04381 0.0
O269 O 0.50397 0.94883 0.01171 0.0
O270 O 0.56341 0.01574 0.98343 0.0
O271 O 0.47514 0.00698 0.9521 0.0
C272 C 0.4424 0.98123 0.03379 0.0
C273 C 0.60958 0.18818 0.07495 0.0
C274 C 0.6411 0.18062 0.07348 0.0
C275 C 0.50587 0.00768 0.09694 0.0
C276 C 0.51802 0.02233 0.1231 0.0
C277 C 0.54434 0.06146 0.12705 0.0
C278 C 0.50369 0.99693 0.14433 0.0
C279 C 0.5159 0.01052 0.16944 0.0
C280 C 0.5564 0.07515 0.1518 0.0
C281 C 0.54238 0.04997 0.17285 0.0
C282 C 0.48829 0.06359 1.00243 0.0
C283 C 0.57156 0.04112 1.00081 0.0
C284 C 0.50523 0.01312 0.9374 0.0
C285 C 0.49566 0.99705 0.91132 0.0
C286 C 0.47505 0.95723 0.90809 0.0
C287 C 0.50724 0.02142 0.88948 0.0
C288 C 0.49778 0.00587 0.86455 0.0
C289 C 0.4662 0.94171 0.88357 0.0
C290 C 0.47742 0.96572 0.86198 0.0
C291 C 0.52715 0.95829 0.03209 0.0
H292 H 0.55561 0.08138 0.11102 0.0
H293 H 0.48358 0.96662 0.14124 0.0
H294 H 0.57665 0.10543 0.1547 0.0
H295 H 0.55187 0.06151 0.19188 0.0
H296 H 0.4658 0.93808 0.9245 0.0
H297 H 0.52281 0.05224 0.89191 0.0
H298 H 0.45046 0.91091 0.88128 0.0
H299 H 0.47027 0.95278 0.84318 0.0
Gd300 Gd 0.98842 0.482 0.04619 0.0
Gd301 Gd 0.0417 0.50328 0.984 0.0
C302 C 0.1607 0.50646 0.97551 0.0
C303 C 0.20625 0.57353 0.96487 0.0
C304 C 0.13566 0.5505 0.97196 0.0
C305 C 0.12897 0.51406 0.97701 0.0
C306 C 0.17411 0.58038 0.96498 0.0
C307 C 0.19956 0.53663 0.9702 0.0
C308 C 0.15215 0.46854 0.97837 0.0
C309 C 0.11256 0.43919 0.9814 0.0
N310 N 0.09092 0.48547 0.98145 0.0
C311 C 0.08208 0.44816 0.98244 0.0
H312 H 0.05164 0.42521 0.98487 0.0
C313 C 0.10774 0.58961 0.96297 0.0
N314 N 0.10383 0.55589 0.97182 0.0
C315 C 0.14528 0.62014 0.95582 0.0
C316 C 0.17875 0.61573 0.95725 0.0
H317 H 0.08199 0.59321 0.96199 0.0
H318 H 0.22439 0.53144 0.96926 0.0
H319 H 0.98561 0.56398 0.04852 0.0
H320 H 0.17568 0.4615 0.97746 0.0
H321 H 0.10549 0.40966 0.983 0.0
H322 H 0.23612 0.59623 0.95987 0.0
H323 H 0.94039 0.38921 0.06314 0.0
H324 H 0.8636 0.53544 0.05422 0.0
H325 H 0.93537 0.58412 0.05139 0.0
H326 H 0.79294 0.39859 0.06364 0.0
H327 H 0.1484 0.64707 0.94933 0.0
H328 H 0.20778 0.63938 0.95165 0.0
H329 H 0.81052 0.46599 0.05819 0.0
H330 H 0.87106 0.33697 0.07138 0.0
N331 N 0.94287 0.50427 0.04942 0.0
C332 C 0.88556 0.52637 0.05307 0.0
C333 C 0.92605 0.55393 0.05156 0.0
C334 C 0.87399 0.48747 0.05393 0.0
C335 C 0.90378 0.47722 0.05233 0.0
C336 C 0.95449 0.54234 0.04993 0.0
N337 N 0.92371 0.43109 0.0555 0.0
C338 C 0.89386 0.43937 0.0554 0.0
C339 C 0.87704 0.3656 0.06679 0.0
C340 C 0.84568 0.37321 0.06537 0.0
C341 C 0.9162 0.3952 0.06221 0.0
C342 C 0.85394 0.41061 0.06012 0.0
H343 H 0.81539 0.35028 0.06907 0.0
O344 O 0.99861 0.46189 0.08251 0.0
O345 O 0.0417 0.48825 0.02521 0.0
O346 O 0.997 0.43922 0.98987 0.0
O347 O 0.94895 0.4358 0.01861 0.0
O348 O 1.01299 0.4419 0.04994 0.0
O349 O 1.00348 0.51781 0.0799 0.0
O350 O 0.0268 0.51735 0.94696 0.0
O351 O 0.98955 0.49764 1.00549 0.0
O352 O 0.0359 0.54569 0.04198 0.0
O353 O 0.08144 0.55192 0.00988 0.0
O354 O 0.01416 0.54137 0.97909 0.0
O355 O 0.02735 0.46425 0.95211 0.0
C356 C 0.04336 0.4602 0.03475 0.0
C357 C 0.82386 0.42034 0.06033 0.0
C358 C 0.83388 0.45872 0.05723 0.0
C359 C 1.00381 0.49197 0.09494 0.0
C360 C 0.98225 0.48439 0.11953 0.0
C361 C 0.94125 0.4714 0.12047 0.0
C362 C 1.00309 0.48985 0.14243 0.0
C363 C 0.98323 0.48238 0.16635 0.0
C364 C 0.92124 0.46371 0.14409 0.0
C365 C 0.94201 0.46913 0.16692 0.0
C366 C 0.96051 0.42093 1.00022 0.0
C367 C 0.98566 0.5242 0.99573 0.0
C368 C 0.02383 0.48714 0.93593 0.0
C369 C 0.04473 0.49383 0.91113 0.0
C370 C 0.08633 0.51044 0.90972 0.0
C371 C 0.02271 0.48419 0.88847 0.0
C372 C 0.04208 0.4915 0.86441 0.0
C373 C 0.10577 0.51798 0.8859 0.0
C374 C 0.08384 0.50877 0.8633 0.0
C375 C 0.07114 0.56518 0.02996 0.0
H376 H 0.92476 0.46724 0.10306 0.0
H377 H 0.03494 0.50054 0.14157 0.0
H378 H 0.88954 0.45354 0.1447 0.0
H379 H 0.92577 0.46273 0.185 0.0
H380 H 0.10376 0.51759 0.92691 0.0
H381 H 0.99054 0.47145 0.88956 0.0
H382 H 0.1379 0.53092 0.88496 0.0
H383 H 0.09939 0.5145 0.84499 0.0
Gd384 Gd 0.51481 0.5321 0.97952 0.0
Gd385 Gd 0.54152 0.50935 0.04252 0.0
C386 C 0.65826 0.50935 0.05328 0.0
C387 C 0.63476 0.44202 0.06218 0.0
C388 C 0.58734 0.46364 0.05462 0.0
C389 C 0.61839 0.50075 0.05088 0.0
C390 C 0.59511 0.43403 0.06108 0.0
C391 C 0.6663 0.47962 0.05823 0.0
C392 C 0.68874 0.54771 0.05151 0.0
C393 C 0.67897 0.57644 0.04853 0.0
N394 N 0.60951 0.52883 0.04658 0.0
C395 C 0.63893 0.56647 0.04651 0.0
H396 H 0.63179 0.58894 0.04411 0.0
C397 C 0.51798 0.42226 0.06104 0.0
N398 N 0.54946 0.45708 0.05379 0.0
C399 C 0.52414 0.39193 0.06755 0.0
C400 C 0.56283 0.39767 0.06718 0.0
H401 H 0.48802 0.41767 0.06117 0.0
H402 H 0.69674 0.48559 0.05986 0.0
H403 H 0.42459 0.45159 0.97859 0.0
H404 H 0.71977 0.55551 0.05314 0.0
H405 H 0.70225 0.60626 0.04771 0.0
H406 H 0.64136 0.41958 0.06683 0.0
H407 H 0.5658 0.62178 0.95709 0.0
H408 H 0.33535 0.48353 0.97122 0.0
H409 H 0.35395 0.43347 0.97604 0.0
H410 H 0.41185 0.61899 0.95533 0.0
H411 H 0.49907 0.36415 0.07274 0.0
H412 H 0.56754 0.37417 0.07229 0.0
H413 H 0.35728 0.55311 0.96405 0.0
H414 H 0.55358 0.67432 0.94481 0.0
N415 N 0.44631 0.51166 0.97604 0.0
C416 C 0.36653 0.49173 0.97238 0.0
C417 C 0.37693 0.4634 0.97498 0.0
C418 C 0.3966 0.53017 0.97015 0.0
C419 C 0.43671 0.53926 0.97187 0.0
C420 C 0.41718 0.47387 0.97642 0.0
N421 N 0.50516 0.58294 0.96701 0.0
C422 C 0.46722 0.5762 0.96712 0.0
C423 C 0.52903 0.64694 0.95123 0.0
C424 C 0.49041 0.64122 0.95283 0.0
C425 C 0.53584 0.61714 0.95813 0.0
C426 C 0.45876 0.60525 0.96034 0.0
H427 H 0.48518 0.66429 0.9474 0.0
O428 O 0.54787 0.54872 0.94328 0.0
O429 O 0.56015 0.52592 1.00177 0.0
O430 O 0.56213 0.57294 0.03819 0.0
O431 O 0.52553 0.58074 1.00545 0.0
O432 O 0.5816 0.57196 0.97679 0.0
O433 O 0.49337 0.494 0.94689 0.0
O434 O 0.51008 0.49186 0.07927 0.0
O435 O 0.49679 0.51617 0.02036 0.0
O436 O 0.49294 0.46845 0.98499 0.0
O437 O 0.53342 0.46273 0.01547 0.0
O438 O 0.47425 0.47078 0.04575 0.0
O439 O 0.56388 0.54729 0.07515 0.0
C440 C 0.59182 0.55396 0.99273 0.0
C441 C 0.41897 0.59696 0.96017 0.0
C442 C 0.3879 0.55945 0.96512 0.0
C443 C 0.52168 0.51812 0.93147 0.0
C444 C 0.50926 0.52426 0.90611 0.0
C445 C 0.48095 0.53602 0.90398 0.0
C446 C 0.52572 0.51807 0.88376 0.0
C447 C 0.51371 0.52324 0.8593 0.0
C448 C 0.46921 0.54157 0.87984 0.0
C449 C 0.48535 0.53518 0.85762 0.0
C450 C 0.54809 0.59277 0.02613 0.0
C451 C 0.46466 0.48906 0.02962 0.0
C452 C 0.53639 0.52277 0.09087 0.0
C453 C 0.55016 0.51715 0.11589 0.0
C454 C 0.57614 0.50254 0.11744 0.0
C455 C 0.53716 0.52651 0.13852 0.0
C456 C 0.54973 0.52095 0.16268 0.0
C457 C 0.58874 0.49699 0.14127 0.0
C458 C 0.57561 0.50603 0.16378 0.0
C459 C 0.50886 0.44946 0.99583 0.0
H460 H 0.4678 0.54072 0.92093 0.0
H461 H 0.54723 0.50851 0.88546 0.0
H462 H 0.44741 0.55076 0.87833 0.0
H463 H 0.47587 0.53987 0.83911 0.0
H464 H 0.58676 0.49552 0.10031 0.0
H465 H 0.51689 0.53761 0.13732 0.0
H466 H 0.60884 0.48573 0.1423 0.0
H467 H 0.58614 0.50183 0.18205 0.0
Gd468 Gd 0.18259 0.36585 0.38276 0.0
Gd469 Gd 0.15996 0.32136 0.31842 0.0
C470 C 0.04606 0.20753 0.30417 0.0
C471 C 0.07208 0.16509 0.29505 0.0
C472 C 0.11734 0.23235 0.30412 0.0
C473 C 0.08536 0.23807 0.30747 0.0
C474 C 0.11119 0.19608 0.29715 0.0
C475 C 0.03954 0.17079 0.29862 0.0
C476 C 0.01464 0.21515 0.30567 0.0
C477 C 0.02301 0.25274 0.30925 0.0
N478 N 0.09284 0.27407 0.31233 0.0
C479 C 0.06256 0.28212 0.31213 0.0
H480 H 0.06857 0.31099 0.31496 0.0
C481 C 0.18721 0.26013 0.29933 0.0
N482 N 0.15465 0.26302 0.306 0.0
C483 C 0.18268 0.22473 0.29233 0.0
C484 C 0.14452 0.19241 0.29161 0.0
H485 H 0.21678 0.28496 0.3 0.0
H486 H 1.00955 0.14688 0.29626 0.0
H487 H 0.27216 0.37206 0.38862 0.0
H488 H 0.984 0.19247 0.30334 0.0
H489 H 0.99903 0.25912 0.30985 0.0
H490 H 0.0667 0.13688 0.28998 0.0
H491 H 0.12824 0.4068 0.39659 0.0
H492 H 0.35928 0.48851 0.40385 0.0
H493 H 0.34176 0.42135 0.39643 0.0
H494 H 0.28133 0.54992 0.41253 0.0
H495 H 0.20859 0.22237 0.28759 0.0
H496 H 0.14107 0.16505 0.28613 0.0
H497 H 0.33651 0.53641 0.40954 0.0
H498 H 0.13889 0.47079 0.40751 0.0
N499 N 0.24998 0.41079 0.39084 0.0
C500 C 0.32853 0.46693 0.40041 0.0
C501 C 0.31874 0.42905 0.39628 0.0
C502 C 0.29834 0.4763 0.40071 0.0
C503 C 0.25881 0.44714 0.39601 0.0
C504 C 0.27906 0.40111 0.39184 0.0
N505 N 0.19019 0.42545 0.39435 0.0
C506 C 0.2279 0.45475 0.39772 0.0
C507 C 0.16421 0.46671 0.40473 0.0
C508 C 0.20299 0.49757 0.40722 0.0
C509 C 0.15828 0.43051 0.39863 0.0
C510 C 0.23543 0.4917 0.40411 0.0
H511 H 0.20751 0.52555 0.41208 0.0
O512 O 0.1481 0.3513 0.41842 0.0
O513 O 0.13897 0.3175 0.35888 0.0
O514 O 0.13626 0.3624 0.32444 0.0
O515 O 0.1776 0.40621 0.35492 0.0
O516 O 0.11585 0.3412 0.38364 0.0
O517 O 0.19836 0.34212 0.41511 0.0
O518 O 0.19561 0.34086 0.28325 0.0
O519 O 0.203 0.36917 0.34257 0.0
O520 O 0.20574 0.32448 0.37707 0.0
O521 O 0.16789 0.28142 0.3451 0.0
O522 O 0.22731 0.34806 0.31676 0.0
O523 O 0.13909 0.33919 0.28526 0.0
C524 C 0.10677 0.31439 0.36722 0.0
C525 C 0.27489 0.52125 0.4078 0.0
C526 C 0.3063 0.51356 0.40611 0.0
C527 C 0.17067 0.34078 0.4302 0.0
C528 C 0.18311 0.35543 0.45634 0.0
C529 C 0.20955 0.39453 0.46025 0.0
C530 C 0.16899 0.33001 0.47757 0.0
C531 C 0.18149 0.34358 0.50265 0.0
C532 C 0.2219 0.4082 0.48498 0.0
C533 C 0.20808 0.38302 0.50603 0.0
C534 C 0.15236 0.39634 0.33566 0.0
C535 C 0.23558 0.37369 0.33398 0.0
C536 C 0.1694 0.34554 0.2707 0.0
C537 C 0.16022 0.32943 0.24463 0.0
C538 C 0.13955 0.2896 0.24142 0.0
C539 C 0.17235 0.35379 0.22278 0.0
C540 C 0.16338 0.33823 0.19785 0.0
C541 C 0.13119 0.27408 0.21689 0.0
C542 C 0.14296 0.29809 0.19528 0.0
C543 C 0.19119 0.29094 0.36543 0.0
H544 H 0.22068 0.41446 0.44422 0.0
H545 H 0.14881 0.29971 0.47449 0.0
H546 H 0.24224 0.43847 0.48785 0.0
H547 H 0.21779 0.39456 0.52503 0.0
H548 H 0.12989 0.27046 0.25785 0.0
H549 H 0.18796 0.38461 0.22521 0.0
H550 H 0.11541 0.24327 0.21461 0.0
H551 H 0.13616 0.28515 0.17647 0.0
Gd552 Gd 0.65444 0.81462 0.37993 0.0
Gd553 Gd 0.70683 0.83598 0.31699 0.0
C554 C 0.80842 0.80944 0.31184 0.0
C555 C 0.86625 0.87281 0.30515 0.0
C556 C 0.79989 0.86485 0.30907 0.0
C557 C 0.78363 0.82578 0.31243 0.0
C558 C 0.84119 0.8886 0.30434 0.0
C559 C 0.84988 0.83328 0.30896 0.0
C560 C 0.79072 0.76955 0.31353 0.0
C561 C 0.74926 0.74695 0.31486 0.0
N562 N 0.74342 0.80355 0.31509 0.0
C563 C 0.72592 0.76443 0.31538 0.0
H564 H 0.69403 0.74628 0.31672 0.0
C565 C 0.78838 0.91568 0.29924 0.0
N566 N 0.77484 0.87911 0.30806 0.0
C567 C 0.8291 0.94049 0.29459 0.0
C568 C 0.85578 0.9271 0.2977 0.0
H569 H 0.76769 0.926 0.29669 0.0
H570 H 0.86941 0.82129 0.30884 0.0
H571 H 0.65386 0.8979 0.38082 0.0
H572 H 0.80871 0.75592 0.31322 0.0
H573 H 0.73521 0.71602 0.31571 0.0
H574 H 0.89812 0.89069 0.30195 0.0
H575 H 0.60564 0.72471 0.40262 0.0
H576 H 0.53283 0.87241 0.38588 0.0
H577 H 0.60499 0.91973 0.38284 0.0
H578 H 0.45966 0.73636 0.39934 0.0
H579 H 0.83984 0.96982 0.28853 0.0
H580 H 0.88729 0.94626 0.29388 0.0
H581 H 0.47856 0.80363 0.39121 0.0
H582 H 0.53623 0.67428 0.41298 0.0
N583 N 0.61003 0.83849 0.3823 0.0
C584 C 0.5542 0.86259 0.38508 0.0
C585 C 0.5949 0.88938 0.38348 0.0
C586 C 0.54168 0.82351 0.38672 0.0
C587 C 0.57075 0.81227 0.38557 0.0
C588 C 0.62258 0.8768 0.38235 0.0
N589 N 0.58945 0.76569 0.3911 0.0
C590 C 0.56006 0.77452 0.39001 0.0
C591 C 0.54245 0.70226 0.40634 0.0
C592 C 0.51141 0.71006 0.40348 0.0
C593 C 0.58166 0.73084 0.40056 0.0
C594 C 0.52012 0.74685 0.39588 0.0
H595 H 0.4811 0.68798 0.40817 0.0
O596 O 0.66651 0.79554 0.41612 0.0
O597 O 0.70732 0.82099 0.35819 0.0
O598 O 0.6539 0.77478 0.31831 0.0
O599 O 0.61457 0.76425 0.35525 0.0
O600 O 0.6787 0.77433 0.38282 0.0
O601 O 0.66981 0.85064 0.41353 0.0
O602 O 0.70412 0.86157 0.28083 0.0
O603 O 0.65497 0.83031 0.339 0.0
O604 O 0.7027 0.87784 0.37669 0.0
O605 O 0.74533 0.8864 0.34199 0.0
O606 O 0.68111 0.87559 0.3135 0.0
O607 O 0.68891 0.80197 0.28233 0.0
C608 C 0.70886 0.79272 0.36747 0.0
C609 C 0.49061 0.75732 0.39526 0.0
C610 C 0.50138 0.79563 0.39066 0.0
C611 C 0.67109 0.82534 0.42856 0.0
C612 C 0.64962 0.8175 0.45321 0.0
C613 C 0.60875 0.80512 0.45425 0.0
C614 C 0.67045 0.82257 0.47606 0.0
C615 C 0.65069 0.8153 0.5 0.0
C616 C 0.5888 0.7974 0.47788 0.0
C617 C 0.60955 0.80241 0.50066 0.0
C618 C 0.62172 0.75348 0.33284 0.0
C619 C 0.65184 0.85756 0.32959 0.0
C620 C 0.69442 0.83069 0.26778 0.0
C621 C 0.71601 0.83589 0.2434 0.0
C622 C 0.75758 0.85195 0.24248 0.0
C623 C 0.69445 0.82489 0.22054 0.0
C624 C 0.71423 0.83045 0.19678 0.0
C625 C 0.77742 0.85771 0.21894 0.0
C626 C 0.75595 0.84725 0.19614 0.0
C627 C 0.73616 0.89848 0.36312 0.0
H628 H 0.59232 0.80161 0.4369 0.0
H629 H 0.70224 0.83299 0.47514 0.0
H630 H 0.5572 0.78765 0.47855 0.0
H631 H 0.5934 0.79613 0.51876 0.0
H632 H 0.77475 0.86011 0.2598 0.0
H633 H 0.66231 0.81247 0.22121 0.0
H634 H 0.80952 0.87027 0.21838 0.0
H635 H 0.7718 0.85169 0.17806 0.0
Gd636 Gd 0.18115 0.8659 0.3126 0.0
Gd637 Gd 0.20739 0.8428 0.37561 0.0
C638 C 0.324 0.84254 0.38634 0.0
C639 C 0.30037 0.77519 0.3952 0.0
C640 C 0.25306 0.79693 0.38767 0.0
C641 C 0.28416 0.83402 0.38394 0.0
C642 C 0.26075 0.76727 0.39412 0.0
C643 C 0.33196 0.81276 0.39126 0.0
C644 C 0.35453 0.88089 0.38462 0.0
C645 C 0.34483 0.90967 0.38169 0.0
N646 N 0.27534 0.86216 0.37968 0.0
C647 C 0.30481 0.89978 0.37968 0.0
H648 H 0.29772 0.92229 0.37732 0.0
C649 C 0.18369 0.75567 0.39416 0.0
N650 N 0.2152 0.79046 0.38687 0.0
C651 C 0.18978 0.7253 0.40066 0.0
C652 C 0.22843 0.73095 0.40024 0.0
H653 H 0.15376 0.75116 0.39432 0.0
H654 H 0.36239 0.81868 0.39288 0.0
H655 H 0.09083 0.78549 0.31146 0.0
H656 H 0.38554 0.88863 0.38625 0.0
H657 H 0.36815 0.93948 0.38091 0.0
H658 H 0.30692 0.7527 0.39983 0.0
H659 H 0.23244 0.95564 0.29033 0.0
H660 H 1.00184 0.81771 0.30388 0.0
H661 H 0.02026 0.76754 0.30874 0.0
H662 H 0.07867 0.95321 0.28822 0.0
H663 H 0.16468 0.69755 0.40588 0.0
H664 H 0.23308 0.70741 0.40535 0.0
H665 H 0.02396 0.88735 0.29678 0.0
H666 H 0.22042 0.0083 0.27801 0.0
N667 N 0.1127 0.84559 0.30897 0.0
C668 C 0.033 0.82584 0.30512 0.0
C669 C 0.04329 0.79744 0.30774 0.0
C670 C 0.06314 0.86427 0.30297 0.0
C671 C 0.10322 0.87327 0.30479 0.0
C672 C 0.08351 0.80783 0.30928 0.0
N673 N 0.17173 0.91689 0.30015 0.0
C674 C 0.13381 0.91022 0.30015 0.0
C675 C 0.1958 0.98093 0.28438 0.0
C676 C 0.15721 0.97529 0.2859 0.0
C677 C 0.2025 0.95107 0.29131 0.0
C678 C 0.12547 0.93934 0.29335 0.0
H679 H 0.15207 0.99841 0.28046 0.0
O680 O 0.21473 0.88264 0.27656 0.0
O681 O 0.22626 0.85938 0.33489 0.0
O682 O 0.22806 0.90644 0.3714 0.0
O683 O 0.19171 0.91443 0.33858 0.0
O684 O 0.24797 0.90568 0.31012 0.0
O685 O 0.15965 0.82835 0.27968 0.0
O686 O 0.17595 0.82525 0.41238 0.0
O687 O 0.16281 0.84981 0.3534 0.0
O688 O 0.1591 0.8022 0.31789 0.0
O689 O 0.19906 0.79606 0.3486 0.0
O690 O 0.14009 0.80437 0.37876 0.0
O691 O 0.22974 0.88068 0.40828 0.0
C692 C 0.25804 0.88744 0.32597 0.0
C693 C 0.0857 0.93112 0.29307 0.0
C694 C 0.05456 0.89362 0.29793 0.0
C695 C 0.18837 0.85244 0.26448 0.0
C696 C 0.17656 0.85939 0.23913 0.0
C697 C 0.14854 0.87151 0.23703 0.0
C698 C 0.19343 0.85375 0.21677 0.0
C699 C 0.18212 0.85985 0.19231 0.0
C700 C 0.13754 0.87804 0.21291 0.0
C701 C 0.15411 0.87222 0.19068 0.0
C702 C 0.21411 0.92635 0.35933 0.0
C703 C 0.13062 0.82272 0.36261 0.0
C704 C 0.20227 0.85612 0.424 0.0
C705 C 0.2161 0.85045 0.44899 0.0
C706 C 0.24207 0.83582 0.45045 0.0
C707 C 0.20321 0.85981 0.47168 0.0
C708 C 0.21587 0.85422 0.4958 0.0
C709 C 0.25476 0.83024 0.47424 0.0
C710 C 0.24173 0.83927 0.4968 0.0
C711 C 0.17466 0.78297 0.32886 0.0
H712 H 0.13506 0.87577 0.25397 0.0
H713 H 0.21469 0.84387 0.21843 0.0
H714 H 0.11598 0.88752 0.21143 0.0
H715 H 0.14516 0.87762 0.17219 0.0
H716 H 0.25262 0.82882 0.43329 0.0
H717 H 0.18295 0.87094 0.47055 0.0
H718 H 0.27485 0.81896 0.4752 0.0
H719 H 0.25234 0.83505 0.51503 0.0
Gd720 Gd 0.84941 0.69878 0.71615 0.0
Gd721 Gd 0.82637 0.65443 0.65176 0.0
C722 C 0.7122 0.54084 0.63748 0.0
C723 C 0.73798 0.49825 0.62819 0.0
C724 C 0.78345 0.56545 0.63733 0.0
C725 C 0.75155 0.57128 0.64077 0.0
C726 C 0.77715 0.52915 0.63028 0.0
C727 C 0.70554 0.50407 0.63184 0.0
C728 C 0.68087 0.54857 0.63908 0.0
C729 C 0.68938 0.58618 0.64276 0.0
N730 N 0.75917 0.6073 0.64572 0.0
C731 C 0.72897 0.61546 0.64563 0.0
H732 H 0.73508 0.64436 0.64854 0.0
C733 C 0.85329 0.59302 0.6325 0.0
N734 N 0.82081 0.59603 0.63921 0.0
C735 C 0.84861 0.55759 0.62544 0.0
C736 C 0.81039 0.52537 0.62469 0.0
H737 H 0.8829 0.61779 0.6332 0.0
H738 H 0.6755 0.48023 0.62949 0.0
H739 H 0.93888 0.70472 0.72178 0.0
H740 H 0.65019 0.52597 0.63677 0.0
H741 H 0.66546 0.59265 0.64346 0.0
H742 H 0.73249 0.47002 0.62306 0.0
H743 H 0.79535 0.73996 0.73019 0.0
H744 H 0.02634 0.82109 0.73694 0.0
H745 H 1.00858 0.75387 0.72947 0.0
H746 H 0.94876 0.88284 0.7459 0.0
H747 H 0.87446 0.55514 0.62066 0.0
H748 H 0.80683 0.49798 0.61915 0.0
H749 H 1.00379 0.86914 0.74275 0.0
H750 H 0.80625 0.80403 0.74117 0.0
N751 N 0.91689 0.74359 0.72412 0.0
C752 C 0.99554 0.79957 0.73355 0.0
C753 C 0.98562 0.76166 0.72939 0.0
C754 C 0.96543 0.80905 0.73395 0.0
C755 C 0.92584 0.77996 0.72931 0.0
C756 C 0.94589 0.7338 0.72502 0.0
N757 N 0.85725 0.75845 0.7278 0.0
C758 C 0.89502 0.78768 0.73111 0.0
C759 C 0.8315 0.79986 0.73831 0.0
C760 C 0.87034 0.83065 0.74074 0.0
C761 C 0.82543 0.76362 0.73218 0.0
C762 C 0.90269 0.82467 0.73753 0.0
H763 H 0.87497 0.85866 0.74563 0.0
O764 O 0.81508 0.68424 0.75187 0.0
O765 O 0.80558 0.65055 0.69228 0.0
O766 O 0.80284 0.69552 0.65802 0.0
O767 O 0.84451 0.73926 0.68842 0.0
O768 O 0.78268 0.67424 0.71721 0.0
O769 O 0.86532 0.67506 0.74844 0.0
O770 O 0.86173 0.67375 0.61646 0.0
O771 O 0.86962 0.70209 0.67591 0.0
O772 O 0.87236 0.65732 0.71025 0.0
O773 O 0.83412 0.61431 0.67837 0.0
O774 O 0.89372 0.68103 0.64991 0.0
O775 O 0.80553 0.67266 0.61878 0.0
C776 C 0.77346 0.64747 0.70073 0.0
C777 C 0.9422 0.85415 0.74116 0.0
C778 C 0.97353 0.84634 0.73937 0.0
C779 C 0.83773 0.67375 0.7636 0.0
C780 C 0.85032 0.68848 0.7897 0.0
C781 C 0.8768 0.72759 0.79354 0.0
C782 C 0.83628 0.66314 0.81097 0.0
C783 C 0.84892 0.6768 0.83603 0.0
C784 C 0.88928 0.74135 0.81823 0.0
C785 C 0.87554 0.71625 0.83932 0.0
C786 C 0.81914 0.72946 0.66925 0.0
C787 C 0.90213 0.7066 0.6672 0.0
C788 C 0.83562 0.67877 0.60408 0.0
C789 C 0.82606 0.66274 0.57799 0.0
C790 C 0.805 0.62292 0.57474 0.0
C791 C 0.83816 0.68715 0.55615 0.0
C792 C 0.82877 0.67166 0.53121 0.0
C793 C 0.79622 0.60745 0.5502 0.0
C794 C 0.80796 0.63151 0.52862 0.0
C795 C 0.85749 0.62373 0.69866 0.0
H796 H 0.88786 0.74746 0.77748 0.0
H797 H 0.81607 0.63283 0.80795 0.0
H798 H 0.90964 0.77163 0.82105 0.0
H799 H 0.88534 0.72786 0.8583 0.0
H800 H 0.79536 0.60375 0.59115 0.0
H801 H 0.85408 0.71797 0.55861 0.0
H802 H 0.78014 0.57665 0.5479 0.0
H803 H 0.80084 0.61861 0.50981 0.0
Gd804 Gd 0.32077 0.14778 0.71343 0.0
Gd805 Gd 0.37302 0.16919 0.65045 0.0
C806 C 0.47615 0.14491 0.64497 0.0
C807 C 0.53313 0.2087 0.63788 0.0
C808 C 0.46631 0.19955 0.6421 0.0
C809 C 0.45078 0.1606 0.64563 0.0
C810 C 0.50746 0.22382 0.63713 0.0
C811 C 0.51749 0.1693 0.64187 0.0
C812 C 0.45912 0.1051 0.64675 0.0
C813 C 0.41771 0.08193 0.64821 0.0
N814 N 0.41065 0.13784 0.64845 0.0
C815 C 0.39378 0.09879 0.64877 0.0
H816 H 0.36194 0.08024 0.65019 0.0
C817 C 0.45341 0.24947 0.63216 0.0
N818 N 0.44066 0.21311 0.64112 0.0
C819 C 0.49396 0.27478 0.62726 0.0
C820 C 0.52126 0.26212 0.6303 0.0
H821 H 0.43225 0.25924 0.62973 0.0
H822 H 0.53747 0.15782 0.64169 0.0
H823 H 0.32061 0.23127 0.71443 0.0
H824 H 0.47757 0.09196 0.64641 0.0
H825 H 0.40417 0.05105 0.64912 0.0
H826 H 0.5649 0.227 0.6345 0.0
H827 H 0.27168 0.05779 0.73595 0.0
H828 H 0.19975 0.20625 0.71969 0.0
H829 H 0.27196 0.25336 0.71656 0.0
H830 H 0.12611 0.07018 0.73306 0.0
H831 H 0.50409 0.30395 0.62108 0.0
H832 H 0.55263 0.28167 0.62629 0.0
H833 H 0.14529 0.13755 0.72503 0.0
H834 H 0.20221 0.00752 0.74631 0.0
N835 N 0.2766 0.17191 0.71594 0.0
C836 C 0.22102 0.19631 0.71884 0.0
C837 C 0.26175 0.22298 0.71719 0.0
C838 C 0.20835 0.1572 0.72047 0.0
C839 C 0.23729 0.14581 0.71925 0.0
C840 C 0.28931 0.21025 0.716 0.0
N841 N 0.25572 0.099 0.72461 0.0
C842 C 0.22645 0.108 0.72362 0.0
C843 C 0.20855 0.03557 0.73975 0.0
C844 C 0.17761 0.04355 0.737 0.0
C845 C 0.24778 0.06406 0.73396 0.0
C846 C 0.18647 0.08043 0.7295 0.0
H847 H 0.14728 0.02155 0.74169 0.0
O848 O 0.3329 0.12847 0.74951 0.0
O849 O 0.37353 0.15406 0.69162 0.0
O850 O 0.32064 0.10771 0.65203 0.0
O851 O 0.28079 0.09756 0.68865 0.0
O852 O 0.34478 0.10728 0.71615 0.0
O853 O 0.3363 0.18363 0.74713 0.0
O854 O 0.36902 0.19395 0.61425 0.0
O855 O 0.32121 0.1635 0.67253 0.0
O856 O 0.3692 0.21096 0.71021 0.0
O857 O 0.41174 0.21955 0.67544 0.0
O858 O 0.3473 0.2088 0.64705 0.0
O859 O 0.35528 0.1348 0.61597 0.0
C860 C 0.37496 0.12569 0.70082 0.0
C861 C 0.15709 0.09106 0.72896 0.0
C862 C 0.16802 0.12942 0.72442 0.0
C863 C 0.33765 0.15826 0.76204 0.0
C864 C 0.31641 0.15037 0.78679 0.0
C865 C 0.27548 0.1377 0.78801 0.0
C866 C 0.33751 0.15564 0.80955 0.0
C867 C 0.31797 0.14828 0.83358 0.0
C868 C 0.25575 0.1299 0.81172 0.0
C869 C 0.27677 0.1351 0.83441 0.0
C870 C 0.28822 0.08658 0.66641 0.0
C871 C 0.31808 0.19077 0.66317 0.0
C872 C 0.35985 0.1631 0.60132 0.0
C873 C 0.38127 0.16854 0.57684 0.0
C874 C 0.42284 0.1847 0.57579 0.0
C875 C 0.35957 0.15771 0.55404 0.0
C876 C 0.37921 0.16354 0.5302 0.0
C877 C 0.44255 0.19072 0.55217 0.0
C878 C 0.42094 0.18043 0.52943 0.0
C879 C 0.40265 0.23161 0.69662 0.0
H880 H 0.25884 0.13401 0.77073 0.0
H881 H 0.36934 0.16626 0.80849 0.0
H882 H 0.2241 0.11993 0.81253 0.0
H883 H 0.26077 0.12874 0.85258 0.0
H884 H 0.44011 0.19271 0.59307 0.0
H885 H 0.32742 0.14522 0.55482 0.0
H886 H 0.47466 0.20335 0.55151 0.0
H887 H 0.4367 0.18505 0.51129 0.0
Gd888 Gd 0.84722 0.19847 0.64581 0.0
Gd889 Gd 0.87357 0.17579 0.70894 0.0
C890 C 0.99028 0.17582 0.72001 0.0
C891 C 0.96675 0.10853 0.72906 0.0
C892 C 0.91936 0.13012 0.72132 0.0
C893 C 0.95042 0.16721 0.71754 0.0
C894 C 0.9271 0.10054 0.72788 0.0
C895 C 0.9983 0.14611 0.72508 0.0
C896 C 0.02077 0.21418 0.71821 0.0
C897 C 1.011 0.24289 0.71513 0.0
N898 N 0.94154 0.19528 0.71314 0.0
C899 C 0.97096 0.23292 0.71305 0.0
H900 H 0.96383 0.25538 0.71057 0.0
C901 C 0.84999 0.08877 0.72768 0.0
N902 N 0.88149 0.12357 0.72042 0.0
C903 C 0.85612 0.05846 0.73429 0.0
C904 C 0.89481 0.0642 0.73401 0.0
H905 H 0.82003 0.08419 0.72775 0.0
H906 H 0.02874 0.15209 0.72676 0.0
H907 H 0.75705 0.11793 0.64471 0.0
H908 H 0.05178 0.22198 0.71989 0.0
H909 H 0.03428 0.27271 0.71428 0.0
H910 H 0.97333 0.0861 0.73379 0.0
H911 H 0.89833 0.28828 0.62358 0.0
H912 H 0.66779 0.14982 0.63712 0.0
H913 H 0.68641 0.09978 0.64201 0.0
H914 H 0.7443 0.28533 0.6214 0.0
H915 H 0.83103 0.0307 0.73951 0.0
H916 H 0.8995 0.04072 0.73921 0.0
H917 H 0.68972 0.21941 0.62998 0.0
H918 H 0.88612 0.34084 0.61131 0.0
N919 N 0.77874 0.17799 0.64217 0.0
C920 C 0.69897 0.15803 0.63835 0.0
C921 C 0.70938 0.12971 0.64099 0.0
C922 C 0.72904 0.19648 0.63617 0.0
C923 C 0.76915 0.20559 0.63797 0.0
C924 C 0.74963 0.1402 0.64252 0.0
N925 N 0.83762 0.24934 0.63329 0.0
C926 C 0.79967 0.24256 0.63329 0.0
C927 C 0.86154 0.31341 0.61763 0.0
C928 C 0.8229 0.30763 0.61911 0.0
C929 C 0.86835 0.2836 0.62452 0.0
C930 C 0.79122 0.27161 0.62651 0.0
H931 H 0.81767 0.33071 0.61369 0.0
O932 O 0.88045 0.21519 0.60964 0.0
O933 O 0.89246 0.19232 0.66821 0.0
O934 O 0.89415 0.23935 0.70449 0.0
O935 O 0.85742 0.2469 0.67174 0.0
O936 O 0.91402 0.23837 0.64324 0.0
O937 O 0.82593 0.16045 0.61313 0.0
O938 O 0.84192 0.15846 0.74563 0.0
O939 O 0.82891 0.18247 0.6866 0.0
O940 O 0.82541 0.13486 0.65129 0.0
O941 O 0.86562 0.12912 0.68199 0.0
O942 O 0.8063 0.13712 0.71201 0.0
O943 O 0.89575 0.21384 0.74153 0.0
C944 C 0.92419 0.22037 0.65923 0.0
C945 C 0.75141 0.26329 0.62624 0.0
C946 C 0.72034 0.22576 0.63112 0.0
C947 C 0.85432 0.18461 0.59777 0.0
C948 C 0.84201 0.19082 0.57239 0.0
C949 C 0.8137 0.20256 0.57021 0.0
C950 C 0.85859 0.1847 0.55007 0.0
C951 C 0.84668 0.18992 0.52559 0.0
C952 C 0.80207 0.20817 0.54604 0.0
C953 C 0.81833 0.20185 0.52386 0.0
C954 C 0.8799 0.25899 0.69244 0.0
C955 C 0.79675 0.15534 0.69579 0.0
C956 C 0.86816 0.18939 0.75723 0.0
C957 C 0.88182 0.18382 0.78231 0.0
C958 C 0.90795 0.1694 0.78391 0.0
C959 C 0.86855 0.19298 0.80494 0.0
C960 C 0.88099 0.18733 0.82912 0.0
C961 C 0.92045 0.16381 0.80776 0.0
C962 C 0.90705 0.17261 0.83025 0.0
C963 C 0.84125 0.11588 0.66225 0.0
H964 H 0.80046 0.20721 0.58713 0.0
H965 H 0.8801 0.17515 0.55181 0.0
H966 H 0.78027 0.21735 0.5445 0.0
H967 H 0.80892 0.20657 0.50533 0.0
H968 H 0.91878 0.16256 0.7668 0.0
H969 H 0.84819 0.20397 0.80371 0.0
H970 H 0.94068 0.1527 0.80882 0.0
H971 H 0.91751 0.16837 0.84853 0.0
C972 C 0.3637 0.87652 0.04513 0.0
C973 C 0.33039 0.88009 0.05169 0.0
H974 H 0.42591 0.90601 0.03413 0.0
C975 C 0.33325 0.91604 0.04842 0.0
H976 H 0.36247 0.84925 0.04748 0.0
C977 C 0.36922 0.9482 0.04086 0.0
C978 C 0.40325 0.94533 0.03599 0.0
H979 H 0.308 0.91967 0.05287 0.0
H980 H 0.37089 0.97583 0.03987 0.0
C981 C 0.39998 0.90898 0.03746 0.0
C982 C 0.15186 0.48816 0.04619 0.0
C983 C 0.14734 0.45279 0.05422 0.0
H984 H 0.12233 0.51868 0.03406 0.0
C985 C 0.10917 0.41998 0.05354 0.0
H986 H 0.18084 0.51397 0.04679 0.0
C987 C 0.07604 0.42256 0.04604 0.0
C988 C 0.08006 0.45799 0.03896 0.0
H989 H 0.10476 0.39236 0.05963 0.0
H990 H 0.0469 0.39684 0.04645 0.0
C991 C 0.1184 0.49083 0.0389 0.0
C992 C 0.56695 0.66839 0.07519 0.0
C993 C 0.57319 0.69973 0.05972 0.0
H994 H 0.5546 0.61045 0.07665 0.0
C995 C 0.57022 0.69522 0.03292 0.0
H996 H 0.56794 0.67036 0.09593 0.0
C997 C 0.56189 0.66044 0.02192 0.0
C998 C 0.55679 0.62964 0.0374 0.0
H999 H 0.57535 0.71882 0.02038 0.0
H1000 H 0.5606 0.65813 1.00131 0.0
C1001 C 0.55925 0.63394 0.06415 0.0
C1002 C 0.9174 0.32447 0.96766 0.0
C1003 C 0.87597 0.3085 0.97166 0.0
H1004 H 0.97616 0.37205 0.97322 0.0
C1005 C 0.86276 0.32941 0.98618 0.0
H1006 H 0.92899 0.30891 0.95726 0.0
C1007 C 0.89018 0.36568 0.99574 0.0
C1008 C 0.93144 0.38195 0.99097 0.0
H1009 H 0.83121 0.31825 0.98958 0.0
H1010 H 0.87891 0.38133 1.00637 0.0
C1011 C 0.94464 0.36073 0.97696 0.0
C1012 C 0.7011 0.59431 0.97654 0.0
C1013 C 0.70494 0.56146 0.97618 0.0
H1014 H 0.66259 0.61746 0.98251 0.0
C1015 C 0.67179 0.52602 0.98357 0.0
H1016 H 0.72606 0.62199 0.97094 0.0
C1017 C 0.63506 0.52333 0.98991 0.0
C1018 C 0.63115 0.55621 0.98961 0.0
H1019 H 0.67372 0.50015 0.98319 0.0
H1020 H 0.60949 0.49542 0.99418 0.0
C1021 C 0.66475 0.59171 0.98314 0.0
C1022 C 0.43006 0.10509 0.97185 0.0
C1023 C 0.45773 0.14476 0.9719 0.0
H1024 H 0.41823 0.04852 0.98111 0.0
C1025 C 0.49491 0.15745 0.98359 0.0
H1026 H 0.4006 0.09407 0.96393 0.0
C1027 C 0.5044 0.13114 0.9943 0.0
C1028 C 0.47732 0.09158 0.99301 0.0
H1029 H 0.51725 0.1876 0.98385 0.0
H1030 H 0.53347 0.1417 1.00278 0.0
C1031 C 0.43996 0.07885 0.98192 0.0
C1032 C 0.68275 0.10816 0.9942 0.0
C1033 C 0.68615 0.14451 0.99541 0.0
H1034 H 0.64377 0.04717 0.99534 0.0
C1035 C 0.65163 0.14667 1.00039 0.0
H1036 H 0.70872 0.10539 0.99049 0.0
C1037 C 0.61426 0.11312 1.00302 0.0
C1038 C 0.61092 0.07682 1.00135 0.0
H1039 H 0.6533 0.17426 1.00128 0.0
H1040 H 0.58796 0.11564 1.00562 0.0
C1041 C 0.64557 0.07476 0.99702 0.0
C1042 C 0.87579 0.48741 0.98357 0.0
C1043 C 0.87469 0.52158 0.98122 0.0
H1044 H 0.9113 0.46134 0.99063 0.0
C1045 C 0.91004 0.55667 0.98482 0.0
H1046 H 0.84908 0.46001 0.98053 0.0
C1047 C 0.94608 0.55749 0.98979 0.0
C1048 C 0.94706 0.52324 0.99248 0.0
H1049 H 0.91019 0.58346 0.98263 0.0
H1050 H 0.97324 0.58492 0.9916 0.0
C1051 C 0.91143 0.48818 0.98944 0.0
C1052 C 0.46647 0.36327 0.95232 0.0
C1053 C 0.48045 0.3407 0.96365 0.0
H1054 H 0.46347 0.41461 0.95386 0.0
C1055 C 0.5036 0.35368 0.98584 0.0
H1056 H 0.44861 0.3538 0.93514 0.0
C1057 C 0.51314 0.38916 0.99626 0.0
C1058 C 0.49861 0.41164 0.98517 0.0
H1059 H 0.51518 0.33697 0.99472 0.0
H1060 H 0.5323 0.39908 0.01276 0.0
C1061 C 0.47502 0.39812 0.9631 0.0
C1062 C 0.16622 0.66236 0.03698 0.0
C1063 C 0.15886 0.67513 0.06025 0.0
H1064 H 0.14529 0.61695 0.00988 0.0
C1065 C 0.1224 0.65203 0.07321 0.0
H1066 H 0.19432 0.67932 0.02679 0.0
C1067 C 0.09362 0.61693 0.06308 0.0
C1068 C 0.10102 0.60353 0.04 0.0
H1069 H 0.11606 0.66121 0.09127 0.0
H1070 H 0.0659 0.60003 0.07366 0.0
C1071 C 0.13788 0.62663 0.02722 0.0
C1072 C 0.39237 0.52491 0.04286 0.0
C1073 C 0.35618 0.49043 0.04695 0.0
H1074 H 0.4548 0.55165 0.03333 0.0
C1075 C 0.35552 0.45557 0.04361 0.0
H1076 H 0.39377 0.55219 0.04542 0.0
C1077 C 0.39071 0.45527 0.03741 0.0
C1078 C 0.42693 0.48976 0.03334 0.0
H1079 H 0.32822 0.42855 0.04691 0.0
H1080 H 0.38972 0.42802 0.03595 0.0
C1081 C 0.42727 0.52461 0.03583 0.0
C1082 C 0.56887 0.91239 0.07621 0.0
C1083 C 0.55612 0.87691 0.0646 0.0
H1084 H 0.57073 0.96606 0.07487 0.0
C1085 C 0.53419 0.86821 0.04186 0.0
H1086 H 0.58584 0.91972 0.09379 0.0
C1087 C 0.52459 0.89453 0.0312 0.0
C1088 C 0.5377 0.93034 0.04272 0.0
H1089 H 0.52365 0.84081 0.03267 0.0
H1090 H 0.50653 0.88654 0.01416 0.0
C1091 C 0.56016 0.93895 0.0653 0.0
C1092 C 0.99767 0.24922 0.38202 0.0
C1093 C 0.99473 0.21317 0.3847 0.0
H1094 H 0.03542 0.30916 0.374 0.0
C1095 C 0.02797 0.20966 0.37785 0.0
H1096 H 0.97247 0.2528 0.38676 0.0
C1097 C 0.06426 0.2422 0.37042 0.0
C1098 C 0.0676 0.27859 0.3694 0.0
H1099 H 0.02666 0.18229 0.37978 0.0
H1100 H 0.09013 0.23923 0.36685 0.0
C1101 C 0.03366 0.28148 0.37462 0.0
C1102 C 0.81745 0.82148 0.37967 0.0
C1103 C 0.81324 0.78607 0.38728 0.0
H1104 H 0.78752 0.85174 0.36774 0.0
C1105 C 0.77528 0.75306 0.3862 0.0
H1106 H 0.84625 0.84745 0.38064 0.0
C1107 C 0.74205 0.75542 0.37862 0.0
C1108 C 0.74576 0.79081 0.37177 0.0
H1109 H 0.77109 0.72542 0.39203 0.0
H1110 H 0.71306 0.72952 0.37869 0.0
C1111 C 0.78387 0.82391 0.37229 0.0
C1112 C 0.23258 1.00176 0.4085 0.0
C1113 C 0.23859 0.03307 0.39307 0.0
H1114 H 0.22063 0.94394 0.40989 0.0
C1115 C 0.23568 0.02862 0.36627 0.0
H1116 H 0.23352 0.00367 0.42924 0.0
C1117 C 0.2276 0.99394 0.35523 0.0
C1118 C 0.2227 0.96317 0.37066 0.0
H1119 H 0.24065 0.05219 0.35375 0.0
H1120 H 0.22631 0.99168 0.33462 0.0
C1121 C 0.22513 0.96741 0.39742 0.0
C1122 C 0.55529 0.67653 0.2861 0.0
C1123 C 0.53435 0.64398 0.30219 0.0
H1124 H 0.59946 0.73619 0.28312 0.0
C1125 C 0.54123 0.64842 0.32879 0.0
H1126 H 0.55027 0.67461 0.2656 0.0
C1127 C 0.56914 0.68408 0.33884 0.0
C1128 C 0.59101 0.71604 0.32256 0.0
H1129 H 0.52627 0.62406 0.34178 0.0
H1130 H 0.57474 0.68616 0.35921 0.0
C1131 C 0.58352 0.71193 0.29612 0.0
C1132 C 0.36726 0.92741 0.30968 0.0
C1133 C 0.37095 0.89448 0.30926 0.0
H1134 H 0.32896 0.95078 0.31575 0.0
C1135 C 0.3377 0.85908 0.31662 0.0
H1136 H 0.3923 0.95507 0.30411 0.0
C1137 C 0.30104 0.85653 0.32299 0.0
C1138 C 0.29729 0.88951 0.32277 0.0
H1139 H 0.3395 0.83315 0.31619 0.0
H1140 H 0.27539 0.82866 0.32726 0.0
C1141 C 0.33099 0.92495 0.31632 0.0
C1142 C 0.15899 0.49022 0.31682 0.0
C1143 C 0.12186 0.47756 0.30506 0.0
H1144 H 0.19747 0.47446 0.33609 0.0
C1145 C 0.09423 0.43787 0.30491 0.0
H1146 H 0.18131 0.52037 0.31714 0.0
C1147 C 0.10412 0.41161 0.31499 0.0
C1148 C 0.14141 0.42433 0.32619 0.0
H1149 H 0.06482 0.42685 0.29692 0.0
H1150 H 0.08241 0.38128 0.31412 0.0
C1151 C 0.16845 0.46389 0.32754 0.0
C1152 C 0.31489 0.47941 0.33259 0.0
C1153 C 0.34938 0.4775 0.32702 0.0
H1154 H 0.25144 0.44804 0.33871 0.0
C1155 C 0.34634 0.4413 0.32582 0.0
H1156 H 0.31633 0.50691 0.3335 0.0
C1157 C 0.30944 0.40776 0.3292 0.0
C1158 C 0.27476 0.40956 0.33404 0.0
H1159 H 0.37234 0.43876 0.3217 0.0
H1160 H 0.30787 0.38027 0.32751 0.0
C1161 C 0.27779 0.44572 0.33572 0.0
C1162 C 0.57648 0.8899 0.31695 0.0
C1163 C 0.54099 0.85474 0.31395 0.0
H1164 H 0.63971 0.91826 0.32356 0.0
C1165 C 0.54197 0.82059 0.317 0.0
H1166 H 0.5767 0.91665 0.31419 0.0
C1167 C 0.5776 0.82147 0.32313 0.0
C1168 C 0.61334 0.85659 0.32564 0.0
H1169 H 0.51514 0.79311 0.31444 0.0
H1170 H 0.57735 0.79463 0.32513 0.0
C1171 C 0.6125 0.89081 0.32213 0.0
C1172 C 0.16852 0.68675 0.31905 0.0
C1173 C 0.14541 0.67387 0.29684 0.0
H1174 H 0.19748 0.73217 0.34593 0.0
C1175 C 0.1318 0.69668 0.28541 0.0
H1176 H 0.17983 0.66986 0.328 0.0
C1177 C 0.14065 0.73166 0.29613 0.0
C1178 C 0.16418 0.74506 0.31823 0.0
H1179 H 0.11399 0.6873 0.26821 0.0
H1180 H 0.12938 0.74833 0.28682 0.0
C1181 C 0.17836 0.72235 0.32941 0.0
C1182 C 0.82257 1.00137 0.3664 0.0
C1183 C 0.82688 0.00692 0.39303 0.0
H1184 H 0.78982 0.96316 0.33608 0.0
C1185 C 0.80023 0.97719 0.40959 0.0
H1186 H 0.84238 0.02385 0.35314 0.0
C1187 C 0.77014 0.94247 0.39982 0.0
C1188 C 0.76627 0.93644 0.37321 0.0
H1189 H 0.80272 0.98077 0.43022 0.0
H1190 H 0.75053 0.91998 0.41316 0.0
C1191 C 0.79261 0.96642 0.35662 0.0
C1192 C 0.02135 0.78905 0.37639 0.0
C1193 C 0.02179 0.82387 0.37939 0.0
H1194 H 0.05576 0.76162 0.36912 0.0
C1195 C 0.05793 0.85838 0.37519 0.0
H1196 H 0.99411 0.762 0.37976 0.0
C1197 C 0.09296 0.85814 0.3684 0.0
C1198 C 0.0928 0.82334 0.36619 0.0
H1199 H 0.05919 0.88565 0.37748 0.0
H1200 H 0.12043 0.88522 0.36582 0.0
C1201 C 0.05664 0.78883 0.37037 0.0
C1202 C 0.23325 0.24527 0.40949 0.0
C1203 C 0.22046 0.20974 0.39795 0.0
H1204 H 0.23505 0.29891 0.4081 0.0
C1205 C 0.19835 0.20091 0.37527 0.0
H1206 H 0.25035 0.25271 0.42701 0.0
C1207 C 0.18863 0.22716 0.36461 0.0
C1208 C 0.20179 0.26303 0.37607 0.0
H1209 H 0.18777 0.17347 0.36613 0.0
H1210 H 0.17043 0.21908 0.34764 0.0
C1211 C 0.22443 0.27176 0.39858 0.0
C1212 C 0.66435 0.58246 0.71562 0.0
C1213 C 0.66129 0.54635 0.7182 0.0
H1214 H 0.70221 0.64241 0.70769 0.0
C1215 C 0.69445 0.54276 0.71124 0.0
H1216 H 0.63921 0.58611 0.72044 0.0
C1217 C 0.73077 0.57528 0.70381 0.0
C1218 C 0.73423 0.61172 0.7029 0.0
H1219 H 0.69306 0.51535 0.71309 0.0
H1220 H 0.75658 0.57223 0.70016 0.0
C1221 C 0.70036 0.6147 0.70822 0.0
C1222 C 0.48354 0.15444 0.71296 0.0
C1223 C 0.47933 0.11909 0.72073 0.0
H1224 H 0.45363 0.18465 0.70091 0.0
C1225 C 0.44134 0.08609 0.71981 0.0
H1226 H 0.51236 0.1804 0.71379 0.0
C1227 C 0.4081 0.08841 0.71219 0.0
C1228 C 0.41184 0.12376 0.70518 0.0
H1229 H 0.43716 0.05849 0.72575 0.0
H1230 H 0.3791 0.06253 0.71235 0.0
C1231 C 0.44996 0.15684 0.70558 0.0
C1232 C 0.8961 0.33332 0.74182 0.0
C1233 C 0.90284 0.36493 0.72647 0.0
H1234 H 0.88406 0.27548 0.74303 0.0
C1235 C 0.90109 0.36105 0.69962 0.0
H1236 H 0.89616 0.33484 0.76258 0.0
C1237 C 0.89351 0.3266 0.68846 0.0
C1238 C 0.88796 0.29555 0.70385 0.0
H1239 H 0.90663 0.3849 0.6872 0.0
H1240 H 0.89318 0.32474 0.66782 0.0
C1241 C 0.88914 0.29922 0.73063 0.0
C1242 C 0.22205 0.00959 0.61962 0.0
C1243 C 0.20106 0.97703 0.63569 0.0
H1244 H 0.2662 0.06926 0.61667 0.0
C1245 C 0.20783 0.98147 0.6623 0.0
H1246 H 0.2171 0.0077 0.59911 0.0
C1247 C 0.23567 0.01714 0.67238 0.0
C1248 C 0.25759 0.04911 0.65611 0.0
H1249 H 0.19284 0.9571 0.67528 0.0
H1250 H 0.24119 0.01923 0.69276 0.0
C1251 C 0.25023 0.04499 0.62966 0.0
C1252 C 1.00411 0.1923 0.65012 0.0
C1253 C 0.03726 0.2277 0.64266 0.0
H1254 H 0.94182 0.16178 0.6608 0.0
C1255 C 0.03345 0.26057 0.643 0.0
H1256 H 1.006 0.16642 0.64976 0.0
C1257 C 0.99713 0.25803 0.64962 0.0
C1258 C 0.96351 0.22257 0.65613 0.0
H1259 H 0.05841 0.28824 0.63736 0.0
H1260 H 0.995 0.2838 0.64896 0.0
C1261 C 0.9674 0.18967 0.65648 0.0
C1262 C 0.76123 0.77134 0.63879 0.0
C1263 C 0.78913 0.81096 0.63875 0.0
H1264 H 0.74907 0.71469 0.64812 0.0
C1265 C 0.82632 0.82349 0.65037 0.0
H1266 H 0.73177 0.76046 0.63091 0.0
C1267 C 0.83562 0.79707 0.66109 0.0
C1268 C 0.80833 0.75755 0.65987 0.0
H1269 H 0.84882 0.85359 0.65054 0.0
H1270 H 0.86472 0.8075 0.6695 0.0
C1271 C 0.77095 0.74498 0.64886 0.0
C1272 C 1.01292 0.77417 0.65899 0.0
C1273 C 0.016 0.81038 0.66031 0.0
H1274 H 0.97439 0.71314 0.66057 0.0
C1275 C 0.98153 0.8123 0.66591 0.0
H1276 H 0.0389 0.77162 0.65483 0.0
C1277 C 0.94441 0.77862 0.66901 0.0
C1278 C 0.94134 0.74245 0.66724 0.0
H1279 H 0.98299 0.8398 0.66691 0.0
H1280 H 0.91809 0.78095 0.67204 0.0
C1281 C 0.976 0.74064 0.66233 0.0
C1282 C 0.24279 0.2232 0.65054 0.0
C1283 C 0.2073 0.18805 0.64749 0.0
H1284 H 0.30601 0.2515 0.6572 0.0
C1285 C 0.20823 0.15388 0.65058 0.0
H1286 H 0.24305 0.24996 0.64777 0.0
C1287 C 0.24382 0.15472 0.65674 0.0
C1288 C 0.27958 0.18983 0.65926 0.0
H1289 H 0.18138 0.12642 0.64799 0.0
H1290 H 0.24355 0.12787 0.65874 0.0
C1291 C 0.27878 0.22406 0.65576 0.0
C1292 C 0.79974 0.03005 0.61847 0.0
C1293 C 0.8134 0.00735 0.63 0.0
H1294 H 0.7968 0.08141 0.61988 0.0
C1295 C 0.83607 0.02014 0.6524 0.0
H1296 H 0.78225 0.02071 0.60113 0.0
C1297 C 0.84544 0.05555 0.66284 0.0
C1298 C 0.8312 0.07814 0.65156 0.0
H1299 H 0.8474 0.00332 0.66144 0.0
H1300 H 0.86422 0.06532 0.67952 0.0
C1301 C 0.8081 0.06482 0.62928 0.0
C1302 C 0.48896 0.33457 0.6999 0.0
C1303 C 0.49335 0.34008 0.72653 0.0
H1304 H 0.45614 0.29638 0.66959 0.0
C1305 C 0.46681 0.31029 0.74309 0.0
H1306 H 0.50868 0.35709 0.68663 0.0
C1307 C 0.43674 0.27554 0.73333 0.0
C1308 C 0.43279 0.26956 0.70672 0.0
H1309 H 0.46937 0.31383 0.76373 0.0
H1310 H 0.41721 0.25302 0.74667 0.0
C1311 C 0.45901 0.2996 0.69013 0.0
C1312 C 0.72463 0.1913 0.70928 0.0
C1313 C 0.6884 0.15684 0.7133 0.0
H1314 H 0.78704 0.21799 0.69973 0.0
C1315 C 0.68761 0.12196 0.70975 0.0
H1316 H 0.72612 0.21859 0.71202 0.0
C1317 C 0.72275 0.12162 0.70345 0.0
C1318 C 0.75903 0.15609 0.69949 0.0
H1319 H 0.66027 0.09496 0.71299 0.0
H1320 H 0.72169 0.09435 0.70187 0.0
C1321 C 0.75947 0.19096 0.70214 0.0
C1322 C 0.86342 0.53312 0.70872 0.0
C1323 C 0.88514 0.54168 0.73155 0.0
H1324 H 0.83634 0.55181 0.68082 0.0
C1325 C 0.89817 0.57725 0.74309 0.0
H1326 H 0.85268 0.50566 0.69958 0.0
C1327 C 0.88994 0.60404 0.73203 0.0
C1328 C 0.86764 0.59557 0.70938 0.0
H1329 H 0.91499 0.58448 0.76072 0.0
H1330 H 0.90072 0.63121 0.74155 0.0
C1331 C 0.85427 0.55967 0.69791 0.0
C1332 C 0.51276 0.96592 0.23462 0.0
C1333 C 0.472 0.93871 0.23767 0.0
H1334 H 0.55854 0.00939 0.21072 0.0
C1335 C 0.44613 0.93362 0.21732 0.0
H1336 H 0.53352 0.9709 0.24993 0.0
C1337 C 0.4605 0.95597 0.19483 0.0
C1338 C 0.50102 0.98414 0.19222 0.0
H1339 H 0.41463 0.91264 0.21892 0.0
H1340 H 0.4396 0.95209 0.17985 0.0
C1341 C 0.52705 0.98833 0.21223 0.0
C1342 C 0.05848 0.48849 0.21512 0.0
C1343 C 0.05168 0.50715 0.23557 0.0
H1344 H 0.0419 0.46562 0.17733 0.0
C1345 C 0.02097 0.5159 0.23356 0.0
H1346 H 0.08208 0.48159 0.21604 0.0
C1347 C 0.9983 0.50719 0.21132 0.0
C1348 C 1.00576 0.48946 0.19057 0.0
H1349 H 0.0147 0.52986 0.24913 0.0
H1350 H 0.97564 0.51532 0.21012 0.0
C1351 C 0.03577 0.47976 0.19285 0.0
C1352 C 0.52364 0.57451 0.21175 0.0
C1353 C 0.51137 0.54931 0.23302 0.0
H1354 H 0.54524 0.58526 0.1728 0.0
C1355 C 0.51142 0.51462 0.23086 0.0
H1356 H 0.5236 0.60131 0.21277 0.0
C1357 C 0.52369 0.50541 0.20803 0.0
C1358 C 0.53597 0.53057 0.18674 0.0
H1359 H 0.50243 0.49475 0.24697 0.0
H1360 H 0.52329 0.47841 0.20696 0.0
C1361 C 0.53564 0.56515 0.1888 0.0
C1362 C 0.96253 0.43378 0.81594 0.0
C1363 C 0.97323 0.46008 0.79544 0.0
H1364 H 0.97599 0.42327 0.85387 0.0
C1365 C 1.00685 0.49682 0.79767 0.0
H1366 H 0.93654 0.40537 0.81474 0.0
C1367 C 0.02953 0.50699 0.82001 0.0
C1368 C 0.01858 0.48076 0.84058 0.0
H1369 H 0.01575 0.51752 0.78207 0.0
H1370 H 0.05528 0.53552 0.82135 0.0
C1371 C 0.98487 0.44409 0.83835 0.0
C1372 C 0.51963 0.48817 0.79281 0.0
C1373 C 0.56058 0.5011 0.79008 0.0
H1374 H 0.47281 0.48477 0.81676 0.0
C1375 C 0.58616 0.52149 0.81031 0.0
H1376 H 0.4992 0.47267 0.77749 0.0
C1377 C 0.57102 0.52849 0.83286 0.0
C1378 C 0.53003 0.51559 0.83553 0.0
H1379 H 0.61781 0.53156 0.80884 0.0
H1380 H 0.59145 0.54438 0.84809 0.0
C1381 C 0.50456 0.4954 0.81522 0.0
C1382 C 0.48898 0.04143 0.79858 0.0
C1383 C 0.52701 0.07375 0.79442 0.0
H1384 H 0.44992 0.9956 0.82385 0.0
C1385 C 0.55535 0.08451 0.81405 0.0
H1386 H 0.4665 0.03183 0.78385 0.0
C1387 C 0.54577 0.06332 0.83721 0.0
C1388 C 0.50783 0.03065 0.84104 0.0
H1389 H 0.58485 0.10934 0.81155 0.0
H1390 H 0.56832 0.07191 0.85181 0.0
C1391 C 0.47954 0.02033 0.8215 0.0
C1392 C 0.11208 0.26667 0.55066 0.0
C1393 C 0.13808 0.27181 0.57094 0.0
H1394 H 0.10528 0.28509 0.51324 0.0
C1395 C 0.17882 0.29902 0.56778 0.0
H1396 H 0.08059 0.24569 0.55233 0.0
C1397 C 0.19296 0.32141 0.54536 0.0
C1398 C 0.16679 0.3172 0.52544 0.0
H1399 H 0.19968 0.30405 0.58303 0.0
H1400 H 0.22444 0.34247 0.54379 0.0
C1401 C 0.12629 0.28901 0.52815 0.0
C1402 C 0.72603 0.82158 0.54873 0.0
C1403 C 0.71947 0.84059 0.56905 0.0
H1404 H 0.70913 0.79825 0.51107 0.0
C1405 C 0.68889 0.84951 0.56699 0.0
H1406 H 0.74953 0.81455 0.5497 0.0
C1407 C 0.6661 0.84061 0.5448 0.0
C1408 C 0.6733 0.82249 0.52418 0.0
H1409 H 0.68281 0.86373 0.58247 0.0
H1410 H 0.64356 0.84889 0.54355 0.0
C1411 C 0.70319 0.81265 0.5265 0.0
C1412 C 0.17793 0.8478 0.56409 0.0
C1413 C 0.17792 0.88251 0.56633 0.0
H1414 H 0.1896 0.8116 0.54005 0.0
C1415 C 0.19011 0.90775 0.54508 0.0
H1416 H 0.169 0.8279 0.58017 0.0
C1417 C 0.20195 0.89841 0.52207 0.0
C1418 C 0.20222 0.86381 0.51992 0.0
H1419 H 0.1901 0.93456 0.54618 0.0
H1420 H 0.21149 0.91854 0.50609 0.0
C1421 C 0.19004 0.83862 0.54118 0.0
C1422 C 0.63511 0.7708 0.14855 0.0
C1423 C 0.64589 0.79639 0.12762 0.0
H1424 H 0.64834 0.76173 0.18693 0.0
C1425 C 0.67973 0.83308 0.12935 0.0
H1426 H 0.60896 0.74245 0.14773 0.0
C1427 C 0.7024 0.844 0.1517 0.0
C1428 C 0.69119 0.8186 0.17278 0.0
H1429 H 0.68868 0.85323 0.11341 0.0
H1430 H 0.72823 0.87254 0.1527 0.0
C1431 C 0.65741 0.7819 0.17098 0.0
C1432 C 0.25479 0.8577 0.14365 0.0
C1433 C 0.2294 0.83788 0.12321 0.0
H1434 H 0.25979 0.8801 0.18157 0.0
C1435 C 0.18861 0.82584 0.12558 0.0
H1436 H 0.28631 0.8671 0.14245 0.0
C1437 C 0.17346 0.83314 0.14792 0.0
C1438 C 0.19867 0.85255 0.16851 0.0
H1439 H 0.16835 0.81079 0.11009 0.0
H1440 H 0.14178 0.82303 0.14921 0.0
C1441 C 0.23954 0.86479 0.16613 0.0
C1442 C 0.15592 0.37411 0.1317 0.0
C1443 C 0.19402 0.40646 0.12782 0.0
H1444 H 0.11638 0.32812 0.15669 0.0
C1445 C 0.222 0.41705 0.14766 0.0
H1446 H 0.13372 0.36465 0.11679 0.0
C1447 C 0.21198 0.3957 0.17076 0.0
C1448 C 0.17396 0.36304 0.17433 0.0
H1449 H 0.25154 0.44189 0.14537 0.0
H1450 H 0.23425 0.4042 0.18555 0.0
C1451 C 0.14605 0.35284 0.15455 0.0
C1452 C 0.77966 0.60011 0.88419 0.0
C1453 C 0.80571 0.60537 0.90446 0.0
H1454 H 0.77274 0.61833 0.84674 0.0
C1455 C 0.84644 0.63256 0.90124 0.0
H1456 H 0.74817 0.57913 0.88591 0.0
C1457 C 0.86052 0.65482 0.87877 0.0
C1458 C 0.83429 0.65051 0.85886 0.0
H1459 H 0.86735 0.63767 0.91647 0.0
H1460 H 0.89199 0.67587 0.87714 0.0
C1461 C 0.7938 0.62233 0.86163 0.0
C1462 C 0.39397 0.15514 0.882 0.0
C1463 C 0.38731 0.17393 0.90243 0.0
H1464 H 0.37699 0.13188 0.84433 0.0
C1465 C 0.35649 0.18254 0.90052 0.0
H1466 H 0.41766 0.14835 0.88286 0.0
C1467 C 0.33356 0.17355 0.87839 0.0
C1468 C 0.34083 0.15564 0.85767 0.0
H1469 H 0.35032 0.19659 0.91608 0.0
H1470 H 0.31082 0.18159 0.87727 0.0
C1471 C 0.37099 0.14612 0.85984 0.0
C1472 C 0.84307 0.18044 0.89743 0.0
C1473 C 0.84362 0.21537 0.89999 0.0
H1474 H 0.85408 0.14414 0.87305 0.0
C1475 C 0.85555 0.24068 0.87879 0.0
H1476 H 0.83437 0.16047 0.91346 0.0
C1477 C 0.86692 0.23131 0.85558 0.0
C1478 C 0.867 0.19664 0.85321 0.0
H1479 H 0.85598 0.26768 0.88013 0.0
H1480 H 0.8765 0.25157 0.83967 0.0
C1481 C 0.85471 0.17123 0.87435 0.0
C1482 C 0.29996 0.104 0.482 0.0
C1483 C 0.31062 0.12965 0.46113 0.0
H1484 H 0.31335 0.0948 0.52031 0.0
C1485 C 0.34436 0.1664 0.46291 0.0
H1486 H 0.27388 0.0756 0.48115 0.0
C1487 C 0.36709 0.17728 0.48523 0.0
C1488 C 0.35603 0.15179 0.50624 0.0
H1489 H 0.35323 0.18661 0.447 0.0
H1490 H 0.39287 0.20585 0.48625 0.0
C1491 C 0.32231 0.11505 0.50442 0.0
C1492 C 0.85289 0.15494 0.45913 0.0
C1493 C 0.89386 0.16789 0.45647 0.0
H1494 H 0.80596 0.15149 0.48299 0.0
C1495 C 0.91936 0.18828 0.47674 0.0
H1496 H 0.83253 0.13944 0.44378 0.0
C1497 C 0.90411 0.19525 0.49925 0.0
C1498 C 0.86312 0.18233 0.50186 0.0
H1499 H 0.95102 0.19838 0.47532 0.0
H1500 H 0.92448 0.21114 0.51451 0.0
C1501 C 0.83773 0.16215 0.48151 0.0
C1502 C 0.82126 0.70779 0.46515 0.0
C1503 C 0.85953 0.73984 0.46114 0.0
H1504 H 0.78155 0.66208 0.49027 0.0
C1505 C 0.88762 0.75021 0.4809 0.0
H1506 H 0.79895 0.69849 0.45032 0.0
C1507 C 0.87756 0.72892 0.50402 0.0
C1508 C 0.83938 0.69652 0.50771 0.0
H1509 H 0.91729 0.77482 0.47851 0.0
H1510 H 0.89993 0.73721 0.51873 0.0
C1511 C 0.81135 0.68658 0.48804 0.0
loop_
_geom_bond_atom_site_label_1
_geom_bond_atom_site_label_2
_geom_bond_distance
_geom_bond_site_symmetry_2
_ccdc_geom_bond_type
H0 C5 0.930 . S
H1 C8 0.930 . S
H2 C10 0.930 . S
H3 C4 1.016 . S
C4 H3 1.016 . S
C4 N11 1.286 . S
C5 H0 0.930 . S
C5 C6 1.397 . S
C5 C7 1.361 . S
C6 C5 1.397 . S
C6 C10 1.390 . S
C7 C5 1.361 . S
C7 C8 1.393 . S
C7 N11 1.413 . S
C8 H1 0.930 . S
C8 C7 1.393 . S
C8 C9 1.399 . S
C9 C8 1.399 . S
C9 C10 1.381 . S
C10 H2 0.930 . S
C10 C6 1.390 . S
C10 C9 1.381 . S
N11 C4 1.286 . S
N11 C7 1.413 . S
H12 C17 0.930 . S
H13 C20 0.930 . S
H14 C22 0.930 . S
H15 C16 1.016 . S
C16 H15 1.016 . S
C16 N23 1.286 . S
C17 H12 0.930 . S
C17 C18 1.397 . S
C17 C19 1.361 . S
C18 C17 1.397 . S
C18 C22 1.390 . S
C19 C17 1.361 . S
C19 C20 1.393 . S
C19 N23 1.413 . S
C20 H13 0.930 . S
C20 C19 1.393 . S
C20 C21 1.399 . S
C21 C20 1.399 . S
C21 C22 1.381 . S
C22 H14 0.930 . S
C22 C18 1.390 . S
C22 C21 1.381 . S
N23 C16 1.286 . S
N23 C19 1.413 . S
H24 C29 0.930 . S
H25 C32 0.930 . S
H26 C34 0.930 . S
H27 C28 1.016 . S
C28 H27 1.016 . S
C28 N35 1.286 . S
C29 H24 0.930 . S
C29 C30 1.397 . S
C29 C31 1.361 . S
C30 C29 1.397 . S
C30 C34 1.390 . S
C31 C29 1.361 . S
C31 C32 1.393 . S
C31 N35 1.413 . S
C32 H25 0.930 . S
C32 C31 1.393 . S
C32 C33 1.399 . S
C33 C32 1.399 . S
C33 C34 1.381 . S
C34 H26 0.930 . S
C34 C30 1.390 . S
C34 C33 1.381 . S
N35 C28 1.286 . S
N35 C31 1.413 . S
H36 C41 0.930 . S
H37 C44 0.930 . S
H38 C46 0.930 . S
H39 C40 1.016 . S
C40 H39 1.016 . S
C40 N47 1.286 . S
C41 H36 0.930 . S
C41 C42 1.397 . S
C41 C43 1.361 . S
C42 C41 1.397 . S
C42 C46 1.390 . S
C43 C41 1.361 . S
C43 C44 1.393 . S
C43 N47 1.413 . S
C44 H37 0.930 . S
C44 C43 1.393 . S
C44 C45 1.399 . S
C45 C44 1.399 . S
C45 C46 1.381 . S
C46 H38 0.930 . S
C46 C42 1.390 . S
C46 C45 1.381 . S
N47 C40 1.286 . S
N47 C43 1.413 . S
H48 C53 0.930 . S
H49 C56 0.930 . S
H50 C58 0.930 . S
H51 C52 1.016 . S
C52 H51 1.016 . S
C52 N59 1.286 . S
C53 H48 0.930 . S
C53 C54 1.397 . S
C53 C55 1.361 . S
C54 C53 1.397 . S
C54 C58 1.390 . S
C55 C53 1.361 . S
C55 C56 1.393 . S
C55 N59 1.413 . S
C56 H49 0.930 . S
C56 C55 1.393 . S
C56 C57 1.399 . S
C57 C56 1.399 . S
C57 C58 1.381 . S
C58 H50 0.930 . S
C58 C54 1.390 . S
C58 C57 1.381 . S
N59 C52 1.286 . S
N59 C55 1.413 . S
H60 C65 0.930 . S
H61 C68 0.930 . S
H62 C70 0.930 . S
H63 C64 1.016 . S
C64 H63 1.016 . S
C64 N71 1.286 . S
C65 H60 0.930 . S
C65 C66 1.397 . S
C65 C67 1.361 . S
C66 C65 1.397 . S
C66 C70 1.390 . S
C67 C65 1.361 . S
C67 C68 1.393 . S
C67 N71 1.413 . S
C68 H61 0.930 . S
C68 C67 1.393 . S
C68 C69 1.399 . S
C69 C68 1.399 . S
C69 C70 1.381 . S
C70 H62 0.930 . S
C70 C66 1.390 . S
C70 C69 1.381 . S
N71 C64 1.286 . S
N71 C67 1.413 . S
H72 C77 0.930 . S
H73 C80 0.930 . S
H74 C82 0.930 . S
H75 C76 1.016 . S
C76 H75 1.016 . S
C76 N83 1.286 . S
C77 H72 0.930 . S
C77 C78 1.397 . S
C77 C79 1.361 . S
C78 C77 1.397 . S
C78 C82 1.390 . S
C79 C77 1.361 . S
C79 C80 1.393 . S
C79 N83 1.413 . S
C80 H73 0.930 . S
C80 C79 1.393 . S
C80 C81 1.399 . S
C81 C80 1.399 . S
C81 C82 1.381 . S
C82 H74 0.930 . S
C82 C78 1.390 . S
C82 C81 1.381 . S
N83 C76 1.286 . S
N83 C79 1.413 . S
H84 C89 0.930 . S
H85 C92 0.930 . S
H86 C94 0.930 . S
H87 C88 1.016 . S
C88 H87 1.016 . S
C88 N95 1.286 . S
C89 H84 0.930 . S
C89 C90 1.397 . S
C89 C91 1.361 . S
C90 C89 1.397 . S
C90 C94 1.390 . S
C91 C89 1.361 . S
C91 C92 1.393 . S
C91 N95 1.413 . S
C92 H85 0.930 . S
C92 C91 1.393 . S
C92 C93 1.399 . S
C93 C92 1.399 . S
C93 C94 1.381 . S
C94 H86 0.930 . S
C94 C90 1.390 . S
C94 C93 1.381 . S
N95 C88 1.286 . S
N95 C91 1.413 . S
H96 C101 0.930 . S
H97 C104 0.930 . S
H98 C106 0.930 . S
H99 C100 1.016 . S
C100 H99 1.016 . S
C100 N107 1.286 . S
C101 H96 0.930 . S
C101 C102 1.397 . S
C101 C103 1.361 . S
C102 C101 1.397 . S
C102 C106 1.390 . S
C103 C101 1.361 . S
C103 C104 1.393 . S
C103 N107 1.413 . S
C104 H97 0.930 . S
C104 C103 1.393 . S
C104 C105 1.399 . S
C105 C104 1.399 . S
C105 C106 1.381 . S
C106 H98 0.930 . S
C106 C102 1.390 . S
C106 C105 1.381 . S
N107 C100 1.286 . S
N107 C103 1.413 . S
H108 C113 0.930 . S
H109 C116 0.930 . S
H110 C118 0.930 . S
H111 C112 1.016 . S
C112 H111 1.016 . S
C112 N119 1.286 . S
C113 H108 0.930 . S
C113 C114 1.397 . S
C113 C115 1.361 . S
C114 C113 1.397 . S
C114 C118 1.390 . S
C115 C113 1.361 . S
C115 C116 1.393 . S
C115 N119 1.413 . S
C116 H109 0.930 . S
C116 C115 1.393 . S
C116 C117 1.399 . S
C117 C116 1.399 . S
C117 C118 1.381 . S
C118 H110 0.930 . S
C118 C114 1.390 . S
C118 C117 1.381 . S
N119 C112 1.286 . S
N119 C115 1.413 . S
H120 C125 0.930 . S
H121 C128 0.930 . S
H122 C130 0.930 . S
H123 C124 1.016 . S
C124 H123 1.016 . S
C124 N131 1.286 . S
C125 H120 0.930 . S
C125 C126 1.397 . S
C125 C127 1.361 . S
C126 C125 1.397 . S
C126 C130 1.390 . S
C127 C125 1.361 . S
C127 C128 1.393 . S
C127 N131 1.413 . S
C128 H121 0.930 . S
C128 C127 1.393 . S
C128 C129 1.399 . S
C129 C128 1.399 . S
C129 C130 1.381 . S
C130 H122 0.930 . S
C130 C126 1.390 . S
C130 C129 1.381 . S
N131 C124 1.286 . S
N131 C127 1.413 . S
H132 C137 0.930 . S
H133 C140 0.930 . S
H134 C142 0.930 . S
H135 C136 1.016 . S
C136 H135 1.016 . S
C136 N143 1.286 . S
C137 H132 0.930 . S
C137 C138 1.397 . S
C137 C139 1.361 . S
C138 C137 1.397 . S
C138 C142 1.390 . S
C139 C137 1.361 . S
C139 C140 1.393 . S
C139 N143 1.413 . S
C140 H133 0.930 . S
C140 C139 1.393 . S
C140 C141 1.399 . S
C141 C140 1.399 . S
C141 C142 1.381 . S
C142 H134 0.930 . S
C142 C138 1.390 . S
C142 C141 1.381 . S
N143 C136 1.286 . S
N143 C139 1.413 . S
H144 C149 0.930 . S
H145 C152 0.930 . S
H146 C154 0.930 . S
H147 C148 1.016 . S
C148 H147 1.016 . S
C148 N155 1.286 . S
C149 H144 0.930 . S
C149 C150 1.397 . S
C149 C151 1.361 . S
C150 C149 1.397 . S
C150 C154 1.390 . S
C151 C149 1.361 . S
C151 C152 1.393 . S
C151 N155 1.413 . S
C152 H145 0.930 . S
C152 C151 1.393 . S
C152 C153 1.399 . S
C153 C152 1.399 . S
C153 C154 1.381 . S
C154 H146 0.930 . S
C154 C150 1.390 . S
C154 C153 1.381 . S
N155 C148 1.286 . S
N155 C151 1.413 . S
H156 C161 0.930 . S
H157 C164 0.930 . S
H158 C166 0.930 . S
H159 C160 1.016 . S
C160 H159 1.016 . S
C160 N167 1.286 . S
C161 H156 0.930 . S
C161 C162 1.397 . S
C161 C163 1.361 . S
C162 C161 1.397 . S
C162 C166 1.390 . S
C163 C161 1.361 . S
C163 C164 1.393 . S
C163 N167 1.413 . S
C164 H157 0.930 . S
C164 C163 1.393 . S
C164 C165 1.399 . S
C165 C164 1.399 . S
C165 C166 1.381 . S
C166 H158 0.930 . S
C166 C162 1.390 . S
C166 C165 1.381 . S
N167 C160 1.286 . S
N167 C163 1.413 . S
H168 C173 0.930 . S
H169 C176 0.930 . S
H170 C178 0.930 . S
H171 C172 1.016 . S
C172 H171 1.016 . S
C172 N179 1.286 . S
C173 H168 0.930 . S
C173 C174 1.397 . S
C173 C175 1.361 . S
C174 C173 1.397 . S
C174 C178 1.390 . S
C175 C173 1.361 . S
C175 C176 1.393 . S
C175 N179 1.413 . S
C176 H169 0.930 . S
C176 C175 1.393 . S
C176 C177 1.399 . S
C177 C176 1.399 . S
C177 C178 1.381 . S
C178 H170 0.930 . S
C178 C174 1.390 . S
C178 C177 1.381 . S
N179 C172 1.286 . S
N179 C175 1.413 . S
H180 C185 0.930 . S
H181 C188 0.930 . S
H182 C190 0.930 . S
H183 C184 1.016 . S
C184 H183 1.016 . S
C184 N191 1.286 . S
C185 H180 0.930 . S
C185 C186 1.397 . S
C185 C187 1.361 . S
C186 C185 1.397 . S
C186 C190 1.390 . S
C187 C185 1.361 . S
C187 C188 1.393 . S
C187 N191 1.413 . S
C188 H181 0.930 . S
C188 C187 1.393 . S
C188 C189 1.399 . S
C189 C188 1.399 . S
C189 C190 1.381 . S
C190 H182 0.930 . S
C190 C186 1.390 . S
C190 C189 1.381 . S
N191 C184 1.286 . S
N191 C187 1.413 . S
H192 C197 0.930 . S
H193 C200 0.930 . S
H194 C202 0.930 . S
H195 C196 1.016 . S
C196 H195 1.016 . S
C196 N203 1.286 . S
C197 H192 0.930 . S
C197 C198 1.397 . S
C197 C199 1.361 . S
C198 C197 1.397 . S
C198 C202 1.390 . S
C199 C197 1.361 . S
C199 C200 1.393 . S
C199 N203 1.413 . S
C200 H193 0.930 . S
C200 C199 1.393 . S
C200 C201 1.399 . S
C201 C200 1.399 . S
C201 C202 1.381 . S
C202 H194 0.930 . S
C202 C198 1.390 . S
C202 C201 1.381 . S
N203 C196 1.286 . S
N203 C199 1.413 . S
H204 C209 0.930 . S
H205 C212 0.930 . S
H206 C214 0.930 . S
H207 C208 1.016 . S
C208 H207 1.016 . S
C208 N215 1.286 . S
C209 H204 0.930 . S
C209 C210 1.397 . S
C209 C211 1.361 . S
C210 C209 1.397 . S
C210 C214 1.390 . S
C211 C209 1.361 . S
C211 C212 1.393 . S
C211 N215 1.413 . S
C212 H205 0.930 . S
C212 C211 1.393 . S
C212 C213 1.399 . S
C213 C212 1.399 . S
C213 C214 1.381 . S
C214 H206 0.930 . S
C214 C210 1.390 . S
C214 C213 1.381 . S
N215 C208 1.286 . S
N215 C211 1.413 . S
Gd216 N247 2.661 . S
Gd216 N253 2.601 . S
Gd216 O260 2.545 . S
Gd216 O261 2.606 1_545 S
Gd216 O263 2.429 . S
Gd216 O264 2.545 1_545 S
Gd216 O265 2.412 1_545 S
Gd216 O267 2.362 . S
Gd216 O268 2.324 1_545 S
Gd216 C275 2.828 . S
Gd217 N226 2.661 . S
Gd217 N230 2.601 . S
Gd217 O261 2.362 1_556 S
Gd217 O262 2.324 1_565 S
Gd217 O266 2.545 . S
Gd217 O267 2.606 1_566 S
Gd217 O269 2.429 . S
Gd217 O270 2.545 1_565 S
Gd217 O271 2.412 1_565 S
Gd217 C284 2.828 . S
C218 C221 1.417 . S
C218 C223 1.431 . S
C218 C224 1.412 . S
C219 C222 1.437 . S
C219 C223 1.317 . S
C219 H238 0.929 . S
C220 C221 1.426 . S
C220 C222 1.413 . S
C220 N230 1.359 . S
C221 C218 1.417 . S
C221 C220 1.426 . S
C221 N226 1.350 . S
C222 C219 1.437 . S
C222 C220 1.413 . S
C222 C232 1.391 . S
C223 C218 1.431 . S
C223 C219 1.317 . S
C223 H234 0.930 . S
C224 C218 1.412 . S
C224 C225 1.355 . S
C224 H236 0.930 . S
C225 C224 1.355 . S
C225 C227 1.402 . S
C225 H237 0.930 . S
N226 Gd217 2.661 . S
N226 C221 1.350 . S
N226 C227 1.307 . S
C227 C225 1.402 . S
C227 N226 1.307 . S
C227 H228 0.930 . S
H228 C227 0.930 . S
C229 N230 1.334 . S
C229 C231 1.394 . S
C229 H233 0.930 . S
N230 Gd217 2.601 . S
N230 C220 1.359 . S
N230 C229 1.334 . S
C231 C229 1.394 . S
C231 C232 1.359 . S
C231 H243 0.930 . S
C232 C222 1.391 . S
C232 C231 1.359 . S
C232 H244 0.929 . S
H233 C229 0.930 . S
H234 C223 0.930 . S
H235 C252 0.930 . S
H236 C224 0.930 . S
H237 C225 0.930 . S
H238 C219 0.929 . S
H239 C257 0.930 . S
H240 C248 0.930 . S
H241 C249 0.930 . S
H242 C273 0.929 . S
H243 C231 0.930 . S
H244 C232 0.929 . S
H245 C274 0.930 . S
H246 C255 0.930 . S
N247 Gd216 2.661 . S
N247 C251 1.350 . S
N247 C252 1.307 . S
C248 H240 0.930 . S
C248 C249 1.355 . S
C248 C250 1.412 . S
C249 H241 0.930 . S
C249 C248 1.355 . S
C249 C252 1.402 . S
C250 C248 1.412 . S
C250 C251 1.417 . S
C250 C274 1.431 . S
C251 N247 1.350 . S
C251 C250 1.417 . S
C251 C254 1.426 . S
C252 H235 0.930 . S
C252 N247 1.307 . S
C252 C249 1.402 . S
N253 Gd216 2.601 . S
N253 C254 1.359 . S
N253 C257 1.334 . S
C254 C251 1.426 . S
C254 N253 1.359 . S
C254 C258 1.413 . S
C255 H246 0.930 . S
C255 C256 1.359 . S
C255 C257 1.394 . S
C256 C255 1.359 . S
C256 C258 1.391 . S
C256 H259 0.929 . S
C257 H239 0.930 . S
C257 N253 1.334 . S
C257 C255 1.394 . S
C258 C254 1.413 . S
C258 C256 1.391 . S
C258 C273 1.437 . S
H259 C256 0.929 . S
O260 Gd216 2.545 . S
O260 C275 1.258 . S
O261 Gd216 2.606 1_565 S
O261 Gd217 2.362 1_554 S
O261 C272 1.284 . S
O262 Gd217 2.324 1_545 S
O262 C282 1.254 . S
O263 Gd216 2.429 . S
O263 C282 1.268 1_554 S
O264 Gd216 2.545 1_565 S
O264 C272 1.250 . S
O265 Gd216 2.412 1_565 S
O265 C275 1.252 1_565 S
O266 Gd217 2.545 . S
O266 C284 1.258 . S
O267 Gd216 2.362 . S
O267 Gd217 2.606 1_544 S
O267 C283 1.284 1_554 S
O268 Gd216 2.324 1_565 S
O268 C291 1.254 . S
O269 Gd217 2.429 . S
O269 C291 1.268 1_556 S
O270 Gd217 2.545 1_545 S
O270 C283 1.250 . S
O271 Gd217 2.412 1_545 S
O271 C284 1.252 1_545 S
C272 O261 1.284 . S
C272 O264 1.250 . S
C273 H242 0.929 . S
C273 C258 1.437 . S
C273 C274 1.317 . S
C274 H245 0.930 . S
C274 C250 1.431 . S
C274 C273 1.317 . S
C275 Gd216 2.828 . S
C275 O260 1.258 . S
C275 O265 1.252 1_545 S
C275 C276 1.497 . S
C276 C275 1.497 . S
C276 C277 1.395 . S
C276 C278 1.380 1_545 S
C277 C276 1.395 . S
C277 C280 1.398 . S
C277 H292 0.930 . S
C278 C276 1.380 1_565 S
C278 C279 1.391 . S
C278 H293 0.930 . S
C279 C278 1.391 . S
C279 C281 1.387 . S
C280 C277 1.398 . S
C280 C281 1.380 1_545 S
C280 H294 0.930 . S
C281 C279 1.387 . S
C281 C280 1.380 1_565 S
C281 H295 0.930 . S
C282 O262 1.254 . S
C282 O263 1.268 1_556 S
C283 O267 1.284 1_556 S
C283 O270 1.250 . S
C284 Gd217 2.828 . S
C284 O266 1.258 . S
C284 O271 1.252 1_565 S
C284 C285 1.497 1_565 S
C285 C284 1.497 1_545 S
C285 C286 1.395 1_545 S
C285 C287 1.380 . S
C286 C285 1.395 1_565 S
C286 C289 1.398 . S
C286 H296 0.930 . S
C287 C285 1.380 . S
C287 C288 1.391 . S
C287 H297 0.930 . S
C288 C287 1.391 . S
C288 C290 1.387 . S
C289 C286 1.398 . S
C289 C290 1.380 1_565 S
C289 H298 0.930 . S
C290 C288 1.387 . S
C290 C289 1.380 1_545 S
C290 H299 0.930 . S
C291 O268 1.254 . S
C291 O269 1.268 1_554 S
H292 C277 0.930 . S
H293 C278 0.930 . S
H294 C280 0.930 . S
H295 C281 0.930 . S
H296 C286 0.930 . S
H297 C287 0.930 . S
H298 C289 0.930 . S
H299 C290 0.930 . S
Gd300 N331 2.661 . S
Gd300 N337 2.601 . S
Gd300 O344 2.545 . S
Gd300 O345 2.606 1_655 S
Gd300 O347 2.429 . S
Gd300 O348 2.545 1_655 S
Gd300 O349 2.412 1_655 S
Gd300 O351 2.362 . S
Gd300 O352 2.324 1_655 S
Gd300 C359 2.828 . S
Gd301 N310 2.661 . S
Gd301 N314 2.601 . S
Gd301 O345 2.362 1_556 S
Gd301 O346 2.324 1_455 S
Gd301 O350 2.545 . S
Gd301 O351 2.606 1_456 S
Gd301 O353 2.429 . S
Gd301 O354 2.545 1_455 S
Gd301 O355 2.407 1_455 S
Gd301 C368 2.828 . S
C302 C305 1.417 . S
C302 C307 1.431 . S
C302 C308 1.412 . S
C303 C306 1.437 . S
C303 C307 1.317 . S
C303 H322 0.929 . S
C304 C305 1.426 . S
C304 C306 1.413 . S
C304 N314 1.359 . S
C305 C302 1.417 . S
C305 C304 1.426 . S
C305 N310 1.350 . S
C306 C303 1.437 . S
C306 C304 1.413 . S
C306 C316 1.391 . S
C307 C302 1.431 . S
C307 C303 1.317 . S
C307 H318 0.930 . S
C308 C302 1.412 . S
C308 C309 1.355 . S
C308 H320 0.930 . S
C309 C308 1.355 . S
C309 C311 1.402 . S
C309 H321 0.930 . S
N310 Gd301 2.661 . S
N310 C305 1.350 . S
N310 C311 1.307 . S
C311 C309 1.402 . S
C311 N310 1.307 . S
C311 H312 0.930 . S
H312 C311 0.930 . S
C313 N314 1.334 . S
C313 C315 1.394 . S
C313 H317 0.930 . S
N314 Gd301 2.601 . S
N314 C304 1.359 . S
N314 C313 1.334 . S
C315 C313 1.394 . S
C315 C316 1.359 . S
C315 H327 0.930 . S
C316 C306 1.391 . S
C316 C315 1.359 . S
C316 H328 0.929 . S
H317 C313 0.930 . S
H318 C307 0.930 . S
H319 C336 0.930 . S
H320 C308 0.930 . S
H321 C309 0.930 . S
H322 C303 0.929 . S
H323 C341 0.930 . S
H324 C332 0.930 . S
H325 C333 0.930 . S
H326 C357 0.929 . S
H327 C315 0.930 . S
H328 C316 0.929 . S
H329 C358 0.930 . S
H330 C339 0.930 . S
N331 Gd300 2.661 . S
N331 C335 1.350 . S
N331 C336 1.307 . S
C332 H324 0.930 . S
C332 C333 1.355 . S
C332 C334 1.412 . S
C333 H325 0.930 . S
C333 C332 1.355 . S
C333 C336 1.402 . S
C334 C332 1.412 . S
C334 C335 1.417 . S
C334 C358 1.431 . S
C335 N331 1.350 . S
C335 C334 1.417 . S
C335 C338 1.426 . S
C336 H319 0.930 . S
C336 N331 1.307 . S
C336 C333 1.402 . S
N337 Gd300 2.601 . S
N337 C338 1.359 . S
N337 C341 1.334 . S
C338 C335 1.426 . S
C338 N337 1.359 . S
C338 C342 1.413 . S
C339 H330 0.930 . S
C339 C340 1.359 . S
C339 C341 1.394 . S
C340 C339 1.359 . S
C340 C342 1.391 . S
C340 H343 0.929 . S
C341 H323 0.930 . S
C341 N337 1.334 . S
C341 C339 1.394 . S
C342 C338 1.413 . S
C342 C340 1.391 . S
C342 C357 1.437 . S
H343 C340 0.929 . S
O344 Gd300 2.545 . S
O344 C359 1.258 . S
O345 Gd300 2.606 1_455 S
O345 Gd301 2.362 1_554 S
O345 C356 1.284 . S
O346 Gd301 2.324 1_655 S
O346 C366 1.254 . S
O347 Gd300 2.429 . S
O347 C366 1.268 1_554 S
O348 Gd300 2.545 1_455 S
O348 C356 1.250 . S
O349 Gd300 2.412 1_455 S
O349 C359 1.252 1_455 S
O350 Gd301 2.545 . S
O350 C368 1.258 . S
O351 Gd300 2.362 . S
O351 Gd301 2.606 1_654 S
O351 C367 1.284 1_554 S
O352 Gd300 2.324 1_455 S
O352 C375 1.254 . S
O353 Gd301 2.429 . S
O353 C375 1.268 1_556 S
O354 Gd301 2.545 1_655 S
O354 C367 1.250 . S
O355 Gd301 2.407 1_655 S
O355 C368 1.254 1_655 S
C356 O345 1.284 . S
C356 O348 1.250 . S
C357 H326 0.929 . S
C357 C342 1.437 . S
C357 C358 1.317 . S
C358 H329 0.930 . S
C358 C334 1.431 . S
C358 C357 1.317 . S
C359 Gd300 2.828 . S
C359 O344 1.258 . S
C359 O349 1.252 1_655 S
C359 C360 1.497 1_655 S
C360 C359 1.497 1_455 S
C360 C361 1.395 1_455 S
C360 C362 1.380 . S
C361 C360 1.395 1_655 S
C361 C364 1.398 . S
C361 H376 0.930 . S
C362 C360 1.380 . S
C362 C363 1.391 . S
C362 H377 0.930 . S
C363 C362 1.391 . S
C363 C365 1.387 . S
C364 C361 1.398 . S
C364 C365 1.380 1_655 S
C364 H378 0.930 . S
C365 C363 1.387 . S
C365 C364 1.380 1_455 S
C365 H379 0.930 . S
C366 O346 1.254 . S
C366 O347 1.268 1_556 S
C367 O351 1.284 1_556 S
C367 O354 1.250 . S
C368 Gd301 2.828 . S
C368 O350 1.258 . S
C368 O355 1.254 1_455 S
C368 C369 1.497 . S
C369 C368 1.497 . S
C369 C370 1.395 . S
C369 C371 1.380 1_455 S
C370 C369 1.395 . S
C370 C373 1.398 . S
C370 H380 0.930 . S
C371 C369 1.380 1_655 S
C371 C372 1.391 . S
C371 H381 0.930 . S
C372 C371 1.391 . S
C372 C374 1.387 . S
C373 C370 1.398 . S
C373 C374 1.380 1_455 S
C373 H382 0.930 . S
C374 C372 1.387 . S
C374 C373 1.380 1_655 S
C374 H383 0.930 . S
C375 O352 1.254 . S
C375 O353 1.268 1_554 S
H376 C361 0.930 . S
H377 C362 0.930 . S
H378 C364 0.930 . S
H379 C365 0.930 . S
H380 C370 0.930 . S
H381 C371 0.930 . S
H382 C373 0.930 . S
H383 C374 0.930 . S
Gd384 N415 2.661 . S
Gd384 N421 2.601 . S
Gd384 O428 2.545 . S
Gd384 O429 2.606 1_556 S
Gd384 O431 2.429 . S
Gd384 O432 2.545 . S
Gd384 O433 2.412 . S
Gd384 O435 2.362 1_556 S
Gd384 O436 2.324 . S
Gd384 C443 2.828 . S
Gd385 N394 2.661 . S
Gd385 N398 2.601 . S
Gd385 O429 2.362 . S
Gd385 O430 2.324 . S
Gd385 O434 2.545 . S
Gd385 O435 2.606 . S
Gd385 O437 2.429 . S
Gd385 O438 2.545 . S
Gd385 O439 2.412 . S
Gd385 C452 2.828 . S
C386 C389 1.417 . S
C386 C391 1.431 . S
C386 C392 1.412 . S
C387 C390 1.437 . S
C387 C391 1.317 . S
C387 H406 0.929 . S
C388 C389 1.426 . S
C388 C390 1.413 . S
C388 N398 1.359 . S
C389 C386 1.417 . S
C389 C388 1.426 . S
C389 N394 1.350 . S
C390 C387 1.437 . S
C390 C388 1.413 . S
C390 C400 1.391 . S
C391 C386 1.431 . S
C391 C387 1.317 . S
C391 H402 0.930 . S
C392 C386 1.412 . S
C392 C393 1.355 . S
C392 H404 0.930 . S
C393 C392 1.355 . S
C393 C395 1.402 . S
C393 H405 0.930 . S
N394 Gd385 2.661 . S
N394 C389 1.350 . S
N394 C395 1.307 . S
C395 C393 1.402 . S
C395 N394 1.307 . S
C395 H396 0.930 . S
H396 C395 0.930 . S
C397 N398 1.334 . S
C397 C399 1.394 . S
C397 H401 0.930 . S
N398 Gd385 2.601 . S
N398 C388 1.359 . S
N398 C397 1.334 . S
C399 C397 1.394 . S
C399 C400 1.359 . S
C399 H411 0.930 . S
C400 C390 1.391 . S
C400 C399 1.359 . S
C400 H412 0.929 . S
H401 C397 0.930 . S
H402 C391 0.930 . S
H403 C420 0.930 . S
H404 C392 0.930 . S
H405 C393 0.930 . S
H406 C387 0.929 . S
H407 C425 0.930 . S
H408 C416 0.930 . S
H409 C417 0.930 . S
H410 C441 0.929 . S
H411 C399 0.930 . S
H412 C400 0.929 . S
H413 C442 0.930 . S
H414 C423 0.930 . S
N415 Gd384 2.661 . S
N415 C419 1.350 . S
N415 C420 1.307 . S
C416 H408 0.930 . S
C416 C417 1.355 . S
C416 C418 1.412 . S
C417 H409 0.930 . S
C417 C416 1.355 . S
C417 C420 1.402 . S
C418 C416 1.412 . S
C418 C419 1.417 . S
C418 C442 1.431 . S
C419 N415 1.350 . S
C419 C418 1.417 . S
C419 C422 1.426 . S
C420 H403 0.930 . S
C420 N415 1.307 . S
C420 C417 1.402 . S
N421 Gd384 2.601 . S
N421 C422 1.359 . S
N421 C425 1.334 . S
C422 C419 1.426 . S
C422 N421 1.359 . S
C422 C426 1.413 . S
C423 H414 0.930 . S
C423 C424 1.359 . S
C423 C425 1.394 . S
C424 C423 1.359 . S
C424 C426 1.391 . S
C424 H427 0.929 . S
C425 H407 0.930 . S
C425 N421 1.334 . S
C425 C423 1.394 . S
C426 C422 1.413 . S
C426 C424 1.391 . S
C426 C441 1.437 . S
H427 C424 0.929 . S
O428 Gd384 2.545 . S
O428 C443 1.258 . S
O429 Gd384 2.606 1_554 S
O429 Gd385 2.362 . S
O429 C440 1.284 1_554 S
O430 Gd385 2.324 . S
O430 C450 1.254 . S
O431 Gd384 2.429 . S
O431 C450 1.268 1_556 S
O432 Gd384 2.545 . S
O432 C440 1.250 . S
O433 Gd384 2.412 . S
O433 C443 1.252 . S
O434 Gd385 2.545 . S
O434 C452 1.258 . S
O435 Gd384 2.362 1_554 S
O435 Gd385 2.606 . S
O435 C451 1.284 . S
O436 Gd384 2.324 . S
O436 C459 1.254 . S
O437 Gd385 2.429 . S
O437 C459 1.268 1_554 S
O438 Gd385 2.545 . S
O438 C451 1.250 . S
O439 Gd385 2.412 . S
O439 C452 1.252 . S
C440 O429 1.284 1_556 S
C440 O432 1.250 . S
C441 H410 0.929 . S
C441 C426 1.437 . S
C441 C442 1.317 . S
C442 H413 0.930 . S
C442 C418 1.431 . S
C442 C441 1.317 . S
C443 Gd384 2.828 . S
C443 O428 1.258 . S
C443 O433 1.252 . S
C443 C444 1.497 . S
C444 C443 1.497 . S
C444 C445 1.395 . S
C444 C446 1.380 . S
C445 C444 1.395 . S
C445 C448 1.398 . S
C445 H460 0.930 . S
C446 C444 1.380 . S
C446 C447 1.391 . S
C446 H461 0.930 . S
C447 C446 1.391 . S
C447 C449 1.387 . S
C448 C445 1.398 . S
C448 C449 1.380 . S
C448 H462 0.930 . S
C449 C447 1.387 . S
C449 C448 1.380 . S
C449 H463 0.930 . S
C450 O430 1.254 . S
C450 O431 1.268 1_554 S
C451 O435 1.284 . S
C451 O438 1.250 . S
C452 Gd385 2.828 . S
C452 O434 1.258 . S
C452 O439 1.252 . S
C452 C453 1.497 . S
C453 C452 1.497 . S
C453 C454 1.395 . S
C453 C455 1.380 . S
C454 C453 1.395 . S
C454 C457 1.398 . S
C454 H464 0.930 . S
C455 C453 1.380 . S
C455 C456 1.391 . S
C455 H465 0.930 . S
C456 C455 1.391 . S
C456 C458 1.387 . S
C457 C454 1.398 . S
C457 C458 1.380 . S
C457 H466 0.930 . S
C458 C456 1.387 . S
C458 C457 1.380 . S
C458 H467 0.930 . S
C459 O436 1.254 . S
C459 O437 1.268 1_556 S
H460 C445 0.930 . S
H461 C446 0.930 . S
H462 C448 0.930 . S
H463 C449 0.930 . S
H464 C454 0.930 . S
H465 C455 0.930 . S
H466 C457 0.930 . S
H467 C458 0.930 . S
Gd468 N499 2.661 . S
Gd468 N505 2.601 . S
Gd468 O512 2.545 . S
Gd468 O513 2.606 . S
Gd468 O515 2.429 . S
Gd468 O516 2.545 . S
Gd468 O517 2.412 . S
Gd468 O519 2.362 . S
Gd468 O520 2.324 . S
Gd468 C527 2.828 . S
Gd469 N478 2.661 . S
Gd469 N482 2.601 . S
Gd469 O513 2.362 . S
Gd469 O514 2.324 . S
Gd469 O518 2.545 . S
Gd469 O519 2.606 . S
Gd469 O521 2.429 . S
Gd469 O522 2.545 . S
Gd469 O523 2.412 . S
Gd469 C536 2.828 . S
C470 C473 1.417 1_655 S
C470 C475 1.431 . S
C470 C476 1.412 . S
C471 C474 1.437 1_655 S
C471 C475 1.317 . S
C471 H490 0.929 . S
C472 C473 1.426 . S
C472 C474 1.413 . S
C472 N482 1.359 . S
C473 C470 1.417 1_455 S
C473 C472 1.426 . S
C473 N478 1.350 . S
C474 C471 1.437 1_455 S
C474 C472 1.413 . S
C474 C484 1.391 . S
C475 C470 1.431 . S
C475 C471 1.317 . S
C475 H486 0.930 . S
C476 C470 1.412 . S
C476 C477 1.355 . S
C476 H488 0.930 . S
C477 C476 1.355 . S
C477 C479 1.402 1_655 S
C477 H489 0.930 . S
N478 Gd469 2.661 . S
N478 C473 1.350 . S
N478 C479 1.307 . S
C479 C477 1.402 1_455 S
C479 N478 1.307 . S
C479 H480 0.930 . S
H480 C479 0.930 . S
C481 N482 1.334 . S
C481 C483 1.394 . S
C481 H485 0.930 . S
N482 Gd469 2.601 . S
N482 C472 1.359 . S
N482 C481 1.334 . S
C483 C481 1.394 . S
C483 C484 1.359 . S
C483 H495 0.930 . S
C484 C474 1.391 . S
C484 C483 1.359 . S
C484 H496 0.929 . S
H485 C481 0.930 . S
H486 C475 0.930 . S
H487 C504 0.930 . S
H488 C476 0.930 . S
H489 C477 0.930 . S
H490 C471 0.929 . S
H491 C509 0.930 . S
H492 C500 0.930 . S
H493 C501 0.930 . S
H494 C525 0.929 . S
H495 C483 0.930 . S
H496 C484 0.929 . S
H497 C526 0.930 . S
H498 C507 0.930 . S
N499 Gd468 2.661 . S
N499 C503 1.350 . S
N499 C504 1.307 . S
C500 H492 0.930 . S
C500 C501 1.355 . S
C500 C502 1.412 . S
C501 H493 0.930 . S
C501 C500 1.355 . S
C501 C504 1.402 . S
C502 C500 1.412 . S
C502 C503 1.417 . S
C502 C526 1.431 . S
C503 N499 1.350 . S
C503 C502 1.417 . S
C503 C506 1.426 . S
C504 H487 0.930 . S
C504 N499 1.307 . S
C504 C501 1.402 . S
N505 Gd468 2.601 . S
N505 C506 1.359 . S
N505 C509 1.334 . S
C506 C503 1.426 . S
C506 N505 1.359 . S
C506 C510 1.413 . S
C507 H498 0.930 . S
C507 C508 1.359 . S
C507 C509 1.394 . S
C508 C507 1.359 . S
C508 C510 1.391 . S
C508 H511 0.929 . S
C509 H491 0.930 . S
C509 N505 1.334 . S
C509 C507 1.394 . S
C510 C506 1.413 . S
C510 C508 1.391 . S
C510 C525 1.437 . S
H511 C508 0.929 . S
O512 Gd468 2.545 . S
O512 C527 1.258 . S
O513 Gd468 2.606 . S
O513 Gd469 2.362 . S
O513 C524 1.284 . S
O514 Gd469 2.324 . S
O514 C534 1.254 . S
O515 Gd468 2.429 . S
O515 C534 1.268 . S
O516 Gd468 2.545 . S
O516 C524 1.250 . S
O517 Gd468 2.412 . S
O517 C527 1.252 . S
O518 Gd469 2.545 . S
O518 C536 1.258 . S
O519 Gd468 2.362 . S
O519 Gd469 2.606 . S
O519 C535 1.284 . S
O520 Gd468 2.324 . S
O520 C543 1.254 . S
O521 Gd469 2.429 . S
O521 C543 1.268 . S
O522 Gd469 2.545 . S
O522 C535 1.250 . S
O523 Gd469 2.412 . S
O523 C536 1.252 . S
C524 O513 1.284 . S
C524 O516 1.250 . S
C525 H494 0.929 . S
C525 C510 1.437 . S
C525 C526 1.317 . S
C526 H497 0.930 . S
C526 C502 1.431 . S
C526 C525 1.317 . S
C527 Gd468 2.828 . S
C527 O512 1.258 . S
C527 O517 1.252 . S
C527 C528 1.497 . S
C528 C527 1.497 . S
C528 C529 1.395 . S
C528 C530 1.380 . S
C529 C528 1.395 . S
C529 C532 1.398 . S
C529 H544 0.930 . S
C530 C528 1.380 . S
C530 C531 1.391 . S
C530 H545 0.930 . S
C531 C530 1.391 . S
C531 C533 1.387 . S
C532 C529 1.398 . S
C532 C533 1.380 . S
C532 H546 0.930 . S
C533 C531 1.387 . S
C533 C532 1.380 . S
C533 H547 0.930 . S
C534 O514 1.254 . S
C534 O515 1.268 . S
C535 O519 1.284 . S
C535 O522 1.250 . S
C536 Gd469 2.828 . S
C536 O518 1.258 . S
C536 O523 1.252 . S
C536 C537 1.497 . S
C537 C536 1.497 . S
C537 C538 1.395 . S
C537 C539 1.380 . S
C538 C537 1.395 . S
C538 C541 1.398 . S
C538 H548 0.930 . S
C539 C537 1.380 . S
C539 C540 1.391 . S
C539 H549 0.930 . S
C540 C539 1.391 . S
C540 C542 1.387 . S
C541 C538 1.398 . S
C541 C542 1.380 . S
C541 H550 0.930 . S
C542 C540 1.387 . S
C542 C541 1.380 . S
C542 H551 0.930 . S
C543 O520 1.254 . S
C543 O521 1.268 . S
H544 C529 0.930 . S
H545 C530 0.930 . S
H546 C532 0.930 . S
H547 C533 0.930 . S
H548 C538 0.930 . S
H549 C539 0.930 . S
H550 C541 0.930 . S
H551 C542 0.930 . S
Gd552 N583 2.661 . S
Gd552 N589 2.601 . S
Gd552 O596 2.545 . S
Gd552 O597 2.606 . S
Gd552 O599 2.429 . S
Gd552 O600 2.545 . S
Gd552 O601 2.412 . S
Gd552 O603 2.362 . S
Gd552 O604 2.324 . S
Gd552 C611 2.828 . S
Gd553 N562 2.661 . S
Gd553 N566 2.601 . S
Gd553 O597 2.362 . S
Gd553 O598 2.324 . S
Gd553 O602 2.545 . S
Gd553 O603 2.606 . S
Gd553 O605 2.429 . S
Gd553 O606 2.545 . S
Gd553 O607 2.412 . S
Gd553 C620 2.828 . S
C554 C557 1.417 . S
C554 C559 1.431 . S
C554 C560 1.412 . S
C555 C558 1.437 . S
C555 C559 1.317 . S
C555 H574 0.929 . S
C556 C557 1.426 . S
C556 C558 1.413 . S
C556 N566 1.359 . S
C557 C554 1.417 . S
C557 C556 1.426 . S
C557 N562 1.350 . S
C558 C555 1.437 . S
C558 C556 1.413 . S
C558 C568 1.391 . S
C559 C554 1.431 . S
C559 C555 1.317 . S
C559 H570 0.930 . S
C560 C554 1.412 . S
C560 C561 1.355 . S
C560 H572 0.930 . S
C561 C560 1.355 . S
C561 C563 1.402 . S
C561 H573 0.930 . S
N562 Gd553 2.661 . S
N562 C557 1.350 . S
N562 C563 1.307 . S
C563 C561 1.402 . S
C563 N562 1.307 . S
C563 H564 0.930 . S
H564 C563 0.930 . S
C565 N566 1.334 . S
C565 C567 1.394 . S
C565 H569 0.930 . S
N566 Gd553 2.601 . S
N566 C556 1.359 . S
N566 C565 1.334 . S
C567 C565 1.394 . S
C567 C568 1.359 . S
C567 H579 0.930 . S
C568 C558 1.391 . S
C568 C567 1.359 . S
C568 H580 0.929 . S
H569 C565 0.930 . S
H570 C559 0.930 . S
H571 C588 0.930 . S
H572 C560 0.930 . S
H573 C561 0.930 . S
H574 C555 0.929 . S
H575 C593 0.930 . S
H576 C584 0.930 . S
H577 C585 0.930 . S
H578 C609 0.929 . S
H579 C567 0.930 . S
H580 C568 0.929 . S
H581 C610 0.930 . S
H582 C591 0.930 . S
N583 Gd552 2.661 . S
N583 C587 1.350 . S
N583 C588 1.307 . S
C584 H576 0.930 . S
C584 C585 1.355 . S
C584 C586 1.412 . S
C585 H577 0.930 . S
C585 C584 1.355 . S
C585 C588 1.402 . S
C586 C584 1.412 . S
C586 C587 1.417 . S
C586 C610 1.431 . S
C587 N583 1.350 . S
C587 C586 1.417 . S
C587 C590 1.426 . S
C588 H571 0.930 . S
C588 N583 1.307 . S
C588 C585 1.402 . S
N589 Gd552 2.601 . S
N589 C590 1.359 . S
N589 C593 1.334 . S
C590 C587 1.426 . S
C590 N589 1.359 . S
C590 C594 1.413 . S
C591 H582 0.930 . S
C591 C592 1.359 . S
C591 C593 1.394 . S
C592 C591 1.359 . S
C592 C594 1.391 . S
C592 H595 0.929 . S
C593 H575 0.930 . S
C593 N589 1.334 . S
C593 C591 1.394 . S
C594 C590 1.413 . S
C594 C592 1.391 . S
C594 C609 1.437 . S
H595 C592 0.929 . S
O596 Gd552 2.545 . S
O596 C611 1.258 . S
O597 Gd552 2.606 . S
O597 Gd553 2.362 . S
O597 C608 1.284 . S
O598 Gd553 2.324 . S
O598 C618 1.254 . S
O599 Gd552 2.429 . S
O599 C618 1.268 . S
O600 Gd552 2.545 . S
O600 C608 1.250 . S
O601 Gd552 2.412 . S
O601 C611 1.252 . S
O602 Gd553 2.545 . S
O602 C620 1.258 . S
O603 Gd552 2.362 . S
O603 Gd553 2.606 . S
O603 C619 1.284 . S
O604 Gd552 2.324 . S
O604 C627 1.254 . S
O605 Gd553 2.429 . S
O605 C627 1.268 . S
O606 Gd553 2.545 . S
O606 C619 1.250 . S
O607 Gd553 2.412 . S
O607 C620 1.252 . S
C608 O597 1.284 . S
C608 O600 1.250 . S
C609 H578 0.929 . S
C609 C594 1.437 . S
C609 C610 1.317 . S
C610 H581 0.930 . S
C610 C586 1.431 . S
C610 C609 1.317 . S
C611 Gd552 2.828 . S
C611 O596 1.258 . S
C611 O601 1.252 . S
C611 C612 1.497 . S
C612 C611 1.497 . S
C612 C613 1.395 . S
C612 C614 1.380 . S
C613 C612 1.395 . S
C613 C616 1.398 . S
C613 H628 0.930 . S
C614 C612 1.380 . S
C614 C615 1.391 . S
C614 H629 0.930 . S
C615 C614 1.391 . S
C615 C617 1.387 . S
C616 C613 1.398 . S
C616 C617 1.380 . S
C616 H630 0.930 . S
C617 C615 1.387 . S
C617 C616 1.380 . S
C617 H631 0.930 . S
C618 O598 1.254 . S
C618 O599 1.268 . S
C619 O603 1.284 . S
C619 O606 1.250 . S
C620 Gd553 2.828 . S
C620 O602 1.258 . S
C620 O607 1.252 . S
C620 C621 1.497 . S
C621 C620 1.497 . S
C621 C622 1.395 . S
C621 C623 1.380 . S
C622 C621 1.395 . S
C622 C625 1.398 . S
C622 H632 0.930 . S
C623 C621 1.380 . S
C623 C624 1.391 . S
C623 H633 0.930 . S
C624 C623 1.391 . S
C624 C626 1.387 . S
C625 C622 1.398 . S
C625 C626 1.380 . S
C625 H634 0.930 . S
C626 C624 1.387 . S
C626 C625 1.380 . S
C626 H635 0.930 . S
C627 O604 1.254 . S
C627 O605 1.268 . S
H628 C613 0.930 . S
H629 C614 0.930 . S
H630 C616 0.930 . S
H631 C617 0.930 . S
H632 C622 0.930 . S
H633 C623 0.930 . S
H634 C625 0.930 . S
H635 C626 0.930 . S
Gd636 N667 2.661 . S
Gd636 N673 2.601 . S
Gd636 O680 2.545 . S
Gd636 O681 2.606 . S
Gd636 O683 2.429 . S
Gd636 O684 2.545 . S
Gd636 O685 2.412 . S
Gd636 O687 2.362 . S
Gd636 O688 2.324 . S
Gd636 C695 2.828 . S
Gd637 N646 2.661 . S
Gd637 N650 2.601 . S
Gd637 O681 2.362 . S
Gd637 O682 2.324 . S
Gd637 O686 2.545 . S
Gd637 O687 2.606 . S
Gd637 O689 2.429 . S
Gd637 O690 2.545 . S
Gd637 O691 2.412 . S
Gd637 C704 2.828 . S
C638 C641 1.417 . S
C638 C643 1.431 . S
C638 C644 1.412 . S
C639 C642 1.437 . S
C639 C643 1.317 . S
C639 H658 0.929 . S
C640 C641 1.426 . S
C640 C642 1.413 . S
C640 N650 1.359 . S
C641 C638 1.417 . S
C641 C640 1.426 . S
C641 N646 1.350 . S
C642 C639 1.437 . S
C642 C640 1.413 . S
C642 C652 1.391 . S
C643 C638 1.431 . S
C643 C639 1.317 . S
C643 H654 0.930 . S
C644 C638 1.412 . S
C644 C645 1.355 . S
C644 H656 0.930 . S
C645 C644 1.355 . S
C645 C647 1.402 . S
C645 H657 0.930 . S
N646 Gd637 2.661 . S
N646 C641 1.350 . S
N646 C647 1.307 . S
C647 C645 1.402 . S
C647 N646 1.307 . S
C647 H648 0.930 . S
H648 C647 0.930 . S
C649 N650 1.334 . S
C649 C651 1.394 . S
C649 H653 0.930 . S
N650 Gd637 2.601 . S
N650 C640 1.359 . S
N650 C649 1.334 . S
C651 C649 1.394 . S
C651 C652 1.359 . S
C651 H663 0.930 . S
C652 C642 1.391 . S
C652 C651 1.359 . S
C652 H664 0.929 . S
H653 C649 0.930 . S
H654 C643 0.930 . S
H655 C672 0.930 . S
H656 C644 0.930 . S
H657 C645 0.930 . S
H658 C639 0.929 . S
H659 C677 0.930 . S
H660 C668 0.930 . S
H661 C669 0.930 . S
H662 C693 0.929 . S
H663 C651 0.930 . S
H664 C652 0.929 . S
H665 C694 0.930 . S
H666 C675 0.921 1_545 S
N667 Gd636 2.661 . S
N667 C671 1.350 . S
N667 C672 1.307 . S
C668 H660 0.930 . S
C668 C669 1.355 . S
C668 C670 1.412 . S
C669 H661 0.930 . S
C669 C668 1.355 . S
C669 C672 1.402 . S
C670 C668 1.412 . S
C670 C671 1.417 . S
C670 C694 1.431 . S
C671 N667 1.350 . S
C671 C670 1.417 . S
C671 C674 1.426 . S
C672 H655 0.930 . S
C672 N667 1.307 . S
C672 C669 1.402 . S
N673 Gd636 2.601 . S
N673 C674 1.359 . S
N673 C677 1.334 . S
C674 C671 1.426 . S
C674 N673 1.359 . S
C674 C678 1.413 . S
C675 H666 0.921 1_565 S
C675 C676 1.359 . S
C675 C677 1.394 . S
C676 C675 1.359 . S
C676 C678 1.391 . S
C676 H679 0.929 . S
C677 H659 0.930 . S
C677 N673 1.334 . S
C677 C675 1.394 . S
C678 C674 1.413 . S
C678 C676 1.391 . S
C678 C693 1.437 . S
H679 C676 0.929 . S
O680 Gd636 2.545 . S
O680 C695 1.258 . S
O681 Gd636 2.606 . S
O681 Gd637 2.362 . S
O681 C692 1.284 . S
O682 Gd637 2.324 . S
O682 C702 1.254 . S
O683 Gd636 2.429 . S
O683 C702 1.268 . S
O684 Gd636 2.545 . S
O684 C692 1.250 . S
O685 Gd636 2.412 . S
O685 C695 1.252 . S
O686 Gd637 2.545 . S
O686 C704 1.258 . S
O687 Gd636 2.362 . S
O687 Gd637 2.606 . S
O687 C703 1.284 . S
O688 Gd636 2.324 . S
O688 C711 1.254 . S
O689 Gd637 2.429 . S
O689 C711 1.268 . S
O690 Gd637 2.545 . S
O690 C703 1.250 . S
O691 Gd637 2.412 . S
O691 C704 1.252 . S
C692 O681 1.284 . S
C692 O684 1.250 . S
C693 H662 0.929 . S
C693 C678 1.437 . S
C693 C694 1.317 . S
C694 H665 0.930 . S
C694 C670 1.431 . S
C694 C693 1.317 . S
C695 Gd636 2.828 . S
C695 O680 1.258 . S
C695 O685 1.252 . S
C695 C696 1.497 . S
C696 C695 1.497 . S
C696 C697 1.395 . S
C696 C698 1.380 . S
C697 C696 1.395 . S
C697 C700 1.398 . S
C697 H712 0.930 . S
C698 C696 1.380 . S
C698 C699 1.391 . S
C698 H713 0.930 . S
C699 C698 1.391 . S
C699 C701 1.387 . S
C700 C697 1.398 . S
C700 C701 1.380 . S
C700 H714 0.930 . S
C701 C699 1.387 . S
C701 C700 1.380 . S
C701 H715 0.930 . S
C702 O682 1.254 . S
C702 O683 1.268 . S
C703 O687 1.284 . S
C703 O690 1.250 . S
C704 Gd637 2.828 . S
C704 O686 1.258 . S
C704 O691 1.252 . S
C704 C705 1.497 . S
C705 C704 1.497 . S
C705 C706 1.395 . S
C705 C707 1.380 . S
C706 C705 1.395 . S
C706 C709 1.398 . S
C706 H716 0.930 . S
C707 C705 1.380 . S
C707 C708 1.391 . S
C707 H717 0.930 . S
C708 C707 1.391 . S
C708 C710 1.387 . S
C709 C706 1.398 . S
C709 C710 1.380 . S
C709 H718 0.930 . S
C710 C708 1.387 . S
C710 C709 1.380 . S
C710 H719 0.930 . S
C711 O688 1.254 . S
C711 O689 1.268 . S
H712 C697 0.930 . S
H713 C698 0.930 . S
H714 C700 0.930 . S
H715 C701 0.930 . S
H716 C706 0.930 . S
H717 C707 0.930 . S
H718 C709 0.930 . S
H719 C710 0.930 . S
Gd720 N751 2.661 . S
Gd720 N757 2.601 . S
Gd720 O764 2.545 . S
Gd720 O765 2.606 . S
Gd720 O767 2.429 . S
Gd720 O768 2.545 . S
Gd720 O769 2.412 . S
Gd720 O771 2.362 . S
Gd720 O772 2.324 . S
Gd720 C779 2.828 . S
Gd721 N730 2.661 . S
Gd721 N734 2.601 . S
Gd721 O765 2.362 . S
Gd721 O766 2.324 . S
Gd721 O770 2.545 . S
Gd721 O771 2.606 . S
Gd721 O773 2.429 . S
Gd721 O774 2.545 . S
Gd721 O775 2.412 . S
Gd721 C788 2.828 . S
C722 C725 1.417 . S
C722 C727 1.431 . S
C722 C728 1.412 . S
C723 C726 1.437 . S
C723 C727 1.317 . S
C723 H742 0.929 . S
C724 C725 1.426 . S
C724 C726 1.413 . S
C724 N734 1.359 . S
C725 C722 1.417 . S
C725 C724 1.426 . S
C725 N730 1.350 . S
C726 C723 1.437 . S
C726 C724 1.413 . S
C726 C736 1.391 . S
C727 C722 1.431 . S
C727 C723 1.317 . S
C727 H738 0.930 . S
C728 C722 1.412 . S
C728 C729 1.355 . S
C728 H740 0.930 . S
C729 C728 1.355 . S
C729 C731 1.402 . S
C729 H741 0.930 . S
N730 Gd721 2.661 . S
N730 C725 1.350 . S
N730 C731 1.307 . S
C731 C729 1.402 . S
C731 N730 1.307 . S
C731 H732 0.930 . S
H732 C731 0.930 . S
C733 N734 1.334 . S
C733 C735 1.394 . S
C733 H737 0.930 . S
N734 Gd721 2.601 . S
N734 C724 1.359 . S
N734 C733 1.334 . S
C735 C733 1.394 . S
C735 C736 1.359 . S
C735 H747 0.930 . S
C736 C726 1.391 . S
C736 C735 1.359 . S
C736 H748 0.929 . S
H737 C733 0.930 . S
H738 C727 0.930 . S
H739 C756 0.930 . S
H740 C728 0.930 . S
H741 C729 0.930 . S
H742 C723 0.929 . S
H743 C761 0.930 . S
H744 C752 0.930 . S
H745 C753 0.930 . S
H746 C777 0.929 . S
H747 C735 0.930 . S
H748 C736 0.929 . S
H749 C778 0.930 . S
H750 C759 0.930 . S
N751 Gd720 2.661 . S
N751 C755 1.350 . S
N751 C756 1.307 . S
C752 H744 0.930 . S
C752 C753 1.355 . S
C752 C754 1.412 . S
C753 H745 0.930 . S
C753 C752 1.355 . S
C753 C756 1.402 . S
C754 C752 1.412 . S
C754 C755 1.417 . S
C754 C778 1.431 . S
C755 N751 1.350 . S
C755 C754 1.417 . S
C755 C758 1.426 . S
C756 H739 0.930 . S
C756 N751 1.307 . S
C756 C753 1.402 . S
N757 Gd720 2.601 . S
N757 C758 1.359 . S
N757 C761 1.334 . S
C758 C755 1.426 . S
C758 N757 1.359 . S
C758 C762 1.413 . S
C759 H750 0.930 . S
C759 C760 1.359 . S
C759 C761 1.394 . S
C760 C759 1.359 . S
C760 C762 1.391 . S
C760 H763 0.929 . S
C761 H743 0.930 . S
C761 N757 1.334 . S
C761 C759 1.394 . S
C762 C758 1.413 . S
C762 C760 1.391 . S
C762 C777 1.437 . S
H763 C760 0.929 . S
O764 Gd720 2.545 . S
O764 C779 1.258 . S
O765 Gd720 2.606 . S
O765 Gd721 2.362 . S
O765 C776 1.284 . S
O766 Gd721 2.324 . S
O766 C786 1.254 . S
O767 Gd720 2.429 . S
O767 C786 1.268 . S
O768 Gd720 2.545 . S
O768 C776 1.250 . S
O769 Gd720 2.412 . S
O769 C779 1.252 . S
O770 Gd721 2.545 . S
O770 C788 1.258 . S
O771 Gd720 2.362 . S
O771 Gd721 2.606 . S
O771 C787 1.284 . S
O772 Gd720 2.324 . S
O772 C795 1.254 . S
O773 Gd721 2.429 . S
O773 C795 1.268 . S
O774 Gd721 2.545 . S
O774 C787 1.250 . S
O775 Gd721 2.412 . S
O775 C788 1.252 . S
C776 O765 1.284 . S
C776 O768 1.250 . S
C777 H746 0.929 . S
C777 C762 1.437 . S
C777 C778 1.317 . S
C778 H749 0.930 . S
C778 C754 1.431 . S
C778 C777 1.317 . S
C779 Gd720 2.828 . S
C779 O764 1.258 . S
C779 O769 1.252 . S
C779 C780 1.497 . S
C780 C779 1.497 . S
C780 C781 1.395 . S
C780 C782 1.380 . S
C781 C780 1.395 . S
C781 C784 1.398 . S
C781 H796 0.930 . S
C782 C780 1.380 . S
C782 C783 1.391 . S
C782 H797 0.930 . S
C783 C782 1.391 . S
C783 C785 1.387 . S
C784 C781 1.398 . S
C784 C785 1.380 . S
C784 H798 0.930 . S
C785 C783 1.387 . S
C785 C784 1.380 . S
C785 H799 0.930 . S
C786 O766 1.254 . S
C786 O767 1.268 . S
C787 O771 1.284 . S
C787 O774 1.250 . S
C788 Gd721 2.828 . S
C788 O770 1.258 . S
C788 O775 1.252 . S
C788 C789 1.497 . S
C789 C788 1.497 . S
C789 C790 1.395 . S
C789 C791 1.380 . S
C790 C789 1.395 . S
C790 C793 1.398 . S
C790 H800 0.930 . S
C791 C789 1.380 . S
C791 C792 1.391 . S
C791 H801 0.930 . S
C792 C791 1.391 . S
C792 C794 1.387 . S
C793 C790 1.398 . S
C793 C794 1.380 . S
C793 H802 0.930 . S
C794 C792 1.387 . S
C794 C793 1.380 . S
C794 H803 0.930 . S
C795 O772 1.254 . S
C795 O773 1.268 . S
H796 C781 0.930 . S
H797 C782 0.930 . S
H798 C784 0.930 . S
H799 C785 0.930 . S
H800 C790 0.930 . S
H801 C791 0.930 . S
H802 C793 0.930 . S
H803 C794 0.930 . S
Gd804 N835 2.661 . S
Gd804 N841 2.601 . S
Gd804 O848 2.545 . S
Gd804 O849 2.606 . S
Gd804 O851 2.429 . S
Gd804 O852 2.545 . S
Gd804 O853 2.412 . S
Gd804 O855 2.362 . S
Gd804 O856 2.324 . S
Gd804 C863 2.828 . S
Gd805 N814 2.661 . S
Gd805 N818 2.601 . S
Gd805 O849 2.362 . S
Gd805 O850 2.324 . S
Gd805 O854 2.545 . S
Gd805 O855 2.606 . S
Gd805 O857 2.429 . S
Gd805 O858 2.545 . S
Gd805 O859 2.412 . S
Gd805 C872 2.828 . S
C806 C809 1.417 . S
C806 C811 1.431 . S
C806 C812 1.412 . S
C807 C810 1.437 . S
C807 C811 1.317 . S
C807 H826 0.929 . S
C808 C809 1.426 . S
C808 C810 1.413 . S
C808 N818 1.359 . S
C809 C806 1.417 . S
C809 C808 1.426 . S
C809 N814 1.350 . S
C810 C807 1.437 . S
C810 C808 1.413 . S
C810 C820 1.391 . S
C811 C806 1.431 . S
C811 C807 1.317 . S
C811 H822 0.930 . S
C812 C806 1.412 . S
C812 C813 1.355 . S
C812 H824 0.930 . S
C813 C812 1.355 . S
C813 C815 1.402 . S
C813 H825 0.930 . S
N814 Gd805 2.661 . S
N814 C809 1.350 . S
N814 C815 1.307 . S
C815 C813 1.402 . S
C815 N814 1.307 . S
C815 H816 0.930 . S
H816 C815 0.930 . S
C817 N818 1.334 . S
C817 C819 1.394 . S
C817 H821 0.930 . S
N818 Gd805 2.601 . S
N818 C808 1.359 . S
N818 C817 1.334 . S
C819 C817 1.394 . S
C819 C820 1.359 . S
C819 H831 0.930 . S
C820 C810 1.391 . S
C820 C819 1.359 . S
C820 H832 0.929 . S
H821 C817 0.930 . S
H822 C811 0.930 . S
H823 C840 0.930 . S
H824 C812 0.930 . S
H825 C813 0.930 . S
H826 C807 0.929 . S
H827 C845 0.930 . S
H828 C836 0.930 . S
H829 C837 0.930 . S
H830 C861 0.929 . S
H831 C819 0.930 . S
H832 C820 0.929 . S
H833 C862 0.930 . S
H834 C843 0.930 . S
N835 Gd804 2.661 . S
N835 C839 1.350 . S
N835 C840 1.307 . S
C836 H828 0.930 . S
C836 C837 1.355 . S
C836 C838 1.412 . S
C837 H829 0.930 . S
C837 C836 1.355 . S
C837 C840 1.402 . S
C838 C836 1.412 . S
C838 C839 1.417 . S
C838 C862 1.431 . S
C839 N835 1.350 . S
C839 C838 1.417 . S
C839 C842 1.426 . S
C840 H823 0.930 . S
C840 N835 1.307 . S
C840 C837 1.402 . S
N841 Gd804 2.601 . S
N841 C842 1.359 . S
N841 C845 1.334 . S
C842 C839 1.426 . S
C842 N841 1.359 . S
C842 C846 1.413 . S
C843 H834 0.930 . S
C843 C844 1.359 . S
C843 C845 1.394 . S
C844 C843 1.359 . S
C844 C846 1.391 . S
C844 H847 0.929 . S
C845 H827 0.930 . S
C845 N841 1.334 . S
C845 C843 1.394 . S
C846 C842 1.413 . S
C846 C844 1.391 . S
C846 C861 1.437 . S
H847 C844 0.929 . S
O848 Gd804 2.545 . S
O848 C863 1.258 . S
O849 Gd804 2.606 . S
O849 Gd805 2.362 . S
O849 C860 1.284 . S
O850 Gd805 2.324 . S
O850 C870 1.254 . S
O851 Gd804 2.429 . S
O851 C870 1.268 . S
O852 Gd804 2.545 . S
O852 C860 1.250 . S
O853 Gd804 2.412 . S
O853 C863 1.252 . S
O854 Gd805 2.545 . S
O854 C872 1.258 . S
O855 Gd804 2.362 . S
O855 Gd805 2.606 . S
O855 C871 1.284 . S
O856 Gd804 2.324 . S
O856 C879 1.254 . S
O857 Gd805 2.429 . S
O857 C879 1.268 . S
O858 Gd805 2.545 . S
O858 C871 1.250 . S
O859 Gd805 2.412 . S
O859 C872 1.252 . S
C860 O849 1.284 . S
C860 O852 1.250 . S
C861 H830 0.929 . S
C861 C846 1.437 . S
C861 C862 1.317 . S
C862 H833 0.930 . S
C862 C838 1.431 . S
C862 C861 1.317 . S
C863 Gd804 2.828 . S
C863 O848 1.258 . S
C863 O853 1.252 . S
C863 C864 1.497 . S
C864 C863 1.497 . S
C864 C865 1.395 . S
C864 C866 1.380 . S
C865 C864 1.395 . S
C865 C868 1.398 . S
C865 H880 0.930 . S
C866 C864 1.380 . S
C866 C867 1.391 . S
C866 H881 0.930 . S
C867 C866 1.391 . S
C867 C869 1.387 . S
C868 C865 1.398 . S
C868 C869 1.380 . S
C868 H882 0.930 . S
C869 C867 1.387 . S
C869 C868 1.380 . S
C869 H883 0.930 . S
C870 O850 1.254 . S
C870 O851 1.268 . S
C871 O855 1.284 . S
C871 O858 1.250 . S
C872 Gd805 2.828 . S
C872 O854 1.258 . S
C872 O859 1.252 . S
C872 C873 1.497 . S
C873 C872 1.497 . S
C873 C874 1.395 . S
C873 C875 1.380 . S
C874 C873 1.395 . S
C874 C877 1.398 . S
C874 H884 0.930 . S
C875 C873 1.380 . S
C875 C876 1.391 . S
C875 H885 0.930 . S
C876 C875 1.391 . S
C876 C878 1.387 . S
C877 C874 1.398 . S
C877 C878 1.380 . S
C877 H886 0.930 . S
C878 C876 1.387 . S
C878 C877 1.380 . S
C878 H887 0.930 . S
C879 O856 1.254 . S
C879 O857 1.268 . S
H880 C865 0.930 . S
H881 C866 0.930 . S
H882 C868 0.930 . S
H883 C869 0.930 . S
H884 C874 0.930 . S
H885 C875 0.930 . S
H886 C877 0.930 . S
H887 C878 0.930 . S
Gd888 N919 2.661 . S
Gd888 N925 2.601 . S
Gd888 O932 2.545 . S
Gd888 O933 2.606 . S
Gd888 O935 2.429 . S
Gd888 O936 2.545 . S
Gd888 O937 2.412 . S
Gd888 O939 2.362 . S
Gd888 O940 2.324 . S
Gd888 C947 2.828 . S
Gd889 N898 2.661 . S
Gd889 N902 2.601 . S
Gd889 O933 2.362 . S
Gd889 O934 2.324 . S
Gd889 O938 2.545 . S
Gd889 O939 2.606 . S
Gd889 O941 2.429 . S
Gd889 O942 2.545 . S
Gd889 O943 2.412 . S
Gd889 C956 2.828 . S
C890 C893 1.417 1_455 S
C890 C895 1.431 . S
C890 C896 1.412 . S
C891 C894 1.437 1_455 S
C891 C895 1.317 . S
C891 H910 0.929 . S
C892 C893 1.426 . S
C892 C894 1.413 . S
C892 N902 1.359 . S
C893 C890 1.417 1_655 S
C893 C892 1.426 . S
C893 N898 1.350 . S
C894 C891 1.437 1_655 S
C894 C892 1.413 . S
C894 C904 1.391 . S
C895 C890 1.431 . S
C895 C891 1.317 . S
C895 H906 0.930 . S
C896 C890 1.412 . S
C896 C897 1.355 . S
C896 H908 0.930 . S
C897 C896 1.355 . S
C897 C899 1.402 1_455 S
C897 H909 0.930 . S
N898 Gd889 2.661 . S
N898 C893 1.350 . S
N898 C899 1.307 . S
C899 C897 1.402 1_655 S
C899 N898 1.307 . S
C899 H900 0.930 . S
H900 C899 0.930 . S
C901 N902 1.334 . S
C901 C903 1.394 . S
C901 H905 0.930 . S
N902 Gd889 2.601 . S
N902 C892 1.359 . S
N902 C901 1.334 . S
C903 C901 1.394 . S
C903 C904 1.359 . S
C903 H915 0.930 . S
C904 C894 1.391 . S
C904 C903 1.359 . S
C904 H916 0.929 . S
H905 C901 0.930 . S
H906 C895 0.930 . S
H907 C924 0.930 . S
H908 C896 0.930 . S
H909 C897 0.930 . S
H910 C891 0.929 . S
H911 C929 0.930 . S
H912 C920 0.930 . S
H913 C921 0.930 . S
H914 C945 0.929 . S
H915 C903 0.930 . S
H916 C904 0.929 . S
H917 C946 0.930 . S
H918 C927 0.930 . S
N919 Gd888 2.661 . S
N919 C923 1.350 . S
N919 C924 1.307 . S
C920 H912 0.930 . S
C920 C921 1.355 . S
C920 C922 1.412 . S
C921 H913 0.930 . S
C921 C920 1.355 . S
C921 C924 1.402 . S
C922 C920 1.412 . S
C922 C923 1.417 . S
C922 C946 1.431 . S
C923 N919 1.350 . S
C923 C922 1.417 . S
C923 C926 1.426 . S
C924 H907 0.930 . S
C924 N919 1.307 . S
C924 C921 1.402 . S
N925 Gd888 2.601 . S
N925 C926 1.359 . S
N925 C929 1.334 . S
C926 C923 1.426 . S
C926 N925 1.359 . S
C926 C930 1.413 . S
C927 H918 0.930 . S
C927 C928 1.359 . S
C927 C929 1.394 . S
C928 C927 1.359 . S
C928 C930 1.391 . S
C928 H931 0.929 . S
C929 H911 0.930 . S
C929 N925 1.334 . S
C929 C927 1.394 . S
C930 C926 1.413 . S
C930 C928 1.391 . S
C930 C945 1.437 . S
H931 C928 0.929 . S
O932 Gd888 2.545 . S
O932 C947 1.258 . S
O933 Gd888 2.606 . S
O933 Gd889 2.362 . S
O933 C944 1.284 . S
O934 Gd889 2.324 . S
O934 C954 1.254 . S
O935 Gd888 2.429 . S
O935 C954 1.268 . S
O936 Gd888 2.545 . S
O936 C944 1.250 . S
O937 Gd888 2.412 . S
O937 C947 1.252 . S
O938 Gd889 2.545 . S
O938 C956 1.258 . S
O939 Gd888 2.362 . S
O939 Gd889 2.606 . S
O939 C955 1.284 . S
O940 Gd888 2.324 . S
O940 C963 1.254 . S
O941 Gd889 2.429 . S
O941 C963 1.268 . S
O942 Gd889 2.545 . S
O942 C955 1.250 . S
O943 Gd889 2.412 . S
O943 C956 1.252 . S
C944 O933 1.284 . S
C944 O936 1.250 . S
C945 H914 0.929 . S
C945 C930 1.437 . S
C945 C946 1.317 . S
C946 H917 0.930 . S
C946 C922 1.431 . S
C946 C945 1.317 . S
C947 Gd888 2.828 . S
C947 O932 1.258 . S
C947 O937 1.252 . S
C947 C948 1.497 . S
C948 C947 1.497 . S
C948 C949 1.395 . S
C948 C950 1.380 . S
C949 C948 1.395 . S
C949 C952 1.398 . S
C949 H964 0.930 . S
C950 C948 1.380 . S
C950 C951 1.391 . S
C950 H965 0.930 . S
C951 C950 1.391 . S
C951 C953 1.387 . S
C952 C949 1.398 . S
C952 C953 1.380 . S
C952 H966 0.930 . S
C953 C951 1.387 . S
C953 C952 1.380 . S
C953 H967 0.930 . S
C954 O934 1.254 . S
C954 O935 1.268 . S
C955 O939 1.284 . S
C955 O942 1.250 . S
C956 Gd889 2.828 . S
C956 O938 1.258 . S
C956 O943 1.252 . S
C956 C957 1.497 . S
C957 C956 1.497 . S
C957 C958 1.395 . S
C957 C959 1.380 . S
C958 C957 1.395 . S
C958 C961 1.398 . S
C958 H968 0.930 . S
C959 C957 1.380 . S
C959 C960 1.391 . S
C959 H969 0.930 . S
C960 C959 1.391 . S
C960 C962 1.387 . S
C961 C958 1.398 . S
C961 C962 1.380 . S
C961 H970 0.930 . S
C962 C960 1.387 . S
C962 C961 1.380 . S
C962 H971 0.930 . S
C963 O940 1.254 . S
C963 O941 1.268 . S
H964 C949 0.930 . S
H965 C950 0.930 . S
H966 C952 0.930 . S
H967 C953 0.930 . S
H968 C958 0.930 . S
H969 C959 0.930 . S
H970 C961 0.930 . S
H971 C962 0.930 . S
C972 C973 1.387 . S
C972 H976 0.950 . S
C972 C981 1.390 . S
C973 C972 1.387 . S
C973 C975 1.387 . S
H974 C981 0.950 . S
C975 C973 1.387 . S
C975 C977 1.390 . S
C975 H979 0.950 . S
H976 C972 0.950 . S
C977 C975 1.390 . S
C977 C978 1.387 . S
C977 H980 0.950 . S
C978 C977 1.387 . S
C978 C981 1.387 . S
H979 C975 0.950 . S
H980 C977 0.950 . S
C981 C972 1.390 . S
C981 H974 0.950 . S
C981 C978 1.387 . S
C982 C983 1.387 . S
C982 H986 0.950 . S
C982 C991 1.390 . S
C983 C982 1.387 . S
C983 C985 1.387 . S
H984 C991 0.950 . S
C985 C983 1.387 . S
C985 C987 1.390 . S
C985 H989 0.950 . S
H986 C982 0.950 . S
C987 C985 1.390 . S
C987 C988 1.387 . S
C987 H990 0.950 . S
C988 C987 1.387 . S
C988 C991 1.387 . S
H989 C985 0.950 . S
H990 C987 0.950 . S
C991 C982 1.390 . S
C991 H984 0.950 . S
C991 C988 1.387 . S
C992 C993 1.387 . S
C992 H996 0.950 . S
C992 C1001 1.390 . S
C993 C992 1.387 . S
C993 C995 1.387 . S
H994 C1001 0.950 . S
C995 C993 1.387 . S
C995 C997 1.390 . S
C995 H999 0.950 . S
H996 C992 0.950 . S
C997 C995 1.390 . S
C997 C998 1.387 . S
C997 H1000 0.950 1_554 S
C998 C997 1.387 . S
C998 C1001 1.387 . S
H999 C995 0.950 . S
H1000 C997 0.950 1_556 S
C1001 C992 1.390 . S
C1001 H994 0.950 . S
C1001 C998 1.387 . S
C1002 C1003 1.387 . S
C1002 H1006 0.950 . S
C1002 C1011 1.390 . S
C1003 C1002 1.387 . S
C1003 C1005 1.387 . S
H1004 C1011 0.950 . S
C1005 C1003 1.387 . S
C1005 C1007 1.390 . S
C1005 H1009 0.950 . S
H1006 C1002 0.950 . S
C1007 C1005 1.390 . S
C1007 C1008 1.387 . S
C1007 H1010 0.950 . S
C1008 C1007 1.387 . S
C1008 C1011 1.387 . S
H1009 C1005 0.950 . S
H1010 C1007 0.950 . S
C1011 C1002 1.390 . S
C1011 H1004 0.950 . S
C1011 C1008 1.387 . S
C1012 C1013 1.387 . S
C1012 H1016 0.950 . S
C1012 C1021 1.390 . S
C1013 C1012 1.387 . S
C1013 C1015 1.387 . S
H1014 C1021 0.950 . S
C1015 C1013 1.387 . S
C1015 C1017 1.390 . S
C1015 H1019 0.950 . S
H1016 C1012 0.950 . S
C1017 C1015 1.390 . S
C1017 C1018 1.387 . S
C1017 H1020 0.950 . S
C1018 C1017 1.387 . S
C1018 C1021 1.387 . S
H1019 C1015 0.950 . S
H1020 C1017 0.950 . S
C1021 C1012 1.390 . S
C1021 H1014 0.950 . S
C1021 C1018 1.387 . S
C1022 C1023 1.387 . S
C1022 H1026 0.950 . S
C1022 C1031 1.390 . S
C1023 C1022 1.387 . S
C1023 C1025 1.387 . S
H1024 C1031 0.950 . S
C1025 C1023 1.387 . S
C1025 C1027 1.402 . S
C1025 H1029 0.959 . S
H1026 C1022 0.950 . S
C1027 C1025 1.402 . S
C1027 C1028 1.405 . S
C1027 H1030 0.921 1_556 S
C1028 C1027 1.405 . S
C1028 C1031 1.387 . S
H1029 C1025 0.959 . S
H1030 C1027 0.921 1_554 S
C1031 C1022 1.390 . S
C1031 H1024 0.950 . S
C1031 C1028 1.387 . S
C1032 C1033 1.387 . S
C1032 H1036 0.950 . S
C1032 C1041 1.390 . S
C1033 C1032 1.387 . S
C1033 C1035 1.399 . S
H1034 C1041 0.950 . S
C1035 C1033 1.399 . S
C1035 C1037 1.388 1_556 S
C1035 H1039 0.941 1_556 S
H1036 C1032 0.950 . S
C1037 C1035 1.388 1_554 S
C1037 C1038 1.387 1_554 S
C1037 H1040 0.950 . S
C1038 C1037 1.387 1_556 S
C1038 C1041 1.387 . S
H1039 C1035 0.941 1_554 S
H1040 C1037 0.950 . S
C1041 C1032 1.390 . S
C1041 H1034 0.950 . S
C1041 C1038 1.387 . S
C1042 C1043 1.387 . S
C1042 H1046 0.950 . S
C1042 C1051 1.390 . S
C1043 C1042 1.387 . S
C1043 C1045 1.387 . S
H1044 C1051 0.950 . S
C1045 C1043 1.387 . S
C1045 C1047 1.390 1_556 S
C1045 H1049 0.950 1_556 S
H1046 C1042 0.950 . S
C1047 C1045 1.390 1_554 S
C1047 C1048 1.387 1_554 S
C1047 H1050 0.950 . S
C1048 C1047 1.387 1_556 S
C1048 C1051 1.387 . S
H1049 C1045 0.950 1_554 S
H1050 C1047 0.950 . S
C1051 C1042 1.390 . S
C1051 H1044 0.950 . S
C1051 C1048 1.387 . S
C1052 C1053 1.387 . S
C1052 H1056 0.950 . S
C1052 C1061 1.390 . S
C1053 C1052 1.387 . S
C1053 C1055 1.387 1_556 S
H1054 C1061 0.950 . S
C1055 C1053 1.387 1_554 S
C1055 C1057 1.390 . S
C1055 H1059 0.950 . S
H1056 C1052 0.950 . S
C1057 C1055 1.390 . S
C1057 C1058 1.387 1_554 S
C1057 H1060 0.950 . S
C1058 C1057 1.387 1_556 S
C1058 C1061 1.387 . S
H1059 C1055 0.950 . S
H1060 C1057 0.950 . S
C1061 C1052 1.390 . S
C1061 H1054 0.950 . S
C1061 C1058 1.387 . S
C1062 C1063 1.387 . S
C1062 H1066 0.950 . S
C1062 C1071 1.390 . S
C1063 C1062 1.387 . S
C1063 C1065 1.387 . S
H1064 C1071 0.950 1_556 S
C1065 C1063 1.387 . S
C1065 C1067 1.390 . S
C1065 H1069 0.950 . S
H1066 C1062 0.950 . S
C1067 C1065 1.390 . S
C1067 C1068 1.387 . S
C1067 H1070 0.950 . S
C1068 C1067 1.387 . S
C1068 C1071 1.387 . S
H1069 C1065 0.950 . S
H1070 C1067 0.950 . S
C1071 C1062 1.390 . S
C1071 H1064 0.950 1_554 S
C1071 C1068 1.387 . S
C1072 C1073 1.387 . S
C1072 H1076 0.950 . S
C1072 C1081 1.390 . S
C1073 C1072 1.387 . S
C1073 C1075 1.387 . S
H1074 C1081 0.950 . S
C1075 C1073 1.387 . S
C1075 C1077 1.390 . S
C1075 H1079 0.950 . S
H1076 C1072 0.950 . S
C1077 C1075 1.390 . S
C1077 C1078 1.387 . S
C1077 H1080 0.978 . S
C1078 C1077 1.387 . S
C1078 C1081 1.387 . S
H1079 C1075 0.950 . S
H1080 C1077 0.978 . S
C1081 C1072 1.390 . S
C1081 H1074 0.950 . S
C1081 C1078 1.387 . S
C1082 C1083 1.387 . S
C1082 H1086 0.950 . S
C1082 C1091 1.390 . S
C1083 C1082 1.387 . S
C1083 C1085 1.387 . S
H1084 C1091 0.950 . S
C1085 C1083 1.387 . S
C1085 C1087 1.390 . S
C1085 H1089 0.950 1_554 S
H1086 C1082 0.950 . S
C1087 C1085 1.390 . S
C1087 C1088 1.387 . S
C1087 H1090 0.950 1_554 S
C1088 C1087 1.387 . S
C1088 C1091 1.387 . S
H1089 C1085 0.950 1_556 S
H1090 C1087 0.950 1_556 S
C1091 C1082 1.390 . S
C1091 H1084 0.950 . S
C1091 C1088 1.387 . S
C1092 C1093 1.387 . S
C1092 H1096 0.950 . S
C1092 C1101 1.390 1_655 S
C1093 C1092 1.387 . S
C1093 C1095 1.387 . S
H1094 C1101 0.950 . S
C1095 C1093 1.387 . S
C1095 C1097 1.390 1_655 S
C1095 H1099 0.950 . S
H1096 C1092 0.950 . S
C1097 C1095 1.390 1_455 S
C1097 C1098 1.387 . S
C1097 H1100 0.950 . S
C1098 C1097 1.387 . S
C1098 C1101 1.387 . S
H1099 C1095 0.950 . S
H1100 C1097 0.950 . S
C1101 C1092 1.390 1_455 S
C1101 H1094 0.950 . S
C1101 C1098 1.387 . S
C1102 C1103 1.387 . S
C1102 H1106 0.950 . S
C1102 C1111 1.390 . S
C1103 C1102 1.387 . S
C1103 C1105 1.387 . S
H1104 C1111 0.950 . S
C1105 C1103 1.387 . S
C1105 C1107 1.390 . S
C1105 H1109 0.950 . S
H1106 C1102 0.950 . S
C1107 C1105 1.390 . S
C1107 C1108 1.387 . S
C1107 H1110 0.950 . S
C1108 C1107 1.387 . S
C1108 C1111 1.387 . S
H1109 C1105 0.950 . S
H1110 C1107 0.950 . S
C1111 C1102 1.390 . S
C1111 H1104 0.950 . S
C1111 C1108 1.387 . S
C1112 C1113 1.387 . S
C1112 H1116 0.950 . S
C1112 C1121 1.390 1_545 S
C1113 C1112 1.387 . S
C1113 C1115 1.387 . S
H1114 C1121 0.950 . S
C1115 C1113 1.387 . S
C1115 C1117 1.390 . S
C1115 H1119 0.950 . S
H1116 C1112 0.950 . S
C1117 C1115 1.390 . S
C1117 C1118 1.387 1_545 S
C1117 H1120 0.950 . S
C1118 C1117 1.387 1_565 S
C1118 C1121 1.387 . S
H1119 C1115 0.950 . S
H1120 C1117 0.950 . S
C1121 C1112 1.390 1_565 S
C1121 H1114 0.950 . S
C1121 C1118 1.387 . S
C1122 C1123 1.387 . S
C1122 H1126 0.950 . S
C1122 C1131 1.390 . S
C1123 C1122 1.387 . S
C1123 C1125 1.387 . S
H1124 C1131 0.950 . S
C1125 C1123 1.387 . S
C1125 C1127 1.390 . S
C1125 H1129 0.950 . S
H1126 C1122 0.950 . S
C1127 C1125 1.390 . S
C1127 C1128 1.387 . S
C1127 H1130 0.950 . S
C1128 C1127 1.387 . S
C1128 C1131 1.387 . S
H1129 C1125 0.950 . S
H1130 C1127 0.950 . S
C1131 C1122 1.390 . S
C1131 H1124 0.950 . S
C1131 C1128 1.387 . S
C1132 C1133 1.387 . S
C1132 H1136 0.950 . S
C1132 C1141 1.390 . S
C1133 C1132 1.387 . S
C1133 C1135 1.387 . S
H1134 C1141 0.950 . S
C1135 C1133 1.387 . S
C1135 C1137 1.390 . S
C1135 H1139 0.950 . S
H1136 C1132 0.950 . S
C1137 C1135 1.390 . S
C1137 C1138 1.387 . S
C1137 H1140 0.950 . S
C1138 C1137 1.387 . S
C1138 C1141 1.387 . S
H1139 C1135 0.950 . S
H1140 C1137 0.950 . S
C1141 C1132 1.390 . S
C1141 H1134 0.950 . S
C1141 C1138 1.387 . S
C1142 C1143 1.387 . S
C1142 H1146 0.950 . S
C1142 C1151 1.390 . S
C1143 C1142 1.387 . S
C1143 C1145 1.387 . S
H1144 C1151 0.950 . S
C1145 C1143 1.387 . S
C1145 C1147 1.390 . S
C1145 H1149 0.950 . S
H1146 C1142 0.950 . S
C1147 C1145 1.390 . S
C1147 C1148 1.387 . S
C1147 H1150 0.950 . S
C1148 C1147 1.387 . S
C1148 C1151 1.387 . S
H1149 C1145 0.950 . S
H1150 C1147 0.950 . S
C1151 C1142 1.390 . S
C1151 H1144 0.950 . S
C1151 C1148 1.387 . S
C1152 C1153 1.387 . S
C1152 H1156 0.950 . S
C1152 C1161 1.390 . S
C1153 C1152 1.387 . S
C1153 C1155 1.387 . S
H1154 C1161 0.950 . S
C1155 C1153 1.387 . S
C1155 C1157 1.390 . S
C1155 H1159 0.950 . S
H1156 C1152 0.950 . S
C1157 C1155 1.390 . S
C1157 C1158 1.387 . S
C1157 H1160 0.950 . S
C1158 C1157 1.387 . S
C1158 C1161 1.387 . S
H1159 C1155 0.950 . S
H1160 C1157 0.950 . S
C1161 C1152 1.390 . S
C1161 H1154 0.950 . S
C1161 C1158 1.387 . S
C1162 C1163 1.387 . S
C1162 H1166 0.950 . S
C1162 C1171 1.390 . S
C1163 C1162 1.387 . S
C1163 C1165 1.387 . S
H1164 C1171 0.950 . S
C1165 C1163 1.387 . S
C1165 C1167 1.390 . S
C1165 H1169 0.950 . S
H1166 C1162 0.950 . S
C1167 C1165 1.390 . S
C1167 C1168 1.387 . S
C1167 H1170 0.950 . S
C1168 C1167 1.387 . S
C1168 C1171 1.387 . S
H1169 C1165 0.950 . S
H1170 C1167 0.950 . S
C1171 C1162 1.390 . S
C1171 H1164 0.950 . S
C1171 C1168 1.387 . S
C1172 C1173 1.387 . S
C1172 H1176 0.950 . S
C1172 C1181 1.390 . S
C1173 C1172 1.387 . S
C1173 C1175 1.387 . S
H1174 C1181 0.950 . S
C1175 C1173 1.387 . S
C1175 C1177 1.390 . S
C1175 H1179 0.950 . S
H1176 C1172 0.950 . S
C1177 C1175 1.390 . S
C1177 C1178 1.387 . S
C1177 H1180 0.950 . S
C1178 C1177 1.387 . S
C1178 C1181 1.387 . S
H1179 C1175 0.950 . S
H1180 C1177 0.950 . S
C1181 C1172 1.390 . S
C1181 H1174 0.950 . S
C1181 C1178 1.387 . S
C1182 C1183 1.387 . S
C1182 H1186 0.950 . S
C1182 C1191 1.390 . S
C1183 C1182 1.387 . S
C1183 C1185 1.387 . S
H1184 C1191 0.950 . S
C1185 C1183 1.387 . S
C1185 C1187 1.390 . S
C1185 H1189 0.950 . S
H1186 C1182 0.950 . S
C1187 C1185 1.390 . S
C1187 C1188 1.387 . S
C1187 H1190 0.950 . S
C1188 C1187 1.387 . S
C1188 C1191 1.387 . S
H1189 C1185 0.950 . S
H1190 C1187 0.950 . S
C1191 C1182 1.390 . S
C1191 H1184 0.950 . S
C1191 C1188 1.387 . S
C1192 C1193 1.387 . S
C1192 H1196 0.950 . S
C1192 C1201 1.390 . S
C1193 C1192 1.387 . S
C1193 C1195 1.387 . S
H1194 C1201 0.950 . S
C1195 C1193 1.387 . S
C1195 C1197 1.390 . S
C1195 H1199 0.950 . S
H1196 C1192 0.950 . S
C1197 C1195 1.390 . S
C1197 C1198 1.387 . S
C1197 H1200 0.950 . S
C1198 C1197 1.387 . S
C1198 C1201 1.387 . S
H1199 C1195 0.950 . S
H1200 C1197 0.950 . S
C1201 C1192 1.390 . S
C1201 H1194 0.950 . S
C1201 C1198 1.387 . S
C1202 C1203 1.387 . S
C1202 H1206 0.950 . S
C1202 C1211 1.390 . S
C1203 C1202 1.387 . S
C1203 C1205 1.387 . S
H1204 C1211 0.950 . S
C1205 C1203 1.387 . S
C1205 C1207 1.390 . S
C1205 H1209 0.950 . S
H1206 C1202 0.950 . S
C1207 C1205 1.390 . S
C1207 C1208 1.387 . S
C1207 H1210 0.950 . S
C1208 C1207 1.387 . S
C1208 C1211 1.387 . S
H1209 C1205 0.950 . S
H1210 C1207 0.950 . S
C1211 C1202 1.390 . S
C1211 H1204 0.950 . S
C1211 C1208 1.387 . S
C1212 C1213 1.387 . S
C1212 H1216 0.950 . S
C1212 C1221 1.390 . S
C1213 C1212 1.387 . S
C1213 C1215 1.387 . S
H1214 C1221 0.950 . S
C1215 C1213 1.387 . S
C1215 C1217 1.390 . S
C1215 H1219 0.950 . S
H1216 C1212 0.950 . S
C1217 C1215 1.390 . S
C1217 C1218 1.387 . S
C1217 H1220 0.950 . S
C1218 C1217 1.387 . S
C1218 C1221 1.387 . S
H1219 C1215 0.950 . S
H1220 C1217 0.950 . S
C1221 C1212 1.390 . S
C1221 H1214 0.950 . S
C1221 C1218 1.387 . S
C1222 C1223 1.387 . S
C1222 H1226 0.950 . S
C1222 C1231 1.390 . S
C1223 C1222 1.387 . S
C1223 C1225 1.387 . S
H1224 C1231 0.950 . S
C1225 C1223 1.387 . S
C1225 C1227 1.390 . S
C1225 H1229 0.950 . S
H1226 C1222 0.950 . S
C1227 C1225 1.390 . S
C1227 C1228 1.387 . S
C1227 H1230 0.950 . S
C1228 C1227 1.387 . S
C1228 C1231 1.387 . S
H1229 C1225 0.950 . S
H1230 C1227 0.950 . S
C1231 C1222 1.390 . S
C1231 H1224 0.950 . S
C1231 C1228 1.387 . S
C1232 C1233 1.387 . S
C1232 H1236 0.950 . S
C1232 C1241 1.390 . S
C1233 C1232 1.387 . S
C1233 C1235 1.387 . S
H1234 C1241 0.950 . S
C1235 C1233 1.387 . S
C1235 C1237 1.390 . S
C1235 H1239 0.950 . S
H1236 C1232 0.950 . S
C1237 C1235 1.390 . S
C1237 C1238 1.387 . S
C1237 H1240 0.950 . S
C1238 C1237 1.387 . S
C1238 C1241 1.387 . S
H1239 C1235 0.950 . S
H1240 C1237 0.950 . S
C1241 C1232 1.390 . S
C1241 H1234 0.950 . S
C1241 C1238 1.387 . S
C1242 C1243 1.387 . S
C1242 H1246 0.950 . S
C1242 C1251 1.390 1_565 S
C1243 C1242 1.387 . S
C1243 C1245 1.387 . S
H1244 C1251 0.950 . S
C1245 C1243 1.387 . S
C1245 C1247 1.390 1_565 S
C1245 H1249 0.950 . S
H1246 C1242 0.950 . S
C1247 C1245 1.390 1_545 S
C1247 C1248 1.387 . S
C1247 H1250 0.950 . S
C1248 C1247 1.387 . S
C1248 C1251 1.387 . S
H1249 C1245 0.950 . S
H1250 C1247 0.950 . S
C1251 C1242 1.390 1_545 S
C1251 H1244 0.950 . S
C1251 C1248 1.387 . S
C1252 C1253 1.388 1_655 S
C1252 H1256 0.950 . S
C1252 C1261 1.389 . S
C1253 C1252 1.388 1_455 S
C1253 C1255 1.387 . S
H1254 C1261 0.950 . S
C1255 C1253 1.387 . S
C1255 C1257 1.390 . S
C1255 H1259 0.950 . S
H1256 C1252 0.950 . S
C1257 C1255 1.390 . S
C1257 C1258 1.387 1_455 S
C1257 H1260 0.950 . S
C1258 C1257 1.387 1_655 S
C1258 C1261 1.387 . S
H1259 C1255 0.950 . S
H1260 C1257 0.950 . S
C1261 C1252 1.389 . S
C1261 H1254 0.950 . S
C1261 C1258 1.387 . S
C1262 C1263 1.387 . S
C1262 H1266 0.950 . S
C1262 C1271 1.390 . S
C1263 C1262 1.387 . S
C1263 C1265 1.387 . S
H1264 C1271 0.950 . S
C1265 C1263 1.387 . S
C1265 C1267 1.390 . S
C1265 H1269 0.950 . S
H1266 C1262 0.950 . S
C1267 C1265 1.390 . S
C1267 C1268 1.387 . S
C1267 H1270 0.950 . S
C1268 C1267 1.387 . S
C1268 C1271 1.387 . S
H1269 C1265 0.950 . S
H1270 C1267 0.950 . S
C1271 C1262 1.390 . S
C1271 H1264 0.950 . S
C1271 C1268 1.387 . S
C1272 C1273 1.387 . S
C1272 H1276 0.950 . S
C1272 C1281 1.390 . S
C1273 C1272 1.387 . S
C1273 C1275 1.387 . S
H1274 C1281 0.950 . S
C1275 C1273 1.387 . S
C1275 C1277 1.390 . S
C1275 H1279 0.950 . S
H1276 C1272 0.950 . S
C1277 C1275 1.390 . S
C1277 C1278 1.387 . S
C1277 H1280 0.950 . S
C1278 C1277 1.387 . S
C1278 C1281 1.387 . S
H1279 C1275 0.950 . S
H1280 C1277 0.950 . S
C1281 C1272 1.390 . S
C1281 H1274 0.950 . S
C1281 C1278 1.387 . S
C1282 C1283 1.387 . S
C1282 H1286 0.950 . S
C1282 C1291 1.390 . S
C1283 C1282 1.387 . S
C1283 C1285 1.387 . S
H1284 C1291 0.950 . S
C1285 C1283 1.387 . S
C1285 C1287 1.390 . S
C1285 H1289 0.950 . S
H1286 C1282 0.950 . S
C1287 C1285 1.390 . S
C1287 C1288 1.387 . S
C1287 H1290 0.950 . S
C1288 C1287 1.387 . S
C1288 C1291 1.387 . S
H1289 C1285 0.950 . S
H1290 C1287 0.950 . S
C1291 C1282 1.390 . S
C1291 H1284 0.950 . S
C1291 C1288 1.387 . S
C1292 C1293 1.387 . S
C1292 H1296 0.950 . S
C1292 C1301 1.390 . S
C1293 C1292 1.387 . S
C1293 C1295 1.387 . S
H1294 C1301 0.950 . S
C1295 C1293 1.387 . S
C1295 C1297 1.390 . S
C1295 H1299 0.950 . S
H1296 C1292 0.950 . S
C1297 C1295 1.390 . S
C1297 C1298 1.387 . S
C1297 H1300 0.950 . S
C1298 C1297 1.387 . S
C1298 C1301 1.387 . S
H1299 C1295 0.950 . S
H1300 C1297 0.950 . S
C1301 C1292 1.390 . S
C1301 H1294 0.950 . S
C1301 C1298 1.387 . S
C1302 C1303 1.387 . S
C1302 H1306 0.950 . S
C1302 C1311 1.390 . S
C1303 C1302 1.387 . S
C1303 C1305 1.387 . S
H1304 C1311 0.950 . S
C1305 C1303 1.387 . S
C1305 C1307 1.390 . S
C1305 H1309 0.950 . S
H1306 C1302 0.950 . S
C1307 C1305 1.390 . S
C1307 C1308 1.387 . S
C1307 H1310 0.950 . S
C1308 C1307 1.387 . S
C1308 C1311 1.387 . S
H1309 C1305 0.950 . S
H1310 C1307 0.950 . S
C1311 C1302 1.390 . S
C1311 H1304 0.950 . S
C1311 C1308 1.387 . S
C1312 C1313 1.387 . S
C1312 H1316 0.950 . S
C1312 C1321 1.390 . S
C1313 C1312 1.387 . S
C1313 C1315 1.387 . S
H1314 C1321 0.950 . S
C1315 C1313 1.387 . S
C1315 C1317 1.390 . S
C1315 H1319 0.950 . S
H1316 C1312 0.950 . S
C1317 C1315 1.390 . S
C1317 C1318 1.387 . S
C1317 H1320 0.950 . S
C1318 C1317 1.387 . S
C1318 C1321 1.387 . S
H1319 C1315 0.950 . S
H1320 C1317 0.950 . S
C1321 C1312 1.390 . S
C1321 H1314 0.950 . S
C1321 C1318 1.387 . S
C1322 C1323 1.387 . S
C1322 H1326 0.950 . S
C1322 C1331 1.390 . S
C1323 C1322 1.387 . S
C1323 C1325 1.387 . S
H1324 C1331 0.950 . S
C1325 C1323 1.387 . S
C1325 C1327 1.390 . S
C1325 H1329 0.950 . S
H1326 C1322 0.950 . S
C1327 C1325 1.390 . S
C1327 C1328 1.387 . S
C1327 H1330 0.950 . S
C1328 C1327 1.387 . S
C1328 C1331 1.387 . S
H1329 C1325 0.950 . S
H1330 C1327 0.950 . S
C1331 C1322 1.390 . S
C1331 H1324 0.950 . S
C1331 C1328 1.387 . S
C1332 C1333 1.387 . S
C1332 H1336 0.950 . S
C1332 C1341 1.390 . S
C1333 C1332 1.387 . S
C1333 C1335 1.387 . S
H1334 C1341 0.950 . S
C1335 C1333 1.387 . S
C1335 C1337 1.390 . S
C1335 H1339 0.950 . S
H1336 C1332 0.950 . S
C1337 C1335 1.390 . S
C1337 C1338 1.387 . S
C1337 H1340 0.950 . S
C1338 C1337 1.387 . S
C1338 C1341 1.387 . S
H1339 C1335 0.950 . S
H1340 C1337 0.950 . S
C1341 C1332 1.390 . S
C1341 H1334 0.950 . S
C1341 C1338 1.387 . S
C1342 C1343 1.387 . S
C1342 H1346 0.950 . S
C1342 C1351 1.390 . S
C1343 C1342 1.387 . S
C1343 C1345 1.387 . S
H1344 C1351 0.950 . S
C1345 C1343 1.387 . S
C1345 C1347 1.390 . S
C1345 H1349 0.950 . S
H1346 C1342 0.950 . S
C1347 C1345 1.390 . S
C1347 C1348 1.387 . S
C1347 H1350 0.950 . S
C1348 C1347 1.387 . S
C1348 C1351 1.387 . S
H1349 C1345 0.950 . S
H1350 C1347 0.950 . S
C1351 C1342 1.390 . S
C1351 H1344 0.950 . S
C1351 C1348 1.387 . S
C1352 C1353 1.387 . S
C1352 H1356 0.950 . S
C1352 C1361 1.390 . S
C1353 C1352 1.387 . S
C1353 C1355 1.387 . S
H1354 C1361 0.950 . S
C1355 C1353 1.387 . S
C1355 C1357 1.390 . S
C1355 H1359 0.950 . S
H1356 C1352 0.950 . S
C1357 C1355 1.390 . S
C1357 C1358 1.387 . S
C1357 H1360 0.950 . S
C1358 C1357 1.387 . S
C1358 C1361 1.387 . S
H1359 C1355 0.950 . S
H1360 C1357 0.950 . S
C1361 C1352 1.390 . S
C1361 H1354 0.950 . S
C1361 C1358 1.387 . S
C1362 C1363 1.387 . S
C1362 H1366 0.950 . S
C1362 C1371 1.390 . S
C1363 C1362 1.387 . S
C1363 C1365 1.387 . S
H1364 C1371 0.950 . S
C1365 C1363 1.387 . S
C1365 C1367 1.390 . S
C1365 H1369 0.950 . S
H1366 C1362 0.950 . S
C1367 C1365 1.390 . S
C1367 C1368 1.387 . S
C1367 H1370 0.950 . S
C1368 C1367 1.387 . S
C1368 C1371 1.387 . S
H1369 C1365 0.950 . S
H1370 C1367 0.950 . S
C1371 C1362 1.390 . S
C1371 H1364 0.950 . S
C1371 C1368 1.387 . S
C1372 C1373 1.387 . S
C1372 H1376 0.950 . S
C1372 C1381 1.390 . S
C1373 C1372 1.387 . S
C1373 C1375 1.387 . S
H1374 C1381 0.950 . S
C1375 C1373 1.387 . S
C1375 C1377 1.390 . S
C1375 H1379 0.950 . S
H1376 C1372 0.950 . S
C1377 C1375 1.390 . S
C1377 C1378 1.387 . S
C1377 H1380 0.950 . S
C1378 C1377 1.387 . S
C1378 C1381 1.387 . S
H1379 C1375 0.950 . S
H1380 C1377 0.950 . S
C1381 C1372 1.390 . S
C1381 H1374 0.950 . S
C1381 C1378 1.387 . S
C1382 C1383 1.387 . S
C1382 H1386 0.950 . S
C1382 C1391 1.390 . S
C1383 C1382 1.387 . S
C1383 C1385 1.387 . S
H1384 C1391 0.950 . S
C1385 C1383 1.387 . S
C1385 C1387 1.390 . S
C1385 H1389 0.950 . S
H1386 C1382 0.950 . S
C1387 C1385 1.390 . S
C1387 C1388 1.387 . S
C1387 H1390 0.950 . S
C1388 C1387 1.387 . S
C1388 C1391 1.387 . S
H1389 C1385 0.950 . S
H1390 C1387 0.950 . S
C1391 C1382 1.390 . S
C1391 H1384 0.950 . S
C1391 C1388 1.387 . S
C1392 C1393 1.387 . S
C1392 H1396 0.950 . S
C1392 C1401 1.390 . S
C1393 C1392 1.387 . S
C1393 C1395 1.387 . S
H1394 C1401 0.950 . S
C1395 C1393 1.387 . S
C1395 C1397 1.390 . S
C1395 H1399 0.950 . S
H1396 C1392 0.950 . S
C1397 C1395 1.390 . S
C1397 C1398 1.387 . S
C1397 H1400 0.950 . S
C1398 C1397 1.387 . S
C1398 C1401 1.387 . S
H1399 C1395 0.950 . S
H1400 C1397 0.950 . S
C1401 C1392 1.390 . S
C1401 H1394 0.950 . S
C1401 C1398 1.387 . S
C1402 C1403 1.387 . S
C1402 H1406 0.950 . S
C1402 C1411 1.390 . S
C1403 C1402 1.387 . S
C1403 C1405 1.387 . S
H1404 C1411 0.950 . S
C1405 C1403 1.387 . S
C1405 C1407 1.390 . S
C1405 H1409 0.950 . S
H1406 C1402 0.950 . S
C1407 C1405 1.390 . S
C1407 C1408 1.387 . S
C1407 H1410 0.950 . S
C1408 C1407 1.387 . S
C1408 C1411 1.387 . S
H1409 C1405 0.950 . S
H1410 C1407 0.950 . S
C1411 C1402 1.390 . S
C1411 H1404 0.950 . S
C1411 C1408 1.387 . S
C1412 C1413 1.387 . S
C1412 H1416 0.950 . S
C1412 C1421 1.390 . S
C1413 C1412 1.387 . S
C1413 C1415 1.387 . S
H1414 C1421 0.950 . S
C1415 C1413 1.387 . S
C1415 C1417 1.390 . S
C1415 H1419 0.950 . S
H1416 C1412 0.950 . S
C1417 C1415 1.390 . S
C1417 C1418 1.387 . S
C1417 H1420 0.950 . S
C1418 C1417 1.387 . S
C1418 C1421 1.387 . S
H1419 C1415 0.950 . S
H1420 C1417 0.950 . S
C1421 C1412 1.390 . S
C1421 H1414 0.950 . S
C1421 C1418 1.387 . S
C1422 C1423 1.387 . S
C1422 H1426 0.950 . S
C1422 C1431 1.390 . S
C1423 C1422 1.387 . S
C1423 C1425 1.387 . S
H1424 C1431 0.950 . S
C1425 C1423 1.387 . S
C1425 C1427 1.390 . S
C1425 H1429 0.950 . S
H1426 C1422 0.950 . S
C1427 C1425 1.390 . S
C1427 C1428 1.387 . S
C1427 H1430 0.950 . S
C1428 C1427 1.387 . S
C1428 C1431 1.387 . S
H1429 C1425 0.950 . S
H1430 C1427 0.950 . S
C1431 C1422 1.390 . S
C1431 H1424 0.950 . S
C1431 C1428 1.387 . S
C1432 C1433 1.387 . S
C1432 H1436 0.950 . S
C1432 C1441 1.390 . S
C1433 C1432 1.387 . S
C1433 C1435 1.387 . S
H1434 C1441 0.950 . S
C1435 C1433 1.387 . S
C1435 C1437 1.390 . S
C1435 H1439 0.950 . S
H1436 C1432 0.950 . S
C1437 C1435 1.390 . S
C1437 C1438 1.387 . S
C1437 H1440 0.950 . S
C1438 C1437 1.387 . S
C1438 C1441 1.387 . S
H1439 C1435 0.950 . S
H1440 C1437 0.950 . S
C1441 C1432 1.390 . S
C1441 H1434 0.950 . S
C1441 C1438 1.387 . S
C1442 C1443 1.387 . S
C1442 H1446 0.950 . S
C1442 C1451 1.390 . S
C1443 C1442 1.387 . S
C1443 C1445 1.387 . S
H1444 C1451 0.950 . S
C1445 C1443 1.387 . S
C1445 C1447 1.390 . S
C1445 H1449 0.950 . S
H1446 C1442 0.950 . S
C1447 C1445 1.390 . S
C1447 C1448 1.387 . S
C1447 H1450 0.950 . S
C1448 C1447 1.387 . S
C1448 C1451 1.387 . S
H1449 C1445 0.950 . S
H1450 C1447 0.950 . S
C1451 C1442 1.390 . S
C1451 H1444 0.950 . S
C1451 C1448 1.387 . S
C1452 C1453 1.387 . S
C1452 H1456 0.950 . S
C1452 C1461 1.390 . S
C1453 C1452 1.387 . S
C1453 C1455 1.387 . S
H1454 C1461 0.950 . S
C1455 C1453 1.387 . S
C1455 C1457 1.390 . S
C1455 H1459 0.950 . S
H1456 C1452 0.950 . S
C1457 C1455 1.390 . S
C1457 C1458 1.387 . S
C1457 H1460 0.950 . S
C1458 C1457 1.387 . S
C1458 C1461 1.387 . S
H1459 C1455 0.950 . S
H1460 C1457 0.950 . S
C1461 C1452 1.390 . S
C1461 H1454 0.950 . S
C1461 C1458 1.387 . S
C1462 C1463 1.387 . S
C1462 H1466 0.950 . S
C1462 C1471 1.390 . S
C1463 C1462 1.387 . S
C1463 C1465 1.387 . S
H1464 C1471 0.950 . S
C1465 C1463 1.387 . S
C1465 C1467 1.390 . S
C1465 H1469 0.950 . S
H1466 C1462 0.950 . S
C1467 C1465 1.390 . S
C1467 C1468 1.387 . S
C1467 H1470 0.950 . S
C1468 C1467 1.387 . S
C1468 C1471 1.387 . S
H1469 C1465 0.950 . S
H1470 C1467 0.950 . S
C1471 C1462 1.390 . S
C1471 H1464 0.950 . S
C1471 C1468 1.387 . S
C1472 C1473 1.387 . S
C1472 H1476 0.950 . S
C1472 C1481 1.390 . S
C1473 C1472 1.387 . S
C1473 C1475 1.387 . S
H1474 C1481 0.950 . S
C1475 C1473 1.387 . S
C1475 C1477 1.390 . S
C1475 H1479 0.950 . S
H1476 C1472 0.950 . S
C1477 C1475 1.390 . S
C1477 C1478 1.387 . S
C1477 H1480 0.950 . S
C1478 C1477 1.387 . S
C1478 C1481 1.387 . S
H1479 C1475 0.950 . S
H1480 C1477 0.950 . S
C1481 C1472 1.390 . S
C1481 H1474 0.950 . S
C1481 C1478 1.387 . S
C1482 C1483 1.387 . S
C1482 H1486 0.950 . S
C1482 C1491 1.390 . S
C1483 C1482 1.387 . S
C1483 C1485 1.387 . S
H1484 C1491 0.950 . S
C1485 C1483 1.387 . S
C1485 C1487 1.390 . S
C1485 H1489 0.950 . S
H1486 C1482 0.950 . S
C1487 C1485 1.390 . S
C1487 C1488 1.387 . S
C1487 H1490 0.950 . S
C1488 C1487 1.387 . S
C1488 C1491 1.387 . S
H1489 C1485 0.950 . S
H1490 C1487 0.950 . S
C1491 C1482 1.390 . S
C1491 H1484 0.950 . S
C1491 C1488 1.387 . S
C1492 C1493 1.387 . S
C1492 H1496 0.950 . S
C1492 C1501 1.390 . S
C1493 C1492 1.387 . S
C1493 C1495 1.387 . S
H1494 C1501 0.950 . S
C1495 C1493 1.387 . S
C1495 C1497 1.390 . S
C1495 H1499 0.950 . S
H1496 C1492 0.950 . S
C1497 C1495 1.390 . S
C1497 C1498 1.387 . S
C1497 H1500 0.950 . S
C1498 C1497 1.387 . S
C1498 C1501 1.387 . S
H1499 C1495 0.950 . S
H1500 C1497 0.950 . S
C1501 C1492 1.390 . S
C1501 H1494 0.950 . S
C1501 C1498 1.387 . S
C1502 C1503 1.387 . S
C1502 H1506 0.950 . S
C1502 C1511 1.390 . S
C1503 C1502 1.387 . S
C1503 C1505 1.387 . S
H1504 C1511 0.950 . S
C1505 C1503 1.387 . S
C1505 C1507 1.390 . S
C1505 H1509 0.950 . S
H1506 C1502 0.950 . S
C1507 C1505 1.390 . S
C1507 C1508 1.387 . S
C1507 H1510 0.950 . S
C1508 C1507 1.387 . S
C1508 C1511 1.387 . S
H1509 C1505 0.950 . S
H1510 C1507 0.950 . S
C1511 C1502 1.390 . S
C1511 H1504 0.950 . S
C1511 C1508 1.387 . S
C973 C162 1.473 . S
C978 C272 1.417 . S
C983 C174 1.498 . S
C988 C356 1.447 . S
C993 C150 1.469 . S
C998 C450 1.470 . S
C1003 C138 1.461 . S
C1008 C366 1.465 . S
C1018 C440 1.405 . S
C1013 C114 1.466 . S
C1023 C126 1.439 . S
C1028 C282 1.439 . S
C1038 C283 1.459 . S
C1033 C136 1.507 . S
C1048 C367 1.482 . S
C1043 C112 1.529 . S
C1053 C124 1.520 . S
C1058 C459 1.479 . S
C1063 C160 1.500 . S
C1068 C375 1.463 . S
C1073 C172 1.490 . S
C1078 C451 1.436 . S
C1088 C291 1.439 . S
C1083 C148 1.481 . S
C1098 C524 1.415 . S
C1093 C18 1.473 . S
C1103 C30 1.498 . S
C1108 C608 1.447 . S
C1113 C6 1.470 . S
C1118 C702 1.470 . S
C1123 C210 1.460 . S
C1128 C618 1.465 . S
C1133 C186 1.466 . S
C1138 C692 1.405 . S
C1143 C198 1.438 . S
C1148 C534 1.438 . S
C1153 C208 1.508 . S
C1158 C535 1.460 . S
C1163 C184 1.528 . S
C1168 C619 1.485 . S
C1178 C711 1.480 . S
C1173 C196 1.519 . S
C1183 C16 1.500 1_565 S
C1188 C627 1.462 . S
C1198 C703 1.439 . S
C1193 C28 1.488 1_455 S
C1203 C4 1.480 . S
C1208 C543 1.439 . S
C1218 C776 1.415 . S
C1213 C90 1.473 . S
C1223 C102 1.498 . S
C1228 C860 1.447 . S
C1238 C954 1.470 . S
C1233 C78 1.470 . S
C1248 C870 1.465 . S
C1243 C66 1.460 . S
C1258 C944 1.408 . S
C1253 C42 1.466 . S
C1263 C54 1.439 . S
C1268 C786 1.439 . S
C1273 C64 1.507 1_655 S
C1278 C787 1.459 . S
C1283 C40 1.528 . S
C1288 C871 1.485 . S
C1298 C963 1.479 . S
C1293 C52 1.520 1_545 S
C1303 C88 1.499 . S
C1308 C879 1.461 . S
C1313 C100 1.490 . S
C1318 C955 1.436 . S
C1323 C76 1.481 . S
C1328 C795 1.443 . S
C1333 C189 1.582 . S
C1338 C279 1.480 . S
C1348 C363 1.484 . S
C1343 C201 1.623 . S
C1353 C213 1.580 . S
C1358 C456 1.387 . S
C1363 C81 1.590 . S
C1368 C372 1.381 . S
C1373 C93 1.589 . S
C1378 C447 1.466 . S
C1388 C288 1.378 . S
C1383 C105 1.550 . S
C1393 C45 1.584 . S
C1398 C531 1.479 . S
C1403 C57 1.624 . S
C1408 C615 1.486 . S
C1413 C69 1.579 . S
C1418 C708 1.390 . S
C1423 C153 1.590 . S
C1428 C624 1.381 . S
C1438 C699 1.462 . S
C1433 C165 1.590 . S
C1443 C177 1.550 . S
C1448 C540 1.379 . S
C1453 C117 1.583 . S
C1458 C783 1.481 . S
C1463 C129 1.623 . S
C1468 C867 1.484 . S
C1478 C960 1.391 . S
C1473 C141 1.579 . S
C1483 C9 1.590 . S
C1488 C876 1.382 . S
C1493 C21 1.589 . S
C1498 C951 1.466 . S
C1503 C33 1.550 . S
C1508 C792 1.380 . S
