# Generated by pormake.
# Topology ptr, (4,4)-cn, num edge types: 1
# Building blocks:
#     Node 0, Type 0, BuildingBlock: QUQFOY_clean_sbu_3, # of connection points: 4
#     Node 1, Type 0, BuildingBlock: QUQFOY_clean_sbu_3, # of connection points: 4
#     Node 2, Type 0, BuildingBlock: QUQFOY_clean_sbu_3, # of connection points: 4
#     Node 3, Type 0, BuildingBlock: QUQFOY_clean_sbu_3, # of connection points: 4
#     Node 4, Type 0, BuildingBlock: QUQFOY_clean_sbu_3, # of connection points: 4
#     Node 5, Type 0, BuildingBlock: QUQFOY_clean_sbu_3, # of connection points: 4
#     Node 6, Type 0, BuildingBlock: QUQFOY_clean_sbu_3, # of connection points: 4
#     Node 7, Type 0, BuildingBlock: QUQFOY_clean_sbu_3, # of connection points: 4
#     Node 8, Type 0, BuildingBlock: QUQFOY_clean_sbu_3, # of connection points: 4
#     Node 9, Type 0, BuildingBlock: QUQFOY_clean_sbu_3, # of connection points: 4
#     Node 10, Type 0, BuildingBlock: QUQFOY_clean_sbu_3, # of connection points: 4
#     Node 11, Type 0, BuildingBlock: QUQFOY_clean_sbu_3, # of connection points: 4
#     Node 12, Type 0, BuildingBlock: QUQFOY_clean_sbu_3, # of connection points: 4
#     Node 13, Type 0, BuildingBlock: QUQFOY_clean_sbu_3, # of connection points: 4
#     Node 14, Type 0, BuildingBlock: QUQFOY_clean_sbu_3, # of connection points: 4
#     Node 15, Type 0, BuildingBlock: QUQFOY_clean_sbu_3, # of connection points: 4
#     Node 16, Type 0, BuildingBlock: QUQFOY_clean_sbu_3, # of connection points: 4
#     Node 17, Type 0, BuildingBlock: QUQFOY_clean_sbu_3, # of connection points: 4
#     Node 18, Type 1, BuildingBlock: MUDLON_clean_linker_0, # of connection points: 4
#     Node 19, Type 1, BuildingBlock: MUDLON_clean_linker_0, # of connection points: 4
#     Node 20, Type 1, BuildingBlock: MUDLON_clean_linker_0, # of connection points: 4
#     Node 21, Type 1, BuildingBlock: MUDLON_clean_linker_0, # of connection points: 4
#     Node 22, Type 1, BuildingBlock: MUDLON_clean_linker_0, # of connection points: 4
#     Node 23, Type 1, BuildingBlock: MUDLON_clean_linker_0, # of connection points: 4
#     Node 24, Type 1, BuildingBlock: MUDLON_clean_linker_0, # of connection points: 4
#     Node 25, Type 1, BuildingBlock: MUDLON_clean_linker_0, # of connection points: 4
#     Node 26, Type 1, BuildingBlock: MUDLON_clean_linker_0, # of connection points: 4
#     Node 27, Type 1, BuildingBlock: MUDLON_clean_linker_0, # of connection points: 4
#     Node 28, Type 1, BuildingBlock: MUDLON_clean_linker_0, # of connection points: 4
#     Node 29, Type 1, BuildingBlock: MUDLON_clean_linker_0, # of connection points: 4
#     Node 30, Type 1, BuildingBlock: MUDLON_clean_linker_0, # of connection points: 4
#     Node 31, Type 1, BuildingBlock: MUDLON_clean_linker_0, # of connection points: 4
#     Node 32, Type 1, BuildingBlock: MUDLON_clean_linker_0, # of connection points: 4
#     Node 33, Type 1, BuildingBlock: MUDLON_clean_linker_0, # of connection points: 4
#     Node 34, Type 1, BuildingBlock: MUDLON_clean_linker_0, # of connection points: 4
#     Node 35, Type 1, BuildingBlock: MUDLON_clean_linker_0, # of connection points: 4
#     Edge 36, Type (0, 1), BuildingBlock: KIFKEQ_clean_linker_1, # of connection points: 2
#     Edge 37, Type (0, 1), BuildingBlock: KIFKEQ_clean_linker_1, # of connection points: 2
#     Edge 38, Type (0, 1), BuildingBlock: KIFKEQ_clean_linker_1, # of connection points: 2
#     Edge 39, Type (0, 1), BuildingBlock: KIFKEQ_clean_linker_1, # of connection points: 2
#     Edge 40, Type (0, 1), BuildingBlock: KIFKEQ_clean_linker_1, # of connection points: 2
#     Edge 41, Type (0, 1), BuildingBlock: KIFKEQ_clean_linker_1, # of connection points: 2
#     Edge 42, Type (0, 1), BuildingBlock: KIFKEQ_clean_linker_1, # of connection points: 2
#     Edge 43, Type (0, 1), BuildingBlock: KIFKEQ_clean_linker_1, # of connection points: 2
#     Edge 44, Type (0, 1), BuildingBlock: KIFKEQ_clean_linker_1, # of connection points: 2
#     Edge 45, Type (0, 1), BuildingBlock: KIFKEQ_clean_linker_1, # of connection points: 2
#     Edge 46, Type (0, 1), BuildingBlock: KIFKEQ_clean_linker_1, # of connection points: 2
#     Edge 47, Type (0, 1), BuildingBlock: KIFKEQ_clean_linker_1, # of connection points: 2
#     Edge 48, Type (0, 1), BuildingBlock: KIFKEQ_clean_linker_1, # of connection points: 2
#     Edge 49, Type (0, 1), BuildingBlock: KIFKEQ_clean_linker_1, # of connection points: 2
#     Edge 50, Type (0, 1), BuildingBlock: KIFKEQ_clean_linker_1, # of connection points: 2
#     Edge 51, Type (0, 1), BuildingBlock: KIFKEQ_clean_linker_1, # of connection points: 2
#     Edge 52, Type (0, 1), BuildingBlock: KIFKEQ_clean_linker_1, # of connection points: 2
#     Edge 53, Type (0, 1), BuildingBlock: KIFKEQ_clean_linker_1, # of connection points: 2
#     Edge 54, Type (0, 1), BuildingBlock: KIFKEQ_clean_linker_1, # of connection points: 2
#     Edge 55, Type (0, 1), BuildingBlock: KIFKEQ_clean_linker_1, # of connection points: 2
#     Edge 56, Type (0, 1), BuildingBlock: KIFKEQ_clean_linker_1, # of connection points: 2
#     Edge 57, Type (0, 1), BuildingBlock: KIFKEQ_clean_linker_1, # of connection points: 2
#     Edge 58, Type (0, 1), BuildingBlock: KIFKEQ_clean_linker_1, # of connection points: 2
#     Edge 59, Type (0, 1), BuildingBlock: KIFKEQ_clean_linker_1, # of connection points: 2
#     Edge 60, Type (0, 1), BuildingBlock: KIFKEQ_clean_linker_1, # of connection points: 2
#     Edge 61, Type (0, 1), BuildingBlock: KIFKEQ_clean_linker_1, # of connection points: 2
#     Edge 62, Type (0, 1), BuildingBlock: KIFKEQ_clean_linker_1, # of connection points: 2
#     Edge 63, Type (0, 1), BuildingBlock: KIFKEQ_clean_linker_1, # of connection points: 2
#     Edge 64, Type (0, 1), BuildingBlock: KIFKEQ_clean_linker_1, # of connection points: 2
#     Edge 65, Type (0, 1), BuildingBlock: KIFKEQ_clean_linker_1, # of connection points: 2
#     Edge 66, Type (0, 1), BuildingBlock: KIFKEQ_clean_linker_1, # of connection points: 2
#     Edge 67, Type (0, 1), BuildingBlock: KIFKEQ_clean_linker_1, # of connection points: 2
#     Edge 68, Type (0, 1), BuildingBlock: KIFKEQ_clean_linker_1, # of connection points: 2
#     Edge 69, Type (0, 1), BuildingBlock: KIFKEQ_clean_linker_1, # of connection points: 2
#     Edge 70, Type (0, 1), BuildingBlock: KIFKEQ_clean_linker_1, # of connection points: 2
#     Edge 71, Type (0, 1), BuildingBlock: KIFKEQ_clean_linker_1, # of connection points: 2
#     Edge 72, Type (0, 1), BuildingBlock: KIFKEQ_clean_linker_1, # of connection points: 2
#     Edge 73, Type (0, 1), BuildingBlock: KIFKEQ_clean_linker_1, # of connection points: 2
#     Edge 74, Type (0, 1), BuildingBlock: KIFKEQ_clean_linker_1, # of connection points: 2
#     Edge 75, Type (0, 1), BuildingBlock: KIFKEQ_clean_linker_1, # of connection points: 2
#     Edge 76, Type (0, 1), BuildingBlock: KIFKEQ_clean_linker_1, # of connection points: 2
#     Edge 77, Type (0, 1), BuildingBlock: KIFKEQ_clean_linker_1, # of connection points: 2
#     Edge 78, Type (0, 1), BuildingBlock: KIFKEQ_clean_linker_1, # of connection points: 2
#     Edge 79, Type (0, 1), BuildingBlock: KIFKEQ_clean_linker_1, # of connection points: 2
#     Edge 80, Type (0, 1), BuildingBlock: KIFKEQ_clean_linker_1, # of connection points: 2
#     Edge 81, Type (0, 1), BuildingBlock: KIFKEQ_clean_linker_1, # of connection points: 2
#     Edge 82, Type (0, 1), BuildingBlock: KIFKEQ_clean_linker_1, # of connection points: 2
#     Edge 83, Type (0, 1), BuildingBlock: KIFKEQ_clean_linker_1, # of connection points: 2
#     Edge 84, Type (0, 1), BuildingBlock: KIFKEQ_clean_linker_1, # of connection points: 2
#     Edge 85, Type (0, 1), BuildingBlock: KIFKEQ_clean_linker_1, # of connection points: 2
#     Edge 86, Type (0, 1), BuildingBlock: KIFKEQ_clean_linker_1, # of connection points: 2
#     Edge 87, Type (0, 1), BuildingBlock: KIFKEQ_clean_linker_1, # of connection points: 2
#     Edge 88, Type (0, 1), BuildingBlock: KIFKEQ_clean_linker_1, # of connection points: 2
#     Edge 89, Type (0, 1), BuildingBlock: KIFKEQ_clean_linker_1, # of connection points: 2
#     Edge 90, Type (0, 1), BuildingBlock: KIFKEQ_clean_linker_1, # of connection points: 2
#     Edge 91, Type (0, 1), BuildingBlock: KIFKEQ_clean_linker_1, # of connection points: 2
#     Edge 92, Type (0, 1), BuildingBlock: KIFKEQ_clean_linker_1, # of connection points: 2
#     Edge 93, Type (0, 1), BuildingBlock: KIFKEQ_clean_linker_1, # of connection points: 2
#     Edge 94, Type (0, 1), BuildingBlock: KIFKEQ_clean_linker_1, # of connection points: 2
#     Edge 95, Type (0, 1), BuildingBlock: KIFKEQ_clean_linker_1, # of connection points: 2
#     Edge 96, Type (0, 1), BuildingBlock: KIFKEQ_clean_linker_1, # of connection points: 2
#     Edge 97, Type (0, 1), BuildingBlock: KIFKEQ_clean_linker_1, # of connection points: 2
#     Edge 98, Type (0, 1), BuildingBlock: KIFKEQ_clean_linker_1, # of connection points: 2
#     Edge 99, Type (0, 1), BuildingBlock: KIFKEQ_clean_linker_1, # of connection points: 2
#     Edge 100, Type (0, 1), BuildingBlock: KIFKEQ_clean_linker_1, # of connection points: 2
#     Edge 101, Type (0, 1), BuildingBlock: KIFKEQ_clean_linker_1, # of connection points: 2
#     Edge 102, Type (0, 1), BuildingBlock: KIFKEQ_clean_linker_1, # of connection points: 2
#     Edge 103, Type (0, 1), BuildingBlock: KIFKEQ_clean_linker_1, # of connection points: 2
#     Edge 104, Type (0, 1), BuildingBlock: KIFKEQ_clean_linker_1, # of connection points: 2
#     Edge 105, Type (0, 1), BuildingBlock: KIFKEQ_clean_linker_1, # of connection points: 2
#     Edge 106, Type (0, 1), BuildingBlock: KIFKEQ_clean_linker_1, # of connection points: 2
#     Edge 107, Type (0, 1), BuildingBlock: KIFKEQ_clean_linker_1, # of connection points: 2
# Relax obj value: 0.030
# Max RMSD: 0.097
# Mean RMSD: 0.061
data_MOF--net-ptr--node1-QUQFOY_clean_sbu_3--node2-MUDLON_clean_linker_0--edge1-KIFKEQ_clean_linker_1
_symmetry_space_group_name_H-M    P1
_symmetry_Int_Tables_number       1
_symmetry_cell_setting            triclinic
loop_
_symmetry_equiv_pos_as_xyz
'x, y, z'
_cell_length_a     107.4063
_cell_length_b     107.9795
_cell_length_c     65.566071
_cell_angle_alpha  90.141556
_cell_angle_beta   89.719419
_cell_angle_gamma 120.46618
loop_
_atom_site_label
_atom_site_type_symbol
_atom_site_fract_x
_atom_site_fract_y
_atom_site_fract_z
_atom_type_partial_charge
C0 C 0.96398 0.32759 0.00838 0.0
O1 O 0.95687 0.33332 0.01474 0.0
Cd2 Cd 0.96723 0.35757 0.02637 0.0
O3 O 0.97777 0.33464 0.00862 0.0
Cd4 Cd -0.00226 0.35884 0.01982 0.0
C5 C 0.98863 0.37614 0.9849 0.0
O6 O 0.98572 0.3616 0.04977 0.0
O7 O 0.00584 0.38035 0.04093 0.0
O8 O 0.00962 0.34812 0.03785 0.0
C9 C 0.99536 0.3745 0.0534 0.0
O10 O 0.97763 0.37245 -0.00377 0.0
C11 C 0.02127 0.35411 0.0276 0.0
O12 O -0.00225 0.37228 0.98919 0.0
O13 O 0.02201 0.36218 0.01298 0.0
C14 C 0.63282 0.6705 0.02462 0.0
O15 O 0.61973 0.66436 0.01896 0.0
Cd16 Cd 0.60674 0.64024 0.00613 0.0
O17 O 0.64012 0.66423 0.02259 0.0
Cd18 Cd 0.63757 0.64173 0.00795 0.0
C19 C 0.61271 0.6215 0.04397 0.0
O20 O 0.62163 0.63931 0.97987 0.0
O21 O 0.62501 0.62144 0.98439 0.0
O22 O 0.66075 0.6569 0.99157 0.0
C23 C 0.61927 0.62711 0.97402 0.0
O24 O 0.60421 0.62445 0.03446 0.0
C25 C 0.6669 0.65031 -0.00185 0.0
O26 O 0.62582 0.62686 0.03829 0.0
O27 O 0.65945 0.63963 0.00981 0.0
C28 C 0.3314 0.96702 0.01846 0.0
O29 O 0.3388 0.96147 0.01271 0.0
Cd30 Cd 0.36288 0.9746 8e-05 0.0
O31 O 0.33661 0.98058 0.01725 0.0
Cd32 Cd 0.35948 0.00229 0.00491 0.0
C33 C 0.37911 -0.0027 0.04094 0.0
O34 O 0.36249 0.9905 0.97525 0.0
O35 O 0.38051 0.01152 0.98146 0.0
O36 O 0.34329 0.01015 0.99231 0.0
C37 C 0.37477 0.00065 0.96984 0.0
O38 O 0.37718 0.98665 0.03018 0.0
C39 C 0.35084 0.02309 -0.00182 0.0
O40 O 0.37348 0.00477 0.03584 0.0
O41 O 0.36243 0.02643 0.00762 0.0
C42 C 0.95639 0.62667 0.00379 0.0
O43 O 0.95055 0.61349 0.00851 0.0
Cd44 Cd 0.96441 0.60301 0.02044 0.0
O45 O 0.97001 0.63494 0.00522 0.0
Cd46 Cd 0.99174 0.634 0.01523 0.0
C47 C 0.98643 0.60934 0.97897 0.0
O48 O 0.98175 0.61834 0.04535 0.0
O49 O 0.0028 0.62304 0.03479 0.0
O50 O -8e-05 0.65708 0.03151 0.0
C51 C 0.99285 0.61724 0.04807 0.0
O52 O 0.97638 0.60037 0.99061 0.0
C53 C 0.01221 0.66368 0.0229 0.0
O54 O 0.99329 0.62271 0.98324 0.0
O55 O 0.01505 0.65654 0.01018 0.0
C56 C 0.33449 0.36665 0.02075 0.0
O57 O 0.34117 0.37978 0.01551 0.0
Cd58 Cd 0.36574 0.39192 0.00336 0.0
O59 O 0.34061 0.3592 0.01923 0.0
Cd60 Cd 0.36373 0.36156 0.00754 0.0
C61 C 0.3827 0.38652 0.04387 0.0
O62 O 0.36744 0.3769 0.9778 0.0
O63 O 0.38481 0.37316 0.98525 0.0
O64 O 0.34796 0.33731 0.99474 0.0
C65 C 0.37974 0.37868 0.97329 0.0
O66 O 0.38067 0.39514 0.0331 0.0
C67 C 0.35572 0.33226 0.00069 0.0
O68 O 0.37709 0.37335 0.03877 0.0
O69 O 0.36719 0.34077 0.01026 0.0
C70 C 0.66433 0.02951 0.00623 0.0
O71 O 0.6571 0.03503 0.01285 0.0
Cd72 Cd 0.63259 0.02138 0.02455 0.0
O73 O 0.6589 0.01591 0.00642 0.0
Cd74 Cd 0.63626 0.99391 0.01799 0.0
C75 C 0.61669 -0.00047 0.98259 0.0
O76 O 0.63125 0.00405 0.04825 0.0
O77 O 0.61421 0.98313 0.03874 0.0
O78 O 0.6519 0.98654 0.03359 0.0
C79 C 0.61882 0.99327 0.05161 0.0
O80 O 0.6184 0.00976 0.99419 0.0
C81 C 0.64602 0.97408 0.02578 0.0
O82 O 0.62262 0.99218 0.98681 0.0
O83 O 0.63556 0.97073 0.01368 0.0
C84 C 0.62979 0.66423 0.33508 0.0
O85 O 0.62325 0.67091 0.33965 0.0
Cd86 Cd 0.63506 0.69466 0.354 0.0
O87 O 0.64333 0.67001 0.33816 0.0
Cd88 Cd 0.66379 0.69272 0.35214 0.0
C89 C 0.66018 0.71356 0.31652 0.0
O90 O 0.65055 0.69538 0.38066 0.0
O91 O 0.67195 0.71335 0.3751 0.0
O92 O 0.67186 0.67798 0.36886 0.0
C93 C 0.66067 0.70766 0.38613 0.0
O94 O 0.64887 0.71099 0.32638 0.0
C95 C 0.68456 0.68432 0.36152 0.0
O96 O 0.66738 0.70763 0.32168 0.0
O97 O 0.68776 0.69469 0.34938 0.0
C98 C 0.29565 3e-05 0.3559 0.0
O99 O 0.2823 0.99358 0.35159 0.0
Cd100 Cd 0.26912 0.96863 0.34261 0.0
O101 O 0.3028 0.99359 0.35414 0.0
Cd102 Cd 0.29888 0.96994 0.34189 0.0
C103 C 0.27657 0.95205 0.38139 0.0
O104 O 0.28139 0.96496 0.31454 0.0
O105 O 0.28446 0.94745 0.32347 0.0
O106 O 0.32023 0.981 0.32011 0.0
C107 C 0.27877 0.95226 0.31132 0.0
O108 O 0.26761 0.95489 0.37312 0.0
C109 C 0.32716 0.97623 0.3297 0.0
O110 O 0.28899 0.95645 0.37354 0.0
O111 O 0.32107 0.96862 0.34539 0.0
C112 C 0.00014 0.29929 0.34971 0.0
O113 O 0.00736 0.29339 0.34465 0.0
Cd114 Cd 0.03146 0.30565 0.33189 0.0
O115 O 0.00561 0.31285 0.34791 0.0
Cd116 Cd 0.02883 0.33394 0.33539 0.0
C117 C 0.04863 0.32905 0.37153 0.0
O118 O 0.03122 0.3212 0.30627 0.0
O119 O 0.04912 0.34259 0.31085 0.0
O120 O 0.01345 0.34301 0.3232 0.0
C121 C 0.04332 0.33128 0.3001 0.0
O122 O 0.04632 0.318 0.36143 0.0
C123 C 0.02166 0.35586 0.32908 0.0
O124 O 0.04319 0.33659 0.36594 0.0
O125 O 0.03313 0.35851 0.33829 0.0
C126 C 0.62639 0.95817 0.33673 0.0
O127 O 0.62141 0.94495 0.34053 0.0
Cd128 Cd 0.63566 0.93463 0.3502 0.0
O129 O 0.63989 0.96715 0.33837 0.0
Cd130 Cd 0.66222 0.96687 0.34837 0.0
C131 C 0.65922 0.94434 0.30976 0.0
O132 O 0.65168 0.9496 0.37646 0.0
O133 O 0.67355 0.95594 0.36789 0.0
O134 O 0.67137 0.98886 0.36827 0.0
C135 C 0.66295 0.94895 0.37989 0.0
O136 O 0.64835 0.93456 0.31935 0.0
C137 C 0.68256 0.99635 0.35746 0.0
O138 O 0.66609 0.95717 0.31649 0.0
O139 O 0.68425 0.99025 0.34199 0.0
C140 C -0.00424 0.7 0.35769 0.0
O141 O 0.002 0.71342 0.35435 0.0
Cd142 Cd 0.0258 0.72743 0.34049 0.0
O143 O 0.00214 0.69303 0.35358 0.0
Cd144 Cd 0.02588 0.69812 0.3391 0.0
C145 C 0.04546 0.72198 0.37653 0.0
O146 O 0.02692 0.71411 0.31175 0.0
O147 O 0.04584 0.71226 0.31538 0.0
O148 O 0.01276 0.67404 0.3239 0.0
C149 C 0.03932 0.71724 0.30529 0.0
O150 O 0.04208 0.73057 0.36846 0.0
C151 C 0.02155 0.67024 0.32992 0.0
O152 O 0.04064 0.70939 0.36942 0.0
O153 O 0.03221 0.67932 0.3404 0.0
C154 C 0.33332 0.36342 0.33985 0.0
O155 O 0.32651 0.36963 0.34537 0.0
Cd156 Cd 0.30207 0.35671 0.35807 0.0
O157 O 0.32736 0.3498 0.34114 0.0
Cd158 Cd 0.30405 0.32882 0.35255 0.0
C159 C 0.28488 0.33474 0.31709 0.0
O160 O 0.29938 0.33928 0.3829 0.0
O161 O 0.28149 0.3194 0.37172 0.0
O162 O 0.31845 0.3204 0.36928 0.0
C163 C 0.2865 0.32904 0.38539 0.0
O164 O 0.28659 0.34487 0.32888 0.0
C165 C 0.31234 0.30796 0.36137 0.0
O166 O 0.29111 0.32758 0.3208 0.0
O167 O 0.30223 0.30504 0.3488 0.0
C168 C 0.29778 -0.00273 0.6669 0.0
O169 O 0.29083 0.00368 0.67036 0.0
Cd170 Cd 0.30205 0.02793 0.68213 0.0
O171 O 0.31136 0.00363 0.67008 0.0
Cd172 Cd 0.33113 0.02734 0.68308 0.0
C173 C 0.32714 0.04578 0.64428 0.0
O174 O 0.31729 0.03031 0.71042 0.0
O175 O 0.33799 0.04896 0.70349 0.0
O176 O 0.3402 0.01446 0.70262 0.0
C177 C 0.32692 0.04305 0.71493 0.0
O178 O 0.31522 0.0427 0.65276 0.0
C179 C 0.35281 0.02071 0.69497 0.0
O180 O 0.33508 0.04126 0.6516 0.0
O181 O 0.35551 0.0302 0.6815 0.0
C182 C 0.9604 0.3301 0.68847 0.0
O183 O 0.94735 0.32203 0.68307 0.0
Cd184 Cd 0.93778 0.29843 0.669 0.0
O185 O 0.9695 0.32589 0.68646 0.0
Cd186 Cd 0.96973 0.30419 0.67347 0.0
C187 C 0.94512 0.2822 0.70842 0.0
O188 O 0.95453 0.30029 0.64338 0.0
O189 O 0.95918 0.28358 0.65025 0.0
O190 O 0.99466 0.32196 0.66374 0.0
C191 C 0.9535 0.28848 0.63828 0.0
O192 O 0.93577 0.28279 0.69722 0.0
C193 C -0.00036 0.31368 0.66669 0.0
O194 O 0.95856 0.28984 0.70434 0.0
O195 O 0.99089 0.30117 0.67333 0.0
C196 C 0.66412 0.62895 0.68915 0.0
O197 O 0.67062 0.62228 0.68441 0.0
Cd198 Cd 0.69467 0.63383 0.67141 0.0
O199 O 0.67023 0.64251 0.6865 0.0
Cd200 Cd 0.69328 0.66288 0.67238 0.0
C201 C 0.71275 0.65865 0.70949 0.0
O202 O 0.69454 0.64866 0.64434 0.0
O203 O 0.71298 0.66995 0.64748 0.0
O204 O 0.67684 0.6709 0.66111 0.0
C205 C 0.70665 0.65831 0.63748 0.0
O206 O 0.70968 0.64693 0.70066 0.0
C207 C 0.6855 0.68417 0.66421 0.0
O208 O 0.70799 0.66653 0.70278 0.0
O209 O 0.69783 0.68765 0.67131 0.0
C210 C 0.29864 0.29679 0.66168 0.0
O211 O 0.29261 0.28341 0.66522 0.0
Cd212 Cd 0.30464 0.27178 0.67885 0.0
O213 O 0.31211 0.30508 0.66494 0.0
Cd214 Cd 0.33289 0.30274 0.67728 0.0
C215 C 0.32912 0.27877 0.64049 0.0
O216 O 0.3194 0.28703 0.70606 0.0
O217 O 0.34105 0.29117 0.70171 0.0
O218 O 0.34178 0.32774 0.68754 0.0
C219 C 0.32961 0.2854 0.71235 0.0
O220 O 0.31785 0.26962 0.65006 0.0
C221 C 0.35499 0.33195 0.68428 0.0
O222 O 0.33634 0.29177 0.64647 0.0
O223 O 0.35792 0.32269 0.67752 0.0
C224 C 0.66307 0.03336 0.68444 0.0
O225 O 0.66965 0.04628 0.67823 0.0
Cd226 Cd 0.69302 0.05777 0.66244 0.0
O227 O 0.6688 0.02557 0.68244 0.0
Cd228 Cd 0.69163 0.02809 0.66856 0.0
C229 C 0.71229 0.05458 0.70168 0.0
O230 O 0.69324 0.0416 0.63776 0.0
O231 O 0.71252 0.04134 0.6458 0.0
O232 O 0.67686 0.00347 0.65629 0.0
C233 C 0.70598 0.04479 0.63304 0.0
O234 O 0.7102 0.06267 0.68981 0.0
C235 C 0.68525 -0.00084 0.66227 0.0
O236 O 0.70578 0.04104 0.69881 0.0
O237 O 0.69654 0.00823 0.67172 0.0
C238 C -0.00076 0.70153 0.66315 0.0
O239 O 0.99233 0.70798 0.6668 0.0
Cd240 Cd 0.96866 0.69678 0.68202 0.0
O241 O 0.99367 0.68821 0.66725 0.0
Cd242 Cd 0.97094 0.66797 0.68173 0.0
C243 C 0.94926 0.6709 0.64618 0.0
O244 O 0.96901 0.68227 0.70926 0.0
O245 O 0.95182 0.66018 0.70771 0.0
O246 O 0.98676 0.65983 0.69525 0.0
C247 C 0.95732 0.67222 0.71666 0.0
O248 O 0.95191 0.6824 0.65529 0.0
C249 C 0.97895 0.6468 0.68983 0.0
O250 O 0.95532 0.66392 0.65184 0.0
O251 O 0.96742 0.64358 0.6803 0.0
H252 H 0.22427 0.33764 0.14982 0.0
N253 N 0.20354 0.31203 0.13354 0.0
H254 H 0.23685 0.34089 0.18186 0.0
H255 H 0.19705 0.29247 0.16246 0.0
H256 H 0.20915 0.29569 0.19525 0.0
H257 H 0.21259 0.29558 0.11689 0.0
H258 H 0.23268 0.30285 0.09291 0.0
H259 H 0.2182 0.33799 0.1135 0.0
H260 H 0.23833 0.34538 0.09002 0.0
H261 H 0.20235 0.3367 0.13852 0.0
H262 H 0.17722 0.29185 0.12286 0.0
H263 H 0.18145 0.33936 0.13283 0.0
H264 H 0.15586 0.29401 0.11875 0.0
H265 H 0.11917 0.34131 0.14301 0.0
H266 H 0.10793 0.34271 0.17458 0.0
H267 H 0.08273 0.29639 0.17717 0.0
H268 H 0.09418 0.29505 0.14534 0.0
H269 H 0.09052 0.30175 0.09852 0.0
H270 H 0.07971 0.31114 0.07494 0.0
H271 H 0.1152 0.35418 0.08551 0.0
H272 H 0.12621 0.34456 0.1086 0.0
H273 H 0.13757 0.33534 0.14435 0.0
H274 H 0.15969 0.33469 0.14613 0.0
H275 H 0.14386 0.30212 0.09904 0.0
N276 N 0.11317 0.31681 0.12233 0.0
H277 H 0.1211 0.30202 0.09864 0.0
C278 C 0.20974 0.31473 0.15366 0.0
C279 C 0.22078 0.32845 0.15969 0.0
C280 C 0.22795 0.3303 0.17817 0.0
C281 C 0.22414 0.31853 0.19117 0.0
C282 C 0.21262 0.30495 0.18547 0.0
C283 C 0.20556 0.3031 0.16687 0.0
C284 C 0.21383 0.31614 0.11705 0.0
C285 C 0.21798 0.30636 0.11068 0.0
C286 C 0.22952 0.31058 0.09715 0.0
C287 C 0.2372 0.32475 0.08972 0.0
C288 C 0.23257 0.33436 0.09531 0.0
C289 C 0.22102 0.33012 0.10886 0.0
C290 C 0.1914 0.31408 0.13072 0.0
C291 C 0.19233 0.32741 0.13378 0.0
C292 C 0.18023 0.32886 0.13079 0.0
C293 C 0.16682 0.31693 0.1252 0.0
C294 C 0.16598 0.30357 0.12247 0.0
C295 C 0.17815 0.30224 0.12503 0.0
C296 C 0.1076 0.31801 0.14186 0.0
C297 C 0.11139 0.33143 0.15041 0.0
C298 C 0.10499 0.33223 0.16855 0.0
C299 C 0.09448 0.31966 0.17834 0.0
C300 C 0.09076 0.30625 0.16987 0.0
C301 C 0.09733 0.30546 0.15183 0.0
C302 C 0.10899 0.32244 0.10549 0.0
C303 C 0.09619 0.31314 0.09519 0.0
C304 C 0.09006 0.31854 0.08174 0.0
C305 C 0.09655 0.33341 0.07854 0.0
C306 C 0.10991 0.34268 0.08785 0.0
C307 C 0.11619 0.33721 0.10105 0.0
C308 C 0.12737 0.31843 0.12162 0.0
C309 C 0.13872 0.32802 0.13438 0.0
C310 C 0.15159 0.32775 0.13523 0.0
C311 C 0.15363 0.31817 0.12298 0.0
C312 C 0.14261 0.30931 0.10924 0.0
C313 C 0.12962 0.30936 0.10876 0.0
H314 H 0.71199 0.79198 0.15489 0.0
N315 N 0.69601 0.80145 0.13776 0.0
H316 H 0.70726 0.77872 0.18693 0.0
H317 H 0.67551 0.79745 0.16617 0.0
H318 H 0.67085 0.78449 0.19843 0.0
H319 H 0.66772 0.77972 0.13671 0.0
H320 H 0.65739 0.75934 0.11373 0.0
H321 H 0.7082 0.79832 0.10416 0.0
H322 H 0.69762 0.77829 0.07996 0.0
H323 H 0.71603 0.82759 0.14939 0.0
H324 H 0.67374 0.80444 0.12222 0.0
H325 H 0.71558 0.84986 0.14694 0.0
H326 H 0.67363 0.82673 0.11825 0.0
H327 H 0.70215 0.92112 0.13645 0.0
H328 H 0.6974 0.93034 0.16751 0.0
H329 H 0.68349 0.88964 0.19723 0.0
H330 H 0.68725 0.88018 0.16602 0.0
H331 H 0.66821 0.8886 0.12744 0.0
H332 H 0.65853 0.89845 0.10291 0.0
H333 H 0.69769 0.91496 0.06706 0.0
H334 H 0.70756 0.90576 0.09245 0.0
H335 H 0.71818 0.89005 0.124 0.0
H336 H 0.71784 0.8673 0.12477 0.0
H337 H 0.67151 0.84477 0.13396 0.0
N338 N 0.6961 0.89432 0.12851 0.0
H339 H 0.67201 0.8676 0.13172 0.0
C340 C 0.69417 0.79572 0.15814 0.0
C341 C 0.70318 0.79061 0.16457 0.0
C342 C 0.70045 0.78306 0.18289 0.0
C343 C 0.6886 0.78044 0.19518 0.0
C344 C 0.67994 0.78613 0.18916 0.0
C345 C 0.68267 0.79368 0.17081 0.0
C346 C 0.68889 0.79048 0.12237 0.0
C347 C 0.67434 0.77956 0.12436 0.0
C348 C 0.66836 0.76791 0.11095 0.0
C349 C 0.67667 0.767 0.09498 0.0
C350 C 0.69097 0.7784 0.09233 0.0
C351 C 0.69701 0.78996 0.10598 0.0
C352 C 0.6951 0.81432 0.13582 0.0
C353 C 0.70673 0.82735 0.14265 0.0
C354 C 0.70648 0.84012 0.141 0.0
C355 C 0.69466 0.84027 0.13206 0.0
C356 C 0.68289 0.82713 0.12539 0.0
C357 C 0.68302 0.81428 0.12746 0.0
C358 C 0.69456 0.89973 0.14817 0.0
C359 C 0.69798 0.91413 0.14962 0.0
C360 C 0.6954 0.91946 0.16758 0.0
C361 C 0.68978 0.9107 0.18496 0.0
C362 C 0.68729 0.89659 0.18399 0.0
C363 C 0.68954 0.89113 0.16587 0.0
C364 C 0.68876 0.89674 0.11194 0.0
C365 C 0.67456 0.89405 0.11405 0.0
C366 C 0.66902 0.89968 0.0999 0.0
C367 C 0.67745 0.90785 0.08317 0.0
C368 C 0.69106 0.90916 0.08008 0.0
C369 C 0.69667 0.90375 0.09441 0.0
C370 C 0.69521 0.88053 0.128 0.0
C371 C 0.70797 0.88015 0.12596 0.0
C372 C 0.70772 0.8671 0.12666 0.0
C373 C 0.69467 0.85407 0.12984 0.0
C374 C 0.68177 0.85448 0.1313 0.0
C375 C 0.68201 0.86755 0.13012 0.0
H376 H 0.11578 0.78637 0.15118 0.0
N377 N 0.10397 0.79546 0.12173 0.0
H378 H 0.10493 0.77547 0.18366 0.0
H379 H 0.07995 0.79251 0.13818 0.0
H380 H 0.06902 0.78169 0.17115 0.0
H381 H 0.09011 0.79501 0.08804 0.0
H382 H 0.07736 0.77501 0.06414 0.0
H383 H 0.10513 0.77063 0.12101 0.0
H384 H 0.09209 0.75052 0.09788 0.0
H385 H 0.12788 0.79249 0.1194 0.0
H386 H 0.1139 0.82348 0.12 0.0
H387 H 0.1529 0.81172 0.12038 0.0
H388 H 0.13905 0.84302 0.11936 0.0
H389 H 0.21755 0.86382 0.16391 0.0
H390 H 0.22718 0.87668 0.19611 0.0
H391 H 0.21685 0.90872 0.17714 0.0
H392 H 0.20744 0.89593 0.14508 0.0
H393 H 0.20595 0.89224 0.10997 0.0
H394 H 0.22398 0.90878 0.08516 0.0
H395 H 0.24781 0.88669 0.09208 0.0
H396 H 0.23015 0.87071 0.11742 0.0
H397 H 0.19763 0.84825 0.11013 0.0
H398 H 0.17244 0.83016 0.10397 0.0
H399 H 0.15902 0.85503 0.13999 0.0
N400 N 0.2079 0.87197 0.1324 0.0
H401 H 0.18408 0.87346 0.14461 0.0
C402 C 0.09871 0.79039 0.14212 0.0
C403 C 0.10572 0.78568 0.15539 0.0
C404 C 0.09949 0.77943 0.17413 0.0
C405 C 0.08609 0.77768 0.18002 0.0
C406 C 0.07927 0.78273 0.16697 0.0
C407 C 0.08554 0.78901 0.14823 0.0
C408 C 0.09848 0.78434 0.10638 0.0
C409 C 0.09083 0.78542 0.08992 0.0
C410 C 0.08345 0.77393 0.07642 0.0
C411 C 0.08351 0.76104 0.07921 0.0
C412 C 0.09188 0.76029 0.09509 0.0
C413 C 0.09933 0.77183 0.10849 0.0
C414 C 0.11895 0.80655 0.11999 0.0
C415 C 0.13018 0.80346 0.11945 0.0
C416 C 0.14459 0.81457 0.11975 0.0
C417 C 0.14816 0.82907 0.12007 0.0
C418 C 0.13684 0.83206 0.11964 0.0
C419 C 0.12242 0.82092 0.11978 0.0
C420 C 0.21183 0.87889 0.15208 0.0
C421 C 0.21718 0.8735 0.1669 0.0
C422 C 0.22264 0.88085 0.18528 0.0
C423 C 0.22287 0.89379 0.18912 0.0
C424 C 0.21704 0.89891 0.1745 0.0
C425 C 0.21159 0.89156 0.15616 0.0
C426 C 0.21693 0.88044 0.11572 0.0
C427 C 0.21506 0.891 0.10611 0.0
C428 C 0.2253 0.90037 0.09193 0.0
C429 C 0.23726 0.89899 0.08679 0.0
C430 C 0.23863 0.88792 0.09566 0.0
C431 C 0.2286 0.87881 0.1101 0.0
C432 C 0.19286 0.86214 0.12803 0.0
C433 C 0.18921 0.84986 0.1164 0.0
C434 C 0.17476 0.83944 0.11311 0.0
C435 C 0.16355 0.8409 0.12176 0.0
C436 C 0.16725 0.8535 0.13286 0.0
C437 C 0.18173 0.86408 0.13575 0.0
H438 H 0.3385 0.2176 0.86905 0.0
N439 N 0.31447 0.20445 0.89323 0.0
H440 H 0.34092 0.23037 0.83711 0.0
H441 H 0.29364 0.20528 0.87291 0.0
H442 H 0.29582 0.21777 0.84081 0.0
H443 H 0.29813 0.21004 0.91746 0.0
H444 H 0.30614 0.22978 0.94168 0.0
H445 H 0.34237 0.2222 0.90562 0.0
H446 H 0.3505 0.24127 0.93081 0.0
H447 H 0.33793 0.20072 0.8944 0.0
H448 H 0.29144 0.1784 0.89487 0.0
H449 H 0.33734 0.17794 0.897 0.0
H450 H 0.29062 0.15543 0.89605 0.0
H451 H 0.33317 0.11074 0.8791 0.0
H452 H 0.33611 0.10117 0.84711 0.0
H453 H 0.29257 0.08932 0.83008 0.0
H454 H 0.28943 0.09805 0.86305 0.0
H455 H 0.29245 0.08304 0.91019 0.0
H456 H 0.30018 0.0714 0.93478 0.0
H457 H 0.34168 0.11048 0.93944 0.0
H458 H 0.33388 0.12189 0.91432 0.0
H459 H 0.33064 0.13395 0.87807 0.0
H460 H 0.33261 0.15743 0.87889 0.0
H461 H 0.29406 0.13988 0.91632 0.0
N462 N 0.30822 0.10879 0.89358 0.0
H463 H 0.29166 0.1162 0.91409 0.0
C464 C 0.31586 0.21052 0.87329 0.0
C465 C 0.32912 0.21744 0.86283 0.0
C466 C 0.33047 0.22471 0.84455 0.0
C467 C 0.31859 0.2252 0.83652 0.0
C468 C 0.30523 0.21781 0.84675 0.0
C469 C 0.30392 0.21056 0.86495 0.0
C470 C 0.31956 0.21448 0.90992 0.0
C471 C 0.30956 0.21667 0.92067 0.0
C472 C 0.31419 0.22796 0.9346 0.0
C473 C 0.32903 0.23726 0.93826 0.0
C474 C 0.33901 0.23454 0.92818 0.0
C475 C 0.33435 0.2234 0.91395 0.0
C476 C 0.31467 0.19127 0.89486 0.0
C477 C 0.32757 0.19094 0.89519 0.0
C478 C 0.3272 0.1778 0.89639 0.0
C479 C 0.31393 0.16472 0.89688 0.0
C480 C 0.30106 0.1652 0.89628 0.0
C481 C 0.30147 0.17832 0.89542 0.0
C482 C 0.3109 0.10481 0.87369 0.0
C483 C 0.32422 0.10604 0.86857 0.0
C484 C 0.32595 0.1007 0.85002 0.0
C485 C 0.31453 0.09429 0.83592 0.0
C486 C 0.30149 0.0938 0.8407 0.0
C487 C 0.29969 0.09892 0.85944 0.0
C488 C 0.31252 0.10327 0.91046 0.0
C489 C 0.30309 0.08916 0.91687 0.0
C490 C 0.30754 0.08256 0.931 0.0
C491 C 0.32159 0.08998 0.93911 0.0
C492 C 0.33085 0.10439 0.93333 0.0
C493 C 0.32637 0.11099 0.91911 0.0
C494 C 0.31075 0.1232 0.89565 0.0
C495 C 0.32258 0.13513 0.88638 0.0
C496 C 0.32378 0.14865 0.88707 0.0
C497 C 0.31337 0.15062 0.89742 0.0
C498 C 0.30204 0.13877 0.90765 0.0
C499 C 0.30072 0.12523 0.90662 0.0
H500 H 0.7618 0.12334 0.86657 0.0
N501 N 0.78385 0.12465 0.88643 0.0
H502 H 0.7512 0.111 0.83451 0.0
H503 H 0.79323 0.10986 0.86334 0.0
H504 H 0.78301 0.09778 0.83073 0.0
H505 H 0.78131 0.09912 0.89769 0.0
H506 H 0.76461 0.08255 0.92349 0.0
H507 H 0.76924 0.13028 0.91402 0.0
H508 H 0.75253 0.11386 0.9398 0.0
H509 H 0.79826 0.14836 0.86434 0.0
H510 H 0.80434 0.12359 0.91058 0.0
H511 H 0.8239 0.16601 0.86499 0.0
H512 H 0.82982 0.1418 0.9126 0.0
H513 H 0.89063 0.22422 0.87963 0.0
H514 H 0.90076 0.2373 0.84789 0.0
H515 H 0.90986 0.20455 0.82793 0.0
H516 H 0.89976 0.19146 0.86003 0.0
H517 H 0.91623 0.21066 0.9056 0.0
H518 H 0.92846 0.23044 0.92985 0.0
H519 H 0.88814 0.22901 0.94154 0.0
H520 H 0.87617 0.20979 0.9171 0.0
H521 H 0.86657 0.20305 0.88335 0.0
H522 H 0.84123 0.18471 0.88331 0.0
H523 H 0.85257 0.15258 0.8978 0.0
N524 N 0.8895 0.19932 0.8915 0.0
H525 H 0.87802 0.17144 0.89938 0.0
C526 C 0.77831 0.11761 0.86714 0.0
C527 C 0.76648 0.11781 0.85873 0.0
C528 C 0.76052 0.11082 0.84037 0.0
C529 C 0.76634 0.10351 0.8299 0.0
C530 C 0.7782 0.10322 0.83846 0.0
C531 C 0.78412 0.11019 0.85698 0.0
C532 C 0.77642 0.11591 0.90393 0.0
C533 C 0.77528 0.1025 0.90713 0.0
C534 C 0.76568 0.09302 0.9218 0.0
C535 C 0.75714 0.09683 0.93358 0.0
C536 C 0.75903 0.11063 0.93116 0.0
C537 C 0.76855 0.12003 0.91644 0.0
C538 C 0.79923 0.13465 0.88738 0.0
C539 C 0.80513 0.1468 0.87478 0.0
C540 C 0.81983 0.15701 0.8754 0.0
C541 C 0.82907 0.15558 0.88912 0.0
C542 C 0.82317 0.14328 0.90167 0.0
C543 C 0.80845 0.13284 0.90066 0.0
C544 C 0.89456 0.20686 0.87231 0.0
C545 C 0.89475 0.21978 0.86847 0.0
C546 C 0.90062 0.22732 0.85035 0.0
C547 C 0.90623 0.22202 0.83554 0.0
C548 C 0.90559 0.20887 0.83907 0.0
C549 C 0.89986 0.20141 0.85735 0.0
C550 C 0.89531 0.20869 0.9091 0.0
C551 C 0.90997 0.21441 0.91375 0.0
C552 C 0.91695 0.22572 0.92765 0.0
C553 C 0.90934 0.23151 0.93738 0.0
C554 C 0.89442 0.22508 0.93389 0.0
C555 C 0.88748 0.21387 0.91987 0.0
C556 C 0.87426 0.18867 0.89171 0.0
C557 C 0.86364 0.19212 0.88681 0.0
C558 C 0.84906 0.18148 0.88651 0.0
C559 C 0.84468 0.16699 0.89036 0.0
C560 C 0.85538 0.16358 0.8951 0.0
C561 C 0.86997 0.17433 0.89589 0.0
H562 H 0.78331 0.70633 0.87834 0.0
N563 N 0.79737 0.69393 0.89289 0.0
H564 H 0.76985 0.70108 0.8467 0.0
H565 H 0.79613 0.67558 0.86263 0.0
H566 H 0.78402 0.67132 0.83004 0.0
H567 H 0.77402 0.66673 0.89591 0.0
H568 H 0.7542 0.65874 0.92026 0.0
H569 H 0.79731 0.70743 0.92687 0.0
H570 H 0.77793 0.69925 0.95221 0.0
H571 H 0.8237 0.71355 0.88084 0.0
H572 H 0.79975 0.67131 0.90749 0.0
H573 H 0.8456 0.71208 0.8812 0.0
H574 H 0.82175 0.67012 0.90939 0.0
H575 H 0.91603 0.70414 0.88359 0.0
H576 H 0.92728 0.70212 0.85247 0.0
H577 H 0.885 0.67228 0.82822 0.0
H578 H 0.87406 0.67347 0.85999 0.0
H579 H 0.87928 0.66063 0.89519 0.0
H580 H 0.88814 0.64908 0.91844 0.0
H581 H 0.91329 0.68929 0.95033 0.0
H582 H 0.90422 0.7007 0.92719 0.0
H583 H 0.8857 0.71209 0.89988 0.0
H584 H 0.86354 0.71311 0.90137 0.0
H585 H 0.83858 0.6672 0.89116 0.0
N586 N 0.88839 0.68928 0.89409 0.0
H587 H 0.86077 0.66627 0.89128 0.0
C588 C 0.79086 0.69152 0.87291 0.0
C589 C 0.78353 0.69872 0.86775 0.0
C590 C 0.77592 0.69576 0.84947 0.0
C591 C 0.77576 0.68575 0.83548 0.0
C592 C 0.78352 0.67885 0.84045 0.0
C593 C 0.79073 0.68147 0.85908 0.0
C594 C 0.78701 0.68784 0.90936 0.0
C595 C 0.77502 0.67381 0.90832 0.0
C596 C 0.76372 0.66921 0.92242 0.0
C597 C 0.76427 0.67844 0.93808 0.0
C598 C 0.77689 0.69199 0.94004 0.0
C599 C 0.78807 0.69665 0.92573 0.0
C600 C 0.81014 0.69272 0.89437 0.0
C601 C 0.82326 0.70406 0.88712 0.0
C602 C 0.83581 0.70322 0.88753 0.0
C603 C 0.83562 0.69104 0.89557 0.0
C604 C 0.82239 0.67962 0.90287 0.0
C605 C 0.80975 0.68036 0.90205 0.0
C606 C 0.89422 0.6891 0.87426 0.0
C607 C 0.90921 0.69727 0.87143 0.0
C608 C 0.91561 0.69615 0.85348 0.0
C609 C 0.90712 0.687 0.83759 0.0
C610 C 0.892 0.6792 0.84018 0.0
C611 C 0.88563 0.68004 0.8584 0.0
C612 C 0.89104 0.68152 0.90963 0.0
C613 C 0.88626 0.66681 0.90765 0.0
C614 C 0.89139 0.66024 0.92087 0.0
C615 C 0.90149 0.66834 0.93605 0.0
C616 C 0.90561 0.68284 0.93865 0.0
C617 C 0.90037 0.68933 0.92559 0.0
C618 C 0.87494 0.68921 0.89517 0.0
C619 C 0.8754 0.70227 0.8981 0.0
C620 C 0.86269 0.70281 0.89873 0.0
C621 C 0.84913 0.69027 0.89606 0.0
C622 C 0.84871 0.67709 0.89349 0.0
C623 C 0.86146 0.67654 0.89332 0.0
H624 H 0.74518 0.61847 0.47413 0.0
N625 N 0.77033 0.63758 0.45767 0.0
H626 H 0.7346 0.62056 0.5062 0.0
H627 H 0.78364 0.65915 0.48592 0.0
H628 H 0.77309 0.66155 0.51751 0.0
H629 H 0.77692 0.66556 0.4541 0.0
H630 H 0.76521 0.67416 0.43119 0.0
H631 H 0.75528 0.62422 0.42463 0.0
H632 H 0.74418 0.63299 0.40058 0.0
H633 H 0.77372 0.615 0.45639 0.0
H634 H 0.79761 0.66125 0.45688 0.0
H635 H 0.79625 0.61466 0.45746 0.0
H636 H 0.82025 0.66113 0.4593 0.0
H637 H 0.86935 0.6176 0.48506 0.0
H638 H 0.88199 0.62147 0.51752 0.0
H639 H 0.88154 0.66094 0.52604 0.0
H640 H 0.86867 0.65681 0.49372 0.0
H641 H 0.88251 0.66348 0.46161 0.0
H642 H 0.90325 0.67329 0.43853 0.0
H643 H 0.88868 0.63076 0.41491 0.0
H644 H 0.86771 0.62098 0.43799 0.0
H645 H 0.83648 0.61738 0.48271 0.0
H646 H 0.81446 0.61851 0.48021 0.0
H647 H 0.83704 0.65659 0.4428 0.0
N648 N 0.86226 0.63505 0.46672 0.0
H649 H 0.85907 0.65587 0.44622 0.0
C650 C 0.76516 0.63857 0.47759 0.0
C651 C 0.75138 0.62777 0.48375 0.0
C652 C 0.74532 0.62907 0.50196 0.0
C653 C 0.75295 0.64129 0.51436 0.0
C654 C 0.76697 0.65192 0.50846 0.0
C655 C 0.77302 0.65058 0.49027 0.0
C656 C 0.7667 0.64409 0.44135 0.0
C657 C 0.76999 0.65845 0.44228 0.0
C658 C 0.76331 0.6634 0.42898 0.0
C659 C 0.75342 0.65418 0.41425 0.0
C660 C 0.75134 0.64027 0.41213 0.0
C661 C 0.75783 0.63527 0.42566 0.0
C662 C 0.78397 0.63808 0.45678 0.0
C663 C 0.78389 0.62509 0.45677 0.0
C664 C 0.7968 0.62495 0.45765 0.0
C665 C 0.81016 0.63787 0.45887 0.0
C666 C 0.81022 0.65096 0.45829 0.0
C667 C 0.79725 0.65106 0.4571 0.0
C668 C 0.86807 0.63686 0.48702 0.0
C669 C 0.87177 0.62694 0.49415 0.0
C670 C 0.8791 0.62925 0.51258 0.0
C671 C 0.88288 0.64158 0.52429 0.0
C672 C 0.87868 0.65128 0.51747 0.0
C673 C 0.87137 0.64897 0.49898 0.0
C674 C 0.87341 0.64146 0.45131 0.0
C675 C 0.88356 0.65629 0.45116 0.0
C676 C 0.89541 0.6619 0.43794 0.0
C677 C 0.89755 0.65277 0.42494 0.0
C678 C 0.88729 0.63801 0.42481 0.0
C679 C 0.87529 0.63244 0.43783 0.0
C680 C 0.84958 0.63644 0.46479 0.0
C681 C 0.8367 0.62603 0.47408 0.0
C682 C 0.82406 0.62663 0.47244 0.0
C683 C 0.82385 0.63757 0.46109 0.0
C684 C 0.83677 0.6481 0.45187 0.0
C685 C 0.8495 0.64761 0.45377 0.0
H686 H 0.37432 0.11887 0.47729 0.0
N687 N 0.36131 0.13265 0.46406 0.0
H688 H 0.36993 0.10559 0.50895 0.0
H689 H 0.34479 0.13267 0.49626 0.0
H690 H 0.34134 0.12061 0.52882 0.0
H691 H 0.3332 0.11074 0.46536 0.0
H692 H 0.32203 0.09012 0.44266 0.0
H693 H 0.3719 0.1298 0.42866 0.0
H694 H 0.36049 0.10956 0.40489 0.0
H695 H 0.38223 0.15879 0.47419 0.0
H696 H 0.33867 0.13594 0.45123 0.0
H697 H 0.38206 0.18124 0.47279 0.0
H698 H 0.33876 0.1584 0.44821 0.0
H699 H 0.3687 0.25304 0.46723 0.0
H700 H 0.36489 0.26237 0.49886 0.0
H701 H 0.35221 0.22191 0.5285 0.0
H702 H 0.35505 0.21232 0.49675 0.0
H703 H 0.33467 0.2206 0.45935 0.0
H704 H 0.32462 0.23079 0.43597 0.0
H705 H 0.36311 0.24754 0.39859 0.0
H706 H 0.37334 0.23795 0.4228 0.0
H707 H 0.38416 0.22161 0.45187 0.0
H708 H 0.38352 0.19871 0.45151 0.0
H709 H 0.33769 0.1767 0.46483 0.0
N710 N 0.36253 0.22623 0.45896 0.0
H711 H 0.33841 0.19967 0.46364 0.0
C712 C 0.36003 0.12686 0.48434 0.0
C713 C 0.36723 0.1194 0.48863 0.0
C714 C 0.36475 0.11187 0.5069 0.0
C715 C 0.3552 0.11188 0.5217 0.0
C716 C 0.34848 0.11996 0.51773 0.0
C717 C 0.35065 0.12715 0.49915 0.0
C718 C 0.35352 0.12172 0.44885 0.0
C719 C 0.33917 0.11063 0.45209 0.0
C720 C 0.33275 0.09885 0.43891 0.0
C721 C 0.34039 0.09799 0.42197 0.0
C722 C 0.35438 0.10962 0.41804 0.0
C723 C 0.36088 0.1213 0.43144 0.0
C724 C 0.36064 0.14567 0.46257 0.0
C725 C 0.37271 0.15867 0.46854 0.0
C726 C 0.37261 0.17154 0.4675 0.0
C727 C 0.36047 0.17182 0.46005 0.0
C728 C 0.34828 0.15871 0.45421 0.0
C729 C 0.34828 0.14577 0.4557 0.0
C730 C 0.36158 0.23172 0.47889 0.0
C731 C 0.36499 0.2461 0.4805 0.0
C732 C 0.36297 0.25151 0.49879 0.0
C733 C 0.35796 0.24285 0.51634 0.0
C734 C 0.35554 0.22877 0.51517 0.0
C735 C 0.35723 0.22324 0.49673 0.0
C736 C 0.3549 0.2288 0.44297 0.0
C737 C 0.34077 0.22616 0.44584 0.0
C738 C 0.33502 0.23199 0.43237 0.0
C739 C 0.34318 0.24033 0.41558 0.0
C740 C 0.35669 0.24159 0.41168 0.0
C741 C 0.3625 0.23597 0.42533 0.0
C742 C 0.36143 0.21236 0.458 0.0
C743 C 0.37398 0.21179 0.4545 0.0
C744 C 0.37358 0.19865 0.45455 0.0
C745 C 0.36059 0.18572 0.45855 0.0
C746 C 0.34788 0.18631 0.4615 0.0
C747 C 0.34826 0.19947 0.46094 0.0
H748 H 0.77261 0.10362 0.46681 0.0
N749 N 0.77334 0.12803 0.45287 0.0
H750 H 0.76202 0.09104 0.49828 0.0
H751 H 0.76211 0.13604 0.48294 0.0
H752 H 0.75212 0.1238 0.51551 0.0
H753 H 0.74885 0.12003 0.43324 0.0
H754 H 0.73648 0.09986 0.40951 0.0
H755 H 0.78561 0.11405 0.43375 0.0
H756 H 0.77321 0.09378 0.41037 0.0
H757 H 0.79635 0.12635 0.46777 0.0
H758 H 0.78462 0.15427 0.43724 0.0
H759 H 0.82128 0.14569 0.46933 0.0
H760 H 0.80991 0.17367 0.43773 0.0
H761 H 0.8905 0.20017 0.49157 0.0
H762 H 0.90136 0.21334 0.52316 0.0
H763 H 0.88406 0.24101 0.511 0.0
H764 H 0.8734 0.22789 0.47949 0.0
H765 H 0.87605 0.2284 0.44428 0.0
H766 H 0.89367 0.24469 0.41897 0.0
H767 H 0.91389 0.21885 0.41855 0.0
H768 H 0.8966 0.20298 0.44429 0.0
H769 H 0.86729 0.17899 0.45531 0.0
H770 H 0.84233 0.15973 0.45039 0.0
H771 H 0.82793 0.19015 0.46014 0.0
N772 N 0.87678 0.20635 0.46347 0.0
H773 H 0.85303 0.2094 0.4638 0.0
C774 C 0.76797 0.12077 0.47222 0.0
C775 C 0.76811 0.10815 0.47714 0.0
C776 C 0.76218 0.10099 0.49545 0.0
C777 C 0.75619 0.10636 0.50957 0.0
C778 C 0.75641 0.1192 0.50488 0.0
C779 C 0.76221 0.12628 0.48637 0.0
C780 C 0.76806 0.11851 0.43547 0.0
C781 C 0.75443 0.11466 0.42773 0.0
C782 C 0.74738 0.10315 0.41419 0.0
C783 C 0.75384 0.09518 0.40831 0.0
C784 C 0.76796 0.09969 0.41482 0.0
C785 C 0.77508 0.11134 0.42813 0.0
C786 C 0.78848 0.1389 0.45257 0.0
C787 C 0.79912 0.13661 0.46119 0.0
C788 C 0.81351 0.14772 0.46189 0.0
C789 C 0.8177 0.16134 0.4537 0.0
C790 C 0.80709 0.16345 0.44454 0.0
C791 C 0.79265 0.15234 0.44406 0.0
C792 C 0.88116 0.21301 0.4832 0.0
C793 C 0.88884 0.2089 0.49599 0.0
C794 C 0.89501 0.21643 0.51401 0.0
C795 C 0.89365 0.22829 0.51951 0.0
C796 C 0.88546 0.23205 0.50703 0.0
C797 C 0.87925 0.22446 0.48905 0.0
C798 C 0.88523 0.21463 0.44632 0.0
C799 C 0.88422 0.22622 0.43863 0.0
C800 C 0.89425 0.23548 0.42417 0.0
C801 C 0.90515 0.23304 0.41688 0.0
C802 C 0.90553 0.22092 0.42375 0.0
C803 C 0.89571 0.21187 0.43843 0.0
C804 C 0.86197 0.19551 0.46022 0.0
C805 C 0.8587 0.18144 0.45624 0.0
C806 C 0.84441 0.17046 0.45361 0.0
C807 C 0.83301 0.17329 0.45514 0.0
C808 C 0.83639 0.18754 0.45868 0.0
C809 C 0.85075 0.19858 0.46104 0.0
H810 H 0.03206 0.56831 0.19717 0.0
N811 N 0.0126 0.5518 0.22489 0.0
H812 H 0.02779 0.57739 0.16527 0.0
H813 H 0.98616 0.5439 0.20833 0.0
H814 H 0.98185 0.55295 0.17678 0.0
H815 H 0.98948 0.55253 0.24127 0.0
H816 H 0.9908 0.57065 0.2647 0.0
H817 H 0.03534 0.56998 0.24673 0.0
H818 H 0.0367 0.58756 0.27151 0.0
H819 H 0.03081 0.54214 0.22607 0.0
H820 H 0.98574 0.52852 0.23223 0.0
H821 H 0.02514 0.51733 0.2298 0.0
H822 H 0.9797 0.50355 0.23423 0.0
H823 H 0.00989 0.45014 0.21091 0.0
H824 H 0.01048 0.43884 0.17895 0.0
H825 H 0.96477 0.42196 0.1714 0.0
H826 H 0.96431 0.43381 0.20327 0.0
H827 H 0.96885 0.42401 0.24784 0.0
H828 H 0.97576 0.41117 0.27147 0.0
H829 H 0.01962 0.44709 0.27125 0.0
H830 H 0.01262 0.4596 0.24694 0.0
H831 H 0.00966 0.47164 0.21064 0.0
H832 H 0.01568 0.49637 0.21137 0.0
H833 H 0.97984 0.48518 0.25241 0.0
N834 N 0.98604 0.44857 0.22899 0.0
H835 H 0.97322 0.45995 0.25035 0.0
C836 C 0.00951 0.5555 0.20521 0.0
C837 C 0.02107 0.56475 0.19258 0.0
C838 C 0.01861 0.56989 0.1744 0.0
C839 C 0.00448 0.56595 0.16864 0.0
C840 C 0.99286 0.5563 0.18098 0.0
C841 C 0.99533 0.55107 0.19905 0.0
C842 C 0.01242 0.56016 0.24188 0.0
C843 C -0.0002 0.56007 0.24787 0.0
C844 C 0.00057 0.57041 0.26152 0.0
C845 C 0.01393 0.58086 0.26976 0.0
C846 C 0.0263 0.58004 0.26501 0.0
C847 C 0.02554 0.56988 0.25107 0.0
C848 C 0.00873 0.53714 0.2284 0.0
C849 C 0.01966 0.53372 0.22808 0.0
C850 C 0.01634 0.51949 0.23 0.0
C851 C 0.00189 0.50826 0.23189 0.0
C852 C 0.99096 0.51182 0.2329 0.0
C853 C 0.99436 0.52614 0.23141 0.0
C854 C 0.98704 0.44307 0.20932 0.0
C855 C 5e-05 0.44436 0.2022 0.0
C856 C 0.00039 0.43786 0.18394 0.0
C857 C 0.98768 0.42961 0.17274 0.0
C858 C 0.9747 0.42831 0.17979 0.0
C859 C 0.97444 0.43509 0.19786 0.0
C860 C 0.99014 0.44271 0.24565 0.0
C861 C 0.97987 0.42921 0.25328 0.0
C862 C 0.98387 0.42193 0.26687 0.0
C863 C -0.00171 0.42804 0.27327 0.0
C864 C 0.00847 0.44195 0.26641 0.0
C865 C 0.00446 0.4492 0.25266 0.0
C866 C 0.9907 0.46369 0.23017 0.0
C867 C 0.00295 0.47431 0.21971 0.0
C868 C 0.00655 0.48868 0.22038 0.0
C869 C -0.00173 0.49294 0.23193 0.0
C870 C 0.98633 0.48236 0.24297 0.0
C871 C 0.98258 0.46792 0.24198 0.0
H872 H 0.5814 0.53947 0.20287 0.0
N873 N 0.55731 0.53337 0.22259 0.0
H874 H 0.59072 0.55316 0.17119 0.0
H875 H 0.54253 0.54151 0.19703 0.0
H876 H 0.55148 0.55471 0.16527 0.0
H877 H 0.54749 0.55179 0.2313 0.0
H878 H 0.55852 0.57203 0.25486 0.0
H879 H 0.57802 0.5392 0.24932 0.0
H880 H 0.58928 0.55962 0.27293 0.0
H881 H 0.5546 0.50773 0.22672 0.0
H882 H 0.52962 0.52877 0.22466 0.0
H883 H 0.53241 0.48448 0.23015 0.0
H884 H 0.50744 0.50567 0.22656 0.0
H885 H 0.4568 0.41303 0.20921 0.0
H886 H 0.44369 0.40474 0.17701 0.0
H887 H 0.44595 0.44564 0.17 0.0
H888 H 0.45875 0.45365 0.20248 0.0
H889 H 0.44557 0.44634 0.23541 0.0
H890 H 0.42523 0.43512 0.25919 0.0
H891 H 0.44001 0.40693 0.28027 0.0
H892 H 0.46055 0.41841 0.25654 0.0
H893 H 0.49062 0.44431 0.2124 0.0
H894 H 0.51286 0.46755 0.21156 0.0
H895 H 0.49196 0.48597 0.24652 0.0
N896 N 0.46526 0.43781 0.22811 0.0
H897 H 0.46964 0.463 0.24623 0.0
C898 C 0.56127 0.53937 0.20237 0.0
C899 C 0.57473 0.54255 0.19448 0.0
C900 C 0.58002 0.55036 0.17637 0.0
C901 C 0.57191 0.55516 0.16576 0.0
C902 C 0.55813 0.55141 0.17324 0.0
C903 C 0.5529 0.54367 0.19139 0.0
C904 C 0.56185 0.54384 0.23871 0.0
C905 C 0.55626 0.55307 0.24077 0.0
C906 C 0.56264 0.56472 0.25423 0.0
C907 C 0.57483 0.56746 0.26565 0.0
C908 C 0.57999 0.55785 0.26419 0.0
C909 C 0.57351 0.54614 0.25088 0.0
C910 C 0.54388 0.52 0.2251 0.0
C911 C 0.54431 0.50731 0.22682 0.0
C912 C 0.53157 0.49401 0.22859 0.0
C913 C 0.51799 0.49306 0.22837 0.0
C914 C 0.51762 0.50589 0.227 0.0
C915 C 0.5304 0.51921 0.22559 0.0
C916 C 0.45877 0.4339 0.20818 0.0
C917 C 0.45458 0.42022 0.20055 0.0
C918 C 0.44715 0.41555 0.18213 0.0
C919 C 0.44374 0.42451 0.17091 0.0
C920 C 0.44822 0.43838 0.17839 0.0
C921 C 0.45564 0.44303 0.19688 0.0
C922 C 0.45475 0.43334 0.2444 0.0
C923 C 0.44473 0.43808 0.24557 0.0
C924 C 0.43307 0.43163 0.25916 0.0
C925 C 0.43102 0.42012 0.27152 0.0
C926 C 0.4413 0.41574 0.27084 0.0
C927 C 0.45308 0.42235 0.25746 0.0
C928 C 0.47836 0.4517 0.22934 0.0
C929 C 0.49087 0.45338 0.21992 0.0
C930 C 0.50364 0.4667 0.21961 0.0
C931 C 0.50435 0.47876 0.22905 0.0
C932 C 0.49184 0.47705 0.23877 0.0
C933 C 0.47896 0.46373 0.23877 0.0
H934 H 0.52535 0.96526 0.19371 0.0
N935 N 0.53183 0.98444 0.2232 0.0
H936 H 0.5394 0.96788 0.16279 0.0
H937 H 0.55542 0.00929 0.20967 0.0
H938 H 0.56938 0.01207 0.17886 0.0
H939 H 0.55264 0.0071 0.24496 0.0
H940 H 0.56837 0.00569 0.27074 0.0
H941 H 0.52842 0.96092 0.24091 0.0
H942 H 0.54375 0.95937 0.26705 0.0
H943 H 0.50382 0.96741 0.22972 0.0
H944 H 0.53659 0.01189 0.22234 0.0
H945 H 0.48529 0.97413 0.23208 0.0
H946 H 0.51813 0.01873 0.22366 0.0
H947 H 0.43397 0.98886 0.2072 0.0
H948 H 0.42214 0.98837 0.17578 0.0
H949 H 0.45003 0.03436 0.16981 0.0
H950 H 0.46262 0.03458 0.20104 0.0
H951 H 0.44976 0.02911 0.24843 0.0
H952 H 0.42956 0.02123 0.2724 0.0
H953 H 0.41918 0.97729 0.2647 0.0
H954 H 0.43954 0.98525 0.24115 0.0
H955 H 0.4546 0.98816 0.20986 0.0
H956 H 0.47335 0.98207 0.21035 0.0
H957 H 0.50088 0.02079 0.24437 0.0
N958 N 0.45614 0.01261 0.22591 0.0
H959 H 0.48204 0.02721 0.24301 0.0
C960 C 0.53928 0.98701 0.20399 0.0
C961 C 0.53481 0.97556 0.19031 0.0
C962 C 0.54284 0.9771 0.17267 0.0
C963 C 0.55557 0.99017 0.16846 0.0
C964 C 0.55974 0.00181 0.18183 0.0
C965 C 0.55167 0.00026 0.19943 0.0
C966 C 0.53949 0.98407 0.24086 0.0
C967 C 0.55057 0.99667 0.24984 0.0
C968 C 0.55953 0.99585 0.26457 0.0
C969 C 0.55732 0.98243 0.27082 0.0
C970 C 0.54565 0.96986 0.26269 0.0
C971 C 0.53688 0.97071 0.24778 0.0
C972 C 0.5215 0.98907 0.22561 0.0
C973 C 0.50697 0.97864 0.22858 0.0
C974 C 0.49641 0.98251 0.22973 0.0
C975 C 0.50014 0.99697 0.22775 0.0
C976 C 0.51483 0.0075 0.22538 0.0
C977 C 0.52543 0.0036 0.22442 0.0
C978 C 0.44946 0.0118 0.20646 0.0
C979 C 0.43787 -0.00116 0.19904 0.0
C980 C 0.43086 -0.00139 0.18109 0.0
C981 C 0.43493 0.01136 0.17029 0.0
C982 C 0.44665 0.0243 0.17756 0.0
C983 C 0.45385 0.02447 0.19543 0.0
C984 C 0.44611 0.00783 0.24282 0.0
C985 C 0.44339 0.01784 0.25242 0.0
C986 C 0.43187 0.01332 0.26609 0.0
C987 C 0.42274 -0.00137 0.27023 0.0
C988 C 0.42599 0.98867 0.26161 0.0
C989 C 0.43765 0.99323 0.24815 0.0
C990 C 0.4669 0.00833 0.22625 0.0
C991 C 0.46461 0.99547 0.21735 0.0
C992 C 0.47539 0.99187 0.21784 0.0
C993 C 0.48868 0.0009 0.22746 0.0
C994 C 0.49089 0.01367 0.23656 0.0
C995 C 0.4801 0.01732 0.23592 0.0
H996 H 0.4166 0.96133 0.8126 0.0
N997 N 0.44163 0.97918 0.79479 0.0
H998 H 0.40687 0.96512 0.84429 0.0
H999 H 0.45605 0.00172 0.82122 0.0
H1000 H 0.44651 0.00556 0.85301 0.0
H1001 H 0.44826 0.007 0.78891 0.0
H1002 H 0.43596 0.01467 0.7655 0.0
H1003 H 0.4259 0.96453 0.76289 0.0
H1004 H 0.41417 0.97231 0.73837 0.0
H1005 H 0.44469 0.95651 0.79833 0.0
H1006 H 0.46892 0.00236 0.78968 0.0
H1007 H 0.46713 0.95594 0.79957 0.0
H1008 H 0.49155 0.00203 0.79147 0.0
H1009 H 0.53945 0.95668 0.81832 0.0
H1010 H 0.55284 0.96002 0.84988 0.0
H1011 H 0.55326 -0.00027 0.86091 0.0
H1012 H 0.54018 0.99642 0.82904 0.0
H1013 H 0.5516 0.00345 0.79543 0.0
H1014 H 0.57237 0.01394 0.77245 0.0
H1015 H 0.5605 0.9714 0.75121 0.0
H1016 H 0.53934 0.96114 0.77357 0.0
H1017 H 0.50872 0.96125 0.82405 0.0
H1018 H 0.48704 0.96303 0.82233 0.0
H1019 H 0.50611 0.99389 0.77344 0.0
N1020 N 0.53263 0.97477 0.80134 0.0
H1021 H 0.52778 0.99238 0.77532 0.0
C1022 C 0.437 0.98117 0.81457 0.0
C1023 C 0.42324 0.97089 0.82155 0.0
C1024 C 0.41773 0.97307 0.83966 0.0
C1025 C 0.42591 0.98567 0.85115 0.0
C1026 C 0.43989 0.99583 0.84438 0.0
C1027 C 0.4454 0.99359 0.82627 0.0
C1028 C 0.43773 0.98505 0.77792 0.0
C1029 C 0.44105 -0.00057 0.77771 0.0
C1030 C 0.43403 0.00384 0.76413 0.0
C1031 C 0.42375 0.99402 0.75029 0.0
C1032 C 0.42164 0.98005 0.74922 0.0
C1033 C 0.42848 0.97561 0.76302 0.0
C1034 C 0.45513 0.97941 0.79393 0.0
C1035 C 0.45491 0.96645 0.79663 0.0
C1036 C 0.46775 0.96619 0.79754 0.0
C1037 C 0.48118 0.97897 0.79589 0.0
C1038 C 0.4814 0.99198 0.7927 0.0
C1039 C 0.46847 0.99221 0.79175 0.0
C1040 C 0.53881 0.97624 0.82135 0.0
C1041 C 0.54226 0.96597 0.82776 0.0
C1042 C 0.54988 0.9679 0.84582 0.0
C1043 C 0.55422 0.98019 0.85791 0.0
C1044 C 0.55031 0.99026 0.8518 0.0
C1045 C 0.54273 0.98834 0.83366 0.0
C1046 C 0.54381 0.98148 0.78601 0.0
C1047 C 0.55333 0.99643 0.78552 0.0
C1048 C 0.5653 0.00239 0.77249 0.0
C1049 C 0.56827 0.99353 0.76005 0.0
C1050 C 0.55851 0.97861 0.76026 0.0
C1051 C 0.5464 0.97269 0.77307 0.0
C1052 C 0.52031 0.97691 0.80039 0.0
C1053 C 0.50839 0.96861 0.81318 0.0
C1054 C 0.4959 0.96952 0.81201 0.0
C1055 C 0.49482 0.97861 0.79772 0.0
C1056 C 0.50668 0.98697 0.78487 0.0
C1057 C 0.51922 0.98608 0.78605 0.0
H1058 H 0.98785 0.55294 0.80618 0.0
N1059 N 0.01283 0.55393 0.7943 0.0
H1060 H 0.98393 0.56248 0.83764 0.0
H1061 H 0.03096 0.5654 0.82546 0.0
H1062 H 0.02697 0.5746 0.85754 0.0
H1063 H 0.03083 0.57985 0.77966 0.0
H1064 H 0.02546 0.59356 0.75537 0.0
H1065 H 0.9887 0.54278 0.76944 0.0
H1066 H 0.98344 0.5562 0.74477 0.0
H1067 H 0.98583 0.5301 0.79898 0.0
H1068 H 0.03072 0.54398 0.78918 0.0
H1069 H 0.97998 0.50528 0.8001 0.0
H1070 H 0.02521 0.51913 0.79198 0.0
H1071 H 0.96749 0.4345 0.83413 0.0
H1072 H 0.9709 0.42496 0.86612 0.0
H1073 H 0.01702 0.44818 0.85595 0.0
H1074 H 0.01348 0.45811 0.82416 0.0
H1075 H 0.00982 0.44919 0.79056 0.0
H1076 H 0.00767 0.43141 0.7655 0.0
H1077 H 0.9619 0.41556 0.76084 0.0
H1078 H 0.96421 0.43344 0.78593 0.0
H1079 H 0.97523 0.46434 0.82503 0.0
H1080 H 0.98142 0.48923 0.82123 0.0
H1081 H 0.01517 0.49624 0.77839 0.0
N1082 N 0.98754 0.45113 0.8073 0.0
H1083 H 0.00952 0.47156 0.7836 0.0
C1084 C 0.00978 0.5585 0.81343 0.0
C1085 C -0.00357 0.55755 0.81731 0.0
C1086 C 0.99418 0.56299 0.83543 0.0
C1087 C 0.00515 0.56937 0.85016 0.0
C1088 C 0.01837 0.56999 0.8464 0.0
C1089 C 0.02064 0.56463 0.8282 0.0
C1090 C 0.01027 0.5603 0.7766 0.0
C1091 C 0.02061 0.57452 0.77168 0.0
C1092 C 0.0175 0.58234 0.75773 0.0
C1093 C 0.00393 0.57606 0.74822 0.0
C1094 C 0.9939 0.56149 0.75212 0.0
C1095 C -0.00301 0.5537 0.7662 0.0
C1096 C 0.00874 0.53897 0.79351 0.0
C1097 C 0.99445 0.52782 0.79681 0.0
C1098 C 0.99116 0.51354 0.79787 0.0
C1099 C 0.00212 0.51003 0.79637 0.0
C1100 C 0.01639 0.52125 0.79288 0.0
C1101 C 0.01961 0.53551 0.79135 0.0
C1102 C 0.99018 0.44686 0.8268 0.0
C1103 C 0.97833 0.4377 0.83901 0.0
C1104 C 0.98031 0.43228 0.85722 0.0
C1105 C 0.99423 0.4358 0.86345 0.0
C1106 C 0.00618 0.44522 0.85138 0.0
C1107 C 0.00418 0.45087 0.83327 0.0
C1108 C 0.98712 0.44259 0.79013 0.0
C1109 C -0.00061 0.44207 0.78389 0.0
C1110 C -0.00188 0.43184 0.76964 0.0
C1111 C 0.98459 0.42199 0.7613 0.0
C1112 C 0.9725 0.42307 0.7668 0.0
C1113 C 0.97378 0.43326 0.78112 0.0
C1114 C 0.99178 0.466 0.80456 0.0
C1115 C 0.98402 0.47131 0.81493 0.0
C1116 C 0.98749 0.48555 0.81248 0.0
C1117 C -0.00131 0.49486 0.79919 0.0
C1118 C 0.00657 0.48952 0.7889 0.0
C1119 C 0.00326 0.47529 0.79172 0.0
H1120 H 0.4585 0.43211 0.81369 0.0
N1121 N 0.45685 0.4522 0.79254 0.0
H1122 H 0.44665 0.42135 0.84631 0.0
H1123 H 0.4414 0.46059 0.81635 0.0
H1124 H 0.42942 0.44979 0.84868 0.0
H1125 H 0.42779 0.4426 0.7888 0.0
H1126 H 0.41194 0.42606 0.76351 0.0
H1127 H 0.46471 0.44619 0.757 0.0
H1128 H 0.44897 0.43087 0.72988 0.0
H1129 H 0.48516 0.46407 0.79533 0.0
H1130 H 0.45166 0.47418 0.78594 0.0
H1131 H 0.50331 0.48961 0.79564 0.0
H1132 H 0.46965 0.49993 0.78734 0.0
H1133 H 0.55301 0.55329 0.81572 0.0
H1134 H 0.56647 0.56428 0.84655 0.0
H1135 H 0.54131 0.58484 0.85633 0.0
H1136 H 0.52722 0.573 0.82572 0.0
H1137 H 0.54256 0.58207 0.78051 0.0
H1138 H 0.56328 0.59308 0.7573 0.0
H1139 H 0.56437 0.55361 0.75682 0.0
H1140 H 0.54401 0.54289 0.78047 0.0
H1141 H 0.52909 0.53377 0.82159 0.0
H1142 H 0.51059 0.50899 0.81842 0.0
H1143 H 0.49009 0.52001 0.77102 0.0
N1144 N 0.5316 0.55683 0.79915 0.0
H1145 H 0.50866 0.5454 0.77482 0.0
C1146 C 0.45082 0.44708 0.81256 0.0
C1147 C 0.45235 0.43614 0.82145 0.0
C1148 C 0.44561 0.43005 0.84003 0.0
C1149 C 0.43707 0.43471 0.8499 0.0
C1150 C 0.43586 0.44595 0.84127 0.0
C1151 C 0.44279 0.45218 0.82286 0.0
C1152 C 0.44752 0.44525 0.77531 0.0
C1153 C 0.4326 0.44013 0.77609 0.0
C1154 C 0.42343 0.43071 0.76118 0.0
C1155 C 0.42896 0.4266 0.74461 0.0
C1156 C 0.4441 0.43311 0.74276 0.0
C1157 C 0.45321 0.44212 0.75811 0.0
C1158 C 0.46715 0.4673 0.79091 0.0
C1159 C 0.48178 0.47188 0.79334 0.0
C1160 C 0.49208 0.48649 0.79372 0.0
C1161 C 0.48793 0.49688 0.79196 0.0
C1162 C 0.47324 0.49224 0.78873 0.0
C1163 C 0.46292 0.47754 0.78811 0.0
C1164 C 0.5389 0.56217 0.81845 0.0
C1165 C 0.55017 0.55995 0.82461 0.0
C1166 C 0.55803 0.56643 0.84221 0.0
C1167 C 0.55515 0.57564 0.85388 0.0
C1168 C 0.54374 0.57769 0.8479 0.0
C1169 C 0.53568 0.57097 0.83039 0.0
C1170 C 0.54171 0.56172 0.78229 0.0
C1171 C 0.54707 0.57571 0.77496 0.0
C1172 C 0.5589 0.58196 0.76167 0.0
C1173 C 0.56561 0.57428 0.7554 0.0
C1174 C 0.55963 0.55991 0.76168 0.0
C1175 C 0.54785 0.5537 0.77505 0.0
C1176 C 0.52043 0.54177 0.79837 0.0
C1177 C 0.52074 0.53117 0.8105 0.0
C1178 C 0.51008 0.51675 0.80856 0.0
C1179 C 0.49891 0.51241 0.79426 0.0
C1180 C 0.49847 0.52296 0.7823 0.0
C1181 C 0.5091 0.53747 0.78439 0.0
H1182 H 0.69749 0.90041 0.53303 0.0
N1183 N 0.67733 0.88118 0.55766 0.0
H1184 H 0.69398 0.90927 0.50043 0.0
H1185 H 0.6517 0.87055 0.53726 0.0
H1186 H 0.64805 0.87956 0.50491 0.0
H1187 H 0.65288 0.88162 0.56889 0.0
H1188 H 0.65176 0.89838 0.59266 0.0
H1189 H 0.69785 0.89889 0.58312 0.0
H1190 H 0.69687 0.91593 0.60688 0.0
H1191 H 0.69326 0.86943 0.54993 0.0
H1192 H 0.65125 0.85925 0.57188 0.0
H1193 H 0.68635 0.8442 0.5528 0.0
H1194 H 0.6444 0.83411 0.57566 0.0
H1195 H 0.67112 0.78869 0.53787 0.0
H1196 H 0.67239 0.77757 0.50599 0.0
H1197 H 0.62844 0.74306 0.51525 0.0
H1198 H 0.62742 0.75413 0.54736 0.0
H1199 H 0.63206 0.76005 0.59483 0.0
H1200 H 0.63774 0.74572 0.61794 0.0
H1201 H 0.68104 0.76612 0.59346 0.0
H1202 H 0.67522 0.7799 0.57002 0.0
H1203 H 0.67506 0.80066 0.57591 0.0
H1204 H 0.68149 0.82563 0.57604 0.0
H1205 H 0.63845 0.81334 0.55601 0.0
N1206 N 0.64861 0.77732 0.56512 0.0
H1207 H 0.63187 0.7881 0.55679 0.0
C1208 C 0.67491 0.88495 0.53761 0.0
C1209 C 0.68672 0.89567 0.52676 0.0
C1210 C 0.68469 0.90068 0.50818 0.0
C1211 C 0.67073 0.89514 0.50022 0.0
C1212 C 0.65891 0.88411 0.51083 0.0
C1213 C 0.66099 0.87895 0.52929 0.0
C1214 C 0.67553 0.889 0.57416 0.0
C1215 C 0.66246 0.88878 0.57743 0.0
C1216 C 0.66185 0.89848 0.59095 0.0
C1217 C 0.67427 0.90861 0.60148 0.0
C1218 C 0.68708 0.90821 0.59913 0.0
C1219 C 0.68768 0.8985 0.58556 0.0
C1220 C 0.6729 0.8663 0.56082 0.0
C1221 C 0.68261 0.86175 0.55568 0.0
C1222 C 0.67865 0.84732 0.55747 0.0
C1223 C 0.66482 0.83705 0.5646 0.0
C1224 C 0.65508 0.84166 0.56991 0.0
C1225 C 0.65904 0.85612 0.56793 0.0
C1226 C 0.64913 0.77218 0.545 0.0
C1227 C 0.6617 0.77884 0.53291 0.0
C1228 C 0.66239 0.77249 0.51463 0.0
C1229 C 0.65055 0.75936 0.50817 0.0
C1230 C 0.63783 0.75304 0.51996 0.0
C1231 C 0.63716 0.7594 0.53818 0.0
C1232 C 0.65322 0.77127 0.58096 0.0
C1233 C 0.64288 0.76169 0.59486 0.0
C1234 C 0.6461 0.75348 0.60792 0.0
C1235 C 0.65984 0.7549 0.6075 0.0
C1236 C 0.67044 0.765 0.59431 0.0
C1237 C 0.66712 0.77297 0.58096 0.0
C1238 C 0.65283 0.79231 0.56646 0.0
C1239 C 0.66688 0.80316 0.57178 0.0
C1240 C 0.67063 0.8176 0.57167 0.0
C1241 C 0.66053 0.8216 0.56594 0.0
C1242 C 0.64647 0.81071 0.56083 0.0
C1243 C 0.64269 0.79627 0.56114 0.0
H1244 H 0.255 0.87809 0.54628 0.0
N1245 N 0.22847 0.8639 0.5617 0.0
H1246 H 0.26304 0.89232 0.51525 0.0
H1247 H 0.21091 0.86548 0.53274 0.0
H1248 H 0.21857 0.87846 0.50059 0.0
H1249 H 0.21907 0.88292 0.5672 0.0
H1250 H 0.22944 0.90342 0.59051 0.0
H1251 H 0.24712 0.86898 0.59157 0.0
H1252 H 0.25775 0.88965 0.61484 0.0
H1253 H 0.22256 0.83895 0.54563 0.0
H1254 H 0.20291 0.85867 0.58024 0.0
H1255 H 0.19948 0.81647 0.54482 0.0
H1256 H 0.18018 0.83615 0.58059 0.0
H1257 H 0.1178 0.74439 0.54256 0.0
H1258 H 0.10445 0.7362 0.51084 0.0
H1259 H 0.12347 0.78037 0.49101 0.0
H1260 H 0.13565 0.78841 0.52335 0.0
H1261 H 0.11357 0.77976 0.55814 0.0
H1262 H 0.09249 0.76983 0.58072 0.0
H1263 H 0.10691 0.7436 0.61016 0.0
H1264 H 0.12816 0.75382 0.5877 0.0
H1265 H 0.15954 0.77432 0.55971 0.0
H1266 H 0.18269 0.79663 0.56321 0.0
H1267 H 0.16057 0.82074 0.56059 0.0
N1268 N 0.13349 0.77114 0.55608 0.0
H1269 H 0.13757 0.79838 0.55838 0.0
C1270 C 0.2324 0.87059 0.54181 0.0
C1271 C 0.24702 0.87807 0.53623 0.0
C1272 C 0.25156 0.88613 0.5183 0.0
C1273 C 0.24152 0.88664 0.50509 0.0
C1274 C 0.22674 0.87869 0.51042 0.0
C1275 C 0.22226 0.87099 0.52874 0.0
C1276 C 0.23222 0.8743 0.57786 0.0
C1277 C 0.22714 0.88403 0.57803 0.0
C1278 C 0.23311 0.89577 0.59132 0.0
C1279 C 0.24444 0.89816 0.60441 0.0
C1280 C 0.24908 0.8881 0.60482 0.0
C1281 C 0.24295 0.87625 0.59172 0.0
C1282 C 0.21469 0.85061 0.56293 0.0
C1283 C 0.21333 0.83837 0.55333 0.0
C1284 C 0.20011 0.82547 0.55304 0.0
C1285 C 0.18785 0.82436 0.5627 0.0
C1286 C 0.18926 0.83658 0.57265 0.0
C1287 C 0.20245 0.84958 0.57261 0.0
C1288 C 0.12772 0.76698 0.53567 0.0
C1289 C 0.11916 0.75229 0.53126 0.0
C1290 C 0.11159 0.74763 0.51294 0.0
C1291 C 0.11269 0.75758 0.49816 0.0
C1292 C 0.12193 0.77233 0.50214 0.0
C1293 C 0.12916 0.77699 0.52076 0.0
C1294 C 0.12255 0.76764 0.57145 0.0
C1295 C 0.11252 0.77232 0.56998 0.0
C1296 C 0.10041 0.76656 0.58281 0.0
C1297 C 0.09802 0.75588 0.59709 0.0
C1298 C 0.10843 0.75174 0.59917 0.0
C1299 C 0.12061 0.75763 0.58652 0.0
C1300 C 0.14684 0.78462 0.55863 0.0
C1301 C 0.15975 0.78445 0.56007 0.0
C1302 C 0.17298 0.79726 0.56188 0.0
C1303 C 0.17364 0.81062 0.56198 0.0
C1304 C 0.16059 0.81073 0.56088 0.0
C1305 C 0.14734 0.79788 0.55946 0.0
H1306 H 0.20624 0.30715 0.54324 0.0
N1307 N 0.20491 0.32914 0.5589 0.0
H1308 H 0.21857 0.30685 0.51206 0.0
H1309 H 0.21604 0.35019 0.52959 0.0
H1310 H 0.22758 0.34974 0.49784 0.0
H1311 H 0.23419 0.34745 0.56007 0.0
H1312 H 0.25048 0.34569 0.58372 0.0
H1313 H 0.19765 0.3167 0.59551 0.0
H1314 H 0.21391 0.31604 0.62071 0.0
H1315 H 0.17663 0.31195 0.56225 0.0
H1316 H 0.20988 0.35653 0.56101 0.0
H1317 H 0.15815 0.31867 0.56441 0.0
H1318 H 0.19148 0.36355 0.56128 0.0
H1319 H 0.10618 0.33325 0.54246 0.0
H1320 H 0.09434 0.32977 0.50943 0.0
H1321 H 0.12478 0.37378 0.49342 0.0
H1322 H 0.13709 0.37707 0.52632 0.0
H1323 H 0.11672 0.37244 0.56655 0.0
H1324 H 0.0969 0.36547 0.59018 0.0
H1325 H 0.10052 0.32898 0.60902 0.0
H1326 H 0.11923 0.33523 0.58359 0.0
H1327 H 0.12803 0.33296 0.54247 0.0
H1328 H 0.14662 0.32683 0.54422 0.0
H1329 H 0.17363 0.36571 0.57836 0.0
N1330 N 0.12964 0.35792 0.55637 0.0
H1331 H 0.15509 0.3724 0.57503 0.0
C1332 C 0.21006 0.32857 0.53874 0.0
C1333 C 0.21066 0.31636 0.53316 0.0
C1334 C 0.2177 0.31623 0.51526 0.0
C1335 C 0.22418 0.32831 0.50235 0.0
C1336 C 0.22298 0.34033 0.50755 0.0
C1337 C 0.21613 0.34053 0.52564 0.0
C1338 C 0.21463 0.33177 0.57563 0.0
C1339 C 0.22966 0.34068 0.57338 0.0
C1340 C 0.23904 0.33975 0.58717 0.0
C1341 C 0.2336 0.33028 0.60393 0.0
C1342 C 0.21857 0.32291 0.60752 0.0
C1343 C 0.2092 0.32346 0.59332 0.0
C1344 C 0.19451 0.33371 0.56096 0.0
C1345 C 0.17987 0.32323 0.56221 0.0
C1346 C 0.16934 0.32714 0.56322 0.0
C1347 C 0.17319 0.3417 0.5625 0.0
C1348 C 0.18801 0.35224 0.56194 0.0
C1349 C 0.19858 0.34828 0.56146 0.0
C1350 C 0.12276 0.35538 0.53666 0.0
C1351 C 0.11053 0.34207 0.5317 0.0
C1352 C 0.10373 0.3401 0.51291 0.0
C1353 C 0.10873 0.3515 0.49898 0.0
C1354 C 0.12079 0.36485 0.50397 0.0
C1355 C 0.12783 0.36671 0.52262 0.0
C1356 C 0.11956 0.35447 0.57313 0.0
C1357 C 0.11329 0.363 0.57594 0.0
C1358 C 0.10196 0.359 0.58975 0.0
C1359 C 0.09684 0.34654 0.60181 0.0
C1360 C 0.10373 0.33841 0.59976 0.0
C1361 C 0.11473 0.34214 0.58533 0.0
C1362 C 0.1402 0.35341 0.55826 0.0
C1363 C 0.13793 0.34035 0.55014 0.0
C1364 C 0.14862 0.33668 0.55147 0.0
C1365 C 0.16175 0.34571 0.5615 0.0
C1366 C 0.16383 0.35857 0.57016 0.0
C1367 C 0.15319 0.36238 0.56844 0.0
H1368 H 0.01667 0.39886 0.07122 0.0
H1369 H 0.97085 0.36853 0.07407 0.0
H1370 H 0.01443 0.41213 0.09969 0.0
H1371 H 0.96836 0.3822 0.10173 0.0
H1372 H 0.97098 0.40104 0.16492 0.0
H1373 H 0.97274 0.38773 0.13607 0.0
H1374 H 0.00647 0.42753 0.10986 0.0
H1375 H 0.00516 0.44059 0.13942 0.0
C1376 C 0.00608 0.39513 0.07783 0.0
C1377 C 0.99395 0.38263 0.07051 0.0
C1378 C 0.00475 0.40281 0.09406 0.0
C1379 C 0.99119 0.39833 0.1031 0.0
C1380 C 0.97903 0.38587 0.09552 0.0
C1381 C 0.98042 0.37805 0.07955 0.0
C1382 C 0.97867 0.40689 0.15286 0.0
C1383 C 0.98794 0.4218 0.15433 0.0
C1384 C 0.97967 0.3993 0.13624 0.0
C1385 C 0.98979 0.40649 0.12052 0.0
C1386 C -0.00122 0.42153 0.12183 0.0
C1387 C -0.00204 0.42906 0.13865 0.0
H1388 H 0.58587 0.60958 0.0611 0.0
H1389 H 0.62667 0.61105 0.06714 0.0
H1390 H 0.57632 0.59341 0.09009 0.0
H1391 H 0.61705 0.59489 0.09651 0.0
H1392 H 0.58823 0.55353 0.13452 0.0
H1393 H 0.59856 0.5696 0.1052 0.0
H1394 H 0.58001 0.59454 0.12698 0.0
H1395 H 0.56985 0.57867 0.15624 0.0
C1396 C 0.59284 0.6065 0.06863 0.0
C1397 C 0.60708 0.61168 0.06178 0.0
C1398 C 0.58736 0.59726 0.08535 0.0
C1399 C 0.59594 0.59292 0.09567 0.0
C1400 C 0.61014 0.59796 0.08877 0.0
C1401 C 0.61567 0.60729 0.07203 0.0
C1402 C 0.58643 0.5625 0.13311 0.0
C1403 C 0.57808 0.56471 0.14766 0.0
C1404 C 0.59237 0.57171 0.11633 0.0
C1405 C 0.59004 0.5833 0.11371 0.0
C1406 C 0.58179 0.58556 0.12834 0.0
C1407 C 0.57591 0.57641 0.1451 0.0
H1408 H 0.38363 0.97884 0.06333 0.0
H1409 H 0.39362 0.02296 0.06158 0.0
H1410 H 0.39717 0.98365 0.09496 0.0
H1411 H 0.40756 0.02782 0.09324 0.0
H1412 H 0.4453 0.02737 0.13501 0.0
H1413 H 0.43177 0.02538 0.104 0.0
H1414 H 0.39268 0.99229 0.13231 0.0
H1415 H 0.40583 0.99468 0.16358 0.0
C1416 C 0.3888 0.9896 0.06963 0.0
C1417 C 0.38755 0.00053 0.05998 0.0
C1418 C 0.39649 0.99232 0.08775 0.0
C1419 C 0.40335 0.00608 0.09645 0.0
C1420 C 0.40237 0.01713 0.08673 0.0
C1421 C 0.39436 0.01433 0.06873 0.0
C1422 C 0.43377 0.01989 0.13483 0.0
C1423 C 0.42674 0.01101 0.15177 0.0
C1424 C 0.42607 0.01875 0.11705 0.0
C1425 C 0.41126 0.00861 0.11582 0.0
C1426 C 0.40414 8e-05 0.13287 0.0
C1427 C 0.41174 0.00137 0.15069 0.0
H1428 H 0.40222 0.01964 0.95656 0.0
H1429 H 0.36509 0.97797 0.94378 0.0
H1430 H 0.4154 0.01632 0.92862 0.0
H1431 H 0.37811 0.97479 0.91571 0.0
H1432 H 0.40997 0.96672 0.88136 0.0
H1433 H 0.39814 0.97075 0.91031 0.0
H1434 H 0.41554 0.01483 0.89142 0.0
H1435 H 0.42743 0.0108 0.8625 0.0
C1436 C 0.39685 0.00982 0.94771 0.0
C1437 C 0.38263 -0.00095 0.95241 0.0
C1438 C 0.40438 0.00794 0.93167 0.0
C1439 C 0.39784 0.99525 0.92002 0.0
C1440 C 0.38356 0.98458 0.92461 0.0
C1441 C 0.37605 0.98645 0.94061 0.0
C1442 C 0.41127 0.97726 0.88339 0.0
C1443 C 0.41958 0.98841 0.86959 0.0
C1444 C 0.40446 0.97957 0.89995 0.0
C1445 C 0.40579 0.99308 0.90308 0.0
C1446 C 0.41442 0.00434 0.88957 0.0
C1447 C 0.42124 0.00203 0.87301 0.0
H1448 H 0.013 0.3915 0.96104 0.0
H1449 H 0.96869 0.38116 0.96757 0.0
H1450 H 0.01613 0.40737 0.93237 0.0
H1451 H 0.97165 0.39649 0.9389 0.0
H1452 H 0.98297 0.43471 0.90107 0.0
H1453 H 0.98313 0.42124 0.93071 0.0
H1454 H 0.00905 0.40776 0.89734 0.0
H1455 H 0.00924 0.42172 0.86784 0.0
C1456 C 0.00391 0.39251 0.95628 0.0
C1457 C 0.99064 0.38516 0.96673 0.0
C1458 C 0.00569 0.40158 0.93983 0.0
C1459 C 0.99421 0.40341 0.9335 0.0
C1460 C 0.98087 0.39571 0.94368 0.0
C1461 C 0.97913 0.38679 0.96008 0.0
C1462 C 0.98884 0.429 0.90019 0.0
C1463 C -0.00402 0.42914 0.88214 0.0
C1464 C 0.98886 0.4212 0.9171 0.0
C1465 C -0.00415 0.41315 0.9163 0.0
C1466 C 0.00361 0.41387 0.89854 0.0
C1467 C 0.00371 0.42184 0.88164 0.0
H1468 H 0.6166 0.60397 0.95329 0.0
H1469 H 0.6002 0.63314 0.95563 0.0
H1470 H 0.6008 0.59154 0.9244 0.0
H1471 H 0.58428 0.62056 0.92687 0.0
H1472 H 0.54704 0.58226 0.89036 0.0
H1473 H 0.56241 0.59492 0.91952 0.0
H1474 H 0.59938 0.59886 0.88732 0.0
H1475 H 0.58431 0.58683 0.85789 0.0
C1476 C 0.60959 0.60769 0.94767 0.0
C1477 C 0.60966 0.61955 0.95665 0.0
C1478 C 0.6006 0.60061 0.93112 0.0
C1479 C 0.59134 0.60511 0.92345 0.0
C1480 C 0.59125 0.61684 0.9326 0.0
C1481 C 0.60042 0.62407 0.94895 0.0
C1482 C 0.55847 0.58598 0.88935 0.0
C1483 C 0.56437 0.58338 0.87176 0.0
C1484 C 0.56724 0.59317 0.90609 0.0
C1485 C 0.58203 0.59774 0.90568 0.0
C1486 C 0.58795 0.59523 0.88814 0.0
C1487 C 0.57927 0.58826 0.87133 0.0
H1488 H 0.97756 0.58153 0.96945 0.0
H1489 H 0.00332 0.62481 0.94633 0.0
H1490 H 0.98268 0.57223 0.93883 0.0
H1491 H 0.00809 0.6154 0.91516 0.0
H1492 H 0.02444 0.59408 0.87021 0.0
H1493 H 0.02056 0.6039 0.90152 0.0
H1494 H 0.9764 0.56871 0.90384 0.0
H1495 H 0.98052 0.55848 0.87332 0.0
C1496 C 0.98426 0.58908 0.95775 0.0
C1497 C 0.98996 0.60393 0.96031 0.0
C1498 C 0.98713 0.58372 0.94009 0.0
C1499 C -0.00433 0.59303 0.92438 0.0
C1500 C 0.00157 0.60792 0.92703 0.0
C1501 C -0.00122 0.61332 0.94485 0.0
C1502 C 0.01397 0.58833 0.87757 0.0
C1503 C 0.00281 0.57545 0.86924 0.0
C1504 C 0.01168 0.59408 0.89538 0.0
C1505 C -0.00183 0.58711 0.90527 0.0
C1506 C 0.98701 0.57428 0.89685 0.0
C1507 C 0.98932 0.56849 0.87914 0.0
H1508 H 0.37546 0.39748 0.95083 0.0
H1509 H 0.40279 0.379 0.95535 0.0
H1510 H 0.38968 0.41192 0.92183 0.0
H1511 H 0.41656 0.39281 0.92582 0.0
H1512 H 0.44721 0.42873 0.88431 0.0
H1513 H 0.43353 0.4159 0.91463 0.0
H1514 H 0.39458 0.41068 0.88724 0.0
H1515 H 0.40849 0.42408 0.85743 0.0
C1516 C 0.38443 0.39641 0.94547 0.0
C1517 C 0.38804 0.38714 0.95536 0.0
C1518 C 0.39255 0.40462 0.92878 0.0
C1519 C 0.40433 0.40359 0.92141 0.0
C1520 C 0.40779 0.39417 0.93127 0.0
C1521 C 0.39982 0.38614 0.94812 0.0
C1522 C 0.43574 0.42488 0.88491 0.0
C1523 C 0.4289 0.42739 0.8686 0.0
C1524 C 0.42785 0.41744 0.9022 0.0
C1525 C 0.41288 0.41213 0.90341 0.0
C1526 C 0.4061 0.4148 0.88707 0.0
C1527 C 0.41405 0.42242 0.86993 0.0
H1528 H 0.60791 0.97706 0.95558 0.0
H1529 H 0.60495 0.01487 0.96766 0.0
H1530 H 0.59284 0.97213 0.92528 0.0
H1531 H 0.58991 0.00986 0.93775 0.0
H1532 H 0.57717 0.00565 0.87082 0.0
H1533 H 0.59235 0.00998 0.90052 0.0
H1534 H 0.56748 0.96497 0.91615 0.0
H1535 H 0.5521 0.96061 0.88649 0.0
C1536 C 0.60407 0.98431 0.9518 0.0
C1537 C 0.60768 0.99637 0.96406 0.0
C1538 C 0.59538 0.98144 0.93453 0.0
C1539 C 0.59022 0.99064 0.92909 0.0
C1540 C 0.59386 0.00267 0.94135 0.0
C1541 C 0.60243 0.00549 0.9586 0.0
C1542 C 0.57478 0.99669 0.88071 0.0
C1543 C 0.56332 0.9828 0.87631 0.0
C1544 C 0.58353 -0.00083 0.8977 0.0
C1545 C 0.5811 0.98782 0.91071 0.0
C1546 C 0.56974 0.9739 0.90627 0.0
C1547 C 0.56092 0.97142 0.88929 0.0
H1548 H 0.62468 0.01474 0.07886 0.0
H1549 H 0.5922 0.97133 0.0629 0.0
H1550 H 0.60931 0.01454 0.1065 0.0
H1551 H 0.57698 0.97099 0.09084 0.0
H1552 H 0.54721 0.98013 0.12955 0.0
H1553 H 0.5625 0.98122 0.10112 0.0
H1554 H 0.6002 0.00373 0.13936 0.0
H1555 H 0.58494 0.00276 0.16762 0.0
C1556 C 0.6143 0.00512 0.08134 0.0
C1557 C 0.60966 0.99305 0.0687 0.0
C1558 C 0.6055 0.00498 0.09723 0.0
C1559 C 0.59189 0.99276 0.10089 0.0
C1560 C 0.58729 0.98067 0.08826 0.0
C1561 C 0.59606 0.98082 0.07233 0.0
C1562 C 0.55877 0.9853 0.13185 0.0
C1563 C 0.56486 0.99138 0.15082 0.0
C1564 C 0.56753 0.98589 0.11559 0.0
C1565 C 0.58259 0.99253 0.11796 0.0
C1566 C 0.58868 -0.00126 0.13688 0.0
C1567 C 0.57993 -0.00181 0.1531 0.0
H1568 H 0.97172 0.59964 0.07503 0.0
H1569 H 0.0168 0.61684 0.06047 0.0
H1570 H 0.97384 0.58627 0.10343 0.0
H1571 H 0.01911 0.60399 0.08923 0.0
H1572 H 0.01623 0.56921 0.13054 0.0
H1573 H 0.01277 0.58083 0.10099 0.0
H1574 H 0.98398 0.5895 0.13644 0.0
H1575 H 0.98714 0.57751 0.16569 0.0
C1576 C 0.9821 0.60064 0.07799 0.0
C1577 C 0.99408 0.60927 0.06551 0.0
C1578 C 0.98335 0.59303 0.09433 0.0
C1579 C -0.00335 0.594 0.09866 0.0
C1580 C 0.00863 0.60272 0.08616 0.0
C1581 C 0.00734 0.6102 0.06974 0.0
C1582 C 0.00913 0.57358 0.13194 0.0
C1583 C 0.00195 0.57245 0.15039 0.0
C1584 C 0.00719 0.58029 0.11505 0.0
C1585 C -0.00186 0.58619 0.11631 0.0
C1586 C 0.99083 0.58489 0.13476 0.0
C1587 C 0.99267 0.57805 0.15156 0.0
H1588 H 0.39484 0.41345 0.06023 0.0
H1589 H 0.39105 0.37205 0.06959 0.0
H1590 H 0.40978 0.42265 0.09053 0.0
H1591 H 0.40592 0.38128 0.10016 0.0
H1592 H 0.44588 0.40813 0.14058 0.0
H1593 H 0.43111 0.39876 0.10999 0.0
H1594 H 0.40726 0.41945 0.12764 0.0
H1595 H 0.4219 0.4287 0.15828 0.0
C1596 C 0.39715 0.40628 0.06877 0.0
C1597 C 0.39171 0.39199 0.06245 0.0
C1598 C 0.40567 0.41155 0.08621 0.0
C1599 C 0.40901 0.4027 0.09777 0.0
C1600 C 0.40365 0.38842 0.09145 0.0
C1601 C 0.39506 0.3831 0.07401 0.0
C1602 C 0.43742 0.4106 0.138 0.0
C1603 C 0.4351 0.4192 0.15189 0.0
C1604 C 0.42896 0.40522 0.12048 0.0
C1605 C 0.41801 0.40836 0.11639 0.0
C1606 C 0.41575 0.41701 0.1302 0.0
C1607 C 0.42417 0.42235 0.14774 0.0
H1608 H 0.63708 0.69872 0.41082 0.0
H1609 H 0.68059 0.73397 0.40124 0.0
H1610 H 0.63433 0.71141 0.43969 0.0
H1611 H 0.67795 0.74654 0.4304 0.0
H1612 H 0.66295 0.77106 0.47117 0.0
H1613 H 0.66522 0.75869 0.44139 0.0
H1614 H 0.6432 0.71842 0.4741 0.0
H1615 H 0.64089 0.73074 0.50373 0.0
C1616 C 0.64609 0.70915 0.41493 0.0
C1617 C 0.65906 0.71532 0.40376 0.0
C1618 C 0.64453 0.7164 0.43155 0.0
C1619 C 0.65593 0.72999 0.43739 0.0
C1620 C 0.6689 0.73618 0.42615 0.0
C1621 C 0.67044 0.72893 0.40952 0.0
C1622 C 0.65864 0.75958 0.47199 0.0
C1623 C 0.65168 0.75188 0.48979 0.0
C1624 C 0.65995 0.75249 0.45495 0.0
C1625 C 0.65437 0.73756 0.45534 0.0
C1626 C 0.64739 0.72988 0.47313 0.0
C1627 C 0.64606 0.73695 0.49013 0.0
H1628 H 0.26087 0.95273 0.41354 0.0
H1629 H 0.2822 0.93082 0.39044 0.0
H1630 H 0.25297 0.93735 0.44351 0.0
H1631 H 0.27327 0.91447 0.41936 0.0
H1632 H 0.26545 0.89386 0.48106 0.0
H1633 H 0.27463 0.91036 0.45273 0.0
H1634 H 0.23721 0.91545 0.45619 0.0
H1635 H 0.22907 0.90051 0.48623 0.0
C1636 C 0.26374 0.94448 0.41487 0.0
C1637 C 0.27218 0.94298 0.39981 0.0
C1638 C 0.25906 0.9355 0.43194 0.0
C1639 C 0.26228 0.92442 0.43402 0.0
C1640 C 0.27076 0.92298 0.41875 0.0
C1641 C 0.27584 0.9323 0.40203 0.0
C1642 C 0.2593 0.89874 0.47617 0.0
C1643 C 0.24652 0.89583 0.48635 0.0
C1644 C 0.26446 0.90805 0.45946 0.0
C1645 C 0.25676 0.91442 0.45191 0.0
C1646 C 0.24374 0.91114 0.46169 0.0
C1647 C 0.23882 0.90219 0.47879 0.0
H1648 H 0.05295 0.31122 0.39576 0.0
H1649 H 0.06455 0.35558 0.38922 0.0
H1650 H 0.06768 0.31723 0.42615 0.0
H1651 H 0.08012 0.36188 0.41906 0.0
H1652 H 0.09554 0.36572 0.4852 0.0
H1653 H 0.08102 0.36067 0.45441 0.0
H1654 H 0.09108 0.32789 0.43766 0.0
H1655 H 0.10472 0.33243 0.46911 0.0
C1656 C 0.05882 0.32232 0.40072 0.0
C1657 C 0.05762 0.33293 0.39009 0.0
C1658 C 0.06741 0.32582 0.4181 0.0
C1659 C 0.07532 0.34011 0.42508 0.0
C1660 C 0.07408 0.35074 0.41439 0.0
C1661 C 0.06521 0.34716 0.3972 0.0
C1662 C 0.09464 0.35751 0.47478 0.0
C1663 C 0.10112 0.3494 0.47945 0.0
C1664 C 0.08639 0.35463 0.45707 0.0
C1665 C 0.08469 0.34375 0.44348 0.0
C1666 C 0.09173 0.33606 0.44794 0.0
C1667 C 0.09969 0.33873 0.46584 0.0
H1668 H 0.03593 0.30651 0.27959 0.0
H1669 H 0.06758 0.35185 0.28066 0.0
H1670 H 0.04849 0.30325 0.25094 0.0
H1671 H 0.07987 0.34874 0.25146 0.0
H1672 H 0.10668 0.33641 0.21197 0.0
H1673 H 0.0944 0.33893 0.2417 0.0
H1674 H 0.05318 0.30808 0.21568 0.0
H1675 H 0.06555 0.3053 0.18631 0.0
C1676 C 0.04551 0.31581 0.27357 0.0
C1677 C 0.05077 0.32944 0.28237 0.0
C1678 C 0.05268 0.31396 0.25706 0.0
C1679 C 0.06521 0.32572 0.24883 0.0
C1680 C 0.07041 0.33938 0.25761 0.0
C1681 C 0.06331 0.3412 0.27425 0.0
C1682 C 0.09499 0.33015 0.21269 0.0
C1683 C 0.08706 0.32065 0.19686 0.0
C1684 C 0.08794 0.33165 0.22966 0.0
C1685 C 0.07277 0.32378 0.23109 0.0
C1686 C 0.06487 0.31415 0.21529 0.0
C1687 C 0.07194 0.31256 0.19843 0.0
H1688 H 0.64739 0.72811 0.30227 0.0
H1689 H 0.68354 0.72189 0.291 0.0
H1690 H 0.6547 0.74455 0.27362 0.0
H1691 H 0.69072 0.73826 0.26188 0.0
H1692 H 0.70679 0.77981 0.22398 0.0
H1693 H 0.70034 0.76374 0.25332 0.0
H1694 H 0.65532 0.74362 0.23679 0.0
H1695 H 0.66173 0.75959 0.20759 0.0
C1696 C 0.65688 0.73019 0.29364 0.0
C1697 C 0.66484 0.7236 0.29894 0.0
C1698 C 0.66103 0.73959 0.2771 0.0
C1699 C 0.67324 0.74267 0.26536 0.0
C1700 C 0.68132 0.73621 0.27073 0.0
C1701 C 0.67716 0.72676 0.28734 0.0
C1702 C 0.69552 0.77192 0.2266 0.0
C1703 C 0.68477 0.77107 0.21351 0.0
C1704 C 0.69183 0.76269 0.24337 0.0
C1705 C 0.67731 0.75242 0.24744 0.0
C1706 C 0.66659 0.75158 0.23433 0.0
C1707 C 0.67027 0.76078 0.2176 0.0
H1708 H 0.27224 0.92523 0.30039 0.0
H1709 H 0.26451 0.95942 0.28358 0.0
H1710 H 0.25789 0.91106 0.27148 0.0
H1711 H 0.24986 0.94509 0.25488 0.0
H1712 H 0.2408 0.92283 0.19215 0.0
H1713 H 0.25336 0.93675 0.22222 0.0
H1714 H 0.23347 0.89796 0.25843 0.0
H1715 H 0.22093 0.884 0.22823 0.0
C1716 C 0.26737 0.92967 0.29061 0.0
C1717 C 0.26956 0.94347 0.29422 0.0
C1718 C 0.25906 0.9215 0.27411 0.0
C1719 C 0.25272 0.92693 0.26084 0.0
C1720 C 0.25475 0.94066 0.26464 0.0
C1721 C 0.26308 0.94885 0.28114 0.0
C1722 C 0.23892 0.91729 0.20659 0.0
C1723 C 0.22986 0.9023 0.20779 0.0
C1724 C 0.24613 0.92528 0.22385 0.0
C1725 C 0.24445 0.91848 0.24275 0.0
C1726 C 0.23518 0.90351 0.24404 0.0
C1727 C 0.22798 0.8955 0.22674 0.0
H1728 H 0.68664 0.95627 0.29437 0.0
H1729 H 0.64244 0.92364 0.28249 0.0
H1730 H 0.69453 0.94831 0.2647 0.0
H1731 H 0.65005 0.91627 0.25215 0.0
H1732 H 0.66755 0.8953 0.21194 0.0
H1733 H 0.66103 0.90379 0.24193 0.0
H1734 H 0.69573 0.94704 0.22952 0.0
H1735 H 0.70322 0.93825 0.20061 0.0
C1736 C 0.6786 0.94756 0.28516 0.0
C1737 C 0.66396 0.94049 0.2908 0.0
C1738 C 0.68309 0.94301 0.26807 0.0
C1739 C 0.67298 0.93149 0.25599 0.0
C1740 C 0.65825 0.92485 0.26132 0.0
C1741 C 0.65384 0.92917 0.27864 0.0
C1742 C 0.67406 0.90657 0.21579 0.0
C1743 C 0.68597 0.91603 0.20368 0.0
C1744 C 0.6701 0.91154 0.23288 0.0
C1745 C 0.67768 0.9262 0.23815 0.0
C1746 C 0.68966 0.93567 0.22614 0.0
C1747 C 0.69383 0.93063 0.20927 0.0
H1748 H 0.02807 0.72984 0.2813 0.0
H1749 H 0.06589 0.72595 0.28883 0.0
H1750 H 0.03932 0.74538 0.25176 0.0
H1751 H 0.077 0.74125 0.25915 0.0
H1752 H 0.09853 0.78007 0.2173 0.0
H1753 H 0.08717 0.76607 0.24802 0.0
H1754 H 0.04623 0.7437 0.21676 0.0
H1755 H 0.05758 0.75767 0.18607 0.0
C1756 C 0.03877 0.73228 0.27663 0.0
C1757 C 0.04609 0.72666 0.28739 0.0
C1758 C 0.04519 0.74113 0.25966 0.0
C1759 C 0.05907 0.74458 0.25311 0.0
C1760 C 0.06639 0.73899 0.26396 0.0
C1761 C 0.05997 0.73013 0.28089 0.0
C1762 C 0.0871 0.77216 0.21699 0.0
C1763 C 0.07898 0.76996 0.1992 0.0
C1764 C 0.0806 0.76413 0.23458 0.0
C1765 C 0.06581 0.75371 0.2348 0.0
C1766 C 0.0576 0.75176 0.21718 0.0
C1767 C 0.06411 0.75979 0.19959 0.0
H1768 H 0.26454 0.3422 0.31081 0.0
H1769 H 0.28384 0.31973 0.28256 0.0
H1770 H 0.24938 0.33753 0.28117 0.0
H1771 H 0.26903 0.31556 0.25227 0.0
H1772 H 0.23151 0.29979 0.20783 0.0
H1773 H 0.2454 0.30288 0.23856 0.0
H1774 H 0.25066 0.34496 0.24737 0.0
H1775 H 0.23591 0.34143 0.21757 0.0
C1776 C 0.26563 0.33634 0.29816 0.0
C1777 C 0.27547 0.33141 0.29901 0.0
C1778 C 0.25697 0.33374 0.28105 0.0
C1779 C 0.25805 0.32631 0.26412 0.0
C1780 C 0.26777 0.32118 0.26508 0.0
C1781 C 0.27633 0.32363 0.28239 0.0
C1782 C 0.23538 0.30959 0.21653 0.0
C1783 C 0.23249 0.32033 0.21017 0.0
C1784 C 0.24357 0.31146 0.23402 0.0
C1785 C 0.24921 0.32418 0.24553 0.0
C1786 C 0.24633 0.33492 0.23914 0.0
C1787 C 0.23802 0.33298 0.2218 0.0
H1788 H 0.29507 0.34473 0.42057 0.0
H1789 H 0.25714 0.3133 0.38824 0.0
H1790 H 0.27988 0.3445 0.44846 0.0
H1791 H 0.24186 0.31357 0.41551 0.0
H1792 H 0.21909 0.3061 0.47655 0.0
H1793 H 0.23425 0.30624 0.4489 0.0
H1794 H 0.26355 0.35166 0.45834 0.0
H1795 H 0.24906 0.35125 0.48709 0.0
C1796 C 0.28346 0.33787 0.41936 0.0
C1797 C 0.2773 0.329 0.40227 0.0
C1798 C 0.27471 0.3378 0.43528 0.0
C1799 C 0.25957 0.32903 0.43433 0.0
C1800 C 0.25345 0.32026 0.41706 0.0
C1801 C 0.26222 0.32016 0.40132 0.0
C1802 C 0.22885 0.3161 0.47292 0.0
C1803 C 0.23282 0.32864 0.48423 0.0
C1804 C 0.23748 0.31623 0.45679 0.0
C1805 C 0.25021 0.32896 0.45129 0.0
C1806 C 0.25399 0.34158 0.46229 0.0
C1807 C 0.24548 0.3414 0.47862 0.0
H1808 H 0.64057 0.92875 0.40285 0.0
H1809 H 0.68681 0.9495 0.39506 0.0
H1810 H 0.64169 0.91446 0.43072 0.0
H1811 H 0.68808 0.93572 0.42346 0.0
H1812 H 0.68536 0.90084 0.46405 0.0
H1813 H 0.68284 0.91278 0.43414 0.0
H1814 H 0.64907 0.91634 0.4649 0.0
H1815 H 0.6513 0.90395 0.4944 0.0
C1816 C 0.65099 0.93032 0.40719 0.0
C1817 C 0.66361 0.94025 0.39678 0.0
C1818 C 0.65166 0.92217 0.42325 0.0
C1819 C 0.66498 0.9239 0.42944 0.0
C1820 C 0.67759 0.93386 0.41893 0.0
C1821 C 0.67689 0.94186 0.40272 0.0
C1822 C 0.67734 0.90411 0.46429 0.0
C1823 C 0.66853 0.90148 0.48152 0.0
C1824 C 0.67594 0.91103 0.44721 0.0
C1825 C 0.66582 0.91566 0.44708 0.0
C1826 C 0.65682 0.91276 0.46424 0.0
C1827 C 0.65811 0.90567 0.48121 0.0
H1828 H 0.06571 0.71484 0.38611 0.0
H1829 H 0.0473 0.7401 0.40673 0.0
H1830 H 0.08277 0.72391 0.41427 0.0
H1831 H 0.06345 0.74833 0.43583 0.0
H1832 H 0.10142 0.77145 0.47652 0.0
H1833 H 0.08636 0.76326 0.44663 0.0
H1834 H 0.08666 0.72336 0.4483 0.0
H1835 H 0.10322 0.73232 0.47669 0.0
C1836 C 0.06519 0.72217 0.39692 0.0
C1837 C 0.05526 0.72683 0.39423 0.0
C1838 C 0.07491 0.72733 0.4132 0.0
C1839 C 0.07466 0.73697 0.4275 0.0
C1840 C 0.06438 0.7413 0.42494 0.0
C1841 C 0.05497 0.73646 0.40835 0.0
C1842 C 0.09868 0.7611 0.47025 0.0
C1843 C 0.10367 0.75262 0.47928 0.0
C1844 C 0.08966 0.75621 0.45323 0.0
C1845 C 0.08497 0.74248 0.44501 0.0
C1846 C 0.09007 0.73405 0.4539 0.0
C1847 C 0.09943 0.73911 0.47058 0.0
H1848 H 0.30863 0.03165 0.74735 0.0
H1849 H 0.34075 0.07204 0.72099 0.0
H1850 H 0.30565 0.04437 0.77588 0.0
H1851 H 0.33721 0.08491 0.74887 0.0
H1852 H 0.33878 0.10305 0.81209 0.0
H1853 H 0.34171 0.09072 0.78315 0.0
H1854 H 0.29632 0.05854 0.78629 0.0
H1855 H 0.29371 0.07009 0.81639 0.0
C1856 C 0.31493 0.04329 0.74756 0.0
C1857 C 0.32495 0.05085 0.732 0.0
C1858 C 0.31314 0.05062 0.76385 0.0
C1859 C 0.32113 0.06574 0.76478 0.0
C1860 C 0.33105 0.07329 0.74898 0.0
C1861 C 0.33303 0.06592 0.73289 0.0
C1862 C 0.32945 0.09324 0.80682 0.0
C1863 C 0.31604 0.08755 0.81685 0.0
C1864 C 0.33108 0.08626 0.78991 0.0
C1865 C 0.31928 0.07353 0.7823 0.0
C1866 C 0.30576 0.06813 0.7919 0.0
C1867 C 0.30419 0.07496 0.80902 0.0
H1868 H 0.96117 0.28236 0.74096 0.0
H1869 H 0.91778 0.26045 0.71686 0.0
H1870 H 0.9525 0.26723 0.77146 0.0
H1871 H 0.90922 0.2454 0.74722 0.0
H1872 H 0.90163 0.21213 0.79627 0.0
H1873 H 0.91188 0.22613 0.76504 0.0
H1874 H 0.93597 0.26464 0.801 0.0
H1875 H 0.9258 0.25065 0.83218 0.0
C1876 C 0.94983 0.27427 0.74209 0.0
C1877 C 0.94016 0.27266 0.72652 0.0
C1878 C 0.94487 0.26566 0.75958 0.0
C1879 C 0.93019 0.25514 0.7617 0.0
C1880 C 0.92061 0.25332 0.74592 0.0
C1881 C 0.92552 0.26202 0.72859 0.0
C1882 C 0.90922 0.22356 0.79747 0.0
C1883 C 0.91286 0.23032 0.81662 0.0
C1884 C 0.91501 0.23157 0.77963 0.0
C1885 C 0.9247 0.24647 0.78061 0.0
C1886 C 0.92862 0.25316 0.79979 0.0
C1887 C 0.9227 0.24518 0.8176 0.0
H1888 H 0.71182 0.64145 0.74019 0.0
H1889 H 0.73416 0.68555 0.72008 0.0
H1890 H 0.72676 0.64823 0.77049 0.0
H1891 H 0.75014 0.69235 0.74944 0.0
H1892 H 0.76924 0.70318 0.81258 0.0
H1893 H 0.7536 0.69673 0.78331 0.0
H1894 H 0.74847 0.65431 0.78351 0.0
H1895 H 0.76245 0.66012 0.81432 0.0
C1896 C 0.72012 0.65261 0.7422 0.0
C1897 C 0.72186 0.66299 0.72788 0.0
C1898 C 0.72885 0.65652 0.75949 0.0
C1899 C 0.73992 0.67087 0.76257 0.0
C1900 C 0.74163 0.68124 0.74803 0.0
C1901 C 0.73254 0.67737 0.73105 0.0
C1902 C 0.76453 0.69235 0.80675 0.0
C1903 C 0.76712 0.68219 0.81625 0.0
C1904 C 0.75572 0.68871 0.78952 0.0
C1905 C 0.74957 0.67492 0.78081 0.0
C1906 C 0.75259 0.66493 0.78989 0.0
C1907 C 0.76101 0.66842 0.80748 0.0
H1908 H 0.69526 0.63448 0.61326 0.0
H1909 H 0.73338 0.67628 0.62119 0.0
H1910 H 0.70651 0.63004 0.58394 0.0
H1911 H 0.74456 0.67188 0.59169 0.0
H1912 H 0.76536 0.65225 0.55153 0.0
H1913 H 0.75423 0.65633 0.58136 0.0
H1914 H 0.71388 0.63892 0.54889 0.0
H1915 H 0.72501 0.63498 0.51904 0.0
C1916 C 0.70603 0.64274 0.60871 0.0
C1917 C 0.71343 0.65574 0.61953 0.0
C1918 C 0.71244 0.64021 0.59185 0.0
C1919 C 0.72642 0.65061 0.5855 0.0
C1920 C 0.73384 0.6636 0.59636 0.0
C1921 C 0.7274 0.66615 0.61317 0.0
C1922 C 0.75414 0.64936 0.55072 0.0
C1923 C 0.74608 0.64326 0.53288 0.0
C1924 C 0.74777 0.6517 0.56781 0.0
C1925 C 0.73318 0.64795 0.56748 0.0
C1926 C 0.72509 0.64173 0.54973 0.0
C1927 C 0.73147 0.63944 0.53263 0.0
H1928 H 0.35443 0.06684 0.63392 0.0
H1929 H 0.31023 0.04552 0.61355 0.0
H1930 H 0.36159 0.0835 0.60531 0.0
H1931 H 0.31736 0.06124 0.58404 0.0
H1932 H 0.32968 0.09859 0.54349 0.0
H1933 H 0.32373 0.08358 0.57328 0.0
H1934 H 0.36604 0.08795 0.57131 0.0
H1935 H 0.37263 0.10447 0.54302 0.0
C1936 C 0.34631 0.06556 0.62302 0.0
C1937 C 0.33178 0.05498 0.62595 0.0
C1938 C 0.35039 0.07507 0.60651 0.0
C1939 C 0.34008 0.07393 0.59223 0.0
C1940 C 0.32561 0.06289 0.59492 0.0
C1941 C 0.32149 0.05371 0.61173 0.0
C1942 C 0.33793 0.09676 0.54966 0.0
C1943 C 0.35169 0.10288 0.54056 0.0
C1944 C 0.33436 0.08776 0.56662 0.0
C1945 C 0.34426 0.0842 0.57473 0.0
C1946 C 0.35809 0.09044 0.56579 0.0
C1947 C 0.3618 0.09978 0.54916 0.0
H1948 H 0.93695 0.29444 0.6131 0.0
H1949 H 0.95016 0.2633 0.62375 0.0
H1950 H 0.92173 0.27984 0.58497 0.0
H1951 H 0.93527 0.24892 0.59538 0.0
H1952 H 0.89616 0.21914 0.55737 0.0
H1953 H 0.91029 0.23382 0.58616 0.0
H1954 H 0.92327 0.27226 0.55085 0.0
H1955 H 0.90902 0.25758 0.5222 0.0
C1956 C 0.93669 0.28454 0.60933 0.0
C1957 C 0.94473 0.28001 0.62067 0.0
C1958 C 0.928 0.27619 0.59317 0.0
C1959 C 0.92721 0.26316 0.58796 0.0
C1960 C 0.9354 0.25875 0.5992 0.0
C1961 C 0.94404 0.26706 0.61538 0.0
C1962 C 0.90203 0.23073 0.55579 0.0
C1963 C 0.90147 0.23719 0.53751 0.0
C1964 C 0.91016 0.23915 0.57225 0.0
C1965 C 0.918 0.25423 0.57079 0.0
C1966 C 0.91722 0.26069 0.55262 0.0
C1967 C 0.90904 0.25227 0.53619 0.0
H1968 H 0.35649 0.29005 0.62505 0.0
H1969 H 0.31224 0.25687 0.6148 0.0
H1970 H 0.36415 0.28131 0.59603 0.0
H1971 H 0.31963 0.24867 0.58512 0.0
H1972 H 0.33665 0.22753 0.54463 0.0
H1973 H 0.33072 0.23626 0.57496 0.0
H1974 H 0.36478 0.2795 0.56086 0.0
H1975 H 0.3717 0.27051 0.53161 0.0
C1976 C 0.34839 0.28101 0.61639 0.0
C1977 C 0.33379 0.27408 0.62225 0.0
C1978 C 0.35275 0.27601 0.59966 0.0
C1979 C 0.34256 0.26416 0.58817 0.0
C1980 C 0.3279 0.25753 0.59384 0.0
C1981 C 0.32361 0.26232 0.61079 0.0
C1982 C 0.34317 0.23885 0.54819 0.0
C1983 C 0.35469 0.24826 0.53545 0.0
C1984 C 0.33954 0.24395 0.56548 0.0
C1985 C 0.34708 0.25867 0.57035 0.0
C1986 C 0.35875 0.26807 0.55781 0.0
C1987 C 0.36258 0.26292 0.54073 0.0
H1988 H 0.69392 0.04988 0.59999 0.0
H1989 H 0.735 0.0604 0.62593 0.0
H1990 H 0.70629 0.0651 0.57069 0.0
H1991 H 0.74746 0.07622 0.59726 0.0
H1992 H 0.76498 0.0914 0.53346 0.0
H1993 H 0.75276 0.07643 0.56277 0.0
H1994 H 0.72042 0.08894 0.55969 0.0
H1995 H 0.73201 0.10299 0.52926 0.0
C1996 C 0.70561 0.05555 0.59947 0.0
C1997 C 0.71349 0.0539 0.61518 0.0
C1998 C 0.71273 0.06439 0.58276 0.0
C1999 C 0.72792 0.07199 0.58154 0.0
C2000 C 0.73577 0.07037 0.59741 0.0
C2001 C 0.72863 0.06134 0.61394 0.0
C2002 C 0.75516 0.09084 0.53884 0.0
C2003 C 0.74943 0.09832 0.52876 0.0
C2004 C 0.74825 0.0824 0.55593 0.0
C2005 C 0.73553 0.08138 0.56367 0.0
C2006 C 0.73003 0.08922 0.55398 0.0
C2007 C 0.73684 0.09751 0.53668 0.0
H2008 H 0.93981 0.64635 0.62331 0.0
H2009 H 0.93552 0.68388 0.6296 0.0
H2010 H 0.92296 0.63822 0.59472 0.0
H2011 H 0.91906 0.67596 0.60092 0.0
H2012 H 0.87968 0.65185 0.56101 0.0
H2013 H 0.89504 0.65794 0.59104 0.0
H2014 H 0.92174 0.64457 0.55964 0.0
H2015 H 0.90632 0.63839 0.52974 0.0
C2016 C 0.93532 0.65288 0.61859 0.0
C2017 C 0.93904 0.66577 0.62879 0.0
C2018 C 0.92571 0.64825 0.60215 0.0
C2019 C 0.91961 0.65641 0.59554 0.0
C2020 C 0.92333 0.66926 0.6058 0.0
C2021 C 0.93289 0.67387 0.62219 0.0
C2022 C 0.88883 0.65022 0.56054 0.0
C2023 C 0.89178 0.64465 0.54297 0.0
C2024 C 0.89765 0.65372 0.57773 0.0
C2025 C 0.90968 0.65181 0.57774 0.0
C2026 C 0.91246 0.64599 0.56029 0.0
C2027 C 0.90362 0.64245 0.54313 0.0
H2028 H 0.93939 0.65252 0.74447 0.0
H2029 H 0.95884 0.69722 0.72805 0.0
H2030 H 0.92746 0.65629 0.7734 0.0
H2031 H 0.94608 0.70092 0.75601 0.0
H2032 H 0.93242 0.70699 0.81869 0.0
H2033 H 0.94472 0.70336 0.79037 0.0
H2034 H 0.90919 0.65972 0.78399 0.0
H2035 H 0.89773 0.66282 0.81379 0.0
C2036 C 0.94096 0.66313 0.74697 0.0
C2037 C 0.95007 0.67458 0.73413 0.0
C2038 C 0.934 0.66531 0.76346 0.0
C2039 C 0.93565 0.67893 0.76718 0.0
C2040 C 0.94472 0.69035 0.75406 0.0
C2041 C 0.95198 0.68823 0.7379 0.0
C2042 C 0.92731 0.69651 0.81155 0.0
C2043 C 0.91407 0.68519 0.81888 0.0
C2044 C 0.93429 0.6945 0.79491 0.0
C2045 C 0.92806 0.6812 0.78471 0.0
C2046 C 0.91458 0.67003 0.79162 0.0
C2047 C 0.90779 0.67193 0.80858 0.0
H2048 H 0.30554 0.26989 0.73594 0.0
H2049 H 0.35005 0.28089 0.7297 0.0
H2050 H 0.3028 0.25504 0.76549 0.0
H2051 H 0.34743 0.26632 0.75956 0.0
H2052 H 0.33319 0.22723 0.80106 0.0
H2053 H 0.3358 0.24162 0.77091 0.0
H2054 H 0.31046 0.25738 0.80043 0.0
H2055 H 0.30778 0.24295 0.83038 0.0
C2056 C 0.31476 0.2692 0.74095 0.0
C2057 C 0.32801 0.27657 0.73049 0.0
C2058 C 0.31322 0.26074 0.75796 0.0
C2059 C 0.3249 0.25949 0.76494 0.0
C2060 C 0.33816 0.26688 0.75444 0.0
C2061 C 0.33968 0.27531 0.7374 0.0
C2062 C 0.32824 0.23382 0.80111 0.0
C2063 C 0.32021 0.23387 0.81806 0.0
C2064 C 0.32975 0.24209 0.78386 0.0
C2065 C 0.3233 0.25063 0.78321 0.0
C2066 C 0.31533 0.25072 0.80023 0.0
C2067 C 0.3138 0.24244 0.81742 0.0
H2068 H 0.71287 0.04166 0.73736 0.0
H2069 H 0.7337 0.0824 0.70584 0.0
H2070 H 0.72718 0.05337 0.76774 0.0
H2071 H 0.74838 0.09397 0.7357 0.0
H2072 H 0.75655 0.11326 0.79908 0.0
H2073 H 0.74453 0.10097 0.76797 0.0
H2074 H 0.75039 0.06544 0.78393 0.0
H2075 H 0.76173 0.07746 0.81589 0.0
C2076 C 0.72069 0.05306 0.73681 0.0
C2077 C 0.72201 0.06115 0.71933 0.0
C2078 C 0.72895 0.05977 0.75418 0.0
C2079 C 0.73881 0.07468 0.75431 0.0
C2080 C 0.74062 0.08256 0.73638 0.0
C2081 C 0.73225 0.07591 0.7192 0.0
C2082 C 0.75519 0.10277 0.79609 0.0
C2083 C 0.75999 0.0963 0.81013 0.0
C2084 C 0.74847 0.09579 0.77803 0.0
C2085 C 0.74651 0.0822 0.77331 0.0
C2086 C 0.75158 0.07583 0.78714 0.0
C2087 C 0.75825 0.0828 0.80536 0.0
H2088 H 0.02573 0.34532 0.06411 0.0
H2089 H 0.04444 0.3586 0.00399 0.0
H2090 H 0.04588 0.3424 0.07427 0.0
H2091 H 0.06458 0.35526 0.01416 0.0
H2092 H 0.08271 0.325 0.04169 0.0
H2093 H 0.06574 0.33157 0.02744 0.0
H2094 H 0.07443 0.36069 0.07767 0.0
H2095 H 0.09146 0.35431 0.09177 0.0
C2096 C 0.03412 0.34755 0.05302 0.0
C2097 C 0.0335 0.35218 0.03324 0.0
C2098 C 0.0457 0.34597 0.0589 0.0
C2099 C 0.0568 0.3487 0.04503 0.0
C2100 C 0.05614 0.35313 0.02512 0.0
C2101 C 0.04466 0.35504 0.01934 0.0
C2102 C 0.08123 0.33305 0.04939 0.0
C2103 C 0.0884 0.33915 0.06783 0.0
C2104 C 0.07158 0.33683 0.04121 0.0
C2105 C 0.06875 0.34656 0.05156 0.0
C2106 C 0.07641 0.35313 0.06946 0.0
C2107 C 0.08623 0.34956 0.07743 0.0
H2108 H 0.62469 0.69051 0.01987 0.0
H2109 H 0.65644 0.68348 0.04937 0.0
H2110 H 0.63589 0.71452 0.03442 0.0
H2111 H 0.66719 0.70715 0.06495 0.0
H2112 H 0.691 0.75411 0.07895 0.0
H2113 H 0.68099 0.7318 0.05999 0.0
H2114 H 0.6385 0.7268 0.06456 0.0
H2115 H 0.64872 0.74976 0.08181 0.0
C2116 C 0.634 0.69407 0.02964 0.0
C2117 C 0.63967 0.6851 0.03351 0.0
C2118 C 0.6404 0.70783 0.03811 0.0
C2119 C 0.65246 0.71287 0.051 0.0
C2120 C 0.65811 0.70384 0.0548 0.0
C2121 C 0.65188 0.69018 0.046 0.0
C2122 C 0.67958 0.74849 0.07545 0.0
C2123 C 0.6707 0.75381 0.08208 0.0
C2124 C 0.67377 0.73548 0.06487 0.0
C2125 C 0.65886 0.72728 0.0609 0.0
C2126 C 0.65004 0.73279 0.06709 0.0
C2127 C 0.6559 0.74592 0.07735 0.0
H2128 H 0.31048 0.97375 0.0277 0.0
H2129 H 0.319 0.93869 0.02814 0.0
H2130 H 0.28626 0.95769 0.04137 0.0
H2131 H 0.29524 0.92294 0.0423 0.0
H2132 H 0.2488 0.89349 0.05337 0.0
H2133 H 0.27041 0.91041 0.03448 0.0
H2134 H 0.2742 0.94514 0.07201 0.0
H2135 H 0.25219 0.92818 0.09029 0.0
C2136 C 0.30721 0.96265 0.03075 0.0
C2137 C 0.31668 0.95751 0.02677 0.0
C2138 C 0.29335 0.95346 0.03864 0.0
C2139 C 0.2887 0.93895 0.04279 0.0
C2140 C 0.29824 0.93391 0.03883 0.0
C2141 C 0.31198 0.94302 0.03085 0.0
C2142 C 0.25413 0.90479 0.05727 0.0
C2143 C 0.24892 0.90954 0.07332 0.0
C2144 C 0.26658 0.91449 0.0466 0.0
C2145 C 0.27426 0.92913 0.05199 0.0
C2146 C 0.26855 0.93398 0.06734 0.0
C2147 C 0.25595 0.92428 0.07784 0.0
H2148 H 0.32486 0.01798 0.98401 0.0
H2149 H 0.36721 0.05242 0.00117 0.0
H2150 H 0.31833 0.0355 0.9732 0.0
H2151 H 0.36063 0.07003 0.99027 0.0
H2152 H 0.34815 0.09216 0.93839 0.0
H2153 H 0.35548 0.07709 0.95611 0.0
H2154 H 0.31403 0.05476 0.98643 0.0
H2155 H 0.30675 0.07004 0.96904 0.0
C2156 C 0.33273 0.0293 0.98568 0.0
C2157 C 0.34657 0.03381 0.99336 0.0
C2158 C 0.32894 0.03934 0.97961 0.0
C2159 C 0.33896 0.05414 0.98089 0.0
C2160 C 0.35272 0.05869 0.989 0.0
C2161 C 0.35645 0.04861 0.99532 0.0
C2162 C 0.34073 0.08433 0.94926 0.0
C2163 C 0.32679 0.08224 0.95211 0.0
C2164 C 0.34493 0.07566 0.95939 0.0
C2165 C 0.33527 0.06464 0.9725 0.0
C2166 C 0.32162 0.06301 0.97615 0.0
C2167 C 0.31745 0.07175 0.96615 0.0
H2168 H 0.97517 0.31195 0.99147 0.0
H2169 H 0.93477 0.30956 0.00652 0.0
H2170 H 0.96186 0.28814 0.97582 0.0
H2171 H 0.92159 0.28581 0.99123 0.0
H2172 H 0.90474 0.25415 0.93783 0.0
H2173 H 0.91787 0.27658 0.95647 0.0
H2174 H 0.94512 0.26221 0.98292 0.0
H2175 H 0.93179 0.23951 0.96431 0.0
C2176 C 0.96347 0.30631 0.99163 0.0
C2177 C 0.95606 0.31275 9e-05 0.0
C2178 C 0.95585 0.29264 0.98276 0.0
C2179 C 0.94067 0.28514 0.98213 0.0
C2180 C 0.93328 0.29141 0.99114 0.0
C2181 C 0.94087 0.30502 -0.0 0.0
C2182 C 0.91332 0.25559 0.94792 0.0
C2183 C 0.91709 0.24492 0.94969 0.0
C2184 C 0.9209 0.26851 0.95858 0.0
C2185 C 0.93251 0.27117 0.97127 0.0
C2186 C 0.93631 0.26053 0.97312 0.0
C2187 C 0.92867 0.24753 0.96247 0.0
H2188 H 0.68393 0.67141 0.97136 0.0
H2189 H 0.68365 0.63913 0.01047 0.0
H2190 H 0.70795 0.67818 0.95945 0.0
H2191 H 0.7081 0.64626 -0.00106 0.0
H2192 H 0.74387 0.65179 0.95291 0.0
H2193 H 0.72088 0.6452 0.96922 0.0
H2194 H 0.73246 0.6898 0.9694 0.0
H2195 H 0.75485 0.69624 0.95193 0.0
C2196 C 0.68908 0.66586 0.97763 0.0
C2197 C 0.68186 0.65473 0.99187 0.0
C2198 C 0.70295 0.66983 0.9709 0.0
C2199 C 0.71007 0.66286 0.97833 0.0
C2200 C 0.7029 0.65178 0.99276 0.0
C2201 C 0.68893 0.64775 -0.00055 0.0
C2202 C 0.74151 0.66019 0.95639 0.0
C2203 C 0.75124 0.67454 0.95083 0.0
C2204 C 0.72838 0.65643 0.966 0.0
C2205 C 0.72469 0.66694 0.97039 0.0
C2206 C 0.73477 0.68136 0.96586 0.0
C2207 C 0.74779 0.6851 0.95611 0.0
H2208 H 0.96288 0.65455 0.00403 0.0
H2209 H 0.92974 0.61196 0.98598 0.0
H2210 H 0.94889 0.66444 0.98987 0.0
H2211 H 0.91603 0.62189 0.97072 0.0
H2212 H 0.88935 0.64275 0.95678 0.0
H2213 H 0.9019 0.63261 0.97517 0.0
H2214 H 0.94291 0.66968 0.95845 0.0
H2215 H 0.93033 0.67993 0.94108 0.0
C2216 C 0.95261 0.64731 -0.00308 0.0
C2217 C 0.94746 0.63249 -0.00398 0.0
C2218 C 0.9446 0.65298 0.98864 0.0
C2219 C 0.93136 0.64403 0.97883 0.0
C2220 C 0.92607 0.62913 0.97834 0.0
C2221 C 0.93397 0.62342 0.98699 0.0
C2222 C 0.90104 0.64871 0.95725 0.0
C2223 C 0.90887 0.66218 0.94772 0.0
C2224 C 0.90827 0.64289 0.96766 0.0
C2225 C 0.92348 0.65032 0.96845 0.0
C2226 C 0.93122 0.66377 0.95873 0.0
C2227 C 0.92401 0.66965 0.94866 0.0
H2228 H 0.37346 0.32098 8e-05 0.0
H2229 H 0.32937 0.31006 0.98953 0.0
H2230 H 0.36762 0.29715 0.98794 0.0
H2231 H 0.32352 0.28623 0.97777 0.0
H2232 H 0.31619 0.24062 0.97272 0.0
H2233 H 0.3228 0.26293 0.99073 0.0
H2234 H 0.35999 0.28588 0.95152 0.0
H2235 H 0.35312 0.2639 0.93279 0.0
C2236 C 0.36248 0.31341 0.99552 0.0
C2237 C 0.35189 0.31739 0.99563 0.0
C2238 C 0.35916 0.29982 0.98852 0.0
C2239 C 0.34513 0.28989 0.98193 0.0
C2240 C 0.33439 0.29364 0.98293 0.0
C2241 C 0.33777 0.30731 0.98955 0.0
C2242 C 0.32576 0.2504 0.96785 0.0
C2243 C 0.33402 0.25037 0.9511 0.0
C2244 C 0.32957 0.26315 0.97829 0.0
C2245 C 0.34189 0.27609 0.97249 0.0
C2246 C 0.35054 0.276 0.95646 0.0
C2247 C 0.3466 0.26333 0.94579 0.0
H2248 H 0.68311 0.02179 0.99022 0.0
H2249 H 0.6789 0.05878 0.00307 0.0
H2250 H 0.70686 0.03749 0.97507 0.0
H2251 H 0.70237 0.07434 0.9876 0.0
H2252 H 0.74935 0.10086 0.97183 0.0
H2253 H 0.72799 0.08413 0.99143 0.0
H2254 H 0.71663 0.05197 0.94459 0.0
H2255 H 0.738 0.06862 0.92514 0.0
C2256 C 0.68725 0.03325 0.98988 0.0
C2257 C 0.67904 0.039 -0.0022 0.0
C2258 C 0.70084 0.04225 0.98112 0.0
C2259 C 0.70654 0.05719 0.9801 0.0
C2260 C 0.69844 0.06292 0.9884 0.0
C2261 C 0.68489 0.05396 -0.00286 0.0
C2262 C 0.74236 0.09016 0.96583 0.0
C2263 C 0.74534 0.08611 0.94687 0.0
C2264 C 0.73009 0.08059 0.97703 0.0
C2265 C 0.72049 0.06674 0.96949 0.0
C2266 C 0.72385 0.06248 0.95098 0.0
C2267 C 0.73613 0.07204 0.93981 0.0
H2268 H 0.66812 0.97914 0.05098 0.0
H2269 H 0.63493 0.94604 0.01344 0.0
H2270 H 0.67556 0.96247 0.06205 0.0
H2271 H 0.64266 0.92927 0.02425 0.0
H2272 H 0.64999 0.90049 0.07068 0.0
H2273 H 0.64256 0.9161 0.05466 0.0
H2274 H 0.68721 0.94994 0.05041 0.0
H2275 H 0.69456 0.93481 0.06741 0.0
C2276 C 0.6625 0.96832 0.04487 0.0
C2277 C 0.65093 0.96393 0.03131 0.0
C2278 C 0.66685 0.95876 0.05113 0.0
C2279 C 0.65978 0.94452 0.04395 0.0
C2280 C 0.64827 0.94013 0.03019 0.0
C2281 C 0.6439 0.94975 0.0239 0.0
C2282 C 0.65823 0.91126 0.06631 0.0
C2283 C 0.67289 0.91636 0.07057 0.0
C2284 C 0.65397 0.92016 0.05689 0.0
C2285 C 0.66427 0.93436 0.05148 0.0
C2286 C 0.67896 0.93916 0.05472 0.0
C2287 C 0.68319 0.93034 0.06422 0.0
H2288 H 0.00851 0.68089 0.04959 0.0
H2289 H 0.0399 0.68059 0.00847 0.0
H2290 H 0.02615 0.70506 0.06037 0.0
H2291 H 0.0576 0.70509 0.01898 0.0
H2292 H 0.08901 0.74034 0.06465 0.0
H2293 H 0.07195 0.71747 0.04883 0.0
H2294 H 0.03931 0.7296 0.04948 0.0
H2295 H 0.05604 0.75204 0.06623 0.0
C2296 C 0.01915 0.68606 0.04265 0.0
C2297 C 0.02281 0.67879 0.02821 0.0
C2298 C 0.02926 0.7 0.04873 0.0
C2299 C 0.04331 0.70707 0.0405 0.0
C2300 C 0.04692 0.6999 0.02576 0.0
C2301 C 0.03676 0.6859 0.01966 0.0
C2302 C 0.0782 0.73813 0.06139 0.0
C2303 C 0.0739 0.74802 0.06693 0.0
C2304 C 0.06846 0.72508 0.05209 0.0
C2305 C 0.0542 0.72161 0.04807 0.0
C2306 C 0.05014 0.7318 0.05268 0.0
C2307 C 0.05983 0.7448 0.06204 0.0
H2308 H 0.31872 0.37961 0.02891 0.0
H2309 H 0.31647 0.33851 0.03124 0.0
H2310 H 0.29467 0.36881 0.044 0.0
H2311 H 0.2923 0.32767 0.04588 0.0
H2312 H 0.24628 0.34244 0.05621 0.0
H2313 H 0.26922 0.35203 0.03793 0.0
H2314 H 0.28153 0.32832 0.07791 0.0
H2315 H 0.25868 0.31875 0.09602 0.0
C2316 C 0.31305 0.36825 0.03245 0.0
C2317 C 0.31958 0.35996 0.02899 0.0
C2318 C 0.29921 0.36203 0.04099 0.0
C2319 C 0.29157 0.34737 0.04622 0.0
C2320 C 0.29798 0.33903 0.04233 0.0
C2321 C 0.31182 0.34525 0.03385 0.0
C2322 C 0.25388 0.33926 0.06103 0.0
C2323 C 0.25063 0.3298 0.07754 0.0
C2324 C 0.26704 0.34477 0.05059 0.0
C2325 C 0.27723 0.34096 0.05647 0.0
C2326 C 0.27384 0.3313 0.07274 0.0
C2327 C 0.26071 0.32579 0.08313 0.0
H2328 H 0.71212 0.69455 0.34689 0.0
H2329 H 0.68075 0.66409 0.38941 0.0
H2330 H 0.72924 0.68706 0.35702 0.0
H2331 H 0.69783 0.65697 0.39991 0.0
H2332 H 0.72501 0.63714 0.40369 0.0
H2333 H 0.70908 0.64421 0.38844 0.0
H2334 H 0.74423 0.68819 0.38525 0.0
H2335 H 0.76055 0.68092 0.39933 0.0
C2336 C 0.70889 0.68628 0.3584 0.0
C2337 C 0.69505 0.67988 0.36728 0.0
C2338 C 0.71872 0.68204 0.36428 0.0
C2339 C 0.71491 0.67133 0.37919 0.0
C2340 C 0.70106 0.66501 0.38805 0.0
C2341 C 0.69127 0.66918 0.38213 0.0
C2342 C 0.72954 0.64826 0.39923 0.0
C2343 C 0.74415 0.65844 0.40287 0.0
C2344 C 0.72028 0.65237 0.39077 0.0
C2345 C 0.72527 0.66683 0.38594 0.0
C2346 C 0.74 0.67695 0.38874 0.0
C2347 C 0.74934 0.6728 0.39707 0.0
H2348 H 0.28679 0.01951 0.35128 0.0
H2349 H 0.32068 0.01441 0.37764 0.0
H2350 H 0.29811 0.04389 0.36459 0.0
H2351 H 0.33162 0.03847 0.39194 0.0
H2352 H 0.35467 0.08564 0.40411 0.0
H2353 H 0.34448 0.06307 0.38578 0.0
H2354 H 0.30166 0.05658 0.39476 0.0
H2355 H 0.31197 0.07976 0.41148 0.0
C2356 C 0.29664 0.02359 0.36003 0.0
C2357 C 0.30282 0.01502 0.36344 0.0
C2358 C 0.30309 0.03756 0.3678 0.0
C2359 C 0.31578 0.04324 0.37951 0.0
C2360 C 0.32203 0.03466 0.38271 0.0
C2361 C 0.3157 0.02078 0.37462 0.0
C2362 C 0.34311 0.07963 0.40171 0.0
C2363 C 0.33418 0.08461 0.40942 0.0
C2364 C 0.33721 0.06648 0.39148 0.0
C2365 C 0.32218 0.0578 0.38894 0.0
C2366 C 0.31328 0.06295 0.39619 0.0
C2367 C 0.31921 0.07621 0.40613 0.0
H2368 H 0.98022 0.30718 0.35986 0.0
H2369 H 0.98636 0.27061 0.35779 0.0
H2370 H 0.95575 0.29175 0.37318 0.0
H2371 H 0.96231 0.25544 0.37146 0.0
H2372 H 0.91548 0.22777 0.38187 0.0
H2373 H 0.93735 0.24445 0.36322 0.0
H2374 H 0.94367 0.2787 0.40393 0.0
H2375 H 0.92152 0.26204 0.42215 0.0
C2376 C 0.97637 0.29589 0.36225 0.0
C2377 C 0.98526 0.29015 0.35774 0.0
C2378 C 0.96237 0.28705 0.36993 0.0
C2379 C 0.95699 0.27231 0.37324 0.0
C2380 C 0.96592 0.26664 0.36866 0.0
C2381 C 0.97982 0.27541 0.36097 0.0
C2382 C 0.92143 0.23893 0.38656 0.0
C2383 C 0.9169 0.2436 0.40352 0.0
C2384 C 0.934 0.24847 0.37598 0.0
C2385 C 0.94244 0.26286 0.38232 0.0
C2386 C 0.93741 0.26772 0.39855 0.0
C2387 C 0.92472 0.25819 0.409 0.0
H2388 H 0.03973 0.38496 0.33155 0.0
H2389 H -0.00394 0.35253 0.3161 0.0
H2390 H 0.03468 0.40373 0.32118 0.0
H2391 H 0.99101 0.37127 0.30591 0.0
H2392 H 0.98339 0.40893 0.30418 0.0
H2393 H 0.98923 0.3922 0.32043 0.0
H2394 H 0.02931 0.41083 0.28668 0.0
H2395 H 0.02334 0.42724 0.2699 0.0
C2396 C 0.02901 0.38185 0.32619 0.0
C2397 C 0.01831 0.36727 0.32454 0.0
C2398 C 0.02615 0.39259 0.32019 0.0
C2399 C 0.01246 0.38895 0.31274 0.0
C2400 C 0.00162 0.3744 0.31179 0.0
C2401 C 0.00454 0.36367 0.31751 0.0
C2402 C 0.99347 0.4095 0.30022 0.0
C2403 C 0.00281 0.41937 0.28552 0.0
C2404 C -0.00318 0.39994 0.3096 0.0
C2405 C 0.00967 0.40016 0.30471 0.0
C2406 C 0.01938 0.41051 0.29089 0.0
C2407 C 0.01597 0.41996 0.28132 0.0
H2408 H 0.60243 0.65079 0.31952 0.0
H2409 H 0.63858 0.64462 0.33029 0.0
H2410 H 0.58919 0.62712 0.30392 0.0
H2411 H 0.62512 0.62069 0.31542 0.0
H2412 H 0.60386 0.58615 0.26614 0.0
H2413 H 0.61697 0.60912 0.28368 0.0
H2414 H 0.57694 0.60211 0.31012 0.0
H2415 H 0.5638 0.57927 0.29197 0.0
C2416 C 0.6075 0.64432 0.31875 0.0
C2417 C 0.6216 0.64964 0.32607 0.0
C2418 C 0.59986 0.63067 0.30992 0.0
C2419 C 0.60604 0.62192 0.30838 0.0
C2420 C 0.62008 0.62719 0.316 0.0
C2421 C 0.62779 0.64091 0.32463 0.0
C2422 C 0.59789 0.58944 0.27593 0.0
C2423 C 0.5828 0.5809 0.27771 0.0
C2424 C 0.60541 0.60262 0.28604 0.0
C2425 C 0.59805 0.60755 0.29835 0.0
C2426 C 0.58296 0.59882 0.30049 0.0
C2427 C 0.57542 0.58569 0.29018 0.0
H2428 H 0.33863 0.98483 0.29179 0.0
H2429 H 0.34786 0.97401 0.35103 0.0
H2430 H 0.36184 0.98904 0.27909 0.0
H2431 H 0.37138 0.97859 0.33827 0.0
H2432 H 0.41853 0.00847 0.30675 0.0
H2433 H 0.39531 0.0022 0.32269 0.0
H2434 H 0.37281 0.9719 0.2743 0.0
H2435 H 0.39588 0.97798 0.25854 0.0
C2436 C 0.34565 0.98343 0.30213 0.0
C2437 C 0.34143 0.97908 0.3224 0.0
C2438 C 0.35889 0.98576 0.29482 0.0
C2439 C 0.36832 0.98406 0.3077 0.0
C2440 C 0.36427 0.97997 0.32808 0.0
C2441 C 0.35084 0.97732 0.33532 0.0
C2442 C 0.4086 0.0003 0.29975 0.0
C2443 C 0.40898 0.99369 0.28145 0.0
C2444 C 0.39537 0.99669 0.30889 0.0
C2445 C 0.38233 0.98663 0.29962 0.0
C2446 C 0.38273 0.97973 0.28167 0.0
C2447 C 0.39592 0.98313 0.27276 0.0
H2448 H 0.63241 0.98572 0.32932 0.0
H2449 H 0.59769 0.94146 0.32827 0.0
H2450 H 0.61591 0.99326 0.31664 0.0
H2451 H 0.58145 0.94889 0.31509 0.0
H2452 H 0.55155 0.96512 0.30407 0.0
H2453 H 0.56847 0.96069 0.32285 0.0
H2454 H 0.6036 0.99236 0.28583 0.0
H2455 H 0.58669 -0.00296 0.26754 0.0
C2456 C 0.62127 0.97761 0.32642 0.0
C2457 C 0.6164 0.96298 0.32978 0.0
C2458 C 0.61183 0.98192 0.31907 0.0
C2459 C 0.59731 0.9717 0.31486 0.0
C2460 C 0.59245 0.95712 0.31853 0.0
C2461 C 0.60183 0.95283 0.32594 0.0
C2462 C 0.56293 0.97127 0.30021 0.0
C2463 C 0.5678 0.98135 0.28428 0.0
C2464 C 0.57262 0.96869 0.31086 0.0
C2465 C 0.58739 0.97599 0.30565 0.0
C2466 C 0.59235 0.98662 0.29041 0.0
C2467 C 0.58266 0.98931 0.2799 0.0
H2468 H 0.04111 0.66143 0.33456 0.0
H2469 H -0.00184 0.64733 0.31225 0.0
H2470 H 0.03911 0.63905 0.32261 0.0
H2471 H -0.00384 0.6249 0.30042 0.0
H2472 H 0.99436 0.58124 0.2969 0.0
H2473 H -0.00426 0.60217 0.3136 0.0
H2474 H 0.03777 0.62937 0.28671 0.0
H2475 H 0.03625 0.60878 0.26936 0.0
C2476 C 0.03118 0.65349 0.32732 0.0
C2477 C 0.01983 0.65619 0.32422 0.0
C2478 C 0.03006 0.6407 0.32044 0.0
C2479 C 0.0175 0.63027 0.31054 0.0
C2480 C 0.00593 0.63271 0.30814 0.0
C2481 C 0.00711 0.64559 0.3148 0.0
C2482 C 0.00389 0.59168 0.29446 0.0
C2483 C 0.01519 0.59323 0.28171 0.0
C2484 C 0.00468 0.60364 0.30411 0.0
C2485 C 0.01688 0.61737 0.30148 0.0
C2486 C 0.02833 0.61888 0.28927 0.0
C2487 C 0.02746 0.607 0.2794 0.0
H2488 H 0.35355 0.35533 0.33554 0.0
H2489 H 0.34672 0.39094 0.3253 0.0
H2490 H 0.37779 0.36926 0.32128 0.0
H2491 H 0.37065 0.40464 0.31011 0.0
H2492 H 0.41853 0.43072 0.29732 0.0
H2493 H 0.39561 0.41726 0.31563 0.0
H2494 H 0.38988 0.37769 0.29025 0.0
H2495 H 0.41301 0.39114 0.27278 0.0
C2496 C 0.3572 0.36612 0.33013 0.0
C2497 C 0.34819 0.37201 0.33152 0.0
C2498 C 0.3711 0.3741 0.32182 0.0
C2499 C 0.37626 0.38811 0.31438 0.0
C2500 C 0.36723 0.39402 0.31597 0.0
C2501 C 0.35342 0.38611 0.32456 0.0
C2502 C 0.41238 0.41913 0.29586 0.0
C2503 C 0.41757 0.41197 0.28372 0.0
C2504 C 0.39919 0.4114 0.30623 0.0
C2505 C 0.39076 0.39633 0.30441 0.0
C2506 C 0.39612 0.38921 0.29241 0.0
C2507 C 0.40939 0.39693 0.28231 0.0
H2508 H 0.30087 0.27995 0.34856 0.0
H2509 H 0.33381 0.31224 0.38731 0.0
H2510 H 0.30826 0.26282 0.359 0.0
H2511 H 0.34092 0.29523 0.39793 0.0
H2512 H 0.36015 0.26755 0.4007 0.0
H2513 H 0.35269 0.28298 0.38493 0.0
H2514 H 0.30806 0.24912 0.38923 0.0
H2515 H 0.3156 0.23323 0.40412 0.0
C2516 C 0.30969 0.2834 0.35924 0.0
C2517 C 0.31679 0.29748 0.36705 0.0
C2518 C 0.31386 0.27357 0.3653 0.0
C2519 C 0.32526 0.27767 0.37918 0.0
C2520 C 0.33231 0.29177 0.38689 0.0
C2521 C 0.32815 0.30152 0.3809 0.0
C2522 C 0.34876 0.26316 0.3978 0.0
C2523 C 0.3385 0.24907 0.40379 0.0
C2524 C 0.34446 0.27214 0.38901 0.0
C2525 C 0.32975 0.26739 0.38612 0.0
C2526 C 0.31948 0.25312 0.39121 0.0
C2527 C 0.3238 0.24406 0.39996 0.0
H2528 H 0.686 0.00885 0.39462 0.0
H2529 H 0.70353 0.01746 0.33344 0.0
H2530 H 0.70438 0.03305 0.40495 0.0
H2531 H 0.72178 0.04195 0.34382 0.0
H2532 H 0.73704 0.08911 0.37413 0.0
H2533 H 0.72028 0.06522 0.36002 0.0
H2534 H 0.73371 0.04581 0.40575 0.0
H2535 H 0.75055 0.06954 0.41961 0.0
C2536 C 0.6937 0.01595 0.38333 0.0
C2537 C 0.69335 0.01126 0.36323 0.0
C2538 C 0.70424 0.02976 0.38929 0.0
C2539 C 0.71448 0.03927 0.37517 0.0
C2540 C 0.71397 0.03477 0.35493 0.0
C2541 C 0.70358 0.02079 0.34905 0.0
C2542 C 0.73657 0.07974 0.38088 0.0
C2543 C 0.74512 0.08116 0.39789 0.0
C2544 C 0.72704 0.06613 0.3728 0.0
C2545 C 0.72572 0.05376 0.38191 0.0
C2546 C 0.73455 0.05522 0.39853 0.0
C2547 C 0.74424 0.06879 0.40634 0.0
H2548 H 0.97657 0.671 0.35963 0.0
H2549 H 0.9815 0.7121 0.37558 0.0
H2550 H 0.95212 0.65889 0.3737 0.0
H2551 H 0.95743 0.70007 0.39034 0.0
H2552 H 0.90957 0.67643 0.40035 0.0
H2553 H 0.9327 0.68715 0.38245 0.0
H2554 H 0.93927 0.65328 0.40494 0.0
H2555 H 0.9159 0.64235 0.42215 0.0
C2556 C 0.97247 0.67744 0.36626 0.0
C2557 C 0.98098 0.69252 0.36644 0.0
C2558 C 0.95847 0.67051 0.37441 0.0
C2559 C 0.95272 0.67848 0.38312 0.0
C2560 C 0.96131 0.69356 0.38337 0.0
C2561 C 0.97521 0.70048 0.37503 0.0
C2562 C 0.91594 0.67124 0.40127 0.0
C2563 C 0.91098 0.65859 0.41264 0.0
C2564 C 0.92923 0.67742 0.39113 0.0
C2565 C 0.93799 0.6712 0.39241 0.0
C2566 C 0.93279 0.6583 0.40337 0.0
C2567 C 0.9194 0.65203 0.41328 0.0
H2568 H 0.38011 0.03052 0.67959 0.0
H2569 H 0.35014 0.00256 0.72557 0.0
H2570 H 0.39771 0.02391 0.69069 0.0
H2571 H 0.36772 0.99631 0.73697 0.0
H2572 H 0.39502 0.97656 0.74191 0.0
H2573 H 0.3786 0.98291 0.72648 0.0
H2574 H 0.41358 0.02661 0.71876 0.0
H2575 H 0.43037 0.02003 0.73312 0.0
C2576 C 0.3773 0.02301 0.6921 0.0
C2577 C 0.3637 0.01701 0.70163 0.0
C2578 C 0.3874 0.01928 0.69852 0.0
C2579 C 0.38411 0.00947 0.71462 0.0
C2580 C 0.37054 0.00363 0.72422 0.0
C2581 C 0.36047 0.0073 0.71777 0.0
C2582 C 0.39939 0.98745 0.73643 0.0
C2583 C 0.41411 -0.00223 0.73885 0.0
C2584 C 0.38986 0.99116 0.72787 0.0
C2585 C 0.39468 0.00534 0.72169 0.0
C2586 C 0.40948 0.01558 0.72332 0.0
C2587 C 0.41909 0.01183 0.73178 0.0
H2588 H 0.98752 0.35092 0.70062 0.0
H2589 H 0.94346 0.34169 0.69668 0.0
H2590 H 0.99461 0.37416 0.71605 0.0
H2591 H 0.95045 0.36466 0.7125 0.0
H2592 H 0.96855 0.41148 0.72648 0.0
H2593 H 0.96376 0.39016 0.70716 0.0
H2594 H 0.9915 0.38365 0.74777 0.0
H2595 H -0.0036 0.40502 0.76687 0.0
C2596 C 0.97934 0.35383 0.70303 0.0
C2597 C 0.96491 0.3444 0.69743 0.0
C2598 C 0.9834 0.36714 0.71196 0.0
C2599 C 0.97311 0.37131 0.71552 0.0
C2600 C 0.95872 0.36193 0.70968 0.0
C2601 C 0.95468 0.34868 0.70074 0.0
C2602 C 0.97369 0.40553 0.73118 0.0
C2603 C 0.98281 0.40992 0.74824 0.0
C2604 C 0.97092 0.39329 0.72015 0.0
C2605 C 0.97714 0.3851 0.726 0.0
C2606 C 0.98666 0.38979 0.74266 0.0
C2607 C 0.98948 0.40205 0.75362 0.0
H2608 H 0.64641 0.63922 0.70072 0.0
H2609 H 0.64817 0.60016 0.69685 0.0
H2610 H 0.62219 0.62566 0.71549 0.0
H2611 H 0.62398 0.58667 0.71124 0.0
H2612 H 0.57354 0.5938 0.72407 0.0
H2613 H 0.59708 0.60698 0.70714 0.0
H2614 H 0.61266 0.58473 0.7443 0.0
H2615 H 0.58933 0.57171 0.76125 0.0
C2616 C 0.64163 0.62775 0.70292 0.0
C2617 C 0.64929 0.62081 0.69772 0.0
C2618 C 0.62771 0.61997 0.71124 0.0
C2619 C 0.62119 0.60509 0.71459 0.0
C2620 C 0.62878 0.59815 0.70912 0.0
C2621 C 0.64265 0.6059 0.70079 0.0
C2622 C 0.582 0.59173 0.7286 0.0
C2623 C 0.57951 0.58162 0.74394 0.0
C2624 C 0.59548 0.59929 0.71893 0.0
C2625 C 0.60673 0.59688 0.72436 0.0
C2626 C 0.60416 0.58666 0.73951 0.0
C2627 C 0.59074 0.57915 0.74918 0.0
H2628 H 0.65847 0.6803 0.6615 0.0
H2629 H 0.70354 0.71248 0.65519 0.0
H2630 H 0.65173 0.69775 0.65118 0.0
H2631 H 0.69693 0.72975 0.6435 0.0
H2632 H 0.68221 0.76145 0.63344 0.0
H2633 H 0.68793 0.74476 0.65018 0.0
H2634 H 0.6502 0.70909 0.62257 0.0
H2635 H 0.64419 0.72579 0.60706 0.0
C2636 C 0.66694 0.69113 0.6578 0.0
C2637 C 0.68152 0.69503 0.65905 0.0
C2638 C 0.66309 0.70114 0.65171 0.0
C2639 C 0.67374 0.71522 0.64619 0.0
C2640 C 0.68837 0.71915 0.64789 0.0
C2641 C 0.69221 0.70921 0.65446 0.0
C2642 C 0.67508 0.75001 0.6313 0.0
C2643 C 0.66273 0.74488 0.6191 0.0
C2644 C 0.67839 0.74042 0.64071 0.0
C2645 C 0.66961 0.72548 0.63772 0.0
C2646 C 0.65711 0.72043 0.6257 0.0
C2647 C 0.65366 0.73 0.61668 0.0
H2648 H 0.30706 0.97785 0.66578 0.0
H2649 H 0.27083 0.98288 0.6503 0.0
H2650 H 0.29403 0.95323 0.65305 0.0
H2651 H 0.25808 0.9586 0.63677 0.0
H2652 H 0.23297 0.91076 0.62824 0.0
H2653 H 0.24581 0.93411 0.64512 0.0
H2654 H 0.28636 0.93991 0.62264 0.0
H2655 H 0.27351 0.91638 0.60654 0.0
C2656 C 0.29635 0.97373 0.65953 0.0
C2657 C 0.28999 0.98233 0.65907 0.0
C2658 C 0.28889 0.95962 0.65214 0.0
C2659 C 0.27495 0.95384 0.64386 0.0
C2660 C 0.26864 0.96251 0.64341 0.0
C2661 C 0.27602 0.97652 0.65103 0.0
C2662 C 0.24464 0.91701 0.62713 0.0
C2663 C 0.25224 0.91175 0.61613 0.0
C2664 C 0.25202 0.93043 0.63667 0.0
C2665 C 0.26716 0.93903 0.63514 0.0
C2666 C 0.27475 0.93357 0.62447 0.0
C2667 C 0.26738 0.92007 0.61518 0.0
H2668 H 0.00849 0.29798 0.64559 0.0
H2669 H 0.02423 0.3391 0.67452 0.0
H2670 H 0.03239 0.30577 0.63218 0.0
H2671 H 0.04866 0.34662 0.66317 0.0
H2672 H 0.08703 0.36298 0.62075 0.0
H2673 H 0.06426 0.35487 0.6375 0.0
H2674 H 0.05512 0.31099 0.63387 0.0
H2675 H 0.0768 0.3189 0.61419 0.0
C2676 C 0.01727 0.30859 0.64956 0.0
C2677 C 0.01458 0.31798 0.66096 0.0
C2678 C 0.03111 0.3131 0.64203 0.0
C2679 C 0.04279 0.32697 0.64636 0.0
C2680 C 0.04007 0.33606 0.65877 0.0
C2681 C 0.02607 0.33172 0.66558 0.0
C2682 C 0.08006 0.35154 0.62298 0.0
C2683 C 0.08385 0.34167 0.61534 0.0
C2684 C 0.06697 0.34684 0.63323 0.0
C2685 C 0.05743 0.33213 0.63702 0.0
C2686 C 0.06173 0.32236 0.63073 0.0
C2687 C 0.07455 0.32701 0.61975 0.0
H2688 H 0.27398 0.28261 0.63969 0.0
H2689 H 0.30329 0.32412 0.66575 0.0
H2690 H 0.25882 0.29157 0.62727 0.0
H2691 H 0.2876 0.33302 0.65434 0.0
H2692 H 0.26276 0.34756 0.61277 0.0
H2693 H 0.27883 0.34005 0.6267 0.0
H2694 H 0.24221 0.29768 0.63789 0.0
H2695 H 0.2265 0.30458 0.62206 0.0
C2696 C 0.27709 0.29365 0.64295 0.0
C2697 C 0.28978 0.30264 0.65377 0.0
C2698 C 0.2683 0.29879 0.636 0.0
C2699 C 0.27175 0.31299 0.6401 0.0
C2700 C 0.2846 0.32207 0.65074 0.0
C2701 C 0.29359 0.31697 0.65736 0.0
C2702 C 0.25811 0.33659 0.61799 0.0
C2703 C 0.24322 0.32669 0.61586 0.0
C2704 C 0.26736 0.33233 0.62631 0.0
C2705 C 0.26193 0.31813 0.63308 0.0
C2706 C 0.24694 0.30857 0.63225 0.0
C2707 C 0.23778 0.31269 0.62353 0.0
H2708 H 0.66032 0.97656 0.6476 0.0
H2709 H 0.70378 0.98886 0.66523 0.0
H2710 H 0.65633 0.95342 0.63586 0.0
H2711 H 0.70002 0.96592 0.65277 0.0
H2712 H 0.6866 0.91968 0.63874 0.0
H2713 H 0.68807 0.94037 0.65634 0.0
H2714 H 0.6639 0.94519 0.60759 0.0
H2715 H 0.66223 0.9245 0.59038 0.0
C2716 C 0.66901 0.97428 0.64906 0.0
C2717 C 0.6824 0.98458 0.65719 0.0
C2718 C 0.66676 0.96104 0.6422 0.0
C2719 C 0.67791 0.95783 0.64307 0.0
C2720 C 0.69113 0.96793 0.65201 0.0
C2721 C 0.69333 0.98113 0.65907 0.0
C2722 C 0.68152 0.92512 0.63192 0.0
C2723 C 0.67425 0.9204 0.61321 0.0
C2724 C 0.68239 0.93701 0.64196 0.0
C2725 C 0.6761 0.94449 0.63343 0.0
C2726 C 0.66861 0.93956 0.61489 0.0
C2727 C 0.66766 0.92766 0.60497 0.0
H2728 H 0.01992 0.69388 0.66243 0.0
H2729 H 0.01187 0.72752 0.64377 0.0
H2730 H 0.04421 0.70733 0.64822 0.0
H2731 H 0.03588 0.74068 0.62867 0.0
H2732 H 0.08417 0.76732 0.61822 0.0
H2733 H 0.06072 0.7544 0.63536 0.0
H2734 H 0.05681 0.71403 0.61728 0.0
H2735 H 0.08041 0.72698 0.60099 0.0
C2736 C 0.02329 0.7041 0.65511 0.0
C2737 C 0.01395 0.70962 0.65422 0.0
C2738 C 0.03722 0.7118 0.64685 0.0
C2739 C 0.04209 0.72513 0.63719 0.0
C2740 C 0.03268 0.73061 0.6363 0.0
C2741 C 0.01883 0.723 0.64482 0.0
C2742 C 0.07829 0.75569 0.6181 0.0
C2743 C 0.08414 0.74816 0.60841 0.0
C2744 C 0.06481 0.74825 0.62778 0.0
C2745 C 0.05676 0.73312 0.62771 0.0
C2746 C 0.06274 0.72564 0.61807 0.0
C2747 C 0.07628 0.73307 0.60866 0.0
H2748 H 0.96254 0.61758 0.68553 0.0
H2749 H 0.00421 0.65132 0.70632 0.0
H2750 H 0.96847 0.59957 0.69664 0.0
H2751 H 0.01008 0.63337 0.71747 0.0
H2752 H 0.02083 0.59791 0.7215 0.0
H2753 H 0.0149 0.61446 0.70484 0.0
H2754 H 0.97187 0.59116 0.73032 0.0
H2755 H 0.97781 0.57483 0.74729 0.0
C2756 C 0.97301 0.62116 0.6923 0.0
C2757 C 0.98288 0.63588 0.69514 0.0
C2758 C 0.97637 0.61084 0.69874 0.0
C2759 C 0.98974 0.61504 0.70797 0.0
C2760 C -0.00024 0.62978 0.71021 0.0
C2761 C -0.00365 0.64007 0.70394 0.0
C2762 C 0.01009 0.59628 0.72352 0.0
C2763 C -0.00015 0.58504 0.73588 0.0
C2764 C 0.00669 0.60576 0.71394 0.0
C2765 C 0.99294 0.60416 0.71635 0.0
C2766 C 0.9825 0.59258 0.72796 0.0
C2767 C 0.98592 0.58317 0.73765 0.0
H2768 H 0.35403 0.35665 0.6815 0.0
H2769 H 0.38173 0.34031 0.69856 0.0
H2770 H 0.37273 0.38081 0.69126 0.0
H2771 H 0.39989 0.36397 0.71016 0.0
H2772 H 0.43428 0.40757 0.72348 0.0
H2773 H 0.41755 0.3866 0.7046 0.0
H2774 H 0.3835 0.39578 0.71762 0.0
H2775 H 0.40075 0.41794 0.73385 0.0
C2776 C 0.36414 0.35828 0.68748 0.0
C2777 C 0.36649 0.34668 0.68927 0.0
C2778 C 0.37486 0.37211 0.69329 0.0
C2779 C 0.38798 0.37457 0.70174 0.0
C2780 C 0.39023 0.36282 0.70329 0.0
C2781 C 0.37973 0.34913 0.69682 0.0
C2782 C 0.4234 0.40555 0.72174 0.0
C2783 C 0.419 0.41458 0.73075 0.0
C2784 C 0.41358 0.39314 0.71123 0.0
C2785 C 0.39889 0.389 0.71002 0.0
C2786 C 0.39464 0.39841 0.71807 0.0
C2787 C 0.40459 0.41111 0.72792 0.0
H2788 H 0.64304 0.00514 0.69203 0.0
H2789 H 0.65077 0.04826 0.69949 0.0
H2790 H 0.6197 0.99562 0.7093 0.0
H2791 H 0.62754 0.03872 0.71685 0.0
H2792 H 0.59503 0.01594 0.77026 0.0
H2793 H 0.61743 0.02562 0.75093 0.0
H2794 H 0.59521 0.99448 0.70337 0.0
H2795 H 0.57253 0.98507 0.72224 0.0
C2796 C 0.63976 0.01258 0.69731 0.0
C2797 C 0.64877 0.02746 0.69443 0.0
C2798 C 0.62638 0.00712 0.70708 0.0
C2799 C 0.62186 0.01645 0.71442 0.0
C2800 C 0.63082 0.0313 0.71146 0.0
C2801 C 0.64408 0.03674 0.70144 0.0
C2802 C 0.59476 0.01131 0.75549 0.0
C2803 C 0.58187 -0.00027 0.74782 0.0
C2804 C 0.60766 0.01683 0.74448 0.0
C2805 C 0.60804 0.01078 0.72569 0.0
C2806 C 0.59522 -0.00077 0.71794 0.0
C2807 C 0.58225 0.99383 0.72881 0.0
loop_
_geom_bond_atom_site_label_1
_geom_bond_atom_site_label_2
_geom_bond_distance
_geom_bond_site_symmetry_2
_ccdc_geom_bond_type
C0 O1 1.329 . S
C0 O3 1.154 1_554 S
O1 C0 1.329 . S
O1 Cd2 2.228 . S
Cd2 O1 2.228 . S
Cd2 O6 2.273 . S
Cd2 O10 2.277 1_554 S
O3 C0 1.154 1_556 S
O3 Cd4 2.176 1_656 S
Cd4 O3 2.176 1_454 S
Cd4 O6 2.411 1_455 S
Cd4 O7 2.333 . S
Cd4 O8 2.352 . S
Cd4 O12 2.277 1_554 S
Cd4 O13 2.356 . S
C5 O10 1.209 1_455 S
C5 O12 1.226 . S
O6 Cd2 2.273 . S
O6 Cd4 2.411 1_655 S
O6 C9 1.320 1_655 S
O7 Cd4 2.333 . S
O7 C9 1.214 . S
O8 Cd4 2.352 . S
O8 C11 1.258 . S
C9 O6 1.320 1_455 S
C9 O7 1.214 . S
O10 Cd2 2.277 1_556 S
O10 C5 1.209 1_655 S
C11 O8 1.258 . S
C11 O13 1.282 . S
O12 Cd4 2.277 1_556 S
O12 C5 1.226 . S
O13 Cd4 2.356 . S
O13 C11 1.282 . S
C14 O15 1.306 . S
C14 O17 1.160 . S
O15 C14 1.306 . S
O15 Cd16 2.228 . S
Cd16 O15 2.228 . S
Cd16 O20 2.273 1_554 S
Cd16 O24 2.277 . S
O17 C14 1.160 . S
O17 Cd18 2.203 . S
Cd18 O17 2.203 . S
Cd18 O20 2.411 1_554 S
Cd18 O21 2.333 1_554 S
Cd18 O22 2.352 1_554 S
Cd18 O26 2.277 . S
Cd18 O27 2.356 . S
C19 O24 1.209 . S
C19 O26 1.226 . S
O20 Cd16 2.273 1_556 S
O20 Cd18 2.411 1_556 S
O20 C23 1.320 . S
O21 Cd18 2.333 1_556 S
O21 C23 1.214 . S
O22 Cd18 2.352 1_556 S
O22 C25 1.258 . S
C23 O20 1.320 . S
C23 O21 1.214 . S
O24 Cd16 2.277 . S
O24 C19 1.209 . S
C25 O22 1.258 . S
C25 O27 1.282 1_556 S
O26 Cd18 2.277 . S
O26 C19 1.226 . S
O27 Cd18 2.356 . S
O27 C25 1.282 1_554 S
C28 O29 1.306 . S
C28 O31 1.160 . S
O29 C28 1.306 . S
O29 Cd30 2.228 . S
Cd30 O29 2.228 . S
Cd30 O34 2.273 1_554 S
Cd30 O38 2.277 . S
O31 C28 1.160 . S
O31 Cd32 2.203 1_565 S
Cd32 O31 2.203 1_545 S
Cd32 O34 2.411 1_544 S
Cd32 O35 2.333 1_554 S
Cd32 O36 2.352 1_554 S
Cd32 O40 2.277 . S
Cd32 O41 2.356 . S
C33 O38 1.209 1_545 S
C33 O40 1.226 . S
O34 Cd30 2.273 1_556 S
O34 Cd32 2.411 1_566 S
O34 C37 1.320 1_565 S
O35 Cd32 2.333 1_556 S
O35 C37 1.214 . S
O36 Cd32 2.352 1_556 S
O36 C39 1.259 . S
C37 O34 1.320 1_545 S
C37 O35 1.214 . S
O38 Cd30 2.277 . S
O38 C33 1.209 1_565 S
C39 O36 1.259 . S
C39 O41 1.281 1_556 S
O40 Cd32 2.277 . S
O40 C33 1.226 . S
O41 Cd32 2.356 . S
O41 C39 1.281 1_554 S
C42 O43 1.306 1_556 S
C42 O45 1.160 . S
O43 C42 1.306 1_554 S
O43 Cd44 2.228 . S
Cd44 O43 2.228 . S
Cd44 O48 2.273 . S
Cd44 O52 2.277 1_554 S
O45 C42 1.160 . S
O45 Cd46 2.203 1_656 S
Cd46 O45 2.203 1_454 S
Cd46 O48 2.411 1_455 S
Cd46 O49 2.333 . S
Cd46 O50 2.352 . S
Cd46 O54 2.277 1_554 S
Cd46 O55 2.356 . S
C47 O52 1.209 1_455 S
C47 O54 1.226 . S
O48 Cd44 2.273 . S
O48 Cd46 2.411 1_655 S
O48 C51 1.320 1_655 S
O49 Cd46 2.333 . S
O49 C51 1.214 . S
O50 Cd46 2.352 . S
O50 C53 1.258 . S
C51 O48 1.320 1_455 S
C51 O49 1.214 . S
O52 Cd44 2.277 1_556 S
O52 C47 1.209 1_655 S
C53 O50 1.258 . S
C53 O55 1.282 . S
O54 Cd46 2.277 1_556 S
O54 C47 1.226 . S
O55 Cd46 2.356 . S
O55 C53 1.282 . S
C56 O57 1.306 . S
C56 O59 1.160 . S
O57 C56 1.306 . S
O57 Cd58 2.228 . S
Cd58 O57 2.228 . S
Cd58 O62 2.273 1_554 S
Cd58 O66 2.277 . S
O59 C56 1.160 . S
O59 Cd60 2.203 . S
Cd60 O59 2.203 . S
Cd60 O62 2.411 1_554 S
Cd60 O63 2.333 1_554 S
Cd60 O64 2.352 1_554 S
Cd60 O68 2.277 . S
Cd60 O69 2.356 . S
C61 O66 1.209 . S
C61 O68 1.226 . S
O62 Cd58 2.273 1_556 S
O62 Cd60 2.411 1_556 S
O62 C65 1.320 . S
O63 Cd60 2.333 1_556 S
O63 C65 1.214 . S
O64 Cd60 2.352 1_556 S
O64 C67 1.258 . S
C65 O62 1.320 . S
C65 O63 1.214 . S
O66 Cd58 2.277 . S
O66 C61 1.209 . S
C67 O64 1.258 . S
C67 O69 1.282 1_556 S
O68 Cd60 2.277 . S
O68 C61 1.226 . S
O69 Cd60 2.356 . S
O69 C67 1.282 1_554 S
C70 O71 1.307 1_556 S
C70 O73 1.159 . S
O71 C70 1.307 1_554 S
O71 Cd72 2.228 . S
Cd72 O71 2.228 . S
Cd72 O76 2.273 . S
Cd72 O80 2.277 1_554 S
O73 C70 1.159 . S
O73 Cd74 2.203 1_546 S
Cd74 O73 2.203 1_564 S
Cd74 O76 2.411 1_565 S
Cd74 O77 2.333 . S
Cd74 O78 2.352 . S
Cd74 O82 2.277 1_554 S
Cd74 O83 2.356 . S
C75 O80 1.196 1_565 S
C75 O82 1.245 . S
O76 Cd72 2.273 . S
O76 Cd74 2.411 1_545 S
O76 C79 1.333 . S
O77 Cd74 2.333 . S
O77 C79 1.187 1_565 S
O78 Cd74 2.352 . S
O78 C81 1.258 . S
C79 O76 1.333 . S
C79 O77 1.187 1_545 S
O80 Cd72 2.277 1_556 S
O80 C75 1.196 1_545 S
C81 O78 1.258 . S
C81 O83 1.282 . S
O82 Cd74 2.277 1_556 S
O82 C75 1.245 . S
O83 Cd74 2.356 . S
O83 C81 1.282 . S
C84 O85 1.306 . S
C84 O87 1.160 . S
O85 C84 1.306 . S
O85 Cd86 2.228 . S
Cd86 O85 2.228 . S
Cd86 O90 2.273 . S
Cd86 O94 2.277 . S
O87 C84 1.160 . S
O87 Cd88 2.203 . S
Cd88 O87 2.203 . S
Cd88 O90 2.411 . S
Cd88 O91 2.333 . S
Cd88 O92 2.352 . S
Cd88 O96 2.277 . S
Cd88 O97 2.356 . S
C89 O94 1.209 . S
C89 O96 1.226 . S
O90 Cd86 2.273 . S
O90 Cd88 2.411 . S
O90 C93 1.320 . S
O91 Cd88 2.333 . S
O91 C93 1.214 . S
O92 Cd88 2.352 . S
O92 C95 1.258 . S
C93 O90 1.320 . S
C93 O91 1.214 . S
O94 Cd86 2.277 . S
O94 C89 1.209 . S
C95 O92 1.258 . S
C95 O97 1.282 . S
O96 Cd88 2.277 . S
O96 C89 1.226 . S
O97 Cd88 2.356 . S
O97 C95 1.282 . S
C98 O99 1.306 1_545 S
C98 O101 1.160 1_545 S
O99 C98 1.306 1_565 S
O99 Cd100 2.228 . S
Cd100 O99 2.228 . S
Cd100 O104 2.273 . S
Cd100 O108 2.277 . S
O101 C98 1.160 1_565 S
O101 Cd102 2.203 . S
Cd102 O101 2.203 . S
Cd102 O104 2.411 . S
Cd102 O105 2.333 . S
Cd102 O106 2.352 . S
Cd102 O110 2.277 . S
Cd102 O111 2.356 . S
C103 O108 1.209 . S
C103 O110 1.226 . S
O104 Cd100 2.273 . S
O104 Cd102 2.411 . S
O104 C107 1.320 . S
O105 Cd102 2.333 . S
O105 C107 1.214 . S
O106 Cd102 2.352 . S
O106 C109 1.258 . S
C107 O104 1.320 . S
C107 O105 1.214 . S
O108 Cd100 2.277 . S
O108 C103 1.209 . S
C109 O106 1.258 . S
C109 O111 1.282 . S
O110 Cd102 2.277 . S
O110 C103 1.226 . S
O111 Cd102 2.356 . S
O111 C109 1.282 . S
C112 O113 1.306 . S
C112 O115 1.160 . S
O113 C112 1.306 . S
O113 Cd114 2.228 . S
Cd114 O113 2.228 . S
Cd114 O118 2.273 . S
Cd114 O122 2.277 . S
O115 C112 1.160 . S
O115 Cd116 2.203 . S
Cd116 O115 2.203 . S
Cd116 O118 2.411 . S
Cd116 O119 2.333 . S
Cd116 O120 2.352 . S
Cd116 O124 2.277 . S
Cd116 O125 2.356 . S
C117 O122 1.209 . S
C117 O124 1.226 . S
O118 Cd114 2.273 . S
O118 Cd116 2.411 . S
O118 C121 1.320 . S
O119 Cd116 2.333 . S
O119 C121 1.214 . S
O120 Cd116 2.352 . S
O120 C123 1.258 . S
C121 O118 1.320 . S
C121 O119 1.214 . S
O122 Cd114 2.277 . S
O122 C117 1.209 . S
C123 O120 1.258 . S
C123 O125 1.282 . S
O124 Cd116 2.277 . S
O124 C117 1.226 . S
O125 Cd116 2.356 . S
O125 C123 1.282 . S
C126 O127 1.306 . S
C126 O129 1.160 . S
O127 C126 1.306 . S
O127 Cd128 2.228 . S
Cd128 O127 2.228 . S
Cd128 O132 2.273 . S
Cd128 O136 2.277 . S
O129 C126 1.160 . S
O129 Cd130 2.203 . S
Cd130 O129 2.203 . S
Cd130 O132 2.411 . S
Cd130 O133 2.333 . S
Cd130 O134 2.352 . S
Cd130 O138 2.277 . S
Cd130 O139 2.377 . S
C131 O136 1.209 . S
C131 O138 1.226 . S
O132 Cd128 2.273 . S
O132 Cd130 2.411 . S
O132 C135 1.320 . S
O133 Cd130 2.333 . S
O133 C135 1.214 . S
O134 Cd130 2.352 . S
O134 C137 1.258 1_565 S
C135 O132 1.320 . S
C135 O133 1.214 . S
O136 Cd128 2.277 . S
O136 C131 1.209 . S
C137 O134 1.258 1_545 S
C137 O139 1.252 1_545 S
O138 Cd130 2.277 . S
O138 C131 1.226 . S
O139 Cd130 2.377 . S
O139 C137 1.252 1_565 S
C140 O141 1.306 . S
C140 O143 1.160 . S
O141 C140 1.306 . S
O141 Cd142 2.228 . S
Cd142 O141 2.228 . S
Cd142 O146 2.273 . S
Cd142 O150 2.277 . S
O143 C140 1.160 . S
O143 Cd144 2.203 . S
Cd144 O143 2.203 . S
Cd144 O146 2.411 . S
Cd144 O147 2.333 . S
Cd144 O148 2.352 . S
Cd144 O152 2.277 . S
Cd144 O153 2.356 . S
C145 O150 1.209 . S
C145 O152 1.226 . S
O146 Cd142 2.273 . S
O146 Cd144 2.411 . S
O146 C149 1.320 . S
O147 Cd144 2.333 . S
O147 C149 1.214 . S
O148 Cd144 2.352 . S
O148 C151 1.258 . S
C149 O146 1.320 . S
C149 O147 1.214 . S
O150 Cd142 2.277 . S
O150 C145 1.209 . S
C151 O148 1.258 . S
C151 O153 1.282 . S
O152 Cd144 2.277 . S
O152 C145 1.226 . S
O153 Cd144 2.356 . S
O153 C151 1.282 . S
C154 O155 1.306 . S
C154 O157 1.160 . S
O155 C154 1.306 . S
O155 Cd156 2.228 . S
Cd156 O155 2.228 . S
Cd156 O160 2.273 . S
Cd156 O164 2.277 . S
O157 C154 1.160 . S
O157 Cd158 2.203 . S
Cd158 O157 2.203 . S
Cd158 O160 2.411 . S
Cd158 O161 2.333 . S
Cd158 O162 2.352 . S
Cd158 O166 2.277 . S
Cd158 O167 2.356 . S
C159 O164 1.209 . S
C159 O166 1.226 . S
O160 Cd156 2.273 . S
O160 Cd158 2.411 . S
O160 C163 1.320 . S
O161 Cd158 2.333 . S
O161 C163 1.214 . S
O162 Cd158 2.352 . S
O162 C165 1.258 . S
C163 O160 1.320 . S
C163 O161 1.214 . S
O164 Cd156 2.277 . S
O164 C159 1.209 . S
C165 O162 1.258 . S
C165 O167 1.282 . S
O166 Cd158 2.277 . S
O166 C159 1.226 . S
O167 Cd158 2.356 . S
O167 C165 1.282 . S
C168 O169 1.306 . S
C168 O171 1.160 . S
O169 C168 1.306 . S
O169 Cd170 2.228 . S
Cd170 O169 2.228 . S
Cd170 O174 2.273 . S
Cd170 O178 2.277 . S
O171 C168 1.160 . S
O171 Cd172 2.203 . S
Cd172 O171 2.203 . S
Cd172 O174 2.411 . S
Cd172 O175 2.333 . S
Cd172 O176 2.352 . S
Cd172 O180 2.277 . S
Cd172 O181 2.356 . S
C173 O178 1.209 . S
C173 O180 1.226 . S
O174 Cd170 2.273 . S
O174 Cd172 2.411 . S
O174 C177 1.320 . S
O175 Cd172 2.333 . S
O175 C177 1.214 . S
O176 Cd172 2.352 . S
O176 C179 1.258 . S
C177 O174 1.320 . S
C177 O175 1.214 . S
O178 Cd170 2.277 . S
O178 C173 1.209 . S
C179 O176 1.258 . S
C179 O181 1.282 . S
O180 Cd172 2.277 . S
O180 C173 1.226 . S
O181 Cd172 2.356 . S
O181 C179 1.282 . S
C182 O183 1.306 . S
C182 O185 1.160 . S
O183 C182 1.306 . S
O183 Cd184 2.228 . S
Cd184 O183 2.228 . S
Cd184 O188 2.273 . S
Cd184 O192 2.277 . S
O185 C182 1.160 . S
O185 Cd186 2.203 . S
Cd186 O185 2.203 . S
Cd186 O188 2.411 . S
Cd186 O189 2.333 . S
Cd186 O190 2.368 . S
Cd186 O194 2.277 . S
Cd186 O195 2.356 1_655 S
C187 O192 1.209 . S
C187 O194 1.226 . S
O188 Cd184 2.273 . S
O188 Cd186 2.411 . S
O188 C191 1.320 . S
O189 Cd186 2.333 . S
O189 C191 1.214 . S
O190 Cd186 2.368 . S
O190 C193 1.233 1_655 S
C191 O188 1.320 . S
C191 O189 1.214 . S
O192 Cd184 2.277 . S
O192 C187 1.209 . S
C193 O190 1.233 1_455 S
C193 O195 1.282 . S
O194 Cd186 2.277 . S
O194 C187 1.226 . S
O195 Cd186 2.356 1_455 S
O195 C193 1.282 . S
C196 O197 1.306 . S
C196 O199 1.160 . S
O197 C196 1.306 . S
O197 Cd198 2.228 . S
Cd198 O197 2.228 . S
Cd198 O202 2.273 . S
Cd198 O206 2.277 . S
O199 C196 1.160 . S
O199 Cd200 2.203 . S
Cd200 O199 2.203 . S
Cd200 O202 2.411 . S
Cd200 O203 2.333 . S
Cd200 O204 2.352 . S
Cd200 O208 2.277 . S
Cd200 O209 2.356 . S
C201 O206 1.209 . S
C201 O208 1.226 . S
O202 Cd198 2.273 . S
O202 Cd200 2.411 . S
O202 C205 1.320 . S
O203 Cd200 2.333 . S
O203 C205 1.214 . S
O204 Cd200 2.352 . S
O204 C207 1.258 . S
C205 O202 1.320 . S
C205 O203 1.214 . S
O206 Cd198 2.277 . S
O206 C201 1.209 . S
C207 O204 1.258 . S
C207 O209 1.282 . S
O208 Cd200 2.277 . S
O208 C201 1.226 . S
O209 Cd200 2.356 . S
O209 C207 1.282 . S
C210 O211 1.306 . S
C210 O213 1.160 . S
O211 C210 1.306 . S
O211 Cd212 2.228 . S
Cd212 O211 2.228 . S
Cd212 O216 2.273 . S
Cd212 O220 2.277 . S
O213 C210 1.160 . S
O213 Cd214 2.203 . S
Cd214 O213 2.203 . S
Cd214 O216 2.411 . S
Cd214 O217 2.333 . S
Cd214 O218 2.352 . S
Cd214 O222 2.277 . S
Cd214 O223 2.356 . S
C215 O220 1.209 . S
C215 O222 1.226 . S
O216 Cd212 2.273 . S
O216 Cd214 2.411 . S
O216 C219 1.320 . S
O217 Cd214 2.333 . S
O217 C219 1.214 . S
O218 Cd214 2.352 . S
O218 C221 1.258 . S
C219 O216 1.320 . S
C219 O217 1.214 . S
O220 Cd212 2.277 . S
O220 C215 1.209 . S
C221 O218 1.258 . S
C221 O223 1.282 . S
O222 Cd214 2.277 . S
O222 C215 1.226 . S
O223 Cd214 2.356 . S
O223 C221 1.282 . S
C224 O225 1.306 . S
C224 O227 1.160 . S
O225 C224 1.306 . S
O225 Cd226 2.228 . S
Cd226 O225 2.228 . S
Cd226 O230 2.273 . S
Cd226 O234 2.277 . S
O227 C224 1.160 . S
O227 Cd228 2.203 . S
Cd228 O227 2.203 . S
Cd228 O230 2.411 . S
Cd228 O231 2.333 . S
Cd228 O232 2.352 . S
Cd228 O236 2.277 . S
Cd228 O237 2.356 . S
C229 O234 1.209 . S
C229 O236 1.226 . S
O230 Cd226 2.273 . S
O230 Cd228 2.411 . S
O230 C233 1.320 . S
O231 Cd228 2.333 . S
O231 C233 1.214 . S
O232 Cd228 2.352 . S
O232 C235 1.258 1_545 S
C233 O230 1.320 . S
C233 O231 1.214 . S
O234 Cd226 2.277 . S
O234 C229 1.209 . S
C235 O232 1.258 1_565 S
C235 O237 1.282 1_565 S
O236 Cd228 2.277 . S
O236 C229 1.226 . S
O237 Cd228 2.356 . S
O237 C235 1.282 1_545 S
C238 O239 1.244 1_455 S
C238 O241 1.164 1_455 S
O239 C238 1.244 1_655 S
O239 Cd240 2.228 . S
Cd240 O239 2.228 . S
Cd240 O244 2.273 . S
Cd240 O248 2.277 . S
O241 C238 1.164 1_655 S
O241 Cd242 2.203 . S
Cd242 O241 2.203 . S
Cd242 O244 2.411 . S
Cd242 O245 2.333 . S
Cd242 O246 2.352 . S
Cd242 O250 2.277 . S
Cd242 O251 2.356 . S
C243 O248 1.209 . S
C243 O250 1.226 . S
O244 Cd240 2.273 . S
O244 Cd242 2.411 . S
O244 C247 1.320 . S
O245 Cd242 2.333 . S
O245 C247 1.214 . S
O246 Cd242 2.352 . S
O246 C249 1.258 . S
C247 O244 1.320 . S
C247 O245 1.214 . S
O248 Cd240 2.277 . S
O248 C243 1.209 . S
C249 O246 1.258 . S
C249 O251 1.282 . S
O250 Cd242 2.277 . S
O250 C243 1.226 . S
O251 Cd242 2.356 . S
O251 C249 1.282 . S
H252 C279 0.929 . S
N253 C278 1.433 . S
N253 C284 1.435 . S
N253 C290 1.423 . S
H254 C280 0.930 . S
H255 C283 0.931 . S
H256 C282 0.929 . S
H257 C285 0.930 . S
H258 C286 0.932 . S
H259 C289 0.929 . S
H260 C288 0.931 . S
H261 C291 0.929 . S
H262 C295 0.932 . S
H263 C292 0.931 . S
H264 C294 0.929 . S
H265 C297 0.929 . S
H266 C298 0.930 . S
H267 C300 0.929 . S
H268 C301 0.931 . S
H269 C303 0.930 . S
H270 C304 0.932 . S
H271 C306 0.931 . S
H272 C307 0.929 . S
H273 C309 0.929 . S
H274 C310 0.931 . S
H275 C312 0.929 . S
N276 C296 1.433 . S
N276 C302 1.435 . S
N276 C308 1.423 . S
H277 C313 0.932 . S
C278 N253 1.433 . S
C278 C279 1.363 . S
C278 C283 1.370 . S
C279 H252 0.929 . S
C279 C278 1.363 . S
C279 C280 1.385 . S
C280 H254 0.930 . S
C280 C279 1.385 . S
C280 C281 1.357 . S
C281 C280 1.357 . S
C281 C282 1.406 . S
C282 H256 0.929 . S
C282 C281 1.406 . S
C282 C283 1.391 . S
C283 H255 0.931 . S
C283 C278 1.370 . S
C283 C282 1.391 . S
C284 N253 1.435 . S
C284 C285 1.358 . S
C284 C289 1.371 . S
C285 H257 0.930 . S
C285 C284 1.358 . S
C285 C286 1.405 . S
C286 H258 0.932 . S
C286 C285 1.405 . S
C286 C287 1.383 . S
C287 C286 1.383 . S
C287 C288 1.393 . S
C288 H260 0.931 . S
C288 C287 1.393 . S
C288 C289 1.382 . S
C289 H259 0.929 . S
C289 C284 1.371 . S
C289 C288 1.382 . S
C290 N253 1.423 . S
C290 C291 1.362 . S
C290 C295 1.388 . S
C291 H261 0.929 . S
C291 C290 1.362 . S
C291 C292 1.376 . S
C292 H263 0.931 . S
C292 C291 1.376 . S
C292 C293 1.396 . S
C293 C292 1.396 . S
C293 C294 1.348 . S
C293 C311 1.472 . S
C294 H264 0.929 . S
C294 C293 1.348 . S
C294 C295 1.443 . S
C295 H262 0.932 . S
C295 C290 1.388 . S
C295 C294 1.443 . S
C296 N276 1.433 . S
C296 C297 1.363 . S
C296 C301 1.370 . S
C297 H265 0.929 . S
C297 C296 1.363 . S
C297 C298 1.385 . S
C298 H266 0.930 . S
C298 C297 1.385 . S
C298 C299 1.357 . S
C299 C298 1.357 . S
C299 C300 1.406 . S
C300 H267 0.929 . S
C300 C299 1.406 . S
C300 C301 1.391 . S
C301 H268 0.931 . S
C301 C296 1.370 . S
C301 C300 1.391 . S
C302 N276 1.435 . S
C302 C303 1.358 . S
C302 C307 1.371 . S
C303 H269 0.930 . S
C303 C302 1.358 . S
C303 C304 1.405 . S
C304 H270 0.932 . S
C304 C303 1.405 . S
C304 C305 1.383 . S
C305 C304 1.383 . S
C305 C306 1.393 . S
C306 H271 0.931 . S
C306 C305 1.393 . S
C306 C307 1.382 . S
C307 H272 0.929 . S
C307 C302 1.371 . S
C307 C306 1.382 . S
C308 N276 1.423 . S
C308 C309 1.362 . S
C308 C313 1.388 . S
C309 H273 0.929 . S
C309 C308 1.362 . S
C309 C310 1.376 . S
C310 H274 0.931 . S
C310 C309 1.376 . S
C310 C311 1.396 . S
C311 C293 1.472 . S
C311 C310 1.396 . S
C311 C312 1.348 . S
C312 H275 0.929 . S
C312 C311 1.348 . S
C312 C313 1.443 . S
C313 H277 0.932 . S
C313 C308 1.388 . S
C313 C312 1.443 . S
H314 C341 0.929 . S
N315 C340 1.433 . S
N315 C346 1.435 . S
N315 C352 1.423 . S
H316 C342 0.930 . S
H317 C345 0.931 . S
H318 C344 0.929 . S
H319 C347 0.930 . S
H320 C348 0.932 . S
H321 C351 0.929 . S
H322 C350 0.931 . S
H323 C353 0.929 . S
H324 C357 0.932 . S
H325 C354 0.931 . S
H326 C356 0.929 . S
H327 C359 0.929 . S
H328 C360 0.930 . S
H329 C362 0.929 . S
H330 C363 0.931 . S
H331 C365 0.930 . S
H332 C366 0.932 . S
H333 C368 0.931 . S
H334 C369 0.929 . S
H335 C371 0.929 . S
H336 C372 0.931 . S
H337 C374 0.929 . S
N338 C358 1.433 . S
N338 C364 1.435 . S
N338 C370 1.423 . S
H339 C375 0.932 . S
C340 N315 1.433 . S
C340 C341 1.363 . S
C340 C345 1.370 . S
C341 H314 0.929 . S
C341 C340 1.363 . S
C341 C342 1.385 . S
C342 H316 0.930 . S
C342 C341 1.385 . S
C342 C343 1.357 . S
C343 C342 1.357 . S
C343 C344 1.406 . S
C344 H318 0.929 . S
C344 C343 1.406 . S
C344 C345 1.391 . S
C345 H317 0.931 . S
C345 C340 1.370 . S
C345 C344 1.391 . S
C346 N315 1.435 . S
C346 C347 1.358 . S
C346 C351 1.371 . S
C347 H319 0.930 . S
C347 C346 1.358 . S
C347 C348 1.405 . S
C348 H320 0.932 . S
C348 C347 1.405 . S
C348 C349 1.383 . S
C349 C348 1.383 . S
C349 C350 1.393 . S
C350 H322 0.931 . S
C350 C349 1.393 . S
C350 C351 1.382 . S
C351 H321 0.929 . S
C351 C346 1.371 . S
C351 C350 1.382 . S
C352 N315 1.423 . S
C352 C353 1.362 . S
C352 C357 1.388 . S
C353 H323 0.929 . S
C353 C352 1.362 . S
C353 C354 1.376 . S
C354 H325 0.931 . S
C354 C353 1.376 . S
C354 C355 1.396 . S
C355 C354 1.396 . S
C355 C356 1.348 . S
C355 C373 1.472 . S
C356 H326 0.929 . S
C356 C355 1.348 . S
C356 C357 1.443 . S
C357 H324 0.932 . S
C357 C352 1.388 . S
C357 C356 1.443 . S
C358 N338 1.433 . S
C358 C359 1.363 . S
C358 C363 1.370 . S
C359 H327 0.929 . S
C359 C358 1.363 . S
C359 C360 1.385 . S
C360 H328 0.930 . S
C360 C359 1.385 . S
C360 C361 1.357 . S
C361 C360 1.357 . S
C361 C362 1.406 . S
C362 H329 0.929 . S
C362 C361 1.406 . S
C362 C363 1.391 . S
C363 H330 0.931 . S
C363 C358 1.370 . S
C363 C362 1.391 . S
C364 N338 1.435 . S
C364 C365 1.358 . S
C364 C369 1.371 . S
C365 H331 0.930 . S
C365 C364 1.358 . S
C365 C366 1.405 . S
C366 H332 0.932 . S
C366 C365 1.405 . S
C366 C367 1.383 . S
C367 C366 1.383 . S
C367 C368 1.393 . S
C368 H333 0.931 . S
C368 C367 1.393 . S
C368 C369 1.382 . S
C369 H334 0.929 . S
C369 C364 1.371 . S
C369 C368 1.382 . S
C370 N338 1.423 . S
C370 C371 1.362 . S
C370 C375 1.388 . S
C371 H335 0.929 . S
C371 C370 1.362 . S
C371 C372 1.376 . S
C372 H336 0.931 . S
C372 C371 1.376 . S
C372 C373 1.396 . S
C373 C355 1.472 . S
C373 C372 1.396 . S
C373 C374 1.348 . S
C374 H337 0.929 . S
C374 C373 1.348 . S
C374 C375 1.443 . S
C375 H339 0.932 . S
C375 C370 1.388 . S
C375 C374 1.443 . S
H376 C403 0.929 . S
N377 C402 1.433 . S
N377 C408 1.435 . S
N377 C414 1.423 . S
H378 C404 0.930 . S
H379 C407 0.931 . S
H380 C406 0.929 . S
H381 C409 0.930 . S
H382 C410 0.932 . S
H383 C413 0.929 . S
H384 C412 0.931 . S
H385 C415 0.929 . S
H386 C419 0.932 . S
H387 C416 0.931 . S
H388 C418 0.929 . S
H389 C421 0.929 . S
H390 C422 0.930 . S
H391 C424 0.929 . S
H392 C425 0.931 . S
H393 C427 0.930 . S
H394 C428 0.932 . S
H395 C430 0.931 . S
H396 C431 0.929 . S
H397 C433 0.929 . S
H398 C434 0.931 . S
H399 C436 0.929 . S
N400 C420 1.433 . S
N400 C426 1.435 . S
N400 C432 1.423 . S
H401 C437 0.932 . S
C402 N377 1.433 . S
C402 C403 1.363 . S
C402 C407 1.370 . S
C403 H376 0.929 . S
C403 C402 1.363 . S
C403 C404 1.385 . S
C404 H378 0.930 . S
C404 C403 1.385 . S
C404 C405 1.357 . S
C405 C404 1.357 . S
C405 C406 1.406 . S
C406 H380 0.929 . S
C406 C405 1.406 . S
C406 C407 1.391 . S
C407 H379 0.931 . S
C407 C402 1.370 . S
C407 C406 1.391 . S
C408 N377 1.435 . S
C408 C409 1.358 . S
C408 C413 1.371 . S
C409 H381 0.930 . S
C409 C408 1.358 . S
C409 C410 1.405 . S
C410 H382 0.932 . S
C410 C409 1.405 . S
C410 C411 1.383 . S
C411 C410 1.383 . S
C411 C412 1.393 . S
C412 H384 0.931 . S
C412 C411 1.393 . S
C412 C413 1.382 . S
C413 H383 0.929 . S
C413 C408 1.371 . S
C413 C412 1.382 . S
C414 N377 1.423 . S
C414 C415 1.362 . S
C414 C419 1.388 . S
C415 H385 0.929 . S
C415 C414 1.362 . S
C415 C416 1.376 . S
C416 H387 0.931 . S
C416 C415 1.376 . S
C416 C417 1.396 . S
C417 C416 1.396 . S
C417 C418 1.348 . S
C417 C435 1.472 . S
C418 H388 0.929 . S
C418 C417 1.348 . S
C418 C419 1.443 . S
C419 H386 0.932 . S
C419 C414 1.388 . S
C419 C418 1.443 . S
C420 N400 1.433 . S
C420 C421 1.363 . S
C420 C425 1.370 . S
C421 H389 0.929 . S
C421 C420 1.363 . S
C421 C422 1.385 . S
C422 H390 0.930 . S
C422 C421 1.385 . S
C422 C423 1.357 . S
C423 C422 1.357 . S
C423 C424 1.406 . S
C424 H391 0.929 . S
C424 C423 1.406 . S
C424 C425 1.391 . S
C425 H392 0.931 . S
C425 C420 1.370 . S
C425 C424 1.391 . S
C426 N400 1.435 . S
C426 C427 1.358 . S
C426 C431 1.371 . S
C427 H393 0.930 . S
C427 C426 1.358 . S
C427 C428 1.405 . S
C428 H394 0.932 . S
C428 C427 1.405 . S
C428 C429 1.383 . S
C429 C428 1.383 . S
C429 C430 1.393 . S
C430 H395 0.931 . S
C430 C429 1.393 . S
C430 C431 1.382 . S
C431 H396 0.929 . S
C431 C426 1.371 . S
C431 C430 1.382 . S
C432 N400 1.423 . S
C432 C433 1.362 . S
C432 C437 1.388 . S
C433 H397 0.929 . S
C433 C432 1.362 . S
C433 C434 1.376 . S
C434 H398 0.931 . S
C434 C433 1.376 . S
C434 C435 1.396 . S
C435 C417 1.472 . S
C435 C434 1.396 . S
C435 C436 1.348 . S
C436 H399 0.929 . S
C436 C435 1.348 . S
C436 C437 1.443 . S
C437 H401 0.932 . S
C437 C432 1.388 . S
C437 C436 1.443 . S
H438 C465 0.929 . S
N439 C464 1.433 . S
N439 C470 1.435 . S
N439 C476 1.423 . S
H440 C466 0.930 . S
H441 C469 0.931 . S
H442 C468 0.929 . S
H443 C471 0.930 . S
H444 C472 0.932 . S
H445 C475 0.929 . S
H446 C474 0.931 . S
H447 C477 0.929 . S
H448 C481 0.932 . S
H449 C478 0.931 . S
H450 C480 0.929 . S
H451 C483 0.929 . S
H452 C484 0.930 . S
H453 C486 0.929 . S
H454 C487 0.931 . S
H455 C489 0.930 . S
H456 C490 0.932 . S
H457 C492 0.931 . S
H458 C493 0.929 . S
H459 C495 0.929 . S
H460 C496 0.931 . S
H461 C498 0.929 . S
N462 C482 1.433 . S
N462 C488 1.435 . S
N462 C494 1.423 . S
H463 C499 0.932 . S
C464 N439 1.433 . S
C464 C465 1.363 . S
C464 C469 1.370 . S
C465 H438 0.929 . S
C465 C464 1.363 . S
C465 C466 1.385 . S
C466 H440 0.930 . S
C466 C465 1.385 . S
C466 C467 1.357 . S
C467 C466 1.357 . S
C467 C468 1.406 . S
C468 H442 0.929 . S
C468 C467 1.406 . S
C468 C469 1.391 . S
C469 H441 0.931 . S
C469 C464 1.370 . S
C469 C468 1.391 . S
C470 N439 1.435 . S
C470 C471 1.358 . S
C470 C475 1.371 . S
C471 H443 0.930 . S
C471 C470 1.358 . S
C471 C472 1.405 . S
C472 H444 0.932 . S
C472 C471 1.405 . S
C472 C473 1.383 . S
C473 C472 1.383 . S
C473 C474 1.393 . S
C474 H446 0.931 . S
C474 C473 1.393 . S
C474 C475 1.382 . S
C475 H445 0.929 . S
C475 C470 1.371 . S
C475 C474 1.382 . S
C476 N439 1.423 . S
C476 C477 1.362 . S
C476 C481 1.388 . S
C477 H447 0.929 . S
C477 C476 1.362 . S
C477 C478 1.376 . S
C478 H449 0.931 . S
C478 C477 1.376 . S
C478 C479 1.396 . S
C479 C478 1.396 . S
C479 C480 1.348 . S
C479 C497 1.472 . S
C480 H450 0.929 . S
C480 C479 1.348 . S
C480 C481 1.443 . S
C481 H448 0.932 . S
C481 C476 1.388 . S
C481 C480 1.443 . S
C482 N462 1.433 . S
C482 C483 1.363 . S
C482 C487 1.370 . S
C483 H451 0.929 . S
C483 C482 1.363 . S
C483 C484 1.385 . S
C484 H452 0.930 . S
C484 C483 1.385 . S
C484 C485 1.357 . S
C485 C484 1.357 . S
C485 C486 1.406 . S
C486 H453 0.929 . S
C486 C485 1.406 . S
C486 C487 1.391 . S
C487 H454 0.931 . S
C487 C482 1.370 . S
C487 C486 1.391 . S
C488 N462 1.435 . S
C488 C489 1.358 . S
C488 C493 1.371 . S
C489 H455 0.930 . S
C489 C488 1.358 . S
C489 C490 1.405 . S
C490 H456 0.932 . S
C490 C489 1.405 . S
C490 C491 1.383 . S
C491 C490 1.383 . S
C491 C492 1.393 . S
C492 H457 0.931 . S
C492 C491 1.393 . S
C492 C493 1.382 . S
C493 H458 0.929 . S
C493 C488 1.371 . S
C493 C492 1.382 . S
C494 N462 1.423 . S
C494 C495 1.362 . S
C494 C499 1.388 . S
C495 H459 0.929 . S
C495 C494 1.362 . S
C495 C496 1.376 . S
C496 H460 0.931 . S
C496 C495 1.376 . S
C496 C497 1.396 . S
C497 C479 1.472 . S
C497 C496 1.396 . S
C497 C498 1.348 . S
C498 H461 0.929 . S
C498 C497 1.348 . S
C498 C499 1.443 . S
C499 H463 0.932 . S
C499 C494 1.388 . S
C499 C498 1.443 . S
H500 C527 0.929 . S
N501 C526 1.433 . S
N501 C532 1.435 . S
N501 C538 1.423 . S
H502 C528 0.930 . S
H503 C531 0.931 . S
H504 C530 0.929 . S
H505 C533 0.930 . S
H506 C534 0.932 . S
H507 C537 0.929 . S
H508 C536 0.931 . S
H509 C539 0.929 . S
H510 C543 0.932 . S
H511 C540 0.931 . S
H512 C542 0.929 . S
H513 C545 0.929 . S
H514 C546 0.930 . S
H515 C548 0.929 . S
H516 C549 0.931 . S
H517 C551 0.930 . S
H518 C552 0.932 . S
H519 C554 0.931 . S
H520 C555 0.929 . S
H521 C557 0.929 . S
H522 C558 0.931 . S
H523 C560 0.929 . S
N524 C544 1.433 . S
N524 C550 1.435 . S
N524 C556 1.423 . S
H525 C561 0.932 . S
C526 N501 1.433 . S
C526 C527 1.363 . S
C526 C531 1.370 . S
C527 H500 0.929 . S
C527 C526 1.363 . S
C527 C528 1.385 . S
C528 H502 0.930 . S
C528 C527 1.385 . S
C528 C529 1.357 . S
C529 C528 1.357 . S
C529 C530 1.406 . S
C530 H504 0.929 . S
C530 C529 1.406 . S
C530 C531 1.391 . S
C531 H503 0.931 . S
C531 C526 1.370 . S
C531 C530 1.391 . S
C532 N501 1.435 . S
C532 C533 1.358 . S
C532 C537 1.371 . S
C533 H505 0.930 . S
C533 C532 1.358 . S
C533 C534 1.405 . S
C534 H506 0.932 . S
C534 C533 1.405 . S
C534 C535 1.383 . S
C535 C534 1.383 . S
C535 C536 1.393 . S
C536 H508 0.931 . S
C536 C535 1.393 . S
C536 C537 1.382 . S
C537 H507 0.929 . S
C537 C532 1.371 . S
C537 C536 1.382 . S
C538 N501 1.423 . S
C538 C539 1.362 . S
C538 C543 1.388 . S
C539 H509 0.929 . S
C539 C538 1.362 . S
C539 C540 1.376 . S
C540 H511 0.931 . S
C540 C539 1.376 . S
C540 C541 1.396 . S
C541 C540 1.396 . S
C541 C542 1.348 . S
C541 C559 1.472 . S
C542 H512 0.929 . S
C542 C541 1.348 . S
C542 C543 1.443 . S
C543 H510 0.932 . S
C543 C538 1.388 . S
C543 C542 1.443 . S
C544 N524 1.433 . S
C544 C545 1.363 . S
C544 C549 1.370 . S
C545 H513 0.929 . S
C545 C544 1.363 . S
C545 C546 1.385 . S
C546 H514 0.930 . S
C546 C545 1.385 . S
C546 C547 1.357 . S
C547 C546 1.357 . S
C547 C548 1.406 . S
C548 H515 0.929 . S
C548 C547 1.406 . S
C548 C549 1.391 . S
C549 H516 0.931 . S
C549 C544 1.370 . S
C549 C548 1.391 . S
C550 N524 1.435 . S
C550 C551 1.358 . S
C550 C555 1.371 . S
C551 H517 0.930 . S
C551 C550 1.358 . S
C551 C552 1.405 . S
C552 H518 0.932 . S
C552 C551 1.405 . S
C552 C553 1.383 . S
C553 C552 1.383 . S
C553 C554 1.393 . S
C554 H519 0.931 . S
C554 C553 1.393 . S
C554 C555 1.382 . S
C555 H520 0.929 . S
C555 C550 1.371 . S
C555 C554 1.382 . S
C556 N524 1.423 . S
C556 C557 1.362 . S
C556 C561 1.388 . S
C557 H521 0.929 . S
C557 C556 1.362 . S
C557 C558 1.376 . S
C558 H522 0.931 . S
C558 C557 1.376 . S
C558 C559 1.396 . S
C559 C541 1.472 . S
C559 C558 1.396 . S
C559 C560 1.348 . S
C560 H523 0.929 . S
C560 C559 1.348 . S
C560 C561 1.443 . S
C561 H525 0.932 . S
C561 C556 1.388 . S
C561 C560 1.443 . S
H562 C589 0.929 . S
N563 C588 1.433 . S
N563 C594 1.435 . S
N563 C600 1.423 . S
H564 C590 0.930 . S
H565 C593 0.931 . S
H566 C592 0.929 . S
H567 C595 0.930 . S
H568 C596 0.932 . S
H569 C599 0.929 . S
H570 C598 0.931 . S
H571 C601 0.929 . S
H572 C605 0.932 . S
H573 C602 0.931 . S
H574 C604 0.929 . S
H575 C607 0.929 . S
H576 C608 0.930 . S
H577 C610 0.929 . S
H578 C611 0.931 . S
H579 C613 0.930 . S
H580 C614 0.932 . S
H581 C616 0.931 . S
H582 C617 0.929 . S
H583 C619 0.929 . S
H584 C620 0.931 . S
H585 C622 0.929 . S
N586 C606 1.433 . S
N586 C612 1.435 . S
N586 C618 1.423 . S
H587 C623 0.932 . S
C588 N563 1.433 . S
C588 C589 1.363 . S
C588 C593 1.370 . S
C589 H562 0.929 . S
C589 C588 1.363 . S
C589 C590 1.385 . S
C590 H564 0.930 . S
C590 C589 1.385 . S
C590 C591 1.357 . S
C591 C590 1.357 . S
C591 C592 1.406 . S
C592 H566 0.929 . S
C592 C591 1.406 . S
C592 C593 1.391 . S
C593 H565 0.931 . S
C593 C588 1.370 . S
C593 C592 1.391 . S
C594 N563 1.435 . S
C594 C595 1.358 . S
C594 C599 1.371 . S
C595 H567 0.930 . S
C595 C594 1.358 . S
C595 C596 1.405 . S
C596 H568 0.932 . S
C596 C595 1.405 . S
C596 C597 1.383 . S
C597 C596 1.383 . S
C597 C598 1.393 . S
C598 H570 0.931 . S
C598 C597 1.393 . S
C598 C599 1.382 . S
C599 H569 0.929 . S
C599 C594 1.371 . S
C599 C598 1.382 . S
C600 N563 1.423 . S
C600 C601 1.362 . S
C600 C605 1.388 . S
C601 H571 0.929 . S
C601 C600 1.362 . S
C601 C602 1.376 . S
C602 H573 0.931 . S
C602 C601 1.376 . S
C602 C603 1.396 . S
C603 C602 1.396 . S
C603 C604 1.348 . S
C603 C621 1.472 . S
C604 H574 0.929 . S
C604 C603 1.348 . S
C604 C605 1.443 . S
C605 H572 0.932 . S
C605 C600 1.388 . S
C605 C604 1.443 . S
C606 N586 1.433 . S
C606 C607 1.363 . S
C606 C611 1.370 . S
C607 H575 0.929 . S
C607 C606 1.363 . S
C607 C608 1.385 . S
C608 H576 0.930 . S
C608 C607 1.385 . S
C608 C609 1.357 . S
C609 C608 1.357 . S
C609 C610 1.406 . S
C610 H577 0.929 . S
C610 C609 1.406 . S
C610 C611 1.391 . S
C611 H578 0.931 . S
C611 C606 1.370 . S
C611 C610 1.391 . S
C612 N586 1.435 . S
C612 C613 1.358 . S
C612 C617 1.371 . S
C613 H579 0.930 . S
C613 C612 1.358 . S
C613 C614 1.405 . S
C614 H580 0.932 . S
C614 C613 1.405 . S
C614 C615 1.383 . S
C615 C614 1.383 . S
C615 C616 1.393 . S
C616 H581 0.931 . S
C616 C615 1.393 . S
C616 C617 1.382 . S
C617 H582 0.929 . S
C617 C612 1.371 . S
C617 C616 1.382 . S
C618 N586 1.423 . S
C618 C619 1.362 . S
C618 C623 1.388 . S
C619 H583 0.929 . S
C619 C618 1.362 . S
C619 C620 1.376 . S
C620 H584 0.931 . S
C620 C619 1.376 . S
C620 C621 1.396 . S
C621 C603 1.472 . S
C621 C620 1.396 . S
C621 C622 1.348 . S
C622 H585 0.929 . S
C622 C621 1.348 . S
C622 C623 1.443 . S
C623 H587 0.932 . S
C623 C618 1.388 . S
C623 C622 1.443 . S
H624 C651 0.929 . S
N625 C650 1.433 . S
N625 C656 1.435 . S
N625 C662 1.423 . S
H626 C652 0.930 . S
H627 C655 0.931 . S
H628 C654 0.929 . S
H629 C657 0.930 . S
H630 C658 0.932 . S
H631 C661 0.929 . S
H632 C660 0.931 . S
H633 C663 0.929 . S
H634 C667 0.932 . S
H635 C664 0.931 . S
H636 C666 0.929 . S
H637 C669 0.929 . S
H638 C670 0.930 . S
H639 C672 0.929 . S
H640 C673 0.931 . S
H641 C675 0.930 . S
H642 C676 0.932 . S
H643 C678 0.931 . S
H644 C679 0.929 . S
H645 C681 0.929 . S
H646 C682 0.931 . S
H647 C684 0.929 . S
N648 C668 1.433 . S
N648 C674 1.435 . S
N648 C680 1.423 . S
H649 C685 0.932 . S
C650 N625 1.433 . S
C650 C651 1.363 . S
C650 C655 1.370 . S
C651 H624 0.929 . S
C651 C650 1.363 . S
C651 C652 1.385 . S
C652 H626 0.930 . S
C652 C651 1.385 . S
C652 C653 1.357 . S
C653 C652 1.357 . S
C653 C654 1.406 . S
C654 H628 0.929 . S
C654 C653 1.406 . S
C654 C655 1.391 . S
C655 H627 0.931 . S
C655 C650 1.370 . S
C655 C654 1.391 . S
C656 N625 1.435 . S
C656 C657 1.358 . S
C656 C661 1.371 . S
C657 H629 0.930 . S
C657 C656 1.358 . S
C657 C658 1.405 . S
C658 H630 0.932 . S
C658 C657 1.405 . S
C658 C659 1.383 . S
C659 C658 1.383 . S
C659 C660 1.393 . S
C660 H632 0.931 . S
C660 C659 1.393 . S
C660 C661 1.382 . S
C661 H631 0.929 . S
C661 C656 1.371 . S
C661 C660 1.382 . S
C662 N625 1.423 . S
C662 C663 1.362 . S
C662 C667 1.388 . S
C663 H633 0.929 . S
C663 C662 1.362 . S
C663 C664 1.376 . S
C664 H635 0.931 . S
C664 C663 1.376 . S
C664 C665 1.396 . S
C665 C664 1.396 . S
C665 C666 1.348 . S
C665 C683 1.472 . S
C666 H636 0.929 . S
C666 C665 1.348 . S
C666 C667 1.443 . S
C667 H634 0.932 . S
C667 C662 1.388 . S
C667 C666 1.443 . S
C668 N648 1.433 . S
C668 C669 1.363 . S
C668 C673 1.370 . S
C669 H637 0.929 . S
C669 C668 1.363 . S
C669 C670 1.385 . S
C670 H638 0.930 . S
C670 C669 1.385 . S
C670 C671 1.357 . S
C671 C670 1.357 . S
C671 C672 1.406 . S
C672 H639 0.929 . S
C672 C671 1.406 . S
C672 C673 1.391 . S
C673 H640 0.931 . S
C673 C668 1.370 . S
C673 C672 1.391 . S
C674 N648 1.435 . S
C674 C675 1.358 . S
C674 C679 1.371 . S
C675 H641 0.930 . S
C675 C674 1.358 . S
C675 C676 1.405 . S
C676 H642 0.932 . S
C676 C675 1.405 . S
C676 C677 1.383 . S
C677 C676 1.383 . S
C677 C678 1.393 . S
C678 H643 0.931 . S
C678 C677 1.393 . S
C678 C679 1.382 . S
C679 H644 0.929 . S
C679 C674 1.371 . S
C679 C678 1.382 . S
C680 N648 1.423 . S
C680 C681 1.362 . S
C680 C685 1.388 . S
C681 H645 0.929 . S
C681 C680 1.362 . S
C681 C682 1.376 . S
C682 H646 0.931 . S
C682 C681 1.376 . S
C682 C683 1.396 . S
C683 C665 1.472 . S
C683 C682 1.396 . S
C683 C684 1.348 . S
C684 H647 0.929 . S
C684 C683 1.348 . S
C684 C685 1.443 . S
C685 H649 0.932 . S
C685 C680 1.388 . S
C685 C684 1.443 . S
H686 C713 0.929 . S
N687 C712 1.433 . S
N687 C718 1.435 . S
N687 C724 1.423 . S
H688 C714 0.930 . S
H689 C717 0.931 . S
H690 C716 0.929 . S
H691 C719 0.930 . S
H692 C720 0.932 . S
H693 C723 0.929 . S
H694 C722 0.931 . S
H695 C725 0.929 . S
H696 C729 0.932 . S
H697 C726 0.931 . S
H698 C728 0.929 . S
H699 C731 0.929 . S
H700 C732 0.930 . S
H701 C734 0.929 . S
H702 C735 0.931 . S
H703 C737 0.930 . S
H704 C738 0.932 . S
H705 C740 0.931 . S
H706 C741 0.929 . S
H707 C743 0.929 . S
H708 C744 0.931 . S
H709 C746 0.929 . S
N710 C730 1.433 . S
N710 C736 1.435 . S
N710 C742 1.423 . S
H711 C747 0.932 . S
C712 N687 1.433 . S
C712 C713 1.363 . S
C712 C717 1.370 . S
C713 H686 0.929 . S
C713 C712 1.363 . S
C713 C714 1.385 . S
C714 H688 0.930 . S
C714 C713 1.385 . S
C714 C715 1.357 . S
C715 C714 1.357 . S
C715 C716 1.406 . S
C716 H690 0.929 . S
C716 C715 1.406 . S
C716 C717 1.391 . S
C717 H689 0.931 . S
C717 C712 1.370 . S
C717 C716 1.391 . S
C718 N687 1.435 . S
C718 C719 1.358 . S
C718 C723 1.371 . S
C719 H691 0.930 . S
C719 C718 1.358 . S
C719 C720 1.405 . S
C720 H692 0.932 . S
C720 C719 1.405 . S
C720 C721 1.383 . S
C721 C720 1.383 . S
C721 C722 1.393 . S
C722 H694 0.931 . S
C722 C721 1.393 . S
C722 C723 1.382 . S
C723 H693 0.929 . S
C723 C718 1.371 . S
C723 C722 1.382 . S
C724 N687 1.423 . S
C724 C725 1.362 . S
C724 C729 1.388 . S
C725 H695 0.929 . S
C725 C724 1.362 . S
C725 C726 1.376 . S
C726 H697 0.931 . S
C726 C725 1.376 . S
C726 C727 1.396 . S
C727 C726 1.396 . S
C727 C728 1.348 . S
C727 C745 1.472 . S
C728 H698 0.929 . S
C728 C727 1.348 . S
C728 C729 1.443 . S
C729 H696 0.932 . S
C729 C724 1.388 . S
C729 C728 1.443 . S
C730 N710 1.433 . S
C730 C731 1.363 . S
C730 C735 1.370 . S
C731 H699 0.929 . S
C731 C730 1.363 . S
C731 C732 1.385 . S
C732 H700 0.930 . S
C732 C731 1.385 . S
C732 C733 1.357 . S
C733 C732 1.357 . S
C733 C734 1.406 . S
C734 H701 0.929 . S
C734 C733 1.406 . S
C734 C735 1.391 . S
C735 H702 0.931 . S
C735 C730 1.370 . S
C735 C734 1.391 . S
C736 N710 1.435 . S
C736 C737 1.358 . S
C736 C741 1.371 . S
C737 H703 0.930 . S
C737 C736 1.358 . S
C737 C738 1.405 . S
C738 H704 0.932 . S
C738 C737 1.405 . S
C738 C739 1.383 . S
C739 C738 1.383 . S
C739 C740 1.393 . S
C740 H705 0.931 . S
C740 C739 1.393 . S
C740 C741 1.382 . S
C741 H706 0.929 . S
C741 C736 1.371 . S
C741 C740 1.382 . S
C742 N710 1.423 . S
C742 C743 1.362 . S
C742 C747 1.388 . S
C743 H707 0.929 . S
C743 C742 1.362 . S
C743 C744 1.376 . S
C744 H708 0.931 . S
C744 C743 1.376 . S
C744 C745 1.396 . S
C745 C727 1.472 . S
C745 C744 1.396 . S
C745 C746 1.348 . S
C746 H709 0.929 . S
C746 C745 1.348 . S
C746 C747 1.443 . S
C747 H711 0.932 . S
C747 C742 1.388 . S
C747 C746 1.443 . S
H748 C775 0.929 . S
N749 C774 1.433 . S
N749 C780 1.435 . S
N749 C786 1.423 . S
H750 C776 0.930 . S
H751 C779 0.931 . S
H752 C778 0.929 . S
H753 C781 0.930 . S
H754 C782 0.932 . S
H755 C785 0.929 . S
H756 C784 0.931 . S
H757 C787 0.929 . S
H758 C791 0.932 . S
H759 C788 0.931 . S
H760 C790 0.929 . S
H761 C793 0.929 . S
H762 C794 0.930 . S
H763 C796 0.929 . S
H764 C797 0.931 . S
H765 C799 0.930 . S
H766 C800 0.932 . S
H767 C802 0.931 . S
H768 C803 0.929 . S
H769 C805 0.929 . S
H770 C806 0.931 . S
H771 C808 0.929 . S
N772 C792 1.433 . S
N772 C798 1.435 . S
N772 C804 1.423 . S
H773 C809 0.932 . S
C774 N749 1.433 . S
C774 C775 1.363 . S
C774 C779 1.370 . S
C775 H748 0.929 . S
C775 C774 1.363 . S
C775 C776 1.385 . S
C776 H750 0.930 . S
C776 C775 1.385 . S
C776 C777 1.357 . S
C777 C776 1.357 . S
C777 C778 1.406 . S
C778 H752 0.929 . S
C778 C777 1.406 . S
C778 C779 1.391 . S
C779 H751 0.931 . S
C779 C774 1.370 . S
C779 C778 1.391 . S
C780 N749 1.435 . S
C780 C781 1.358 . S
C780 C785 1.371 . S
C781 H753 0.930 . S
C781 C780 1.358 . S
C781 C782 1.405 . S
C782 H754 0.932 . S
C782 C781 1.405 . S
C782 C783 1.383 . S
C783 C782 1.383 . S
C783 C784 1.393 . S
C784 H756 0.931 . S
C784 C783 1.393 . S
C784 C785 1.382 . S
C785 H755 0.929 . S
C785 C780 1.371 . S
C785 C784 1.382 . S
C786 N749 1.423 . S
C786 C787 1.362 . S
C786 C791 1.388 . S
C787 H757 0.929 . S
C787 C786 1.362 . S
C787 C788 1.376 . S
C788 H759 0.931 . S
C788 C787 1.376 . S
C788 C789 1.396 . S
C789 C788 1.396 . S
C789 C790 1.348 . S
C789 C807 1.472 . S
C790 H760 0.929 . S
C790 C789 1.348 . S
C790 C791 1.443 . S
C791 H758 0.932 . S
C791 C786 1.388 . S
C791 C790 1.443 . S
C792 N772 1.433 . S
C792 C793 1.363 . S
C792 C797 1.370 . S
C793 H761 0.929 . S
C793 C792 1.363 . S
C793 C794 1.385 . S
C794 H762 0.930 . S
C794 C793 1.385 . S
C794 C795 1.357 . S
C795 C794 1.357 . S
C795 C796 1.406 . S
C796 H763 0.929 . S
C796 C795 1.406 . S
C796 C797 1.391 . S
C797 H764 0.931 . S
C797 C792 1.370 . S
C797 C796 1.391 . S
C798 N772 1.435 . S
C798 C799 1.358 . S
C798 C803 1.371 . S
C799 H765 0.930 . S
C799 C798 1.358 . S
C799 C800 1.405 . S
C800 H766 0.932 . S
C800 C799 1.405 . S
C800 C801 1.383 . S
C801 C800 1.383 . S
C801 C802 1.393 . S
C802 H767 0.931 . S
C802 C801 1.393 . S
C802 C803 1.382 . S
C803 H768 0.929 . S
C803 C798 1.371 . S
C803 C802 1.382 . S
C804 N772 1.423 . S
C804 C805 1.362 . S
C804 C809 1.388 . S
C805 H769 0.929 . S
C805 C804 1.362 . S
C805 C806 1.376 . S
C806 H770 0.931 . S
C806 C805 1.376 . S
C806 C807 1.396 . S
C807 C789 1.472 . S
C807 C806 1.396 . S
C807 C808 1.348 . S
C808 H771 0.929 . S
C808 C807 1.348 . S
C808 C809 1.443 . S
C809 H773 0.932 . S
C809 C804 1.388 . S
C809 C808 1.443 . S
H810 C837 0.929 . S
N811 C836 1.433 . S
N811 C842 1.435 . S
N811 C848 1.423 . S
H812 C838 0.930 . S
H813 C841 0.931 . S
H814 C840 0.929 . S
H815 C843 0.930 . S
H816 C844 0.932 . S
H817 C847 0.929 . S
H818 C846 0.931 . S
H819 C849 0.929 . S
H820 C853 0.932 1_655 S
H821 C850 0.931 . S
H822 C852 0.938 . S
H823 C855 0.929 . S
H824 C856 0.930 . S
H825 C858 0.929 . S
H826 C859 0.931 . S
H827 C861 0.930 . S
H828 C862 0.932 . S
H829 C864 0.931 . S
H830 C865 0.929 . S
H831 C867 0.929 . S
H832 C868 0.931 . S
H833 C870 0.979 . S
N834 C854 1.433 . S
N834 C860 1.435 . S
N834 C866 1.423 . S
H835 C871 0.932 1_655 S
C836 N811 1.433 . S
C836 C837 1.363 . S
C836 C841 1.370 1_455 S
C837 H810 0.929 . S
C837 C836 1.363 . S
C837 C838 1.385 . S
C838 H812 0.930 . S
C838 C837 1.385 . S
C838 C839 1.357 1_455 S
C839 C838 1.357 1_655 S
C839 C840 1.406 . S
C840 H814 0.929 . S
C840 C839 1.406 . S
C840 C841 1.391 . S
C841 H813 0.931 . S
C841 C836 1.370 1_655 S
C841 C840 1.391 . S
C842 N811 1.435 . S
C842 C843 1.358 1_455 S
C842 C847 1.371 . S
C843 H815 0.930 . S
C843 C842 1.358 1_655 S
C843 C844 1.405 . S
C844 H816 0.932 . S
C844 C843 1.405 . S
C844 C845 1.383 1_655 S
C845 C844 1.383 1_455 S
C845 C846 1.393 . S
C846 H818 0.931 . S
C846 C845 1.393 . S
C846 C847 1.382 . S
C847 H817 0.929 . S
C847 C842 1.371 . S
C847 C846 1.382 . S
C848 N811 1.423 . S
C848 C849 1.362 . S
C848 C853 1.388 . S
C849 H819 0.929 . S
C849 C848 1.362 . S
C849 C850 1.376 . S
C850 H821 0.931 . S
C850 C849 1.376 . S
C850 C851 1.396 . S
C851 C850 1.396 . S
C851 C852 1.348 . S
C851 C869 1.472 . S
C852 H822 0.938 . S
C852 C851 1.348 . S
C852 C853 1.443 . S
C853 H820 0.932 1_455 S
C853 C848 1.388 . S
C853 C852 1.443 . S
C854 N834 1.433 . S
C854 C855 1.363 . S
C854 C859 1.370 1_455 S
C855 H823 0.929 . S
C855 C854 1.363 . S
C855 C856 1.385 . S
C856 H824 0.930 . S
C856 C855 1.385 . S
C856 C857 1.357 1_455 S
C857 C856 1.357 1_655 S
C857 C858 1.406 . S
C858 H825 0.929 . S
C858 C857 1.406 . S
C858 C859 1.391 . S
C859 H826 0.931 . S
C859 C854 1.370 1_655 S
C859 C858 1.391 . S
C860 N834 1.435 . S
C860 C861 1.358 1_455 S
C860 C865 1.371 . S
C861 H827 0.930 . S
C861 C860 1.358 1_655 S
C861 C862 1.405 . S
C862 H828 0.932 . S
C862 C861 1.405 . S
C862 C863 1.383 1_655 S
C863 C862 1.383 1_455 S
C863 C864 1.393 . S
C864 H829 0.931 . S
C864 C863 1.393 . S
C864 C865 1.382 . S
C865 H830 0.929 . S
C865 C860 1.371 . S
C865 C864 1.382 . S
C866 N834 1.423 . S
C866 C867 1.362 . S
C866 C871 1.388 . S
C867 H831 0.929 . S
C867 C866 1.362 . S
C867 C868 1.376 . S
C868 H832 0.931 . S
C868 C867 1.376 . S
C868 C869 1.396 . S
C869 C851 1.472 . S
C869 C868 1.396 . S
C869 C870 1.348 . S
C870 H833 0.979 . S
C870 C869 1.348 . S
C870 C871 1.443 . S
C871 H835 0.932 1_455 S
C871 C866 1.388 . S
C871 C870 1.443 . S
H872 C899 0.929 . S
N873 C898 1.433 . S
N873 C904 1.435 . S
N873 C910 1.423 . S
H874 C900 0.930 . S
H875 C903 0.931 . S
H876 C902 0.929 . S
H877 C905 0.930 . S
H878 C906 0.932 . S
H879 C909 0.929 . S
H880 C908 0.931 . S
H881 C911 0.929 . S
H882 C915 0.932 . S
H883 C912 0.931 . S
H884 C914 0.929 . S
H885 C917 0.929 . S
H886 C918 0.930 . S
H887 C920 0.929 . S
H888 C921 0.931 . S
H889 C923 0.930 . S
H890 C924 0.932 . S
H891 C926 0.931 . S
H892 C927 0.929 . S
H893 C929 0.929 . S
H894 C930 0.931 . S
H895 C932 0.929 . S
N896 C916 1.433 . S
N896 C922 1.435 . S
N896 C928 1.423 . S
H897 C933 0.932 . S
C898 N873 1.433 . S
C898 C899 1.363 . S
C898 C903 1.370 . S
C899 H872 0.929 . S
C899 C898 1.363 . S
C899 C900 1.385 . S
C900 H874 0.930 . S
C900 C899 1.385 . S
C900 C901 1.357 . S
C901 C900 1.357 . S
C901 C902 1.406 . S
C902 H876 0.929 . S
C902 C901 1.406 . S
C902 C903 1.391 . S
C903 H875 0.931 . S
C903 C898 1.370 . S
C903 C902 1.391 . S
C904 N873 1.435 . S
C904 C905 1.358 . S
C904 C909 1.371 . S
C905 H877 0.930 . S
C905 C904 1.358 . S
C905 C906 1.405 . S
C906 H878 0.932 . S
C906 C905 1.405 . S
C906 C907 1.383 . S
C907 C906 1.383 . S
C907 C908 1.393 . S
C908 H880 0.931 . S
C908 C907 1.393 . S
C908 C909 1.382 . S
C909 H879 0.929 . S
C909 C904 1.371 . S
C909 C908 1.382 . S
C910 N873 1.423 . S
C910 C911 1.362 . S
C910 C915 1.388 . S
C911 H881 0.929 . S
C911 C910 1.362 . S
C911 C912 1.376 . S
C912 H883 0.931 . S
C912 C911 1.376 . S
C912 C913 1.396 . S
C913 C912 1.396 . S
C913 C914 1.348 . S
C913 C931 1.472 . S
C914 H884 0.929 . S
C914 C913 1.348 . S
C914 C915 1.443 . S
C915 H882 0.932 . S
C915 C910 1.388 . S
C915 C914 1.443 . S
C916 N896 1.433 . S
C916 C917 1.363 . S
C916 C921 1.370 . S
C917 H885 0.929 . S
C917 C916 1.363 . S
C917 C918 1.385 . S
C918 H886 0.930 . S
C918 C917 1.385 . S
C918 C919 1.357 . S
C919 C918 1.357 . S
C919 C920 1.406 . S
C920 H887 0.929 . S
C920 C919 1.406 . S
C920 C921 1.391 . S
C921 H888 0.931 . S
C921 C916 1.370 . S
C921 C920 1.391 . S
C922 N896 1.435 . S
C922 C923 1.358 . S
C922 C927 1.371 . S
C923 H889 0.930 . S
C923 C922 1.358 . S
C923 C924 1.405 . S
C924 H890 0.932 . S
C924 C923 1.405 . S
C924 C925 1.383 . S
C925 C924 1.383 . S
C925 C926 1.393 . S
C926 H891 0.931 . S
C926 C925 1.393 . S
C926 C927 1.382 . S
C927 H892 0.929 . S
C927 C922 1.371 . S
C927 C926 1.382 . S
C928 N896 1.423 . S
C928 C929 1.362 . S
C928 C933 1.388 . S
C929 H893 0.929 . S
C929 C928 1.362 . S
C929 C930 1.376 . S
C930 H894 0.931 . S
C930 C929 1.376 . S
C930 C931 1.396 . S
C931 C913 1.472 . S
C931 C930 1.396 . S
C931 C932 1.348 . S
C932 H895 0.929 . S
C932 C931 1.348 . S
C932 C933 1.443 . S
C933 H897 0.932 . S
C933 C928 1.388 . S
C933 C932 1.443 . S
H934 C961 0.929 . S
N935 C960 1.433 . S
N935 C966 1.435 . S
N935 C972 1.423 . S
H936 C962 0.930 . S
H937 C965 0.931 . S
H938 C964 0.929 . S
H939 C967 0.930 . S
H940 C968 0.932 . S
H941 C971 0.929 . S
H942 C970 0.931 . S
H943 C973 0.929 . S
H944 C977 0.932 1_545 S
H945 C974 0.931 . S
H946 C976 0.982 . S
H947 C979 0.929 . S
H948 C980 0.930 . S
H949 C982 0.929 . S
H950 C983 0.931 . S
H951 C985 0.930 . S
H952 C986 0.932 . S
H953 C988 0.931 . S
H954 C989 0.929 . S
H955 C991 0.929 . S
H956 C992 0.931 . S
H957 C994 0.938 . S
N958 C978 1.433 . S
N958 C984 1.435 . S
N958 C990 1.423 . S
H959 C995 0.932 1_545 S
C960 N935 1.433 . S
C960 C961 1.363 . S
C960 C965 1.370 1_565 S
C961 H934 0.929 . S
C961 C960 1.363 . S
C961 C962 1.385 . S
C962 H936 0.930 . S
C962 C961 1.385 . S
C962 C963 1.357 1_565 S
C963 C962 1.357 1_545 S
C963 C964 1.406 . S
C964 H938 0.929 . S
C964 C963 1.406 . S
C964 C965 1.391 . S
C965 H937 0.931 . S
C965 C960 1.370 1_545 S
C965 C964 1.391 . S
C966 N935 1.435 . S
C966 C967 1.358 1_565 S
C966 C971 1.371 . S
C967 H939 0.930 . S
C967 C966 1.358 1_545 S
C967 C968 1.405 . S
C968 H940 0.932 . S
C968 C967 1.405 . S
C968 C969 1.383 1_545 S
C969 C968 1.383 1_565 S
C969 C970 1.393 . S
C970 H942 0.931 . S
C970 C969 1.393 . S
C970 C971 1.382 . S
C971 H941 0.929 . S
C971 C966 1.371 . S
C971 C970 1.382 . S
C972 N935 1.423 . S
C972 C973 1.362 . S
C972 C977 1.388 . S
C973 H943 0.929 . S
C973 C972 1.362 . S
C973 C974 1.376 . S
C974 H945 0.931 . S
C974 C973 1.376 . S
C974 C975 1.396 . S
C975 C974 1.396 . S
C975 C976 1.348 . S
C975 C993 1.472 . S
C976 H946 0.982 . S
C976 C975 1.348 . S
C976 C977 1.443 . S
C977 H944 0.932 1_565 S
C977 C972 1.388 . S
C977 C976 1.443 . S
C978 N958 1.433 . S
C978 C979 1.363 . S
C978 C983 1.370 1_565 S
C979 H947 0.929 . S
C979 C978 1.363 . S
C979 C980 1.385 . S
C980 H948 0.930 . S
C980 C979 1.385 . S
C980 C981 1.357 1_565 S
C981 C980 1.357 1_545 S
C981 C982 1.406 . S
C982 H949 0.929 . S
C982 C981 1.406 . S
C982 C983 1.391 . S
C983 H950 0.931 . S
C983 C978 1.370 1_545 S
C983 C982 1.391 . S
C984 N958 1.435 . S
C984 C985 1.358 1_565 S
C984 C989 1.371 . S
C985 H951 0.930 . S
C985 C984 1.358 1_545 S
C985 C986 1.405 . S
C986 H952 0.932 . S
C986 C985 1.405 . S
C986 C987 1.383 1_545 S
C987 C986 1.383 1_565 S
C987 C988 1.393 . S
C988 H953 0.931 . S
C988 C987 1.393 . S
C988 C989 1.382 . S
C989 H954 0.929 . S
C989 C984 1.371 . S
C989 C988 1.382 . S
C990 N958 1.423 . S
C990 C991 1.362 . S
C990 C995 1.388 . S
C991 H955 0.929 . S
C991 C990 1.362 . S
C991 C992 1.376 . S
C992 H956 0.931 . S
C992 C991 1.376 . S
C992 C993 1.396 . S
C993 C975 1.472 . S
C993 C992 1.396 . S
C993 C994 1.348 . S
C994 H957 0.938 . S
C994 C993 1.348 . S
C994 C995 1.443 . S
C995 H959 0.932 1_565 S
C995 C990 1.388 . S
C995 C994 1.443 . S
H996 C1023 0.929 . S
N997 C1022 1.433 . S
N997 C1028 1.435 . S
N997 C1034 1.423 . S
H998 C1024 0.930 . S
H999 C1027 0.931 . S
H1000 C1026 0.929 . S
H1001 C1029 0.930 . S
H1002 C1030 0.932 . S
H1003 C1033 0.929 . S
H1004 C1032 0.931 . S
H1005 C1035 0.929 . S
H1006 C1039 1.012 . S
H1007 C1036 0.931 . S
H1008 C1038 0.918 1_545 S
H1009 C1041 0.929 . S
H1010 C1042 0.930 . S
H1011 C1044 0.929 . S
H1012 C1045 0.993 . S
H1013 C1047 0.930 . S
H1014 C1048 0.932 . S
H1015 C1050 0.931 . S
H1016 C1051 0.929 . S
H1017 C1053 0.929 . S
H1018 C1054 0.931 . S
H1019 C1056 0.878 1_545 S
N1020 C1040 1.433 . S
N1020 C1046 1.435 . S
N1020 C1052 1.423 . S
H1021 C1057 0.957 . S
C1022 N997 1.433 . S
C1022 C1023 1.363 . S
C1022 C1027 1.370 1_565 S
C1023 H996 0.929 . S
C1023 C1022 1.363 . S
C1023 C1024 1.385 . S
C1024 H998 0.930 . S
C1024 C1023 1.385 . S
C1024 C1025 1.357 . S
C1025 C1024 1.357 . S
C1025 C1026 1.406 1_565 S
C1026 H1000 0.929 . S
C1026 C1025 1.406 1_545 S
C1026 C1027 1.391 . S
C1027 H999 0.931 . S
C1027 C1022 1.370 1_545 S
C1027 C1026 1.391 . S
C1028 N997 1.435 . S
C1028 C1029 1.358 1_565 S
C1028 C1033 1.371 . S
C1029 H1001 0.930 . S
C1029 C1028 1.358 1_545 S
C1029 C1030 1.405 . S
C1030 H1002 0.932 . S
C1030 C1029 1.405 . S
C1030 C1031 1.383 . S
C1031 C1030 1.383 . S
C1031 C1032 1.393 1_545 S
C1032 H1004 0.931 . S
C1032 C1031 1.393 1_565 S
C1032 C1033 1.382 . S
C1033 H1003 0.929 . S
C1033 C1028 1.371 . S
C1033 C1032 1.382 . S
C1034 N997 1.423 . S
C1034 C1035 1.362 . S
C1034 C1039 1.366 1_565 S
C1035 H1005 0.929 . S
C1035 C1034 1.362 . S
C1035 C1036 1.376 . S
C1036 H1007 0.931 . S
C1036 C1035 1.376 . S
C1036 C1037 1.396 . S
C1037 C1036 1.396 . S
C1037 C1038 1.398 . S
C1037 C1055 1.472 . S
C1038 H1008 0.918 1_565 S
C1038 C1037 1.398 . S
C1038 C1039 1.355 1_565 S
C1039 H1006 1.012 . S
C1039 C1034 1.366 1_545 S
C1039 C1038 1.355 1_545 S
C1040 N1020 1.433 . S
C1040 C1041 1.363 . S
C1040 C1045 1.322 1_565 S
C1041 H1009 0.929 . S
C1041 C1040 1.363 . S
C1041 C1042 1.385 . S
C1042 H1010 0.930 . S
C1042 C1041 1.385 . S
C1042 C1043 1.357 . S
C1043 C1042 1.357 . S
C1043 C1044 1.406 1_565 S
C1044 H1011 0.929 . S
C1044 C1043 1.406 1_545 S
C1044 C1045 1.382 . S
C1045 H1012 0.993 . S
C1045 C1040 1.322 1_545 S
C1045 C1044 1.382 . S
C1046 N1020 1.435 . S
C1046 C1047 1.358 1_565 S
C1046 C1051 1.371 . S
C1047 H1013 0.930 . S
C1047 C1046 1.358 1_545 S
C1047 C1048 1.405 . S
C1048 H1014 0.932 . S
C1048 C1047 1.405 . S
C1048 C1049 1.383 . S
C1049 C1048 1.383 . S
C1049 C1050 1.393 1_545 S
C1050 H1015 0.931 . S
C1050 C1049 1.393 1_565 S
C1050 C1051 1.382 . S
C1051 H1016 0.929 . S
C1051 C1046 1.371 . S
C1051 C1050 1.382 . S
C1052 N1020 1.423 . S
C1052 C1053 1.362 . S
C1052 C1057 1.336 1_565 S
C1053 H1017 0.929 . S
C1053 C1052 1.362 . S
C1053 C1054 1.376 . S
C1054 H1018 0.931 . S
C1054 C1053 1.376 . S
C1054 C1055 1.396 . S
C1055 C1037 1.472 . S
C1055 C1054 1.396 . S
C1055 C1056 1.369 . S
C1056 H1019 0.878 1_565 S
C1056 C1055 1.369 . S
C1056 C1057 1.509 1_565 S
C1057 H1021 0.957 . S
C1057 C1052 1.336 1_545 S
C1057 C1056 1.509 1_545 S
H1058 C1085 0.929 . S
N1059 C1084 1.433 . S
N1059 C1090 1.435 . S
N1059 C1096 1.423 . S
H1060 C1086 0.930 . S
H1061 C1089 0.931 . S
H1062 C1088 0.929 . S
H1063 C1091 0.930 . S
H1064 C1092 0.932 . S
H1065 C1095 0.929 . S
H1066 C1094 0.931 . S
H1067 C1097 0.929 . S
H1068 C1101 0.932 1_455 S
H1069 C1098 0.931 . S
H1070 C1100 0.975 . S
H1071 C1103 0.929 . S
H1072 C1104 0.930 . S
H1073 C1106 0.929 . S
H1074 C1107 0.931 . S
H1075 C1109 0.930 . S
H1076 C1110 0.932 . S
H1077 C1112 0.931 . S
H1078 C1113 0.929 . S
H1079 C1115 0.929 . S
H1080 C1116 0.931 . S
H1081 C1118 0.938 . S
N1082 C1102 1.433 . S
N1082 C1108 1.435 . S
N1082 C1114 1.423 . S
H1083 C1119 0.932 1_455 S
C1084 N1059 1.433 . S
C1084 C1085 1.363 . S
C1084 C1089 1.370 1_655 S
C1085 H1058 0.929 . S
C1085 C1084 1.363 . S
C1085 C1086 1.385 . S
C1086 H1060 0.930 . S
C1086 C1085 1.385 . S
C1086 C1087 1.357 1_655 S
C1087 C1086 1.357 1_455 S
C1087 C1088 1.406 . S
C1088 H1062 0.929 . S
C1088 C1087 1.406 . S
C1088 C1089 1.391 . S
C1089 H1061 0.931 . S
C1089 C1084 1.370 1_455 S
C1089 C1088 1.391 . S
C1090 N1059 1.435 . S
C1090 C1091 1.358 1_655 S
C1090 C1095 1.371 . S
C1091 H1063 0.930 . S
C1091 C1090 1.358 1_455 S
C1091 C1092 1.405 . S
C1092 H1064 0.932 . S
C1092 C1091 1.405 . S
C1092 C1093 1.383 1_455 S
C1093 C1092 1.383 1_655 S
C1093 C1094 1.393 . S
C1094 H1066 0.931 . S
C1094 C1093 1.393 . S
C1094 C1095 1.382 . S
C1095 H1065 0.929 . S
C1095 C1090 1.371 . S
C1095 C1094 1.382 . S
C1096 N1059 1.423 . S
C1096 C1097 1.362 . S
C1096 C1101 1.388 . S
C1097 H1067 0.929 . S
C1097 C1096 1.362 . S
C1097 C1098 1.376 . S
C1098 H1069 0.931 . S
C1098 C1097 1.376 . S
C1098 C1099 1.396 . S
C1099 C1098 1.396 . S
C1099 C1100 1.348 . S
C1099 C1117 1.472 . S
C1100 H1070 0.975 . S
C1100 C1099 1.348 . S
C1100 C1101 1.443 . S
C1101 H1068 0.932 1_655 S
C1101 C1096 1.388 . S
C1101 C1100 1.443 . S
C1102 N1082 1.433 . S
C1102 C1103 1.363 . S
C1102 C1107 1.370 1_655 S
C1103 H1071 0.929 . S
C1103 C1102 1.363 . S
C1103 C1104 1.385 . S
C1104 H1072 0.930 . S
C1104 C1103 1.385 . S
C1104 C1105 1.357 1_655 S
C1105 C1104 1.357 1_455 S
C1105 C1106 1.406 . S
C1106 H1073 0.929 . S
C1106 C1105 1.406 . S
C1106 C1107 1.391 . S
C1107 H1074 0.931 . S
C1107 C1102 1.370 1_455 S
C1107 C1106 1.391 . S
C1108 N1082 1.435 . S
C1108 C1109 1.358 1_655 S
C1108 C1113 1.371 . S
C1109 H1075 0.930 . S
C1109 C1108 1.358 1_455 S
C1109 C1110 1.405 . S
C1110 H1076 0.932 . S
C1110 C1109 1.405 . S
C1110 C1111 1.383 1_455 S
C1111 C1110 1.383 1_655 S
C1111 C1112 1.393 . S
C1112 H1077 0.931 . S
C1112 C1111 1.393 . S
C1112 C1113 1.382 . S
C1113 H1078 0.929 . S
C1113 C1108 1.371 . S
C1113 C1112 1.382 . S
C1114 N1082 1.423 . S
C1114 C1115 1.362 . S
C1114 C1119 1.388 . S
C1115 H1079 0.929 . S
C1115 C1114 1.362 . S
C1115 C1116 1.376 . S
C1116 H1080 0.931 . S
C1116 C1115 1.376 . S
C1116 C1117 1.396 . S
C1117 C1099 1.472 . S
C1117 C1116 1.396 . S
C1117 C1118 1.348 . S
C1118 H1081 0.938 . S
C1118 C1117 1.348 . S
C1118 C1119 1.443 . S
C1119 H1083 0.932 1_655 S
C1119 C1114 1.388 . S
C1119 C1118 1.443 . S
H1120 C1147 0.929 . S
N1121 C1146 1.433 . S
N1121 C1152 1.435 . S
N1121 C1158 1.423 . S
H1122 C1148 0.930 . S
H1123 C1151 0.931 . S
H1124 C1150 0.929 . S
H1125 C1153 0.930 . S
H1126 C1154 0.932 . S
H1127 C1157 0.929 . S
H1128 C1156 0.931 . S
H1129 C1159 0.929 . S
H1130 C1163 0.932 . S
H1131 C1160 0.931 . S
H1132 C1162 0.929 . S
H1133 C1165 0.929 . S
H1134 C1166 0.930 . S
H1135 C1168 0.929 . S
H1136 C1169 0.931 . S
H1137 C1171 0.930 . S
H1138 C1172 0.932 . S
H1139 C1174 0.931 . S
H1140 C1175 0.929 . S
H1141 C1177 0.929 . S
H1142 C1178 0.931 . S
H1143 C1180 0.929 . S
N1144 C1164 1.433 . S
N1144 C1170 1.435 . S
N1144 C1176 1.423 . S
H1145 C1181 0.932 . S
C1146 N1121 1.433 . S
C1146 C1147 1.363 . S
C1146 C1151 1.370 . S
C1147 H1120 0.929 . S
C1147 C1146 1.363 . S
C1147 C1148 1.385 . S
C1148 H1122 0.930 . S
C1148 C1147 1.385 . S
C1148 C1149 1.357 . S
C1149 C1148 1.357 . S
C1149 C1150 1.406 . S
C1150 H1124 0.929 . S
C1150 C1149 1.406 . S
C1150 C1151 1.391 . S
C1151 H1123 0.931 . S
C1151 C1146 1.370 . S
C1151 C1150 1.391 . S
C1152 N1121 1.435 . S
C1152 C1153 1.358 . S
C1152 C1157 1.371 . S
C1153 H1125 0.930 . S
C1153 C1152 1.358 . S
C1153 C1154 1.405 . S
C1154 H1126 0.932 . S
C1154 C1153 1.405 . S
C1154 C1155 1.383 . S
C1155 C1154 1.383 . S
C1155 C1156 1.393 . S
C1156 H1128 0.931 . S
C1156 C1155 1.393 . S
C1156 C1157 1.382 . S
C1157 H1127 0.929 . S
C1157 C1152 1.371 . S
C1157 C1156 1.382 . S
C1158 N1121 1.423 . S
C1158 C1159 1.362 . S
C1158 C1163 1.388 . S
C1159 H1129 0.929 . S
C1159 C1158 1.362 . S
C1159 C1160 1.376 . S
C1160 H1131 0.931 . S
C1160 C1159 1.376 . S
C1160 C1161 1.396 . S
C1161 C1160 1.396 . S
C1161 C1162 1.348 . S
C1161 C1179 1.472 . S
C1162 H1132 0.929 . S
C1162 C1161 1.348 . S
C1162 C1163 1.443 . S
C1163 H1130 0.932 . S
C1163 C1158 1.388 . S
C1163 C1162 1.443 . S
C1164 N1144 1.433 . S
C1164 C1165 1.363 . S
C1164 C1169 1.370 . S
C1165 H1133 0.929 . S
C1165 C1164 1.363 . S
C1165 C1166 1.385 . S
C1166 H1134 0.930 . S
C1166 C1165 1.385 . S
C1166 C1167 1.357 . S
C1167 C1166 1.357 . S
C1167 C1168 1.406 . S
C1168 H1135 0.929 . S
C1168 C1167 1.406 . S
C1168 C1169 1.391 . S
C1169 H1136 0.931 . S
C1169 C1164 1.370 . S
C1169 C1168 1.391 . S
C1170 N1144 1.435 . S
C1170 C1171 1.358 . S
C1170 C1175 1.371 . S
C1171 H1137 0.930 . S
C1171 C1170 1.358 . S
C1171 C1172 1.405 . S
C1172 H1138 0.932 . S
C1172 C1171 1.405 . S
C1172 C1173 1.383 . S
C1173 C1172 1.383 . S
C1173 C1174 1.393 . S
C1174 H1139 0.931 . S
C1174 C1173 1.393 . S
C1174 C1175 1.382 . S
C1175 H1140 0.929 . S
C1175 C1170 1.371 . S
C1175 C1174 1.382 . S
C1176 N1144 1.423 . S
C1176 C1177 1.362 . S
C1176 C1181 1.388 . S
C1177 H1141 0.929 . S
C1177 C1176 1.362 . S
C1177 C1178 1.376 . S
C1178 H1142 0.931 . S
C1178 C1177 1.376 . S
C1178 C1179 1.396 . S
C1179 C1161 1.472 . S
C1179 C1178 1.396 . S
C1179 C1180 1.348 . S
C1180 H1143 0.929 . S
C1180 C1179 1.348 . S
C1180 C1181 1.443 . S
C1181 H1145 0.932 . S
C1181 C1176 1.388 . S
C1181 C1180 1.443 . S
H1182 C1209 0.929 . S
N1183 C1208 1.433 . S
N1183 C1214 1.435 . S
N1183 C1220 1.423 . S
H1184 C1210 0.930 . S
H1185 C1213 0.931 . S
H1186 C1212 0.929 . S
H1187 C1215 0.930 . S
H1188 C1216 0.932 . S
H1189 C1219 0.929 . S
H1190 C1218 0.931 . S
H1191 C1221 0.929 . S
H1192 C1225 0.932 . S
H1193 C1222 0.931 . S
H1194 C1224 0.929 . S
H1195 C1227 0.929 . S
H1196 C1228 0.930 . S
H1197 C1230 0.929 . S
H1198 C1231 0.931 . S
H1199 C1233 0.930 . S
H1200 C1234 0.932 . S
H1201 C1236 0.931 . S
H1202 C1237 0.929 . S
H1203 C1239 0.929 . S
H1204 C1240 0.931 . S
H1205 C1242 0.929 . S
N1206 C1226 1.433 . S
N1206 C1232 1.435 . S
N1206 C1238 1.423 . S
H1207 C1243 0.932 . S
C1208 N1183 1.433 . S
C1208 C1209 1.363 . S
C1208 C1213 1.370 . S
C1209 H1182 0.929 . S
C1209 C1208 1.363 . S
C1209 C1210 1.385 . S
C1210 H1184 0.930 . S
C1210 C1209 1.385 . S
C1210 C1211 1.357 . S
C1211 C1210 1.357 . S
C1211 C1212 1.406 . S
C1212 H1186 0.929 . S
C1212 C1211 1.406 . S
C1212 C1213 1.391 . S
C1213 H1185 0.931 . S
C1213 C1208 1.370 . S
C1213 C1212 1.391 . S
C1214 N1183 1.435 . S
C1214 C1215 1.358 . S
C1214 C1219 1.371 . S
C1215 H1187 0.930 . S
C1215 C1214 1.358 . S
C1215 C1216 1.405 . S
C1216 H1188 0.932 . S
C1216 C1215 1.405 . S
C1216 C1217 1.383 . S
C1217 C1216 1.383 . S
C1217 C1218 1.393 . S
C1218 H1190 0.931 . S
C1218 C1217 1.393 . S
C1218 C1219 1.382 . S
C1219 H1189 0.929 . S
C1219 C1214 1.371 . S
C1219 C1218 1.382 . S
C1220 N1183 1.423 . S
C1220 C1221 1.362 . S
C1220 C1225 1.388 . S
C1221 H1191 0.929 . S
C1221 C1220 1.362 . S
C1221 C1222 1.376 . S
C1222 H1193 0.931 . S
C1222 C1221 1.376 . S
C1222 C1223 1.396 . S
C1223 C1222 1.396 . S
C1223 C1224 1.348 . S
C1223 C1241 1.472 . S
C1224 H1194 0.929 . S
C1224 C1223 1.348 . S
C1224 C1225 1.443 . S
C1225 H1192 0.932 . S
C1225 C1220 1.388 . S
C1225 C1224 1.443 . S
C1226 N1206 1.433 . S
C1226 C1227 1.363 . S
C1226 C1231 1.370 . S
C1227 H1195 0.929 . S
C1227 C1226 1.363 . S
C1227 C1228 1.385 . S
C1228 H1196 0.930 . S
C1228 C1227 1.385 . S
C1228 C1229 1.357 . S
C1229 C1228 1.357 . S
C1229 C1230 1.406 . S
C1230 H1197 0.929 . S
C1230 C1229 1.406 . S
C1230 C1231 1.391 . S
C1231 H1198 0.931 . S
C1231 C1226 1.370 . S
C1231 C1230 1.391 . S
C1232 N1206 1.435 . S
C1232 C1233 1.358 . S
C1232 C1237 1.371 . S
C1233 H1199 0.930 . S
C1233 C1232 1.358 . S
C1233 C1234 1.405 . S
C1234 H1200 0.932 . S
C1234 C1233 1.405 . S
C1234 C1235 1.383 . S
C1235 C1234 1.383 . S
C1235 C1236 1.393 . S
C1236 H1201 0.931 . S
C1236 C1235 1.393 . S
C1236 C1237 1.382 . S
C1237 H1202 0.929 . S
C1237 C1232 1.371 . S
C1237 C1236 1.382 . S
C1238 N1206 1.423 . S
C1238 C1239 1.362 . S
C1238 C1243 1.388 . S
C1239 H1203 0.929 . S
C1239 C1238 1.362 . S
C1239 C1240 1.376 . S
C1240 H1204 0.931 . S
C1240 C1239 1.376 . S
C1240 C1241 1.396 . S
C1241 C1223 1.472 . S
C1241 C1240 1.396 . S
C1241 C1242 1.348 . S
C1242 H1205 0.929 . S
C1242 C1241 1.348 . S
C1242 C1243 1.443 . S
C1243 H1207 0.932 . S
C1243 C1238 1.388 . S
C1243 C1242 1.443 . S
H1244 C1271 0.929 . S
N1245 C1270 1.433 . S
N1245 C1276 1.435 . S
N1245 C1282 1.423 . S
H1246 C1272 0.930 . S
H1247 C1275 0.931 . S
H1248 C1274 0.929 . S
H1249 C1277 0.930 . S
H1250 C1278 0.932 . S
H1251 C1281 0.929 . S
H1252 C1280 0.931 . S
H1253 C1283 0.929 . S
H1254 C1287 0.932 . S
H1255 C1284 0.931 . S
H1256 C1286 0.929 . S
H1257 C1289 0.929 . S
H1258 C1290 0.930 . S
H1259 C1292 0.929 . S
H1260 C1293 0.931 . S
H1261 C1295 0.930 . S
H1262 C1296 0.932 . S
H1263 C1298 0.931 . S
H1264 C1299 0.929 . S
H1265 C1301 0.929 . S
H1266 C1302 0.931 . S
H1267 C1304 0.929 . S
N1268 C1288 1.433 . S
N1268 C1294 1.435 . S
N1268 C1300 1.423 . S
H1269 C1305 0.932 . S
C1270 N1245 1.433 . S
C1270 C1271 1.363 . S
C1270 C1275 1.370 . S
C1271 H1244 0.929 . S
C1271 C1270 1.363 . S
C1271 C1272 1.385 . S
C1272 H1246 0.930 . S
C1272 C1271 1.385 . S
C1272 C1273 1.357 . S
C1273 C1272 1.357 . S
C1273 C1274 1.406 . S
C1274 H1248 0.929 . S
C1274 C1273 1.406 . S
C1274 C1275 1.391 . S
C1275 H1247 0.931 . S
C1275 C1270 1.370 . S
C1275 C1274 1.391 . S
C1276 N1245 1.435 . S
C1276 C1277 1.358 . S
C1276 C1281 1.371 . S
C1277 H1249 0.930 . S
C1277 C1276 1.358 . S
C1277 C1278 1.405 . S
C1278 H1250 0.932 . S
C1278 C1277 1.405 . S
C1278 C1279 1.383 . S
C1279 C1278 1.383 . S
C1279 C1280 1.393 . S
C1280 H1252 0.931 . S
C1280 C1279 1.393 . S
C1280 C1281 1.382 . S
C1281 H1251 0.929 . S
C1281 C1276 1.371 . S
C1281 C1280 1.382 . S
C1282 N1245 1.423 . S
C1282 C1283 1.362 . S
C1282 C1287 1.388 . S
C1283 H1253 0.929 . S
C1283 C1282 1.362 . S
C1283 C1284 1.376 . S
C1284 H1255 0.931 . S
C1284 C1283 1.376 . S
C1284 C1285 1.396 . S
C1285 C1284 1.396 . S
C1285 C1286 1.348 . S
C1285 C1303 1.472 . S
C1286 H1256 0.929 . S
C1286 C1285 1.348 . S
C1286 C1287 1.443 . S
C1287 H1254 0.932 . S
C1287 C1282 1.388 . S
C1287 C1286 1.443 . S
C1288 N1268 1.433 . S
C1288 C1289 1.363 . S
C1288 C1293 1.370 . S
C1289 H1257 0.929 . S
C1289 C1288 1.363 . S
C1289 C1290 1.385 . S
C1290 H1258 0.930 . S
C1290 C1289 1.385 . S
C1290 C1291 1.357 . S
C1291 C1290 1.357 . S
C1291 C1292 1.406 . S
C1292 H1259 0.929 . S
C1292 C1291 1.406 . S
C1292 C1293 1.391 . S
C1293 H1260 0.931 . S
C1293 C1288 1.370 . S
C1293 C1292 1.391 . S
C1294 N1268 1.435 . S
C1294 C1295 1.358 . S
C1294 C1299 1.371 . S
C1295 H1261 0.930 . S
C1295 C1294 1.358 . S
C1295 C1296 1.405 . S
C1296 H1262 0.932 . S
C1296 C1295 1.405 . S
C1296 C1297 1.383 . S
C1297 C1296 1.383 . S
C1297 C1298 1.393 . S
C1298 H1263 0.931 . S
C1298 C1297 1.393 . S
C1298 C1299 1.382 . S
C1299 H1264 0.929 . S
C1299 C1294 1.371 . S
C1299 C1298 1.382 . S
C1300 N1268 1.423 . S
C1300 C1301 1.362 . S
C1300 C1305 1.388 . S
C1301 H1265 0.929 . S
C1301 C1300 1.362 . S
C1301 C1302 1.376 . S
C1302 H1266 0.931 . S
C1302 C1301 1.376 . S
C1302 C1303 1.396 . S
C1303 C1285 1.472 . S
C1303 C1302 1.396 . S
C1303 C1304 1.348 . S
C1304 H1267 0.929 . S
C1304 C1303 1.348 . S
C1304 C1305 1.443 . S
C1305 H1269 0.932 . S
C1305 C1300 1.388 . S
C1305 C1304 1.443 . S
H1306 C1333 0.929 . S
N1307 C1332 1.433 . S
N1307 C1338 1.435 . S
N1307 C1344 1.423 . S
H1308 C1334 0.930 . S
H1309 C1337 0.931 . S
H1310 C1336 0.929 . S
H1311 C1339 0.930 . S
H1312 C1340 0.932 . S
H1313 C1343 0.929 . S
H1314 C1342 0.931 . S
H1315 C1345 0.929 . S
H1316 C1349 0.932 . S
H1317 C1346 0.931 . S
H1318 C1348 0.929 . S
H1319 C1351 0.929 . S
H1320 C1352 0.930 . S
H1321 C1354 0.929 . S
H1322 C1355 0.931 . S
H1323 C1357 0.930 . S
H1324 C1358 0.932 . S
H1325 C1360 0.931 . S
H1326 C1361 0.929 . S
H1327 C1363 0.929 . S
H1328 C1364 0.931 . S
H1329 C1366 0.929 . S
N1330 C1350 1.433 . S
N1330 C1356 1.435 . S
N1330 C1362 1.423 . S
H1331 C1367 0.932 . S
C1332 N1307 1.433 . S
C1332 C1333 1.363 . S
C1332 C1337 1.370 . S
C1333 H1306 0.929 . S
C1333 C1332 1.363 . S
C1333 C1334 1.385 . S
C1334 H1308 0.930 . S
C1334 C1333 1.385 . S
C1334 C1335 1.357 . S
C1335 C1334 1.357 . S
C1335 C1336 1.406 . S
C1336 H1310 0.929 . S
C1336 C1335 1.406 . S
C1336 C1337 1.391 . S
C1337 H1309 0.931 . S
C1337 C1332 1.370 . S
C1337 C1336 1.391 . S
C1338 N1307 1.435 . S
C1338 C1339 1.358 . S
C1338 C1343 1.371 . S
C1339 H1311 0.930 . S
C1339 C1338 1.358 . S
C1339 C1340 1.405 . S
C1340 H1312 0.932 . S
C1340 C1339 1.405 . S
C1340 C1341 1.383 . S
C1341 C1340 1.383 . S
C1341 C1342 1.393 . S
C1342 H1314 0.931 . S
C1342 C1341 1.393 . S
C1342 C1343 1.382 . S
C1343 H1313 0.929 . S
C1343 C1338 1.371 . S
C1343 C1342 1.382 . S
C1344 N1307 1.423 . S
C1344 C1345 1.362 . S
C1344 C1349 1.388 . S
C1345 H1315 0.929 . S
C1345 C1344 1.362 . S
C1345 C1346 1.376 . S
C1346 H1317 0.931 . S
C1346 C1345 1.376 . S
C1346 C1347 1.396 . S
C1347 C1346 1.396 . S
C1347 C1348 1.348 . S
C1347 C1365 1.472 . S
C1348 H1318 0.929 . S
C1348 C1347 1.348 . S
C1348 C1349 1.443 . S
C1349 H1316 0.932 . S
C1349 C1344 1.388 . S
C1349 C1348 1.443 . S
C1350 N1330 1.433 . S
C1350 C1351 1.363 . S
C1350 C1355 1.370 . S
C1351 H1319 0.929 . S
C1351 C1350 1.363 . S
C1351 C1352 1.385 . S
C1352 H1320 0.930 . S
C1352 C1351 1.385 . S
C1352 C1353 1.357 . S
C1353 C1352 1.357 . S
C1353 C1354 1.406 . S
C1354 H1321 0.929 . S
C1354 C1353 1.406 . S
C1354 C1355 1.391 . S
C1355 H1322 0.931 . S
C1355 C1350 1.370 . S
C1355 C1354 1.391 . S
C1356 N1330 1.435 . S
C1356 C1357 1.358 . S
C1356 C1361 1.371 . S
C1357 H1323 0.930 . S
C1357 C1356 1.358 . S
C1357 C1358 1.405 . S
C1358 H1324 0.932 . S
C1358 C1357 1.405 . S
C1358 C1359 1.383 . S
C1359 C1358 1.383 . S
C1359 C1360 1.393 . S
C1360 H1325 0.931 . S
C1360 C1359 1.393 . S
C1360 C1361 1.382 . S
C1361 H1326 0.929 . S
C1361 C1356 1.371 . S
C1361 C1360 1.382 . S
C1362 N1330 1.423 . S
C1362 C1363 1.362 . S
C1362 C1367 1.388 . S
C1363 H1327 0.929 . S
C1363 C1362 1.362 . S
C1363 C1364 1.376 . S
C1364 H1328 0.931 . S
C1364 C1363 1.376 . S
C1364 C1365 1.396 . S
C1365 C1347 1.472 . S
C1365 C1364 1.396 . S
C1365 C1366 1.348 . S
C1366 H1329 0.929 . S
C1366 C1365 1.348 . S
C1366 C1367 1.443 . S
C1367 H1331 0.932 . S
C1367 C1362 1.388 . S
C1367 C1366 1.443 . S
H1368 C1376 0.950 . S
H1369 C1381 0.950 . S
H1370 C1378 0.950 . S
H1371 C1380 0.950 . S
H1372 C1382 0.950 . S
H1373 C1384 0.950 . S
H1374 C1386 0.950 . S
H1375 C1387 0.950 . S
C1376 H1368 0.950 . S
C1376 C1377 1.367 1_455 S
C1376 C1378 1.391 . S
C1377 C1376 1.367 1_655 S
C1377 C1381 1.426 . S
C1378 H1370 0.950 . S
C1378 C1376 1.391 . S
C1378 C1379 1.400 1_455 S
C1379 C1378 1.400 1_655 S
C1379 C1380 1.398 . S
C1379 C1385 1.491 . S
C1380 H1371 0.950 . S
C1380 C1379 1.398 . S
C1380 C1381 1.391 . S
C1381 H1369 0.950 . S
C1381 C1377 1.426 . S
C1381 C1380 1.391 . S
C1382 H1372 0.950 . S
C1382 C1383 1.386 . S
C1382 C1384 1.391 . S
C1383 C1382 1.386 . S
C1383 C1387 1.393 1_655 S
C1384 H1373 0.950 . S
C1384 C1382 1.391 . S
C1384 C1385 1.400 . S
C1385 C1379 1.491 . S
C1385 C1384 1.400 . S
C1385 C1386 1.398 1_655 S
C1386 H1374 0.950 . S
C1386 C1385 1.398 1_455 S
C1386 C1387 1.391 . S
C1387 H1375 0.950 . S
C1387 C1383 1.393 1_455 S
C1387 C1386 1.391 . S
H1388 C1396 0.950 . S
H1389 C1401 0.950 . S
H1390 C1398 0.950 . S
H1391 C1400 0.950 . S
H1392 C1402 0.950 . S
H1393 C1404 0.950 . S
H1394 C1406 0.950 . S
H1395 C1407 0.950 . S
C1396 H1388 0.950 . S
C1396 C1397 1.386 . S
C1396 C1398 1.391 . S
C1397 C1396 1.386 . S
C1397 C1401 1.393 . S
C1398 H1390 0.950 . S
C1398 C1396 1.391 . S
C1398 C1399 1.400 . S
C1399 C1398 1.400 . S
C1399 C1400 1.398 . S
C1399 C1405 1.491 . S
C1400 H1391 0.950 . S
C1400 C1399 1.398 . S
C1400 C1401 1.391 . S
C1401 H1389 0.950 . S
C1401 C1397 1.393 . S
C1401 C1400 1.391 . S
C1402 H1392 0.950 . S
C1402 C1403 1.386 . S
C1402 C1404 1.391 . S
C1403 C1402 1.386 . S
C1403 C1407 1.393 . S
C1404 H1393 0.950 . S
C1404 C1402 1.391 . S
C1404 C1405 1.400 . S
C1405 C1399 1.491 . S
C1405 C1404 1.400 . S
C1405 C1406 1.398 . S
C1406 H1394 0.950 . S
C1406 C1405 1.398 . S
C1406 C1407 1.391 . S
C1407 H1395 0.950 . S
C1407 C1403 1.393 . S
C1407 C1406 1.391 . S
H1408 C1416 0.950 . S
H1409 C1421 0.950 . S
H1410 C1418 0.950 . S
H1411 C1420 0.950 . S
H1412 C1422 0.950 . S
H1413 C1424 0.950 . S
H1414 C1426 0.952 1_565 S
H1415 C1427 0.946 1_565 S
C1416 H1408 0.950 . S
C1416 C1417 1.386 1_565 S
C1416 C1418 1.391 . S
C1417 C1416 1.386 1_545 S
C1417 C1421 1.393 . S
C1418 H1410 0.950 . S
C1418 C1416 1.391 . S
C1418 C1419 1.400 1_565 S
C1419 C1418 1.400 1_545 S
C1419 C1420 1.398 . S
C1419 C1425 1.491 . S
C1420 H1411 0.950 . S
C1420 C1419 1.398 . S
C1420 C1421 1.391 . S
C1421 H1409 0.950 . S
C1421 C1417 1.393 . S
C1421 C1420 1.391 . S
C1422 H1412 0.950 . S
C1422 C1423 1.386 . S
C1422 C1424 1.391 . S
C1423 C1422 1.386 . S
C1423 C1427 1.391 . S
C1424 H1413 0.950 . S
C1424 C1422 1.391 . S
C1424 C1425 1.400 . S
C1425 C1419 1.491 . S
C1425 C1424 1.400 . S
C1425 C1426 1.401 . S
C1426 H1414 0.952 1_545 S
C1426 C1425 1.401 . S
C1426 C1427 1.392 . S
C1427 H1415 0.946 1_545 S
C1427 C1423 1.391 . S
C1427 C1426 1.392 . S
H1428 C1436 0.950 . S
H1429 C1441 0.950 . S
H1430 C1438 0.950 . S
H1431 C1440 0.950 . S
H1432 C1442 0.950 . S
H1433 C1444 0.950 . S
H1434 C1446 0.950 . S
H1435 C1447 0.950 . S
C1436 H1428 0.950 . S
C1436 C1437 1.385 . S
C1436 C1438 1.391 . S
C1437 C1436 1.385 . S
C1437 C1441 1.394 1_545 S
C1438 H1430 0.950 . S
C1438 C1436 1.391 . S
C1438 C1439 1.400 1_545 S
C1439 C1438 1.400 1_565 S
C1439 C1440 1.398 . S
C1439 C1445 1.491 . S
C1440 H1431 0.950 . S
C1440 C1439 1.398 . S
C1440 C1441 1.391 . S
C1441 H1429 0.950 . S
C1441 C1437 1.394 1_565 S
C1441 C1440 1.391 . S
C1442 H1432 0.950 . S
C1442 C1443 1.386 . S
C1442 C1444 1.391 . S
C1443 C1442 1.386 . S
C1443 C1447 1.393 1_565 S
C1444 H1433 0.950 . S
C1444 C1442 1.391 . S
C1444 C1445 1.400 . S
C1445 C1439 1.491 . S
C1445 C1444 1.400 . S
C1445 C1446 1.398 1_565 S
C1446 H1434 0.950 . S
C1446 C1445 1.398 1_545 S
C1446 C1447 1.391 . S
C1447 H1435 0.950 . S
C1447 C1443 1.393 1_545 S
C1447 C1446 1.391 . S
H1448 C1456 0.950 . S
H1449 C1461 0.950 . S
H1450 C1458 0.950 . S
H1451 C1460 0.950 . S
H1452 C1462 0.950 . S
H1453 C1464 0.950 . S
H1454 C1466 0.950 . S
H1455 C1467 0.950 . S
C1456 H1448 0.950 . S
C1456 C1457 1.386 . S
C1456 C1458 1.391 . S
C1457 C1456 1.386 . S
C1457 C1461 1.393 1_455 S
C1458 H1450 0.950 . S
C1458 C1456 1.391 . S
C1458 C1459 1.400 . S
C1459 C1458 1.400 . S
C1459 C1460 1.398 1_455 S
C1459 C1465 1.491 . S
C1460 H1451 0.950 . S
C1460 C1459 1.398 1_655 S
C1460 C1461 1.391 . S
C1461 H1449 0.950 . S
C1461 C1457 1.393 1_655 S
C1461 C1460 1.391 . S
C1462 H1452 0.950 . S
C1462 C1463 1.386 1_655 S
C1462 C1464 1.391 . S
C1463 C1462 1.386 1_455 S
C1463 C1467 1.393 . S
C1464 H1453 0.950 . S
C1464 C1462 1.391 . S
C1464 C1465 1.400 1_655 S
C1465 C1459 1.491 . S
C1465 C1464 1.400 1_455 S
C1465 C1466 1.398 . S
C1466 H1454 0.950 . S
C1466 C1465 1.398 . S
C1466 C1467 1.391 . S
C1467 H1455 0.950 . S
C1467 C1463 1.393 . S
C1467 C1466 1.391 . S
H1468 C1476 0.950 . S
H1469 C1481 0.950 . S
H1470 C1478 0.950 . S
H1471 C1480 0.950 . S
H1472 C1482 0.950 . S
H1473 C1484 0.950 . S
H1474 C1486 0.950 . S
H1475 C1487 0.950 . S
C1476 H1468 0.950 . S
C1476 C1477 1.386 . S
C1476 C1478 1.391 . S
C1477 C1476 1.386 . S
C1477 C1481 1.393 . S
C1478 H1470 0.950 . S
C1478 C1476 1.391 . S
C1478 C1479 1.400 . S
C1479 C1478 1.400 . S
C1479 C1480 1.398 . S
C1479 C1485 1.491 . S
C1480 H1471 0.950 . S
C1480 C1479 1.398 . S
C1480 C1481 1.391 . S
C1481 H1469 0.950 . S
C1481 C1477 1.393 . S
C1481 C1480 1.391 . S
C1482 H1472 0.950 . S
C1482 C1483 1.386 . S
C1482 C1484 1.391 . S
C1483 C1482 1.386 . S
C1483 C1487 1.393 . S
C1484 H1473 0.950 . S
C1484 C1482 1.391 . S
C1484 C1485 1.400 . S
C1485 C1479 1.491 . S
C1485 C1484 1.400 . S
C1485 C1486 1.398 . S
C1486 H1474 0.950 . S
C1486 C1485 1.398 . S
C1486 C1487 1.391 . S
C1487 H1475 0.950 . S
C1487 C1483 1.393 . S
C1487 C1486 1.391 . S
H1488 C1496 0.950 . S
H1489 C1501 0.931 1_655 S
H1490 C1498 0.950 . S
H1491 C1500 0.937 1_655 S
H1492 C1502 0.950 . S
H1493 C1504 0.974 . S
H1494 C1506 0.950 . S
H1495 C1507 0.950 . S
C1496 H1488 0.950 . S
C1496 C1497 1.386 . S
C1496 C1498 1.391 . S
C1497 C1496 1.386 . S
C1497 C1501 1.401 . S
C1498 H1490 0.950 . S
C1498 C1496 1.391 . S
C1498 C1499 1.400 . S
C1499 C1498 1.400 . S
C1499 C1500 1.430 . S
C1499 C1505 1.491 . S
C1500 H1491 0.937 1_455 S
C1500 C1499 1.430 . S
C1500 C1501 1.384 . S
C1501 H1489 0.931 1_455 S
C1501 C1497 1.401 . S
C1501 C1500 1.384 . S
C1502 H1492 0.950 . S
C1502 C1503 1.386 . S
C1502 C1504 1.391 . S
C1503 C1502 1.386 . S
C1503 C1507 1.393 . S
C1504 H1493 0.974 . S
C1504 C1502 1.391 . S
C1504 C1505 1.400 . S
C1505 C1499 1.491 . S
C1505 C1504 1.400 . S
C1505 C1506 1.398 . S
C1506 H1494 0.950 . S
C1506 C1505 1.398 . S
C1506 C1507 1.391 . S
C1507 H1495 0.950 . S
C1507 C1503 1.393 . S
C1507 C1506 1.391 . S
H1508 C1516 0.950 . S
H1509 C1521 0.950 . S
H1510 C1518 0.950 . S
H1511 C1520 0.950 . S
H1512 C1522 0.950 . S
H1513 C1524 0.950 . S
H1514 C1526 0.950 . S
H1515 C1527 0.950 . S
C1516 H1508 0.950 . S
C1516 C1517 1.386 . S
C1516 C1518 1.391 . S
C1517 C1516 1.386 . S
C1517 C1521 1.393 . S
C1518 H1510 0.950 . S
C1518 C1516 1.391 . S
C1518 C1519 1.400 . S
C1519 C1518 1.400 . S
C1519 C1520 1.398 . S
C1519 C1525 1.491 . S
C1520 H1511 0.950 . S
C1520 C1519 1.398 . S
C1520 C1521 1.391 . S
C1521 H1509 0.950 . S
C1521 C1517 1.393 . S
C1521 C1520 1.391 . S
C1522 H1512 0.950 . S
C1522 C1523 1.386 . S
C1522 C1524 1.391 . S
C1523 C1522 1.386 . S
C1523 C1527 1.393 . S
C1524 H1513 0.950 . S
C1524 C1522 1.391 . S
C1524 C1525 1.400 . S
C1525 C1519 1.491 . S
C1525 C1524 1.400 . S
C1525 C1526 1.398 . S
C1526 H1514 0.950 . S
C1526 C1525 1.398 . S
C1526 C1527 1.391 . S
C1527 H1515 0.950 . S
C1527 C1523 1.393 . S
C1527 C1526 1.391 . S
H1528 C1536 0.950 . S
H1529 C1541 0.950 . S
H1530 C1538 0.950 . S
H1531 C1540 0.950 . S
H1532 C1542 0.950 . S
H1533 C1544 0.950 . S
H1534 C1546 0.950 . S
H1535 C1547 0.950 . S
C1536 H1528 0.950 . S
C1536 C1537 1.386 . S
C1536 C1538 1.391 . S
C1537 C1536 1.386 . S
C1537 C1541 1.393 1_565 S
C1538 H1530 0.950 . S
C1538 C1536 1.391 . S
C1538 C1539 1.400 . S
C1539 C1538 1.400 . S
C1539 C1540 1.398 1_565 S
C1539 C1545 1.491 . S
C1540 H1531 0.950 . S
C1540 C1539 1.398 1_545 S
C1540 C1541 1.391 . S
C1541 H1529 0.950 . S
C1541 C1537 1.393 1_545 S
C1541 C1540 1.391 . S
C1542 H1532 0.950 . S
C1542 C1543 1.386 1_545 S
C1542 C1544 1.391 . S
C1543 C1542 1.386 1_565 S
C1543 C1547 1.393 . S
C1544 H1533 0.950 . S
C1544 C1542 1.391 . S
C1544 C1545 1.400 1_545 S
C1545 C1539 1.491 . S
C1545 C1544 1.400 1_565 S
C1545 C1546 1.398 . S
C1546 H1534 0.950 . S
C1546 C1545 1.398 . S
C1546 C1547 1.391 . S
C1547 H1535 0.950 . S
C1547 C1543 1.393 . S
C1547 C1546 1.391 . S
H1548 C1556 0.950 . S
H1549 C1561 0.950 . S
H1550 C1558 0.950 . S
H1551 C1560 0.950 . S
H1552 C1562 0.950 . S
H1553 C1564 0.950 . S
H1554 C1566 0.950 . S
H1555 C1567 0.950 . S
C1556 H1548 0.950 . S
C1556 C1557 1.386 . S
C1556 C1558 1.391 . S
C1557 C1556 1.386 . S
C1557 C1561 1.393 1_545 S
C1558 H1550 0.950 . S
C1558 C1556 1.391 . S
C1558 C1559 1.400 . S
C1559 C1558 1.400 . S
C1559 C1560 1.398 1_545 S
C1559 C1565 1.491 . S
C1560 H1551 0.950 . S
C1560 C1559 1.398 1_565 S
C1560 C1561 1.391 . S
C1561 H1549 0.950 . S
C1561 C1557 1.393 1_565 S
C1561 C1560 1.391 . S
C1562 H1552 0.950 . S
C1562 C1563 1.386 1_565 S
C1562 C1564 1.391 . S
C1563 C1562 1.386 1_545 S
C1563 C1567 1.393 . S
C1564 H1553 0.950 . S
C1564 C1562 1.391 . S
C1564 C1565 1.400 1_565 S
C1565 C1559 1.491 . S
C1565 C1564 1.400 1_545 S
C1565 C1566 1.398 . S
C1566 H1554 0.950 . S
C1566 C1565 1.398 . S
C1566 C1567 1.391 . S
C1567 H1555 0.950 . S
C1567 C1563 1.393 . S
C1567 C1566 1.391 . S
H1568 C1576 0.950 . S
H1569 C1581 0.950 . S
H1570 C1578 0.950 . S
H1571 C1580 0.950 . S
H1572 C1582 0.950 . S
H1573 C1584 0.950 . S
H1574 C1586 0.950 . S
H1575 C1587 0.950 . S
C1576 H1568 0.950 . S
C1576 C1577 1.441 . S
C1576 C1578 1.391 . S
C1577 C1576 1.441 . S
C1577 C1581 1.311 1_655 S
C1578 H1570 0.950 . S
C1578 C1576 1.391 . S
C1578 C1579 1.400 . S
C1579 C1578 1.400 . S
C1579 C1580 1.398 1_655 S
C1579 C1585 1.491 . S
C1580 H1571 0.950 . S
C1580 C1579 1.398 1_455 S
C1580 C1581 1.391 . S
C1581 H1569 0.950 . S
C1581 C1577 1.311 1_455 S
C1581 C1580 1.391 . S
C1582 H1572 0.950 . S
C1582 C1583 1.386 1_455 S
C1582 C1584 1.391 . S
C1583 C1582 1.386 1_655 S
C1583 C1587 1.393 . S
C1584 H1573 0.950 . S
C1584 C1582 1.391 . S
C1584 C1585 1.400 1_455 S
C1585 C1579 1.491 . S
C1585 C1584 1.400 1_655 S
C1585 C1586 1.398 . S
C1586 H1574 0.950 . S
C1586 C1585 1.398 . S
C1586 C1587 1.391 . S
C1587 H1575 0.950 . S
C1587 C1583 1.393 . S
C1587 C1586 1.391 . S
H1588 C1596 0.950 . S
H1589 C1601 0.950 . S
H1590 C1598 0.950 . S
H1591 C1600 0.950 . S
H1592 C1602 0.950 . S
H1593 C1604 0.950 . S
H1594 C1606 0.950 . S
H1595 C1607 0.950 . S
C1596 H1588 0.950 . S
C1596 C1597 1.386 . S
C1596 C1598 1.391 . S
C1597 C1596 1.386 . S
C1597 C1601 1.393 . S
C1598 H1590 0.950 . S
C1598 C1596 1.391 . S
C1598 C1599 1.400 . S
C1599 C1598 1.400 . S
C1599 C1600 1.398 . S
C1599 C1605 1.491 . S
C1600 H1591 0.950 . S
C1600 C1599 1.398 . S
C1600 C1601 1.391 . S
C1601 H1589 0.950 . S
C1601 C1597 1.393 . S
C1601 C1600 1.391 . S
C1602 H1592 0.950 . S
C1602 C1603 1.386 . S
C1602 C1604 1.391 . S
C1603 C1602 1.386 . S
C1603 C1607 1.393 . S
C1604 H1593 0.950 . S
C1604 C1602 1.391 . S
C1604 C1605 1.400 . S
C1605 C1599 1.491 . S
C1605 C1604 1.400 . S
C1605 C1606 1.398 . S
C1606 H1594 0.950 . S
C1606 C1605 1.398 . S
C1606 C1607 1.391 . S
C1607 H1595 0.950 . S
C1607 C1603 1.393 . S
C1607 C1606 1.391 . S
H1608 C1616 0.950 . S
H1609 C1621 0.950 . S
H1610 C1618 0.950 . S
H1611 C1620 0.950 . S
H1612 C1622 0.950 . S
H1613 C1624 0.950 . S
H1614 C1626 0.950 . S
H1615 C1627 0.950 . S
C1616 H1608 0.950 . S
C1616 C1617 1.386 . S
C1616 C1618 1.391 . S
C1617 C1616 1.386 . S
C1617 C1621 1.393 . S
C1618 H1610 0.950 . S
C1618 C1616 1.391 . S
C1618 C1619 1.400 . S
C1619 C1618 1.400 . S
C1619 C1620 1.398 . S
C1619 C1625 1.491 . S
C1620 H1611 0.950 . S
C1620 C1619 1.398 . S
C1620 C1621 1.391 . S
C1621 H1609 0.950 . S
C1621 C1617 1.393 . S
C1621 C1620 1.391 . S
C1622 H1612 0.950 . S
C1622 C1623 1.386 . S
C1622 C1624 1.391 . S
C1623 C1622 1.386 . S
C1623 C1627 1.393 . S
C1624 H1613 0.950 . S
C1624 C1622 1.391 . S
C1624 C1625 1.400 . S
C1625 C1619 1.491 . S
C1625 C1624 1.400 . S
C1625 C1626 1.398 . S
C1626 H1614 0.950 . S
C1626 C1625 1.398 . S
C1626 C1627 1.391 . S
C1627 H1615 0.950 . S
C1627 C1623 1.393 . S
C1627 C1626 1.391 . S
H1628 C1636 0.950 . S
H1629 C1641 0.950 . S
H1630 C1638 0.950 . S
H1631 C1640 0.950 . S
H1632 C1642 0.950 . S
H1633 C1644 0.950 . S
H1634 C1646 0.950 . S
H1635 C1647 0.950 . S
C1636 H1628 0.950 . S
C1636 C1637 1.386 . S
C1636 C1638 1.391 . S
C1637 C1636 1.386 . S
C1637 C1641 1.393 . S
C1638 H1630 0.950 . S
C1638 C1636 1.391 . S
C1638 C1639 1.400 . S
C1639 C1638 1.400 . S
C1639 C1640 1.398 . S
C1639 C1645 1.491 . S
C1640 H1631 0.950 . S
C1640 C1639 1.398 . S
C1640 C1641 1.391 . S
C1641 H1629 0.950 . S
C1641 C1637 1.393 . S
C1641 C1640 1.391 . S
C1642 H1632 0.950 . S
C1642 C1643 1.386 . S
C1642 C1644 1.391 . S
C1643 C1642 1.386 . S
C1643 C1647 1.393 . S
C1644 H1633 0.950 . S
C1644 C1642 1.391 . S
C1644 C1645 1.400 . S
C1645 C1639 1.491 . S
C1645 C1644 1.400 . S
C1645 C1646 1.398 . S
C1646 H1634 0.950 . S
C1646 C1645 1.398 . S
C1646 C1647 1.391 . S
C1647 H1635 0.950 . S
C1647 C1643 1.393 . S
C1647 C1646 1.391 . S
H1648 C1656 0.950 . S
H1649 C1661 0.950 . S
H1650 C1658 0.950 . S
H1651 C1660 0.950 . S
H1652 C1662 0.950 . S
H1653 C1664 0.950 . S
H1654 C1666 0.950 . S
H1655 C1667 0.950 . S
C1656 H1648 0.950 . S
C1656 C1657 1.386 . S
C1656 C1658 1.391 . S
C1657 C1656 1.386 . S
C1657 C1661 1.393 . S
C1658 H1650 0.950 . S
C1658 C1656 1.391 . S
C1658 C1659 1.400 . S
C1659 C1658 1.400 . S
C1659 C1660 1.398 . S
C1659 C1665 1.491 . S
C1660 H1651 0.950 . S
C1660 C1659 1.398 . S
C1660 C1661 1.391 . S
C1661 H1649 0.950 . S
C1661 C1657 1.393 . S
C1661 C1660 1.391 . S
C1662 H1652 0.950 . S
C1662 C1663 1.386 . S
C1662 C1664 1.391 . S
C1663 C1662 1.386 . S
C1663 C1667 1.393 . S
C1664 H1653 0.950 . S
C1664 C1662 1.391 . S
C1664 C1665 1.400 . S
C1665 C1659 1.491 . S
C1665 C1664 1.400 . S
C1665 C1666 1.398 . S
C1666 H1654 0.950 . S
C1666 C1665 1.398 . S
C1666 C1667 1.391 . S
C1667 H1655 0.950 . S
C1667 C1663 1.393 . S
C1667 C1666 1.391 . S
H1668 C1676 0.950 . S
H1669 C1681 0.950 . S
H1670 C1678 0.950 . S
H1671 C1680 0.950 . S
H1672 C1682 0.950 . S
H1673 C1684 0.950 . S
H1674 C1686 0.950 . S
H1675 C1687 0.950 . S
C1676 H1668 0.950 . S
C1676 C1677 1.386 . S
C1676 C1678 1.391 . S
C1677 C1676 1.386 . S
C1677 C1681 1.393 . S
C1678 H1670 0.950 . S
C1678 C1676 1.391 . S
C1678 C1679 1.400 . S
C1679 C1678 1.400 . S
C1679 C1680 1.398 . S
C1679 C1685 1.491 . S
C1680 H1671 0.950 . S
C1680 C1679 1.398 . S
C1680 C1681 1.391 . S
C1681 H1669 0.950 . S
C1681 C1677 1.393 . S
C1681 C1680 1.391 . S
C1682 H1672 0.950 . S
C1682 C1683 1.386 . S
C1682 C1684 1.391 . S
C1683 C1682 1.386 . S
C1683 C1687 1.393 . S
C1684 H1673 0.950 . S
C1684 C1682 1.391 . S
C1684 C1685 1.400 . S
C1685 C1679 1.491 . S
C1685 C1684 1.400 . S
C1685 C1686 1.398 . S
C1686 H1674 0.950 . S
C1686 C1685 1.398 . S
C1686 C1687 1.391 . S
C1687 H1675 0.950 . S
C1687 C1683 1.393 . S
C1687 C1686 1.391 . S
H1688 C1696 0.950 . S
H1689 C1701 0.950 . S
H1690 C1698 0.950 . S
H1691 C1700 0.950 . S
H1692 C1702 0.950 . S
H1693 C1704 0.950 . S
H1694 C1706 0.950 . S
H1695 C1707 0.950 . S
C1696 H1688 0.950 . S
C1696 C1697 1.386 . S
C1696 C1698 1.391 . S
C1697 C1696 1.386 . S
C1697 C1701 1.393 . S
C1698 H1690 0.950 . S
C1698 C1696 1.391 . S
C1698 C1699 1.400 . S
C1699 C1698 1.400 . S
C1699 C1700 1.398 . S
C1699 C1705 1.491 . S
C1700 H1691 0.950 . S
C1700 C1699 1.398 . S
C1700 C1701 1.391 . S
C1701 H1689 0.950 . S
C1701 C1697 1.393 . S
C1701 C1700 1.391 . S
C1702 H1692 0.950 . S
C1702 C1703 1.386 . S
C1702 C1704 1.391 . S
C1703 C1702 1.386 . S
C1703 C1707 1.393 . S
C1704 H1693 0.950 . S
C1704 C1702 1.391 . S
C1704 C1705 1.400 . S
C1705 C1699 1.491 . S
C1705 C1704 1.400 . S
C1705 C1706 1.398 . S
C1706 H1694 0.950 . S
C1706 C1705 1.398 . S
C1706 C1707 1.391 . S
C1707 H1695 0.950 . S
C1707 C1703 1.393 . S
C1707 C1706 1.391 . S
H1708 C1716 0.950 . S
H1709 C1721 0.950 . S
H1710 C1718 0.950 . S
H1711 C1720 0.950 . S
H1712 C1722 0.950 . S
H1713 C1724 0.950 . S
H1714 C1726 0.950 . S
H1715 C1727 0.950 . S
C1716 H1708 0.950 . S
C1716 C1717 1.386 . S
C1716 C1718 1.391 . S
C1717 C1716 1.386 . S
C1717 C1721 1.393 . S
C1718 H1710 0.950 . S
C1718 C1716 1.391 . S
C1718 C1719 1.400 . S
C1719 C1718 1.400 . S
C1719 C1720 1.398 . S
C1719 C1725 1.491 . S
C1720 H1711 0.950 . S
C1720 C1719 1.398 . S
C1720 C1721 1.391 . S
C1721 H1709 0.950 . S
C1721 C1717 1.393 . S
C1721 C1720 1.391 . S
C1722 H1712 0.950 . S
C1722 C1723 1.386 . S
C1722 C1724 1.391 . S
C1723 C1722 1.386 . S
C1723 C1727 1.393 . S
C1724 H1713 0.950 . S
C1724 C1722 1.391 . S
C1724 C1725 1.400 . S
C1725 C1719 1.491 . S
C1725 C1724 1.400 . S
C1725 C1726 1.398 . S
C1726 H1714 0.950 . S
C1726 C1725 1.398 . S
C1726 C1727 1.391 . S
C1727 H1715 0.950 . S
C1727 C1723 1.393 . S
C1727 C1726 1.391 . S
H1728 C1736 0.950 . S
H1729 C1741 0.950 . S
H1730 C1738 0.950 . S
H1731 C1740 0.950 . S
H1732 C1742 0.950 . S
H1733 C1744 0.950 . S
H1734 C1746 0.950 . S
H1735 C1747 0.950 . S
C1736 H1728 0.950 . S
C1736 C1737 1.386 . S
C1736 C1738 1.391 . S
C1737 C1736 1.386 . S
C1737 C1741 1.393 . S
C1738 H1730 0.950 . S
C1738 C1736 1.391 . S
C1738 C1739 1.400 . S
C1739 C1738 1.400 . S
C1739 C1740 1.398 . S
C1739 C1745 1.491 . S
C1740 H1731 0.950 . S
C1740 C1739 1.398 . S
C1740 C1741 1.391 . S
C1741 H1729 0.950 . S
C1741 C1737 1.393 . S
C1741 C1740 1.391 . S
C1742 H1732 0.950 . S
C1742 C1743 1.386 . S
C1742 C1744 1.391 . S
C1743 C1742 1.386 . S
C1743 C1747 1.393 . S
C1744 H1733 0.950 . S
C1744 C1742 1.391 . S
C1744 C1745 1.400 . S
C1745 C1739 1.491 . S
C1745 C1744 1.400 . S
C1745 C1746 1.398 . S
C1746 H1734 0.950 . S
C1746 C1745 1.398 . S
C1746 C1747 1.391 . S
C1747 H1735 0.950 . S
C1747 C1743 1.393 . S
C1747 C1746 1.391 . S
H1748 C1756 0.950 . S
H1749 C1761 0.950 . S
H1750 C1758 0.950 . S
H1751 C1760 0.950 . S
H1752 C1762 0.950 . S
H1753 C1764 0.950 . S
H1754 C1766 0.950 . S
H1755 C1767 0.950 . S
C1756 H1748 0.950 . S
C1756 C1757 1.386 . S
C1756 C1758 1.391 . S
C1757 C1756 1.386 . S
C1757 C1761 1.393 . S
C1758 H1750 0.950 . S
C1758 C1756 1.391 . S
C1758 C1759 1.400 . S
C1759 C1758 1.400 . S
C1759 C1760 1.398 . S
C1759 C1765 1.491 . S
C1760 H1751 0.950 . S
C1760 C1759 1.398 . S
C1760 C1761 1.391 . S
C1761 H1749 0.950 . S
C1761 C1757 1.393 . S
C1761 C1760 1.391 . S
C1762 H1752 0.950 . S
C1762 C1763 1.386 . S
C1762 C1764 1.391 . S
C1763 C1762 1.386 . S
C1763 C1767 1.393 . S
C1764 H1753 0.950 . S
C1764 C1762 1.391 . S
C1764 C1765 1.400 . S
C1765 C1759 1.491 . S
C1765 C1764 1.400 . S
C1765 C1766 1.398 . S
C1766 H1754 0.950 . S
C1766 C1765 1.398 . S
C1766 C1767 1.391 . S
C1767 H1755 0.950 . S
C1767 C1763 1.393 . S
C1767 C1766 1.391 . S
H1768 C1776 0.950 . S
H1769 C1781 0.950 . S
H1770 C1778 0.950 . S
H1771 C1780 0.950 . S
H1772 C1782 0.950 . S
H1773 C1784 0.950 . S
H1774 C1786 0.950 . S
H1775 C1787 0.950 . S
C1776 H1768 0.950 . S
C1776 C1777 1.386 . S
C1776 C1778 1.391 . S
C1777 C1776 1.386 . S
C1777 C1781 1.393 . S
C1778 H1770 0.950 . S
C1778 C1776 1.391 . S
C1778 C1779 1.400 . S
C1779 C1778 1.400 . S
C1779 C1780 1.398 . S
C1779 C1785 1.491 . S
C1780 H1771 0.950 . S
C1780 C1779 1.398 . S
C1780 C1781 1.391 . S
C1781 H1769 0.950 . S
C1781 C1777 1.393 . S
C1781 C1780 1.391 . S
C1782 H1772 0.950 . S
C1782 C1783 1.386 . S
C1782 C1784 1.391 . S
C1783 C1782 1.386 . S
C1783 C1787 1.393 . S
C1784 H1773 0.950 . S
C1784 C1782 1.391 . S
C1784 C1785 1.400 . S
C1785 C1779 1.491 . S
C1785 C1784 1.400 . S
C1785 C1786 1.398 . S
C1786 H1774 0.950 . S
C1786 C1785 1.398 . S
C1786 C1787 1.391 . S
C1787 H1775 0.950 . S
C1787 C1783 1.393 . S
C1787 C1786 1.391 . S
H1788 C1796 0.950 . S
H1789 C1801 0.950 . S
H1790 C1798 0.950 . S
H1791 C1800 0.950 . S
H1792 C1802 0.950 . S
H1793 C1804 0.950 . S
H1794 C1806 0.950 . S
H1795 C1807 0.950 . S
C1796 H1788 0.950 . S
C1796 C1797 1.386 . S
C1796 C1798 1.391 . S
C1797 C1796 1.386 . S
C1797 C1801 1.393 . S
C1798 H1790 0.950 . S
C1798 C1796 1.391 . S
C1798 C1799 1.400 . S
C1799 C1798 1.400 . S
C1799 C1800 1.398 . S
C1799 C1805 1.491 . S
C1800 H1791 0.950 . S
C1800 C1799 1.398 . S
C1800 C1801 1.391 . S
C1801 H1789 0.950 . S
C1801 C1797 1.393 . S
C1801 C1800 1.391 . S
C1802 H1792 0.950 . S
C1802 C1803 1.386 . S
C1802 C1804 1.391 . S
C1803 C1802 1.386 . S
C1803 C1807 1.393 . S
C1804 H1793 0.950 . S
C1804 C1802 1.391 . S
C1804 C1805 1.400 . S
C1805 C1799 1.491 . S
C1805 C1804 1.400 . S
C1805 C1806 1.398 . S
C1806 H1794 0.950 . S
C1806 C1805 1.398 . S
C1806 C1807 1.391 . S
C1807 H1795 0.950 . S
C1807 C1803 1.393 . S
C1807 C1806 1.391 . S
H1808 C1816 0.950 . S
H1809 C1821 0.950 . S
H1810 C1818 0.950 . S
H1811 C1820 0.950 . S
H1812 C1822 0.950 . S
H1813 C1824 0.950 . S
H1814 C1826 0.950 . S
H1815 C1827 0.950 . S
C1816 H1808 0.950 . S
C1816 C1817 1.386 . S
C1816 C1818 1.391 . S
C1817 C1816 1.386 . S
C1817 C1821 1.393 . S
C1818 H1810 0.950 . S
C1818 C1816 1.391 . S
C1818 C1819 1.400 . S
C1819 C1818 1.400 . S
C1819 C1820 1.398 . S
C1819 C1825 1.491 . S
C1820 H1811 0.950 . S
C1820 C1819 1.398 . S
C1820 C1821 1.391 . S
C1821 H1809 0.950 . S
C1821 C1817 1.393 . S
C1821 C1820 1.391 . S
C1822 H1812 0.950 . S
C1822 C1823 1.386 . S
C1822 C1824 1.391 . S
C1823 C1822 1.386 . S
C1823 C1827 1.393 . S
C1824 H1813 0.950 . S
C1824 C1822 1.391 . S
C1824 C1825 1.400 . S
C1825 C1819 1.491 . S
C1825 C1824 1.400 . S
C1825 C1826 1.398 . S
C1826 H1814 0.950 . S
C1826 C1825 1.398 . S
C1826 C1827 1.391 . S
C1827 H1815 0.950 . S
C1827 C1823 1.393 . S
C1827 C1826 1.391 . S
H1828 C1836 0.950 . S
H1829 C1841 0.950 . S
H1830 C1838 0.950 . S
H1831 C1840 0.950 . S
H1832 C1842 0.950 . S
H1833 C1844 0.950 . S
H1834 C1846 0.950 . S
H1835 C1847 0.950 . S
C1836 H1828 0.950 . S
C1836 C1837 1.386 . S
C1836 C1838 1.391 . S
C1837 C1836 1.386 . S
C1837 C1841 1.393 . S
C1838 H1830 0.950 . S
C1838 C1836 1.391 . S
C1838 C1839 1.400 . S
C1839 C1838 1.400 . S
C1839 C1840 1.398 . S
C1839 C1845 1.491 . S
C1840 H1831 0.950 . S
C1840 C1839 1.398 . S
C1840 C1841 1.391 . S
C1841 H1829 0.950 . S
C1841 C1837 1.393 . S
C1841 C1840 1.391 . S
C1842 H1832 0.950 . S
C1842 C1843 1.386 . S
C1842 C1844 1.391 . S
C1843 C1842 1.386 . S
C1843 C1847 1.393 . S
C1844 H1833 0.950 . S
C1844 C1842 1.391 . S
C1844 C1845 1.400 . S
C1845 C1839 1.491 . S
C1845 C1844 1.400 . S
C1845 C1846 1.398 . S
C1846 H1834 0.950 . S
C1846 C1845 1.398 . S
C1846 C1847 1.391 . S
C1847 H1835 0.950 . S
C1847 C1843 1.393 . S
C1847 C1846 1.391 . S
H1848 C1856 0.950 . S
H1849 C1861 0.950 . S
H1850 C1858 0.950 . S
H1851 C1860 0.950 . S
H1852 C1862 0.950 . S
H1853 C1864 0.950 . S
H1854 C1866 0.950 . S
H1855 C1867 0.950 . S
C1856 H1848 0.950 . S
C1856 C1857 1.386 . S
C1856 C1858 1.391 . S
C1857 C1856 1.386 . S
C1857 C1861 1.393 . S
C1858 H1850 0.950 . S
C1858 C1856 1.391 . S
C1858 C1859 1.400 . S
C1859 C1858 1.400 . S
C1859 C1860 1.398 . S
C1859 C1865 1.491 . S
C1860 H1851 0.950 . S
C1860 C1859 1.398 . S
C1860 C1861 1.391 . S
C1861 H1849 0.950 . S
C1861 C1857 1.393 . S
C1861 C1860 1.391 . S
C1862 H1852 0.950 . S
C1862 C1863 1.386 . S
C1862 C1864 1.391 . S
C1863 C1862 1.386 . S
C1863 C1867 1.393 . S
C1864 H1853 0.950 . S
C1864 C1862 1.391 . S
C1864 C1865 1.400 . S
C1865 C1859 1.491 . S
C1865 C1864 1.400 . S
C1865 C1866 1.398 . S
C1866 H1854 0.950 . S
C1866 C1865 1.398 . S
C1866 C1867 1.391 . S
C1867 H1855 0.950 . S
C1867 C1863 1.393 . S
C1867 C1866 1.391 . S
H1868 C1876 0.950 . S
H1869 C1881 0.950 . S
H1870 C1878 0.950 . S
H1871 C1880 0.950 . S
H1872 C1882 0.950 . S
H1873 C1884 0.950 . S
H1874 C1886 0.950 . S
H1875 C1887 0.950 . S
C1876 H1868 0.950 . S
C1876 C1877 1.386 . S
C1876 C1878 1.391 . S
C1877 C1876 1.386 . S
C1877 C1881 1.393 . S
C1878 H1870 0.950 . S
C1878 C1876 1.391 . S
C1878 C1879 1.400 . S
C1879 C1878 1.400 . S
C1879 C1880 1.398 . S
C1879 C1885 1.491 . S
C1880 H1871 0.950 . S
C1880 C1879 1.398 . S
C1880 C1881 1.391 . S
C1881 H1869 0.950 . S
C1881 C1877 1.393 . S
C1881 C1880 1.391 . S
C1882 H1872 0.950 . S
C1882 C1883 1.386 . S
C1882 C1884 1.391 . S
C1883 C1882 1.386 . S
C1883 C1887 1.393 . S
C1884 H1873 0.950 . S
C1884 C1882 1.391 . S
C1884 C1885 1.400 . S
C1885 C1879 1.491 . S
C1885 C1884 1.400 . S
C1885 C1886 1.398 . S
C1886 H1874 0.950 . S
C1886 C1885 1.398 . S
C1886 C1887 1.391 . S
C1887 H1875 0.950 . S
C1887 C1883 1.393 . S
C1887 C1886 1.391 . S
H1888 C1896 0.950 . S
H1889 C1901 0.950 . S
H1890 C1898 0.950 . S
H1891 C1900 0.950 . S
H1892 C1902 0.950 . S
H1893 C1904 0.950 . S
H1894 C1906 0.950 . S
H1895 C1907 0.950 . S
C1896 H1888 0.950 . S
C1896 C1897 1.386 . S
C1896 C1898 1.391 . S
C1897 C1896 1.386 . S
C1897 C1901 1.393 . S
C1898 H1890 0.950 . S
C1898 C1896 1.391 . S
C1898 C1899 1.400 . S
C1899 C1898 1.400 . S
C1899 C1900 1.398 . S
C1899 C1905 1.491 . S
C1900 H1891 0.950 . S
C1900 C1899 1.398 . S
C1900 C1901 1.391 . S
C1901 H1889 0.950 . S
C1901 C1897 1.393 . S
C1901 C1900 1.391 . S
C1902 H1892 0.950 . S
C1902 C1903 1.386 . S
C1902 C1904 1.391 . S
C1903 C1902 1.386 . S
C1903 C1907 1.393 . S
C1904 H1893 0.950 . S
C1904 C1902 1.391 . S
C1904 C1905 1.400 . S
C1905 C1899 1.491 . S
C1905 C1904 1.400 . S
C1905 C1906 1.398 . S
C1906 H1894 0.950 . S
C1906 C1905 1.398 . S
C1906 C1907 1.391 . S
C1907 H1895 0.950 . S
C1907 C1903 1.393 . S
C1907 C1906 1.391 . S
H1908 C1916 0.950 . S
H1909 C1921 0.950 . S
H1910 C1918 0.950 . S
H1911 C1920 0.950 . S
H1912 C1922 0.950 . S
H1913 C1924 0.950 . S
H1914 C1926 0.950 . S
H1915 C1927 0.950 . S
C1916 H1908 0.950 . S
C1916 C1917 1.386 . S
C1916 C1918 1.391 . S
C1917 C1916 1.386 . S
C1917 C1921 1.393 . S
C1918 H1910 0.950 . S
C1918 C1916 1.391 . S
C1918 C1919 1.400 . S
C1919 C1918 1.400 . S
C1919 C1920 1.398 . S
C1919 C1925 1.491 . S
C1920 H1911 0.950 . S
C1920 C1919 1.398 . S
C1920 C1921 1.391 . S
C1921 H1909 0.950 . S
C1921 C1917 1.393 . S
C1921 C1920 1.391 . S
C1922 H1912 0.950 . S
C1922 C1923 1.386 . S
C1922 C1924 1.391 . S
C1923 C1922 1.386 . S
C1923 C1927 1.393 . S
C1924 H1913 0.950 . S
C1924 C1922 1.391 . S
C1924 C1925 1.400 . S
C1925 C1919 1.491 . S
C1925 C1924 1.400 . S
C1925 C1926 1.398 . S
C1926 H1914 0.950 . S
C1926 C1925 1.398 . S
C1926 C1927 1.391 . S
C1927 H1915 0.950 . S
C1927 C1923 1.393 . S
C1927 C1926 1.391 . S
H1928 C1936 0.950 . S
H1929 C1941 0.950 . S
H1930 C1938 0.950 . S
H1931 C1940 0.950 . S
H1932 C1942 0.950 . S
H1933 C1944 0.950 . S
H1934 C1946 0.950 . S
H1935 C1947 0.950 . S
C1936 H1928 0.950 . S
C1936 C1937 1.386 . S
C1936 C1938 1.391 . S
C1937 C1936 1.386 . S
C1937 C1941 1.393 . S
C1938 H1930 0.950 . S
C1938 C1936 1.391 . S
C1938 C1939 1.400 . S
C1939 C1938 1.400 . S
C1939 C1940 1.398 . S
C1939 C1945 1.491 . S
C1940 H1931 0.950 . S
C1940 C1939 1.398 . S
C1940 C1941 1.391 . S
C1941 H1929 0.950 . S
C1941 C1937 1.393 . S
C1941 C1940 1.391 . S
C1942 H1932 0.950 . S
C1942 C1943 1.386 . S
C1942 C1944 1.391 . S
C1943 C1942 1.386 . S
C1943 C1947 1.393 . S
C1944 H1933 0.950 . S
C1944 C1942 1.391 . S
C1944 C1945 1.400 . S
C1945 C1939 1.491 . S
C1945 C1944 1.400 . S
C1945 C1946 1.398 . S
C1946 H1934 0.950 . S
C1946 C1945 1.398 . S
C1946 C1947 1.391 . S
C1947 H1935 0.950 . S
C1947 C1943 1.393 . S
C1947 C1946 1.391 . S
H1948 C1956 0.950 . S
H1949 C1961 0.950 . S
H1950 C1958 0.950 . S
H1951 C1960 0.950 . S
H1952 C1962 0.950 . S
H1953 C1964 0.950 . S
H1954 C1966 0.950 . S
H1955 C1967 0.950 . S
C1956 H1948 0.950 . S
C1956 C1957 1.386 . S
C1956 C1958 1.391 . S
C1957 C1956 1.386 . S
C1957 C1961 1.393 . S
C1958 H1950 0.950 . S
C1958 C1956 1.391 . S
C1958 C1959 1.400 . S
C1959 C1958 1.400 . S
C1959 C1960 1.398 . S
C1959 C1965 1.491 . S
C1960 H1951 0.950 . S
C1960 C1959 1.398 . S
C1960 C1961 1.391 . S
C1961 H1949 0.950 . S
C1961 C1957 1.393 . S
C1961 C1960 1.391 . S
C1962 H1952 0.950 . S
C1962 C1963 1.386 . S
C1962 C1964 1.391 . S
C1963 C1962 1.386 . S
C1963 C1967 1.393 . S
C1964 H1953 0.950 . S
C1964 C1962 1.391 . S
C1964 C1965 1.400 . S
C1965 C1959 1.491 . S
C1965 C1964 1.400 . S
C1965 C1966 1.398 . S
C1966 H1954 0.950 . S
C1966 C1965 1.398 . S
C1966 C1967 1.391 . S
C1967 H1955 0.950 . S
C1967 C1963 1.393 . S
C1967 C1966 1.391 . S
H1968 C1976 0.950 . S
H1969 C1981 0.950 . S
H1970 C1978 0.950 . S
H1971 C1980 0.950 . S
H1972 C1982 0.950 . S
H1973 C1984 0.950 . S
H1974 C1986 0.950 . S
H1975 C1987 0.950 . S
C1976 H1968 0.950 . S
C1976 C1977 1.386 . S
C1976 C1978 1.391 . S
C1977 C1976 1.386 . S
C1977 C1981 1.393 . S
C1978 H1970 0.950 . S
C1978 C1976 1.391 . S
C1978 C1979 1.400 . S
C1979 C1978 1.400 . S
C1979 C1980 1.398 . S
C1979 C1985 1.491 . S
C1980 H1971 0.950 . S
C1980 C1979 1.398 . S
C1980 C1981 1.391 . S
C1981 H1969 0.950 . S
C1981 C1977 1.393 . S
C1981 C1980 1.391 . S
C1982 H1972 0.950 . S
C1982 C1983 1.386 . S
C1982 C1984 1.391 . S
C1983 C1982 1.386 . S
C1983 C1987 1.393 . S
C1984 H1973 0.950 . S
C1984 C1982 1.391 . S
C1984 C1985 1.400 . S
C1985 C1979 1.491 . S
C1985 C1984 1.400 . S
C1985 C1986 1.398 . S
C1986 H1974 0.950 . S
C1986 C1985 1.398 . S
C1986 C1987 1.391 . S
C1987 H1975 0.950 . S
C1987 C1983 1.393 . S
C1987 C1986 1.391 . S
H1988 C1996 0.950 . S
H1989 C2001 0.950 . S
H1990 C1998 0.950 . S
H1991 C2000 0.950 . S
H1992 C2002 0.950 . S
H1993 C2004 0.950 . S
H1994 C2006 0.950 . S
H1995 C2007 0.950 . S
C1996 H1988 0.950 . S
C1996 C1997 1.386 . S
C1996 C1998 1.391 . S
C1997 C1996 1.386 . S
C1997 C2001 1.393 . S
C1998 H1990 0.950 . S
C1998 C1996 1.391 . S
C1998 C1999 1.400 . S
C1999 C1998 1.400 . S
C1999 C2000 1.398 . S
C1999 C2005 1.491 . S
C2000 H1991 0.950 . S
C2000 C1999 1.398 . S
C2000 C2001 1.391 . S
C2001 H1989 0.950 . S
C2001 C1997 1.393 . S
C2001 C2000 1.391 . S
C2002 H1992 0.950 . S
C2002 C2003 1.386 . S
C2002 C2004 1.391 . S
C2003 C2002 1.386 . S
C2003 C2007 1.393 . S
C2004 H1993 0.950 . S
C2004 C2002 1.391 . S
C2004 C2005 1.400 . S
C2005 C1999 1.491 . S
C2005 C2004 1.400 . S
C2005 C2006 1.398 . S
C2006 H1994 0.950 . S
C2006 C2005 1.398 . S
C2006 C2007 1.391 . S
C2007 H1995 0.950 . S
C2007 C2003 1.393 . S
C2007 C2006 1.391 . S
H2008 C2016 0.950 . S
H2009 C2021 0.950 . S
H2010 C2018 0.950 . S
H2011 C2020 0.950 . S
H2012 C2022 0.950 . S
H2013 C2024 0.950 . S
H2014 C2026 0.950 . S
H2015 C2027 0.950 . S
C2016 H2008 0.950 . S
C2016 C2017 1.386 . S
C2016 C2018 1.391 . S
C2017 C2016 1.386 . S
C2017 C2021 1.393 . S
C2018 H2010 0.950 . S
C2018 C2016 1.391 . S
C2018 C2019 1.400 . S
C2019 C2018 1.400 . S
C2019 C2020 1.398 . S
C2019 C2025 1.491 . S
C2020 H2011 0.950 . S
C2020 C2019 1.398 . S
C2020 C2021 1.391 . S
C2021 H2009 0.950 . S
C2021 C2017 1.393 . S
C2021 C2020 1.391 . S
C2022 H2012 0.950 . S
C2022 C2023 1.386 . S
C2022 C2024 1.391 . S
C2023 C2022 1.386 . S
C2023 C2027 1.393 . S
C2024 H2013 0.950 . S
C2024 C2022 1.391 . S
C2024 C2025 1.400 . S
C2025 C2019 1.491 . S
C2025 C2024 1.400 . S
C2025 C2026 1.398 . S
C2026 H2014 0.950 . S
C2026 C2025 1.398 . S
C2026 C2027 1.391 . S
C2027 H2015 0.950 . S
C2027 C2023 1.393 . S
C2027 C2026 1.391 . S
H2028 C2036 0.950 . S
H2029 C2041 0.950 . S
H2030 C2038 0.950 . S
H2031 C2040 0.950 . S
H2032 C2042 0.950 . S
H2033 C2044 0.950 . S
H2034 C2046 0.950 . S
H2035 C2047 0.950 . S
C2036 H2028 0.950 . S
C2036 C2037 1.386 . S
C2036 C2038 1.391 . S
C2037 C2036 1.386 . S
C2037 C2041 1.393 . S
C2038 H2030 0.950 . S
C2038 C2036 1.391 . S
C2038 C2039 1.400 . S
C2039 C2038 1.400 . S
C2039 C2040 1.398 . S
C2039 C2045 1.491 . S
C2040 H2031 0.950 . S
C2040 C2039 1.398 . S
C2040 C2041 1.391 . S
C2041 H2029 0.950 . S
C2041 C2037 1.393 . S
C2041 C2040 1.391 . S
C2042 H2032 0.950 . S
C2042 C2043 1.386 . S
C2042 C2044 1.391 . S
C2043 C2042 1.386 . S
C2043 C2047 1.393 . S
C2044 H2033 0.950 . S
C2044 C2042 1.391 . S
C2044 C2045 1.400 . S
C2045 C2039 1.491 . S
C2045 C2044 1.400 . S
C2045 C2046 1.398 . S
C2046 H2034 0.950 . S
C2046 C2045 1.398 . S
C2046 C2047 1.391 . S
C2047 H2035 0.950 . S
C2047 C2043 1.393 . S
C2047 C2046 1.391 . S
H2048 C2056 0.950 . S
H2049 C2061 0.950 . S
H2050 C2058 0.950 . S
H2051 C2060 0.950 . S
H2052 C2062 0.950 . S
H2053 C2064 0.950 . S
H2054 C2066 0.950 . S
H2055 C2067 0.950 . S
C2056 H2048 0.950 . S
C2056 C2057 1.386 . S
C2056 C2058 1.391 . S
C2057 C2056 1.386 . S
C2057 C2061 1.393 . S
C2058 H2050 0.950 . S
C2058 C2056 1.391 . S
C2058 C2059 1.400 . S
C2059 C2058 1.400 . S
C2059 C2060 1.398 . S
C2059 C2065 1.491 . S
C2060 H2051 0.950 . S
C2060 C2059 1.398 . S
C2060 C2061 1.391 . S
C2061 H2049 0.950 . S
C2061 C2057 1.393 . S
C2061 C2060 1.391 . S
C2062 H2052 0.950 . S
C2062 C2063 1.386 . S
C2062 C2064 1.391 . S
C2063 C2062 1.386 . S
C2063 C2067 1.393 . S
C2064 H2053 0.950 . S
C2064 C2062 1.391 . S
C2064 C2065 1.400 . S
C2065 C2059 1.491 . S
C2065 C2064 1.400 . S
C2065 C2066 1.398 . S
C2066 H2054 0.950 . S
C2066 C2065 1.398 . S
C2066 C2067 1.391 . S
C2067 H2055 0.950 . S
C2067 C2063 1.393 . S
C2067 C2066 1.391 . S
H2068 C2076 0.950 . S
H2069 C2081 0.950 . S
H2070 C2078 0.950 . S
H2071 C2080 0.950 . S
H2072 C2082 0.950 . S
H2073 C2084 0.950 . S
H2074 C2086 0.950 . S
H2075 C2087 0.950 . S
C2076 H2068 0.950 . S
C2076 C2077 1.386 . S
C2076 C2078 1.391 . S
C2077 C2076 1.386 . S
C2077 C2081 1.393 . S
C2078 H2070 0.950 . S
C2078 C2076 1.391 . S
C2078 C2079 1.400 . S
C2079 C2078 1.400 . S
C2079 C2080 1.398 . S
C2079 C2085 1.491 . S
C2080 H2071 0.950 . S
C2080 C2079 1.398 . S
C2080 C2081 1.391 . S
C2081 H2069 0.950 . S
C2081 C2077 1.393 . S
C2081 C2080 1.391 . S
C2082 H2072 0.950 . S
C2082 C2083 1.386 . S
C2082 C2084 1.391 . S
C2083 C2082 1.386 . S
C2083 C2087 1.393 . S
C2084 H2073 0.950 . S
C2084 C2082 1.391 . S
C2084 C2085 1.400 . S
C2085 C2079 1.491 . S
C2085 C2084 1.400 . S
C2085 C2086 1.398 . S
C2086 H2074 0.950 . S
C2086 C2085 1.398 . S
C2086 C2087 1.391 . S
C2087 H2075 0.950 . S
C2087 C2083 1.393 . S
C2087 C2086 1.391 . S
H2088 C2096 0.950 . S
H2089 C2101 0.950 . S
H2090 C2098 0.950 . S
H2091 C2100 0.950 . S
H2092 C2102 0.950 . S
H2093 C2104 0.950 . S
H2094 C2106 0.950 . S
H2095 C2107 0.950 . S
C2096 H2088 0.950 . S
C2096 C2097 1.386 . S
C2096 C2098 1.391 . S
C2097 C2096 1.386 . S
C2097 C2101 1.393 . S
C2098 H2090 0.950 . S
C2098 C2096 1.391 . S
C2098 C2099 1.400 . S
C2099 C2098 1.400 . S
C2099 C2100 1.398 . S
C2099 C2105 1.491 . S
C2100 H2091 0.950 . S
C2100 C2099 1.398 . S
C2100 C2101 1.391 . S
C2101 H2089 0.950 . S
C2101 C2097 1.393 . S
C2101 C2100 1.391 . S
C2102 H2092 0.950 . S
C2102 C2103 1.386 . S
C2102 C2104 1.391 . S
C2103 C2102 1.386 . S
C2103 C2107 1.393 . S
C2104 H2093 0.950 . S
C2104 C2102 1.391 . S
C2104 C2105 1.400 . S
C2105 C2099 1.491 . S
C2105 C2104 1.400 . S
C2105 C2106 1.398 . S
C2106 H2094 0.950 . S
C2106 C2105 1.398 . S
C2106 C2107 1.391 . S
C2107 H2095 0.950 . S
C2107 C2103 1.393 . S
C2107 C2106 1.391 . S
H2108 C2116 0.950 . S
H2109 C2121 0.950 . S
H2110 C2118 0.950 . S
H2111 C2120 0.950 . S
H2112 C2122 0.950 . S
H2113 C2124 0.950 . S
H2114 C2126 0.950 . S
H2115 C2127 0.950 . S
C2116 H2108 0.950 . S
C2116 C2117 1.386 . S
C2116 C2118 1.391 . S
C2117 C2116 1.386 . S
C2117 C2121 1.393 . S
C2118 H2110 0.950 . S
C2118 C2116 1.391 . S
C2118 C2119 1.400 . S
C2119 C2118 1.400 . S
C2119 C2120 1.398 . S
C2119 C2125 1.491 . S
C2120 H2111 0.950 . S
C2120 C2119 1.398 . S
C2120 C2121 1.391 . S
C2121 H2109 0.950 . S
C2121 C2117 1.393 . S
C2121 C2120 1.391 . S
C2122 H2112 0.950 . S
C2122 C2123 1.386 . S
C2122 C2124 1.391 . S
C2123 C2122 1.386 . S
C2123 C2127 1.393 . S
C2124 H2113 0.950 . S
C2124 C2122 1.391 . S
C2124 C2125 1.400 . S
C2125 C2119 1.491 . S
C2125 C2124 1.400 . S
C2125 C2126 1.398 . S
C2126 H2114 0.950 . S
C2126 C2125 1.398 . S
C2126 C2127 1.391 . S
C2127 H2115 0.950 . S
C2127 C2123 1.393 . S
C2127 C2126 1.391 . S
H2128 C2136 0.950 . S
H2129 C2141 0.950 . S
H2130 C2138 0.950 . S
H2131 C2140 0.950 . S
H2132 C2142 0.950 . S
H2133 C2144 0.950 . S
H2134 C2146 0.950 . S
H2135 C2147 0.950 . S
C2136 H2128 0.950 . S
C2136 C2137 1.386 . S
C2136 C2138 1.391 . S
C2137 C2136 1.386 . S
C2137 C2141 1.393 . S
C2138 H2130 0.950 . S
C2138 C2136 1.391 . S
C2138 C2139 1.400 . S
C2139 C2138 1.400 . S
C2139 C2140 1.398 . S
C2139 C2145 1.491 . S
C2140 H2131 0.950 . S
C2140 C2139 1.398 . S
C2140 C2141 1.391 . S
C2141 H2129 0.950 . S
C2141 C2137 1.393 . S
C2141 C2140 1.391 . S
C2142 H2132 0.950 . S
C2142 C2143 1.386 . S
C2142 C2144 1.391 . S
C2143 C2142 1.386 . S
C2143 C2147 1.393 . S
C2144 H2133 0.950 . S
C2144 C2142 1.391 . S
C2144 C2145 1.400 . S
C2145 C2139 1.491 . S
C2145 C2144 1.400 . S
C2145 C2146 1.398 . S
C2146 H2134 0.950 . S
C2146 C2145 1.398 . S
C2146 C2147 1.391 . S
C2147 H2135 0.950 . S
C2147 C2143 1.393 . S
C2147 C2146 1.391 . S
H2148 C2156 0.950 . S
H2149 C2161 0.950 . S
H2150 C2158 0.950 . S
H2151 C2160 0.950 . S
H2152 C2162 0.950 . S
H2153 C2164 0.950 . S
H2154 C2166 0.950 . S
H2155 C2167 0.950 . S
C2156 H2148 0.950 . S
C2156 C2157 1.386 . S
C2156 C2158 1.391 . S
C2157 C2156 1.386 . S
C2157 C2161 1.393 . S
C2158 H2150 0.950 . S
C2158 C2156 1.391 . S
C2158 C2159 1.400 . S
C2159 C2158 1.400 . S
C2159 C2160 1.398 . S
C2159 C2165 1.491 . S
C2160 H2151 0.950 . S
C2160 C2159 1.398 . S
C2160 C2161 1.391 . S
C2161 H2149 0.950 . S
C2161 C2157 1.393 . S
C2161 C2160 1.391 . S
C2162 H2152 0.950 . S
C2162 C2163 1.386 . S
C2162 C2164 1.391 . S
C2163 C2162 1.386 . S
C2163 C2167 1.393 . S
C2164 H2153 0.950 . S
C2164 C2162 1.391 . S
C2164 C2165 1.400 . S
C2165 C2159 1.491 . S
C2165 C2164 1.400 . S
C2165 C2166 1.398 . S
C2166 H2154 0.950 . S
C2166 C2165 1.398 . S
C2166 C2167 1.391 . S
C2167 H2155 0.950 . S
C2167 C2163 1.393 . S
C2167 C2166 1.391 . S
H2168 C2176 0.950 . S
H2169 C2181 0.950 1_554 S
H2170 C2178 0.950 . S
H2171 C2180 0.950 . S
H2172 C2182 0.950 . S
H2173 C2184 0.950 . S
H2174 C2186 0.950 . S
H2175 C2187 0.950 . S
C2176 H2168 0.950 . S
C2176 C2177 1.386 . S
C2176 C2178 1.391 . S
C2177 C2176 1.386 . S
C2177 C2181 1.393 . S
C2178 H2170 0.950 . S
C2178 C2176 1.391 . S
C2178 C2179 1.400 . S
C2179 C2178 1.400 . S
C2179 C2180 1.398 . S
C2179 C2185 1.491 . S
C2180 H2171 0.950 . S
C2180 C2179 1.398 . S
C2180 C2181 1.391 . S
C2181 H2169 0.950 1_556 S
C2181 C2177 1.393 . S
C2181 C2180 1.391 . S
C2182 H2172 0.950 . S
C2182 C2183 1.386 . S
C2182 C2184 1.391 . S
C2183 C2182 1.386 . S
C2183 C2187 1.393 . S
C2184 H2173 0.950 . S
C2184 C2182 1.391 . S
C2184 C2185 1.400 . S
C2185 C2179 1.491 . S
C2185 C2184 1.400 . S
C2185 C2186 1.398 . S
C2186 H2174 0.950 . S
C2186 C2185 1.398 . S
C2186 C2187 1.391 . S
C2187 H2175 0.950 . S
C2187 C2183 1.393 . S
C2187 C2186 1.391 . S
H2188 C2196 0.950 . S
H2189 C2201 0.950 . S
H2190 C2198 0.950 . S
H2191 C2200 0.950 1_554 S
H2192 C2202 0.950 . S
H2193 C2204 0.950 . S
H2194 C2206 0.950 . S
H2195 C2207 0.950 . S
C2196 H2188 0.950 . S
C2196 C2197 1.386 . S
C2196 C2198 1.391 . S
C2197 C2196 1.386 . S
C2197 C2201 1.393 1_556 S
C2198 H2190 0.950 . S
C2198 C2196 1.391 . S
C2198 C2199 1.400 . S
C2199 C2198 1.400 . S
C2199 C2200 1.398 . S
C2199 C2205 1.491 . S
C2200 H2191 0.950 1_556 S
C2200 C2199 1.398 . S
C2200 C2201 1.391 1_556 S
C2201 H2189 0.950 . S
C2201 C2197 1.393 1_554 S
C2201 C2200 1.391 1_554 S
C2202 H2192 0.950 . S
C2202 C2203 1.386 . S
C2202 C2204 1.391 . S
C2203 C2202 1.386 . S
C2203 C2207 1.393 . S
C2204 H2193 0.950 . S
C2204 C2202 1.391 . S
C2204 C2205 1.400 . S
C2205 C2199 1.491 . S
C2205 C2204 1.400 . S
C2205 C2206 1.398 . S
C2206 H2194 0.950 . S
C2206 C2205 1.398 . S
C2206 C2207 1.391 . S
C2207 H2195 0.950 . S
C2207 C2203 1.393 . S
C2207 C2206 1.391 . S
H2208 C2216 0.950 1_554 S
H2209 C2221 0.950 . S
H2210 C2218 0.950 . S
H2211 C2220 0.950 . S
H2212 C2222 0.950 . S
H2213 C2224 0.950 . S
H2214 C2226 0.950 . S
H2215 C2227 0.950 . S
C2216 H2208 0.950 1_556 S
C2216 C2217 1.386 . S
C2216 C2218 1.391 . S
C2217 C2216 1.386 . S
C2217 C2221 1.393 . S
C2218 H2210 0.950 . S
C2218 C2216 1.391 . S
C2218 C2219 1.400 . S
C2219 C2218 1.400 . S
C2219 C2220 1.398 . S
C2219 C2225 1.491 . S
C2220 H2211 0.950 . S
C2220 C2219 1.398 . S
C2220 C2221 1.391 . S
C2221 H2209 0.950 . S
C2221 C2217 1.393 . S
C2221 C2220 1.391 . S
C2222 H2212 0.950 . S
C2222 C2223 1.386 . S
C2222 C2224 1.391 . S
C2223 C2222 1.386 . S
C2223 C2227 1.393 . S
C2224 H2213 0.950 . S
C2224 C2222 1.391 . S
C2224 C2225 1.400 . S
C2225 C2219 1.491 . S
C2225 C2224 1.400 . S
C2225 C2226 1.398 . S
C2226 H2214 0.950 . S
C2226 C2225 1.398 . S
C2226 C2227 1.391 . S
C2227 H2215 0.950 . S
C2227 C2223 1.393 . S
C2227 C2226 1.391 . S
H2228 C2236 0.950 . S
H2229 C2241 0.950 1_554 S
H2230 C2238 0.950 . S
H2231 C2240 0.950 . S
H2232 C2242 0.950 . S
H2233 C2244 0.950 . S
H2234 C2246 0.950 . S
H2235 C2247 0.950 . S
C2236 H2228 0.950 . S
C2236 C2237 1.386 . S
C2236 C2238 1.391 . S
C2237 C2236 1.386 . S
C2237 C2241 1.393 . S
C2238 H2230 0.950 . S
C2238 C2236 1.391 . S
C2238 C2239 1.400 . S
C2239 C2238 1.400 . S
C2239 C2240 1.398 . S
C2239 C2245 1.491 . S
C2240 H2231 0.950 . S
C2240 C2239 1.398 . S
C2240 C2241 1.391 . S
C2241 H2229 0.950 1_556 S
C2241 C2237 1.393 . S
C2241 C2240 1.391 . S
C2242 H2232 0.950 . S
C2242 C2243 1.386 . S
C2242 C2244 1.391 . S
C2243 C2242 1.386 . S
C2243 C2247 1.393 . S
C2244 H2233 0.950 . S
C2244 C2242 1.391 . S
C2244 C2245 1.400 . S
C2245 C2239 1.491 . S
C2245 C2244 1.400 . S
C2245 C2246 1.398 . S
C2246 H2234 0.950 . S
C2246 C2245 1.398 . S
C2246 C2247 1.391 . S
C2247 H2235 0.950 . S
C2247 C2243 1.393 . S
C2247 C2246 1.391 . S
H2248 C2256 0.950 . S
H2249 C2261 0.984 . S
H2250 C2258 0.950 . S
H2251 C2260 0.968 . S
H2252 C2262 0.950 . S
H2253 C2264 0.950 . S
H2254 C2266 0.950 . S
H2255 C2267 0.950 . S
C2256 H2248 0.950 . S
C2256 C2257 1.386 . S
C2256 C2258 1.391 . S
C2257 C2256 1.386 . S
C2257 C2261 1.375 1_556 S
C2258 H2250 0.950 . S
C2258 C2256 1.391 . S
C2258 C2259 1.400 . S
C2259 C2258 1.400 . S
C2259 C2260 1.398 . S
C2259 C2265 1.491 . S
C2260 H2251 0.968 . S
C2260 C2259 1.398 . S
C2260 C2261 1.376 1_556 S
C2261 H2249 0.984 . S
C2261 C2257 1.375 1_554 S
C2261 C2260 1.376 1_554 S
C2262 H2252 0.950 . S
C2262 C2263 1.386 . S
C2262 C2264 1.391 . S
C2263 C2262 1.386 . S
C2263 C2267 1.393 . S
C2264 H2253 0.950 . S
C2264 C2262 1.391 . S
C2264 C2265 1.400 . S
C2265 C2259 1.491 . S
C2265 C2264 1.400 . S
C2265 C2266 1.398 . S
C2266 H2254 0.950 . S
C2266 C2265 1.398 . S
C2266 C2267 1.391 . S
C2267 H2255 0.950 . S
C2267 C2263 1.393 . S
C2267 C2266 1.391 . S
H2268 C2276 0.950 . S
H2269 C2281 0.950 . S
H2270 C2278 0.950 . S
H2271 C2280 0.950 . S
H2272 C2282 0.950 . S
H2273 C2284 0.950 . S
H2274 C2286 0.950 . S
H2275 C2287 0.950 . S
C2276 H2268 0.950 . S
C2276 C2277 1.386 . S
C2276 C2278 1.391 . S
C2277 C2276 1.386 . S
C2277 C2281 1.393 . S
C2278 H2270 0.950 . S
C2278 C2276 1.391 . S
C2278 C2279 1.400 . S
C2279 C2278 1.400 . S
C2279 C2280 1.398 . S
C2279 C2285 1.491 . S
C2280 H2271 0.950 . S
C2280 C2279 1.398 . S
C2280 C2281 1.391 . S
C2281 H2269 0.950 . S
C2281 C2277 1.393 . S
C2281 C2280 1.391 . S
C2282 H2272 0.950 . S
C2282 C2283 1.386 . S
C2282 C2284 1.391 . S
C2283 C2282 1.386 . S
C2283 C2287 1.393 . S
C2284 H2273 0.950 . S
C2284 C2282 1.391 . S
C2284 C2285 1.400 . S
C2285 C2279 1.491 . S
C2285 C2284 1.400 . S
C2285 C2286 1.398 . S
C2286 H2274 0.950 . S
C2286 C2285 1.398 . S
C2286 C2287 1.391 . S
C2287 H2275 0.950 . S
C2287 C2283 1.393 . S
C2287 C2286 1.391 . S
H2288 C2296 0.950 . S
H2289 C2301 0.950 . S
H2290 C2298 0.950 . S
H2291 C2300 0.950 . S
H2292 C2302 0.950 . S
H2293 C2304 0.950 . S
H2294 C2306 0.950 . S
H2295 C2307 0.950 . S
C2296 H2288 0.950 . S
C2296 C2297 1.386 . S
C2296 C2298 1.391 . S
C2297 C2296 1.386 . S
C2297 C2301 1.393 . S
C2298 H2290 0.950 . S
C2298 C2296 1.391 . S
C2298 C2299 1.400 . S
C2299 C2298 1.400 . S
C2299 C2300 1.398 . S
C2299 C2305 1.491 . S
C2300 H2291 0.950 . S
C2300 C2299 1.398 . S
C2300 C2301 1.391 . S
C2301 H2289 0.950 . S
C2301 C2297 1.393 . S
C2301 C2300 1.391 . S
C2302 H2292 0.950 . S
C2302 C2303 1.386 . S
C2302 C2304 1.391 . S
C2303 C2302 1.386 . S
C2303 C2307 1.393 . S
C2304 H2293 0.950 . S
C2304 C2302 1.391 . S
C2304 C2305 1.400 . S
C2305 C2299 1.491 . S
C2305 C2304 1.400 . S
C2305 C2306 1.398 . S
C2306 H2294 0.950 . S
C2306 C2305 1.398 . S
C2306 C2307 1.391 . S
C2307 H2295 0.950 . S
C2307 C2303 1.393 . S
C2307 C2306 1.391 . S
H2308 C2316 0.950 . S
H2309 C2321 0.950 . S
H2310 C2318 0.950 . S
H2311 C2320 0.950 . S
H2312 C2322 0.950 . S
H2313 C2324 0.950 . S
H2314 C2326 0.950 . S
H2315 C2327 0.950 . S
C2316 H2308 0.950 . S
C2316 C2317 1.386 . S
C2316 C2318 1.391 . S
C2317 C2316 1.386 . S
C2317 C2321 1.393 . S
C2318 H2310 0.950 . S
C2318 C2316 1.391 . S
C2318 C2319 1.400 . S
C2319 C2318 1.400 . S
C2319 C2320 1.398 . S
C2319 C2325 1.491 . S
C2320 H2311 0.950 . S
C2320 C2319 1.398 . S
C2320 C2321 1.391 . S
C2321 H2309 0.950 . S
C2321 C2317 1.393 . S
C2321 C2320 1.391 . S
C2322 H2312 0.950 . S
C2322 C2323 1.386 . S
C2322 C2324 1.391 . S
C2323 C2322 1.386 . S
C2323 C2327 1.393 . S
C2324 H2313 0.950 . S
C2324 C2322 1.391 . S
C2324 C2325 1.400 . S
C2325 C2319 1.491 . S
C2325 C2324 1.400 . S
C2325 C2326 1.398 . S
C2326 H2314 0.950 . S
C2326 C2325 1.398 . S
C2326 C2327 1.391 . S
C2327 H2315 0.950 . S
C2327 C2323 1.393 . S
C2327 C2326 1.391 . S
H2328 C2336 0.950 . S
H2329 C2341 0.950 . S
H2330 C2338 0.950 . S
H2331 C2340 0.950 . S
H2332 C2342 0.950 . S
H2333 C2344 0.950 . S
H2334 C2346 0.950 . S
H2335 C2347 0.950 . S
C2336 H2328 0.950 . S
C2336 C2337 1.386 . S
C2336 C2338 1.391 . S
C2337 C2336 1.386 . S
C2337 C2341 1.393 . S
C2338 H2330 0.950 . S
C2338 C2336 1.391 . S
C2338 C2339 1.400 . S
C2339 C2338 1.400 . S
C2339 C2340 1.398 . S
C2339 C2345 1.491 . S
C2340 H2331 0.950 . S
C2340 C2339 1.398 . S
C2340 C2341 1.391 . S
C2341 H2329 0.950 . S
C2341 C2337 1.393 . S
C2341 C2340 1.391 . S
C2342 H2332 0.950 . S
C2342 C2343 1.386 . S
C2342 C2344 1.391 . S
C2343 C2342 1.386 . S
C2343 C2347 1.393 . S
C2344 H2333 0.950 . S
C2344 C2342 1.391 . S
C2344 C2345 1.400 . S
C2345 C2339 1.491 . S
C2345 C2344 1.400 . S
C2345 C2346 1.398 . S
C2346 H2334 0.950 . S
C2346 C2345 1.398 . S
C2346 C2347 1.391 . S
C2347 H2335 0.950 . S
C2347 C2343 1.393 . S
C2347 C2346 1.391 . S
H2348 C2356 0.950 . S
H2349 C2361 0.950 . S
H2350 C2358 0.950 . S
H2351 C2360 0.950 . S
H2352 C2362 0.950 . S
H2353 C2364 0.950 . S
H2354 C2366 0.950 . S
H2355 C2367 0.950 . S
C2356 H2348 0.950 . S
C2356 C2357 1.386 . S
C2356 C2358 1.391 . S
C2357 C2356 1.386 . S
C2357 C2361 1.393 . S
C2358 H2350 0.950 . S
C2358 C2356 1.391 . S
C2358 C2359 1.400 . S
C2359 C2358 1.400 . S
C2359 C2360 1.398 . S
C2359 C2365 1.491 . S
C2360 H2351 0.950 . S
C2360 C2359 1.398 . S
C2360 C2361 1.391 . S
C2361 H2349 0.950 . S
C2361 C2357 1.393 . S
C2361 C2360 1.391 . S
C2362 H2352 0.950 . S
C2362 C2363 1.386 . S
C2362 C2364 1.391 . S
C2363 C2362 1.386 . S
C2363 C2367 1.393 . S
C2364 H2353 0.950 . S
C2364 C2362 1.391 . S
C2364 C2365 1.400 . S
C2365 C2359 1.491 . S
C2365 C2364 1.400 . S
C2365 C2366 1.398 . S
C2366 H2354 0.950 . S
C2366 C2365 1.398 . S
C2366 C2367 1.391 . S
C2367 H2355 0.950 . S
C2367 C2363 1.393 . S
C2367 C2366 1.391 . S
H2368 C2376 0.950 . S
H2369 C2381 0.950 . S
H2370 C2378 0.950 . S
H2371 C2380 0.950 . S
H2372 C2382 0.950 . S
H2373 C2384 0.950 . S
H2374 C2386 0.950 . S
H2375 C2387 0.950 . S
C2376 H2368 0.950 . S
C2376 C2377 1.386 . S
C2376 C2378 1.391 . S
C2377 C2376 1.386 . S
C2377 C2381 1.393 . S
C2378 H2370 0.950 . S
C2378 C2376 1.391 . S
C2378 C2379 1.400 . S
C2379 C2378 1.400 . S
C2379 C2380 1.398 . S
C2379 C2385 1.491 . S
C2380 H2371 0.950 . S
C2380 C2379 1.398 . S
C2380 C2381 1.391 . S
C2381 H2369 0.950 . S
C2381 C2377 1.393 . S
C2381 C2380 1.391 . S
C2382 H2372 0.950 . S
C2382 C2383 1.386 . S
C2382 C2384 1.391 . S
C2383 C2382 1.386 . S
C2383 C2387 1.393 . S
C2384 H2373 0.950 . S
C2384 C2382 1.391 . S
C2384 C2385 1.400 . S
C2385 C2379 1.491 . S
C2385 C2384 1.400 . S
C2385 C2386 1.398 . S
C2386 H2374 0.950 . S
C2386 C2385 1.398 . S
C2386 C2387 1.391 . S
C2387 H2375 0.950 . S
C2387 C2383 1.393 . S
C2387 C2386 1.391 . S
H2388 C2396 0.950 . S
H2389 C2401 0.950 1_655 S
H2390 C2398 0.950 . S
H2391 C2400 0.950 1_655 S
H2392 C2402 0.950 . S
H2393 C2404 0.950 . S
H2394 C2406 0.950 . S
H2395 C2407 0.950 . S
C2396 H2388 0.950 . S
C2396 C2397 1.386 . S
C2396 C2398 1.391 . S
C2397 C2396 1.386 . S
C2397 C2401 1.393 . S
C2398 H2390 0.950 . S
C2398 C2396 1.391 . S
C2398 C2399 1.400 . S
C2399 C2398 1.400 . S
C2399 C2400 1.398 . S
C2399 C2405 1.491 . S
C2400 H2391 0.950 1_455 S
C2400 C2399 1.398 . S
C2400 C2401 1.391 . S
C2401 H2389 0.950 1_455 S
C2401 C2397 1.393 . S
C2401 C2400 1.391 . S
C2402 H2392 0.950 . S
C2402 C2403 1.386 1_655 S
C2402 C2404 1.391 . S
C2403 C2402 1.386 1_455 S
C2403 C2407 1.393 . S
C2404 H2393 0.950 . S
C2404 C2402 1.391 . S
C2404 C2405 1.400 1_655 S
C2405 C2399 1.491 . S
C2405 C2404 1.400 1_455 S
C2405 C2406 1.398 . S
C2406 H2394 0.950 . S
C2406 C2405 1.398 . S
C2406 C2407 1.391 . S
C2407 H2395 0.950 . S
C2407 C2403 1.393 . S
C2407 C2406 1.391 . S
H2408 C2416 0.950 . S
H2409 C2421 0.950 . S
H2410 C2418 0.950 . S
H2411 C2420 0.950 . S
H2412 C2422 0.950 . S
H2413 C2424 0.950 . S
H2414 C2426 0.950 . S
H2415 C2427 0.950 . S
C2416 H2408 0.950 . S
C2416 C2417 1.386 . S
C2416 C2418 1.391 . S
C2417 C2416 1.386 . S
C2417 C2421 1.393 . S
C2418 H2410 0.950 . S
C2418 C2416 1.391 . S
C2418 C2419 1.400 . S
C2419 C2418 1.400 . S
C2419 C2420 1.398 . S
C2419 C2425 1.491 . S
C2420 H2411 0.950 . S
C2420 C2419 1.398 . S
C2420 C2421 1.391 . S
C2421 H2409 0.950 . S
C2421 C2417 1.393 . S
C2421 C2420 1.391 . S
C2422 H2412 0.950 . S
C2422 C2423 1.386 . S
C2422 C2424 1.391 . S
C2423 C2422 1.386 . S
C2423 C2427 1.393 . S
C2424 H2413 0.950 . S
C2424 C2422 1.391 . S
C2424 C2425 1.400 . S
C2425 C2419 1.491 . S
C2425 C2424 1.400 . S
C2425 C2426 1.398 . S
C2426 H2414 0.950 . S
C2426 C2425 1.398 . S
C2426 C2427 1.391 . S
C2427 H2415 0.950 . S
C2427 C2423 1.393 . S
C2427 C2426 1.391 . S
H2428 C2436 0.950 . S
H2429 C2441 0.950 . S
H2430 C2438 0.950 . S
H2431 C2440 0.950 . S
H2432 C2442 0.950 1_545 S
H2433 C2444 0.950 . S
H2434 C2446 0.950 . S
H2435 C2447 0.950 . S
C2436 H2428 0.950 . S
C2436 C2437 1.386 . S
C2436 C2438 1.391 . S
C2437 C2436 1.386 . S
C2437 C2441 1.393 . S
C2438 H2430 0.950 . S
C2438 C2436 1.391 . S
C2438 C2439 1.400 . S
C2439 C2438 1.400 . S
C2439 C2440 1.398 . S
C2439 C2445 1.491 . S
C2440 H2431 0.950 . S
C2440 C2439 1.398 . S
C2440 C2441 1.391 . S
C2441 H2429 0.950 . S
C2441 C2437 1.393 . S
C2441 C2440 1.391 . S
C2442 H2432 0.950 1_565 S
C2442 C2443 1.386 . S
C2442 C2444 1.391 . S
C2443 C2442 1.386 . S
C2443 C2447 1.393 . S
C2444 H2433 0.950 . S
C2444 C2442 1.391 . S
C2444 C2445 1.400 . S
C2445 C2439 1.491 . S
C2445 C2444 1.400 . S
C2445 C2446 1.398 . S
C2446 H2434 0.950 . S
C2446 C2445 1.398 . S
C2446 C2447 1.391 . S
C2447 H2435 0.950 . S
C2447 C2443 1.393 . S
C2447 C2446 1.391 . S
H2448 C2456 0.950 . S
H2449 C2461 0.950 . S
H2450 C2458 0.950 . S
H2451 C2460 0.950 . S
H2452 C2462 0.950 . S
H2453 C2464 0.950 . S
H2454 C2466 0.950 . S
H2455 C2467 0.950 . S
C2456 H2448 0.950 . S
C2456 C2457 1.386 . S
C2456 C2458 1.391 . S
C2457 C2456 1.386 . S
C2457 C2461 1.393 . S
C2458 H2450 0.950 . S
C2458 C2456 1.391 . S
C2458 C2459 1.400 . S
C2459 C2458 1.400 . S
C2459 C2460 1.398 . S
C2459 C2465 1.491 . S
C2460 H2451 0.950 . S
C2460 C2459 1.398 . S
C2460 C2461 1.391 . S
C2461 H2449 0.950 . S
C2461 C2457 1.393 . S
C2461 C2460 1.391 . S
C2462 H2452 0.950 . S
C2462 C2463 1.386 . S
C2462 C2464 1.391 . S
C2463 C2462 1.386 . S
C2463 C2467 1.393 . S
C2464 H2453 0.950 . S
C2464 C2462 1.391 . S
C2464 C2465 1.400 . S
C2465 C2459 1.491 . S
C2465 C2464 1.400 . S
C2465 C2466 1.398 . S
C2466 H2454 0.950 . S
C2466 C2465 1.398 . S
C2466 C2467 1.391 . S
C2467 H2455 0.950 . S
C2467 C2463 1.393 . S
C2467 C2466 1.391 . S
H2468 C2476 0.950 . S
H2469 C2481 0.950 1_655 S
H2470 C2478 0.950 . S
H2471 C2480 0.950 1_655 S
H2472 C2482 0.950 . S
H2473 C2484 0.950 . S
H2474 C2486 0.950 . S
H2475 C2487 0.950 . S
C2476 H2468 0.950 . S
C2476 C2477 1.386 . S
C2476 C2478 1.391 . S
C2477 C2476 1.386 . S
C2477 C2481 1.393 . S
C2478 H2470 0.950 . S
C2478 C2476 1.391 . S
C2478 C2479 1.400 . S
C2479 C2478 1.400 . S
C2479 C2480 1.398 . S
C2479 C2485 1.491 . S
C2480 H2471 0.950 1_455 S
C2480 C2479 1.398 . S
C2480 C2481 1.391 . S
C2481 H2469 0.950 1_455 S
C2481 C2477 1.393 . S
C2481 C2480 1.391 . S
C2482 H2472 0.950 . S
C2482 C2483 1.386 1_655 S
C2482 C2484 1.391 . S
C2483 C2482 1.386 1_455 S
C2483 C2487 1.393 . S
C2484 H2473 0.950 . S
C2484 C2482 1.391 . S
C2484 C2485 1.400 1_655 S
C2485 C2479 1.491 . S
C2485 C2484 1.400 1_455 S
C2485 C2486 1.398 . S
C2486 H2474 0.950 . S
C2486 C2485 1.398 . S
C2486 C2487 1.391 . S
C2487 H2475 0.950 . S
C2487 C2483 1.393 . S
C2487 C2486 1.391 . S
H2488 C2496 0.950 . S
H2489 C2501 0.950 . S
H2490 C2498 0.950 . S
H2491 C2500 0.950 . S
H2492 C2502 0.950 . S
H2493 C2504 0.950 . S
H2494 C2506 0.950 . S
H2495 C2507 0.950 . S
C2496 H2488 0.950 . S
C2496 C2497 1.386 . S
C2496 C2498 1.391 . S
C2497 C2496 1.386 . S
C2497 C2501 1.393 . S
C2498 H2490 0.950 . S
C2498 C2496 1.391 . S
C2498 C2499 1.400 . S
C2499 C2498 1.400 . S
C2499 C2500 1.398 . S
C2499 C2505 1.491 . S
C2500 H2491 0.950 . S
C2500 C2499 1.398 . S
C2500 C2501 1.391 . S
C2501 H2489 0.950 . S
C2501 C2497 1.393 . S
C2501 C2500 1.391 . S
C2502 H2492 0.950 . S
C2502 C2503 1.386 . S
C2502 C2504 1.391 . S
C2503 C2502 1.386 . S
C2503 C2507 1.393 . S
C2504 H2493 0.950 . S
C2504 C2502 1.391 . S
C2504 C2505 1.400 . S
C2505 C2499 1.491 . S
C2505 C2504 1.400 . S
C2505 C2506 1.398 . S
C2506 H2494 0.950 . S
C2506 C2505 1.398 . S
C2506 C2507 1.391 . S
C2507 H2495 0.950 . S
C2507 C2503 1.393 . S
C2507 C2506 1.391 . S
H2508 C2516 0.950 . S
H2509 C2521 0.950 . S
H2510 C2518 0.950 . S
H2511 C2520 0.950 . S
H2512 C2522 0.950 . S
H2513 C2524 0.950 . S
H2514 C2526 0.950 . S
H2515 C2527 0.950 . S
C2516 H2508 0.950 . S
C2516 C2517 1.386 . S
C2516 C2518 1.391 . S
C2517 C2516 1.386 . S
C2517 C2521 1.393 . S
C2518 H2510 0.950 . S
C2518 C2516 1.391 . S
C2518 C2519 1.400 . S
C2519 C2518 1.400 . S
C2519 C2520 1.398 . S
C2519 C2525 1.491 . S
C2520 H2511 0.950 . S
C2520 C2519 1.398 . S
C2520 C2521 1.391 . S
C2521 H2509 0.950 . S
C2521 C2517 1.393 . S
C2521 C2520 1.391 . S
C2522 H2512 0.950 . S
C2522 C2523 1.386 . S
C2522 C2524 1.391 . S
C2523 C2522 1.386 . S
C2523 C2527 1.393 . S
C2524 H2513 0.950 . S
C2524 C2522 1.391 . S
C2524 C2525 1.400 . S
C2525 C2519 1.491 . S
C2525 C2524 1.400 . S
C2525 C2526 1.398 . S
C2526 H2514 0.950 . S
C2526 C2525 1.398 . S
C2526 C2527 1.391 . S
C2527 H2515 0.950 . S
C2527 C2523 1.393 . S
C2527 C2526 1.391 . S
H2528 C2536 0.950 . S
H2529 C2541 0.950 . S
H2530 C2538 0.950 . S
H2531 C2540 0.950 . S
H2532 C2542 0.950 . S
H2533 C2544 0.950 . S
H2534 C2546 0.950 . S
H2535 C2547 0.950 . S
C2536 H2528 0.950 . S
C2536 C2537 1.386 . S
C2536 C2538 1.391 . S
C2537 C2536 1.386 . S
C2537 C2541 1.393 . S
C2538 H2530 0.950 . S
C2538 C2536 1.391 . S
C2538 C2539 1.400 . S
C2539 C2538 1.400 . S
C2539 C2540 1.398 . S
C2539 C2545 1.491 . S
C2540 H2531 0.950 . S
C2540 C2539 1.398 . S
C2540 C2541 1.391 . S
C2541 H2529 0.950 . S
C2541 C2537 1.393 . S
C2541 C2540 1.391 . S
C2542 H2532 0.950 . S
C2542 C2543 1.386 . S
C2542 C2544 1.391 . S
C2543 C2542 1.386 . S
C2543 C2547 1.393 . S
C2544 H2533 0.950 . S
C2544 C2542 1.391 . S
C2544 C2545 1.400 . S
C2545 C2539 1.491 . S
C2545 C2544 1.400 . S
C2545 C2546 1.398 . S
C2546 H2534 0.950 . S
C2546 C2545 1.398 . S
C2546 C2547 1.391 . S
C2547 H2535 0.950 . S
C2547 C2543 1.393 . S
C2547 C2546 1.391 . S
H2548 C2556 0.950 . S
H2549 C2561 0.950 . S
H2550 C2558 0.950 . S
H2551 C2560 0.950 . S
H2552 C2562 0.950 . S
H2553 C2564 0.950 . S
H2554 C2566 0.950 . S
H2555 C2567 0.950 . S
C2556 H2548 0.950 . S
C2556 C2557 1.386 . S
C2556 C2558 1.391 . S
C2557 C2556 1.386 . S
C2557 C2561 1.393 . S
C2558 H2550 0.950 . S
C2558 C2556 1.391 . S
C2558 C2559 1.400 . S
C2559 C2558 1.400 . S
C2559 C2560 1.398 . S
C2559 C2565 1.491 . S
C2560 H2551 0.950 . S
C2560 C2559 1.398 . S
C2560 C2561 1.391 . S
C2561 H2549 0.950 . S
C2561 C2557 1.393 . S
C2561 C2560 1.391 . S
C2562 H2552 0.950 . S
C2562 C2563 1.386 . S
C2562 C2564 1.391 . S
C2563 C2562 1.386 . S
C2563 C2567 1.393 . S
C2564 H2553 0.950 . S
C2564 C2562 1.391 . S
C2564 C2565 1.400 . S
C2565 C2559 1.491 . S
C2565 C2564 1.400 . S
C2565 C2566 1.398 . S
C2566 H2554 0.950 . S
C2566 C2565 1.398 . S
C2566 C2567 1.391 . S
C2567 H2555 0.950 . S
C2567 C2563 1.393 . S
C2567 C2566 1.391 . S
H2568 C2576 0.950 . S
H2569 C2581 0.950 . S
H2570 C2578 0.950 . S
H2571 C2580 0.950 . S
H2572 C2582 0.950 . S
H2573 C2584 0.950 . S
H2574 C2586 0.950 . S
H2575 C2587 0.950 . S
C2576 H2568 0.950 . S
C2576 C2577 1.386 . S
C2576 C2578 1.391 . S
C2577 C2576 1.386 . S
C2577 C2581 1.393 . S
C2578 H2570 0.950 . S
C2578 C2576 1.391 . S
C2578 C2579 1.400 . S
C2579 C2578 1.400 . S
C2579 C2580 1.398 . S
C2579 C2585 1.491 . S
C2580 H2571 0.950 . S
C2580 C2579 1.398 . S
C2580 C2581 1.391 . S
C2581 H2569 0.950 . S
C2581 C2577 1.393 . S
C2581 C2580 1.391 . S
C2582 H2572 0.950 . S
C2582 C2583 1.386 . S
C2582 C2584 1.391 . S
C2583 C2582 1.386 . S
C2583 C2587 1.393 . S
C2584 H2573 0.950 . S
C2584 C2582 1.391 . S
C2584 C2585 1.400 . S
C2585 C2579 1.491 . S
C2585 C2584 1.400 . S
C2585 C2586 1.398 . S
C2586 H2574 0.950 . S
C2586 C2585 1.398 . S
C2586 C2587 1.391 . S
C2587 H2575 0.950 . S
C2587 C2583 1.393 . S
C2587 C2586 1.391 . S
H2588 C2596 0.950 . S
H2589 C2601 0.950 . S
H2590 C2598 0.950 1_455 S
H2591 C2600 0.950 . S
H2592 C2602 0.950 . S
H2593 C2604 0.950 . S
H2594 C2606 0.950 1_455 S
H2595 C2607 0.957 . S
C2596 H2588 0.950 . S
C2596 C2597 1.386 . S
C2596 C2598 1.391 . S
C2597 C2596 1.386 . S
C2597 C2601 1.393 . S
C2598 H2590 0.950 1_655 S
C2598 C2596 1.391 . S
C2598 C2599 1.400 . S
C2599 C2598 1.400 . S
C2599 C2600 1.398 . S
C2599 C2605 1.491 . S
C2600 H2591 0.950 . S
C2600 C2599 1.398 . S
C2600 C2601 1.391 . S
C2601 H2589 0.950 . S
C2601 C2597 1.393 . S
C2601 C2600 1.391 . S
C2602 H2592 0.950 . S
C2602 C2603 1.386 . S
C2602 C2604 1.391 . S
C2603 C2602 1.386 . S
C2603 C2607 1.380 1_655 S
C2604 H2593 0.950 . S
C2604 C2602 1.391 . S
C2604 C2605 1.400 . S
C2605 C2599 1.491 . S
C2605 C2604 1.400 . S
C2605 C2606 1.398 . S
C2606 H2594 0.950 1_655 S
C2606 C2605 1.398 . S
C2606 C2607 1.397 1_655 S
C2607 H2595 0.957 . S
C2607 C2603 1.380 1_455 S
C2607 C2606 1.397 1_455 S
H2608 C2616 0.950 . S
H2609 C2621 0.950 . S
H2610 C2618 0.950 . S
H2611 C2620 0.950 . S
H2612 C2622 0.950 . S
H2613 C2624 0.950 . S
H2614 C2626 0.950 . S
H2615 C2627 0.950 . S
C2616 H2608 0.950 . S
C2616 C2617 1.386 . S
C2616 C2618 1.391 . S
C2617 C2616 1.386 . S
C2617 C2621 1.393 . S
C2618 H2610 0.950 . S
C2618 C2616 1.391 . S
C2618 C2619 1.400 . S
C2619 C2618 1.400 . S
C2619 C2620 1.398 . S
C2619 C2625 1.491 . S
C2620 H2611 0.950 . S
C2620 C2619 1.398 . S
C2620 C2621 1.391 . S
C2621 H2609 0.950 . S
C2621 C2617 1.393 . S
C2621 C2620 1.391 . S
C2622 H2612 0.950 . S
C2622 C2623 1.386 . S
C2622 C2624 1.391 . S
C2623 C2622 1.386 . S
C2623 C2627 1.393 . S
C2624 H2613 0.950 . S
C2624 C2622 1.391 . S
C2624 C2625 1.400 . S
C2625 C2619 1.491 . S
C2625 C2624 1.400 . S
C2625 C2626 1.398 . S
C2626 H2614 0.950 . S
C2626 C2625 1.398 . S
C2626 C2627 1.391 . S
C2627 H2615 0.950 . S
C2627 C2623 1.393 . S
C2627 C2626 1.391 . S
H2628 C2636 0.950 . S
H2629 C2641 0.950 . S
H2630 C2638 0.950 . S
H2631 C2640 0.950 . S
H2632 C2642 0.950 . S
H2633 C2644 0.950 . S
H2634 C2646 0.950 . S
H2635 C2647 0.950 . S
C2636 H2628 0.950 . S
C2636 C2637 1.386 . S
C2636 C2638 1.391 . S
C2637 C2636 1.386 . S
C2637 C2641 1.393 . S
C2638 H2630 0.950 . S
C2638 C2636 1.391 . S
C2638 C2639 1.400 . S
C2639 C2638 1.400 . S
C2639 C2640 1.398 . S
C2639 C2645 1.491 . S
C2640 H2631 0.950 . S
C2640 C2639 1.398 . S
C2640 C2641 1.391 . S
C2641 H2629 0.950 . S
C2641 C2637 1.393 . S
C2641 C2640 1.391 . S
C2642 H2632 0.950 . S
C2642 C2643 1.386 . S
C2642 C2644 1.391 . S
C2643 C2642 1.386 . S
C2643 C2647 1.393 . S
C2644 H2633 0.950 . S
C2644 C2642 1.391 . S
C2644 C2645 1.400 . S
C2645 C2639 1.491 . S
C2645 C2644 1.400 . S
C2645 C2646 1.398 . S
C2646 H2634 0.950 . S
C2646 C2645 1.398 . S
C2646 C2647 1.391 . S
C2647 H2635 0.950 . S
C2647 C2643 1.393 . S
C2647 C2646 1.391 . S
H2648 C2656 0.950 . S
H2649 C2661 0.950 . S
H2650 C2658 0.950 . S
H2651 C2660 0.950 . S
H2652 C2662 0.950 . S
H2653 C2664 0.950 . S
H2654 C2666 0.950 . S
H2655 C2667 0.950 . S
C2656 H2648 0.950 . S
C2656 C2657 1.386 . S
C2656 C2658 1.391 . S
C2657 C2656 1.386 . S
C2657 C2661 1.393 . S
C2658 H2650 0.950 . S
C2658 C2656 1.391 . S
C2658 C2659 1.400 . S
C2659 C2658 1.400 . S
C2659 C2660 1.398 . S
C2659 C2665 1.491 . S
C2660 H2651 0.950 . S
C2660 C2659 1.398 . S
C2660 C2661 1.391 . S
C2661 H2649 0.950 . S
C2661 C2657 1.393 . S
C2661 C2660 1.391 . S
C2662 H2652 0.950 . S
C2662 C2663 1.386 . S
C2662 C2664 1.391 . S
C2663 C2662 1.386 . S
C2663 C2667 1.393 . S
C2664 H2653 0.950 . S
C2664 C2662 1.391 . S
C2664 C2665 1.400 . S
C2665 C2659 1.491 . S
C2665 C2664 1.400 . S
C2665 C2666 1.398 . S
C2666 H2654 0.950 . S
C2666 C2665 1.398 . S
C2666 C2667 1.391 . S
C2667 H2655 0.950 . S
C2667 C2663 1.393 . S
C2667 C2666 1.391 . S
H2668 C2676 0.950 . S
H2669 C2681 0.950 . S
H2670 C2678 0.950 . S
H2671 C2680 0.950 . S
H2672 C2682 0.950 . S
H2673 C2684 0.950 . S
H2674 C2686 0.950 . S
H2675 C2687 0.950 . S
C2676 H2668 0.950 . S
C2676 C2677 1.386 . S
C2676 C2678 1.391 . S
C2677 C2676 1.386 . S
C2677 C2681 1.393 . S
C2678 H2670 0.950 . S
C2678 C2676 1.391 . S
C2678 C2679 1.400 . S
C2679 C2678 1.400 . S
C2679 C2680 1.398 . S
C2679 C2685 1.491 . S
C2680 H2671 0.950 . S
C2680 C2679 1.398 . S
C2680 C2681 1.391 . S
C2681 H2669 0.950 . S
C2681 C2677 1.393 . S
C2681 C2680 1.391 . S
C2682 H2672 0.950 . S
C2682 C2683 1.386 . S
C2682 C2684 1.391 . S
C2683 C2682 1.386 . S
C2683 C2687 1.393 . S
C2684 H2673 0.950 . S
C2684 C2682 1.391 . S
C2684 C2685 1.400 . S
C2685 C2679 1.491 . S
C2685 C2684 1.400 . S
C2685 C2686 1.398 . S
C2686 H2674 0.950 . S
C2686 C2685 1.398 . S
C2686 C2687 1.391 . S
C2687 H2675 0.950 . S
C2687 C2683 1.393 . S
C2687 C2686 1.391 . S
H2688 C2696 0.950 . S
H2689 C2701 0.950 . S
H2690 C2698 0.950 . S
H2691 C2700 0.950 . S
H2692 C2702 0.950 . S
H2693 C2704 0.950 . S
H2694 C2706 0.950 . S
H2695 C2707 0.950 . S
C2696 H2688 0.950 . S
C2696 C2697 1.386 . S
C2696 C2698 1.391 . S
C2697 C2696 1.386 . S
C2697 C2701 1.393 . S
C2698 H2690 0.950 . S
C2698 C2696 1.391 . S
C2698 C2699 1.400 . S
C2699 C2698 1.400 . S
C2699 C2700 1.398 . S
C2699 C2705 1.491 . S
C2700 H2691 0.950 . S
C2700 C2699 1.398 . S
C2700 C2701 1.391 . S
C2701 H2689 0.950 . S
C2701 C2697 1.393 . S
C2701 C2700 1.391 . S
C2702 H2692 0.950 . S
C2702 C2703 1.386 . S
C2702 C2704 1.391 . S
C2703 C2702 1.386 . S
C2703 C2707 1.393 . S
C2704 H2693 0.950 . S
C2704 C2702 1.391 . S
C2704 C2705 1.400 . S
C2705 C2699 1.491 . S
C2705 C2704 1.400 . S
C2705 C2706 1.398 . S
C2706 H2694 0.950 . S
C2706 C2705 1.398 . S
C2706 C2707 1.391 . S
C2707 H2695 0.950 . S
C2707 C2703 1.393 . S
C2707 C2706 1.391 . S
H2708 C2716 0.950 . S
H2709 C2721 0.950 . S
H2710 C2718 0.950 . S
H2711 C2720 0.950 . S
H2712 C2722 0.950 . S
H2713 C2724 0.950 . S
H2714 C2726 0.950 . S
H2715 C2727 0.950 . S
C2716 H2708 0.950 . S
C2716 C2717 1.386 . S
C2716 C2718 1.391 . S
C2717 C2716 1.386 . S
C2717 C2721 1.393 . S
C2718 H2710 0.950 . S
C2718 C2716 1.391 . S
C2718 C2719 1.400 . S
C2719 C2718 1.400 . S
C2719 C2720 1.398 . S
C2719 C2725 1.491 . S
C2720 H2711 0.950 . S
C2720 C2719 1.398 . S
C2720 C2721 1.391 . S
C2721 H2709 0.950 . S
C2721 C2717 1.393 . S
C2721 C2720 1.391 . S
C2722 H2712 0.950 . S
C2722 C2723 1.386 . S
C2722 C2724 1.391 . S
C2723 C2722 1.386 . S
C2723 C2727 1.393 . S
C2724 H2713 0.950 . S
C2724 C2722 1.391 . S
C2724 C2725 1.400 . S
C2725 C2719 1.491 . S
C2725 C2724 1.400 . S
C2725 C2726 1.398 . S
C2726 H2714 0.950 . S
C2726 C2725 1.398 . S
C2726 C2727 1.391 . S
C2727 H2715 0.950 . S
C2727 C2723 1.393 . S
C2727 C2726 1.391 . S
H2728 C2736 0.950 . S
H2729 C2741 0.950 . S
H2730 C2738 0.950 . S
H2731 C2740 0.950 . S
H2732 C2742 0.950 . S
H2733 C2744 0.950 . S
H2734 C2746 0.950 . S
H2735 C2747 0.950 . S
C2736 H2728 0.950 . S
C2736 C2737 1.386 . S
C2736 C2738 1.391 . S
C2737 C2736 1.386 . S
C2737 C2741 1.393 . S
C2738 H2730 0.950 . S
C2738 C2736 1.391 . S
C2738 C2739 1.400 . S
C2739 C2738 1.400 . S
C2739 C2740 1.398 . S
C2739 C2745 1.491 . S
C2740 H2731 0.950 . S
C2740 C2739 1.398 . S
C2740 C2741 1.391 . S
C2741 H2729 0.950 . S
C2741 C2737 1.393 . S
C2741 C2740 1.391 . S
C2742 H2732 0.950 . S
C2742 C2743 1.386 . S
C2742 C2744 1.391 . S
C2743 C2742 1.386 . S
C2743 C2747 1.393 . S
C2744 H2733 0.950 . S
C2744 C2742 1.391 . S
C2744 C2745 1.400 . S
C2745 C2739 1.491 . S
C2745 C2744 1.400 . S
C2745 C2746 1.398 . S
C2746 H2734 0.950 . S
C2746 C2745 1.398 . S
C2746 C2747 1.391 . S
C2747 H2735 0.950 . S
C2747 C2743 1.393 . S
C2747 C2746 1.391 . S
H2748 C2756 0.950 . S
H2749 C2761 0.950 1_455 S
H2750 C2758 0.950 . S
H2751 C2760 0.944 1_455 S
H2752 C2762 0.950 . S
H2753 C2764 0.950 . S
H2754 C2766 0.950 . S
H2755 C2767 0.950 . S
C2756 H2748 0.950 . S
C2756 C2757 1.386 . S
C2756 C2758 1.391 . S
C2757 C2756 1.386 . S
C2757 C2761 1.393 . S
C2758 H2750 0.950 . S
C2758 C2756 1.391 . S
C2758 C2759 1.400 . S
C2759 C2758 1.400 . S
C2759 C2760 1.400 . S
C2759 C2765 1.491 . S
C2760 H2751 0.944 1_655 S
C2760 C2759 1.400 . S
C2760 C2761 1.394 . S
C2761 H2749 0.950 1_655 S
C2761 C2757 1.393 . S
C2761 C2760 1.394 . S
C2762 H2752 0.950 . S
C2762 C2763 1.386 1_455 S
C2762 C2764 1.391 . S
C2763 C2762 1.386 1_655 S
C2763 C2767 1.393 . S
C2764 H2753 0.950 . S
C2764 C2762 1.391 . S
C2764 C2765 1.400 1_455 S
C2765 C2759 1.491 . S
C2765 C2764 1.400 1_655 S
C2765 C2766 1.398 . S
C2766 H2754 0.950 . S
C2766 C2765 1.398 . S
C2766 C2767 1.391 . S
C2767 H2755 0.950 . S
C2767 C2763 1.393 . S
C2767 C2766 1.391 . S
H2768 C2776 0.950 . S
H2769 C2781 0.950 . S
H2770 C2778 0.950 . S
H2771 C2780 0.950 . S
H2772 C2782 0.950 . S
H2773 C2784 0.950 . S
H2774 C2786 0.950 . S
H2775 C2787 0.950 . S
C2776 H2768 0.950 . S
C2776 C2777 1.386 . S
C2776 C2778 1.391 . S
C2777 C2776 1.386 . S
C2777 C2781 1.393 . S
C2778 H2770 0.950 . S
C2778 C2776 1.391 . S
C2778 C2779 1.400 . S
C2779 C2778 1.400 . S
C2779 C2780 1.398 . S
C2779 C2785 1.491 . S
C2780 H2771 0.950 . S
C2780 C2779 1.398 . S
C2780 C2781 1.391 . S
C2781 H2769 0.950 . S
C2781 C2777 1.393 . S
C2781 C2780 1.391 . S
C2782 H2772 0.950 . S
C2782 C2783 1.386 . S
C2782 C2784 1.391 . S
C2783 C2782 1.386 . S
C2783 C2787 1.393 . S
C2784 H2773 0.950 . S
C2784 C2782 1.391 . S
C2784 C2785 1.400 . S
C2785 C2779 1.491 . S
C2785 C2784 1.400 . S
C2785 C2786 1.398 . S
C2786 H2774 0.950 . S
C2786 C2785 1.398 . S
C2786 C2787 1.391 . S
C2787 H2775 0.950 . S
C2787 C2783 1.393 . S
C2787 C2786 1.391 . S
H2788 C2796 0.950 . S
H2789 C2801 0.950 . S
H2790 C2798 0.950 . S
H2791 C2800 0.950 . S
H2792 C2802 0.950 . S
H2793 C2804 0.950 . S
H2794 C2806 0.950 . S
H2795 C2807 0.950 . S
C2796 H2788 0.950 . S
C2796 C2797 1.386 . S
C2796 C2798 1.391 . S
C2797 C2796 1.386 . S
C2797 C2801 1.393 . S
C2798 H2790 0.950 . S
C2798 C2796 1.391 . S
C2798 C2799 1.400 . S
C2799 C2798 1.400 . S
C2799 C2800 1.398 . S
C2799 C2805 1.491 . S
C2800 H2791 0.950 . S
C2800 C2799 1.398 . S
C2800 C2801 1.391 . S
C2801 H2789 0.950 . S
C2801 C2797 1.393 . S
C2801 C2800 1.391 . S
C2802 H2792 0.950 . S
C2802 C2803 1.386 . S
C2802 C2804 1.391 . S
C2803 C2802 1.386 . S
C2803 C2807 1.393 . S
C2804 H2793 0.950 . S
C2804 C2802 1.391 . S
C2804 C2805 1.400 . S
C2805 C2799 1.491 . S
C2805 C2804 1.400 . S
C2805 C2806 1.398 . S
C2806 H2794 0.950 . S
C2806 C2805 1.398 . S
C2806 C2807 1.391 . S
C2807 H2795 0.950 . S
C2807 C2803 1.393 . S
C2807 C2806 1.391 . S
C1377 C9 1.562 1_655 S
C1383 C857 1.508 . S
C1397 C19 1.604 . S
C1403 C901 1.554 . S
C1423 C981 1.548 . S
C1417 C33 1.612 . S
C1437 C37 1.598 . S
C1443 C1025 1.540 . S
C1457 C5 1.575 . S
C1463 C1105 1.524 . S
C1477 C23 1.636 . S
C1483 C1167 1.559 . S
C1497 C47 1.589 . S
C1503 C1087 1.534 . S
C1523 C1149 1.557 . S
C1517 C65 1.653 . S
C1543 C1043 1.530 . S
C1537 C75 1.579 . S
C1557 C79 1.546 . S
C1563 C963 1.475 . S
C1583 C839 1.531 . S
C1577 C51 1.636 1_655 S
C1597 C61 1.631 . S
C1603 C919 1.595 . S
C1617 C93 1.700 . S
C1623 C1229 1.623 . S
C1637 C103 1.645 . S
C1643 C1273 1.595 . S
C1663 C1353 1.595 . S
C1657 C117 1.683 . S
C1677 C121 1.666 . S
C1683 C299 1.596 . S
C1697 C89 1.662 . S
C1703 C343 1.610 . S
C1717 C107 1.672 . S
C1723 C423 1.575 . S
C1737 C131 1.652 . S
C1743 C361 1.601 . S
C1757 C149 1.678 . S
C1763 C405 1.593 . S
C1783 C281 1.583 . S
C1777 C159 1.652 . S
C1803 C1335 1.572 . S
C1797 C163 1.668 . S
C1823 C1211 1.605 . S
C1817 C135 1.707 . S
C1843 C1291 1.621 . S
C1837 C145 1.670 . S
C1857 C177 1.660 . S
C1863 C485 1.582 . S
C1877 C187 1.630 . S
C1883 C547 1.570 . S
C1897 C201 1.684 . S
C1903 C591 1.627 . S
C1917 C205 1.704 . S
C1923 C653 1.656 . S
C1943 C715 1.630 . S
C1937 C173 1.667 . S
C1963 C795 1.618 . S
C1957 C191 1.687 . S
C1983 C733 1.643 . S
C1977 C215 1.696 . S
C2003 C777 1.606 . S
C1997 C233 1.703 . S
C2017 C243 1.642 . S
C2023 C671 1.592 . S
C2043 C609 1.582 . S
C2037 C247 1.623 . S
C2057 C219 1.708 . S
C2063 C467 1.611 . S
C2083 C529 1.578 . S
C2077 C229 1.663 . S
C2103 C305 1.468 . S
C2097 C11 1.544 . S
C2117 C14 1.528 . S
C2123 C349 1.474 . S
C2143 C429 1.522 . S
C2137 C28 1.612 . S
C2163 C491 1.515 . S
C2157 C39 1.605 . S
C2183 C553 1.467 . S
C2177 C0 1.545 1_556 S
C2203 C597 1.429 . S
C2197 C25 1.492 . S
C2217 C42 1.605 . S
C2223 C615 1.556 . S
C2237 C67 1.539 . S
C2243 C473 1.453 . S
C2257 C70 1.505 . S
C2263 C535 1.444 . S
C2277 C81 1.541 . S
C2283 C367 1.499 . S
C2303 C411 1.505 . S
C2297 C53 1.581 . S
C2317 C56 1.558 . S
C2323 C287 1.481 . S
C2343 C659 1.490 . S
C2337 C95 1.538 . S
C2357 C98 1.585 . S
C2363 C721 1.534 . S
C2377 C112 1.657 1_655 S
C2383 C801 1.572 . S
C2403 C863 1.443 . S
C2397 C123 1.487 . S
C2417 C84 1.551 . S
C2423 C907 1.500 . S
C2437 C109 1.429 . S
C2443 C987 1.373 . S
C2457 C126 1.505 . S
C2463 C969 1.447 . S
C2477 C151 1.464 . S
C2483 C845 1.397 . S
C2503 C925 1.477 . S
C2497 C154 1.522 . S
C2517 C165 1.524 . S
C2523 C739 1.450 . S
C2537 C137 1.609 . S
C2543 C783 1.525 . S
C2563 C677 1.570 . S
C2557 C140 1.620 1_655 S
C2583 C1031 1.416 . S
C2577 C179 1.455 . S
C2597 C182 1.463 . S
C2603 C1111 1.396 . S
C2617 C196 1.602 . S
C2623 C1173 1.522 . S
C2643 C1235 1.507 . S
C2637 C207 1.596 . S
C2663 C1279 1.515 . S
C2657 C168 1.591 1_565 S
C2677 C193 1.559 . S
C2683 C1359 1.486 . S
C2697 C210 1.604 . S
C2703 C1341 1.518 . S
C2717 C235 1.599 . S
C2723 C1217 1.530 . S
C2743 C1297 1.513 . S
C2737 C238 1.625 . S
C2763 C1093 1.354 . S
C2757 C249 1.418 . S
C2783 C1155 1.499 . S
C2777 C221 1.568 . S
C2797 C224 1.501 . S
C2803 C1049 1.454 . S
