# Generated by pormake.
# Topology tsx, (6,3)-cn, num edge types: 1
# Building blocks:
#     Node 0, Type 0, BuildingBlock: JUFBIX_clean_sbu_0, # of connection points: 6
#     Node 1, Type 0, BuildingBlock: JUFBIX_clean_sbu_0, # of connection points: 6
#     Node 2, Type 1, BuildingBlock: PAMTOO_clean_linker_0, # of connection points: 3
#     Node 3, Type 1, BuildingBlock: PAMTOO_clean_linker_0, # of connection points: 3
#     Node 4, Type 1, BuildingBlock: PAMTOO_clean_linker_0, # of connection points: 3
#     Node 5, Type 1, BuildingBlock: PAMTOO_clean_linker_0, # of connection points: 3
#     Edge 6, Type (0, 1), BuildingBlock: FUNLAD_clean_linker_0, # of connection points: 2
#     Edge 7, Type (0, 1), BuildingBlock: FUNLAD_clean_linker_0, # of connection points: 2
#     Edge 8, Type (0, 1), BuildingBlock: FUNLAD_clean_linker_0, # of connection points: 2
#     Edge 9, Type (0, 1), BuildingBlock: FUNLAD_clean_linker_0, # of connection points: 2
#     Edge 10, Type (0, 1), BuildingBlock: FUNLAD_clean_linker_0, # of connection points: 2
#     Edge 11, Type (0, 1), BuildingBlock: FUNLAD_clean_linker_0, # of connection points: 2
#     Edge 12, Type (0, 1), BuildingBlock: FUNLAD_clean_linker_0, # of connection points: 2
#     Edge 13, Type (0, 1), BuildingBlock: FUNLAD_clean_linker_0, # of connection points: 2
#     Edge 14, Type (0, 1), BuildingBlock: FUNLAD_clean_linker_0, # of connection points: 2
#     Edge 15, Type (0, 1), BuildingBlock: FUNLAD_clean_linker_0, # of connection points: 2
#     Edge 16, Type (0, 1), BuildingBlock: FUNLAD_clean_linker_0, # of connection points: 2
#     Edge 17, Type (0, 1), BuildingBlock: FUNLAD_clean_linker_0, # of connection points: 2
# Relax obj value: 0.109
# Max RMSD: 0.124
# Mean RMSD: 0.121
data_MOF--net-tsx--node1-JUFBIX_clean_sbu_0--node2-PAMTOO_clean_linker_0--edge1-FUNLAD_clean_linker_0
_symmetry_space_group_name_H-M    P1
_symmetry_Int_Tables_number       1
_symmetry_cell_setting            triclinic
loop_
_symmetry_equiv_pos_as_xyz
'x, y, z'
_cell_length_a     23.162954
_cell_length_b     27.429308
_cell_length_c     38.453869
_cell_angle_alpha  85.801484
_cell_angle_beta   89.620186
_cell_angle_gamma 98.089723
loop_
_atom_site_label
_atom_site_type_symbol
_atom_site_fract_x
_atom_site_fract_y
_atom_site_fract_z
_atom_type_partial_charge
Co0 Co 0.07615 0.01524 -0.00454 0.0
C1 C 0.02404 0.0433 0.93276 0.0
Co2 Co 1.00063 0.05589 0.00065 0.0
C3 C 0.15248 0.93771 -0.00609 0.0
C4 C 0.18759 1.00653 0.96682 0.0
N5 N 0.14159 0.98466 0.98671 0.0
N6 N 0.20316 0.92974 0.97895 0.0
C7 C 0.2253 0.97323 0.9622 0.0
H8 H 0.12264 0.90939 0.00838 0.0
H9 H 0.19257 0.04396 0.95509 0.0
C10 C 0.05376 0.0289 0.06327 0.0
N11 N 0.93642 0.08731 0.00885 0.0
C12 C 0.9249 0.13179 -0.00448 0.0
C13 C 0.89316 0.07163 0.0324 0.0
N14 N 0.87643 0.14467 0.01006 0.0
C15 C 0.85629 0.10669 0.03319 0.0
C16 C 0.97175 0.95315 0.00271 0.0
O17 O 0.08682 1.00799 0.04436 0.0
O18 O 1.01446 0.05117 0.04903 0.0
O19 O 0.95249 0.99389 0.00521 0.0
O20 O 0.02604 0.95305 -0.00265 0.0
O21 O 0.98773 0.06037 0.95184 0.0
H22 H 0.88948 0.03741 0.04866 0.0
H23 H 0.95284 0.15506 0.97648 0.0
O24 O 0.06508 0.02325 0.94693 0.0
O25 O 0.12467 0.078 -0.00599 0.0
O26 O 0.04939 0.11775 -0.00354 0.0
C27 C 0.10424 0.11858 -0.00549 0.0
H28 H 0.26557 0.98038 0.94707 0.0
H29 H 0.81785 0.10444 0.0497 0.0
Co30 Co 0.57028 0.49598 0.4921 0.0
C31 C 0.52271 0.52559 0.4284 0.0
Co32 Co 0.49281 0.53468 0.49584 0.0
C33 C 0.64937 0.42096 0.4949 0.0
C34 C 0.68491 0.48903 0.46696 0.0
N35 N 0.63732 0.46692 0.48533 0.0
N36 N 0.70279 0.41398 0.48342 0.0
C37 C 0.72507 0.45688 0.46591 0.0
H38 H 0.61947 0.3931 0.50975 0.0
H39 H 0.68966 0.52589 0.45423 0.0
C40 C 0.54115 0.50611 0.55953 0.0
N41 N 0.42616 0.56371 0.50272 0.0
C42 C 0.41316 0.60836 0.49068 0.0
C43 C 0.38104 0.54437 0.5241 0.0
N44 N 0.3617 0.61762 0.50379 0.0
C45 C 0.34151 0.57719 0.52477 0.0
C46 C 0.46756 0.4317 0.49472 0.0
O47 O 0.57758 0.48812 0.54111 0.0
O48 O 0.50127 0.5269 0.54463 0.0
O49 O 0.44633 0.47173 0.49649 0.0
O50 O 0.52262 0.43324 0.49253 0.0
O51 O 0.48531 0.5423 0.44689 0.0
H52 H 0.37789 0.50915 0.53912 0.0
H53 H 0.44133 0.6337 0.47294 0.0
O54 O 0.56252 0.50457 0.44322 0.0
O55 O 0.61671 0.55927 0.49196 0.0
O56 O 0.54009 0.59742 0.49508 0.0
C57 C 0.59517 0.59921 0.49342 0.0
H58 H 0.7667 0.46398 0.45217 0.0
H59 H 0.30199 0.57224 0.54056 0.0
H60 H 0.14069 0.95211 0.39438 0.0
H61 H 0.01952 0.05695 0.3799 0.0
H62 H 0.03383 0.98062 0.4804 0.0
H63 H 0.906 1.00317 0.45214 0.0
C64 C 0.92437 0.03864 0.43784 0.0
O65 O 0.98327 0.04858 0.44455 0.0
H66 H 0.91758 0.03497 0.40949 0.0
C67 C 0.10785 0.9719 0.40476 0.0
C68 C 0.09161 0.96333 0.4401 0.0
C69 C 0.08115 1.00442 0.38247 0.0
C70 C 0.04026 0.03112 0.3965 0.0
C71 C 0.02294 0.02252 0.43168 0.0
C72 C 0.04764 0.98769 0.45334 0.0
H73 H 0.11559 0.0929 0.60961 0.0
H74 H 0.96582 0.98143 0.60643 0.0
H75 H 0.03977 0.0563 0.51114 0.0
H76 H 0.90225 0.02788 0.51195 0.0
C77 C 0.90198 1.00043 0.53448 0.0
O78 O 0.95746 0.98834 0.53897 0.0
H79 H 0.88781 0.01757 0.55791 0.0
C80 C 0.0837 0.07073 0.59467 0.0
C81 C 0.08429 0.07813 0.55808 0.0
C82 C 0.04081 0.03648 0.61236 0.0
C83 C 0.99873 1.0086 0.5932 0.0
C84 C 0.99838 0.01581 0.55686 0.0
C85 C 0.04059 0.0509 0.53928 0.0
H86 H 0.66244 0.47495 0.88911 0.0
H87 H 0.53869 0.57742 0.87305 0.0
H88 H 0.57834 0.52524 0.97693 0.0
H89 H 0.45034 0.54289 0.96585 0.0
C90 C 0.45896 0.56802 0.942 0.0
O91 O 0.51808 0.5842 0.9388 0.0
H92 H 0.44377 0.54633 0.91957 0.0
C93 C 0.63277 0.49775 0.89947 0.0
C94 C 0.62502 0.49744 0.93568 0.0
C95 C 0.6012 0.52559 0.8765 0.0
C96 C 0.56376 0.55569 0.89023 0.0
C97 C 0.55565 0.55589 0.92632 0.0
C98 C 0.58554 0.52607 0.94908 0.0
H99 H 0.62273 0.60489 0.10717 0.0
H100 H 0.47009 0.49811 0.09846 0.0
H101 H 0.54209 0.58567 0.00747 0.0
H102 H 0.39469 0.55608 0.01551 0.0
C103 C 0.40114 0.52379 0.03337 0.0
O104 O 0.45874 0.51595 0.03185 0.0
H105 H 0.38878 0.532 0.06014 0.0
C106 C 0.58975 0.58602 0.0911 0.0
C107 C 0.58983 0.59856 0.05494 0.0
C108 C 0.54639 0.55046 0.10707 0.0
C109 C 0.50301 0.52661 0.08664 0.0
C110 C 0.50086 0.53993 0.05098 0.0
C111 C 0.54372 0.57627 0.03517 0.0
C112 C 0.1217 0.21088 -0.00428 0.0
C113 C 0.144 0.16585 -0.00506 0.0
C114 C 0.15913 0.25503 -0.00119 0.0
C115 C 0.2198 0.25509 0.0011 0.0
C116 C 0.24199 0.21018 -0.00024 0.0
C117 C 0.20465 0.16612 -0.00349 0.0
C118 C 0.26079 0.3003 0.00748 0.0
C119 C 0.24967 0.34666 -0.00077 0.0
C120 C 0.28998 0.39125 0.00772 0.0
C121 C 0.29005 0.43568 0.98705 0.0
C122 C 0.32633 0.47856 -0.00502 0.0
C123 C 0.36256 0.4779 0.02409 0.0
H124 H 0.32613 0.3578 0.05418 0.0
C125 C 0.36216 0.43372 0.04499 0.0
C126 C 0.32627 0.39082 0.03695 0.0
H127 H 0.38942 0.43257 0.06774 0.0
H128 H 0.07516 0.21193 -0.00524 0.0
H129 H 0.14006 0.28857 0.00064 0.0
H130 H 0.28844 0.20904 0.00168 0.0
H131 H 0.22333 0.13211 -0.00395 0.0
H132 H 0.30246 0.29488 0.01881 0.0
H133 H 0.21076 0.35249 0.98484 0.0
H134 H 0.26214 0.43718 0.96461 0.0
H135 H 0.32583 0.51227 0.9785 0.0
C136 C 0.26096 0.87567 0.94913 0.0
C137 C 0.22747 0.88414 0.97816 0.0
C138 C 0.2877 0.8332 0.94866 0.0
C139 C 0.28139 0.7976 0.97717 0.0
C140 C 0.24756 0.80577 0.00616 0.0
C141 C 0.2204 0.8484 0.00654 0.0
C142 C 0.31213 0.75324 0.97794 0.0
C143 C 0.32685 0.73304 0.94873 0.0
C144 C 0.36029 0.69048 0.94835 0.0
C145 C 0.35505 0.66158 0.91954 0.0
C146 C 0.38707 0.6223 0.91742 0.0
C147 C 0.42566 0.61132 0.94391 0.0
H148 H 0.40623 0.70221 -0.00319 0.0
C149 C 0.43206 0.64081 0.9724 0.0
C150 C 0.39954 0.67988 0.97474 0.0
H151 H 0.46204 0.63347 -0.00704 0.0
H152 H 0.26684 0.9021 0.92665 0.0
H153 H 0.31459 0.82925 0.92621 0.0
H154 H 0.24235 0.77922 0.02863 0.0
H155 H 0.19527 0.85407 0.02936 0.0
H156 H 0.32155 0.73627 0.00328 0.0
H157 H 0.31223 0.7472 0.92369 0.0
H158 H 0.32578 0.66926 0.89861 0.0
H159 H 0.38153 0.60041 0.89503 0.0
C160 C 0.93344 0.86687 -0.01222 0.0
C161 C 0.93106 0.90675 0.00844 0.0
C162 C 0.89243 0.82402 -0.00696 0.0
C163 C 0.84989 0.82012 0.01977 0.0
C164 C 0.84861 0.85957 0.0408 0.0
C165 C 0.88803 0.9028 0.03478 0.0
C166 C 0.80834 0.77448 0.02779 0.0
C167 C 0.77515 0.7516 0.00355 0.0
C168 C 0.7294 0.70924 0.01375 0.0
C169 C 0.67373 0.70666 -0.00087 0.0
C170 C 0.62843 0.66995 0.01162 0.0
C171 C 0.63841 0.63472 0.03861 0.0
H172 H 0.78314 0.67263 0.05021 0.0
C173 C 0.69542 0.63551 0.05129 0.0
C174 C 0.74016 0.67248 0.03924 0.0
H175 H 0.70545 0.60793 0.07107 0.0
H176 H 0.96621 0.86922 0.96726 0.0
H177 H 0.89471 0.79364 0.97684 0.0
H178 H 0.81653 0.85715 0.06173 0.0
H179 H 0.88549 0.93296 0.05117 0.0
H180 H 0.80066 0.76225 0.05518 0.0
H181 H 0.77784 0.76701 0.97664 0.0
H182 H 0.66457 0.73439 0.97919 0.0
H183 H 0.58525 0.67047 0.00111 0.0
C184 C 0.82007 0.20836 0.02954 0.0
C185 C 0.85268 0.19033 0.00356 0.0
C186 C 0.79694 0.25257 0.02328 0.0
C187 C 0.80552 0.27966 -0.00931 0.0
C188 C 0.83872 0.26186 0.96494 0.0
C189 C 0.86196 0.21777 0.97124 0.0
C190 C 0.78152 0.32669 0.98228 0.0
C191 C 0.73853 0.34236 0.00057 0.0
C192 C 0.7123 0.38715 -0.01127 0.0
C193 C 0.65315 0.38891 -0.0038 0.0
C194 C 0.62523 0.42718 0.98111 0.0
C195 C 0.65626 0.46432 0.95843 0.0
H196 H 0.79058 0.42821 0.96366 0.0
C197 C 0.71646 0.4649 0.95346 0.0
C198 C 0.74434 0.42694 0.96864 0.0
H199 H 0.74147 0.49366 0.9365 0.0
H200 H 0.81318 0.18874 0.055 0.0
H201 H 0.7732 0.26542 0.04427 0.0
H202 H 0.84634 0.28193 0.93962 0.0
H203 H 0.88645 0.20484 0.95058 0.0
H204 H 0.79781 0.3478 0.95836 0.0
H205 H 0.71805 0.31971 0.0228 0.0
H206 H 0.62767 0.35918 0.01211 0.0
H207 H 0.57873 0.42593 0.98531 0.0
C208 C 0.6114 0.69153 0.4956 0.0
C209 C 0.6342 0.64686 0.49401 0.0
C210 C 0.64865 0.73619 0.49714 0.0
C211 C 0.70966 0.73704 0.49742 0.0
C212 C 0.73219 0.69245 0.49506 0.0
C213 C 0.69505 0.64794 0.49347 0.0
C214 C 0.75151 0.78322 0.49977 0.0
C215 C 0.7372 0.82495 0.51192 0.0
C216 C 0.78017 0.86983 0.51647 0.0
C217 C 0.76574 0.90413 0.53931 0.0
C218 C 0.80503 0.94621 0.54509 0.0
C219 C 0.85981 0.95492 0.5282 0.0
H220 H 0.84664 0.85524 0.47979 0.0
C221 C 0.87377 0.92158 0.5045 0.0
C222 C 0.83441 0.87952 0.49861 0.0
H223 H 0.91529 0.928 0.49059 0.0
H224 H 0.56471 0.69204 0.4957 0.0
H225 H 0.62925 0.76973 0.49778 0.0
H226 H 0.77888 0.69188 0.4949 0.0
H227 H 0.71419 0.61428 0.4921 0.0
H228 H 0.79674 0.7813 0.49325 0.0
H229 H 0.69297 0.8256 0.52113 0.0
H230 H 0.72409 0.89813 0.55308 0.0
H231 H 0.79269 0.97182 0.56298 0.0
C232 C 0.6969 0.32268 0.48677 0.0
C233 C 0.73009 0.36973 0.48659 0.0
C234 C 0.72442 0.28031 0.48592 0.0
C235 C 0.78584 0.28427 0.485 0.0
C236 C 0.81856 0.33117 0.48658 0.0
C237 C 0.79116 0.37328 0.48721 0.0
C238 C 0.81824 0.24141 0.48159 0.0
C239 C 0.79464 0.19719 0.47107 0.0
C240 C 0.82985 0.15723 0.46427 0.0
C241 C 0.80261 0.10797 0.46656 0.0
C242 C 0.83361 0.06978 0.45871 0.0
C243 C 0.89263 0.07995 0.44836 0.0
H244 H 0.91086 0.20502 0.44981 0.0
C245 C 0.91967 0.1293 0.44531 0.0
C246 C 0.8888 0.16748 0.45334 0.0
H247 H 0.96454 0.13852 0.43627 0.0
H248 H 0.64976 0.31876 0.48633 0.0
H249 H 0.69724 0.24493 0.48571 0.0
H250 H 0.8658 0.33555 0.48637 0.0
H251 H 0.81795 0.40889 0.48773 0.0
H252 H 0.86469 0.24763 0.48659 0.0
H253 H 0.74814 0.1896 0.46676 0.0
H254 H 0.75708 0.099 0.47432 0.0
H255 H 0.81136 0.03217 0.46053 0.0
C256 C 0.36734 0.38354 0.49816 0.0
C257 C 0.42806 0.38412 0.49589 0.0
C258 C 0.3296 0.33896 0.50084 0.0
C259 C 0.3516 0.29363 0.50107 0.0
C260 C 0.41228 0.29424 0.49846 0.0
C261 C 0.45014 0.33897 0.49574 0.0
C262 C 0.3131 0.24537 0.50711 0.0
C263 C 0.25514 0.23923 0.50141 0.0
C264 C 0.21449 0.19364 0.51284 0.0
C265 C 0.15728 0.18791 0.50016 0.0
C266 C 0.11546 0.14908 0.51358 0.0
C267 C 0.1299 0.11533 0.54025 0.0
H268 H 0.27237 0.1615 0.54962 0.0
C269 C 0.18773 0.1197 0.5518 0.0
C270 C 0.22943 0.15843 0.53847 0.0
H271 H 0.20044 0.09385 0.572 0.0
H272 H 0.34879 0.41762 0.49855 0.0
H273 H 0.28347 0.34044 0.50397 0.0
H274 H 0.43056 0.25995 0.49896 0.0
H275 H 0.49669 0.33809 0.4941 0.0
H276 H 0.33372 0.21415 0.51701 0.0
H277 H 0.23578 0.26935 0.48848 0.0
H278 H 0.14432 0.2145 0.48057 0.0
H279 H 0.07123 0.14692 0.50423 0.0
C280 C 0.27464 0.66072 0.50436 0.0
C281 C 0.33491 0.66204 0.49843 0.0
C282 C 0.24865 0.70376 0.50022 0.0
C283 C 0.28236 0.74938 0.49004 0.0
C284 C 0.34236 0.75062 0.48359 0.0
C285 C 0.36842 0.70759 0.48787 0.0
C286 C 0.2562 0.79576 0.48374 0.0
C287 C 0.20509 0.80356 0.49801 0.0
C288 C 0.17715 0.84833 0.48845 0.0
C289 C 0.11608 0.84519 0.49097 0.0
C290 C 0.08782 0.88435 0.47771 0.0
C291 C 0.12035 0.92731 0.46183 0.0
H292 H 0.25685 0.89824 0.47453 0.0
C293 C 0.18151 0.9321 0.462 0.0
C294 C 0.20969 0.89324 0.47538 0.0
H295 H 0.2075 0.96527 0.45031 0.0
H296 H 0.24711 0.62624 0.51172 0.0
H297 H 0.20197 0.70067 0.50418 0.0
H298 H 0.36935 0.78514 0.47537 0.0
H299 H 0.41494 0.71027 0.48337 0.0
H300 H 0.2801 0.82413 0.46593 0.0
H301 H 0.18091 0.77514 0.51567 0.0
H302 H 0.08995 0.81137 0.50148 0.0
H303 H 0.04058 0.8798 0.47781 0.0
C304 C 0.10765 1.00946 0.11792 0.0
C305 C 0.06194 0.03006 0.10128 0.0
C306 C 0.11617 0.01303 0.1537 0.0
C307 C 0.07885 0.03712 0.17345 0.0
C308 C 0.03356 0.05784 0.15667 0.0
C309 C 0.02498 0.05418 0.1211 0.0
C310 C 0.08521 0.04171 0.21148 0.0
C311 C 0.11035 0.01004 0.23276 0.0
C312 C 0.10769 0.01075 0.27125 0.0
C313 C 0.10546 0.96596 0.29153 0.0
C314 C 0.09776 0.96421 0.3276 0.0
C315 C 0.09306 1.00746 0.34433 0.0
H316 H 0.10866 0.08989 0.27323 0.0
C317 C 0.09768 0.05272 0.32418 0.0
C318 C 0.10512 0.05442 0.28798 0.0
H319 H 0.09541 0.08678 0.33638 0.0
H320 H 0.13726 0.99117 0.10325 0.0
H321 H 0.15253 0.99768 0.16552 0.0
H322 H 1.00428 0.07668 0.17118 0.0
H323 H 0.98945 0.0707 0.10913 0.0
H324 H 0.06331 0.06953 0.22271 0.0
H325 H 0.12749 0.97926 0.22218 0.0
H326 H 0.10752 0.93185 0.27932 0.0
H327 H 0.09361 0.92858 0.34223 0.0
C328 C 0.06715 0.03716 0.87417 0.0
C329 C 0.01961 0.04607 0.89443 0.0
C330 C 0.06355 0.03763 0.83805 0.0
C331 C 1.01175 0.04611 0.8212 0.0
C332 C 0.96472 0.05647 0.84136 0.0
C333 C 0.96856 0.05648 0.8777 0.0
C334 C 1.0062 0.04579 0.78272 0.0
C335 C 0.04 0.0223 0.76285 0.0
C336 C 0.03819 0.02488 0.7243 0.0
C337 C 0.08968 0.0219 0.70563 0.0
C338 C 0.09046 0.02535 0.66926 0.0
C339 C 0.03938 0.03086 0.65088 0.0
H340 H 0.94592 0.0306 0.71955 0.0
C341 C 0.98733 0.03234 0.66949 0.0
C342 C 0.98672 0.02956 0.70593 0.0
H343 H 0.94737 0.03661 0.65584 0.0
H344 H 0.10759 0.03001 0.88621 0.0
H345 H 0.10196 0.03194 0.82364 0.0
H346 H 0.92464 0.06393 0.82903 0.0
H347 H 0.93133 0.06374 0.89268 0.0
H348 H 0.97354 0.06586 0.77052 0.0
H349 H 0.07244 1.00188 0.77484 0.0
H350 H 0.12975 0.0178 0.71923 0.0
H351 H 0.13097 0.02361 0.65547 0.0
C352 C 0.59525 0.49055 0.61457 0.0
C353 C 0.54719 0.50695 0.59765 0.0
C354 C 0.60341 0.49621 0.65012 0.0
C355 C 0.56336 0.51818 0.66935 0.0
C356 C 0.51495 0.5337 0.65248 0.0
C357 C 0.50673 0.52794 0.61711 0.0
C358 C 0.5714 0.52743 0.70659 0.0
C359 C 0.60184 0.50092 0.72861 0.0
C360 C 0.60497 0.50885 0.76624 0.0
C361 C 0.60691 0.46813 0.79016 0.0
C362 C 0.60616 0.47373 0.82589 0.0
C363 C 0.6046 0.52046 0.83845 0.0
H364 H 0.60535 0.58832 0.76076 0.0
C365 C 0.6047 0.56158 0.81442 0.0
C366 C 0.60497 0.55588 0.77863 0.0
H367 H 0.60467 0.59817 0.82326 0.0
H368 H 0.62745 0.47466 0.60018 0.0
H369 H 0.64201 0.48482 0.66204 0.0
H370 H 0.48351 0.55076 0.66667 0.0
H371 H 0.46921 0.54104 0.60488 0.0
H372 H 0.54805 0.55522 0.7167 0.0
H373 H 0.62049 0.46977 0.7197 0.0
H374 H 0.60712 0.43159 0.78121 0.0
H375 H 0.60524 0.44111 0.84366 0.0
C376 C 0.56723 0.51837 0.37024 0.0
C377 C 0.52053 0.53 0.39001 0.0
C378 C 0.56561 0.5215 0.33397 0.0
C379 C 0.51668 0.53567 0.31653 0.0
C380 C 0.47041 0.54814 0.33631 0.0
C381 C 0.47225 0.54534 0.37273 0.0
C382 C 0.51308 0.53941 0.2779 0.0
C383 C 0.54658 0.51737 0.25689 0.0
C384 C 0.54476 0.52398 0.21842 0.0
C385 C 0.59618 0.52349 0.19904 0.0
C386 C 0.59671 0.53161 0.16279 0.0
C387 C 0.54546 0.53945 0.14527 0.0
H388 H 0.4523 0.52961 0.21491 0.0
C389 C 0.49349 0.53817 0.16454 0.0
C390 C 0.49309 0.53055 0.20082 0.0
H391 H 0.45339 0.54412 0.1516 0.0
H392 H 0.60552 0.50716 0.38278 0.0
H393 H 0.6034 0.51352 0.32001 0.0
H394 H 0.4325 0.55975 0.32357 0.0
H395 H 0.43568 0.55472 0.38729 0.0
H396 H 0.48175 0.5616 0.26644 0.0
H397 H 0.5784 0.49534 0.26774 0.0
H398 H 0.63635 0.51792 0.21205 0.0
H399 H 0.63716 0.53181 0.14844 0.0
loop_
_geom_bond_atom_site_label_1
_geom_bond_atom_site_label_2
_geom_bond_distance
_geom_bond_site_symmetry_2
_ccdc_geom_bond_type
Co0 N5 2.057 . S
Co0 O17 2.021 . S
Co0 O20 2.062 1_455 S
Co0 O24 2.117 1_564 S
Co0 O25 2.020 1_565 S
C1 O21 1.259 1_455 S
C1 O24 1.258 . S
Co2 N11 2.057 . S
Co2 O18 2.117 . S
Co2 O19 2.020 1_545 S
Co2 O21 2.021 1_554 S
Co2 O26 2.062 1_654 S
C3 N5 1.316 . S
C3 N6 1.347 . S
C3 H8 0.931 . S
C4 N5 1.375 1_556 S
C4 C7 1.350 . S
C4 H9 0.930 . S
N5 Co0 2.057 . S
N5 C3 1.316 . S
N5 C4 1.375 1_554 S
N6 C3 1.347 . S
N6 C7 1.373 1_554 S
C7 C4 1.350 . S
C7 N6 1.373 1_556 S
C7 H28 0.931 . S
H8 C3 0.931 . S
H9 C4 0.930 . S
C10 O17 1.259 1_545 S
C10 O18 1.258 1_455 S
N11 Co2 2.057 . S
N11 C12 1.316 1_554 S
N11 C13 1.375 . S
C12 N11 1.316 1_556 S
C12 N14 1.347 1_556 S
C12 H23 0.931 . S
C13 N11 1.375 . S
C13 C15 1.350 . S
C13 H22 0.930 . S
N14 C12 1.347 1_554 S
N14 C15 1.373 . S
C15 C13 1.350 . S
C15 N14 1.373 . S
C15 H29 0.931 . S
C16 O19 1.256 . S
C16 O20 1.255 . S
O17 Co0 2.021 . S
O17 C10 1.259 1_565 S
O18 Co2 2.117 . S
O18 C10 1.258 1_655 S
O19 Co2 2.020 1_565 S
O19 C16 1.256 . S
O20 Co0 2.062 1_655 S
O20 C16 1.255 . S
O21 C1 1.259 1_655 S
O21 Co2 2.021 1_556 S
H22 C13 0.930 . S
H23 C12 0.931 . S
O24 Co0 2.117 1_546 S
O24 C1 1.258 . S
O25 Co0 2.020 1_545 S
O25 C27 1.256 . S
O26 Co2 2.062 1_456 S
O26 C27 1.255 1_556 S
C27 O25 1.256 . S
C27 O26 1.255 1_554 S
H28 C7 0.931 . S
H29 C15 0.931 . S
Co30 N35 2.057 . S
Co30 O47 2.021 . S
Co30 O50 2.062 . S
Co30 O54 2.117 . S
Co30 O55 2.020 . S
C31 O51 1.259 . S
C31 O54 1.258 . S
Co32 N41 2.057 . S
Co32 O48 2.117 . S
Co32 O49 2.020 . S
Co32 O51 2.021 . S
Co32 O56 2.062 . S
C33 N35 1.316 . S
C33 N36 1.347 . S
C33 H38 0.931 . S
C34 N35 1.375 . S
C34 C37 1.350 . S
C34 H39 0.930 . S
N35 Co30 2.057 . S
N35 C33 1.316 . S
N35 C34 1.375 . S
N36 C33 1.347 . S
N36 C37 1.373 . S
C37 C34 1.350 . S
C37 N36 1.373 . S
C37 H58 0.931 . S
H38 C33 0.931 . S
H39 C34 0.930 . S
C40 O47 1.259 . S
C40 O48 1.258 . S
N41 Co32 2.057 . S
N41 C42 1.316 . S
N41 C43 1.375 . S
C42 N41 1.316 . S
C42 N44 1.347 . S
C42 H53 0.931 . S
C43 N41 1.375 . S
C43 C45 1.350 . S
C43 H52 0.930 . S
N44 C42 1.347 . S
N44 C45 1.373 . S
C45 C43 1.350 . S
C45 N44 1.373 . S
C45 H59 0.931 . S
C46 O49 1.256 . S
C46 O50 1.255 . S
O47 Co30 2.021 . S
O47 C40 1.259 . S
O48 Co32 2.117 . S
O48 C40 1.258 . S
O49 Co32 2.020 . S
O49 C46 1.256 . S
O50 Co30 2.062 . S
O50 C46 1.255 . S
O51 C31 1.259 . S
O51 Co32 2.021 . S
H52 C43 0.930 . S
H53 C42 0.931 . S
O54 Co30 2.117 . S
O54 C31 1.258 . S
O55 Co30 2.020 . S
O55 C57 1.256 . S
O56 Co32 2.062 . S
O56 C57 1.255 . S
C57 O55 1.256 . S
C57 O56 1.255 . S
H58 C37 0.931 . S
H59 C45 0.931 . S
H60 C67 0.929 . S
H61 C70 0.930 . S
H62 C72 0.929 . S
H63 C64 0.969 . S
C64 H63 0.969 . S
C64 O65 1.550 . S
C64 H66 0.973 . S
O65 C64 1.550 . S
O65 C71 1.412 . S
H66 C64 0.973 . S
C67 H60 0.929 . S
C67 C68 1.400 . S
C67 C69 1.364 . S
C68 C67 1.400 . S
C68 C72 1.377 . S
C69 C67 1.364 . S
C69 C70 1.374 1_465 S
C70 H61 0.930 . S
C70 C69 1.374 1_645 S
C70 C71 1.383 . S
C71 O65 1.412 . S
C71 C70 1.383 . S
C71 C72 1.394 1_645 S
C72 H62 0.929 . S
C72 C68 1.377 . S
C72 C71 1.394 1_465 S
H73 C80 0.929 . S
H74 C83 0.930 1_565 S
H75 C85 0.929 . S
H76 C77 0.969 . S
C77 H76 0.969 . S
C77 O78 1.550 . S
C77 H79 0.973 . S
O78 C77 1.550 . S
O78 C84 1.412 1_565 S
H79 C77 0.973 . S
C80 H73 0.929 . S
C80 C81 1.400 . S
C80 C82 1.364 . S
C81 C80 1.400 . S
C81 C85 1.377 . S
C82 C80 1.364 . S
C82 C83 1.374 1_455 S
C83 H74 0.930 1_545 S
C83 C82 1.374 1_655 S
C83 C84 1.383 . S
C84 O78 1.412 1_545 S
C84 C83 1.383 . S
C84 C85 1.394 1_655 S
C85 H75 0.929 . S
C85 C81 1.377 . S
C85 C84 1.394 1_455 S
H86 C93 0.929 . S
H87 C96 0.930 . S
H88 C98 0.929 1_554 S
H89 C90 0.969 . S
C90 H89 0.969 . S
C90 O91 1.550 . S
C90 H92 0.973 . S
O91 C90 1.550 . S
O91 C97 1.412 . S
H92 C90 0.973 . S
C93 H86 0.929 . S
C93 C94 1.400 . S
C93 C95 1.364 . S
C94 C93 1.400 . S
C94 C98 1.377 . S
C95 C93 1.364 . S
C95 C96 1.374 . S
C96 H87 0.930 . S
C96 C95 1.374 . S
C96 C97 1.383 . S
C97 O91 1.412 . S
C97 C96 1.383 . S
C97 C98 1.394 . S
C98 H88 0.929 1_556 S
C98 C94 1.377 . S
C98 C97 1.394 . S
H99 C106 0.929 . S
H100 C109 0.930 . S
H101 C111 0.929 . S
H102 C103 0.969 . S
C103 H102 0.969 . S
C103 O104 1.550 . S
C103 H105 0.973 . S
O104 C103 1.550 . S
O104 C110 1.412 . S
H105 C103 0.973 . S
C106 H99 0.929 . S
C106 C107 1.400 . S
C106 C108 1.364 . S
C107 C106 1.400 . S
C107 C111 1.377 . S
C108 C106 1.364 . S
C108 C109 1.374 . S
C109 H100 0.930 . S
C109 C108 1.374 . S
C109 C110 1.383 . S
C110 O104 1.412 . S
C110 C109 1.383 . S
C110 C111 1.394 . S
C111 H101 0.929 . S
C111 C107 1.377 . S
C111 C110 1.394 . S
C112 C113 1.386 . S
C112 C114 1.383 . S
C112 H128 0.951 . S
C113 C112 1.386 . S
C113 C117 1.383 1_554 S
C114 C112 1.383 . S
C114 C115 1.402 . S
C114 H129 0.951 . S
C115 C114 1.402 . S
C115 C116 1.375 1_554 S
C115 C118 1.481 . S
C116 C115 1.375 1_556 S
C116 C117 1.367 . S
C116 H130 0.951 . S
C117 C113 1.383 1_556 S
C117 C116 1.367 . S
C117 H131 0.950 . S
C118 C115 1.481 . S
C118 C119 1.297 . S
C118 H132 0.950 . S
C119 C118 1.297 . S
C119 C120 1.479 . S
C119 H133 0.950 . S
C120 C119 1.479 . S
C120 C121 1.375 . S
C120 C126 1.404 . S
C121 C120 1.375 . S
C121 C122 1.369 . S
C121 H134 0.950 . S
C122 C121 1.369 . S
C122 C123 1.392 . S
C122 H135 0.951 . S
C123 C122 1.392 . S
C123 C125 1.384 . S
H124 C126 0.949 . S
C125 C123 1.384 . S
C125 C126 1.385 . S
C125 H127 0.950 . S
C126 C120 1.404 . S
C126 H124 0.949 . S
C126 C125 1.385 . S
H127 C125 0.950 . S
H128 C112 0.951 . S
H129 C114 0.951 . S
H130 C116 0.951 . S
H131 C117 0.950 . S
H132 C118 0.950 . S
H133 C119 0.950 . S
H134 C121 0.950 . S
H135 C122 0.951 . S
C136 C137 1.386 1_556 S
C136 C138 1.383 . S
C136 H152 0.951 . S
C137 C136 1.386 1_554 S
C137 C141 1.383 . S
C138 C136 1.383 . S
C138 C139 1.402 1_556 S
C138 H153 0.951 . S
C139 C138 1.402 1_554 S
C139 C140 1.375 . S
C139 C142 1.481 . S
C140 C139 1.375 . S
C140 C141 1.367 . S
C140 H154 0.951 . S
C141 C137 1.383 . S
C141 C140 1.367 . S
C141 H155 0.950 . S
C142 C139 1.481 . S
C142 C143 1.297 1_554 S
C142 H156 0.950 . S
C143 C142 1.297 1_556 S
C143 C144 1.479 . S
C143 H157 0.950 . S
C144 C143 1.479 . S
C144 C145 1.375 . S
C144 C150 1.404 1_556 S
C145 C144 1.375 . S
C145 C146 1.369 . S
C145 H158 0.950 . S
C146 C145 1.369 . S
C146 C147 1.392 . S
C146 H159 0.951 . S
C147 C146 1.392 . S
C147 C149 1.384 1_556 S
H148 C150 0.949 . S
C149 C147 1.384 1_554 S
C149 C150 1.385 . S
C149 H151 0.950 . S
C150 C144 1.404 1_554 S
C150 H148 0.949 . S
C150 C149 1.385 . S
H151 C149 0.950 . S
H152 C136 0.951 . S
H153 C138 0.951 . S
H154 C140 0.951 . S
H155 C141 0.950 . S
H156 C142 0.950 . S
H157 C143 0.950 . S
H158 C145 0.950 . S
H159 C146 0.951 . S
C160 C161 1.386 1_556 S
C160 C162 1.381 1_556 S
C160 H176 0.951 . S
C161 C160 1.386 1_554 S
C161 C165 1.383 . S
C162 C160 1.381 1_554 S
C162 C163 1.411 . S
C162 H177 0.943 1_554 S
C163 C162 1.411 . S
C163 C164 1.375 . S
C163 C166 1.481 . S
C164 C163 1.375 . S
C164 C165 1.367 . S
C164 H178 0.951 . S
C165 C161 1.383 . S
C165 C164 1.367 . S
C165 H179 0.950 . S
C166 C163 1.481 . S
C166 C167 1.297 . S
C166 H180 0.950 . S
C167 C166 1.297 . S
C167 C168 1.479 . S
C167 H181 0.950 . S
C168 C167 1.479 . S
C168 C169 1.375 . S
C168 C174 1.404 . S
C169 C168 1.375 . S
C169 C170 1.369 . S
C169 H182 0.950 1_554 S
C170 C169 1.369 . S
C170 C171 1.392 . S
C170 H183 0.951 1_554 S
C171 C170 1.392 . S
C171 C173 1.384 . S
H172 C174 0.949 . S
C173 C171 1.384 . S
C173 C174 1.385 . S
C173 H175 0.950 . S
C174 C168 1.404 . S
C174 H172 0.949 . S
C174 C173 1.385 . S
H175 C173 0.950 . S
H176 C160 0.951 . S
H177 C162 0.943 1_556 S
H178 C164 0.951 . S
H179 C165 0.950 . S
H180 C166 0.950 . S
H181 C167 0.950 . S
H182 C169 0.950 1_556 S
H183 C170 0.951 1_556 S
C184 C185 1.386 1_554 S
C184 C186 1.383 . S
C184 H200 0.951 . S
C185 C184 1.386 1_556 S
C185 C189 1.383 . S
C186 C184 1.383 . S
C186 C187 1.402 1_554 S
C186 H201 0.951 . S
C187 C186 1.402 1_556 S
C187 C188 1.375 . S
C187 C190 1.481 . S
C188 C187 1.375 . S
C188 C189 1.367 . S
C188 H202 0.951 . S
C189 C185 1.383 . S
C189 C188 1.367 . S
C189 H203 0.950 . S
C190 C187 1.481 . S
C190 C191 1.297 . S
C190 H204 0.950 . S
C191 C190 1.297 . S
C191 C192 1.479 . S
C191 H205 0.950 1_556 S
C192 C191 1.479 . S
C192 C193 1.375 1_556 S
C192 C198 1.404 . S
C193 C192 1.375 1_554 S
C193 C194 1.369 . S
C193 H206 0.950 . S
C194 C193 1.369 . S
C194 C195 1.392 1_554 S
C194 H207 0.951 . S
C195 C194 1.392 1_556 S
C195 C197 1.384 . S
H196 C198 0.949 . S
C197 C195 1.384 . S
C197 C198 1.385 . S
C197 H199 0.950 . S
C198 C192 1.404 . S
C198 H196 0.949 . S
C198 C197 1.385 . S
H199 C197 0.950 . S
H200 C184 0.951 . S
H201 C186 0.951 . S
H202 C188 0.951 . S
H203 C189 0.950 . S
H204 C190 0.950 . S
H205 C191 0.950 1_554 S
H206 C193 0.950 . S
H207 C194 0.951 . S
C208 C209 1.386 . S
C208 C210 1.383 . S
C208 H224 0.951 . S
C209 C208 1.386 . S
C209 C213 1.383 . S
C210 C208 1.383 . S
C210 C211 1.402 . S
C210 H225 0.951 . S
C211 C210 1.402 . S
C211 C212 1.375 . S
C211 C214 1.481 . S
C212 C211 1.375 . S
C212 C213 1.367 . S
C212 H226 0.951 . S
C213 C209 1.383 . S
C213 C212 1.367 . S
C213 H227 0.950 . S
C214 C211 1.481 . S
C214 C215 1.297 . S
C214 H228 0.950 . S
C215 C214 1.297 . S
C215 C216 1.479 . S
C215 H229 0.950 . S
C216 C215 1.479 . S
C216 C217 1.375 . S
C216 C222 1.404 . S
C217 C216 1.375 . S
C217 C218 1.369 . S
C217 H230 0.950 . S
C218 C217 1.369 . S
C218 C219 1.392 . S
C218 H231 0.951 . S
C219 C218 1.392 . S
C219 C221 1.384 . S
H220 C222 0.949 . S
C221 C219 1.384 . S
C221 C222 1.385 . S
C221 H223 0.950 . S
C222 C216 1.404 . S
C222 H220 0.949 . S
C222 C221 1.385 . S
H223 C221 0.950 . S
H224 C208 0.951 . S
H225 C210 0.951 . S
H226 C212 0.951 . S
H227 C213 0.950 . S
H228 C214 0.950 . S
H229 C215 0.950 . S
H230 C217 0.950 . S
H231 C218 0.951 . S
C232 C233 1.386 . S
C232 C234 1.383 . S
C232 H248 0.951 . S
C233 C232 1.386 . S
C233 C237 1.383 . S
C234 C232 1.383 . S
C234 C235 1.402 . S
C234 H249 0.951 . S
C235 C234 1.402 . S
C235 C236 1.375 . S
C235 C238 1.481 . S
C236 C235 1.375 . S
C236 C237 1.367 . S
C236 H250 0.951 . S
C237 C233 1.383 . S
C237 C236 1.367 . S
C237 H251 0.950 . S
C238 C235 1.481 . S
C238 C239 1.297 . S
C238 H252 0.950 . S
C239 C238 1.297 . S
C239 C240 1.479 . S
C239 H253 0.950 . S
C240 C239 1.479 . S
C240 C241 1.375 . S
C240 C246 1.404 . S
C241 C240 1.375 . S
C241 C242 1.369 . S
C241 H254 0.950 . S
C242 C241 1.369 . S
C242 C243 1.392 . S
C242 H255 0.951 . S
C243 C242 1.392 . S
C243 C245 1.384 . S
H244 C246 0.949 . S
C245 C243 1.384 . S
C245 C246 1.385 . S
C245 H247 0.950 . S
C246 C240 1.404 . S
C246 H244 0.949 . S
C246 C245 1.385 . S
H247 C245 0.950 . S
H248 C232 0.951 . S
H249 C234 0.951 . S
H250 C236 0.951 . S
H251 C237 0.950 . S
H252 C238 0.950 . S
H253 C239 0.950 . S
H254 C241 0.950 . S
H255 C242 0.951 . S
C256 C257 1.386 . S
C256 C258 1.383 . S
C256 H272 0.951 . S
C257 C256 1.386 . S
C257 C261 1.383 . S
C258 C256 1.383 . S
C258 C259 1.402 . S
C258 H273 0.951 . S
C259 C258 1.402 . S
C259 C260 1.375 . S
C259 C262 1.481 . S
C260 C259 1.375 . S
C260 C261 1.367 . S
C260 H274 0.951 . S
C261 C257 1.383 . S
C261 C260 1.367 . S
C261 H275 0.950 . S
C262 C259 1.481 . S
C262 C263 1.297 . S
C262 H276 0.950 . S
C263 C262 1.297 . S
C263 C264 1.479 . S
C263 H277 0.950 . S
C264 C263 1.479 . S
C264 C265 1.375 . S
C264 C270 1.404 . S
C265 C264 1.375 . S
C265 C266 1.369 . S
C265 H278 0.950 . S
C266 C265 1.369 . S
C266 C267 1.392 . S
C266 H279 0.951 . S
C267 C266 1.392 . S
C267 C269 1.384 . S
H268 C270 0.949 . S
C269 C267 1.384 . S
C269 C270 1.385 . S
C269 H271 0.950 . S
C270 C264 1.404 . S
C270 H268 0.949 . S
C270 C269 1.385 . S
H271 C269 0.950 . S
H272 C256 0.951 . S
H273 C258 0.951 . S
H274 C260 0.951 . S
H275 C261 0.950 . S
H276 C262 0.950 . S
H277 C263 0.950 . S
H278 C265 0.950 . S
H279 C266 0.951 . S
C280 C281 1.386 . S
C280 C282 1.383 . S
C280 H296 0.951 . S
C281 C280 1.386 . S
C281 C285 1.383 . S
C282 C280 1.383 . S
C282 C283 1.402 . S
C282 H297 0.951 . S
C283 C282 1.402 . S
C283 C284 1.375 . S
C283 C286 1.481 . S
C284 C283 1.375 . S
C284 C285 1.367 . S
C284 H298 0.951 . S
C285 C281 1.383 . S
C285 C284 1.367 . S
C285 H299 0.950 . S
C286 C283 1.481 . S
C286 C287 1.297 . S
C286 H300 0.950 . S
C287 C286 1.297 . S
C287 C288 1.479 . S
C287 H301 0.950 . S
C288 C287 1.479 . S
C288 C289 1.375 . S
C288 C294 1.404 . S
C289 C288 1.375 . S
C289 C290 1.369 . S
C289 H302 0.950 . S
C290 C289 1.369 . S
C290 C291 1.392 . S
C290 H303 0.951 . S
C291 C290 1.392 . S
C291 C293 1.384 . S
H292 C294 0.949 . S
C293 C291 1.384 . S
C293 C294 1.385 . S
C293 H295 0.950 . S
C294 C288 1.404 . S
C294 H292 0.949 . S
C294 C293 1.385 . S
H295 C293 0.950 . S
H296 C280 0.951 . S
H297 C282 0.951 . S
H298 C284 0.951 . S
H299 C285 0.950 . S
H300 C286 0.950 . S
H301 C287 0.950 . S
H302 C289 0.950 . S
H303 C290 0.951 . S
C304 C305 1.386 1_565 S
C304 C306 1.383 . S
C304 H320 0.951 . S
C305 C304 1.386 1_545 S
C305 C309 1.383 . S
C306 C304 1.383 . S
C306 C307 1.402 1_565 S
C306 H321 0.951 . S
C307 C306 1.402 1_545 S
C307 C308 1.375 . S
C307 C310 1.481 . S
C308 C307 1.375 . S
C308 C309 1.367 . S
C308 H322 0.951 1_455 S
C309 C305 1.383 . S
C309 C308 1.367 . S
C309 H323 0.950 1_455 S
C310 C307 1.481 . S
C310 C311 1.297 . S
C310 H324 0.950 . S
C311 C310 1.297 . S
C311 C312 1.479 . S
C311 H325 0.950 1_545 S
C312 C311 1.479 . S
C312 C313 1.375 1_545 S
C312 C318 1.404 . S
C313 C312 1.375 1_565 S
C313 C314 1.369 . S
C313 H326 0.950 . S
C314 C313 1.369 . S
C314 C315 1.392 . S
C314 H327 0.951 . S
C315 C314 1.392 . S
C315 C317 1.384 1_565 S
H316 C318 0.949 . S
C317 C315 1.384 1_545 S
C317 C318 1.385 . S
C317 H319 0.950 1_455 S
C318 C312 1.404 . S
C318 H316 0.949 . S
C318 C317 1.385 . S
H319 C317 0.950 1_655 S
H320 C304 0.951 . S
H321 C306 0.951 . S
H322 C308 0.951 1_655 S
H323 C309 0.950 1_655 S
H324 C310 0.950 . S
H325 C311 0.950 1_565 S
H326 C313 0.950 . S
H327 C314 0.951 . S
C328 C329 1.386 . S
C328 C330 1.383 . S
C328 H344 0.951 . S
C329 C328 1.386 . S
C329 C333 1.383 1_455 S
C330 C328 1.383 . S
C330 C331 1.402 . S
C330 H345 0.951 . S
C331 C330 1.402 . S
C331 C332 1.375 1_455 S
C331 C334 1.481 . S
C332 C331 1.375 1_655 S
C332 C333 1.367 . S
C332 H346 0.951 1_545 S
C333 C329 1.383 1_655 S
C333 C332 1.367 . S
C333 H347 0.950 1_545 S
C334 C331 1.481 . S
C334 C335 1.297 . S
C334 H348 0.955 1_455 S
C335 C334 1.297 . S
C335 C336 1.479 . S
C335 H349 0.950 . S
C336 C335 1.479 . S
C336 C337 1.375 . S
C336 C342 1.404 1_455 S
C337 C336 1.375 . S
C337 C338 1.369 . S
C337 H350 0.950 . S
C338 C337 1.369 . S
C338 C339 1.392 . S
C338 H351 0.951 . S
C339 C338 1.392 . S
C339 C341 1.384 1_455 S
H340 C342 0.949 1_565 S
C341 C339 1.384 1_655 S
C341 C342 1.385 . S
C341 H343 0.950 1_545 S
C342 C336 1.404 1_655 S
C342 H340 0.949 1_545 S
C342 C341 1.385 . S
H343 C341 0.950 1_565 S
H344 C328 0.951 . S
H345 C330 0.951 . S
H346 C332 0.951 1_565 S
H347 C333 0.950 1_565 S
H348 C334 0.955 1_655 S
H349 C335 0.950 . S
H350 C337 0.950 . S
H351 C338 0.951 . S
C352 C353 1.386 . S
C352 C354 1.383 . S
C352 H368 0.951 . S
C353 C352 1.386 . S
C353 C357 1.383 . S
C354 C352 1.383 . S
C354 C355 1.402 . S
C354 H369 0.951 . S
C355 C354 1.402 . S
C355 C356 1.375 . S
C355 C358 1.481 . S
C356 C355 1.375 . S
C356 C357 1.367 . S
C356 H370 0.951 . S
C357 C353 1.383 . S
C357 C356 1.367 . S
C357 H371 0.950 . S
C358 C355 1.481 . S
C358 C359 1.297 . S
C358 H372 0.950 . S
C359 C358 1.297 . S
C359 C360 1.479 . S
C359 H373 0.950 . S
C360 C359 1.479 . S
C360 C361 1.375 . S
C360 C366 1.404 . S
C361 C360 1.375 . S
C361 C362 1.369 . S
C361 H374 0.950 . S
C362 C361 1.369 . S
C362 C363 1.392 . S
C362 H375 0.951 . S
C363 C362 1.392 . S
C363 C365 1.384 . S
H364 C366 0.949 . S
C365 C363 1.384 . S
C365 C366 1.385 . S
C365 H367 0.950 . S
C366 C360 1.404 . S
C366 H364 0.949 . S
C366 C365 1.385 . S
H367 C365 0.950 . S
H368 C352 0.951 . S
H369 C354 0.951 . S
H370 C356 0.951 . S
H371 C357 0.950 . S
H372 C358 0.950 . S
H373 C359 0.950 . S
H374 C361 0.950 . S
H375 C362 0.951 . S
C376 C377 1.386 . S
C376 C378 1.383 . S
C376 H392 0.951 . S
C377 C376 1.386 . S
C377 C381 1.383 . S
C378 C376 1.383 . S
C378 C379 1.402 . S
C378 H393 0.951 . S
C379 C378 1.402 . S
C379 C380 1.375 . S
C379 C382 1.481 . S
C380 C379 1.375 . S
C380 C381 1.367 . S
C380 H394 0.951 . S
C381 C377 1.383 . S
C381 C380 1.367 . S
C381 H395 0.950 . S
C382 C379 1.481 . S
C382 C383 1.297 . S
C382 H396 0.950 . S
C383 C382 1.297 . S
C383 C384 1.479 . S
C383 H397 0.950 . S
C384 C383 1.479 . S
C384 C385 1.375 . S
C384 C390 1.404 . S
C385 C384 1.375 . S
C385 C386 1.369 . S
C385 H398 0.950 . S
C386 C385 1.369 . S
C386 C387 1.392 . S
C386 H399 0.951 . S
C387 C386 1.392 . S
C387 C389 1.384 . S
H388 C390 0.949 . S
C389 C387 1.384 . S
C389 C390 1.385 . S
C389 H391 0.950 . S
C390 C384 1.404 . S
C390 H388 0.949 . S
C390 C389 1.385 . S
H391 C389 0.950 . S
H392 C376 0.951 . S
H393 C378 0.951 . S
H394 C380 0.951 . S
H395 C381 0.950 . S
H396 C382 0.950 . S
H397 C383 0.950 . S
H398 C385 0.950 . S
H399 C386 0.951 . S
C123 C103 1.213 . S
C113 C27 1.402 . S
C137 N6 1.347 . S
C147 C90 1.271 . S
C161 C16 1.476 . S
C171 C107 1.447 . S
C185 N14 1.448 1_556 S
C195 C94 1.430 . S
C209 C57 1.406 . S
C219 C77 1.261 . S
C233 N36 1.323 . S
C243 C64 1.217 . S
C267 C81 1.473 . S
C257 C46 1.481 . S
C291 C68 1.439 . S
C281 N44 1.403 . S
C305 C10 1.466 . S
C315 C69 1.453 . S
C329 C1 1.543 . S
C339 C82 1.543 . S
C363 C95 1.453 . S
C353 C40 1.466 . S
C377 C31 1.540 . S
C387 C108 1.548 . S
