# Generated by pormake.
# Topology pyr, (3,6)-cn, num edge types: 1
# Building blocks:
#     Node 0, Type 0, BuildingBlock: VETTIZ_charged_linker_0, # of connection points: 3
#     Node 1, Type 0, BuildingBlock: VETTIZ_charged_linker_0, # of connection points: 3
#     Node 2, Type 0, BuildingBlock: VETTIZ_charged_linker_0, # of connection points: 3
#     Node 3, Type 0, BuildingBlock: VETTIZ_charged_linker_0, # of connection points: 3
#     Node 4, Type 0, BuildingBlock: VETTIZ_charged_linker_0, # of connection points: 3
#     Node 5, Type 0, BuildingBlock: VETTIZ_charged_linker_0, # of connection points: 3
#     Node 6, Type 0, BuildingBlock: VETTIZ_charged_linker_0, # of connection points: 3
#     Node 7, Type 0, BuildingBlock: VETTIZ_charged_linker_0, # of connection points: 3
#     Node 8, Type 1, BuildingBlock: MIFKUJ_clean_sbu_0, # of connection points: 6
#     Node 9, Type 1, BuildingBlock: MIFKUJ_clean_sbu_0, # of connection points: 6
#     Node 10, Type 1, BuildingBlock: MIFKUJ_clean_sbu_0, # of connection points: 6
#     Node 11, Type 1, BuildingBlock: MIFKUJ_clean_sbu_0, # of connection points: 6
#     Edge 12, Type (0, 1), None
#     Edge 13, Type (0, 1), None
#     Edge 14, Type (0, 1), None
#     Edge 15, Type (0, 1), None
#     Edge 16, Type (0, 1), None
#     Edge 17, Type (0, 1), None
#     Edge 18, Type (0, 1), None
#     Edge 19, Type (0, 1), None
#     Edge 20, Type (0, 1), None
#     Edge 21, Type (0, 1), None
#     Edge 22, Type (0, 1), None
#     Edge 23, Type (0, 1), None
#     Edge 24, Type (0, 1), None
#     Edge 25, Type (0, 1), None
#     Edge 26, Type (0, 1), None
#     Edge 27, Type (0, 1), None
#     Edge 28, Type (0, 1), None
#     Edge 29, Type (0, 1), None
#     Edge 30, Type (0, 1), None
#     Edge 31, Type (0, 1), None
#     Edge 32, Type (0, 1), None
#     Edge 33, Type (0, 1), None
#     Edge 34, Type (0, 1), None
#     Edge 35, Type (0, 1), None
# Relax obj value: 0.039
# Max RMSD: 0.089
# Mean RMSD: 0.053
data_MOF--net-pyr--node1-MIFKUJ_clean_sbu_0--node2-VETTIZ_charged_linker_0--edge1-none
_symmetry_space_group_name_H-M    P1
_symmetry_Int_Tables_number       1
_symmetry_cell_setting            triclinic
loop_
_symmetry_equiv_pos_as_xyz
'x, y, z'
_cell_length_a     26.882947
_cell_length_b     24.118836
_cell_length_c     25.157201
_cell_angle_alpha  83.762713
_cell_angle_beta   87.769288
_cell_angle_gamma 96.671394
loop_
_atom_site_label
_atom_site_type_symbol
_atom_site_fract_x
_atom_site_fract_y
_atom_site_fract_z
_atom_type_partial_charge
C0 C 0.11056 0.05872 0.35152 0.0
C1 C 0.06333 0.06833 0.37115 0.0
C2 C 0.03661 0.10708 0.34161 0.0
C3 C 0.10477 0.12676 0.27392 0.0
C4 C 0.12993 0.08731 0.30241 0.0
C5 C 0.17705 0.07732 0.27312 0.0
H6 H 0.33362 0.12736 0.05318 0.0
C7 C 0.13489 0.14794 0.22394 0.0
C8 C 0.17657 0.11799 0.22282 0.0
H9 H 0.33972 0.00847 0.194 0.0
H10 H 0.26701 0.03989 0.23347 0.0
H11 H 0.30991 0.22828 0.11951 0.0
H12 H 0.21372 0.10932 0.04282 0.0
H13 H 0.19344 0.17583 0.02803 0.0
H14 H 0.25589 0.16489 0.00629 0.0
H15 H 0.30425 0.23522 0.04836 0.0
H16 H 0.26227 0.26459 0.09235 0.0
C17 C 0.22182 0.09414 0.30748 0.0
C18 C 0.1714 0.01506 0.26115 0.0
C19 C 0.0903 0.31689 0.10313 0.0
C20 C 0.11378 0.34687 0.05584 0.0
C21 C 0.15464 0.32587 0.03123 0.0
C22 C 0.17333 0.27761 0.0543 0.0
C23 C 0.15113 0.24965 0.10272 0.0
C24 C 0.10964 0.26849 0.12587 0.0
C25 C 0.09057 0.23215 0.17686 0.0
C26 C 0.12931 0.19081 0.18183 0.0
C27 C 0.16457 0.2013 0.13811 0.0
C28 C 0.09208 0.26935 0.22326 0.0
C29 C 0.0376 0.20267 0.16822 0.0
C30 C 0.31899 0.10794 0.09239 0.0
C31 C 0.34215 0.06489 0.12026 0.0
C32 C 0.32251 0.04144 0.17154 0.0
C33 C 0.28006 0.05968 0.19443 0.0
C34 C 0.25678 0.10194 0.1659 0.0
C35 C 0.2765 0.12591 0.11608 0.0
C36 C 0.24739 0.17173 0.09285 0.0
C37 C 0.20579 0.16943 0.13609 0.0
C38 C 0.21178 0.12846 0.17854 0.0
C39 C 0.28251 0.22802 0.08747 0.0
C40 C 0.22662 0.15517 0.03946 0.0
H41 H 0.03565 0.16624 0.27272 0.0
H42 H 0.13121 0.02819 0.37302 0.0
H43 H 0.13132 0.99784 0.25944 0.0
H44 H 0.1883 0.00978 0.2215 0.0
H45 H 0.18799 0.98788 0.2925 0.0
H46 H 0.21597 0.13232 0.32697 0.0
H47 H 0.22628 0.05998 0.33965 0.0
H48 H 0.25766 0.1054 0.28367 0.0
H49 H 0.0586 0.33161 0.1228 0.0
H50 H 0.17318 0.34755 0.99451 0.0
H51 H 0.20497 0.26451 0.03393 0.0
H52 H 0.12903 0.29562 0.22239 0.0
H53 H 0.06255 0.29797 0.21993 0.0
H54 H 0.08708 0.24475 0.26308 0.0
H55 H 0.03218 0.19849 0.12514 0.0
H56 H 0.03125 0.15906 0.18819 0.0
H57 H 0.00783 0.22664 0.18251 0.0
H58 H 0.99997 0.11491 0.35639 0.0
C59 C 0.05733 0.13681 0.29328 0.0
C60 C 0.2115 0.92356 0.609 0.0
C61 C 0.18765 0.96156 0.63661 0.0
C62 C 0.20704 0.97654 0.68524 0.0
C63 C 0.27228 0.91574 0.67821 0.0
C64 C 0.25329 0.90109 0.63056 0.0
C65 C 0.28201 0.85908 0.60683 0.0
H66 H 0.46697 0.69151 0.62383 0.0
C67 C 0.31534 0.88386 0.69009 0.0
C68 C 0.32083 0.8504 0.64821 0.0
H69 H 0.36221 0.7095 0.49872 0.0
H70 H 0.32508 0.77934 0.54367 0.0
H71 H 0.48937 0.82577 0.63783 0.0
H72 H 0.39161 0.6849 0.71586 0.0
H73 H 0.40467 0.72844 0.7663 0.0
H74 H 0.45523 0.69912 0.73404 0.0
H75 H 0.51027 0.76835 0.67902 0.0
H76 H 0.49217 0.82902 0.70708 0.0
C77 C 0.30638 0.88664 0.552 0.0
C78 C 0.24555 0.80487 0.60399 0.0
C79 C 0.41897 0.90961 0.85505 0.0
C80 C 0.45836 0.88139 0.87614 0.0
C81 C 0.47368 0.83666 0.8506 0.0
C82 C 0.45195 0.82141 0.80403 0.0
C83 C 0.41381 0.8506 0.78249 0.0
C84 C 0.39665 0.89279 0.80856 0.0
C85 C 0.35261 0.91524 0.78129 0.0
C86 C 0.3484 0.88156 0.73325 0.0
C87 C 0.38502 0.84446 0.73428 0.0
C88 C 0.36657 0.97875 0.76385 0.0
C89 C 0.30592 0.90111 0.82048 0.0
C90 C 0.43658 0.71111 0.60557 0.0
C91 C 0.41774 0.69517 0.55749 0.0
C92 C 0.37753 0.72112 0.5357 0.0
C93 C 0.35588 0.76155 0.562 0.0
C94 C 0.37434 0.77595 0.61086 0.0
C95 C 0.41424 0.75101 0.63153 0.0
C96 C 0.42832 0.77005 0.68433 0.0
C97 C 0.39065 0.81116 0.69182 0.0
C98 C 0.35904 0.81438 0.64885 0.0
C99 C 0.48294 0.7996 0.67728 0.0
C100 C 0.41998 0.71819 0.72753 0.0
H101 H 0.26219 0.96749 0.74284 0.0
H102 H 0.19771 0.91102 0.57168 0.0
H103 H 0.21849 0.79683 0.63939 0.0
H104 H 0.2647 0.76673 0.60491 0.0
H105 H 0.22353 0.80839 0.56758 0.0
H106 H 0.31793 0.93235 0.55291 0.0
H107 H 0.27977 0.8821 0.51962 0.0
H108 H 0.34122 0.86956 0.5409 0.0
H109 H 0.40571 0.94347 0.87445 0.0
H110 H 0.50374 0.81417 0.86582 0.0
H111 H 0.46627 0.78769 0.78634 0.0
H112 H 0.40503 0.98703 0.7445 0.0
H113 H 0.3658 0.00302 0.79891 0.0
H114 H 0.34158 0.99573 0.73409 0.0
H115 H 0.30658 0.85977 0.84468 0.0
H116 H 0.27045 0.89682 0.79979 0.0
H117 H 0.3044 0.93331 0.8487 0.0
H118 H 0.18976 0.00601 0.70736 0.0
C119 C 0.24917 0.9541 0.70598 0.0
C120 C 0.59266 0.16736 0.92456 0.0
C121 C 0.54809 0.13614 0.91257 0.0
C122 C 0.52028 0.15744 0.87024 0.0
C123 C 0.58182 0.24011 0.85276 0.0
C124 C 0.60833 0.21915 0.89485 0.0
C125 C 0.6532 0.25866 0.90522 0.0
H126 H 0.80668 0.49884 0.83647 0.0
C127 C 0.60836 0.29564 0.83092 0.0
C128 C 0.64976 0.30678 0.86205 0.0
H129 H 0.81524 0.37025 0.96884 0.0
H130 H 0.73938 0.31927 0.94429 0.0
H131 H 0.69065 0.50536 0.85458 0.0
H132 H 0.76939 0.41289 0.74832 0.0
H133 H 0.72444 0.447 0.71244 0.0
H134 H 0.77397 0.48824 0.74169 0.0
H135 H 0.72074 0.53862 0.79246 0.0
H136 H 0.65706 0.50432 0.79617 0.0
C137 C 0.6458 0.27625 0.96236 0.0
C138 C 0.70049 0.22894 0.89624 0.0
C139 C 0.5496 0.40299 0.66441 0.0
C140 C 0.56644 0.45566 0.63578 0.0
C141 C 0.60708 0.4893 0.6543 0.0
C142 C 0.63147 0.4701 0.69978 0.0
C143 C 0.61481 0.4169 0.72736 0.0
C144 C 0.5739 0.38475 0.71016 0.0
C145 C 0.55969 0.3307 0.74619 0.0
C146 C 0.59978 0.33494 0.7869 0.0
C147 C 0.63225 0.38532 0.77533 0.0
C148 C 0.50651 0.33166 0.77195 0.0
C149 C 0.56423 0.28117 0.71275 0.0
C150 C 0.79213 0.4596 0.85999 0.0
C151 C 0.81723 0.4383 0.90441 0.0
C152 C 0.79671 0.38759 0.93447 0.0
C153 C 0.75255 0.35787 0.92005 0.0
C154 C 0.72826 0.37904 0.87521 0.0
C155 C 0.74757 0.42944 0.84635 0.0
C156 C 0.71536 0.44591 0.80091 0.0
C157 C 0.67412 0.39647 0.80699 0.0
C158 C 0.68239 0.35747 0.85026 0.0
C159 C 0.69499 0.50161 0.81098 0.0
C160 C 0.74721 0.44911 0.74782 0.0
H161 H 0.51462 0.22317 0.80804 0.0
H162 H 0.61431 0.15264 0.95753 0.0
H163 H 0.69657 0.20409 0.86153 0.0
H164 H 0.73496 0.25843 0.88632 0.0
H165 H 0.70648 0.19955 0.93193 0.0
H166 H 0.60537 0.27313 0.97512 0.0
H167 H 0.66387 0.24906 0.99245 0.0
H168 H 0.66021 0.32074 0.96479 0.0
H169 H 0.51786 0.37661 0.65173 0.0
H170 H 0.62066 0.53004 0.63297 0.0
H171 H 0.66257 0.4973 0.71153 0.0
H172 H 0.49927 0.37532 0.77707 0.0
H173 H 0.4771 0.31376 0.74672 0.0
H174 H 0.50145 0.30902 0.81277 0.0
H175 H 0.59954 0.28875 0.68706 0.0
H176 H 0.56579 0.24089 0.73758 0.0
H177 H 0.5324 0.27601 0.68613 0.0
H178 H 0.48566 0.13398 0.86039 0.0
C179 C 0.53711 0.20915 0.83998 0.0
C180 C 0.93619 0.79247 0.35011 0.0
C181 C 0.91571 0.81861 0.3919 0.0
C182 C 0.87051 0.79296 0.41895 0.0
C183 C 0.86547 0.71873 0.36099 0.0
C184 C 0.91057 0.74266 0.33549 0.0
C185 C 0.92667 0.70953 0.29174 0.0
H186 H 0.8766 0.49382 0.14196 0.0
C187 C 0.84715 0.66886 0.33461 0.0
C188 C 0.88297 0.663 0.29409 0.0
H189 H 0.01063 0.61308 0.13591 0.0
H190 H 0.9758 0.65713 0.20762 0.0
H191 H 0.86454 0.47214 0.27302 0.0
H192 H 0.79848 0.58254 0.15698 0.0
H193 H 0.75172 0.55554 0.20678 0.0
H194 H 0.77925 0.5082 0.16666 0.0
H195 H 0.81982 0.44687 0.22737 0.0
H196 H 0.80011 0.46836 0.29045 0.0
C197 C 0.97627 0.68637 0.30709 0.0
C198 C 0.93052 0.74819 0.23804 0.0
C199 C 0.67708 0.55909 0.39475 0.0
C200 C 0.64825 0.51392 0.37526 0.0
C201 C 0.66753 0.49095 0.33058 0.0
C202 C 0.7147 0.512 0.30613 0.0
C203 C 0.7432 0.55697 0.32608 0.0
C204 C 0.72403 0.58017 0.3693 0.0
C205 C 0.75863 0.62945 0.38339 0.0
C206 C 0.802 0.63122 0.34231 0.0
C207 C 0.79298 0.58837 0.309 0.0
C208 C 0.77481 0.61538 0.44127 0.0
C209 C 0.73095 0.68242 0.3749 0.0
C210 C 0.89853 0.52932 0.1562 0.0
C211 C 0.94663 0.54979 0.13288 0.0
C212 C 0.97367 0.59616 0.15288 0.0
C213 C 0.9533 0.62187 0.19469 0.0
C214 C 0.90525 0.60125 0.2173 0.0
C215 C 0.87878 0.55543 0.19836 0.0
C216 C 0.82855 0.53884 0.22816 0.0
C217 C 0.82956 0.58187 0.26829 0.0
C218 C 0.87447 0.61866 0.26129 0.0
C219 C 0.82767 0.47827 0.25611 0.0
C220 C 0.78705 0.54613 0.18782 0.0
H221 H 0.81094 0.72658 0.42565 0.0
H222 H 0.97101 0.81069 0.32871 0.0
H223 H 0.89831 0.77327 0.23526 0.0
H224 H 0.92913 0.72478 0.20272 0.0
H225 H 0.96552 0.77806 0.23443 0.0
H226 H 0.97892 0.67974 0.35131 0.0
H227 H 0.00943 0.71587 0.29055 0.0
H228 H 0.97915 0.64457 0.29383 0.0
H229 H 0.66323 0.57807 0.42861 0.0
H230 H 0.64634 0.45599 0.31473 0.0
H231 H 0.72716 0.49238 0.27257 0.0
H232 H 0.77973 0.57011 0.4493 0.0
H233 H 0.74618 0.62438 0.47116 0.0
H234 H 0.81149 0.63811 0.44878 0.0
H235 H 0.70598 0.68011 0.34075 0.0
H236 H 0.75661 0.72155 0.36416 0.0
H237 H 0.70728 0.68684 0.41101 0.0
H238 H 0.85382 0.81182 0.45138 0.0
C239 C 0.84541 0.7434 0.40378 0.0
C240 C 0.87527 0.68073 0.95126 0.0
C241 C 0.91598 0.65268 0.93691 0.0
C242 C 0.94792 0.6762 0.89233 0.0
C243 C 0.8962 0.75177 0.87514 0.0
C244 C 0.86594 0.72964 0.91988 0.0
C245 C 0.82249 0.76237 0.92823 0.0
H246 H 0.68803 0.97022 0.83646 0.0
C247 C 0.87391 0.8005 0.84914 0.0
C248 C 0.83058 0.80669 0.88012 0.0
H249 H 0.66192 0.86005 0.9849 0.0
H250 H 0.73473 0.81486 0.96379 0.0
H251 H 0.71297 0.88036 0.76439 0.0
H252 H 0.80584 0.99635 0.84657 0.0
H253 H 0.83575 0.99651 0.7833 0.0
H254 H 0.77347 0.01692 0.78794 0.0
H255 H 0.72955 0.9522 0.73704 0.0
H256 H 0.76773 0.89807 0.72299 0.0
C257 C 0.77323 0.72257 0.92598 0.0
C258 C 0.82841 0.78841 0.98163 0.0
C259 C 0.95158 0.90846 0.67413 0.0
C260 C 0.93421 0.94995 0.63827 0.0
C261 C 0.88881 0.97042 0.65029 0.0
C262 C 0.86097 0.95037 0.69786 0.0
C263 C 0.87823 0.90855 0.73334 0.0
C264 C 0.92247 0.88763 0.72109 0.0
C265 C 0.932 0.83952 0.7615 0.0
C266 C 0.88716 0.83677 0.80093 0.0
C267 C 0.85633 0.87773 0.78414 0.0
C268 C 0.93104 0.78585 0.73259 0.0
C269 C 0.982 0.856 0.78742 0.0
C270 C 0.6978 0.93626 0.86442 0.0
C271 C 0.66915 0.91867 0.91228 0.0
C272 C 0.6835 0.87452 0.94771 0.0
C273 C 0.72579 0.84831 0.93541 0.0
C274 C 0.75414 0.86654 0.88728 0.0
C275 C 0.74002 0.91007 0.85303 0.0
C276 C 0.77501 0.92527 0.8045 0.0
C277 C 0.81285 0.88402 0.81536 0.0
C278 C 0.8003 0.84925 0.86346 0.0
C279 C 0.74506 0.91391 0.75441 0.0
C280 C 0.79873 0.98702 0.80498 0.0
H281 H 0.96363 0.7412 0.82773 0.0
H282 H 0.85004 0.6641 0.98535 0.0
H283 H 0.86867 0.79856 0.98969 0.0
H284 H 0.81281 0.82887 0.98116 0.0
H285 H 0.81063 0.75899 0.01596 0.0
H286 H 0.77637 0.69527 0.89338 0.0
H287 H 0.76472 0.69481 0.96423 0.0
H288 H 0.74058 0.74509 0.917 0.0
H289 H 0.98585 0.89111 0.66474 0.0
H290 H 0.87491 0.0021 0.62275 0.0
H291 H 0.82679 0.96791 0.70473 0.0
H292 H 0.9044 0.78666 0.69982 0.0
H293 H 0.96865 0.78192 0.71453 0.0
H294 H 0.91759 0.74707 0.75915 0.0
H295 H 0.98445 0.90011 0.79715 0.0
H296 H 0.98591 0.83013 0.82564 0.0
H297 H 0.01453 0.8528 0.75978 0.0
H298 H 0.97966 0.65564 0.88048 0.0
C299 C 0.93835 0.72568 0.86153 0.0
C300 C 0.79302 0.07184 0.40015 0.0
C301 C 0.81597 0.03322 0.37241 0.0
C302 C 0.79605 0.01849 0.32398 0.0
C303 C 0.73215 0.08085 0.33133 0.0
C304 C 0.75158 0.09519 0.37884 0.0
C305 C 0.72376 0.13795 0.40264 0.0
H306 H 0.54098 0.30876 0.38575 0.0
C307 C 0.68978 0.11373 0.3196 0.0
C308 C 0.68499 0.14746 0.36136 0.0
H309 H 0.64567 0.28939 0.51074 0.0
H310 H 0.68205 0.21909 0.46566 0.0
H311 H 0.51732 0.1744 0.3714 0.0
H312 H 0.61623 0.31453 0.29358 0.0
H313 H 0.60274 0.27106 0.24317 0.0
H314 H 0.55255 0.30108 0.27532 0.0
H315 H 0.49696 0.23267 0.33091 0.0
H316 H 0.51412 0.17209 0.30202 0.0
C317 C 0.69923 0.11088 0.45754 0.0
C318 C 0.76106 0.1915 0.40535 0.0
C319 C 0.58621 0.0892 0.15494 0.0
C320 C 0.54726 0.11791 0.13367 0.0
C321 C 0.53256 0.16324 0.15876 0.0
C322 C 0.5545 0.17852 0.20523 0.0
C323 C 0.59213 0.14871 0.22704 0.0
C324 C 0.60867 0.10598 0.20128 0.0
C325 C 0.65215 0.08269 0.22872 0.0
C326 C 0.65684 0.11661 0.27648 0.0
C327 C 0.62092 0.15451 0.27527 0.0
C328 C 0.63703 0.01939 0.24652 0.0
C329 C 0.69901 0.09566 0.18961 0.0
C330 C 0.57119 0.28877 0.40396 0.0
C331 C 0.5902 0.3044 0.45207 0.0
C332 C 0.63021 0.27798 0.47375 0.0
C333 C 0.65141 0.23728 0.44739 0.0
C334 C 0.63269 0.22308 0.39858 0.0
C335 C 0.59308 0.24859 0.37793 0.0
C336 C 0.57872 0.22975 0.32513 0.0
C337 C 0.61583 0.18804 0.31766 0.0
C338 C 0.64742 0.18432 0.36064 0.0
C339 C 0.52386 0.20095 0.33215 0.0
C340 C 0.58757 0.28155 0.2819 0.0
H341 H 0.74091 0.02874 0.26667 0.0
H342 H 0.80728 0.08421 0.43733 0.0
H343 H 0.78786 0.19915 0.36975 0.0
H344 H 0.74254 0.23006 0.40476 0.0
H345 H 0.7833 0.18741 0.44156 0.0
H346 H 0.68665 0.06539 0.4566 0.0
H347 H 0.72611 0.11459 0.48977 0.0
H348 H 0.66499 0.12898 0.46888 0.0
H349 H 0.59895 0.05484 0.13589 0.0
H350 H 0.50282 0.1861 0.14335 0.0
H351 H 0.5407 0.21269 0.22267 0.0
H352 H 0.59835 0.01202 0.26535 0.0
H353 H 0.63777 0.99475 0.21172 0.0
H354 H 0.66129 0.00203 0.27687 0.0
H355 H 0.69846 0.13628 0.16413 0.0
H356 H 0.73438 0.10086 0.21041 0.0
H357 H 0.70074 0.0624 0.16255 0.0
H358 H 0.81269 0.98862 0.30181 0.0
C359 C 0.75432 0.04187 0.30347 0.0
C360 C 0.45757 0.5972 0.34624 0.0
C361 C 0.44145 0.54407 0.37437 0.0
C362 C 0.40148 0.50986 0.35533 0.0
C363 C 0.39304 0.58245 0.28266 0.0
C364 C 0.43326 0.61526 0.30041 0.0
C365 C 0.44679 0.66974 0.2648 0.0
H366 H 0.39107 0.84628 0.05257 0.0
C367 C 0.3755 0.61383 0.23465 0.0
C368 C 0.40716 0.66486 0.22363 0.0
H369 H 0.51785 0.86859 0.15184 0.0
H370 H 0.49005 0.77898 0.20402 0.0
H371 H 0.30862 0.79371 0.14722 0.0
H372 H 0.40309 0.72666 0.03537 0.0
H373 H 0.34908 0.67776 0.04491 0.0
H374 H 0.34423 0.74912 0.01709 0.0
H375 H 0.29918 0.79703 0.07677 0.0
H376 H 0.27158 0.73809 0.12287 0.0
C377 C 0.44087 0.71873 0.29855 0.0
C378 C 0.50035 0.67022 0.23951 0.0
C379 C 0.21761 0.53706 0.14803 0.0
C380 C 0.19266 0.55808 0.10338 0.0
C381 C 0.21289 0.60892 0.07343 0.0
C382 C 0.25657 0.63915 0.08829 0.0
C383 C 0.28062 0.61837 0.13347 0.0
C384 C 0.26169 0.56774 0.16212 0.0
C385 C 0.29367 0.55175 0.20792 0.0
C386 C 0.33421 0.60187 0.20241 0.0
C387 C 0.32581 0.64067 0.15906 0.0
C388 C 0.26121 0.54775 0.2607 0.0
C389 C 0.31511 0.49661 0.19792 0.0
C390 C 0.41255 0.83228 0.08596 0.0
C391 C 0.45627 0.86457 0.09854 0.0
C392 C 0.48388 0.84423 0.1415 0.0
C393 C 0.46773 0.79228 0.17165 0.0
C394 C 0.42396 0.76013 0.15813 0.0
C395 C 0.39759 0.78031 0.11558 0.0
C396 C 0.35371 0.73984 0.10456 0.0
C397 C 0.35756 0.69199 0.14783 0.0
C398 C 0.39831 0.70405 0.1796 0.0
C399 C 0.30556 0.76834 0.11282 0.0
C400 C 0.36245 0.7225 0.04751 0.0
H401 H 0.34653 0.50119 0.2976 0.0
H402 H 0.48876 0.62408 0.35933 0.0
H403 H 0.50817 0.62701 0.23333 0.0
H404 H 0.50571 0.69404 0.19923 0.0
H405 H 0.5292 0.68763 0.26564 0.0
H406 H 0.40547 0.71006 0.32405 0.0
H407 H 0.47247 0.72457 0.32537 0.0
H408 H 0.43854 0.75895 0.27391 0.0
H409 H 0.20326 0.49767 0.17143 0.0
H410 H 0.19445 0.62599 0.03887 0.0
H411 H 0.26949 0.67789 0.06416 0.0
H412 H 0.23855 0.58358 0.26013 0.0
H413 H 0.23486 0.50829 0.26635 0.0
H414 H 0.28358 0.54993 0.29638 0.0
H415 H 0.31975 0.49292 0.15435 0.0
H416 H 0.35308 0.49473 0.21288 0.0
H417 H 0.28986 0.45915 0.21636 0.0
H418 H 0.38845 0.46877 0.37625 0.0
C419 C 0.37708 0.52885 0.30978 0.0
C420 C 0.07406 0.20439 0.66045 0.0
C421 C 0.09459 0.17866 0.61846 0.0
C422 C 0.14019 0.20402 0.59208 0.0
C423 C 0.14508 0.2777 0.65066 0.0
C424 C 0.09985 0.25368 0.67578 0.0
C425 C 0.08372 0.28602 0.72006 0.0
H426 H 0.13079 0.50131 0.87038 0.0
C427 C 0.16315 0.32736 0.67746 0.0
C428 C 0.12728 0.33259 0.7181 0.0
H429 H 0.99951 0.3779 0.87796 0.0
H430 H 0.03505 0.33519 0.80583 0.0
H431 H 0.14283 0.5228 0.73876 0.0
H432 H 0.21107 0.41453 0.85498 0.0
H433 H 0.25737 0.44292 0.80511 0.0
H434 H 0.22866 0.48917 0.84551 0.0
H435 H 0.18648 0.54927 0.78492 0.0
H436 H 0.20758 0.52847 0.72207 0.0
C437 C 0.03401 0.30917 0.70511 0.0
C438 C 0.08014 0.24659 0.77333 0.0
C439 C 0.33173 0.43984 0.61644 0.0
C440 C 0.36009 0.48547 0.6357 0.0
C441 C 0.34063 0.50815 0.68048 0.0
C442 C 0.29375 0.48634 0.70527 0.0
C443 C 0.26574 0.44088 0.68555 0.0
C444 C 0.28509 0.41803 0.6422 0.0
C445 C 0.25106 0.36825 0.62826 0.0
C446 C 0.20785 0.36568 0.66965 0.0
C447 C 0.21638 0.40861 0.70298 0.0
C448 C 0.23439 0.38208 0.57054 0.0
C449 C 0.27951 0.31584 0.63641 0.0
C450 C 0.10962 0.46524 0.85631 0.0
C451 C 0.06206 0.44317 0.88018 0.0
C452 C 0.03608 0.39595 0.86059 0.0
C453 C 0.05684 0.37105 0.81851 0.0
C454 C 0.10431 0.39328 0.7953 0.0
C455 C 0.12991 0.43973 0.81402 0.0
C456 C 0.17997 0.45741 0.78404 0.0
C457 C 0.17973 0.41439 0.74392 0.0
C458 C 0.13535 0.37675 0.7511 0.0
C459 C 0.17973 0.51779 0.75608 0.0
C460 C 0.22172 0.45122 0.82423 0.0
H461 H 0.20011 0.26998 0.58642 0.0
H462 H 0.03903 0.18627 0.68148 0.0
H463 H 0.11148 0.22019 0.77484 0.0
H464 H 0.08348 0.26945 0.80895 0.0
H465 H 0.04442 0.2179 0.7776 0.0
H466 H 0.03185 0.31748 0.66092 0.0
H467 H 1.00096 0.27883 0.72038 0.0
H468 H 0.03045 0.35013 0.71985 0.0
H469 H 0.34571 0.42106 0.58252 0.0
H470 H 0.36147 0.54345 0.69617 0.0
H471 H 0.28112 0.50574 0.7389 0.0
H472 H 0.22829 0.42704 0.56289 0.0
H473 H 0.26331 0.37423 0.54043 0.0
H474 H 0.19819 0.35831 0.56303 0.0
H475 H 0.30508 0.31876 0.67001 0.0
H476 H 0.25435 0.27643 0.6478 0.0
H477 H 0.30269 0.3115 0.59991 0.0
H478 H 0.15692 0.18538 0.55953 0.0
C479 C 0.16543 0.25322 0.60789 0.0
Zn480 Zn 0.0708 0.0237 0.54417 0.0
Zn481 Zn 0.93507 0.97528 0.46432 0.0
C482 C 0.07014 0.12458 0.60345 0.0
O483 O 0.0297 0.09851 0.63032 0.0
C484 C 0.93935 0.87364 0.40573 0.0
O485 O 0.97737 0.90173 0.37621 0.0
O486 O 0.12901 0.98053 0.56819 0.0
O487 O 0.00763 0.98817 0.58652 0.0
O488 O 0.93715 0.96712 0.54453 0.0
C489 C 0.14304 0.98605 0.61548 0.0
O490 O 0.11802 0.01569 0.64554 0.0
O491 O 0.09062 0.10112 0.56683 0.0
C492 C 0.86043 0.00828 0.39314 0.0
O493 O 0.88491 0.97807 0.36315 0.0
O494 O 0.87532 0.01492 0.43983 0.0
O495 O 0.99612 0.01709 0.42421 0.0
O496 O 0.06807 0.03898 0.46327 0.0
O497 O 0.91953 0.89628 0.44338 0.0
C498 C 0.96132 0.96971 0.58686 0.0
C499 C 0.04173 0.03839 0.42223 0.0
Zn500 Zn 0.54153 0.97238 0.98735 0.0
Zn501 Zn 0.46269 0.02704 0.02464 0.0
C502 C 0.48552 0.89847 0.92305 0.0
O503 O 0.51097 0.86273 0.95031 0.0
C504 C 0.51975 0.10035 0.08725 0.0
O505 O 0.49351 0.13556 0.06038 0.0
O506 O 0.60267 0.93614 0.9711 0.0
O507 O 0.56096 0.05597 0.97224 0.0
O508 O 0.48397 0.06491 0.9506 0.0
C509 C 0.62477 0.94644 0.92506 0.0
O510 O 0.60755 0.98196 0.88899 0.0
O511 O 0.49041 0.94925 0.93309 0.0
C512 C 0.38653 0.04415 0.09669 0.0
O513 O 0.41114 0.00888 0.1257 0.0
O514 O 0.40147 0.05958 0.04829 0.0
O515 O 0.44344 0.94321 0.03671 0.0
O516 O 0.51941 0.93754 0.06216 0.0
O517 O 0.51521 0.0495 0.07743 0.0
C518 C 0.53038 0.08264 0.94547 0.0
C519 C 0.4735 0.91807 0.0655 0.0
Zn520 Zn 0.52179 0.44826 0.47995 0.0
Zn521 Zn 0.48627 0.55146 0.53033 0.0
C522 C 0.59868 0.48958 0.40094 0.0
O523 O 0.5688 0.45552 0.37561 0.0
C524 C 0.40938 0.51042 0.60973 0.0
O525 O 0.439 0.54499 0.63481 0.0
O526 O 0.53335 0.37265 0.45879 0.0
O527 O 0.51837 0.43841 0.56078 0.0
O528 O 0.54582 0.52631 0.56878 0.0
C529 C 0.57132 0.35128 0.47676 0.0
O530 O 0.59761 0.37631 0.51222 0.0
O531 O 0.58562 0.49747 0.44858 0.0
C532 C 0.43692 0.64835 0.53302 0.0
O533 O 0.41085 0.62312 0.49752 0.0
O534 O 0.47483 0.62711 0.55131 0.0
O535 O 0.4894 0.56137 0.44948 0.0
O536 O 0.46237 0.47341 0.44122 0.0
O537 O 0.42254 0.50227 0.56217 0.0
C538 C 0.54238 0.47452 0.58629 0.0
C539 C 0.46558 0.52522 0.42385 0.0
Zn540 Zn 0.9495 0.48751 0.98492 0.0
Zn541 Zn 0.06106 0.50497 0.0255 0.0
C542 C 0.86498 0.46771 0.9192 0.0
O543 O 0.89023 0.50756 0.88562 0.0
C544 C 0.14523 0.5283 0.08843 0.0
O545 O 0.12003 0.48852 0.12213 0.0
O546 O 0.95616 0.56869 0.95129 0.0
O547 O 0.94293 0.48628 0.06557 0.0
O548 O 0.01213 0.54399 0.06755 0.0
C549 C 0.92226 0.59729 0.96609 0.0
O550 O 0.88876 0.57395 1.00379 0.0
O551 O 0.88295 0.45292 0.96384 0.0
C552 C 0.09925 0.4019 0.03377 0.0
O553 O 0.12811 0.43293 0.99578 0.0
O554 O 0.06263 0.42288 0.05428 0.0
O555 O 0.06237 0.51 0.94437 0.0
O556 O 0.99883 0.44369 0.94952 0.0
O557 O 0.12734 0.54257 0.04361 0.0
C558 C 0.96851 0.52462 0.08712 0.0
C559 C 0.03958 0.46766 0.92595 0.0
loop_
_geom_bond_atom_site_label_1
_geom_bond_atom_site_label_2
_geom_bond_distance
_geom_bond_site_symmetry_2
_ccdc_geom_bond_type
C0 C1 1.391 . S
C0 C4 1.391 . S
C0 H42 0.948 . S
C1 C0 1.391 . S
C1 C2 1.391 . S
C2 C1 1.391 . S
C2 H58 0.947 . S
C2 C59 1.392 . S
C3 C4 1.391 . S
C3 C7 1.397 . S
C3 C59 1.419 . S
C4 C0 1.391 . S
C4 C3 1.391 . S
C4 C5 1.399 . S
C5 C4 1.399 . S
C5 C8 1.396 . S
C5 C17 1.453 . S
C5 C18 1.684 . S
H6 C30 0.948 . S
C7 C3 1.397 . S
C7 C8 1.394 . S
C7 C26 1.723 . S
C8 C5 1.396 . S
C8 C7 1.394 . S
C8 C38 1.723 . S
H9 C32 0.947 . S
H10 C33 0.948 . S
H11 C39 0.982 . S
H12 C40 0.979 . S
H13 C40 0.980 . S
H14 C40 0.983 . S
H15 C39 0.979 . S
H16 C39 0.977 . S
C17 C5 1.453 . S
C17 H46 0.982 . S
C17 H47 0.979 . S
C17 H48 0.977 . S
C18 C5 1.684 . S
C18 H43 0.979 . S
C18 H44 0.980 . S
C18 H45 0.983 . S
C19 C20 1.391 . S
C19 C24 1.391 . S
C19 H49 0.948 . S
C20 C19 1.391 . S
C20 C21 1.391 . S
C21 C20 1.391 . S
C21 C22 1.392 . S
C21 H50 0.947 . S
C22 C21 1.392 . S
C22 C23 1.419 . S
C22 H51 0.948 . S
C23 C22 1.419 . S
C23 C24 1.391 . S
C23 C27 1.397 . S
C24 C19 1.391 . S
C24 C23 1.391 . S
C24 C25 1.399 . S
C25 C24 1.399 . S
C25 C26 1.396 . S
C25 C28 1.453 . S
C25 C29 1.684 . S
C26 C7 1.723 . S
C26 C25 1.396 . S
C26 C27 1.394 . S
C27 C23 1.397 . S
C27 C26 1.394 . S
C27 C37 1.723 . S
C28 C25 1.453 . S
C28 H52 0.982 . S
C28 H53 0.979 . S
C28 H54 0.977 . S
C29 C25 1.684 . S
C29 H55 0.979 . S
C29 H56 0.980 . S
C29 H57 0.983 . S
C30 H6 0.948 . S
C30 C31 1.391 . S
C30 C35 1.391 . S
C31 C30 1.391 . S
C31 C32 1.391 . S
C32 H9 0.947 . S
C32 C31 1.391 . S
C32 C33 1.392 . S
C33 H10 0.948 . S
C33 C32 1.392 . S
C33 C34 1.419 . S
C34 C33 1.419 . S
C34 C35 1.391 . S
C34 C38 1.397 . S
C35 C30 1.391 . S
C35 C34 1.391 . S
C35 C36 1.399 . S
C36 C35 1.399 . S
C36 C37 1.396 . S
C36 C39 1.453 . S
C36 C40 1.684 . S
C37 C27 1.723 . S
C37 C36 1.396 . S
C37 C38 1.394 . S
C38 C8 1.723 . S
C38 C34 1.397 . S
C38 C37 1.394 . S
C39 H11 0.982 . S
C39 H15 0.979 . S
C39 H16 0.977 . S
C39 C36 1.453 . S
C40 H12 0.979 . S
C40 H13 0.980 . S
C40 H14 0.983 . S
C40 C36 1.684 . S
H41 C59 0.948 . S
H42 C0 0.948 . S
H43 C18 0.979 . S
H44 C18 0.980 . S
H45 C18 0.983 . S
H46 C17 0.982 . S
H47 C17 0.979 . S
H48 C17 0.977 . S
H49 C19 0.948 . S
H50 C21 0.947 . S
H51 C22 0.948 . S
H52 C28 0.982 . S
H53 C28 0.979 . S
H54 C28 0.977 . S
H55 C29 0.979 . S
H56 C29 0.980 . S
H57 C29 0.983 . S
H58 C2 0.947 . S
C59 C2 1.392 . S
C59 C3 1.419 . S
C59 H41 0.948 . S
C60 C61 1.391 . S
C60 C64 1.391 . S
C60 H102 0.948 . S
C61 C60 1.391 . S
C61 C62 1.391 . S
C62 C61 1.391 . S
C62 H118 0.947 . S
C62 C119 1.392 . S
C63 C64 1.391 . S
C63 C67 1.397 . S
C63 C119 1.419 . S
C64 C60 1.391 . S
C64 C63 1.391 . S
C64 C65 1.399 . S
C65 C64 1.399 . S
C65 C68 1.396 . S
C65 C77 1.453 . S
C65 C78 1.684 . S
H66 C90 0.948 . S
C67 C63 1.397 . S
C67 C68 1.394 . S
C67 C86 1.723 . S
C68 C65 1.396 . S
C68 C67 1.394 . S
C68 C98 1.723 . S
H69 C92 0.947 . S
H70 C93 0.948 . S
H71 C99 0.982 . S
H72 C100 0.979 . S
H73 C100 0.980 . S
H74 C100 0.983 . S
H75 C99 0.979 . S
H76 C99 0.977 . S
C77 C65 1.453 . S
C77 H106 0.982 . S
C77 H107 0.979 . S
C77 H108 0.977 . S
C78 C65 1.684 . S
C78 H103 0.979 . S
C78 H104 0.980 . S
C78 H105 0.983 . S
C79 C80 1.391 . S
C79 C84 1.391 . S
C79 H109 0.948 . S
C80 C79 1.391 . S
C80 C81 1.391 . S
C81 C80 1.391 . S
C81 C82 1.392 . S
C81 H110 0.947 . S
C82 C81 1.392 . S
C82 C83 1.419 . S
C82 H111 0.948 . S
C83 C82 1.419 . S
C83 C84 1.391 . S
C83 C87 1.397 . S
C84 C79 1.391 . S
C84 C83 1.391 . S
C84 C85 1.399 . S
C85 C84 1.399 . S
C85 C86 1.396 . S
C85 C88 1.453 . S
C85 C89 1.684 . S
C86 C67 1.723 . S
C86 C85 1.396 . S
C86 C87 1.394 . S
C87 C83 1.397 . S
C87 C86 1.394 . S
C87 C97 1.723 . S
C88 C85 1.453 . S
C88 H112 0.982 . S
C88 H113 0.979 . S
C88 H114 0.977 . S
C89 C85 1.684 . S
C89 H115 0.979 . S
C89 H116 0.980 . S
C89 H117 0.983 . S
C90 H66 0.948 . S
C90 C91 1.391 . S
C90 C95 1.391 . S
C91 C90 1.391 . S
C91 C92 1.391 . S
C92 H69 0.947 . S
C92 C91 1.391 . S
C92 C93 1.392 . S
C93 H70 0.948 . S
C93 C92 1.392 . S
C93 C94 1.419 . S
C94 C93 1.419 . S
C94 C95 1.391 . S
C94 C98 1.397 . S
C95 C90 1.391 . S
C95 C94 1.391 . S
C95 C96 1.399 . S
C96 C95 1.399 . S
C96 C97 1.396 . S
C96 C99 1.453 . S
C96 C100 1.684 . S
C97 C87 1.723 . S
C97 C96 1.396 . S
C97 C98 1.394 . S
C98 C68 1.723 . S
C98 C94 1.397 . S
C98 C97 1.394 . S
C99 H71 0.982 . S
C99 H75 0.979 . S
C99 H76 0.977 . S
C99 C96 1.453 . S
C100 H72 0.979 . S
C100 H73 0.980 . S
C100 H74 0.983 . S
C100 C96 1.684 . S
H101 C119 0.948 . S
H102 C60 0.948 . S
H103 C78 0.979 . S
H104 C78 0.980 . S
H105 C78 0.983 . S
H106 C77 0.982 . S
H107 C77 0.979 . S
H108 C77 0.977 . S
H109 C79 0.948 . S
H110 C81 0.947 . S
H111 C82 0.948 . S
H112 C88 0.982 . S
H113 C88 0.979 . S
H114 C88 0.977 . S
H115 C89 0.979 . S
H116 C89 0.980 . S
H117 C89 0.983 . S
H118 C62 0.947 . S
C119 C62 1.392 . S
C119 C63 1.419 . S
C119 H101 0.948 . S
C120 C121 1.391 . S
C120 C124 1.391 . S
C120 H162 0.948 . S
C121 C120 1.391 . S
C121 C122 1.391 . S
C122 C121 1.391 . S
C122 H178 0.947 . S
C122 C179 1.392 . S
C123 C124 1.391 . S
C123 C127 1.397 . S
C123 C179 1.419 . S
C124 C120 1.391 . S
C124 C123 1.391 . S
C124 C125 1.399 . S
C125 C124 1.399 . S
C125 C128 1.396 . S
C125 C137 1.453 . S
C125 C138 1.684 . S
H126 C150 0.948 . S
C127 C123 1.397 . S
C127 C128 1.394 . S
C127 C146 1.723 . S
C128 C125 1.396 . S
C128 C127 1.394 . S
C128 C158 1.723 . S
H129 C152 0.947 . S
H130 C153 0.948 . S
H131 C159 0.982 . S
H132 C160 0.979 . S
H133 C160 0.980 . S
H134 C160 0.983 . S
H135 C159 0.979 . S
H136 C159 0.977 . S
C137 C125 1.453 . S
C137 H166 0.982 . S
C137 H167 0.979 . S
C137 H168 0.977 . S
C138 C125 1.684 . S
C138 H163 0.979 . S
C138 H164 0.980 . S
C138 H165 0.983 . S
C139 C140 1.391 . S
C139 C144 1.391 . S
C139 H169 0.948 . S
C140 C139 1.391 . S
C140 C141 1.391 . S
C141 C140 1.391 . S
C141 C142 1.392 . S
C141 H170 0.947 . S
C142 C141 1.392 . S
C142 C143 1.419 . S
C142 H171 0.948 . S
C143 C142 1.419 . S
C143 C144 1.391 . S
C143 C147 1.397 . S
C144 C139 1.391 . S
C144 C143 1.391 . S
C144 C145 1.399 . S
C145 C144 1.399 . S
C145 C146 1.396 . S
C145 C148 1.453 . S
C145 C149 1.684 . S
C146 C127 1.723 . S
C146 C145 1.396 . S
C146 C147 1.394 . S
C147 C143 1.397 . S
C147 C146 1.394 . S
C147 C157 1.723 . S
C148 C145 1.453 . S
C148 H172 0.982 . S
C148 H173 0.979 . S
C148 H174 0.977 . S
C149 C145 1.684 . S
C149 H175 0.979 . S
C149 H176 0.980 . S
C149 H177 0.983 . S
C150 H126 0.948 . S
C150 C151 1.391 . S
C150 C155 1.391 . S
C151 C150 1.391 . S
C151 C152 1.391 . S
C152 H129 0.947 . S
C152 C151 1.391 . S
C152 C153 1.392 . S
C153 H130 0.948 . S
C153 C152 1.392 . S
C153 C154 1.419 . S
C154 C153 1.419 . S
C154 C155 1.391 . S
C154 C158 1.397 . S
C155 C150 1.391 . S
C155 C154 1.391 . S
C155 C156 1.399 . S
C156 C155 1.399 . S
C156 C157 1.396 . S
C156 C159 1.453 . S
C156 C160 1.684 . S
C157 C147 1.723 . S
C157 C156 1.396 . S
C157 C158 1.394 . S
C158 C128 1.723 . S
C158 C154 1.397 . S
C158 C157 1.394 . S
C159 H131 0.982 . S
C159 H135 0.979 . S
C159 H136 0.977 . S
C159 C156 1.453 . S
C160 H132 0.979 . S
C160 H133 0.980 . S
C160 H134 0.983 . S
C160 C156 1.684 . S
H161 C179 0.948 . S
H162 C120 0.948 . S
H163 C138 0.979 . S
H164 C138 0.980 . S
H165 C138 0.983 . S
H166 C137 0.982 . S
H167 C137 0.979 . S
H168 C137 0.977 . S
H169 C139 0.948 . S
H170 C141 0.947 . S
H171 C142 0.948 . S
H172 C148 0.982 . S
H173 C148 0.979 . S
H174 C148 0.977 . S
H175 C149 0.979 . S
H176 C149 0.980 . S
H177 C149 0.983 . S
H178 C122 0.947 . S
C179 C122 1.392 . S
C179 C123 1.419 . S
C179 H161 0.948 . S
C180 C181 1.391 . S
C180 C184 1.391 . S
C180 H222 0.948 . S
C181 C180 1.391 . S
C181 C182 1.391 . S
C182 C181 1.391 . S
C182 H238 0.947 . S
C182 C239 1.392 . S
C183 C184 1.391 . S
C183 C187 1.397 . S
C183 C239 1.419 . S
C184 C180 1.391 . S
C184 C183 1.391 . S
C184 C185 1.399 . S
C185 C184 1.399 . S
C185 C188 1.396 . S
C185 C197 1.453 . S
C185 C198 1.684 . S
H186 C210 0.948 . S
C187 C183 1.397 . S
C187 C188 1.394 . S
C187 C206 1.723 . S
C188 C185 1.396 . S
C188 C187 1.394 . S
C188 C218 1.723 . S
H189 C212 0.947 . S
H190 C213 0.948 . S
H191 C219 0.982 . S
H192 C220 0.979 . S
H193 C220 0.980 . S
H194 C220 0.983 . S
H195 C219 0.979 . S
H196 C219 0.977 . S
C197 C185 1.453 . S
C197 H226 0.982 . S
C197 H227 0.979 . S
C197 H228 0.977 . S
C198 C185 1.684 . S
C198 H223 0.979 . S
C198 H224 0.980 . S
C198 H225 0.983 . S
C199 C200 1.391 . S
C199 C204 1.391 . S
C199 H229 0.948 . S
C200 C199 1.391 . S
C200 C201 1.391 . S
C201 C200 1.391 . S
C201 C202 1.392 . S
C201 H230 0.947 . S
C202 C201 1.392 . S
C202 C203 1.419 . S
C202 H231 0.948 . S
C203 C202 1.419 . S
C203 C204 1.391 . S
C203 C207 1.397 . S
C204 C199 1.391 . S
C204 C203 1.391 . S
C204 C205 1.399 . S
C205 C204 1.399 . S
C205 C206 1.396 . S
C205 C208 1.453 . S
C205 C209 1.684 . S
C206 C187 1.723 . S
C206 C205 1.396 . S
C206 C207 1.394 . S
C207 C203 1.397 . S
C207 C206 1.394 . S
C207 C217 1.723 . S
C208 C205 1.453 . S
C208 H232 0.982 . S
C208 H233 0.979 . S
C208 H234 0.977 . S
C209 C205 1.684 . S
C209 H235 0.979 . S
C209 H236 0.980 . S
C209 H237 0.983 . S
C210 H186 0.948 . S
C210 C211 1.391 . S
C210 C215 1.391 . S
C211 C210 1.391 . S
C211 C212 1.391 . S
C212 H189 0.947 . S
C212 C211 1.391 . S
C212 C213 1.392 . S
C213 H190 0.948 . S
C213 C212 1.392 . S
C213 C214 1.419 . S
C214 C213 1.419 . S
C214 C215 1.391 . S
C214 C218 1.397 . S
C215 C210 1.391 . S
C215 C214 1.391 . S
C215 C216 1.399 . S
C216 C215 1.399 . S
C216 C217 1.396 . S
C216 C219 1.453 . S
C216 C220 1.684 . S
C217 C207 1.723 . S
C217 C216 1.396 . S
C217 C218 1.394 . S
C218 C188 1.723 . S
C218 C214 1.397 . S
C218 C217 1.394 . S
C219 H191 0.982 . S
C219 H195 0.979 . S
C219 H196 0.977 . S
C219 C216 1.453 . S
C220 H192 0.979 . S
C220 H193 0.980 . S
C220 H194 0.983 . S
C220 C216 1.684 . S
H221 C239 0.948 . S
H222 C180 0.948 . S
H223 C198 0.979 . S
H224 C198 0.980 . S
H225 C198 0.983 . S
H226 C197 0.982 . S
H227 C197 0.979 . S
H228 C197 0.977 . S
H229 C199 0.948 . S
H230 C201 0.947 . S
H231 C202 0.948 . S
H232 C208 0.982 . S
H233 C208 0.979 . S
H234 C208 0.977 . S
H235 C209 0.979 . S
H236 C209 0.980 . S
H237 C209 0.983 . S
H238 C182 0.947 . S
C239 C182 1.392 . S
C239 C183 1.419 . S
C239 H221 0.948 . S
C240 C241 1.391 . S
C240 C244 1.391 . S
C240 H282 0.948 . S
C241 C240 1.391 . S
C241 C242 1.391 . S
C242 C241 1.391 . S
C242 H298 0.947 . S
C242 C299 1.392 . S
C243 C244 1.391 . S
C243 C247 1.397 . S
C243 C299 1.419 . S
C244 C240 1.391 . S
C244 C243 1.391 . S
C244 C245 1.399 . S
C245 C244 1.399 . S
C245 C248 1.396 . S
C245 C257 1.453 . S
C245 C258 1.684 . S
H246 C270 0.948 . S
C247 C243 1.397 . S
C247 C248 1.394 . S
C247 C266 1.723 . S
C248 C245 1.396 . S
C248 C247 1.394 . S
C248 C278 1.723 . S
H249 C272 0.947 . S
H250 C273 0.948 . S
H251 C279 0.982 . S
H252 C280 0.979 . S
H253 C280 0.980 . S
H254 C280 0.983 . S
H255 C279 0.979 . S
H256 C279 0.977 . S
C257 C245 1.453 . S
C257 H286 0.982 . S
C257 H287 0.979 . S
C257 H288 0.977 . S
C258 C245 1.684 . S
C258 H283 0.979 . S
C258 H284 0.980 . S
C258 H285 0.983 . S
C259 C260 1.391 . S
C259 C264 1.391 . S
C259 H289 0.948 . S
C260 C259 1.391 . S
C260 C261 1.391 . S
C261 C260 1.391 . S
C261 C262 1.392 . S
C261 H290 0.947 . S
C262 C261 1.392 . S
C262 C263 1.419 . S
C262 H291 0.948 . S
C263 C262 1.419 . S
C263 C264 1.391 . S
C263 C267 1.397 . S
C264 C259 1.391 . S
C264 C263 1.391 . S
C264 C265 1.399 . S
C265 C264 1.399 . S
C265 C266 1.396 . S
C265 C268 1.453 . S
C265 C269 1.684 . S
C266 C247 1.723 . S
C266 C265 1.396 . S
C266 C267 1.394 . S
C267 C263 1.397 . S
C267 C266 1.394 . S
C267 C277 1.723 . S
C268 C265 1.453 . S
C268 H292 0.982 . S
C268 H293 0.979 . S
C268 H294 0.977 . S
C269 C265 1.684 . S
C269 H295 0.979 . S
C269 H296 0.980 . S
C269 H297 0.983 . S
C270 H246 0.948 . S
C270 C271 1.391 . S
C270 C275 1.391 . S
C271 C270 1.391 . S
C271 C272 1.391 . S
C272 H249 0.947 . S
C272 C271 1.391 . S
C272 C273 1.392 . S
C273 H250 0.948 . S
C273 C272 1.392 . S
C273 C274 1.419 . S
C274 C273 1.419 . S
C274 C275 1.391 . S
C274 C278 1.397 . S
C275 C270 1.391 . S
C275 C274 1.391 . S
C275 C276 1.399 . S
C276 C275 1.399 . S
C276 C277 1.396 . S
C276 C279 1.453 . S
C276 C280 1.684 . S
C277 C267 1.723 . S
C277 C276 1.396 . S
C277 C278 1.394 . S
C278 C248 1.723 . S
C278 C274 1.397 . S
C278 C277 1.394 . S
C279 H251 0.982 . S
C279 H255 0.979 . S
C279 H256 0.977 . S
C279 C276 1.453 . S
C280 H252 0.979 . S
C280 H253 0.980 . S
C280 H254 0.983 . S
C280 C276 1.684 . S
H281 C299 0.948 . S
H282 C240 0.948 . S
H283 C258 0.979 . S
H284 C258 0.980 . S
H285 C258 0.983 . S
H286 C257 0.982 . S
H287 C257 0.979 . S
H288 C257 0.977 . S
H289 C259 0.948 . S
H290 C261 0.947 . S
H291 C262 0.948 . S
H292 C268 0.982 . S
H293 C268 0.979 . S
H294 C268 0.977 . S
H295 C269 0.979 . S
H296 C269 0.980 . S
H297 C269 0.983 . S
H298 C242 0.947 . S
C299 C242 1.392 . S
C299 C243 1.419 . S
C299 H281 0.948 . S
C300 C301 1.391 . S
C300 C304 1.391 . S
C300 H342 0.948 . S
C301 C300 1.391 . S
C301 C302 1.391 . S
C302 C301 1.391 . S
C302 H358 0.947 . S
C302 C359 1.392 . S
C303 C304 1.391 . S
C303 C307 1.397 . S
C303 C359 1.419 . S
C304 C300 1.391 . S
C304 C303 1.391 . S
C304 C305 1.399 . S
C305 C304 1.399 . S
C305 C308 1.396 . S
C305 C317 1.453 . S
C305 C318 1.684 . S
H306 C330 0.948 . S
C307 C303 1.397 . S
C307 C308 1.394 . S
C307 C326 1.723 . S
C308 C305 1.396 . S
C308 C307 1.394 . S
C308 C338 1.723 . S
H309 C332 0.947 . S
H310 C333 0.948 . S
H311 C339 0.982 . S
H312 C340 0.979 . S
H313 C340 0.980 . S
H314 C340 0.983 . S
H315 C339 0.979 . S
H316 C339 0.977 . S
C317 C305 1.453 . S
C317 H346 0.982 . S
C317 H347 0.979 . S
C317 H348 0.977 . S
C318 C305 1.684 . S
C318 H343 0.979 . S
C318 H344 0.980 . S
C318 H345 0.983 . S
C319 C320 1.391 . S
C319 C324 1.391 . S
C319 H349 0.948 . S
C320 C319 1.391 . S
C320 C321 1.391 . S
C321 C320 1.391 . S
C321 C322 1.392 . S
C321 H350 0.947 . S
C322 C321 1.392 . S
C322 C323 1.419 . S
C322 H351 0.948 . S
C323 C322 1.419 . S
C323 C324 1.391 . S
C323 C327 1.397 . S
C324 C319 1.391 . S
C324 C323 1.391 . S
C324 C325 1.399 . S
C325 C324 1.399 . S
C325 C326 1.396 . S
C325 C328 1.453 . S
C325 C329 1.684 . S
C326 C307 1.723 . S
C326 C325 1.396 . S
C326 C327 1.394 . S
C327 C323 1.397 . S
C327 C326 1.394 . S
C327 C337 1.723 . S
C328 C325 1.453 . S
C328 H352 0.982 . S
C328 H353 0.979 . S
C328 H354 0.977 . S
C329 C325 1.684 . S
C329 H355 0.979 . S
C329 H356 0.980 . S
C329 H357 0.983 . S
C330 H306 0.948 . S
C330 C331 1.391 . S
C330 C335 1.391 . S
C331 C330 1.391 . S
C331 C332 1.391 . S
C332 H309 0.947 . S
C332 C331 1.391 . S
C332 C333 1.392 . S
C333 H310 0.948 . S
C333 C332 1.392 . S
C333 C334 1.419 . S
C334 C333 1.419 . S
C334 C335 1.391 . S
C334 C338 1.397 . S
C335 C330 1.391 . S
C335 C334 1.391 . S
C335 C336 1.399 . S
C336 C335 1.399 . S
C336 C337 1.396 . S
C336 C339 1.453 . S
C336 C340 1.684 . S
C337 C327 1.723 . S
C337 C336 1.396 . S
C337 C338 1.394 . S
C338 C308 1.723 . S
C338 C334 1.397 . S
C338 C337 1.394 . S
C339 H311 0.982 . S
C339 H315 0.979 . S
C339 H316 0.977 . S
C339 C336 1.453 . S
C340 H312 0.979 . S
C340 H313 0.980 . S
C340 H314 0.983 . S
C340 C336 1.684 . S
H341 C359 0.948 . S
H342 C300 0.948 . S
H343 C318 0.979 . S
H344 C318 0.980 . S
H345 C318 0.983 . S
H346 C317 0.982 . S
H347 C317 0.979 . S
H348 C317 0.977 . S
H349 C319 0.948 . S
H350 C321 0.947 . S
H351 C322 0.948 . S
H352 C328 0.982 . S
H353 C328 0.979 . S
H354 C328 0.977 . S
H355 C329 0.979 . S
H356 C329 0.980 . S
H357 C329 0.983 . S
H358 C302 0.947 . S
C359 C302 1.392 . S
C359 C303 1.419 . S
C359 H341 0.948 . S
C360 C361 1.391 . S
C360 C364 1.391 . S
C360 H402 0.948 . S
C361 C360 1.391 . S
C361 C362 1.391 . S
C362 C361 1.391 . S
C362 H418 0.947 . S
C362 C419 1.392 . S
C363 C364 1.391 . S
C363 C367 1.397 . S
C363 C419 1.419 . S
C364 C360 1.391 . S
C364 C363 1.391 . S
C364 C365 1.399 . S
C365 C364 1.399 . S
C365 C368 1.396 . S
C365 C377 1.453 . S
C365 C378 1.684 . S
H366 C390 0.948 . S
C367 C363 1.397 . S
C367 C368 1.394 . S
C367 C386 1.723 . S
C368 C365 1.396 . S
C368 C367 1.394 . S
C368 C398 1.723 . S
H369 C392 0.947 . S
H370 C393 0.948 . S
H371 C399 0.982 . S
H372 C400 0.979 . S
H373 C400 0.980 . S
H374 C400 0.983 . S
H375 C399 0.979 . S
H376 C399 0.977 . S
C377 C365 1.453 . S
C377 H406 0.982 . S
C377 H407 0.979 . S
C377 H408 0.977 . S
C378 C365 1.684 . S
C378 H403 0.979 . S
C378 H404 0.980 . S
C378 H405 0.983 . S
C379 C380 1.391 . S
C379 C384 1.391 . S
C379 H409 0.948 . S
C380 C379 1.391 . S
C380 C381 1.391 . S
C381 C380 1.391 . S
C381 C382 1.392 . S
C381 H410 0.947 . S
C382 C381 1.392 . S
C382 C383 1.419 . S
C382 H411 0.948 . S
C383 C382 1.419 . S
C383 C384 1.391 . S
C383 C387 1.397 . S
C384 C379 1.391 . S
C384 C383 1.391 . S
C384 C385 1.399 . S
C385 C384 1.399 . S
C385 C386 1.396 . S
C385 C388 1.453 . S
C385 C389 1.684 . S
C386 C367 1.723 . S
C386 C385 1.396 . S
C386 C387 1.394 . S
C387 C383 1.397 . S
C387 C386 1.394 . S
C387 C397 1.723 . S
C388 C385 1.453 . S
C388 H412 0.982 . S
C388 H413 0.979 . S
C388 H414 0.977 . S
C389 C385 1.684 . S
C389 H415 0.979 . S
C389 H416 0.980 . S
C389 H417 0.983 . S
C390 H366 0.948 . S
C390 C391 1.391 . S
C390 C395 1.391 . S
C391 C390 1.391 . S
C391 C392 1.391 . S
C392 H369 0.947 . S
C392 C391 1.391 . S
C392 C393 1.392 . S
C393 H370 0.948 . S
C393 C392 1.392 . S
C393 C394 1.419 . S
C394 C393 1.419 . S
C394 C395 1.391 . S
C394 C398 1.397 . S
C395 C390 1.391 . S
C395 C394 1.391 . S
C395 C396 1.399 . S
C396 C395 1.399 . S
C396 C397 1.396 . S
C396 C399 1.453 . S
C396 C400 1.684 . S
C397 C387 1.723 . S
C397 C396 1.396 . S
C397 C398 1.394 . S
C398 C368 1.723 . S
C398 C394 1.397 . S
C398 C397 1.394 . S
C399 H371 0.982 . S
C399 H375 0.979 . S
C399 H376 0.977 . S
C399 C396 1.453 . S
C400 H372 0.979 . S
C400 H373 0.980 . S
C400 H374 0.983 . S
C400 C396 1.684 . S
H401 C419 0.948 . S
H402 C360 0.948 . S
H403 C378 0.979 . S
H404 C378 0.980 . S
H405 C378 0.983 . S
H406 C377 0.982 . S
H407 C377 0.979 . S
H408 C377 0.977 . S
H409 C379 0.948 . S
H410 C381 0.947 . S
H411 C382 0.948 . S
H412 C388 0.982 . S
H413 C388 0.979 . S
H414 C388 0.977 . S
H415 C389 0.979 . S
H416 C389 0.980 . S
H417 C389 0.983 . S
H418 C362 0.947 . S
C419 C362 1.392 . S
C419 C363 1.419 . S
C419 H401 0.948 . S
C420 C421 1.391 . S
C420 C424 1.391 . S
C420 H462 0.948 . S
C421 C420 1.391 . S
C421 C422 1.391 . S
C422 C421 1.391 . S
C422 H478 0.947 . S
C422 C479 1.392 . S
C423 C424 1.391 . S
C423 C427 1.397 . S
C423 C479 1.419 . S
C424 C420 1.391 . S
C424 C423 1.391 . S
C424 C425 1.399 . S
C425 C424 1.399 . S
C425 C428 1.396 . S
C425 C437 1.453 . S
C425 C438 1.684 . S
H426 C450 0.948 . S
C427 C423 1.397 . S
C427 C428 1.394 . S
C427 C446 1.723 . S
C428 C425 1.396 . S
C428 C427 1.394 . S
C428 C458 1.723 . S
H429 C452 0.947 . S
H430 C453 0.948 . S
H431 C459 0.982 . S
H432 C460 0.979 . S
H433 C460 0.980 . S
H434 C460 0.983 . S
H435 C459 0.979 . S
H436 C459 0.977 . S
C437 C425 1.453 . S
C437 H466 0.982 . S
C437 H467 0.979 . S
C437 H468 0.977 . S
C438 C425 1.684 . S
C438 H463 0.979 . S
C438 H464 0.980 . S
C438 H465 0.983 . S
C439 C440 1.391 . S
C439 C444 1.391 . S
C439 H469 0.948 . S
C440 C439 1.391 . S
C440 C441 1.391 . S
C441 C440 1.391 . S
C441 C442 1.392 . S
C441 H470 0.947 . S
C442 C441 1.392 . S
C442 C443 1.419 . S
C442 H471 0.948 . S
C443 C442 1.419 . S
C443 C444 1.391 . S
C443 C447 1.397 . S
C444 C439 1.391 . S
C444 C443 1.391 . S
C444 C445 1.399 . S
C445 C444 1.399 . S
C445 C446 1.396 . S
C445 C448 1.453 . S
C445 C449 1.684 . S
C446 C427 1.723 . S
C446 C445 1.396 . S
C446 C447 1.394 . S
C447 C443 1.397 . S
C447 C446 1.394 . S
C447 C457 1.723 . S
C448 C445 1.453 . S
C448 H472 0.982 . S
C448 H473 0.979 . S
C448 H474 0.977 . S
C449 C445 1.684 . S
C449 H475 0.979 . S
C449 H476 0.980 . S
C449 H477 0.983 . S
C450 H426 0.948 . S
C450 C451 1.391 . S
C450 C455 1.391 . S
C451 C450 1.391 . S
C451 C452 1.391 . S
C452 H429 0.947 . S
C452 C451 1.391 . S
C452 C453 1.392 . S
C453 H430 0.948 . S
C453 C452 1.392 . S
C453 C454 1.419 . S
C454 C453 1.419 . S
C454 C455 1.391 . S
C454 C458 1.397 . S
C455 C450 1.391 . S
C455 C454 1.391 . S
C455 C456 1.399 . S
C456 C455 1.399 . S
C456 C457 1.396 . S
C456 C459 1.453 . S
C456 C460 1.684 . S
C457 C447 1.723 . S
C457 C456 1.396 . S
C457 C458 1.394 . S
C458 C428 1.723 . S
C458 C454 1.397 . S
C458 C457 1.394 . S
C459 H431 0.982 . S
C459 H435 0.979 . S
C459 H436 0.977 . S
C459 C456 1.453 . S
C460 H432 0.979 . S
C460 H433 0.980 . S
C460 H434 0.983 . S
C460 C456 1.684 . S
H461 C479 0.948 . S
H462 C420 0.948 . S
H463 C438 0.979 . S
H464 C438 0.980 . S
H465 C438 0.983 . S
H466 C437 0.982 . S
H467 C437 0.979 . S
H468 C437 0.977 . S
H469 C439 0.948 . S
H470 C441 0.947 . S
H471 C442 0.948 . S
H472 C448 0.982 . S
H473 C448 0.979 . S
H474 C448 0.977 . S
H475 C449 0.979 . S
H476 C449 0.980 . S
H477 C449 0.983 . S
H478 C422 0.947 . S
C479 C422 1.392 . S
C479 C423 1.419 . S
C479 H461 0.948 . S
Zn480 O486 1.969 1_545 S
Zn480 O487 1.965 1_545 S
Zn480 O491 2.024 . S
Zn480 O496 1.969 . S
Zn481 O488 1.969 . S
Zn481 O494 1.969 1_565 S
Zn481 O495 1.965 1_565 S
Zn481 O497 2.024 . S
C482 O483 1.229 . S
C482 O491 1.058 . S
O483 C482 1.229 . S
C484 O485 1.229 . S
C484 O497 1.058 . S
O485 C484 1.229 . S
O486 Zn480 1.969 1_565 S
O486 C489 1.267 . S
O487 Zn480 1.965 1_565 S
O487 C498 1.260 1_455 S
O488 Zn481 1.969 . S
O488 C498 1.258 . S
C489 O486 1.267 . S
C489 O490 1.228 . S
O490 C489 1.228 . S
O491 Zn480 2.024 . S
O491 C482 1.058 . S
C492 O493 1.228 . S
C492 O494 1.267 . S
O493 C492 1.228 . S
O494 Zn481 1.969 1_545 S
O494 C492 1.267 . S
O495 Zn481 1.965 1_545 S
O495 C499 1.260 1_655 S
O496 Zn480 1.969 . S
O496 C499 1.258 . S
O497 Zn481 2.024 . S
O497 C484 1.058 . S
C498 O487 1.260 1_655 S
C498 O488 1.258 . S
C499 O495 1.260 1_455 S
C499 O496 1.258 . S
Zn500 O506 1.969 . S
Zn500 O507 1.965 1_565 S
Zn500 O511 2.024 . S
Zn500 O516 1.975 . S
Zn501 O508 1.982 . S
Zn501 O514 1.969 . S
Zn501 O515 1.965 1_545 S
Zn501 O517 2.024 . S
C502 O503 1.229 . S
C502 O511 1.058 . S
O503 C502 1.229 . S
C504 O505 1.229 . S
C504 O517 1.058 . S
O505 C504 1.229 . S
O506 Zn500 1.969 . S
O506 C509 1.267 . S
O507 Zn500 1.965 1_545 S
O507 C518 1.260 . S
O508 Zn501 1.982 . S
O508 C518 1.243 1_554 S
C509 O506 1.267 . S
C509 O510 1.228 . S
O510 C509 1.228 . S
O511 Zn500 2.024 . S
O511 C502 1.058 . S
C512 O513 1.228 . S
C512 O514 1.267 . S
O513 C512 1.228 . S
O514 Zn501 1.969 . S
O514 C512 1.267 . S
O515 Zn501 1.965 1_565 S
O515 C519 1.260 . S
O516 Zn500 1.975 . S
O516 C519 1.252 1_556 S
O517 Zn501 2.024 . S
O517 C504 1.058 . S
C518 O507 1.260 . S
C518 O508 1.243 1_556 S
C519 O515 1.260 . S
C519 O516 1.252 1_554 S
Zn520 O526 1.969 . S
Zn520 O527 1.965 . S
Zn520 O531 2.024 . S
Zn520 O536 1.969 . S
Zn521 O528 1.969 . S
Zn521 O534 1.969 . S
Zn521 O535 1.965 . S
Zn521 O537 2.024 . S
C522 O523 1.229 . S
C522 O531 1.058 . S
O523 C522 1.229 . S
C524 O525 1.229 . S
C524 O537 1.058 . S
O525 C524 1.229 . S
O526 Zn520 1.969 . S
O526 C529 1.267 . S
O527 Zn520 1.965 . S
O527 C538 1.260 . S
O528 Zn521 1.969 . S
O528 C538 1.258 . S
C529 O526 1.267 . S
C529 O530 1.228 . S
O530 C529 1.228 . S
O531 Zn520 2.024 . S
O531 C522 1.058 . S
C532 O533 1.228 . S
C532 O534 1.267 . S
O533 C532 1.228 . S
O534 Zn521 1.969 . S
O534 C532 1.267 . S
O535 Zn521 1.965 . S
O535 C539 1.260 . S
O536 Zn520 1.969 . S
O536 C539 1.258 . S
O537 Zn521 2.024 . S
O537 C524 1.058 . S
C538 O527 1.260 . S
C538 O528 1.258 . S
C539 O535 1.260 . S
C539 O536 1.258 . S
Zn540 O546 1.969 . S
Zn540 O547 1.965 1_556 S
Zn540 O551 2.024 . S
Zn540 O556 1.968 . S
Zn541 O548 1.985 . S
Zn541 O554 1.969 . S
Zn541 O555 1.965 1_554 S
Zn541 O557 2.024 . S
C542 O543 1.229 . S
C542 O551 1.058 . S
O543 C542 1.229 . S
C544 O545 1.229 . S
C544 O557 1.058 . S
O545 C544 1.229 . S
O546 Zn540 1.969 . S
O546 C549 1.267 . S
O547 Zn540 1.965 1_554 S
O547 C558 1.260 . S
O548 Zn541 1.985 . S
O548 C558 1.242 1_455 S
C549 O546 1.267 . S
C549 O550 1.228 . S
O550 C549 1.228 . S
O551 Zn540 2.024 . S
O551 C542 1.058 . S
C552 O553 1.228 . S
C552 O554 1.267 . S
O553 C552 1.228 . S
O554 Zn541 1.969 . S
O554 C552 1.267 . S
O555 Zn541 1.965 1_556 S
O555 C559 1.260 . S
O556 Zn540 1.968 . S
O556 C559 1.259 1_655 S
O557 Zn541 2.024 . S
O557 C544 1.058 . S
C558 O547 1.260 . S
C558 O548 1.242 1_655 S
C559 O555 1.260 . S
C559 O556 1.259 1_455 S
C1 C499 1.578 . S
C80 C502 1.239 . S
C538 C140 2.268 . S
C211 C558 2.114 . S
C512 C31 1.645 . S
C489 C61 1.360 . S
C542 C151 1.773 . S
C522 C200 1.819 . S
C20 C552 1.246 . S
C518 C121 2.027 . S
C181 C484 1.846 . S
C91 C532 1.039 . S
C498 C260 1.761 . S
C320 C504 1.239 . S
C361 C539 2.217 . S
C451 C559 2.114 . S
C271 C509 1.659 . S
C492 C301 1.360 . S
C544 C380 1.682 . S
C524 C440 1.818 . S
C241 C549 1.206 . S
C519 C391 1.972 . S
C482 C421 1.846 . S
C331 C529 1.039 . S
