# Generated by pormake.
# Topology anh, (6,3)-cn, num edge types: 1
# Building blocks:
#     Node 0, Type 0, BuildingBlock: PAMTOO_clean_sbu_0, # of connection points: 6
#     Node 1, Type 0, BuildingBlock: PAMTOO_clean_sbu_0, # of connection points: 6
#     Node 2, Type 0, BuildingBlock: PAMTOO_clean_sbu_0, # of connection points: 6
#     Node 3, Type 1, BuildingBlock: KAKCAD_clean_linker_0, # of connection points: 3
#     Node 4, Type 1, BuildingBlock: KAKCAD_clean_linker_0, # of connection points: 3
#     Node 5, Type 1, BuildingBlock: KAKCAD_clean_linker_0, # of connection points: 3
#     Node 6, Type 1, BuildingBlock: KAKCAD_clean_linker_0, # of connection points: 3
#     Node 7, Type 1, BuildingBlock: KAKCAD_clean_linker_0, # of connection points: 3
#     Node 8, Type 1, BuildingBlock: KAKCAD_clean_linker_0, # of connection points: 3
#     Edge 9, Type (0, 1), BuildingBlock: ZUJKAS_clean_linker_0, # of connection points: 2
#     Edge 10, Type (0, 1), BuildingBlock: ZUJKAS_clean_linker_0, # of connection points: 2
#     Edge 11, Type (0, 1), BuildingBlock: ZUJKAS_clean_linker_0, # of connection points: 2
#     Edge 12, Type (0, 1), BuildingBlock: ZUJKAS_clean_linker_0, # of connection points: 2
#     Edge 13, Type (0, 1), BuildingBlock: ZUJKAS_clean_linker_0, # of connection points: 2
#     Edge 14, Type (0, 1), BuildingBlock: ZUJKAS_clean_linker_0, # of connection points: 2
#     Edge 15, Type (0, 1), BuildingBlock: ZUJKAS_clean_linker_0, # of connection points: 2
#     Edge 16, Type (0, 1), BuildingBlock: ZUJKAS_clean_linker_0, # of connection points: 2
#     Edge 17, Type (0, 1), BuildingBlock: ZUJKAS_clean_linker_0, # of connection points: 2
#     Edge 18, Type (0, 1), BuildingBlock: ZUJKAS_clean_linker_0, # of connection points: 2
#     Edge 19, Type (0, 1), BuildingBlock: ZUJKAS_clean_linker_0, # of connection points: 2
#     Edge 20, Type (0, 1), BuildingBlock: ZUJKAS_clean_linker_0, # of connection points: 2
#     Edge 21, Type (0, 1), BuildingBlock: ZUJKAS_clean_linker_0, # of connection points: 2
#     Edge 22, Type (0, 1), BuildingBlock: ZUJKAS_clean_linker_0, # of connection points: 2
#     Edge 23, Type (0, 1), BuildingBlock: ZUJKAS_clean_linker_0, # of connection points: 2
#     Edge 24, Type (0, 1), BuildingBlock: ZUJKAS_clean_linker_0, # of connection points: 2
#     Edge 25, Type (0, 1), BuildingBlock: ZUJKAS_clean_linker_0, # of connection points: 2
#     Edge 26, Type (0, 1), BuildingBlock: ZUJKAS_clean_linker_0, # of connection points: 2
# Relax obj value: 0.160
# Max RMSD: 0.187
# Mean RMSD: 0.150
data_MOF--net-anh--node1-PAMTOO_clean_sbu_0--node2-KAKCAD_clean_linker_0--edge1-ZUJKAS_clean_linker_0
_symmetry_space_group_name_H-M    P1
_symmetry_Int_Tables_number       1
_symmetry_cell_setting            triclinic
loop_
_symmetry_equiv_pos_as_xyz
'x, y, z'
_cell_length_a     45.777064
_cell_length_b     44.276502
_cell_length_c     82.6994
_cell_angle_alpha  90.67139
_cell_angle_beta   94.589216
_cell_angle_gamma 108.67903
loop_
_atom_site_label
_atom_site_type_symbol
_atom_site_fract_x
_atom_site_fract_y
_atom_site_fract_z
_atom_type_partial_charge
Dy0 Dy 0.0543 0.58655 0.14624 0.0
Dy1 Dy 1.02803 0.50847 0.14133 0.0
C2 C 0.04206 0.55291 0.11149 0.0
O3 O 1.00322 0.57402 0.14933 0.0
O4 O 0.98557 0.52372 0.13719 0.0
O5 O 0.0757 0.63239 0.13635 0.0
O6 O 0.06215 0.62968 0.16093 0.0
O7 O 1.02163 0.52133 0.16664 0.0
O8 O 0.06384 0.56595 0.16978 0.0
O9 O 0.07983 0.51946 0.14609 0.0
O10 O 0.09697 0.57353 0.14217 0.0
O11 O 1.02514 0.46204 0.15019 0.0
O12 O 1.0004 0.46607 0.12726 0.0
C13 C 0.98028 0.54903 0.14319 0.0
O14 O 1.03575 0.57433 0.12039 0.0
O15 O 0.04637 0.52772 0.11807 0.0
C16 C 0.10698 0.67138 0.15541 0.0
C17 C 0.16537 0.71709 0.16419 0.0
C18 C 0.16239 0.68459 0.16217 0.0
C19 C 0.13342 0.66192 0.15785 0.0
C20 C 0.10971 0.70361 0.15761 0.0
C21 C 0.13864 0.72628 0.162 0.0
C22 C 0.07675 0.64808 0.14994 0.0
C23 C 0.04313 0.54236 0.17604 0.0
C24 C 0.10244 0.54626 0.14422 0.0
C25 C 0.97657 0.42327 0.14341 0.0
C26 C 0.92266 0.37742 0.15294 0.0
C27 C 0.93132 0.40936 0.15877 0.0
C28 C 0.95799 0.43209 0.15402 0.0
C29 C 0.96805 0.39161 0.1375 0.0
C30 C 0.94134 0.36887 0.1422 0.0
C31 C 1.00472 0.44697 0.13843 0.0
H32 H 0.18244 0.67667 0.16397 0.0
H33 H 0.13169 0.63707 0.15625 0.0
H34 H 0.08953 0.7113 0.15571 0.0
H35 H 0.14017 0.75113 0.16328 0.0
H36 H 0.91775 0.41674 0.1672 0.0
H37 H 0.96423 0.45651 0.15868 0.0
H38 H 0.98205 0.38447 0.12922 0.0
H39 H 0.93515 0.34465 0.13727 0.0
Dy40 Dy 0.54263 0.02596 0.5165 0.0
Dy41 Dy 0.61906 0.05095 0.52086 0.0
C42 C 0.57973 0.03816 0.55104 0.0
O43 O 0.55587 0.0782 0.51241 0.0
O44 O 0.60557 0.09457 0.52473 0.0
O45 O 0.49934 0.00599 0.52701 0.0
O46 O 0.49943 0.01846 0.50174 0.0
O47 O 0.60411 0.05984 0.49554 0.0
O48 O 0.55963 0.01746 0.49286 0.0
O49 O 0.60588 0.99832 0.51582 0.0
O50 O 0.55514 0.9822 0.52199 0.0
O51 O 0.6627 0.05344 0.51186 0.0
O52 O 0.66182 0.07671 0.53494 0.0
C53 C 0.58084 0.1008 0.51855 0.0
O54 O 0.55809 0.04505 0.54194 0.0
O55 O 0.60252 0.03209 0.54451 0.0
C56 C 0.45876 0.97363 0.50879 0.0
C57 C 0.41152 0.91527 0.50076 0.0
C58 C 0.43897 0.91584 0.50988 0.0
C59 C 0.46248 0.94475 0.51378 0.0
C60 C 0.43152 0.97312 0.4996 0.0
C61 C 0.40813 0.94419 0.49556 0.0
C62 C 0.48277 0.00441 0.51325 0.0
C63 C 0.58207 0.03887 0.48635 0.0
C64 C 0.58038 0.97587 0.51899 0.0
C65 C 0.70195 0.10204 0.51887 0.0
C66 C 0.74645 0.15824 0.50981 0.0
C67 C 0.71501 0.15119 0.50428 0.0
C68 C 0.69294 0.12336 0.5088 0.0
C69 C 0.73314 0.10892 0.52447 0.0
C70 C 0.75524 0.13679 0.51999 0.0
C71 C 0.67889 0.07284 0.5237 0.0
H72 H 0.44237 0.89389 0.51386 0.0
H73 H 0.48345 0.94454 0.52077 0.0
H74 H 0.42825 0.99515 0.49563 0.0
H75 H 0.38713 0.94448 0.48862 0.0
H76 H 0.70748 0.16695 0.49626 0.0
H77 H 0.66886 0.11838 0.5044 0.0
H78 H 0.7404 0.09277 0.53235 0.0
H79 H 0.77915 0.1417 0.52466 0.0
Dy80 Dy 0.55263 0.50603 0.84582 0.0
Dy81 Dy 0.47718 0.48229 0.83974 0.0
C82 C 0.51988 0.49621 0.81083 0.0
O83 O 0.54073 0.55018 0.84008 0.0
O84 O 0.49103 0.53394 0.84728 0.0
O85 O 0.59681 0.53593 0.83913 0.0
O86 O 0.59455 0.50486 0.8594 0.0
O87 O 0.48824 0.47212 0.86551 0.0
O88 O 0.53442 0.51255 0.86932 0.0
O89 O 0.48836 0.43713 0.83655 0.0
O90 O 0.53891 0.45314 0.84774 0.0
O91 O 0.43195 0.47872 0.84697 0.0
O92 O 0.43657 0.46078 0.82315 0.0
C93 C 0.5159 0.5566 0.8437 0.0
O94 O 0.54026 0.488 0.82017 0.0
O95 O 0.49751 0.50343 0.81715 0.0
C96 C 0.63393 0.51009 0.84217 0.0
C97 C 0.6761 0.48663 0.8276 0.0
C98 C 0.64473 0.47622 0.82173 0.0
C99 C 0.62374 0.48775 0.82904 0.0
C100 C 0.66507 0.52027 0.84817 0.0
C101 C 0.68603 0.50861 0.84096 0.0
C102 C 0.61217 0.52316 0.84936 0.0
C103 C 0.51061 0.49176 0.87519 0.0
C104 C 0.5135 0.43076 0.84191 0.0
C105 C 0.40302 0.49067 0.82469 0.0
C106 C 0.3756 0.53224 0.80891 0.0
C107 C 0.40386 0.54436 0.8185 0.0
C108 C 0.41745 0.52381 0.82619 0.0
C109 C 0.37505 0.47825 0.81497 0.0
C110 C 0.36138 0.4989 0.80713 0.0
C111 C 0.41869 0.46961 0.83236 0.0
H112 H 0.63649 0.45924 0.81152 0.0
H113 H 0.59961 0.47953 0.82433 0.0
H114 H 0.67323 0.53753 0.85828 0.0
H115 H 0.71019 0.51745 0.84556 0.0
H116 H 0.4152 0.56981 0.82047 0.0
H117 H 0.43927 0.53393 0.83341 0.0
H118 H 0.3639 0.45269 0.81341 0.0
H119 H 0.33971 0.48879 0.79971 0.0
C120 C 0.58312 0.07866 0.30435 0.0
C121 C 0.57776 0.04975 0.31233 0.0
C122 C 0.58084 0.07894 0.28739 0.0
C123 C 0.57316 0.05031 0.27804 0.0
C124 C 0.56841 0.0215 0.28603 0.0
C125 C 0.57066 0.02122 0.30296 0.0
C126 C 0.56934 0.05026 0.26001 0.0
C127 C 0.59019 0.07346 0.2514 0.0
C128 C 0.58668 0.0733 0.23434 0.0
C129 C 0.56178 0.04953 0.22587 0.0
C130 C 0.54073 0.02611 0.23433 0.0
C131 C 0.54468 0.02681 0.25136 0.0
C132 C 0.51424 0.00087 0.22566 0.0
C133 C 0.49496 0.00848 0.2134 0.0
C134 C 0.50691 0.96913 0.23041 0.0
C135 C 0.48025 0.94576 0.22357 0.0
C136 C 0.46013 0.95354 0.21184 0.0
C137 C 0.60965 0.09758 0.2255 0.0
C138 C 0.62048 0.12968 0.2311 0.0
C139 C 0.62204 0.08864 0.21191 0.0
C140 C 0.64541 0.11112 0.20441 0.0
C141 C 0.65675 0.14308 0.21026 0.0
C142 C 0.6437 0.15216 0.22356 0.0
C143 C 0.46813 0.98505 0.20657 0.0
H144 H 0.5883 0.10102 0.31121 0.0
H145 H 0.58432 0.10149 0.28159 0.0
H146 H 0.56304 0.99909 0.27918 0.0
H147 H 0.56699 0.99862 0.30872 0.0
H148 H 0.60976 0.09114 0.25799 0.0
H149 H 0.52799 0.00937 0.25794 0.0
H150 H 0.55884 0.04916 0.21273 0.0
H151 H 0.49993 0.03279 0.20958 0.0
H152 H 0.52165 0.96243 0.23962 0.0
H153 H 0.47521 0.92159 0.22762 0.0
H154 H 0.61118 0.13738 0.24144 0.0
H155 H 0.61433 0.06406 0.20738 0.0
H156 H 0.45305 0.99189 0.19763 0.0
H157 H 0.65206 0.1765 0.22846 0.0
H158 H 0.65475 0.10343 0.19408 0.0
C159 C 0.53875 0.54034 0.62996 0.0
C160 C 0.55723 0.52717 0.64015 0.0
C161 C 0.54232 0.54254 0.61334 0.0
C162 C 0.56458 0.53182 0.60652 0.0
C163 C 0.58324 0.51894 0.61674 0.0
C164 C 0.57954 0.51654 0.63333 0.0
C165 C 0.5681 0.53372 0.58879 0.0
C166 C 0.56586 0.56028 0.58034 0.0
C167 C 0.56892 0.56215 0.56356 0.0
C168 C 0.57451 0.53698 0.55515 0.0
C169 C 0.577 0.51028 0.5635 0.0
C170 C 0.57365 0.50886 0.58023 0.0
C171 C 0.58243 0.4831 0.55508 0.0
C172 C 0.56219 0.46638 0.54191 0.0
C173 C 0.60582 0.47138 0.56152 0.0
C174 C 0.60785 0.44256 0.55559 0.0
C175 C 0.5863 0.42454 0.54318 0.0
C176 C 0.56696 0.59107 0.55525 0.0
C177 C 0.54322 0.60353 0.55828 0.0
C178 C 0.59019 0.60807 0.54558 0.0
C179 C 0.59064 0.6379 0.53988 0.0
C180 C 0.56777 0.65117 0.54369 0.0
C181 C 0.54356 0.63314 0.55254 0.0
C182 C 0.56404 0.43727 0.53603 0.0
H183 H 0.52161 0.54915 0.63482 0.0
H184 H 0.52732 0.55228 0.60581 0.0
H185 H 0.60089 0.51082 0.61195 0.0
H186 H 0.59393 0.50592 0.64075 0.0
H187 H 0.5625 0.58006 0.58692 0.0
H188 H 0.57461 0.48781 0.58652 0.0
H189 H 0.57694 0.53816 0.54222 0.0
H190 H 0.54383 0.47485 0.53682 0.0
H191 H 0.62192 0.48404 0.57157 0.0
H192 H 0.62578 0.43391 0.56109 0.0
H193 H 0.52474 0.59069 0.56549 0.0
H194 H 0.60887 0.59909 0.54314 0.0
H195 H 0.54701 0.42398 0.5265 0.0
H196 H 0.52515 0.64225 0.55535 0.0
H197 H 0.60969 0.65119 0.53315 0.0
C198 C 0.10254 0.64074 0.93699 0.0
C199 C 0.08792 0.61081 0.94331 0.0
C200 C 0.10005 0.64508 0.92024 0.0
C201 C 0.0826 0.61966 0.90957 0.0
C202 C 0.06897 0.58952 0.91584 0.0
C203 C 0.07161 0.58514 0.9325 0.0
C204 C 0.07684 0.62472 0.89207 0.0
C205 C 0.10134 0.63988 0.88266 0.0
C206 C 0.0956 0.64306 0.86585 0.0
C207 C 0.06479 0.63255 0.85892 0.0
C208 C 0.04061 0.61548 0.86788 0.0
C209 C 0.04664 0.61227 0.8845 0.0
C210 C 1.01061 0.59671 0.85919 0.0
C211 C 0.99653 0.61006 0.84677 0.0
C212 C 0.99805 0.564 0.86191 0.0
C213 C 0.97245 0.54483 0.85212 0.0
C214 C 0.95876 0.55798 0.83944 0.0
C215 C 0.12135 0.65248 0.85499 0.0
C216 C 0.15085 0.67382 0.86028 0.0
C217 C 0.11697 0.63793 0.83934 0.0
C218 C 0.14121 0.64375 0.82951 0.0
C219 C 0.17107 0.6632 0.83519 0.0
C220 C 0.17555 0.679 0.85049 0.0
C221 C 0.9708 0.59089 0.83701 0.0
H222 H 0.11554 0.6609 0.94501 0.0
H223 H 0.11078 0.66855 0.91571 0.0
H224 H 0.05572 0.56938 0.90786 0.0
H225 H 0.05984 0.56186 0.93695 0.0
H226 H 0.12485 0.64721 0.88829 0.0
H227 H 1.02777 0.59948 0.8915 0.0
H228 H 0.05975 0.63529 0.84611 0.0
H229 H 1.00573 0.63523 0.84446 0.0
H230 H 1.00885 0.55291 0.87115 0.0
H231 H 0.9639 0.51953 0.85422 0.0
H232 H 0.15511 0.68586 0.87212 0.0
H233 H 0.09517 0.62061 0.83477 0.0
H234 H 0.96032 0.60187 0.82758 0.0
H235 H 0.19835 0.69413 0.85522 0.0
H236 H 0.13677 0.6317 0.81765 0.0
C237 C 1.02234 0.51896 0.35839 0.0
C238 C 0.04914 0.5259 0.35001 0.0
C239 C 1.0245 0.51992 0.37537 0.0
C240 C 0.05351 0.5277 0.38436 0.0
C241 C 0.08023 0.53418 0.37596 0.0
C242 C 0.0781 0.53346 0.35903 0.0
C243 C 0.0561 0.52938 0.40243 0.0
C244 C 1.03467 0.50698 0.41113 0.0
C245 C 1.03752 0.50817 0.42821 0.0
C246 C 0.0624 0.53201 0.43661 0.0
C247 C 0.08409 0.55458 0.42809 0.0
C248 C 0.08046 0.55328 0.41104 0.0
C249 C 0.11075 0.57966 0.43676 0.0
C250 C 0.10694 0.59662 0.45048 0.0
C251 C 0.1401 0.58775 0.43082 0.0
C252 C 0.16471 0.61307 0.43796 0.0
C253 C 0.16066 0.63084 0.45127 0.0
C254 C 1.01485 0.48387 0.43713 0.0
C255 C 0.98305 0.47483 0.43216 0.0
C256 C 1.02486 0.46867 0.45025 0.0
C257 C 1.00359 0.44432 0.45793 0.0
C258 C 0.97186 0.4348 0.4527 0.0
C259 C 0.96179 0.45061 0.43987 0.0
C260 C 0.13171 0.62197 0.45769 0.0
H261 H 0.99963 0.51266 0.35185 0.0
H262 H 1.00347 0.51504 0.38144 0.0
H263 H 0.10292 0.53976 0.38248 0.0
H264 H 0.09927 0.53935 0.35303 0.0
H265 H 1.01624 0.48794 0.40462 0.0
H266 H 0.09647 0.57134 0.40443 0.0
H267 H 0.06494 0.53288 0.44977 0.0
H268 H 0.08457 0.59108 0.45528 0.0
H269 H 0.14401 0.57466 0.42051 0.0
H270 H 0.18694 0.61894 0.43296 0.0
H271 H 0.97461 0.48634 0.42219 0.0
H272 H 0.04923 0.47496 0.45429 0.0
H273 H 0.1279 0.63535 0.46791 0.0
H274 H 0.93755 0.44366 0.43546 0.0
H275 H 1.01202 0.4328 0.46789 0.0
C276 C 0.52674 0.98608 0.72788 0.0
C277 C 0.55138 0.011 0.72258 0.0
C278 C 0.52257 0.98295 0.7444 0.0
C279 C 0.54283 0.00482 0.75597 0.0
C280 C 0.56757 0.02966 0.75069 0.0
C281 C 0.57189 0.03263 0.73417 0.0
C282 C 0.53778 0.00204 0.77347 0.0
C283 C 0.53076 0.97232 0.78064 0.0
C284 C 0.52522 0.96926 0.79712 0.0
C285 C 0.52669 0.9966 0.8065 0.0
C286 C 0.53373 0.02664 0.79943 0.0
C287 C 0.53934 0.02902 0.78295 0.0
C288 C 0.53404 0.05573 0.80871 0.0
C289 C 0.50898 0.05571 0.81748 0.0
C290 C 0.5579 0.08467 0.8073 0.0
C291 C 0.55602 0.11321 0.81376 0.0
C292 C 0.53017 0.11358 0.82177 0.0
C293 C 0.51841 0.93728 0.80423 0.0
C294 C 0.4977 0.91032 0.79564 0.0
C295 C 0.53444 0.93296 0.81877 0.0
C296 C 0.53108 0.90216 0.82411 0.0
C297 C 0.51154 0.87511 0.81503 0.0
C298 C 0.49427 0.87967 0.80098 0.0
C299 C 0.507 0.08438 0.82389 0.0
H300 H 0.51074 0.96888 0.71923 0.0
H301 H 0.50316 0.96371 0.7481 0.0
H302 H 0.58367 0.04673 0.75935 0.0
H303 H 0.59096 0.0522 0.73043 0.0
H304 H 0.53027 0.95155 0.77341 0.0
H305 H 0.54387 0.05187 0.77732 0.0
H306 H 0.52225 0.9945 0.81918 0.0
H307 H 0.49018 0.03379 0.81869 0.0
H308 H 0.57759 0.08538 0.80069 0.0
H309 H 0.57417 0.1352 0.81178 0.0
H310 H 0.4846 0.91292 0.78454 0.0
H311 H 0.5507 0.95328 0.82559 0.0
H312 H 0.48697 0.08378 0.83017 0.0
H313 H 0.47843 0.85946 0.7939 0.0
H314 H 0.54483 0.89953 0.83495 0.0
C315 C 0.5349 0.50001 0.05864 0.0
C316 C 0.51977 0.51695 0.04867 0.0
C317 C 0.53869 0.50539 0.07549 0.0
C318 C 0.52744 0.52782 0.08276 0.0
C319 C 0.51231 0.54475 0.07278 0.0
C320 C 0.50849 0.53935 0.05595 0.0
C321 C 0.53144 0.53362 0.10067 0.0
C322 C 0.5595 0.53563 0.10948 0.0
C323 C 0.56388 0.54156 0.12635 0.0
C324 C 0.53909 0.54542 0.13464 0.0
C325 C 0.51051 0.54366 0.12579 0.0
C326 C 0.50727 0.53759 0.10893 0.0
C327 C 0.48326 0.54848 0.13317 0.0
C328 C 0.465 0.52564 0.14307 0.0
C329 C 0.47151 0.57238 0.12726 0.0
C330 C 0.44196 0.57275 0.13051 0.0
C331 C 0.42282 0.5491 0.13977 0.0
C332 C 0.59521 0.54412 0.13435 0.0
C333 C 0.60274 0.51629 0.13771 0.0
C334 C 0.61965 0.57313 0.13442 0.0
C335 C 0.65075 0.57415 0.13724 0.0
C336 C 0.65851 0.54608 0.13991 0.0
C337 C 0.63381 0.51726 0.14055 0.0
C338 C 0.43523 0.52595 0.14633 0.0
H339 H 0.54419 0.48285 0.05342 0.0
H340 H 0.5502 0.49174 0.08284 0.0
H341 H 0.50368 0.56247 0.07796 0.0
H342 H 0.49644 0.55256 0.04865 0.0
H343 H 0.57849 0.5332 0.10311 0.0
H344 H 0.48538 0.53556 0.10216 0.0
H345 H 0.54215 0.55025 0.14764 0.0
H346 H 0.47298 0.5065 0.14754 0.0
H347 H 0.48463 0.58996 0.11931 0.0
H348 H 0.43357 0.59078 0.12497 0.0
H349 H 0.58458 0.49341 0.13727 0.0
H350 H 0.61476 0.59482 0.13129 0.0
H351 H 0.42168 0.50753 0.15372 0.0
H352 H 0.63842 0.49512 0.14283 0.0
H353 H 0.66874 0.59682 0.1364 0.0
H354 H 0.12411 0.49467 0.14614 0.0
H355 H 0.17767 0.49449 0.14627 0.0
H356 H 0.2092 0.59661 0.14243 0.0
H357 H 0.15592 0.59706 0.1424 0.0
H358 H 0.22062 0.51405 0.12342 0.0
H359 H 0.26634 0.58605 0.18058 0.0
H360 H 0.22539 0.56885 0.17476 0.0
H361 H 0.24764 0.60505 0.16596 0.0
C362 C 0.14239 0.51718 0.1454 0.0
C363 C 0.13532 0.5459 0.14436 0.0
C364 C 0.17317 0.51702 0.14545 0.0
C365 C 0.19794 0.54558 0.14463 0.0
C366 C 0.19089 0.57424 0.14345 0.0
H367 H 0.39933 0.59924 0.1426 0.0
H368 H 0.34555 0.59721 0.14353 0.0
C369 C 0.16016 0.57442 0.14333 0.0
C370 C 0.2309 0.54537 0.14467 0.0
H371 H 0.30344 0.57611 0.16464 0.0
C372 C 0.23864 0.52747 0.13252 0.0
C373 C 0.25479 0.56291 0.15645 0.0
C374 C 0.24817 0.58158 0.17027 0.0
C375 C 0.26934 0.5273 0.13156 0.0
C376 C 0.29329 0.54486 0.14334 0.0
C377 C 0.28544 0.5626 0.15555 0.0
C378 C 0.32657 0.54571 0.14306 0.0
C379 C 0.27591 0.50913 0.11751 0.0
C380 C 0.33463 0.51754 0.14284 0.0
C381 C 0.36563 0.5186 0.14211 0.0
C382 C 0.38978 0.54791 0.14174 0.0
C383 C 0.38169 0.57609 0.14251 0.0
C384 C 0.35071 0.57499 0.14317 0.0
H385 H 0.25782 0.50522 0.1072 0.0
H386 H 0.29874 0.52192 0.1131 0.0
H387 H 0.27614 0.48538 0.12152 0.0
H388 H 0.3169 0.49455 0.1432 0.0
H389 H 0.37046 0.49626 0.14145 0.0
H390 H 0.8047 0.16496 0.50124 0.0
H391 H 0.84336 0.21329 0.49304 0.0
H392 H 0.77985 0.26601 0.49812 0.0
H393 H 0.74147 0.2181 0.50698 0.0
H394 H 0.83854 0.24916 0.46664 0.0
H395 H 0.85826 0.32288 0.52372 0.0
H396 H 0.83844 0.2804 0.52275 0.0
H397 H 0.81842 0.30738 0.51579 0.0
C398 C 0.79911 0.18695 0.5009 0.0
C399 C 0.77002 0.18767 0.50486 0.0
C400 C 0.82117 0.2145 0.49609 0.0
C401 C 0.81465 0.24334 0.4952 0.0
C402 C 0.7856 0.24416 0.49904 0.0
H403 H 0.91398 0.4302 0.46121 0.0
H404 H 0.87586 0.38379 0.47169 0.0
C405 C 0.76354 0.21663 0.5039 0.0
C406 C 0.83786 0.27219 0.48962 0.0
H407 H 0.88122 0.34905 0.50074 0.0
C408 C 0.84799 0.27095 0.47412 0.0
C409 C 0.85006 0.30062 0.4994 0.0
C410 C 0.84099 0.30294 0.5164 0.0
C411 C 0.86974 0.29748 0.46806 0.0
C412 C 0.88197 0.32584 0.47784 0.0
C413 C 0.87176 0.32721 0.4933 0.0
C414 C 0.9055 0.35428 0.4722 0.0
C415 C 0.87909 0.29515 0.45112 0.0
C416 C 0.93495 0.35319 0.46935 0.0
C417 C 0.95671 0.37957 0.46334 0.0
C418 C 0.94942 0.40757 0.4601 0.0
C419 C 0.92014 0.40884 0.46338 0.0
C420 C 0.89842 0.38245 0.46944 0.0
H421 H 0.86251 0.27457 0.4439 0.0
H422 H 0.88069 0.31733 0.44459 0.0
H423 H 0.90222 0.29195 0.45185 0.0
H424 H 0.94096 0.33177 0.47161 0.0
H425 H 0.97895 0.37773 0.46082 0.0
H426 H 0.55992 0.60891 0.83323 0.0
H427 H 0.55761 0.66303 0.83078 0.0
H428 H 0.46859 0.63424 0.85025 0.0
H429 H 0.47047 0.5799 0.85255 0.0
H430 H 0.46825 0.66809 0.82338 0.0
H431 H 0.57026 0.73239 0.86538 0.0
H432 H 0.57955 0.7089 0.85 0.0
H433 H 0.55338 0.68949 0.86466 0.0
C434 C 0.53997 0.6141 0.83717 0.0
C435 C 0.5154 0.58996 0.84311 0.0
C436 C 0.53878 0.64518 0.83584 0.0
C437 C 0.51317 0.65291 0.84059 0.0
C438 C 0.48868 0.62891 0.8466 0.0
H439 H 0.5105 0.85051 0.84551 0.0
H440 H 0.50895 0.79638 0.85261 0.0
C441 C 0.4898 0.59781 0.8479 0.0
C442 C 0.51124 0.68557 0.83849 0.0
H443 H 0.55029 0.76452 0.84738 0.0
C444 C 0.48606 0.68914 0.82876 0.0
C445 C 0.53416 0.71308 0.84572 0.0
C446 C 0.56069 0.71082 0.85716 0.0
C447 C 0.48377 0.71945 0.82558 0.0
C448 C 0.50763 0.74701 0.83203 0.0
C449 C 0.5322 0.74343 0.84227 0.0
C450 C 0.5081 0.77972 0.82781 0.0
C451 C 0.45571 0.7216 0.81537 0.0
C452 C 0.50868 0.78852 0.81157 0.0
C453 C 0.50964 0.81933 0.8075 0.0
C454 C 0.51025 0.84224 0.81959 0.0
C455 C 0.51015 0.83353 0.8359 0.0
C456 C 0.50914 0.80257 0.83997 0.0
H457 H 0.43573 0.69934 0.81565 0.0
H458 H 0.44873 0.74199 0.81956 0.0
H459 H 0.46127 0.72515 0.80257 0.0
H460 H 0.50882 0.77163 0.80202 0.0
H461 H 0.5105 0.82538 0.79486 0.0
H462 H 0.95866 0.59622 0.15458 0.0
H463 H 0.90494 0.59569 0.15469 0.0
H464 H 0.87308 0.50198 0.13132 0.0
H465 H 0.92653 0.50206 0.13145 0.0
H466 H 0.86006 0.59203 0.1307 0.0
H467 H 0.81866 0.48649 0.16811 0.0
H468 H 0.85922 0.5059 0.16592 0.0
H469 H 0.83527 0.47816 0.15035 0.0
C470 C 0.94028 0.57538 0.14951 0.0
C471 C 0.94732 0.54912 0.14309 0.0
C472 C 0.90939 0.57513 0.14956 0.0
C473 C 0.88446 0.54854 0.1433 0.0
C474 C 0.89149 0.52252 0.13665 0.0
H475 H 0.68247 0.5004 0.1288 0.0
H476 H 0.73639 0.50181 0.12995 0.0
C477 C 0.92233 0.52272 0.13661 0.0
C478 C 0.85135 0.54833 0.14341 0.0
H479 H 0.77998 0.50547 0.15514 0.0
C480 C 0.84267 0.57317 0.13616 0.0
C481 C 0.82823 0.52382 0.15049 0.0
C482 C 0.83581 0.49725 0.1593 0.0
C483 C 0.81185 0.57378 0.13543 0.0
C484 C 0.7887 0.54915 0.14241 0.0
C485 C 0.7974 0.52439 0.14972 0.0
C486 C 0.75537 0.54837 0.14208 0.0
C487 C 0.80421 0.60039 0.1267 0.0
C488 C 0.74736 0.57375 0.14878 0.0
C489 C 0.71624 0.57293 0.14825 0.0
C490 C 0.69194 0.54659 0.1411 0.0
C491 C 0.70008 0.52098 0.13465 0.0
C492 C 0.73118 0.52182 0.1352 0.0
H493 H 0.82186 0.612 0.11828 0.0
H494 H 0.78121 0.59148 0.11967 0.0
H495 H 0.80363 0.61885 0.13575 0.0
H496 H 0.7652 0.59422 0.15458 0.0
H497 H 0.71125 0.59294 0.15363 0.0
H498 H 0.38771 0.86684 0.52103 0.0
H499 H 0.34568 0.81651 0.51437 0.0
H500 H 0.33656 0.84448 0.46496 0.0
H501 H 0.37855 0.89475 0.47147 0.0
H502 H 0.28125 0.8115 0.49874 0.0
H503 H 0.34801 0.75235 0.46374 0.0
H504 H 0.36638 0.78425 0.47871 0.0
H505 H 0.35199 0.79303 0.45911 0.0
C506 C 0.37689 0.86212 0.50872 0.0
C507 C 0.38641 0.88466 0.49675 0.0
C508 C 0.35285 0.8335 0.50498 0.0
C509 C 0.33828 0.82684 0.48918 0.0
C510 C 0.34773 0.84921 0.4772 0.0
H511 H 0.19796 0.67772 0.43421 0.0
H512 H 0.24066 0.72447 0.44474 0.0
C513 C 0.37155 0.87793 0.48096 0.0
C514 C 0.3128 0.79671 0.48515 0.0
H515 H 0.29383 0.72701 0.46268 0.0
C516 C 0.28394 0.79281 0.49099 0.0
C517 C 0.31659 0.77258 0.47504 0.0
C518 C 0.34744 0.77546 0.46883 0.0
C519 C 0.25827 0.76578 0.48642 0.0
C520 C 0.26191 0.74178 0.47606 0.0
C521 C 0.29107 0.74543 0.47059 0.0
C522 C 0.23551 0.7135 0.47 0.0
C523 C 0.22726 0.76381 0.49217 0.0
C524 C 0.21845 0.6917 0.48071 0.0
C525 C 0.19385 0.66494 0.47469 0.0
C526 C 0.18628 0.65934 0.45787 0.0
C527 C 0.20351 0.68118 0.44722 0.0
C528 C 0.22785 0.70795 0.45322 0.0
H529 H 0.22683 0.78743 0.49662 0.0
H530 H 0.20844 0.75449 0.48228 0.0
H531 H 0.22238 0.7473 0.50233 0.0
H532 H 0.22439 0.69514 0.49369 0.0
H533 H 0.18116 0.64833 0.48317 0.0
H534 H 0.56206 0.40861 0.84985 0.0
H535 H 0.56263 0.35373 0.84774 0.0
H536 H 0.46591 0.32183 0.8304 0.0
H537 H 0.46514 0.37675 0.83223 0.0
H538 H 0.52842 0.2991 0.86257 0.0
H539 H 0.50492 0.28548 0.7955 0.0
H540 H 0.51608 0.32376 0.80622 0.0
H541 H 0.47686 0.29737 0.80563 0.0
C542 C 0.54084 0.38998 0.84559 0.0
C543 C 0.51357 0.39722 0.84112 0.0
C544 C 0.54124 0.35858 0.84441 0.0
C545 C 0.51446 0.33373 0.83868 0.0
C546 C 0.48703 0.34071 0.83453 0.0
H547 H 0.47776 0.13087 0.81833 0.0
H548 H 0.47292 0.18336 0.8239 0.0
C549 C 0.4866 0.37214 0.83566 0.0
C550 C 0.51533 0.30056 0.83707 0.0
H551 H 0.5054 0.23929 0.80947 0.0
C552 C 0.52342 0.28601 0.85096 0.0
C553 C 0.50884 0.28352 0.82191 0.0
C554 C 0.50146 0.29836 0.80642 0.0
C555 C 0.52483 0.25477 0.85013 0.0
C556 C 0.5184 0.23779 0.83497 0.0
C557 C 0.51016 0.25228 0.8211 0.0
C558 C 0.52083 0.20528 0.83305 0.0
C559 C 0.53273 0.24004 0.86553 0.0
C560 C 0.54932 0.20005 0.83648 0.0
C561 C 0.55213 0.16999 0.83339 0.0
C562 C 0.52652 0.14456 0.82674 0.0
C563 C 0.49783 0.14973 0.82369 0.0
C564 C 0.49507 0.17981 0.82674 0.0
H565 H 0.52871 0.25242 0.87649 0.0
H566 H 0.51888 0.21437 0.86562 0.0
H567 H 0.55758 0.24199 0.86634 0.0
H568 H 0.56964 0.21945 0.84109 0.0
H569 H 0.5745 0.16681 0.83598 0.0
H570 H 0.53218 0.92279 0.52487 0.0
H571 H 0.53253 0.86795 0.52699 0.0
H572 H 0.62804 0.89757 0.51632 0.0
H573 H 0.62813 0.95269 0.51436 0.0
H574 H 0.54554 0.82699 0.50435 0.0
H575 H 0.6288 0.85252 0.55946 0.0
H576 H 0.60957 0.88026 0.55233 0.0
H577 H 0.64189 0.87655 0.54246 0.0
C578 C 0.55331 0.91775 0.52295 0.0
C579 C 0.58022 0.94231 0.51958 0.0
C580 C 0.55341 0.88631 0.52412 0.0
C581 C 0.58041 0.87875 0.52203 0.0
C582 C 0.6071 0.90298 0.51826 0.0
H583 H 0.58478 0.68149 0.51536 0.0
H584 H 0.58931 0.73675 0.50905 0.0
C585 C 0.60705 0.93448 0.51708 0.0
C586 C 0.58063 0.84558 0.52412 0.0
H587 H 0.61225 0.79993 0.54824 0.0
C588 C 0.56023 0.82103 0.51388 0.0
C589 C 0.59962 0.8379 0.53667 0.0
C590 C 0.62105 0.86309 0.54847 0.0
C591 C 0.55814 0.78896 0.51593 0.0
C592 C 0.57722 0.78131 0.52845 0.0
C593 C 0.59782 0.8059 0.53858 0.0
C594 C 0.5747 0.74783 0.53201 0.0
C595 C 0.5348 0.76342 0.50507 0.0
C596 C 0.56562 0.73597 0.5471 0.0
C597 C 0.56327 0.70464 0.55078 0.0
C598 C 0.57002 0.6844 0.53945 0.0
C599 C 0.57944 0.69644 0.52436 0.0
C600 C 0.58177 0.72791 0.52068 0.0
H601 H 0.51765 0.77263 0.49832 0.0
H602 H 0.54703 0.75435 0.49608 0.0
H603 H 0.52221 0.74303 0.51225 0.0
H604 H 0.56026 0.75099 0.55607 0.0
H605 H 0.55661 0.69645 0.56264 0.0
H606 H 0.72195 0.46686 0.84191 0.0
H607 H 0.76636 0.4613 0.82937 0.0
H608 H 0.72626 0.47607 0.78232 0.0
H609 H 0.68195 0.48281 0.79499 0.0
H610 H 0.78031 0.42637 0.80354 0.0
H611 H 0.8029 0.55496 0.7903 0.0
H612 H 0.77254 0.53505 0.80281 0.0
H613 H 0.76824 0.52541 0.7814 0.0
C614 C 0.72233 0.4684 0.82886 0.0
C615 C 0.699 0.47611 0.81948 0.0
C616 C 0.74752 0.46482 0.82166 0.0
C617 C 0.74983 0.46885 0.80495 0.0
C618 C 0.72507 0.47333 0.79526 0.0
H619 H 0.94623 0.55939 0.80648 0.0
H620 H 0.89813 0.52979 0.79022 0.0
C621 C 0.69977 0.47704 0.80251 0.0
C622 C 0.78049 0.4742 0.79886 0.0
H623 H 0.84535 0.53778 0.79588 0.0
C624 C 0.79448 0.45044 0.80118 0.0
C625 C 0.79887 0.50542 0.79536 0.0
C626 C 0.78507 0.5318 0.79231 0.0
C627 C 0.82678 0.45823 0.80255 0.0
C628 C 0.8452 0.49052 0.80181 0.0
C629 C 0.83114 0.5131 0.79677 0.0
C630 C 0.87671 0.5028 0.81022 0.0
C631 C 0.84086 0.43235 0.80621 0.0
C632 C 0.88068 0.49732 0.82682 0.0
C633 C 0.90778 0.51443 0.83614 0.0
C634 C 0.93147 0.53758 0.82909 0.0
C635 C 0.92813 0.54204 0.8123 0.0
C636 C 0.90089 0.52486 0.80295 0.0
H637 H 0.82709 0.40979 0.79946 0.0
H638 H 0.86517 0.43917 0.803 0.0
H639 H 0.84044 0.42762 0.81936 0.0
H640 H 0.86197 0.48137 0.83288 0.0
H641 H 0.90938 0.51075 0.84906 0.0
H642 H 0.18061 0.76805 0.18591 0.0
H643 H 0.2313 0.80845 0.19226 0.0
H644 H 0.2707 0.76161 0.15812 0.0
H645 H 0.22007 0.72109 0.15171 0.0
H646 H 0.30624 0.77751 0.18718 0.0
H647 H 0.2754 0.88162 0.16444 0.0
H648 H 0.25036 0.85993 0.17897 0.0
H649 H 0.25108 0.84099 0.15971 0.0
C650 C 0.19999 0.76652 0.17963 0.0
C651 C 0.19626 0.74141 0.16826 0.0
C652 C 0.22893 0.78968 0.18324 0.0
C653 C 0.25466 0.78838 0.17544 0.0
C654 C 0.25112 0.76315 0.16423 0.0
H655 H 0.43232 0.94282 0.18062 0.0
H656 H 0.38313 0.90236 0.1709 0.0
C657 C 0.22221 0.73992 0.16065 0.0
C658 C 0.28547 0.81277 0.17936 0.0
H659 H 0.32362 0.89302 0.18055 0.0
C660 C 0.3101 0.80274 0.18562 0.0
C661 C 0.29061 0.84565 0.17708 0.0
C662 C 0.26556 0.85772 0.16953 0.0
C663 C 0.33948 0.82478 0.19015 0.0
C664 C 0.34419 0.85776 0.18862 0.0
C665 C 0.31986 0.86774 0.18187 0.0
C666 C 0.37395 0.88228 0.19442 0.0
C667 C 0.36524 0.81252 0.19648 0.0
C668 C 0.38477 0.88475 0.21089 0.0
C669 C 0.41269 0.90782 0.21647 0.0
C670 C 0.43038 0.92909 0.20571 0.0
C671 C 0.41922 0.92692 0.18924 0.0
C672 C 0.3912 0.90375 0.18365 0.0
H673 H 0.36053 0.78717 0.19261 0.0
H674 H 0.38773 0.82698 0.19224 0.0
H675 H 0.36739 0.81407 0.20995 0.0
H676 H 0.37143 0.86898 0.21948 0.0
H677 H 0.42018 0.90931 0.2293 0.0
H678 H 0.62774 0.15414 0.53037 0.0
H679 H 0.62693 0.20898 0.53205 0.0
H680 H 0.5339 0.17875 0.50887 0.0
H681 H 0.53422 0.12366 0.50733 0.0
H682 H 0.61742 0.24972 0.50794 0.0
H683 H 0.52618 0.22391 0.55107 0.0
H684 H 0.5463 0.19618 0.54667 0.0
H685 H 0.51583 0.19989 0.53254 0.0
C686 C 0.60706 0.15906 0.52561 0.0
C687 C 0.5809 0.13435 0.51888 0.0
C688 C 0.6067 0.19049 0.52654 0.0
C689 C 0.5802 0.19787 0.5208 0.0
C690 C 0.55438 0.17347 0.51364 0.0
H691 H 0.5757 0.39472 0.5128 0.0
H692 H 0.57316 0.33974 0.50607 0.0
C693 C 0.55467 0.142 0.51273 0.0
C694 C 0.57949 0.23099 0.5227 0.0
H695 H 0.54382 0.27637 0.54188 0.0
C696 C 0.60125 0.25559 0.51529 0.0
C697 C 0.55854 0.23856 0.53242 0.0
C698 C 0.53554 0.21335 0.54126 0.0
C699 C 0.60278 0.28762 0.51745 0.0
C700 C 0.58173 0.29515 0.52711 0.0
C701 C 0.55977 0.2705 0.53437 0.0
C702 C 0.58341 0.32856 0.53085 0.0
C703 C 0.62758 0.31324 0.50985 0.0
C704 C 0.58941 0.34029 0.54701 0.0
C705 C 0.59057 0.37142 0.5509 0.0
C706 C 0.58573 0.39165 0.5387 0.0
C707 C 0.57951 0.37979 0.52248 0.0
C708 C 0.57834 0.34849 0.5186 0.0
H709 H 0.64581 0.30417 0.50566 0.0
H710 H 0.61694 0.32209 0.49918 0.0
H711 H 0.63865 0.33373 0.51858 0.0
H712 H 0.59317 0.32527 0.55668 0.0
H713 H 0.59469 0.37942 0.56355 0.0
H714 H 0.40212 0.59011 0.79542 0.0
H715 H 0.37792 0.63138 0.7899 0.0
H716 H 0.29013 0.56627 0.80123 0.0
H717 H 0.31404 0.52545 0.80727 0.0
H718 H 0.29036 0.61074 0.77308 0.0
H719 H 0.35195 0.66904 0.83195 0.0
H720 H 0.37287 0.65929 0.81621 0.0
H721 H 0.3483 0.62801 0.82727 0.0
C722 C 0.37755 0.58446 0.79654 0.0
C723 C 0.36011 0.55464 0.80208 0.0
C724 C 0.3638 0.608 0.79325 0.0
C725 C 0.33239 0.60184 0.7953 0.0
C726 C 0.31443 0.57133 0.79951 0.0
H727 H 0.17943 0.61272 0.81972 0.0
H728 H 0.22264 0.61118 0.80522 0.0
C729 C 0.32814 0.54795 0.80291 0.0
C730 C 0.31855 0.62765 0.79552 0.0
H731 H 0.30459 0.67658 0.82384 0.0
C732 C 0.29419 0.62623 0.78384 0.0
C733 C 0.32408 0.64841 0.80937 0.0
C734 C 0.35071 0.65153 0.82197 0.0
C735 C 0.2728 0.64188 0.78671 0.0
C736 C 0.27546 0.65826 0.80182 0.0
C737 C 0.30233 0.66357 0.81236 0.0
C738 C 0.2478 0.66168 0.80872 0.0
C739 C 0.24595 0.63822 0.77419 0.0
C740 C 0.24784 0.6905 0.81604 0.0
C741 C 0.22273 0.69149 0.82448 0.0
C742 C 0.1975 0.66359 0.82581 0.0
C743 C 0.19786 0.63492 0.81849 0.0
C744 C 0.2226 0.63401 0.81007 0.0
H745 H 0.2535 0.63842 0.76175 0.0
H746 H 0.22791 0.61486 0.77546 0.0
H747 H 0.23558 0.6575 0.77561 0.0
H748 H 0.26745 0.71197 0.81547 0.0
H749 H 0.22314 0.71391 0.83004 0.0
H750 H 0.91513 0.31538 0.16045 0.0
H751 H 0.8688 0.27543 0.16885 0.0
H752 H 0.8205 0.34461 0.16646 0.0
H753 H 0.8663 0.38436 0.15739 0.0
H754 H 0.83833 0.27666 0.19587 0.0
H755 H 0.75951 0.26934 0.14033 0.0
H756 H 0.80084 0.28848 0.14088 0.0
H757 H 0.77683 0.30905 0.14902 0.0
C758 C 0.89451 0.32199 0.16143 0.0
C759 C 0.89444 0.35309 0.15812 0.0
C760 C 0.8681 0.29917 0.16636 0.0
C761 C 0.84102 0.30686 0.16804 0.0
C762 C 0.84091 0.33792 0.16492 0.0
H763 H 0.66335 0.20521 0.20332 0.0
H764 H 0.70806 0.24476 0.19298 0.0
C765 C 0.86729 0.36076 0.15994 0.0
C766 C 0.8133 0.28265 0.17362 0.0
H767 H 0.73667 0.24261 0.16322 0.0
C768 C 0.81615 0.26909 0.18869 0.0
C769 C 0.78435 0.27283 0.16425 0.0
C770 C 0.78016 0.28543 0.14765 0.0
C771 C 0.79076 0.24635 0.19475 0.0
C772 C 0.76184 0.2366 0.1854 0.0
C773 C 0.7589 0.25018 0.17036 0.0
C774 C 0.73438 0.21229 0.19107 0.0
C775 C 0.79492 0.23336 0.21126 0.0
C776 C 0.73416 0.18081 0.19311 0.0
C777 C 0.7087 0.15819 0.19903 0.0
C778 C 0.68295 0.16664 0.20301 0.0
C779 C 0.68298 0.19806 0.20058 0.0
C780 C 0.70841 0.22063 0.19459 0.0
H781 H 0.81632 0.24847 0.2184 0.0
H782 H 0.77478 0.23156 0.21828 0.0
H783 H 0.79663 0.20907 0.20973 0.0
H784 H 0.75381 0.1738 0.19025 0.0
H785 H 0.70955 0.1343 0.20088 0.0
H786 H 0.05517 0.51387 0.08925 0.0
H787 H 0.065 0.52438 0.06088 0.0
H788 H 0.04801 0.61421 0.06584 0.0
H789 H 0.03838 0.60413 0.09424 0.0
H790 H 1.0257 0.53641 0.0352 0.0
H791 H 0.13385 0.63878 0.04802 0.0
H792 H 0.11717 0.61129 0.06332 0.0
H793 H 0.10115 0.64217 0.05764 0.0
C794 C 0.05343 0.53584 0.08432 0.0
C795 C 0.04613 0.55823 0.09405 0.0
C796 C 0.05909 0.5418 0.0681 0.0
C797 C 0.05776 0.57031 0.06137 0.0
C798 C 0.04976 0.59236 0.07092 0.0
H799 H 0.07951 0.65095 0.96656 0.0
H800 H 0.07367 0.64107 0.99537 0.0
C801 C 0.04405 0.58642 0.08712 0.0
C802 C 0.06438 0.57683 0.04429 0.0
H803 H 0.11334 0.62854 0.02048 0.0
C804 C 0.04495 0.55642 0.03196 0.0
C805 C 0.08951 0.60301 0.04015 0.0
C806 C 0.11183 0.62496 0.05296 0.0
C807 C 0.04956 0.56189 0.01553 0.0
C808 C 0.07465 0.58811 0.01138 0.0
C809 C 0.09416 0.60846 0.02372 0.0
C810 C 0.08065 0.59505 0.99425 0.0
C811 C 1.02703 0.54004 0.00275 0.0
C812 C 0.08753 0.57291 0.98422 0.0
C813 C 0.091 0.57854 0.96779 0.0
C814 C 0.08785 0.60652 0.9611 0.0
C815 C 0.08234 0.62931 0.97136 0.0
C816 C 0.07882 0.62362 0.9878 0.0
H817 H 1.0051 0.52617 0.00776 0.0
H818 H 1.02151 0.55378 0.99247 0.0
H819 H 1.0376 0.52284 -0.00206 0.0
H820 H 0.08977 0.55106 0.98906 0.0
H821 H 0.09576 0.56079 0.96026 0.0
H822 H 0.62391 0.08088 0.46871 0.0
H823 H 0.62327 0.08334 0.43917 0.0
H824 H 0.54041 0.00153 0.43394 0.0
H825 H 0.54054 0.9991 0.46347 0.0
H826 H 0.62544 0.03738 0.41634 0.0
H827 H 0.51662 0.06704 0.40597 0.0
H828 H 0.53712 0.07009 0.42581 0.0
H829 H 0.51286 0.03188 0.41733 0.0
C830 C 0.60548 0.06342 0.4613 0.0
C831 C 0.58215 0.0399 0.46846 0.0
C832 C 0.60519 0.06487 0.44441 0.0
C833 C 0.58152 0.04295 0.43438 0.0
C834 C 0.55852 0.0191 0.44148 0.0
H835 H 0.53811 0.00751 0.33084 0.0
H836 H 0.54027 0.00617 0.36045 0.0
C837 C 0.55874 0.01765 0.45836 0.0
C838 C 0.58121 0.04476 0.41649 0.0
H839 H 0.53783 0.05422 0.38256 0.0
C840 C 0.60639 0.04124 0.40895 0.0
C841 C 0.55631 0.04983 0.4069 0.0
C842 C 0.52931 0.05523 0.41439 0.0
C843 C 0.60703 0.04194 0.39201 0.0
C844 C 0.58203 0.04677 0.38242 0.0
C845 C 0.55693 0.05046 0.38997 0.0
C846 C 0.58122 0.04764 0.36449 0.0
C847 C 0.63408 0.03673 0.38448 0.0
C848 C 0.60338 0.07161 0.35697 0.0
C849 C 0.60232 0.07236 0.34004 0.0
C850 C 0.579 0.04917 0.33033 0.0
C851 C 0.55667 0.02539 0.33795 0.0
C852 C 0.55773 0.02471 0.35486 0.0
H853 H 0.64755 0.026 0.39305 0.0
H854 H 0.62611 0.02097 0.37336 0.0
H855 H 0.64982 0.06002 0.38097 0.0
H856 H 0.62141 0.08984 0.3642 0.0
H857 H 0.61994 0.09089 0.33455 0.0
H858 H 0.56887 0.49395 0.79457 0.0
H859 H 0.57472 0.50003 0.76556 0.0
H860 H 0.48379 0.50962 0.75815 0.0
H861 H 0.47808 0.50446 0.78723 0.0
H862 H 0.54145 0.46429 0.73964 0.0
H863 H 0.53504 0.58707 0.73615 0.0
H864 H 0.53961 0.56901 0.75522 0.0
H865 H 0.50202 0.55958 0.74426 0.0
C866 C 0.55013 0.49744 0.78678 0.0
C867 C 0.52309 0.49896 0.79321 0.0
C868 C 0.55352 0.50091 0.7702 0.0
C869 C 0.52994 0.50589 0.75974 0.0
C870 C 0.50263 0.50668 0.76607 0.0
H871 H 0.50297 0.51109 0.65488 0.0
H872 H 0.49642 0.50621 0.68392 0.0
C873 C 0.49932 0.50351 0.78267 0.0
C874 C 0.53376 0.50959 0.74215 0.0
H875 H 0.53348 0.55959 0.71101 0.0
C876 C 0.53985 0.48519 0.73341 0.0
C877 C 0.53179 0.53697 0.73405 0.0
C878 C 0.52707 0.56479 0.74292 0.0
C879 C 0.5436 0.48727 0.71675 0.0
C880 C 0.54118 0.51438 0.70866 0.0
C881 C 0.53511 0.53877 0.71732 0.0
C882 C 0.5453 0.51792 0.69119 0.0
C883 C 0.54987 0.46044 0.70778 0.0
C884 C 0.575 0.52647 0.6858 0.0
C885 C 0.57891 0.52972 0.66926 0.0
C886 C 0.55312 0.52431 0.6578 0.0
C887 C 0.52337 0.51588 0.66335 0.0
C888 C 0.51953 0.51286 0.67991 0.0
H889 H 0.54761 0.43945 0.7154 0.0
H890 H 0.53364 0.45286 0.69667 0.0
H891 H 0.57372 0.46896 0.70391 0.0
H892 H 0.59515 0.53072 0.69441 0.0
H893 H 0.60218 0.53678 0.66547 0.0
H894 H 0.62374 0.03241 0.57414 0.0
H895 H 0.62003 0.02842 0.60348 0.0
H896 H 0.52834 0.03618 0.59749 0.0
H897 H 0.53177 0.04035 0.56818 0.0
H898 H 0.60408 0.07534 0.62579 0.0
H899 H 0.52248 0.95095 0.62257 0.0
H900 H 0.54713 0.96705 0.60662 0.0
H901 H 0.51338 0.97848 0.60878 0.0
C902 C 0.60279 0.03332 0.57905 0.0
C903 C 0.578 0.03662 0.56882 0.0
C904 C 0.60076 0.03109 0.5958 0.0
C905 C 0.57383 0.03175 0.60255 0.0
C906 C 0.5492 0.03537 0.59243 0.0
H907 H 0.5069 0.007 0.69785 0.0
H908 H 0.51348 0.013 0.66887 0.0
C909 C 0.55127 0.03785 0.57571 0.0
C910 C 0.57135 0.02857 0.62019 0.0
H911 H 0.53395 0.97794 0.64823 0.0
C912 C 0.58889 0.05404 0.63076 0.0
C913 C 0.55139 0.00079 0.62652 0.0
C914 C 0.53259 0.97258 0.6156 0.0
C915 C 0.58646 0.05274 0.64758 0.0
C916 C 0.56655 0.02484 0.65396 0.0
C917 C 0.54919 -0.00071 0.64333 0.0
C918 C 0.56295 0.02174 0.67159 0.0
C919 C 0.60452 0.08159 0.65827 0.0
C920 C 0.58853 0.02433 0.68273 0.0
C921 C 0.58485 0.02106 0.69931 0.0
C922 C 0.55542 0.01463 0.70501 0.0
C923 C 0.5298 0.01166 0.6938 0.0
C924 C 0.53355 0.01519 0.67726 0.0
H925 H 0.61151 0.10359 0.65122 0.0
H926 H 0.59081 0.08536 0.66814 0.0
H927 H 0.6259 0.07794 0.66389 0.0
H928 H 0.6113 0.02853 0.67859 0.0
H929 H 0.60492 0.02299 0.70763 0.0
H930 H 0.5547 0.52596 0.89853 0.0
H931 H 0.55258 0.52516 0.92788 0.0
H932 H 0.46146 0.45528 0.92182 0.0
H933 H 0.46322 0.45596 0.89225 0.0
H934 H 0.4678 0.50829 0.94372 0.0
H935 H 0.55912 0.45258 0.95757 0.0
H936 H 0.57045 0.48633 0.94489 0.0
H937 H 0.53987 0.45088 0.93748 0.0
C938 C 0.53418 0.5103 0.90337 0.0
C939 C 0.50914 0.49092 0.89301 0.0
C940 C 0.53312 0.50976 0.92018 0.0
C941 C 0.50707 0.48982 0.927 0.0
C942 C 0.48186 0.47067 0.91675 0.0
H943 H 0.50491 0.46005 0.03134 0.0
H944 H 0.49939 0.45142 0.0018 0.0
C945 C 0.48294 0.47107 0.89988 0.0
C946 C 0.50607 0.48986 0.94484 0.0
H947 H 0.54424 0.47714 0.97994 0.0
C948 C 0.48427 0.50117 0.95166 0.0
C949 C 0.52738 0.48023 0.95513 0.0
C950 C 0.55037 0.46653 0.94843 0.0
C951 C 0.48401 0.50427 0.96856 0.0
C952 C 0.50634 0.49613 0.97884 0.0
C953 C 0.52734 0.48364 0.97202 0.0
C954 C 0.50893 0.50129 0.99669 0.0
C955 C 0.45993 0.51632 0.97527 0.0
C956 C 0.51652 0.53223 0.00358 0.0
C957 C 0.51994 0.53729 0.02043 0.0
C958 C 0.51595 0.51148 0.03073 0.0
C959 C 0.50847 0.48049 0.02376 0.0
C960 C 0.50511 0.47548 0.0069 0.0
H961 H 0.43979 0.51324 0.96623 0.0
H962 H 0.45155 0.50376 0.98639 0.0
H963 H 0.47035 0.54216 0.97853 0.0
H964 H 0.52029 0.55256 0.99591 0.0
H965 H 0.52629 0.56151 0.02538 0.0
H966 H 0.08901 0.5752 0.19902 0.0
H967 H 0.0898 0.57064 0.22847 0.0
H968 H 0.99895 0.50004 0.22286 0.0
H969 H 0.99838 0.50371 0.19339 0.0
H970 H 0.05274 0.58277 0.24923 0.0
H971 H 0.04524 0.45558 0.25209 0.0
H972 H 0.05306 0.47756 0.23383 0.0
H973 H 1.014 0.46143 0.2394 0.0
C974 C 0.06928 0.55856 0.20404 0.0
C975 C 0.04372 0.53967 0.19386 0.0
C976 C 0.06975 0.55599 0.22088 0.0
C977 C 0.04467 0.5346 0.22786 0.0
C978 C 1.01893 0.51607 0.21773 0.0
H979 H 1.01008 0.54661 0.32941 0.0
H980 H 1.00798 0.54776 0.29983 0.0
C981 C 1.01856 0.51836 0.20089 0.0
C982 C 0.04509 0.53245 0.24576 0.0
H983 H 1.03793 0.48038 0.27647 0.0
C984 C 0.04964 0.56041 0.2552 0.0
C985 C 0.04146 0.50333 0.25355 0.0
C986 C 0.03849 0.47284 0.24421 0.0
C987 C 0.05033 0.56002 0.27218 0.0
C988 C 0.04545 0.53068 0.27992 0.0
C989 C 0.04126 0.50278 0.27051 0.0
C990 C 0.04554 0.52856 0.29781 0.0
C991 C 0.05702 0.5912 0.28166 0.0
C992 C 0.06641 0.51606 0.30645 0.0
C993 C 0.06717 0.51465 0.32334 0.0
C994 C 0.04714 0.52582 0.33196 0.0
C995 C 1.02573 0.53762 0.3232 0.0
C996 C 1.0248 0.53875 0.30629 0.0
H997 H 0.06884 0.61192 0.27447 0.0
H998 H 1.03488 0.59396 0.28482 0.0
H999 H 0.07173 0.59186 0.2931 0.0
H1000 H 0.08241 0.50775 0.30014 0.0
H1001 H 0.0835 0.50477 0.32962 0.0
loop_
_geom_bond_atom_site_label_1
_geom_bond_atom_site_label_2
_geom_bond_distance
_geom_bond_site_symmetry_2
_ccdc_geom_bond_type
Dy0 O3 2.307 1_455 S
Dy0 O5 2.395 . S
Dy0 O6 2.379 . S
Dy0 O8 2.339 . S
Dy0 O10 2.298 . S
Dy0 O14 2.275 . S
Dy0 C22 2.738 . S
Dy1 O4 2.298 . S
Dy1 O7 2.275 1_655 S
Dy1 O9 2.307 1_655 S
Dy1 O11 2.395 . S
Dy1 O12 2.379 . S
Dy1 O15 2.339 . S
Dy1 C31 2.738 . S
C2 O14 1.254 . S
C2 O15 1.257 1_455 S
O3 Dy0 2.307 1_655 S
O3 C13 1.266 . S
O4 Dy1 2.298 . S
O4 C13 1.236 . S
O5 Dy0 2.395 . S
O5 C22 1.255 . S
O6 Dy0 2.379 . S
O6 C22 1.249 . S
O7 Dy1 2.275 1_455 S
O7 C23 1.254 . S
O8 Dy0 2.339 . S
O8 C23 1.257 . S
O9 Dy1 2.307 1_455 S
O9 C24 1.266 . S
O10 Dy0 2.298 . S
O10 C24 1.236 . S
O11 Dy1 2.395 . S
O11 C31 1.255 . S
O12 Dy1 2.379 . S
O12 C31 1.249 . S
C13 O3 1.266 . S
C13 O4 1.236 . S
O14 Dy0 2.275 . S
O14 C2 1.254 . S
O15 Dy1 2.339 . S
O15 C2 1.257 1_655 S
C16 C19 1.344 . S
C16 C20 1.328 . S
C16 C22 1.516 . S
C17 C18 1.304 . S
C17 C21 1.323 . S
C18 C17 1.304 . S
C18 C19 1.371 . S
C18 H32 0.930 . S
C19 C16 1.344 . S
C19 C18 1.371 . S
C19 H33 0.931 . S
C20 C16 1.328 . S
C20 C21 1.433 . S
C20 H34 0.931 . S
C21 C17 1.323 . S
C21 C20 1.433 . S
C21 H35 0.933 . S
C22 Dy0 2.738 . S
C22 O5 1.255 . S
C22 O6 1.249 . S
C22 C16 1.516 . S
C23 O7 1.254 . S
C23 O8 1.257 . S
C24 O9 1.266 . S
C24 O10 1.236 . S
C25 C28 1.344 . S
C25 C29 1.328 . S
C25 C31 1.516 . S
C26 C27 1.304 . S
C26 C30 1.323 . S
C27 C26 1.304 . S
C27 C28 1.371 . S
C27 H36 0.930 . S
C28 C25 1.344 . S
C28 C27 1.371 . S
C28 H37 0.931 . S
C29 C25 1.328 . S
C29 C30 1.433 . S
C29 H38 0.931 . S
C30 C26 1.323 . S
C30 C29 1.433 . S
C30 H39 0.933 . S
C31 Dy1 2.738 . S
C31 O11 1.255 . S
C31 O12 1.249 . S
C31 C25 1.516 . S
H32 C18 0.930 . S
H33 C19 0.931 . S
H34 C20 0.931 . S
H35 C21 0.933 . S
H36 C27 0.930 . S
H37 C28 0.931 . S
H38 C29 0.931 . S
H39 C30 0.933 . S
Dy40 O43 2.307 . S
Dy40 O45 2.395 1_545 S
Dy40 O46 2.379 1_545 S
Dy40 O48 2.339 . S
Dy40 O50 2.298 1_545 S
Dy40 O54 2.275 . S
Dy40 C62 2.738 1_545 S
Dy41 O44 2.298 . S
Dy41 O47 2.275 . S
Dy41 O49 2.307 1_545 S
Dy41 O51 2.395 . S
Dy41 O52 2.379 . S
Dy41 O55 2.339 . S
Dy41 C71 2.738 . S
C42 O54 1.254 . S
C42 O55 1.257 . S
O43 Dy40 2.307 . S
O43 C53 1.266 . S
O44 Dy41 2.298 . S
O44 C53 1.236 . S
O45 Dy40 2.395 1_565 S
O45 C62 1.255 . S
O46 Dy40 2.379 1_565 S
O46 C62 1.249 . S
O47 Dy41 2.275 . S
O47 C63 1.254 . S
O48 Dy40 2.339 . S
O48 C63 1.257 . S
O49 Dy41 2.307 1_565 S
O49 C64 1.266 . S
O50 Dy40 2.298 1_565 S
O50 C64 1.236 . S
O51 Dy41 2.395 . S
O51 C71 1.255 . S
O52 Dy41 2.379 . S
O52 C71 1.249 . S
C53 O43 1.266 . S
C53 O44 1.236 . S
O54 Dy40 2.275 . S
O54 C42 1.254 . S
O55 Dy41 2.339 . S
O55 C42 1.257 . S
C56 C59 1.344 . S
C56 C60 1.328 . S
C56 C62 1.516 . S
C57 C58 1.304 . S
C57 C61 1.323 . S
C58 C57 1.304 . S
C58 C59 1.371 . S
C58 H72 0.930 . S
C59 C56 1.344 . S
C59 C58 1.371 . S
C59 H73 0.931 . S
C60 C56 1.328 . S
C60 C61 1.433 . S
C60 H74 0.931 . S
C61 C57 1.323 . S
C61 C60 1.433 . S
C61 H75 0.933 . S
C62 Dy40 2.738 1_565 S
C62 O45 1.255 . S
C62 O46 1.249 . S
C62 C56 1.516 . S
C63 O47 1.254 . S
C63 O48 1.257 . S
C64 O49 1.266 . S
C64 O50 1.236 . S
C65 C68 1.344 . S
C65 C69 1.328 . S
C65 C71 1.516 . S
C66 C67 1.304 . S
C66 C70 1.323 . S
C67 C66 1.304 . S
C67 C68 1.371 . S
C67 H76 0.930 . S
C68 C65 1.344 . S
C68 C67 1.371 . S
C68 H77 0.931 . S
C69 C65 1.328 . S
C69 C70 1.433 . S
C69 H78 0.931 . S
C70 C66 1.323 . S
C70 C69 1.433 . S
C70 H79 0.933 . S
C71 Dy41 2.738 . S
C71 O51 1.255 . S
C71 O52 1.249 . S
C71 C65 1.516 . S
H72 C58 0.930 . S
H73 C59 0.931 . S
H74 C60 0.931 . S
H75 C61 0.933 . S
H76 C67 0.930 . S
H77 C68 0.931 . S
H78 C69 0.931 . S
H79 C70 0.933 . S
Dy80 O83 2.307 . S
Dy80 O85 2.395 . S
Dy80 O86 2.379 . S
Dy80 O88 2.339 . S
Dy80 O90 2.298 . S
Dy80 O94 2.275 . S
Dy80 C102 2.738 . S
Dy81 O84 2.298 . S
Dy81 O87 2.275 . S
Dy81 O89 2.307 . S
Dy81 O91 2.395 . S
Dy81 O92 2.379 . S
Dy81 O95 2.339 . S
Dy81 C111 2.738 . S
C82 O94 1.254 . S
C82 O95 1.257 . S
O83 Dy80 2.307 . S
O83 C93 1.266 . S
O84 Dy81 2.298 . S
O84 C93 1.236 . S
O85 Dy80 2.395 . S
O85 C102 1.255 . S
O86 Dy80 2.379 . S
O86 C102 1.249 . S
O87 Dy81 2.275 . S
O87 C103 1.254 . S
O88 Dy80 2.339 . S
O88 C103 1.257 . S
O89 Dy81 2.307 . S
O89 C104 1.266 . S
O90 Dy80 2.298 . S
O90 C104 1.236 . S
O91 Dy81 2.395 . S
O91 C111 1.255 . S
O92 Dy81 2.379 . S
O92 C111 1.249 . S
C93 O83 1.266 . S
C93 O84 1.236 . S
O94 Dy80 2.275 . S
O94 C82 1.254 . S
O95 Dy81 2.339 . S
O95 C82 1.257 . S
C96 C99 1.344 . S
C96 C100 1.328 . S
C96 C102 1.516 . S
C97 C98 1.304 . S
C97 C101 1.323 . S
C98 C97 1.304 . S
C98 C99 1.371 . S
C98 H112 0.930 . S
C99 C96 1.344 . S
C99 C98 1.371 . S
C99 H113 0.931 . S
C100 C96 1.328 . S
C100 C101 1.433 . S
C100 H114 0.931 . S
C101 C97 1.323 . S
C101 C100 1.433 . S
C101 H115 0.933 . S
C102 Dy80 2.738 . S
C102 O85 1.255 . S
C102 O86 1.249 . S
C102 C96 1.516 . S
C103 O87 1.254 . S
C103 O88 1.257 . S
C104 O89 1.266 . S
C104 O90 1.236 . S
C105 C108 1.344 . S
C105 C109 1.328 . S
C105 C111 1.516 . S
C106 C107 1.304 . S
C106 C110 1.323 . S
C107 C106 1.304 . S
C107 C108 1.371 . S
C107 H116 0.930 . S
C108 C105 1.344 . S
C108 C107 1.371 . S
C108 H117 0.931 . S
C109 C105 1.328 . S
C109 C110 1.433 . S
C109 H118 0.931 . S
C110 C106 1.323 . S
C110 C109 1.433 . S
C110 H119 0.933 . S
C111 Dy81 2.738 . S
C111 O91 1.255 . S
C111 O92 1.249 . S
C111 C105 1.516 . S
H112 C98 0.930 . S
H113 C99 0.931 . S
H114 C100 0.931 . S
H115 C101 0.933 . S
H116 C107 0.930 . S
H117 C108 0.931 . S
H118 C109 0.931 . S
H119 C110 0.933 . S
C120 C121 1.386 . S
C120 C122 1.397 . S
C120 H144 0.931 . S
C121 C120 1.386 . S
C121 C125 1.397 . S
C122 C120 1.397 . S
C122 C123 1.384 . S
C122 H145 0.930 . S
C123 C122 1.384 . S
C123 C124 1.377 . S
C123 C126 1.481 . S
C124 C123 1.377 . S
C124 C125 1.389 . S
C124 H146 0.929 . S
C125 C121 1.397 . S
C125 C124 1.389 . S
C125 H147 0.931 . S
C126 C123 1.481 . S
C126 C127 1.387 . S
C126 C131 1.390 . S
C127 C126 1.387 . S
C127 C128 1.401 . S
C127 H148 0.930 . S
C128 C127 1.401 . S
C128 C129 1.376 . S
C128 C137 1.511 . S
C129 C128 1.376 . S
C129 C130 1.392 . S
C129 H150 0.931 . S
C130 C129 1.392 . S
C130 C131 1.361 . S
C130 C132 1.500 . S
C131 C126 1.390 . S
C131 C130 1.361 . S
C131 H149 0.931 . S
C132 C130 1.500 . S
C132 C133 1.371 . S
C132 C134 1.365 1_545 S
C133 C132 1.371 . S
C133 C143 1.386 1_545 S
C133 H151 0.931 . S
C134 C132 1.365 1_565 S
C134 C135 1.409 . S
C134 H152 0.929 . S
C135 C134 1.409 . S
C135 C136 1.380 . S
C135 H153 0.930 . S
C136 C135 1.380 . S
C136 C143 1.357 . S
C137 C128 1.511 . S
C137 C138 1.341 . S
C137 C139 1.371 . S
C138 C137 1.341 . S
C138 C142 1.394 . S
C138 H154 0.930 . S
C139 C137 1.371 . S
C139 C140 1.392 . S
C139 H155 0.931 . S
C140 C139 1.392 . S
C140 C141 1.331 . S
C140 H158 0.932 . S
C141 C140 1.331 . S
C141 C142 1.336 . S
C142 C138 1.394 . S
C142 C141 1.336 . S
C142 H157 0.929 . S
C143 C133 1.386 1_565 S
C143 C136 1.357 . S
C143 H156 0.928 1_565 S
H144 C120 0.931 . S
H145 C122 0.930 . S
H146 C124 0.929 . S
H147 C125 0.931 . S
H148 C127 0.930 . S
H149 C131 0.931 . S
H150 C129 0.931 . S
H151 C133 0.931 . S
H152 C134 0.929 . S
H153 C135 0.930 . S
H154 C138 0.930 . S
H155 C139 0.931 . S
H156 C143 0.928 1_545 S
H157 C142 0.929 . S
H158 C140 0.932 . S
C159 C160 1.386 . S
C159 C161 1.397 . S
C159 H183 0.931 . S
C160 C159 1.386 . S
C160 C164 1.397 . S
C161 C159 1.397 . S
C161 C162 1.384 . S
C161 H184 0.930 . S
C162 C161 1.384 . S
C162 C163 1.377 . S
C162 C165 1.481 . S
C163 C162 1.377 . S
C163 C164 1.389 . S
C163 H185 0.929 . S
C164 C160 1.397 . S
C164 C163 1.389 . S
C164 H186 0.931 . S
C165 C162 1.481 . S
C165 C166 1.387 . S
C165 C170 1.390 . S
C166 C165 1.387 . S
C166 C167 1.401 . S
C166 H187 0.930 . S
C167 C166 1.401 . S
C167 C168 1.376 . S
C167 C176 1.511 . S
C168 C167 1.376 . S
C168 C169 1.392 . S
C168 H189 0.931 . S
C169 C168 1.392 . S
C169 C170 1.361 . S
C169 C171 1.500 . S
C170 C165 1.390 . S
C170 C169 1.361 . S
C170 H188 0.931 . S
C171 C169 1.500 . S
C171 C172 1.371 . S
C171 C173 1.365 . S
C172 C171 1.371 . S
C172 C182 1.386 . S
C172 H190 0.931 . S
C173 C171 1.365 . S
C173 C174 1.409 . S
C173 H191 0.929 . S
C174 C173 1.409 . S
C174 C175 1.380 . S
C174 H192 0.930 . S
C175 C174 1.380 . S
C175 C182 1.357 . S
C176 C167 1.511 . S
C176 C177 1.341 . S
C176 C178 1.371 . S
C177 C176 1.341 . S
C177 C181 1.394 . S
C177 H193 0.930 . S
C178 C176 1.371 . S
C178 C179 1.392 . S
C178 H194 0.931 . S
C179 C178 1.392 . S
C179 C180 1.331 . S
C179 H197 0.932 . S
C180 C179 1.331 . S
C180 C181 1.336 . S
C181 C177 1.394 . S
C181 C180 1.336 . S
C181 H196 0.929 . S
C182 C172 1.386 . S
C182 C175 1.357 . S
C182 H195 0.928 . S
H183 C159 0.931 . S
H184 C161 0.930 . S
H185 C163 0.929 . S
H186 C164 0.931 . S
H187 C166 0.930 . S
H188 C170 0.931 . S
H189 C168 0.931 . S
H190 C172 0.931 . S
H191 C173 0.929 . S
H192 C174 0.930 . S
H193 C177 0.930 . S
H194 C178 0.931 . S
H195 C182 0.928 . S
H196 C181 0.929 . S
H197 C179 0.932 . S
C198 C199 1.386 . S
C198 C200 1.397 . S
C198 H222 0.931 . S
C199 C198 1.386 . S
C199 C203 1.397 . S
C200 C198 1.397 . S
C200 C201 1.384 . S
C200 H223 0.930 . S
C201 C200 1.384 . S
C201 C202 1.377 . S
C201 C204 1.481 . S
C202 C201 1.377 . S
C202 C203 1.389 . S
C202 H224 0.929 1_455 S
C203 C199 1.397 . S
C203 C202 1.389 . S
C203 H225 0.931 1_455 S
C204 C201 1.481 . S
C204 C205 1.387 . S
C204 C209 1.390 1_455 S
C205 C204 1.387 . S
C205 C206 1.401 . S
C205 H226 0.930 . S
C206 C205 1.401 . S
C206 C207 1.376 . S
C206 C215 1.511 . S
C207 C206 1.376 . S
C207 C208 1.392 1_455 S
C207 H228 0.931 . S
C208 C207 1.392 1_655 S
C208 C209 1.361 . S
C208 C210 1.500 . S
C209 C204 1.390 1_655 S
C209 C208 1.361 . S
C209 H227 0.931 . S
C210 C208 1.500 . S
C210 C211 1.371 . S
C210 C212 1.365 . S
C211 C210 1.371 . S
C211 C221 1.386 . S
C211 H229 0.931 . S
C212 C210 1.365 . S
C212 C213 1.409 . S
C212 H230 0.929 . S
C213 C212 1.409 . S
C213 C214 1.380 . S
C213 H231 0.930 . S
C214 C213 1.380 . S
C214 C221 1.357 . S
C215 C206 1.511 . S
C215 C216 1.341 . S
C215 C217 1.371 . S
C216 C215 1.341 . S
C216 C220 1.394 . S
C216 H232 0.930 . S
C217 C215 1.371 . S
C217 C218 1.392 . S
C217 H233 0.931 . S
C218 C217 1.392 . S
C218 C219 1.331 . S
C218 H236 0.932 . S
C219 C218 1.331 . S
C219 C220 1.336 . S
C220 C216 1.394 . S
C220 C219 1.336 . S
C220 H235 0.929 . S
C221 C211 1.386 . S
C221 C214 1.357 . S
C221 H234 0.928 . S
H222 C198 0.931 . S
H223 C200 0.930 . S
H224 C202 0.929 1_655 S
H225 C203 0.931 1_655 S
H226 C205 0.930 . S
H227 C209 0.931 . S
H228 C207 0.931 . S
H229 C211 0.931 . S
H230 C212 0.929 . S
H231 C213 0.930 . S
H232 C216 0.930 . S
H233 C217 0.931 . S
H234 C221 0.928 . S
H235 C220 0.929 . S
H236 C218 0.932 . S
C237 C238 1.368 1_655 S
C237 C239 1.397 . S
C237 H261 0.931 . S
C238 C237 1.368 1_455 S
C238 C242 1.415 . S
C239 C237 1.397 . S
C239 C240 1.384 1_655 S
C239 H262 0.930 . S
C240 C239 1.384 1_455 S
C240 C241 1.377 . S
C240 C243 1.481 . S
C241 C240 1.377 . S
C241 C242 1.389 . S
C241 H263 0.929 . S
C242 C238 1.415 . S
C242 C241 1.389 . S
C242 H264 0.931 . S
C243 C240 1.481 . S
C243 C244 1.387 1_455 S
C243 C248 1.390 . S
C244 C243 1.387 1_655 S
C244 C245 1.401 . S
C244 H265 0.930 . S
C245 C244 1.401 . S
C245 C246 1.376 1_655 S
C245 C254 1.511 . S
C246 C245 1.376 1_455 S
C246 C247 1.392 . S
C246 H267 0.931 . S
C247 C246 1.392 . S
C247 C248 1.361 . S
C247 C249 1.500 . S
C248 C243 1.390 . S
C248 C247 1.361 . S
C248 H266 0.931 . S
C249 C247 1.500 . S
C249 C250 1.371 . S
C249 C251 1.365 . S
C250 C249 1.371 . S
C250 C260 1.386 . S
C250 H268 0.931 . S
C251 C249 1.365 . S
C251 C252 1.409 . S
C251 H269 0.929 . S
C252 C251 1.409 . S
C252 C253 1.380 . S
C252 H270 0.930 . S
C253 C252 1.380 . S
C253 C260 1.357 . S
C254 C245 1.511 . S
C254 C255 1.341 . S
C254 C256 1.371 . S
C255 C254 1.341 . S
C255 C259 1.394 . S
C255 H271 0.930 . S
C256 C254 1.371 . S
C256 C257 1.392 . S
C256 H272 0.931 . S
C257 C256 1.392 . S
C257 C258 1.331 . S
C257 H275 0.932 . S
C258 C257 1.331 . S
C258 C259 1.336 . S
C259 C255 1.394 . S
C259 C258 1.336 . S
C259 H274 0.929 . S
C260 C250 1.386 . S
C260 C253 1.357 . S
C260 H273 0.928 . S
H261 C237 0.931 . S
H262 C239 0.930 . S
H263 C241 0.929 . S
H264 C242 0.931 . S
H265 C244 0.930 . S
H266 C248 0.931 . S
H267 C246 0.931 . S
H268 C250 0.931 . S
H269 C251 0.929 . S
H270 C252 0.930 . S
H271 C255 0.930 . S
H272 C256 0.931 . S
H273 C260 0.928 . S
H274 C259 0.929 . S
H275 C257 0.932 . S
C276 C277 1.386 1_565 S
C276 C278 1.397 . S
C276 H300 0.931 . S
C277 C276 1.386 1_545 S
C277 C281 1.397 . S
C278 C276 1.397 . S
C278 C279 1.384 1_565 S
C278 H301 0.930 . S
C279 C278 1.384 1_545 S
C279 C280 1.377 . S
C279 C282 1.481 . S
C280 C279 1.377 . S
C280 C281 1.389 . S
C280 H302 0.929 . S
C281 C277 1.397 . S
C281 C280 1.389 . S
C281 H303 0.931 . S
C282 C279 1.481 . S
C282 C283 1.387 1_545 S
C282 C287 1.390 . S
C283 C282 1.387 1_565 S
C283 C284 1.401 . S
C283 H304 0.930 . S
C284 C283 1.401 . S
C284 C285 1.376 1_565 S
C284 C293 1.511 . S
C285 C284 1.376 1_545 S
C285 C286 1.392 . S
C285 H306 0.931 . S
C286 C285 1.392 . S
C286 C287 1.361 . S
C286 C288 1.500 . S
C287 C282 1.390 . S
C287 C286 1.361 . S
C287 H305 0.931 . S
C288 C286 1.500 . S
C288 C289 1.371 . S
C288 C290 1.365 . S
C289 C288 1.371 . S
C289 C299 1.386 . S
C289 H307 0.931 . S
C290 C288 1.365 . S
C290 C291 1.409 . S
C290 H308 0.929 . S
C291 C290 1.409 . S
C291 C292 1.380 . S
C291 H309 0.930 . S
C292 C291 1.380 . S
C292 C299 1.357 . S
C293 C284 1.511 . S
C293 C294 1.341 . S
C293 C295 1.371 . S
C294 C293 1.341 . S
C294 C298 1.394 . S
C294 H310 0.930 . S
C295 C293 1.371 . S
C295 C296 1.392 . S
C295 H311 0.931 . S
C296 C295 1.392 . S
C296 C297 1.331 . S
C296 H314 0.932 . S
C297 C296 1.331 . S
C297 C298 1.336 . S
C298 C294 1.394 . S
C298 C297 1.336 . S
C298 H313 0.929 . S
C299 C289 1.386 . S
C299 C292 1.357 . S
C299 H312 0.928 . S
H300 C276 0.931 . S
H301 C278 0.930 . S
H302 C280 0.929 . S
H303 C281 0.931 . S
H304 C283 0.930 . S
H305 C287 0.931 . S
H306 C285 0.931 . S
H307 C289 0.931 . S
H308 C290 0.929 . S
H309 C291 0.930 . S
H310 C294 0.930 . S
H311 C295 0.931 . S
H312 C299 0.928 . S
H313 C298 0.929 . S
H314 C296 0.932 . S
C315 C316 1.386 . S
C315 C317 1.397 . S
C315 H339 0.931 . S
C316 C315 1.386 . S
C316 C320 1.397 . S
C317 C315 1.397 . S
C317 C318 1.384 . S
C317 H340 0.930 . S
C318 C317 1.384 . S
C318 C319 1.377 . S
C318 C321 1.481 . S
C319 C318 1.377 . S
C319 C320 1.389 . S
C319 H341 0.929 . S
C320 C316 1.397 . S
C320 C319 1.389 . S
C320 H342 0.931 . S
C321 C318 1.481 . S
C321 C322 1.387 . S
C321 C326 1.390 . S
C322 C321 1.387 . S
C322 C323 1.401 . S
C322 H343 0.930 . S
C323 C322 1.401 . S
C323 C324 1.376 . S
C323 C332 1.511 . S
C324 C323 1.376 . S
C324 C325 1.392 . S
C324 H345 0.931 . S
C325 C324 1.392 . S
C325 C326 1.361 . S
C325 C327 1.500 . S
C326 C321 1.390 . S
C326 C325 1.361 . S
C326 H344 0.931 . S
C327 C325 1.500 . S
C327 C328 1.371 . S
C327 C329 1.365 . S
C328 C327 1.371 . S
C328 C338 1.386 . S
C328 H346 0.931 . S
C329 C327 1.365 . S
C329 C330 1.409 . S
C329 H347 0.929 . S
C330 C329 1.409 . S
C330 C331 1.380 . S
C330 H348 0.930 . S
C331 C330 1.380 . S
C331 C338 1.357 . S
C332 C323 1.511 . S
C332 C333 1.341 . S
C332 C334 1.371 . S
C333 C332 1.341 . S
C333 C337 1.394 . S
C333 H349 0.930 . S
C334 C332 1.371 . S
C334 C335 1.392 . S
C334 H350 0.931 . S
C335 C334 1.392 . S
C335 C336 1.331 . S
C335 H353 0.932 . S
C336 C335 1.331 . S
C336 C337 1.336 . S
C337 C333 1.394 . S
C337 C336 1.336 . S
C337 H352 0.929 . S
C338 C328 1.386 . S
C338 C331 1.357 . S
C338 H351 0.928 . S
H339 C315 0.931 . S
H340 C317 0.930 . S
H341 C319 0.929 . S
H342 C320 0.931 . S
H343 C322 0.930 . S
H344 C326 0.931 . S
H345 C324 0.931 . S
H346 C328 0.931 . S
H347 C329 0.929 . S
H348 C330 0.930 . S
H349 C333 0.930 . S
H350 C334 0.931 . S
H351 C338 0.928 . S
H352 C337 0.929 . S
H353 C335 0.932 . S
H354 C362 0.929 . S
H355 C364 0.930 . S
H356 C366 0.930 . S
H357 C369 0.929 . S
H358 C372 0.930 . S
H359 C374 0.960 . S
H360 C374 0.960 . S
H361 C374 0.960 . S
C362 H354 0.929 . S
C362 C363 1.377 . S
C362 C364 1.384 . S
C363 C362 1.377 . S
C363 C369 1.390 . S
C364 H355 0.930 . S
C364 C362 1.384 . S
C364 C365 1.372 . S
C365 C364 1.372 . S
C365 C366 1.400 . S
C365 C370 1.490 . S
C366 H356 0.930 . S
C366 C365 1.400 . S
C366 C369 1.386 . S
H367 C383 0.930 . S
H368 C384 0.931 . S
C369 H357 0.929 . S
C369 C363 1.390 . S
C369 C366 1.386 . S
C370 C365 1.490 . S
C370 C372 1.395 . S
C370 C373 1.403 . S
H371 C377 0.930 . S
C372 H358 0.930 . S
C372 C370 1.395 . S
C372 C375 1.403 . S
C373 C370 1.403 . S
C373 C374 1.524 . S
C373 C377 1.400 . S
C374 H359 0.960 . S
C374 H360 0.960 . S
C374 H361 0.960 . S
C374 C373 1.524 . S
C375 C372 1.403 . S
C375 C376 1.392 . S
C375 C379 1.495 . S
C376 C375 1.392 . S
C376 C377 1.385 . S
C376 C378 1.478 . S
C377 H371 0.930 . S
C377 C373 1.400 . S
C377 C376 1.385 . S
C378 C376 1.478 . S
C378 C380 1.381 . S
C378 C384 1.383 . S
C379 C375 1.495 . S
C379 H385 0.959 . S
C379 H386 0.961 . S
C379 H387 0.960 . S
C380 C378 1.381 . S
C380 C381 1.394 . S
C380 H388 0.930 . S
C381 C380 1.394 . S
C381 C382 1.383 . S
C381 H389 0.929 . S
C382 C381 1.383 . S
C382 C383 1.377 . S
C383 H367 0.930 . S
C383 C382 1.377 . S
C383 C384 1.379 . S
C384 H368 0.931 . S
C384 C378 1.383 . S
C384 C383 1.379 . S
H385 C379 0.959 . S
H386 C379 0.961 . S
H387 C379 0.960 . S
H388 C380 0.930 . S
H389 C381 0.929 . S
H390 C398 0.929 . S
H391 C400 0.930 . S
H392 C402 0.930 . S
H393 C405 0.929 . S
H394 C408 0.930 . S
H395 C410 0.960 . S
H396 C410 0.960 . S
H397 C410 0.960 . S
C398 H390 0.929 . S
C398 C399 1.377 . S
C398 C400 1.384 . S
C399 C398 1.377 . S
C399 C405 1.390 . S
C400 H391 0.930 . S
C400 C398 1.384 . S
C400 C401 1.372 . S
C401 C400 1.372 . S
C401 C402 1.400 . S
C401 C406 1.490 . S
C402 H392 0.930 . S
C402 C401 1.400 . S
C402 C405 1.386 . S
H403 C419 0.930 . S
H404 C420 0.931 . S
C405 H393 0.929 . S
C405 C399 1.390 . S
C405 C402 1.386 . S
C406 C401 1.490 . S
C406 C408 1.395 . S
C406 C409 1.403 . S
H407 C413 0.930 . S
C408 H394 0.930 . S
C408 C406 1.395 . S
C408 C411 1.403 . S
C409 C406 1.403 . S
C409 C410 1.524 . S
C409 C413 1.400 . S
C410 H395 0.960 . S
C410 H396 0.960 . S
C410 H397 0.960 . S
C410 C409 1.524 . S
C411 C408 1.403 . S
C411 C412 1.392 . S
C411 C415 1.495 . S
C412 C411 1.392 . S
C412 C413 1.385 . S
C412 C414 1.478 . S
C413 H407 0.930 . S
C413 C409 1.400 . S
C413 C412 1.385 . S
C414 C412 1.478 . S
C414 C416 1.381 . S
C414 C420 1.383 . S
C415 C411 1.495 . S
C415 H421 0.959 . S
C415 H422 0.961 . S
C415 H423 0.960 . S
C416 C414 1.381 . S
C416 C417 1.394 . S
C416 H424 0.930 . S
C417 C416 1.394 . S
C417 C418 1.383 . S
C417 H425 0.929 . S
C418 C417 1.383 . S
C418 C419 1.377 . S
C419 H403 0.930 . S
C419 C418 1.377 . S
C419 C420 1.379 . S
C420 H404 0.931 . S
C420 C414 1.383 . S
C420 C419 1.379 . S
H421 C415 0.959 . S
H422 C415 0.961 . S
H423 C415 0.960 . S
H424 C416 0.930 . S
H425 C417 0.929 . S
H426 C434 0.929 . S
H427 C436 0.930 . S
H428 C438 0.930 . S
H429 C441 0.929 . S
H430 C444 0.930 . S
H431 C446 0.960 . S
H432 C446 0.960 . S
H433 C446 0.960 . S
C434 H426 0.929 . S
C434 C435 1.377 . S
C434 C436 1.384 . S
C435 C434 1.377 . S
C435 C441 1.390 . S
C436 H427 0.930 . S
C436 C434 1.384 . S
C436 C437 1.372 . S
C437 C436 1.372 . S
C437 C438 1.400 . S
C437 C442 1.490 . S
C438 H428 0.930 . S
C438 C437 1.400 . S
C438 C441 1.386 . S
H439 C455 0.930 . S
H440 C456 0.931 . S
C441 H429 0.929 . S
C441 C435 1.390 . S
C441 C438 1.386 . S
C442 C437 1.490 . S
C442 C444 1.395 . S
C442 C445 1.403 . S
H443 C449 0.930 . S
C444 H430 0.930 . S
C444 C442 1.395 . S
C444 C447 1.403 . S
C445 C442 1.403 . S
C445 C446 1.524 . S
C445 C449 1.400 . S
C446 H431 0.960 . S
C446 H432 0.960 . S
C446 H433 0.960 . S
C446 C445 1.524 . S
C447 C444 1.403 . S
C447 C448 1.392 . S
C447 C451 1.495 . S
C448 C447 1.392 . S
C448 C449 1.385 . S
C448 C450 1.478 . S
C449 H443 0.930 . S
C449 C445 1.400 . S
C449 C448 1.385 . S
C450 C448 1.478 . S
C450 C452 1.381 . S
C450 C456 1.383 . S
C451 C447 1.495 . S
C451 H457 0.959 . S
C451 H458 0.961 . S
C451 H459 0.960 . S
C452 C450 1.381 . S
C452 C453 1.394 . S
C452 H460 0.930 . S
C453 C452 1.394 . S
C453 C454 1.383 . S
C453 H461 0.929 . S
C454 C453 1.383 . S
C454 C455 1.377 . S
C455 H439 0.930 . S
C455 C454 1.377 . S
C455 C456 1.379 . S
C456 H440 0.931 . S
C456 C450 1.383 . S
C456 C455 1.379 . S
H457 C451 0.959 . S
H458 C451 0.961 . S
H459 C451 0.960 . S
H460 C452 0.930 . S
H461 C453 0.929 . S
H462 C470 0.929 . S
H463 C472 0.930 . S
H464 C474 0.930 . S
H465 C477 0.929 . S
H466 C480 0.930 . S
H467 C482 0.960 . S
H468 C482 0.960 . S
H469 C482 0.960 . S
C470 H462 0.929 . S
C470 C471 1.377 . S
C470 C472 1.384 . S
C471 C470 1.377 . S
C471 C477 1.390 . S
C472 H463 0.930 . S
C472 C470 1.384 . S
C472 C473 1.372 . S
C473 C472 1.372 . S
C473 C474 1.400 . S
C473 C478 1.490 . S
C474 H464 0.930 . S
C474 C473 1.400 . S
C474 C477 1.386 . S
H475 C491 0.930 . S
H476 C492 0.931 . S
C477 H465 0.929 . S
C477 C471 1.390 . S
C477 C474 1.386 . S
C478 C473 1.490 . S
C478 C480 1.395 . S
C478 C481 1.403 . S
H479 C485 0.930 . S
C480 H466 0.930 . S
C480 C478 1.395 . S
C480 C483 1.403 . S
C481 C478 1.403 . S
C481 C482 1.524 . S
C481 C485 1.400 . S
C482 H467 0.960 . S
C482 H468 0.960 . S
C482 H469 0.960 . S
C482 C481 1.524 . S
C483 C480 1.403 . S
C483 C484 1.392 . S
C483 C487 1.495 . S
C484 C483 1.392 . S
C484 C485 1.385 . S
C484 C486 1.478 . S
C485 H479 0.930 . S
C485 C481 1.400 . S
C485 C484 1.385 . S
C486 C484 1.478 . S
C486 C488 1.381 . S
C486 C492 1.383 . S
C487 C483 1.495 . S
C487 H493 0.959 . S
C487 H494 0.961 . S
C487 H495 0.960 . S
C488 C486 1.381 . S
C488 C489 1.394 . S
C488 H496 0.930 . S
C489 C488 1.394 . S
C489 C490 1.383 . S
C489 H497 0.929 . S
C490 C489 1.383 . S
C490 C491 1.377 . S
C491 H475 0.930 . S
C491 C490 1.377 . S
C491 C492 1.379 . S
C492 H476 0.931 . S
C492 C486 1.383 . S
C492 C491 1.379 . S
H493 C487 0.959 . S
H494 C487 0.961 . S
H495 C487 0.960 . S
H496 C488 0.930 . S
H497 C489 0.929 . S
H498 C506 0.929 . S
H499 C508 0.930 . S
H500 C510 0.930 . S
H501 C513 0.929 . S
H502 C516 0.930 . S
H503 C518 0.960 . S
H504 C518 0.960 . S
H505 C518 0.960 . S
C506 H498 0.929 . S
C506 C507 1.377 . S
C506 C508 1.384 . S
C507 C506 1.377 . S
C507 C513 1.390 . S
C508 H499 0.930 . S
C508 C506 1.384 . S
C508 C509 1.372 . S
C509 C508 1.372 . S
C509 C510 1.400 . S
C509 C514 1.490 . S
C510 H500 0.930 . S
C510 C509 1.400 . S
C510 C513 1.386 . S
H511 C527 0.930 . S
H512 C528 0.931 . S
C513 H501 0.929 . S
C513 C507 1.390 . S
C513 C510 1.386 . S
C514 C509 1.490 . S
C514 C516 1.395 . S
C514 C517 1.403 . S
H515 C521 0.930 . S
C516 H502 0.930 . S
C516 C514 1.395 . S
C516 C519 1.403 . S
C517 C514 1.403 . S
C517 C518 1.524 . S
C517 C521 1.400 . S
C518 H503 0.960 . S
C518 H504 0.960 . S
C518 H505 0.960 . S
C518 C517 1.524 . S
C519 C516 1.403 . S
C519 C520 1.392 . S
C519 C523 1.495 . S
C520 C519 1.392 . S
C520 C521 1.385 . S
C520 C522 1.478 . S
C521 H515 0.930 . S
C521 C517 1.400 . S
C521 C520 1.385 . S
C522 C520 1.478 . S
C522 C524 1.381 . S
C522 C528 1.383 . S
C523 C519 1.495 . S
C523 H529 0.959 . S
C523 H530 0.961 . S
C523 H531 0.960 . S
C524 C522 1.381 . S
C524 C525 1.394 . S
C524 H532 0.930 . S
C525 C524 1.394 . S
C525 C526 1.383 . S
C525 H533 0.929 . S
C526 C525 1.383 . S
C526 C527 1.377 . S
C527 H511 0.930 . S
C527 C526 1.377 . S
C527 C528 1.379 . S
C528 H512 0.931 . S
C528 C522 1.383 . S
C528 C527 1.379 . S
H529 C523 0.959 . S
H530 C523 0.961 . S
H531 C523 0.960 . S
H532 C524 0.930 . S
H533 C525 0.929 . S
H534 C542 0.929 . S
H535 C544 0.930 . S
H536 C546 0.930 . S
H537 C549 0.929 . S
H538 C552 0.930 . S
H539 C554 0.960 . S
H540 C554 0.960 . S
H541 C554 0.960 . S
C542 H534 0.929 . S
C542 C543 1.377 . S
C542 C544 1.384 . S
C543 C542 1.377 . S
C543 C549 1.390 . S
C544 H535 0.930 . S
C544 C542 1.384 . S
C544 C545 1.372 . S
C545 C544 1.372 . S
C545 C546 1.400 . S
C545 C550 1.490 . S
C546 H536 0.930 . S
C546 C545 1.400 . S
C546 C549 1.386 . S
H547 C563 0.930 . S
H548 C564 0.931 . S
C549 H537 0.929 . S
C549 C543 1.390 . S
C549 C546 1.386 . S
C550 C545 1.490 . S
C550 C552 1.395 . S
C550 C553 1.403 . S
H551 C557 0.930 . S
C552 H538 0.930 . S
C552 C550 1.395 . S
C552 C555 1.403 . S
C553 C550 1.403 . S
C553 C554 1.524 . S
C553 C557 1.400 . S
C554 H539 0.960 . S
C554 H540 0.960 . S
C554 H541 0.960 . S
C554 C553 1.524 . S
C555 C552 1.403 . S
C555 C556 1.392 . S
C555 C559 1.495 . S
C556 C555 1.392 . S
C556 C557 1.385 . S
C556 C558 1.478 . S
C557 H551 0.930 . S
C557 C553 1.400 . S
C557 C556 1.385 . S
C558 C556 1.478 . S
C558 C560 1.381 . S
C558 C564 1.383 . S
C559 C555 1.495 . S
C559 H565 0.959 . S
C559 H566 0.961 . S
C559 H567 0.960 . S
C560 C558 1.381 . S
C560 C561 1.394 . S
C560 H568 0.930 . S
C561 C560 1.394 . S
C561 C562 1.383 . S
C561 H569 0.929 . S
C562 C561 1.383 . S
C562 C563 1.377 . S
C563 H547 0.930 . S
C563 C562 1.377 . S
C563 C564 1.379 . S
C564 H548 0.931 . S
C564 C558 1.383 . S
C564 C563 1.379 . S
H565 C559 0.959 . S
H566 C559 0.961 . S
H567 C559 0.960 . S
H568 C560 0.930 . S
H569 C561 0.929 . S
H570 C578 0.929 . S
H571 C580 0.930 . S
H572 C582 0.930 . S
H573 C585 0.929 . S
H574 C588 0.930 . S
H575 C590 0.960 . S
H576 C590 0.960 . S
H577 C590 0.960 . S
C578 H570 0.929 . S
C578 C579 1.377 . S
C578 C580 1.384 . S
C579 C578 1.377 . S
C579 C585 1.390 . S
C580 H571 0.930 . S
C580 C578 1.384 . S
C580 C581 1.372 . S
C581 C580 1.372 . S
C581 C582 1.400 . S
C581 C586 1.490 . S
C582 H572 0.930 . S
C582 C581 1.400 . S
C582 C585 1.386 . S
H583 C599 0.930 . S
H584 C600 0.931 . S
C585 H573 0.929 . S
C585 C579 1.390 . S
C585 C582 1.386 . S
C586 C581 1.490 . S
C586 C588 1.395 . S
C586 C589 1.403 . S
H587 C593 0.930 . S
C588 H574 0.930 . S
C588 C586 1.395 . S
C588 C591 1.403 . S
C589 C586 1.403 . S
C589 C590 1.524 . S
C589 C593 1.400 . S
C590 H575 0.960 . S
C590 H576 0.960 . S
C590 H577 0.960 . S
C590 C589 1.524 . S
C591 C588 1.403 . S
C591 C592 1.392 . S
C591 C595 1.495 . S
C592 C591 1.392 . S
C592 C593 1.385 . S
C592 C594 1.478 . S
C593 H587 0.930 . S
C593 C589 1.400 . S
C593 C592 1.385 . S
C594 C592 1.478 . S
C594 C596 1.381 . S
C594 C600 1.383 . S
C595 C591 1.495 . S
C595 H601 0.959 . S
C595 H602 0.961 . S
C595 H603 0.960 . S
C596 C594 1.381 . S
C596 C597 1.394 . S
C596 H604 0.930 . S
C597 C596 1.394 . S
C597 C598 1.383 . S
C597 H605 0.929 . S
C598 C597 1.383 . S
C598 C599 1.377 . S
C599 H583 0.930 . S
C599 C598 1.377 . S
C599 C600 1.379 . S
C600 H584 0.931 . S
C600 C594 1.383 . S
C600 C599 1.379 . S
H601 C595 0.959 . S
H602 C595 0.961 . S
H603 C595 0.960 . S
H604 C596 0.930 . S
H605 C597 0.929 . S
H606 C614 0.929 . S
H607 C616 0.930 . S
H608 C618 0.930 . S
H609 C621 0.929 . S
H610 C624 0.930 . S
H611 C626 0.960 . S
H612 C626 0.960 . S
H613 C626 0.960 . S
C614 H606 0.929 . S
C614 C615 1.377 . S
C614 C616 1.384 . S
C615 C614 1.377 . S
C615 C621 1.390 . S
C616 H607 0.930 . S
C616 C614 1.384 . S
C616 C617 1.372 . S
C617 C616 1.372 . S
C617 C618 1.400 . S
C617 C622 1.490 . S
C618 H608 0.930 . S
C618 C617 1.400 . S
C618 C621 1.386 . S
H619 C635 0.930 . S
H620 C636 0.931 . S
C621 H609 0.929 . S
C621 C615 1.390 . S
C621 C618 1.386 . S
C622 C617 1.490 . S
C622 C624 1.395 . S
C622 C625 1.403 . S
H623 C629 0.930 . S
C624 H610 0.930 . S
C624 C622 1.395 . S
C624 C627 1.403 . S
C625 C622 1.403 . S
C625 C626 1.524 . S
C625 C629 1.400 . S
C626 H611 0.960 . S
C626 H612 0.960 . S
C626 H613 0.960 . S
C626 C625 1.524 . S
C627 C624 1.403 . S
C627 C628 1.392 . S
C627 C631 1.495 . S
C628 C627 1.392 . S
C628 C629 1.385 . S
C628 C630 1.478 . S
C629 H623 0.930 . S
C629 C625 1.400 . S
C629 C628 1.385 . S
C630 C628 1.478 . S
C630 C632 1.381 . S
C630 C636 1.383 . S
C631 C627 1.495 . S
C631 H637 0.959 . S
C631 H638 0.961 . S
C631 H639 0.960 . S
C632 C630 1.381 . S
C632 C633 1.394 . S
C632 H640 0.930 . S
C633 C632 1.394 . S
C633 C634 1.383 . S
C633 H641 0.929 . S
C634 C633 1.383 . S
C634 C635 1.377 . S
C635 H619 0.930 . S
C635 C634 1.377 . S
C635 C636 1.379 . S
C636 H620 0.931 . S
C636 C630 1.383 . S
C636 C635 1.379 . S
H637 C631 0.959 . S
H638 C631 0.961 . S
H639 C631 0.960 . S
H640 C632 0.930 . S
H641 C633 0.929 . S
H642 C650 0.929 . S
H643 C652 0.930 . S
H644 C654 0.930 . S
H645 C657 0.929 . S
H646 C660 0.930 . S
H647 C662 0.960 . S
H648 C662 0.960 . S
H649 C662 0.960 . S
C650 H642 0.929 . S
C650 C651 1.377 . S
C650 C652 1.384 . S
C651 C650 1.377 . S
C651 C657 1.390 . S
C652 H643 0.930 . S
C652 C650 1.384 . S
C652 C653 1.372 . S
C653 C652 1.372 . S
C653 C654 1.400 . S
C653 C658 1.490 . S
C654 H644 0.930 . S
C654 C653 1.400 . S
C654 C657 1.386 . S
H655 C671 0.930 . S
H656 C672 0.931 . S
C657 H645 0.929 . S
C657 C651 1.390 . S
C657 C654 1.386 . S
C658 C653 1.490 . S
C658 C660 1.395 . S
C658 C661 1.403 . S
H659 C665 0.930 . S
C660 H646 0.930 . S
C660 C658 1.395 . S
C660 C663 1.403 . S
C661 C658 1.403 . S
C661 C662 1.524 . S
C661 C665 1.400 . S
C662 H647 0.960 . S
C662 H648 0.960 . S
C662 H649 0.960 . S
C662 C661 1.524 . S
C663 C660 1.403 . S
C663 C664 1.392 . S
C663 C667 1.495 . S
C664 C663 1.392 . S
C664 C665 1.385 . S
C664 C666 1.478 . S
C665 H659 0.930 . S
C665 C661 1.400 . S
C665 C664 1.385 . S
C666 C664 1.478 . S
C666 C668 1.381 . S
C666 C672 1.383 . S
C667 C663 1.495 . S
C667 H673 0.959 . S
C667 H674 0.961 . S
C667 H675 0.960 . S
C668 C666 1.381 . S
C668 C669 1.394 . S
C668 H676 0.930 . S
C669 C668 1.394 . S
C669 C670 1.383 . S
C669 H677 0.929 . S
C670 C669 1.383 . S
C670 C671 1.377 . S
C671 H655 0.930 . S
C671 C670 1.377 . S
C671 C672 1.379 . S
C672 H656 0.931 . S
C672 C666 1.383 . S
C672 C671 1.379 . S
H673 C667 0.959 . S
H674 C667 0.961 . S
H675 C667 0.960 . S
H676 C668 0.930 . S
H677 C669 0.929 . S
H678 C686 0.929 . S
H679 C688 0.930 . S
H680 C690 0.930 . S
H681 C693 0.929 . S
H682 C696 0.930 . S
H683 C698 0.960 . S
H684 C698 0.960 . S
H685 C698 0.960 . S
C686 H678 0.929 . S
C686 C687 1.377 . S
C686 C688 1.384 . S
C687 C686 1.377 . S
C687 C693 1.390 . S
C688 H679 0.930 . S
C688 C686 1.384 . S
C688 C689 1.372 . S
C689 C688 1.372 . S
C689 C690 1.400 . S
C689 C694 1.490 . S
C690 H680 0.930 . S
C690 C689 1.400 . S
C690 C693 1.386 . S
H691 C707 0.930 . S
H692 C708 0.931 . S
C693 H681 0.929 . S
C693 C687 1.390 . S
C693 C690 1.386 . S
C694 C689 1.490 . S
C694 C696 1.395 . S
C694 C697 1.403 . S
H695 C701 0.930 . S
C696 H682 0.930 . S
C696 C694 1.395 . S
C696 C699 1.403 . S
C697 C694 1.403 . S
C697 C698 1.524 . S
C697 C701 1.400 . S
C698 H683 0.960 . S
C698 H684 0.960 . S
C698 H685 0.960 . S
C698 C697 1.524 . S
C699 C696 1.403 . S
C699 C700 1.392 . S
C699 C703 1.495 . S
C700 C699 1.392 . S
C700 C701 1.385 . S
C700 C702 1.478 . S
C701 H695 0.930 . S
C701 C697 1.400 . S
C701 C700 1.385 . S
C702 C700 1.478 . S
C702 C704 1.381 . S
C702 C708 1.383 . S
C703 C699 1.495 . S
C703 H709 0.959 . S
C703 H710 0.961 . S
C703 H711 0.960 . S
C704 C702 1.381 . S
C704 C705 1.394 . S
C704 H712 0.930 . S
C705 C704 1.394 . S
C705 C706 1.383 . S
C705 H713 0.929 . S
C706 C705 1.383 . S
C706 C707 1.377 . S
C707 H691 0.930 . S
C707 C706 1.377 . S
C707 C708 1.379 . S
C708 H692 0.931 . S
C708 C702 1.383 . S
C708 C707 1.379 . S
H709 C703 0.959 . S
H710 C703 0.961 . S
H711 C703 0.960 . S
H712 C704 0.930 . S
H713 C705 0.929 . S
H714 C722 0.929 . S
H715 C724 0.930 . S
H716 C726 0.930 . S
H717 C729 0.929 . S
H718 C732 0.930 . S
H719 C734 0.960 . S
H720 C734 0.960 . S
H721 C734 0.960 . S
C722 H714 0.929 . S
C722 C723 1.377 . S
C722 C724 1.384 . S
C723 C722 1.377 . S
C723 C729 1.390 . S
C724 H715 0.930 . S
C724 C722 1.384 . S
C724 C725 1.372 . S
C725 C724 1.372 . S
C725 C726 1.400 . S
C725 C730 1.490 . S
C726 H716 0.930 . S
C726 C725 1.400 . S
C726 C729 1.386 . S
H727 C743 0.930 . S
H728 C744 0.931 . S
C729 H717 0.929 . S
C729 C723 1.390 . S
C729 C726 1.386 . S
C730 C725 1.490 . S
C730 C732 1.395 . S
C730 C733 1.403 . S
H731 C737 0.930 . S
C732 H718 0.930 . S
C732 C730 1.395 . S
C732 C735 1.403 . S
C733 C730 1.403 . S
C733 C734 1.524 . S
C733 C737 1.400 . S
C734 H719 0.960 . S
C734 H720 0.960 . S
C734 H721 0.960 . S
C734 C733 1.524 . S
C735 C732 1.403 . S
C735 C736 1.392 . S
C735 C739 1.495 . S
C736 C735 1.392 . S
C736 C737 1.385 . S
C736 C738 1.478 . S
C737 H731 0.930 . S
C737 C733 1.400 . S
C737 C736 1.385 . S
C738 C736 1.478 . S
C738 C740 1.381 . S
C738 C744 1.383 . S
C739 C735 1.495 . S
C739 H745 0.959 . S
C739 H746 0.961 . S
C739 H747 0.960 . S
C740 C738 1.381 . S
C740 C741 1.394 . S
C740 H748 0.930 . S
C741 C740 1.394 . S
C741 C742 1.383 . S
C741 H749 0.929 . S
C742 C741 1.383 . S
C742 C743 1.377 . S
C743 H727 0.930 . S
C743 C742 1.377 . S
C743 C744 1.379 . S
C744 H728 0.931 . S
C744 C738 1.383 . S
C744 C743 1.379 . S
H745 C739 0.959 . S
H746 C739 0.961 . S
H747 C739 0.960 . S
H748 C740 0.930 . S
H749 C741 0.929 . S
H750 C758 0.929 . S
H751 C760 0.930 . S
H752 C762 0.930 . S
H753 C765 0.929 . S
H754 C768 0.930 . S
H755 C770 0.960 . S
H756 C770 0.960 . S
H757 C770 0.960 . S
C758 H750 0.929 . S
C758 C759 1.377 . S
C758 C760 1.384 . S
C759 C758 1.377 . S
C759 C765 1.390 . S
C760 H751 0.930 . S
C760 C758 1.384 . S
C760 C761 1.372 . S
C761 C760 1.372 . S
C761 C762 1.400 . S
C761 C766 1.490 . S
C762 H752 0.930 . S
C762 C761 1.400 . S
C762 C765 1.386 . S
H763 C779 0.930 . S
H764 C780 0.931 . S
C765 H753 0.929 . S
C765 C759 1.390 . S
C765 C762 1.386 . S
C766 C761 1.490 . S
C766 C768 1.395 . S
C766 C769 1.403 . S
H767 C773 0.930 . S
C768 H754 0.930 . S
C768 C766 1.395 . S
C768 C771 1.403 . S
C769 C766 1.403 . S
C769 C770 1.524 . S
C769 C773 1.400 . S
C770 H755 0.960 . S
C770 H756 0.960 . S
C770 H757 0.960 . S
C770 C769 1.524 . S
C771 C768 1.403 . S
C771 C772 1.392 . S
C771 C775 1.495 . S
C772 C771 1.392 . S
C772 C773 1.385 . S
C772 C774 1.478 . S
C773 H767 0.930 . S
C773 C769 1.400 . S
C773 C772 1.385 . S
C774 C772 1.478 . S
C774 C776 1.381 . S
C774 C780 1.383 . S
C775 C771 1.495 . S
C775 H781 0.959 . S
C775 H782 0.961 . S
C775 H783 0.960 . S
C776 C774 1.381 . S
C776 C777 1.394 . S
C776 H784 0.930 . S
C777 C776 1.394 . S
C777 C778 1.383 . S
C777 H785 0.929 . S
C778 C777 1.383 . S
C778 C779 1.377 . S
C779 H763 0.930 . S
C779 C778 1.377 . S
C779 C780 1.379 . S
C780 H764 0.931 . S
C780 C774 1.383 . S
C780 C779 1.379 . S
H781 C775 0.959 . S
H782 C775 0.961 . S
H783 C775 0.960 . S
H784 C776 0.930 . S
H785 C777 0.929 . S
H786 C794 0.929 1_655 S
H787 C796 0.930 1_655 S
H788 C798 0.930 . S
H789 C801 0.929 . S
H790 C804 0.930 . S
H791 C806 0.960 . S
H792 C806 0.960 . S
H793 C806 0.960 . S
C794 H786 0.929 1_455 S
C794 C795 1.377 . S
C794 C796 1.384 . S
C795 C794 1.377 . S
C795 C801 1.390 . S
C796 H787 0.930 1_455 S
C796 C794 1.384 . S
C796 C797 1.372 . S
C797 C796 1.372 . S
C797 C798 1.400 . S
C797 C802 1.490 . S
C798 H788 0.930 . S
C798 C797 1.400 . S
C798 C801 1.386 . S
H799 C815 0.930 . S
H800 C816 0.931 . S
C801 H789 0.929 . S
C801 C795 1.390 . S
C801 C798 1.386 . S
C802 C797 1.490 . S
C802 C804 1.395 1_455 S
C802 C805 1.403 . S
H803 C809 0.930 . S
C804 H790 0.930 . S
C804 C802 1.395 1_655 S
C804 C807 1.403 . S
C805 C802 1.403 . S
C805 C806 1.524 . S
C805 C809 1.400 . S
C806 H791 0.960 . S
C806 H792 0.960 . S
C806 H793 0.960 . S
C806 C805 1.524 . S
C807 C804 1.403 . S
C807 C808 1.392 1_655 S
C807 C811 1.495 . S
C808 C807 1.392 1_455 S
C808 C809 1.385 . S
C808 C810 1.478 . S
C809 H803 0.930 . S
C809 C805 1.400 . S
C809 C808 1.385 . S
C810 C808 1.478 . S
C810 C812 1.381 . S
C810 C816 1.383 . S
C811 C807 1.495 . S
C811 H817 0.959 . S
C811 H818 0.961 . S
C811 H819 0.960 . S
C812 C810 1.381 . S
C812 C813 1.394 1_554 S
C812 H820 0.930 . S
C813 C812 1.394 1_556 S
C813 C814 1.383 . S
C813 H821 0.929 . S
C814 C813 1.383 . S
C814 C815 1.377 . S
C815 H799 0.930 . S
C815 C814 1.377 . S
C815 C816 1.379 1_556 S
C816 H800 0.931 . S
C816 C810 1.383 . S
C816 C815 1.379 1_554 S
H817 C811 0.959 . S
H818 C811 0.961 . S
H819 C811 0.960 . S
H820 C812 0.930 . S
H821 C813 0.929 . S
H822 C830 0.929 . S
H823 C832 0.930 . S
H824 C834 0.930 . S
H825 C837 0.908 1_565 S
H826 C840 0.930 . S
H827 C842 0.960 . S
H828 C842 0.960 . S
H829 C842 0.960 . S
C830 H822 0.929 . S
C830 C831 1.377 . S
C830 C832 1.384 . S
C831 C830 1.377 . S
C831 C837 1.390 . S
C832 H823 0.930 . S
C832 C830 1.384 . S
C832 C833 1.372 . S
C833 C832 1.372 . S
C833 C834 1.400 . S
C833 C838 1.490 . S
C834 H824 0.930 . S
C834 C833 1.400 . S
C834 C837 1.386 . S
H835 C851 0.930 . S
H836 C852 0.931 . S
C837 H825 0.908 1_545 S
C837 C831 1.390 . S
C837 C834 1.386 . S
C838 C833 1.490 . S
C838 C840 1.395 . S
C838 C841 1.403 . S
H839 C845 0.930 . S
C840 H826 0.930 . S
C840 C838 1.395 . S
C840 C843 1.403 . S
C841 C838 1.403 . S
C841 C842 1.524 . S
C841 C845 1.400 . S
C842 H827 0.960 . S
C842 H828 0.960 . S
C842 H829 0.960 . S
C842 C841 1.524 . S
C843 C840 1.403 . S
C843 C844 1.392 . S
C843 C847 1.495 . S
C844 C843 1.392 . S
C844 C845 1.385 . S
C844 C846 1.478 . S
C845 H839 0.930 . S
C845 C841 1.400 . S
C845 C844 1.385 . S
C846 C844 1.478 . S
C846 C848 1.381 . S
C846 C852 1.383 . S
C847 C843 1.495 . S
C847 H853 0.959 . S
C847 H854 0.961 . S
C847 H855 0.960 . S
C848 C846 1.381 . S
C848 C849 1.394 . S
C848 H856 0.930 . S
C849 C848 1.394 . S
C849 C850 1.383 . S
C849 H857 0.929 . S
C850 C849 1.383 . S
C850 C851 1.377 . S
C851 H835 0.930 . S
C851 C850 1.377 . S
C851 C852 1.379 . S
C852 H836 0.931 . S
C852 C846 1.383 . S
C852 C851 1.379 . S
H853 C847 0.959 . S
H854 C847 0.961 . S
H855 C847 0.960 . S
H856 C848 0.930 . S
H857 C849 0.929 . S
H858 C866 0.929 . S
H859 C868 0.930 . S
H860 C870 0.930 . S
H861 C873 0.929 . S
H862 C876 0.930 . S
H863 C878 0.960 . S
H864 C878 0.960 . S
H865 C878 0.960 . S
C866 H858 0.929 . S
C866 C867 1.377 . S
C866 C868 1.384 . S
C867 C866 1.377 . S
C867 C873 1.390 . S
C868 H859 0.930 . S
C868 C866 1.384 . S
C868 C869 1.372 . S
C869 C868 1.372 . S
C869 C870 1.400 . S
C869 C874 1.490 . S
C870 H860 0.930 . S
C870 C869 1.400 . S
C870 C873 1.386 . S
H871 C887 0.930 . S
H872 C888 0.931 . S
C873 H861 0.929 . S
C873 C867 1.390 . S
C873 C870 1.386 . S
C874 C869 1.490 . S
C874 C876 1.395 . S
C874 C877 1.403 . S
H875 C881 0.930 . S
C876 H862 0.930 . S
C876 C874 1.395 . S
C876 C879 1.403 . S
C877 C874 1.403 . S
C877 C878 1.524 . S
C877 C881 1.400 . S
C878 H863 0.960 . S
C878 H864 0.960 . S
C878 H865 0.960 . S
C878 C877 1.524 . S
C879 C876 1.403 . S
C879 C880 1.392 . S
C879 C883 1.495 . S
C880 C879 1.392 . S
C880 C881 1.385 . S
C880 C882 1.478 . S
C881 H875 0.930 . S
C881 C877 1.400 . S
C881 C880 1.385 . S
C882 C880 1.478 . S
C882 C884 1.381 . S
C882 C888 1.383 . S
C883 C879 1.495 . S
C883 H889 0.959 . S
C883 H890 0.961 . S
C883 H891 0.960 . S
C884 C882 1.381 . S
C884 C885 1.394 . S
C884 H892 0.930 . S
C885 C884 1.394 . S
C885 C886 1.383 . S
C885 H893 0.929 . S
C886 C885 1.383 . S
C886 C887 1.377 . S
C887 H871 0.930 . S
C887 C886 1.377 . S
C887 C888 1.379 . S
C888 H872 0.931 . S
C888 C882 1.383 . S
C888 C887 1.379 . S
H889 C883 0.959 . S
H890 C883 0.961 . S
H891 C883 0.960 . S
H892 C884 0.930 . S
H893 C885 0.929 . S
H894 C902 0.929 . S
H895 C904 0.930 . S
H896 C906 0.930 . S
H897 C909 0.929 . S
H898 C912 0.930 . S
H899 C914 0.960 . S
H900 C914 0.960 . S
H901 C914 0.960 . S
C902 H894 0.929 . S
C902 C903 1.377 . S
C902 C904 1.384 . S
C903 C902 1.377 . S
C903 C909 1.390 . S
C904 H895 0.930 . S
C904 C902 1.384 . S
C904 C905 1.372 . S
C905 C904 1.372 . S
C905 C906 1.400 . S
C905 C910 1.490 . S
C906 H896 0.930 . S
C906 C905 1.400 . S
C906 C909 1.386 . S
H907 C923 0.930 . S
H908 C924 0.931 . S
C909 H897 0.929 . S
C909 C903 1.390 . S
C909 C906 1.386 . S
C910 C905 1.490 . S
C910 C912 1.395 . S
C910 C913 1.403 1_545 S
H911 C917 0.930 . S
C912 H898 0.930 . S
C912 C910 1.395 . S
C912 C915 1.403 . S
C913 C910 1.403 1_565 S
C913 C914 1.524 . S
C913 C917 1.400 . S
C914 H899 0.960 . S
C914 H900 0.960 . S
C914 H901 0.960 . S
C914 C913 1.524 . S
C915 C912 1.403 . S
C915 C916 1.392 . S
C915 C919 1.495 . S
C916 C915 1.392 . S
C916 C917 1.385 1_545 S
C916 C918 1.478 . S
C917 H911 0.930 . S
C917 C913 1.400 . S
C917 C916 1.385 1_565 S
C918 C916 1.478 . S
C918 C920 1.381 . S
C918 C924 1.383 . S
C919 C915 1.495 . S
C919 H925 0.959 . S
C919 H926 0.961 . S
C919 H927 0.960 . S
C920 C918 1.381 . S
C920 C921 1.394 . S
C920 H928 0.930 . S
C921 C920 1.394 . S
C921 C922 1.383 . S
C921 H929 0.929 . S
C922 C921 1.383 . S
C922 C923 1.377 . S
C923 H907 0.930 . S
C923 C922 1.377 . S
C923 C924 1.379 . S
C924 H908 0.931 . S
C924 C918 1.383 . S
C924 C923 1.379 . S
H925 C919 0.959 . S
H926 C919 0.961 . S
H927 C919 0.960 . S
H928 C920 0.930 . S
H929 C921 0.929 . S
H930 C938 0.929 . S
H931 C940 0.930 . S
H932 C942 0.930 . S
H933 C945 0.929 . S
H934 C948 0.930 . S
H935 C950 0.960 . S
H936 C950 0.960 . S
H937 C950 0.960 . S
C938 H930 0.929 . S
C938 C939 1.377 . S
C938 C940 1.384 . S
C939 C938 1.377 . S
C939 C945 1.390 . S
C940 H931 0.930 . S
C940 C938 1.384 . S
C940 C941 1.372 . S
C941 C940 1.372 . S
C941 C942 1.400 . S
C941 C946 1.490 . S
C942 H932 0.930 . S
C942 C941 1.400 . S
C942 C945 1.386 . S
H943 C959 0.930 . S
H944 C960 0.931 . S
C945 H933 0.929 . S
C945 C939 1.390 . S
C945 C942 1.386 . S
C946 C941 1.490 . S
C946 C948 1.395 . S
C946 C949 1.403 . S
H947 C953 0.930 . S
C948 H934 0.930 . S
C948 C946 1.395 . S
C948 C951 1.403 . S
C949 C946 1.403 . S
C949 C950 1.524 . S
C949 C953 1.400 . S
C950 H935 0.960 . S
C950 H936 0.960 . S
C950 H937 0.960 . S
C950 C949 1.524 . S
C951 C948 1.403 . S
C951 C952 1.392 . S
C951 C955 1.495 . S
C952 C951 1.392 . S
C952 C953 1.385 . S
C952 C954 1.478 . S
C953 H947 0.930 . S
C953 C949 1.400 . S
C953 C952 1.385 . S
C954 C952 1.478 . S
C954 C956 1.381 . S
C954 C960 1.383 . S
C955 C951 1.495 . S
C955 H961 0.959 . S
C955 H962 0.961 . S
C955 H963 0.960 . S
C956 C954 1.381 . S
C956 C957 1.394 1_556 S
C956 H964 0.930 . S
C957 C956 1.394 1_554 S
C957 C958 1.383 . S
C957 H965 0.929 . S
C958 C957 1.383 . S
C958 C959 1.377 . S
C959 H943 0.930 . S
C959 C958 1.377 . S
C959 C960 1.379 1_554 S
C960 H944 0.931 . S
C960 C954 1.383 . S
C960 C959 1.379 1_556 S
H961 C955 0.959 . S
H962 C955 0.961 . S
H963 C955 0.960 . S
H964 C956 0.930 . S
H965 C957 0.929 . S
H966 C974 0.929 . S
H967 C976 0.930 . S
H968 C978 0.930 . S
H969 C981 0.929 . S
H970 C984 0.930 . S
H971 C986 0.960 . S
H972 C986 0.960 . S
H973 C986 0.960 . S
C974 H966 0.929 . S
C974 C975 1.377 . S
C974 C976 1.384 . S
C975 C974 1.377 . S
C975 C981 1.390 1_455 S
C976 H967 0.930 . S
C976 C974 1.384 . S
C976 C977 1.372 . S
C977 C976 1.372 . S
C977 C978 1.400 1_455 S
C977 C982 1.490 . S
C978 H968 0.930 . S
C978 C977 1.400 1_655 S
C978 C981 1.386 . S
H979 C995 0.930 . S
H980 C996 0.931 . S
C981 H969 0.929 . S
C981 C975 1.390 1_655 S
C981 C978 1.386 . S
C982 C977 1.490 . S
C982 C984 1.395 . S
C982 C985 1.403 1_455 S
H983 C989 0.930 . S
C984 H970 0.930 . S
C984 C982 1.395 . S
C984 C987 1.403 . S
C985 C982 1.403 1_655 S
C985 C986 1.524 . S
C985 C989 1.400 . S
C986 H971 0.960 . S
C986 H972 0.960 . S
C986 H973 0.960 . S
C986 C985 1.524 . S
C987 C984 1.403 . S
C987 C988 1.392 . S
C987 C991 1.495 . S
C988 C987 1.392 . S
C988 C989 1.385 1_455 S
C988 C990 1.478 . S
C989 H983 0.930 . S
C989 C985 1.400 . S
C989 C988 1.385 1_655 S
C990 C988 1.478 . S
C990 C992 1.381 . S
C990 C996 1.383 1_455 S
C991 C987 1.495 . S
C991 H997 0.959 . S
C991 H998 0.961 . S
C991 H999 0.960 . S
C992 C990 1.381 . S
C992 C993 1.394 . S
C992 H1000 0.930 . S
C993 C992 1.394 . S
C993 C994 1.383 . S
C993 H1001 0.929 . S
C994 C993 1.383 . S
C994 C995 1.377 1_455 S
C995 H979 0.930 . S
C995 C994 1.377 1_655 S
C995 C996 1.379 . S
C996 H980 0.931 . S
C996 C990 1.383 1_655 S
C996 C995 1.379 . S
H997 C991 0.959 . S
H998 C991 0.961 . S
H999 C991 0.960 . S
H1000 C992 0.930 . S
H1001 C993 0.929 . S
C363 C24 2.859 . S
C382 C331 2.812 . S
C399 C66 1.040 . S
C418 C258 1.036 . S
C435 C93 1.733 . S
C454 C297 1.690 . S
C471 C13 2.996 . S
C490 C336 2.953 . S
C526 C253 1.225 . S
C507 C57 1.234 . S
C562 C292 1.875 . S
C543 C104 1.904 . S
C579 C64 1.902 . S
C598 C180 1.848 . S
C615 C97 0.375 . S
C634 C214 0.360 . S
C651 C17 1.203 . S
C670 C136 1.206 . S
C706 C175 1.698 . S
C687 C53 1.733 . S
C742 C219 0.216 . S
C723 C106 0.293 . S
C759 C26 1.058 . S
C778 C141 1.049 . S
C814 C199 1.090 . S
C795 C2 1.078 . S
C831 C63 1.462 . S
C850 C121 1.502 . S
C867 C82 1.374 . S
C886 C160 1.388 . S
C922 C277 1.404 . S
C903 C42 1.387 . S
C958 C316 1.780 . S
C939 C103 1.729 . S
C975 C23 1.472 . S
C994 C238 1.500 . S
