# Generated by pormake.
# Topology rtl, (3,6)-cn, num edge types: 1
# Building blocks:
#     Node 0, Type 0, BuildingBlock: CUQRIR_clean_linker_1, # of connection points: 3
#     Node 1, Type 0, BuildingBlock: CUQRIR_clean_linker_1, # of connection points: 3
#     Node 2, Type 0, BuildingBlock: CUQRIR_clean_linker_1, # of connection points: 3
#     Node 3, Type 0, BuildingBlock: CUQRIR_clean_linker_1, # of connection points: 3
#     Node 4, Type 1, BuildingBlock: LEVNOQ01_clean_sbu_1, # of connection points: 6
#     Node 5, Type 1, BuildingBlock: LEVNOQ01_clean_sbu_1, # of connection points: 6
#     Edge 6, Type (0, 1), BuildingBlock: XUDNAN_clean_linker_2, # of connection points: 2
#     Edge 7, Type (0, 1), BuildingBlock: XUDNAN_clean_linker_2, # of connection points: 2
#     Edge 8, Type (0, 1), BuildingBlock: XUDNAN_clean_linker_2, # of connection points: 2
#     Edge 9, Type (0, 1), BuildingBlock: XUDNAN_clean_linker_2, # of connection points: 2
#     Edge 10, Type (0, 1), BuildingBlock: XUDNAN_clean_linker_2, # of connection points: 2
#     Edge 11, Type (0, 1), BuildingBlock: XUDNAN_clean_linker_2, # of connection points: 2
#     Edge 12, Type (0, 1), BuildingBlock: XUDNAN_clean_linker_2, # of connection points: 2
#     Edge 13, Type (0, 1), BuildingBlock: XUDNAN_clean_linker_2, # of connection points: 2
#     Edge 14, Type (0, 1), BuildingBlock: XUDNAN_clean_linker_2, # of connection points: 2
#     Edge 15, Type (0, 1), BuildingBlock: XUDNAN_clean_linker_2, # of connection points: 2
#     Edge 16, Type (0, 1), BuildingBlock: XUDNAN_clean_linker_2, # of connection points: 2
#     Edge 17, Type (0, 1), BuildingBlock: XUDNAN_clean_linker_2, # of connection points: 2
# Relax obj value: 0.023
# Max RMSD: 0.124
# Mean RMSD: 0.102
data_MOF--net-rtl--node1-LEVNOQ01_clean_sbu_1--node2-CUQRIR_clean_linker_1--edge1-XUDNAN_clean_linker_2
_symmetry_space_group_name_H-M    P1
_symmetry_Int_Tables_number       1
_symmetry_cell_setting            triclinic
loop_
_symmetry_equiv_pos_as_xyz
'x, y, z'
_cell_length_a     35.010536
_cell_length_b     33.777531
_cell_length_c     19.120045
_cell_angle_alpha  89.493372
_cell_angle_beta   98.369849
_cell_angle_gamma 90.079335
loop_
_atom_site_label
_atom_site_type_symbol
_atom_site_fract_x
_atom_site_fract_y
_atom_site_fract_z
_atom_type_partial_charge
C0 C 0.19097 0.77136 0.08688 0.0
N1 N 0.16529 0.80042 0.09405 0.0
N2 N 0.19962 0.75057 0.14816 0.0
C3 C 0.20916 0.76453 1.02146 0.0
C4 C 0.17836 0.76814 0.19299 0.0
N5 N 0.15785 0.79881 0.16033 0.0
C6 C 0.17835 0.75599 0.26893 0.0
H7 H 0.21831 0.73323 1.01845 0.0
H8 H 0.23505 0.7837 1.0233 0.0
H9 H 0.18902 0.7723 0.9731 0.0
H10 H 0.18648 0.72454 0.27836 0.0
H11 H 0.14953 0.76094 0.28495 0.0
H12 H 0.19979 0.77422 0.30301 0.0
C13 C 0.70088 0.72006 0.70463 0.0
N14 N 0.66912 0.70082 0.67331 0.0
N15 N 0.71978 0.73773 0.65579 0.0
C16 C 0.71325 0.72139 0.7833 0.0
C17 C 0.69812 0.72841 0.59327 0.0
N18 N 0.66722 0.70602 0.60388 0.0
C19 C 0.70467 0.7448 0.52247 0.0
H20 H 0.69819 0.74619 0.80542 0.0
H21 H 0.74488 0.72589 0.79619 0.0
H22 H 0.70512 0.69356 0.80868 0.0
H23 H 0.7248 0.72507 0.49947 0.0
H24 H 0.71766 0.77478 0.528 0.0
H25 H 0.67721 0.74648 0.48537 0.0
C26 C 0.74611 0.21281 0.06505 0.0
N27 N 0.77289 0.18599 0.05207 0.0
N28 N 0.72659 0.22722 1.00361 0.0
C29 C 0.74011 0.22628 0.13754 0.0
C30 C 0.74253 0.20824 0.95288 0.0
N31 N 0.77073 0.18332 0.98236 0.0
C32 C 0.73097 0.21468 0.87475 0.0
H33 H 0.7107 0.23858 0.13697 0.0
H34 H 0.76156 0.24965 0.15522 0.0
H35 H 0.74441 0.20169 0.17656 0.0
H36 H 0.72234 0.24594 0.86333 0.0
H37 H 0.70576 0.19559 0.85639 0.0
H38 H 0.75463 0.20685 0.84465 0.0
C39 C 0.28496 0.26485 0.46081 0.0
N40 N 0.31213 0.28868 0.49688 0.0
N41 N 0.26434 0.24591 0.50582 0.0
C42 C 0.281 0.25706 0.38274 0.0
C43 C 0.28002 0.25901 0.57054 0.0
N44 N 0.3093 0.28451 0.56522 0.0
C45 C 0.26466 0.24959 0.63838 0.0
H46 H 0.26075 0.27899 0.35419 0.0
H47 H 0.26931 0.22697 0.37037 0.0
H48 H 0.30925 0.26 0.36338 0.0
H49 H 0.28004 0.2233 0.66371 0.0
H50 H 0.23331 0.24292 0.62829 0.0
H51 H 0.26956 0.27465 0.67575 0.0
O52 O 0.96719 0.09413 0.66976 0.0
Mg53 Mg 0.01428 0.05865 0.65657 0.0
O54 O 0.94537 0.03392 0.65425 0.0
Mg55 Mg -0.01638 0.00151 0.57766 0.0
O56 O 0.03179 0.05045 0.55973 0.0
O57 O 0.05785 0.0944 0.6412 0.0
O58 O 0.01593 0.96516 0.4989 0.0
O59 O 0.94851 0.04052 0.48212 0.0
Mg60 Mg 0.92963 0.97294 0.49889 0.0
O61 O 0.93909 0.94855 0.59777 0.0
O62 O 0.96408 0.96107 0.42042 0.0
O63 O 0.88961 0.01884 0.47688 0.0
O64 O 0.90027 0.92255 0.50528 0.0
C65 C 0.03865 0.98395 0.73145 0.0
C66 C 0.94152 0.06893 0.67688 0.0
C67 C 0.05632 0.07877 0.57973 0.0
C68 C -2e-05 0.95609 0.43683 0.0
C69 C 0.91258 0.04429 0.45852 0.0
C70 C 0.91412 0.92191 0.57139 0.0
O71 O 0.03617 0.02083 0.74028 0.0
O72 O 0.02295 0.96877 0.67321 0.0
O73 O 0.56229 0.54275 0.17496 0.0
Mg74 Mg 0.53406 0.48831 0.1611 0.0
O75 O 0.50116 0.5501 0.17789 0.0
Mg76 Mg 0.47594 0.50534 0.08242 0.0
O77 O 0.52892 0.46084 0.0663 0.0
O78 O 0.57735 0.45057 0.15544 0.0
O79 O 0.44732 0.46279 0.99011 0.0
O80 O 0.50513 0.54867 1.00557 0.0
Mg81 Mg 0.42157 0.54534 0.98528 0.0
O82 O 0.42034 0.54502 0.09273 0.0
O83 O 0.40369 0.4974 0.92145 0.0
O84 O 0.45867 0.5852 0.94803 0.0
O85 O 0.37612 0.57422 1.01058 0.0
C86 C 0.46892 0.45368 0.22333 0.0
C87 C 0.53579 0.56192 0.19678 0.0
C88 C 0.56124 0.44337 0.09201 0.0
C89 C 0.4213 0.46519 0.93585 0.0
C90 C 0.49405 0.57719 0.96302 0.0
C91 C 0.38916 0.56635 0.07573 0.0
O92 O 0.50362 0.46459 0.24031 0.0
O93 O 0.45124 0.46266 0.16215 0.0
H94 H 0.25728 0.17473 0.56789 0.0
H95 H 0.20011 0.25518 0.40918 0.0
H96 H 0.14304 0.21087 0.39159 0.0
H97 H 0.21346 0.07995 0.49372 0.0
H98 H 0.20894 0.06113 0.58065 0.0
H99 H 0.24801 0.09416 0.56862 0.0
H100 H 0.22724 0.14177 0.66194 0.0
H101 H 0.18858 0.10876 0.67468 0.0
H102 H 0.17827 0.15981 0.6509 0.0
H103 H 0.0887 0.16281 0.40492 0.0
H104 H 0.04147 0.12024 0.45532 0.0
H105 H 0.13343 0.07391 0.60978 0.0
C106 C 0.23298 0.18249 0.52848 0.0
C107 C 0.23303 0.21811 0.48952 0.0
C108 C 0.20077 0.2276 0.43858 0.0
C109 C 0.16831 0.20259 0.42834 0.0
C110 C 0.16867 0.16815 0.4694 0.0
C111 C 0.20029 0.15822 0.51861 0.0
C112 C 0.19175 0.12311 0.56343 0.0
C113 C 0.21705 0.08747 0.55082 0.0
C114 C 0.19672 0.13403 0.64235 0.0
C115 C 0.14987 0.11575 0.534 0.0
C116 C 0.13723 0.14121 0.47838 0.0
C117 C 0.09852 0.14215 0.44728 0.0
C118 C 0.07191 0.11769 0.4757 0.0
C119 C 0.08422 0.09326 0.53502 0.0
C120 C 0.12373 0.09146 0.56285 0.0
H121 H 0.27587 0.7538 0.14145 0.0
H122 H 0.18422 0.6753 0.18367 0.0
H123 H 0.23033 0.61914 0.19983 0.0
H124 H 0.31529 0.68983 1.03401 0.0
H125 H 0.36478 0.70435 0.06105 0.0
H126 H 0.32652 0.73867 0.06836 0.0
H127 H 0.35223 0.74671 0.20178 0.0
H128 H 0.39022 0.7116 0.19484 0.0
H129 H 0.35778 0.70363 0.25867 0.0
H130 H 0.28348 0.57032 0.19212 0.0
H131 H 0.33587 0.53293 0.14832 0.0
H132 H 0.39303 0.64287 0.11043 0.0
C133 C 0.26601 0.72489 0.15598 0.0
C134 C 0.22695 0.71872 0.163 0.0
C135 C 0.21438 0.68051 0.18 0.0
C136 C 0.24038 0.64862 0.18939 0.0
C137 C 0.27886 0.65552 0.18156 0.0
C138 C 0.29156 0.69279 0.16493 0.0
C139 C 0.33263 0.6915 0.14908 0.0
C140 C 0.33491 0.70696 0.07368 0.0
C141 C 0.35982 0.71474 0.20441 0.0
C142 C 0.34052 0.64745 0.15597 0.0
C143 C 0.30958 0.62722 0.17667 0.0
C144 C 0.30834 0.58586 0.17798 0.0
C145 C 0.33839 0.56476 0.15384 0.0
C146 C 0.36897 0.58514 0.12867 0.0
C147 C 0.37081 0.62676 0.13272 0.0
H148 H 0.78312 0.73595 0.58989 0.0
H149 H 0.72985 0.79989 0.74542 0.0
H150 H 0.78432 0.84715 0.76018 0.0
H151 H 0.88635 0.75571 0.66077 0.0
H152 H 0.89885 0.76315 0.57342 0.0
H153 H 0.86057 0.72941 0.58685 0.0
H154 H 0.81315 0.76756 0.49305 0.0
H155 H 0.85136 0.80084 0.47873 0.0
H156 H 0.80706 0.82014 0.50252 0.0
H157 H 0.84066 0.89201 0.74755 0.0
H158 H 0.88718 0.93493 0.69636 0.0
H159 H 0.90023 0.84475 0.54211 0.0
C160 C 0.78338 0.75954 0.62788 0.0
C161 C 0.75276 0.7638 0.66764 0.0
C162 C 0.75368 0.79534 0.71617 0.0
C163 C 0.78449 0.82236 0.72477 0.0
C164 C 0.81406 0.81767 0.68394 0.0
C165 C 0.81345 0.78722 0.63581 0.0
C166 C 0.84513 0.79207 0.59043 0.0
C167 C 0.87447 0.75806 0.6037 0.0
C168 C 0.82816 0.79538 0.51157 0.0
C169 C 0.86274 0.83079 0.61856 0.0
C170 C 0.84534 0.84451 0.67409 0.0
C171 C 0.85494 0.88124 0.70493 0.0
C172 C 0.88163 0.90531 0.67605 0.0
C173 C 0.89752 0.89276 0.61613 0.0
C174 C 0.889 0.85454 0.58895 0.0
H175 H 0.73466 0.30078 0.05645 0.0
H176 H 0.65409 0.2229 0.93187 0.0
H177 H 0.60332 0.27478 0.92499 0.0
H178 H 0.67015 0.33629 0.16191 0.0
H179 H 0.68958 0.38579 0.1686 0.0
H180 H 0.72009 0.34496 0.15344 0.0
H181 H 0.73707 0.38016 0.04081 0.0
H182 H 0.70633 0.4211 0.05547 0.0
H183 H 0.69883 0.39542 0.97236 0.0
H184 H 0.55964 0.33378 0.94353 0.0
H185 H 0.52742 0.39115 0.99091 0.0
H186 H 0.63758 0.42819 0.10501 0.0
C187 C 0.70643 0.29503 1.02697 0.0
C188 C 0.69801 0.25816 0.99464 0.0
C189 C 0.66091 0.25131 0.95638 0.0
C190 C 0.63206 0.28056 0.95225 0.0
C191 C 0.64104 0.31652 0.98627 0.0
C192 C 0.67749 0.32372 1.02276 0.0
C193 C 0.67922 0.36291 0.06042 0.0
C194 C 0.69039 0.35712 0.14082 0.0
C195 C 0.70701 0.39159 1.03044 0.0
C196 C 0.63779 0.37623 0.04152 0.0
C197 C 0.61616 0.34964 0.99765 0.0
C198 C 0.57648 0.35502 0.9771 0.0
C199 C 0.55841 0.38773 1.00387 0.0
C200 C 0.58007 0.41401 0.05144 0.0
C201 C 0.62032 0.40862 0.06849 0.0
H202 H 0.16975 0.83905 0.2851 0.0
H203 H 0.08508 0.81523 0.10138 0.0
H204 H 0.03849 0.8588 0.14821 0.0
H205 H 0.10215 0.83349 0.40856 0.0
H206 H 0.12484 0.87167 0.46548 0.0
H207 H 0.15327 0.8424 0.41399 0.0
H208 H 0.17709 0.90642 0.3585 0.0
H209 H 0.14849 0.93592 0.40949 0.0
H210 H 0.14231 0.94112 0.3146 0.0
H211 H 0.001 0.90236 0.21441 0.0
H212 H 0.97073 0.93894 0.30139 0.0
H213 H 0.0767 0.93085 0.45096 0.0
C214 C 0.14131 0.84291 0.25514 0.0
C215 C 0.13098 0.82411 0.1892 0.0
C216 C 0.0937 0.8301 0.15109 0.0
C217 C 0.06709 0.85464 0.17742 0.0
C218 C 0.07803 0.87253 0.24262 0.0
C219 C 0.11398 0.86666 0.28162 0.0
C220 C 0.11699 0.88709 0.35277 0.0
C221 C 0.12476 0.85686 0.41381 0.0
C222 C 0.14807 0.91957 0.35919 0.0
C223 C 0.07683 0.9048 0.34791 0.0
C224 C 0.05534 0.89651 0.28313 0.0
C225 C 0.01743 0.90901 0.26538 0.0
C226 C 0.00051 0.92981 0.31558 0.0
C227 C 0.02117 0.93764 0.38364 0.0
C228 C 0.06017 0.92545 0.39954 0.0
H229 H 0.65708 0.62629 0.72024 0.0
H230 H 0.61454 0.74661 0.71283 0.0
H231 H 0.56727 0.72805 0.79187 0.0
H232 H 0.56341 0.57756 0.72472 0.0
H233 H 0.58347 0.53917 0.78516 0.0
H234 H 0.61258 0.56163 0.72531 0.0
H235 H 0.66423 0.5793 0.83165 0.0
H236 H 0.63493 0.55759 0.89196 0.0
H237 H 0.65064 0.6083 0.90281 0.0
H238 H 0.52666 0.69788 0.87224 0.0
H239 H 0.48964 0.65605 0.94425 0.0
H240 H 0.55831 0.55404 0.90454 0.0
C241 C 0.63701 0.64818 0.73425 0.0
C242 C 0.63833 0.68762 0.70968 0.0
C243 C 0.61289 0.71616 0.73034 0.0
C244 C 0.58638 0.70593 0.77547 0.0
C245 C 0.58607 0.66702 0.79998 0.0
C246 C 0.61032 0.63837 0.7798 0.0
C247 C 0.60392 0.59885 0.81493 0.0
C248 C 0.59001 0.56744 0.75921 0.0
C249 C 0.64062 0.58522 0.8632 0.0
C250 C 0.57226 0.60988 0.85777 0.0
C251 C 0.56274 0.64948 0.84828 0.0
C252 C 0.53382 0.66685 0.88024 0.0
C253 C 0.51307 0.64289 0.9212 0.0
C254 C 0.52137 0.60201 0.9303 0.0
C255 C 0.55196 0.58539 0.89951 0.0
H256 H 0.75808 0.13104 0.14748 0.0
H257 H 0.84987 0.19813 0.07396 0.0
H258 H 0.89675 0.1707 0.17273 0.0
H259 H 0.78843 0.14509 0.33083 0.0
H260 H 0.77489 0.0962 0.35674 0.0
H261 H 0.74964 0.11911 0.27795 0.0
H262 H 0.76537 0.05911 0.20345 0.0
H263 H 0.79009 0.0357 0.2822 0.0
H264 H 0.81482 0.04347 0.20687 0.0
H265 H 0.93264 0.13734 0.28415 0.0
H266 H 0.95526 0.09735 0.39141 0.0
H267 H 0.83849 0.05415 0.3922 0.0
C268 C 0.7882 0.13942 0.15208 0.0
C269 C 0.80072 0.1665 0.1038 0.0
C270 C 0.84014 0.17711 0.11064 0.0
C271 C 0.86672 0.16192 0.1667 0.0
C272 C 0.85322 0.13615 0.21514 0.0
C273 C 0.81489 0.12472 0.2078 0.0
C274 C 0.80738 0.0972 0.26713 0.0
C275 C 0.77837 0.11551 0.31073 0.0
C276 C 0.79362 0.05646 0.23817 0.0
C277 C 0.8474 0.09491 0.30933 0.0
C278 C 0.87353 0.11756 0.2788 0.0
C279 C 0.91237 0.11949 0.30838 0.0
C280 C 0.92493 0.09686 0.36959 0.0
C281 C 0.89871 0.07266 0.40056 0.0
C282 C 0.85934 0.07245 0.37034 0.0
H283 H 0.31635 0.36345 0.58477 0.0
H284 H 0.35345 0.2499 0.67623 0.0
H285 H 0.39008 0.28346 0.7801 0.0
H286 H 0.40555 0.41801 0.64713 0.0
H287 H 0.37984 0.46233 0.66382 0.0
H288 H 0.35962 0.42908 0.59498 0.0
H289 H 0.29712 0.42349 0.65239 0.0
H290 H 0.31718 0.45651 0.72151 0.0
H291 H 0.30034 0.40818 0.74364 0.0
H292 H 0.4206 0.33041 0.87664 0.0
H293 H 0.44008 0.38607 0.95814 0.0
H294 H 0.38082 0.468 0.80299 0.0
C295 C 0.33278 0.34592 0.62631 0.0
C296 C 0.33249 0.30431 0.623 0.0
C297 C 0.35358 0.28191 0.67848 0.0
C298 C 0.37447 0.30071 0.73727 0.0
C299 C 0.37383 0.34195 0.73965 0.0
C300 C 0.3535 0.36424 0.68551 0.0
C301 C 0.35563 0.40789 0.70234 0.0
C302 C 0.3764 0.43067 0.6489 0.0
C303 C 0.31516 0.425 0.70516 0.0
C304 C 0.37965 0.4067 0.77489 0.0
C305 C 0.3904 0.36855 0.79538 0.0
C306 C 0.41238 0.36043 0.86101 0.0
C307 C 0.42331 0.39216 0.907 0.0
C308 C 0.41174 0.43135 0.88738 0.0
C309 C 0.38993 0.4384 0.82009 0.0
H310 H 0.68437 0.66042 0.49844 0.0
H311 H 0.58843 0.71153 0.5853 0.0
H312 H 0.54278 0.68216 0.48806 0.0
H313 H 0.6463 0.67937 0.3166 0.0
H314 H 0.66554 0.63433 0.2858 0.0
H315 H 0.68971 0.65792 0.36412 0.0
H316 H 0.68534 0.59299 0.43598 0.0
H317 H 0.66155 0.56911 0.35775 0.0
H318 H 0.63898 0.5698 0.43666 0.0
H319 H 0.5077 0.64531 0.37832 0.0
H320 H 0.48773 0.60461 0.27157 0.0
H321 H 0.60831 0.58361 0.25491 0.0
C322 C 0.65372 0.66536 0.49687 0.0
C323 C 0.63987 0.68774 0.54976 0.0
C324 C 0.5996 0.69361 0.54634 0.0
C325 C 0.57352 0.67743 0.49074 0.0
C326 C 0.5883 0.6559 0.43864 0.0
C327 C 0.62759 0.65005 0.44149 0.0
C328 C 0.63666 0.62649 0.37919 0.0
C329 C 0.66099 0.651 0.33375 0.0
C330 C 0.65681 0.58728 0.40389 0.0
C331 C 0.59637 0.61954 0.34077 0.0
C332 C 0.56865 0.63654 0.3755 0.0
C333 C 0.52929 0.6322 0.35056 0.0
C334 C 0.51817 0.60921 0.28967 0.0
C335 C 0.54634 0.59106 0.2543 0.0
C336 C 0.58586 0.59726 0.27989 0.0
H337 H 0.83219 0.20583 0.92241 0.0
H338 H 0.76032 0.10556 0.95701 0.0
H339 H 0.79561 0.06422 0.8803 0.0
H340 H 0.83741 0.18867 0.74216 0.0
H341 H 0.88709 0.20379 0.74627 0.0
H342 H 0.85772 0.22428 0.80687 0.0
H343 H 0.90732 0.20104 0.91332 0.0
H344 H 0.93718 0.18103 0.85304 0.0
H345 H 0.92165 0.14975 0.9204 0.0
H346 H 0.83731 0.03544 0.79432 0.0
H347 H 0.8847 0.01999 0.71417 0.0
H348 H 0.92883 0.14009 0.7369 0.0
C349 C 0.82459 0.17494 0.91449 0.0
C350 C 0.79405 0.15837 0.94531 0.0
C351 C 0.78407 0.1182 0.93385 0.0
C352 C 0.80377 0.09479 0.89027 0.0
C353 C 0.83339 0.11221 0.85908 0.0
C354 C 0.84403 0.15128 0.87143 0.0
C355 C 0.87646 0.16317 0.83128 0.0
C356 C 0.8639 0.19697 0.77852 0.0
C357 C 0.91281 0.1744 0.88256 0.0
C358 C 0.88216 0.1249 0.79355 0.0
C359 C 0.85711 0.0958 0.81011 0.0
C360 C 0.85716 0.05799 0.78126 0.0
C361 C 0.88405 0.04954 0.7355 0.0
C362 C 0.9105 0.07879 0.71907 0.0
C363 C 0.909 0.11704 0.74806 0.0
H364 H 0.29947 0.34095 0.38689 0.0
H365 H 0.38914 0.28895 0.5401 0.0
H366 H 0.43827 0.32857 0.49026 0.0
H367 H 0.35383 0.33812 0.24188 0.0
H368 H 0.33477 0.38404 0.20268 0.0
H369 H 0.30625 0.3543 0.25425 0.0
H370 H 0.29901 0.41423 0.3349 0.0
H371 H 0.32759 0.44416 0.2837 0.0
H372 H 0.34161 0.43897 0.37785 0.0
H373 H 0.47743 0.37239 0.4232 0.0
H374 H 0.50555 0.41521 0.33948 0.0
H375 H 0.39137 0.43582 0.222 0.0
C376 C 0.32949 0.33797 0.40968 0.0
C377 C 0.34059 0.31229 0.46792 0.0
C378 C 0.38004 0.30915 0.49665 0.0
C379 C 0.4081 0.33134 0.46837 0.0
C380 C 0.39626 0.35615 0.41067 0.0
C381 C 0.35797 0.35942 0.38118 0.0
C382 C 0.35335 0.38676 0.31699 0.0
C383 C 0.33603 0.36446 0.24998 0.0
C384 C 0.32895 0.42319 0.32911 0.0
C385 C 0.39512 0.39807 0.31468 0.0
C386 C 0.4192 0.3804 0.36988 0.0
C387 C 0.45891 0.38637 0.37973 0.0
C388 C 0.47457 0.41087 0.33179 0.0
C389 C 0.45073 0.42891 0.27391 0.0
C390 C 0.41038 0.42236 0.26543 0.0
H391 H 0.11869 0.79383 0.96756 0.0
H392 H 0.18268 0.87728 0.10999 0.0
H393 H 0.15834 0.93256 1.0299 0.0
H394 H 0.13203 0.84488 0.8019 0.0
H395 H 0.08398 0.83385 0.7587 0.0
H396 H 0.10785 0.80058 0.82528 0.0
H397 H 0.05019 0.80628 0.8954 0.0
H398 H 0.02623 0.83975 0.82936 0.0
H399 H 0.03517 0.85447 0.92069 0.0
H400 H 0.126 0.97806 0.93923 0.0
H401 H 0.08756 0.01345 0.84139 0.0
H402 H 0.04286 0.90168 0.75251 0.0
C403 C 0.128 0.82377 0.98063 0.0
C404 C 0.15296 0.83168 0.04408 0.0
C405 C 0.16391 0.87103 0.06116 0.0
C406 C 0.1502 0.9024 1.01611 0.0
C407 C 0.12549 0.89382 0.95412 0.0
C408 C 0.11445 0.85557 0.93597 0.0
C409 C 0.08646 0.8551 0.8671 0.0
C410 C 0.10361 0.83224 0.80985 0.0
C411 C 0.04718 0.83788 0.87886 0.0
C412 C 0.08342 0.89911 0.84969 0.0
C413 C 0.10632 0.9206 0.90096 0.0
C414 C 0.10808 0.96161 0.89858 0.0
C415 C 0.08585 0.98143 0.84254 0.0
C416 C 0.06191 0.9605 0.7888 0.0
C417 C 0.06093 0.91858 0.79234 0.0
loop_
_geom_bond_atom_site_label_1
_geom_bond_atom_site_label_2
_geom_bond_distance
_geom_bond_site_symmetry_2
_ccdc_geom_bond_type
C0 N1 1.317 . S
C0 N2 1.348 . S
C0 C3 1.485 1_554 S
N1 C0 1.317 . S
N1 N5 1.370 . S
N2 C0 1.348 . S
N2 C4 1.346 . S
C3 C0 1.485 1_556 S
C3 H7 0.960 . S
C3 H8 0.961 . S
C3 H9 0.960 . S
C4 N2 1.346 . S
C4 N5 1.307 . S
C4 C6 1.486 . S
N5 N1 1.370 . S
N5 C4 1.307 . S
C6 C4 1.486 . S
C6 H10 0.960 . S
C6 H11 0.960 . S
C6 H12 0.959 . S
H7 C3 0.960 . S
H8 C3 0.961 . S
H9 C3 0.960 . S
H10 C6 0.960 . S
H11 C6 0.960 . S
H12 C6 0.959 . S
C13 N14 1.317 . S
C13 N15 1.348 . S
C13 C16 1.485 . S
N14 C13 1.317 . S
N14 N18 1.370 . S
N15 C13 1.348 . S
N15 C17 1.346 . S
C16 C13 1.485 . S
C16 H20 0.960 . S
C16 H21 0.961 . S
C16 H22 0.960 . S
C17 N15 1.346 . S
C17 N18 1.307 . S
C17 C19 1.486 . S
N18 N14 1.370 . S
N18 C17 1.307 . S
C19 C17 1.486 . S
C19 H23 0.960 . S
C19 H24 0.960 . S
C19 H25 0.959 . S
H20 C16 0.960 . S
H21 C16 0.961 . S
H22 C16 0.960 . S
H23 C19 0.960 . S
H24 C19 0.960 . S
H25 C19 0.959 . S
C26 N27 1.317 . S
C26 N28 1.353 . S
C26 C29 1.485 . S
N27 C26 1.317 . S
N27 N31 1.370 1_554 S
N28 C26 1.353 . S
N28 C30 1.341 1_554 S
C29 C26 1.485 . S
C29 H33 0.960 . S
C29 H34 0.961 . S
C29 H35 0.960 . S
C30 N28 1.341 1_556 S
C30 N31 1.307 . S
C30 C32 1.486 . S
N31 N27 1.370 1_556 S
N31 C30 1.307 . S
C32 C30 1.486 . S
C32 H36 0.960 . S
C32 H37 0.960 . S
C32 H38 0.959 . S
H33 C29 0.960 . S
H34 C29 0.961 . S
H35 C29 0.960 . S
H36 C32 0.960 . S
H37 C32 0.960 . S
H38 C32 0.959 . S
C39 N40 1.317 . S
C39 N41 1.348 . S
C39 C42 1.485 . S
N40 C39 1.317 . S
N40 N44 1.370 . S
N41 C39 1.348 . S
N41 C43 1.346 . S
C42 C39 1.485 . S
C42 H46 0.960 . S
C42 H47 0.961 . S
C42 H48 0.960 . S
C43 N41 1.346 . S
C43 N44 1.307 . S
C43 C45 1.486 . S
N44 N40 1.370 . S
N44 C43 1.307 . S
C45 C43 1.486 . S
C45 H49 0.960 . S
C45 H50 0.960 . S
C45 H51 0.959 . S
H46 C42 0.960 . S
H47 C42 0.961 . S
H48 C42 0.960 . S
H49 C45 0.960 . S
H50 C45 0.960 . S
H51 C45 0.959 . S
O52 Mg53 1.990 . S
O52 C66 1.253 1_455 S
Mg53 O52 1.990 . S
Mg53 O56 2.180 . S
Mg53 O57 2.117 . S
Mg53 O71 2.030 . S
O54 Mg55 2.072 1_655 S
O54 C66 1.260 . S
Mg55 O54 2.072 1_455 S
Mg55 O56 2.099 . S
Mg55 O58 2.079 1_545 S
Mg55 O59 2.072 1_455 S
Mg55 O61 2.099 1_445 S
Mg55 O72 2.079 1_545 S
O56 Mg53 2.180 . S
O56 Mg55 2.099 . S
O56 C67 1.279 . S
O57 Mg53 2.117 . S
O57 C67 1.250 . S
O58 Mg55 2.079 1_565 S
O58 C68 1.264 . S
O59 Mg55 2.072 1_655 S
O59 C69 1.260 . S
Mg60 O61 2.180 . S
Mg60 O62 2.030 1_655 S
Mg60 O63 1.990 1_565 S
Mg60 O64 2.117 . S
O61 Mg55 2.099 1_665 S
O61 Mg60 2.180 . S
O61 C70 1.279 . S
O62 Mg60 2.030 1_455 S
O62 C68 1.248 . S
O63 Mg60 1.990 1_545 S
O63 C69 1.253 . S
O64 Mg60 2.117 . S
O64 C70 1.250 . S
C65 O71 1.248 1_565 S
C65 O72 1.264 . S
C66 O52 1.253 1_655 S
C66 O54 1.260 . S
C67 O56 1.279 . S
C67 O57 1.250 . S
C68 O58 1.264 . S
C68 O62 1.248 . S
C69 O59 1.260 . S
C69 O63 1.253 . S
C70 O61 1.279 . S
C70 O64 1.250 . S
O71 Mg53 2.030 . S
O71 C65 1.248 1_545 S
O72 Mg55 2.079 1_565 S
O72 C65 1.264 . S
O73 Mg74 1.990 . S
O73 C87 1.253 . S
Mg74 O73 1.990 . S
Mg74 O77 2.180 . S
Mg74 O78 2.117 . S
Mg74 O92 2.030 . S
O75 Mg76 2.072 . S
O75 C87 1.260 . S
Mg76 O75 2.072 . S
Mg76 O77 2.099 . S
Mg76 O79 2.079 1_554 S
Mg76 O80 2.072 1_554 S
Mg76 O82 2.099 . S
Mg76 O93 2.079 . S
O77 Mg74 2.180 . S
O77 Mg76 2.099 . S
O77 C88 1.279 . S
O78 Mg74 2.117 . S
O78 C88 1.250 . S
O79 Mg76 2.079 1_556 S
O79 C89 1.264 . S
O80 Mg76 2.072 1_556 S
O80 C90 1.260 . S
Mg81 O82 2.180 1_556 S
Mg81 O83 2.030 . S
Mg81 O84 1.990 . S
Mg81 O85 2.117 . S
O82 Mg76 2.099 . S
O82 Mg81 2.180 1_554 S
O82 C91 1.279 . S
O83 Mg81 2.030 . S
O83 C89 1.248 . S
O84 Mg81 1.990 . S
O84 C90 1.253 . S
O85 Mg81 2.117 . S
O85 C91 1.250 1_556 S
C86 O92 1.248 . S
C86 O93 1.264 . S
C87 O73 1.253 . S
C87 O75 1.260 . S
C88 O77 1.279 . S
C88 O78 1.250 . S
C89 O79 1.264 . S
C89 O83 1.248 . S
C90 O80 1.260 . S
C90 O84 1.253 . S
C91 O82 1.279 . S
C91 O85 1.250 1_554 S
O92 Mg74 2.030 . S
O92 C86 1.248 . S
O93 Mg76 2.079 . S
O93 C86 1.264 . S
H94 C106 0.930 . S
H95 C108 0.930 . S
H96 C109 0.930 . S
H97 C113 0.959 . S
H98 C113 0.959 . S
H99 C113 0.961 . S
H100 C114 0.960 . S
H101 C114 0.961 . S
H102 C114 0.959 . S
H103 C117 0.929 . S
H104 C118 0.931 . S
H105 C120 0.930 . S
C106 H94 0.930 . S
C106 C107 1.399 . S
C106 C111 1.399 . S
C107 C106 1.399 . S
C107 C108 1.376 . S
C108 H95 0.930 . S
C108 C107 1.376 . S
C108 C109 1.388 . S
C109 H96 0.930 . S
C109 C108 1.388 . S
C109 C110 1.390 . S
C110 C109 1.390 . S
C110 C111 1.394 . S
C110 C116 1.465 . S
C111 C106 1.399 . S
C111 C110 1.394 . S
C111 C112 1.516 . S
C112 C111 1.516 . S
C112 C113 1.502 . S
C112 C114 1.561 . S
C112 C115 1.526 . S
C113 H97 0.959 . S
C113 H98 0.959 . S
C113 H99 0.961 . S
C113 C112 1.502 . S
C114 H100 0.960 . S
C114 H101 0.961 . S
C114 H102 0.959 . S
C114 C112 1.561 . S
C115 C112 1.526 . S
C115 C116 1.396 . S
C115 C120 1.390 . S
C116 C110 1.465 . S
C116 C115 1.396 . S
C116 C117 1.399 . S
C117 H103 0.929 . S
C117 C116 1.399 . S
C117 C118 1.385 . S
C118 H104 0.931 . S
C118 C117 1.385 . S
C118 C119 1.389 . S
C119 C118 1.389 . S
C119 C120 1.387 . S
C120 H105 0.930 . S
C120 C115 1.390 . S
C120 C119 1.387 . S
H121 C133 0.930 1_556 S
H122 C135 0.930 . S
H123 C136 0.930 . S
H124 C140 0.959 . S
H125 C140 0.959 . S
H126 C140 0.961 . S
H127 C141 0.960 . S
H128 C141 0.961 . S
H129 C141 0.959 1_554 S
H130 C144 0.929 . S
H131 C145 0.931 . S
H132 C147 0.930 1_556 S
C133 H121 0.930 1_554 S
C133 C134 1.399 . S
C133 C138 1.399 . S
C134 C133 1.399 . S
C134 C135 1.376 . S
C135 H122 0.930 . S
C135 C134 1.376 . S
C135 C136 1.388 . S
C136 H123 0.930 . S
C136 C135 1.388 . S
C136 C137 1.390 . S
C137 C136 1.390 . S
C137 C138 1.394 . S
C137 C143 1.465 . S
C138 C133 1.399 . S
C138 C137 1.394 . S
C138 C139 1.515 1_554 S
C139 C138 1.515 1_556 S
C139 C140 1.503 . S
C139 C141 1.562 . S
C139 C142 1.525 1_556 S
C140 H124 0.959 . S
C140 H125 0.959 . S
C140 H126 0.961 . S
C140 C139 1.503 . S
C141 H127 0.960 . S
C141 H128 0.961 . S
C141 H129 0.959 1_556 S
C141 C139 1.562 . S
C142 C139 1.525 1_554 S
C142 C143 1.396 . S
C142 C147 1.390 . S
C143 C137 1.465 . S
C143 C142 1.396 . S
C143 C144 1.399 . S
C144 H130 0.929 . S
C144 C143 1.399 . S
C144 C145 1.385 . S
C145 H131 0.931 . S
C145 C144 1.385 . S
C145 C146 1.389 . S
C146 C145 1.389 . S
C146 C147 1.387 . S
C147 H132 0.930 1_554 S
C147 C142 1.390 . S
C147 C146 1.387 . S
H148 C160 0.930 . S
H149 C162 0.930 . S
H150 C163 0.930 . S
H151 C167 0.959 . S
H152 C167 0.959 . S
H153 C167 0.961 . S
H154 C168 0.960 . S
H155 C168 0.961 . S
H156 C168 0.959 . S
H157 C171 0.929 . S
H158 C172 0.931 . S
H159 C174 0.930 . S
C160 H148 0.930 . S
C160 C161 1.399 . S
C160 C165 1.399 . S
C161 C160 1.399 . S
C161 C162 1.376 . S
C162 H149 0.930 . S
C162 C161 1.376 . S
C162 C163 1.388 . S
C163 H150 0.930 . S
C163 C162 1.388 . S
C163 C164 1.390 . S
C164 C163 1.390 . S
C164 C165 1.394 . S
C164 C170 1.465 . S
C165 C160 1.399 . S
C165 C164 1.394 . S
C165 C166 1.516 . S
C166 C165 1.516 . S
C166 C167 1.502 . S
C166 C168 1.561 . S
C166 C169 1.526 . S
C167 H151 0.959 . S
C167 H152 0.959 . S
C167 H153 0.961 . S
C167 C166 1.502 . S
C168 H154 0.960 . S
C168 H155 0.961 . S
C168 H156 0.959 . S
C168 C166 1.561 . S
C169 C166 1.526 . S
C169 C170 1.396 . S
C169 C174 1.390 . S
C170 C164 1.465 . S
C170 C169 1.396 . S
C170 C171 1.399 . S
C171 H157 0.929 . S
C171 C170 1.399 . S
C171 C172 1.385 . S
C172 H158 0.931 . S
C172 C171 1.385 . S
C172 C173 1.389 . S
C173 C172 1.389 . S
C173 C174 1.387 . S
C174 H159 0.930 . S
C174 C169 1.390 . S
C174 C173 1.387 . S
H175 C187 0.930 . S
H176 C189 0.930 . S
H177 C190 0.930 . S
H178 C194 0.959 . S
H179 C194 0.959 . S
H180 C194 0.961 . S
H181 C195 0.960 . S
H182 C195 0.961 . S
H183 C195 0.959 . S
H184 C198 0.929 . S
H185 C199 0.931 . S
H186 C201 0.930 . S
C187 H175 0.930 . S
C187 C188 1.399 1_554 S
C187 C192 1.399 . S
C188 C187 1.399 1_556 S
C188 C189 1.376 . S
C189 H176 0.930 . S
C189 C188 1.376 . S
C189 C190 1.388 . S
C190 H177 0.930 . S
C190 C189 1.388 . S
C190 C191 1.390 . S
C191 C190 1.390 . S
C191 C192 1.394 1_556 S
C191 C197 1.465 . S
C192 C187 1.399 . S
C192 C191 1.394 1_554 S
C192 C193 1.516 . S
C193 C192 1.516 . S
C193 C194 1.502 . S
C193 C195 1.561 . S
C193 C196 1.526 . S
C194 H178 0.959 . S
C194 H179 0.959 . S
C194 H180 0.961 . S
C194 C193 1.502 . S
C195 H181 0.960 . S
C195 H182 0.961 . S
C195 H183 0.959 . S
C195 C193 1.561 . S
C196 C193 1.526 . S
C196 C197 1.396 1_554 S
C196 C201 1.390 . S
C197 C191 1.465 . S
C197 C196 1.396 1_556 S
C197 C198 1.399 . S
C198 H184 0.929 . S
C198 C197 1.399 . S
C198 C199 1.385 . S
C199 H185 0.931 . S
C199 C198 1.385 . S
C199 C200 1.389 1_556 S
C200 C199 1.389 1_554 S
C200 C201 1.387 . S
C201 H186 0.930 . S
C201 C196 1.390 . S
C201 C200 1.387 . S
H202 C214 0.930 . S
H203 C216 0.930 . S
H204 C217 0.930 . S
H205 C221 0.959 . S
H206 C221 0.959 1_545 S
H207 C221 0.961 . S
H208 C222 0.960 . S
H209 C222 0.961 . S
H210 C222 0.959 . S
H211 C225 0.929 . S
H212 C226 0.931 . S
H213 C228 0.930 . S
C214 H202 0.930 . S
C214 C215 1.399 . S
C214 C219 1.399 . S
C215 C214 1.399 . S
C215 C216 1.376 . S
C216 H203 0.930 . S
C216 C215 1.376 . S
C216 C217 1.388 . S
C217 H204 0.930 . S
C217 C216 1.388 . S
C217 C218 1.390 . S
C218 C217 1.390 . S
C218 C219 1.394 . S
C218 C224 1.465 . S
C219 C214 1.399 . S
C219 C218 1.394 . S
C219 C220 1.516 . S
C220 C219 1.516 . S
C220 C221 1.502 . S
C220 C222 1.561 . S
C220 C223 1.526 . S
C221 H205 0.959 . S
C221 H206 0.959 1_565 S
C221 H207 0.961 . S
C221 C220 1.502 . S
C222 H208 0.960 . S
C222 H209 0.961 . S
C222 H210 0.959 . S
C222 C220 1.561 . S
C223 C220 1.526 . S
C223 C224 1.396 . S
C223 C228 1.390 . S
C224 C218 1.465 . S
C224 C223 1.396 . S
C224 C225 1.399 . S
C225 H211 0.929 . S
C225 C224 1.399 . S
C225 C226 1.385 . S
C226 H212 0.931 . S
C226 C225 1.385 . S
C226 C227 1.389 . S
C227 C226 1.389 . S
C227 C228 1.387 . S
C228 H213 0.930 . S
C228 C223 1.390 . S
C228 C227 1.387 . S
H229 C241 0.930 . S
H230 C243 0.930 . S
H231 C244 0.930 . S
H232 C248 0.959 . S
H233 C248 0.959 . S
H234 C248 0.961 . S
H235 C249 0.960 . S
H236 C249 0.961 . S
H237 C249 0.959 . S
H238 C252 0.929 . S
H239 C253 0.931 . S
H240 C255 0.930 . S
C241 H229 0.930 . S
C241 C242 1.399 . S
C241 C246 1.399 . S
C242 C241 1.399 . S
C242 C243 1.376 . S
C243 H230 0.930 . S
C243 C242 1.376 . S
C243 C244 1.388 . S
C244 H231 0.930 . S
C244 C243 1.388 . S
C244 C245 1.390 . S
C245 C244 1.390 . S
C245 C246 1.394 . S
C245 C251 1.465 . S
C246 C241 1.399 . S
C246 C245 1.394 . S
C246 C247 1.516 . S
C247 C246 1.516 . S
C247 C248 1.502 . S
C247 C249 1.561 . S
C247 C250 1.526 . S
C248 H232 0.959 . S
C248 H233 0.959 . S
C248 H234 0.961 . S
C248 C247 1.502 . S
C249 H235 0.960 . S
C249 H236 0.961 . S
C249 H237 0.959 . S
C249 C247 1.561 . S
C250 C247 1.526 . S
C250 C251 1.396 . S
C250 C255 1.390 . S
C251 C245 1.465 . S
C251 C250 1.396 . S
C251 C252 1.399 . S
C252 H238 0.929 . S
C252 C251 1.399 . S
C252 C253 1.385 . S
C253 H239 0.931 . S
C253 C252 1.385 . S
C253 C254 1.389 . S
C254 C253 1.389 . S
C254 C255 1.387 . S
C255 H240 0.930 . S
C255 C250 1.390 . S
C255 C254 1.387 . S
H256 C268 0.930 . S
H257 C270 0.930 . S
H258 C271 0.930 . S
H259 C275 0.959 . S
H260 C275 0.959 . S
H261 C275 0.961 . S
H262 C276 0.960 . S
H263 C276 0.961 . S
H264 C276 0.959 . S
H265 C279 0.929 . S
H266 C280 0.931 . S
H267 C282 0.930 . S
C268 H256 0.930 . S
C268 C269 1.399 . S
C268 C273 1.399 . S
C269 C268 1.399 . S
C269 C270 1.376 . S
C270 H257 0.930 . S
C270 C269 1.376 . S
C270 C271 1.388 . S
C271 H258 0.930 . S
C271 C270 1.388 . S
C271 C272 1.390 . S
C272 C271 1.390 . S
C272 C273 1.394 . S
C272 C278 1.465 . S
C273 C268 1.399 . S
C273 C272 1.394 . S
C273 C274 1.516 . S
C274 C273 1.516 . S
C274 C275 1.502 . S
C274 C276 1.561 . S
C274 C277 1.526 . S
C275 H259 0.959 . S
C275 H260 0.959 . S
C275 H261 0.961 . S
C275 C274 1.502 . S
C276 H262 0.960 . S
C276 H263 0.961 . S
C276 H264 0.959 . S
C276 C274 1.561 . S
C277 C274 1.526 . S
C277 C278 1.396 . S
C277 C282 1.390 . S
C278 C272 1.465 . S
C278 C277 1.396 . S
C278 C279 1.399 . S
C279 H265 0.929 . S
C279 C278 1.399 . S
C279 C280 1.385 . S
C280 H266 0.931 . S
C280 C279 1.385 . S
C280 C281 1.389 . S
C281 C280 1.389 . S
C281 C282 1.387 . S
C282 H267 0.930 . S
C282 C277 1.390 . S
C282 C281 1.387 . S
H283 C295 0.930 . S
H284 C297 0.930 . S
H285 C298 0.930 . S
H286 C302 0.959 . S
H287 C302 0.959 . S
H288 C302 0.961 . S
H289 C303 0.960 . S
H290 C303 0.961 . S
H291 C303 0.959 . S
H292 C306 0.929 . S
H293 C307 0.931 . S
H294 C309 0.930 . S
C295 H283 0.930 . S
C295 C296 1.399 . S
C295 C300 1.399 . S
C296 C295 1.399 . S
C296 C297 1.376 . S
C297 H284 0.930 . S
C297 C296 1.376 . S
C297 C298 1.388 . S
C298 H285 0.930 . S
C298 C297 1.388 . S
C298 C299 1.390 . S
C299 C298 1.390 . S
C299 C300 1.394 . S
C299 C305 1.465 . S
C300 C295 1.399 . S
C300 C299 1.394 . S
C300 C301 1.516 . S
C301 C300 1.516 . S
C301 C302 1.502 . S
C301 C303 1.561 . S
C301 C304 1.526 . S
C302 H286 0.959 . S
C302 H287 0.959 . S
C302 H288 0.961 . S
C302 C301 1.502 . S
C303 H289 0.960 . S
C303 H290 0.961 . S
C303 H291 0.959 . S
C303 C301 1.561 . S
C304 C301 1.526 . S
C304 C305 1.396 . S
C304 C309 1.390 . S
C305 C299 1.465 . S
C305 C304 1.396 . S
C305 C306 1.399 . S
C306 H292 0.929 . S
C306 C305 1.399 . S
C306 C307 1.385 . S
C307 H293 0.931 . S
C307 C306 1.385 . S
C307 C308 1.389 . S
C308 C307 1.389 . S
C308 C309 1.387 . S
C309 H294 0.930 . S
C309 C304 1.390 . S
C309 C308 1.387 . S
H310 C322 0.930 . S
H311 C324 0.930 . S
H312 C325 0.930 . S
H313 C329 0.959 . S
H314 C329 0.959 . S
H315 C329 0.961 . S
H316 C330 0.960 . S
H317 C330 0.961 . S
H318 C330 0.959 . S
H319 C333 0.929 . S
H320 C334 0.931 . S
H321 C336 0.930 . S
C322 H310 0.930 . S
C322 C323 1.399 . S
C322 C327 1.399 . S
C323 C322 1.399 . S
C323 C324 1.376 . S
C324 H311 0.930 . S
C324 C323 1.376 . S
C324 C325 1.388 . S
C325 H312 0.930 . S
C325 C324 1.388 . S
C325 C326 1.390 . S
C326 C325 1.390 . S
C326 C327 1.394 . S
C326 C332 1.465 . S
C327 C322 1.399 . S
C327 C326 1.394 . S
C327 C328 1.516 . S
C328 C327 1.516 . S
C328 C329 1.502 . S
C328 C330 1.561 . S
C328 C331 1.526 . S
C329 H313 0.959 . S
C329 H314 0.959 . S
C329 H315 0.961 . S
C329 C328 1.502 . S
C330 H316 0.960 . S
C330 H317 0.961 . S
C330 H318 0.959 . S
C330 C328 1.561 . S
C331 C328 1.526 . S
C331 C332 1.396 . S
C331 C336 1.390 . S
C332 C326 1.465 . S
C332 C331 1.396 . S
C332 C333 1.399 . S
C333 H319 0.929 . S
C333 C332 1.399 . S
C333 C334 1.385 . S
C334 H320 0.931 . S
C334 C333 1.385 . S
C334 C335 1.389 . S
C335 C334 1.389 . S
C335 C336 1.387 . S
C336 H321 0.930 . S
C336 C331 1.390 . S
C336 C335 1.387 . S
H337 C349 0.930 . S
H338 C351 0.930 . S
H339 C352 0.930 . S
H340 C356 0.959 . S
H341 C356 0.959 . S
H342 C356 0.961 . S
H343 C357 0.960 . S
H344 C357 0.961 . S
H345 C357 0.959 . S
H346 C360 0.929 . S
H347 C361 0.931 . S
H348 C363 0.930 . S
C349 H337 0.930 . S
C349 C350 1.399 . S
C349 C354 1.399 . S
C350 C349 1.399 . S
C350 C351 1.376 . S
C351 H338 0.930 . S
C351 C350 1.376 . S
C351 C352 1.388 . S
C352 H339 0.930 . S
C352 C351 1.388 . S
C352 C353 1.390 . S
C353 C352 1.390 . S
C353 C354 1.394 . S
C353 C359 1.465 . S
C354 C349 1.399 . S
C354 C353 1.394 . S
C354 C355 1.516 . S
C355 C354 1.516 . S
C355 C356 1.502 . S
C355 C357 1.561 . S
C355 C358 1.526 . S
C356 H340 0.959 . S
C356 H341 0.959 . S
C356 H342 0.961 . S
C356 C355 1.502 . S
C357 H343 0.960 . S
C357 H344 0.961 . S
C357 H345 0.959 . S
C357 C355 1.561 . S
C358 C355 1.526 . S
C358 C359 1.396 . S
C358 C363 1.390 . S
C359 C353 1.465 . S
C359 C358 1.396 . S
C359 C360 1.399 . S
C360 H346 0.929 . S
C360 C359 1.399 . S
C360 C361 1.385 . S
C361 H347 0.931 . S
C361 C360 1.385 . S
C361 C362 1.389 . S
C362 C361 1.389 . S
C362 C363 1.387 . S
C363 H348 0.930 . S
C363 C358 1.390 . S
C363 C362 1.387 . S
H364 C376 0.930 . S
H365 C378 0.930 . S
H366 C379 0.930 . S
H367 C383 0.959 . S
H368 C383 0.959 . S
H369 C383 0.961 . S
H370 C384 0.960 . S
H371 C384 0.961 . S
H372 C384 0.959 . S
H373 C387 0.929 . S
H374 C388 0.931 . S
H375 C390 0.930 . S
C376 H364 0.930 . S
C376 C377 1.399 . S
C376 C381 1.399 . S
C377 C376 1.399 . S
C377 C378 1.376 . S
C378 H365 0.930 . S
C378 C377 1.376 . S
C378 C379 1.388 . S
C379 H366 0.930 . S
C379 C378 1.388 . S
C379 C380 1.390 . S
C380 C379 1.390 . S
C380 C381 1.394 . S
C380 C386 1.465 . S
C381 C376 1.399 . S
C381 C380 1.394 . S
C381 C382 1.516 . S
C382 C381 1.516 . S
C382 C383 1.502 . S
C382 C384 1.561 . S
C382 C385 1.526 . S
C383 H367 0.959 . S
C383 H368 0.959 . S
C383 H369 0.961 . S
C383 C382 1.502 . S
C384 H370 0.960 . S
C384 H371 0.961 . S
C384 H372 0.959 . S
C384 C382 1.561 . S
C385 C382 1.526 . S
C385 C386 1.396 . S
C385 C390 1.390 . S
C386 C380 1.465 . S
C386 C385 1.396 . S
C386 C387 1.399 . S
C387 H373 0.929 . S
C387 C386 1.399 . S
C387 C388 1.385 . S
C388 H374 0.931 . S
C388 C387 1.385 . S
C388 C389 1.389 . S
C389 C388 1.389 . S
C389 C390 1.387 . S
C390 H375 0.930 . S
C390 C385 1.390 . S
C390 C389 1.387 . S
H391 C403 0.930 . S
H392 C405 0.930 1_554 S
H393 C406 0.930 . S
H394 C410 0.959 . S
H395 C410 0.959 . S
H396 C410 0.961 . S
H397 C411 0.960 . S
H398 C411 0.961 . S
H399 C411 0.959 . S
H400 C414 0.929 . S
H401 C415 0.931 1_545 S
H402 C417 0.930 . S
C403 H391 0.930 . S
C403 C404 1.399 . S
C403 C408 1.399 . S
C404 C403 1.399 . S
C404 C405 1.376 . S
C405 H392 0.930 1_556 S
C405 C404 1.376 . S
C405 C406 1.388 . S
C406 H393 0.930 . S
C406 C405 1.388 . S
C406 C407 1.390 . S
C407 C406 1.390 . S
C407 C408 1.394 . S
C407 C413 1.465 . S
C408 C403 1.399 . S
C408 C407 1.394 . S
C408 C409 1.516 . S
C409 C408 1.516 . S
C409 C410 1.502 . S
C409 C411 1.561 . S
C409 C412 1.526 . S
C410 H394 0.959 . S
C410 H395 0.959 . S
C410 H396 0.961 . S
C410 C409 1.502 . S
C411 H397 0.960 . S
C411 H398 0.961 . S
C411 H399 0.959 . S
C411 C409 1.561 . S
C412 C409 1.526 . S
C412 C413 1.396 . S
C412 C417 1.390 . S
C413 C407 1.465 . S
C413 C412 1.396 . S
C413 C414 1.399 . S
C414 H400 0.929 . S
C414 C413 1.399 . S
C414 C415 1.385 . S
C415 H401 0.931 1_565 S
C415 C414 1.385 . S
C415 C416 1.389 . S
C416 C415 1.389 . S
C416 C417 1.387 . S
C417 H402 0.930 . S
C417 C412 1.390 . S
C417 C416 1.387 . S
C119 C67 1.334 . S
C107 N41 1.478 . S
C134 N2 1.479 . S
C146 C91 1.347 . S
C161 N15 1.606 . S
C173 C70 1.444 . S
C188 N28 1.607 1_556 S
C200 C88 1.447 . S
C227 C68 1.437 . S
C215 N5 1.478 . S
C254 C90 1.485 . S
C242 N14 1.567 . S
C269 N27 1.531 . S
C281 C69 1.535 . S
C296 N44 1.459 . S
C308 C89 1.475 . S
C335 C87 1.538 . S
C323 N18 1.546 . S
C362 C66 1.544 . S
C350 N31 1.571 . S
C389 C86 1.435 . S
C377 N40 1.467 . S
C404 N1 1.489 1_556 S
C416 C65 1.398 . S
