# Generated by pormake.
# Topology pyr, (3,6)-cn, num edge types: 1
# Building blocks:
#     Node 0, Type 0, BuildingBlock: ESEHIV_clean_linker_0, # of connection points: 3
#     Node 1, Type 0, BuildingBlock: ESEHIV_clean_linker_0, # of connection points: 3
#     Node 2, Type 0, BuildingBlock: ESEHIV_clean_linker_0, # of connection points: 3
#     Node 3, Type 0, BuildingBlock: ESEHIV_clean_linker_0, # of connection points: 3
#     Node 4, Type 0, BuildingBlock: ESEHIV_clean_linker_0, # of connection points: 3
#     Node 5, Type 0, BuildingBlock: ESEHIV_clean_linker_0, # of connection points: 3
#     Node 6, Type 0, BuildingBlock: ESEHIV_clean_linker_0, # of connection points: 3
#     Node 7, Type 0, BuildingBlock: ESEHIV_clean_linker_0, # of connection points: 3
#     Node 8, Type 1, BuildingBlock: VOLQOD_clean_sbu_1, # of connection points: 6
#     Node 9, Type 1, BuildingBlock: VOLQOD_clean_sbu_1, # of connection points: 6
#     Node 10, Type 1, BuildingBlock: VOLQOD_clean_sbu_1, # of connection points: 6
#     Node 11, Type 1, BuildingBlock: VOLQOD_clean_sbu_1, # of connection points: 6
#     Edge 12, Type (0, 1), BuildingBlock: OJICUG_clean_linker_0, # of connection points: 2
#     Edge 13, Type (0, 1), BuildingBlock: OJICUG_clean_linker_0, # of connection points: 2
#     Edge 14, Type (0, 1), BuildingBlock: OJICUG_clean_linker_0, # of connection points: 2
#     Edge 15, Type (0, 1), BuildingBlock: OJICUG_clean_linker_0, # of connection points: 2
#     Edge 16, Type (0, 1), BuildingBlock: OJICUG_clean_linker_0, # of connection points: 2
#     Edge 17, Type (0, 1), BuildingBlock: OJICUG_clean_linker_0, # of connection points: 2
#     Edge 18, Type (0, 1), BuildingBlock: OJICUG_clean_linker_0, # of connection points: 2
#     Edge 19, Type (0, 1), BuildingBlock: OJICUG_clean_linker_0, # of connection points: 2
#     Edge 20, Type (0, 1), BuildingBlock: OJICUG_clean_linker_0, # of connection points: 2
#     Edge 21, Type (0, 1), BuildingBlock: OJICUG_clean_linker_0, # of connection points: 2
#     Edge 22, Type (0, 1), BuildingBlock: OJICUG_clean_linker_0, # of connection points: 2
#     Edge 23, Type (0, 1), BuildingBlock: OJICUG_clean_linker_0, # of connection points: 2
#     Edge 24, Type (0, 1), BuildingBlock: OJICUG_clean_linker_0, # of connection points: 2
#     Edge 25, Type (0, 1), BuildingBlock: OJICUG_clean_linker_0, # of connection points: 2
#     Edge 26, Type (0, 1), BuildingBlock: OJICUG_clean_linker_0, # of connection points: 2
#     Edge 27, Type (0, 1), BuildingBlock: OJICUG_clean_linker_0, # of connection points: 2
#     Edge 28, Type (0, 1), BuildingBlock: OJICUG_clean_linker_0, # of connection points: 2
#     Edge 29, Type (0, 1), BuildingBlock: OJICUG_clean_linker_0, # of connection points: 2
#     Edge 30, Type (0, 1), BuildingBlock: OJICUG_clean_linker_0, # of connection points: 2
#     Edge 31, Type (0, 1), BuildingBlock: OJICUG_clean_linker_0, # of connection points: 2
#     Edge 32, Type (0, 1), BuildingBlock: OJICUG_clean_linker_0, # of connection points: 2
#     Edge 33, Type (0, 1), BuildingBlock: OJICUG_clean_linker_0, # of connection points: 2
#     Edge 34, Type (0, 1), BuildingBlock: OJICUG_clean_linker_0, # of connection points: 2
#     Edge 35, Type (0, 1), BuildingBlock: OJICUG_clean_linker_0, # of connection points: 2
# Relax obj value: 0.035
# Max RMSD: 0.118
# Mean RMSD: 0.043
data_MOF--net-pry--node1-VOLQOD_clean_sbu_1--node2-ESEHIV_clean_linker_0--edge1-OJICUG_clean_linker_0
_symmetry_space_group_name_H-M    P1
_symmetry_Int_Tables_number       1
_symmetry_cell_setting            triclinic
loop_
_symmetry_equiv_pos_as_xyz
'x, y, z'
_cell_length_a     25.732217
_cell_length_b     25.678165
_cell_length_c     25.790154
_cell_angle_alpha  90.095423
_cell_angle_beta   90.015414
_cell_angle_gamma 90.224602
loop_
_atom_site_label
_atom_site_type_symbol
_atom_site_fract_x
_atom_site_fract_y
_atom_site_fract_z
_atom_type_partial_charge
H0 H 0.03543 0.15503 0.16835 0.0
H1 H 0.15571 0.04061 0.16708 0.0
H2 H 0.15931 0.16513 0.05619 0.0
C3 C 0.07016 0.13945 0.15053 0.0
C4 C 0.093 0.16469 0.10771 0.0
C5 C 0.09402 0.09607 0.17304 0.0
C6 C 0.1384 0.07499 0.15006 0.0
C7 C 0.16221 0.09945 0.10767 0.0
C8 C 0.13925 0.14429 0.08671 0.0
H9 H 0.34935 0.97368 0.65483 0.0
H10 H 0.46736 0.8558 0.66494 0.0
H11 H 0.3482 0.84559 0.54851 0.0
C12 C 0.36752 0.9386 0.64027 0.0
C13 C 0.34465 0.91239 0.59839 0.0
C14 C 0.41091 0.91768 0.66586 0.0
C15 C 0.43387 0.87221 0.64576 0.0
C16 C 0.41222 0.84604 0.60283 0.0
C17 C 0.36728 0.8665 0.57972 0.0
H18 H 0.65991 0.34205 0.96326 0.0
H19 H 0.65951 0.46339 0.84918 0.0
H20 H 0.52816 0.36095 0.86251 0.0
C21 C 0.63939 0.36379 0.93377 0.0
C22 C 0.59069 0.34616 0.91611 0.0
C23 C 0.66391 0.40694 0.91084 0.0
C24 C 0.63977 0.43168 0.86865 0.0
C25 C 0.59182 0.41383 0.84954 0.0
C26 C 0.56629 0.37318 0.87561 0.0
H27 H 0.8593 0.66059 0.47562 0.0
H28 H 0.97075 0.66012 0.35262 0.0
H29 H 0.84263 0.55246 0.34862 0.0
C30 C 0.87351 0.64345 0.43998 0.0
C31 C 0.84629 0.60208 0.41639 0.0
C32 C 0.91701 0.66561 0.41585 0.0
C33 C 0.93625 0.64344 0.3702 0.0
C34 C 0.90989 0.60233 0.34568 0.0
C35 C 0.86489 0.58189 0.36904 0.0
H36 H 0.8537 0.97466 0.86668 0.0
H37 H 0.97865 0.86323 0.87303 0.0
H38 H 0.85338 0.85437 0.98183 0.0
C39 C 0.87388 0.94327 0.88609 0.0
C40 C 0.85016 0.91909 0.92876 0.0
C41 C 0.91996 0.92295 0.86484 0.0
C42 C 0.9436 0.88005 0.88911 0.0
C43 C 0.9191 0.85482 0.93047 0.0
C44 C 0.87309 0.875 0.9508 0.0
H45 H 0.53497 0.1471 0.35448 0.0
H46 H 0.64954 0.02739 0.36932 0.0
H47 H 0.64888 0.15677 0.47585 0.0
C48 C 0.56661 0.12959 0.37599 0.0
C49 C 0.58733 0.15542 0.41932 0.0
C50 C 0.58953 0.08383 0.3576 0.0
C51 C 0.63191 0.06269 0.38412 0.0
C52 C 0.65431 0.08894 0.4265 0.0
C53 C 0.63079 0.13469 0.44482 0.0
H54 H 0.36412 0.65438 0.03598 0.0
H55 H 0.353 0.53113 0.14799 0.0
H56 H 0.47624 0.64405 0.15895 0.0
C57 C 0.38049 0.63331 0.06849 0.0
C58 C 0.42442 0.65323 0.09398 0.0
C59 C 0.35457 0.58921 0.08772 0.0
C60 C 0.37417 0.5638 0.13162 0.0
C61 C 0.41821 0.58327 0.15739 0.0
C62 C 0.44368 0.62745 0.13784 0.0
H63 H 0.03091 0.37394 0.65858 0.0
H64 H 0.14823 0.35159 0.54137 0.0
H65 H 0.16105 0.47842 0.6487 0.0
C66 C 0.06574 0.38663 0.63861 0.0
C67 C 0.09354 0.42949 0.6581 0.0
C68 C 0.08511 0.3576 0.59658 0.0
C69 C 0.13125 0.37434 0.57239 0.0
C70 C 0.15804 0.41852 0.5902 0.0
C71 C 0.13883 0.44612 0.63286 0.0
O72 O 0.98333 0.12521 0.56776 0.0
Zn73 Zn 0.95558 0.05189 0.56256 0.0
O74 O 0.00058 0.00971 0.51738 0.0
Zn75 Zn 0.96286 0.98739 0.45612 0.0
Zn76 Zn 0.06101 0.04985 0.49506 0.0
Zn77 Zn 0.0233 0.94818 0.55459 0.0
O78 O 0.96011 0.90981 0.45055 0.0
O79 O -0.00231 0.88158 0.52253 0.0
O80 O 0.88207 0.05552 0.53389 0.0
O81 O 0.89049 0.01276 0.45944 0.0
O82 O 0.99367 0.01437 0.39005 0.0
O83 O 0.06588 0.05278 0.41756 0.0
O84 O 0.12809 0.01888 0.52124 0.0
O85 O 0.95275 0.02268 0.63525 0.0
O86 O 0.10066 0.94477 0.55625 0.0
O87 O -0.00138 0.94998 0.62777 0.0
C88 C 0.02256 0.14787 0.5477 0.0
C89 C 0.97432 0.87281 0.47996 0.0
C90 C 0.03583 0.03856 0.38097 0.0
C91 C 0.86308 0.03839 0.49146 0.0
C92 C 0.13727 0.97545 0.54313 0.0
C93 C 0.97178 0.98142 0.6548 0.0
O94 O 0.05494 0.12367 0.51931 0.0
O95 O 0.48726 0.11807 0.9605 0.0
Zn96 Zn 0.45719 0.04608 0.96809 0.0
O97 O 0.50283 0.00297 0.01078 0.0
Zn98 Zn 0.5269 0.94399 0.96974 0.0
Zn99 Zn 0.56247 0.04369 0.03494 0.0
Zn100 Zn 0.46474 0.97759 0.0708 0.0
O101 O 0.50275 0.87551 -0.00044 0.0
O102 O 0.46239 0.89968 0.07176 0.0
O103 O 0.44862 0.01622 0.89654 0.0
O104 O 0.50212 0.94848 0.89605 0.0
O105 O 0.60429 0.94271 0.96741 0.0
O106 O 0.62989 0.01485 0.00774 0.0
O107 O 0.56694 0.04426 0.11263 0.0
O108 O 0.38598 0.05304 -0.00021 0.0
O109 O 0.49658 0.00096 0.13776 0.0
O110 O 0.3923 0.00484 0.07092 0.0
C111 C 0.52596 0.14124 0.9811 0.0
C112 C 0.47845 0.86435 0.0411 0.0
C113 C 0.64008 0.97342 0.98262 0.0
C114 C 0.47034 0.97848 0.87312 0.0
C115 C 0.53763 0.02654 0.14825 0.0
C116 C 0.36633 0.03431 0.04106 0.0
O117 O 0.55705 0.1178 0.01142 0.0
O118 O 0.55291 0.51615 0.62212 0.0
Zn119 Zn 0.54674 0.54726 0.55046 0.0
O120 O 0.50425 0.50363 0.50451 0.0
Zn121 Zn 0.545 0.4801 0.44513 0.0
Zn122 Zn 0.47993 0.44282 0.54244 0.0
Zn123 Zn 0.44473 0.54354 0.47994 0.0
O124 O 0.51461 0.50479 0.37751 0.0
O125 O 0.44222 0.54446 0.40234 0.0
O126 O 0.61869 0.55677 0.5206 0.0
O127 O 0.61812 0.5065 0.45019 0.0
O128 O 0.5481 0.40217 0.44158 0.0
O129 O 0.50513 0.37597 0.51143 0.0
O130 O 0.40241 0.4399 0.54403 0.0
O131 O 0.51511 0.61806 0.55933 0.0
O132 O 0.37727 0.51249 0.50484 0.0
O133 O 0.44786 0.61768 0.50517 0.0
C134 C 0.53341 0.47516 0.64205 0.0
C135 C 0.47268 0.52862 0.36684 0.0
C136 C 0.53122 0.366 0.4708 0.0
C137 C 0.64149 0.53708 0.48138 0.0
C138 C 0.36676 0.47039 0.52868 0.0
C139 C 0.47701 0.6409 0.53779 0.0
O140 O 0.5049 0.44446 0.61563 0.0
O141 O 0.95273 0.49654 0.1199 0.0
Zn142 Zn 0.96132 0.46362 0.04947 0.0
O143 O 0.0062 0.506 0.00466 0.0
Zn144 Zn 0.96658 0.53009 0.94524 0.0
Zn145 Zn 0.03166 0.56647 0.04257 0.0
Zn146 Zn 0.06525 0.46495 0.98064 0.0
O147 O 0.00071 0.51113 0.87809 0.0
O148 O 0.06889 0.46466 0.90293 0.0
O149 O 0.88987 0.45344 0.01765 0.0
O150 O 0.89643 0.49752 0.94393 0.0
O151 O 0.95718 0.60748 0.94685 0.0
O152 O 0.00934 0.63368 0.01034 0.0
O153 O 0.10919 0.5672 0.04626 0.0
O154 O 0.99258 0.39278 0.05998 0.0
O155 O 0.13335 0.49448 0.00648 0.0
O156 O 0.05989 0.39103 0.00583 0.0
C157 C 0.97208 0.5376 0.13996 0.0
C158 C 0.04104 0.48476 0.86746 0.0
C159 C 0.97792 0.64362 0.9737 0.0
C160 C 0.87067 0.46882 0.97479 0.0
C161 C 0.14443 0.53616 0.03096 0.0
C162 C 0.03026 0.36887 0.03869 0.0
O163 O 0.00296 0.56693 0.11469 0.0
C164 C 0.02643 0.06647 0.23699 0.0
C165 C 0.07837 0.07822 0.22517 0.0
H166 H 0.97215 0.04371 0.2959 0.0
C167 C 0.11606 0.07579 0.26447 0.0
H168 H -0.00325 0.06833 0.20726 0.0
C169 C 0.10213 0.06255 0.31489 0.0
C170 C 0.05025 0.05089 0.32703 0.0
H171 H 0.1563 0.08548 0.25648 0.0
H172 H 0.13208 0.06162 0.34441 0.0
C173 C 0.01252 0.05233 0.28752 0.0
C174 C 0.47996 0.93512 0.73345 0.0
C175 C 0.42793 0.93911 0.71697 0.0
H176 H 0.53398 0.94359 0.79629 0.0
C177 C 0.39104 0.95964 0.75181 0.0
H178 H 0.50982 0.92078 0.70763 0.0
C179 C 0.40547 0.97455 0.80181 0.0
C180 C 0.45669 0.96777 0.81877 0.0
H181 H 0.35035 0.96221 0.74159 0.0
H182 H 0.37594 0.989 0.82803 0.0
C183 C 0.49399 0.94849 0.78412 0.0
C184 C 0.55031 0.39566 0.76366 0.0
C185 C 0.57225 0.43194 0.79835 0.0
H186 H 0.52079 0.38089 0.68782 0.0
C187 C 0.57939 0.48365 0.78166 0.0
H188 H 0.54547 0.35516 0.7743 0.0
C189 C 0.56635 0.49816 0.731 0.0
C190 C 0.5453 0.4614 0.69635 0.0
H191 H 0.59565 0.51276 0.80746 0.0
H192 H 0.57301 0.53801 0.71893 0.0
C193 C 0.53662 0.4103 0.71359 0.0
C194 C 0.94554 0.6212 0.25722 0.0
C195 C 0.9265 0.58475 0.29328 0.0
H196 H 0.97528 0.63474 0.18118 0.0
C197 C 0.92252 0.53217 0.2783 0.0
H198 H 0.94764 0.66228 0.26655 0.0
C199 C 0.93722 0.51656 0.2284 0.0
C200 C 0.95688 0.55312 0.19291 0.0
H201 H 0.90838 0.50302 0.30517 0.0
H202 H 0.93369 0.47586 0.21781 0.0
C203 C 0.96106 0.60549 0.20794 0.0
C204 C 0.25059 0.06322 0.12546 0.0
C205 C 0.21388 0.08139 0.08941 0.0
H206 H 0.32678 0.03359 0.1383 0.0
C207 C 0.2277 0.08348 0.03666 0.0
H208 H 0.24221 0.0626 0.16659 0.0
C209 C 0.27724 0.06801 0.02054 0.0
C210 C 0.31343 0.04944 0.05679 0.0
H211 H 0.20026 0.09693 0.00784 0.0
H212 H 0.28708 0.07029 0.97977 0.0
C213 C 0.29943 0.04689 0.10929 0.0
C214 C 0.28246 0.98095 0.56769 0.0
C215 C 0.29296 0.92864 0.57949 0.0
H216 H 0.22474 0.03695 0.54619 0.0
C217 C 0.25252 0.89189 0.5772 0.0
H218 H 0.3131 0.00996 0.56928 0.0
C219 C 0.20226 0.90723 0.56467 0.0
C220 C 0.19132 0.95964 0.55375 0.0
H221 H 0.25935 0.85146 0.58691 0.0
H222 H 0.17182 0.87796 0.56411 0.0
C223 C 0.23205 -0.00371 0.55446 0.0
C224 C 0.75412 0.43847 0.89111 0.0
C225 C 0.71681 0.42306 0.92786 0.0
H226 H 0.83151 0.46507 0.87722 0.0
C227 C 0.73088 0.4221 0.98063 0.0
H228 H 0.74538 0.43822 0.85005 0.0
C229 C 0.78108 0.43632 0.99617 0.0
C230 C 0.81785 0.45251 0.95929 0.0
H231 H 0.70297 0.4108 0.01 0.0
H232 H 0.79082 0.43545 0.03702 0.0
C233 C 0.80379 0.45345 0.90668 0.0
C234 C 0.77913 0.53194 0.43116 0.0
C235 C 0.7956 0.58386 0.43791 0.0
H236 H 0.71707 0.47663 0.43915 0.0
C237 C 0.76172 0.61908 0.46262 0.0
H238 H 0.80436 0.50334 0.41345 0.0
C239 C 0.71253 0.6031 0.47907 0.0
C240 C 0.69549 0.55205 0.46983 0.0
H241 H 0.77204 0.65968 0.46752 0.0
H242 H 0.68687 0.63142 0.4967 0.0
C243 C 0.72931 0.51643 0.44624 0.0
C244 C 0.07789 0.22991 0.03628 0.0
C245 C 0.07221 0.21531 0.08861 0.0
H246 H 0.06974 0.29034 0.97959 0.0
C247 C 0.04949 0.25103 0.12331 0.0
H248 H 0.09408 0.20324 0.00808 0.0
C249 C 0.03383 0.3001 0.1064 0.0
C250 C 0.04188 0.31522 0.05482 0.0
H251 H 0.04552 0.24222 0.16412 0.0
H252 H 0.01759 0.32709 0.13431 0.0
C253 C 0.06363 0.27964 0.01976 0.0
C254 C 0.542 0.26246 0.90084 0.0
C255 C 0.56858 0.296 0.9352 0.0
H256 H 0.50688 0.18778 0.8889 0.0
C257 C 0.57736 0.27913 0.98636 0.0
H258 H 0.53553 0.27306 0.86077 0.0
C259 C 0.5625 0.2291 0.00178 0.0
C260 C 0.53724 0.19555 0.96684 0.0
H261 H 0.59665 0.30409 0.0143 0.0
H262 H 0.57121 0.21646 0.04088 0.0
C263 C 0.52587 0.21315 0.91674 0.0
C264 C 0.93997 0.75742 0.39623 0.0
C265 C 0.9365 0.71708 0.43278 0.0
H266 H 0.95438 0.83811 0.38261 0.0
C267 C 0.94747 0.7277 0.48506 0.0
H268 H 0.93086 0.75047 0.35578 0.0
C269 C 0.96127 0.77817 0.50052 0.0
C270 C 0.96318 0.81877 0.464 0.0
H271 H 0.94483 0.69718 0.5139 0.0
H272 H 0.96897 0.78568 0.54115 0.0
C273 C 0.95292 0.80773 0.41169 0.0
C274 C 0.45432 0.75945 0.62097 0.0
C275 C 0.43318 0.79491 0.58513 0.0
H276 H 0.48562 0.6834 0.63368 0.0
C277 C 0.42949 0.77974 0.53271 0.0
H278 H 0.45673 0.76872 0.66184 0.0
C279 C 0.44417 0.7298 0.51711 0.0
C280 C 0.46449 0.69458 0.55323 0.0
H281 H 0.41465 0.80618 0.50365 0.0
H282 H 0.43967 0.7187 0.4768 0.0
C283 C 0.4705 0.71017 0.605 0.0
C284 C 0.93311 0.99202 0.79638 0.0
C285 C 0.93774 0.93993 0.81262 0.0
H286 H 0.93988 0.04618 0.73342 0.0
C287 C 0.95519 0.90254 0.77674 0.0
H288 H 0.92011 0.02188 0.82303 0.0
C289 C 0.96729 0.91658 0.72611 0.0
C290 C 0.9613 0.96819 0.70948 0.0
H291 H 0.95767 0.86175 0.7869 0.0
H292 H 0.97974 0.88641 0.6995 0.0
C293 C 0.94444 0.00596 0.74513 0.0
C294 C 0.52437 0.05305 0.29198 0.0
C295 C 0.57603 0.06409 0.30556 0.0
H296 H 0.47171 0.03136 0.2312 0.0
C297 C 0.6151 0.0605 0.26773 0.0
H298 H 0.49368 0.05592 0.32058 0.0
C299 C 0.60262 0.04757 0.21676 0.0
C300 C 0.55091 0.03717 0.20281 0.0
H301 H 0.65516 0.0696 0.27719 0.0
H302 H 0.63341 0.0462 0.18815 0.0
C303 C 0.51196 0.03902 0.24104 0.0
C304 C 0.48383 0.55257 0.22235 0.0
C305 C 0.43204 0.56365 0.2094 0.0
H306 H 0.53738 0.53192 0.28255 0.0
C307 C 0.39362 0.56075 0.24792 0.0
H308 H 0.5141 0.55481 0.19323 0.0
C309 C 0.40689 0.54863 0.29886 0.0
C310 C 0.45879 0.53852 0.31222 0.0
H311 H 0.35352 0.5699 0.2391 0.0
H312 H 0.37651 0.54779 0.32791 0.0
C313 C 0.49705 0.53953 0.27331 0.0
C314 C 0.02985 0.4649 0.72253 0.0
C315 C 0.08076 0.45024 0.70991 0.0
H316 H 0.97741 0.48831 0.78263 0.0
C317 C 0.11904 0.45009 0.74873 0.0
H318 H -0.00026 0.46503 0.69316 0.0
C319 C 0.10627 0.46242 0.79975 0.0
C320 C 0.0551 0.47581 0.81281 0.0
H321 H 0.15844 0.43815 0.74007 0.0
H322 H 0.1363 0.46059 0.82913 0.0
C323 C 0.01721 0.47818 0.77357 0.0
C324 C 0.75794 0.89557 0.94483 0.0
C325 C 0.79708 0.93375 0.94437 0.0
H326 H 0.67779 0.87829 0.95718 0.0
C327 C 0.78469 0.98535 0.95719 0.0
H328 H 0.76648 0.85561 0.93435 0.0
C329 C 0.73372 -0.00159 0.97076 0.0
C330 C 0.69443 0.96016 0.97058 0.0
H331 H 0.8144 0.01536 0.95686 0.0
H332 H 0.7249 0.03849 0.98041 0.0
C333 C 0.70714 0.90866 0.95756 0.0
C334 C 0.74393 0.0568 0.40907 0.0
C335 C 0.70665 0.07353 0.44518 0.0
H336 H 0.82158 0.03255 0.39539 0.0
C337 C 0.72119 0.0785 0.49761 0.0
H338 H 0.73505 0.05432 0.36809 0.0
C339 C 0.77207 0.06708 0.51329 0.0
C340 C 0.8089 0.05007 0.47683 0.0
H341 H 0.69338 0.09132 0.52638 0.0
H342 H 0.78247 0.0714 0.55377 0.0
C343 C 0.79405 0.04479 0.42472 0.0
C344 C 0.26414 0.61423 0.06505 0.0
C345 C 0.30232 0.57546 0.06813 0.0
H346 H 0.18437 0.63203 0.05125 0.0
C347 C 0.28884 0.52362 0.05686 0.0
H348 H 0.27334 0.65438 0.07437 0.0
C349 C 0.23771 0.51074 0.04324 0.0
C350 C 0.1992 0.54942 0.04186 0.0
H351 H 0.31768 0.49309 0.05923 0.0
H352 H 0.22804 0.47041 0.03535 0.0
C353 C 0.2131 0.60131 0.05236 0.0
C354 C 0.22285 0.48276 0.55591 0.0
C355 C 0.20996 0.43138 0.56946 0.0
H356 H 0.28277 0.53541 0.53146 0.0
C357 C 0.24818 0.39264 0.56693 0.0
H358 H 0.19389 0.51322 0.55767 0.0
C359 C 0.29888 0.40529 0.55267 0.0
C360 C 0.31223 0.45684 0.54013 0.0
H361 H 0.23932 0.35286 0.57785 0.0
H362 H 0.32779 0.37473 0.55218 0.0
C363 C 0.27354 0.49533 0.54086 0.0
C364 C 0.90061 0.76036 0.93175 0.0
C365 C 0.9345 0.80148 0.94398 0.0
H366 H 0.88824 0.67809 0.93093 0.0
C367 C 0.98313 0.79082 0.9659 0.0
H368 H 0.86314 0.76795 0.91416 0.0
C369 C -0.00269 0.73931 0.97623 0.0
C370 C 0.96354 0.69804 0.96334 0.0
H371 H 0.00986 0.8222 0.97507 0.0
H372 H 0.03493 0.73172 0.99344 0.0
C373 C 0.91515 0.70908 0.94092 0.0
C374 C 0.44639 0.74424 0.11905 0.0
C375 C 0.44386 0.7057 0.08047 0.0
H376 H 0.4589 0.8246 0.13668 0.0
C377 C 0.45505 0.71906 0.02887 0.0
H378 H 0.43713 0.7351 0.159 0.0
C379 C 0.46789 0.77045 0.01604 0.0
C380 C 0.46856 0.80935 0.05448 0.0
H381 H 0.45307 0.68994 -0.00151 0.0
H382 H 0.47563 0.78001 0.97588 0.0
C383 C 0.4583 0.79557 0.10615 0.0
C384 C 0.0405 0.27361 0.62087 0.0
C385 C 0.06172 0.30633 0.58237 0.0
H386 H 0.01053 0.19795 0.6396 0.0
C387 C 0.06506 0.28737 0.53123 0.0
H388 H 0.03811 0.286 0.66091 0.0
C389 C 0.05124 0.23604 0.51974 0.0
C390 C 0.03202 0.20321 0.5587 0.0
H391 H 0.07977 0.31166 0.50021 0.0
H392 H 0.05615 0.22179 0.48048 0.0
C393 C 0.02509 0.22281 0.60891 0.0
C394 C 0.55609 0.22143 0.48352 0.0
C395 C 0.56936 0.20828 0.43242 0.0
H396 H 0.53265 0.28193 0.5357 0.0
C397 C 0.56862 0.24681 0.39389 0.0
H398 H 0.55666 0.19224 0.51379 0.0
C399 C 0.55583 0.29798 0.40638 0.0
C400 C 0.54284 0.31143 0.45752 0.0
H401 H 0.57942 0.23764 0.35432 0.0
H402 H 0.55634 0.32706 0.37599 0.0
C403 C 0.54234 0.27257 0.4959 0.0
loop_
_geom_bond_atom_site_label_1
_geom_bond_atom_site_label_2
_geom_bond_distance
_geom_bond_site_symmetry_2
_ccdc_geom_bond_type
H0 C3 0.931 . S
H1 C6 0.928 . S
H2 C8 0.930 . S
C3 H0 0.931 . S
C3 C4 1.413 . S
C3 C5 1.360 . S
C4 C3 1.413 . S
C4 C8 1.429 . S
C5 C3 1.360 . S
C5 C6 1.372 . S
C6 H1 0.928 . S
C6 C5 1.372 . S
C6 C7 1.404 . S
C7 C6 1.404 . S
C7 C8 1.391 . S
C8 H2 0.930 . S
C8 C4 1.429 . S
C8 C7 1.391 . S
H9 C12 0.931 . S
H10 C15 0.928 . S
H11 C17 0.930 . S
C12 H9 0.931 . S
C12 C13 1.413 . S
C12 C14 1.360 . S
C13 C12 1.413 . S
C13 C17 1.429 . S
C14 C12 1.360 . S
C14 C15 1.372 . S
C15 H10 0.928 . S
C15 C14 1.372 . S
C15 C16 1.404 . S
C16 C15 1.404 . S
C16 C17 1.391 . S
C17 H11 0.930 . S
C17 C13 1.429 . S
C17 C16 1.391 . S
H18 C21 0.931 . S
H19 C24 0.928 . S
H20 C26 0.930 . S
C21 H18 0.931 . S
C21 C22 1.413 . S
C21 C23 1.360 . S
C22 C21 1.413 . S
C22 C26 1.429 . S
C23 C21 1.360 . S
C23 C24 1.372 . S
C24 H19 0.928 . S
C24 C23 1.372 . S
C24 C25 1.404 . S
C25 C24 1.404 . S
C25 C26 1.391 . S
C26 H20 0.930 . S
C26 C22 1.429 . S
C26 C25 1.391 . S
H27 C30 0.931 . S
H28 C33 0.928 . S
H29 C35 0.930 . S
C30 H27 0.931 . S
C30 C31 1.413 . S
C30 C32 1.360 . S
C31 C30 1.413 . S
C31 C35 1.429 . S
C32 C30 1.360 . S
C32 C33 1.372 . S
C33 H28 0.928 . S
C33 C32 1.372 . S
C33 C34 1.404 . S
C34 C33 1.404 . S
C34 C35 1.391 . S
C35 H29 0.930 . S
C35 C31 1.429 . S
C35 C34 1.391 . S
H36 C39 0.931 1_545 S
H37 C42 0.928 . S
H38 C44 0.930 . S
C39 H36 0.931 1_565 S
C39 C40 1.413 . S
C39 C41 1.360 . S
C40 C39 1.413 . S
C40 C44 1.429 . S
C41 C39 1.360 . S
C41 C42 1.372 . S
C42 H37 0.928 . S
C42 C41 1.372 . S
C42 C43 1.404 . S
C43 C42 1.404 . S
C43 C44 1.391 . S
C44 H38 0.930 . S
C44 C40 1.429 . S
C44 C43 1.391 . S
H45 C48 0.931 . S
H46 C51 0.928 . S
H47 C53 0.930 . S
C48 H45 0.931 . S
C48 C49 1.413 . S
C48 C50 1.360 . S
C49 C48 1.413 . S
C49 C53 1.429 . S
C50 C48 1.360 . S
C50 C51 1.372 . S
C51 H46 0.928 . S
C51 C50 1.372 . S
C51 C52 1.404 . S
C52 C51 1.404 . S
C52 C53 1.391 . S
C53 H47 0.930 . S
C53 C49 1.429 . S
C53 C52 1.391 . S
H54 C57 0.931 . S
H55 C60 0.928 . S
H56 C62 0.930 . S
C57 H54 0.931 . S
C57 C58 1.413 . S
C57 C59 1.360 . S
C58 C57 1.413 . S
C58 C62 1.429 . S
C59 C57 1.360 . S
C59 C60 1.372 . S
C60 H55 0.928 . S
C60 C59 1.372 . S
C60 C61 1.404 . S
C61 C60 1.404 . S
C61 C62 1.391 . S
C62 H56 0.930 . S
C62 C58 1.429 . S
C62 C61 1.391 . S
H63 C66 0.931 . S
H64 C69 0.928 . S
H65 C71 0.930 . S
C66 H63 0.931 . S
C66 C67 1.413 . S
C66 C68 1.360 . S
C67 C66 1.413 . S
C67 C71 1.429 . S
C68 C66 1.360 . S
C68 C69 1.372 . S
C69 H64 0.928 . S
C69 C68 1.372 . S
C69 C70 1.404 . S
C70 C69 1.404 . S
C70 C71 1.391 . S
C71 H65 0.930 . S
C71 C67 1.429 . S
C71 C70 1.391 . S
O72 Zn73 1.953 . S
O72 C88 1.225 1_655 S
Zn73 O72 1.953 . S
Zn73 O74 1.949 1_655 S
Zn73 O80 1.919 . S
Zn73 O85 1.924 . S
O74 Zn73 1.949 1_455 S
O74 Zn75 1.923 1_445 S
O74 Zn76 1.950 . S
O74 Zn77 1.945 1_545 S
Zn75 O74 1.923 1_665 S
Zn75 O78 1.933 . S
Zn75 O81 1.941 1_565 S
Zn75 O82 1.965 1_665 S
Zn76 O74 1.950 . S
Zn76 O83 1.938 . S
Zn76 O84 1.906 1_545 S
Zn76 O94 1.953 . S
Zn77 O74 1.945 1_565 S
Zn77 O79 1.932 1_455 S
Zn77 O86 1.977 . S
Zn77 O87 1.910 1_455 S
O78 Zn75 1.933 . S
O78 C89 1.226 . S
O79 Zn77 1.932 1_655 S
O79 C89 1.307 . S
O80 Zn73 1.919 . S
O80 C91 1.253 . S
O81 Zn75 1.941 1_545 S
O81 C91 1.283 . S
O82 Zn75 1.965 1_445 S
O82 C90 1.303 . S
O83 Zn76 1.938 . S
O83 C90 1.247 . S
O84 Zn76 1.906 1_565 S
O84 C92 1.304 . S
O85 Zn73 1.924 . S
O85 C93 1.311 1_545 S
O86 Zn77 1.977 . S
O86 C92 1.272 . S
O87 Zn77 1.910 1_655 S
O87 C93 1.231 . S
C88 O72 1.225 1_455 S
C88 O94 1.298 . S
C89 O78 1.226 . S
C89 O79 1.307 . S
C90 O82 1.303 . S
C90 O83 1.247 . S
C91 O80 1.253 . S
C91 O81 1.283 . S
C92 O84 1.304 . S
C92 O86 1.272 . S
C93 O85 1.311 1_565 S
C93 O87 1.231 . S
O94 Zn76 1.953 . S
O94 C88 1.298 . S
O95 Zn96 1.953 . S
O95 C111 1.225 . S
Zn96 O95 1.953 . S
Zn96 O97 1.949 1_556 S
Zn96 O103 1.919 . S
Zn96 O108 1.924 . S
O97 Zn96 1.949 1_554 S
O97 Zn98 1.923 1_544 S
O97 Zn99 1.950 . S
O97 Zn100 1.945 1_545 S
Zn98 O97 1.923 1_566 S
Zn98 O101 1.933 1_556 S
Zn98 O104 1.941 . S
Zn98 O105 1.965 . S
Zn99 O97 1.950 . S
Zn99 O106 1.938 . S
Zn99 O107 1.906 . S
Zn99 O117 1.953 . S
Zn100 O97 1.945 1_565 S
Zn100 O102 1.932 . S
Zn100 O109 1.977 1_565 S
Zn100 O110 1.910 1_565 S
O101 Zn98 1.933 1_554 S
O101 C112 1.226 . S
O102 Zn100 1.932 . S
O102 C112 1.307 . S
O103 Zn96 1.919 . S
O103 C114 1.253 1_545 S
O104 Zn98 1.941 . S
O104 C114 1.283 . S
O105 Zn98 1.965 . S
O105 C113 1.303 . S
O106 Zn99 1.938 . S
O106 C113 1.247 1_544 S
O107 Zn99 1.906 . S
O107 C115 1.304 . S
O108 Zn96 1.924 . S
O108 C116 1.311 1_556 S
O109 Zn100 1.977 1_545 S
O109 C115 1.272 . S
O110 Zn100 1.910 1_545 S
O110 C116 1.231 . S
C111 O95 1.225 . S
C111 O117 1.298 1_556 S
C112 O101 1.226 . S
C112 O102 1.307 . S
C113 O105 1.303 . S
C113 O106 1.247 1_566 S
C114 O103 1.253 1_565 S
C114 O104 1.283 . S
C115 O107 1.304 . S
C115 O109 1.272 . S
C116 O108 1.311 1_554 S
C116 O110 1.231 . S
O117 Zn99 1.953 . S
O117 C111 1.298 1_554 S
O118 Zn119 1.953 . S
O118 C134 1.225 . S
Zn119 O118 1.953 . S
Zn119 O120 1.949 . S
Zn119 O126 1.919 . S
Zn119 O131 1.924 . S
O120 Zn119 1.949 . S
O120 Zn121 1.923 . S
O120 Zn122 1.950 . S
O120 Zn123 1.945 . S
Zn121 O120 1.923 . S
Zn121 O124 1.933 . S
Zn121 O127 1.941 . S
Zn121 O128 1.965 . S
Zn122 O120 1.950 . S
Zn122 O129 1.938 . S
Zn122 O130 1.906 . S
Zn122 O140 1.953 . S
Zn123 O120 1.945 . S
Zn123 O125 1.932 . S
Zn123 O132 1.977 . S
Zn123 O133 1.910 . S
O124 Zn121 1.933 . S
O124 C135 1.226 . S
O125 Zn123 1.932 . S
O125 C135 1.307 . S
O126 Zn119 1.919 . S
O126 C137 1.253 . S
O127 Zn121 1.941 . S
O127 C137 1.283 . S
O128 Zn121 1.965 . S
O128 C136 1.303 . S
O129 Zn122 1.938 . S
O129 C136 1.247 . S
O130 Zn122 1.906 . S
O130 C138 1.304 . S
O131 Zn119 1.924 . S
O131 C139 1.311 . S
O132 Zn123 1.977 . S
O132 C138 1.272 . S
O133 Zn123 1.910 . S
O133 C139 1.231 . S
C134 O118 1.225 . S
C134 O140 1.298 . S
C135 O124 1.226 . S
C135 O125 1.307 . S
C136 O128 1.303 . S
C136 O129 1.247 . S
C137 O126 1.253 . S
C137 O127 1.283 . S
C138 O130 1.304 . S
C138 O132 1.272 . S
C139 O131 1.311 . S
C139 O133 1.231 . S
O140 Zn122 1.953 . S
O140 C134 1.298 . S
O141 Zn142 1.953 . S
O141 C157 1.225 . S
Zn142 O141 1.953 . S
Zn142 O143 1.949 1_655 S
Zn142 O149 1.919 . S
Zn142 O154 1.924 . S
O143 Zn142 1.949 1_455 S
O143 Zn144 1.923 1_454 S
O143 Zn145 1.950 . S
O143 Zn146 1.945 1_554 S
Zn144 O143 1.923 1_656 S
Zn144 O147 1.933 1_655 S
Zn144 O150 1.941 . S
Zn144 O151 1.965 . S
Zn145 O143 1.950 . S
Zn145 O152 1.938 . S
Zn145 O153 1.906 . S
Zn145 O163 1.953 . S
Zn146 O143 1.945 1_556 S
Zn146 O148 1.932 . S
Zn146 O155 1.977 1_556 S
Zn146 O156 1.910 1_556 S
O147 Zn144 1.933 1_455 S
O147 C158 1.226 . S
O148 Zn146 1.932 . S
O148 C158 1.307 . S
O149 Zn142 1.919 . S
O149 C160 1.253 1_554 S
O150 Zn144 1.941 . S
O150 C160 1.283 . S
O151 Zn144 1.965 . S
O151 C159 1.303 . S
O152 Zn145 1.938 . S
O152 C159 1.247 1_454 S
O153 Zn145 1.906 . S
O153 C161 1.304 . S
O154 Zn142 1.924 . S
O154 C162 1.311 1_655 S
O155 Zn146 1.977 1_554 S
O155 C161 1.272 . S
O156 Zn146 1.910 1_554 S
O156 C162 1.231 . S
C157 O141 1.225 . S
C157 O163 1.298 1_655 S
C158 O147 1.226 . S
C158 O148 1.307 . S
C159 O151 1.303 . S
C159 O152 1.247 1_656 S
C160 O149 1.253 1_556 S
C160 O150 1.283 . S
C161 O153 1.304 . S
C161 O155 1.272 . S
C162 O154 1.311 1_455 S
C162 O156 1.231 . S
O163 Zn145 1.953 . S
O163 C157 1.298 1_455 S
C164 C165 1.387 . S
C164 H168 0.950 . S
C164 C173 1.390 . S
C165 C164 1.387 . S
C165 C167 1.387 . S
H166 C173 0.950 . S
C167 C165 1.387 . S
C167 C169 1.390 . S
C167 H171 0.950 . S
H168 C164 0.950 . S
C169 C167 1.390 . S
C169 C170 1.387 . S
C169 H172 0.950 . S
C170 C169 1.387 . S
C170 C173 1.387 . S
H171 C167 0.950 . S
H172 C169 0.950 . S
C173 C164 1.390 . S
C173 H166 0.950 . S
C173 C170 1.387 . S
C174 C175 1.387 . S
C174 H178 0.950 . S
C174 C183 1.390 . S
C175 C174 1.387 . S
C175 C177 1.387 . S
H176 C183 0.950 . S
C177 C175 1.387 . S
C177 C179 1.390 . S
C177 H181 0.950 . S
H178 C174 0.950 . S
C179 C177 1.390 . S
C179 C180 1.387 . S
C179 H182 0.950 . S
C180 C179 1.387 . S
C180 C183 1.387 . S
H181 C177 0.950 . S
H182 C179 0.950 . S
C183 C174 1.390 . S
C183 H176 0.950 . S
C183 C180 1.387 . S
C184 C185 1.387 . S
C184 H188 0.950 . S
C184 C193 1.390 . S
C185 C184 1.387 . S
C185 C187 1.387 . S
H186 C193 0.950 . S
C187 C185 1.387 . S
C187 C189 1.390 . S
C187 H191 0.950 . S
H188 C184 0.950 . S
C189 C187 1.390 . S
C189 C190 1.387 . S
C189 H192 0.950 . S
C190 C189 1.387 . S
C190 C193 1.387 . S
H191 C187 0.950 . S
H192 C189 0.950 . S
C193 C184 1.390 . S
C193 H186 0.950 . S
C193 C190 1.387 . S
C194 C195 1.387 . S
C194 H198 0.950 . S
C194 C203 1.390 . S
C195 C194 1.387 . S
C195 C197 1.387 . S
H196 C203 0.950 . S
C197 C195 1.387 . S
C197 C199 1.390 . S
C197 H201 0.950 . S
H198 C194 0.950 . S
C199 C197 1.390 . S
C199 C200 1.387 . S
C199 H202 0.950 . S
C200 C199 1.387 . S
C200 C203 1.387 . S
H201 C197 0.950 . S
H202 C199 0.950 . S
C203 C194 1.390 . S
C203 H196 0.950 . S
C203 C200 1.387 . S
C204 C205 1.387 . S
C204 H208 0.950 . S
C204 C213 1.390 . S
C205 C204 1.387 . S
C205 C207 1.387 . S
H206 C213 0.950 . S
C207 C205 1.387 . S
C207 C209 1.390 . S
C207 H211 0.950 . S
H208 C204 0.950 . S
C209 C207 1.390 . S
C209 C210 1.387 . S
C209 H212 0.950 . S
C210 C209 1.387 . S
C210 C213 1.387 . S
H211 C207 0.950 . S
H212 C209 0.950 . S
C213 C204 1.390 . S
C213 H206 0.950 . S
C213 C210 1.387 . S
C214 C215 1.387 . S
C214 H218 0.950 . S
C214 C223 1.390 . S
C215 C214 1.387 . S
C215 C217 1.387 . S
H216 C223 0.950 . S
C217 C215 1.387 . S
C217 C219 1.390 . S
C217 H221 0.950 . S
H218 C214 0.950 . S
C219 C217 1.390 . S
C219 C220 1.387 . S
C219 H222 0.950 . S
C220 C219 1.387 . S
C220 C223 1.387 . S
H221 C217 0.950 . S
H222 C219 0.950 . S
C223 C214 1.390 . S
C223 H216 0.950 . S
C223 C220 1.387 . S
C224 C225 1.387 . S
C224 H228 0.950 . S
C224 C233 1.390 . S
C225 C224 1.387 . S
C225 C227 1.387 . S
H226 C233 0.950 . S
C227 C225 1.387 . S
C227 C229 1.390 . S
C227 H231 0.950 . S
H228 C224 0.950 . S
C229 C227 1.390 . S
C229 C230 1.387 . S
C229 H232 0.950 1_556 S
C230 C229 1.387 . S
C230 C233 1.387 . S
H231 C227 0.950 . S
H232 C229 0.950 1_554 S
C233 C224 1.390 . S
C233 H226 0.950 . S
C233 C230 1.387 . S
C234 C235 1.387 . S
C234 H238 0.950 . S
C234 C243 1.390 . S
C235 C234 1.387 . S
C235 C237 1.387 . S
H236 C243 0.950 . S
C237 C235 1.387 . S
C237 C239 1.390 . S
C237 H241 0.950 . S
H238 C234 0.950 . S
C239 C237 1.390 . S
C239 C240 1.387 . S
C239 H242 0.950 . S
C240 C239 1.387 . S
C240 C243 1.387 . S
H241 C237 0.950 . S
H242 C239 0.950 . S
C243 C234 1.390 . S
C243 H236 0.950 . S
C243 C240 1.387 . S
C244 C245 1.387 . S
C244 H248 0.950 . S
C244 C253 1.390 . S
C245 C244 1.387 . S
C245 C247 1.387 . S
H246 C253 0.950 . S
C247 C245 1.387 . S
C247 C249 1.390 . S
C247 H251 0.950 . S
H248 C244 0.950 . S
C249 C247 1.390 . S
C249 C250 1.387 . S
C249 H252 0.950 . S
C250 C249 1.387 . S
C250 C253 1.387 . S
H251 C247 0.950 . S
H252 C249 0.950 . S
C253 C244 1.390 . S
C253 H246 0.950 . S
C253 C250 1.387 . S
C254 C255 1.387 . S
C254 H258 0.950 . S
C254 C263 1.390 . S
C255 C254 1.387 . S
C255 C257 1.387 . S
H256 C263 0.950 . S
C257 C255 1.387 . S
C257 C259 1.390 . S
C257 H261 0.950 . S
H258 C254 0.950 . S
C259 C257 1.390 . S
C259 C260 1.387 . S
C259 H262 0.950 1_556 S
C260 C259 1.387 . S
C260 C263 1.387 . S
H261 C257 0.950 . S
H262 C259 0.950 1_554 S
C263 C254 1.390 . S
C263 H256 0.950 . S
C263 C260 1.387 . S
C264 C265 1.387 . S
C264 H268 0.950 . S
C264 C273 1.390 . S
C265 C264 1.387 . S
C265 C267 1.387 . S
H266 C273 0.950 . S
C267 C265 1.387 . S
C267 C269 1.390 . S
C267 H271 0.950 . S
H268 C264 0.950 . S
C269 C267 1.390 . S
C269 C270 1.387 . S
C269 H272 0.950 . S
C270 C269 1.387 . S
C270 C273 1.387 . S
H271 C267 0.950 . S
H272 C269 0.950 . S
C273 C264 1.390 . S
C273 H266 0.950 . S
C273 C270 1.387 . S
C274 C275 1.387 . S
C274 H278 0.950 . S
C274 C283 1.390 . S
C275 C274 1.387 . S
C275 C277 1.387 . S
H276 C283 0.950 . S
C277 C275 1.387 . S
C277 C279 1.390 . S
C277 H281 0.950 . S
H278 C274 0.950 . S
C279 C277 1.390 . S
C279 C280 1.387 . S
C279 H282 0.950 . S
C280 C279 1.387 . S
C280 C283 1.387 . S
H281 C277 0.950 . S
H282 C279 0.950 . S
C283 C274 1.390 . S
C283 H276 0.950 . S
C283 C280 1.387 . S
C284 C285 1.387 1_545 S
C284 H288 0.950 . S
C284 C293 1.390 . S
C285 C284 1.387 1_565 S
C285 C287 1.387 . S
H286 C293 0.950 . S
C287 C285 1.387 . S
C287 C289 1.390 . S
C287 H291 0.950 . S
H288 C284 0.950 . S
C289 C287 1.390 . S
C289 C290 1.387 . S
C289 H292 0.950 . S
C290 C289 1.387 . S
C290 C293 1.387 1_565 S
H291 C287 0.950 . S
H292 C289 0.950 . S
C293 C284 1.390 . S
C293 H286 0.950 . S
C293 C290 1.387 1_545 S
C294 C295 1.387 . S
C294 H298 0.950 1_545 S
C294 C303 1.390 1_545 S
C295 C294 1.387 . S
C295 C297 1.387 . S
H296 C303 0.950 . S
C297 C295 1.387 . S
C297 C299 1.390 . S
C297 H301 0.950 . S
H298 C294 0.950 1_565 S
C299 C297 1.390 . S
C299 C300 1.387 . S
C299 H302 0.950 . S
C300 C299 1.387 . S
C300 C303 1.387 1_545 S
H301 C297 0.950 . S
H302 C299 0.950 . S
C303 C294 1.390 1_565 S
C303 H296 0.950 . S
C303 C300 1.387 1_565 S
C304 C305 1.387 . S
C304 H308 0.950 . S
C304 C313 1.390 . S
C305 C304 1.387 . S
C305 C307 1.387 . S
H306 C313 0.950 . S
C307 C305 1.387 . S
C307 C309 1.390 . S
C307 H311 0.950 . S
H308 C304 0.950 . S
C309 C307 1.390 . S
C309 C310 1.387 . S
C309 H312 0.950 . S
C310 C309 1.387 . S
C310 C313 1.387 . S
H311 C307 0.950 . S
H312 C309 0.950 . S
C313 C304 1.390 . S
C313 H306 0.950 . S
C313 C310 1.387 . S
C314 C315 1.387 . S
C314 H318 0.950 . S
C314 C323 1.390 . S
C315 C314 1.387 . S
C315 C317 1.387 . S
H316 C323 0.950 . S
C317 C315 1.387 . S
C317 C319 1.390 . S
C317 H321 0.950 . S
H318 C314 0.950 . S
C319 C317 1.390 . S
C319 C320 1.387 . S
C319 H322 0.950 . S
C320 C319 1.387 . S
C320 C323 1.387 . S
H321 C317 0.950 . S
H322 C319 0.950 . S
C323 C314 1.390 . S
C323 H316 0.950 . S
C323 C320 1.387 . S
C324 C325 1.387 . S
C324 H328 0.950 1_556 S
C324 C333 1.390 . S
C325 C324 1.387 . S
C325 C327 1.387 1_565 S
H326 C333 0.950 1_554 S
C327 C325 1.387 1_545 S
C327 C329 1.390 . S
C327 H331 0.950 . S
H328 C324 0.950 1_554 S
C329 C327 1.390 . S
C329 C330 1.387 1_545 S
C329 H332 0.950 . S
C330 C329 1.387 1_565 S
C330 C333 1.387 . S
H331 C327 0.950 . S
H332 C329 0.950 . S
C333 C324 1.390 . S
C333 H326 0.950 1_556 S
C333 C330 1.387 . S
C334 C335 1.387 . S
C334 H338 0.950 . S
C334 C343 1.390 . S
C335 C334 1.387 . S
C335 C337 1.387 . S
H336 C343 0.950 . S
C337 C335 1.387 . S
C337 C339 1.390 . S
C337 H341 0.950 . S
H338 C334 0.950 . S
C339 C337 1.390 . S
C339 C340 1.387 . S
C339 H342 0.950 . S
C340 C339 1.387 . S
C340 C343 1.387 . S
H341 C337 0.950 . S
H342 C339 0.950 . S
C343 C334 1.390 . S
C343 H336 0.950 . S
C343 C340 1.387 . S
C344 C345 1.387 . S
C344 H348 0.950 . S
C344 C353 1.390 . S
C345 C344 1.387 . S
C345 C347 1.387 . S
H346 C353 0.950 . S
C347 C345 1.387 . S
C347 C349 1.390 . S
C347 H351 0.950 . S
H348 C344 0.950 . S
C349 C347 1.390 . S
C349 C350 1.387 . S
C349 H352 0.950 . S
C350 C349 1.387 . S
C350 C353 1.387 . S
H351 C347 0.950 . S
H352 C349 0.950 . S
C353 C344 1.390 . S
C353 H346 0.950 . S
C353 C350 1.387 . S
C354 C355 1.387 . S
C354 H358 0.950 . S
C354 C363 1.390 . S
C355 C354 1.387 . S
C355 C357 1.387 . S
H356 C363 0.950 . S
C357 C355 1.387 . S
C357 C359 1.390 . S
C357 H361 0.950 . S
H358 C354 0.950 . S
C359 C357 1.390 . S
C359 C360 1.387 . S
C359 H362 0.950 . S
C360 C359 1.387 . S
C360 C363 1.387 . S
H361 C357 0.950 . S
H362 C359 0.950 . S
C363 C354 1.390 . S
C363 H356 0.950 . S
C363 C360 1.387 . S
C364 C365 1.387 . S
C364 H368 0.950 . S
C364 C373 1.390 . S
C365 C364 1.387 . S
C365 C367 1.387 . S
H366 C373 0.950 . S
C367 C365 1.387 . S
C367 C369 1.390 . S
C367 H371 0.950 1_656 S
H368 C364 0.950 . S
C369 C367 1.390 . S
C369 C370 1.387 . S
C369 H372 0.950 1_656 S
C370 C369 1.387 . S
C370 C373 1.387 . S
H371 C367 0.950 1_454 S
H372 C369 0.950 1_454 S
C373 C364 1.390 . S
C373 H366 0.950 . S
C373 C370 1.387 . S
C374 C375 1.387 . S
C374 H378 0.950 . S
C374 C383 1.390 . S
C375 C374 1.387 . S
C375 C377 1.387 . S
H376 C383 0.950 . S
C377 C375 1.387 . S
C377 C379 1.390 . S
C377 H381 0.950 1_554 S
H378 C374 0.950 . S
C379 C377 1.390 . S
C379 C380 1.387 . S
C379 H382 0.950 1_554 S
C380 C379 1.387 . S
C380 C383 1.387 . S
H381 C377 0.950 1_556 S
H382 C379 0.950 1_556 S
C383 C374 1.390 . S
C383 H376 0.950 . S
C383 C380 1.387 . S
C384 C385 1.387 . S
C384 H388 0.950 . S
C384 C393 1.390 . S
C385 C384 1.387 . S
C385 C387 1.387 . S
H386 C393 0.950 . S
C387 C385 1.387 . S
C387 C389 1.390 . S
C387 H391 0.950 . S
H388 C384 0.950 . S
C389 C387 1.390 . S
C389 C390 1.387 . S
C389 H392 0.950 . S
C390 C389 1.387 . S
C390 C393 1.387 . S
H391 C387 0.950 . S
H392 C389 0.950 . S
C393 C384 1.390 . S
C393 H386 0.950 . S
C393 C390 1.387 . S
C394 C395 1.387 . S
C394 H398 0.950 . S
C394 C403 1.390 . S
C395 C394 1.387 . S
C395 C397 1.387 . S
H396 C403 0.950 . S
C397 C395 1.387 . S
C397 C399 1.390 . S
C397 H401 0.950 . S
H398 C394 0.950 . S
C399 C397 1.390 . S
C399 C400 1.387 . S
C399 H402 0.950 . S
C400 C399 1.387 . S
C400 C403 1.387 . S
H401 C397 0.950 . S
H402 C399 0.950 . S
C403 C394 1.390 . S
C403 H396 0.950 . S
C403 C400 1.387 . S
C165 C5 1.567 . S
C170 C90 1.548 . S
C175 C14 1.554 . S
C180 C114 1.524 . S
C190 C134 1.433 . S
C185 C25 1.422 . S
C195 C34 1.423 . S
C200 C157 1.438 . S
C210 C116 1.588 . S
C205 C7 1.637 . S
C220 C92 1.582 . S
C215 C13 1.639 . S
C230 C160 1.507 . S
C225 C23 1.551 . S
C240 C137 1.497 . S
C235 C31 1.536 . S
C245 C4 1.470 . S
C250 C162 1.426 . S
C260 C111 1.561 . S
C255 C22 1.553 . S
C265 C32 1.548 . S
C270 C89 1.559 . S
C275 C16 1.456 . S
C280 C139 1.410 . S
C290 C93 1.563 . S
C285 C41 1.562 . S
C295 C50 1.553 . S
C300 C115 1.532 . S
C305 C61 1.603 . S
C310 C135 1.629 . S
C315 C67 1.610 . S
C320 C158 1.637 . S
C325 C40 1.507 . S
C330 C113 1.487 . S
C340 C91 1.510 . S
C335 C52 1.497 . S
C350 C161 1.464 . S
C345 C59 1.510 . S
C360 C138 1.471 . S
C355 C70 1.520 . S
C365 C43 1.694 . S
C370 C159 1.666 . S
C380 C112 1.518 . S
C375 C58 1.492 . S
C390 C88 1.517 . S
C385 C68 1.490 . S
C395 C49 1.684 . S
C400 C136 1.656 . S
