# Generated by pormake.
# Topology pyr, (3,6)-cn, num edge types: 1
# Building blocks:
#     Node 0, Type 0, BuildingBlock: QEWDON_clean_linker_0, # of connection points: 3
#     Node 1, Type 0, BuildingBlock: QEWDON_clean_linker_0, # of connection points: 3
#     Node 2, Type 0, BuildingBlock: QEWDON_clean_linker_0, # of connection points: 3
#     Node 3, Type 0, BuildingBlock: QEWDON_clean_linker_0, # of connection points: 3
#     Node 4, Type 0, BuildingBlock: QEWDON_clean_linker_0, # of connection points: 3
#     Node 5, Type 0, BuildingBlock: QEWDON_clean_linker_0, # of connection points: 3
#     Node 6, Type 0, BuildingBlock: QEWDON_clean_linker_0, # of connection points: 3
#     Node 7, Type 0, BuildingBlock: QEWDON_clean_linker_0, # of connection points: 3
#     Node 8, Type 1, BuildingBlock: MIFKUJ_clean_sbu_0, # of connection points: 6
#     Node 9, Type 1, BuildingBlock: MIFKUJ_clean_sbu_0, # of connection points: 6
#     Node 10, Type 1, BuildingBlock: MIFKUJ_clean_sbu_0, # of connection points: 6
#     Node 11, Type 1, BuildingBlock: MIFKUJ_clean_sbu_0, # of connection points: 6
#     Edge 12, Type (0, 1), BuildingBlock: UVAHIK_clean_linker_0, # of connection points: 2
#     Edge 13, Type (0, 1), BuildingBlock: UVAHIK_clean_linker_0, # of connection points: 2
#     Edge 14, Type (0, 1), BuildingBlock: UVAHIK_clean_linker_0, # of connection points: 2
#     Edge 15, Type (0, 1), BuildingBlock: UVAHIK_clean_linker_0, # of connection points: 2
#     Edge 16, Type (0, 1), BuildingBlock: UVAHIK_clean_linker_0, # of connection points: 2
#     Edge 17, Type (0, 1), BuildingBlock: UVAHIK_clean_linker_0, # of connection points: 2
#     Edge 18, Type (0, 1), BuildingBlock: UVAHIK_clean_linker_0, # of connection points: 2
#     Edge 19, Type (0, 1), BuildingBlock: UVAHIK_clean_linker_0, # of connection points: 2
#     Edge 20, Type (0, 1), BuildingBlock: UVAHIK_clean_linker_0, # of connection points: 2
#     Edge 21, Type (0, 1), BuildingBlock: UVAHIK_clean_linker_0, # of connection points: 2
#     Edge 22, Type (0, 1), BuildingBlock: UVAHIK_clean_linker_0, # of connection points: 2
#     Edge 23, Type (0, 1), BuildingBlock: UVAHIK_clean_linker_0, # of connection points: 2
#     Edge 24, Type (0, 1), BuildingBlock: UVAHIK_clean_linker_0, # of connection points: 2
#     Edge 25, Type (0, 1), BuildingBlock: UVAHIK_clean_linker_0, # of connection points: 2
#     Edge 26, Type (0, 1), BuildingBlock: UVAHIK_clean_linker_0, # of connection points: 2
#     Edge 27, Type (0, 1), BuildingBlock: UVAHIK_clean_linker_0, # of connection points: 2
#     Edge 28, Type (0, 1), BuildingBlock: UVAHIK_clean_linker_0, # of connection points: 2
#     Edge 29, Type (0, 1), BuildingBlock: UVAHIK_clean_linker_0, # of connection points: 2
#     Edge 30, Type (0, 1), BuildingBlock: UVAHIK_clean_linker_0, # of connection points: 2
#     Edge 31, Type (0, 1), BuildingBlock: UVAHIK_clean_linker_0, # of connection points: 2
#     Edge 32, Type (0, 1), BuildingBlock: UVAHIK_clean_linker_0, # of connection points: 2
#     Edge 33, Type (0, 1), BuildingBlock: UVAHIK_clean_linker_0, # of connection points: 2
#     Edge 34, Type (0, 1), BuildingBlock: UVAHIK_clean_linker_0, # of connection points: 2
#     Edge 35, Type (0, 1), BuildingBlock: UVAHIK_clean_linker_0, # of connection points: 2
# Relax obj value: 0.095
# Max RMSD: 0.268
# Mean RMSD: 0.180
data_MOF--net-pyr--node1-MIFKUJ_clean_sbu_0--node2-QEWDON_clean_linker_0--edge1-UVAHIK_clean_linker_0
_symmetry_space_group_name_H-M    P1
_symmetry_Int_Tables_number       1
_symmetry_cell_setting            triclinic
loop_
_symmetry_equiv_pos_as_xyz
'x, y, z'
_cell_length_a     49.52964
_cell_length_b     44.655745
_cell_length_c     51.725527
_cell_angle_alpha  86.120205
_cell_angle_beta   88.420629
_cell_angle_gamma 106.63178
loop_
_atom_site_label
_atom_site_type_symbol
_atom_site_fract_x
_atom_site_fract_y
_atom_site_fract_z
_atom_type_partial_charge
H0 H 0.25445 0.26066 0.19533 0.0
C1 C 0.24079 0.2483 0.21174 0.0
C2 C 0.24048 0.21756 0.22037 0.0
C3 C 0.2239 0.26371 0.22447 0.0
H4 H 0.22272 0.17936 0.2496 0.0
C5 C 0.22247 0.20244 0.24192 0.0
C6 C 0.20525 0.21758 0.25471 0.0
C7 C 0.20609 0.24826 0.24574 0.0
C8 C 0.2278 0.29742 0.21798 0.0
H9 H 0.19336 0.26048 0.25566 0.0
C10 C 0.2095 0.30802 0.20176 0.0
C11 C 0.21351 0.34049 0.19628 0.0
C12 C 0.24997 0.31921 0.22882 0.0
H13 H 0.26414 0.31136 0.24141 0.0
C14 C 0.25383 0.35123 0.2238 0.0
H15 H 0.19258 0.29107 0.1932 0.0
C16 C 0.23575 0.36184 0.20777 0.0
H17 H 0.23907 0.38688 0.2046 0.0
H18 H 0.27083 0.36791 0.23246 0.0
H19 H 0.30501 0.87537 0.76949 0.0
C20 C 0.31772 0.86606 0.75663 0.0
C21 C 0.34496 0.86582 0.76326 0.0
C22 C 0.30612 0.8525 0.73426 0.0
H23 H 0.38152 0.85164 0.75226 0.0
C24 C 0.36069 0.85244 0.74697 0.0
C25 C 0.34917 0.83854 0.72471 0.0
C26 C 0.32187 0.83884 0.71834 0.0
C27 C 0.27621 0.84866 0.72953 0.0
H28 H 0.31248 0.82751 0.70152 0.0
C29 C 0.26814 0.86862 0.71107 0.0
C30 C 0.23938 0.8648 0.70739 0.0
C31 C 0.25551 0.82464 0.74381 0.0
H32 H 0.26149 0.809 0.75799 0.0
C33 C 0.22699 0.8206 0.73985 0.0
H34 H 0.28405 0.88731 0.70008 0.0
C35 C 0.21891 0.84069 0.72183 0.0
H36 H 0.19666 0.8375 0.71918 0.0
H37 H 0.21111 0.80201 0.75089 0.0
H38 H 0.71024 0.41448 0.84131 0.0
C39 C 0.70441 0.39029 0.84928 0.0
C40 C 0.72368 0.37953 0.86397 0.0
C41 C 0.6774 0.37017 0.8457 0.0
H42 H 0.73024 0.34087 0.88767 0.0
C43 C 0.71576 0.34873 0.87544 0.0
C44 C 0.68871 0.32866 0.87256 0.0
C45 C 0.67001 0.33923 0.85705 0.0
C46 C 0.65615 0.38162 0.83151 0.0
H47 H 0.64909 0.32368 0.85482 0.0
C48 C 0.66384 0.40151 0.80855 0.0
C49 C 0.64321 0.41078 0.79469 0.0
C50 C 0.6277 0.37214 0.84075 0.0
H51 H 0.62117 0.35761 0.85873 0.0
C52 C 0.60729 0.38143 0.82698 0.0
H53 H 0.68557 0.40903 0.80102 0.0
C54 C 0.61492 0.40046 0.80395 0.0
H55 H 0.59879 0.40751 0.7935 0.0
H56 H 0.58548 0.37388 0.8342 0.0
H57 H 0.85207 0.76389 0.27084 0.0
C58 C 0.83643 0.75109 0.28575 0.0
C59 C 0.8402 0.75775 0.31179 0.0
C60 C 0.81201 0.72843 0.27895 0.0
H61 H 0.82197 0.74785 0.35078 0.0
C62 C 0.81957 0.74162 0.33089 0.0
C63 C 0.79496 0.71938 0.32434 0.0
C64 C 0.79145 0.71273 0.29833 0.0
C65 C 0.80722 0.72129 0.25165 0.0
H66 H 0.77265 0.69525 0.29312 0.0
C67 C 0.8273 0.71211 0.23687 0.0
C68 C 0.82114 0.70178 0.21204 0.0
C69 C 0.78145 0.7213 0.24093 0.0
H70 H 0.76571 0.72839 0.25195 0.0
C71 C 0.77562 0.71184 0.21602 0.0
H72 H 0.847 0.71144 0.24517 0.0
C73 C 0.79522 0.7018 0.20171 0.0
H74 H 0.79015 0.69402 0.18257 0.0
H75 H 0.75569 0.71182 0.20795 0.0
H76 H 0.79021 0.81063 0.85868 0.0
C77 C 0.80027 0.82495 0.84136 0.0
C78 C 0.82778 0.82566 0.83321 0.0
C79 C 0.78495 0.84116 0.82643 0.0
H80 H 0.86091 0.84355 0.80355 0.0
C81 C 0.83985 0.84327 0.81001 0.0
C82 C 0.82491 0.85992 0.79484 0.0
C83 C 0.7973 0.85864 0.80333 0.0
C84 C 0.75476 0.83628 0.83315 0.0
H85 H 0.78517 0.87093 0.79194 0.0
C86 C 0.74583 0.85333 0.85189 0.0
C87 C 0.71684 0.84719 0.85861 0.0
C88 C 0.73468 0.81344 0.82099 0.0
H89 H 0.74124 0.80013 0.80655 0.0
C90 C 0.70603 0.80732 0.82757 0.0
H91 H 0.76133 0.87097 0.86134 0.0
C92 C 0.69713 0.82396 0.84629 0.0
H93 H 0.67473 0.81901 0.85086 0.0
H94 H 0.69065 0.78962 0.81813 0.0
H95 H 0.70948 0.22098 0.41944 0.0
C96 C 0.7021 0.21333 0.40077 0.0
C97 C 0.71827 0.19997 0.3848 0.0
C98 C 0.67557 0.21521 0.39354 0.0
H99 H 0.71958 0.17862 0.34861 0.0
C100 C 0.70793 0.18993 0.36079 0.0
C101 C 0.68137 0.1919 0.35338 0.0
C102 C 0.66532 0.20458 0.3699 0.0
C103 C 0.65661 0.22319 0.41254 0.0
H104 H 0.64444 0.20535 0.36473 0.0
C105 C 0.65775 0.25449 0.41583 0.0
C106 C 0.63978 0.26121 0.43467 0.0
C107 C 0.63728 0.19881 0.42777 0.0
H108 H 0.63616 0.17458 0.42532 0.0
C109 C 0.61944 0.20553 0.4464 0.0
H110 H 0.67258 0.2734 0.40403 0.0
C111 C 0.62075 0.23657 0.44995 0.0
H112 H 0.60672 0.24141 0.46449 0.0
H113 H 0.60461 0.18664 0.45814 0.0
H114 H 0.34723 0.71678 0.27493 0.0
C115 C 0.32683 0.71444 0.26689 0.0
C116 C 0.32354 0.73842 0.2494 0.0
C117 C 0.30461 0.68658 0.27213 0.0
H118 H 0.29681 0.75209 0.22179 0.0
C119 C 0.29826 0.73445 0.23673 0.0
C120 C 0.2759 0.70698 0.24169 0.0
C121 C 0.27878 0.68401 0.26043 0.0
C122 C 0.30909 0.65864 0.28693 0.0
H123 H 0.26115 0.66321 0.26487 0.0
C124 C 0.32728 0.66167 0.30775 0.0
C125 C 0.33223 0.63495 0.32048 0.0
C126 C 0.29598 0.62838 0.27923 0.0
H127 H 0.28279 0.62494 0.26271 0.0
C128 C 0.30016 0.60194 0.2923 0.0
H129 H 0.33786 0.68468 0.31382 0.0
C130 C 0.31806 0.60511 0.31279 0.0
H131 H 0.32085 0.58408 0.32263 0.0
H132 H 0.28974 0.57888 0.28628 0.0
H133 H 0.2182 0.38095 0.77428 0.0
C134 C 0.20663 0.3639 0.76162 0.0
C135 C 0.21753 0.36328 0.73637 0.0
C136 C 0.181 0.34225 0.77081 0.0
H137 H 0.21126 0.3393 0.70134 0.0
C138 C 0.20231 0.34079 0.72038 0.0
C139 C 0.17618 0.31957 0.72892 0.0
C140 C 0.1658 0.32037 0.75434 0.0
C141 C 0.17048 0.34183 0.79792 0.0
H142 H 0.14565 0.30435 0.76131 0.0
C143 C 0.16814 0.36944 0.8081 0.0
C144 C 0.15877 0.36901 0.83406 0.0
C145 C 0.16316 0.3137 0.81389 0.0
H146 H 0.16492 0.29218 0.80648 0.0
C147 C 0.15405 0.31324 0.83972 0.0
H148 H 0.17358 0.3912 0.79585 0.0
C149 C 0.15194 0.34071 0.84982 0.0
H150 H 0.1445 0.33976 0.86984 0.0
H151 H 0.14859 0.29151 0.85194 0.0
Zn152 Zn 0.02901 0.03233 0.53291 0.0
Zn153 Zn 0.97328 0.0479 0.50246 0.0
C154 C 0.05718 0.09457 0.54657 0.0
O155 O 0.07519 0.09304 0.52793 0.0
C156 C 0.9712 0.98936 0.47713 0.0
O157 O 0.9865 0.9827 0.49578 0.0
O158 O 0.05996 0.01458 0.54528 0.0
O159 O 0.99322 0.00185 0.548 0.0
O160 O 0.96239 0.02819 0.5394 0.0
C161 C 0.0648 0.01511 0.56929 0.0
O162 O 0.04934 0.02657 0.58466 0.0
O163 O 0.03471 0.0721 0.55102 0.0
C164 C 0.94588 0.08395 0.47102 0.0
O165 O 0.96358 0.07911 0.45351 0.0
O166 O 0.94632 0.07318 0.49436 0.0
O167 O 0.01225 0.07683 0.49167 0.0
O168 O 0.03566 0.0417 0.49425 0.0
O169 O 0.96387 0.0144 0.47702 0.0
C170 C 0.97006 0.0076 0.55313 0.0
C171 C 0.03156 0.06606 0.48296 0.0
Zn172 Zn 0.50483 0.00135 0.03638 0.0
Zn173 Zn 0.48865 0.0601 0.09544 0.0
C174 C 0.47065 0.9626 0.00239 0.0
O175 O 0.48039 0.94244 0.0161 0.0
C176 C 0.53422 0.08947 0.12652 0.0
O177 O 0.54111 0.1086 0.10545 0.0
O178 O 0.53908 0.98818 0.02486 0.0
O179 O 0.51492 0.04872 0.04156 0.0
O180 O 0.51143 0.08727 0.06523 0.0
C181 C 0.55422 0.00151 0.00473 0.0
O182 O 0.5487 0.02558 0.99239 0.0
O183 O 0.47767 0.99102 0.00792 0.0
C184 C 0.43549 0.06163 0.12099 0.0
O185 O 0.43879 0.03834 0.13626 0.0
O186 O 0.45309 0.07298 0.10196 0.0
O187 O 0.48475 0.0183 0.08302 0.0
O188 O 0.48686 0.97442 0.06927 0.0
O189 O 0.51203 0.06634 0.1272 0.0
C190 C 0.52096 0.07792 0.04505 0.0
C191 C 0.48014 0.98909 0.08736 0.0
Zn192 Zn 0.5334 0.55498 0.55043 0.0
Zn193 Zn 0.51857 0.60311 0.58475 0.0
C194 C 0.56522 0.59577 0.51049 0.0
O195 O 0.54343 0.57959 0.49844 0.0
C196 C 0.48366 0.55993 0.62364 0.0
O197 O 0.50288 0.57619 0.63829 0.0
O198 O 0.53944 0.51821 0.53304 0.0
O199 O 0.53814 0.54682 0.58821 0.0
O200 O 0.55559 0.59639 0.59529 0.0
C201 C 0.56274 0.51269 0.53759 0.0
O202 O 0.57958 0.52971 0.55367 0.0
O203 O 0.56578 0.59067 0.53491 0.0
C204 C 0.48938 0.64545 0.59593 0.0
O205 O 0.47402 0.6289 0.57869 0.0
O206 O 0.51181 0.63922 0.60262 0.0
O207 O 0.51286 0.61209 0.54677 0.0
O208 O 0.49728 0.56232 0.53929 0.0
O209 O 0.48642 0.56617 0.59918 0.0
C210 C 0.55567 0.56802 0.59931 0.0
C211 C 0.49745 0.59061 0.53425 0.0
Zn212 Zn 0.01734 0.60828 0.98867 0.0
Zn213 Zn 0.0389 0.55915 0.02988 0.0
C214 C 0.98286 0.56044 0.96129 0.0
O215 O 1.00289 0.5737 0.94347 0.0
C216 C 0.08441 0.61907 0.0406 0.0
O217 O 0.07685 0.63638 0.02227 0.0
O218 O 0.00579 0.64271 0.96848 0.0
O219 O 0.01815 0.61786 0.02614 0.0
O220 O 1.00294 0.56841 0.04138 0.0
C221 C 0.9853 0.6507 0.97834 0.0
O222 O 0.97444 0.63797 1.00135 0.0
O223 O 0.98486 0.57024 0.98386 0.0
C224 C 0.05779 0.50437 0.03992 0.0
O225 O 0.06996 0.51397 0.01678 0.0
O226 O 0.04142 0.51875 0.04932 0.0
O227 O 0.04824 0.55649 0.99226 0.0
O228 O 0.0527 0.60309 0.97179 0.0
O229 O 0.07137 0.59008 0.04469 0.0
C230 C 0.00369 0.59693 0.04291 0.0
C231 C 0.05857 0.57716 0.97376 0.0
C232 C 0.18668 0.21844 0.30028 0.0
C233 C 0.18742 0.20194 0.27819 0.0
C234 C 0.17007 0.2038 0.32242 0.0
C235 C 0.13247 0.12517 0.35457 0.0
H236 H 0.0949 0.17301 0.39482 0.0
C237 C 0.07465 0.07478 0.45349 0.0
C238 C 0.04967 0.08217 0.45989 0.0
C239 C 0.09159 0.08963 0.43156 0.0
C240 C 0.10497 0.15914 0.38371 0.0
H241 H 0.17113 0.15714 0.26202 0.0
H242 H 0.1417 0.13168 0.30045 0.0
H243 H 0.12321 0.19783 0.35586 0.0
H244 H 0.02286 0.11097 0.44815 0.0
H245 H 0.05186 0.13614 0.40951 0.0
H246 H 0.11339 0.08616 0.38186 0.0
C247 C 0.1544 0.1558 0.30091 0.0
C248 C 0.12161 0.17356 0.3615 0.0
C249 C 0.17119 0.1704 0.27881 0.0
C250 C 0.04204 0.10482 0.44386 0.0
C251 C 0.05881 0.11942 0.42175 0.0
C252 C 0.11565 0.11068 0.37667 0.0
C253 C 0.15359 0.1723 0.32304 0.0
C254 C 0.13567 0.15681 0.34664 0.0
C255 C 0.08383 0.11202 0.41526 0.0
C256 C 0.1017 0.12747 0.39161 0.0
H257 H 0.19934 0.2426 0.3006 0.0
H258 H 0.1705 0.21712 0.33922 0.0
H259 H 0.14321 0.11157 0.34386 0.0
H260 H 0.0813 0.05765 0.46554 0.0
H261 H 0.11094 0.08372 0.42757 0.0
C262 C 0.36768 0.85768 0.80456 0.0
C263 C 0.35608 0.87675 0.78832 0.0
C264 C 0.37846 0.86765 0.82811 0.0
C265 C 0.37801 0.92438 0.87707 0.0
H266 H 0.44627 0.90468 0.89704 0.0
C267 C 0.44399 0.97422 0.96421 0.0
C268 C 0.45395 0.95278 0.97956 0.0
C269 C 0.43022 0.96533 0.94147 0.0
C270 C 0.42706 0.9101 0.89185 0.0
H271 H 0.34623 0.921 0.78411 0.0
H272 H 0.36575 0.93893 0.82524 0.0
H273 H 0.42641 0.88927 0.85586 0.0
H274 H 0.45628 0.90489 0.98359 0.0
H275 H 0.43239 0.88954 0.944 0.0
H276 H 0.37918 0.94573 0.91314 0.0
C277 C 0.36612 0.91602 0.81989 0.0
C278 C 0.41562 0.90123 0.86826 0.0
C279 C 0.35506 0.90586 0.79632 0.0
C280 C 0.44905 0.92206 0.97214 0.0
C281 C 0.43548 0.91327 0.94939 0.0
C282 C 0.38965 0.93351 0.90068 0.0
C283 C 0.37816 0.89709 0.83596 0.0
C284 C 0.39077 0.90789 0.86068 0.0
C285 C 0.42636 0.93495 0.93359 0.0
C286 C 0.41411 0.92612 0.9084 0.0
H287 H 0.36814 0.8348 0.79915 0.0
H288 H 0.38688 0.8521 0.84028 0.0
H289 H 0.35872 0.92964 0.87195 0.0
H290 H 0.44738 0.99805 0.96944 0.0
H291 H 0.42349 0.98254 0.92959 0.0
C292 C 0.63807 0.42103 0.74758 0.0
C293 C 0.65073 0.43133 0.77052 0.0
C294 C 0.64107 0.4419 0.7257 0.0
C295 C 0.64454 0.52226 0.71126 0.0
H296 H 0.64557 0.49939 0.64034 0.0
C297 C 0.5956 0.58144 0.62959 0.0
C298 C 0.57641 0.55923 0.61594 0.0
C299 C 0.6148 0.5723 0.64545 0.0
C300 C 0.64549 0.50631 0.66001 0.0
H301 H 0.67758 0.47072 0.78855 0.0
H302 H 0.68231 0.50781 0.75018 0.0
H303 H 0.6631 0.47021 0.67431 0.0
H304 H 0.56278 0.51019 0.60783 0.0
H305 H 0.59569 0.49442 0.63537 0.0
H306 H 0.62482 0.55665 0.69741 0.0
C307 C 0.67039 0.4835 0.74909 0.0
C308 C 0.65562 0.4897 0.67938 0.0
C309 C 0.66776 0.46238 0.77091 0.0
C310 C 0.57721 0.52797 0.61805 0.0
C311 C 0.5964 0.51895 0.63363 0.0
C312 C 0.63421 0.53875 0.69189 0.0
C313 C 0.65642 0.4736 0.72652 0.0
C314 C 0.65388 0.49649 0.70537 0.0
C315 C 0.61529 0.54089 0.64767 0.0
C316 C 0.63317 0.52977 0.66635 0.0
H317 H 0.62483 0.39714 0.74697 0.0
H318 H 0.62974 0.43369 0.70872 0.0
H319 H 0.64281 0.52789 0.73117 0.0
H320 H 0.59556 0.60574 0.62826 0.0
H321 H 0.6291 0.5897 0.6561 0.0
C322 C 0.86906 0.70783 0.1918 0.0
C323 C 0.84109 0.68956 0.19727 0.0
C324 C 0.88744 0.69659 0.17681 0.0
C325 C 0.88668 0.63628 0.1303 0.0
H326 H 0.96689 0.65901 0.14143 0.0
C327 C 0.96362 0.58343 0.07628 0.0
C328 C 0.9867 0.60586 0.06328 0.0
C329 C 0.94653 0.59246 0.09433 0.0
C330 C 0.94451 0.65253 0.13816 0.0
H331 H 0.81054 0.64491 0.19257 0.0
H332 H 0.84276 0.62462 0.16744 0.0
H333 H 0.93559 0.67659 0.17021 0.0
H334 H 0.01063 0.65507 0.05963 0.0
H335 H 0.98105 0.67064 0.09158 0.0
H336 H 0.89573 0.61169 0.09856 0.0
C337 C 0.85042 0.64809 0.1737 0.0
C338 C 0.92658 0.66275 0.1545 0.0
C339 C 0.83196 0.65957 0.18823 0.0
C340 C 0.9929 0.63729 0.06927 0.0
C341 C 0.97611 0.64619 0.08763 0.0
C342 C 0.90455 0.62566 0.11429 0.0
C343 C 0.8783 0.66661 0.16743 0.0
C344 C 0.89743 0.65497 0.15065 0.0
C345 C 0.95256 0.62394 0.10003 0.0
C346 C 0.93362 0.63389 0.11795 0.0
H347 H 0.87647 0.73111 0.19852 0.0
H348 H 0.90857 0.71176 0.1721 0.0
H349 H 0.86452 0.63037 0.12628 0.0
H350 H 0.95832 0.55907 0.07203 0.0
H351 H 0.92852 0.57488 0.10378 0.0
C352 C 0.28681 0.21926 0.19756 0.0
C353 C 0.2598 0.20182 0.20779 0.0
C354 C 0.30508 0.20446 0.1863 0.0
C355 C 0.30699 0.12787 0.16156 0.0
H356 H 0.38753 0.16241 0.16822 0.0
C357 C 0.38998 0.06087 0.14399 0.0
C358 C 0.41362 0.07696 0.12774 0.0
C359 C 0.37044 0.07612 0.15192 0.0
C360 C 0.36508 0.15265 0.16606 0.0
H361 H 0.23102 0.15476 0.21364 0.0
H362 H 0.26334 0.12894 0.19575 0.0
H363 H 0.3553 0.18871 0.1862 0.0
H364 H 0.43523 0.12166 0.10699 0.0
H365 H 0.40146 0.14847 0.12145 0.0
H366 H 0.3171 0.09097 0.14245 0.0
C367 C 0.27021 0.15424 0.19562 0.0
C368 C 0.34651 0.16781 0.17623 0.0
C369 C 0.25172 0.16909 0.2064 0.0
C370 C 0.41714 0.10854 0.11937 0.0
C371 C 0.39794 0.12396 0.12776 0.0
C372 C 0.32556 0.11239 0.15188 0.0
C373 C 0.29721 0.17166 0.18537 0.0
C374 C 0.31713 0.15568 0.17415 0.0
C375 C 0.37449 0.10795 0.14422 0.0
C376 C 0.35478 0.12464 0.15401 0.0
H377 H 0.2942 0.2444 0.19857 0.0
H378 H 0.3254 0.21893 0.17829 0.0
H379 H 0.28468 0.11805 0.15895 0.0
H380 H 0.38671 0.03655 0.15077 0.0
H381 H 0.3526 0.06329 0.1647 0.0
C382 C 0.22948 0.88228 0.66271 0.0
C383 C 0.23016 0.88641 0.68933 0.0
C384 C 0.21668 0.89979 0.64626 0.0
C385 C 0.18927 0.96924 0.64244 0.0
H386 H 0.13532 0.92066 0.59717 0.0
C387 C 0.09516 0.00801 0.60564 0.0
C388 C 0.08747 0.00313 0.57998 0.0
C389 C 0.11617 0.99638 0.6161 0.0
C390 C 0.15063 0.93472 0.60935 0.0
H391 H 0.21914 0.91229 0.71976 0.0
H392 H 0.19693 0.94307 0.69119 0.0
H393 H 0.16688 0.8964 0.62029 0.0
H394 H 0.09601 0.98244 0.54505 0.0
H395 H 0.1327 0.96186 0.56346 0.0
H396 H 0.17238 0.00726 0.63209 0.0
C397 C 0.2064 0.92667 0.68279 0.0
C398 C 0.16877 0.92083 0.62257 0.0
C399 C 0.21898 0.90904 0.69919 0.0
C400 C 0.10144 0.98655 0.5649 0.0
C401 C 0.12236 0.97468 0.57546 0.0
C402 C 0.17111 0.9831 0.62925 0.0
C403 C 0.2045 0.92176 0.65624 0.0
C404 C 0.18789 0.93774 0.63969 0.0
C405 C 0.1299 0.97942 0.6012 0.0
C406 C 0.15118 0.96579 0.61299 0.0
H407 H 0.23784 0.86469 0.65485 0.0
H408 H 0.21576 0.89566 0.62587 0.0
H409 H 0.20408 0.98304 0.65515 0.0
H410 H 0.08486 0.02074 0.61777 0.0
H411 H 0.12119 5e-05 0.6361 0.0
C412 C 0.77616 0.39358 0.86406 0.0
C413 C 0.75113 0.401 0.86982 0.0
C414 C 0.80176 0.41147 0.87278 0.0
C415 C 0.8356 0.4858 0.9035 0.0
H416 H 0.88826 0.44036 0.92513 0.0
C417 C 0.93062 0.53656 0.96613 0.0
C418 C 0.95666 0.53806 0.95379 0.0
C419 C 0.90544 0.51891 0.95641 0.0
C420 C 0.8737 0.45325 0.91914 0.0
H421 H 0.73292 0.43291 0.88872 0.0
H422 H 0.7773 0.46352 0.90492 0.0
H423 H 0.84466 0.4127 0.90586 0.0
H424 H 0.97697 0.52119 0.92256 0.0
H425 H 0.93289 0.48931 0.90622 0.0
H426 H 0.86448 0.52607 0.91789 0.0
C427 C 0.77761 0.44462 0.89299 0.0
C428 C 0.84883 0.43758 0.90782 0.0
C429 C 0.75211 0.42708 0.88379 0.0
C430 C 0.95716 0.5204 0.93241 0.0
C431 C 0.93203 0.50219 0.92309 0.0
C432 C 0.8602 0.50129 0.91531 0.0
C433 C 0.80273 0.4367 0.88803 0.0
C434 C 0.82948 0.45366 0.8997 0.0
C435 C 0.90598 0.50193 0.93462 0.0
C436 C 0.87947 0.48516 0.92312 0.0
H437 H 0.77578 0.37353 0.85323 0.0
H438 H 0.82069 0.40513 0.8679 0.0
H439 H 0.82157 0.49918 0.89712 0.0
H440 H 0.92964 0.55016 0.98251 0.0
H441 H 0.88553 0.51886 0.96565 0.0
C442 C 0.77841 0.69598 0.36954 0.0
C443 C 0.7721 0.70524 0.34445 0.0
C444 C 0.75718 0.68588 0.3892 0.0
C445 C 0.68652 0.69228 0.40686 0.0
H446 H 0.6825 0.62188 0.45649 0.0
C447 C 0.58705 0.62663 0.46954 0.0
C448 C 0.59006 0.61591 0.49513 0.0
C449 C 0.61074 0.64152 0.45337 0.0
C450 C 0.68366 0.64194 0.44305 0.0
H451 H 0.73843 0.71032 0.32014 0.0
H452 H 0.7013 0.69184 0.35422 0.0
H453 H 0.72067 0.63779 0.42303 0.0
H454 H 0.62013 0.61354 0.52433 0.0
H455 H 0.66177 0.63947 0.49584 0.0
H456 H 0.64909 0.69589 0.42649 0.0
C457 C 0.72275 0.69298 0.35883 0.0
C458 C 0.70545 0.65098 0.42384 0.0
C459 C 0.74396 0.70311 0.3392 0.0
C460 C 0.61721 0.62168 0.50468 0.0
C461 C 0.641 0.63626 0.48836 0.0
C462 C 0.6647 0.68316 0.42598 0.0
C463 C 0.7292 0.68483 0.38416 0.0
C464 C 0.70686 0.67595 0.4053 0.0
C465 C 0.63796 0.6457 0.46239 0.0
C466 C 0.66282 0.65763 0.44403 0.0
H467 H 0.79987 0.69706 0.37408 0.0
H468 H 0.76284 0.6798 0.40852 0.0
H469 H 0.68739 0.71208 0.39323 0.0
H470 H 0.56635 0.62259 0.46171 0.0
H471 H 0.60774 0.64834 0.4334 0.0
C472 C 0.16561 0.33824 0.17932 0.0
C473 C 0.19492 0.35255 0.17871 0.0
C474 C 0.14825 0.35102 0.16376 0.0
C475 C 0.15112 0.40704 0.10613 0.0
H476 H 0.07836 0.40922 0.13416 0.0
C477 C 0.08042 0.4611 0.04389 0.0
C478 C 0.06671 0.48039 0.05591 0.0
C479 C 0.09281 0.44172 0.05867 0.0
C480 C 0.09869 0.40898 0.12607 0.0
H481 H 0.22894 0.39088 0.16036 0.0
H482 H 0.19887 0.41359 0.13422 0.0
H483 H 0.10694 0.38335 0.16001 0.0
H484 H 0.0543 0.49354 0.09299 0.0
H485 H 0.07653 0.46023 0.11889 0.0
H486 H 0.14372 0.4339 0.07281 0.0
C487 C 0.18915 0.3923 0.14638 0.0
C488 C 0.11495 0.39374 0.14078 0.0
C489 C 0.20643 0.37948 0.16174 0.0
C490 C 0.06455 0.47879 0.08315 0.0
C491 C 0.07729 0.45961 0.098 0.0
C492 C 0.13503 0.42242 0.09156 0.0
C493 C 0.15979 0.37838 0.14721 0.0
C494 C 0.14153 0.39284 0.1311 0.0
C495 C 0.09223 0.44141 0.0859 0.0
C496 C 0.10863 0.42376 0.10132 0.0
H497 H 0.15596 0.3176 0.19225 0.0
H498 H 0.12578 0.33941 0.1647 0.0
H499 H 0.17124 0.40647 0.09779 0.0
H500 H 0.08224 0.46157 0.02294 0.0
H501 H 0.1034 0.42744 0.04863 0.0
C502 C 0.66149 0.27159 0.87826 0.0
C503 C 0.6783 0.29859 0.88869 0.0
C504 C 0.64753 0.24507 0.89456 0.0
C505 C 0.61591 0.22721 0.95953 0.0
H506 H 0.61002 0.14028 0.94974 0.0
C507 C 0.55673 0.12957 0.03506 0.0
C508 C 0.54016 0.10133 0.0264 0.0
C509 C 0.57509 0.15201 0.01783 0.0
C510 C 0.61119 0.16443 0.95253 0.0
H511 H 0.69474 0.31853 0.92414 0.0
H512 H 0.67045 0.27228 0.95249 0.0
H513 H 0.64083 0.18197 0.92007 0.0
H514 H 0.52933 0.07458 0.99289 0.0
H515 H 0.56119 0.1142 0.96241 0.0
H516 H 0.5858 0.21019 0.99126 0.0
C517 C 0.66806 0.27164 0.93176 0.0
C518 C 0.62892 0.18821 0.93564 0.0
C519 C 0.68217 0.29797 0.9155 0.0
C520 C 0.54229 0.09593 1.00011 0.0
C521 C 0.56052 0.11861 0.98271 0.0
C522 C 0.59802 0.20357 0.97614 0.0
C523 C 0.64996 0.24534 0.92153 0.0
C524 C 0.6316 0.2198 0.93921 0.0
C525 C 0.57701 0.14702 0.99139 0.0
C526 C 0.59561 0.17189 0.97304 0.0
H527 H 0.65828 0.27145 0.85763 0.0
H528 H 0.63362 0.22507 0.88624 0.0
H529 H 0.61711 0.25138 0.96233 0.0
H530 H 0.55576 0.13426 0.05528 0.0
H531 H 0.58789 0.17327 0.02534 0.0
C532 C 0.88035 0.77818 0.33994 0.0
C533 C 0.86383 0.78366 0.31953 0.0
C534 C 0.89754 0.80323 0.35208 0.0
C535 C 0.89669 0.88067 0.368 0.0
H536 H 0.96955 0.88575 0.39598 0.0
C537 C 0.94878 0.97688 0.43483 0.0
C538 C 0.96238 0.96796 0.45626 0.0
C539 C 0.94001 0.95663 0.41528 0.0
C540 C 0.94909 0.88452 0.38849 0.0
H541 H 0.85348 0.81937 0.2947 0.0
H542 H 0.88359 0.86338 0.316 0.0
H543 H 0.95012 0.84678 0.36529 0.0
H544 H 0.97761 0.93079 0.47385 0.0
H545 H 0.96167 0.89511 0.4401 0.0
H546 H 0.89487 0.91728 0.3919 0.0
C547 C 0.88323 0.83972 0.32259 0.0
C548 C 0.93808 0.86234 0.37079 0.0
C549 C 0.86628 0.81462 0.31023 0.0
C550 C 0.96725 0.93842 0.45757 0.0
C551 C 0.95829 0.91805 0.43809 0.0
C552 C 0.90755 0.90263 0.38584 0.0
C553 C 0.89822 0.8342 0.34425 0.0
C554 C 0.91163 0.85997 0.36057 0.0
C555 C 0.94442 0.92683 0.41674 0.0
C556 C 0.93374 0.90462 0.39657 0.0
H557 H 0.8786 0.75444 0.34751 0.0
H558 H 0.90869 0.7982 0.36879 0.0
H559 H 0.87598 0.879 0.36089 0.0
H560 H 0.94489 -0.00042 0.43308 0.0
H561 H 0.92982 0.96443 0.39896 0.0
C562 C 0.35114 0.79 0.70444 0.0
C563 C 0.36463 0.82096 0.70979 0.0
C564 C 0.36605 0.77241 0.69208 0.0
C565 C 0.43885 0.76942 0.67613 0.0
H566 H 0.40002 0.71062 0.62813 0.0
C567 C 0.48656 0.67771 0.63322 0.0
C568 C 0.47945 0.66957 0.60802 0.0
C569 C 0.47424 0.69795 0.64545 0.0
C570 C 0.4114 0.72722 0.64118 0.0
H571 H 0.40413 0.85805 0.70617 0.0
H572 H 0.4301 0.82773 0.68364 0.0
H573 H 0.37535 0.74288 0.64878 0.0
H574 H 0.45543 0.6776 0.57522 0.0
H575 H 0.43501 0.71379 0.59593 0.0
H576 H 0.47531 0.75445 0.66763 0.0
C577 C 0.40816 0.8167 0.68959 0.0
C578 C 0.39703 0.7454 0.65341 0.0
C579 C 0.39328 0.83417 0.70228 0.0
C580 C 0.46098 0.68315 0.59481 0.0
C581 C 0.44909 0.70371 0.6068 0.0
C582 C 0.45339 0.75143 0.66361 0.0
C583 C 0.39476 0.78552 0.68444 0.0
C584 C 0.41048 0.76665 0.67114 0.0
C585 C 0.45491 0.71072 0.63252 0.0
C586 C 0.43983 0.73012 0.64594 0.0
H587 H 0.32922 0.77903 0.71054 0.0
H588 H 0.35515 0.74829 0.68899 0.0
H589 H 0.4498 0.78522 0.68994 0.0
H590 H 0.50067 0.66741 0.64386 0.0
H591 H 0.47907 0.70263 0.66533 0.0
C592 C 0.86711 0.89256 0.76713 0.0
C593 C 0.83793 0.87752 0.76979 0.0
C594 C 0.87974 0.90731 0.74334 0.0
C595 C 0.8671 0.91178 0.67238 0.0
H596 H 0.93445 0.9825 0.67121 0.0
C597 C 0.92398 0.98925 0.57947 0.0
C598 C 0.95285 0.99152 0.57668 0.0
C599 C 0.90833 0.97522 0.60236 0.0
C600 C 0.91565 0.96275 0.67129 0.0
H601 H 0.79916 0.86693 0.74912 0.0
H602 H 0.82085 0.89432 0.70818 0.0
H603 H 0.90978 0.96 0.71249 0.0
H604 H 0.98789 0.98091 0.59575 0.0
H605 H 0.96074 0.95734 0.63584 0.0
H606 H 0.87285 0.9156 0.63082 0.0
C607 C 0.83421 0.89382 0.72431 0.0
C608 C 0.90157 0.9496 0.69497 0.0
C609 C 0.82163 0.87852 0.74805 0.0
C610 C 0.96567 0.97938 0.59719 0.0
C611 C 0.9502 0.96604 0.6202 0.0
C612 C 0.88092 0.92542 0.64862 0.0
C613 C 0.86353 0.90818 0.72151 0.0
C614 C 0.87736 0.92352 0.69597 0.0
C615 C 0.92144 0.96395 0.62306 0.0
C616 C 0.90557 0.95068 0.64792 0.0
H617 H 0.8804 0.8929 0.78344 0.0
H618 H 0.9024 0.91751 0.74207 0.0
H619 H 0.84884 0.8915 0.6722 0.0
H620 H 0.91352 0.99835 0.564 0.0
H621 H 0.88616 0.9739 0.60417 0.0
C622 C 0.64188 0.15731 0.33067 0.0
C623 C 0.6692 0.17827 0.32953 0.0
C624 C 0.62984 0.14498 0.30821 0.0
C625 C 0.63155 0.16348 0.23873 0.0
H626 H 0.59011 0.07571 0.23663 0.0
C627 C 0.57888 0.11724 0.14629 0.0
C628 C 0.55186 0.09569 0.14921 0.0
C629 C 0.59522 0.12486 0.16773 0.0
C630 C 0.60135 0.10034 0.23698 0.0
H631 H 0.70559 0.20238 0.30422 0.0
H632 H 0.68424 0.18113 0.26462 0.0
H633 H 0.61534 0.09365 0.27523 0.0
H634 H 0.521 0.06455 0.17677 0.0
H635 H 0.54921 0.07856 0.21448 0.0
H636 H 0.61683 0.17066 0.20109 0.0
C637 C 0.67226 0.17425 0.28298 0.0
C638 C 0.6159 0.11054 0.25902 0.0
C639 C 0.68448 0.18628 0.30556 0.0
C640 C 0.54177 0.08124 0.17394 0.0
C641 C 0.55803 0.08915 0.19551 0.0
C642 C 0.61678 0.15338 0.21684 0.0
C643 C 0.64475 0.15361 0.28411 0.0
C644 C 0.63098 0.14225 0.26015 0.0
C645 C 0.58481 0.11142 0.19269 0.0
C646 C 0.60136 0.12171 0.21572 0.0
H647 H 0.6298 0.15048 0.34899 0.0
H648 H 0.60853 0.12934 0.30961 0.0
H649 H 0.64263 0.18814 0.23925 0.0
H650 H 0.58742 0.12847 0.12741 0.0
H651 H 0.61599 0.1415 0.1647 0.0
C652 C 0.35269 0.65754 0.36148 0.0
C653 C 0.35237 0.63755 0.34152 0.0
C654 C 0.36948 0.65678 0.38276 0.0
C655 C 0.39475 0.60121 0.42065 0.0
H656 H 0.4535 0.66981 0.4448 0.0
C657 C 0.47156 0.57737 0.49396 0.0
C658 C 0.48106 0.59863 0.51281 0.0
C659 C 0.45599 0.58466 0.47369 0.0
C660 C 0.43683 0.65051 0.43859 0.0
H661 H 0.3712 0.6032 0.32712 0.0
H662 H 0.3997 0.60132 0.36446 0.0
H663 H 0.42619 0.67956 0.40797 0.0
H664 H 0.48195 0.64437 0.52511 0.0
H665 H 0.45368 0.6566 0.49021 0.0
H666 H 0.40453 0.57213 0.45118 0.0
C667 C 0.38678 0.61724 0.36378 0.0
C668 C 0.42133 0.65615 0.41749 0.0
C669 C 0.37035 0.61822 0.34252 0.0
C670 C 0.47483 0.62747 0.51087 0.0
C671 C 0.4588 0.63457 0.49076 0.0
C672 C 0.40982 0.59567 0.44187 0.0
C673 C 0.38595 0.63588 0.38434 0.0
C674 C 0.40064 0.63133 0.40805 0.0
C675 C 0.44904 0.61314 0.472 0.0
C676 C 0.43156 0.62004 0.45074 0.0
H677 H 0.33905 0.67266 0.36124 0.0
H678 H 0.36859 0.67135 0.39848 0.0
H679 H 0.37854 0.58182 0.41389 0.0
H680 H 0.47642 0.55518 0.49468 0.0
H681 H 0.44959 0.56794 0.4592 0.0
C682 C 0.13991 0.41549 0.83189 0.0
C683 C 0.15547 0.39773 0.84476 0.0
C684 C 0.13431 0.44068 0.84341 0.0
C685 C 0.12896 0.46791 0.90847 0.0
H686 H 0.12244 0.54352 0.87091 0.0
C687 C 0.10076 0.56054 0.9639 0.0
C688 C 0.07784 0.56993 0.95477 0.0
C689 C 0.11514 0.54567 0.948 0.0
C690 C 0.12418 0.52249 0.88159 0.0
H691 H 0.17896 0.39347 0.87881 0.0
H692 H 0.16996 0.4379 0.89863 0.0
H693 H 0.13865 0.50525 0.84774 0.0
H694 H 0.05303 0.57337 0.92152 0.0
H695 H 0.07792 0.5466 0.89357 0.0
H696 H 0.11419 0.4846 0.94215 0.0
C697 C 0.16125 0.43187 0.88006 0.0
C698 C 0.13337 0.50055 0.86835 0.0
C699 C 0.16652 0.40651 0.86871 0.0
C700 C 0.07081 0.56647 0.92885 0.0
C701 C 0.08506 0.55116 0.91291 0.0
C702 C 0.11997 0.48977 0.92163 0.0
C703 C 0.14442 0.44873 0.86791 0.0
C704 C 0.13583 0.47297 0.88169 0.0
C705 C 0.10652 0.53938 0.92279 0.0
C706 C 0.11746 0.51731 0.9084 0.0
H707 H 0.13103 0.40904 0.81345 0.0
H708 H 0.12107 0.45293 0.83363 0.0
H709 H 0.12979 0.44658 0.91927 0.0
H710 H 0.10657 0.5632 0.98385 0.0
H711 H 0.13203 0.53753 0.95595 0.0
C712 C 0.68624 0.84926 0.89747 0.0
C713 C 0.70659 0.8651 0.87793 0.0
C714 C 0.67388 0.86592 0.91374 0.0
C715 C 0.65557 0.93943 0.91366 0.0
H716 H 0.63945 0.91722 0.98739 0.0
C717 C 0.59576 0.00585 0.97443 0.0
C718 C 0.57588 0.98828 0.99368 0.0
C719 C 0.61468 0.99261 0.9623 0.0
C720 C 0.64348 0.92354 0.96677 0.0
H721 H 0.73061 0.91082 0.86064 0.0
H722 H 0.70878 0.94009 0.88902 0.0
H723 H 0.6675 0.89087 0.96288 0.0
H724 H 0.56062 0.94309 0.01559 0.0
H725 H 0.59296 0.91963 0.99394 0.0
H726 H 0.63072 0.97107 0.91707 0.0
C727 C 0.70243 0.91473 0.8917 0.0
C728 C 0.65971 0.90852 0.95277 0.0
C729 C 0.71509 0.89803 0.87562 0.0
C730 C 0.57581 0.95735 1.00096 0.0
C731 C 0.5945 0.94394 0.98857 0.0
C732 C 0.63909 0.95418 0.92756 0.0
C733 C 0.68134 0.89883 0.91066 0.0
C734 C 0.66581 0.91619 0.92602 0.0
C735 C 0.61399 0.96125 0.96881 0.0
C736 C 0.63264 0.94636 0.95431 0.0
H737 H 0.67941 0.82387 0.89976 0.0
H738 H 0.6576 0.85297 0.92803 0.0
H739 H 0.65947 0.94548 0.89299 0.0
H740 H 0.59653 0.02983 0.96852 0.0
H741 H 0.62975 0.007 0.94766 0.0
C742 C 0.7675 0.19545 0.3776 0.0
C743 C 0.74412 0.19318 0.39448 0.0
C744 C 0.79066 0.18638 0.38647 0.0
C745 C 0.80909 0.1361 0.43882 0.0
H746 H 0.88613 0.17972 0.41504 0.0
C747 C 0.90373 0.10238 0.48125 0.0
C748 C 0.92465 0.09997 0.46326 0.0
C749 C 0.88274 0.11587 0.47346 0.0
C750 C 0.8647 0.16719 0.42173 0.0
H751 H 0.72707 0.17979 0.4341 0.0
H752 H 0.76767 0.16532 0.44967 0.0
H753 H 0.84772 0.19977 0.40025 0.0
H754 H 0.94029 0.11053 0.42309 0.0
H755 H 0.90364 0.13394 0.40952 0.0
H756 H 0.82599 0.10353 0.46024 0.0
C757 C 0.76797 0.17355 0.42945 0.0
C758 C 0.84269 0.17864 0.41322 0.0
C759 C 0.74482 0.1824 0.42058 0.0
C760 C 0.92449 0.11201 0.43745 0.0
C761 C 0.90357 0.1256 0.42969 0.0
C762 C 0.83106 0.12477 0.4474 0.0
C763 C 0.79097 0.17488 0.41244 0.0
C764 C 0.8146 0.1632 0.42165 0.0
C765 C 0.88228 0.12736 0.44753 0.0
C766 C 0.85911 0.14012 0.43891 0.0
H767 H 0.76778 0.2039 0.35744 0.0
H768 H 0.80793 0.18752 0.37278 0.0
H769 H 0.78768 0.1232 0.44529 0.0
H770 H 0.90328 0.09342 0.5013 0.0
H771 H 0.86682 0.11725 0.48774 0.0
C772 C 0.24023 0.72395 0.21492 0.0
C773 C 0.25166 0.70017 0.22449 0.0
C774 C 0.22 0.71805 0.19608 0.0
C775 C 0.16914 0.65372 0.16629 0.0
H776 H 0.18269 0.71102 0.10432 0.0
C777 C 0.11958 0.61351 0.07241 0.0
C778 C 0.10637 0.63302 0.05851 0.0
C779 C 0.13711 0.62476 0.0923 0.0
C780 C 0.17844 0.69504 0.12164 0.0
H781 H 0.25047 0.65146 0.22178 0.0
H782 H 0.21504 0.64117 0.18964 0.0
H783 H 0.21171 0.7249 0.14175 0.0
H784 H 0.10241 0.68012 0.05346 0.0
H785 H 0.1332 0.69993 0.0887 0.0
H786 H 0.13635 0.62359 0.14622 0.0
C787 C 0.22142 0.66426 0.19684 0.0
C788 C 0.19495 0.703 0.14307 0.0
C789 C 0.24169 0.67016 0.21544 0.0
C790 C 0.11236 0.66462 0.06388 0.0
C791 C 0.12991 0.67591 0.08404 0.0
C792 C 0.15272 0.6458 0.14498 0.0
C793 C 0.21067 0.68821 0.18666 0.0
C794 C 0.19088 0.68203 0.16536 0.0
C795 C 0.1417 0.65573 0.09895 0.0
C796 C 0.15766 0.66597 0.12218 0.0
H797 H 0.24728 0.74724 0.22164 0.0
H798 H 0.21184 0.73686 0.18873 0.0
H799 H 0.16517 0.63736 0.18337 0.0
H800 H 0.11573 0.58918 0.0684 0.0
H801 H 0.14658 0.60892 0.10292 0.0
C802 C 0.26828 0.39282 0.7425 0.0
C803 C 0.24506 0.38543 0.72658 0.0
C804 C 0.29465 0.41175 0.73246 0.0
C805 C 0.33615 0.43494 0.67082 0.0
H806 H 0.38263 0.5033 0.7066 0.0
C807 C 0.43454 0.52461 0.62079 0.0
C808 C 0.45784 0.53699 0.63569 0.0
C809 C 0.40933 0.50508 0.63257 0.0
C810 C 0.37015 0.48397 0.69652 0.0
H811 H 0.23107 0.39369 0.68806 0.0
H812 H 0.27706 0.42613 0.67054 0.0
H813 H 0.33707 0.47205 0.72638 0.0
H814 H 0.47324 0.53769 0.67457 0.0
H815 H 0.42954 0.50296 0.69501 0.0
H816 H 0.36913 0.44638 0.64112 0.0
C817 C 0.27497 0.41689 0.69065 0.0
C818 C 0.34399 0.46617 0.70785 0.0
C819 C 0.24864 0.39826 0.70069 0.0
C820 C 0.45562 0.52869 0.66254 0.0
C821 C 0.43047 0.50896 0.6743 0.0
C822 C 0.36235 0.45251 0.65961 0.0
C823 C 0.29835 0.42345 0.70629 0.0
C824 C 0.32659 0.44172 0.69495 0.0
C825 C 0.40687 0.49722 0.65952 0.0
C826 C 0.37958 0.4775 0.67215 0.0
H827 H 0.26634 0.38314 0.76247 0.0
H828 H 0.31235 0.41635 0.74494 0.0
H829 H 0.3234 0.41584 0.66065 0.0
H830 H 0.43548 0.5307 0.60008 0.0
H831 H 0.39152 0.49688 0.62059 0.0
C832 C 0.86007 0.7912 0.83549 0.0
C833 C 0.84364 0.80721 0.84832 0.0
C834 C 0.87566 0.77465 0.8495 0.0
C835 C 0.88045 0.73678 0.91394 0.0
H836 H 0.95794 0.74684 0.89087 0.0
C837 C 0.95316 0.68482 0.97617 0.0
C838 C 0.97186 0.67157 0.96344 0.0
C839 C 0.93841 0.7023 0.9621 0.0
C840 C 0.93623 0.7434 0.89743 0.0
H841 H 0.83055 0.81795 0.88609 0.0
H842 H 0.85752 0.78866 0.9106 0.0
H843 H 0.9298 0.77452 0.86639 0.0
H844 H 0.99007 0.66665 0.92595 0.0
H845 H 0.96383 0.69655 0.90125 0.0
H846 H 0.88654 0.70524 0.94466 0.0
C847 C 0.85824 0.78893 0.88963 0.0
C848 C 0.92012 0.75935 0.8834 0.0
C849 C 0.84276 0.80568 0.87559 0.0
C850 C 0.97597 0.67678 0.93634 0.0
C851 C 0.96094 0.694 0.92219 0.0
C852 C 0.89646 0.72062 0.92784 0.0
C853 C 0.87505 0.77346 0.87673 0.0
C854 C 0.89208 0.7563 0.89155 0.0
C855 C 0.94169 0.70668 0.93488 0.0
C856 C 0.92463 0.72382 0.91986 0.0
H857 H 0.86073 0.7912 0.81454 0.0
H858 H 0.88799 0.76249 0.83902 0.0
H859 H 0.85877 0.73357 0.92049 0.0
H860 H 0.94969 0.68145 0.99706 0.0
H861 H 0.92434 0.7123 0.97264 0.0
C862 C 0.35607 0.79135 0.25609 0.0
C863 C 0.3476 0.76571 0.24093 0.0
C864 C 0.37614 0.81897 0.24596 0.0
C865 C 0.40074 0.87942 0.21047 0.0
H866 H 0.4613 0.87528 0.16309 0.0
C867 C 0.44396 0.96953 0.12356 0.0
C868 C 0.47118 0.97302 0.11314 0.0
C869 C 0.4335 0.949 0.14555 0.0
C870 C 0.445 0.8773 0.17665 0.0
H871 H 0.35348 0.74794 0.20399 0.0
H872 H 0.38843 0.79574 0.18629 0.0
H873 H 0.4359 0.82909 0.19037 0.0
H874 H 0.50974 0.96024 0.11816 0.0
H875 H 0.4922 0.92564 0.15731 0.0
H876 H 0.40974 0.9277 0.19649 0.0
C877 C 0.38011 0.79478 0.20601 0.0
C878 C 0.43014 0.85054 0.19209 0.0
C879 C 0.36005 0.76744 0.21603 0.0
C880 C 0.48857 0.95764 0.12593 0.0
C881 C 0.4784 0.93766 0.14819 0.0
C882 C 0.41579 0.90639 0.1951 0.0
C883 C 0.38807 0.82107 0.22064 0.0
C884 C 0.40716 0.85095 0.20841 0.0
C885 C 0.45029 0.93191 0.15759 0.0
C886 C 0.4375 0.90536 0.17734 0.0
H887 H 0.3464 0.79042 0.27528 0.0
H888 H 0.38194 0.8388 0.2577 0.0
H889 H 0.38309 0.88048 0.22284 0.0
H890 H 0.43016 0.981 0.1137 0.0
H891 H 0.41169 0.94502 0.15198 0.0
C892 C 0.16082 0.30509 0.6844 0.0
C893 C 0.16014 0.29661 0.71118 0.0
C894 C 0.14761 0.28319 0.66734 0.0
C895 C 0.09164 0.21285 0.65989 0.0
H896 H 0.14036 0.19791 0.60533 0.0
C897 C 0.05287 0.11472 0.59005 0.0
C898 C 0.06512 0.11951 0.56471 0.0
C899 C 0.06288 0.13656 0.60825 0.0
C900 C 0.12625 0.20215 0.62006 0.0
H901 H 0.14394 0.25838 0.74096 0.0
H902 H 0.11981 0.22048 0.71101 0.0
H903 H 0.16009 0.2355 0.63668 0.0
H904 H 0.09642 0.15164 0.53817 0.0
H905 H 0.11295 0.19047 0.56938 0.0
H906 H 0.05753 0.18046 0.64286 0.0
C907 C 0.13102 0.24414 0.70344 0.0
C908 C 0.13768 0.2235 0.63816 0.0
C909 C 0.14474 0.26592 0.72054 0.0
C910 C 0.08672 0.1472 0.55762 0.0
C911 C 0.09639 0.1693 0.57566 0.0
C912 C 0.08002 0.19187 0.64145 0.0
C913 C 0.13284 0.25249 0.67666 0.0
C914 C 0.12049 0.22909 0.65816 0.0
C915 C 0.08511 0.16396 0.60143 0.0
C916 C 0.09718 0.18632 0.62119 0.0
H917 H 0.17171 0.32868 0.67649 0.0
H918 H 0.14896 0.29023 0.64677 0.0
H919 H 0.07798 0.21698 0.67512 0.0
H920 H 0.03634 0.09344 0.59619 0.0
H921 H 0.05383 0.13133 0.62791 0.0
C922 C 0.64915 0.30625 0.46215 0.0
C923 C 0.64021 0.29366 0.43868 0.0
C924 C 0.64482 0.33454 0.46828 0.0
C925 C 0.59387 0.37734 0.45818 0.0
H926 H 0.64649 0.44241 0.49258 0.0
C927 C 0.56035 0.47879 0.5005 0.0
C928 C 0.5719 0.48899 0.52396 0.0
C929 C 0.57051 0.45785 0.48694 0.0
C930 C 0.63142 0.42428 0.48325 0.0
H931 H 0.62078 0.30081 0.40274 0.0
H932 H 0.6127 0.35036 0.41364 0.0
H933 H 0.66281 0.40178 0.47355 0.0
H934 H 0.60259 0.48473 0.55199 0.0
H935 H 0.61941 0.44729 0.52909 0.0
H936 H 0.56211 0.39857 0.46898 0.0
C937 C 0.62326 0.33848 0.42716 0.0
C938 C 0.64088 0.40119 0.47216 0.0
C939 C 0.62802 0.31037 0.42086 0.0
C940 C 0.59341 0.47745 0.53384 0.0
C941 C 0.60327 0.45621 0.52053 0.0
C942 C 0.58431 0.40016 0.46957 0.0
C943 C 0.631 0.35039 0.45122 0.0
C944 C 0.62209 0.37722 0.45989 0.0
C945 C 0.59218 0.44633 0.49675 0.0
C946 C 0.60283 0.42361 0.4827 0.0
H947 H 0.65839 0.29348 0.4762 0.0
H948 H 0.65076 0.34301 0.48704 0.0
H949 H 0.57884 0.35887 0.44914 0.0
H950 H 0.54394 0.48758 0.49229 0.0
H951 H 0.56168 0.45112 0.46856 0.0
loop_
_geom_bond_atom_site_label_1
_geom_bond_atom_site_label_2
_geom_bond_distance
_geom_bond_site_symmetry_2
_ccdc_geom_bond_type
H0 C1 0.949 . S
C1 H0 0.949 . S
C1 C2 1.395 . S
C1 C3 1.391 . S
C2 C1 1.395 . S
C2 C5 1.390 . S
C3 C1 1.391 . S
C3 C7 1.387 . S
C3 C8 1.491 . S
H4 C5 0.950 . S
C5 C2 1.390 . S
C5 H4 0.950 . S
C5 C6 1.378 . S
C6 C5 1.378 . S
C6 C7 1.409 . S
C7 C3 1.387 . S
C7 C6 1.409 . S
C7 H9 0.951 . S
C8 C3 1.491 . S
C8 C10 1.382 . S
C8 C12 1.404 . S
H9 C7 0.951 . S
C10 C8 1.382 . S
C10 C11 1.390 . S
C10 H15 0.949 . S
C11 C10 1.390 . S
C11 C16 1.399 . S
C12 C8 1.404 . S
C12 H13 0.950 . S
C12 C14 1.375 . S
H13 C12 0.950 . S
C14 C12 1.375 . S
C14 C16 1.382 . S
C14 H18 0.950 . S
H15 C10 0.949 . S
C16 C11 1.399 . S
C16 C14 1.382 . S
C16 H17 0.952 . S
H17 C16 0.952 . S
H18 C14 0.950 . S
H19 C20 0.949 . S
C20 H19 0.949 . S
C20 C21 1.395 . S
C20 C22 1.391 . S
C21 C20 1.395 . S
C21 C24 1.390 . S
C22 C20 1.391 . S
C22 C26 1.387 . S
C22 C27 1.491 . S
H23 C24 0.950 . S
C24 C21 1.390 . S
C24 H23 0.950 . S
C24 C25 1.378 . S
C25 C24 1.378 . S
C25 C26 1.409 . S
C26 C22 1.387 . S
C26 C25 1.409 . S
C26 H28 0.951 . S
C27 C22 1.491 . S
C27 C29 1.382 . S
C27 C31 1.404 . S
H28 C26 0.951 . S
C29 C27 1.382 . S
C29 C30 1.390 . S
C29 H34 0.949 . S
C30 C29 1.390 . S
C30 C35 1.399 . S
C31 C27 1.404 . S
C31 H32 0.950 . S
C31 C33 1.375 . S
H32 C31 0.950 . S
C33 C31 1.375 . S
C33 C35 1.382 . S
C33 H37 0.950 . S
H34 C29 0.949 . S
C35 C30 1.399 . S
C35 C33 1.382 . S
C35 H36 0.952 . S
H36 C35 0.952 . S
H37 C33 0.950 . S
H38 C39 0.949 . S
C39 H38 0.949 . S
C39 C40 1.395 . S
C39 C41 1.391 . S
C40 C39 1.395 . S
C40 C43 1.390 . S
C41 C39 1.391 . S
C41 C45 1.387 . S
C41 C46 1.491 . S
H42 C43 0.950 . S
C43 C40 1.390 . S
C43 H42 0.950 . S
C43 C44 1.378 . S
C44 C43 1.378 . S
C44 C45 1.409 . S
C45 C41 1.387 . S
C45 C44 1.409 . S
C45 H47 0.951 . S
C46 C41 1.491 . S
C46 C48 1.382 . S
C46 C50 1.404 . S
H47 C45 0.951 . S
C48 C46 1.382 . S
C48 C49 1.390 . S
C48 H53 0.949 . S
C49 C48 1.390 . S
C49 C54 1.399 . S
C50 C46 1.404 . S
C50 H51 0.950 . S
C50 C52 1.375 . S
H51 C50 0.950 . S
C52 C50 1.375 . S
C52 C54 1.382 . S
C52 H56 0.950 . S
H53 C48 0.949 . S
C54 C49 1.399 . S
C54 C52 1.382 . S
C54 H55 0.952 . S
H55 C54 0.952 . S
H56 C52 0.950 . S
H57 C58 0.949 . S
C58 H57 0.949 . S
C58 C59 1.395 . S
C58 C60 1.391 . S
C59 C58 1.395 . S
C59 C62 1.390 . S
C60 C58 1.391 . S
C60 C64 1.387 . S
C60 C65 1.491 . S
H61 C62 0.950 . S
C62 C59 1.390 . S
C62 H61 0.950 . S
C62 C63 1.378 . S
C63 C62 1.378 . S
C63 C64 1.409 . S
C64 C60 1.387 . S
C64 C63 1.409 . S
C64 H66 0.951 . S
C65 C60 1.491 . S
C65 C67 1.382 . S
C65 C69 1.404 . S
H66 C64 0.951 . S
C67 C65 1.382 . S
C67 C68 1.390 . S
C67 H72 0.949 . S
C68 C67 1.390 . S
C68 C73 1.399 . S
C69 C65 1.404 . S
C69 H70 0.950 . S
C69 C71 1.375 . S
H70 C69 0.950 . S
C71 C69 1.375 . S
C71 C73 1.382 . S
C71 H75 0.950 . S
H72 C67 0.949 . S
C73 C68 1.399 . S
C73 C71 1.382 . S
C73 H74 0.952 . S
H74 C73 0.952 . S
H75 C71 0.950 . S
H76 C77 0.949 . S
C77 H76 0.949 . S
C77 C78 1.395 . S
C77 C79 1.391 . S
C78 C77 1.395 . S
C78 C81 1.390 . S
C79 C77 1.391 . S
C79 C83 1.387 . S
C79 C84 1.491 . S
H80 C81 0.950 . S
C81 C78 1.390 . S
C81 H80 0.950 . S
C81 C82 1.378 . S
C82 C81 1.378 . S
C82 C83 1.409 . S
C83 C79 1.387 . S
C83 C82 1.409 . S
C83 H85 0.951 . S
C84 C79 1.491 . S
C84 C86 1.382 . S
C84 C88 1.404 . S
H85 C83 0.951 . S
C86 C84 1.382 . S
C86 C87 1.390 . S
C86 H91 0.949 . S
C87 C86 1.390 . S
C87 C92 1.399 . S
C88 C84 1.404 . S
C88 H89 0.950 . S
C88 C90 1.375 . S
H89 C88 0.950 . S
C90 C88 1.375 . S
C90 C92 1.382 . S
C90 H94 0.950 . S
H91 C86 0.949 . S
C92 C87 1.399 . S
C92 C90 1.382 . S
C92 H93 0.952 . S
H93 C92 0.952 . S
H94 C90 0.950 . S
H95 C96 0.949 . S
C96 H95 0.949 . S
C96 C97 1.395 . S
C96 C98 1.391 . S
C97 C96 1.395 . S
C97 C100 1.390 . S
C98 C96 1.391 . S
C98 C102 1.387 . S
C98 C103 1.491 . S
H99 C100 0.950 . S
C100 C97 1.390 . S
C100 H99 0.950 . S
C100 C101 1.378 . S
C101 C100 1.378 . S
C101 C102 1.409 . S
C102 C98 1.387 . S
C102 C101 1.409 . S
C102 H104 0.951 . S
C103 C98 1.491 . S
C103 C105 1.382 . S
C103 C107 1.404 . S
H104 C102 0.951 . S
C105 C103 1.382 . S
C105 C106 1.390 . S
C105 H110 0.949 . S
C106 C105 1.390 . S
C106 C111 1.399 . S
C107 C103 1.404 . S
C107 H108 0.950 . S
C107 C109 1.375 . S
H108 C107 0.950 . S
C109 C107 1.375 . S
C109 C111 1.382 . S
C109 H113 0.950 . S
H110 C105 0.949 . S
C111 C106 1.399 . S
C111 C109 1.382 . S
C111 H112 0.952 . S
H112 C111 0.952 . S
H113 C109 0.950 . S
H114 C115 0.949 . S
C115 H114 0.949 . S
C115 C116 1.395 . S
C115 C117 1.391 . S
C116 C115 1.395 . S
C116 C119 1.390 . S
C117 C115 1.391 . S
C117 C121 1.387 . S
C117 C122 1.491 . S
H118 C119 0.950 . S
C119 C116 1.390 . S
C119 H118 0.950 . S
C119 C120 1.378 . S
C120 C119 1.378 . S
C120 C121 1.409 . S
C121 C117 1.387 . S
C121 C120 1.409 . S
C121 H123 0.951 . S
C122 C117 1.491 . S
C122 C124 1.382 . S
C122 C126 1.404 . S
H123 C121 0.951 . S
C124 C122 1.382 . S
C124 C125 1.390 . S
C124 H129 0.949 . S
C125 C124 1.390 . S
C125 C130 1.399 . S
C126 C122 1.404 . S
C126 H127 0.950 . S
C126 C128 1.375 . S
H127 C126 0.950 . S
C128 C126 1.375 . S
C128 C130 1.382 . S
C128 H132 0.950 . S
H129 C124 0.949 . S
C130 C125 1.399 . S
C130 C128 1.382 . S
C130 H131 0.952 . S
H131 C130 0.952 . S
H132 C128 0.950 . S
H133 C134 0.949 . S
C134 H133 0.949 . S
C134 C135 1.395 . S
C134 C136 1.391 . S
C135 C134 1.395 . S
C135 C138 1.390 . S
C136 C134 1.391 . S
C136 C140 1.387 . S
C136 C141 1.491 . S
H137 C138 0.950 . S
C138 C135 1.390 . S
C138 H137 0.950 . S
C138 C139 1.378 . S
C139 C138 1.378 . S
C139 C140 1.409 . S
C140 C136 1.387 . S
C140 C139 1.409 . S
C140 H142 0.951 . S
C141 C136 1.491 . S
C141 C143 1.382 . S
C141 C145 1.404 . S
H142 C140 0.951 . S
C143 C141 1.382 . S
C143 C144 1.390 . S
C143 H148 0.949 . S
C144 C143 1.390 . S
C144 C149 1.399 . S
C145 C141 1.404 . S
C145 H146 0.950 . S
C145 C147 1.375 . S
H146 C145 0.950 . S
C147 C145 1.375 . S
C147 C149 1.382 . S
C147 H151 0.950 . S
H148 C143 0.949 . S
C149 C144 1.399 . S
C149 C147 1.382 . S
C149 H150 0.952 . S
H150 C149 0.952 . S
H151 C147 0.950 . S
Zn152 O158 1.969 . S
Zn152 O159 1.965 . S
Zn152 O163 2.024 . S
Zn152 O168 1.969 . S
Zn153 O160 1.969 . S
Zn153 O166 1.969 . S
Zn153 O167 1.965 1_655 S
Zn153 O169 2.024 1_545 S
C154 O155 1.229 . S
C154 O163 1.058 . S
O155 C154 1.229 . S
C156 O157 1.229 . S
C156 O169 1.058 . S
O157 C156 1.229 . S
O158 Zn152 1.969 . S
O158 C161 1.267 . S
O159 Zn152 1.965 . S
O159 C170 1.260 1_455 S
O160 Zn153 1.969 . S
O160 C170 1.258 . S
C161 O158 1.267 . S
C161 O162 1.228 . S
O162 C161 1.228 . S
O163 Zn152 2.024 . S
O163 C154 1.058 . S
C164 O165 1.228 . S
C164 O166 1.267 . S
O165 C164 1.228 . S
O166 Zn153 1.969 . S
O166 C164 1.267 . S
O167 Zn153 1.965 1_455 S
O167 C171 1.260 . S
O168 Zn152 1.969 . S
O168 C171 1.258 . S
O169 Zn153 2.024 1_565 S
O169 C156 1.058 . S
C170 O159 1.260 1_655 S
C170 O160 1.258 . S
C171 O167 1.260 . S
C171 O168 1.258 . S
Zn172 O178 1.969 . S
Zn172 O179 1.965 1_565 S
Zn172 O183 2.024 . S
Zn172 O188 1.969 . S
Zn173 O180 1.969 . S
Zn173 O186 1.969 . S
Zn173 O187 1.965 . S
Zn173 O189 2.024 . S
C174 O175 1.230 . S
C174 O183 1.059 . S
O175 C174 1.230 . S
C176 O177 1.229 . S
C176 O189 1.058 . S
O177 C176 1.229 . S
O178 Zn172 1.969 . S
O178 C181 1.267 . S
O179 Zn172 1.965 1_545 S
O179 C190 1.260 . S
O180 Zn173 1.969 . S
O180 C190 1.258 . S
C181 O178 1.267 . S
C181 O182 1.228 1_554 S
O182 C181 1.228 1_556 S
O183 Zn172 2.024 . S
O183 C174 1.059 . S
C184 O185 1.228 . S
C184 O186 1.267 . S
O185 C184 1.228 . S
O186 Zn173 1.969 . S
O186 C184 1.267 . S
O187 Zn173 1.965 . S
O187 C191 1.260 1_545 S
O188 Zn172 1.969 . S
O188 C191 1.258 . S
O189 Zn173 2.024 . S
O189 C176 1.058 . S
C190 O179 1.260 . S
C190 O180 1.258 . S
C191 O187 1.260 1_565 S
C191 O188 1.258 . S
Zn192 O198 1.969 . S
Zn192 O199 1.965 . S
Zn192 O203 2.024 . S
Zn192 O208 1.969 . S
Zn193 O200 1.969 . S
Zn193 O206 1.969 . S
Zn193 O207 1.965 . S
Zn193 O209 2.024 . S
C194 O195 1.229 . S
C194 O203 1.058 . S
O195 C194 1.229 . S
C196 O197 1.229 . S
C196 O209 1.058 . S
O197 C196 1.229 . S
O198 Zn192 1.969 . S
O198 C201 1.267 . S
O199 Zn192 1.965 . S
O199 C210 1.260 . S
O200 Zn193 1.969 . S
O200 C210 1.258 . S
C201 O198 1.267 . S
C201 O202 1.228 . S
O202 C201 1.228 . S
O203 Zn192 2.024 . S
O203 C194 1.058 . S
C204 O205 1.228 . S
C204 O206 1.267 . S
O205 C204 1.228 . S
O206 Zn193 1.969 . S
O206 C204 1.267 . S
O207 Zn193 1.965 . S
O207 C211 1.260 . S
O208 Zn192 1.969 . S
O208 C211 1.258 . S
O209 Zn193 2.024 . S
O209 C196 1.058 . S
C210 O199 1.260 . S
C210 O200 1.258 . S
C211 O207 1.260 . S
C211 O208 1.258 . S
Zn212 O218 1.969 1_655 S
Zn212 O219 1.965 1_656 S
Zn212 O223 2.024 . S
Zn212 O228 1.969 1_655 S
Zn213 O220 1.969 . S
Zn213 O226 1.969 . S
Zn213 O227 1.965 . S
Zn213 O229 2.024 . S
C214 O215 1.229 . S
C214 O223 1.058 . S
O215 C214 1.229 . S
C216 O217 1.229 . S
C216 O229 1.058 . S
O217 C216 1.229 . S
O218 Zn212 1.969 1_455 S
O218 C221 1.267 1_455 S
O219 Zn212 1.965 1_454 S
O219 C230 1.260 . S
O220 Zn213 1.969 . S
O220 C230 1.258 . S
C221 O218 1.267 1_655 S
C221 O222 1.228 . S
O222 C221 1.228 . S
O223 Zn212 2.024 . S
O223 C214 1.058 . S
C224 O225 1.228 . S
C224 O226 1.267 . S
O225 C224 1.228 . S
O226 Zn213 1.969 . S
O226 C224 1.267 . S
O227 Zn213 1.965 . S
O227 C231 1.260 1_554 S
O228 Zn212 1.969 1_455 S
O228 C231 1.258 . S
O229 Zn213 2.024 . S
O229 C216 1.058 . S
C230 O219 1.260 . S
C230 O220 1.258 . S
C231 O227 1.260 1_556 S
C231 O228 1.258 . S
C232 C233 1.349 . S
C232 C234 1.327 . S
C232 H257 0.950 . S
C233 C232 1.349 . S
C233 C249 1.349 . S
C234 C232 1.327 . S
C234 C253 1.429 . S
C234 H258 0.950 . S
C235 C252 1.574 . S
C235 C254 1.368 . S
C235 H259 0.949 . S
H236 C240 0.949 . S
C237 C238 1.349 . S
C237 C239 1.327 . S
C237 H260 0.950 . S
C238 C237 1.349 . S
C238 C250 1.349 . S
C239 C237 1.327 . S
C239 C255 1.429 . S
C239 H261 0.950 . S
C240 H236 0.949 . S
C240 C248 1.574 . S
C240 C256 1.368 . S
H241 C249 0.950 . S
H242 C247 0.950 . S
H243 C248 0.949 . S
H244 C250 0.950 . S
H245 C251 0.950 . S
H246 C252 0.949 . S
C247 H242 0.950 . S
C247 C249 1.327 . S
C247 C253 1.429 . S
C248 C240 1.574 . S
C248 H243 0.949 . S
C248 C254 1.368 . S
C249 C233 1.349 . S
C249 H241 0.950 . S
C249 C247 1.327 . S
C250 C238 1.349 . S
C250 H244 0.950 . S
C250 C251 1.327 . S
C251 H245 0.950 . S
C251 C250 1.327 . S
C251 C255 1.429 . S
C252 C235 1.574 . S
C252 H246 0.949 . S
C252 C256 1.368 . S
C253 C234 1.429 . S
C253 C247 1.429 . S
C253 C254 1.523 . S
C254 C235 1.368 . S
C254 C248 1.368 . S
C254 C253 1.523 . S
C255 C239 1.429 . S
C255 C251 1.429 . S
C255 C256 1.523 . S
C256 C240 1.368 . S
C256 C252 1.368 . S
C256 C255 1.523 . S
H257 C232 0.950 . S
H258 C234 0.950 . S
H259 C235 0.949 . S
H260 C237 0.950 . S
H261 C239 0.950 . S
C262 C263 1.349 . S
C262 C264 1.327 . S
C262 H287 0.950 . S
C263 C262 1.349 . S
C263 C279 1.349 . S
C264 C262 1.327 . S
C264 C283 1.429 . S
C264 H288 0.950 . S
C265 C282 1.574 . S
C265 C284 1.368 . S
C265 H289 0.949 . S
H266 C270 0.949 . S
C267 C268 1.349 . S
C267 C269 1.327 . S
C267 H290 0.950 1_565 S
C268 C267 1.349 . S
C268 C280 1.349 . S
C269 C267 1.327 . S
C269 C285 1.429 . S
C269 H291 0.950 . S
C270 H266 0.949 . S
C270 C278 1.574 . S
C270 C286 1.368 . S
H271 C279 0.950 . S
H272 C277 0.950 . S
H273 C278 0.949 . S
H274 C280 0.950 . S
H275 C281 0.950 . S
H276 C282 0.949 . S
C277 H272 0.950 . S
C277 C279 1.327 . S
C277 C283 1.429 . S
C278 C270 1.574 . S
C278 H273 0.949 . S
C278 C284 1.368 . S
C279 C263 1.349 . S
C279 H271 0.950 . S
C279 C277 1.327 . S
C280 C268 1.349 . S
C280 H274 0.950 . S
C280 C281 1.327 . S
C281 H275 0.950 . S
C281 C280 1.327 . S
C281 C285 1.429 . S
C282 C265 1.574 . S
C282 H276 0.949 . S
C282 C286 1.368 . S
C283 C264 1.429 . S
C283 C277 1.429 . S
C283 C284 1.523 . S
C284 C265 1.368 . S
C284 C278 1.368 . S
C284 C283 1.523 . S
C285 C269 1.429 . S
C285 C281 1.429 . S
C285 C286 1.523 . S
C286 C270 1.368 . S
C286 C282 1.368 . S
C286 C285 1.523 . S
H287 C262 0.950 . S
H288 C264 0.950 . S
H289 C265 0.949 . S
H290 C267 0.950 1_545 S
H291 C269 0.950 . S
C292 C293 1.349 . S
C292 C294 1.327 . S
C292 H317 0.950 . S
C293 C292 1.349 . S
C293 C309 1.349 . S
C294 C292 1.327 . S
C294 C313 1.429 . S
C294 H318 0.950 . S
C295 C312 1.574 . S
C295 C314 1.368 . S
C295 H319 0.949 . S
H296 C300 0.949 . S
C297 C298 1.349 . S
C297 C299 1.327 . S
C297 H320 0.950 . S
C298 C297 1.349 . S
C298 C310 1.349 . S
C299 C297 1.327 . S
C299 C315 1.429 . S
C299 H321 0.950 . S
C300 H296 0.949 . S
C300 C308 1.574 . S
C300 C316 1.368 . S
H301 C309 0.950 . S
H302 C307 0.950 . S
H303 C308 0.949 . S
H304 C310 0.950 . S
H305 C311 0.950 . S
H306 C312 0.949 . S
C307 H302 0.950 . S
C307 C309 1.327 . S
C307 C313 1.429 . S
C308 C300 1.574 . S
C308 H303 0.949 . S
C308 C314 1.368 . S
C309 C293 1.349 . S
C309 H301 0.950 . S
C309 C307 1.327 . S
C310 C298 1.349 . S
C310 H304 0.950 . S
C310 C311 1.327 . S
C311 H305 0.950 . S
C311 C310 1.327 . S
C311 C315 1.429 . S
C312 C295 1.574 . S
C312 H306 0.949 . S
C312 C316 1.368 . S
C313 C294 1.429 . S
C313 C307 1.429 . S
C313 C314 1.523 . S
C314 C295 1.368 . S
C314 C308 1.368 . S
C314 C313 1.523 . S
C315 C299 1.429 . S
C315 C311 1.429 . S
C315 C316 1.523 . S
C316 C300 1.368 . S
C316 C312 1.368 . S
C316 C315 1.523 . S
H317 C292 0.950 . S
H318 C294 0.950 . S
H319 C295 0.949 . S
H320 C297 0.950 . S
H321 C299 0.950 . S
C322 C323 1.349 . S
C322 C324 1.327 . S
C322 H347 0.950 . S
C323 C322 1.349 . S
C323 C339 1.349 . S
C324 C322 1.327 . S
C324 C343 1.429 . S
C324 H348 0.950 . S
C325 C342 1.574 . S
C325 C344 1.368 . S
C325 H349 0.949 . S
H326 C330 0.949 . S
C327 C328 1.349 . S
C327 C329 1.327 . S
C327 H350 0.950 . S
C328 C327 1.349 . S
C328 C340 1.349 1_655 S
C329 C327 1.327 . S
C329 C345 1.429 . S
C329 H351 0.950 . S
C330 H326 0.949 . S
C330 C338 1.574 . S
C330 C346 1.368 . S
H331 C339 0.950 . S
H332 C337 0.950 . S
H333 C338 0.949 . S
H334 C340 0.950 . S
H335 C341 0.950 . S
H336 C342 0.949 . S
C337 H332 0.950 . S
C337 C339 1.327 . S
C337 C343 1.429 . S
C338 C330 1.574 . S
C338 H333 0.949 . S
C338 C344 1.368 . S
C339 C323 1.349 . S
C339 H331 0.950 . S
C339 C337 1.327 . S
C340 C328 1.349 1_455 S
C340 H334 0.950 . S
C340 C341 1.327 1_455 S
C341 H335 0.950 . S
C341 C340 1.327 1_655 S
C341 C345 1.429 . S
C342 C325 1.574 . S
C342 H336 0.949 . S
C342 C346 1.368 . S
C343 C324 1.429 . S
C343 C337 1.429 . S
C343 C344 1.523 . S
C344 C325 1.368 . S
C344 C338 1.368 . S
C344 C343 1.523 . S
C345 C329 1.429 . S
C345 C341 1.429 . S
C345 C346 1.523 . S
C346 C330 1.368 . S
C346 C342 1.368 . S
C346 C345 1.523 . S
H347 C322 0.950 . S
H348 C324 0.950 . S
H349 C325 0.949 . S
H350 C327 0.950 . S
H351 C329 0.950 . S
C352 C353 1.349 . S
C352 C354 1.327 . S
C352 H377 0.950 . S
C353 C352 1.349 . S
C353 C369 1.349 . S
C354 C352 1.327 . S
C354 C373 1.429 . S
C354 H378 0.950 . S
C355 C372 1.574 . S
C355 C374 1.368 . S
C355 H379 0.949 . S
H356 C360 0.949 . S
C357 C358 1.349 . S
C357 C359 1.327 . S
C357 H380 0.950 . S
C358 C357 1.349 . S
C358 C370 1.349 . S
C359 C357 1.327 . S
C359 C375 1.429 . S
C359 H381 0.950 . S
C360 H356 0.949 . S
C360 C368 1.574 . S
C360 C376 1.368 . S
H361 C369 0.950 . S
H362 C367 0.950 . S
H363 C368 0.949 . S
H364 C370 0.950 . S
H365 C371 0.950 . S
H366 C372 0.949 . S
C367 H362 0.950 . S
C367 C369 1.327 . S
C367 C373 1.429 . S
C368 C360 1.574 . S
C368 H363 0.949 . S
C368 C374 1.368 . S
C369 C353 1.349 . S
C369 H361 0.950 . S
C369 C367 1.327 . S
C370 C358 1.349 . S
C370 H364 0.950 . S
C370 C371 1.327 . S
C371 H365 0.950 . S
C371 C370 1.327 . S
C371 C375 1.429 . S
C372 C355 1.574 . S
C372 H366 0.949 . S
C372 C376 1.368 . S
C373 C354 1.429 . S
C373 C367 1.429 . S
C373 C374 1.523 . S
C374 C355 1.368 . S
C374 C368 1.368 . S
C374 C373 1.523 . S
C375 C359 1.429 . S
C375 C371 1.429 . S
C375 C376 1.523 . S
C376 C360 1.368 . S
C376 C372 1.368 . S
C376 C375 1.523 . S
H377 C352 0.950 . S
H378 C354 0.950 . S
H379 C355 0.949 . S
H380 C357 0.950 . S
H381 C359 0.950 . S
C382 C383 1.349 . S
C382 C384 1.327 . S
C382 H407 0.950 . S
C383 C382 1.349 . S
C383 C399 1.349 . S
C384 C382 1.327 . S
C384 C403 1.429 . S
C384 H408 0.950 . S
C385 C402 1.574 . S
C385 C404 1.368 . S
C385 H409 0.949 . S
H386 C390 0.949 . S
C387 C388 1.349 1_545 S
C387 C389 1.327 . S
C387 H410 0.950 . S
C388 C387 1.349 1_565 S
C388 C400 1.349 . S
C389 C387 1.327 . S
C389 C405 1.429 1_545 S
C389 H411 0.950 . S
C390 H386 0.949 . S
C390 C398 1.574 . S
C390 C406 1.368 . S
H391 C399 0.950 . S
H392 C397 0.950 . S
H393 C398 0.949 . S
H394 C400 0.950 . S
H395 C401 0.950 . S
H396 C402 0.929 1_545 S
C397 H392 0.950 . S
C397 C399 1.327 . S
C397 C403 1.429 . S
C398 C390 1.574 . S
C398 H393 0.949 . S
C398 C404 1.368 . S
C399 C383 1.349 . S
C399 H391 0.950 . S
C399 C397 1.327 . S
C400 C388 1.349 . S
C400 H394 0.950 . S
C400 C401 1.327 . S
C401 H395 0.950 . S
C401 C400 1.327 . S
C401 C405 1.429 . S
C402 C385 1.574 . S
C402 H396 0.929 1_565 S
C402 C406 1.368 . S
C403 C384 1.429 . S
C403 C397 1.429 . S
C403 C404 1.523 . S
C404 C385 1.368 . S
C404 C398 1.368 . S
C404 C403 1.523 . S
C405 C389 1.429 1_565 S
C405 C401 1.429 . S
C405 C406 1.523 . S
C406 C390 1.368 . S
C406 C402 1.368 . S
C406 C405 1.523 . S
H407 C382 0.950 . S
H408 C384 0.950 . S
H409 C385 0.949 . S
H410 C387 0.950 . S
H411 C389 0.950 . S
C412 C413 1.349 . S
C412 C414 1.327 . S
C412 H437 0.950 . S
C413 C412 1.349 . S
C413 C429 1.349 . S
C414 C412 1.327 . S
C414 C433 1.429 . S
C414 H438 0.950 . S
C415 C432 1.574 . S
C415 C434 1.368 . S
C415 H439 0.949 . S
H416 C420 0.949 . S
C417 C418 1.349 . S
C417 C419 1.327 . S
C417 H440 0.950 . S
C418 C417 1.349 . S
C418 C430 1.349 . S
C419 C417 1.327 . S
C419 C435 1.429 . S
C419 H441 0.950 . S
C420 H416 0.949 . S
C420 C428 1.574 . S
C420 C436 1.368 . S
H421 C429 0.950 . S
H422 C427 0.950 . S
H423 C428 0.949 . S
H424 C430 0.950 . S
H425 C431 0.950 . S
H426 C432 0.949 . S
C427 H422 0.950 . S
C427 C429 1.327 . S
C427 C433 1.429 . S
C428 C420 1.574 . S
C428 H423 0.949 . S
C428 C434 1.368 . S
C429 C413 1.349 . S
C429 H421 0.950 . S
C429 C427 1.327 . S
C430 C418 1.349 . S
C430 H424 0.950 . S
C430 C431 1.327 . S
C431 H425 0.950 . S
C431 C430 1.327 . S
C431 C435 1.429 . S
C432 C415 1.574 . S
C432 H426 0.949 . S
C432 C436 1.368 . S
C433 C414 1.429 . S
C433 C427 1.429 . S
C433 C434 1.523 . S
C434 C415 1.368 . S
C434 C428 1.368 . S
C434 C433 1.523 . S
C435 C419 1.429 . S
C435 C431 1.429 . S
C435 C436 1.523 . S
C436 C420 1.368 . S
C436 C432 1.368 . S
C436 C435 1.523 . S
H437 C412 0.950 . S
H438 C414 0.950 . S
H439 C415 0.949 . S
H440 C417 0.950 . S
H441 C419 0.950 . S
C442 C443 1.349 . S
C442 C444 1.327 . S
C442 H467 0.950 . S
C443 C442 1.349 . S
C443 C459 1.349 . S
C444 C442 1.327 . S
C444 C463 1.429 . S
C444 H468 0.950 . S
C445 C462 1.574 . S
C445 C464 1.368 . S
C445 H469 0.949 . S
H446 C450 0.949 . S
C447 C448 1.349 . S
C447 C449 1.327 . S
C447 H470 0.950 . S
C448 C447 1.349 . S
C448 C460 1.349 . S
C449 C447 1.327 . S
C449 C465 1.429 . S
C449 H471 0.950 . S
C450 H446 0.949 . S
C450 C458 1.574 . S
C450 C466 1.368 . S
H451 C459 0.950 . S
H452 C457 0.950 . S
H453 C458 0.949 . S
H454 C460 0.950 . S
H455 C461 0.950 . S
H456 C462 0.949 . S
C457 H452 0.950 . S
C457 C459 1.327 . S
C457 C463 1.429 . S
C458 C450 1.574 . S
C458 H453 0.949 . S
C458 C464 1.368 . S
C459 C443 1.349 . S
C459 H451 0.950 . S
C459 C457 1.327 . S
C460 C448 1.349 . S
C460 H454 0.950 . S
C460 C461 1.327 . S
C461 H455 0.950 . S
C461 C460 1.327 . S
C461 C465 1.429 . S
C462 C445 1.574 . S
C462 H456 0.949 . S
C462 C466 1.368 . S
C463 C444 1.429 . S
C463 C457 1.429 . S
C463 C464 1.523 . S
C464 C445 1.368 . S
C464 C458 1.368 . S
C464 C463 1.523 . S
C465 C449 1.429 . S
C465 C461 1.429 . S
C465 C466 1.523 . S
C466 C450 1.368 . S
C466 C462 1.368 . S
C466 C465 1.523 . S
H467 C442 0.950 . S
H468 C444 0.950 . S
H469 C445 0.949 . S
H470 C447 0.950 . S
H471 C449 0.950 . S
C472 C473 1.349 . S
C472 C474 1.327 . S
C472 H497 0.950 . S
C473 C472 1.349 . S
C473 C489 1.349 . S
C474 C472 1.327 . S
C474 C493 1.429 . S
C474 H498 0.950 . S
C475 C492 1.574 . S
C475 C494 1.368 . S
C475 H499 0.949 . S
H476 C480 0.949 . S
C477 C478 1.349 . S
C477 C479 1.327 . S
C477 H500 0.950 . S
C478 C477 1.349 . S
C478 C490 1.349 . S
C479 C477 1.327 . S
C479 C495 1.429 . S
C479 H501 0.950 . S
C480 H476 0.949 . S
C480 C488 1.574 . S
C480 C496 1.368 . S
H481 C489 0.950 . S
H482 C487 0.950 . S
H483 C488 0.949 . S
H484 C490 0.950 . S
H485 C491 0.950 . S
H486 C492 0.949 . S
C487 H482 0.950 . S
C487 C489 1.327 . S
C487 C493 1.429 . S
C488 C480 1.574 . S
C488 H483 0.949 . S
C488 C494 1.368 . S
C489 C473 1.349 . S
C489 H481 0.950 . S
C489 C487 1.327 . S
C490 C478 1.349 . S
C490 H484 0.950 . S
C490 C491 1.327 . S
C491 H485 0.950 . S
C491 C490 1.327 . S
C491 C495 1.429 . S
C492 C475 1.574 . S
C492 H486 0.949 . S
C492 C496 1.368 . S
C493 C474 1.429 . S
C493 C487 1.429 . S
C493 C494 1.523 . S
C494 C475 1.368 . S
C494 C488 1.368 . S
C494 C493 1.523 . S
C495 C479 1.429 . S
C495 C491 1.429 . S
C495 C496 1.523 . S
C496 C480 1.368 . S
C496 C492 1.368 . S
C496 C495 1.523 . S
H497 C472 0.950 . S
H498 C474 0.950 . S
H499 C475 0.949 . S
H500 C477 0.950 . S
H501 C479 0.950 . S
C502 C503 1.349 . S
C502 C504 1.327 . S
C502 H527 0.950 . S
C503 C502 1.349 . S
C503 C519 1.349 . S
C504 C502 1.327 . S
C504 C523 1.429 . S
C504 H528 0.950 . S
C505 C522 1.574 . S
C505 C524 1.368 . S
C505 H529 0.949 . S
H506 C510 0.949 . S
C507 C508 1.349 . S
C507 C509 1.327 . S
C507 H530 0.950 . S
C508 C507 1.349 . S
C508 C520 1.349 1_554 S
C509 C507 1.327 . S
C509 C525 1.429 1_554 S
C509 H531 0.950 . S
C510 H506 0.949 . S
C510 C518 1.574 . S
C510 C526 1.368 . S
H511 C519 0.950 . S
H512 C517 0.950 . S
H513 C518 0.949 . S
H514 C520 0.950 . S
H515 C521 0.950 . S
H516 C522 0.949 . S
C517 H512 0.950 . S
C517 C519 1.327 . S
C517 C523 1.429 . S
C518 C510 1.574 . S
C518 H513 0.949 . S
C518 C524 1.368 . S
C519 C503 1.349 . S
C519 H511 0.950 . S
C519 C517 1.327 . S
C520 C508 1.349 1_556 S
C520 H514 0.950 . S
C520 C521 1.327 . S
C521 H515 0.950 . S
C521 C520 1.327 . S
C521 C525 1.429 . S
C522 C505 1.574 . S
C522 H516 0.949 . S
C522 C526 1.368 . S
C523 C504 1.429 . S
C523 C517 1.429 . S
C523 C524 1.523 . S
C524 C505 1.368 . S
C524 C518 1.368 . S
C524 C523 1.523 . S
C525 C509 1.429 1_556 S
C525 C521 1.429 . S
C525 C526 1.523 . S
C526 C510 1.368 . S
C526 C522 1.368 . S
C526 C525 1.523 . S
H527 C502 0.950 . S
H528 C504 0.950 . S
H529 C505 0.949 . S
H530 C507 0.950 . S
H531 C509 0.950 . S
C532 C533 1.349 . S
C532 C534 1.327 . S
C532 H557 0.950 . S
C533 C532 1.349 . S
C533 C549 1.349 . S
C534 C532 1.327 . S
C534 C553 1.429 . S
C534 H558 0.950 . S
C535 C552 1.574 . S
C535 C554 1.368 . S
C535 H559 0.949 . S
H536 C540 0.949 . S
C537 C538 1.349 . S
C537 C539 1.327 . S
C537 H560 0.950 . S
C538 C537 1.349 . S
C538 C550 1.349 . S
C539 C537 1.327 . S
C539 C555 1.429 . S
C539 H561 0.950 . S
C540 H536 0.949 . S
C540 C548 1.574 . S
C540 C556 1.368 . S
H541 C549 0.950 . S
H542 C547 0.950 . S
H543 C548 0.949 . S
H544 C550 0.950 . S
H545 C551 0.950 . S
H546 C552 0.949 . S
C547 H542 0.950 . S
C547 C549 1.327 . S
C547 C553 1.429 . S
C548 C540 1.574 . S
C548 H543 0.949 . S
C548 C554 1.368 . S
C549 C533 1.349 . S
C549 H541 0.950 . S
C549 C547 1.327 . S
C550 C538 1.349 . S
C550 H544 0.950 . S
C550 C551 1.327 . S
C551 H545 0.950 . S
C551 C550 1.327 . S
C551 C555 1.429 . S
C552 C535 1.574 . S
C552 H546 0.949 . S
C552 C556 1.368 . S
C553 C534 1.429 . S
C553 C547 1.429 . S
C553 C554 1.523 . S
C554 C535 1.368 . S
C554 C548 1.368 . S
C554 C553 1.523 . S
C555 C539 1.429 . S
C555 C551 1.429 . S
C555 C556 1.523 . S
C556 C540 1.368 . S
C556 C552 1.368 . S
C556 C555 1.523 . S
H557 C532 0.950 . S
H558 C534 0.950 . S
H559 C535 0.949 . S
H560 C537 0.950 . S
H561 C539 0.950 . S
C562 C563 1.349 . S
C562 C564 1.327 . S
C562 H587 0.950 . S
C563 C562 1.349 . S
C563 C579 1.349 . S
C564 C562 1.327 . S
C564 C583 1.429 . S
C564 H588 0.950 . S
C565 C582 1.574 . S
C565 C584 1.368 . S
C565 H589 0.949 . S
H566 C570 0.949 . S
C567 C568 1.349 . S
C567 C569 1.327 . S
C567 H590 0.950 . S
C568 C567 1.349 . S
C568 C580 1.349 . S
C569 C567 1.327 . S
C569 C585 1.429 . S
C569 H591 0.950 . S
C570 H566 0.949 . S
C570 C578 1.574 . S
C570 C586 1.368 . S
H571 C579 0.950 . S
H572 C577 0.950 . S
H573 C578 0.949 . S
H574 C580 0.950 . S
H575 C581 0.950 . S
H576 C582 0.949 . S
C577 H572 0.950 . S
C577 C579 1.327 . S
C577 C583 1.429 . S
C578 C570 1.574 . S
C578 H573 0.949 . S
C578 C584 1.368 . S
C579 C563 1.349 . S
C579 H571 0.950 . S
C579 C577 1.327 . S
C580 C568 1.349 . S
C580 H574 0.950 . S
C580 C581 1.327 . S
C581 H575 0.950 . S
C581 C580 1.327 . S
C581 C585 1.429 . S
C582 C565 1.574 . S
C582 H576 0.949 . S
C582 C586 1.368 . S
C583 C564 1.429 . S
C583 C577 1.429 . S
C583 C584 1.523 . S
C584 C565 1.368 . S
C584 C578 1.368 . S
C584 C583 1.523 . S
C585 C569 1.429 . S
C585 C581 1.429 . S
C585 C586 1.523 . S
C586 C570 1.368 . S
C586 C582 1.368 . S
C586 C585 1.523 . S
H587 C562 0.950 . S
H588 C564 0.950 . S
H589 C565 0.949 . S
H590 C567 0.950 . S
H591 C569 0.950 . S
C592 C593 1.349 . S
C592 C594 1.327 . S
C592 H617 0.950 . S
C593 C592 1.349 . S
C593 C609 1.349 . S
C594 C592 1.327 . S
C594 C613 1.429 . S
C594 H618 0.950 . S
C595 C612 1.574 . S
C595 C614 1.368 . S
C595 H619 0.949 . S
H596 C600 0.949 . S
C597 C598 1.349 . S
C597 C599 1.327 . S
C597 H620 0.950 . S
C598 C597 1.349 . S
C598 C610 1.349 . S
C599 C597 1.327 . S
C599 C615 1.429 . S
C599 H621 0.950 . S
C600 H596 0.949 . S
C600 C608 1.574 . S
C600 C616 1.368 . S
H601 C609 0.950 . S
H602 C607 0.950 . S
H603 C608 0.949 . S
H604 C610 0.950 1_545 S
H605 C611 0.950 . S
H606 C612 0.949 . S
C607 H602 0.950 . S
C607 C609 1.327 . S
C607 C613 1.429 . S
C608 C600 1.574 . S
C608 H603 0.949 . S
C608 C614 1.368 . S
C609 C593 1.349 . S
C609 H601 0.950 . S
C609 C607 1.327 . S
C610 C598 1.349 . S
C610 H604 0.950 1_565 S
C610 C611 1.327 . S
C611 H605 0.950 . S
C611 C610 1.327 . S
C611 C615 1.429 . S
C612 C595 1.574 . S
C612 H606 0.949 . S
C612 C616 1.368 . S
C613 C594 1.429 . S
C613 C607 1.429 . S
C613 C614 1.523 . S
C614 C595 1.368 . S
C614 C608 1.368 . S
C614 C613 1.523 . S
C615 C599 1.429 . S
C615 C611 1.429 . S
C615 C616 1.523 . S
C616 C600 1.368 . S
C616 C612 1.368 . S
C616 C615 1.523 . S
H617 C592 0.950 . S
H618 C594 0.950 . S
H619 C595 0.949 . S
H620 C597 0.950 . S
H621 C599 0.950 . S
C622 C623 1.349 . S
C622 C624 1.327 . S
C622 H647 0.950 . S
C623 C622 1.349 . S
C623 C639 1.349 . S
C624 C622 1.327 . S
C624 C643 1.429 . S
C624 H648 0.950 . S
C625 C642 1.574 . S
C625 C644 1.368 . S
C625 H649 0.949 . S
H626 C630 0.949 . S
C627 C628 1.349 . S
C627 C629 1.327 . S
C627 H650 0.950 . S
C628 C627 1.349 . S
C628 C640 1.349 . S
C629 C627 1.327 . S
C629 C645 1.429 . S
C629 H651 0.950 . S
C630 H626 0.949 . S
C630 C638 1.574 . S
C630 C646 1.368 . S
H631 C639 0.950 . S
H632 C637 0.950 . S
H633 C638 0.949 . S
H634 C640 0.950 . S
H635 C641 0.950 . S
H636 C642 0.949 . S
C637 H632 0.950 . S
C637 C639 1.327 . S
C637 C643 1.429 . S
C638 C630 1.574 . S
C638 H633 0.949 . S
C638 C644 1.368 . S
C639 C623 1.349 . S
C639 H631 0.950 . S
C639 C637 1.327 . S
C640 C628 1.349 . S
C640 H634 0.950 . S
C640 C641 1.327 . S
C641 H635 0.950 . S
C641 C640 1.327 . S
C641 C645 1.429 . S
C642 C625 1.574 . S
C642 H636 0.949 . S
C642 C646 1.368 . S
C643 C624 1.429 . S
C643 C637 1.429 . S
C643 C644 1.523 . S
C644 C625 1.368 . S
C644 C638 1.368 . S
C644 C643 1.523 . S
C645 C629 1.429 . S
C645 C641 1.429 . S
C645 C646 1.523 . S
C646 C630 1.368 . S
C646 C642 1.368 . S
C646 C645 1.523 . S
H647 C622 0.950 . S
H648 C624 0.950 . S
H649 C625 0.949 . S
H650 C627 0.950 . S
H651 C629 0.950 . S
C652 C653 1.349 . S
C652 C654 1.327 . S
C652 H677 0.950 . S
C653 C652 1.349 . S
C653 C669 1.349 . S
C654 C652 1.327 . S
C654 C673 1.429 . S
C654 H678 0.950 . S
C655 C672 1.574 . S
C655 C674 1.368 . S
C655 H679 0.949 . S
H656 C660 0.949 . S
C657 C658 1.349 . S
C657 C659 1.327 . S
C657 H680 0.950 . S
C658 C657 1.349 . S
C658 C670 1.349 . S
C659 C657 1.327 . S
C659 C675 1.429 . S
C659 H681 0.950 . S
C660 H656 0.949 . S
C660 C668 1.574 . S
C660 C676 1.368 . S
H661 C669 0.950 . S
H662 C667 0.950 . S
H663 C668 0.949 . S
H664 C670 0.950 . S
H665 C671 0.950 . S
H666 C672 0.949 . S
C667 H662 0.950 . S
C667 C669 1.327 . S
C667 C673 1.429 . S
C668 C660 1.574 . S
C668 H663 0.949 . S
C668 C674 1.368 . S
C669 C653 1.349 . S
C669 H661 0.950 . S
C669 C667 1.327 . S
C670 C658 1.349 . S
C670 H664 0.950 . S
C670 C671 1.327 . S
C671 H665 0.950 . S
C671 C670 1.327 . S
C671 C675 1.429 . S
C672 C655 1.574 . S
C672 H666 0.949 . S
C672 C676 1.368 . S
C673 C654 1.429 . S
C673 C667 1.429 . S
C673 C674 1.523 . S
C674 C655 1.368 . S
C674 C668 1.368 . S
C674 C673 1.523 . S
C675 C659 1.429 . S
C675 C671 1.429 . S
C675 C676 1.523 . S
C676 C660 1.368 . S
C676 C672 1.368 . S
C676 C675 1.523 . S
H677 C652 0.950 . S
H678 C654 0.950 . S
H679 C655 0.949 . S
H680 C657 0.950 . S
H681 C659 0.950 . S
C682 C683 1.349 . S
C682 C684 1.327 . S
C682 H707 0.950 . S
C683 C682 1.349 . S
C683 C699 1.349 . S
C684 C682 1.327 . S
C684 C703 1.429 . S
C684 H708 0.950 . S
C685 C702 1.574 . S
C685 C704 1.368 . S
C685 H709 0.949 . S
H686 C690 0.949 . S
C687 C688 1.349 . S
C687 C689 1.327 . S
C687 H710 0.950 . S
C688 C687 1.349 . S
C688 C700 1.349 . S
C689 C687 1.327 . S
C689 C705 1.429 . S
C689 H711 0.950 . S
C690 H686 0.949 . S
C690 C698 1.574 . S
C690 C706 1.368 . S
H691 C699 0.950 . S
H692 C697 0.950 . S
H693 C698 0.949 . S
H694 C700 0.950 . S
H695 C701 0.950 . S
H696 C702 0.949 . S
C697 H692 0.950 . S
C697 C699 1.327 . S
C697 C703 1.429 . S
C698 C690 1.574 . S
C698 H693 0.949 . S
C698 C704 1.368 . S
C699 C683 1.349 . S
C699 H691 0.950 . S
C699 C697 1.327 . S
C700 C688 1.349 . S
C700 H694 0.950 . S
C700 C701 1.327 . S
C701 H695 0.950 . S
C701 C700 1.327 . S
C701 C705 1.429 . S
C702 C685 1.574 . S
C702 H696 0.949 . S
C702 C706 1.368 . S
C703 C684 1.429 . S
C703 C697 1.429 . S
C703 C704 1.523 . S
C704 C685 1.368 . S
C704 C698 1.368 . S
C704 C703 1.523 . S
C705 C689 1.429 . S
C705 C701 1.429 . S
C705 C706 1.523 . S
C706 C690 1.368 . S
C706 C702 1.368 . S
C706 C705 1.523 . S
H707 C682 0.950 . S
H708 C684 0.950 . S
H709 C685 0.949 . S
H710 C687 0.950 . S
H711 C689 0.950 . S
C712 C713 1.349 . S
C712 C714 1.327 . S
C712 H737 0.950 . S
C713 C712 1.349 . S
C713 C729 1.349 . S
C714 C712 1.327 . S
C714 C733 1.429 . S
C714 H738 0.950 . S
C715 C732 1.574 . S
C715 C734 1.368 . S
C715 H739 0.949 . S
H716 C720 0.949 . S
C717 C718 1.349 1_556 S
C717 C719 1.327 . S
C717 H740 0.950 . S
C718 C717 1.349 1_554 S
C718 C730 1.349 . S
C719 C717 1.327 . S
C719 C735 1.429 . S
C719 H741 0.950 . S
C720 H716 0.949 . S
C720 C728 1.574 . S
C720 C736 1.368 . S
H721 C729 0.950 . S
H722 C727 0.950 . S
H723 C728 0.949 . S
H724 C730 0.950 . S
H725 C731 0.950 1_554 S
H726 C732 0.949 . S
C727 H722 0.950 . S
C727 C729 1.327 . S
C727 C733 1.429 . S
C728 C720 1.574 . S
C728 H723 0.949 . S
C728 C734 1.368 . S
C729 C713 1.349 . S
C729 H721 0.950 . S
C729 C727 1.327 . S
C730 C718 1.349 . S
C730 H724 0.950 . S
C730 C731 1.327 1_554 S
C731 H725 0.950 1_556 S
C731 C730 1.327 1_556 S
C731 C735 1.429 . S
C732 C715 1.574 . S
C732 H726 0.949 . S
C732 C736 1.368 . S
C733 C714 1.429 . S
C733 C727 1.429 . S
C733 C734 1.523 . S
C734 C715 1.368 . S
C734 C728 1.368 . S
C734 C733 1.523 . S
C735 C719 1.429 . S
C735 C731 1.429 . S
C735 C736 1.523 . S
C736 C720 1.368 . S
C736 C732 1.368 . S
C736 C735 1.523 . S
H737 C712 0.950 . S
H738 C714 0.950 . S
H739 C715 0.949 . S
H740 C717 0.950 . S
H741 C719 0.950 . S
C742 C743 1.349 . S
C742 C744 1.327 . S
C742 H767 0.950 . S
C743 C742 1.349 . S
C743 C759 1.349 . S
C744 C742 1.327 . S
C744 C763 1.429 . S
C744 H768 0.950 . S
C745 C762 1.574 . S
C745 C764 1.368 . S
C745 H769 0.949 . S
H746 C750 0.949 . S
C747 C748 1.349 . S
C747 C749 1.327 . S
C747 H770 0.950 . S
C748 C747 1.349 . S
C748 C760 1.349 . S
C749 C747 1.327 . S
C749 C765 1.429 . S
C749 H771 0.950 . S
C750 H746 0.949 . S
C750 C758 1.574 . S
C750 C766 1.368 . S
H751 C759 0.950 . S
H752 C757 0.950 . S
H753 C758 0.949 . S
H754 C760 0.950 . S
H755 C761 0.950 . S
H756 C762 0.949 . S
C757 H752 0.950 . S
C757 C759 1.327 . S
C757 C763 1.429 . S
C758 C750 1.574 . S
C758 H753 0.949 . S
C758 C764 1.368 . S
C759 C743 1.349 . S
C759 H751 0.950 . S
C759 C757 1.327 . S
C760 C748 1.349 . S
C760 H754 0.950 . S
C760 C761 1.327 . S
C761 H755 0.950 . S
C761 C760 1.327 . S
C761 C765 1.429 . S
C762 C745 1.574 . S
C762 H756 0.949 . S
C762 C766 1.368 . S
C763 C744 1.429 . S
C763 C757 1.429 . S
C763 C764 1.523 . S
C764 C745 1.368 . S
C764 C758 1.368 . S
C764 C763 1.523 . S
C765 C749 1.429 . S
C765 C761 1.429 . S
C765 C766 1.523 . S
C766 C750 1.368 . S
C766 C762 1.368 . S
C766 C765 1.523 . S
H767 C742 0.950 . S
H768 C744 0.950 . S
H769 C745 0.949 . S
H770 C747 0.950 . S
H771 C749 0.950 . S
C772 C773 1.349 . S
C772 C774 1.327 . S
C772 H797 0.950 . S
C773 C772 1.349 . S
C773 C789 1.349 . S
C774 C772 1.327 . S
C774 C793 1.429 . S
C774 H798 0.950 . S
C775 C792 1.574 . S
C775 C794 1.368 . S
C775 H799 0.949 . S
H776 C780 0.949 . S
C777 C778 1.349 . S
C777 C779 1.327 . S
C777 H800 0.950 . S
C778 C777 1.349 . S
C778 C790 1.349 . S
C779 C777 1.327 . S
C779 C795 1.429 . S
C779 H801 0.950 . S
C780 H776 0.949 . S
C780 C788 1.574 . S
C780 C796 1.368 . S
H781 C789 0.950 . S
H782 C787 0.950 . S
H783 C788 0.949 . S
H784 C790 0.950 . S
H785 C791 0.950 . S
H786 C792 0.949 . S
C787 H782 0.950 . S
C787 C789 1.327 . S
C787 C793 1.429 . S
C788 C780 1.574 . S
C788 H783 0.949 . S
C788 C794 1.368 . S
C789 C773 1.349 . S
C789 H781 0.950 . S
C789 C787 1.327 . S
C790 C778 1.349 . S
C790 H784 0.950 . S
C790 C791 1.327 . S
C791 H785 0.950 . S
C791 C790 1.327 . S
C791 C795 1.429 . S
C792 C775 1.574 . S
C792 H786 0.949 . S
C792 C796 1.368 . S
C793 C774 1.429 . S
C793 C787 1.429 . S
C793 C794 1.523 . S
C794 C775 1.368 . S
C794 C788 1.368 . S
C794 C793 1.523 . S
C795 C779 1.429 . S
C795 C791 1.429 . S
C795 C796 1.523 . S
C796 C780 1.368 . S
C796 C792 1.368 . S
C796 C795 1.523 . S
H797 C772 0.950 . S
H798 C774 0.950 . S
H799 C775 0.949 . S
H800 C777 0.950 . S
H801 C779 0.950 . S
C802 C803 1.349 . S
C802 C804 1.327 . S
C802 H827 0.950 . S
C803 C802 1.349 . S
C803 C819 1.349 . S
C804 C802 1.327 . S
C804 C823 1.429 . S
C804 H828 0.950 . S
C805 C822 1.574 . S
C805 C824 1.368 . S
C805 H829 0.949 . S
H806 C810 0.949 . S
C807 C808 1.349 . S
C807 C809 1.327 . S
C807 H830 0.950 . S
C808 C807 1.349 . S
C808 C820 1.349 . S
C809 C807 1.327 . S
C809 C825 1.429 . S
C809 H831 0.950 . S
C810 H806 0.949 . S
C810 C818 1.574 . S
C810 C826 1.368 . S
H811 C819 0.950 . S
H812 C817 0.950 . S
H813 C818 0.949 . S
H814 C820 0.950 . S
H815 C821 0.950 . S
H816 C822 0.949 . S
C817 H812 0.950 . S
C817 C819 1.327 . S
C817 C823 1.429 . S
C818 C810 1.574 . S
C818 H813 0.949 . S
C818 C824 1.368 . S
C819 C803 1.349 . S
C819 H811 0.950 . S
C819 C817 1.327 . S
C820 C808 1.349 . S
C820 H814 0.950 . S
C820 C821 1.327 . S
C821 H815 0.950 . S
C821 C820 1.327 . S
C821 C825 1.429 . S
C822 C805 1.574 . S
C822 H816 0.949 . S
C822 C826 1.368 . S
C823 C804 1.429 . S
C823 C817 1.429 . S
C823 C824 1.523 . S
C824 C805 1.368 . S
C824 C818 1.368 . S
C824 C823 1.523 . S
C825 C809 1.429 . S
C825 C821 1.429 . S
C825 C826 1.523 . S
C826 C810 1.368 . S
C826 C822 1.368 . S
C826 C825 1.523 . S
H827 C802 0.950 . S
H828 C804 0.950 . S
H829 C805 0.949 . S
H830 C807 0.950 . S
H831 C809 0.950 . S
C832 C833 1.349 . S
C832 C834 1.327 . S
C832 H857 0.950 . S
C833 C832 1.349 . S
C833 C849 1.349 . S
C834 C832 1.327 . S
C834 C853 1.429 . S
C834 H858 0.950 . S
C835 C852 1.574 . S
C835 C854 1.368 . S
C835 H859 0.949 . S
H836 C840 0.949 . S
C837 C838 1.349 . S
C837 C839 1.327 . S
C837 H860 0.950 . S
C838 C837 1.349 . S
C838 C850 1.349 . S
C839 C837 1.327 . S
C839 C855 1.429 . S
C839 H861 0.950 . S
C840 H836 0.949 . S
C840 C848 1.574 . S
C840 C856 1.368 . S
H841 C849 0.950 . S
H842 C847 0.950 . S
H843 C848 0.949 . S
H844 C850 0.950 . S
H845 C851 0.950 . S
H846 C852 0.949 . S
C847 H842 0.950 . S
C847 C849 1.327 . S
C847 C853 1.429 . S
C848 C840 1.574 . S
C848 H843 0.949 . S
C848 C854 1.368 . S
C849 C833 1.349 . S
C849 H841 0.950 . S
C849 C847 1.327 . S
C850 C838 1.349 . S
C850 H844 0.950 . S
C850 C851 1.327 . S
C851 H845 0.950 . S
C851 C850 1.327 . S
C851 C855 1.429 . S
C852 C835 1.574 . S
C852 H846 0.949 . S
C852 C856 1.368 . S
C853 C834 1.429 . S
C853 C847 1.429 . S
C853 C854 1.523 . S
C854 C835 1.368 . S
C854 C848 1.368 . S
C854 C853 1.523 . S
C855 C839 1.429 . S
C855 C851 1.429 . S
C855 C856 1.523 . S
C856 C840 1.368 . S
C856 C852 1.368 . S
C856 C855 1.523 . S
H857 C832 0.950 . S
H858 C834 0.950 . S
H859 C835 0.949 . S
H860 C837 0.950 . S
H861 C839 0.950 . S
C862 C863 1.349 . S
C862 C864 1.327 . S
C862 H887 0.950 . S
C863 C862 1.349 . S
C863 C879 1.349 . S
C864 C862 1.327 . S
C864 C883 1.429 . S
C864 H888 0.950 . S
C865 C882 1.574 . S
C865 C884 1.368 . S
C865 H889 0.949 . S
H866 C870 0.949 . S
C867 C868 1.349 . S
C867 C869 1.327 . S
C867 H890 0.950 . S
C868 C867 1.349 . S
C868 C880 1.349 . S
C869 C867 1.327 . S
C869 C885 1.429 . S
C869 H891 0.950 . S
C870 H866 0.949 . S
C870 C878 1.574 . S
C870 C886 1.368 . S
H871 C879 0.950 . S
H872 C877 0.950 . S
H873 C878 0.949 . S
H874 C880 0.950 . S
H875 C881 0.950 . S
H876 C882 0.949 . S
C877 H872 0.950 . S
C877 C879 1.327 . S
C877 C883 1.429 . S
C878 C870 1.574 . S
C878 H873 0.949 . S
C878 C884 1.368 . S
C879 C863 1.349 . S
C879 H871 0.950 . S
C879 C877 1.327 . S
C880 C868 1.349 . S
C880 H874 0.950 . S
C880 C881 1.327 . S
C881 H875 0.950 . S
C881 C880 1.327 . S
C881 C885 1.429 . S
C882 C865 1.574 . S
C882 H876 0.949 . S
C882 C886 1.368 . S
C883 C864 1.429 . S
C883 C877 1.429 . S
C883 C884 1.523 . S
C884 C865 1.368 . S
C884 C878 1.368 . S
C884 C883 1.523 . S
C885 C869 1.429 . S
C885 C881 1.429 . S
C885 C886 1.523 . S
C886 C870 1.368 . S
C886 C882 1.368 . S
C886 C885 1.523 . S
H887 C862 0.950 . S
H888 C864 0.950 . S
H889 C865 0.949 . S
H890 C867 0.950 . S
H891 C869 0.950 . S
C892 C893 1.349 . S
C892 C894 1.327 . S
C892 H917 0.950 . S
C893 C892 1.349 . S
C893 C909 1.349 . S
C894 C892 1.327 . S
C894 C913 1.429 . S
C894 H918 0.950 . S
C895 C912 1.574 . S
C895 C914 1.368 . S
C895 H919 0.949 . S
H896 C900 0.949 . S
C897 C898 1.349 . S
C897 C899 1.327 . S
C897 H920 0.950 . S
C898 C897 1.349 . S
C898 C910 1.349 . S
C899 C897 1.327 . S
C899 C915 1.429 . S
C899 H921 0.950 . S
C900 H896 0.949 . S
C900 C908 1.574 . S
C900 C916 1.368 . S
H901 C909 0.950 . S
H902 C907 0.950 . S
H903 C908 0.949 . S
H904 C910 0.950 . S
H905 C911 0.950 . S
H906 C912 0.949 . S
C907 H902 0.950 . S
C907 C909 1.327 . S
C907 C913 1.429 . S
C908 C900 1.574 . S
C908 H903 0.949 . S
C908 C914 1.368 . S
C909 C893 1.349 . S
C909 H901 0.950 . S
C909 C907 1.327 . S
C910 C898 1.349 . S
C910 H904 0.950 . S
C910 C911 1.327 . S
C911 H905 0.950 . S
C911 C910 1.327 . S
C911 C915 1.429 . S
C912 C895 1.574 . S
C912 H906 0.949 . S
C912 C916 1.368 . S
C913 C894 1.429 . S
C913 C907 1.429 . S
C913 C914 1.523 . S
C914 C895 1.368 . S
C914 C908 1.368 . S
C914 C913 1.523 . S
C915 C899 1.429 . S
C915 C911 1.429 . S
C915 C916 1.523 . S
C916 C900 1.368 . S
C916 C912 1.368 . S
C916 C915 1.523 . S
H917 C892 0.950 . S
H918 C894 0.950 . S
H919 C895 0.949 . S
H920 C897 0.950 . S
H921 C899 0.950 . S
C922 C923 1.349 . S
C922 C924 1.327 . S
C922 H947 0.950 . S
C923 C922 1.349 . S
C923 C939 1.349 . S
C924 C922 1.327 . S
C924 C943 1.429 . S
C924 H948 0.950 . S
C925 C942 1.574 . S
C925 C944 1.368 . S
C925 H949 0.949 . S
H926 C930 0.949 . S
C927 C928 1.349 . S
C927 C929 1.327 . S
C927 H950 0.950 . S
C928 C927 1.349 . S
C928 C940 1.349 . S
C929 C927 1.327 . S
C929 C945 1.429 . S
C929 H951 0.950 . S
C930 H926 0.949 . S
C930 C938 1.574 . S
C930 C946 1.368 . S
H931 C939 0.950 . S
H932 C937 0.950 . S
H933 C938 0.949 . S
H934 C940 0.950 . S
H935 C941 0.950 . S
H936 C942 0.949 . S
C937 H932 0.950 . S
C937 C939 1.327 . S
C937 C943 1.429 . S
C938 C930 1.574 . S
C938 H933 0.949 . S
C938 C944 1.368 . S
C939 C923 1.349 . S
C939 H931 0.950 . S
C939 C937 1.327 . S
C940 C928 1.349 . S
C940 H934 0.950 . S
C940 C941 1.327 . S
C941 H935 0.950 . S
C941 C940 1.327 . S
C941 C945 1.429 . S
C942 C925 1.574 . S
C942 H936 0.949 . S
C942 C946 1.368 . S
C943 C924 1.429 . S
C943 C937 1.429 . S
C943 C944 1.523 . S
C944 C925 1.368 . S
C944 C938 1.368 . S
C944 C943 1.523 . S
C945 C929 1.429 . S
C945 C941 1.429 . S
C945 C946 1.523 . S
C946 C930 1.368 . S
C946 C942 1.368 . S
C946 C945 1.523 . S
H947 C922 0.950 . S
H948 C924 0.950 . S
H949 C925 0.949 . S
H950 C927 0.950 . S
H951 C929 0.950 . S
C233 C6 1.772 . S
C238 C171 1.762 . S
C263 C21 1.850 . S
C268 C174 1.793 1_556 S
C298 C210 0.987 . S
C293 C49 0.934 . S
C323 C68 1.376 . S
C328 C230 1.410 1_655 S
C358 C184 2.563 . S
C353 C2 2.568 . S
C388 C161 1.223 1_565 S
C383 C30 1.164 . S
C418 C214 1.255 . S
C413 C40 1.304 . S
C448 C194 1.173 . S
C443 C63 1.288 . S
C473 C11 1.321 . S
C478 C224 1.361 . S
C508 C190 1.850 . S
C503 C44 1.866 . S
C533 C59 1.312 . S
C538 C156 1.281 . S
C563 C25 1.634 . S
C568 C204 1.554 . S
C598 C170 1.946 1_565 S
C593 C82 1.953 . S
C623 C101 1.512 . S
C628 C176 1.450 . S
C653 C125 1.415 . S
C658 C211 1.499 . S
C683 C144 1.062 . S
C688 C231 1.066 . S
C713 C87 1.430 . S
C718 C181 1.454 . S
C748 C164 2.391 . S
C743 C97 2.384 . S
C778 C216 1.239 . S
C773 C120 1.404 . S
C808 C196 1.174 . S
C803 C135 1.204 . S
C833 C78 1.772 . S
C838 C221 1.667 . S
C868 C191 1.267 . S
C863 C116 1.262 . S
C898 C154 1.852 . S
C893 C139 1.917 . S
C923 C106 1.195 . S
C928 C201 1.281 . S
