# Generated by pormake.
# Topology zzz, (3,6)-cn, num edge types: 1
# Building blocks:
#     Node 0, Type 0, BuildingBlock: ESEHIV_clean_linker_0, # of connection points: 3
#     Node 1, Type 0, BuildingBlock: ESEHIV_clean_linker_0, # of connection points: 3
#     Node 2, Type 0, BuildingBlock: ESEHIV_clean_linker_0, # of connection points: 3
#     Node 3, Type 0, BuildingBlock: ESEHIV_clean_linker_0, # of connection points: 3
#     Node 4, Type 0, BuildingBlock: ESEHIV_clean_linker_0, # of connection points: 3
#     Node 5, Type 0, BuildingBlock: ESEHIV_clean_linker_0, # of connection points: 3
#     Node 6, Type 0, BuildingBlock: ESEHIV_clean_linker_0, # of connection points: 3
#     Node 7, Type 0, BuildingBlock: ESEHIV_clean_linker_0, # of connection points: 3
#     Node 8, Type 1, BuildingBlock: BETGAK_clean_sbu_0, # of connection points: 6
#     Node 9, Type 1, BuildingBlock: BETGAK_clean_sbu_0, # of connection points: 6
#     Node 10, Type 1, BuildingBlock: BETGAK_clean_sbu_0, # of connection points: 6
#     Node 11, Type 1, BuildingBlock: BETGAK_clean_sbu_0, # of connection points: 6
#     Edge 12, Type (0, 1), BuildingBlock: CIFDUS_clean_linker_0, # of connection points: 2
#     Edge 13, Type (0, 1), BuildingBlock: CIFDUS_clean_linker_0, # of connection points: 2
#     Edge 14, Type (0, 1), BuildingBlock: CIFDUS_clean_linker_0, # of connection points: 2
#     Edge 15, Type (0, 1), BuildingBlock: CIFDUS_clean_linker_0, # of connection points: 2
#     Edge 16, Type (0, 1), BuildingBlock: CIFDUS_clean_linker_0, # of connection points: 2
#     Edge 17, Type (0, 1), BuildingBlock: CIFDUS_clean_linker_0, # of connection points: 2
#     Edge 18, Type (0, 1), BuildingBlock: CIFDUS_clean_linker_0, # of connection points: 2
#     Edge 19, Type (0, 1), BuildingBlock: CIFDUS_clean_linker_0, # of connection points: 2
#     Edge 20, Type (0, 1), BuildingBlock: CIFDUS_clean_linker_0, # of connection points: 2
#     Edge 21, Type (0, 1), BuildingBlock: CIFDUS_clean_linker_0, # of connection points: 2
#     Edge 22, Type (0, 1), BuildingBlock: CIFDUS_clean_linker_0, # of connection points: 2
#     Edge 23, Type (0, 1), BuildingBlock: CIFDUS_clean_linker_0, # of connection points: 2
#     Edge 24, Type (0, 1), BuildingBlock: CIFDUS_clean_linker_0, # of connection points: 2
#     Edge 25, Type (0, 1), BuildingBlock: CIFDUS_clean_linker_0, # of connection points: 2
#     Edge 26, Type (0, 1), BuildingBlock: CIFDUS_clean_linker_0, # of connection points: 2
#     Edge 27, Type (0, 1), BuildingBlock: CIFDUS_clean_linker_0, # of connection points: 2
#     Edge 28, Type (0, 1), BuildingBlock: CIFDUS_clean_linker_0, # of connection points: 2
#     Edge 29, Type (0, 1), BuildingBlock: CIFDUS_clean_linker_0, # of connection points: 2
#     Edge 30, Type (0, 1), BuildingBlock: CIFDUS_clean_linker_0, # of connection points: 2
#     Edge 31, Type (0, 1), BuildingBlock: CIFDUS_clean_linker_0, # of connection points: 2
#     Edge 32, Type (0, 1), BuildingBlock: CIFDUS_clean_linker_0, # of connection points: 2
#     Edge 33, Type (0, 1), BuildingBlock: CIFDUS_clean_linker_0, # of connection points: 2
#     Edge 34, Type (0, 1), BuildingBlock: CIFDUS_clean_linker_0, # of connection points: 2
#     Edge 35, Type (0, 1), BuildingBlock: CIFDUS_clean_linker_0, # of connection points: 2
# Relax obj value: 0.559
# Max RMSD: 0.256
# Mean RMSD: 0.253
data_MOF--net-zzz--node1-BETGAK_clean_sbu_0--node2-ESEHIV_clean_linker_0--edge1-CIFDUS_clean_linker_0
_symmetry_space_group_name_H-M    P1
_symmetry_Int_Tables_number       1
_symmetry_cell_setting            triclinic
loop_
_symmetry_equiv_pos_as_xyz
'x, y, z'
_cell_length_a     39.523777
_cell_length_b     39.554512
_cell_length_c     12.523922
_cell_angle_alpha  89.438785
_cell_angle_beta   89.977273
_cell_angle_gamma 89.984863
loop_
_atom_site_label
_atom_site_type_symbol
_atom_site_fract_x
_atom_site_fract_y
_atom_site_fract_z
_atom_type_partial_charge
H0 H 0.82332 0.51556 0.28859 0.0
H1 H 0.72735 0.51507 0.1325 0.0
H2 H 0.73264 0.53554 0.47057 0.0
C3 C 0.7962 0.51975 0.29265 0.0
C4 C 0.78114 0.52757 0.39068 0.0
C5 C 0.77671 0.51526 0.20097 0.0
C6 C 0.74198 0.51982 0.20427 0.0
C7 C 0.7254 0.527 0.29996 0.0
C8 C 0.74506 0.53081 0.39513 0.0
H9 H 1.00308 0.81784 0.27811 0.0
H10 H 0.9991 0.72151 0.13052 0.0
H11 H 1.00706 0.72706 0.47428 0.0
C12 C 1.00192 0.79057 0.28749 0.0
C13 C 1.00451 0.77584 0.38992 0.0
C14 C 1.00084 0.77097 0.19546 0.0
C15 C 0.99915 0.73606 0.20367 0.0
C16 C 1.00117 0.71941 0.30229 0.0
C17 C 1.00423 0.73943 0.39733 0.0
H18 H 0.736 0.07159 0.35365 0.0
H19 H 0.82826 0.05722 0.18138 0.0
H20 H 0.80444 0.99186 0.44945 0.0
C21 C 0.76011 0.05871 0.34582 0.0
C22 C 0.76783 0.03191 0.41577 0.0
C23 C 0.78159 0.06736 0.26092 0.0
C24 C 0.81217 0.05049 0.24861 0.0
C25 C 0.82116 0.02343 0.31555 0.0
C26 C 0.79847 1.01344 0.39908 0.0
H27 H 0.47864 0.72775 0.34542 0.0
H28 H 0.54938 0.80244 0.46137 0.0
H29 H 0.49206 0.81969 0.17111 0.0
C30 C 0.49078 0.75232 0.33931 0.0
C31 C 0.48282 0.77334 0.25322 0.0
C32 C 0.51425 0.76216 0.41687 0.0
C33 C 0.53081 0.79425 0.40363 0.0
C34 C 0.52219 0.81574 0.31451 0.0
C35 C 0.49813 0.8045 0.2413 0.0
H36 H 0.2395 0.58045 0.16639 0.0
H37 H 0.33305 0.58036 0.34028 0.0
H38 H 0.30259 0.49235 0.16302 0.0
C39 C 0.26337 0.56864 0.18728 0.0
C40 C 0.26939 0.53604 0.14961 0.0
C41 C 0.28552 0.5845 0.25874 0.0
C42 C 0.31575 0.5681 0.28589 0.0
C43 C 0.32226 0.53468 0.25443 0.0
C44 C 0.29857 0.51834 0.1862 0.0
H45 H 0.95941 0.23686 0.1593 0.0
H46 H 0.95715 0.32916 0.33641 0.0
H47 H 0.04822 0.29952 0.17059 0.0
C48 C 0.97141 0.26027 0.18308 0.0
C49 C 1.00495 0.26578 0.15216 0.0
C50 C 0.9542 0.28246 0.25082 0.0
C51 C 0.97042 0.312 0.28387 0.0
C52 C 1.00427 0.31867 0.25708 0.0
C53 C 0.02193 0.29519 0.19072 0.0
H54 H 0.29942 0.95743 0.16974 0.0
H55 H 0.20494 0.95993 0.3372 0.0
H56 H 0.2444 0.05068 0.18847 0.0
C57 C 0.27644 0.97065 0.19135 0.0
C58 C 0.27373 1.00488 0.16278 0.0
C59 C 0.25251 0.95453 0.25717 0.0
C60 C 0.22355 0.97242 0.28694 0.0
C61 C 0.22018 1.00716 0.26463 0.0
C62 C 0.24596 0.02373 0.20371 0.0
H63 H 0.57184 0.30369 0.21374 0.0
H64 H 0.49852 0.22682 0.13615 0.0
H65 H 0.57235 0.21003 0.38637 0.0
C66 C 0.56147 0.27852 0.22567 0.0
C67 C 0.57532 0.25754 0.30463 0.0
C68 C 0.5336 0.26846 0.16485 0.0
C69 C 0.51977 0.23544 0.18309 0.0
C70 C 0.53424 0.21381 0.26336 0.0
C71 C 0.56152 0.22577 0.32361 0.0
La72 La 0.05239 1.00725 0.86823 0.0
La73 La 0.99617 0.02456 0.74858 0.0
C74 C 0.09836 0.97907 0.97461 0.0
C75 C 0.11623 0.94841 0.94307 0.0
C76 C 0.11401 0.93836 0.83581 0.0
C77 C 0.1146 0.90415 0.81076 0.0
C78 C 0.11812 0.88009 0.89267 0.0
C79 C 0.12724 0.89069 0.99572 0.0
C80 C 0.12566 0.92488 1.02145 0.0
C81 C 0.06977 0.03143 0.67581 0.0
C82 C 0.01868 0.94959 0.72286 0.0
C83 C 0.95312 0.0523 0.62738 0.0
C84 C 0.93614 0.08527 0.6259 0.0
C85 C 0.903 0.08825 0.58708 0.0
C86 C 0.88772 0.12009 0.57847 0.0
C87 C 0.90549 0.14931 0.6087 0.0
C88 C 0.93807 0.14571 0.65278 0.0
C89 C 0.95318 0.11411 0.66104 0.0
C90 C 0.97816 1.00016 0.94007 0.0
C91 C 0.02931 0.08077 0.90221 0.0
O92 O 0.10355 1.00545 0.91359 0.0
O93 O 0.06612 0.97426 0.9931 0.0
O94 O 0.08303 0.04025 0.76534 0.0
O95 O 0.04611 1.0109 0.697 0.0
O96 O 0.03745 0.95623 0.80786 0.0
O97 O 1.00272 0.9748 0.67488 0.0
O98 O 0.94518 0.03228 0.7067 0.0
O99 O 0.98574 0.05276 0.60996 0.0
O100 O 0.9648 0.99177 0.84993 0.0
O101 O 1.00216 0.02046 0.91988 0.0
O102 O 1.012 0.07524 0.81296 0.0
O103 O 0.044 0.05481 0.94978 0.0
H104 H 0.10685 0.95631 0.77388 0.0
H105 H 0.10728 0.89646 0.73124 0.0
H106 H 0.12982 0.87241 0.06026 0.0
H107 H 0.12739 0.93222 0.10442 0.0
H108 H 0.88938 0.06612 0.56029 0.0
H109 H 0.86264 0.12198 0.54415 0.0
H110 H 0.95311 0.16751 0.67417 0.0
H111 H 0.97884 0.11261 0.69033 0.0
La112 La 0.52471 0.03966 0.83729 0.0
La113 La 0.51174 0.98467 0.71339 0.0
C114 C 0.5469 0.08313 0.96413 0.0
C115 C 0.5765 0.10493 0.9701 0.0
C116 C 0.59385 0.11618 0.87847 0.0
C117 C 0.62419 0.13408 0.889 0.0
C118 C 0.63712 0.14097 0.9911 0.0
C119 C 0.61855 0.13082 0.08171 0.0
C120 C 0.58882 0.11259 0.0709 0.0
C121 C 0.49942 0.05948 0.65062 0.0
C122 C 0.58515 1.00992 0.69149 0.0
C123 C 0.49071 0.93979 0.58717 0.0
C124 C 0.45932 0.92128 0.56762 0.0
C125 C 0.46057 0.88871 0.52452 0.0
C126 C 0.4307 0.87229 0.49509 0.0
C127 C 0.39926 0.88815 0.51025 0.0
C128 C 0.3983 0.92011 0.55895 0.0
C129 C 0.42803 0.93653 0.58669 0.0
C130 C 0.53357 0.96697 0.90951 0.0
C131 C 0.4507 1.01438 0.85074 0.0
O132 O 0.52556 0.08991 0.88766 0.0
O133 O 0.55278 0.05074 0.97458 0.0
O134 O 0.48983 0.0697 0.74316 0.0
O135 O 0.52191 0.03674 0.66437 0.0
O136 O 0.57721 0.02895 0.77489 0.0
O137 O 0.56119 0.99247 0.64539 0.0
O138 O 0.5058 0.93318 0.67729 0.0
O139 O 0.49006 0.97221 0.56631 0.0
O140 O 0.54487 0.95484 0.82091 0.0
O141 O 0.51213 0.98935 0.8852 0.0
O142 O 0.45952 0.9978 0.76355 0.0
O143 O 0.47447 0.02985 0.90572 0.0
H144 H 0.5848 0.10985 0.7995 0.0
H145 H 0.63847 0.14079 0.81807 0.0
H146 H 0.6284 0.13435 0.16155 0.0
H147 H 0.57624 0.10286 0.14137 0.0
H148 H 0.48468 0.87655 0.51 0.0
H149 H 0.43223 0.84787 0.45698 0.0
H150 H 0.37469 0.93362 0.56899 0.0
H151 H 0.42662 0.96185 0.61811 0.0
La152 La 0.48839 0.5255 0.86023 0.0
La153 La 0.54589 0.50584 0.7361 0.0
C154 C 0.44106 0.54855 0.97199 0.0
C155 C 0.41692 0.57519 0.94586 0.0
C156 C 0.41611 0.5882 0.84115 0.0
C157 C 0.40677 0.62177 0.8237 0.0
C158 C 0.39947 0.64222 0.91174 0.0
C159 C 0.39227 0.62667 1.01075 0.0
C160 C 0.40193 0.59324 0.02853 0.0
C161 C 0.47222 0.50344 0.66602 0.0
C162 C 0.52605 0.58361 0.72471 0.0
C163 C 0.57967 0.48625 0.57937 0.0
C164 C 0.6063 0.46193 0.55771 0.0
C165 C 0.62553 0.44726 0.64017 0.0
C166 C 0.64723 0.4203 0.61805 0.0
C167 C 0.64956 0.4078 0.5136 0.0
C168 C 0.63172 0.42429 0.43099 0.0
C169 C 0.6103 0.45112 0.45301 0.0
C170 C 0.57144 0.51661 0.92849 0.0
C171 C 0.51407 0.45163 0.89325 0.0
O172 O 0.43841 0.5213 0.91511 0.0
O173 O 0.47243 0.55892 0.97898 0.0
O174 O 0.45807 0.49379 0.75381 0.0
O175 O 0.49621 0.52283 0.69134 0.0
O176 O 0.50072 0.57629 0.79106 0.0
O177 O 0.54672 0.55953 0.69296 0.0
O178 O 0.58826 0.51201 0.63812 0.0
O179 O 0.5503 0.47326 0.60632 0.0
O180 O 0.5882 0.50603 0.84715 0.0
O181 O 0.54045 0.51995 0.90323 0.0
O182 O 0.52936 0.45579 0.79974 0.0
O183 O 0.50121 0.47822 0.94158 0.0
H184 H 0.4272 0.5742 0.77587 0.0
H185 H 0.41181 0.63313 0.74622 0.0
H186 H 0.38583 0.64173 0.07966 0.0
H187 H 0.40206 0.58329 0.10928 0.0
H188 H 0.62239 0.45538 0.72193 0.0
H189 H 0.66016 0.40763 0.68336 0.0
H190 H 0.63174 0.41443 0.35067 0.0
H191 H 0.59522 0.46206 0.38917 0.0
La192 La 1.01141 0.48494 0.88417 0.0
La193 La 0.0254 0.53614 0.75299 0.0
C194 C 0.98775 0.44017 1.00755 0.0
C195 C 0.96018 0.41638 0.98858 0.0
C196 C 0.94949 0.41045 0.88335 0.0
C197 C 0.91653 0.39947 0.8642 0.0
C198 C 0.89414 0.39521 0.95015 0.0
C199 C 0.90712 0.39457 0.05477 0.0
C200 C 0.93982 0.40608 0.07409 0.0
C201 C 0.03624 0.4608 0.70072 0.0
C202 C 0.95152 0.51201 0.73365 0.0
C203 C 0.04791 0.57865 0.61862 0.0
C204 C 0.07784 0.59963 0.60023 0.0
C205 C 0.07418 0.63086 0.54769 0.0
C206 C 0.1027 0.64944 0.51741 0.0
C207 C 0.1353 0.63677 0.53818 0.0
C208 C 0.13857 0.60644 0.59768 0.0
C209 C 0.11009 0.58816 0.6289 0.0
C210 C 0.99986 0.55911 0.93742 0.0
C211 C 0.08375 0.51047 0.91019 0.0
O212 O 1.01464 0.43591 0.94918 0.0
O213 O 0.97839 0.47186 1.00924 0.0
O214 O 0.04701 0.45414 0.79563 0.0
O215 O 1.01422 0.48408 0.70972 0.0
O216 O 0.95959 0.49451 0.82055 0.0
O217 O 0.97543 0.52863 0.68284 0.0
O218 O 0.02943 0.58659 0.70044 0.0
O219 O 0.0518 0.54597 0.61066 0.0
O220 O 0.99003 0.56773 0.8429 0.0
O221 O 0.02232 0.53655 0.92733 0.0
O222 O 0.0775 0.52428 0.81526 0.0
O223 O 0.05806 0.498 0.96397 0.0
H224 H 0.965 0.41822 0.81606 0.0
H225 H 0.90704 0.39978 0.78306 0.0
H226 H 0.89033 0.39133 0.12256 0.0
H227 H 0.94747 0.41082 0.15561 0.0
H228 H 0.04929 0.64022 0.52632 0.0
H229 H 0.09926 0.67286 0.47329 0.0
H230 H 0.1631 0.59534 0.61383 0.0
H231 H 0.11339 0.56425 0.67048 0.0
H232 H 0.15277 0.99185 0.26344 0.0
H233 H 0.22475 0.06049 0.40153 0.0
H234 H 0.18308 0.07657 0.53693 0.0
H235 H 0.12912 0.06473 0.63182 0.0
H236 H 0.05744 0.99561 0.49381 0.0
H237 H 0.09588 0.98598 0.34382 0.0
C238 C 0.15896 1.01118 0.3211 0.0
C239 C 0.192 0.02503 0.32163 0.0
C240 C 0.13511 0.01953 0.4008 0.0
C241 C 0.19955 0.04981 0.39767 0.0
C242 C 0.17581 0.05859 0.4764 0.0
C243 C 0.12161 0.04802 0.56794 0.0
C244 C 0.09051 0.03042 0.57558 0.0
C245 C 0.14397 0.04265 0.48128 0.0
C246 C 0.08126 1.00912 0.49127 0.0
C247 C 0.1033 1.00363 0.4052 0.0
H248 H 0.47715 0.19054 0.3677 0.0
H249 H 0.57148 0.15833 0.23271 0.0
H250 H 0.5685 0.10504 0.33265 0.0
H251 H 0.54317 0.07095 0.47939 0.0
H252 H 0.44875 0.10375 0.61589 0.0
H253 H 0.44722 0.15223 0.49435 0.0
C254 C 0.496 0.17104 0.35539 0.0
C255 C 0.52397 0.17808 0.28884 0.0
C256 C 0.49444 0.14044 0.41578 0.0
C257 C 0.54894 0.15291 0.27874 0.0
C258 C 0.54759 0.12266 0.338 0.0
C259 C 0.52175 0.08808 0.4802 0.0
C260 C 0.4962 0.08354 0.5577 0.0
C261 C 0.52102 0.11648 0.40963 0.0
C262 C 0.46889 0.1065 0.55772 0.0
C263 C 0.46799 0.13447 0.48815 0.0
H264 H 0.38754 0.55644 0.2709 0.0
H265 H 0.32174 0.47509 0.36836 0.0
H266 H 0.36386 0.45622 0.49981 0.0
H267 H 0.4162 0.46777 0.60382 0.0
H268 H 0.48148 0.54963 0.50473 0.0
H269 H 0.443 0.56331 0.35772 0.0
C270 C 0.38289 0.53386 0.31818 0.0
C271 C 0.35141 0.51713 0.30863 0.0
C272 C 0.40697 0.52368 0.39535 0.0
C273 C 0.34577 0.48818 0.37218 0.0
C274 C 0.36973 0.4777 0.44874 0.0
C275 C 0.42235 0.48816 0.54868 0.0
C276 C 0.45177 0.50772 0.56614 0.0
C277 C 0.39993 0.49597 0.46366 0.0
C278 C 0.45923 0.53406 0.49363 0.0
C279 C 0.43708 0.54201 0.40954 0.0
H280 H 0.03845 0.32213 0.44575 0.0
H281 H 1.0001 0.38447 0.19087 0.0
H282 H 1.00498 0.43486 0.30329 0.0
H283 H 1.01568 0.4607 0.48405 0.0
H284 H 0.05762 0.39652 0.73173 0.0
H285 H 0.05599 0.34846 0.61412 0.0
C286 C 0.03259 0.34694 0.4131 0.0
C287 C 0.01944 0.34941 0.30864 0.0
C288 C 0.03538 0.37583 0.47897 0.0
C289 C 1.01074 0.38183 0.27 0.0
C290 C 1.0132 0.41066 0.33516 0.0
C291 C 0.02474 0.4363 0.5119 0.0
C292 C 0.03639 0.43281 0.61866 0.0
C293 C 0.02461 0.40797 0.44151 0.0
C294 C 0.04826 0.40064 0.65139 0.0
C295 C 0.04745 0.37274 0.58365 0.0
H296 H 0.88601 0.04611 0.32488 0.0
H297 H 0.82586 0.96231 0.21822 0.0
H298 H 0.87113 0.94555 0.09586 0.0
H299 H 0.92378 0.9607 0.99735 0.0
H300 H 0.98352 0.04506 0.10427 0.0
H301 H 0.94285 0.05554 0.24729 0.0
C302 C 0.88355 0.02315 0.27882 0.0
C303 C 0.85264 1.00511 0.28276 0.0
C304 C 0.90934 1.01441 0.20561 0.0
C305 C 0.84954 0.97609 0.21956 0.0
C306 C 0.87525 0.96696 0.14761 0.0
C307 C 0.9283 0.9809 0.05347 0.0
C308 C 0.95673 1.00221 0.03884 0.0
C309 C 0.90464 0.98681 0.13646 0.0
C310 C 0.96206 0.02821 0.11286 0.0
C311 C 0.93865 0.03432 0.19483 0.0
H312 H 0.49193 0.87727 0.3091 0.0
H313 H 0.58548 0.82722 0.23434 0.0
H314 H 0.59887 0.87165 0.10315 0.0
H315 H 0.57866 0.91905 0.98601 0.0
H316 H 0.48439 0.96818 0.06227 0.0
H317 H 0.47647 0.92992 0.21436 0.0
C318 C 0.51623 0.87715 0.26893 0.0
C319 C 0.53795 0.84899 0.28397 0.0
C320 C 0.52291 0.902 0.18958 0.0
C321 C 0.56867 0.84876 0.22723 0.0
C322 C 0.5759 0.87385 0.14981 0.0
C323 C 0.55672 0.92178 0.03716 0.0
C324 C 0.532 0.94645 1.01118 0.0
C325 C 0.55238 0.89965 0.12631 0.0
C326 C 0.50384 0.9496 0.07931 0.0
C327 C 0.49925 0.92761 0.16676 0.0
H328 H 0.67997 0.57575 0.23766 0.0
H329 H 0.68806 0.47073 0.32693 0.0
H330 H 0.63784 0.45793 0.22132 0.0
H331 H 0.59715 0.47479 0.08167 0.0
H332 H 0.58754 0.57983 0.99492 0.0
H333 H 0.63132 0.59463 0.12521 0.0
C334 C 0.66931 0.5505 0.24065 0.0
C335 C 0.68767 0.5244 0.29288 0.0
C336 C 0.64 0.54318 0.17946 0.0
C337 C 0.67408 0.49153 0.29121 0.0
C338 C 0.64556 0.48403 0.22907 0.0
C339 C 0.60358 0.50108 0.09481 0.0
C340 C 0.58855 0.52624 0.02986 0.0
C341 C 0.629 0.50937 0.16988 0.0
C342 C 0.59799 0.56008 0.04559 0.0
C343 C 0.62339 0.56849 0.11946 0.0
H344 H 0.95178 0.67607 0.24225 0.0
H345 H 0.05754 0.6792 0.32069 0.0
H346 H 0.06687 0.62659 0.22258 0.0
H347 H 0.04629 0.58489 0.08571 0.0
H348 H 0.94092 0.58679 0.9972 0.0
H349 H 0.93021 0.63145 0.12578 0.0
C350 C 0.97655 0.66425 0.24295 0.0
C351 C 1.00365 0.68145 0.29266 0.0
C352 C 0.98204 0.63511 0.18006 0.0
C353 C 0.03588 0.66623 0.28763 0.0
C354 C 0.04136 0.63642 0.22857 0.0
C355 C 0.02084 0.59446 0.09682 0.0
C356 C 0.99431 0.58205 0.0314 0.0
C357 C 1.01489 0.62135 0.17015 0.0
C358 C 0.96175 0.59555 0.04593 0.0
C359 C 0.95559 0.62127 0.11971 0.0
H360 H 0.93751 0.28902 0.46025 0.0
H361 H 0.9003 0.24791 0.16482 0.0
H362 H 0.87064 0.20357 0.26363 0.0
H363 H 0.87426 0.16735 0.42319 0.0
H364 H 0.91129 0.20882 0.7184 0.0
H365 H 0.92105 0.26307 0.63007 0.0
C366 C 0.92141 0.27166 0.41715 0.0
C367 C 0.92298 0.27027 0.30502 0.0
C368 C 0.90515 0.24579 0.47434 0.0
C369 C 0.90092 0.2483 0.25129 0.0
C370 C 0.88408 0.2228 0.30773 0.0
C371 C 0.88264 0.18866 0.47013 0.0
C372 C 0.89404 0.18357 0.57548 0.0
C373 C 0.88888 0.21957 0.41822 0.0
C374 C 0.9039 0.21178 0.63553 0.0
C375 C 0.9096 0.24281 0.58499 0.0
H376 H 0.28889 0.90051 0.18287 0.0
H377 H 0.2391 0.93716 0.46621 0.0
H378 H 0.2774 0.90493 0.57736 0.0
H379 H 0.33595 0.8861 0.59335 0.0
H380 H 0.39264 0.86259 0.30949 0.0
H381 H 0.34184 0.86894 0.20146 0.0
C382 C 0.2859 0.90072 0.26897 0.0
C383 C 0.26248 0.923 0.31548 0.0
C384 C 0.31043 0.88506 0.33333 0.0
C385 C 0.25738 0.92117 0.42684 0.0
C386 C 0.2798 0.90305 0.49138 0.0
C387 C 0.33676 0.88109 0.50833 0.0
C388 C 0.36812 0.87541 0.4588 0.0
C389 C 0.30826 0.88793 0.44555 0.0
C390 C 0.36889 0.86765 0.3495 0.0
C391 C 0.33986 0.87178 0.28723 0.0
H392 H 0.63428 0.28698 0.2463 0.0
H393 H 0.57462 0.25849 0.52096 0.0
H394 H 0.60584 0.29819 0.63101 0.0
H395 H 0.63487 0.35231 0.62963 0.0
H396 H 0.68929 0.38531 0.34925 0.0
H397 H 0.67692 0.33182 0.26222 0.0
C398 C 0.62919 0.28865 0.33126 0.0
C399 C 0.60171 0.27094 0.3753 0.0
C400 C 0.64614 0.31264 0.39256 0.0
C401 C 0.5955 0.27236 0.48549 0.0
C402 C 0.61318 0.29524 0.5482 0.0
C403 C 0.64583 0.34702 0.5521 0.0
C404 C 0.66153 0.3731 0.49359 0.0
C405 C 0.63652 0.31733 0.50025 0.0
C406 C 0.67631 0.36572 0.39438 0.0
C407 C 0.66869 0.33539 0.34392 0.0
H408 H 0.24368 0.63646 0.19561 0.0
H409 H 0.2986 0.59862 0.47023 0.0
H410 H 0.25917 0.62607 0.58798 0.0
H411 H 0.19995 0.64136 0.61214 0.0
H412 H 0.13849 0.66342 0.33522 0.0
H413 H 0.18831 0.66241 0.22221 0.0
C414 C 0.24735 0.63463 0.28129 0.0
C415 C 0.27292 0.61352 0.32297 0.0
C416 C 0.22224 0.64704 0.34946 0.0
C417 C 0.27879 0.61373 0.43408 0.0
C418 C 0.25574 0.62907 0.50253 0.0
C419 C 0.19761 0.64675 0.52736 0.0
C420 C 0.16535 0.65078 0.48189 0.0
C421 C 0.22578 0.64269 0.46102 0.0
C422 C 0.16286 0.65958 0.3729 0.0
C423 C 0.19142 0.65854 0.30746 0.0
H424 H 0.05569 0.7546 0.08515 0.0
H425 H 0.97026 0.82231 0.08299 0.0
H426 H 0.99793 0.85755 0.94651 0.0
H427 H 0.05171 0.87632 0.87172 0.0
H428 H 0.14098 0.81504 0.91185 0.0
H429 H 0.10656 0.76897 0.98552 0.0
C430 C 0.04261 0.77633 0.05122 0.0
C431 C 1.01124 0.78621 0.09327 0.0
C432 C 0.05976 0.79757 0.98009 0.0
C433 C 0.99452 0.81456 0.05114 0.0
C434 C 1.01042 0.83466 0.97389 0.0
C435 C 0.06322 0.85211 0.89114 0.0
C436 C 0.0986 0.84867 0.88649 0.0
C437 C 0.04387 0.82752 0.94346 0.0
C438 C 0.11372 0.8178 0.91412 0.0
C439 C 0.09409 0.79184 0.95779 0.0
H440 H 0.75551 0.13052 0.27744 0.0
H441 H 0.77888 0.0526 0.05064 0.0
H442 H 0.74178 0.07906 0.91924 0.0
H443 H 0.69075 0.11266 0.89506 0.0
H444 H 0.66386 0.1878 0.12695 0.0
H445 H 0.71537 0.17559 0.22742 0.0
C446 C 0.75336 0.12024 0.19773 0.0
C447 C 0.76898 0.08939 0.1742 0.0
C448 C 0.73118 0.13502 0.12372 0.0
C449 C 0.76675 0.07629 0.07052 0.0
C450 C 0.74538 0.09129 0.99551 0.0
C451 C 0.69715 0.12783 0.96393 0.0
C452 C 0.673 0.14988 1.00687 0.0
C453 C 0.72563 0.11914 0.02442 0.0
C454 C 0.68188 0.16998 0.09447 0.0
C455 C 0.711 0.16255 0.15298 0.0
H456 H 0.50365 0.73949 0.0844 0.0
H457 H 0.4147 0.77985 0.23464 0.0
H458 H 0.37842 0.74914 0.10927 0.0
H459 H 0.37322 0.70083 0.98792 0.0
H460 H 0.46393 0.65538 0.86489 0.0
H461 H 0.49823 0.69909 0.94084 0.0
C462 C 0.4763 0.74211 0.08709 0.0
C463 C 0.46134 0.76084 0.16811 0.0
C464 C 0.45602 0.72375 1.01777 0.0
C465 C 0.42619 0.76474 0.17271 0.0
C466 C 0.40565 0.74733 0.10131 0.0
C467 C 0.40026 0.70179 0.97338 0.0
C468 C 0.41582 0.67557 0.91721 0.0
C469 C 0.42031 0.72528 0.02742 0.0
C470 C 0.45105 0.67637 0.90093 0.0
C471 C 0.47094 0.70079 0.94838 0.0
H472 H 0.76765 0.45116 0.14686 0.0
H473 H 0.8196 0.54246 0.05339 0.0
H474 H 0.85379 0.51069 0.92529 0.0
H475 H 0.878 0.45642 0.88151 0.0
H476 H 0.83439 0.36452 1.00689 0.0
H477 H 0.78641 0.39657 0.07713 0.0
C478 C 0.78577 0.46403 0.09551 0.0
C479 C 0.79166 0.4987 0.1085 0.0
C480 C 0.80658 0.44528 0.02817 0.0
C481 C 0.81514 0.51564 0.04382 0.0
C482 C 0.83454 0.49749 0.9712 0.0
C483 C 0.8569 0.44316 0.91805 0.0
C484 C 0.85949 0.40827 0.93915 0.0
C485 C 0.83177 0.4621 0.96768 0.0
C486 C 0.83261 0.39134 0.98939 0.0
C487 C 0.80567 0.4098 0.03138 0.0
H488 H 0.03301 0.20624 0.21884 0.0
H489 H 1.00512 0.26123 0.93456 0.0
H490 H 1.00932 0.20927 0.82969 0.0
H491 H 1.01598 0.14614 0.82176 0.0
H492 H 0.04418 0.09247 0.11005 0.0
H493 H 0.0447 0.14508 0.20828 0.0
C494 C 0.02944 0.2072 0.133 0.0
C495 C 0.02011 0.23826 0.08453 0.0
C496 C 0.031 0.17682 0.07355 0.0
C497 C 1.01378 0.23828 0.97375 0.0
C498 C 1.01551 0.20824 0.91394 0.0
C499 C 0.02239 0.14594 0.90587 0.0
C500 C 0.02987 0.11471 0.95747 0.0
C501 C 0.02321 0.17701 0.96331 0.0
C502 C 0.03834 0.1156 0.06686 0.0
C503 C 0.0387 0.14593 0.12386 0.0
H504 H 0.29784 0.98293 0.97311 0.0
H505 H 0.31712 0.05689 0.21535 0.0
H506 H 0.37351 0.06759 0.13881 0.0
H507 H 0.42004 0.05094 1.01338 0.0
H508 H 0.39936 0.97503 0.77701 0.0
H509 H 0.34159 0.96993 0.84098 0.0
C510 C 0.31398 1.00218 1.00737 0.0
C511 C 0.30287 0.01933 0.09951 0.0
C512 C 0.34676 1.00723 0.96517 0.0
C513 C 0.32449 0.04379 0.14345 0.0
C514 C 0.35707 0.04945 0.10054 0.0
C515 C 0.40283 0.03347 0.97529 0.0
C516 C 0.4146 1.01335 0.88965 0.0
C517 C 0.36898 0.03052 1.01326 0.0
C518 C 0.39153 0.99102 0.84191 0.0
C519 C 0.35822 0.98801 0.87883 0.0
H520 H 0.49789 0.32519 0.20796 0.0
H521 H 0.54579 0.27288 0.94939 0.0
H522 H 0.54398 0.32466 0.83939 0.0
H523 H 0.53422 0.38734 0.82408 0.0
H524 H 0.48729 0.43832 0.08927 0.0
H525 H 0.48351 0.38534 0.18747 0.0
C526 C 0.50654 0.32469 0.12577 0.0
C527 C 0.52088 0.29456 0.08626 0.0
C528 C 0.50657 0.355 0.06453 0.0
C529 C 0.5334 0.29508 0.98093 0.0
C530 C 0.533 0.32505 0.91866 0.0
C531 C 0.52297 0.38685 0.90301 0.0
C532 C 0.5114 0.4175 0.9485 0.0
C533 C 0.5206 0.3556 0.96068 0.0
C534 C 0.49674 0.41575 0.05116 0.0
C535 C 0.4944 0.38518 0.10803 0.0
H536 H 0.2128 0.50261 0.21267 0.0
H537 H 0.26271 0.54245 0.93368 0.0
H538 H 0.20991 0.53826 0.83146 0.0
H539 H 0.1472 0.52861 0.82698 0.0
H540 H 0.09863 0.48953 0.11153 0.0
H541 H 0.1524 0.48819 0.20406 0.0
C542 C 0.21249 0.50889 0.12816 0.0
C543 C 0.24217 0.52165 0.08018 0.0
C544 C 0.18163 0.50751 0.07095 0.0
C545 C 0.24071 0.53128 0.97171 0.0
C546 C 0.21022 0.52952 0.91372 0.0
C547 C 0.14841 0.51966 0.90896 0.0
C548 C 0.11827 0.50957 0.96155 0.0
C549 C 0.1801 0.51862 0.96328 0.0
C550 C 0.12087 0.49778 0.06798 0.0
C551 C 0.15187 0.49683 0.12168 0.0
H552 H 0.04781 0.82973 0.40146 0.0
H553 H 0.97052 0.77915 0.58529 0.0
H554 H 0.9691 0.82709 0.70962 0.0
H555 H 0.98542 0.88738 0.75413 0.0
H556 H 0.06092 0.93697 0.56005 0.0
H557 H 0.06652 0.88649 0.45099 0.0
C558 C 0.03075 0.82881 0.4693 0.0
C559 C 1.00903 0.80043 0.48216 0.0
C560 C 0.02911 0.85714 0.53769 0.0
C561 C 0.98771 0.8001 0.57242 0.0
C562 C 0.98657 0.82795 0.64297 0.0
C563 C 1.00331 0.88693 0.6886 0.0
C564 C 0.02265 0.91643 0.66523 0.0
C565 C 1.00638 0.85724 0.62465 0.0
C566 C 0.04559 0.9151 0.57972 0.0
C567 C 0.0489 0.88603 0.5173 0.0
H568 H 0.71624 0.98629 0.40492 0.0
H569 H 0.75759 0.06335 0.60616 0.0
H570 H 0.70558 0.06356 0.71346 0.0
H571 H 0.64511 0.04552 0.73953 0.0
H572 H 0.60523 0.96847 0.5322 0.0
H573 H 0.65885 0.96478 0.44035 0.0
C574 C 0.71442 1.0021 0.47495 0.0
C575 C 0.74151 0.0239 0.49924 0.0
C576 C 0.68387 1.0028 0.53455 0.0
C577 C 0.73779 0.04541 0.5876 0.0
C578 C 0.70767 0.04594 0.64808 0.0
C579 C 0.64823 0.0277 0.67507 0.0
C580 C 0.62029 1.00766 0.64337 0.0
C581 C 0.67998 0.02537 0.62079 0.0
C582 C 0.6255 0.9847 0.5591 0.0
C583 C 0.65652 0.98235 0.50583 0.0
H584 H 0.56635 0.71716 0.46166 0.0
H585 H 0.46812 0.74881 0.57052 0.0
H586 H 0.46192 0.6964 0.67321 0.0
H587 H 0.48115 0.63739 0.71163 0.0
H588 H 0.58204 0.60846 0.62203 0.0
H589 H 0.58995 0.66256 0.53037 0.0
C590 C 0.54437 0.71341 0.5122 0.0
C591 C 0.51806 0.73769 0.50941 0.0
C592 C 0.5409 0.68278 0.57225 0.0
C593 C 0.48921 0.7313 0.57289 0.0
C594 C 0.48536 0.70087 0.63051 0.0
C595 C 0.50552 0.64367 0.67796 0.0
C596 C 0.53108 0.61871 0.67765 0.0
C597 C 0.51058 0.67587 0.62848 0.0
C598 C 0.56167 0.62675 0.62487 0.0
C599 C 0.56638 0.658 0.57232 0.0
H600 H 0.81035 0.4779 0.51396 0.0
H601 H 0.80949 0.58561 0.46302 0.0
H602 H 0.86212 0.59091 0.56498 0.0
H603 H 0.91214 0.56402 0.65304 0.0
H604 H 0.91202 0.4565 0.70803 0.0
H605 H 0.85655 0.45192 0.62214 0.0
C606 C 0.82086 0.50269 0.52934 0.0
C607 C 0.80511 0.53148 0.48314 0.0
C608 C 0.85166 0.50545 0.58722 0.0
C609 C 0.82015 0.5632 0.50036 0.0
C610 C 0.85072 0.56614 0.55726 0.0
C611 C 0.89975 0.53966 0.64724 0.0
C612 C 0.91638 0.51053 0.68775 0.0
C613 C 0.86733 0.53734 0.59845 0.0
C614 C 0.89977 0.47927 0.67927 0.0
C615 C 0.86801 0.47667 0.62943 0.0
loop_
_geom_bond_atom_site_label_1
_geom_bond_atom_site_label_2
_geom_bond_distance
_geom_bond_site_symmetry_2
_ccdc_geom_bond_type
H0 C3 0.931 . S
H1 C6 0.928 . S
H2 C8 0.930 . S
C3 H0 0.931 . S
C3 C4 1.413 . S
C3 C5 1.360 . S
C4 C3 1.413 . S
C4 C8 1.429 . S
C5 C3 1.360 . S
C5 C6 1.372 . S
C6 H1 0.928 . S
C6 C5 1.372 . S
C6 C7 1.404 . S
C7 C6 1.404 . S
C7 C8 1.391 . S
C8 H2 0.930 . S
C8 C4 1.429 . S
C8 C7 1.391 . S
H9 C12 0.931 . S
H10 C15 0.928 . S
H11 C17 0.930 . S
C12 H9 0.931 . S
C12 C13 1.413 . S
C12 C14 1.360 . S
C13 C12 1.413 . S
C13 C17 1.429 1_655 S
C14 C12 1.360 . S
C14 C15 1.372 . S
C15 H10 0.928 . S
C15 C14 1.372 . S
C15 C16 1.404 . S
C16 C15 1.404 . S
C16 C17 1.390 1_655 S
C17 H11 0.930 . S
C17 C13 1.429 1_455 S
C17 C16 1.390 1_455 S
H18 C21 0.931 . S
H19 C24 0.928 . S
H20 C26 0.930 . S
C21 H18 0.931 . S
C21 C22 1.413 . S
C21 C23 1.360 . S
C22 C21 1.413 . S
C22 C26 1.429 1_565 S
C23 C21 1.360 . S
C23 C24 1.372 . S
C24 H19 0.928 . S
C24 C23 1.372 . S
C24 C25 1.404 . S
C25 C24 1.404 . S
C25 C26 1.390 1_565 S
C26 H20 0.930 . S
C26 C22 1.429 1_545 S
C26 C25 1.390 1_545 S
H27 C30 0.931 . S
H28 C33 0.928 . S
H29 C35 0.930 . S
C30 H27 0.931 . S
C30 C31 1.413 . S
C30 C32 1.360 . S
C31 C30 1.413 . S
C31 C35 1.429 . S
C32 C30 1.360 . S
C32 C33 1.372 . S
C33 H28 0.928 . S
C33 C32 1.372 . S
C33 C34 1.404 . S
C34 C33 1.404 . S
C34 C35 1.391 . S
C35 H29 0.930 . S
C35 C31 1.429 . S
C35 C34 1.391 . S
H36 C39 0.931 . S
H37 C42 0.928 . S
H38 C44 0.930 . S
C39 H36 0.931 . S
C39 C40 1.413 1_554 S
C39 C41 1.360 . S
C40 C39 1.413 1_556 S
C40 C44 1.429 . S
C41 C39 1.360 . S
C41 C42 1.372 . S
C42 H37 0.928 . S
C42 C41 1.372 . S
C42 C43 1.404 . S
C43 C42 1.404 . S
C43 C44 1.391 1_554 S
C44 H38 0.930 . S
C44 C40 1.429 . S
C44 C43 1.391 1_556 S
H45 C48 0.931 . S
H46 C51 0.928 . S
H47 C53 0.930 . S
C48 H45 0.931 . S
C48 C49 1.413 1_554 S
C48 C50 1.360 . S
C49 C48 1.413 1_556 S
C49 C53 1.429 1_655 S
C50 C48 1.360 . S
C50 C51 1.372 . S
C51 H46 0.928 . S
C51 C50 1.372 . S
C51 C52 1.404 . S
C52 C51 1.404 . S
C52 C53 1.391 1_654 S
C53 H47 0.930 . S
C53 C49 1.429 1_455 S
C53 C52 1.391 1_456 S
H54 C57 0.931 . S
H55 C60 0.928 . S
H56 C62 0.930 . S
C57 H54 0.931 . S
C57 C58 1.413 1_554 S
C57 C59 1.360 . S
C58 C57 1.413 1_556 S
C58 C62 1.429 1_565 S
C59 C57 1.360 . S
C59 C60 1.372 . S
C60 H55 0.928 . S
C60 C59 1.372 . S
C60 C61 1.404 . S
C61 C60 1.404 . S
C61 C62 1.391 1_564 S
C62 H56 0.930 . S
C62 C58 1.429 1_545 S
C62 C61 1.391 1_546 S
H63 C66 0.931 1_556 S
H64 C69 0.928 . S
H65 C71 0.930 . S
C66 H63 0.931 1_554 S
C66 C67 1.413 . S
C66 C68 1.360 1_554 S
C67 C66 1.413 . S
C67 C71 1.429 . S
C68 C66 1.360 1_556 S
C68 C69 1.372 . S
C69 H64 0.928 . S
C69 C68 1.372 . S
C69 C70 1.404 1_556 S
C70 C69 1.404 1_554 S
C70 C71 1.391 . S
C71 H65 0.930 . S
C71 C67 1.429 . S
C71 C70 1.391 . S
La72 C74 2.928 . S
La72 O92 2.521 . S
La72 O93 2.628 . S
La72 O94 2.554 . S
La72 O95 2.757 1_565 S
La72 O96 2.470 . S
La72 O101 2.482 1_455 S
La72 O103 2.503 1_565 S
La73 C83 2.928 . S
La73 O95 2.482 1_655 S
La73 O97 2.503 1_545 S
La73 O98 2.521 . S
La73 O99 2.628 . S
La73 O100 2.554 . S
La73 O101 2.757 1_545 S
La73 O102 2.470 . S
C74 La72 2.928 . S
C74 C75 1.503 1_556 S
C74 O92 1.261 . S
C74 O93 1.243 . S
C75 C74 1.503 1_554 S
C75 C76 1.394 . S
C75 C80 1.373 . S
C76 C75 1.394 . S
C76 C77 1.380 . S
C76 H104 0.930 . S
C77 C76 1.380 . S
C77 C78 1.376 . S
C77 H105 0.930 . S
C78 C77 1.376 . S
C78 C79 1.370 . S
C79 C78 1.370 . S
C79 C80 1.396 . S
C79 H106 0.929 . S
C80 C75 1.373 . S
C80 C79 1.396 . S
C80 H107 0.902 1_455 S
C81 O94 1.240 . S
C81 O95 1.289 1_565 S
C82 O96 1.258 1_655 S
C82 O97 1.256 . S
C83 La73 2.928 . S
C83 C84 1.503 . S
C83 O98 1.261 . S
C83 O99 1.243 . S
C84 C83 1.503 . S
C84 C85 1.394 . S
C84 C89 1.373 . S
C85 C84 1.394 . S
C85 C86 1.380 . S
C85 H108 0.930 . S
C86 C85 1.380 . S
C86 C87 1.376 . S
C86 H109 0.930 . S
C87 C86 1.376 . S
C87 C88 1.370 . S
C88 C87 1.370 . S
C88 C89 1.396 . S
C88 H110 0.929 . S
C89 C84 1.373 . S
C89 C88 1.396 . S
C89 H111 0.895 1_655 S
C90 O100 1.240 . S
C90 O101 1.289 1_545 S
C91 O102 1.258 1_455 S
C91 O103 1.256 . S
O92 La72 2.521 . S
O92 C74 1.261 . S
O93 La72 2.628 . S
O93 C74 1.243 . S
O94 La72 2.554 . S
O94 C81 1.240 . S
O95 La72 2.757 1_545 S
O95 La73 2.482 1_455 S
O95 C81 1.289 1_545 S
O96 La72 2.470 . S
O96 C82 1.258 1_455 S
O97 La73 2.503 1_565 S
O97 C82 1.256 . S
O98 La73 2.521 . S
O98 C83 1.261 . S
O99 La73 2.628 . S
O99 C83 1.243 . S
O100 La73 2.554 . S
O100 C90 1.240 . S
O101 La72 2.482 1_655 S
O101 La73 2.757 1_565 S
O101 C90 1.289 1_565 S
O102 La73 2.470 . S
O102 C91 1.258 1_655 S
O103 La72 2.503 1_545 S
O103 C91 1.256 . S
H104 C76 0.930 . S
H105 C77 0.930 . S
H106 C79 0.929 . S
H107 C80 0.902 1_655 S
H108 C85 0.930 . S
H109 C86 0.930 . S
H110 C88 0.929 . S
H111 C89 0.895 1_455 S
La112 C114 2.928 . S
La112 O132 2.521 . S
La112 O133 2.628 . S
La112 O134 2.554 . S
La112 O135 2.757 . S
La112 O136 2.470 . S
La112 O141 2.482 1_545 S
La112 O143 2.503 . S
La113 C123 2.928 . S
La113 O135 2.482 1_565 S
La113 O137 2.503 . S
La113 O138 2.521 . S
La113 O139 2.628 . S
La113 O140 2.554 . S
La113 O141 2.757 . S
La113 O142 2.470 . S
C114 La112 2.928 . S
C114 C115 1.503 1_556 S
C114 O132 1.261 . S
C114 O133 1.243 . S
C115 C114 1.503 1_554 S
C115 C116 1.394 . S
C115 C120 1.373 . S
C116 C115 1.394 . S
C116 C117 1.380 . S
C116 H144 0.930 . S
C117 C116 1.380 . S
C117 C118 1.376 . S
C117 H145 0.930 . S
C118 C117 1.376 . S
C118 C119 1.370 . S
C119 C118 1.370 . S
C119 C120 1.396 . S
C119 H146 0.929 . S
C120 C115 1.373 . S
C120 C119 1.396 . S
C120 H147 0.929 1_545 S
C121 O134 1.240 . S
C121 O135 1.289 . S
C122 O136 1.258 1_565 S
C122 O137 1.256 . S
C123 La113 2.928 . S
C123 C124 1.503 . S
C123 O138 1.261 . S
C123 O139 1.243 . S
C124 C123 1.503 . S
C124 C125 1.394 . S
C124 C129 1.373 . S
C125 C124 1.394 . S
C125 C126 1.380 . S
C125 H148 0.930 . S
C126 C125 1.380 . S
C126 C127 1.376 . S
C126 H149 0.930 . S
C127 C126 1.376 . S
C127 C128 1.370 . S
C128 C127 1.370 . S
C128 C129 1.396 . S
C128 H150 0.929 . S
C129 C124 1.373 . S
C129 C128 1.396 . S
C129 H151 0.929 1_565 S
C130 O140 1.240 . S
C130 O141 1.289 . S
C131 O142 1.258 1_545 S
C131 O143 1.256 . S
O132 La112 2.521 . S
O132 C114 1.261 . S
O133 La112 2.628 . S
O133 C114 1.243 . S
O134 La112 2.554 . S
O134 C121 1.240 . S
O135 La112 2.757 . S
O135 La113 2.482 1_545 S
O135 C121 1.289 . S
O136 La112 2.470 . S
O136 C122 1.258 1_545 S
O137 La113 2.503 . S
O137 C122 1.256 . S
O138 La113 2.521 . S
O138 C123 1.261 . S
O139 La113 2.628 . S
O139 C123 1.243 . S
O140 La113 2.554 . S
O140 C130 1.240 . S
O141 La112 2.482 1_565 S
O141 La113 2.757 . S
O141 C130 1.289 . S
O142 La113 2.470 . S
O142 C131 1.258 1_565 S
O143 La112 2.503 . S
O143 C131 1.256 . S
H144 C116 0.930 . S
H145 C117 0.930 . S
H146 C119 0.929 . S
H147 C120 0.929 1_565 S
H148 C125 0.930 . S
H149 C126 0.930 . S
H150 C128 0.929 . S
H151 C129 0.929 1_545 S
La152 C154 2.928 . S
La152 O172 2.521 . S
La152 O173 2.628 . S
La152 O174 2.554 . S
La152 O175 2.757 . S
La152 O176 2.470 . S
La152 O181 2.482 . S
La152 O183 2.503 . S
La153 C163 2.928 . S
La153 O175 2.482 . S
La153 O177 2.503 . S
La153 O178 2.521 . S
La153 O179 2.628 . S
La153 O180 2.554 . S
La153 O181 2.757 . S
La153 O182 2.470 . S
C154 La152 2.928 . S
C154 C155 1.503 1_556 S
C154 O172 1.261 . S
C154 O173 1.243 . S
C155 C154 1.503 1_554 S
C155 C156 1.394 . S
C155 C160 1.373 . S
C156 C155 1.394 . S
C156 C157 1.380 . S
C156 H184 0.930 . S
C157 C156 1.380 . S
C157 C158 1.376 . S
C157 H185 0.930 . S
C158 C157 1.376 . S
C158 C159 1.370 . S
C159 C158 1.370 . S
C159 C160 1.396 . S
C159 H186 0.929 . S
C160 C155 1.373 . S
C160 C159 1.396 . S
C160 H187 0.929 . S
C161 O174 1.240 . S
C161 O175 1.289 . S
C162 O176 1.258 . S
C162 O177 1.256 . S
C163 La153 2.928 . S
C163 C164 1.503 . S
C163 O178 1.261 . S
C163 O179 1.243 . S
C164 C163 1.503 . S
C164 C165 1.394 . S
C164 C169 1.373 . S
C165 C164 1.394 . S
C165 C166 1.380 . S
C165 H188 0.930 . S
C166 C165 1.380 . S
C166 C167 1.376 . S
C166 H189 0.930 . S
C167 C166 1.376 . S
C167 C168 1.370 . S
C168 C167 1.370 . S
C168 C169 1.396 . S
C168 H190 0.929 . S
C169 C164 1.373 . S
C169 C168 1.396 . S
C169 H191 0.929 . S
C170 O180 1.240 . S
C170 O181 1.289 . S
C171 O182 1.258 . S
C171 O183 1.256 . S
O172 La152 2.521 . S
O172 C154 1.261 . S
O173 La152 2.628 . S
O173 C154 1.243 . S
O174 La152 2.554 . S
O174 C161 1.240 . S
O175 La152 2.757 . S
O175 La153 2.482 . S
O175 C161 1.289 . S
O176 La152 2.470 . S
O176 C162 1.258 . S
O177 La153 2.503 . S
O177 C162 1.256 . S
O178 La153 2.521 . S
O178 C163 1.261 . S
O179 La153 2.628 . S
O179 C163 1.243 . S
O180 La153 2.554 . S
O180 C170 1.240 . S
O181 La152 2.482 . S
O181 La153 2.757 . S
O181 C170 1.289 . S
O182 La153 2.470 . S
O182 C171 1.258 . S
O183 La152 2.503 . S
O183 C171 1.256 . S
H184 C156 0.930 . S
H185 C157 0.930 . S
H186 C159 0.929 . S
H187 C160 0.929 . S
H188 C165 0.930 . S
H189 C166 0.930 . S
H190 C168 0.929 . S
H191 C169 0.929 . S
La192 C194 2.928 . S
La192 O212 2.521 . S
La192 O213 2.628 . S
La192 O214 2.554 . S
La192 O215 2.757 1_655 S
La192 O216 2.470 . S
La192 O221 2.482 . S
La192 O223 2.503 1_655 S
La193 C203 2.928 . S
La193 O215 2.482 . S
La193 O217 2.503 1_455 S
La193 O218 2.521 . S
La193 O219 2.628 . S
La193 O220 2.554 . S
La193 O221 2.757 1_455 S
La193 O222 2.470 . S
C194 La192 2.928 . S
C194 C195 1.503 1_556 S
C194 O212 1.261 . S
C194 O213 1.243 . S
C195 C194 1.503 1_554 S
C195 C196 1.394 . S
C195 C200 1.373 . S
C196 C195 1.394 . S
C196 C197 1.380 . S
C196 H224 0.930 . S
C197 C196 1.380 . S
C197 C198 1.376 . S
C197 H225 0.930 . S
C198 C197 1.376 . S
C198 C199 1.370 . S
C199 C198 1.370 . S
C199 C200 1.396 . S
C199 H226 0.929 . S
C200 C195 1.373 . S
C200 C199 1.396 . S
C200 H227 0.929 . S
C201 O214 1.241 . S
C201 O215 1.289 1_655 S
C202 O216 1.258 . S
C202 O217 1.256 . S
C203 La193 2.928 . S
C203 C204 1.503 . S
C203 O218 1.261 . S
C203 O219 1.243 . S
C204 C203 1.503 . S
C204 C205 1.394 . S
C204 C209 1.373 . S
C205 C204 1.394 . S
C205 C206 1.380 . S
C205 H228 0.930 . S
C206 C205 1.380 . S
C206 C207 1.376 . S
C206 H229 0.930 . S
C207 C206 1.376 . S
C207 C208 1.370 . S
C208 C207 1.370 . S
C208 C209 1.396 . S
C208 H230 0.929 . S
C209 C204 1.373 . S
C209 C208 1.396 . S
C209 H231 0.929 . S
C210 O220 1.245 . S
C210 O221 1.287 1_455 S
C211 O222 1.258 . S
C211 O223 1.256 . S
O212 La192 2.521 . S
O212 C194 1.261 . S
O213 La192 2.628 . S
O213 C194 1.243 . S
O214 La192 2.554 . S
O214 C201 1.241 . S
O215 La192 2.757 1_455 S
O215 La193 2.482 . S
O215 C201 1.289 1_455 S
O216 La192 2.470 . S
O216 C202 1.258 . S
O217 La193 2.503 1_655 S
O217 C202 1.256 . S
O218 La193 2.521 . S
O218 C203 1.261 . S
O219 La193 2.628 . S
O219 C203 1.243 . S
O220 La193 2.554 . S
O220 C210 1.245 . S
O221 La192 2.482 . S
O221 La193 2.757 1_655 S
O221 C210 1.287 1_655 S
O222 La193 2.470 . S
O222 C211 1.258 . S
O223 La192 2.503 1_455 S
O223 C211 1.256 . S
H224 C196 0.930 . S
H225 C197 0.930 . S
H226 C199 0.929 . S
H227 C200 0.929 . S
H228 C205 0.930 . S
H229 C206 0.930 . S
H230 C208 0.929 . S
H231 C209 0.929 . S
H232 C238 0.930 . S
H233 C241 0.930 . S
H234 C242 0.930 . S
H235 C243 0.930 . S
H236 C246 0.930 . S
H237 C247 0.930 . S
C238 H232 0.930 . S
C238 C239 1.355 1_565 S
C238 C240 1.415 . S
C239 C238 1.355 1_545 S
C239 C241 1.419 . S
C240 C238 1.415 . S
C240 C245 1.425 1_565 S
C240 C247 1.409 . S
C241 H233 0.930 . S
C241 C239 1.419 . S
C241 C242 1.362 . S
C242 H234 0.930 . S
C242 C241 1.362 . S
C242 C245 1.409 . S
C243 H235 0.930 . S
C243 C244 1.355 1_545 S
C243 C245 1.415 . S
C244 C243 1.355 1_565 S
C244 C246 1.419 . S
C245 C240 1.425 1_545 S
C245 C242 1.409 . S
C245 C243 1.415 . S
C246 H236 0.930 . S
C246 C244 1.419 . S
C246 C247 1.362 . S
C247 H237 0.930 . S
C247 C240 1.409 . S
C247 C246 1.362 . S
H248 C254 0.930 . S
H249 C257 0.930 . S
H250 C258 0.930 . S
H251 C259 0.930 . S
H252 C262 0.930 . S
H253 C263 0.930 . S
C254 H248 0.930 . S
C254 C255 1.355 . S
C254 C256 1.415 . S
C255 C254 1.355 . S
C255 C257 1.419 . S
C256 C254 1.415 . S
C256 C261 1.425 . S
C256 C263 1.409 . S
C257 H249 0.930 . S
C257 C255 1.419 . S
C257 C258 1.362 . S
C258 H250 0.930 . S
C258 C257 1.362 . S
C258 C261 1.409 . S
C259 H251 0.930 . S
C259 C260 1.355 . S
C259 C261 1.415 . S
C260 C259 1.355 . S
C260 C262 1.419 . S
C261 C256 1.425 . S
C261 C258 1.409 . S
C261 C259 1.415 . S
C262 H252 0.930 . S
C262 C260 1.419 . S
C262 C263 1.362 . S
C263 H253 0.930 . S
C263 C256 1.409 . S
C263 C262 1.362 . S
H264 C270 0.930 . S
H265 C273 0.930 . S
H266 C274 0.930 . S
H267 C275 0.930 . S
H268 C278 0.930 . S
H269 C279 0.930 . S
C270 H264 0.930 . S
C270 C271 1.355 . S
C270 C272 1.415 . S
C271 C270 1.355 . S
C271 C273 1.419 . S
C272 C270 1.415 . S
C272 C277 1.425 . S
C272 C279 1.409 . S
C273 H265 0.930 . S
C273 C271 1.419 . S
C273 C274 1.362 . S
C274 H266 0.930 . S
C274 C273 1.362 . S
C274 C277 1.409 . S
C275 H267 0.930 . S
C275 C276 1.355 . S
C275 C277 1.415 . S
C276 C275 1.355 . S
C276 C278 1.419 . S
C277 C272 1.425 . S
C277 C274 1.409 . S
C277 C275 1.415 . S
C278 H268 0.930 . S
C278 C276 1.419 . S
C278 C279 1.362 . S
C279 H269 0.930 . S
C279 C272 1.409 . S
C279 C278 1.362 . S
H280 C286 0.930 . S
H281 C289 0.930 . S
H282 C290 0.930 . S
H283 C291 0.930 . S
H284 C294 0.930 . S
H285 C295 0.930 . S
C286 H280 0.930 . S
C286 C287 1.355 1_455 S
C286 C288 1.415 . S
C287 C286 1.355 1_655 S
C287 C289 1.419 . S
C288 C286 1.415 . S
C288 C293 1.425 1_455 S
C288 C295 1.409 . S
C289 H281 0.930 . S
C289 C287 1.419 . S
C289 C290 1.362 . S
C290 H282 0.930 . S
C290 C289 1.362 . S
C290 C293 1.409 . S
C291 H283 0.930 . S
C291 C292 1.355 1_655 S
C291 C293 1.415 . S
C292 C291 1.355 1_455 S
C292 C294 1.419 . S
C293 C288 1.425 1_655 S
C293 C290 1.409 . S
C293 C291 1.415 . S
C294 H284 0.930 . S
C294 C292 1.419 . S
C294 C295 1.362 . S
C295 H285 0.930 . S
C295 C288 1.409 . S
C295 C294 1.362 . S
H296 C302 0.930 . S
H297 C305 0.930 . S
H298 C306 0.930 . S
H299 C307 0.930 1_556 S
H300 C310 0.930 . S
H301 C311 0.930 . S
C302 H296 0.930 . S
C302 C303 1.347 1_545 S
C302 C304 1.415 . S
C303 C302 1.347 1_565 S
C303 C305 1.429 . S
C304 C302 1.415 . S
C304 C309 1.425 1_545 S
C304 C311 1.409 . S
C305 H297 0.930 . S
C305 C303 1.429 . S
C305 C306 1.362 . S
C306 H298 0.930 . S
C306 C305 1.362 . S
C306 C309 1.409 . S
C307 H299 0.930 1_554 S
C307 C308 1.354 1_554 S
C307 C309 1.415 . S
C308 C307 1.354 1_556 S
C308 C310 1.420 1_566 S
C309 C304 1.425 1_565 S
C309 C306 1.409 . S
C309 C307 1.415 . S
C310 H300 0.930 . S
C310 C308 1.420 1_544 S
C310 C311 1.362 . S
C311 H301 0.930 . S
C311 C304 1.409 . S
C311 C310 1.362 . S
H312 C318 0.930 . S
H313 C321 0.930 . S
H314 C322 0.930 . S
H315 C323 0.930 . S
H316 C326 0.930 . S
H317 C327 0.930 . S
C318 H312 0.930 . S
C318 C319 1.355 . S
C318 C320 1.415 . S
C319 C318 1.355 . S
C319 C321 1.419 . S
C320 C318 1.415 . S
C320 C325 1.425 . S
C320 C327 1.409 . S
C321 H313 0.930 . S
C321 C319 1.419 . S
C321 C322 1.362 . S
C322 H314 0.930 . S
C322 C321 1.362 . S
C322 C325 1.409 . S
C323 H315 0.930 . S
C323 C324 1.355 1_554 S
C323 C325 1.415 . S
C324 C323 1.355 1_556 S
C324 C326 1.419 . S
C325 C320 1.425 . S
C325 C322 1.409 . S
C325 C323 1.415 . S
C326 H316 0.930 . S
C326 C324 1.419 . S
C326 C327 1.362 1_556 S
C327 H317 0.930 . S
C327 C320 1.409 . S
C327 C326 1.362 1_554 S
H328 C334 0.930 . S
H329 C337 0.930 . S
H330 C338 0.930 . S
H331 C339 0.930 1_556 S
H332 C342 0.930 . S
H333 C343 0.930 . S
C334 H328 0.930 . S
C334 C335 1.355 . S
C334 C336 1.415 . S
C335 C334 1.355 . S
C335 C337 1.419 . S
C336 C334 1.415 . S
C336 C341 1.425 . S
C336 C343 1.409 . S
C337 H329 0.930 . S
C337 C335 1.419 . S
C337 C338 1.362 . S
C338 H330 0.930 . S
C338 C337 1.362 . S
C338 C341 1.409 . S
C339 H331 0.930 1_554 S
C339 C340 1.355 1_554 S
C339 C341 1.415 . S
C340 C339 1.355 1_556 S
C340 C342 1.419 1_556 S
C341 C336 1.425 . S
C341 C338 1.409 . S
C341 C339 1.415 . S
C342 H332 0.930 . S
C342 C340 1.419 1_554 S
C342 C343 1.362 . S
C343 H333 0.930 . S
C343 C336 1.409 . S
C343 C342 1.362 . S
H344 C350 0.930 . S
H345 C353 0.930 . S
H346 C354 0.930 . S
H347 C355 0.930 1_556 S
H348 C358 0.930 . S
H349 C359 0.930 . S
C350 H344 0.930 . S
C350 C351 1.355 1_655 S
C350 C352 1.415 . S
C351 C350 1.355 1_455 S
C351 C353 1.419 . S
C352 C350 1.415 . S
C352 C357 1.425 1_655 S
C352 C359 1.409 . S
C353 H345 0.930 . S
C353 C351 1.419 . S
C353 C354 1.362 . S
C354 H346 0.930 . S
C354 C353 1.362 . S
C354 C357 1.409 . S
C355 H347 0.930 1_554 S
C355 C356 1.355 1_454 S
C355 C357 1.415 . S
C356 C355 1.355 1_656 S
C356 C358 1.419 1_556 S
C357 C352 1.425 1_455 S
C357 C354 1.409 . S
C357 C355 1.415 . S
C358 H348 0.930 . S
C358 C356 1.419 1_554 S
C358 C359 1.362 . S
C359 H349 0.930 . S
C359 C352 1.409 . S
C359 C358 1.362 . S
H360 C366 0.930 . S
H361 C369 0.930 . S
H362 C370 0.930 . S
H363 C371 0.930 . S
H364 C374 0.930 . S
H365 C375 0.930 1_455 S
C366 H360 0.930 . S
C366 C367 1.351 1_455 S
C366 C368 1.415 1_455 S
C367 C366 1.351 1_655 S
C367 C369 1.433 . S
C368 C366 1.415 1_655 S
C368 C373 1.425 . S
C368 C375 1.409 . S
C369 H361 0.930 . S
C369 C367 1.433 . S
C369 C370 1.362 . S
C370 H362 0.930 . S
C370 C369 1.362 . S
C370 C373 1.409 . S
C371 H363 0.930 . S
C371 C372 1.355 . S
C371 C373 1.415 . S
C372 C371 1.355 . S
C372 C374 1.419 . S
C373 C368 1.425 . S
C373 C370 1.409 . S
C373 C371 1.415 . S
C374 H364 0.930 . S
C374 C372 1.419 . S
C374 C375 1.362 . S
C375 H365 0.930 1_655 S
C375 C368 1.409 . S
C375 C374 1.362 . S
H376 C382 0.930 . S
H377 C385 0.930 . S
H378 C386 0.930 . S
H379 C387 0.930 . S
H380 C390 0.930 . S
H381 C391 0.930 . S
C382 H376 0.930 . S
C382 C383 1.355 1_565 S
C382 C384 1.415 . S
C383 C382 1.355 1_545 S
C383 C385 1.419 . S
C384 C382 1.415 . S
C384 C389 1.425 . S
C384 C391 1.409 . S
C385 H377 0.930 . S
C385 C383 1.419 . S
C385 C386 1.362 . S
C386 H378 0.930 . S
C386 C385 1.362 . S
C386 C389 1.409 1_545 S
C387 H379 0.930 . S
C387 C388 1.355 . S
C387 C389 1.415 . S
C388 C387 1.355 . S
C388 C390 1.419 . S
C389 C384 1.425 . S
C389 C386 1.409 1_565 S
C389 C387 1.415 . S
C390 H380 0.930 . S
C390 C388 1.419 . S
C390 C391 1.362 . S
C391 H381 0.930 . S
C391 C384 1.409 . S
C391 C390 1.362 . S
H392 C398 0.930 . S
H393 C401 0.930 . S
H394 C402 0.930 . S
H395 C403 0.930 . S
H396 C406 0.930 . S
H397 C407 0.930 . S
C398 H392 0.930 . S
C398 C399 1.355 . S
C398 C400 1.415 . S
C399 C398 1.355 . S
C399 C401 1.419 . S
C400 C398 1.415 . S
C400 C405 1.425 . S
C400 C407 1.409 . S
C401 H393 0.930 . S
C401 C399 1.419 . S
C401 C402 1.362 . S
C402 H394 0.930 . S
C402 C401 1.362 . S
C402 C405 1.409 . S
C403 H395 0.930 . S
C403 C404 1.355 . S
C403 C405 1.415 . S
C404 C403 1.355 . S
C404 C406 1.419 . S
C405 C400 1.425 . S
C405 C402 1.409 . S
C405 C403 1.415 . S
C406 H396 0.930 . S
C406 C404 1.419 . S
C406 C407 1.362 . S
C407 H397 0.930 . S
C407 C400 1.409 . S
C407 C406 1.362 . S
H408 C414 0.930 . S
H409 C417 0.930 . S
H410 C418 0.930 . S
H411 C419 0.930 . S
H412 C422 0.930 . S
H413 C423 0.930 . S
C414 H408 0.930 . S
C414 C415 1.355 . S
C414 C416 1.415 . S
C415 C414 1.355 . S
C415 C417 1.419 . S
C416 C414 1.415 . S
C416 C421 1.425 . S
C416 C423 1.409 . S
C417 H409 0.930 . S
C417 C415 1.419 . S
C417 C418 1.362 . S
C418 H410 0.930 . S
C418 C417 1.362 . S
C418 C421 1.409 . S
C419 H411 0.930 . S
C419 C420 1.355 . S
C419 C421 1.415 . S
C420 C419 1.355 . S
C420 C422 1.419 . S
C421 C416 1.425 . S
C421 C418 1.409 . S
C421 C419 1.415 . S
C422 H412 0.930 . S
C422 C420 1.419 . S
C422 C423 1.362 . S
C423 H413 0.930 . S
C423 C416 1.409 . S
C423 C422 1.362 . S
H424 C430 0.930 . S
H425 C433 0.930 . S
H426 C434 0.930 . S
H427 C435 0.930 . S
H428 C438 0.930 . S
H429 C439 0.930 . S
C430 H424 0.930 . S
C430 C431 1.355 1_455 S
C430 C432 1.415 . S
C431 C430 1.355 1_655 S
C431 C433 1.419 . S
C432 C430 1.415 . S
C432 C437 1.425 . S
C432 C439 1.409 . S
C433 H425 0.930 . S
C433 C431 1.419 . S
C433 C434 1.362 . S
C434 H426 0.930 . S
C434 C433 1.362 . S
C434 C437 1.409 1_655 S
C435 H427 0.930 . S
C435 C436 1.355 . S
C435 C437 1.415 . S
C436 C435 1.355 . S
C436 C438 1.419 . S
C437 C432 1.425 . S
C437 C434 1.409 1_455 S
C437 C435 1.415 . S
C438 H428 0.930 . S
C438 C436 1.419 . S
C438 C439 1.362 . S
C439 H429 0.930 . S
C439 C432 1.409 . S
C439 C438 1.362 . S
H440 C446 0.930 . S
H441 C449 0.930 . S
H442 C450 0.930 . S
H443 C451 0.930 . S
H444 C454 0.930 . S
H445 C455 0.930 . S
C446 H440 0.930 . S
C446 C447 1.355 1_545 S
C446 C448 1.415 . S
C447 C446 1.355 1_565 S
C447 C449 1.419 . S
C448 C446 1.415 . S
C448 C453 1.425 . S
C448 C455 1.409 . S
C449 H441 0.930 . S
C449 C447 1.419 . S
C449 C450 1.362 1_565 S
C450 H442 0.930 . S
C450 C449 1.362 1_545 S
C450 C453 1.409 . S
C451 H443 0.930 . S
C451 C452 1.355 . S
C451 C453 1.415 . S
C452 C451 1.355 . S
C452 C454 1.419 . S
C453 C448 1.425 . S
C453 C450 1.409 . S
C453 C451 1.415 . S
C454 H444 0.930 . S
C454 C452 1.419 . S
C454 C455 1.362 . S
C455 H445 0.930 . S
C455 C448 1.409 . S
C455 C454 1.362 . S
H456 C462 0.930 . S
H457 C465 0.930 . S
H458 C466 0.930 . S
H459 C467 0.930 . S
H460 C470 0.930 . S
H461 C471 0.930 . S
C462 H456 0.930 . S
C462 C463 1.355 . S
C462 C464 1.415 . S
C463 C462 1.355 . S
C463 C465 1.419 . S
C464 C462 1.415 . S
C464 C469 1.425 . S
C464 C471 1.409 . S
C465 H457 0.930 . S
C465 C463 1.419 . S
C465 C466 1.362 . S
C466 H458 0.930 . S
C466 C465 1.362 . S
C466 C469 1.409 . S
C467 H459 0.930 . S
C467 C468 1.355 . S
C467 C469 1.415 . S
C468 C467 1.355 . S
C468 C470 1.419 . S
C469 C464 1.425 . S
C469 C466 1.409 . S
C469 C467 1.415 . S
C470 H460 0.930 . S
C470 C468 1.419 . S
C470 C471 1.362 . S
C471 H461 0.930 . S
C471 C464 1.409 . S
C471 C470 1.362 . S
H472 C478 0.930 . S
H473 C481 0.930 . S
H474 C482 0.930 . S
H475 C483 0.930 . S
H476 C486 0.930 . S
H477 C487 0.930 . S
C478 H472 0.930 . S
C478 C479 1.355 . S
C478 C480 1.415 . S
C479 C478 1.355 . S
C479 C481 1.419 . S
C480 C478 1.415 . S
C480 C485 1.425 . S
C480 C487 1.409 . S
C481 H473 0.930 . S
C481 C479 1.419 . S
C481 C482 1.362 . S
C482 H474 0.930 . S
C482 C481 1.362 . S
C482 C485 1.409 . S
C483 H475 0.930 . S
C483 C484 1.355 . S
C483 C485 1.415 . S
C484 C483 1.355 . S
C484 C486 1.419 . S
C485 C480 1.425 . S
C485 C482 1.409 . S
C485 C483 1.415 . S
C486 H476 0.930 . S
C486 C484 1.419 . S
C486 C487 1.362 . S
C487 H477 0.930 . S
C487 C480 1.409 . S
C487 C486 1.362 . S
H488 C494 0.930 1_554 S
H489 C497 0.930 . S
H490 C498 0.930 . S
H491 C499 0.930 . S
H492 C502 0.930 . S
H493 C503 0.937 1_554 S
C494 H488 0.930 1_556 S
C494 C495 1.355 . S
C494 C496 1.415 . S
C495 C494 1.355 . S
C495 C497 1.419 . S
C496 C494 1.415 . S
C496 C501 1.425 . S
C496 C503 1.409 . S
C497 H489 0.930 . S
C497 C495 1.419 . S
C497 C498 1.362 . S
C498 H490 0.930 . S
C498 C497 1.362 . S
C498 C501 1.409 . S
C499 H491 0.930 . S
C499 C500 1.355 . S
C499 C501 1.415 . S
C500 C499 1.355 . S
C500 C502 1.419 . S
C501 C496 1.425 . S
C501 C498 1.409 . S
C501 C499 1.415 . S
C502 H492 0.930 . S
C502 C500 1.419 . S
C502 C503 1.362 . S
C503 H493 0.937 1_556 S
C503 C496 1.409 . S
C503 C502 1.362 . S
H504 C510 0.930 . S
H505 C513 0.930 . S
H506 C514 0.930 . S
H507 C515 0.930 . S
H508 C518 0.930 . S
H509 C519 0.930 . S
C510 H504 0.930 . S
C510 C511 1.355 1_565 S
C510 C512 1.420 . S
C511 C510 1.355 1_545 S
C511 C513 1.419 . S
C512 C510 1.420 . S
C512 C517 1.409 1_565 S
C512 C519 1.421 . S
C513 H505 0.930 . S
C513 C511 1.419 . S
C513 C514 1.362 . S
C514 H506 0.930 . S
C514 C513 1.362 . S
C514 C517 1.409 . S
C515 H507 0.930 . S
C515 C516 1.355 . S
C515 C517 1.415 . S
C516 C515 1.355 . S
C516 C518 1.419 1_545 S
C517 C512 1.409 1_545 S
C517 C514 1.409 . S
C517 C515 1.415 . S
C518 H508 0.930 . S
C518 C516 1.419 1_565 S
C518 C519 1.362 . S
C519 H509 0.930 . S
C519 C512 1.421 . S
C519 C518 1.362 . S
H520 C526 0.935 . S
H521 C529 0.930 . S
H522 C530 0.930 . S
H523 C531 0.930 . S
H524 C534 0.930 . S
H525 C535 0.930 1_554 S
C526 H520 0.935 . S
C526 C527 1.355 . S
C526 C528 1.415 . S
C527 C526 1.355 . S
C527 C529 1.419 . S
C528 C526 1.415 . S
C528 C533 1.425 . S
C528 C535 1.409 . S
C529 H521 0.930 . S
C529 C527 1.419 . S
C529 C530 1.362 . S
C530 H522 0.930 . S
C530 C529 1.362 . S
C530 C533 1.409 . S
C531 H523 0.930 . S
C531 C532 1.355 . S
C531 C533 1.415 . S
C532 C531 1.355 . S
C532 C534 1.419 . S
C533 C528 1.425 . S
C533 C530 1.409 . S
C533 C531 1.415 . S
C534 H524 0.930 . S
C534 C532 1.419 . S
C534 C535 1.362 . S
C535 H525 0.930 1_556 S
C535 C528 1.409 . S
C535 C534 1.362 . S
H536 C542 0.930 . S
H537 C545 0.930 . S
H538 C546 0.930 . S
H539 C547 0.930 . S
H540 C550 0.930 . S
H541 C551 0.930 . S
C542 H536 0.930 . S
C542 C543 1.355 . S
C542 C544 1.415 . S
C543 C542 1.355 . S
C543 C545 1.419 . S
C544 C542 1.415 . S
C544 C549 1.425 . S
C544 C551 1.409 . S
C545 H537 0.930 . S
C545 C543 1.419 . S
C545 C546 1.362 . S
C546 H538 0.930 . S
C546 C545 1.362 . S
C546 C549 1.409 . S
C547 H539 0.930 . S
C547 C548 1.355 . S
C547 C549 1.415 . S
C548 C547 1.355 . S
C548 C550 1.419 . S
C549 C544 1.425 . S
C549 C546 1.409 . S
C549 C547 1.415 . S
C550 H540 0.930 . S
C550 C548 1.419 . S
C550 C551 1.362 . S
C551 H541 0.930 . S
C551 C544 1.409 . S
C551 C550 1.362 . S
H552 C558 0.930 . S
H553 C561 0.930 . S
H554 C562 0.930 . S
H555 C563 0.930 . S
H556 C566 0.930 . S
H557 C567 0.930 . S
C558 H552 0.930 . S
C558 C559 1.355 1_455 S
C558 C560 1.415 . S
C559 C558 1.355 1_655 S
C559 C561 1.419 . S
C560 C558 1.415 . S
C560 C565 1.425 1_455 S
C560 C567 1.409 . S
C561 H553 0.930 . S
C561 C559 1.419 . S
C561 C562 1.362 . S
C562 H554 0.930 . S
C562 C561 1.362 . S
C562 C565 1.409 . S
C563 H555 0.930 . S
C563 C564 1.355 . S
C563 C565 1.415 . S
C564 C563 1.355 . S
C564 C566 1.419 1_655 S
C565 C560 1.425 1_655 S
C565 C562 1.409 . S
C565 C563 1.415 . S
C566 H556 0.930 . S
C566 C564 1.419 1_455 S
C566 C567 1.362 . S
C567 H557 0.930 . S
C567 C560 1.409 . S
C567 C566 1.362 . S
H568 C574 0.930 . S
H569 C577 0.930 . S
H570 C578 0.930 . S
H571 C579 0.930 1_545 S
H572 C582 0.930 . S
H573 C583 0.930 . S
C574 H568 0.930 . S
C574 C575 1.355 . S
C574 C576 1.415 . S
C575 C574 1.355 . S
C575 C577 1.419 1_565 S
C576 C574 1.415 . S
C576 C581 1.425 . S
C576 C583 1.409 . S
C577 H569 0.930 . S
C577 C575 1.419 1_545 S
C577 C578 1.362 . S
C578 H570 0.930 . S
C578 C577 1.362 . S
C578 C581 1.409 1_545 S
C579 H571 0.930 1_565 S
C579 C580 1.355 . S
C579 C581 1.415 . S
C580 C579 1.355 . S
C580 C582 1.419 . S
C581 C576 1.425 . S
C581 C578 1.409 1_565 S
C581 C579 1.415 . S
C582 H572 0.930 . S
C582 C580 1.419 . S
C582 C583 1.362 . S
C583 H573 0.930 . S
C583 C576 1.409 . S
C583 C582 1.362 . S
H584 C590 0.930 . S
H585 C593 0.930 . S
H586 C594 0.930 . S
H587 C595 0.930 . S
H588 C598 0.930 . S
H589 C599 0.930 . S
C590 H584 0.930 . S
C590 C591 1.355 . S
C590 C592 1.415 . S
C591 C590 1.355 . S
C591 C593 1.419 . S
C592 C590 1.415 . S
C592 C597 1.425 . S
C592 C599 1.409 . S
C593 H585 0.930 . S
C593 C591 1.419 . S
C593 C594 1.362 . S
C594 H586 0.930 . S
C594 C593 1.362 . S
C594 C597 1.409 . S
C595 H587 0.930 . S
C595 C596 1.355 . S
C595 C597 1.415 . S
C596 C595 1.355 . S
C596 C598 1.419 . S
C597 C592 1.425 . S
C597 C594 1.409 . S
C597 C595 1.415 . S
C598 H588 0.930 . S
C598 C596 1.419 . S
C598 C599 1.362 . S
C599 H589 0.930 . S
C599 C592 1.409 . S
C599 C598 1.362 . S
H600 C606 0.930 . S
H601 C609 0.930 . S
H602 C610 0.930 . S
H603 C611 0.930 . S
H604 C614 0.930 . S
H605 C615 0.930 . S
C606 H600 0.930 . S
C606 C607 1.355 . S
C606 C608 1.415 . S
C607 C606 1.355 . S
C607 C609 1.419 . S
C608 C606 1.415 . S
C608 C613 1.425 . S
C608 C615 1.409 . S
C609 H601 0.930 . S
C609 C607 1.419 . S
C609 C610 1.362 . S
C610 H602 0.930 . S
C610 C609 1.362 . S
C610 C613 1.409 . S
C611 H603 0.930 . S
C611 C612 1.355 . S
C611 C613 1.415 . S
C612 C611 1.355 . S
C612 C614 1.419 . S
C613 C608 1.425 . S
C613 C610 1.409 . S
C613 C611 1.415 . S
C614 H604 0.930 . S
C614 C612 1.419 . S
C614 C615 1.362 . S
C615 H605 0.930 . S
C615 C608 1.409 . S
C615 C614 1.362 . S
C239 C61 1.843 1_545 S
C244 C81 2.058 . S
C260 C121 2.098 . S
C255 C70 1.906 . S
C276 C161 2.088 . S
C271 C43 1.938 . S
C292 C201 2.088 1_455 S
C287 C52 1.922 . S
C308 C90 2.065 1_565 S
C303 C25 1.837 . S
C319 C34 1.952 . S
C324 C130 2.085 . S
C335 C7 1.882 . S
C340 C170 2.105 . S
C351 C16 1.864 1_455 S
C356 C210 2.087 1_655 S
C372 C87 0.613 . S
C367 C50 0.581 . S
C388 C127 0.701 . S
C383 C59 0.708 1_545 S
C404 C167 0.762 . S
C399 C67 0.709 . S
C415 C41 0.647 . S
C420 C207 0.618 . S
C431 C14 0.742 . S
C436 C78 0.774 . S
C452 C118 0.721 . S
C447 C23 0.717 . S
C468 C158 0.569 . S
C463 C31 0.568 . S
C479 C5 0.661 . S
C484 C198 0.736 . S
C495 C49 2.198 1_455 S
C500 C91 2.393 . S
C511 C58 2.131 1_545 S
C516 C131 2.335 . S
C532 C171 2.323 . S
C527 C68 2.130 . S
C548 C211 2.402 . S
C543 C40 2.165 . S
C559 C13 2.190 . S
C564 C82 2.397 . S
C580 C122 2.368 . S
C575 C22 2.068 . S
C596 C162 2.340 . S
C591 C32 2.054 . S
C607 C4 2.098 . S
C612 C202 2.395 . S
