# Generated by pormake.
# Topology rtl, (3,6)-cn, num edge types: 1
# Building blocks:
#     Node 0, Type 0, BuildingBlock: BELTOD_clean_linker_0, # of connection points: 3
#     Node 1, Type 0, BuildingBlock: BELTOD_clean_linker_0, # of connection points: 3
#     Node 2, Type 0, BuildingBlock: BELTOD_clean_linker_0, # of connection points: 3
#     Node 3, Type 0, BuildingBlock: BELTOD_clean_linker_0, # of connection points: 3
#     Node 4, Type 1, BuildingBlock: KUMBUR_clean_sbu_1, # of connection points: 6
#     Node 5, Type 1, BuildingBlock: KUMBUR_clean_sbu_1, # of connection points: 6
#     Edge 6, Type (0, 1), None
#     Edge 7, Type (0, 1), None
#     Edge 8, Type (0, 1), None
#     Edge 9, Type (0, 1), None
#     Edge 10, Type (0, 1), None
#     Edge 11, Type (0, 1), None
#     Edge 12, Type (0, 1), None
#     Edge 13, Type (0, 1), None
#     Edge 14, Type (0, 1), None
#     Edge 15, Type (0, 1), None
#     Edge 16, Type (0, 1), None
#     Edge 17, Type (0, 1), None
# Relax obj value: 0.022
# Max RMSD: 0.159
# Mean RMSD: 0.098
data_MOF--net-rtl--node1-KUMBUR_clean_sbu_1--node2-BELTOD_clean_linker_0--edge1-none
_symmetry_space_group_name_H-M    P1
_symmetry_Int_Tables_number       1
_symmetry_cell_setting            triclinic
loop_
_symmetry_equiv_pos_as_xyz
'x, y, z'
_cell_length_a     19.363763
_cell_length_b     20.350472
_cell_length_c     18.76681
_cell_angle_alpha  68.947607
_cell_angle_beta   99.848045
_cell_angle_gamma 91.546659
loop_
_atom_site_label
_atom_site_type_symbol
_atom_site_fract_x
_atom_site_fract_y
_atom_site_fract_z
_atom_type_partial_charge
P0 P 0.28519 0.88401 0.01576 0.0
H1 H 0.30885 0.83964 0.18598 0.0
H2 H 0.23327 0.84048 0.27693 0.0
H3 H 0.06408 0.93358 0.08402 0.0
H4 H 0.13649 0.92341 0.99649 0.0
H5 H 0.36409 0.84875 0.9161 0.0
H6 H 0.42682 0.74149 0.92792 0.0
H7 H 0.37455 0.63761 0.15557 0.0
H8 H 0.30881 0.74343 0.14224 0.0
H9 H 0.2644 0.01682 0.8823 0.0
H10 H 0.19016 0.80519 0.942 0.0
O11 O 0.34366 0.94533 0.01771 0.0
H12 H 0.18744 0.0509 0.75603 0.0
H13 H 0.11193 0.83939 0.81643 0.0
C14 C 0.22824 0.87936 0.08432 0.0
C15 C 0.25463 0.85774 0.16386 0.0
C16 C 0.21141 0.86 0.21578 0.0
C17 C 0.14157 0.88719 0.18879 0.0
C18 C 0.11626 0.91011 0.1085 0.0
C19 C 0.15857 0.90518 0.05742 0.0
C20 C 0.33204 0.80435 0.02849 0.0
C21 C 0.36564 0.80271 0.96843 0.0
C22 C 0.4011 0.74155 0.97483 0.0
C23 C 0.40511 0.68181 0.0424 0.0
C24 C 0.37222 0.68353 0.10296 0.0
C25 C 0.33505 0.74418 0.09563 0.0
C26 C 0.23309 0.90852 0.92084 0.0
C27 C 0.23198 0.97764 0.86796 0.0
C28 C 0.1878 0.99705 0.7962 0.0
C29 C 0.1436 0.94773 0.77712 0.0
C30 C 0.14576 0.8782 0.82977 0.0
C31 C 0.19023 0.85875 0.9013 0.0
P32 P 0.77525 0.64848 0.72878 0.0
H33 H 0.82091 0.58936 0.62251 0.0
H34 H 0.75631 0.55056 0.52112 0.0
H35 H 0.56138 0.61833 0.56025 0.0
H36 H 0.6261 0.6581 0.66032 0.0
H37 H 0.8484 0.73818 0.80754 0.0
H38 H 0.91435 0.84547 0.76007 0.0
H39 H 0.84464 0.8562 0.52501 0.0
H40 H 0.77817 0.75062 0.57194 0.0
H41 H 0.71218 0.5199 0.80773 0.0
H42 H 0.7133 0.7319 0.80748 0.0
O43 O 0.84593 0.59438 0.76839 0.0
H44 H 0.63115 0.48735 0.89903 0.0
H45 H 0.63229 0.69858 0.90171 0.0
C46 C 0.72817 0.62506 0.65013 0.0
C47 C 0.7643 0.59605 0.60903 0.0
C48 C 0.72742 0.57413 0.55103 0.0
C49 C 0.65378 0.58047 0.53372 0.0
C50 C 0.61801 0.61157 0.57347 0.0
C51 C 0.65498 0.63444 0.63051 0.0
C52 C 0.80725 0.73664 0.69351 0.0
C53 C 0.84537 0.76498 0.74565 0.0
C54 C 0.88342 0.82598 0.71852 0.0
C55 C 0.88527 0.85849 0.63892 0.0
C56 C 0.84473 0.83174 0.58671 0.0
C57 C 0.80617 0.77144 0.61372 0.0
C58 C 0.71952 0.62801 0.80135 0.0
C59 C 0.69565 0.55934 0.82829 0.0
C60 C 0.64898 0.54083 0.88044 0.0
C61 C 0.62642 0.58999 0.9091 0.0
C62 C 0.65049 0.65907 0.88245 0.0
C63 C 0.69657 0.67818 0.82844 0.0
P64 P 0.8567 0.24961 0.11428 0.0
H65 H 0.85159 0.30221 0.94806 0.0
H66 H 0.8919 0.2478 0.86471 0.0
H67 H 0.9141 0.0462 0.05277 0.0
H68 H 0.87148 0.09977 0.13489 0.0
H69 H 0.81462 0.39808 0.04484 0.0
H70 H 0.70756 0.46247 0.03508 0.0
H71 H 0.60662 0.26707 0.13309 0.0
H72 H 0.71233 0.20165 0.13471 0.0
H73 H 0.99351 0.1884 0.1946 0.0
H74 H 0.78388 0.17341 0.24794 0.0
O75 O 0.91758 0.31048 0.09835 0.0
H76 H 0.0371 0.10553 0.32589 0.0
H77 H 0.82686 0.087 0.37542 0.0
C78 C 0.86028 0.20549 0.04794 0.0
C79 C 0.86252 0.24584 0.97033 0.0
C80 C 0.88566 0.21482 0.92297 0.0
C81 C 0.90727 0.14334 0.95334 0.0
C82 C 0.89864 0.1017 0.02882 0.0
C83 C 0.87436 0.1325 0.07565 0.0
C84 C 0.77327 0.29483 0.09615 0.0
C85 C 0.76956 0.36852 0.06356 0.0
C86 C 0.70826 0.4055 0.05782 0.0
C87 C 0.65043 0.3696 0.08642 0.0
C88 C 0.65164 0.29579 0.11288 0.0
C89 C 0.71239 0.25853 0.11538 0.0
C90 C 0.8855 0.18847 0.21129 0.0
C91 C 0.95668 0.16683 0.23381 0.0
C92 C 0.98136 0.11843 0.30781 0.0
C93 C 0.93478 0.09008 0.35941 0.0
C94 C 0.86326 0.10871 0.33587 0.0
C95 C 0.83873 0.15827 0.26253 0.0
P96 P 0.36867 0.28093 0.49745 0.0
H97 H 0.4026 0.26212 0.66128 0.0
H98 H 0.38133 0.33569 0.73326 0.0
H99 H 0.31431 0.50851 0.51683 0.0
H100 H 0.33073 0.43239 0.44586 0.0
H101 H 0.29833 0.19661 0.40892 0.0
H102 H 0.19721 0.12042 0.4276 0.0
H103 H 0.1605 0.18922 0.61117 0.0
H104 H 0.25754 0.26595 0.59018 0.0
H105 H 0.50229 0.28458 0.44527 0.0
H106 H 0.2926 0.37123 0.34265 0.0
O107 O 0.42868 0.21704 0.5503 0.0
H108 H 0.54197 0.34524 0.32303 0.0
H109 H 0.33298 0.4353 0.21947 0.0
C110 C 0.3688 0.34176 0.54801 0.0
C111 C 0.38457 0.31632 0.6293 0.0
C112 C 0.37242 0.35882 0.67061 0.0
C113 C 0.34507 0.42835 0.63148 0.0
C114 C 0.33331 0.45476 0.54959 0.0
C115 C 0.34379 0.41154 0.50846 0.0
C116 C 0.28537 0.23831 0.49698 0.0
C117 C 0.26691 0.19685 0.45135 0.0
C118 C 0.20945 0.15279 0.46268 0.0
C119 C 0.17035 0.14845 0.52099 0.0
C120 C 0.1883 0.19148 0.56499 0.0
C121 C 0.24466 0.23586 0.55293 0.0
C122 C 0.39421 0.3226 0.40322 0.0
C123 C 0.46436 0.31609 0.39606 0.0
C124 C 0.48717 0.3512 0.32576 0.0
C125 C 0.44069 0.39511 0.26083 0.0
C126 C 0.36995 0.40102 0.26768 0.0
C127 C 0.34688 0.36487 0.33829 0.0
Tb128 Tb 0.07302 0.93703 0.54762 0.0
C129 C 0.87735 0.20188 0.47757 0.0
N130 N 0.94385 0.18741 0.51776 0.0
C131 C 0.9732 0.30755 0.45599 0.0
C132 C 0.85603 0.27021 0.42497 0.0
C133 C 0.99175 0.23906 0.50807 0.0
C134 C 0.90498 0.32329 0.41433 0.0
C135 C 0.76067 0.16111 0.44988 0.0
C136 C 0.8307 0.14766 0.48942 0.0
C137 C 0.7391 0.22912 0.39735 0.0
C138 C 0.78661 0.28351 0.38539 0.0
Tb139 Tb 0.96727 0.07512 0.60412 0.0
N140 N 0.85347 0.08238 0.54097 0.0
C141 C 0.71396 0.10626 0.46574 0.0
C142 C 0.80603 0.03089 0.56156 0.0
C143 C 0.73654 0.04116 0.52269 0.0
H144 H 0.04372 0.22812 0.54193 0.0
H145 H 0.69983 0.99949 0.53855 0.0
H146 H 0.97998 0.7923 0.58251 0.0
H147 H 0.33976 0.9797 0.66337 0.0
H148 H 0.81954 0.98302 0.61049 0.0
H149 H 0.65981 0.1144 0.4366 0.0
H150 H 0.22875 0.01102 0.57166 0.0
H151 H 0.01129 0.34834 0.44877 0.0
H152 H 0.6855 0.2405 0.36668 0.0
H153 H 0.76894 0.33592 0.3465 0.0
H154 H 0.98971 0.6716 0.68003 0.0
H155 H 0.89055 0.37657 0.3746 0.0
H156 H 0.35838 0.86171 0.76672 0.0
N157 N 0.07884 0.8217 0.62861 0.0
C158 C 0.13959 0.79962 0.68022 0.0
C159 C 0.03198 0.7073 0.68125 0.0
C160 C 0.14772 0.73108 0.7367 0.0
C161 C 0.02606 0.77611 0.6269 0.0
C162 C 0.09277 0.68489 0.73696 0.0
N163 N 0.18171 0.91384 0.62467 0.0
C164 C 0.23459 0.9603 0.61734 0.0
C165 C 0.25622 0.82649 0.7313 0.0
C166 C 0.19299 0.84696 0.67775 0.0
C167 C 0.30905 0.87534 0.72663 0.0
C168 C 0.2985 0.94215 0.66871 0.0
H169 H 0.09707 0.6317 0.77931 0.0
H170 H 0.21639 0.65943 0.8366 0.0
H171 H 0.31209 0.74203 0.83042 0.0
O172 O 0.12361 0.96378 0.45026 0.0
O173 O 0.07654 0.92389 0.66981 0.0
O174 O 0.06933 0.03481 0.67392 0.0
O175 O 0.08441 0.86057 0.49938 0.0
O176 O 0.10893 0.04649 0.51036 0.0
O177 O 0.07654 0.10036 0.5914 0.0
O178 O 0.91316 0.05374 0.69746 0.0
O179 O 0.96789 0.09735 0.48209 0.0
O180 O 0.97557 0.98819 0.4721 0.0
O181 O 0.96691 0.15017 0.65718 0.0
O182 O 0.94499 0.96185 0.64765 0.0
O183 O 0.96096 0.92282 0.55015 0.0
C184 C 0.09418 0.96965 0.70344 0.0
C185 C 0.08058 0.90411 0.36524 0.0
C186 C 0.09541 0.89268 0.24315 0.0
C187 C 0.02175 0.8906 0.22441 0.0
C188 C 0.00755 0.90399 0.34407 0.0
C189 C 0.97846 0.89737 0.27389 0.0
C190 C 0.1241 0.90003 0.31423 0.0
C191 C 0.1137 0.09717 0.53948 0.0
C192 C 0.11208 0.90313 0.44265 0.0
C193 C 0.20988 0.7112 0.79145 0.0
C194 C 0.26423 0.75849 0.78829 0.0
C195 C 0.96253 0.05647 0.44152 0.0
C196 C 0.96113 0.10247 0.78958 0.0
C197 C 0.94689 0.11501 0.90996 0.0
C198 C 0.01451 0.08474 0.94388 0.0
C199 C 0.02903 0.07369 0.8235 0.0
C200 C 0.92032 0.12358 0.83275 0.0
C201 C 0.05559 0.06487 0.90033 0.0
C202 C 0.93205 0.91759 0.61049 0.0
C203 C 0.93216 0.11119 0.70936 0.0
H204 H 0.99694 0.88266 0.1721 0.0
H205 H 0.97315 0.9072 0.38264 0.0
H206 H 0.92209 0.89603 0.25842 0.0
H207 H 0.18021 0.90238 0.33071 0.0
H208 H 0.03646 0.07896 0.00303 0.0
H209 H 0.06169 0.05895 0.79051 0.0
H210 H 0.86822 0.14706 0.80624 0.0
H211 H 0.10854 0.044 0.92557 0.0
Tb212 Tb 0.43683 0.48456 0.00363 0.0
C213 C 0.74267 0.57069 0.10992 0.0
N214 N 0.70547 0.51729 0.151 0.0
C215 C 0.80918 0.44163 0.19826 0.0
C216 C 0.81425 0.56097 0.10897 0.0
C217 C 0.73833 0.45421 0.19775 0.0
C218 C 0.84702 0.49486 0.15257 0.0
C219 C 0.74786 0.69518 0.03559 0.0
C220 C 0.71003 0.63663 0.07344 0.0
C221 C 0.81817 0.68524 0.03067 0.0
C222 C 0.85128 0.61816 0.06715 0.0
Tb223 Tb 0.58998 0.54346 0.1446 0.0
N224 N 0.64183 0.64391 0.07871 0.0
C225 C 0.71444 0.76207 0.00616 0.0
C226 C 0.6106 0.7095 0.05548 0.0
C227 C 0.64588 0.76937 0.01737 0.0
H228 H 0.70949 0.4132 0.23377 0.0
H229 H 0.62033 0.82104 0.99695 0.0
H230 H 0.30867 0.59907 0.97916 0.0
H231 H 0.45562 0.1991 0.1232 0.0
H232 H 0.55792 0.71509 0.06493 0.0
H233 H 0.74171 0.80849 0.97679 0.0
H234 H 0.49472 0.31684 0.05347 0.0
H235 H 0.83441 0.39078 0.23336 0.0
H236 H 0.84794 0.72936 0.00078 0.0
H237 H 0.90612 0.6116 0.06493 0.0
H238 H 0.19076 0.59574 0.01286 0.0
H239 H 0.90189 0.48507 0.15325 0.0
H240 H 0.34118 0.18538 0.16767 0.0
N241 N 0.32821 0.48824 0.03304 0.0
C242 C 0.30102 0.42475 0.06768 0.0
C243 C 0.22157 0.54731 0.0295 0.0
C244 C 0.23373 0.42023 0.08771 0.0
C245 C 0.2889 0.5491 0.01146 0.0
C246 C 0.19407 0.48265 0.06846 0.0
N247 N 0.40665 0.37106 0.06415 0.0
C248 C 0.44635 0.31256 0.07542 0.0
C249 C 0.31659 0.29753 0.12311 0.0
C250 C 0.342 0.36427 0.0849 0.0
C251 C 0.35875 0.23765 0.13835 0.0
C252 C 0.42355 0.24522 0.11368 0.0
H253 H 0.14199 0.48145 0.08262 0.0
H254 H 0.15701 0.34922 0.1427 0.0
H255 H 0.22959 0.24183 0.17394 0.0
O256 O 0.40255 0.43622 0.92124 0.0
O257 O 0.42452 0.46954 0.12392 0.0
O258 O 0.53639 0.44553 0.19475 0.0
O259 O 0.38259 0.54848 0.89393 0.0
O260 O 0.54009 0.43074 0.02865 0.0
O261 O 0.59687 0.43443 0.14728 0.0
O262 O 0.55822 0.59877 0.20939 0.0
O263 O 0.57796 0.59701 0.01738 0.0
O264 O 0.5362 0.51567 0.96286 0.0
O265 O 0.65302 0.53476 0.25158 0.0
O266 O 0.48247 0.58434 0.11992 0.0
O267 O 0.43947 0.59535 0.99383 0.0
C268 C 0.46815 0.43744 0.18911 0.0
C269 C 0.33893 0.50337 0.79134 0.0
C270 C 0.32444 0.47137 0.67535 0.0
C271 C 0.26625 0.51931 0.64297 0.0
C272 C 0.2817 0.55138 0.75672 0.0
C273 C 0.24553 0.5591 0.68318 0.0
C274 C 0.3604 0.46357 0.75049 0.0
C275 C 0.59086 0.4106 0.0897 0.0
C276 C 0.37575 0.49574 0.86982 0.0
C277 C 0.20848 0.35384 0.12641 0.0
C278 C 0.24987 0.29268 0.14426 0.0
C279 C 0.57737 0.56755 0.96544 0.0
C280 C 0.59332 0.55009 0.34467 0.0
C281 C 0.61407 0.55424 0.47498 0.0
C282 C 0.55568 0.51238 0.49164 0.0
C283 C 0.53493 0.50899 0.36214 0.0
C284 C 0.63314 0.57211 0.40141 0.0
C285 C 0.51676 0.48955 0.43559 0.0
C286 C 0.4458 0.61867 0.05153 0.0
C287 C 0.61057 0.57463 0.26619 0.0
H288 H 0.23547 0.52538 0.58698 0.0
H289 H 0.26427 0.58215 0.78718 0.0
H290 H 0.20072 0.59564 0.6575 0.0
H291 H 0.4057 0.42774 0.77684 0.0
H292 H 0.54025 0.49724 0.54805 0.0
H293 H 0.50272 0.49334 0.31847 0.0
H294 H 0.67743 0.60516 0.38739 0.0
H295 H 0.47184 0.45754 0.4487 0.0
loop_
_geom_bond_atom_site_label_1
_geom_bond_atom_site_label_2
_geom_bond_distance
_geom_bond_site_symmetry_2
_ccdc_geom_bond_type
P0 O11 1.490 1_554 S
P0 C14 1.812 . S
P0 C20 1.803 . S
P0 C26 1.819 1_554 S
H1 C15 0.941 . S
H2 C16 0.939 . S
H3 C18 0.940 . S
H4 C19 0.940 . S
H5 C21 0.939 1_556 S
H6 C22 0.942 . S
H7 C24 0.940 . S
H8 C25 0.939 . S
H9 C27 0.941 . S
H10 C31 0.939 . S
O11 P0 1.490 1_556 S
H12 C28 0.939 . S
H13 C30 0.940 . S
C14 P0 1.812 . S
C14 C15 1.389 . S
C14 C19 1.391 . S
C15 H1 0.941 . S
C15 C14 1.389 . S
C15 C16 1.397 . S
C16 H2 0.939 . S
C16 C15 1.397 . S
C16 C17 1.378 . S
C17 C16 1.378 . S
C17 C18 1.378 . S
C18 H3 0.940 . S
C18 C17 1.378 . S
C18 C19 1.396 . S
C19 H4 0.940 . S
C19 C14 1.391 . S
C19 C18 1.396 . S
C20 P0 1.803 . S
C20 C21 1.378 . S
C20 C25 1.400 . S
C21 H5 0.939 1_554 S
C21 C20 1.378 . S
C21 C22 1.361 . S
C22 H6 0.942 . S
C22 C21 1.361 . S
C22 C23 1.369 . S
C23 C22 1.369 . S
C23 C24 1.404 . S
C24 H7 0.940 . S
C24 C23 1.404 . S
C24 C25 1.389 . S
C25 H8 0.939 . S
C25 C20 1.400 . S
C25 C24 1.389 . S
C26 P0 1.819 1_556 S
C26 C27 1.391 1_565 S
C26 C31 1.391 . S
C27 H9 0.941 . S
C27 C26 1.391 1_545 S
C27 C28 1.396 . S
C28 H12 0.939 . S
C28 C27 1.396 . S
C28 C29 1.397 1_545 S
C29 C28 1.397 1_565 S
C29 C30 1.385 . S
C30 H13 0.940 . S
C30 C29 1.385 . S
C30 C31 1.388 . S
C31 H10 0.939 . S
C31 C26 1.391 . S
C31 C30 1.388 . S
P32 O43 1.490 . S
P32 C46 1.812 . S
P32 C52 1.803 . S
P32 C58 1.819 . S
H33 C47 0.941 . S
H34 C48 0.939 . S
H35 C50 0.940 . S
H36 C51 0.940 . S
H37 C53 0.939 . S
H38 C54 0.942 . S
H39 C56 0.940 . S
H40 C57 0.939 . S
H41 C59 0.941 . S
H42 C63 0.939 . S
O43 P32 1.490 . S
H44 C60 0.939 . S
H45 C62 0.940 . S
C46 P32 1.812 . S
C46 C47 1.389 . S
C46 C51 1.391 . S
C47 H33 0.941 . S
C47 C46 1.389 . S
C47 C48 1.397 . S
C48 H34 0.939 . S
C48 C47 1.397 . S
C48 C49 1.378 . S
C49 C48 1.378 . S
C49 C50 1.378 . S
C50 H35 0.940 . S
C50 C49 1.378 . S
C50 C51 1.396 . S
C51 H36 0.940 . S
C51 C46 1.391 . S
C51 C50 1.396 . S
C52 P32 1.803 . S
C52 C53 1.378 . S
C52 C57 1.400 . S
C53 H37 0.939 . S
C53 C52 1.378 . S
C53 C54 1.361 . S
C54 H38 0.942 . S
C54 C53 1.361 . S
C54 C55 1.369 . S
C55 C54 1.369 . S
C55 C56 1.404 . S
C56 H39 0.940 . S
C56 C55 1.404 . S
C56 C57 1.389 . S
C57 H40 0.939 . S
C57 C52 1.400 . S
C57 C56 1.389 . S
C58 P32 1.819 . S
C58 C59 1.391 . S
C58 C63 1.391 . S
C59 H41 0.941 . S
C59 C58 1.391 . S
C59 C60 1.396 . S
C60 H44 0.939 . S
C60 C59 1.396 . S
C60 C61 1.397 . S
C61 C60 1.397 . S
C61 C62 1.385 . S
C62 H45 0.940 . S
C62 C61 1.385 . S
C62 C63 1.388 . S
C63 H42 0.939 . S
C63 C58 1.391 . S
C63 C62 1.388 . S
P64 O75 1.490 . S
P64 C78 1.812 . S
P64 C84 1.803 . S
P64 C90 1.819 . S
H65 C79 0.941 . S
H66 C80 0.939 . S
H67 C82 0.940 . S
H68 C83 0.940 . S
H69 C85 0.939 . S
H70 C86 0.942 . S
H71 C88 0.940 . S
H72 C89 0.939 . S
H73 C91 0.941 . S
H74 C95 0.939 . S
O75 P64 1.490 . S
H76 C92 0.939 . S
H77 C94 0.940 . S
C78 P64 1.812 . S
C78 C79 1.389 1_554 S
C78 C83 1.391 . S
C79 H65 0.941 . S
C79 C78 1.389 1_556 S
C79 C80 1.397 . S
C80 H66 0.939 . S
C80 C79 1.397 . S
C80 C81 1.378 . S
C81 C80 1.378 . S
C81 C82 1.378 1_556 S
C82 H67 0.940 . S
C82 C81 1.378 1_554 S
C82 C83 1.396 . S
C83 H68 0.940 . S
C83 C78 1.391 . S
C83 C82 1.396 . S
C84 P64 1.803 . S
C84 C85 1.378 . S
C84 C89 1.400 . S
C85 H69 0.939 . S
C85 C84 1.378 . S
C85 C86 1.361 . S
C86 H70 0.942 . S
C86 C85 1.361 . S
C86 C87 1.369 . S
C87 C86 1.369 . S
C87 C88 1.404 . S
C88 H71 0.940 . S
C88 C87 1.404 . S
C88 C89 1.389 . S
C89 H72 0.939 . S
C89 C84 1.400 . S
C89 C88 1.389 . S
C90 P64 1.819 . S
C90 C91 1.391 . S
C90 C95 1.391 . S
C91 H73 0.941 . S
C91 C90 1.391 . S
C91 C92 1.396 . S
C92 H76 0.939 . S
C92 C91 1.396 . S
C92 C93 1.397 . S
C93 C92 1.397 . S
C93 C94 1.385 . S
C94 H77 0.940 . S
C94 C93 1.385 . S
C94 C95 1.388 . S
C95 H74 0.939 . S
C95 C90 1.391 . S
C95 C94 1.388 . S
P96 O107 1.490 . S
P96 C110 1.812 . S
P96 C116 1.803 . S
P96 C122 1.819 . S
H97 C111 0.941 . S
H98 C112 0.939 . S
H99 C114 0.940 . S
H100 C115 0.940 . S
H101 C117 0.939 . S
H102 C118 0.942 . S
H103 C120 0.940 . S
H104 C121 0.939 . S
H105 C123 0.941 . S
H106 C127 0.939 . S
O107 P96 1.490 . S
H108 C124 0.939 . S
H109 C126 0.940 . S
C110 P96 1.812 . S
C110 C111 1.389 . S
C110 C115 1.391 . S
C111 H97 0.941 . S
C111 C110 1.389 . S
C111 C112 1.397 . S
C112 H98 0.939 . S
C112 C111 1.397 . S
C112 C113 1.378 . S
C113 C112 1.378 . S
C113 C114 1.378 . S
C114 H99 0.940 . S
C114 C113 1.378 . S
C114 C115 1.396 . S
C115 H100 0.940 . S
C115 C110 1.391 . S
C115 C114 1.396 . S
C116 P96 1.803 . S
C116 C117 1.378 . S
C116 C121 1.400 . S
C117 H101 0.939 . S
C117 C116 1.378 . S
C117 C118 1.361 . S
C118 H102 0.942 . S
C118 C117 1.361 . S
C118 C119 1.369 . S
C119 C118 1.369 . S
C119 C120 1.404 . S
C120 H103 0.940 . S
C120 C119 1.404 . S
C120 C121 1.389 . S
C121 H104 0.939 . S
C121 C116 1.400 . S
C121 C120 1.389 . S
C122 P96 1.819 . S
C122 C123 1.391 . S
C122 C127 1.391 . S
C123 H105 0.941 . S
C123 C122 1.391 . S
C123 C124 1.396 . S
C124 H108 0.939 . S
C124 C123 1.396 . S
C124 C125 1.397 . S
C125 C124 1.397 . S
C125 C126 1.385 . S
C126 H109 0.940 . S
C126 C125 1.385 . S
C126 C127 1.388 . S
C127 H106 0.939 . S
C127 C122 1.391 . S
C127 C126 1.388 . S
Tb128 N157 2.617 . S
Tb128 N163 2.572 . S
Tb128 O172 2.465 . S
Tb128 O173 2.387 . S
Tb128 O175 2.428 . S
Tb128 O176 2.308 1_565 S
Tb128 O180 2.349 1_465 S
Tb128 O183 2.393 1_455 S
Tb128 C192 2.802 . S
C129 N130 1.379 . S
C129 C132 1.416 . S
C129 C136 1.424 . S
N130 C129 1.379 . S
N130 C133 1.334 . S
N130 Tb139 2.617 . S
C131 C133 1.390 . S
C131 C134 1.339 . S
C131 H151 0.930 1_655 S
C132 C129 1.416 . S
C132 C134 1.416 . S
C132 C138 1.448 . S
C133 N130 1.334 . S
C133 C131 1.390 . S
C133 H144 0.930 1_655 S
C134 C131 1.339 . S
C134 C132 1.416 . S
C134 H155 0.930 . S
C135 C136 1.413 . S
C135 C137 1.427 . S
C135 C141 1.416 . S
C136 C129 1.424 . S
C136 C135 1.413 . S
C136 N140 1.361 . S
C137 C135 1.427 . S
C137 C138 1.328 . S
C137 H152 0.929 . S
C138 C132 1.448 . S
C138 C137 1.328 . S
C138 H153 0.930 . S
Tb139 N130 2.617 . S
Tb139 N140 2.572 . S
Tb139 O174 2.349 1_655 S
Tb139 O177 2.393 1_655 S
Tb139 O178 2.465 . S
Tb139 O179 2.387 . S
Tb139 O181 2.428 . S
Tb139 O182 2.308 1_545 S
Tb139 C203 2.802 . S
N140 C136 1.361 . S
N140 Tb139 2.572 . S
N140 C142 1.340 . S
C141 C135 1.416 . S
C141 C143 1.332 . S
C141 H149 0.931 . S
C142 N140 1.340 . S
C142 C143 1.407 . S
C142 H148 0.930 . S
C143 C141 1.332 . S
C143 C142 1.407 . S
C143 H145 0.929 . S
H144 C133 0.930 1_455 S
H145 C143 0.929 . S
H146 C161 0.930 1_655 S
H147 C168 0.929 . S
H148 C142 0.930 . S
H149 C141 0.931 . S
H150 C164 0.930 . S
H151 C131 0.930 1_455 S
H152 C137 0.929 . S
H153 C138 0.930 . S
H154 C159 0.930 1_655 S
H155 C134 0.930 . S
H156 C167 0.931 . S
N157 Tb128 2.617 . S
N157 C158 1.379 . S
N157 C161 1.334 . S
C158 N157 1.379 . S
C158 C160 1.416 . S
C158 C166 1.424 . S
C159 H154 0.930 1_455 S
C159 C161 1.390 . S
C159 C162 1.339 . S
C160 C158 1.416 . S
C160 C162 1.416 . S
C160 C193 1.448 . S
C161 H146 0.930 1_455 S
C161 N157 1.334 . S
C161 C159 1.390 . S
C162 C159 1.339 . S
C162 C160 1.416 . S
C162 H169 0.930 . S
N163 Tb128 2.572 . S
N163 C164 1.340 . S
N163 C166 1.361 . S
C164 H150 0.930 . S
C164 N163 1.340 . S
C164 C168 1.407 . S
C165 C166 1.413 . S
C165 C167 1.416 . S
C165 C194 1.427 . S
C166 C158 1.424 . S
C166 N163 1.361 . S
C166 C165 1.413 . S
C167 H156 0.931 . S
C167 C165 1.416 . S
C167 C168 1.332 . S
C168 H147 0.929 . S
C168 C164 1.407 . S
C168 C167 1.332 . S
H169 C162 0.930 . S
H170 C193 0.930 . S
H171 C194 0.929 . S
O172 Tb128 2.465 . S
O172 C192 1.264 . S
O173 Tb128 2.387 . S
O173 C184 1.264 . S
O174 Tb139 2.349 1_455 S
O174 C184 1.243 1_545 S
O175 Tb128 2.428 . S
O175 C192 1.256 . S
O176 Tb128 2.308 1_545 S
O176 C191 1.266 . S
O177 Tb139 2.393 1_455 S
O177 C191 1.248 . S
O178 Tb139 2.465 . S
O178 C203 1.264 . S
O179 Tb139 2.387 . S
O179 C195 1.264 . S
O180 Tb128 2.349 1_645 S
O180 C195 1.243 . S
O181 Tb139 2.428 . S
O181 C203 1.256 . S
O182 Tb139 2.308 1_565 S
O182 C202 1.266 . S
O183 Tb128 2.393 1_655 S
O183 C202 1.248 . S
C184 O173 1.264 . S
C184 O174 1.243 1_565 S
C185 C188 1.399 . S
C185 C190 1.383 . S
C185 C192 1.496 . S
C186 C187 1.399 . S
C186 C190 1.389 . S
C187 C186 1.399 . S
C187 C189 1.380 . S
C187 H204 0.929 . S
C188 C185 1.399 . S
C188 C189 1.392 . S
C188 H205 0.929 . S
C189 C187 1.380 . S
C189 C188 1.392 . S
C189 H206 0.929 . S
C190 C185 1.383 . S
C190 C186 1.389 . S
C190 H207 0.931 . S
C191 O176 1.266 . S
C191 O177 1.248 . S
C192 Tb128 2.802 . S
C192 O172 1.264 . S
C192 O175 1.256 . S
C192 C185 1.496 . S
C193 C160 1.448 . S
C193 H170 0.930 . S
C193 C194 1.328 . S
C194 C165 1.427 . S
C194 H171 0.929 . S
C194 C193 1.328 . S
C195 O179 1.264 . S
C195 O180 1.243 . S
C196 C199 1.399 . S
C196 C200 1.383 . S
C196 C203 1.496 . S
C197 C198 1.399 . S
C197 C200 1.389 . S
C198 C197 1.399 . S
C198 C201 1.380 . S
C198 H208 0.929 . S
C199 C196 1.399 . S
C199 C201 1.392 . S
C199 H209 0.929 . S
C200 C196 1.383 . S
C200 C197 1.389 . S
C200 H210 0.931 . S
C201 C198 1.380 . S
C201 C199 1.392 . S
C201 H211 0.929 . S
C202 O182 1.266 . S
C202 O183 1.248 . S
C203 Tb139 2.802 . S
C203 O178 1.264 . S
C203 O181 1.256 . S
C203 C196 1.496 . S
H204 C187 0.929 . S
H205 C188 0.929 . S
H206 C189 0.929 . S
H207 C190 0.931 . S
H208 C198 0.929 . S
H209 C199 0.929 . S
H210 C200 0.931 . S
H211 C201 0.929 . S
Tb212 N241 2.617 . S
Tb212 N247 2.572 . S
Tb212 O256 2.465 1_554 S
Tb212 O257 2.387 . S
Tb212 O259 2.428 1_554 S
Tb212 O260 2.308 . S
Tb212 O264 2.349 1_554 S
Tb212 O267 2.393 . S
Tb212 C276 2.802 1_554 S
C213 N214 1.379 . S
C213 C216 1.416 . S
C213 C220 1.424 . S
N214 C213 1.379 . S
N214 C217 1.334 . S
N214 Tb223 2.617 . S
C215 C217 1.390 . S
C215 C218 1.339 . S
C215 H235 0.930 . S
C216 C213 1.416 . S
C216 C218 1.416 . S
C216 C222 1.448 . S
C217 N214 1.334 . S
C217 C215 1.390 . S
C217 H228 0.930 . S
C218 C215 1.339 . S
C218 C216 1.416 . S
C218 H239 0.930 . S
C219 C220 1.413 . S
C219 C221 1.427 . S
C219 C225 1.416 . S
C220 C213 1.424 . S
C220 C219 1.413 . S
C220 N224 1.361 . S
C221 C219 1.427 . S
C221 C222 1.328 . S
C221 H236 0.929 . S
C222 C216 1.448 . S
C222 C221 1.328 . S
C222 H237 0.930 . S
Tb223 N214 2.617 . S
Tb223 N224 2.572 . S
Tb223 O258 2.349 . S
Tb223 O261 2.393 . S
Tb223 O262 2.465 . S
Tb223 O263 2.387 . S
Tb223 O265 2.428 . S
Tb223 O266 2.308 . S
Tb223 C287 2.802 . S
N224 C220 1.361 . S
N224 Tb223 2.572 . S
N224 C226 1.340 . S
C225 C219 1.416 . S
C225 C227 1.332 . S
C225 H233 0.931 . S
C226 N224 1.340 . S
C226 C227 1.407 . S
C226 H232 0.930 . S
C227 C225 1.332 . S
C227 C226 1.407 . S
C227 H229 0.929 . S
H228 C217 0.930 . S
H229 C227 0.929 . S
H230 C245 0.930 . S
H231 C252 0.929 . S
H232 C226 0.930 . S
H233 C225 0.931 . S
H234 C248 0.930 . S
H235 C215 0.930 . S
H236 C221 0.929 . S
H237 C222 0.930 . S
H238 C243 0.930 . S
H239 C218 0.930 . S
H240 C251 0.931 . S
N241 Tb212 2.617 . S
N241 C242 1.379 . S
N241 C245 1.334 1_554 S
C242 N241 1.379 . S
C242 C244 1.416 . S
C242 C250 1.424 . S
C243 H238 0.930 . S
C243 C245 1.390 . S
C243 C246 1.339 1_556 S
C244 C242 1.416 . S
C244 C246 1.416 . S
C244 C277 1.448 . S
C245 H230 0.930 . S
C245 N241 1.334 1_556 S
C245 C243 1.390 . S
C246 C243 1.339 1_554 S
C246 C244 1.416 . S
C246 H253 0.930 . S
N247 Tb212 2.572 . S
N247 C248 1.340 . S
N247 C250 1.361 . S
C248 H234 0.930 . S
C248 N247 1.340 . S
C248 C252 1.407 . S
C249 C250 1.413 . S
C249 C251 1.416 . S
C249 C278 1.427 . S
C250 C242 1.424 . S
C250 N247 1.361 . S
C250 C249 1.413 . S
C251 H240 0.931 . S
C251 C249 1.416 . S
C251 C252 1.332 . S
C252 H231 0.929 . S
C252 C248 1.407 . S
C252 C251 1.332 . S
H253 C246 0.930 . S
H254 C277 0.930 . S
H255 C278 0.929 . S
O256 Tb212 2.465 1_556 S
O256 C276 1.264 . S
O257 Tb212 2.387 . S
O257 C268 1.264 . S
O258 Tb223 2.349 . S
O258 C268 1.243 . S
O259 Tb212 2.428 1_556 S
O259 C276 1.256 . S
O260 Tb212 2.308 . S
O260 C275 1.266 . S
O261 Tb223 2.393 . S
O261 C275 1.248 . S
O262 Tb223 2.465 . S
O262 C287 1.264 . S
O263 Tb223 2.387 . S
O263 C279 1.264 1_554 S
O264 Tb212 2.349 1_556 S
O264 C279 1.243 . S
O265 Tb223 2.428 . S
O265 C287 1.256 . S
O266 Tb223 2.308 . S
O266 C286 1.266 . S
O267 Tb212 2.393 . S
O267 C286 1.248 . S
C268 O257 1.264 . S
C268 O258 1.243 . S
C269 C272 1.399 . S
C269 C274 1.383 . S
C269 C276 1.496 . S
C270 C271 1.399 . S
C270 C274 1.389 . S
C271 C270 1.399 . S
C271 C273 1.380 . S
C271 H288 0.929 . S
C272 C269 1.399 . S
C272 C273 1.392 . S
C272 H289 0.929 . S
C273 C271 1.380 . S
C273 C272 1.392 . S
C273 H290 0.929 . S
C274 C269 1.383 . S
C274 C270 1.389 . S
C274 H291 0.931 . S
C275 O260 1.266 . S
C275 O261 1.248 . S
C276 Tb212 2.802 1_556 S
C276 O256 1.264 . S
C276 O259 1.256 . S
C276 C269 1.496 . S
C277 C244 1.448 . S
C277 H254 0.930 . S
C277 C278 1.328 . S
C278 C249 1.427 . S
C278 H255 0.929 . S
C278 C277 1.328 . S
C279 O263 1.264 1_556 S
C279 O264 1.243 . S
C280 C283 1.399 . S
C280 C284 1.383 . S
C280 C287 1.496 . S
C281 C282 1.399 . S
C281 C284 1.389 . S
C282 C281 1.399 . S
C282 C285 1.380 . S
C282 H292 0.929 . S
C283 C280 1.399 . S
C283 C285 1.392 . S
C283 H293 0.929 . S
C284 C280 1.383 . S
C284 C281 1.389 . S
C284 H294 0.931 . S
C285 C282 1.380 . S
C285 C283 1.392 . S
C285 H295 0.929 . S
C286 O266 1.266 . S
C286 O267 1.248 . S
C287 Tb223 2.802 . S
C287 O262 1.264 . S
C287 O265 1.256 . S
C287 C280 1.496 . S
H288 C271 0.929 . S
H289 C272 0.929 . S
H290 C273 0.929 . S
H291 C274 0.931 . S
H292 C282 0.929 . S
H293 C283 0.929 . S
H294 C284 0.931 . S
H295 C285 0.929 . S
C191 C119 2.028 . S
C23 C286 2.083 . S
C55 C202 1.842 . S
C87 C275 1.740 . S
C186 C17 1.566 . S
C279 C61 1.696 . S
C93 C195 1.755 . S
C113 C270 1.557 . S
C281 C49 1.291 . S
C197 C81 1.262 . S
C268 C125 1.918 . S
C29 C184 2.198 . S
