# Generated by pormake.
# Topology ctn, (3,4)-cn, num edge types: 1
# Building blocks:
#     Node 0, Type 0, BuildingBlock: QEWDON_clean_linker_0, # of connection points: 3
#     Node 1, Type 0, BuildingBlock: QEWDON_clean_linker_0, # of connection points: 3
#     Node 2, Type 0, BuildingBlock: QEWDON_clean_linker_0, # of connection points: 3
#     Node 3, Type 0, BuildingBlock: QEWDON_clean_linker_0, # of connection points: 3
#     Node 4, Type 0, BuildingBlock: QEWDON_clean_linker_0, # of connection points: 3
#     Node 5, Type 0, BuildingBlock: QEWDON_clean_linker_0, # of connection points: 3
#     Node 6, Type 0, BuildingBlock: QEWDON_clean_linker_0, # of connection points: 3
#     Node 7, Type 0, BuildingBlock: QEWDON_clean_linker_0, # of connection points: 3
#     Node 8, Type 0, BuildingBlock: QEWDON_clean_linker_0, # of connection points: 3
#     Node 9, Type 0, BuildingBlock: QEWDON_clean_linker_0, # of connection points: 3
#     Node 10, Type 0, BuildingBlock: QEWDON_clean_linker_0, # of connection points: 3
#     Node 11, Type 0, BuildingBlock: QEWDON_clean_linker_0, # of connection points: 3
#     Node 12, Type 0, BuildingBlock: QEWDON_clean_linker_0, # of connection points: 3
#     Node 13, Type 0, BuildingBlock: QEWDON_clean_linker_0, # of connection points: 3
#     Node 14, Type 0, BuildingBlock: QEWDON_clean_linker_0, # of connection points: 3
#     Node 15, Type 0, BuildingBlock: QEWDON_clean_linker_0, # of connection points: 3
#     Node 16, Type 1, BuildingBlock: QUQFOY_clean_sbu_1, # of connection points: 4
#     Node 17, Type 1, BuildingBlock: QUQFOY_clean_sbu_1, # of connection points: 4
#     Node 18, Type 1, BuildingBlock: QUQFOY_clean_sbu_1, # of connection points: 4
#     Node 19, Type 1, BuildingBlock: QUQFOY_clean_sbu_1, # of connection points: 4
#     Node 20, Type 1, BuildingBlock: QUQFOY_clean_sbu_1, # of connection points: 4
#     Node 21, Type 1, BuildingBlock: QUQFOY_clean_sbu_1, # of connection points: 4
#     Node 22, Type 1, BuildingBlock: QUQFOY_clean_sbu_1, # of connection points: 4
#     Node 23, Type 1, BuildingBlock: QUQFOY_clean_sbu_1, # of connection points: 4
#     Node 24, Type 1, BuildingBlock: QUQFOY_clean_sbu_1, # of connection points: 4
#     Node 25, Type 1, BuildingBlock: QUQFOY_clean_sbu_1, # of connection points: 4
#     Node 26, Type 1, BuildingBlock: QUQFOY_clean_sbu_1, # of connection points: 4
#     Node 27, Type 1, BuildingBlock: QUQFOY_clean_sbu_1, # of connection points: 4
#     Edge 28, Type (0, 1), BuildingBlock: XIVTED_clean_linker_0, # of connection points: 2
#     Edge 29, Type (0, 1), BuildingBlock: XIVTED_clean_linker_0, # of connection points: 2
#     Edge 30, Type (0, 1), BuildingBlock: XIVTED_clean_linker_0, # of connection points: 2
#     Edge 31, Type (0, 1), BuildingBlock: XIVTED_clean_linker_0, # of connection points: 2
#     Edge 32, Type (0, 1), BuildingBlock: XIVTED_clean_linker_0, # of connection points: 2
#     Edge 33, Type (0, 1), BuildingBlock: XIVTED_clean_linker_0, # of connection points: 2
#     Edge 34, Type (0, 1), BuildingBlock: XIVTED_clean_linker_0, # of connection points: 2
#     Edge 35, Type (0, 1), BuildingBlock: XIVTED_clean_linker_0, # of connection points: 2
#     Edge 36, Type (0, 1), BuildingBlock: XIVTED_clean_linker_0, # of connection points: 2
#     Edge 37, Type (0, 1), BuildingBlock: XIVTED_clean_linker_0, # of connection points: 2
#     Edge 38, Type (0, 1), BuildingBlock: XIVTED_clean_linker_0, # of connection points: 2
#     Edge 39, Type (0, 1), BuildingBlock: XIVTED_clean_linker_0, # of connection points: 2
#     Edge 40, Type (0, 1), BuildingBlock: XIVTED_clean_linker_0, # of connection points: 2
#     Edge 41, Type (0, 1), BuildingBlock: XIVTED_clean_linker_0, # of connection points: 2
#     Edge 42, Type (0, 1), BuildingBlock: XIVTED_clean_linker_0, # of connection points: 2
#     Edge 43, Type (0, 1), BuildingBlock: XIVTED_clean_linker_0, # of connection points: 2
#     Edge 44, Type (0, 1), BuildingBlock: XIVTED_clean_linker_0, # of connection points: 2
#     Edge 45, Type (0, 1), BuildingBlock: XIVTED_clean_linker_0, # of connection points: 2
#     Edge 46, Type (0, 1), BuildingBlock: XIVTED_clean_linker_0, # of connection points: 2
#     Edge 47, Type (0, 1), BuildingBlock: XIVTED_clean_linker_0, # of connection points: 2
#     Edge 48, Type (0, 1), BuildingBlock: XIVTED_clean_linker_0, # of connection points: 2
#     Edge 49, Type (0, 1), BuildingBlock: XIVTED_clean_linker_0, # of connection points: 2
#     Edge 50, Type (0, 1), BuildingBlock: XIVTED_clean_linker_0, # of connection points: 2
#     Edge 51, Type (0, 1), BuildingBlock: XIVTED_clean_linker_0, # of connection points: 2
#     Edge 52, Type (0, 1), BuildingBlock: XIVTED_clean_linker_0, # of connection points: 2
#     Edge 53, Type (0, 1), BuildingBlock: XIVTED_clean_linker_0, # of connection points: 2
#     Edge 54, Type (0, 1), BuildingBlock: XIVTED_clean_linker_0, # of connection points: 2
#     Edge 55, Type (0, 1), BuildingBlock: XIVTED_clean_linker_0, # of connection points: 2
#     Edge 56, Type (0, 1), BuildingBlock: XIVTED_clean_linker_0, # of connection points: 2
#     Edge 57, Type (0, 1), BuildingBlock: XIVTED_clean_linker_0, # of connection points: 2
#     Edge 58, Type (0, 1), BuildingBlock: XIVTED_clean_linker_0, # of connection points: 2
#     Edge 59, Type (0, 1), BuildingBlock: XIVTED_clean_linker_0, # of connection points: 2
#     Edge 60, Type (0, 1), BuildingBlock: XIVTED_clean_linker_0, # of connection points: 2
#     Edge 61, Type (0, 1), BuildingBlock: XIVTED_clean_linker_0, # of connection points: 2
#     Edge 62, Type (0, 1), BuildingBlock: XIVTED_clean_linker_0, # of connection points: 2
#     Edge 63, Type (0, 1), BuildingBlock: XIVTED_clean_linker_0, # of connection points: 2
#     Edge 64, Type (0, 1), BuildingBlock: XIVTED_clean_linker_0, # of connection points: 2
#     Edge 65, Type (0, 1), BuildingBlock: XIVTED_clean_linker_0, # of connection points: 2
#     Edge 66, Type (0, 1), BuildingBlock: XIVTED_clean_linker_0, # of connection points: 2
#     Edge 67, Type (0, 1), BuildingBlock: XIVTED_clean_linker_0, # of connection points: 2
#     Edge 68, Type (0, 1), BuildingBlock: XIVTED_clean_linker_0, # of connection points: 2
#     Edge 69, Type (0, 1), BuildingBlock: XIVTED_clean_linker_0, # of connection points: 2
#     Edge 70, Type (0, 1), BuildingBlock: XIVTED_clean_linker_0, # of connection points: 2
#     Edge 71, Type (0, 1), BuildingBlock: XIVTED_clean_linker_0, # of connection points: 2
#     Edge 72, Type (0, 1), BuildingBlock: XIVTED_clean_linker_0, # of connection points: 2
#     Edge 73, Type (0, 1), BuildingBlock: XIVTED_clean_linker_0, # of connection points: 2
#     Edge 74, Type (0, 1), BuildingBlock: XIVTED_clean_linker_0, # of connection points: 2
#     Edge 75, Type (0, 1), BuildingBlock: XIVTED_clean_linker_0, # of connection points: 2
# Relax obj value: 0.130
# Max RMSD: 0.256
# Mean RMSD: 0.171
data_MOF--net-ctn--node1-QUQFOY_clean_sbu_1--node2-QEWDON_clean_linker_0--edge1-XIVTED_clean_linker_0
_symmetry_space_group_name_H-M    P1
_symmetry_Int_Tables_number       1
_symmetry_cell_setting            triclinic
loop_
_symmetry_equiv_pos_as_xyz
'x, y, z'
_cell_length_a     52.482255
_cell_length_b     54.448637
_cell_length_c     59.304263
_cell_angle_alpha  101.86152
_cell_angle_beta   92.216724
_cell_angle_gamma 101.57438
loop_
_atom_site_label
_atom_site_type_symbol
_atom_site_fract_x
_atom_site_fract_y
_atom_site_fract_z
_atom_type_partial_charge
H0 H 0.10568 0.06338 0.07395 0.0
C1 C 0.09381 0.0615 0.08829 0.0
C2 C 0.09028 0.03891 0.0969 0.0
C3 C 0.08285 0.08216 0.09852 0.0
H4 H 0.07167 0.0197 0.12222 0.0
C5 C 0.07457 0.03695 0.11541 0.0
C6 C 0.06296 0.05725 0.12559 0.0
C7 C 0.06737 0.07984 0.11708 0.0
C8 C 0.08891 0.10673 0.09073 0.0
H9 H 0.05909 0.09587 0.12512 0.0
C10 C 0.08696 0.1071 0.06706 0.0
C11 C 0.09345 0.13045 0.05976 0.0
C12 C 0.09738 0.12998 0.10706 0.0
H13 H 0.09932 0.1302 0.12536 0.0
C14 C 0.10395 0.15313 0.09991 0.0
H15 H 0.08039 0.08925 0.05436 0.0
C16 C 0.10205 0.15343 0.07645 0.0
H17 H 0.10683 0.17172 0.07139 0.0
H18 H 0.1105 0.17094 0.11261 0.0
H19 H 0.36297 0.73977 0.26101 0.0
C20 C 0.34624 0.72387 0.25847 0.0
C21 C 0.34902 0.70037 0.26351 0.0
C22 C 0.32171 0.72736 0.25096 0.0
H23 H 0.32885 0.66193 0.26405 0.0
C24 C 0.32691 0.68031 0.26066 0.0
C25 C 0.30211 0.68381 0.2542 0.0
C26 C 0.29972 0.7072 0.24876 0.0
C27 C 0.31874 0.75277 0.24723 0.0
H28 H 0.2806 0.71029 0.24415 0.0
C29 C 0.30587 0.75496 0.22671 0.0
C30 C 0.3033 0.77921 0.22317 0.0
C31 C 0.32875 0.775 0.26438 0.0
H32 H 0.33853 0.77377 0.28041 0.0
C33 C 0.32592 0.79899 0.26114 0.0
H34 H 0.29812 0.73783 0.21345 0.0
C35 C 0.31336 0.80115 0.2407 0.0
H36 H 0.31207 0.8201 0.2384 0.0
H37 H 0.3337 0.81602 0.27445 0.0
H38 H 0.96471 0.4369 0.05123 0.0
C39 C 0.95958 0.45378 0.0469 0.0
C40 C 0.96941 0.47816 0.06123 0.0
C41 C 0.94301 0.4509 0.02697 0.0
H42 H 0.97004 0.51877 0.06588 0.0
C43 C 0.96275 0.49984 0.05502 0.0
C44 C 0.94678 0.49729 0.03475 0.0
C45 C 0.93676 0.4727 0.02099 0.0
C46 C 0.93226 0.42508 0.01232 0.0
H47 H 0.92409 0.47049 0.0055 0.0
C48 C 0.94875 0.40803 0.00536 0.0
C49 C 0.93872 0.38354 0.99133 0.0
C50 C 0.90549 0.4174 0.00519 0.0
H51 H 0.89237 0.43016 0.01045 0.0
C52 C 0.89536 0.39301 0.99146 0.0
H53 H 0.96943 0.41391 0.01077 0.0
C54 C 0.91182 0.37614 0.98454 0.0
H55 H 0.90357 0.3575 0.97353 0.0
H56 H 0.87471 0.38721 0.98606 0.0
H57 H 0.80126 0.78237 0.27216 0.0
C58 C 0.80479 0.77506 0.25441 0.0
C59 C 0.81293 0.79234 0.24017 0.0
C60 C 0.80063 0.74835 0.24576 0.0
H61 H 0.82438 0.79563 0.2062 0.0
C62 C 0.81733 0.78255 0.21721 0.0
C63 C 0.81272 0.75604 0.2081 0.0
C64 C 0.80477 0.73899 0.22254 0.0
C65 C 0.79033 0.73025 0.26052 0.0
H66 H 0.80055 0.71848 0.2154 0.0
C67 C 0.77014 0.73494 0.27463 0.0
C68 C 0.75931 0.7175 0.28802 0.0
C69 C 0.80004 0.70795 0.26019 0.0
H70 H 0.81571 0.70392 0.24963 0.0
C71 C 0.78969 0.69071 0.27365 0.0
H72 H 0.76264 0.75213 0.27496 0.0
C73 C 0.76942 0.69534 0.28742 0.0
H74 H 0.76136 0.6813 0.29721 0.0
H75 H 0.79726 0.67355 0.27326 0.0
H76 H 0.13542 0.96854 0.47814 0.0
C77 C 0.11992 0.97238 0.46764 0.0
C78 C 0.12331 0.99572 0.46043 0.0
C79 C 0.09669 0.95377 0.46093 0.0
H80 H 0.10602 0.0182 0.44073 0.0
C81 C 0.10331 0.00031 0.44659 0.0
C82 C 0.08014 0.98185 0.43964 0.0
C83 C 0.0768 0.95856 0.44695 0.0
C84 C 0.09372 0.92887 0.46771 0.0
H85 H 0.05904 0.94403 0.44144 0.0
C86 C 0.09224 0.92752 0.49102 0.0
C87 C 0.08937 0.90373 0.49751 0.0
C88 C 0.09253 0.90638 0.45083 0.0
H89 H 0.09367 0.90714 0.43278 0.0
C90 C 0.09022 0.8828 0.45721 0.0
H91 H 0.09305 0.94493 0.50402 0.0
C92 C 0.08865 0.88142 0.48039 0.0
H93 H 0.08615 0.8628 0.48482 0.0
H94 H 0.08939 0.8655 0.44413 0.0
H95 H 0.28786 0.72618 0.78319 0.0
C96 C 0.27924 0.73321 0.79889 0.0
C97 C 0.28093 0.72184 0.81799 0.0
C98 C 0.26573 0.75315 0.79968 0.0
H99 H 0.27198 0.72344 0.85332 0.0
C100 C 0.26947 0.73117 0.83814 0.0
C101 C 0.25564 0.75091 0.8392 0.0
C102 C 0.25369 0.76161 0.81973 0.0
C103 C 0.26449 0.7656 0.77975 0.0
H104 H 0.24309 0.77682 0.82021 0.0
C105 C 0.24066 0.77007 0.77168 0.0
C106 C 0.23942 0.78325 0.75367 0.0
C107 C 0.28722 0.77388 0.76928 0.0
H108 H 0.30586 0.77082 0.77527 0.0
C109 C 0.28622 0.78688 0.75139 0.0
H110 H 0.22303 0.76281 0.77926 0.0
C111 C 0.26259 0.79171 0.74371 0.0
H112 H 0.26262 0.80235 0.73018 0.0
H113 H 0.30391 0.79351 0.74361 0.0
H114 H 0.94804 0.63359 0.47331 0.0
C115 C 0.9372 0.616 0.47718 0.0
C116 C 0.93288 0.61478 0.50017 0.0
C117 C 0.92793 0.59448 0.45911 0.0
H118 H 0.91449 0.59109 0.52249 0.0
C119 C 0.91862 0.59196 0.50486 0.0
C120 C 0.90894 0.57043 0.48696 0.0
C121 C 0.91417 0.57158 0.46411 0.0
C122 C 0.9315 0.5965 0.43492 0.0
H123 H 0.90635 0.55517 0.45013 0.0
C124 C 0.94392 0.57952 0.42045 0.0
C125 C 0.94806 0.5821 0.39764 0.0
C126 C 0.92279 0.61584 0.42637 0.0
H127 H 0.9131 0.62907 0.43725 0.0
C128 C 0.92634 0.61816 0.40367 0.0
H129 H 0.95068 0.56462 0.42709 0.0
C130 C 0.93895 0.60151 0.38939 0.0
H131 H 0.94216 0.60428 0.37208 0.0
H132 H 0.91958 0.63313 0.3972 0.0
H133 H 0.85442 0.88513 0.8268 0.0
C134 C 0.8525 0.87014 0.83653 0.0
C135 C 0.86185 0.84776 0.82816 0.0
C136 C 0.8414 0.87364 0.85783 0.0
H137 H 0.86661 0.81143 0.835 0.0
C138 C 0.85933 0.82863 0.84119 0.0
C139 C 0.848 0.83166 0.86237 0.0
C140 C 0.83913 0.85429 0.87052 0.0
C141 C 0.83364 0.89811 0.86776 0.0
H142 H 0.83087 0.85717 0.88709 0.0
C143 C 0.81799 0.90914 0.85457 0.0
C144 C 0.81047 0.93218 0.86452 0.0
C145 C 0.84188 0.91046 0.89087 0.0
H146 H 0.8542 0.90257 0.90129 0.0
C147 C 0.83452 0.9332 0.90075 0.0
H148 H 0.81164 0.89977 0.83673 0.0
C149 C 0.81886 0.94395 0.88777 0.0
H150 H 0.81302 0.96137 0.89611 0.0
H151 H 0.84087 0.94248 0.9186 0.0
H152 H 0.36377 0.36371 0.29679 0.0
C153 C 0.3614 0.35063 0.30844 0.0
C154 C 0.37232 0.32871 0.30416 0.0
C155 C 0.34758 0.35605 0.32796 0.0
H156 H 0.37876 0.29629 0.31753 0.0
C157 C 0.3692 0.3124 0.31991 0.0
C158 C 0.35501 0.31737 0.33937 0.0
C159 C 0.3441 0.33929 0.34317 0.0
C160 C 0.33948 0.3808 0.33396 0.0
H161 H 0.33336 0.34372 0.35819 0.0
C162 C 0.31344 0.38258 0.32969 0.0
C163 C 0.30611 0.40638 0.33629 0.0
C164 C 0.35817 0.40283 0.34457 0.0
H165 H 0.37829 0.4017 0.34794 0.0
C166 C 0.35097 0.42641 0.35112 0.0
H167 H 0.299 0.36554 0.32151 0.0
C168 C 0.32513 0.42821 0.34709 0.0
H169 H 0.32006 0.44679 0.35212 0.0
H170 H 0.36547 0.44334 0.35933 0.0
H171 H 0.47431 0.95166 0.56089 0.0
C172 C 0.46878 0.96775 0.55534 0.0
C173 C 0.48002 0.99304 0.56714 0.0
C174 C 0.45019 0.963 0.53644 0.0
H175 H 0.4809 0.03323 0.5684 0.0
C176 C 0.47266 0.01362 0.55943 0.0
C177 C 0.45467 0.00913 0.54013 0.0
C178 C 0.44336 0.98375 0.52888 0.0
C179 C 0.4377 0.93633 0.52463 0.0
H180 H 0.42913 0.9801 0.51418 0.0
C181 C 0.45294 0.91802 0.51783 0.0
C182 C 0.44118 0.89278 0.50629 0.0
C183 C 0.41047 0.92914 0.51996 0.0
H184 H 0.3983 0.94287 0.52517 0.0
C185 C 0.39866 0.90407 0.50874 0.0
H186 H 0.47396 0.92351 0.52138 0.0
C187 C 0.41386 0.88597 0.5019 0.0
H188 H 0.40425 0.86679 0.49278 0.0
H189 H 0.37766 0.89867 0.5052 0.0
H190 H 0.3078 0.29423 0.76732 0.0
C191 C 0.30718 0.28501 0.74922 0.0
C192 C 0.30946 0.2999 0.73237 0.0
C193 C 0.3051 0.25827 0.74294 0.0
H194 H 0.30994 0.29874 0.69584 0.0
C195 C 0.30877 0.28756 0.70907 0.0
C196 C 0.30704 0.261 0.70253 0.0
C197 C 0.30557 0.24643 0.71957 0.0
C198 C 0.30189 0.24276 0.76084 0.0
H199 H 0.30388 0.22583 0.71456 0.0
C200 C 0.28287 0.24574 0.77662 0.0
C201 C 0.27924 0.23103 0.79364 0.0
C202 C 0.31743 0.22484 0.76213 0.0
H203 H 0.33227 0.22226 0.75018 0.0
C204 C 0.31417 0.21035 0.77911 0.0
H205 H 0.27029 0.25895 0.77508 0.0
C206 C 0.29522 0.21337 0.79478 0.0
H207 H 0.29315 0.20196 0.80781 0.0
H208 H 0.32636 0.1967 0.78013 0.0
H209 H 0.89721 0.26173 0.74403 0.0
C210 C 0.87844 0.24876 0.74316 0.0
C211 C 0.87703 0.22483 0.74907 0.0
C212 C 0.85564 0.25664 0.73701 0.0
H213 H 0.85085 0.19002 0.75247 0.0
C214 C 0.8524 0.20874 0.74837 0.0
C215 C 0.82945 0.21676 0.74338 0.0
C216 C 0.83113 0.24044 0.73701 0.0
C217 C 0.85755 0.28268 0.73243 0.0
H218 H 0.81345 0.24691 0.73348 0.0
C219 C 0.84468 0.28633 0.71248 0.0
C220 C 0.84817 0.31096 0.70759 0.0
C221 C 0.87302 0.30406 0.74786 0.0
H222 H 0.88282 0.30181 0.76349 0.0
C223 C 0.87598 0.32855 0.74331 0.0
H224 H 0.83299 0.26994 0.7003 0.0
C225 C 0.86385 0.332 0.7232 0.0
H226 H 0.86672 0.35112 0.71979 0.0
H227 H 0.88796 0.34489 0.75528 0.0
H228 H 0.61449 0.56179 0.58029 0.0
C229 C 0.60049 0.56024 0.59318 0.0
C230 C 0.59322 0.53712 0.60062 0.0
C231 C 0.5906 0.58176 0.6029 0.0
H232 H 0.56992 0.51785 0.62348 0.0
C233 C 0.57549 0.53565 0.6177 0.0
C234 C 0.56481 0.55689 0.6272 0.0
C235 C 0.57279 0.57999 0.61984 0.0
C236 C 0.59903 0.60623 0.59548 0.0
H237 H 0.56463 0.59649 0.62674 0.0
C238 C 0.59592 0.60717 0.57204 0.0
C239 C 0.60339 0.63058 0.565 0.0
C240 C 0.61002 0.62878 0.61188 0.0
H241 H 0.61261 0.62842 0.63002 0.0
C242 C 0.618 0.65192 0.60496 0.0
H243 H 0.58732 0.58976 0.5594 0.0
C244 C 0.6147 0.65289 0.58171 0.0
H245 H 0.62032 0.67126 0.57693 0.0
H246 H 0.62651 0.66925 0.6177 0.0
H247 H 0.62491 0.46343 0.96378 0.0
C248 C 0.60959 0.46913 0.95458 0.0
C249 C 0.61362 0.49394 0.95027 0.0
C250 C 0.586 0.45148 0.94663 0.0
H251 H 0.59701 0.52012 0.93461 0.0
C252 C 0.59382 0.50102 0.93814 0.0
C253 C 0.57027 0.48351 0.92989 0.0
C254 C 0.56638 0.4587 0.93427 0.0
C255 C 0.58238 0.4251 0.95037 0.0
H256 H 0.54837 0.44489 0.92772 0.0
C257 C 0.58188 0.42065 0.97286 0.0
C258 C 0.57867 0.3955 0.97645 0.0
C259 C 0.57974 0.40432 0.9314 0.0
H260 H 0.58011 0.40745 0.91395 0.0
C261 C 0.57702 0.37937 0.93488 0.0
H262 H 0.58378 0.43673 0.9875 0.0
C263 C 0.57652 0.37494 0.95725 0.0
H264 H 0.57376 0.35535 0.95949 0.0
H265 H 0.5751 0.3634 0.9202 0.0
H266 H 0.8006 0.21552 0.27924 0.0
C267 C 0.79249 0.22421 0.29466 0.0
C268 C 0.79479 0.21514 0.31502 0.0
C269 C 0.77882 0.24372 0.29377 0.0
H270 H 0.78682 0.2204 0.35078 0.0
C271 C 0.78381 0.22638 0.33474 0.0
C272 C 0.76959 0.24558 0.33414 0.0
C273 C 0.7671 0.25401 0.31343 0.0
C274 C 0.77651 0.25314 0.27217 0.0
H275 H 0.75614 0.2687 0.31253 0.0
C276 C 0.75223 0.25613 0.26359 0.0
C277 C 0.74976 0.26471 0.24293 0.0
C278 C 0.79853 0.2591 0.25999 0.0
H279 H 0.8175 0.25715 0.26631 0.0
C280 C 0.79631 0.26797 0.23967 0.0
H281 H 0.7352 0.25154 0.27293 0.0
C282 C 0.77212 0.27076 0.23114 0.0
H283 H 0.77084 0.27713 0.21508 0.0
H284 H 0.81339 0.27256 0.23042 0.0
H285 H 0.45608 0.07771 0.96512 0.0
C286 C 0.44675 0.06285 0.9736 0.0
C287 C 0.44805 0.06762 0.99786 0.0
C288 C 0.43283 0.0392 0.96028 0.0
H289 H 0.43596 0.05228 0.02742 0.0
C290 C 0.43544 0.04848 0.00871 0.0
C291 C 0.42125 0.02491 0.99568 0.0
C292 C 0.42025 0.0203 0.97146 0.0
C293 C 0.43024 0.03457 0.9347 0.0
H294 H 0.40904 0.00224 0.96125 0.0
C295 C 0.45229 0.03982 0.92232 0.0
C296 C 0.44983 0.03493 0.89798 0.0
C297 C 0.40558 0.02465 0.92252 0.0
H298 H 0.38826 0.02069 0.93166 0.0
C299 C 0.40299 0.02001 0.89845 0.0
H300 H 0.47133 0.04752 0.93165 0.0
C301 C 0.42491 0.02503 0.88621 0.0
H302 H 0.42239 0.0207 0.8675 0.0
H303 H 0.38392 0.01234 0.88922 0.0
O304 O 0.23604 0.82333 0.0123 0.0
Cd305 Cd 0.25393 0.84428 0.0438 0.0
Cd306 Cd 0.22681 0.88131 0.0335 0.0
O307 O 0.21925 0.85419 0.00264 0.0
O308 O 0.26749 0.8195 0.05888 0.0
O309 O 0.23918 0.84181 0.07431 0.0
C310 C 0.25365 0.82551 0.07583 0.0
C311 C 0.19566 0.90657 0.04272 0.0
C312 C 0.22406 0.83181 0.99754 0.0
C313 C 0.28583 0.89577 0.04277 0.0
O314 O 0.2643 0.90276 0.0411 0.0
O315 O 0.28627 0.87255 0.04276 0.0
O316 O 0.20989 0.90851 0.02577 0.0
O317 O 0.19831 0.88944 0.05427 0.0
O318 O 0.15125 0.53132 0.28237 0.0
Cd319 Cd 0.12663 0.49895 0.28791 0.0
Cd320 Cd 0.09585 0.5113 0.24878 0.0
O321 O 0.13071 0.53747 0.25146 0.0
O322 O 0.14761 0.48971 0.31234 0.0
O323 O 0.1375 0.46499 0.2774 0.0
C324 C 0.14958 0.46932 0.29767 0.0
C325 C 0.07418 0.50148 0.21174 0.0
C326 C 0.15019 0.54349 0.26636 0.0
C327 C 0.07275 0.50955 0.29541 0.0
O328 O 0.07142 0.51394 0.2752 0.0
O329 O 0.09253 0.5027 0.30316 0.0
O330 O 0.07662 0.52362 0.22533 0.0
O331 O 0.08383 0.48433 0.21919 0.0
O332 O 0.82276 0.70086 0.9759 0.0
Cd333 Cd 0.8135 0.67641 0.99804 0.0
Cd334 Cd 0.8363 0.64628 0.96712 0.0
O335 O 0.84344 0.67727 0.95134 0.0
O336 O 0.8011 0.69814 0.02462 0.0
O337 O 0.83475 0.68006 0.02811 0.0
C338 C 0.81916 0.69389 0.03768 0.0
C339 C 0.86912 0.62949 0.98149 0.0
C340 C 0.83515 0.69778 0.9579 0.0
C341 C 0.7807 0.62544 0.973 0.0
O342 O 0.8 0.62184 0.96143 0.0
O343 O 0.78242 0.64585 0.98836 0.0
O344 O 0.86245 0.62472 0.95957 0.0
O345 O 0.85802 0.64511 0.99516 0.0
O346 O 0.95087 0.01887 0.31504 0.0
Cd347 Cd 0.92725 0.01725 0.28581 0.0
Cd348 Cd 0.89635 0.03032 0.32057 0.0
O349 O 0.92684 0.03065 0.34332 0.0
O350 O 0.95114 0.0064 0.26233 0.0
O351 O 0.93747 0.04251 0.26506 0.0
C352 C 0.95149 0.02715 0.25514 0.0
C353 C 0.8805 0.0669 0.31981 0.0
C354 C 0.94772 0.02437 0.33649 0.0
C355 C 0.87628 0.98038 0.28811 0.0
O356 O 0.87315 0.99484 0.30703 0.0
O357 O 0.8955 0.98679 0.27659 0.0
O358 O 0.87426 0.05361 0.33524 0.0
O359 O 0.89623 0.05949 0.30484 0.0
O360 O 0.32969 0.2075 0.47072 0.0
Cd361 Cd 0.31754 0.1844 0.49352 0.0
Cd362 Cd 0.34054 0.15137 0.46547 0.0
O363 O 0.3467 0.17975 0.44667 0.0
O364 O 0.30481 0.20713 0.51917 0.0
O365 O 0.33698 0.18761 0.52434 0.0
C366 C 0.3214 0.20193 0.53308 0.0
C367 C 0.37411 0.13573 0.48012 0.0
C368 C 0.34071 0.20158 0.45225 0.0
C369 C 0.28463 0.13229 0.47128 0.0
O370 O 0.30461 0.12681 0.46177 0.0
O371 O 0.28573 0.15442 0.48385 0.0
O372 O 0.36629 0.1293 0.45839 0.0
O373 O 0.36375 0.15237 0.49338 0.0
O374 O 0.44095 0.52845 0.8108 0.0
Cd375 Cd 0.41785 0.52775 0.78158 0.0
Cd376 Cd 0.38453 0.53682 0.8164 0.0
O377 O 0.4151 0.536 0.83874 0.0
O378 O 0.44084 0.5158 0.75767 0.0
O379 O 0.42995 0.55333 0.76144 0.0
C380 C 0.44235 0.53684 0.75077 0.0
C381 C 0.36798 0.57343 0.81776 0.0
C382 C 0.43681 0.53171 0.83208 0.0
C383 C 0.36641 0.48914 0.78106 0.0
O384 O 0.36192 0.50176 0.80043 0.0
O385 O 0.38631 0.49738 0.77104 0.0
O386 O 0.36175 0.55875 0.83214 0.0
O387 O 0.38418 0.56745 0.80272 0.0
O388 O 0.75305 0.33996 0.50054 0.0
Cd389 Cd 0.7687 0.36681 0.53012 0.0
Cd390 Cd 0.72865 0.39038 0.51716 0.0
O391 O 0.7226 0.35896 0.48976 0.0
O392 O 0.79384 0.35074 0.54486 0.0
O393 O 0.75977 0.36153 0.5619 0.0
C394 C 0.78043 0.35211 0.56263 0.0
C395 C 0.69309 0.40671 0.53165 0.0
C396 C 0.73482 0.34076 0.48614 0.0
C397 C 0.78464 0.41949 0.52024 0.0
O398 O 0.76053 0.41908 0.5168 0.0
O399 O 0.79213 0.40049 0.52556 0.0
O400 O 0.69975 0.4075 0.51112 0.0
O401 O 0.70588 0.39535 0.54382 0.0
O402 O 0.67598 0.0757 0.77984 0.0
Cd403 Cd 0.65457 0.04281 0.7876 0.0
Cd404 Cd 0.61892 0.05417 0.75047 0.0
O405 O 0.65174 0.08238 0.75135 0.0
O406 O 0.67893 0.03864 0.81239 0.0
O407 O 0.66817 0.0099 0.77958 0.0
C408 C 0.68166 0.01748 0.79936 0.0
C409 C 0.59583 0.0398 0.71412 0.0
C410 C 0.67251 0.08847 0.76474 0.0
C411 C 0.59948 0.04948 0.79773 0.0
O412 O 0.59616 0.05487 0.7781 0.0
O413 O 0.62056 0.04361 0.80389 0.0
O414 O 0.5963 0.06223 0.72659 0.0
O415 O 0.60835 0.02502 0.72236 0.0
O416 O 0.03034 0.2349 0.91197 0.0
Cd417 Cd 0.0421 0.20468 0.8913 0.0
Cd418 Cd 0.07193 0.24233 0.87663 0.0
O419 O 0.06023 0.26605 0.90429 0.0
O420 O 0.03158 0.17548 0.90685 0.0
O421 O 0.07273 0.19313 0.90366 0.0
C422 C 0.05607 0.17697 0.9118 0.0
C423 C 0.11566 0.24395 0.87047 0.0
C424 C 0.04109 0.25858 0.91552 0.0
C425 C 0.02836 0.20839 0.84332 0.0
O426 O 0.04552 0.22922 0.84795 0.0
O427 O 0.02521 0.19389 0.85775 0.0
O428 O 0.10424 0.26176 0.86662 0.0
O429 O 0.10234 0.22552 0.87858 0.0
O430 O 0.52633 0.74024 0.42463 0.0
Cd431 Cd 0.53468 0.7086 0.40303 0.0
Cd432 Cd 0.56 0.74446 0.38315 0.0
O433 O 0.55163 0.77035 0.41099 0.0
O434 O 0.52627 0.68087 0.42053 0.0
O435 O 0.5663 0.69621 0.4123 0.0
C436 C 0.5509 0.68124 0.42259 0.0
C437 C 0.60204 0.74495 0.37214 0.0
C438 C 0.53584 0.76383 0.4255 0.0
C439 C 0.51314 0.70839 0.35583 0.0
O440 O 0.53026 0.72894 0.35747 0.0
O441 O 0.51252 0.69574 0.37168 0.0
O442 O 0.58939 0.76181 0.36804 0.0
O443 O 0.5911 0.72834 0.38347 0.0
O444 O 0.99221 0.80286 0.70199 0.0
Cd445 Cd 0.01909 0.79117 0.68009 0.0
Cd446 Cd 0.00082 0.82123 0.6556 0.0
O447 O 0.98175 0.83207 0.68468 0.0
O448 O 0.04226 0.77732 0.69925 0.0
O449 O 0.05652 0.81023 0.68312 0.0
C450 C 0.06139 0.79462 0.69563 0.0
C451 C 0.02522 0.8511 0.63766 0.0
C452 C 0.97969 0.82041 0.70123 0.0
C453 C 0.99136 0.76483 0.63412 0.0
O454 O 0.98585 0.78633 0.63325 0.0
O455 O 0.00547 0.76271 0.6512 0.0
O456 O 0.0001 0.8472 0.6366 0.0
O457 O 0.03671 0.83901 0.65015 0.0
O458 O 0.50319 0.27592 0.17902 0.0
Cd459 Cd 0.53104 0.26521 0.15778 0.0
Cd460 Cd 0.50866 0.2914 0.13028 0.0
O461 O 0.48913 0.30146 0.15925 0.0
O462 O 0.55273 0.25055 0.17746 0.0
O463 O 0.56857 0.28458 0.16344 0.0
C464 C 0.57239 0.26816 0.17546 0.0
C465 C 0.52884 0.3226 0.11145 0.0
C466 C 0.48879 0.29163 0.17694 0.0
C467 C 0.50509 0.2353 0.1114 0.0
O468 O 0.49704 0.2552 0.10903 0.0
O469 O 0.51959 0.23582 0.1292 0.0
O470 O 0.50378 0.31554 0.11035 0.0
O471 O 0.54264 0.31262 0.12415 0.0
H472 H 0.23268 0.72402 0.8704 0.0
H473 H 0.21266 0.84922 0.95902 0.0
H474 H 0.25252 0.80077 0.85794 0.0
H475 H 0.22582 0.78138 0.98057 0.0
H476 H 0.21444 0.82779 0.91883 0.0
H477 H 0.21847 0.74166 0.90797 0.0
C478 C 0.23401 0.74454 0.87545 0.0
C479 C 0.24426 0.76093 0.86099 0.0
C480 C 0.21652 0.81749 0.93236 0.0
C481 C 0.22723 0.78102 0.90371 0.0
C482 C 0.21532 0.82961 0.95531 0.0
C483 C 0.21947 0.8172 0.97325 0.0
C484 C 0.22159 0.7927 0.92729 0.0
C485 C 0.22284 0.79178 0.96732 0.0
C486 C 0.22569 0.75451 0.89683 0.0
C487 C 0.24464 0.78727 0.86828 0.0
N488 N 0.22405 0.78043 0.94483 0.0
N489 N 0.2364 0.79649 0.88916 0.0
H490 H 0.93841 0.56045 0.35127 0.0
H491 H 0.07235 0.51148 0.34205 0.0
H492 H 0.99213 0.56648 0.41013 0.0
H493 H 0.02521 0.51872 0.28343 0.0
H494 H 0.03935 0.52432 0.3673 0.0
H495 H 0.96633 0.53802 0.32638 0.0
C496 C 0.95601 0.55695 0.35899 0.0
C497 C 0.96309 0.56568 0.3828 0.0
C498 C 0.03615 0.52286 0.34888 0.0
C499 C 0.99508 0.53983 0.35439 0.0
C500 C 0.05494 0.51545 0.33443 0.0
C501 C 0.05171 0.51431 0.31059 0.0
C502 C 0.01394 0.52905 0.33941 0.0
C503 C 0.0287 0.51962 0.30172 0.0
C504 C 0.97189 0.54405 0.34477 0.0
C505 C 0.98582 0.56003 0.3919 0.0
N506 N 0.0108 0.52691 0.31614 0.0
N507 N 0.00113 0.54768 0.37765 0.0
H508 H 0.80819 0.81549 0.88819 0.0
H509 H 0.86726 0.70314 0.92282 0.0
H510 H 0.88336 0.80184 0.86842 0.0
H511 H 0.81042 0.73777 0.96117 0.0
H512 H 0.87079 0.73569 0.8993 0.0
H513 H 0.80589 0.78336 0.91171 0.0
C514 C 0.8243 0.80589 0.88885 0.0
C515 C 0.84606 0.81157 0.8763 0.0
C516 C 0.85765 0.73615 0.91295 0.0
C517 C 0.84322 0.77427 0.90289 0.0
C518 C 0.8556 0.71759 0.92634 0.0
C519 C 0.83856 0.71774 0.94402 0.0
C520 C 0.84224 0.75468 0.91705 0.0
C521 C 0.82391 0.73694 0.94781 0.0
C522 C 0.82289 0.78744 0.90222 0.0
C523 C 0.866 0.79791 0.87746 0.0
N524 N 0.82596 0.7545 0.93435 0.0
N525 N 0.86407 0.77986 0.89047 0.0
H526 H 0.08746 0.9975 0.39934 0.0
H527 H 0.94283 0.02 0.38153 0.0
H528 H 0.02786 0.97828 0.44465 0.0
H529 H 0.99782 0.02037 0.32922 0.0
H530 H 0.97484 0.00924 0.40702 0.0
H531 H 0.05559 0.00961 0.3751 0.0
C532 C 0.06756 0.99577 0.4041 0.0
C533 C 0.06021 0.98697 0.424 0.0
C534 C 0.97987 0.0118 0.38999 0.0
C535 C 0.02364 0.00096 0.39646 0.0
C536 C 0.96173 0.01816 0.37552 0.0
C537 C 0.96766 0.02102 0.35319 0.0
C538 C 0.00412 0.00854 0.38211 0.0
C539 C 0.99236 0.01823 0.34625 0.0
C540 C 0.04937 0.00266 0.39027 0.0
C541 C 0.03417 0.98486 0.42934 0.0
N542 N 0.00964 0.01212 0.36063 0.0
N543 N 0.01678 0.99199 0.4157 0.0
H544 H 0.2771 0.26722 0.66658 0.0
H545 H 0.34965 0.19036 0.56812 0.0
H546 H 0.33721 0.22822 0.68221 0.0
H547 H 0.29165 0.23316 0.55552 0.0
H548 H 0.34524 0.20266 0.60977 0.0
H549 H 0.281 0.25247 0.62548 0.0
C550 C 0.29103 0.25536 0.66127 0.0
C551 C 0.30701 0.24909 0.67774 0.0
C552 C 0.33357 0.20938 0.59784 0.0
C553 C 0.31181 0.23222 0.63064 0.0
C554 C 0.33618 0.2025 0.5741 0.0
C555 C 0.32101 0.21076 0.55832 0.0
C556 C 0.31563 0.22456 0.60573 0.0
C557 C 0.30375 0.22632 0.567 0.0
C558 C 0.29331 0.24697 0.63781 0.0
C559 C 0.32449 0.23338 0.66998 0.0
N560 N 0.30151 0.23262 0.59005 0.0
N561 N 0.3266 0.22563 0.64692 0.0
H562 H 0.52533 0.51571 0.62818 0.0
H563 H 0.46449 0.58289 0.73997 0.0
H564 H 0.5587 0.59324 0.66541 0.0
H565 H 0.45599 0.5009 0.7174 0.0
H566 H 0.49322 0.58894 0.70877 0.0
H567 H 0.49392 0.51186 0.65711 0.0
C568 C 0.52622 0.5319 0.64249 0.0
C569 C 0.54503 0.55473 0.64445 0.0
C570 C 0.4849 0.56967 0.71067 0.0
C571 C 0.5085 0.55059 0.6774 0.0
C572 C 0.46845 0.56622 0.72833 0.0
C573 C 0.45802 0.54138 0.73131 0.0
C574 C 0.49043 0.54809 0.69576 0.0
C575 C 0.46381 0.5204 0.71585 0.0
C576 C 0.50811 0.52973 0.65892 0.0
C577 C 0.54451 0.57532 0.66306 0.0
N578 N 0.47956 0.52423 0.69875 0.0
N579 N 0.52657 0.57275 0.67885 0.0
H580 H 0.7969 0.29782 0.69002 0.0
H581 H 0.82804 0.34246 0.57239 0.0
H582 H 0.87396 0.33286 0.67552 0.0
H583 H 0.75324 0.34318 0.60003 0.0
H584 H 0.84361 0.33066 0.60709 0.0
H585 H 0.779 0.30644 0.65405 0.0
C586 C 0.80999 0.30715 0.67916 0.0
C587 C 0.83687 0.31478 0.68566 0.0
C588 C 0.82377 0.33334 0.60555 0.0
C589 C 0.81677 0.32434 0.64476 0.0
C590 C 0.8148 0.33998 0.58571 0.0
C591 C 0.78932 0.34394 0.58335 0.0
C592 C 0.80707 0.33024 0.62313 0.0
C593 C 0.77308 0.34046 0.60123 0.0
C594 C 0.7998 0.31217 0.65881 0.0
C595 C 0.85309 0.32688 0.67115 0.0
N596 N 0.78221 0.33372 0.62041 0.0
N597 N 0.84281 0.33117 0.65133 0.0
H598 H 0.48051 0.96509 0.60097 0.0
H599 H 0.58497 0.07062 0.68615 0.0
H600 H 0.52333 0.03226 0.58031 0.0
H601 H 0.5736 0.99093 0.68999 0.0
H602 H 0.55883 0.05788 0.64905 0.0
H603 H 0.51121 0.97472 0.63525 0.0
C604 C 0.49647 0.98168 0.60341 0.0
C605 C 0.49912 0.99798 0.58766 0.0
C606 C 0.56222 0.04315 0.65791 0.0
C607 C 0.53385 0.00935 0.62724 0.0
C608 C 0.57701 0.0504 0.67911 0.0
C609 C 0.58135 0.03177 0.69112 0.0
C610 C 0.55117 0.01713 0.64888 0.0
C611 C 0.57073 0.00584 0.68118 0.0
C612 C 0.51391 0.98717 0.62306 0.0
C613 C 0.52 0.01946 0.59215 0.0
N614 N 0.55577 -0.00075 0.6607 0.0
N615 N 0.53636 0.02467 0.61163 0.0
H616 H 0.92771 0.23553 0.73646 0.0
H617 H 0.98279 0.17205 0.83295 0.0
H618 H 0.88084 0.19793 0.78303 0.0
H619 H 0.02979 0.23389 0.80784 0.0
H620 H 0.94687 0.17126 0.80522 0.0
H621 H 0.96655 0.22626 0.75449 0.0
C622 C 0.92544 0.2252 0.75028 0.0
C623 C 0.90076 0.21759 0.75816 0.0
C624 C 0.96522 0.18471 0.80553 0.0
C625 C 0.94503 0.20633 0.7783 0.0
C626 C 0.98582 0.18506 0.82126 0.0
C627 C 0.00919 0.20343 0.82307 0.0
C628 C 0.96804 0.20273 0.79145 0.0
C629 C 0.01196 0.21968 0.8073 0.0
C630 C 0.94761 0.21976 0.7604 0.0
C631 C 0.89916 0.2038 0.77588 0.0
N632 N 0.99148 0.21921 0.79235 0.0
N633 N 0.92093 0.19871 0.78533 0.0
H634 H 0.4317 0.84191 0.50806 0.0
H635 H 0.50856 0.75741 0.46293 0.0
H636 H 0.48728 0.90022 0.48586 0.0
H637 H 0.54123 0.81508 0.42577 0.0
H638 H 0.48787 0.7884 0.48682 0.0
H639 H 0.45654 0.81026 0.49204 0.0
C640 C 0.44935 0.84809 0.50001 0.0
C641 C 0.45736 0.87375 0.49825 0.0
C642 C 0.49923 0.79433 0.4733 0.0
C643 C 0.48672 0.83766 0.48047 0.0
C644 C 0.51137 0.77665 0.4598 0.0
C645 C 0.52628 0.78352 0.44204 0.0
C646 C 0.50163 0.819 0.46876 0.0
C647 C 0.52971 0.80887 0.43913 0.0
C648 C 0.46386 0.83003 0.49115 0.0
C649 C 0.48052 0.88071 0.48784 0.0
N650 N 0.51723 0.82561 0.45218 0.0
N651 N 0.49423 0.86273 0.47916 0.0
H652 H 0.24643 0.19283 0.80883 0.0
H653 H 0.15074 0.28286 0.85905 0.0
H654 H 0.26365 0.27491 0.81439 0.0
H655 H 0.14175 0.20466 0.86712 0.0
H656 H 0.19313 0.28071 0.84418 0.0
H657 H 0.20926 0.19698 0.83177 0.0
C658 C 0.24267 0.21178 0.81514 0.0
C659 C 0.2581 0.23352 0.80941 0.0
C660 C 0.18205 0.26409 0.84944 0.0
C661 C 0.2152 0.23832 0.83537 0.0
C662 C 0.15782 0.2653 0.85792 0.0
C663 C 0.1426 0.24383 0.86416 0.0
C664 C 0.19103 0.24113 0.84688 0.0
C665 C 0.15281 0.22165 0.86245 0.0
C666 C 0.22133 0.21411 0.82816 0.0
C667 C 0.25199 0.25753 0.81789 0.0
N668 N 0.17626 0.22075 0.85369 0.0
N669 N 0.2309 0.25924 0.83023 0.0
H670 H 0.55942 0.60729 0.53607 0.0
H671 H 0.60168 0.68633 0.43904 0.0
H672 H 0.63473 0.65774 0.53844 0.0
H673 H 0.52336 0.64472 0.44289 0.0
H674 H 0.61672 0.66901 0.47089 0.0
H675 H 0.54874 0.6139 0.49765 0.0
C676 C 0.5739 0.61942 0.52836 0.0
C677 C 0.59792 0.63219 0.54063 0.0
C678 C 0.59631 0.66339 0.46453 0.0
C679 C 0.58563 0.64015 0.4967 0.0
C680 C 0.58774 0.67315 0.44625 0.0
C681 C 0.56117 0.66722 0.4385 0.0
C682 C 0.57818 0.64756 0.47504 0.0
C683 C 0.54398 0.65005 0.4485 0.0
C684 C 0.56771 0.62333 0.50646 0.0
C685 C 0.61579 0.64791 0.5298 0.0
N686 N 0.55273 0.64104 0.46639 0.0
N687 N 0.6092 0.65162 0.50854 0.0
H688 H 0.85959 0.80388 0.79491 0.0
H689 H 0.96169 0.86476 0.71526 0.0
H690 H 0.89594 0.88467 0.8122 0.0
H691 H 0.95578 0.78836 0.72727 0.0
H692 H 0.93056 0.8725 0.74459 0.0
H693 H 0.88728 0.798 0.76296 0.0
C694 C 0.8733 0.82043 0.79199 0.0
C695 C 0.87574 0.84473 0.80665 0.0
C696 C 0.93616 0.85409 0.7407 0.0
C697 C 0.90702 0.83813 0.76967 0.0
C698 C 0.95383 0.84966 0.72402 0.0
C699 C 0.96143 0.82595 0.71898 0.0
C700 C 0.92561 0.83443 0.75184 0.0
C701 C 0.95066 0.807 0.73079 0.0
C702 C 0.88901 0.81703 0.7737 0.0
C703 C 0.89327 0.86559 0.8014 0.0
N704 N 0.93317 0.81158 0.74653 0.0
N705 N 0.90836 0.86179 0.78338 0.0
H706 H 0.11172 0.87601 0.52336 0.0
H707 H 0.00912 0.88647 0.61717 0.0
H708 H 0.05788 0.92677 0.52676 0.0
H709 H 0.07402 0.84993 0.6233 0.0
H710 H 0.02927 0.90481 0.58627 0.0
H711 H 0.10073 0.86897 0.5616 0.0
C712 C 0.09777 0.88586 0.53227 0.0
C713 C 0.08549 0.90179 0.52179 0.0
C714 C 0.03938 0.89316 0.59461 0.0
C715 C 0.07277 0.89379 0.56547 0.0
C716 C 0.02788 0.8827 0.61229 0.0
C717 C 0.03979 0.86645 0.62263 0.0
C718 C 0.06273 0.88692 0.5869 0.0
C719 C 0.06415 0.86232 0.61573 0.0
C720 C 0.09162 0.88196 0.55414 0.0
C721 C 0.06786 0.91438 0.53422 0.0
N722 N 0.07459 0.87209 0.59798 0.0
N723 N 0.06175 0.90982 0.55525 0.0
H724 H 0.22245 0.78448 0.70934 0.0
H725 H 0.07544 0.77866 0.73392 0.0
H726 H 0.19809 0.79293 0.77883 0.0
H727 H 0.10784 0.81332 0.67927 0.0
H728 H 0.11957 0.77865 0.74877 0.0
H729 H 0.17999 0.79059 0.69601 0.0
C730 C 0.20841 0.78787 0.72189 0.0
C731 C 0.21401 0.78795 0.74531 0.0
C732 C 0.11702 0.78643 0.73364 0.0
C733 C 0.16508 0.79421 0.72986 0.0
C734 C 0.09188 0.78635 0.7251 0.0
C735 C 0.08806 0.796 0.70535 0.0
C736 C 0.13844 0.79563 0.722 0.0
C737 C 0.11003 0.80582 0.69461 0.0
C738 C 0.18412 0.79125 0.71418 0.0
C739 C 0.19461 0.79197 0.76054 0.0
N740 N 0.13435 0.80507 0.7029 0.0
N741 N 0.17095 0.79463 0.75251 0.0
H742 H 0.93062 0.66494 0.5016 0.0
H743 H 0.99738 0.71547 0.631 0.0
H744 H 0.95666 0.61612 0.54237 0.0
H745 H 0.96478 0.76313 0.5929 0.0
H746 H 0.98379 0.67917 0.59819 0.0
H747 H 0.94484 0.70167 0.53416 0.0
C748 C 0.93954 0.66201 0.51734 0.0
C749 C 0.94242 0.63745 0.51932 0.0
C750 C 0.97954 0.69755 0.59701 0.0
C751 C 0.95846 0.67927 0.55669 0.0
C752 C 0.98728 0.71831 0.61577 0.0
C753 C 0.9822 0.74241 0.61473 0.0
C754 C 0.96672 0.70089 0.57699 0.0
C755 C 0.96906 0.7449 0.59451 0.0
C756 C 0.94747 0.68293 0.53597 0.0
C757 C 0.95379 0.63467 0.54021 0.0
N758 N 0.96183 0.72441 0.57642 0.0
N759 N 0.96138 0.65532 0.55807 0.0
H760 H 0.83244 0.82141 0.2834 0.0
H761 H 0.86406 0.95137 0.24427 0.0
H762 H 0.80137 0.82787 0.21682 0.0
H763 H 0.85181 0.95014 0.31559 0.0
H764 H 0.84301 0.90573 0.23334 0.0
H765 H 0.84157 0.86824 0.29579 0.0
C766 C 0.82721 0.83254 0.27147 0.0
C767 C 0.81655 0.82057 0.24885 0.0
C768 C 0.84452 0.9156 0.25132 0.0
C769 C 0.8275 0.87411 0.26281 0.0
C770 C 0.85652 0.94157 0.25755 0.0
C771 C 0.85968 0.95443 0.28084 0.0
C772 C 0.83636 0.90231 0.2686 0.0
C773 C 0.84963 0.94089 0.29742 0.0
C774 C 0.83248 0.85928 0.27856 0.0
C775 C 0.81042 0.83619 0.23415 0.0
N776 N 0.83887 0.91536 0.29104 0.0
N777 N 0.81638 0.86215 0.24124 0.0
H778 H 0.78012 0.1753 0.33659 0.0
H779 H 0.89192 0.10159 0.29194 0.0
H780 H 0.83918 0.20522 0.29473 0.0
H781 H 0.84335 0.0838 0.34602 0.0
H782 H 0.87168 0.13823 0.29063 0.0
H783 H 0.80181 0.14011 0.33811 0.0
C784 C 0.7978 0.17463 0.32787 0.0
C785 C 0.80793 0.19347 0.31569 0.0
C786 C 0.86557 0.12632 0.30282 0.0
C787 C 0.83268 0.15271 0.31699 0.0
C788 C 0.87707 0.10541 0.30356 0.0
C789 C 0.86929 0.0896 0.31909 0.0
C790 C 0.84601 0.13124 0.31757 0.0
C791 C 0.84999 0.09545 0.33377 0.0
C792 C 0.81012 0.1544 0.32864 0.0
C793 C 0.83053 0.19106 0.30419 0.0
N794 N 0.83896 0.1157 0.33256 0.0
N795 N 0.84215 0.17104 0.30511 0.0
H796 H 0.39027 0.03448 0.03096 0.0
H797 H 0.33263 0.88632 0.02833 0.0
H798 H 0.41628 0.97251 0.98667 0.0
H799 H 0.29422 0.94793 0.05527 0.0
H800 H 0.3698 0.91808 0.02084 0.0
H801 H 0.3615 0.00318 0.04769 0.0
C802 C 0.39026 0.01429 0.02502 0.0
C803 C 0.40559 0.00606 0.0073 0.0
C804 C 0.35337 0.9246 0.02871 0.0
C805 C 0.37242 0.9701 0.0262 0.0
C806 C 0.33227 0.90654 0.03313 0.0
C807 C 0.31022 0.91453 0.04217 0.0
C808 C 0.35243 0.95074 0.03362 0.0
C809 C 0.3107 0.94093 0.048 0.0
C810 C 0.3737 0.99642 0.03448 0.0
C811 C 0.40449 0.97962 7e-05 0.0
N812 N 0.33138 0.95807 0.04348 0.0
N813 N 0.38804 0.96253 0.00946 0.0
H814 H 0.27604 0.42966 0.36659 0.0
H815 H 0.16858 0.4321 0.26858 0.0
H816 H 0.27459 0.38945 0.29573 0.0
H817 H 0.17106 0.46993 0.34035 0.0
H818 H 0.20335 0.41108 0.27861 0.0
H819 H 0.23383 0.43936 0.3579 0.0
C820 C 0.26664 0.42268 0.34921 0.0
C821 C 0.27892 0.40902 0.33178 0.0
C822 C 0.19599 0.42369 0.29219 0.0
C823 C 0.23061 0.42027 0.32154 0.0
C824 C 0.17607 0.43561 0.28648 0.0
C825 C 0.16715 0.45305 0.30361 0.0
C826 C 0.20696 0.4293 0.31516 0.0
C827 C 0.17757 0.4569 0.32652 0.0
C828 C 0.24251 0.42817 0.34423 0.0
C829 C 0.26574 0.40007 0.30964 0.0
N830 N 0.19704 0.44535 0.33156 0.0
N831 N 0.24244 0.40618 0.30504 0.0
H832 H 0.17274 0.988 0.45465 0.0
H833 H 0.23726 0.13833 0.48633 0.0
H834 H 0.13003 0.04717 0.47769 0.0
H835 H 0.27732 0.08065 0.45273 0.0
H836 H 0.19878 0.10474 0.48622 0.0
H837 H 0.21274 0.02122 0.45793 0.0
C838 C 0.17194 0.00797 0.46082 0.0
C839 C 0.14815 0.01496 0.46582 0.0
C840 C 0.21595 0.09941 0.4788 0.0
C841 C 0.19346 0.05292 0.46923 0.0
C842 C 0.23792 0.1186 0.47878 0.0
C843 C 0.26055 0.11231 0.46945 0.0
C844 C 0.21659 0.07367 0.46955 0.0
C845 C 0.26026 0.0864 0.45997 0.0
C846 C 0.19465 0.0269 0.46244 0.0
C847 C 0.148 0.04106 0.47348 0.0
N848 N 0.23863 0.06799 0.46033 0.0
N849 N 0.17029 0.05911 0.47484 0.0
H850 H 0.81781 0.19862 0.78175 0.0
H851 H 0.67618 0.11598 0.73048 0.0
H852 H 0.78373 0.20025 0.71487 0.0
H853 H 0.71663 0.11053 0.79349 0.0
H854 H 0.71262 0.15018 0.72597 0.0
H855 H 0.77801 0.17008 0.78796 0.0
C856 C 0.80182 0.19291 0.76834 0.0
C857 C 0.80417 0.20136 0.74758 0.0
C858 C 0.71338 0.14156 0.74083 0.0
C859 C 0.75835 0.16861 0.75457 0.0
C860 C 0.6926 0.12208 0.74345 0.0
C861 C 0.69343 0.11022 0.76233 0.0
C862 C 0.73502 0.14929 0.75726 0.0
C863 C 0.71518 0.11892 0.77858 0.0
C864 C 0.77906 0.17665 0.77191 0.0
C865 C 0.78267 0.19396 0.73104 0.0
N866 N 0.73508 0.13783 0.77561 0.0
N867 N 0.76065 0.17771 0.73478 0.0
H868 H 0.45086 0.01476 0.49552 0.0
H869 H 0.38904 0.13902 0.52572 0.0
H870 H 0.44231 0.05283 0.56529 0.0
H871 H 0.39996 0.10112 0.45644 0.0
H872 H 0.41305 0.11097 0.54099 0.0
H873 H 0.43624 0.04902 0.4813 0.0
C874 C 0.44592 0.03039 0.50785 0.0
C875 C 0.44751 0.03081 0.53159 0.0
C876 C 0.41048 0.10903 0.52246 0.0
C877 C 0.43084 0.07024 0.51546 0.0
C878 C 0.39687 0.12512 0.51373 0.0
C879 C 0.39224 0.12222 0.48975 0.0
C880 C 0.41943 0.0899 0.50709 0.0
C881 C 0.40284 0.10388 0.47504 0.0
C882 C 0.43772 0.05004 0.49974 0.0
C883 C 0.44139 0.05179 0.54684 0.0
N884 N 0.41568 0.08827 0.48394 0.0
N885 N 0.43306 0.07056 0.5385 0.0
H886 H 0.61236 0.50461 0.62332 0.0
H887 H 0.66023 0.42774 0.50853 0.0
H888 H 0.59941 0.51844 0.55516 0.0
H889 H 0.68102 0.41817 0.57683 0.0
H890 H 0.63254 0.45651 0.52514 0.0
H891 H 0.63262 0.46897 0.60648 0.0
C892 C 0.61354 0.49998 0.60479 0.0
C893 C 0.60436 0.51464 0.59063 0.0
C894 C 0.64294 0.44797 0.53653 0.0
C895 C 0.62758 0.474 0.57129 0.0
C896 C 0.65872 0.43144 0.52703 0.0
C897 C 0.67318 0.42071 0.54134 0.0
C898 C 0.64165 0.45403 0.56057 0.0
C899 C 0.67027 0.42608 0.56517 0.0
C900 C 0.6252 0.47971 0.59521 0.0
C901 C 0.6066 0.50793 0.56676 0.0
N902 N 0.65504 0.4426 0.5741 0.0
N903 N 0.61803 0.48819 0.55788 0.0
H904 H 0.74865 0.22202 0.36824 0.0
H905 H 0.71598 0.34826 0.44512 0.0
H906 H 0.76374 0.29551 0.34864 0.0
H907 H 0.74574 0.2928 0.47519 0.0
H908 H 0.71888 0.32266 0.40655 0.0
H909 H 0.7341 0.24238 0.4047 0.0
C910 C 0.74892 0.24237 0.37146 0.0
C911 C 0.758 0.25709 0.35532 0.0
C912 C 0.72427 0.31592 0.42165 0.0
C913 C 0.74022 0.2801 0.39668 0.0
C914 C 0.72243 0.33035 0.44364 0.0
C915 C 0.73088 0.32274 0.46337 0.0
C916 C 0.73413 0.29351 0.41943 0.0
C917 C 0.73926 0.29944 0.46041 0.0
C918 C 0.74035 0.25385 0.39221 0.0
C919 C 0.75682 0.28321 0.3603 0.0
N920 N 0.74081 0.28568 0.4388 0.0
N921 N 0.74819 0.29388 0.38056 0.0
H922 H 0.49797 0.0245 0.90628 0.0
H923 H 0.55252 0.06282 0.79128 0.0
H924 H 0.45487 0.05544 0.85943 0.0
H925 H 0.59775 0.03612 0.83994 0.0
H926 H 0.51702 0.06126 0.81663 0.0
H927 H 0.5353 0.03 0.88303 0.0
C928 C 0.49643 0.03271 0.89125 0.0
C929 C 0.47317 0.03942 0.88476 0.0
C930 C 0.53474 0.05584 0.82183 0.0
C931 C 0.51575 0.04541 0.85786 0.0
C932 C 0.55505 0.0567 0.80733 0.0
C933 C 0.57818 0.0495 0.81341 0.0
C934 C 0.53745 0.04763 0.84258 0.0
C935 C 0.58029 0.04181 0.83449 0.0
C936 C 0.51772 0.03569 0.8779 0.0
C937 C 0.47224 0.04961 0.8649 0.0
N938 N 0.56015 0.04097 0.84826 0.0
N939 N 0.49316 0.0522 0.85213 0.0
H940 H 0.3481 0.2648 0.33009 0.0
H941 H 0.33767 0.25228 0.4612 0.0
H942 H 0.35675 0.3306 0.38689 0.0
H943 H 0.35298 0.19186 0.40724 0.0
H944 H 0.34148 0.28076 0.43397 0.0
H945 H 0.34637 0.23713 0.35781 0.0
C946 C 0.34974 0.27349 0.34838 0.0
C947 C 0.35268 0.30017 0.3561 0.0
C948 C 0.34416 0.26132 0.42815 0.0
C949 C 0.35028 0.26841 0.38796 0.0
C950 C 0.34198 0.24504 0.44367 0.0
C951 C 0.34498 0.21961 0.43649 0.0
C952 C 0.34903 0.25203 0.40519 0.0
C953 C 0.35059 0.21132 0.41356 0.0
C954 C 0.34868 0.25763 0.36419 0.0
C955 C 0.35411 0.31016 0.38005 0.0
N956 N 0.35223 0.22742 0.39869 0.0
N957 N 0.35286 0.29428 0.39511 0.0
H958 H 0.57828 0.50697 0.8937 0.0
H959 H 0.43084 0.52197 0.87544 0.0
H960 H 0.51757 0.4775 0.93415 0.0
H961 H 0.48821 0.53278 0.82613 0.0
H962 H 0.46337 0.51093 0.90023 0.0
H963 H 0.54627 0.52127 0.87147 0.0
C964 C 0.55815 0.50358 0.89792 0.0
C965 C 0.55052 0.49112 0.91581 0.0
C966 C 0.46881 0.51588 0.88404 0.0
C967 C 0.51372 0.50743 0.89042 0.0
C968 C 0.45035 0.52238 0.86999 0.0
C969 C 0.45681 0.52819 0.84864 0.0
C970 C 0.4939 0.51547 0.87676 0.0
C971 C 0.48232 0.52826 0.84236 0.0
C972 C 0.53987 0.51168 0.88519 0.0
C973 C 0.52415 0.48691 0.92037 0.0
N974 N 0.49988 0.52194 0.85633 0.0
N975 N 0.50664 0.49515 0.9078 0.0
H976 H 0.79302 0.7733 0.17278 0.0
H977 H 0.84774 0.68115 0.07179 0.0
H978 H 0.83589 0.71735 0.1864 0.0
H979 H 0.79414 0.72912 0.061 0.0
H980 H 0.84716 0.69615 0.11376 0.0
H981 H 0.79654 0.75913 0.13164 0.0
C982 C 0.80333 0.75806 0.16707 0.0
C983 C 0.81438 0.74662 0.18303 0.0
C984 C 0.83562 0.70339 0.10214 0.0
C985 C 0.81829 0.73002 0.13572 0.0
C986 C 0.83605 0.69497 0.07823 0.0
C987 C 0.8209 0.70386 0.06291 0.0
C988 C 0.82009 0.72092 0.11063 0.0
C989 C 0.80603 0.72164 0.07214 0.0
C990 C 0.80523 0.74988 0.14354 0.0
C991 C 0.82705 0.7266 0.17462 0.0
N992 N 0.806 0.72954 0.09534 0.0
N993 N 0.82876 0.71896 0.15147 0.0
H994 H 0.01763 0.07434 0.13474 0.0
H995 H 0.99023 0.0038 0.23892 0.0
H996 H 0.07158 0.03526 0.16207 0.0
H997 H 0.95075 0.06361 0.22906 0.0
H998 H 0.01771 0.01268 0.20824 0.0
H999 H 0.99084 0.06892 0.16705 0.0
C1000 C 0.02398 0.06479 0.14757 0.0
C1001 C 0.04682 0.05499 0.14547 0.0
C1002 C 0.00312 0.02396 0.21279 0.0
C1003 C 0.01601 0.04841 0.1822 0.0
C1004 C 0.98729 0.01882 0.23025 0.0
C1005 C 0.9681 0.03296 0.23654 0.0
C1006 C -0.00037 0.0432 0.2012 0.0
C1007 C 0.96534 0.05229 0.22476 0.0
C1008 C 0.00861 0.06165 0.16595 0.0
C1009 C 0.05385 0.04256 0.16254 0.0
N1010 N 0.98085 0.05676 0.20749 0.0
N1011 N 0.03844 0.03949 0.18004 0.0
H1012 H 0.30983 0.75452 0.17928 0.0
H1013 H 0.23342 0.83941 0.11746 0.0
H1014 H 0.26991 0.81041 0.21625 0.0
H1015 H 0.27912 0.78807 0.08213 0.0
H1016 H 0.24158 0.825 0.15307 0.0
H1017 H 0.29355 0.76235 0.14286 0.0
C1018 C 0.29732 0.76817 0.17975 0.0
C1019 C 0.29141 0.78197 0.2009 0.0
C1020 C 0.24962 0.81673 0.13746 0.0
C1021 C 0.273 0.79136 0.15918 0.0
C1022 C 0.24489 0.8249 0.11711 0.0
C1023 C 0.25579 0.8151 0.09684 0.0
C1024 C 0.2653 0.79861 0.13749 0.0
C1025 C 0.27051 0.79632 0.0974 0.0
C1026 C 0.28817 0.77278 0.15893 0.0
C1027 C 0.27535 0.79966 0.20038 0.0
N1028 N 0.27496 0.78883 0.1174 0.0
N1029 N 0.26685 0.80397 0.17988 0.0
H1030 H 0.0117 0.51687 0.07987 0.0
H1031 H 0.05044 0.45505 0.18367 0.0
H1032 H 0.96652 0.44559 0.09143 0.0
H1033 H 0.06737 0.53666 0.18691 0.0
H1034 H 0.02602 0.44828 0.14583 0.0
H1035 H 0.03866 0.52158 0.11559 0.0
C1036 C 0.0073 0.50225 0.0899 0.0
C1037 C 0.98656 0.4809 0.0826 0.0
C1038 C 0.03522 0.46761 0.15487 0.0
C1039 C 0.01795 0.4859 0.12322 0.0
C1040 C 0.0492 0.47146 0.17633 0.0
C1041 C 0.06074 0.49644 0.18843 0.0
C1042 C 0.03332 0.48887 0.1454 0.0
C1043 C 0.05855 0.51709 0.17823 0.0
C1044 C 0.02286 0.50489 0.11021 0.0
C1045 C 0.98244 0.46223 0.09612 0.0
N1046 N 0.04517 0.51285 0.15729 0.0
N1047 N 0.998 0.46516 0.11576 0.0
H1048 H 0.35676 0.67467 0.2975 0.0
H1049 H 0.50926 0.72956 0.31803 0.0
H1050 H 0.39907 0.71947 0.25326 0.0
H1051 H 0.46795 0.67176 0.35131 0.0
H1052 H 0.47027 0.7238 0.29201 0.0
H1053 H 0.39788 0.67135 0.31544 0.0
C1054 C 0.37467 0.68347 0.29121 0.0
C1055 C 0.37429 0.69733 0.27368 0.0
C1056 C 0.46987 0.71209 0.30476 0.0
C1057 C 0.42181 0.69415 0.29485 0.0
C1058 C 0.49215 0.71532 0.31962 0.0
C1059 C 0.49177 0.70139 0.33714 0.0
C1060 C 0.44697 0.695 0.3076 0.0
C1061 C 0.46911 0.68309 0.33822 0.0
C1062 C 0.39825 0.68166 0.30162 0.0
C1063 C 0.39834 0.7089 0.2669 0.0
N1064 N 0.4475 0.68072 0.32391 0.0
N1065 N 0.42113 0.70724 0.27764 0.0
H1066 H 0.98688 0.3953 0.97516 0.0
H1067 H 0.00114 0.24903 0.94288 0.0
H1068 H 0.9307 0.33179 0.9892 0.0
H1069 H 0.05433 0.31126 0.92347 0.0
H1070 H 0.97837 0.27998 0.96436 0.0
H1071 H 0.01475 0.36568 0.96038 0.0
C1072 C 0.98053 0.37516 0.97537 0.0
C1073 C 0.95635 0.36597 0.98331 0.0
C1074 C 0.99515 0.28691 0.95557 0.0
C1075 C 0.98805 0.33194 0.96624 0.0
C1076 C 0.00824 0.26924 0.94332 0.0
C1077 C 0.02954 0.27752 0.93111 0.0
C1078 C 0.00332 0.31309 0.95558 0.0
C1079 C 0.03792 0.30398 0.9325 0.0
C1080 C 0.9964 0.35824 0.96682 0.0
C1081 C 0.94899 0.33964 0.98291 0.0
N1082 N 0.02463 0.32082 0.94433 0.0
N1083 N 0.96473 0.32354 0.97443 0.0
H1084 H 0.7492 0.70694 0.33078 0.0
H1085 H 0.62569 0.77203 0.342 0.0
H1086 H 0.71844 0.73871 0.27722 0.0
H1087 H 0.63593 0.71453 0.37997 0.0
H1088 H 0.6651 0.76646 0.32291 0.0
H1089 H 0.71225 0.71494 0.35311 0.0
C1090 C 0.73473 0.7155 0.32364 0.0
C1091 C 0.73713 0.72224 0.30204 0.0
C1092 C 0.6588 0.75515 0.33551 0.0
C1093 C 0.69525 0.73198 0.32782 0.0
C1094 C 0.63638 0.75842 0.34653 0.0
C1095 C 0.62739 0.74358 0.3625 0.0
C1096 C 0.67254 0.7371 0.34061 0.0
C1097 C 0.6421 0.72625 0.36766 0.0
C1098 C 0.71376 0.72019 0.33649 0.0
C1099 C 0.7179 0.7337 0.29395 0.0
N1100 N 0.66398 0.72342 0.3567 0.0
N1101 N 0.69789 0.73827 0.30686 0.0
H1102 H 0.05266 0.10497 0.0278 0.0
H1103 H 0.10523 0.18255 0.93224 0.0
H1104 H 0.12723 0.15781 0.03523 0.0
H1105 H 0.02598 0.1403 0.93047 0.0
H1106 H 0.11676 0.16599 0.9657 0.0
H1107 H 0.04586 0.11036 0.9882 0.0
C1108 C 0.06779 0.11738 0.02097 0.0
C1109 C 0.09041 0.13121 0.03493 0.0
C1110 C 0.09693 0.16005 0.95778 0.0
C1111 C 0.08267 0.13763 0.98971 0.0
C1112 C 0.09037 0.16938 0.93857 0.0
C1113 C 0.06451 0.16309 0.92874 0.0
C1114 C 0.07751 0.1443 0.96717 0.0
C1115 C 0.04609 0.1459 0.93767 0.0
C1116 C 0.06384 0.12056 0.99841 0.0
C1117 C 0.10928 0.14716 0.02522 0.0
N1118 N 0.05287 0.13734 0.95654 0.0
N1119 N 0.10491 0.15009 0.00329 0.0
H1120 H 0.37522 0.28173 0.27764 0.0
H1121 H 0.46753 0.33432 0.18732 0.0
H1122 H 0.40502 0.36309 0.28417 0.0
H1123 H 0.4695 0.26289 0.20748 0.0
H1124 H 0.43798 0.34377 0.21757 0.0
H1125 H 0.40316 0.273 0.24634 0.0
C1126 C 0.38763 0.2978 0.27261 0.0
C1127 C 0.38788 0.32323 0.2839 0.0
C1128 C 0.44495 0.32606 0.2153 0.0
C1129 C 0.41935 0.31321 0.2475 0.0
C1130 C 0.4617 0.32063 0.19805 0.0
C1131 C 0.47104 0.29784 0.19499 0.0
C1132 C 0.43708 0.3083 0.22912 0.0
C1133 C 0.46292 0.28077 0.20938 0.0
C1134 C 0.40347 0.29274 0.25464 0.0
C1135 C 0.40386 0.34319 0.27594 0.0
N1136 N 0.44625 0.28625 0.22571 0.0
N1137 N 0.41894 0.33775 0.25821 0.0
H1138 H 0.54866 0.41504 0.00929 0.0
H1139 H 0.5778 0.3274 0.09613 0.0
H1140 H 0.6024 0.3642 0.99693 0.0
H1141 H 0.50722 0.35617 0.09276 0.0
H1142 H 0.59418 0.35007 0.06612 0.0
H1143 H 0.54062 0.40268 0.04623 0.0
C1144 C 0.55911 0.40161 0.01455 0.0
C1145 C 0.57603 0.39042 -4e-05 0.0
C1146 C 0.57528 0.3517 0.07225 0.0
C1147 C 0.56687 0.37618 0.04208 0.0
C1148 C 0.56602 0.33894 0.08945 0.0
C1149 C 0.54101 0.33972 0.09673 0.0
C1150 C 0.55955 0.36556 0.06256 0.0
C1151 C 0.52649 0.35485 0.08744 0.0
C1152 C 0.55441 0.39447 0.03554 0.0
C1153 C 0.5889 0.37297 0.00754 0.0
N1154 N 0.5359 0.36705 0.07074 0.0
N1155 N 0.58396 0.36626 0.02804 0.0
H1156 H 0.73728 0.30212 0.22223 0.0
H1157 H 0.5853 0.23573 0.20118 0.0
H1158 H 0.70293 0.23131 0.24168 0.0
H1159 H 0.61881 0.30201 0.17447 0.0
H1160 H 0.62824 0.23575 0.21806 0.0
H1161 H 0.69418 0.30401 0.20618 0.0
C1162 C 0.72072 0.28694 0.22308 0.0
C1163 C 0.72376 0.26655 0.2334 0.0
C1164 C 0.62629 0.25034 0.20854 0.0
C1165 C 0.6744 0.26876 0.21528 0.0
C1166 C 0.60171 0.25037 0.1989 0.0
C1167 C 0.59844 0.26886 0.18631 0.0
C1168 C 0.64793 0.26895 0.20566 0.0
C1169 C 0.62047 0.28737 0.18401 0.0
C1170 C 0.69612 0.28812 0.21401 0.0
C1171 C 0.70153 0.24763 0.23427 0.0
N1172 N 0.64434 0.28693 0.19357 0.0
N1173 N 0.67786 0.2492 0.22534 0.0
H1174 H 0.48196 0.07808 0.03635 0.0
H1175 H 0.47593 0.22669 0.06988 0.0
H1176 H 0.44239 0.11497 0.99224 0.0
H1177 H 0.51859 0.18938 0.1114 0.0
H1178 H 0.46495 0.18671 0.04032 0.0
H1179 H 0.49776 0.11961 0.06287 0.0
C1180 C 0.47683 0.09503 0.03217 0.0
C1181 C 0.46074 0.09312 0.01218 0.0
C1182 C 0.47679 0.18734 0.05587 0.0
C1183 C 0.4785 0.14071 0.04254 0.0
C1184 C 0.48299 0.21013 0.0728 0.0
C1185 C 0.49808 0.21138 0.09324 0.0
C1186 C 0.4857 0.16566 0.05945 0.0
C1187 C 0.50681 0.18934 0.096 0.0
C1188 C 0.48583 0.11873 0.0473 0.0
C1189 C 0.45488 0.11567 0.00742 0.0
N1190 N 0.50042 0.16742 0.07936 0.0
N1191 N 0.46353 0.13853 0.02264 0.0
H1192 H 0.28768 0.33008 0.76641 0.0
H1193 H 0.36601 0.46032 0.73763 0.0
H1194 H 0.34138 0.33485 0.71328 0.0
H1195 H 0.33172 0.45829 0.80242 0.0
H1196 H 0.34775 0.41459 0.72437 0.0
H1197 H 0.29622 0.37722 0.77664 0.0
C1198 C 0.30119 0.34095 0.75688 0.0
C1199 C 0.31372 0.32838 0.73886 0.0
C1200 C 0.34397 0.42416 0.74141 0.0
C1201 C 0.32304 0.38209 0.75014 0.0
C1202 C 0.35429 0.45033 0.74896 0.0
C1203 C 0.35078 0.46306 0.77133 0.0
C1204 C 0.33013 0.41049 0.75635 0.0
C1205 C 0.33507 0.44916 0.78511 0.0
C1206 C 0.30587 0.3678 0.76262 0.0
C1207 C 0.33078 0.34351 0.72694 0.0
N1208 N 0.32561 0.42346 0.77752 0.0
N1209 N 0.33489 0.36946 0.73279 0.0
H1210 H 0.32624 0.71477 0.79791 0.0
H1211 H 0.32978 0.5875 0.84421 0.0
H1212 H 0.26626 0.67913 0.83591 0.0
H1213 H 0.37901 0.61062 0.7923 0.0
H1214 H 0.30909 0.62369 0.84398 0.0
H1215 H 0.34812 0.67895 0.7976 0.0
C1216 C 0.31757 0.69939 0.80606 0.0
C1217 C 0.29441 0.70011 0.81708 0.0
C1218 C 0.32441 0.62089 0.83262 0.0
C1219 C 0.31959 0.65934 0.81709 0.0
C1220 C 0.33633 0.60025 0.8328 0.0
C1221 C 0.35613 0.59597 0.8182 0.0
C1222 C 0.3324 0.63756 0.81784 0.0
C1223 C 0.36376 0.61317 0.80379 0.0
C1224 C 0.33016 0.67903 0.80597 0.0
C1225 C 0.28432 0.67975 0.82761 0.0
N1226 N 0.35189 0.63326 0.80398 0.0
N1227 N 0.29699 0.66032 0.82742 0.0
H1228 H 0.91195 0.51977 0.47373 0.0
H1229 H 0.77711 0.46788 0.52218 0.0
H1230 H 0.86655 0.5695 0.51183 0.0
H1231 H 0.8358 0.42233 0.51076 0.0
H1232 H 0.8081 0.50448 0.51454 0.0
H1233 H 0.88251 0.48258 0.48302 0.0
C1234 C 0.89578 0.52279 0.48401 0.0
C1235 C 0.89166 0.54764 0.49215 0.0
C1236 C 0.81427 0.48653 0.51384 0.0
C1237 C 0.85807 0.50555 0.50262 0.0
C1238 C 0.79658 0.46562 0.51815 0.0
C1239 C 0.80392 0.44206 0.51711 0.0
C1240 C 0.83937 0.48379 0.50805 0.0
C1241 C 0.82943 0.44023 0.51186 0.0
C1242 C 0.87915 0.50168 0.48942 0.0
C1243 C 0.87053 0.55065 0.50545 0.0
N1244 N 0.84623 0.4608 0.50729 0.0
N1245 N 0.85444 0.52985 0.51016 0.0
H1246 H 0.81512 0.98305 0.86458 0.0
H1247 H 0.68673 0.96781 0.78145 0.0
H1248 H 0.76726 0.90841 0.83403 0.0
H1249 H 0.72026 0.03539 0.83408 0.0
H1250 H 0.71948 0.94598 0.7947 0.0
H1251 H 0.7844 0.00296 0.8468 0.0
C1252 C 0.79814 0.97081 0.85409 0.0
C1253 C 0.79353 0.94401 0.8512 0.0
C1254 C 0.71955 0.96559 0.80325 0.0
C1255 C 0.75829 0.96679 0.83051 0.0
C1256 C 0.70094 0.97803 0.79573 0.0
C1257 C 0.70069 0.0034 0.80677 0.0
C1258 C 0.73822 0.97886 0.82159 0.0
C1259 C 0.71955 0.01578 0.82515 0.0
C1260 C 0.78063 0.98221 0.8439 0.0
C1261 C 0.77158 0.92914 0.83677 0.0
N1262 N 0.73754 0.00345 0.83187 0.0
N1263 N 0.75461 0.94074 0.82707 0.0
H1264 H 0.62202 0.54387 0.97345 0.0
H1265 H 0.77185 0.57584 0.94754 0.0
H1266 H 0.66237 0.48579 0.94162 0.0
H1267 H 0.73429 0.6294 0.99105 0.0
H1268 H 0.73179 0.54274 0.94397 0.0
H1269 H 0.66316 0.57561 0.97969 0.0
C1270 C 0.63968 0.53781 0.96802 0.0
C1271 C 0.6389 0.51228 0.957 0.0
C1272 C 0.73239 0.56174 0.95432 0.0
C1273 C 0.68595 0.54845 0.96371 0.0
C1274 C 0.75517 0.58069 0.95623 0.0
C1275 C 0.75641 0.60545 0.96956 0.0
C1276 C 0.7107 0.56771 0.96569 0.0
C1277 C 0.73426 0.61059 0.98058 0.0
C1278 C 0.66314 0.55589 0.97154 0.0
C1279 C 0.66227 0.50529 0.95034 0.0
N1280 N 0.71234 0.59192 0.97835 0.0
N1281 N 0.68487 0.52337 0.95358 0.0
H1282 H 0.25806 0.66569 0.22374 0.0
H1283 H 0.19435 0.56286 0.29582 0.0
H1284 H 0.29274 0.65681 0.28797 0.0
H1285 H 0.15602 0.57272 0.23352 0.0
H1286 H 0.23056 0.59749 0.29284 0.0
H1287 H 0.22019 0.63206 0.22672 0.0
C1288 C 0.25768 0.65672 0.23845 0.0
C1289 C 0.27873 0.6638 0.25545 0.0
C1290 C 0.21423 0.59215 0.27981 0.0
C1291 C 0.2357 0.62545 0.25896 0.0
C1292 C 0.19351 0.57232 0.28151 0.0
C1293 C 0.17209 0.56481 0.26489 0.0
C1294 C 0.21365 0.60461 0.26133 0.0
C1295 C 0.17213 0.57786 0.24674 0.0
C1296 C 0.23614 0.6375 0.24011 0.0
C1297 C 0.27726 0.65155 0.27416 0.0
N1298 N 0.19263 0.5971 0.24541 0.0
N1299 N 0.2562 0.63299 0.27536 0.0
H1300 H 0.9476 0.50817 0.99183 0.0
H1301 H 0.88148 0.62913 0.0268 0.0
H1302 H 0.9316 0.53843 0.06171 0.0
H1303 H 0.89669 0.59699 0.95708 0.0
H1304 H 0.905 0.59997 0.04088 0.0
H1305 H 0.93382 0.544 0.97972 0.0
C1306 C 0.94121 0.52242 0.00464 0.0
C1307 C 0.94041 0.52014 0.02775 0.0
C1308 C 0.90346 0.59954 0.02253 0.0
C1309 C 0.92467 0.56137 0.01404 0.0
C1310 C 0.89014 0.61626 0.01449 0.0
C1311 C 0.88687 0.6153 0.99069 0.0
C1312 C 0.91352 0.58173 0.00665 0.0
C1313 C 0.89851 0.59825 0.97555 0.0
C1314 C 0.93347 0.54297 0.99775 0.0
C1315 C 0.93251 0.53947 0.04372 0.0
N1316 N 0.91107 0.58199 0.98376 0.0
N1317 N 0.92468 0.55915 0.03652 0.0
H1318 H 0.07348 0.98634 0.09175 0.0
H1319 H 0.19618 0.95114 0.02876 0.0
H1320 H 0.13907 0.04361 0.08077 0.0
H1321 H 0.15567 0.90335 0.07154 0.0
H1322 H 0.16933 0.9824 0.04093 0.0
H1323 H 0.098 0.95306 0.07829 0.0
C1324 C 0.09296 0.99204 0.08659 0.0
C1325 C 0.10411 0.01804 0.08749 0.0
C1326 C 0.16625 0.96503 0.04759 0.0
C1327 C 0.13181 0.97982 0.07144 0.0
C1328 C 0.18147 0.94709 0.04058 0.0
C1329 C 0.17821 0.92462 0.04923 0.0
C1330 C 0.1473 0.96037 0.06308 0.0
C1331 C 0.15887 0.92049 0.06456 0.0
C1332 C 0.10684 0.97296 0.07882 0.0
C1333 C 0.12927 0.02394 0.07999 0.0
N1334 N 0.14401 0.93821 0.07098 0.0
N1335 N 0.14216 0.00501 0.07221 0.0
loop_
_geom_bond_atom_site_label_1
_geom_bond_atom_site_label_2
_geom_bond_distance
_geom_bond_site_symmetry_2
_ccdc_geom_bond_type
H0 C1 0.949 . S
C1 H0 0.949 . S
C1 C2 1.395 . S
C1 C3 1.391 . S
C2 C1 1.395 . S
C2 C5 1.390 . S
C3 C1 1.391 . S
C3 C7 1.387 . S
C3 C8 1.491 . S
H4 C5 0.950 . S
C5 C2 1.390 . S
C5 H4 0.950 . S
C5 C6 1.378 . S
C6 C5 1.378 . S
C6 C7 1.409 . S
C7 C3 1.387 . S
C7 C6 1.409 . S
C7 H9 0.951 . S
C8 C3 1.491 . S
C8 C10 1.382 . S
C8 C12 1.404 . S
H9 C7 0.951 . S
C10 C8 1.382 . S
C10 C11 1.390 . S
C10 H15 0.949 . S
C11 C10 1.390 . S
C11 C16 1.399 . S
C12 C8 1.404 . S
C12 H13 0.950 . S
C12 C14 1.375 . S
H13 C12 0.950 . S
C14 C12 1.375 . S
C14 C16 1.382 . S
C14 H18 0.950 . S
H15 C10 0.949 . S
C16 C11 1.399 . S
C16 C14 1.382 . S
C16 H17 0.952 . S
H17 C16 0.952 . S
H18 C14 0.950 . S
H19 C20 0.949 . S
C20 H19 0.949 . S
C20 C21 1.395 . S
C20 C22 1.391 . S
C21 C20 1.395 . S
C21 C24 1.390 . S
C22 C20 1.391 . S
C22 C26 1.387 . S
C22 C27 1.491 . S
H23 C24 0.950 . S
C24 C21 1.390 . S
C24 H23 0.950 . S
C24 C25 1.378 . S
C25 C24 1.378 . S
C25 C26 1.409 . S
C26 C22 1.387 . S
C26 C25 1.409 . S
C26 H28 0.951 . S
C27 C22 1.491 . S
C27 C29 1.382 . S
C27 C31 1.404 . S
H28 C26 0.951 . S
C29 C27 1.382 . S
C29 C30 1.390 . S
C29 H34 0.949 . S
C30 C29 1.390 . S
C30 C35 1.399 . S
C31 C27 1.404 . S
C31 H32 0.950 . S
C31 C33 1.375 . S
H32 C31 0.950 . S
C33 C31 1.375 . S
C33 C35 1.382 . S
C33 H37 0.950 . S
H34 C29 0.949 . S
C35 C30 1.399 . S
C35 C33 1.382 . S
C35 H36 0.952 . S
H36 C35 0.952 . S
H37 C33 0.950 . S
H38 C39 0.949 . S
C39 H38 0.949 . S
C39 C40 1.395 . S
C39 C41 1.391 . S
C40 C39 1.395 . S
C40 C43 1.390 . S
C41 C39 1.391 . S
C41 C45 1.387 . S
C41 C46 1.491 . S
H42 C43 0.950 . S
C43 C40 1.390 . S
C43 H42 0.950 . S
C43 C44 1.378 . S
C44 C43 1.378 . S
C44 C45 1.409 . S
C45 C41 1.387 . S
C45 C44 1.409 . S
C45 H47 0.951 . S
C46 C41 1.491 . S
C46 C48 1.382 . S
C46 C50 1.404 1_554 S
H47 C45 0.951 . S
C48 C46 1.382 . S
C48 C49 1.390 1_554 S
C48 H53 0.949 . S
C49 C48 1.390 1_556 S
C49 C54 1.399 . S
C50 C46 1.404 1_556 S
C50 H51 0.950 . S
C50 C52 1.375 . S
H51 C50 0.950 . S
C52 C50 1.375 . S
C52 C54 1.382 . S
C52 H56 0.950 . S
H53 C48 0.949 . S
C54 C49 1.399 . S
C54 C52 1.382 . S
C54 H55 0.952 . S
H55 C54 0.952 . S
H56 C52 0.950 . S
H57 C58 0.949 . S
C58 H57 0.949 . S
C58 C59 1.395 . S
C58 C60 1.391 . S
C59 C58 1.395 . S
C59 C62 1.390 . S
C60 C58 1.391 . S
C60 C64 1.387 . S
C60 C65 1.491 . S
H61 C62 0.950 . S
C62 C59 1.390 . S
C62 H61 0.950 . S
C62 C63 1.378 . S
C63 C62 1.378 . S
C63 C64 1.409 . S
C64 C60 1.387 . S
C64 C63 1.409 . S
C64 H66 0.951 . S
C65 C60 1.491 . S
C65 C67 1.382 . S
C65 C69 1.404 . S
H66 C64 0.951 . S
C67 C65 1.382 . S
C67 C68 1.390 . S
C67 H72 0.949 . S
C68 C67 1.390 . S
C68 C73 1.399 . S
C69 C65 1.404 . S
C69 H70 0.950 . S
C69 C71 1.375 . S
H70 C69 0.950 . S
C71 C69 1.375 . S
C71 C73 1.382 . S
C71 H75 0.950 . S
H72 C67 0.949 . S
C73 C68 1.399 . S
C73 C71 1.382 . S
C73 H74 0.952 . S
H74 C73 0.952 . S
H75 C71 0.950 . S
H76 C77 0.949 . S
C77 H76 0.949 . S
C77 C78 1.395 . S
C77 C79 1.391 . S
C78 C77 1.395 . S
C78 C81 1.390 . S
C79 C77 1.391 . S
C79 C83 1.387 . S
C79 C84 1.491 . S
H80 C81 0.950 . S
C81 C78 1.390 . S
C81 H80 0.950 . S
C81 C82 1.378 . S
C82 C81 1.378 . S
C82 C83 1.409 . S
C83 C79 1.387 . S
C83 C82 1.409 . S
C83 H85 0.951 . S
C84 C79 1.491 . S
C84 C86 1.382 . S
C84 C88 1.404 . S
H85 C83 0.951 . S
C86 C84 1.382 . S
C86 C87 1.390 . S
C86 H91 0.949 . S
C87 C86 1.390 . S
C87 C92 1.399 . S
C88 C84 1.404 . S
C88 H89 0.950 . S
C88 C90 1.375 . S
H89 C88 0.950 . S
C90 C88 1.375 . S
C90 C92 1.382 . S
C90 H94 0.950 . S
H91 C86 0.949 . S
C92 C87 1.399 . S
C92 C90 1.382 . S
C92 H93 0.952 . S
H93 C92 0.952 . S
H94 C90 0.950 . S
H95 C96 0.949 . S
C96 H95 0.949 . S
C96 C97 1.395 . S
C96 C98 1.391 . S
C97 C96 1.395 . S
C97 C100 1.390 . S
C98 C96 1.391 . S
C98 C102 1.387 . S
C98 C103 1.491 . S
H99 C100 0.950 . S
C100 C97 1.390 . S
C100 H99 0.950 . S
C100 C101 1.378 . S
C101 C100 1.378 . S
C101 C102 1.409 . S
C102 C98 1.387 . S
C102 C101 1.409 . S
C102 H104 0.951 . S
C103 C98 1.491 . S
C103 C105 1.382 . S
C103 C107 1.404 . S
H104 C102 0.951 . S
C105 C103 1.382 . S
C105 C106 1.390 . S
C105 H110 0.949 . S
C106 C105 1.390 . S
C106 C111 1.399 . S
C107 C103 1.404 . S
C107 H108 0.950 . S
C107 C109 1.375 . S
H108 C107 0.950 . S
C109 C107 1.375 . S
C109 C111 1.382 . S
C109 H113 0.950 . S
H110 C105 0.949 . S
C111 C106 1.399 . S
C111 C109 1.382 . S
C111 H112 0.952 . S
H112 C111 0.952 . S
H113 C109 0.950 . S
H114 C115 0.949 . S
C115 H114 0.949 . S
C115 C116 1.395 . S
C115 C117 1.391 . S
C116 C115 1.395 . S
C116 C119 1.390 . S
C117 C115 1.391 . S
C117 C121 1.387 . S
C117 C122 1.491 . S
H118 C119 0.950 . S
C119 C116 1.390 . S
C119 H118 0.950 . S
C119 C120 1.378 . S
C120 C119 1.378 . S
C120 C121 1.409 . S
C121 C117 1.387 . S
C121 C120 1.409 . S
C121 H123 0.951 . S
C122 C117 1.491 . S
C122 C124 1.382 . S
C122 C126 1.404 . S
H123 C121 0.951 . S
C124 C122 1.382 . S
C124 C125 1.390 . S
C124 H129 0.949 . S
C125 C124 1.390 . S
C125 C130 1.399 . S
C126 C122 1.404 . S
C126 H127 0.950 . S
C126 C128 1.375 . S
H127 C126 0.950 . S
C128 C126 1.375 . S
C128 C130 1.382 . S
C128 H132 0.950 . S
H129 C124 0.949 . S
C130 C125 1.399 . S
C130 C128 1.382 . S
C130 H131 0.952 . S
H131 C130 0.952 . S
H132 C128 0.950 . S
H133 C134 0.949 . S
C134 H133 0.949 . S
C134 C135 1.395 . S
C134 C136 1.391 . S
C135 C134 1.395 . S
C135 C138 1.390 . S
C136 C134 1.391 . S
C136 C140 1.387 . S
C136 C141 1.491 . S
H137 C138 0.950 . S
C138 C135 1.390 . S
C138 H137 0.950 . S
C138 C139 1.378 . S
C139 C138 1.378 . S
C139 C140 1.409 . S
C140 C136 1.387 . S
C140 C139 1.409 . S
C140 H142 0.951 . S
C141 C136 1.491 . S
C141 C143 1.382 . S
C141 C145 1.404 . S
H142 C140 0.951 . S
C143 C141 1.382 . S
C143 C144 1.390 . S
C143 H148 0.949 . S
C144 C143 1.390 . S
C144 C149 1.399 . S
C145 C141 1.404 . S
C145 H146 0.950 . S
C145 C147 1.375 . S
H146 C145 0.950 . S
C147 C145 1.375 . S
C147 C149 1.382 . S
C147 H151 0.950 . S
H148 C143 0.949 . S
C149 C144 1.399 . S
C149 C147 1.382 . S
C149 H150 0.952 . S
H150 C149 0.952 . S
H151 C147 0.950 . S
H152 C153 0.949 . S
C153 H152 0.949 . S
C153 C154 1.395 . S
C153 C155 1.391 . S
C154 C153 1.395 . S
C154 C157 1.390 . S
C155 C153 1.391 . S
C155 C159 1.387 . S
C155 C160 1.491 . S
H156 C157 0.950 . S
C157 C154 1.390 . S
C157 H156 0.950 . S
C157 C158 1.378 . S
C158 C157 1.378 . S
C158 C159 1.409 . S
C159 C155 1.387 . S
C159 C158 1.409 . S
C159 H161 0.951 . S
C160 C155 1.491 . S
C160 C162 1.382 . S
C160 C164 1.404 . S
H161 C159 0.951 . S
C162 C160 1.382 . S
C162 C163 1.390 . S
C162 H167 0.949 . S
C163 C162 1.390 . S
C163 C168 1.399 . S
C164 C160 1.404 . S
C164 H165 0.950 . S
C164 C166 1.375 . S
H165 C164 0.950 . S
C166 C164 1.375 . S
C166 C168 1.382 . S
C166 H170 0.950 . S
H167 C162 0.949 . S
C168 C163 1.399 . S
C168 C166 1.382 . S
C168 H169 0.952 . S
H169 C168 0.952 . S
H170 C166 0.950 . S
H171 C172 0.949 . S
C172 H171 0.949 . S
C172 C173 1.395 . S
C172 C174 1.391 . S
C173 C172 1.395 . S
C173 C176 1.390 . S
C174 C172 1.391 . S
C174 C178 1.387 . S
C174 C179 1.491 . S
H175 C176 0.950 . S
C176 C173 1.390 . S
C176 H175 0.950 . S
C176 C177 1.378 . S
C177 C176 1.378 . S
C177 C178 1.409 . S
C178 C174 1.387 . S
C178 C177 1.409 . S
C178 H180 0.951 . S
C179 C174 1.491 . S
C179 C181 1.382 . S
C179 C183 1.404 . S
H180 C178 0.951 . S
C181 C179 1.382 . S
C181 C182 1.390 . S
C181 H186 0.949 . S
C182 C181 1.390 . S
C182 C187 1.399 . S
C183 C179 1.404 . S
C183 H184 0.950 . S
C183 C185 1.375 . S
H184 C183 0.950 . S
C185 C183 1.375 . S
C185 C187 1.382 . S
C185 H189 0.950 . S
H186 C181 0.949 . S
C187 C182 1.399 . S
C187 C185 1.382 . S
C187 H188 0.952 . S
H188 C187 0.952 . S
H189 C185 0.950 . S
H190 C191 0.949 . S
C191 H190 0.949 . S
C191 C192 1.395 . S
C191 C193 1.391 . S
C192 C191 1.395 . S
C192 C195 1.390 . S
C193 C191 1.391 . S
C193 C197 1.387 . S
C193 C198 1.491 . S
H194 C195 0.950 . S
C195 C192 1.390 . S
C195 H194 0.950 . S
C195 C196 1.378 . S
C196 C195 1.378 . S
C196 C197 1.409 . S
C197 C193 1.387 . S
C197 C196 1.409 . S
C197 H199 0.951 . S
C198 C193 1.491 . S
C198 C200 1.382 . S
C198 C202 1.404 . S
H199 C197 0.951 . S
C200 C198 1.382 . S
C200 C201 1.390 . S
C200 H205 0.949 . S
C201 C200 1.390 . S
C201 C206 1.399 . S
C202 C198 1.404 . S
C202 H203 0.950 . S
C202 C204 1.375 . S
H203 C202 0.950 . S
C204 C202 1.375 . S
C204 C206 1.382 . S
C204 H208 0.950 . S
H205 C200 0.949 . S
C206 C201 1.399 . S
C206 C204 1.382 . S
C206 H207 0.952 . S
H207 C206 0.952 . S
H208 C204 0.950 . S
H209 C210 0.949 . S
C210 H209 0.949 . S
C210 C211 1.395 . S
C210 C212 1.391 . S
C211 C210 1.395 . S
C211 C214 1.390 . S
C212 C210 1.391 . S
C212 C216 1.387 . S
C212 C217 1.491 . S
H213 C214 0.950 . S
C214 C211 1.390 . S
C214 H213 0.950 . S
C214 C215 1.378 . S
C215 C214 1.378 . S
C215 C216 1.409 . S
C216 C212 1.387 . S
C216 C215 1.409 . S
C216 H218 0.951 . S
C217 C212 1.491 . S
C217 C219 1.382 . S
C217 C221 1.404 . S
H218 C216 0.951 . S
C219 C217 1.382 . S
C219 C220 1.390 . S
C219 H224 0.949 . S
C220 C219 1.390 . S
C220 C225 1.399 . S
C221 C217 1.404 . S
C221 H222 0.950 . S
C221 C223 1.375 . S
H222 C221 0.950 . S
C223 C221 1.375 . S
C223 C225 1.382 . S
C223 H227 0.950 . S
H224 C219 0.949 . S
C225 C220 1.399 . S
C225 C223 1.382 . S
C225 H226 0.952 . S
H226 C225 0.952 . S
H227 C223 0.950 . S
H228 C229 0.949 . S
C229 H228 0.949 . S
C229 C230 1.395 . S
C229 C231 1.391 . S
C230 C229 1.395 . S
C230 C233 1.390 . S
C231 C229 1.391 . S
C231 C235 1.387 . S
C231 C236 1.491 . S
H232 C233 0.950 . S
C233 C230 1.390 . S
C233 H232 0.950 . S
C233 C234 1.378 . S
C234 C233 1.378 . S
C234 C235 1.409 . S
C235 C231 1.387 . S
C235 C234 1.409 . S
C235 H237 0.951 . S
C236 C231 1.491 . S
C236 C238 1.382 . S
C236 C240 1.404 . S
H237 C235 0.951 . S
C238 C236 1.382 . S
C238 C239 1.390 . S
C238 H243 0.949 . S
C239 C238 1.390 . S
C239 C244 1.399 . S
C240 C236 1.404 . S
C240 H241 0.950 . S
C240 C242 1.375 . S
H241 C240 0.950 . S
C242 C240 1.375 . S
C242 C244 1.382 . S
C242 H246 0.950 . S
H243 C238 0.949 . S
C244 C239 1.399 . S
C244 C242 1.382 . S
C244 H245 0.952 . S
H245 C244 0.952 . S
H246 C242 0.950 . S
H247 C248 0.949 . S
C248 H247 0.949 . S
C248 C249 1.395 . S
C248 C250 1.391 . S
C249 C248 1.395 . S
C249 C252 1.390 . S
C250 C248 1.391 . S
C250 C254 1.387 . S
C250 C255 1.491 . S
H251 C252 0.950 . S
C252 C249 1.390 . S
C252 H251 0.950 . S
C252 C253 1.378 . S
C253 C252 1.378 . S
C253 C254 1.409 . S
C254 C250 1.387 . S
C254 C253 1.409 . S
C254 H256 0.951 . S
C255 C250 1.491 . S
C255 C257 1.382 . S
C255 C259 1.404 . S
H256 C254 0.951 . S
C257 C255 1.382 . S
C257 C258 1.390 . S
C257 H262 0.949 . S
C258 C257 1.390 . S
C258 C263 1.399 . S
C259 C255 1.404 . S
C259 H260 0.950 . S
C259 C261 1.375 . S
H260 C259 0.950 . S
C261 C259 1.375 . S
C261 C263 1.382 . S
C261 H265 0.950 . S
H262 C257 0.949 . S
C263 C258 1.399 . S
C263 C261 1.382 . S
C263 H264 0.952 . S
H264 C263 0.952 . S
H265 C261 0.950 . S
H266 C267 0.949 . S
C267 H266 0.949 . S
C267 C268 1.395 . S
C267 C269 1.391 . S
C268 C267 1.395 . S
C268 C271 1.390 . S
C269 C267 1.391 . S
C269 C273 1.387 . S
C269 C274 1.491 . S
H270 C271 0.950 . S
C271 C268 1.390 . S
C271 H270 0.950 . S
C271 C272 1.378 . S
C272 C271 1.378 . S
C272 C273 1.409 . S
C273 C269 1.387 . S
C273 C272 1.409 . S
C273 H275 0.951 . S
C274 C269 1.491 . S
C274 C276 1.382 . S
C274 C278 1.404 . S
H275 C273 0.951 . S
C276 C274 1.382 . S
C276 C277 1.390 . S
C276 H281 0.949 . S
C277 C276 1.390 . S
C277 C282 1.399 . S
C278 C274 1.404 . S
C278 H279 0.950 . S
C278 C280 1.375 . S
H279 C278 0.950 . S
C280 C278 1.375 . S
C280 C282 1.382 . S
C280 H284 0.950 . S
H281 C276 0.949 . S
C282 C277 1.399 . S
C282 C280 1.382 . S
C282 H283 0.952 . S
H283 C282 0.952 . S
H284 C280 0.950 . S
H285 C286 0.949 . S
C286 H285 0.949 . S
C286 C287 1.395 . S
C286 C288 1.391 . S
C287 C286 1.395 . S
C287 C290 1.390 . S
C288 C286 1.391 . S
C288 C292 1.387 . S
C288 C293 1.491 . S
H289 C290 0.950 . S
C290 C287 1.390 . S
C290 H289 0.950 . S
C290 C291 1.378 . S
C291 C290 1.378 . S
C291 C292 1.409 . S
C292 C288 1.387 . S
C292 C291 1.409 . S
C292 H294 0.951 . S
C293 C288 1.491 . S
C293 C295 1.382 . S
C293 C297 1.404 . S
H294 C292 0.951 . S
C295 C293 1.382 . S
C295 C296 1.390 . S
C295 H300 0.949 . S
C296 C295 1.390 . S
C296 C301 1.399 . S
C297 C293 1.404 . S
C297 H298 0.950 . S
C297 C299 1.375 . S
H298 C297 0.950 . S
C299 C297 1.375 . S
C299 C301 1.382 . S
C299 H303 0.950 . S
H300 C295 0.949 . S
C301 C296 1.399 . S
C301 C299 1.382 . S
C301 H302 0.952 . S
H302 C301 0.952 . S
H303 C299 0.950 . S
O304 Cd305 2.223 . S
O304 C312 1.315 . S
Cd305 O304 2.223 . S
Cd305 O308 2.297 . S
Cd305 O309 2.439 . S
Cd305 O315 2.240 . S
Cd306 O307 2.240 . S
Cd306 O314 2.223 . S
Cd306 O316 2.297 . S
Cd306 O317 2.439 . S
O307 Cd306 2.240 . S
O307 C312 1.279 . S
O308 Cd305 2.297 . S
O308 C310 1.247 . S
O309 Cd305 2.439 . S
O309 C310 1.208 . S
C310 O308 1.247 . S
C310 O309 1.208 . S
C311 O316 1.247 . S
C311 O317 1.208 . S
C312 O304 1.315 . S
C312 O307 1.279 . S
C313 O314 1.315 . S
C313 O315 1.279 . S
O314 Cd306 2.223 . S
O314 C313 1.315 . S
O315 Cd305 2.240 . S
O315 C313 1.279 . S
O316 Cd306 2.297 . S
O316 C311 1.247 . S
O317 Cd306 2.439 . S
O317 C311 1.208 . S
O318 Cd319 2.223 . S
O318 C326 1.315 . S
Cd319 O318 2.223 . S
Cd319 O322 2.297 . S
Cd319 O323 2.439 . S
Cd319 O329 2.240 . S
Cd320 O321 2.240 . S
Cd320 O328 2.223 . S
Cd320 O330 2.297 . S
Cd320 O331 2.439 . S
O321 Cd320 2.240 . S
O321 C326 1.279 . S
O322 Cd319 2.297 . S
O322 C324 1.247 . S
O323 Cd319 2.439 . S
O323 C324 1.208 . S
C324 O322 1.247 . S
C324 O323 1.208 . S
C325 O330 1.247 . S
C325 O331 1.208 . S
C326 O318 1.315 . S
C326 O321 1.279 . S
C327 O328 1.315 . S
C327 O329 1.279 . S
O328 Cd320 2.223 . S
O328 C327 1.315 . S
O329 Cd319 2.240 . S
O329 C327 1.279 . S
O330 Cd320 2.297 . S
O330 C325 1.247 . S
O331 Cd320 2.439 . S
O331 C325 1.208 . S
O332 Cd333 2.223 1_556 S
O332 C340 1.315 . S
Cd333 O332 2.223 1_554 S
Cd333 O336 2.297 . S
Cd333 O337 2.439 . S
Cd333 O343 2.236 1_554 S
Cd334 O335 2.240 . S
Cd334 O342 2.223 . S
Cd334 O344 2.297 . S
Cd334 O345 2.439 1_556 S
O335 Cd334 2.240 . S
O335 C340 1.279 . S
O336 Cd333 2.297 . S
O336 C338 1.247 . S
O337 Cd333 2.439 . S
O337 C338 1.208 . S
C338 O336 1.247 . S
C338 O337 1.208 . S
C339 O344 1.247 1_554 S
C339 O345 1.208 . S
C340 O332 1.315 . S
C340 O335 1.279 . S
C341 O342 1.315 . S
C341 O343 1.297 . S
O342 Cd334 2.223 . S
O342 C341 1.315 . S
O343 Cd333 2.236 1_556 S
O343 C341 1.297 . S
O344 Cd334 2.297 . S
O344 C339 1.247 1_556 S
O345 Cd334 2.439 1_554 S
O345 C339 1.208 . S
O346 Cd347 2.223 1_455 S
O346 C354 1.315 . S
Cd347 O346 2.223 1_655 S
Cd347 O350 2.297 1_655 S
Cd347 O351 2.439 1_655 S
Cd347 O357 2.240 . S
Cd348 O349 2.282 . S
Cd348 O356 2.223 . S
Cd348 O358 2.297 . S
Cd348 O359 2.439 . S
O349 Cd348 2.282 . S
O349 C354 1.259 1_655 S
O350 Cd347 2.297 1_455 S
O350 C352 1.247 . S
O351 Cd347 2.439 1_455 S
O351 C352 1.208 . S
C352 O350 1.247 . S
C352 O351 1.208 . S
C353 O358 1.247 . S
C353 O359 1.208 . S
C354 O346 1.315 . S
C354 O349 1.259 1_455 S
C355 O356 1.315 . S
C355 O357 1.279 . S
O356 Cd348 2.223 . S
O356 C355 1.315 . S
O357 Cd347 2.240 . S
O357 C355 1.279 . S
O358 Cd348 2.297 . S
O358 C353 1.247 . S
O359 Cd348 2.439 . S
O359 C353 1.208 . S
O360 Cd361 2.223 . S
O360 C368 1.315 . S
Cd361 O360 2.223 . S
Cd361 O364 2.297 . S
Cd361 O365 2.439 . S
Cd361 O371 2.240 . S
Cd362 O363 2.240 . S
Cd362 O370 2.223 . S
Cd362 O372 2.297 . S
Cd362 O373 2.439 . S
O363 Cd362 2.240 . S
O363 C368 1.279 . S
O364 Cd361 2.297 . S
O364 C366 1.247 . S
O365 Cd361 2.439 . S
O365 C366 1.208 . S
C366 O364 1.247 . S
C366 O365 1.208 . S
C367 O372 1.247 . S
C367 O373 1.208 . S
C368 O360 1.315 . S
C368 O363 1.279 . S
C369 O370 1.315 . S
C369 O371 1.279 . S
O370 Cd362 2.223 . S
O370 C369 1.315 . S
O371 Cd361 2.240 . S
O371 C369 1.279 . S
O372 Cd362 2.297 . S
O372 C367 1.247 . S
O373 Cd362 2.439 . S
O373 C367 1.208 . S
O374 Cd375 2.223 . S
O374 C382 1.315 . S
Cd375 O374 2.223 . S
Cd375 O378 2.297 . S
Cd375 O379 2.439 . S
Cd375 O385 2.240 . S
Cd376 O377 2.240 . S
Cd376 O384 2.223 . S
Cd376 O386 2.297 . S
Cd376 O387 2.439 . S
O377 Cd376 2.240 . S
O377 C382 1.279 . S
O378 Cd375 2.297 . S
O378 C380 1.247 . S
O379 Cd375 2.439 . S
O379 C380 1.208 . S
C380 O378 1.247 . S
C380 O379 1.208 . S
C381 O386 1.247 . S
C381 O387 1.208 . S
C382 O374 1.315 . S
C382 O377 1.279 . S
C383 O384 1.315 . S
C383 O385 1.279 . S
O384 Cd376 2.223 . S
O384 C383 1.315 . S
O385 Cd375 2.240 . S
O385 C383 1.279 . S
O386 Cd376 2.297 . S
O386 C381 1.247 . S
O387 Cd376 2.439 . S
O387 C381 1.208 . S
O388 Cd389 2.223 . S
O388 C396 1.315 . S
Cd389 O388 2.223 . S
Cd389 O392 2.297 . S
Cd389 O393 2.439 . S
Cd389 O399 2.240 . S
Cd390 O391 2.240 . S
Cd390 O398 2.223 . S
Cd390 O400 2.297 . S
Cd390 O401 2.439 . S
O391 Cd390 2.240 . S
O391 C396 1.279 . S
O392 Cd389 2.297 . S
O392 C394 1.247 . S
O393 Cd389 2.439 . S
O393 C394 1.208 . S
C394 O392 1.247 . S
C394 O393 1.208 . S
C395 O400 1.247 . S
C395 O401 1.208 . S
C396 O388 1.315 . S
C396 O391 1.279 . S
C397 O398 1.315 . S
C397 O399 1.279 . S
O398 Cd390 2.223 . S
O398 C397 1.315 . S
O399 Cd389 2.240 . S
O399 C397 1.279 . S
O400 Cd390 2.297 . S
O400 C395 1.247 . S
O401 Cd390 2.439 . S
O401 C395 1.208 . S
O402 Cd403 2.223 1_545 S
O402 C410 1.315 . S
Cd403 O402 2.223 1_565 S
Cd403 O406 2.297 . S
Cd403 O407 2.439 . S
Cd403 O413 2.240 1_565 S
Cd404 O405 2.240 . S
Cd404 O412 2.223 . S
Cd404 O414 2.293 1_545 S
Cd404 O415 2.439 1_545 S
O405 Cd404 2.240 . S
O405 C410 1.279 . S
O406 Cd403 2.297 . S
O406 C408 1.247 . S
O407 Cd403 2.439 . S
O407 C408 1.208 . S
C408 O406 1.247 . S
C408 O407 1.208 . S
C409 O414 1.272 . S
C409 O415 1.208 . S
C410 O402 1.315 . S
C410 O405 1.279 . S
C411 O412 1.315 . S
C411 O413 1.279 . S
O412 Cd404 2.223 . S
O412 C411 1.315 . S
O413 Cd403 2.240 1_545 S
O413 C411 1.279 . S
O414 Cd404 2.293 1_565 S
O414 C409 1.272 . S
O415 Cd404 2.439 1_565 S
O415 C409 1.208 . S
O416 Cd417 2.223 . S
O416 C424 1.315 . S
Cd417 O416 2.223 . S
Cd417 O420 2.297 1_655 S
Cd417 O421 2.439 1_655 S
Cd417 O427 2.240 . S
Cd418 O419 2.240 . S
Cd418 O426 2.223 1_455 S
Cd418 O428 2.297 . S
Cd418 O429 2.439 . S
O419 Cd418 2.240 . S
O419 C424 1.279 1_455 S
O420 Cd417 2.297 1_455 S
O420 C422 1.247 . S
O421 Cd417 2.439 1_455 S
O421 C422 1.208 . S
C422 O420 1.247 . S
C422 O421 1.208 . S
C423 O428 1.247 . S
C423 O429 1.208 . S
C424 O416 1.315 . S
C424 O419 1.279 1_655 S
C425 O426 1.315 . S
C425 O427 1.279 . S
O426 Cd418 2.223 1_655 S
O426 C425 1.315 . S
O427 Cd417 2.240 . S
O427 C425 1.279 . S
O428 Cd418 2.297 . S
O428 C423 1.247 . S
O429 Cd418 2.439 . S
O429 C423 1.208 . S
O430 Cd431 2.223 . S
O430 C438 1.315 . S
Cd431 O430 2.223 . S
Cd431 O434 2.297 . S
Cd431 O435 2.439 . S
Cd431 O441 2.240 . S
Cd432 O433 2.240 . S
Cd432 O440 2.223 . S
Cd432 O442 2.297 . S
Cd432 O443 2.439 . S
O433 Cd432 2.240 . S
O433 C438 1.279 . S
O434 Cd431 2.297 . S
O434 C436 1.247 . S
O435 Cd431 2.439 . S
O435 C436 1.208 . S
C436 O434 1.247 . S
C436 O435 1.208 . S
C437 O442 1.247 . S
C437 O443 1.208 . S
C438 O430 1.315 . S
C438 O433 1.279 . S
C439 O440 1.315 . S
C439 O441 1.279 . S
O440 Cd432 2.223 . S
O440 C439 1.315 . S
O441 Cd431 2.240 . S
O441 C439 1.279 . S
O442 Cd432 2.297 . S
O442 C437 1.247 . S
O443 Cd432 2.439 . S
O443 C437 1.208 . S
O444 Cd445 2.223 1_655 S
O444 C452 1.315 . S
Cd445 O444 2.223 1_455 S
Cd445 O448 2.297 . S
Cd445 O449 2.439 . S
Cd445 O455 2.240 . S
Cd446 O447 2.240 . S
Cd446 O454 2.223 1_455 S
Cd446 O456 2.297 . S
Cd446 O457 2.439 . S
O447 Cd446 2.240 . S
O447 C452 1.279 1_455 S
O448 Cd445 2.297 . S
O448 C450 1.247 . S
O449 Cd445 2.439 . S
O449 C450 1.208 . S
C450 O448 1.247 . S
C450 O449 1.208 . S
C451 O456 1.247 . S
C451 O457 1.208 . S
C452 O444 1.315 . S
C452 O447 1.279 1_655 S
C453 O454 1.315 . S
C453 O455 1.279 1_655 S
O454 Cd446 2.223 1_655 S
O454 C453 1.315 . S
O455 Cd445 2.240 . S
O455 C453 1.279 1_455 S
O456 Cd446 2.297 . S
O456 C451 1.247 . S
O457 Cd446 2.439 . S
O457 C451 1.208 . S
O458 Cd459 2.223 . S
O458 C466 1.315 . S
Cd459 O458 2.223 . S
Cd459 O462 2.297 . S
Cd459 O463 2.439 . S
Cd459 O469 2.240 . S
Cd460 O461 2.240 . S
Cd460 O468 2.223 . S
Cd460 O470 2.297 . S
Cd460 O471 2.439 . S
O461 Cd460 2.240 . S
O461 C466 1.279 . S
O462 Cd459 2.297 . S
O462 C464 1.247 . S
O463 Cd459 2.439 . S
O463 C464 1.208 . S
C464 O462 1.247 . S
C464 O463 1.208 . S
C465 O470 1.247 . S
C465 O471 1.208 . S
C466 O458 1.315 . S
C466 O461 1.279 . S
C467 O468 1.315 . S
C467 O469 1.279 . S
O468 Cd460 2.223 . S
O468 C467 1.315 . S
O469 Cd459 2.240 . S
O469 C467 1.279 . S
O470 Cd460 2.297 . S
O470 C465 1.247 . S
O471 Cd460 2.439 . S
O471 C465 1.208 . S
H472 C478 0.930 . S
H473 C482 0.930 . S
H474 C487 0.929 . S
H475 C485 0.929 . S
H476 C480 0.929 . S
H477 C486 0.929 . S
C478 H472 0.930 . S
C478 C479 1.367 . S
C478 C486 1.378 . S
C479 C478 1.367 . S
C479 C487 1.433 . S
C480 H476 0.929 . S
C480 C482 1.378 1_556 S
C480 C484 1.350 . S
C481 C484 1.463 . S
C481 C486 1.350 . S
C481 N489 1.427 . S
C482 H473 0.930 . S
C482 C480 1.378 1_554 S
C482 C483 1.367 . S
C483 C482 1.367 . S
C483 C485 1.433 . S
C484 C480 1.350 . S
C484 C481 1.463 . S
C484 N488 1.427 . S
C485 H475 0.929 . S
C485 C483 1.433 . S
C485 N488 1.384 1_554 S
C486 H477 0.929 . S
C486 C478 1.378 . S
C486 C481 1.350 . S
C487 H474 0.929 . S
C487 C479 1.433 . S
C487 N489 1.384 . S
N488 C484 1.427 . S
N488 C485 1.384 1_556 S
N489 C481 1.427 . S
N489 C487 1.384 . S
H490 C496 0.930 . S
H491 C500 0.930 . S
H492 C505 0.929 1_455 S
H493 C503 0.929 . S
H494 C498 0.929 . S
H495 C504 0.929 . S
C496 H490 0.930 . S
C496 C497 1.367 . S
C496 C504 1.378 . S
C497 C496 1.367 . S
C497 C505 1.433 . S
C498 H494 0.929 . S
C498 C500 1.378 . S
C498 C502 1.350 . S
C499 C502 1.463 . S
C499 C504 1.350 1_455 S
C499 N507 1.427 . S
C500 H491 0.930 . S
C500 C498 1.378 . S
C500 C501 1.367 . S
C501 C500 1.367 . S
C501 C503 1.433 . S
C502 C498 1.350 . S
C502 C499 1.463 . S
C502 N506 1.427 . S
C503 H493 0.929 . S
C503 C501 1.433 . S
C503 N506 1.384 . S
C504 H495 0.929 . S
C504 C496 1.378 . S
C504 C499 1.350 1_655 S
C505 H492 0.929 1_655 S
C505 C497 1.433 . S
C505 N507 1.384 1_655 S
N506 C502 1.427 . S
N506 C503 1.384 . S
N507 C499 1.427 . S
N507 C505 1.384 1_455 S
H508 C514 0.930 . S
H509 C518 0.930 . S
H510 C523 0.929 . S
H511 C521 0.929 . S
H512 C516 0.929 . S
H513 C522 0.929 . S
C514 H508 0.930 . S
C514 C515 1.367 . S
C514 C522 1.378 . S
C515 C514 1.367 . S
C515 C523 1.433 . S
C516 H512 0.929 . S
C516 C518 1.378 . S
C516 C520 1.350 . S
C517 C520 1.463 . S
C517 C522 1.350 . S
C517 N525 1.427 . S
C518 H509 0.930 . S
C518 C516 1.378 . S
C518 C519 1.367 . S
C519 C518 1.367 . S
C519 C521 1.433 . S
C520 C516 1.350 . S
C520 C517 1.463 . S
C520 N524 1.427 . S
C521 H511 0.929 . S
C521 C519 1.433 . S
C521 N524 1.384 . S
C522 H513 0.929 . S
C522 C514 1.378 . S
C522 C517 1.350 . S
C523 H510 0.929 . S
C523 C515 1.433 . S
C523 N525 1.384 . S
N524 C520 1.427 . S
N524 C521 1.384 . S
N525 C517 1.427 . S
N525 C523 1.384 . S
H526 C532 0.927 1_545 S
H527 C536 0.930 1_655 S
H528 C541 0.929 . S
H529 C539 0.929 . S
H530 C534 0.957 . S
H531 C540 0.929 . S
C532 H526 0.927 1_565 S
C532 C533 1.382 . S
C532 C540 1.366 1_565 S
C533 C532 1.382 . S
C533 C541 1.433 . S
C534 H530 0.957 . S
C534 C536 1.356 1_565 S
C534 C538 1.343 1_565 S
C535 C538 1.456 1_565 S
C535 C540 1.348 1_565 S
C535 N543 1.436 . S
C536 H527 0.930 1_455 S
C536 C534 1.356 1_545 S
C536 C537 1.367 . S
C537 C536 1.367 . S
C537 C539 1.433 . S
C538 C534 1.343 1_545 S
C538 C535 1.456 1_545 S
C538 N542 1.427 . S
C539 H529 0.929 . S
C539 C537 1.433 . S
C539 N542 1.384 . S
C540 H531 0.929 . S
C540 C532 1.366 1_545 S
C540 C535 1.348 1_545 S
C541 H528 0.929 . S
C541 C533 1.433 . S
C541 N543 1.384 . S
N542 C538 1.427 . S
N542 C539 1.384 . S
N543 C535 1.436 . S
N543 C541 1.384 . S
H544 C550 0.930 . S
H545 C554 0.930 . S
H546 C559 0.929 . S
H547 C557 0.929 . S
H548 C552 0.929 . S
H549 C558 0.929 . S
C550 H544 0.930 . S
C550 C551 1.367 . S
C550 C558 1.378 . S
C551 C550 1.367 . S
C551 C559 1.433 . S
C552 H548 0.929 . S
C552 C554 1.378 . S
C552 C556 1.350 . S
C553 C556 1.463 . S
C553 C558 1.350 . S
C553 N561 1.427 . S
C554 H545 0.930 . S
C554 C552 1.378 . S
C554 C555 1.367 . S
C555 C554 1.367 . S
C555 C557 1.433 . S
C556 C552 1.350 . S
C556 C553 1.463 . S
C556 N560 1.427 . S
C557 H547 0.929 . S
C557 C555 1.433 . S
C557 N560 1.384 . S
C558 H549 0.929 . S
C558 C550 1.378 . S
C558 C553 1.350 . S
C559 H546 0.929 . S
C559 C551 1.433 . S
C559 N561 1.384 . S
N560 C556 1.427 . S
N560 C557 1.384 . S
N561 C553 1.427 . S
N561 C559 1.384 . S
H562 C568 0.930 . S
H563 C572 0.930 . S
H564 C577 0.929 . S
H565 C575 0.929 . S
H566 C570 0.929 . S
H567 C576 0.929 . S
C568 H562 0.930 . S
C568 C569 1.367 . S
C568 C576 1.378 . S
C569 C568 1.367 . S
C569 C577 1.433 . S
C570 H566 0.929 . S
C570 C572 1.378 . S
C570 C574 1.350 . S
C571 C574 1.463 . S
C571 C576 1.350 . S
C571 N579 1.427 . S
C572 H563 0.930 . S
C572 C570 1.378 . S
C572 C573 1.367 . S
C573 C572 1.367 . S
C573 C575 1.433 . S
C574 C570 1.350 . S
C574 C571 1.463 . S
C574 N578 1.427 . S
C575 H565 0.929 . S
C575 C573 1.433 . S
C575 N578 1.384 . S
C576 H567 0.929 . S
C576 C568 1.378 . S
C576 C571 1.350 . S
C577 H564 0.929 . S
C577 C569 1.433 . S
C577 N579 1.384 . S
N578 C574 1.427 . S
N578 C575 1.384 . S
N579 C571 1.427 . S
N579 C577 1.384 . S
H580 C586 0.930 . S
H581 C590 0.930 . S
H582 C595 0.929 . S
H583 C593 0.929 . S
H584 C588 0.929 . S
H585 C594 0.929 . S
C586 H580 0.930 . S
C586 C587 1.367 . S
C586 C594 1.378 . S
C587 C586 1.367 . S
C587 C595 1.433 . S
C588 H584 0.929 . S
C588 C590 1.378 . S
C588 C592 1.350 . S
C589 C592 1.463 . S
C589 C594 1.350 . S
C589 N597 1.427 . S
C590 H581 0.930 . S
C590 C588 1.378 . S
C590 C591 1.367 . S
C591 C590 1.367 . S
C591 C593 1.433 . S
C592 C588 1.350 . S
C592 C589 1.463 . S
C592 N596 1.427 . S
C593 H583 0.929 . S
C593 C591 1.433 . S
C593 N596 1.384 . S
C594 H585 0.929 . S
C594 C586 1.378 . S
C594 C589 1.350 . S
C595 H582 0.929 . S
C595 C587 1.433 . S
C595 N597 1.384 . S
N596 C592 1.427 . S
N596 C593 1.384 . S
N597 C589 1.427 . S
N597 C595 1.384 . S
H598 C604 0.930 . S
H599 C608 0.930 . S
H600 C613 0.929 . S
H601 C611 0.929 . S
H602 C606 0.929 . S
H603 C612 0.929 . S
C604 H598 0.930 . S
C604 C605 1.367 . S
C604 C612 1.378 . S
C605 C604 1.367 . S
C605 C613 1.433 . S
C606 H602 0.929 . S
C606 C608 1.378 . S
C606 C610 1.350 . S
C607 C610 1.463 . S
C607 C612 1.350 . S
C607 N615 1.427 . S
C608 H599 0.930 . S
C608 C606 1.378 . S
C608 C609 1.367 . S
C609 C608 1.367 . S
C609 C611 1.433 . S
C610 C606 1.350 . S
C610 C607 1.463 . S
C610 N614 1.427 . S
C611 H601 0.929 . S
C611 C609 1.433 . S
C611 N614 1.384 . S
C612 H603 0.929 . S
C612 C604 1.378 . S
C612 C607 1.350 . S
C613 H600 0.929 . S
C613 C605 1.433 . S
C613 N615 1.384 . S
N614 C610 1.427 . S
N614 C611 1.384 . S
N615 C607 1.427 . S
N615 C613 1.384 . S
H616 C622 0.930 . S
H617 C626 0.930 . S
H618 C631 0.929 . S
H619 C629 0.929 . S
H620 C624 0.929 . S
H621 C630 0.929 . S
C622 H616 0.930 . S
C622 C623 1.367 . S
C622 C630 1.378 . S
C623 C622 1.367 . S
C623 C631 1.433 . S
C624 H620 0.929 . S
C624 C626 1.378 . S
C624 C628 1.350 . S
C625 C628 1.463 . S
C625 C630 1.350 . S
C625 N633 1.427 . S
C626 H617 0.930 . S
C626 C624 1.378 . S
C626 C627 1.367 . S
C627 C626 1.367 . S
C627 C629 1.433 . S
C628 C624 1.350 . S
C628 C625 1.463 . S
C628 N632 1.427 . S
C629 H619 0.929 . S
C629 C627 1.433 . S
C629 N632 1.384 . S
C630 H621 0.929 . S
C630 C622 1.378 . S
C630 C625 1.350 . S
C631 H618 0.929 . S
C631 C623 1.433 . S
C631 N633 1.384 . S
N632 C628 1.427 . S
N632 C629 1.384 . S
N633 C625 1.427 . S
N633 C631 1.384 . S
H634 C640 0.930 . S
H635 C644 0.930 . S
H636 C649 0.929 . S
H637 C647 0.929 . S
H638 C642 0.929 . S
H639 C648 0.929 . S
C640 H634 0.930 . S
C640 C641 1.367 . S
C640 C648 1.378 . S
C641 C640 1.367 . S
C641 C649 1.433 . S
C642 H638 0.929 . S
C642 C644 1.378 . S
C642 C646 1.350 . S
C643 C646 1.463 . S
C643 C648 1.350 . S
C643 N651 1.427 . S
C644 H635 0.930 . S
C644 C642 1.378 . S
C644 C645 1.367 . S
C645 C644 1.367 . S
C645 C647 1.433 . S
C646 C642 1.350 . S
C646 C643 1.463 . S
C646 N650 1.427 . S
C647 H637 0.929 . S
C647 C645 1.433 . S
C647 N650 1.384 . S
C648 H639 0.929 . S
C648 C640 1.378 . S
C648 C643 1.350 . S
C649 H636 0.929 . S
C649 C641 1.433 . S
C649 N651 1.384 . S
N650 C646 1.427 . S
N650 C647 1.384 . S
N651 C643 1.427 . S
N651 C649 1.384 . S
H652 C658 0.930 . S
H653 C662 0.930 . S
H654 C667 0.929 . S
H655 C665 0.929 . S
H656 C660 0.929 . S
H657 C666 0.929 . S
C658 H652 0.930 . S
C658 C659 1.367 . S
C658 C666 1.378 . S
C659 C658 1.367 . S
C659 C667 1.433 . S
C660 H656 0.929 . S
C660 C662 1.378 . S
C660 C664 1.350 . S
C661 C664 1.463 . S
C661 C666 1.350 . S
C661 N669 1.427 . S
C662 H653 0.930 . S
C662 C660 1.378 . S
C662 C663 1.367 . S
C663 C662 1.367 . S
C663 C665 1.433 . S
C664 C660 1.350 . S
C664 C661 1.463 . S
C664 N668 1.427 . S
C665 H655 0.929 . S
C665 C663 1.433 . S
C665 N668 1.384 . S
C666 H657 0.929 . S
C666 C658 1.378 . S
C666 C661 1.350 . S
C667 H654 0.929 . S
C667 C659 1.433 . S
C667 N669 1.384 . S
N668 C664 1.427 . S
N668 C665 1.384 . S
N669 C661 1.427 . S
N669 C667 1.384 . S
H670 C676 0.930 . S
H671 C680 0.930 . S
H672 C685 0.929 . S
H673 C683 0.929 . S
H674 C678 0.929 . S
H675 C684 0.929 . S
C676 H670 0.930 . S
C676 C677 1.367 . S
C676 C684 1.378 . S
C677 C676 1.367 . S
C677 C685 1.433 . S
C678 H674 0.929 . S
C678 C680 1.378 . S
C678 C682 1.350 . S
C679 C682 1.463 . S
C679 C684 1.350 . S
C679 N687 1.427 . S
C680 H671 0.930 . S
C680 C678 1.378 . S
C680 C681 1.367 . S
C681 C680 1.367 . S
C681 C683 1.433 . S
C682 C678 1.350 . S
C682 C679 1.463 . S
C682 N686 1.427 . S
C683 H673 0.929 . S
C683 C681 1.433 . S
C683 N686 1.384 . S
C684 H675 0.929 . S
C684 C676 1.378 . S
C684 C679 1.350 . S
C685 H672 0.929 . S
C685 C677 1.433 . S
C685 N687 1.384 . S
N686 C682 1.427 . S
N686 C683 1.384 . S
N687 C679 1.427 . S
N687 C685 1.384 . S
H688 C694 0.930 . S
H689 C698 0.930 . S
H690 C703 0.929 . S
H691 C701 0.929 . S
H692 C696 0.929 . S
H693 C702 0.929 . S
C694 H688 0.930 . S
C694 C695 1.367 . S
C694 C702 1.378 . S
C695 C694 1.367 . S
C695 C703 1.433 . S
C696 H692 0.929 . S
C696 C698 1.378 . S
C696 C700 1.350 . S
C697 C700 1.463 . S
C697 C702 1.350 . S
C697 N705 1.427 . S
C698 H689 0.930 . S
C698 C696 1.378 . S
C698 C699 1.367 . S
C699 C698 1.367 . S
C699 C701 1.433 . S
C700 C696 1.350 . S
C700 C697 1.463 . S
C700 N704 1.427 . S
C701 H691 0.929 . S
C701 C699 1.433 . S
C701 N704 1.384 . S
C702 H693 0.929 . S
C702 C694 1.378 . S
C702 C697 1.350 . S
C703 H690 0.929 . S
C703 C695 1.433 . S
C703 N705 1.384 . S
N704 C700 1.427 . S
N704 C701 1.384 . S
N705 C697 1.427 . S
N705 C703 1.384 . S
H706 C712 0.930 . S
H707 C716 0.930 . S
H708 C721 0.929 . S
H709 C719 0.929 . S
H710 C714 0.929 . S
H711 C720 0.929 . S
C712 H706 0.930 . S
C712 C713 1.367 . S
C712 C720 1.378 . S
C713 C712 1.367 . S
C713 C721 1.433 . S
C714 H710 0.929 . S
C714 C716 1.378 . S
C714 C718 1.350 . S
C715 C718 1.463 . S
C715 C720 1.350 . S
C715 N723 1.427 . S
C716 H707 0.930 . S
C716 C714 1.378 . S
C716 C717 1.367 . S
C717 C716 1.367 . S
C717 C719 1.433 . S
C718 C714 1.350 . S
C718 C715 1.463 . S
C718 N722 1.427 . S
C719 H709 0.929 . S
C719 C717 1.433 . S
C719 N722 1.384 . S
C720 H711 0.929 . S
C720 C712 1.378 . S
C720 C715 1.350 . S
C721 H708 0.929 . S
C721 C713 1.433 . S
C721 N723 1.384 . S
N722 C718 1.427 . S
N722 C719 1.384 . S
N723 C715 1.427 . S
N723 C721 1.384 . S
H724 C730 0.930 . S
H725 C734 0.930 . S
H726 C739 0.929 . S
H727 C737 0.929 . S
H728 C732 0.929 . S
H729 C738 0.929 . S
C730 H724 0.930 . S
C730 C731 1.367 . S
C730 C738 1.378 . S
C731 C730 1.367 . S
C731 C739 1.433 . S
C732 H728 0.929 . S
C732 C734 1.378 . S
C732 C736 1.350 . S
C733 C736 1.463 . S
C733 C738 1.350 . S
C733 N741 1.427 . S
C734 H725 0.930 . S
C734 C732 1.378 . S
C734 C735 1.367 . S
C735 C734 1.367 . S
C735 C737 1.433 . S
C736 C732 1.350 . S
C736 C733 1.463 . S
C736 N740 1.427 . S
C737 H727 0.929 . S
C737 C735 1.433 . S
C737 N740 1.384 . S
C738 H729 0.929 . S
C738 C730 1.378 . S
C738 C733 1.350 . S
C739 H726 0.929 . S
C739 C731 1.433 . S
C739 N741 1.384 . S
N740 C736 1.427 . S
N740 C737 1.384 . S
N741 C733 1.427 . S
N741 C739 1.384 . S
H742 C748 0.930 . S
H743 C752 0.930 . S
H744 C757 0.929 . S
H745 C755 0.929 . S
H746 C750 0.929 . S
H747 C756 0.929 . S
C748 H742 0.930 . S
C748 C749 1.367 . S
C748 C756 1.378 . S
C749 C748 1.367 . S
C749 C757 1.433 . S
C750 H746 0.929 . S
C750 C752 1.378 . S
C750 C754 1.350 . S
C751 C754 1.463 . S
C751 C756 1.350 . S
C751 N759 1.427 . S
C752 H743 0.930 . S
C752 C750 1.378 . S
C752 C753 1.367 . S
C753 C752 1.367 . S
C753 C755 1.433 . S
C754 C750 1.350 . S
C754 C751 1.463 . S
C754 N758 1.427 . S
C755 H745 0.929 . S
C755 C753 1.433 . S
C755 N758 1.384 . S
C756 H747 0.929 . S
C756 C748 1.378 . S
C756 C751 1.350 . S
C757 H744 0.929 . S
C757 C749 1.433 . S
C757 N759 1.384 . S
N758 C754 1.427 . S
N758 C755 1.384 . S
N759 C751 1.427 . S
N759 C757 1.384 . S
H760 C766 0.930 . S
H761 C770 0.930 1_545 S
H762 C775 0.929 . S
H763 C773 0.929 . S
H764 C768 0.929 . S
H765 C774 0.929 . S
C766 H760 0.930 . S
C766 C767 1.367 . S
C766 C774 1.378 . S
C767 C766 1.367 . S
C767 C775 1.433 . S
C768 H764 0.929 . S
C768 C770 1.378 . S
C768 C772 1.350 . S
C769 C772 1.463 . S
C769 C774 1.350 . S
C769 N777 1.427 . S
C770 H761 0.930 1_565 S
C770 C768 1.378 . S
C770 C771 1.367 . S
C771 C770 1.367 . S
C771 C773 1.433 . S
C772 C768 1.350 . S
C772 C769 1.463 . S
C772 N776 1.427 . S
C773 H763 0.929 . S
C773 C771 1.433 . S
C773 N776 1.384 . S
C774 H765 0.929 . S
C774 C766 1.378 . S
C774 C769 1.350 . S
C775 H762 0.929 . S
C775 C767 1.433 . S
C775 N777 1.384 . S
N776 C772 1.427 . S
N776 C773 1.384 . S
N777 C769 1.427 . S
N777 C775 1.384 . S
H778 C784 0.930 . S
H779 C788 0.930 . S
H780 C793 0.929 . S
H781 C791 0.929 . S
H782 C786 0.929 . S
H783 C792 0.929 . S
C784 H778 0.930 . S
C784 C785 1.367 . S
C784 C792 1.378 . S
C785 C784 1.367 . S
C785 C793 1.433 . S
C786 H782 0.929 . S
C786 C788 1.378 . S
C786 C790 1.350 . S
C787 C790 1.463 . S
C787 C792 1.350 . S
C787 N795 1.427 . S
C788 H779 0.930 . S
C788 C786 1.378 . S
C788 C789 1.367 . S
C789 C788 1.367 . S
C789 C791 1.433 . S
C790 C786 1.350 . S
C790 C787 1.463 . S
C790 N794 1.427 . S
C791 H781 0.929 . S
C791 C789 1.433 . S
C791 N794 1.384 . S
C792 H783 0.929 . S
C792 C784 1.378 . S
C792 C787 1.350 . S
C793 H780 0.929 . S
C793 C785 1.433 . S
C793 N795 1.384 . S
N794 C790 1.427 . S
N794 C791 1.384 . S
N795 C787 1.427 . S
N795 C793 1.384 . S
H796 C802 0.930 . S
H797 C806 0.930 . S
H798 C811 0.929 . S
H799 C809 0.929 . S
H800 C804 0.929 1_556 S
H801 C810 0.929 . S
C802 H796 0.930 . S
C802 C803 1.367 . S
C802 C810 1.378 1_556 S
C803 C802 1.367 . S
C803 C811 1.433 . S
C804 H800 0.929 1_554 S
C804 C806 1.378 . S
C804 C808 1.350 1_565 S
C805 C808 1.463 . S
C805 C810 1.350 . S
C805 N813 1.427 1_554 S
C806 H797 0.930 . S
C806 C804 1.378 . S
C806 C807 1.367 . S
C807 C806 1.367 . S
C807 C809 1.433 1_565 S
C808 C804 1.350 1_545 S
C808 C805 1.463 . S
C808 N812 1.427 . S
C809 H799 0.929 . S
C809 C807 1.433 1_545 S
C809 N812 1.384 . S
C810 H801 0.929 . S
C810 C802 1.378 1_554 S
C810 C805 1.350 . S
C811 H798 0.929 . S
C811 C803 1.433 . S
C811 N813 1.384 . S
N812 C808 1.427 . S
N812 C809 1.384 . S
N813 C805 1.427 1_556 S
N813 C811 1.384 . S
H814 C820 0.930 . S
H815 C824 0.930 . S
H816 C829 0.929 . S
H817 C827 0.929 . S
H818 C822 0.929 . S
H819 C828 0.929 . S
C820 H814 0.930 . S
C820 C821 1.367 . S
C820 C828 1.378 . S
C821 C820 1.367 . S
C821 C829 1.433 . S
C822 H818 0.929 . S
C822 C824 1.378 . S
C822 C826 1.350 . S
C823 C826 1.463 . S
C823 C828 1.350 . S
C823 N831 1.427 . S
C824 H815 0.930 . S
C824 C822 1.378 . S
C824 C825 1.367 . S
C825 C824 1.367 . S
C825 C827 1.433 . S
C826 C822 1.350 . S
C826 C823 1.463 . S
C826 N830 1.427 . S
C827 H817 0.929 . S
C827 C825 1.433 . S
C827 N830 1.384 . S
C828 H819 0.929 . S
C828 C820 1.378 . S
C828 C823 1.350 . S
C829 H816 0.929 . S
C829 C821 1.433 . S
C829 N831 1.384 . S
N830 C826 1.427 . S
N830 C827 1.384 . S
N831 C823 1.427 . S
N831 C829 1.384 . S
H832 C838 0.930 . S
H833 C842 0.930 . S
H834 C847 0.929 . S
H835 C845 0.929 . S
H836 C840 0.929 . S
H837 C846 0.929 . S
C838 H832 0.930 . S
C838 C839 1.367 . S
C838 C846 1.378 1_565 S
C839 C838 1.367 . S
C839 C847 1.433 1_565 S
C840 H836 0.929 . S
C840 C842 1.378 . S
C840 C844 1.350 . S
C841 C844 1.463 . S
C841 C846 1.350 . S
C841 N849 1.427 . S
C842 H833 0.930 . S
C842 C840 1.378 . S
C842 C843 1.367 . S
C843 C842 1.367 . S
C843 C845 1.433 . S
C844 C840 1.350 . S
C844 C841 1.463 . S
C844 N848 1.427 . S
C845 H835 0.929 . S
C845 C843 1.433 . S
C845 N848 1.384 . S
C846 H837 0.929 . S
C846 C838 1.378 1_545 S
C846 C841 1.350 . S
C847 H834 0.929 . S
C847 C839 1.433 1_545 S
C847 N849 1.384 . S
N848 C844 1.427 . S
N848 C845 1.384 . S
N849 C841 1.427 . S
N849 C847 1.384 . S
H850 C856 0.930 . S
H851 C860 0.930 . S
H852 C865 0.929 . S
H853 C863 0.929 . S
H854 C858 0.929 . S
H855 C864 0.929 . S
C856 H850 0.930 . S
C856 C857 1.367 . S
C856 C864 1.378 . S
C857 C856 1.367 . S
C857 C865 1.433 . S
C858 H854 0.929 . S
C858 C860 1.378 . S
C858 C862 1.350 . S
C859 C862 1.463 . S
C859 C864 1.350 . S
C859 N867 1.427 . S
C860 H851 0.930 . S
C860 C858 1.378 . S
C860 C861 1.367 . S
C861 C860 1.367 . S
C861 C863 1.433 . S
C862 C858 1.350 . S
C862 C859 1.463 . S
C862 N866 1.427 . S
C863 H853 0.929 . S
C863 C861 1.433 . S
C863 N866 1.384 . S
C864 H855 0.929 . S
C864 C856 1.378 . S
C864 C859 1.350 . S
C865 H852 0.929 . S
C865 C857 1.433 . S
C865 N867 1.384 . S
N866 C862 1.427 . S
N866 C863 1.384 . S
N867 C859 1.427 . S
N867 C865 1.384 . S
H868 C874 0.930 . S
H869 C878 0.930 . S
H870 C883 0.929 . S
H871 C881 0.929 . S
H872 C876 0.929 . S
H873 C882 0.944 . S
C874 H868 0.930 . S
C874 C875 1.367 . S
C874 C882 1.333 1_565 S
C875 C874 1.367 . S
C875 C883 1.433 . S
C876 H872 0.929 . S
C876 C878 1.378 . S
C876 C880 1.350 . S
C877 C880 1.463 . S
C877 C882 1.381 . S
C877 N885 1.427 . S
C878 H869 0.930 . S
C878 C876 1.378 . S
C878 C879 1.367 . S
C879 C878 1.367 . S
C879 C881 1.433 . S
C880 C876 1.350 . S
C880 C877 1.463 . S
C880 N884 1.427 . S
C881 H871 0.929 . S
C881 C879 1.433 . S
C881 N884 1.384 . S
C882 H873 0.944 . S
C882 C874 1.333 1_545 S
C882 C877 1.381 . S
C883 H870 0.929 . S
C883 C875 1.433 . S
C883 N885 1.384 1_565 S
N884 C880 1.427 . S
N884 C881 1.384 . S
N885 C877 1.427 . S
N885 C883 1.384 1_545 S
H886 C892 0.930 . S
H887 C896 0.930 . S
H888 C901 0.929 . S
H889 C899 0.929 . S
H890 C894 0.929 . S
H891 C900 0.929 . S
C892 H886 0.930 . S
C892 C893 1.367 . S
C892 C900 1.378 . S
C893 C892 1.367 . S
C893 C901 1.433 . S
C894 H890 0.929 . S
C894 C896 1.378 . S
C894 C898 1.350 . S
C895 C898 1.463 . S
C895 C900 1.350 . S
C895 N903 1.427 . S
C896 H887 0.930 . S
C896 C894 1.378 . S
C896 C897 1.367 . S
C897 C896 1.367 . S
C897 C899 1.433 . S
C898 C894 1.350 . S
C898 C895 1.463 . S
C898 N902 1.427 . S
C899 H889 0.929 . S
C899 C897 1.433 . S
C899 N902 1.384 . S
C900 H891 0.929 . S
C900 C892 1.378 . S
C900 C895 1.350 . S
C901 H888 0.929 . S
C901 C893 1.433 . S
C901 N903 1.384 . S
N902 C898 1.427 . S
N902 C899 1.384 . S
N903 C895 1.427 . S
N903 C901 1.384 . S
H904 C910 0.930 . S
H905 C914 0.930 . S
H906 C919 0.929 . S
H907 C917 0.929 . S
H908 C912 0.929 . S
H909 C918 0.929 . S
C910 H904 0.930 . S
C910 C911 1.367 . S
C910 C918 1.378 . S
C911 C910 1.367 . S
C911 C919 1.433 . S
C912 H908 0.929 . S
C912 C914 1.378 . S
C912 C916 1.350 . S
C913 C916 1.463 . S
C913 C918 1.350 . S
C913 N921 1.427 . S
C914 H905 0.930 . S
C914 C912 1.378 . S
C914 C915 1.367 . S
C915 C914 1.367 . S
C915 C917 1.433 . S
C916 C912 1.350 . S
C916 C913 1.463 . S
C916 N920 1.427 . S
C917 H907 0.929 . S
C917 C915 1.433 . S
C917 N920 1.384 . S
C918 H909 0.929 . S
C918 C910 1.378 . S
C918 C913 1.350 . S
C919 H906 0.929 . S
C919 C911 1.433 . S
C919 N921 1.384 . S
N920 C916 1.427 . S
N920 C917 1.384 . S
N921 C913 1.427 . S
N921 C919 1.384 . S
H922 C928 0.930 . S
H923 C932 0.930 . S
H924 C937 0.929 . S
H925 C935 0.928 . S
H926 C930 0.929 . S
H927 C936 0.929 . S
C928 H922 0.930 . S
C928 C929 1.367 . S
C928 C936 1.378 . S
C929 C928 1.367 . S
C929 C937 1.433 . S
C930 H926 0.929 . S
C930 C932 1.378 . S
C930 C934 1.350 . S
C931 C934 1.463 . S
C931 C936 1.350 . S
C931 N939 1.427 . S
C932 H923 0.930 . S
C932 C930 1.378 . S
C932 C933 1.367 . S
C933 C932 1.367 . S
C933 C935 1.433 . S
C934 C930 1.350 . S
C934 C931 1.463 . S
C934 N938 1.427 . S
C935 H925 0.928 . S
C935 C933 1.433 . S
C935 N938 1.384 . S
C936 H927 0.929 . S
C936 C928 1.378 . S
C936 C931 1.350 . S
C937 H924 0.929 . S
C937 C929 1.433 . S
C937 N939 1.384 . S
N938 C934 1.427 . S
N938 C935 1.384 . S
N939 C931 1.427 . S
N939 C937 1.384 . S
H940 C946 0.930 . S
H941 C950 0.930 . S
H942 C955 0.929 . S
H943 C953 0.929 . S
H944 C948 0.929 . S
H945 C954 0.929 . S
C946 H940 0.930 . S
C946 C947 1.367 . S
C946 C954 1.378 . S
C947 C946 1.367 . S
C947 C955 1.433 . S
C948 H944 0.929 . S
C948 C950 1.378 . S
C948 C952 1.350 . S
C949 C952 1.463 . S
C949 C954 1.350 . S
C949 N957 1.427 . S
C950 H941 0.930 . S
C950 C948 1.378 . S
C950 C951 1.367 . S
C951 C950 1.367 . S
C951 C953 1.433 . S
C952 C948 1.350 . S
C952 C949 1.463 . S
C952 N956 1.427 . S
C953 H943 0.929 . S
C953 C951 1.433 . S
C953 N956 1.384 . S
C954 H945 0.929 . S
C954 C946 1.378 . S
C954 C949 1.350 . S
C955 H942 0.929 . S
C955 C947 1.433 . S
C955 N957 1.384 . S
N956 C952 1.427 . S
N956 C953 1.384 . S
N957 C949 1.427 . S
N957 C955 1.384 . S
H958 C964 0.930 . S
H959 C968 0.930 . S
H960 C973 0.929 . S
H961 C971 0.929 . S
H962 C966 0.929 . S
H963 C972 0.929 . S
C964 H958 0.930 . S
C964 C965 1.367 . S
C964 C972 1.378 . S
C965 C964 1.367 . S
C965 C973 1.433 . S
C966 H962 0.929 . S
C966 C968 1.378 . S
C966 C970 1.350 . S
C967 C970 1.463 . S
C967 C972 1.350 . S
C967 N975 1.427 . S
C968 H959 0.930 . S
C968 C966 1.378 . S
C968 C969 1.367 . S
C969 C968 1.367 . S
C969 C971 1.433 . S
C970 C966 1.350 . S
C970 C967 1.463 . S
C970 N974 1.427 . S
C971 H961 0.929 . S
C971 C969 1.433 . S
C971 N974 1.384 . S
C972 H963 0.929 . S
C972 C964 1.378 . S
C972 C967 1.350 . S
C973 H960 0.929 . S
C973 C965 1.433 . S
C973 N975 1.384 . S
N974 C970 1.427 . S
N974 C971 1.384 . S
N975 C967 1.427 . S
N975 C973 1.384 . S
H976 C982 0.930 . S
H977 C986 0.930 . S
H978 C991 0.929 . S
H979 C989 0.929 . S
H980 C984 0.929 . S
H981 C990 0.929 . S
C982 H976 0.930 . S
C982 C983 1.367 . S
C982 C990 1.378 . S
C983 C982 1.367 . S
C983 C991 1.433 . S
C984 H980 0.929 . S
C984 C986 1.378 . S
C984 C988 1.350 . S
C985 C988 1.463 . S
C985 C990 1.350 . S
C985 N993 1.427 . S
C986 H977 0.930 . S
C986 C984 1.378 . S
C986 C987 1.367 . S
C987 C986 1.367 . S
C987 C989 1.433 . S
C988 C984 1.350 . S
C988 C985 1.463 . S
C988 N992 1.427 . S
C989 H979 0.929 . S
C989 C987 1.433 . S
C989 N992 1.384 . S
C990 H981 0.929 . S
C990 C982 1.378 . S
C990 C985 1.350 . S
C991 H978 0.929 . S
C991 C983 1.433 . S
C991 N993 1.384 . S
N992 C988 1.427 . S
N992 C989 1.384 . S
N993 C985 1.427 . S
N993 C991 1.384 . S
H994 C1000 0.930 . S
H995 C1004 0.930 . S
H996 C1009 0.929 . S
H997 C1007 0.929 . S
H998 C1002 0.929 . S
H999 C1008 0.929 . S
C1000 H994 0.930 . S
C1000 C1001 1.367 . S
C1000 C1008 1.378 . S
C1001 C1000 1.367 . S
C1001 C1009 1.433 . S
C1002 H998 0.929 . S
C1002 C1004 1.378 . S
C1002 C1006 1.350 . S
C1003 C1006 1.463 . S
C1003 C1008 1.350 . S
C1003 N1011 1.427 . S
C1004 H995 0.930 . S
C1004 C1002 1.378 . S
C1004 C1005 1.367 . S
C1005 C1004 1.367 . S
C1005 C1007 1.433 . S
C1006 C1002 1.350 . S
C1006 C1003 1.463 . S
C1006 N1010 1.427 . S
C1007 H997 0.929 . S
C1007 C1005 1.433 . S
C1007 N1010 1.384 . S
C1008 H999 0.929 . S
C1008 C1000 1.378 . S
C1008 C1003 1.350 . S
C1009 H996 0.929 . S
C1009 C1001 1.433 . S
C1009 N1011 1.384 . S
N1010 C1006 1.427 . S
N1010 C1007 1.384 . S
N1011 C1003 1.427 . S
N1011 C1009 1.384 . S
H1012 C1018 0.930 . S
H1013 C1022 0.930 . S
H1014 C1027 0.929 . S
H1015 C1025 0.929 . S
H1016 C1020 0.929 . S
H1017 C1026 0.929 . S
C1018 H1012 0.930 . S
C1018 C1019 1.367 . S
C1018 C1026 1.378 . S
C1019 C1018 1.367 . S
C1019 C1027 1.433 . S
C1020 H1016 0.929 . S
C1020 C1022 1.378 . S
C1020 C1024 1.350 . S
C1021 C1024 1.463 . S
C1021 C1026 1.350 . S
C1021 N1029 1.427 . S
C1022 H1013 0.930 . S
C1022 C1020 1.378 . S
C1022 C1023 1.367 . S
C1023 C1022 1.367 . S
C1023 C1025 1.433 . S
C1024 C1020 1.350 . S
C1024 C1021 1.463 . S
C1024 N1028 1.427 . S
C1025 H1015 0.929 . S
C1025 C1023 1.433 . S
C1025 N1028 1.384 . S
C1026 H1017 0.929 . S
C1026 C1018 1.378 . S
C1026 C1021 1.350 . S
C1027 H1014 0.929 . S
C1027 C1019 1.433 . S
C1027 N1029 1.384 . S
N1028 C1024 1.427 . S
N1028 C1025 1.384 . S
N1029 C1021 1.427 . S
N1029 C1027 1.384 . S
H1030 C1036 0.930 . S
H1031 C1040 0.930 . S
H1032 C1045 0.929 . S
H1033 C1043 0.929 . S
H1034 C1038 0.923 1_655 S
H1035 C1044 0.929 . S
C1036 H1030 0.930 . S
C1036 C1037 1.367 . S
C1036 C1044 1.378 . S
C1037 C1036 1.367 . S
C1037 C1045 1.433 . S
C1038 H1034 0.923 1_455 S
C1038 C1040 1.385 . S
C1038 C1042 1.344 1_455 S
C1039 C1042 1.493 . S
C1039 C1044 1.350 . S
C1039 N1047 1.427 . S
C1040 H1031 0.930 . S
C1040 C1038 1.385 . S
C1040 C1041 1.367 . S
C1041 C1040 1.367 . S
C1041 C1043 1.433 . S
C1042 C1038 1.344 1_655 S
C1042 C1039 1.493 . S
C1042 N1046 1.405 1_655 S
C1043 H1033 0.929 . S
C1043 C1041 1.433 . S
C1043 N1046 1.384 . S
C1044 H1035 0.929 . S
C1044 C1036 1.378 . S
C1044 C1039 1.350 . S
C1045 H1032 0.929 . S
C1045 C1037 1.433 . S
C1045 N1047 1.384 . S
N1046 C1042 1.405 1_455 S
N1046 C1043 1.384 . S
N1047 C1039 1.427 . S
N1047 C1045 1.384 . S
H1048 C1054 0.930 . S
H1049 C1058 0.930 . S
H1050 C1063 0.929 . S
H1051 C1061 0.929 . S
H1052 C1056 0.929 . S
H1053 C1062 0.929 . S
C1054 H1048 0.930 . S
C1054 C1055 1.367 . S
C1054 C1062 1.378 . S
C1055 C1054 1.367 . S
C1055 C1063 1.433 . S
C1056 H1052 0.929 . S
C1056 C1058 1.378 . S
C1056 C1060 1.350 . S
C1057 C1060 1.463 . S
C1057 C1062 1.350 . S
C1057 N1065 1.427 . S
C1058 H1049 0.930 . S
C1058 C1056 1.378 . S
C1058 C1059 1.367 . S
C1059 C1058 1.367 . S
C1059 C1061 1.433 . S
C1060 C1056 1.350 . S
C1060 C1057 1.463 . S
C1060 N1064 1.427 . S
C1061 H1051 0.929 . S
C1061 C1059 1.433 . S
C1061 N1064 1.384 . S
C1062 H1053 0.929 . S
C1062 C1054 1.378 . S
C1062 C1057 1.350 . S
C1063 H1050 0.929 . S
C1063 C1055 1.433 . S
C1063 N1065 1.384 . S
N1064 C1060 1.427 . S
N1064 C1061 1.384 . S
N1065 C1057 1.427 . S
N1065 C1063 1.384 . S
H1066 C1072 0.930 1_554 S
H1067 C1076 0.930 . S
H1068 C1081 0.929 . S
H1069 C1079 0.929 1_455 S
H1070 C1074 0.929 . S
H1071 C1080 0.929 . S
C1072 H1066 0.930 1_556 S
C1072 C1073 1.367 . S
C1072 C1080 1.378 . S
C1073 C1072 1.367 . S
C1073 C1081 1.433 . S
C1074 H1070 0.929 . S
C1074 C1076 1.378 . S
C1074 C1078 1.350 . S
C1075 C1078 1.463 . S
C1075 C1080 1.350 . S
C1075 N1083 1.427 . S
C1076 H1067 0.930 . S
C1076 C1074 1.378 . S
C1076 C1077 1.367 . S
C1077 C1076 1.367 . S
C1077 C1079 1.433 . S
C1078 C1074 1.350 . S
C1078 C1075 1.463 . S
C1078 N1082 1.427 . S
C1079 H1069 0.929 1_655 S
C1079 C1077 1.433 . S
C1079 N1082 1.384 . S
C1080 H1071 0.929 . S
C1080 C1072 1.378 . S
C1080 C1075 1.350 . S
C1081 H1068 0.929 . S
C1081 C1073 1.433 . S
C1081 N1083 1.384 . S
N1082 C1078 1.427 . S
N1082 C1079 1.384 . S
N1083 C1075 1.427 . S
N1083 C1081 1.384 . S
H1084 C1090 0.930 . S
H1085 C1094 0.930 . S
H1086 C1099 0.929 . S
H1087 C1097 0.929 . S
H1088 C1092 0.929 . S
H1089 C1098 0.929 . S
C1090 H1084 0.930 . S
C1090 C1091 1.367 . S
C1090 C1098 1.378 . S
C1091 C1090 1.367 . S
C1091 C1099 1.433 . S
C1092 H1088 0.929 . S
C1092 C1094 1.378 . S
C1092 C1096 1.350 . S
C1093 C1096 1.463 . S
C1093 C1098 1.350 . S
C1093 N1101 1.427 . S
C1094 H1085 0.930 . S
C1094 C1092 1.378 . S
C1094 C1095 1.367 . S
C1095 C1094 1.367 . S
C1095 C1097 1.433 . S
C1096 C1092 1.350 . S
C1096 C1093 1.463 . S
C1096 N1100 1.427 . S
C1097 H1087 0.929 . S
C1097 C1095 1.433 . S
C1097 N1100 1.384 . S
C1098 H1089 0.929 . S
C1098 C1090 1.378 . S
C1098 C1093 1.350 . S
C1099 H1086 0.929 . S
C1099 C1091 1.433 . S
C1099 N1101 1.384 . S
N1100 C1096 1.427 . S
N1100 C1097 1.384 . S
N1101 C1093 1.427 . S
N1101 C1099 1.384 . S
H1102 C1108 0.930 . S
H1103 C1112 0.930 . S
H1104 C1117 0.929 . S
H1105 C1115 0.929 . S
H1106 C1110 0.929 . S
H1107 C1116 0.935 . S
C1108 H1102 0.930 . S
C1108 C1109 1.367 . S
C1108 C1116 1.378 . S
C1109 C1108 1.367 . S
C1109 C1117 1.433 . S
C1110 H1106 0.929 . S
C1110 C1112 1.378 . S
C1110 C1114 1.350 . S
C1111 C1114 1.480 . S
C1111 C1116 1.339 1_556 S
C1111 N1119 1.422 1_556 S
C1112 H1103 0.930 . S
C1112 C1110 1.378 . S
C1112 C1113 1.367 . S
C1113 C1112 1.367 . S
C1113 C1115 1.433 . S
C1114 C1110 1.350 . S
C1114 C1111 1.480 . S
C1114 N1118 1.427 . S
C1115 H1105 0.929 . S
C1115 C1113 1.433 . S
C1115 N1118 1.384 . S
C1116 H1107 0.935 . S
C1116 C1108 1.378 . S
C1116 C1111 1.339 1_554 S
C1117 H1104 0.929 . S
C1117 C1109 1.433 . S
C1117 N1119 1.384 . S
N1118 C1114 1.427 . S
N1118 C1115 1.384 . S
N1119 C1111 1.422 1_554 S
N1119 C1117 1.384 . S
H1120 C1126 0.930 . S
H1121 C1130 0.930 . S
H1122 C1135 0.929 . S
H1123 C1133 0.929 . S
H1124 C1128 0.929 . S
H1125 C1134 0.929 . S
C1126 H1120 0.930 . S
C1126 C1127 1.367 . S
C1126 C1134 1.378 . S
C1127 C1126 1.367 . S
C1127 C1135 1.433 . S
C1128 H1124 0.929 . S
C1128 C1130 1.378 . S
C1128 C1132 1.350 . S
C1129 C1132 1.463 . S
C1129 C1134 1.350 . S
C1129 N1137 1.427 . S
C1130 H1121 0.930 . S
C1130 C1128 1.378 . S
C1130 C1131 1.367 . S
C1131 C1130 1.367 . S
C1131 C1133 1.433 . S
C1132 C1128 1.350 . S
C1132 C1129 1.463 . S
C1132 N1136 1.427 . S
C1133 H1123 0.929 . S
C1133 C1131 1.433 . S
C1133 N1136 1.384 . S
C1134 H1125 0.929 . S
C1134 C1126 1.378 . S
C1134 C1129 1.350 . S
C1135 H1122 0.929 . S
C1135 C1127 1.433 . S
C1135 N1137 1.384 . S
N1136 C1132 1.427 . S
N1136 C1133 1.384 . S
N1137 C1129 1.427 . S
N1137 C1135 1.384 . S
H1138 C1144 0.930 . S
H1139 C1148 0.930 . S
H1140 C1153 0.929 1_556 S
H1141 C1151 0.929 . S
H1142 C1146 0.929 . S
H1143 C1152 0.929 . S
C1144 H1138 0.930 . S
C1144 C1145 1.344 1_554 S
C1144 C1152 1.378 . S
C1145 C1144 1.344 1_556 S
C1145 C1153 1.422 1_556 S
C1146 H1142 0.929 . S
C1146 C1148 1.378 . S
C1146 C1150 1.350 . S
C1147 C1150 1.463 . S
C1147 C1152 1.350 . S
C1147 N1155 1.427 . S
C1148 H1139 0.930 . S
C1148 C1146 1.378 . S
C1148 C1149 1.367 . S
C1149 C1148 1.367 . S
C1149 C1151 1.433 . S
C1150 C1146 1.350 . S
C1150 C1147 1.463 . S
C1150 N1154 1.427 . S
C1151 H1141 0.929 . S
C1151 C1149 1.433 . S
C1151 N1154 1.384 . S
C1152 H1143 0.929 . S
C1152 C1144 1.378 . S
C1152 C1147 1.350 . S
C1153 H1140 0.929 1_554 S
C1153 C1145 1.422 1_554 S
C1153 N1155 1.384 . S
N1154 C1150 1.427 . S
N1154 C1151 1.384 . S
N1155 C1147 1.427 . S
N1155 C1153 1.384 . S
H1156 C1162 0.930 . S
H1157 C1166 0.930 . S
H1158 C1171 0.929 . S
H1159 C1169 0.929 . S
H1160 C1164 0.929 . S
H1161 C1170 0.929 . S
C1162 H1156 0.930 . S
C1162 C1163 1.367 . S
C1162 C1170 1.378 . S
C1163 C1162 1.367 . S
C1163 C1171 1.433 . S
C1164 H1160 0.929 . S
C1164 C1166 1.378 . S
C1164 C1168 1.350 . S
C1165 C1168 1.463 . S
C1165 C1170 1.350 . S
C1165 N1173 1.427 . S
C1166 H1157 0.930 . S
C1166 C1164 1.378 . S
C1166 C1167 1.367 . S
C1167 C1166 1.367 . S
C1167 C1169 1.433 . S
C1168 C1164 1.350 . S
C1168 C1165 1.463 . S
C1168 N1172 1.427 . S
C1169 H1159 0.929 . S
C1169 C1167 1.433 . S
C1169 N1172 1.384 . S
C1170 H1161 0.929 . S
C1170 C1162 1.378 . S
C1170 C1165 1.350 . S
C1171 H1158 0.929 . S
C1171 C1163 1.433 . S
C1171 N1173 1.384 . S
N1172 C1168 1.427 . S
N1172 C1169 1.384 . S
N1173 C1165 1.427 . S
N1173 C1171 1.384 . S
H1174 C1180 0.930 . S
H1175 C1184 0.930 . S
H1176 C1189 0.929 . S
H1177 C1187 0.929 . S
H1178 C1182 0.929 . S
H1179 C1188 0.929 . S
C1180 H1174 0.930 . S
C1180 C1181 1.367 . S
C1180 C1188 1.378 1_556 S
C1181 C1180 1.367 . S
C1181 C1189 1.433 . S
C1182 H1178 0.929 . S
C1182 C1184 1.378 . S
C1182 C1186 1.350 . S
C1183 C1186 1.463 . S
C1183 C1188 1.350 . S
C1183 N1191 1.427 . S
C1184 H1175 0.930 . S
C1184 C1182 1.378 . S
C1184 C1185 1.367 . S
C1185 C1184 1.367 . S
C1185 C1187 1.433 . S
C1186 C1182 1.350 . S
C1186 C1183 1.463 . S
C1186 N1190 1.427 . S
C1187 H1177 0.929 . S
C1187 C1185 1.433 . S
C1187 N1190 1.384 . S
C1188 H1179 0.929 . S
C1188 C1180 1.378 1_554 S
C1188 C1183 1.350 . S
C1189 H1176 0.929 . S
C1189 C1181 1.433 . S
C1189 N1191 1.384 1_556 S
N1190 C1186 1.427 . S
N1190 C1187 1.384 . S
N1191 C1183 1.427 . S
N1191 C1189 1.384 1_554 S
H1192 C1198 0.930 . S
H1193 C1202 0.930 . S
H1194 C1207 0.929 . S
H1195 C1205 0.929 . S
H1196 C1200 0.929 . S
H1197 C1206 0.929 . S
C1198 H1192 0.930 . S
C1198 C1199 1.367 . S
C1198 C1206 1.378 . S
C1199 C1198 1.367 . S
C1199 C1207 1.433 . S
C1200 H1196 0.929 . S
C1200 C1202 1.378 . S
C1200 C1204 1.350 . S
C1201 C1204 1.463 . S
C1201 C1206 1.350 . S
C1201 N1209 1.427 . S
C1202 H1193 0.930 . S
C1202 C1200 1.378 . S
C1202 C1203 1.367 . S
C1203 C1202 1.367 . S
C1203 C1205 1.433 . S
C1204 C1200 1.350 . S
C1204 C1201 1.463 . S
C1204 N1208 1.427 . S
C1205 H1195 0.929 . S
C1205 C1203 1.433 . S
C1205 N1208 1.384 . S
C1206 H1197 0.929 . S
C1206 C1198 1.378 . S
C1206 C1201 1.350 . S
C1207 H1194 0.929 . S
C1207 C1199 1.433 . S
C1207 N1209 1.384 . S
N1208 C1204 1.427 . S
N1208 C1205 1.384 . S
N1209 C1201 1.427 . S
N1209 C1207 1.384 . S
H1210 C1216 0.930 . S
H1211 C1220 0.930 . S
H1212 C1225 0.929 . S
H1213 C1223 0.929 . S
H1214 C1218 0.929 . S
H1215 C1224 0.929 . S
C1216 H1210 0.930 . S
C1216 C1217 1.367 . S
C1216 C1224 1.378 . S
C1217 C1216 1.367 . S
C1217 C1225 1.433 . S
C1218 H1214 0.929 . S
C1218 C1220 1.378 . S
C1218 C1222 1.350 . S
C1219 C1222 1.463 . S
C1219 C1224 1.350 . S
C1219 N1227 1.427 . S
C1220 H1211 0.930 . S
C1220 C1218 1.378 . S
C1220 C1221 1.367 . S
C1221 C1220 1.367 . S
C1221 C1223 1.433 . S
C1222 C1218 1.350 . S
C1222 C1219 1.463 . S
C1222 N1226 1.427 . S
C1223 H1213 0.929 . S
C1223 C1221 1.433 . S
C1223 N1226 1.384 . S
C1224 H1215 0.929 . S
C1224 C1216 1.378 . S
C1224 C1219 1.350 . S
C1225 H1212 0.929 . S
C1225 C1217 1.433 . S
C1225 N1227 1.384 . S
N1226 C1222 1.427 . S
N1226 C1223 1.384 . S
N1227 C1219 1.427 . S
N1227 C1225 1.384 . S
H1228 C1234 0.930 . S
H1229 C1238 0.930 . S
H1230 C1243 0.929 . S
H1231 C1241 0.929 . S
H1232 C1236 0.929 . S
H1233 C1242 0.929 . S
C1234 H1228 0.930 . S
C1234 C1235 1.367 . S
C1234 C1242 1.378 . S
C1235 C1234 1.367 . S
C1235 C1243 1.433 . S
C1236 H1232 0.929 . S
C1236 C1238 1.378 . S
C1236 C1240 1.350 . S
C1237 C1240 1.463 . S
C1237 C1242 1.350 . S
C1237 N1245 1.427 . S
C1238 H1229 0.930 . S
C1238 C1236 1.378 . S
C1238 C1239 1.367 . S
C1239 C1238 1.367 . S
C1239 C1241 1.433 . S
C1240 C1236 1.350 . S
C1240 C1237 1.463 . S
C1240 N1244 1.427 . S
C1241 H1231 0.929 . S
C1241 C1239 1.433 . S
C1241 N1244 1.384 . S
C1242 H1233 0.929 . S
C1242 C1234 1.378 . S
C1242 C1237 1.350 . S
C1243 H1230 0.929 . S
C1243 C1235 1.433 . S
C1243 N1245 1.384 . S
N1244 C1240 1.427 . S
N1244 C1241 1.384 . S
N1245 C1237 1.427 . S
N1245 C1243 1.384 . S
H1246 C1252 0.930 . S
H1247 C1256 0.930 . S
H1248 C1261 0.929 . S
H1249 C1259 0.929 . S
H1250 C1254 0.929 . S
H1251 C1260 0.929 . S
C1252 H1246 0.930 . S
C1252 C1253 1.367 . S
C1252 C1260 1.378 . S
C1253 C1252 1.367 . S
C1253 C1261 1.433 . S
C1254 H1250 0.929 . S
C1254 C1256 1.378 . S
C1254 C1258 1.350 . S
C1255 C1258 1.463 . S
C1255 C1260 1.350 . S
C1255 N1263 1.427 . S
C1256 H1247 0.930 . S
C1256 C1254 1.378 . S
C1256 C1257 1.367 . S
C1257 C1256 1.367 . S
C1257 C1259 1.433 . S
C1258 C1254 1.350 . S
C1258 C1255 1.463 . S
C1258 N1262 1.427 . S
C1259 H1249 0.929 . S
C1259 C1257 1.433 . S
C1259 N1262 1.384 . S
C1260 H1251 0.929 . S
C1260 C1252 1.378 . S
C1260 C1255 1.350 . S
C1261 H1248 0.929 . S
C1261 C1253 1.433 . S
C1261 N1263 1.384 . S
N1262 C1258 1.427 . S
N1262 C1259 1.384 . S
N1263 C1255 1.427 . S
N1263 C1261 1.384 . S
H1264 C1270 0.930 . S
H1265 C1274 0.930 . S
H1266 C1279 0.929 . S
H1267 C1277 0.929 . S
H1268 C1272 0.929 . S
H1269 C1278 0.929 . S
C1270 H1264 0.930 . S
C1270 C1271 1.367 . S
C1270 C1278 1.378 . S
C1271 C1270 1.367 . S
C1271 C1279 1.433 . S
C1272 H1268 0.929 . S
C1272 C1274 1.378 . S
C1272 C1276 1.350 . S
C1273 C1276 1.463 . S
C1273 C1278 1.350 . S
C1273 N1281 1.427 . S
C1274 H1265 0.930 . S
C1274 C1272 1.378 . S
C1274 C1275 1.367 . S
C1275 C1274 1.367 . S
C1275 C1277 1.433 . S
C1276 C1272 1.350 . S
C1276 C1273 1.463 . S
C1276 N1280 1.427 . S
C1277 H1267 0.929 . S
C1277 C1275 1.433 . S
C1277 N1280 1.384 . S
C1278 H1269 0.929 . S
C1278 C1270 1.378 . S
C1278 C1273 1.350 . S
C1279 H1266 0.929 . S
C1279 C1271 1.433 . S
C1279 N1281 1.384 . S
N1280 C1276 1.427 . S
N1280 C1277 1.384 . S
N1281 C1273 1.427 . S
N1281 C1279 1.384 . S
H1282 C1288 0.930 . S
H1283 C1292 0.930 . S
H1284 C1297 0.929 . S
H1285 C1295 0.929 . S
H1286 C1290 0.929 . S
H1287 C1296 0.929 . S
C1288 H1282 0.930 . S
C1288 C1289 1.367 . S
C1288 C1296 1.378 . S
C1289 C1288 1.367 . S
C1289 C1297 1.433 . S
C1290 H1286 0.929 . S
C1290 C1292 1.378 . S
C1290 C1294 1.350 . S
C1291 C1294 1.463 . S
C1291 C1296 1.350 . S
C1291 N1299 1.427 . S
C1292 H1283 0.930 . S
C1292 C1290 1.378 . S
C1292 C1293 1.367 . S
C1293 C1292 1.367 . S
C1293 C1295 1.433 . S
C1294 C1290 1.350 . S
C1294 C1291 1.463 . S
C1294 N1298 1.427 . S
C1295 H1285 0.929 . S
C1295 C1293 1.433 . S
C1295 N1298 1.384 . S
C1296 H1287 0.929 . S
C1296 C1288 1.378 . S
C1296 C1291 1.350 . S
C1297 H1284 0.929 . S
C1297 C1289 1.433 . S
C1297 N1299 1.384 . S
N1298 C1294 1.427 . S
N1298 C1295 1.384 . S
N1299 C1291 1.427 . S
N1299 C1297 1.384 . S
H1300 C1306 0.930 . S
H1301 C1310 0.930 . S
H1302 C1315 0.929 . S
H1303 C1313 0.929 1_556 S
H1304 C1308 0.929 . S
H1305 C1314 0.929 . S
C1306 H1300 0.930 . S
C1306 C1307 1.367 . S
C1306 C1314 1.378 . S
C1307 C1306 1.367 . S
C1307 C1315 1.433 . S
C1308 H1304 0.929 . S
C1308 C1310 1.378 . S
C1308 C1312 1.350 . S
C1309 C1312 1.463 . S
C1309 C1314 1.350 . S
C1309 N1317 1.427 . S
C1310 H1301 0.930 . S
C1310 C1308 1.378 . S
C1310 C1311 1.367 . S
C1311 C1310 1.367 . S
C1311 C1313 1.433 . S
C1312 C1308 1.350 . S
C1312 C1309 1.463 . S
C1312 N1316 1.427 . S
C1313 H1303 0.929 1_554 S
C1313 C1311 1.433 . S
C1313 N1316 1.384 . S
C1314 H1305 0.929 . S
C1314 C1306 1.378 . S
C1314 C1309 1.350 . S
C1315 H1302 0.929 . S
C1315 C1307 1.433 . S
C1315 N1317 1.384 . S
N1316 C1312 1.427 . S
N1316 C1313 1.384 . S
N1317 C1309 1.427 . S
N1317 C1315 1.384 . S
H1318 C1324 0.930 . S
H1319 C1328 0.930 . S
H1320 C1333 0.929 . S
H1321 C1331 0.929 . S
H1322 C1326 0.929 . S
H1323 C1332 0.929 . S
C1324 H1318 0.930 . S
C1324 C1325 1.367 . S
C1324 C1332 1.378 . S
C1325 C1324 1.367 . S
C1325 C1333 1.433 . S
C1326 H1322 0.929 . S
C1326 C1328 1.378 . S
C1326 C1330 1.350 . S
C1327 C1330 1.463 . S
C1327 C1332 1.350 . S
C1327 N1335 1.427 . S
C1328 H1319 0.930 . S
C1328 C1326 1.378 . S
C1328 C1329 1.367 . S
C1329 C1328 1.367 . S
C1329 C1331 1.433 . S
C1330 C1326 1.350 . S
C1330 C1327 1.463 . S
C1330 N1334 1.427 . S
C1331 H1321 0.929 . S
C1331 C1329 1.433 . S
C1331 N1334 1.384 . S
C1332 H1323 0.929 . S
C1332 C1324 1.378 . S
C1332 C1327 1.350 . S
C1333 H1320 0.929 . S
C1333 C1325 1.433 . S
C1333 N1335 1.384 . S
N1334 C1330 1.427 . S
N1334 C1331 1.384 . S
N1335 C1327 1.427 . S
N1335 C1333 1.384 . S
C483 C312 2.054 . S
C479 C101 2.058 . S
C501 C327 1.499 . S
C497 C125 1.464 . S
C515 C139 2.233 . S
C519 C340 2.203 . S
C537 C354 1.698 . S
C533 C82 1.721 . S
C555 C366 1.777 . S
C551 C196 1.942 . S
C573 C380 1.595 . S
C569 C234 1.644 . S
C587 C220 1.119 . S
C591 C394 1.174 . S
C609 C409 1.518 . S
C605 C173 1.550 . S
C623 C211 1.405 . S
C627 C425 1.342 . S
C645 C438 1.171 . S
C641 C182 1.023 . S
C659 C201 1.477 . S
C663 C423 1.582 . S
C681 C436 1.656 . S
C677 C239 1.646 . S
C695 C135 2.043 . S
C699 C452 2.038 . S
C713 C87 1.846 . S
C717 C451 1.870 . S
C731 C106 1.332 . S
C735 C450 1.467 . S
C749 C116 1.335 . S
C753 C453 1.348 . S
C767 C59 2.102 . S
C771 C355 2.100 1_565 S
C785 C268 2.062 . S
C789 C353 2.042 . S
C807 C313 1.195 . S
C803 C291 1.243 . S
C825 C324 1.707 . S
C821 C163 1.601 . S
C839 C78 1.853 . S
C843 C369 1.857 . S
C861 C410 1.653 . S
C857 C215 1.659 . S
C879 C367 1.912 . S
C875 C177 1.926 . S
C897 C395 1.642 . S
C893 C230 1.685 . S
C915 C396 2.053 . S
C911 C272 2.058 . S
C929 C296 1.465 . S
C933 C411 1.492 . S
C947 C158 2.234 . S
C951 C368 2.200 . S
C969 C382 1.699 . S
C965 C253 1.721 . S
C983 C63 1.943 . S
C987 C338 1.784 . S
C1005 C352 1.591 . S
C1001 C6 1.643 . S
C1023 C310 1.176 . S
C1019 C30 1.133 . S
C1041 C325 1.529 . S
C1037 C40 1.539 . S
C1055 C21 1.405 . S
C1059 C439 1.339 . S
C1073 C49 1.040 . S
C1077 C424 1.177 . S
C1091 C68 1.474 . S
C1095 C437 1.583 . S
C1109 C11 1.647 . S
C1113 C422 1.655 . S
C1131 C466 2.039 . S
C1127 C154 2.043 . S
C1149 C465 1.878 . S
C1145 C258 1.881 . S
C1167 C464 1.467 . S
C1163 C277 1.330 . S
C1181 C287 1.317 . S
C1185 C467 1.332 . S
C1199 C192 2.106 . S
C1203 C383 2.105 . S
C1221 C381 2.035 . S
C1217 C97 2.060 . S
C1239 C397 1.178 . S
C1235 C120 1.233 . S
C1257 C408 1.705 . S
C1253 C144 1.599 . S
C1271 C249 1.844 . S
C1275 C341 1.848 . S
C1293 C326 1.651 . S
C1289 C25 1.656 . S
C1307 C44 1.932 . S
C1311 C339 1.919 . S
C1329 C311 1.642 1_545 S
C1325 C2 1.678 . S
