# Generated by pormake.
# Topology apo, (3,6)-cn, num edge types: 1
# Building blocks:
#     Node 0, Type 0, BuildingBlock: BETDIP_clean_linker_0, # of connection points: 3
#     Node 1, Type 0, BuildingBlock: BETDIP_clean_linker_0, # of connection points: 3
#     Node 2, Type 0, BuildingBlock: BETDIP_clean_linker_0, # of connection points: 3
#     Node 3, Type 0, BuildingBlock: BETDIP_clean_linker_0, # of connection points: 3
#     Node 4, Type 0, BuildingBlock: BETDIP_clean_linker_0, # of connection points: 3
#     Node 5, Type 0, BuildingBlock: BETDIP_clean_linker_0, # of connection points: 3
#     Node 6, Type 0, BuildingBlock: BETDIP_clean_linker_0, # of connection points: 3
#     Node 7, Type 0, BuildingBlock: BETDIP_clean_linker_0, # of connection points: 3
#     Node 8, Type 1, BuildingBlock: KUMBOL_clean_sbu_1, # of connection points: 6
#     Node 9, Type 1, BuildingBlock: KUMBOL_clean_sbu_1, # of connection points: 6
#     Node 10, Type 1, BuildingBlock: KUMBOL_clean_sbu_1, # of connection points: 6
#     Node 11, Type 1, BuildingBlock: KUMBOL_clean_sbu_1, # of connection points: 6
#     Edge 12, Type (0, 1), BuildingBlock: KIFKEQ_clean_linker_1, # of connection points: 2
#     Edge 13, Type (0, 1), BuildingBlock: KIFKEQ_clean_linker_1, # of connection points: 2
#     Edge 14, Type (0, 1), BuildingBlock: KIFKEQ_clean_linker_1, # of connection points: 2
#     Edge 15, Type (0, 1), BuildingBlock: KIFKEQ_clean_linker_1, # of connection points: 2
#     Edge 16, Type (0, 1), BuildingBlock: KIFKEQ_clean_linker_1, # of connection points: 2
#     Edge 17, Type (0, 1), BuildingBlock: KIFKEQ_clean_linker_1, # of connection points: 2
#     Edge 18, Type (0, 1), BuildingBlock: KIFKEQ_clean_linker_1, # of connection points: 2
#     Edge 19, Type (0, 1), BuildingBlock: KIFKEQ_clean_linker_1, # of connection points: 2
#     Edge 20, Type (0, 1), BuildingBlock: KIFKEQ_clean_linker_1, # of connection points: 2
#     Edge 21, Type (0, 1), BuildingBlock: KIFKEQ_clean_linker_1, # of connection points: 2
#     Edge 22, Type (0, 1), BuildingBlock: KIFKEQ_clean_linker_1, # of connection points: 2
#     Edge 23, Type (0, 1), BuildingBlock: KIFKEQ_clean_linker_1, # of connection points: 2
#     Edge 24, Type (0, 1), BuildingBlock: KIFKEQ_clean_linker_1, # of connection points: 2
#     Edge 25, Type (0, 1), BuildingBlock: KIFKEQ_clean_linker_1, # of connection points: 2
#     Edge 26, Type (0, 1), BuildingBlock: KIFKEQ_clean_linker_1, # of connection points: 2
#     Edge 27, Type (0, 1), BuildingBlock: KIFKEQ_clean_linker_1, # of connection points: 2
#     Edge 28, Type (0, 1), BuildingBlock: KIFKEQ_clean_linker_1, # of connection points: 2
#     Edge 29, Type (0, 1), BuildingBlock: KIFKEQ_clean_linker_1, # of connection points: 2
#     Edge 30, Type (0, 1), BuildingBlock: KIFKEQ_clean_linker_1, # of connection points: 2
#     Edge 31, Type (0, 1), BuildingBlock: KIFKEQ_clean_linker_1, # of connection points: 2
#     Edge 32, Type (0, 1), BuildingBlock: KIFKEQ_clean_linker_1, # of connection points: 2
#     Edge 33, Type (0, 1), BuildingBlock: KIFKEQ_clean_linker_1, # of connection points: 2
#     Edge 34, Type (0, 1), BuildingBlock: KIFKEQ_clean_linker_1, # of connection points: 2
#     Edge 35, Type (0, 1), BuildingBlock: KIFKEQ_clean_linker_1, # of connection points: 2
# Relax obj value: 0.037
# Max RMSD: 0.198
# Mean RMSD: 0.156
data_MOF--net-apo--node1-KUMBOL_clean_sbu_1--node2-BETDIP_clean_linker_0--edge1-KIFKEQ_clean_linker_1
_symmetry_space_group_name_H-M    P1
_symmetry_Int_Tables_number       1
_symmetry_cell_setting            triclinic
loop_
_symmetry_equiv_pos_as_xyz
'x, y, z'
_cell_length_a     28.133757
_cell_length_b     42.772684
_cell_length_c     52.227235
_cell_angle_alpha  90.029973
_cell_angle_beta   89.989302
_cell_angle_gamma 90.501675
loop_
_atom_site_label
_atom_site_type_symbol
_atom_site_fract_x
_atom_site_fract_y
_atom_site_fract_z
_atom_type_partial_charge
H0 H 0.28641 0.34395 0.45023 0.0
H1 H 0.29734 0.38269 0.37461 0.0
H2 H 0.364 0.43 0.43784 0.0
H3 H 0.21898 0.36178 0.37383 0.0
C4 C 0.22731 0.33866 0.38111 0.0
C5 C 0.29924 0.36229 0.43763 0.0
C6 C 0.32701 0.3871 0.44745 0.0
C7 C 0.28726 0.36105 0.41158 0.0
C8 C 0.3047 0.38431 0.39492 0.0
C9 C 0.33319 0.409 0.40416 0.0
C10 C 0.34371 0.41032 0.43047 0.0
N11 N 0.25851 0.33585 0.40242 0.0
H12 H 0.22647 0.17259 0.94014 0.0
H13 H 0.21302 0.12726 0.86705 0.0
H14 H 0.14561 0.08712 0.93334 0.0
H15 H 0.28318 0.15094 0.85952 0.0
C16 C 0.28052 0.17343 0.86904 0.0
C17 C 0.2126 0.15355 0.92857 0.0
C18 C 0.18434 0.13008 0.93987 0.0
C19 C 0.22459 0.15217 0.90257 0.0
C20 C 0.20633 0.12763 0.88744 0.0
C21 C 0.17762 0.10407 0.89833 0.0
C22 C 0.16728 0.10532 0.92466 0.0
N23 N 0.25415 0.17617 0.89217 0.0
H24 H 0.76947 0.17353 0.5813 0.0
H25 H 0.78297 0.13071 0.65514 0.0
H26 H 0.84961 0.08866 0.5897 0.0
H27 H 0.70561 0.15009 0.65757 0.0
C28 C 0.713 0.17371 0.65092 0.0
C29 C 0.78372 0.15506 0.59315 0.0
C30 C 0.81098 0.13113 0.58212 0.0
C31 C 0.77257 0.15462 0.61924 0.0
C32 C 0.79062 0.13078 0.63482 0.0
C33 C 0.81835 0.10686 0.62435 0.0
C34 C 0.82797 0.10696 0.59789 0.0
N35 N 0.74326 0.17845 0.62945 0.0
H36 H 0.73074 0.32575 0.08688 0.0
H37 H 0.72435 0.37343 0.15914 0.0
H38 H 0.65439 0.41233 0.09347 0.0
H39 H 0.72618 0.32195 0.17324 0.0
C40 C 0.75459 0.31302 0.16127 0.0
C41 C 0.71853 0.34533 0.09823 0.0
C42 C 0.69106 0.36889 0.08686 0.0
C43 C 0.7298 0.34642 0.12431 0.0
C44 C 0.71454 0.37186 0.13913 0.0
C45 C 0.68774 0.39591 0.12809 0.0
C46 C 0.67631 0.39433 0.1019 0.0
N47 N 0.75704 0.32185 0.13507 0.0
H48 H 0.73694 0.66329 0.57792 0.0
H49 H 0.71575 0.62634 0.65358 0.0
H50 H 0.66207 0.57614 0.58811 0.0
H51 H 0.71578 0.67975 0.66233 0.0
C52 C 0.74749 0.68635 0.65166 0.0
C53 C 0.72305 0.64511 0.59037 0.0
C54 C 0.69835 0.61947 0.57993 0.0
C55 C 0.72936 0.64775 0.61688 0.0
C56 C 0.71103 0.62431 0.63309 0.0
C57 C 0.68649 0.59831 0.62297 0.0
C58 C 0.68083 0.596 0.59627 0.0
N59 N 0.75487 0.67393 0.62675 0.0
H60 H 0.76467 0.85621 0.07912 0.0
H61 H 0.78395 0.88772 0.15655 0.0
H62 H 0.85128 0.93768 0.09516 0.0
H63 H 0.78309 0.83373 0.1628 0.0
C64 C 0.75175 0.82775 0.15159 0.0
C65 C 0.78043 0.87265 0.09248 0.0
C66 C 0.80875 0.89774 0.08349 0.0
C67 C 0.77261 0.86829 0.11881 0.0
C68 C 0.79159 0.89007 0.13632 0.0
C69 C 0.81921 0.91551 0.12783 0.0
C70 C 0.82808 0.91888 0.1015 0.0
N71 N 0.74511 0.84211 0.12727 0.0
H72 H 0.23365 0.83038 0.44268 0.0
H73 H 0.23779 0.87902 0.37074 0.0
H74 H 0.14923 0.91301 0.43122 0.0
H75 H 0.31249 0.85863 0.36982 0.0
C76 C 0.30549 0.83494 0.37642 0.0
C77 C 0.22226 0.84972 0.43086 0.0
C78 C 0.18931 0.87149 0.44039 0.0
C79 C 0.24077 0.85257 0.40604 0.0
C80 C 0.22528 0.87709 0.39028 0.0
C81 C 0.19186 0.89861 0.39923 0.0
C82 C 0.17408 0.89577 0.42423 0.0
N83 N 0.27333 0.82976 0.39704 0.0
H84 H 0.28325 0.68144 0.93989 0.0
H85 H 0.29065 0.63526 0.86699 0.0
H86 H 0.36022 0.59538 0.93243 0.0
H87 H 0.28569 0.6856 0.85308 0.0
C88 C 0.2584 0.69496 0.86557 0.0
C89 C 0.29559 0.66211 0.9283 0.0
C90 C 0.32333 0.63852 0.93935 0.0
C91 C 0.28423 0.66136 0.90223 0.0
C92 C 0.29968 0.6362 0.88711 0.0
C93 C 0.32725 0.61228 0.89779 0.0
C94 C 0.3387 0.61357 0.92401 0.0
N95 N 0.25706 0.68614 0.89179 0.0
C96 C 0.88377 0.06908 0.28559 0.0
C97 C 0.90084 0.01867 0.30439 0.0
C98 C 0.91425 0.04984 0.29904 0.0
C99 C 0.85749 0.00685 0.29494 0.0
C100 C 0.83949 0.05774 0.27684 0.0
C101 C 0.82685 0.02636 0.28122 0.0
N102 N 0.89749 0.0991 0.28115 0.0
C103 C 0.86747 0.11967 0.26961 0.0
C104 C 0.80911 0.07839 0.26417 0.0
C105 C 0.82298 0.10958 0.26079 0.0
Gd106 Gd 0.07241 0.11631 0.23952 0.0
Gd107 Gd 0.97274 0.11417 0.29627 0.0
N108 N 0.95576 0.06208 0.30806 0.0
C109 C 0.93069 1.00064 0.31978 0.0
C110 C 0.98258 0.0455 0.32497 0.0
C111 C 0.97128 0.01432 0.33052 0.0
H112 H 0.01229 0.05638 0.33463 0.0
H113 H 0.99347 1.00104 0.34341 0.0
H114 H 0.06279 0.18617 0.21307 0.0
H115 H 0.87817 0.14379 0.26708 0.0
H116 H 0.10791 0.23623 0.21111 0.0
H117 H 0.92173 0.97658 0.32432 0.0
H118 H 0.84682 0.98288 0.29866 0.0
H119 H 0.15141 0.06295 0.26163 0.0
H120 H 0.77473 0.07059 0.2572 0.0
H121 H 0.79949 0.12582 0.25135 0.0
H122 H 0.247 0.21715 0.26205 0.0
H123 H 0.79317 0.01709 0.27445 0.0
H124 H 0.27189 0.11241 0.29124 0.0
H125 H 0.228 0.06281 0.28419 0.0
N126 N 0.14792 0.11265 0.25915 0.0
C127 C 0.17323 0.1398 0.26106 0.0
C128 C 0.16843 0.08502 0.26596 0.0
C129 C 0.23732 0.11276 0.28211 0.0
C130 C 0.21261 0.08473 0.27822 0.0
C131 C 0.21842 0.14065 0.27275 0.0
H132 H 0.27869 0.1701 0.28284 0.0
N133 N 0.11273 0.16437 0.23757 0.0
C134 C 0.15555 0.16635 0.24944 0.0
C135 C 0.16449 0.21987 0.23538 0.0
C136 C 0.18227 0.19436 0.24907 0.0
C137 C 0.09609 0.18862 0.22325 0.0
C138 C 0.12152 0.21684 0.22211 0.0
O139 O 0.95517 0.09527 0.25657 0.0
O140 O 0.02489 0.07377 0.24284 0.0
O141 O 0.06161 0.12166 0.19829 0.0
O142 O 0.11956 0.09406 0.21243 0.0
O143 O 0.04554 0.09409 0.30384 0.0
O144 O 0.06831 0.07338 0.26508 0.0
O145 O 0.06393 0.15738 0.26663 0.0
O146 O 0.04625 0.13338 0.30443 0.0
O147 O 0.95269 0.11244 0.33633 0.0
O148 O 0.93856 0.15404 0.31431 0.0
O149 O 1.00152 0.13903 0.23054 0.0
O150 O 0.97125 0.15597 0.26976 0.0
C151 C 0.97832 0.07381 0.24378 0.0
C152 C 0.06728 0.07269 0.29026 0.0
C153 C 0.1341 0.12351 0.17518 0.0
C154 C 0.15865 0.13916 0.13204 0.0
C155 C 0.20733 0.15303 0.16894 0.0
C156 C 0.17523 0.13791 0.18509 0.0
C157 C 0.19931 0.1536 0.14263 0.0
C158 C 0.12591 0.12418 0.14859 0.0
C159 C 0.10063 0.10717 0.1925 0.0
C160 C 0.22616 0.19573 0.26182 0.0
C161 C 0.24414 0.16895 0.27371 0.0
H162 H 0.18404 0.24178 0.23454 0.0
C163 C 0.06563 0.1566 0.29171 0.0
C164 C 0.97428 0.15754 0.24452 0.0
C165 C 0.88686 0.1419 0.34925 0.0
C166 C 0.84177 0.13982 0.38929 0.0
C167 C 0.80105 0.14695 0.34861 0.0
C168 C 0.84442 0.14611 0.33563 0.0
C169 C 0.7996 0.14378 0.37523 0.0
C170 C 0.88531 0.13889 0.37604 0.0
C171 C 0.93317 0.13982 0.33619 0.0
H172 H 0.23899 0.16393 0.1768 0.0
H173 H 0.18308 0.13709 0.20531 0.0
H174 H 0.22575 0.16471 0.13053 0.0
H175 H 0.09426 0.11304 0.14089 0.0
H176 H 0.76841 0.15018 0.338 0.0
H177 H 0.84469 0.14876 0.31506 0.0
H178 H 0.76555 0.14493 0.38485 0.0
H179 H 0.9181 0.13534 0.38651 0.0
C180 C 0.65842 0.41752 0.76905 0.0
C181 C 0.66801 0.47267 0.77904 0.0
C182 C 0.64116 0.44472 0.77992 0.0
C183 C 0.71156 0.47324 0.76592 0.0
C184 C 0.70323 0.41765 0.75693 0.0
C185 C 0.72908 0.4458 0.75482 0.0
N186 N 0.63296 0.39056 0.77192 0.0
C187 C 0.65281 0.36257 0.76561 0.0
C188 C 0.72158 0.38927 0.74821 0.0
C189 C 0.69665 0.36154 0.75303 0.0
Gd190 Gd 0.45158 0.39275 0.73886 0.0
Gd191 Gd 0.55816 0.39553 0.79185 0.0
N192 N 0.59851 0.44359 0.79205 0.0
C193 C 0.65062 0.49902 0.79182 0.0
C194 C 0.58238 0.46865 0.8056 0.0
C195 C 0.60792 0.49687 0.80546 0.0
H196 H 0.54944 0.46687 0.81615 0.0
H197 H 0.59465 0.51692 0.81579 0.0
H198 H 0.48417 0.33364 0.69953 0.0
H199 H 0.63559 0.34086 0.77073 0.0
H200 H 0.4629 0.27835 0.69248 0.0
H201 H 0.67025 0.52092 0.79166 0.0
H202 H 0.73246 0.49459 0.76473 0.0
H203 H 0.36107 0.42463 0.76993 0.0
H204 H 0.75586 0.38837 0.73879 0.0
H205 H 0.71161 0.33929 0.74753 0.0
H206 H 0.32188 0.26315 0.74284 0.0
H207 H 0.76335 0.4464 0.74535 0.0
H208 H 0.25696 0.35308 0.78472 0.0
H209 H 0.28382 0.40818 0.78856 0.0
N210 N 0.37756 0.37922 0.75629 0.0
C211 C 0.36248 0.3493 0.75285 0.0
C212 C 0.34943 0.40058 0.76823 0.0
C213 C 0.29067 0.36022 0.77646 0.0
C214 C 0.30575 0.39134 0.77871 0.0
C215 C 0.31895 0.33879 0.76323 0.0
H216 H 0.27205 0.29877 0.7681 0.0
N217 N 0.43114 0.34086 0.7279 0.0
C218 C 0.39064 0.32933 0.73867 0.0
C219 C 0.40326 0.27934 0.71834 0.0
C220 C 0.37585 0.29816 0.73442 0.0
C221 C 0.45546 0.32344 0.71043 0.0
C222 C 0.44272 0.29225 0.70589 0.0
O223 O 0.54792 0.43554 0.76381 0.0
O224 O 0.52535 0.40833 0.72845 0.0
O225 O 0.42016 0.39106 0.70052 0.0
O226 O 0.42375 0.43514 0.72178 0.0
O227 O 0.48917 0.41832 0.80268 0.0
O228 O 0.45236 0.43515 0.76528 0.0
O229 O 0.43967 0.3753 0.77935 0.0
O230 O 0.51052 0.35282 0.78997 0.0
O231 O 0.5452 0.39987 0.8327 0.0
O232 O 0.61018 0.3791 0.81936 0.0
O233 O 0.52196 0.36995 0.72871 0.0
O234 O 0.5524 0.35201 0.7671 0.0
C235 C 0.5453 0.43292 0.73883 0.0
C236 C 0.46145 0.43766 0.79007 0.0
C237 C 0.38809 0.43729 0.6793 0.0
C238 C 0.36768 0.44143 0.63384 0.0
C239 C 0.34861 0.48361 0.66325 0.0
C240 C 0.36855 0.46697 0.68346 0.0
C241 C 0.34839 0.47108 0.63861 0.0
C242 C 0.38697 0.42435 0.65442 0.0
C243 C 0.41128 0.42084 0.70077 0.0
C244 C 0.33352 0.28713 0.74565 0.0
C245 C 0.30505 0.30743 0.75996 0.0
H246 H 0.39317 0.25527 0.71459 0.0
C247 C 0.46386 0.35297 0.79041 0.0
C248 C 0.54712 0.3498 0.74207 0.0
C249 C 0.57852 0.3606 0.85828 0.0
C250 C 0.58642 0.34277 0.90253 0.0
C251 C 0.55454 0.30788 0.86972 0.0
C252 C 0.55991 0.3313 0.85134 0.0
C253 C 0.56775 0.31347 0.89511 0.0
C254 C 0.5916 0.36631 0.88382 0.0
C255 C 0.58393 0.38552 0.83914 0.0
H256 H 0.33361 0.50645 0.66667 0.0
H257 H 0.36882 0.47741 0.70237 0.0
H258 H 0.33287 0.48455 0.62322 0.0
H259 H 0.40247 0.40164 0.6509 0.0
H260 H 0.54029 0.28525 0.86424 0.0
H261 H 0.54971 0.32653 0.83173 0.0
H262 H 0.56397 0.29465 0.90884 0.0
H263 H 0.60524 0.38919 0.88911 0.0
C264 C 0.84078 0.86031 0.76839 0.0
C265 C 0.84673 0.80414 0.77384 0.0
C266 C 0.86684 0.83438 0.77589 0.0
C267 C 0.8008 0.80032 0.7637 0.0
C268 C 0.79458 0.85657 0.75832 0.0
C269 C 0.77481 0.82645 0.75597 0.0
N270 N 0.86134 0.88912 0.77009 0.0
C271 C 0.83743 0.9152 0.76269 0.0
C272 C 0.76991 0.88321 0.75051 0.0
C273 C 0.79139 0.91265 0.75278 0.0
Gd274 Gd 0.04865 0.89282 0.7358 0.0
Gd275 Gd 0.93901 0.89105 0.78608 0.0
N276 N 0.91183 0.83871 0.785 0.0
C277 C 0.8732 0.77862 0.78227 0.0
C278 C 0.936 0.81413 0.79516 0.0
C279 C 0.91767 0.78372 0.7934 0.0
H280 H 0.96857 0.8177 0.80548 0.0
H281 H 0.93751 0.76428 0.80106 0.0
H282 H 0.02796 0.96906 0.72308 0.0
H283 H 0.85366 0.93802 0.76469 0.0
H284 H 0.06877 0.01967 0.72841 0.0
H285 H 0.85904 0.75503 0.781 0.0
H286 H 0.78498 0.77724 0.76185 0.0
H287 H 0.12707 0.83831 0.75278 0.0
H288 H 0.73434 0.8813 0.74267 0.0
H289 H 0.77252 0.93339 0.7469 0.0
H290 H 0.22155 0.99303 0.76242 0.0
H291 H 0.73947 0.8231 0.74814 0.0
H292 H 0.25505 0.88473 0.77662 0.0
H293 H 0.20871 0.83591 0.77012 0.0
N294 N 0.12654 0.88783 0.75088 0.0
C295 C 0.15177 0.9149 0.75358 0.0
C296 C 0.14659 0.8597 0.75628 0.0
C297 C 0.2191 0.88589 0.76927 0.0
C298 C 0.19301 0.85829 0.76572 0.0
C299 C 0.19867 0.91466 0.76307 0.0
H300 H 0.25956 0.9433 0.77355 0.0
N301 N 0.08436 0.94259 0.73888 0.0
C302 C 0.13023 0.94305 0.74725 0.0
C303 C 0.13247 0.99937 0.74378 0.0
C304 C 0.15523 0.97153 0.7503 0.0
C305 C 0.06285 0.96953 0.7314 0.0
C306 C 0.08627 0.99832 0.73404 0.0
O307 O 0.92754 0.87364 0.74562 0.0
O308 O 0.99842 0.85122 0.73485 0.0
O309 O 0.04429 0.90331 0.69511 0.0
O310 O 0.09728 0.87126 0.70893 0.0
O311 O 0.00911 0.86803 0.79682 0.0
O312 O 0.03773 0.84904 0.75859 0.0
O313 O 0.05883 0.91484 0.77517 0.0
O314 O 0.98562 0.93393 0.78662 0.0
O315 O 0.94056 0.88221 0.82713 0.0
O316 O 0.8878 0.91296 0.81135 0.0
O317 O 0.98172 0.91854 0.72513 0.0
O318 O 0.94333 0.93523 0.7621 0.0
C319 C 0.95196 0.85278 0.73295 0.0
C320 C 0.03628 0.84881 0.7837 0.0
C321 C 0.06568 0.86175 0.66792 0.0
C322 C 0.06958 0.8476 0.62257 0.0
C323 C 0.02925 0.81344 0.65309 0.0
C324 C 0.04029 0.83408 0.67292 0.0
C325 C 0.04383 0.82003 0.62811 0.0
C326 C 0.08022 0.86849 0.64275 0.0
C327 C 0.07729 0.88351 0.6889 0.0
C328 C 0.20189 0.97136 0.75985 0.0
C329 C 0.22355 0.94302 0.76621 0.0
H330 H 0.15044 0.02174 0.74588 0.0
C331 C 0.03217 0.93488 0.78757 0.0
C332 C 0.95196 0.93707 0.73723 0.0
C333 C 0.91392 0.92331 0.8535 0.0
C334 C 0.90767 0.93561 0.89926 0.0
C335 C 0.93968 0.97403 0.86915 0.0
C336 C 0.9332 0.95311 0.84897 0.0
C337 C 0.92675 0.96554 0.89403 0.0
C338 C 0.90156 0.91453 0.87864 0.0
C339 C 0.90609 0.90138 0.83211 0.0
H340 H 0.00973 0.79208 0.65715 0.0
H341 H 0.02944 0.82833 0.69219 0.0
H342 H 0.03571 0.80317 0.61323 0.0
H343 H 0.09952 0.89003 0.63893 0.0
H344 H 0.9543 0.9971 0.86546 0.0
H345 H 0.94269 0.96026 0.82977 0.0
H346 H 0.93099 0.98277 0.90905 0.0
H347 H 0.88745 0.89125 0.88202 0.0
C348 C 0.67102 0.63788 0.2673 0.0
C349 C 0.67412 0.69462 0.26683 0.0
C350 C 0.64891 0.66645 0.27105 0.0
C351 C 0.72168 0.69366 0.25871 0.0
C352 C 0.71883 0.63682 0.25927 0.0
C353 C 0.74398 0.66485 0.25497 0.0
N354 N 0.64554 0.61114 0.2711 0.0
C355 C 0.66597 0.5826 0.26798 0.0
C356 C 0.73985 0.6076 0.25565 0.0
C357 C 0.71334 0.58037 0.26013 0.0
Gd358 Gd 0.45602 0.6145 0.23431 0.0
Gd359 Gd 0.56619 0.61723 0.28348 0.0
N360 N 0.60227 0.66664 0.27803 0.0
C361 C 0.65065 0.72294 0.27069 0.0
C362 C 0.58 0.69416 0.28303 0.0
C363 C 0.60354 0.72268 0.27909 0.0
H364 H 0.54433 0.69436 0.29028 0.0
H365 H 0.58539 0.74446 0.28268 0.0
H366 H 0.48088 0.5404 0.21564 0.0
H367 H 0.64594 0.56153 0.27195 0.0
H368 H 0.44558 0.48798 0.21962 0.0
H369 H 0.6687 0.74509 0.26753 0.0
H370 H 0.74152 0.71507 0.25524 0.0
H371 H 0.37469 0.6642 0.25675 0.0
H372 H 0.77651 0.6058 0.24951 0.0
H373 H 0.72941 0.55768 0.25762 0.0
H374 H 0.29483 0.50563 0.25967 0.0
H375 H 0.78069 0.66449 0.2487 0.0
H376 H 0.25286 0.61099 0.28036 0.0
H377 H 0.29436 0.66192 0.27574 0.0
N378 N 0.37926 0.61508 0.25164 0.0
C379 C 0.35664 0.58692 0.25332 0.0
C380 C 0.35732 0.64184 0.25922 0.0
C381 C 0.28822 0.61185 0.27215 0.0
C382 C 0.3116 0.64064 0.26968 0.0
C383 C 0.31062 0.58453 0.26389 0.0
H384 H 0.2534 0.55276 0.2743 0.0
N385 N 0.42522 0.56316 0.23562 0.0
C386 C 0.38028 0.56022 0.24515 0.0
C387 C 0.38241 0.50434 0.23844 0.0
C388 C 0.35805 0.53064 0.24721 0.0
C389 C 0.44774 0.53784 0.2256 0.0
C390 C 0.42716 0.50804 0.22727 0.0
O391 O 0.57751 0.63657 0.24352 0.0
O392 O 0.50521 0.65663 0.23184 0.0
O393 O 0.45651 0.60579 0.19325 0.0
O394 O 0.40338 0.63585 0.20975 0.0
O395 O 0.49688 0.64095 0.29418 0.0
O396 O 0.46445 0.65914 0.25655 0.0
O397 O 0.44672 0.59393 0.27427 0.0
O398 O 0.51974 0.57413 0.28455 0.0
O399 O 0.56506 0.63449 0.32244 0.0
O400 O 0.60816 0.59454 0.31306 0.0
O401 O 0.52431 0.59026 0.22285 0.0
O402 O 0.56056 0.57296 0.26003 0.0
C403 C 0.5518 0.65609 0.23007 0.0
C404 C 0.46991 0.66065 0.28152 0.0
C405 C 0.43081 0.6484 0.16847 0.0
C406 C 0.42723 0.66346 0.12339 0.0
C407 C 0.45877 0.6997 0.15525 0.0
C408 C 0.45042 0.67775 0.17448 0.0
C409 C 0.44717 0.69273 0.1299 0.0
C410 C 0.41937 0.64128 0.14294 0.0
C411 C 0.4221 0.62521 0.18875 0.0
C412 C 0.3123 0.5282 0.25784 0.0
C413 C 0.28866 0.55505 0.26613 0.0
H414 H 0.36656 0.48121 0.23969 0.0
C415 C 0.47321 0.5732 0.28594 0.0
C416 C 0.55357 0.57149 0.23508 0.0
C417 C 0.57451 0.59682 0.35446 0.0
C418 C 0.57741 0.58976 0.40074 0.0
C419 C 0.51446 0.56516 0.37579 0.0
C420 C 0.53333 0.5782 0.35348 0.0
C421 C 0.53614 0.57106 0.39936 0.0
C422 C 0.59679 0.60234 0.3781 0.0
C423 C 0.59219 0.61245 0.33124 0.0
H424 H 0.47382 0.72234 0.16006 0.0
H425 H 0.4588 0.68377 0.19407 0.0
H426 H 0.45296 0.71054 0.11548 0.0
H427 H 0.40461 0.61846 0.13837 0.0
H428 H 0.4826 0.55082 0.37484 0.0
H429 H 0.5154 0.57429 0.33554 0.0
H430 H 0.52074 0.56099 0.41653 0.0
H431 H 0.62813 0.61725 0.37899 0.0
H432 H 0.24598 0.94257 0.37498 0.0
H433 H 0.10088 0.91149 0.38527 0.0
H434 H 0.21865 0.98481 0.34688 0.0
H435 H 0.07375 0.95317 0.35654 0.0
H436 H 0.06619 0.01082 0.27809 0.0
H437 H 0.09776 0.96763 0.3039 0.0
H438 H 0.1531 0.03404 0.35874 0.0
H439 H 0.12017 0.07707 0.33349 0.0
C440 C 0.20833 0.94473 0.37107 0.0
C441 C 0.17541 0.924 0.38227 0.0
C442 C 0.19281 0.96877 0.35507 0.0
C443 C 0.14428 0.97191 0.34955 0.0
C444 C 0.1114 0.95094 0.36044 0.0
C445 C 0.12681 0.92735 0.37693 0.0
C446 C 0.08569 0.01608 0.29548 0.0
C447 C 0.09088 0.04707 0.30393 0.0
C448 C 0.10337 0.9915 0.31025 0.0
C449 C 0.12767 0.99773 0.3332 0.0
C450 C 0.13454 0.0288 0.34106 0.0
C451 C 0.11576 0.05328 0.32669 0.0
H452 H 0.41612 0.58712 0.89808 0.0
H453 H 0.28014 0.57981 0.86 0.0
H454 H 0.44667 0.54532 0.87125 0.0
H455 H 0.31103 0.53799 0.83291 0.0
H456 H 0.40454 0.48543 0.77289 0.0
H457 H 0.37081 0.52799 0.79831 0.0
H458 H 0.43317 0.489 0.86662 0.0
H459 H 0.46696 0.44707 0.8416 0.0
C460 C 0.39258 0.57638 0.88416 0.0
C461 C 0.34556 0.58664 0.88136 0.0
C462 C 0.41014 0.55248 0.86871 0.0
C463 C 0.38117 0.53824 0.85004 0.0
C464 C 0.33434 0.54872 0.84695 0.0
C465 C 0.31667 0.57263 0.86249 0.0
C466 C 0.41088 0.48593 0.79334 0.0
C467 C 0.43881 0.46291 0.8051 0.0
C468 C 0.39143 0.51023 0.8079 0.0
C469 C 0.39977 0.51201 0.83443 0.0
C470 C 0.42686 0.48865 0.84616 0.0
C471 C 0.44605 0.46446 0.83173 0.0
H472 H 0.72428 0.57449 0.66737 0.0
H473 H 0.60137 0.56713 0.6179 0.0
H474 H 0.68929 0.5353 0.69584 0.0
H475 H 0.56775 0.52707 0.64585 0.0
H476 H 0.55709 0.43076 0.687 0.0
H477 H 0.59108 0.471 0.65924 0.0
H478 H 0.61354 0.53088 0.72474 0.0
H479 H 0.57756 0.4912 0.75241 0.0
C480 C 0.68979 0.56471 0.66258 0.0
C481 C 0.66578 0.57402 0.64023 0.0
C482 C 0.6699 0.54219 0.67886 0.0
C483 C 0.62596 0.52816 0.67296 0.0
C484 C 0.60199 0.53727 0.65066 0.0
C485 C 0.62147 0.5601 0.63458 0.0
C486 C 0.56909 0.45253 0.69552 0.0
C487 C 0.56551 0.45754 0.72207 0.0
C488 C 0.5885 0.47554 0.6796 0.0
C489 C 0.60521 0.50389 0.6899 0.0
C490 C 0.60156 0.509 0.71638 0.0
C491 C 0.5813 0.4862 0.73224 0.0
H492 H 0.82088 0.9793 0.12405 0.0
H493 H 0.86284 0.90369 0.17368 0.0
H494 H 0.85648 0.01698 0.15369 0.0
H495 H 0.8977 0.94144 0.20357 0.0
H496 H 0.00857 0.01597 0.22994 0.0
H497 H 0.96726 0.9774 0.20343 0.0
H498 H 0.84685 0.03894 0.19752 0.0
H499 H 0.88878 0.07784 0.22364 0.0
C500 C 0.83763 0.97075 0.14133 0.0
C501 C 0.83926 0.9385 0.14644 0.0
C502 C 0.85756 0.99235 0.15844 0.0
C503 C 0.87994 0.98221 0.18099 0.0
C504 C 0.88105 0.94998 0.18627 0.0
C505 C 0.86077 0.92838 0.16925 0.0
C506 C 0.97321 0.02122 0.22304 0.0
C507 C 0.95185 0.04991 0.2289 0.0
C508 C 0.94938 0.99901 0.20803 0.0
C509 C 0.90377 0.00509 0.19834 0.0
C510 C 0.88211 0.03365 0.20453 0.0
C511 C 0.90588 0.0558 0.2197 0.0
H512 H 0.86104 0.1131 0.67111 0.0
H513 H 0.81615 0.04386 0.6158 0.0
H514 H 0.88972 0.07179 0.6992 0.0
H515 H 0.84392 1.00245 0.64404 0.0
H516 H 0.95038 0.94111 0.68528 0.0
H517 H 0.91704 0.98179 0.65891 0.0
H518 H 0.86553 0.02879 0.72658 0.0
H519 H 0.90088 0.98821 0.7534 0.0
C520 C 0.85697 0.08899 0.66507 0.0
C521 C 0.83657 0.08169 0.64119 0.0
C522 C 0.87314 0.06531 0.68124 0.0
C523 C 0.86913 0.03376 0.67394 0.0
C524 C 0.84831 0.02651 0.65012 0.0
C525 C 0.83243 0.05021 0.63389 0.0
C526 C 0.93192 0.96003 0.69471 0.0
C527 C 0.92842 0.96136 0.72156 0.0
C528 C 0.91235 0.9833 0.67946 0.0
C529 C 0.88838 0.00857 0.69054 0.0
C530 C 0.88419 0.00979 0.71742 0.0
C531 C 0.90403 0.9864 0.73279 0.0
H532 H 0.69206 0.45846 0.11749 0.0
H533 H 0.64513 0.39265 0.17496 0.0
H534 H 0.66413 0.50161 0.14395 0.0
H535 H 0.61574 0.43551 0.20112 0.0
H536 H 0.60077 0.51971 0.2526 0.0
H537 H 0.63728 0.47854 0.22724 0.0
H538 H 0.59326 0.52509 0.15783 0.0
H539 H 0.55943 0.56697 0.18308 0.0
C540 C 0.67541 0.45325 0.13571 0.0
C541 C 0.67076 0.42222 0.14416 0.0
C542 C 0.65926 0.47795 0.15089 0.0
C543 C 0.63752 0.47215 0.17474 0.0
C544 C 0.63307 0.44101 0.18315 0.0
C545 C 0.64969 0.41638 0.16809 0.0
C546 C 0.59981 0.5215 0.23194 0.0
C547 C 0.57752 0.54684 0.21993 0.0
C548 C 0.62016 0.49762 0.21735 0.0
C549 C 0.61821 0.49833 0.1904 0.0
C550 C 0.59626 0.52389 0.17847 0.0
C551 C 0.57641 0.54785 0.19302 0.0
H552 H 0.28754 0.43799 0.3643 0.0
H553 H 0.42248 0.43489 0.40361 0.0
H554 H 0.31998 0.4769 0.33464 0.0
H555 H 0.45433 0.4744 0.37455 0.0
H556 H 0.51238 0.51848 0.30177 0.0
H557 H 0.47749 0.47884 0.32962 0.0
H558 H 0.34778 0.5319 0.33373 0.0
H559 H 0.38298 0.57182 0.30597 0.0
C560 C 0.32411 0.44557 0.36661 0.0
C561 C 0.35242 0.43324 0.38633 0.0
C562 C 0.34255 0.4681 0.34977 0.0
C563 C 0.3898 0.47869 0.35215 0.0
C564 C 0.41798 0.46646 0.37195 0.0
C565 C 0.39954 0.44406 0.38881 0.0
C566 C 0.47636 0.5217 0.30855 0.0
C567 C 0.45046 0.54834 0.30162 0.0
C568 C 0.45643 0.49902 0.32462 0.0
C569 C 0.40996 0.50228 0.33409 0.0
C570 C 0.38353 0.52853 0.32662 0.0
C571 C 0.40366 0.55139 0.31066 0.0
H572 H 0.2222 0.07128 0.86026 0.0
H573 H 0.08767 0.07936 0.89952 0.0
H574 H 0.18819 0.03088 0.83254 0.0
H575 H 0.05431 0.03823 0.87253 0.0
H576 H 0.9945 0.99074 0.80158 0.0
H577 H 0.03062 0.03124 0.82811 0.0
H578 H 0.15881 0.97676 0.83376 0.0
H579 H 0.12232 0.93598 0.8073 0.0
C580 C 0.18541 0.06441 0.863 0.0
C581 C 0.15761 0.07861 0.88207 0.0
C582 C 0.16609 0.04104 0.84729 0.0
C583 C 0.11851 0.03141 0.85027 0.0
C584 C 0.0909 0.0454 0.86951 0.0
C585 C 0.1102 0.06871 0.8852 0.0
C586 C 0.03021 0.98724 0.80869 0.0
C587 C 0.05527 0.95994 0.80271 0.0
C588 C 0.05094 0.01048 0.82388 0.0
C589 C 0.09739 0.00708 0.83331 0.0
C590 C 0.12303 0.98015 0.8267 0.0
C591 C 0.10212 0.95678 0.81159 0.0
H592 H 0.19287 0.08309 0.97484 0.0
H593 H 0.15108 0.17948 0.9675 0.0
H594 H 0.17946 0.08561 0.02089 0.0
H595 H 0.13579 0.18188 0.01343 0.0
H596 H 0.17695 0.1866 0.09823 0.0
H597 H 0.17832 0.184 0.05188 0.0
H598 H 0.12444 0.0891 0.05492 0.0
H599 H 0.12615 0.09109 0.10158 0.0
C600 C 0.18001 0.10468 0.98308 0.0
C601 C 0.17337 0.13116 0.96765 0.0
C602 C 0.17201 0.10611 1.00949 0.0
C603 C 0.15662 0.13399 0.02106 0.0
C604 C 0.14855 0.16019 1.00537 0.0
C605 C 0.15717 0.15885 0.97902 0.0
C606 C 0.16547 0.16512 0.08905 0.0
C607 C 0.15222 0.13889 0.10372 0.0
C608 C 0.16561 0.16376 0.06234 0.0
C609 C 0.15187 0.13623 0.04947 0.0
C610 C 0.13617 0.1105 0.06413 0.0
C611 C 0.13646 0.11178 0.09093 0.0
H612 H 0.26765 0.37382 0.48794 0.0
H613 H 0.41001 0.40609 0.47057 0.0
H614 H 0.28244 0.38264 0.53344 0.0
H615 H 0.42432 0.41542 0.51599 0.0
H616 H 0.39882 0.47146 0.59108 0.0
H617 H 0.39269 0.45425 0.5467 0.0
H618 H 0.33117 0.36659 0.57171 0.0
H619 H 0.33726 0.38406 0.61643 0.0
C620 C 0.30238 0.38226 0.4938 0.0
C621 C 0.33742 0.38958 0.47545 0.0
C622 C 0.31083 0.38733 0.51993 0.0
C623 C 0.35441 0.4 0.52833 0.0
C624 C 0.39008 0.40613 0.51011 0.0
C625 C 0.38177 0.40088 0.48404 0.0
C626 C 0.38436 0.4484 0.58712 0.0
C627 C 0.36825 0.42918 0.60719 0.0
C628 C 0.38115 0.43843 0.5617 0.0
C629 C 0.36135 0.40906 0.55564 0.0
C630 C 0.34628 0.38944 0.57576 0.0
C631 C 0.35008 0.3993 0.60133 0.0
H632 H 0.69071 0.41447 0.04987 0.0
H633 H 0.65689 0.31699 0.06239 0.0
H634 H 0.66431 0.40963 1.00536 0.0
H635 H 0.63151 0.31202 0.01796 0.0
H636 H 0.54105 0.32314 0.94618 0.0
H637 H 0.56615 0.33041 0.99044 0.0
H638 H 0.68865 0.38324 0.96482 0.0
H639 H 0.66403 0.37558 0.92042 0.0
C640 C 0.67765 0.39204 0.04312 0.0
C641 C 0.67602 0.36609 0.05964 0.0
C642 C 0.66289 0.38921 0.0176 0.0
C643 C 0.6457 0.36046 1.00815 0.0
C644 C 0.64407 0.33457 0.02471 0.0
C645 C 0.65913 0.33734 0.0501 0.0
C646 C 0.57356 0.3361 0.94991 0.0
C647 C 0.60067 0.34855 0.92964 0.0
C648 C 0.58788 0.34031 0.97531 0.0
C649 C 0.62955 0.35724 0.98114 0.0
C650 C 0.65613 0.37033 0.96097 0.0
C651 C 0.64194 0.36597 0.93551 0.0
H652 H 0.83657 0.18071 0.55186 0.0
H653 H 0.80627 0.08162 0.54888 0.0
H654 H 0.84618 0.18159 0.50547 0.0
H655 H 0.81722 0.08232 0.50248 0.0
H656 H 0.77906 0.1059 0.41852 0.0
H657 H 0.77486 0.10287 0.46512 0.0
H658 H 0.89792 0.16354 0.47095 0.0
H659 H 0.90128 0.1673 0.42436 0.0
C660 C 0.8322 0.15907 0.5413 0.0
C661 C 0.82037 0.13113 0.55407 0.0
C662 C 0.83818 0.15952 0.51473 0.0
C663 C 0.83233 0.13204 0.50023 0.0
C664 C 0.82145 0.10396 0.51305 0.0
C665 C 0.81568 0.10349 0.53967 0.0
C666 C 0.80509 0.1187 0.42975 0.0
C667 C 0.84036 0.13696 0.4177 0.0
C668 C 0.80302 0.11668 0.45647 0.0
C669 C 0.83604 0.13298 0.47179 0.0
C670 C 0.87166 0.15094 0.45973 0.0
C671 C 0.87386 0.15284 0.43301 0.0
H672 H 0.81924 0.95255 0.05647 0.0
H673 H 0.82242 0.85215 0.04672 0.0
H674 H 0.84398 0.95932 1.01215 0.0
H675 H 0.84469 0.85934 1.00179 0.0
H676 H 0.83285 0.89807 0.91532 0.0
H677 H 0.80793 0.88679 0.95925 0.0
H678 H 0.92378 0.94333 0.98797 0.0
H679 H 0.95056 0.95331 0.9444 0.0
C680 C 0.82521 0.93186 0.04501 0.0
C681 C 0.81942 0.90174 0.05555 0.0
C682 C 0.83911 0.93583 0.01951 0.0
C683 C 0.8466 0.90986 1.00363 0.0
C684 C 0.839 0.87976 0.01364 0.0
C685 C 0.82594 0.87571 0.03937 0.0
C686 C 0.85376 0.9076 0.93091 0.0
C687 C 0.89357 0.92698 0.92604 0.0
C688 C 0.83921 0.90123 0.95609 0.0
C689 C 0.8636 0.9145 0.97695 0.0
C690 C 0.90386 0.93322 0.97221 0.0
C691 C 0.91895 0.93909 0.94715 0.0
H692 H 0.71437 0.57073 0.54738 0.0
H693 H 0.65819 0.66425 0.55014 0.0
H694 H 0.68919 0.56598 0.50262 0.0
H695 H 0.63256 0.65939 0.50548 0.0
H696 H 0.53357 0.61295 0.44296 0.0
H697 H 0.56816 0.62277 0.4852 0.0
H698 H 0.7046 0.59184 0.45767 0.0
H699 H 0.66997 0.58239 0.41517 0.0
C700 C 0.69714 0.59036 0.53827 0.0
C701 C 0.68814 0.61783 0.55214 0.0
C702 C 0.68298 0.58771 0.5127 0.0
C703 C 0.65882 0.61229 0.50069 0.0
C704 C 0.65095 0.64007 0.51436 0.0
C705 C 0.66585 0.64292 0.53979 0.0
C706 C 0.57099 0.60841 0.44594 0.0
C707 C 0.59913 0.59681 0.42593 0.0
C708 C 0.59083 0.61424 0.47 0.0
C709 C 0.63903 0.60809 0.47463 0.0
C710 C 0.66732 0.59669 0.45457 0.0
C711 C 0.64763 0.59141 0.43031 0.0
H712 H 0.32145 0.59253 0.97588 0.0
H713 H 0.3591 0.68956 0.96416 0.0
H714 H 0.34796 0.59636 0.02048 0.0
H715 H 0.38498 0.69348 1.00863 0.0
H716 H 0.47578 0.67936 0.07976 0.0
H717 H 0.45075 0.67205 0.03549 0.0
H718 H 0.32379 0.62417 0.06126 0.0
H719 H 0.3482 0.63206 0.10569 0.0
C720 C 0.33539 0.61463 0.98285 0.0
C721 C 0.33813 0.64077 0.96658 0.0
C722 C 0.35025 0.61687 1.00837 0.0
C723 C 0.36873 0.64518 0.01799 0.0
C724 C 0.3714 0.67126 1.00168 0.0
C725 C 0.35612 0.66911 0.97631 0.0
C726 C 0.44237 0.66743 0.07606 0.0
C727 C 0.41378 0.65661 0.09636 0.0
C728 C 0.42812 0.66318 0.05068 0.0
C729 C 0.38512 0.64779 0.04493 0.0
C730 C 0.35728 0.63595 0.06511 0.0
C731 C 0.37137 0.64041 0.09057 0.0
H732 H 0.09907 0.88266 0.4581 0.0
H733 H 0.2387 0.85517 0.48361 0.0
H734 H 0.07027 0.88003 0.50198 0.0
H735 H 0.20918 0.85075 0.52726 0.0
H736 H 0.15495 0.87265 0.60684 0.0
H737 H 0.18298 0.88054 0.56314 0.0
H738 H 0.05039 0.84301 0.53417 0.0
H739 H 0.02145 0.83679 0.57774 0.0
C740 C 0.1237 0.87606 0.47304 0.0
C741 C 0.17128 0.86912 0.46721 0.0
C742 C 0.10698 0.87418 0.49823 0.0
C743 C 0.1373 0.86511 0.51827 0.0
C744 C 0.1849 0.85821 0.51243 0.0
C745 C 0.20168 0.86026 0.48727 0.0
C746 C 0.13143 0.86662 0.59115 0.0
C747 C 0.08598 0.85394 0.59589 0.0
C748 C 0.14778 0.87073 0.56605 0.0
C749 C 0.11916 0.86219 0.54503 0.0
C750 C 0.07334 0.85013 0.5498 0.0
C751 C 0.05693 0.84617 0.57487 0.0
H752 H 0.24521 0.276 0.38855 0.0
H753 H 0.1544 0.33955 0.34764 0.0
H754 H 0.20617 0.23168 0.3674 0.0
H755 H 0.11393 0.29555 0.32737 0.0
H756 H 0.08457 0.21526 0.27404 0.0
H757 H 0.12542 0.25774 0.2958 0.0
H758 H 0.13525 0.2011 0.36412 0.0
H759 H 0.09722 0.15761 0.3414 0.0
C760 C 0.2165 0.28045 0.37526 0.0
C761 C 0.20285 0.31121 0.36965 0.0
C762 C 0.19391 0.25504 0.36322 0.0
C763 C 0.15695 0.25988 0.34547 0.0
C764 C 0.14288 0.29078 0.34041 0.0
C765 C 0.16579 0.31607 0.35219 0.0
C766 C 0.09629 0.21162 0.29351 0.0
C767 C 0.08848 0.18284 0.30576 0.0
C768 C 0.11903 0.23625 0.30624 0.0
C769 C 0.13361 0.23309 0.33188 0.0
C770 C 0.12519 0.20434 0.3443 0.0
C771 C 0.10291 0.17948 0.33137 0.0
H772 H 0.33627 0.17353 0.82688 0.0
H773 H 0.28572 0.2338 0.88718 0.0
H774 H 0.38112 0.2172 0.80848 0.0
H775 H 0.33122 0.27738 0.86909 0.0
H776 H 0.37618 0.35476 0.8125 0.0
H777 H 0.33157 0.31145 0.83154 0.0
H778 H 0.45024 0.25018 0.81783 0.0
H779 H 0.49394 0.2933 0.79785 0.0
C780 C 0.33498 0.19612 0.83624 0.0
C781 C 0.30761 0.20026 0.85843 0.0
C782 C 0.36087 0.22107 0.82582 0.0
C783 C 0.3599 0.25076 0.83737 0.0
C784 C 0.33235 0.25489 0.85959 0.0
C785 C 0.30649 0.22988 0.87003 0.0
C786 C 0.39248 0.33196 0.81339 0.0
C787 C 0.43814 0.32725 0.80336 0.0
C788 C 0.3672 0.30723 0.82457 0.0
C789 C 0.38726 0.2773 0.82612 0.0
C790 C 0.43347 0.27282 0.81657 0.0
C791 C 0.45869 0.29756 0.80536 0.0
H792 H 0.64437 0.1699 0.68688 0.0
H793 H 0.72712 0.23672 0.6434 0.0
H794 H 0.60361 0.21253 0.70844 0.0
H795 H 0.68768 0.27952 0.66559 0.0
H796 H 0.57372 0.34807 0.6918 0.0
H797 H 0.61304 0.3056 0.66923 0.0
H798 H 0.61737 0.25227 0.73948 0.0
H799 H 0.57599 0.29409 0.76164 0.0
C800 C 0.6539 0.19378 0.68204 0.0
C801 C 0.68867 0.20004 0.66347 0.0
C802 C 0.63085 0.21822 0.69451 0.0
C803 C 0.64247 0.24951 0.68885 0.0
C804 C 0.67736 0.25572 0.67017 0.0
C805 C 0.70015 0.23121 0.65753 0.0
C806 C 0.58278 0.32714 0.70233 0.0
C807 C 0.57163 0.32432 0.72844 0.0
C808 C 0.60576 0.30293 0.68947 0.0
C809 C 0.61838 0.27546 0.70251 0.0
C810 C 0.60751 0.27285 0.72872 0.0
C811 C 0.58421 0.29694 0.7415 0.0
H812 H 0.74825 0.2858 0.20774 0.0
H813 H 0.83531 0.28826 0.13971 0.0
H814 H 0.80183 0.24809 0.22701 0.0
H815 H 0.89019 0.25132 0.1593 0.0
H816 H 0.95165 0.16081 0.19348 0.0
H817 H 0.89894 0.19802 0.17265 0.0
H818 H 0.8788 0.24529 0.24497 0.0
H819 H 0.92991 0.20766 0.26581 0.0
C820 C 0.77907 0.27832 0.19698 0.0
C821 C 0.7876 0.2899 0.17228 0.0
C822 C 0.81003 0.2569 0.20807 0.0
C823 C 0.85068 0.24678 0.19483 0.0
C824 C 0.85901 0.25829 0.16996 0.0
C825 C 0.8277 0.27959 0.15876 0.0
C826 C 0.93609 0.17924 0.20488 0.0
C827 C 0.94473 0.18109 0.23135 0.0
C828 C 0.90599 0.20067 0.19292 0.0
C829 C 0.88418 0.22456 0.20714 0.0
C830 C 0.89398 0.2268 0.23348 0.0
C831 C 0.92363 0.20529 0.24544 0.0
H832 H 0.83707 0.70328 0.63547 0.0
H833 H 0.73012 0.72366 0.69225 0.0
H834 H 0.8891 0.74362 0.65404 0.0
H835 H 0.78175 0.76424 0.7105 0.0
H836 H 0.86327 0.85799 0.71307 0.0
H837 H 0.81499 0.81721 0.69305 0.0
H838 H 0.93206 0.75304 0.69874 0.0
H839 H 0.98003 0.7936 0.71993 0.0
C840 C 0.82465 0.71646 0.65183 0.0
C841 C 0.77947 0.71059 0.66237 0.0
C842 C 0.85448 0.73936 0.6625 0.0
C843 C 0.83924 0.75704 0.68358 0.0
C844 C 0.79411 0.75109 0.6941 0.0
C845 C 0.76469 0.72789 0.68372 0.0
C846 C 0.87874 0.83517 0.71014 0.0
C847 C 0.92527 0.82889 0.71828 0.0
C848 C 0.85112 0.81189 0.69864 0.0
C849 C 0.86978 0.782 0.69452 0.0
C850 C 0.91699 0.77599 0.70164 0.0
C851 C 0.94444 0.7992 0.71363 0.0
H852 H 0.76807 0.78991 0.19182 0.0
H853 H 0.66371 0.80901 0.13343 0.0
H854 H 0.71747 0.74813 0.2088 0.0
H855 H 0.61256 0.76716 0.15069 0.0
H856 H 0.52019 0.71387 0.21474 0.0
H857 H 0.56651 0.75524 0.19358 0.0
H858 H 0.68878 0.69505 0.19207 0.0
H859 H 0.64238 0.6535 0.21216 0.0
C860 C 0.73429 0.78509 0.1826 0.0
C861 C 0.72002 0.80251 0.16121 0.0
C862 C 0.70541 0.76114 0.19227 0.0
C863 C 0.66122 0.75428 0.18097 0.0
C864 C 0.64643 0.77202 0.15979 0.0
C865 C 0.67577 0.79581 0.14985 0.0
C866 C 0.55652 0.70919 0.20923 0.0
C867 C 0.57755 0.68037 0.21513 0.0
C868 C 0.5831 0.73294 0.19726 0.0
C869 C 0.63134 0.72843 0.19136 0.0
C870 C 0.65184 0.69932 0.19663 0.0
C871 C 0.62519 0.67553 0.20815 0.0
H872 H 0.29867 0.77182 0.38655 0.0
H873 H 0.36811 0.83929 0.33741 0.0
H874 H 0.3384 0.72943 0.36381 0.0
H875 H 0.40846 0.79709 0.31497 0.0
H876 H 0.4291 0.7134 0.26225 0.0
H877 H 0.38906 0.75471 0.28573 0.0
H878 H 0.41736 0.70692 0.35689 0.0
H879 H 0.45648 0.66509 0.33331 0.0
C880 C 0.32267 0.7776 0.37101 0.0
C881 C 0.33033 0.80884 0.36368 0.0
C882 C 0.3456 0.75333 0.35805 0.0
C883 C 0.37648 0.75985 0.33749 0.0
C884 C 0.38436 0.79119 0.33044 0.0
C885 C 0.36153 0.81538 0.34339 0.0
C886 C 0.42655 0.71157 0.28289 0.0
C887 C 0.44575 0.68584 0.29588 0.0
C888 C 0.40393 0.73541 0.29639 0.0
C889 C 0.40008 0.73418 0.32321 0.0
C890 C 0.41926 0.70842 0.33622 0.0
C891 C 0.44199 0.68456 0.32271 0.0
H892 H 0.25708 0.71747 0.81739 0.0
H893 H 0.18434 0.72441 0.88995 0.0
H894 H 0.20187 0.75473 0.79873 0.0
H895 H 0.12835 0.76133 0.87115 0.0
H896 H 0.06604 0.79273 0.76568 0.0
H897 H 0.11844 0.75567 0.78656 0.0
H898 H 0.12416 0.8149 0.85356 0.0
H899 H 0.07102 0.85203 0.83258 0.0
C900 C 0.22916 0.72697 0.8293 0.0
C901 C 0.2249 0.71803 0.85502 0.0
C902 C 0.19737 0.74813 0.81861 0.0
C903 C 0.16046 0.76078 0.83341 0.0
C904 C 0.15659 0.75216 0.85931 0.0
C905 C 0.18851 0.73092 0.87003 0.0
C906 C 0.07841 0.79782 0.78489 0.0
C907 C 0.06506 0.82545 0.79739 0.0
C908 C 0.10859 0.77666 0.79681 0.0
C909 C 0.12602 0.78256 0.82157 0.0
C910 C 0.11119 0.80965 0.8345 0.0
C911 C 0.08086 0.8309 0.82251 0.0
loop_
_geom_bond_atom_site_label_1
_geom_bond_atom_site_label_2
_geom_bond_distance
_geom_bond_site_symmetry_2
_ccdc_geom_bond_type
H0 C5 0.930 . S
H1 C8 0.930 . S
H2 C10 0.930 . S
H3 C4 1.016 . S
C4 H3 1.016 . S
C4 N11 1.286 . S
C5 H0 0.930 . S
C5 C6 1.397 . S
C5 C7 1.361 . S
C6 C5 1.397 . S
C6 C10 1.390 . S
C7 C5 1.361 . S
C7 C8 1.393 . S
C7 N11 1.413 . S
C8 H1 0.930 . S
C8 C7 1.393 . S
C8 C9 1.399 . S
C9 C8 1.399 . S
C9 C10 1.381 . S
C10 H2 0.930 . S
C10 C6 1.390 . S
C10 C9 1.381 . S
N11 C4 1.286 . S
N11 C7 1.413 . S
H12 C17 0.930 . S
H13 C20 0.930 . S
H14 C22 0.930 . S
H15 C16 1.016 . S
C16 H15 1.016 . S
C16 N23 1.286 . S
C17 H12 0.930 . S
C17 C18 1.397 . S
C17 C19 1.361 . S
C18 C17 1.397 . S
C18 C22 1.390 . S
C19 C17 1.361 . S
C19 C20 1.393 . S
C19 N23 1.413 . S
C20 H13 0.930 . S
C20 C19 1.393 . S
C20 C21 1.399 . S
C21 C20 1.399 . S
C21 C22 1.381 . S
C22 H14 0.930 . S
C22 C18 1.390 . S
C22 C21 1.381 . S
N23 C16 1.286 . S
N23 C19 1.413 . S
H24 C29 0.930 . S
H25 C32 0.930 . S
H26 C34 0.930 . S
H27 C28 1.016 . S
C28 H27 1.016 . S
C28 N35 1.286 . S
C29 H24 0.930 . S
C29 C30 1.397 . S
C29 C31 1.361 . S
C30 C29 1.397 . S
C30 C34 1.390 . S
C31 C29 1.361 . S
C31 C32 1.393 . S
C31 N35 1.413 . S
C32 H25 0.930 . S
C32 C31 1.393 . S
C32 C33 1.399 . S
C33 C32 1.399 . S
C33 C34 1.381 . S
C34 H26 0.930 . S
C34 C30 1.390 . S
C34 C33 1.381 . S
N35 C28 1.286 . S
N35 C31 1.413 . S
H36 C41 0.930 . S
H37 C44 0.930 . S
H38 C46 0.930 . S
H39 C40 1.016 . S
C40 H39 1.016 . S
C40 N47 1.286 . S
C41 H36 0.930 . S
C41 C42 1.397 . S
C41 C43 1.361 . S
C42 C41 1.397 . S
C42 C46 1.390 . S
C43 C41 1.361 . S
C43 C44 1.393 . S
C43 N47 1.413 . S
C44 H37 0.930 . S
C44 C43 1.393 . S
C44 C45 1.399 . S
C45 C44 1.399 . S
C45 C46 1.381 . S
C46 H38 0.930 . S
C46 C42 1.390 . S
C46 C45 1.381 . S
N47 C40 1.286 . S
N47 C43 1.413 . S
H48 C53 0.930 . S
H49 C56 0.930 . S
H50 C58 0.930 . S
H51 C52 1.016 . S
C52 H51 1.016 . S
C52 N59 1.286 . S
C53 H48 0.930 . S
C53 C54 1.397 . S
C53 C55 1.361 . S
C54 C53 1.397 . S
C54 C58 1.390 . S
C55 C53 1.361 . S
C55 C56 1.393 . S
C55 N59 1.413 . S
C56 H49 0.930 . S
C56 C55 1.393 . S
C56 C57 1.399 . S
C57 C56 1.399 . S
C57 C58 1.381 . S
C58 H50 0.930 . S
C58 C54 1.390 . S
C58 C57 1.381 . S
N59 C52 1.286 . S
N59 C55 1.413 . S
H60 C65 0.930 . S
H61 C68 0.930 . S
H62 C70 0.930 . S
H63 C64 1.016 . S
C64 H63 1.016 . S
C64 N71 1.286 . S
C65 H60 0.930 . S
C65 C66 1.397 . S
C65 C67 1.361 . S
C66 C65 1.397 . S
C66 C70 1.390 . S
C67 C65 1.361 . S
C67 C68 1.393 . S
C67 N71 1.413 . S
C68 H61 0.930 . S
C68 C67 1.393 . S
C68 C69 1.399 . S
C69 C68 1.399 . S
C69 C70 1.381 . S
C70 H62 0.930 . S
C70 C66 1.390 . S
C70 C69 1.381 . S
N71 C64 1.286 . S
N71 C67 1.413 . S
H72 C77 0.930 . S
H73 C80 0.930 . S
H74 C82 0.930 . S
H75 C76 1.016 . S
C76 H75 1.016 . S
C76 N83 1.286 . S
C77 H72 0.930 . S
C77 C78 1.397 . S
C77 C79 1.361 . S
C78 C77 1.397 . S
C78 C82 1.390 . S
C79 C77 1.361 . S
C79 C80 1.393 . S
C79 N83 1.413 . S
C80 H73 0.930 . S
C80 C79 1.393 . S
C80 C81 1.399 . S
C81 C80 1.399 . S
C81 C82 1.381 . S
C82 H74 0.930 . S
C82 C78 1.390 . S
C82 C81 1.381 . S
N83 C76 1.286 . S
N83 C79 1.413 . S
H84 C89 0.930 . S
H85 C92 0.930 . S
H86 C94 0.930 . S
H87 C88 1.016 . S
C88 H87 1.016 . S
C88 N95 1.286 . S
C89 H84 0.930 . S
C89 C90 1.397 . S
C89 C91 1.361 . S
C90 C89 1.397 . S
C90 C94 1.390 . S
C91 C89 1.361 . S
C91 C92 1.393 . S
C91 N95 1.413 . S
C92 H85 0.930 . S
C92 C91 1.393 . S
C92 C93 1.399 . S
C93 C92 1.399 . S
C93 C94 1.381 . S
C94 H86 0.930 . S
C94 C90 1.390 . S
C94 C93 1.381 . S
N95 C88 1.286 . S
N95 C91 1.413 . S
C96 C98 1.422 . S
C96 C100 1.415 . S
C96 N102 1.369 . S
C97 C98 1.421 . S
C97 C99 1.417 . S
C97 C109 1.422 1_545 S
C98 C96 1.422 . S
C98 C97 1.421 . S
C98 N108 1.359 . S
C99 C97 1.417 . S
C99 C101 1.329 . S
C99 H118 0.930 . S
C100 C96 1.415 . S
C100 C101 1.437 . S
C100 C104 1.413 . S
C101 C99 1.329 . S
C101 C100 1.437 . S
C101 H123 0.929 . S
N102 C96 1.369 . S
N102 C103 1.338 . S
N102 Gd107 2.622 . S
C103 N102 1.338 . S
C103 C105 1.378 . S
C103 H115 0.929 . S
C104 C100 1.413 . S
C104 C105 1.348 . S
C104 H120 0.931 . S
C105 C103 1.378 . S
C105 C104 1.348 . S
C105 H121 0.930 . S
Gd106 N126 2.622 . S
Gd106 N133 2.570 . S
Gd106 O140 2.355 . S
Gd106 O141 2.468 . S
Gd106 O142 2.427 . S
Gd106 O144 2.388 . S
Gd106 O145 2.386 . S
Gd106 O149 2.296 1_455 S
Gd106 C159 2.805 . S
Gd107 N102 2.622 . S
Gd107 N108 2.570 . S
Gd107 O139 2.386 . S
Gd107 O143 2.307 1_655 S
Gd107 O146 2.353 1_655 S
Gd107 O147 2.468 . S
Gd107 O148 2.427 . S
Gd107 O150 2.388 . S
Gd107 C171 2.805 . S
N108 C98 1.359 . S
N108 Gd107 2.570 . S
N108 C110 1.343 . S
C109 C97 1.422 1_565 S
C109 C111 1.321 . S
C109 H117 0.931 . S
C110 N108 1.343 . S
C110 C111 1.390 1_545 S
C110 H112 0.931 . S
C111 C109 1.321 . S
C111 C110 1.390 1_565 S
C111 H113 0.930 . S
H112 C110 0.931 . S
H113 C111 0.930 . S
H114 C137 0.931 . S
H115 C103 0.929 . S
H116 C138 0.930 . S
H117 C109 0.931 . S
H118 C99 0.930 . S
H119 C128 0.929 . S
H120 C104 0.931 . S
H121 C105 0.930 . S
H122 C160 0.930 . S
H123 C101 0.929 . S
H124 C129 0.931 . S
H125 C130 0.930 . S
N126 Gd106 2.622 . S
N126 C127 1.369 . S
N126 C128 1.338 . S
C127 N126 1.369 . S
C127 C131 1.415 . S
C127 C134 1.422 . S
C128 H119 0.929 . S
C128 N126 1.338 . S
C128 C130 1.378 . S
C129 H124 0.931 . S
C129 C130 1.348 . S
C129 C131 1.413 . S
C130 H125 0.930 . S
C130 C128 1.378 . S
C130 C129 1.348 . S
C131 C127 1.415 . S
C131 C129 1.413 . S
C131 C161 1.437 . S
H132 C161 0.929 . S
N133 Gd106 2.570 . S
N133 C134 1.359 . S
N133 C137 1.343 . S
C134 C127 1.422 . S
C134 N133 1.359 . S
C134 C136 1.421 . S
C135 C136 1.422 . S
C135 C138 1.321 . S
C135 H162 0.931 . S
C136 C134 1.421 . S
C136 C135 1.422 . S
C136 C160 1.417 . S
C137 H114 0.931 . S
C137 N133 1.343 . S
C137 C138 1.390 . S
C138 H116 0.930 . S
C138 C135 1.321 . S
C138 C137 1.390 . S
O139 Gd107 2.386 . S
O139 C151 1.265 . S
O140 Gd106 2.355 . S
O140 C151 1.239 1_455 S
O141 Gd106 2.468 . S
O141 C159 1.263 . S
O142 Gd106 2.427 . S
O142 C159 1.252 . S
O143 Gd107 2.307 1_455 S
O143 C152 1.261 . S
O144 Gd106 2.388 . S
O144 C152 1.252 . S
O145 Gd106 2.386 . S
O145 C163 1.265 . S
O146 Gd107 2.353 1_455 S
O146 C163 1.242 . S
O147 Gd107 2.468 . S
O147 C171 1.263 . S
O148 Gd107 2.427 . S
O148 C171 1.252 . S
O149 Gd106 2.296 1_655 S
O149 C164 1.274 . S
O150 Gd107 2.388 . S
O150 C164 1.252 . S
C151 O139 1.265 . S
C151 O140 1.239 1_655 S
C152 O143 1.261 . S
C152 O144 1.252 . S
C153 C156 1.394 . S
C153 C158 1.370 . S
C153 C159 1.500 . S
C154 C157 1.383 . S
C154 C158 1.395 . S
C155 C156 1.396 . S
C155 C157 1.365 . S
C155 H172 0.929 . S
C156 C153 1.394 . S
C156 C155 1.396 . S
C156 H173 0.930 . S
C157 C154 1.383 . S
C157 C155 1.365 . S
C157 H174 0.931 . S
C158 C153 1.370 . S
C158 C154 1.395 . S
C158 H175 0.930 . S
C159 Gd106 2.805 . S
C159 O141 1.263 . S
C159 O142 1.252 . S
C159 C153 1.500 . S
C160 H122 0.930 . S
C160 C136 1.417 . S
C160 C161 1.329 . S
C161 C131 1.437 . S
C161 H132 0.929 . S
C161 C160 1.329 . S
H162 C135 0.931 . S
C163 O145 1.265 . S
C163 O146 1.242 . S
C164 O149 1.274 . S
C164 O150 1.252 . S
C165 C168 1.394 . S
C165 C170 1.370 . S
C165 C171 1.500 . S
C166 C169 1.383 . S
C166 C170 1.395 . S
C167 C168 1.396 . S
C167 C169 1.365 . S
C167 H176 0.929 . S
C168 C165 1.394 . S
C168 C167 1.396 . S
C168 H177 0.930 . S
C169 C166 1.383 . S
C169 C167 1.365 . S
C169 H178 0.931 . S
C170 C165 1.370 . S
C170 C166 1.395 . S
C170 H179 0.930 . S
C171 Gd107 2.805 . S
C171 O147 1.263 . S
C171 O148 1.252 . S
C171 C165 1.500 . S
H172 C155 0.929 . S
H173 C156 0.930 . S
H174 C157 0.931 . S
H175 C158 0.930 . S
H176 C167 0.929 . S
H177 C168 0.930 . S
H178 C169 0.931 . S
H179 C170 0.930 . S
C180 C182 1.422 . S
C180 C184 1.415 . S
C180 N186 1.369 . S
C181 C182 1.421 . S
C181 C183 1.417 . S
C181 C193 1.422 . S
C182 C180 1.422 . S
C182 C181 1.421 . S
C182 N192 1.359 . S
C183 C181 1.417 . S
C183 C185 1.329 . S
C183 H202 0.930 . S
C184 C180 1.415 . S
C184 C185 1.437 . S
C184 C188 1.413 . S
C185 C183 1.329 . S
C185 C184 1.437 . S
C185 H207 0.929 . S
N186 C180 1.369 . S
N186 C187 1.338 . S
N186 Gd191 2.622 . S
C187 N186 1.338 . S
C187 C189 1.378 . S
C187 H199 0.929 . S
C188 C184 1.413 . S
C188 C189 1.348 . S
C188 H204 0.931 . S
C189 C187 1.378 . S
C189 C188 1.348 . S
C189 H205 0.930 . S
Gd190 N210 2.622 . S
Gd190 N217 2.570 . S
Gd190 O224 2.353 . S
Gd190 O225 2.468 . S
Gd190 O226 2.427 . S
Gd190 O228 2.388 . S
Gd190 O229 2.386 . S
Gd190 O233 2.307 . S
Gd190 C243 2.805 . S
Gd191 N186 2.622 . S
Gd191 N192 2.570 . S
Gd191 O223 2.386 . S
Gd191 O227 2.307 . S
Gd191 O230 2.353 . S
Gd191 O231 2.468 . S
Gd191 O232 2.427 . S
Gd191 O234 2.388 . S
Gd191 C255 2.805 . S
N192 C182 1.359 . S
N192 Gd191 2.570 . S
N192 C194 1.343 . S
C193 C181 1.422 . S
C193 C195 1.321 . S
C193 H201 0.931 . S
C194 N192 1.343 . S
C194 C195 1.390 . S
C194 H196 0.931 . S
C195 C193 1.321 . S
C195 C194 1.390 . S
C195 H197 0.930 . S
H196 C194 0.931 . S
H197 C195 0.930 . S
H198 C221 0.931 . S
H199 C187 0.929 . S
H200 C222 0.930 . S
H201 C193 0.931 . S
H202 C183 0.930 . S
H203 C212 0.929 . S
H204 C188 0.931 . S
H205 C189 0.930 . S
H206 C244 0.930 . S
H207 C185 0.929 . S
H208 C213 0.931 . S
H209 C214 0.930 . S
N210 Gd190 2.622 . S
N210 C211 1.369 . S
N210 C212 1.338 . S
C211 N210 1.369 . S
C211 C215 1.415 . S
C211 C218 1.422 . S
C212 H203 0.929 . S
C212 N210 1.338 . S
C212 C214 1.378 . S
C213 H208 0.931 . S
C213 C214 1.348 . S
C213 C215 1.413 . S
C214 H209 0.930 . S
C214 C212 1.378 . S
C214 C213 1.348 . S
C215 C211 1.415 . S
C215 C213 1.413 . S
C215 C245 1.437 . S
H216 C245 0.929 . S
N217 Gd190 2.570 . S
N217 C218 1.359 . S
N217 C221 1.343 . S
C218 C211 1.422 . S
C218 N217 1.359 . S
C218 C220 1.421 . S
C219 C220 1.422 . S
C219 C222 1.321 . S
C219 H246 0.931 . S
C220 C218 1.421 . S
C220 C219 1.422 . S
C220 C244 1.417 . S
C221 H198 0.931 . S
C221 N217 1.343 . S
C221 C222 1.390 . S
C222 H200 0.930 . S
C222 C219 1.321 . S
C222 C221 1.390 . S
O223 Gd191 2.386 . S
O223 C235 1.265 . S
O224 Gd190 2.353 . S
O224 C235 1.242 . S
O225 Gd190 2.468 . S
O225 C243 1.263 . S
O226 Gd190 2.427 . S
O226 C243 1.252 . S
O227 Gd191 2.307 . S
O227 C236 1.261 . S
O228 Gd190 2.388 . S
O228 C236 1.252 . S
O229 Gd190 2.386 . S
O229 C247 1.265 . S
O230 Gd191 2.353 . S
O230 C247 1.242 . S
O231 Gd191 2.468 . S
O231 C255 1.263 . S
O232 Gd191 2.427 . S
O232 C255 1.252 . S
O233 Gd190 2.307 . S
O233 C248 1.261 . S
O234 Gd191 2.388 . S
O234 C248 1.252 . S
C235 O223 1.265 . S
C235 O224 1.242 . S
C236 O227 1.261 . S
C236 O228 1.252 . S
C237 C240 1.394 . S
C237 C242 1.370 . S
C237 C243 1.500 . S
C238 C241 1.383 . S
C238 C242 1.395 . S
C239 C240 1.396 . S
C239 C241 1.365 . S
C239 H256 0.929 . S
C240 C237 1.394 . S
C240 C239 1.396 . S
C240 H257 0.930 . S
C241 C238 1.383 . S
C241 C239 1.365 . S
C241 H258 0.931 . S
C242 C237 1.370 . S
C242 C238 1.395 . S
C242 H259 0.930 . S
C243 Gd190 2.805 . S
C243 O225 1.263 . S
C243 O226 1.252 . S
C243 C237 1.500 . S
C244 H206 0.930 . S
C244 C220 1.417 . S
C244 C245 1.329 . S
C245 C215 1.437 . S
C245 H216 0.929 . S
C245 C244 1.329 . S
H246 C219 0.931 . S
C247 O229 1.265 . S
C247 O230 1.242 . S
C248 O233 1.261 . S
C248 O234 1.252 . S
C249 C252 1.394 . S
C249 C254 1.370 . S
C249 C255 1.500 . S
C250 C253 1.383 . S
C250 C254 1.395 . S
C251 C252 1.396 . S
C251 C253 1.365 . S
C251 H260 0.929 . S
C252 C249 1.394 . S
C252 C251 1.396 . S
C252 H261 0.930 . S
C253 C250 1.383 . S
C253 C251 1.365 . S
C253 H262 0.931 . S
C254 C249 1.370 . S
C254 C250 1.395 . S
C254 H263 0.930 . S
C255 Gd191 2.805 . S
C255 O231 1.263 . S
C255 O232 1.252 . S
C255 C249 1.500 . S
H256 C239 0.929 . S
H257 C240 0.930 . S
H258 C241 0.931 . S
H259 C242 0.930 . S
H260 C251 0.929 . S
H261 C252 0.930 . S
H262 C253 0.931 . S
H263 C254 0.930 . S
C264 C266 1.422 . S
C264 C268 1.415 . S
C264 N270 1.369 . S
C265 C266 1.421 . S
C265 C267 1.417 . S
C265 C277 1.422 . S
C266 C264 1.422 . S
C266 C265 1.421 . S
C266 N276 1.359 . S
C267 C265 1.417 . S
C267 C269 1.329 . S
C267 H286 0.930 . S
C268 C264 1.415 . S
C268 C269 1.437 . S
C268 C272 1.413 . S
C269 C267 1.329 . S
C269 C268 1.437 . S
C269 H291 0.929 . S
N270 C264 1.369 . S
N270 C271 1.338 . S
N270 Gd275 2.622 . S
C271 N270 1.338 . S
C271 C273 1.378 . S
C271 H283 0.929 . S
C272 C268 1.413 . S
C272 C273 1.348 . S
C272 H288 0.931 . S
C273 C271 1.378 . S
C273 C272 1.348 . S
C273 H289 0.930 . S
Gd274 N294 2.622 . S
Gd274 N301 2.570 . S
Gd274 O308 2.353 . S
Gd274 O309 2.468 . S
Gd274 O310 2.427 . S
Gd274 O312 2.388 . S
Gd274 O313 2.386 . S
Gd274 O317 2.307 . S
Gd274 C327 2.805 . S
Gd275 N270 2.622 . S
Gd275 N276 2.570 . S
Gd275 O307 2.386 . S
Gd275 O311 2.307 1_655 S
Gd275 O314 2.353 1_655 S
Gd275 O315 2.468 . S
Gd275 O316 2.427 . S
Gd275 O318 2.388 . S
Gd275 C339 2.805 . S
N276 C266 1.359 . S
N276 Gd275 2.570 . S
N276 C278 1.343 . S
C277 C265 1.422 . S
C277 C279 1.321 . S
C277 H285 0.931 . S
C278 N276 1.343 . S
C278 C279 1.390 . S
C278 H280 0.931 . S
C279 C277 1.321 . S
C279 C278 1.390 . S
C279 H281 0.930 . S
H280 C278 0.931 . S
H281 C279 0.930 . S
H282 C305 0.931 . S
H283 C271 0.929 . S
H284 C306 0.930 . S
H285 C277 0.931 . S
H286 C267 0.930 . S
H287 C296 0.929 . S
H288 C272 0.931 . S
H289 C273 0.930 . S
H290 C328 0.930 . S
H291 C269 0.929 . S
H292 C297 0.931 . S
H293 C298 0.930 . S
N294 Gd274 2.622 . S
N294 C295 1.369 . S
N294 C296 1.338 . S
C295 N294 1.369 . S
C295 C299 1.415 . S
C295 C302 1.422 . S
C296 H287 0.929 . S
C296 N294 1.338 . S
C296 C298 1.378 . S
C297 H292 0.931 . S
C297 C298 1.348 . S
C297 C299 1.413 . S
C298 H293 0.930 . S
C298 C296 1.378 . S
C298 C297 1.348 . S
C299 C295 1.415 . S
C299 C297 1.413 . S
C299 C329 1.437 . S
H300 C329 0.929 . S
N301 Gd274 2.570 . S
N301 C302 1.359 . S
N301 C305 1.343 . S
C302 C295 1.422 . S
C302 N301 1.359 . S
C302 C304 1.421 . S
C303 C304 1.422 1_545 S
C303 C306 1.321 . S
C303 H330 0.931 . S
C304 C302 1.421 . S
C304 C303 1.422 1_565 S
C304 C328 1.417 . S
C305 H282 0.931 . S
C305 N301 1.343 . S
C305 C306 1.390 1_565 S
C306 H284 0.930 . S
C306 C303 1.321 . S
C306 C305 1.390 1_545 S
O307 Gd275 2.386 . S
O307 C319 1.265 . S
O308 Gd274 2.353 . S
O308 C319 1.242 1_455 S
O309 Gd274 2.468 . S
O309 C327 1.263 . S
O310 Gd274 2.427 . S
O310 C327 1.252 . S
O311 Gd275 2.307 1_455 S
O311 C320 1.261 . S
O312 Gd274 2.388 . S
O312 C320 1.252 . S
O313 Gd274 2.386 . S
O313 C331 1.265 . S
O314 Gd275 2.353 1_455 S
O314 C331 1.242 . S
O315 Gd275 2.468 . S
O315 C339 1.263 . S
O316 Gd275 2.427 . S
O316 C339 1.252 . S
O317 Gd274 2.307 . S
O317 C332 1.261 1_455 S
O318 Gd275 2.388 . S
O318 C332 1.252 . S
C319 O307 1.265 . S
C319 O308 1.242 1_655 S
C320 O311 1.261 . S
C320 O312 1.252 . S
C321 C324 1.394 . S
C321 C326 1.370 . S
C321 C327 1.500 . S
C322 C325 1.383 . S
C322 C326 1.395 . S
C323 C324 1.396 . S
C323 C325 1.365 . S
C323 H340 0.929 . S
C324 C321 1.394 . S
C324 C323 1.396 . S
C324 H341 0.930 . S
C325 C322 1.383 . S
C325 C323 1.365 . S
C325 H342 0.931 . S
C326 C321 1.370 . S
C326 C322 1.395 . S
C326 H343 0.930 . S
C327 Gd274 2.805 . S
C327 O309 1.263 . S
C327 O310 1.252 . S
C327 C321 1.500 . S
C328 H290 0.930 . S
C328 C304 1.417 . S
C328 C329 1.329 . S
C329 C299 1.437 . S
C329 H300 0.929 . S
C329 C328 1.329 . S
H330 C303 0.931 . S
C331 O313 1.265 . S
C331 O314 1.242 . S
C332 O317 1.261 1_655 S
C332 O318 1.252 . S
C333 C336 1.394 . S
C333 C338 1.370 . S
C333 C339 1.500 . S
C334 C337 1.383 . S
C334 C338 1.395 . S
C335 C336 1.396 . S
C335 C337 1.365 . S
C335 H344 0.929 . S
C336 C333 1.394 . S
C336 C335 1.396 . S
C336 H345 0.930 . S
C337 C334 1.383 . S
C337 C335 1.365 . S
C337 H346 0.931 . S
C338 C333 1.370 . S
C338 C334 1.395 . S
C338 H347 0.930 . S
C339 Gd275 2.805 . S
C339 O315 1.263 . S
C339 O316 1.252 . S
C339 C333 1.500 . S
H340 C323 0.929 . S
H341 C324 0.930 . S
H342 C325 0.931 . S
H343 C326 0.930 . S
H344 C335 0.929 . S
H345 C336 0.930 . S
H346 C337 0.931 . S
H347 C338 0.930 . S
C348 C350 1.422 . S
C348 C352 1.415 . S
C348 N354 1.369 . S
C349 C350 1.421 . S
C349 C351 1.417 . S
C349 C361 1.422 . S
C350 C348 1.422 . S
C350 C349 1.421 . S
C350 N360 1.359 . S
C351 C349 1.417 . S
C351 C353 1.329 . S
C351 H370 0.930 . S
C352 C348 1.415 . S
C352 C353 1.437 . S
C352 C356 1.413 . S
C353 C351 1.329 . S
C353 C352 1.437 . S
C353 H375 0.929 . S
N354 C348 1.369 . S
N354 C355 1.338 . S
N354 Gd359 2.622 . S
C355 N354 1.338 . S
C355 C357 1.378 . S
C355 H367 0.929 . S
C356 C352 1.413 . S
C356 C357 1.348 . S
C356 H372 0.931 . S
C357 C355 1.378 . S
C357 C356 1.348 . S
C357 H373 0.930 . S
Gd358 N378 2.622 . S
Gd358 N385 2.570 . S
Gd358 O392 2.353 . S
Gd358 O393 2.468 . S
Gd358 O394 2.427 . S
Gd358 O396 2.388 . S
Gd358 O397 2.386 . S
Gd358 O401 2.307 . S
Gd358 C411 2.805 . S
Gd359 N354 2.622 . S
Gd359 N360 2.570 . S
Gd359 O391 2.386 . S
Gd359 O395 2.307 . S
Gd359 O398 2.353 . S
Gd359 O399 2.468 . S
Gd359 O400 2.427 . S
Gd359 O402 2.388 . S
Gd359 C423 2.805 . S
N360 C350 1.359 . S
N360 Gd359 2.570 . S
N360 C362 1.343 . S
C361 C349 1.422 . S
C361 C363 1.321 . S
C361 H369 0.931 . S
C362 N360 1.343 . S
C362 C363 1.390 . S
C362 H364 0.931 . S
C363 C361 1.321 . S
C363 C362 1.390 . S
C363 H365 0.930 . S
H364 C362 0.931 . S
H365 C363 0.930 . S
H366 C389 0.931 . S
H367 C355 0.929 . S
H368 C390 0.930 . S
H369 C361 0.931 . S
H370 C351 0.930 . S
H371 C380 0.929 . S
H372 C356 0.931 . S
H373 C357 0.930 . S
H374 C412 0.930 . S
H375 C353 0.929 . S
H376 C381 0.931 . S
H377 C382 0.930 . S
N378 Gd358 2.622 . S
N378 C379 1.369 . S
N378 C380 1.338 . S
C379 N378 1.369 . S
C379 C383 1.415 . S
C379 C386 1.422 . S
C380 H371 0.929 . S
C380 N378 1.338 . S
C380 C382 1.378 . S
C381 H376 0.931 . S
C381 C382 1.348 . S
C381 C383 1.413 . S
C382 H377 0.930 . S
C382 C380 1.378 . S
C382 C381 1.348 . S
C383 C379 1.415 . S
C383 C381 1.413 . S
C383 C413 1.437 . S
H384 C413 0.929 . S
N385 Gd358 2.570 . S
N385 C386 1.359 . S
N385 C389 1.343 . S
C386 C379 1.422 . S
C386 N385 1.359 . S
C386 C388 1.421 . S
C387 C388 1.422 . S
C387 C390 1.321 . S
C387 H414 0.931 . S
C388 C386 1.421 . S
C388 C387 1.422 . S
C388 C412 1.417 . S
C389 H366 0.931 . S
C389 N385 1.343 . S
C389 C390 1.390 . S
C390 H368 0.930 . S
C390 C387 1.321 . S
C390 C389 1.390 . S
O391 Gd359 2.386 . S
O391 C403 1.265 . S
O392 Gd358 2.353 . S
O392 C403 1.242 . S
O393 Gd358 2.468 . S
O393 C411 1.263 . S
O394 Gd358 2.427 . S
O394 C411 1.252 . S
O395 Gd359 2.307 . S
O395 C404 1.261 . S
O396 Gd358 2.388 . S
O396 C404 1.252 . S
O397 Gd358 2.386 . S
O397 C415 1.265 . S
O398 Gd359 2.353 . S
O398 C415 1.242 . S
O399 Gd359 2.468 . S
O399 C423 1.263 . S
O400 Gd359 2.427 . S
O400 C423 1.252 . S
O401 Gd358 2.307 . S
O401 C416 1.261 . S
O402 Gd359 2.388 . S
O402 C416 1.252 . S
C403 O391 1.265 . S
C403 O392 1.242 . S
C404 O395 1.261 . S
C404 O396 1.252 . S
C405 C408 1.394 . S
C405 C410 1.370 . S
C405 C411 1.500 . S
C406 C409 1.383 . S
C406 C410 1.395 . S
C407 C408 1.396 . S
C407 C409 1.365 . S
C407 H424 0.929 . S
C408 C405 1.394 . S
C408 C407 1.396 . S
C408 H425 0.930 . S
C409 C406 1.383 . S
C409 C407 1.365 . S
C409 H426 0.931 . S
C410 C405 1.370 . S
C410 C406 1.395 . S
C410 H427 0.930 . S
C411 Gd358 2.805 . S
C411 O393 1.263 . S
C411 O394 1.252 . S
C411 C405 1.500 . S
C412 H374 0.930 . S
C412 C388 1.417 . S
C412 C413 1.329 . S
C413 C383 1.437 . S
C413 H384 0.929 . S
C413 C412 1.329 . S
H414 C387 0.931 . S
C415 O397 1.265 . S
C415 O398 1.242 . S
C416 O401 1.261 . S
C416 O402 1.252 . S
C417 C420 1.394 . S
C417 C422 1.370 . S
C417 C423 1.500 . S
C418 C421 1.383 . S
C418 C422 1.395 . S
C419 C420 1.396 . S
C419 C421 1.365 . S
C419 H428 0.929 . S
C420 C417 1.394 . S
C420 C419 1.396 . S
C420 H429 0.930 . S
C421 C418 1.383 . S
C421 C419 1.365 . S
C421 H430 0.931 . S
C422 C417 1.370 . S
C422 C418 1.395 . S
C422 H431 0.930 . S
C423 Gd359 2.805 . S
C423 O399 1.263 . S
C423 O400 1.252 . S
C423 C417 1.500 . S
H424 C407 0.929 . S
H425 C408 0.930 . S
H426 C409 0.931 . S
H427 C410 0.930 . S
H428 C419 0.929 . S
H429 C420 0.930 . S
H430 C421 0.931 . S
H431 C422 0.930 . S
H432 C440 0.950 . S
H433 C445 0.950 . S
H434 C442 0.950 . S
H435 C444 0.950 . S
H436 C446 0.950 . S
H437 C448 0.950 . S
H438 C450 0.950 . S
H439 C451 0.950 . S
C440 H432 0.950 . S
C440 C441 1.386 . S
C440 C442 1.391 . S
C441 C440 1.386 . S
C441 C445 1.393 . S
C442 H434 0.950 . S
C442 C440 1.391 . S
C442 C443 1.400 . S
C443 C442 1.400 . S
C443 C444 1.398 . S
C443 C449 1.491 . S
C444 H435 0.950 . S
C444 C443 1.398 . S
C444 C445 1.391 . S
C445 H433 0.950 . S
C445 C441 1.393 . S
C445 C444 1.391 . S
C446 H436 0.950 . S
C446 C447 1.386 . S
C446 C448 1.391 1_545 S
C447 C446 1.386 . S
C447 C451 1.393 . S
C448 H437 0.950 . S
C448 C446 1.391 1_565 S
C448 C449 1.400 . S
C449 C443 1.491 . S
C449 C448 1.400 . S
C449 C450 1.398 1_565 S
C450 H438 0.950 . S
C450 C449 1.398 1_545 S
C450 C451 1.391 . S
C451 H439 0.950 . S
C451 C447 1.393 . S
C451 C450 1.391 . S
H452 C460 0.950 . S
H453 C465 0.950 . S
H454 C462 0.950 . S
H455 C464 0.950 . S
H456 C466 0.950 . S
H457 C468 0.950 . S
H458 C470 0.950 . S
H459 C471 0.950 . S
C460 H452 0.950 . S
C460 C461 1.386 . S
C460 C462 1.391 . S
C461 C460 1.386 . S
C461 C465 1.393 . S
C462 H454 0.950 . S
C462 C460 1.391 . S
C462 C463 1.400 . S
C463 C462 1.400 . S
C463 C464 1.398 . S
C463 C469 1.491 . S
C464 H455 0.950 . S
C464 C463 1.398 . S
C464 C465 1.391 . S
C465 H453 0.950 . S
C465 C461 1.393 . S
C465 C464 1.391 . S
C466 H456 0.950 . S
C466 C467 1.386 . S
C466 C468 1.391 . S
C467 C466 1.386 . S
C467 C471 1.393 . S
C468 H457 0.950 . S
C468 C466 1.391 . S
C468 C469 1.400 . S
C469 C463 1.491 . S
C469 C468 1.400 . S
C469 C470 1.398 . S
C470 H458 0.950 . S
C470 C469 1.398 . S
C470 C471 1.391 . S
C471 H459 0.950 . S
C471 C467 1.393 . S
C471 C470 1.391 . S
H472 C480 0.950 . S
H473 C485 0.950 . S
H474 C482 0.950 . S
H475 C484 0.950 . S
H476 C486 0.950 . S
H477 C488 0.950 . S
H478 C490 0.950 . S
H479 C491 0.950 . S
C480 H472 0.950 . S
C480 C481 1.386 . S
C480 C482 1.391 . S
C481 C480 1.386 . S
C481 C485 1.393 . S
C482 H474 0.950 . S
C482 C480 1.391 . S
C482 C483 1.400 . S
C483 C482 1.400 . S
C483 C484 1.398 . S
C483 C489 1.491 . S
C484 H475 0.950 . S
C484 C483 1.398 . S
C484 C485 1.391 . S
C485 H473 0.950 . S
C485 C481 1.393 . S
C485 C484 1.391 . S
C486 H476 0.950 . S
C486 C487 1.386 . S
C486 C488 1.391 . S
C487 C486 1.386 . S
C487 C491 1.393 . S
C488 H477 0.950 . S
C488 C486 1.391 . S
C488 C489 1.400 . S
C489 C483 1.491 . S
C489 C488 1.400 . S
C489 C490 1.398 . S
C490 H478 0.950 . S
C490 C489 1.398 . S
C490 C491 1.391 . S
C491 H479 0.950 . S
C491 C487 1.393 . S
C491 C490 1.391 . S
H492 C500 0.950 . S
H493 C505 0.950 . S
H494 C502 0.950 . S
H495 C504 0.950 . S
H496 C506 0.946 1_565 S
H497 C508 0.950 . S
H498 C510 0.950 . S
H499 C511 0.950 . S
C500 H492 0.950 . S
C500 C501 1.386 . S
C500 C502 1.391 . S
C501 C500 1.386 . S
C501 C505 1.393 . S
C502 H494 0.950 . S
C502 C500 1.391 . S
C502 C503 1.400 . S
C503 C502 1.400 . S
C503 C504 1.398 . S
C503 C509 1.491 . S
C504 H495 0.950 . S
C504 C503 1.398 . S
C504 C505 1.391 . S
C505 H493 0.950 . S
C505 C501 1.393 . S
C505 C504 1.391 . S
C506 H496 0.946 1_545 S
C506 C507 1.386 . S
C506 C508 1.391 1_545 S
C507 C506 1.386 . S
C507 C511 1.393 . S
C508 H497 0.950 . S
C508 C506 1.391 1_565 S
C508 C509 1.400 . S
C509 C503 1.491 . S
C509 C508 1.400 . S
C509 C510 1.398 1_565 S
C510 H498 0.950 . S
C510 C509 1.398 1_545 S
C510 C511 1.391 . S
C511 H499 0.950 . S
C511 C507 1.393 . S
C511 C510 1.391 . S
H512 C520 0.950 . S
H513 C525 0.950 . S
H514 C522 0.950 . S
H515 C524 0.950 . S
H516 C526 0.950 . S
H517 C528 0.950 . S
H518 C530 0.950 . S
H519 C531 0.950 . S
C520 H512 0.950 . S
C520 C521 1.386 . S
C520 C522 1.391 . S
C521 C520 1.386 . S
C521 C525 1.393 . S
C522 H514 0.950 . S
C522 C520 1.391 . S
C522 C523 1.400 . S
C523 C522 1.400 . S
C523 C524 1.398 . S
C523 C529 1.491 . S
C524 H515 0.950 . S
C524 C523 1.398 . S
C524 C525 1.391 . S
C525 H513 0.950 . S
C525 C521 1.393 . S
C525 C524 1.391 . S
C526 H516 0.950 . S
C526 C527 1.386 . S
C526 C528 1.391 . S
C527 C526 1.386 . S
C527 C531 1.393 1_565 S
C528 H517 0.950 . S
C528 C526 1.391 . S
C528 C529 1.400 1_565 S
C529 C523 1.491 . S
C529 C528 1.400 1_545 S
C529 C530 1.398 . S
C530 H518 0.950 . S
C530 C529 1.398 . S
C530 C531 1.391 . S
C531 H519 0.950 . S
C531 C527 1.393 1_545 S
C531 C530 1.391 . S
H532 C540 0.950 . S
H533 C545 0.950 . S
H534 C542 0.950 . S
H535 C544 0.950 . S
H536 C546 0.950 . S
H537 C548 0.950 . S
H538 C550 0.950 . S
H539 C551 0.950 . S
C540 H532 0.950 . S
C540 C541 1.386 . S
C540 C542 1.391 . S
C541 C540 1.386 . S
C541 C545 1.393 . S
C542 H534 0.950 . S
C542 C540 1.391 . S
C542 C543 1.400 . S
C543 C542 1.400 . S
C543 C544 1.398 . S
C543 C549 1.491 . S
C544 H535 0.950 . S
C544 C543 1.398 . S
C544 C545 1.391 . S
C545 H533 0.950 . S
C545 C541 1.393 . S
C545 C544 1.391 . S
C546 H536 0.950 . S
C546 C547 1.386 . S
C546 C548 1.391 . S
C547 C546 1.386 . S
C547 C551 1.393 . S
C548 H537 0.950 . S
C548 C546 1.391 . S
C548 C549 1.400 . S
C549 C543 1.491 . S
C549 C548 1.400 . S
C549 C550 1.398 . S
C550 H538 0.950 . S
C550 C549 1.398 . S
C550 C551 1.391 . S
C551 H539 0.950 . S
C551 C547 1.393 . S
C551 C550 1.391 . S
H552 C560 0.950 . S
H553 C565 0.950 . S
H554 C562 0.950 . S
H555 C564 0.950 . S
H556 C566 0.950 . S
H557 C568 0.950 . S
H558 C570 0.950 . S
H559 C571 0.950 . S
C560 H552 0.950 . S
C560 C561 1.386 . S
C560 C562 1.391 . S
C561 C560 1.386 . S
C561 C565 1.393 . S
C562 H554 0.950 . S
C562 C560 1.391 . S
C562 C563 1.400 . S
C563 C562 1.400 . S
C563 C564 1.398 . S
C563 C569 1.491 . S
C564 H555 0.950 . S
C564 C563 1.398 . S
C564 C565 1.391 . S
C565 H553 0.950 . S
C565 C561 1.393 . S
C565 C564 1.391 . S
C566 H556 0.950 . S
C566 C567 1.386 . S
C566 C568 1.391 . S
C567 C566 1.386 . S
C567 C571 1.393 . S
C568 H557 0.950 . S
C568 C566 1.391 . S
C568 C569 1.400 . S
C569 C563 1.491 . S
C569 C568 1.400 . S
C569 C570 1.398 . S
C570 H558 0.950 . S
C570 C569 1.398 . S
C570 C571 1.391 . S
C571 H559 0.950 . S
C571 C567 1.393 . S
C571 C570 1.391 . S
H572 C580 0.950 . S
H573 C585 0.950 . S
H574 C582 0.950 . S
H575 C584 0.950 . S
H576 C586 0.950 . S
H577 C588 0.950 . S
H578 C590 0.950 . S
H579 C591 0.950 . S
C580 H572 0.950 . S
C580 C581 1.386 . S
C580 C582 1.391 . S
C581 C580 1.386 . S
C581 C585 1.393 . S
C582 H574 0.950 . S
C582 C580 1.391 . S
C582 C583 1.400 . S
C583 C582 1.400 . S
C583 C584 1.398 . S
C583 C589 1.491 . S
C584 H575 0.950 . S
C584 C583 1.398 . S
C584 C585 1.391 . S
C585 H573 0.950 . S
C585 C581 1.393 . S
C585 C584 1.391 . S
C586 H576 0.950 . S
C586 C587 1.386 . S
C586 C588 1.391 1_565 S
C587 C586 1.386 . S
C587 C591 1.393 . S
C588 H577 0.950 . S
C588 C586 1.391 1_545 S
C588 C589 1.400 . S
C589 C583 1.491 . S
C589 C588 1.400 . S
C589 C590 1.398 . S
C590 H578 0.950 . S
C590 C589 1.398 . S
C590 C591 1.391 1_545 S
C591 H579 0.950 . S
C591 C587 1.393 . S
C591 C590 1.391 1_565 S
H592 C600 0.950 . S
H593 C605 0.950 . S
H594 C602 0.950 1_554 S
H595 C604 0.950 1_554 S
H596 C606 0.950 . S
H597 C608 0.950 . S
H598 C610 0.950 . S
H599 C611 0.950 . S
C600 H592 0.950 . S
C600 C601 1.386 . S
C600 C602 1.391 . S
C601 C600 1.386 . S
C601 C605 1.393 . S
C602 H594 0.950 1_556 S
C602 C600 1.391 . S
C602 C603 1.400 1_556 S
C603 C602 1.400 1_554 S
C603 C604 1.398 1_554 S
C603 C609 1.491 . S
C604 H595 0.950 1_556 S
C604 C603 1.398 1_556 S
C604 C605 1.391 . S
C605 H593 0.950 . S
C605 C601 1.393 . S
C605 C604 1.391 . S
C606 H596 0.950 . S
C606 C607 1.386 . S
C606 C608 1.391 . S
C607 C606 1.386 . S
C607 C611 1.393 . S
C608 H597 0.950 . S
C608 C606 1.391 . S
C608 C609 1.400 . S
C609 C603 1.491 . S
C609 C608 1.400 . S
C609 C610 1.398 . S
C610 H598 0.950 . S
C610 C609 1.398 . S
C610 C611 1.391 . S
C611 H599 0.950 . S
C611 C607 1.393 . S
C611 C610 1.391 . S
H612 C620 0.950 . S
H613 C625 0.950 . S
H614 C622 0.950 . S
H615 C624 0.950 . S
H616 C626 0.950 . S
H617 C628 0.950 . S
H618 C630 0.950 . S
H619 C631 0.950 . S
C620 H612 0.950 . S
C620 C621 1.386 . S
C620 C622 1.391 . S
C621 C620 1.386 . S
C621 C625 1.393 . S
C622 H614 0.950 . S
C622 C620 1.391 . S
C622 C623 1.400 . S
C623 C622 1.400 . S
C623 C624 1.398 . S
C623 C629 1.491 . S
C624 H615 0.950 . S
C624 C623 1.398 . S
C624 C625 1.391 . S
C625 H613 0.950 . S
C625 C621 1.393 . S
C625 C624 1.391 . S
C626 H616 0.950 . S
C626 C627 1.386 . S
C626 C628 1.391 . S
C627 C626 1.386 . S
C627 C631 1.393 . S
C628 H617 0.950 . S
C628 C626 1.391 . S
C628 C629 1.400 . S
C629 C623 1.491 . S
C629 C628 1.400 . S
C629 C630 1.398 . S
C630 H618 0.950 . S
C630 C629 1.398 . S
C630 C631 1.391 . S
C631 H619 0.950 . S
C631 C627 1.393 . S
C631 C630 1.391 . S
H632 C640 0.950 . S
H633 C645 0.950 . S
H634 C642 0.950 1_556 S
H635 C644 0.950 1_556 S
H636 C646 0.950 . S
H637 C648 0.950 . S
H638 C650 0.950 . S
H639 C651 0.950 . S
C640 H632 0.950 . S
C640 C641 1.386 . S
C640 C642 1.391 . S
C641 C640 1.386 . S
C641 C645 1.393 . S
C642 H634 0.950 1_554 S
C642 C640 1.391 . S
C642 C643 1.400 1_554 S
C643 C642 1.400 1_556 S
C643 C644 1.398 1_556 S
C643 C649 1.491 . S
C644 H635 0.950 1_554 S
C644 C643 1.398 1_554 S
C644 C645 1.391 . S
C645 H633 0.950 . S
C645 C641 1.393 . S
C645 C644 1.391 . S
C646 H636 0.950 . S
C646 C647 1.386 . S
C646 C648 1.391 . S
C647 C646 1.386 . S
C647 C651 1.393 . S
C648 H637 0.950 . S
C648 C646 1.391 . S
C648 C649 1.400 . S
C649 C643 1.491 . S
C649 C648 1.400 . S
C649 C650 1.398 . S
C650 H638 0.950 . S
C650 C649 1.398 . S
C650 C651 1.391 . S
C651 H639 0.950 . S
C651 C647 1.393 . S
C651 C650 1.391 . S
H652 C660 0.950 . S
H653 C665 0.950 . S
H654 C662 0.950 . S
H655 C664 0.950 . S
H656 C666 0.950 . S
H657 C668 0.950 . S
H658 C670 0.950 . S
H659 C671 0.950 . S
C660 H652 0.950 . S
C660 C661 1.386 . S
C660 C662 1.391 . S
C661 C660 1.386 . S
C661 C665 1.393 . S
C662 H654 0.950 . S
C662 C660 1.391 . S
C662 C663 1.400 . S
C663 C662 1.400 . S
C663 C664 1.398 . S
C663 C669 1.491 . S
C664 H655 0.950 . S
C664 C663 1.398 . S
C664 C665 1.391 . S
C665 H653 0.950 . S
C665 C661 1.393 . S
C665 C664 1.391 . S
C666 H656 0.950 . S
C666 C667 1.386 . S
C666 C668 1.391 . S
C667 C666 1.386 . S
C667 C671 1.393 . S
C668 H657 0.950 . S
C668 C666 1.391 . S
C668 C669 1.400 . S
C669 C663 1.491 . S
C669 C668 1.400 . S
C669 C670 1.398 . S
C670 H658 0.950 . S
C670 C669 1.398 . S
C670 C671 1.391 . S
C671 H659 0.950 . S
C671 C667 1.393 . S
C671 C670 1.391 . S
H672 C680 0.950 . S
H673 C685 0.950 . S
H674 C682 0.950 . S
H675 C684 0.950 . S
H676 C686 0.950 . S
H677 C688 0.950 . S
H678 C690 0.950 . S
H679 C691 0.950 . S
C680 H672 0.950 . S
C680 C681 1.386 . S
C680 C682 1.391 . S
C681 C680 1.386 . S
C681 C685 1.393 . S
C682 H674 0.950 . S
C682 C680 1.391 . S
C682 C683 1.400 1_554 S
C683 C682 1.400 1_556 S
C683 C684 1.398 . S
C683 C689 1.491 . S
C684 H675 0.950 . S
C684 C683 1.398 . S
C684 C685 1.391 1_556 S
C685 H673 0.950 . S
C685 C681 1.393 . S
C685 C684 1.391 1_554 S
C686 H676 0.950 . S
C686 C687 1.386 . S
C686 C688 1.391 . S
C687 C686 1.386 . S
C687 C691 1.393 . S
C688 H677 0.950 . S
C688 C686 1.391 . S
C688 C689 1.400 . S
C689 C683 1.491 . S
C689 C688 1.400 . S
C689 C690 1.398 . S
C690 H678 0.950 . S
C690 C689 1.398 . S
C690 C691 1.391 . S
C691 H679 0.950 . S
C691 C687 1.393 . S
C691 C690 1.391 . S
H692 C700 0.950 . S
H693 C705 0.950 . S
H694 C702 0.950 . S
H695 C704 0.950 . S
H696 C706 0.950 . S
H697 C708 0.950 . S
H698 C710 0.950 . S
H699 C711 0.950 . S
C700 H692 0.950 . S
C700 C701 1.386 . S
C700 C702 1.391 . S
C701 C700 1.386 . S
C701 C705 1.393 . S
C702 H694 0.950 . S
C702 C700 1.391 . S
C702 C703 1.400 . S
C703 C702 1.400 . S
C703 C704 1.398 . S
C703 C709 1.491 . S
C704 H695 0.950 . S
C704 C703 1.398 . S
C704 C705 1.391 . S
C705 H693 0.950 . S
C705 C701 1.393 . S
C705 C704 1.391 . S
C706 H696 0.950 . S
C706 C707 1.386 . S
C706 C708 1.391 . S
C707 C706 1.386 . S
C707 C711 1.393 . S
C708 H697 0.950 . S
C708 C706 1.391 . S
C708 C709 1.400 . S
C709 C703 1.491 . S
C709 C708 1.400 . S
C709 C710 1.398 . S
C710 H698 0.950 . S
C710 C709 1.398 . S
C710 C711 1.391 . S
C711 H699 0.950 . S
C711 C707 1.393 . S
C711 C710 1.391 . S
H712 C720 0.950 . S
H713 C725 0.950 . S
H714 C722 0.950 1_554 S
H715 C724 0.950 . S
H716 C726 0.950 . S
H717 C728 0.950 . S
H718 C730 0.950 . S
H719 C731 0.950 . S
C720 H712 0.950 . S
C720 C721 1.386 . S
C720 C722 1.391 . S
C721 C720 1.386 . S
C721 C725 1.393 . S
C722 H714 0.950 1_556 S
C722 C720 1.391 . S
C722 C723 1.400 1_556 S
C723 C722 1.400 1_554 S
C723 C724 1.398 1_554 S
C723 C729 1.491 . S
C724 H715 0.950 . S
C724 C723 1.398 1_556 S
C724 C725 1.391 . S
C725 H713 0.950 . S
C725 C721 1.393 . S
C725 C724 1.391 . S
C726 H716 0.950 . S
C726 C727 1.386 . S
C726 C728 1.391 . S
C727 C726 1.386 . S
C727 C731 1.393 . S
C728 H717 0.950 . S
C728 C726 1.391 . S
C728 C729 1.400 . S
C729 C723 1.491 . S
C729 C728 1.400 . S
C729 C730 1.398 . S
C730 H718 0.950 . S
C730 C729 1.398 . S
C730 C731 1.391 . S
C731 H719 0.950 . S
C731 C727 1.393 . S
C731 C730 1.391 . S
H732 C740 0.950 . S
H733 C745 0.950 . S
H734 C742 0.950 . S
H735 C744 0.950 . S
H736 C746 0.950 . S
H737 C748 0.950 . S
H738 C750 0.950 . S
H739 C751 0.950 . S
C740 H732 0.950 . S
C740 C741 1.386 . S
C740 C742 1.391 . S
C741 C740 1.386 . S
C741 C745 1.393 . S
C742 H734 0.950 . S
C742 C740 1.391 . S
C742 C743 1.400 . S
C743 C742 1.400 . S
C743 C744 1.398 . S
C743 C749 1.491 . S
C744 H735 0.950 . S
C744 C743 1.398 . S
C744 C745 1.391 . S
C745 H733 0.950 . S
C745 C741 1.393 . S
C745 C744 1.391 . S
C746 H736 0.950 . S
C746 C747 1.386 . S
C746 C748 1.391 . S
C747 C746 1.386 . S
C747 C751 1.393 . S
C748 H737 0.950 . S
C748 C746 1.391 . S
C748 C749 1.400 . S
C749 C743 1.491 . S
C749 C748 1.400 . S
C749 C750 1.398 . S
C750 H738 0.950 . S
C750 C749 1.398 . S
C750 C751 1.391 . S
C751 H739 0.950 . S
C751 C747 1.393 . S
C751 C750 1.391 . S
H752 C760 0.950 . S
H753 C765 0.950 . S
H754 C762 0.950 . S
H755 C764 0.950 . S
H756 C766 0.950 . S
H757 C768 0.950 . S
H758 C770 0.950 . S
H759 C771 0.950 . S
C760 H752 0.950 . S
C760 C761 1.386 . S
C760 C762 1.391 . S
C761 C760 1.386 . S
C761 C765 1.393 . S
C762 H754 0.950 . S
C762 C760 1.391 . S
C762 C763 1.400 . S
C763 C762 1.400 . S
C763 C764 1.398 . S
C763 C769 1.491 . S
C764 H755 0.950 . S
C764 C763 1.398 . S
C764 C765 1.391 . S
C765 H753 0.950 . S
C765 C761 1.393 . S
C765 C764 1.391 . S
C766 H756 0.950 . S
C766 C767 1.386 . S
C766 C768 1.391 . S
C767 C766 1.386 . S
C767 C771 1.393 . S
C768 H757 0.950 . S
C768 C766 1.391 . S
C768 C769 1.400 . S
C769 C763 1.491 . S
C769 C768 1.400 . S
C769 C770 1.398 . S
C770 H758 0.950 . S
C770 C769 1.398 . S
C770 C771 1.391 . S
C771 H759 0.950 . S
C771 C767 1.393 . S
C771 C770 1.391 . S
H772 C780 0.950 . S
H773 C785 0.950 . S
H774 C782 0.950 . S
H775 C784 0.950 . S
H776 C786 0.950 . S
H777 C788 0.950 . S
H778 C790 0.950 . S
H779 C791 0.950 . S
C780 H772 0.950 . S
C780 C781 1.386 . S
C780 C782 1.391 . S
C781 C780 1.386 . S
C781 C785 1.393 . S
C782 H774 0.950 . S
C782 C780 1.391 . S
C782 C783 1.400 . S
C783 C782 1.400 . S
C783 C784 1.398 . S
C783 C789 1.491 . S
C784 H775 0.950 . S
C784 C783 1.398 . S
C784 C785 1.391 . S
C785 H773 0.950 . S
C785 C781 1.393 . S
C785 C784 1.391 . S
C786 H776 0.950 . S
C786 C787 1.386 . S
C786 C788 1.391 . S
C787 C786 1.386 . S
C787 C791 1.393 . S
C788 H777 0.950 . S
C788 C786 1.391 . S
C788 C789 1.400 . S
C789 C783 1.491 . S
C789 C788 1.400 . S
C789 C790 1.398 . S
C790 H778 0.950 . S
C790 C789 1.398 . S
C790 C791 1.391 . S
C791 H779 0.950 . S
C791 C787 1.393 . S
C791 C790 1.391 . S
H792 C800 0.950 . S
H793 C805 0.950 . S
H794 C802 0.950 . S
H795 C804 0.950 . S
H796 C806 0.950 . S
H797 C808 0.950 . S
H798 C810 0.950 . S
H799 C811 0.950 . S
C800 H792 0.950 . S
C800 C801 1.386 . S
C800 C802 1.391 . S
C801 C800 1.386 . S
C801 C805 1.393 . S
C802 H794 0.950 . S
C802 C800 1.391 . S
C802 C803 1.400 . S
C803 C802 1.400 . S
C803 C804 1.398 . S
C803 C809 1.491 . S
C804 H795 0.950 . S
C804 C803 1.398 . S
C804 C805 1.391 . S
C805 H793 0.950 . S
C805 C801 1.393 . S
C805 C804 1.391 . S
C806 H796 0.950 . S
C806 C807 1.386 . S
C806 C808 1.391 . S
C807 C806 1.386 . S
C807 C811 1.393 . S
C808 H797 0.950 . S
C808 C806 1.391 . S
C808 C809 1.400 . S
C809 C803 1.491 . S
C809 C808 1.400 . S
C809 C810 1.398 . S
C810 H798 0.950 . S
C810 C809 1.398 . S
C810 C811 1.391 . S
C811 H799 0.950 . S
C811 C807 1.393 . S
C811 C810 1.391 . S
H812 C820 0.950 . S
H813 C825 0.950 . S
H814 C822 0.950 . S
H815 C824 0.950 . S
H816 C826 0.950 . S
H817 C828 0.950 . S
H818 C830 0.950 . S
H819 C831 0.950 . S
C820 H812 0.950 . S
C820 C821 1.386 . S
C820 C822 1.391 . S
C821 C820 1.386 . S
C821 C825 1.393 . S
C822 H814 0.950 . S
C822 C820 1.391 . S
C822 C823 1.400 . S
C823 C822 1.400 . S
C823 C824 1.398 . S
C823 C829 1.491 . S
C824 H815 0.950 . S
C824 C823 1.398 . S
C824 C825 1.391 . S
C825 H813 0.950 . S
C825 C821 1.393 . S
C825 C824 1.391 . S
C826 H816 0.950 . S
C826 C827 1.386 . S
C826 C828 1.391 . S
C827 C826 1.386 . S
C827 C831 1.393 . S
C828 H817 0.950 . S
C828 C826 1.391 . S
C828 C829 1.400 . S
C829 C823 1.491 . S
C829 C828 1.400 . S
C829 C830 1.398 . S
C830 H818 0.950 . S
C830 C829 1.398 . S
C830 C831 1.391 . S
C831 H819 0.950 . S
C831 C827 1.393 . S
C831 C830 1.391 . S
H832 C840 0.950 . S
H833 C845 0.950 . S
H834 C842 0.950 . S
H835 C844 0.950 . S
H836 C846 0.950 . S
H837 C848 0.950 . S
H838 C850 0.950 . S
H839 C851 0.950 . S
C840 H832 0.950 . S
C840 C841 1.386 . S
C840 C842 1.391 . S
C841 C840 1.386 . S
C841 C845 1.393 . S
C842 H834 0.950 . S
C842 C840 1.391 . S
C842 C843 1.400 . S
C843 C842 1.400 . S
C843 C844 1.398 . S
C843 C849 1.491 . S
C844 H835 0.950 . S
C844 C843 1.398 . S
C844 C845 1.391 . S
C845 H833 0.950 . S
C845 C841 1.393 . S
C845 C844 1.391 . S
C846 H836 0.950 . S
C846 C847 1.386 . S
C846 C848 1.391 . S
C847 C846 1.386 . S
C847 C851 1.393 . S
C848 H837 0.950 . S
C848 C846 1.391 . S
C848 C849 1.400 . S
C849 C843 1.491 . S
C849 C848 1.400 . S
C849 C850 1.398 . S
C850 H838 0.950 . S
C850 C849 1.398 . S
C850 C851 1.391 . S
C851 H839 0.950 . S
C851 C847 1.393 . S
C851 C850 1.391 . S
H852 C860 0.950 . S
H853 C865 0.950 . S
H854 C862 0.950 . S
H855 C864 0.950 . S
H856 C866 0.950 . S
H857 C868 0.950 . S
H858 C870 0.950 . S
H859 C871 0.950 . S
C860 H852 0.950 . S
C860 C861 1.386 . S
C860 C862 1.391 . S
C861 C860 1.386 . S
C861 C865 1.393 . S
C862 H854 0.950 . S
C862 C860 1.391 . S
C862 C863 1.400 . S
C863 C862 1.400 . S
C863 C864 1.398 . S
C863 C869 1.491 . S
C864 H855 0.950 . S
C864 C863 1.398 . S
C864 C865 1.391 . S
C865 H853 0.950 . S
C865 C861 1.393 . S
C865 C864 1.391 . S
C866 H856 0.950 . S
C866 C867 1.386 . S
C866 C868 1.391 . S
C867 C866 1.386 . S
C867 C871 1.393 . S
C868 H857 0.950 . S
C868 C866 1.391 . S
C868 C869 1.400 . S
C869 C863 1.491 . S
C869 C868 1.400 . S
C869 C870 1.398 . S
C870 H858 0.950 . S
C870 C869 1.398 . S
C870 C871 1.391 . S
C871 H859 0.950 . S
C871 C867 1.393 . S
C871 C870 1.391 . S
H872 C880 0.950 . S
H873 C885 0.950 . S
H874 C882 0.950 . S
H875 C884 0.950 . S
H876 C886 0.950 . S
H877 C888 0.950 . S
H878 C890 0.950 . S
H879 C891 0.950 . S
C880 H872 0.950 . S
C880 C881 1.386 . S
C880 C882 1.391 . S
C881 C880 1.386 . S
C881 C885 1.393 . S
C882 H874 0.950 . S
C882 C880 1.391 . S
C882 C883 1.400 . S
C883 C882 1.400 . S
C883 C884 1.398 . S
C883 C889 1.491 . S
C884 H875 0.950 . S
C884 C883 1.398 . S
C884 C885 1.391 . S
C885 H873 0.950 . S
C885 C881 1.393 . S
C885 C884 1.391 . S
C886 H876 0.950 . S
C886 C887 1.386 . S
C886 C888 1.391 . S
C887 C886 1.386 . S
C887 C891 1.393 . S
C888 H877 0.950 . S
C888 C886 1.391 . S
C888 C889 1.400 . S
C889 C883 1.491 . S
C889 C888 1.400 . S
C889 C890 1.398 . S
C890 H878 0.950 . S
C890 C889 1.398 . S
C890 C891 1.391 . S
C891 H879 0.950 . S
C891 C887 1.393 . S
C891 C890 1.391 . S
H892 C900 0.950 . S
H893 C905 0.950 . S
H894 C902 0.950 . S
H895 C904 0.950 . S
H896 C906 0.950 . S
H897 C908 0.950 . S
H898 C910 0.950 . S
H899 C911 0.950 . S
C900 H892 0.950 . S
C900 C901 1.386 . S
C900 C902 1.391 . S
C901 C900 1.386 . S
C901 C905 1.393 . S
C902 H894 0.950 . S
C902 C900 1.391 . S
C902 C903 1.400 . S
C903 C902 1.400 . S
C903 C904 1.398 . S
C903 C909 1.491 . S
C904 H895 0.950 . S
C904 C903 1.398 . S
C904 C905 1.391 . S
C905 H893 0.950 . S
C905 C901 1.393 . S
C905 C904 1.391 . S
C906 H896 0.950 . S
C906 C907 1.386 . S
C906 C908 1.391 . S
C907 C906 1.386 . S
C907 C911 1.393 . S
C908 H897 0.950 . S
C908 C906 1.391 . S
C908 C909 1.400 . S
C909 C903 1.491 . S
C909 C908 1.400 . S
C909 C910 1.398 . S
C910 H898 0.950 . S
C910 C909 1.398 . S
C910 C911 1.391 . S
C911 H899 0.950 . S
C911 C907 1.393 . S
C911 C910 1.391 . S
C441 C81 1.686 . S
C447 C152 1.673 . S
C467 C236 1.663 . S
C461 C93 1.684 . S
C487 C235 1.670 . S
C481 C57 1.678 . S
C501 C69 1.680 . S
C507 C151 1.672 . S
C527 C332 1.670 . S
C521 C33 1.685 . S
C547 C416 1.660 . S
C541 C45 1.677 . S
C561 C9 1.673 . S
C567 C415 1.678 . S
C581 C21 1.674 . S
C587 C331 1.679 . S
C607 C154 1.462 . S
C601 C18 1.615 . S
C627 C238 1.432 . S
C621 C6 1.606 . S
C647 C250 1.424 . S
C641 C42 1.622 . S
C667 C166 1.384 . S
C661 C30 1.612 . S
C687 C334 1.433 . S
C681 C66 1.616 . S
C701 C54 1.615 . S
C707 C418 1.446 . S
C727 C406 1.379 . S
C721 C90 1.621 . S
C741 C78 1.626 . S
C747 C322 1.416 . S
C767 C163 1.537 . S
C761 C4 1.524 . S
C787 C247 1.539 . S
C781 C16 1.517 . S
C801 C28 1.512 . S
C807 C248 1.517 . S
C827 C164 1.504 . S
C821 C40 1.522 . S
C847 C319 1.542 . S
C841 C52 1.520 . S
C861 C64 1.512 . S
C867 C403 1.538 . S
C881 C76 1.509 . S
C887 C404 1.511 . S
C901 C88 1.508 . S
C907 C320 1.517 . S
