# Generated by pormake.
# Topology pth, (4,4)-cn, num edge types: 1
# Building blocks:
#     Node 0, Type 0, BuildingBlock: CEKHIL_clean_sbu_0, # of connection points: 4
#     Node 1, Type 0, BuildingBlock: CEKHIL_clean_sbu_0, # of connection points: 4
#     Node 2, Type 0, BuildingBlock: CEKHIL_clean_sbu_0, # of connection points: 4
#     Node 3, Type 1, BuildingBlock: NAWXER_clean_linker_0, # of connection points: 4
#     Node 4, Type 1, BuildingBlock: NAWXER_clean_linker_0, # of connection points: 4
#     Node 5, Type 1, BuildingBlock: NAWXER_clean_linker_0, # of connection points: 4
#     Edge 6, Type (0, 1), BuildingBlock: UVAHIK_clean_linker_0, # of connection points: 2
#     Edge 7, Type (0, 1), BuildingBlock: UVAHIK_clean_linker_0, # of connection points: 2
#     Edge 8, Type (0, 1), BuildingBlock: UVAHIK_clean_linker_0, # of connection points: 2
#     Edge 9, Type (0, 1), BuildingBlock: UVAHIK_clean_linker_0, # of connection points: 2
#     Edge 10, Type (0, 1), BuildingBlock: UVAHIK_clean_linker_0, # of connection points: 2
#     Edge 11, Type (0, 1), BuildingBlock: UVAHIK_clean_linker_0, # of connection points: 2
#     Edge 12, Type (0, 1), BuildingBlock: UVAHIK_clean_linker_0, # of connection points: 2
#     Edge 13, Type (0, 1), BuildingBlock: UVAHIK_clean_linker_0, # of connection points: 2
#     Edge 14, Type (0, 1), BuildingBlock: UVAHIK_clean_linker_0, # of connection points: 2
#     Edge 15, Type (0, 1), BuildingBlock: UVAHIK_clean_linker_0, # of connection points: 2
#     Edge 16, Type (0, 1), BuildingBlock: UVAHIK_clean_linker_0, # of connection points: 2
#     Edge 17, Type (0, 1), BuildingBlock: UVAHIK_clean_linker_0, # of connection points: 2
# Relax obj value: 0.006
# Max RMSD: 0.048
# Mean RMSD: 0.037
data_MOF--net-pth--node1-CEKHIL_clean_sbu_0--node2-NAWXER_clean_linker_0--edge1-UVAHIK_clean_linker_0
_symmetry_space_group_name_H-M    P1
_symmetry_Int_Tables_number       1
_symmetry_cell_setting            triclinic
loop_
_symmetry_equiv_pos_as_xyz
'x, y, z'
_cell_length_a     35.544305
_cell_length_b     35.635398
_cell_length_c     82.622172
_cell_angle_alpha  90.948779
_cell_angle_beta   90.004228
_cell_angle_gamma 120.26813
loop_
_atom_site_label
_atom_site_type_symbol
_atom_site_fract_x
_atom_site_fract_y
_atom_site_fract_z
_atom_type_partial_charge
Co0 Co 0.02175 0.03341 0.06418 0.0
O1 O 0.99222 0.99123 0.08067 0.0
O2 O 0.0454 0.99513 0.06548 0.0
C3 C 0.03172 0.09105 0.07924 0.0
O4 O 0.06168 0.07353 0.04672 0.0
Co5 Co 0.98259 0.08634 0.05004 0.0
O6 O 0.03913 0.11925 0.03895 0.0
C7 C 0.94745 0.99528 0.03936 0.0
C8 C 0.018 0.97643 0.07717 0.0
C9 C 0.06637 0.106 0.0385 0.0
O10 O 0.97746 0.99368 0.04749 0.0
O11 O 0.94227 0.02833 0.0396 0.0
O12 O 0.05817 0.07611 0.08065 0.0
O13 O 0.9984 0.06883 0.06981 0.0
Co14 Co 0.00204 0.03743 0.38588 0.0
O15 O 0.97394 0.05754 0.37142 0.0
O16 O 0.02894 0.09998 0.38789 0.0
C17 C 0.00914 0.99383 0.3676 0.0
O18 O 0.04021 0.02853 0.40201 0.0
Co19 Co 0.95886 0.93989 0.39438 0.0
O20 O 0.01823 0.95729 0.40233 0.0
C21 C 0.92661 0.99426 0.40936 0.0
C22 C 0.0015 0.09645 0.37671 0.0
C23 C 0.04556 0.99675 0.40604 0.0
O24 O 0.9585 0.02851 0.40321 0.0
O25 O 0.91953 0.95582 0.40635 0.0
O26 O 0.03728 0.03519 0.36819 0.0
O27 O 0.97609 0.98097 0.37704 0.0
Co28 Co 0.00216 0.02974 0.72076 0.0
O29 O 0.04967 0.05824 0.70599 0.0
O30 O 0.03633 0.00124 0.72055 0.0
C31 C 0.95078 0.02647 0.70388 0.0
O32 O 0.95555 0.99075 0.73674 0.0
Co33 Co 0.95211 0.07472 0.73299 0.0
O34 O 0.91071 0.01679 0.74167 0.0
C35 C 0.03966 0.10266 0.7462 0.0
C36 C 0.06036 0.02968 0.70986 0.0
C37 C 0.92091 0.98745 0.74307 0.0
O38 O 0.0395 0.07059 0.73874 0.0
O39 O 0.00931 0.11172 0.74451 0.0
O40 O 0.96242 0.99731 0.70293 0.0
O41 O 0.97279 0.05825 0.714 0.0
C42 C 0.01103 0.41086 0.25523 0.0
C43 C 0.03953 0.4246 0.26868 0.0
C44 C 0.01291 0.44084 0.2441 0.0
C45 C 0.04406 0.48519 0.24591 0.0
C46 C 0.07079 0.469 0.27042 0.0
C47 C 0.07296 0.4989 0.25918 0.0
C48 C 0.04383 0.51804 0.23517 0.0
C49 C 0.07074 0.43575 0.19968 0.0
C50 C 0.03635 0.4118 0.18859 0.0
C51 C 0.07057 0.4675 0.20982 0.0
C52 C 0.03618 0.47604 0.20897 0.0
C53 C 0.00133 0.41969 0.18821 0.0
C54 C 0.00157 0.45184 0.19814 0.0
C55 C 0.03775 0.51255 0.21822 0.0
C56 C 0.06369 0.68577 0.19725 0.0
C57 C 0.03415 0.6706 0.18417 0.0
C58 C 0.0652 0.65648 0.20791 0.0
C59 C 0.0361 0.61156 0.20601 0.0
C60 C 0.00578 0.62576 0.18203 0.0
C61 C 0.00665 0.59656 0.19288 0.0
C62 C 0.03799 0.57957 0.21676 0.0
C63 C 0.01155 0.66378 0.25089 0.0
C64 C 0.04494 0.68724 0.26237 0.0
C65 C 0.01148 0.63101 0.24134 0.0
C66 C 0.04498 0.62133 0.243 0.0
C67 C 0.07854 0.67754 0.26391 0.0
C68 C 0.07834 0.6447 0.2544 0.0
C69 C 0.04406 0.58508 0.23373 0.0
H70 H 0.98681 0.37691 0.25337 0.0
H71 H 0.98898 0.42933 0.2344 0.0
H72 H 0.0928 0.48096 0.28074 0.0
H73 H 0.09684 0.533 0.26102 0.0
H74 H 0.09855 0.4311 0.20018 0.0
H75 H 0.098 0.48641 0.2179 0.0
H76 H 0.97379 0.40128 0.18013 0.0
H77 H 0.97473 0.45801 0.19731 0.0
H78 H 0.08638 0.72022 0.19897 0.0
H79 H 0.0897 0.66905 0.21742 0.0
H80 H 0.98268 0.61334 0.17203 0.0
H81 H 0.98424 0.5621 0.19098 0.0
H82 H 0.98478 0.66987 0.2496 0.0
H83 H 0.98479 0.61261 0.2329 0.0
H84 H 0.10503 0.69534 0.27247 0.0
H85 H 0.10436 0.63755 0.25594 0.0
N86 N 0.04696 0.55425 0.24221 0.0
N87 N 0.03491 0.54337 0.20974 0.0
C88 C 0.63844 0.05472 0.53113 0.0
C89 C 0.62602 0.02217 0.51907 0.0
C90 C 0.60724 0.05542 0.54124 0.0
C91 C 0.56309 0.02333 0.53958 0.0
C92 C 0.5817 0.99054 0.5173 0.0
C93 C 0.55057 0.99127 0.52739 0.0
C94 C 0.52946 0.02402 0.54992 0.0
C95 C 0.61355 0.99832 0.58325 0.0
C96 C 0.63276 0.02802 0.59629 0.0
C97 C 0.58141 0.99873 0.57364 0.0
C98 C 0.56858 0.02962 0.57656 0.0
C99 C 0.61922 0.05838 0.59935 0.0
C100 C 0.58754 0.05914 0.5896 0.0
C101 C 0.53329 0.02947 0.56695 0.0
C102 C 0.359 0.99725 0.58808 0.0
C103 C 0.37209 0.02962 0.60025 0.0
C104 C 0.38921 0.99811 0.57703 0.0
C105 C 0.43305 0.03135 0.57797 0.0
C106 C 0.41582 0.06325 0.60095 0.0
C107 C 0.44604 0.06388 0.59 0.0
C108 C 0.46636 0.02995 0.56767 0.0
C109 C 0.38777 0.057 0.53099 0.0
C110 C 0.36348 0.02177 0.5202 0.0
C111 C 0.41861 0.05686 0.54149 0.0
C112 C 0.42602 0.02174 0.54128 0.0
C113 C 0.37004 0.98596 0.52056 0.0
C114 C 0.4014 0.98627 0.53081 0.0
C115 C 0.46209 0.02351 0.55074 0.0
H116 H 0.67232 0.07947 0.53284 0.0
H117 H 0.61759 0.08119 0.55028 0.0
H118 H 0.57095 0.96552 0.50793 0.0
H119 H 0.51664 0.96656 0.52573 0.0
H120 H 0.62327 0.97465 0.58043 0.0
H121 H 0.56622 0.97443 0.56407 0.0
H122 H 0.63244 0.08109 0.60949 0.0
H123 H 0.57765 0.08276 0.5923 0.0
H124 H 0.32547 0.97104 0.58722 0.0
H125 H 0.37858 0.97197 0.56814 0.0
H126 H 0.42699 0.08834 0.6103 0.0
H127 H 0.4798 0.0895 0.59107 0.0
H128 H 0.38418 0.0854 0.53096 0.0
H129 H 0.43785 0.08491 0.54931 0.0
H130 H 0.35127 0.95772 0.51279 0.0
H131 H 0.40669 0.95886 0.53049 0.0
N132 N 0.49377 0.0208 0.54253 0.0
N133 N 0.50177 0.03265 0.5751 0.0
C134 C 0.41258 0.36574 0.86592 0.0
C135 C 0.39038 0.37953 0.85572 0.0
C136 C 0.44828 0.39595 0.87524 0.0
C137 C 0.46224 0.44047 0.87459 0.0
C138 C 0.40468 0.42414 0.85504 0.0
C139 C 0.44031 0.45424 0.86432 0.0
C140 C 0.50073 0.47332 0.88392 0.0
C141 C 0.40112 0.39689 0.92158 0.0
C142 C 0.41149 0.37022 0.9307 0.0
C143 C 0.43204 0.42868 0.9116 0.0
C144 C 0.47412 0.43476 0.91057 0.0
C145 C 0.45386 0.37653 0.92962 0.0
C146 C 0.48499 0.40883 0.91977 0.0
C147 C 0.50726 0.4697 0.90054 0.0
C148 C 0.63762 0.64817 0.921 0.0
C149 C 0.66566 0.64179 0.93106 0.0
C150 C 0.60858 0.61499 0.91052 0.0
C151 C 0.60684 0.57475 0.91004 0.0
C152 C 0.66463 0.60187 0.93032 0.0
C153 C 0.63496 0.56835 0.92003 0.0
C154 C 0.57302 0.53838 0.90022 0.0
C155 C 0.67062 0.62985 0.86444 0.0
C156 C 0.65388 0.64688 0.85311 0.0
C157 C 0.64263 0.59621 0.87457 0.0
C158 C 0.59737 0.57919 0.87366 0.0
C159 C 0.60858 0.62971 0.85226 0.0
C160 C 0.5807 0.59619 0.86237 0.0
C161 C 0.56681 0.54179 0.88354 0.0
H162 H 0.40229 0.33159 0.86673 0.0
H163 H 0.46531 0.38456 0.88275 0.0
H164 H 0.38884 0.43593 0.84709 0.0
H165 H 0.45073 0.48844 0.8635 0.0
H166 H 0.36934 0.39394 0.92239 0.0
H167 H 0.42331 0.44911 0.9049 0.0
H168 H 0.46297 0.35638 0.93628 0.0
H169 H 0.51745 0.41329 0.91921 0.0
H170 H 0.63792 0.67872 0.92135 0.0
H171 H 0.58656 0.62032 0.90314 0.0
H172 H 0.68575 0.59615 0.93807 0.0
H173 H 0.6337 0.53733 0.91995 0.0
H174 H 0.70535 0.64246 0.86546 0.0
H175 H 0.65636 0.58292 0.88283 0.0
H176 H 0.5945 0.64148 0.84349 0.0
H177 H 0.54591 0.58334 0.8613 0.0
N178 N 0.53077 0.5092 0.87609 0.0
N179 N 0.54318 0.50233 0.90807 0.0
C180 C 0.06472 0.1429 0.10266 0.0
C181 C 0.03693 0.12835 0.08906 0.0
C182 C 0.06668 0.17548 0.11287 0.0
C183 C 0.00288 0.22851 0.12386 0.0
H184 H 0.109 0.31003 0.14685 0.0
C185 C 0.02115 0.37521 0.16116 0.0
C186 C 0.03759 0.37991 0.17703 0.0
C187 C 0.02203 0.34532 0.15027 0.0
C188 C 0.07912 0.28726 0.14056 0.0
H189 H 0.99097 0.13773 0.07501 0.0
H190 H 0.99567 0.19587 0.09241 0.0
H191 H 0.11011 0.25833 0.12738 0.0
H192 H 0.06795 0.35654 0.19378 0.0
H193 H 0.07069 0.30528 0.17449 0.0
H194 H 0.97234 0.25843 0.13681 0.0
C195 C 0.01484 0.18116 0.09558 0.0
C196 C 0.07964 0.25752 0.12945 0.0
C197 C 0.01239 0.14809 0.08551 0.0
C198 C 0.05554 0.3543 0.18162 0.0
C199 C 0.05701 0.32483 0.17061 0.0
C200 C 0.00257 0.25867 0.13478 0.0
C201 C 0.04137 0.19472 0.10958 0.0
C202 C 0.04144 0.22757 0.121 0.0
C203 C 0.04001 0.31992 0.15488 0.0
C204 C 0.04061 0.28815 0.14328 0.0
H205 H 0.08384 0.12806 0.10575 0.0
H206 H 0.08701 0.18451 0.12363 0.0
H207 H 0.97259 0.20541 0.11791 0.0
H208 H 0.00809 0.39505 0.15701 0.0
H209 H 0.00923 0.34251 0.13813 0.0
C210 C 0.9022 0.04042 0.42422 0.0
C211 C 0.89669 0.99922 0.42055 0.0
C212 C 0.87375 0.04468 0.43479 0.0
C213 C 0.76364 0.98164 0.45209 0.0
H214 H 0.80779 0.0734 0.48491 0.0
C215 C 0.65628 0.98163 0.50407 0.0
C216 C 0.65893 0.02129 0.50824 0.0
C217 C 0.68614 0.98041 0.49342 0.0
C218 C 0.79493 0.0479 0.47569 0.0
H219 H 0.85695 0.93026 0.4253 0.0
H220 H 0.80792 0.93783 0.44374 0.0
H221 H 0.85824 0.06887 0.46598 0.0
H222 H 0.6953 0.09087 0.50456 0.0
H223 H 0.7476 0.08874 0.48596 0.0
H224 H 0.70044 0.9605 0.46179 0.0
C225 C 0.8338 0.96678 0.43827 0.0
C226 C 0.82381 0.04533 0.46484 0.0
C227 C 0.86216 0.9625 0.42774 0.0
C228 C 0.69266 0.05984 0.50173 0.0
C229 C 0.7226 0.05862 0.49107 0.0
C230 C 0.73484 0.98419 0.46292 0.0
C231 C 0.83914 0.00785 0.44188 0.0
C232 C 0.8085 0.01191 0.45302 0.0
C233 C 0.71941 0.01883 0.48668 0.0
C234 C 0.75017 0.0171 0.47493 0.0
H235 H 0.92837 0.06942 0.41889 0.0
H236 H 0.87848 0.07674 0.43723 0.0
H237 H 0.75068 0.95602 0.44292 0.0
H238 H 0.63119 0.95145 0.50911 0.0
H239 H 0.68332 0.94933 0.49053 0.0
C240 C 0.9035 0.91694 0.75589 0.0
C241 C 0.89261 0.94913 0.75301 0.0
C242 C 0.87771 0.88208 0.76595 0.0
C243 C 0.76801 0.82266 0.78429 0.0
H244 H 0.82475 0.78808 0.81595 0.0
C245 C 0.67537 0.71533 0.83804 0.0
C246 C 0.6832 0.68156 0.84189 0.0
C247 C 0.70142 0.74668 0.82686 0.0
C248 C 0.80842 0.79703 0.80705 0.0
H249 H 0.84546 0.9693 0.7583 0.0
H250 H 0.80111 0.90912 0.77587 0.0
H251 H 0.8687 0.84414 0.79653 0.0
H252 H 0.72491 0.65457 0.83705 0.0
H253 H 0.77069 0.70966 0.81763 0.0
H254 H 0.70781 0.77604 0.79493 0.0
C255 C 0.82924 0.91042 0.77022 0.0
C256 C 0.83358 0.82907 0.7959 0.0
C257 C 0.85493 0.94517 0.7602 0.0
C258 C 0.71832 0.68045 0.83453 0.0
C259 C 0.7445 0.71194 0.82337 0.0
C260 C 0.74292 0.79077 0.79544 0.0
C261 C 0.84042 0.87858 0.77331 0.0
C262 C 0.81368 0.8426 0.7845 0.0
C263 C 0.73604 0.74514 0.81929 0.0
C264 C 0.76284 0.77792 0.80707 0.0
H265 H 0.9322 0.91884 0.75053 0.0
H266 H 0.88694 0.85781 0.76793 0.0
H267 H 0.75157 0.8317 0.77547 0.0
H268 H 0.64911 0.71763 0.8437 0.0
H269 H 0.69459 0.77235 0.82422 0.0
C270 C -0.00098 0.93309 0.10229 0.0
C271 C 0.01797 0.942 0.08687 0.0
C272 C 0.00152 0.90299 0.11214 0.0
C273 C 0.00977 0.80659 0.11276 0.0
H274 H 0.06352 0.84789 0.15508 0.0
C275 C 0.03684 0.69613 0.15595 0.0
C276 C 0.03328 0.70145 0.17264 0.0
C277 C 0.03631 0.72545 0.14505 0.0
C278 C 0.04772 0.83547 0.14344 0.0
H279 H 0.05312 0.92542 0.06945 0.0
H280 H 0.05618 0.87136 0.08662 0.0
H281 H 0.05846 0.89791 0.1367 0.0
H282 H 0.02549 0.74073 0.19108 0.0
H283 H 0.02249 0.79083 0.17212 0.0
H284 H 0.99705 0.74373 0.11963 0.0
C285 C 0.03999 0.88831 0.09106 0.0
C286 C 0.04521 0.86431 0.13288 0.0
C287 C 0.03832 0.9192 0.08129 0.0
C288 C 0.02876 0.73629 0.17826 0.0
C289 C 0.02736 0.76513 0.16736 0.0
C290 C 0.01145 0.77742 0.12345 0.0
C291 C 0.02222 0.88056 0.10666 0.0
C292 C 0.02612 0.85009 0.11749 0.0
C293 C 0.03139 0.76031 0.15059 0.0
C294 C 0.03032 0.79143 0.13899 0.0
H295 H 0.98326 0.95024 0.10695 0.0
H296 H 0.98735 0.89728 0.1241 0.0
H297 H 0.9946 0.79491 0.10096 0.0
H298 H 0.04076 0.66965 0.15136 0.0
H299 H 0.04035 0.72101 0.13231 0.0
C300 C 0.10075 0.9779 0.41516 0.0
C301 C 0.0833 0.00545 0.41626 0.0
C302 C 0.13363 0.98316 0.42579 0.0
C303 C 0.21302 0.05818 0.45722 0.0
H304 H 0.20799 0.95194 0.47062 0.0
C305 C 0.30831 0.04305 0.51201 0.0
C306 C 0.33262 0.02281 0.50821 0.0
C307 C 0.27939 0.04368 0.50066 0.0
C308 C 0.20983 0.98186 0.46693 0.0
H309 H 0.08716 0.0608 0.42908 0.0
H310 H 0.14329 0.06895 0.44819 0.0
H311 H 0.15507 0.94821 0.45106 0.0
H312 H 0.34638 0.98884 0.48911 0.0
H313 H 0.29451 0.98825 0.46976 0.0
H314 H 0.26707 0.09133 0.47378 0.0
C315 C 0.13257 0.04395 0.43883 0.0
C316 C 0.17976 0.97987 0.45559 0.0
C317 C 0.10025 0.03924 0.42792 0.0
C318 C 0.32744 0.00362 0.49272 0.0
C319 C 0.29801 0.00358 0.48154 0.0
C320 C 0.24265 0.06003 0.46883 0.0
C321 C 0.14917 0.01545 0.4381 0.0
C322 C 0.18118 0.01802 0.45041 0.0
C323 C 0.27366 0.02348 0.48541 0.0
C324 C 0.24153 0.02189 0.47363 0.0
H325 H 0.0887 0.95194 0.40612 0.0
H326 H 0.14647 0.96146 0.42444 0.0
H327 H 0.21558 0.08831 0.45343 0.0
H328 H 0.31094 0.05773 0.52384 0.0
H329 H 0.26067 0.05897 0.50394 0.0
C330 C 0.1112 0.1226 0.75949 0.0
C331 C 0.07624 0.13012 0.75746 0.0
C332 C 0.14542 0.14848 0.77022 0.0
C333 C 0.19823 0.25535 0.79139 0.0
H334 H 0.2461 0.2033 0.81947 0.0
C335 C 0.31628 0.35242 0.84351 0.0
C336 C 0.35308 0.34791 0.84547 0.0
C337 C 0.28236 0.32451 0.83308 0.0
C338 C 0.23335 0.21834 0.81159 0.0
H339 H 0.04996 0.17077 0.76526 0.0
H340 H 0.10922 0.21536 0.78398 0.0
H341 H 0.18766 0.15743 0.80037 0.0
H342 H 0.38275 0.31004 0.83819 0.0
H343 H 0.32334 0.26112 0.81998 0.0
H344 H 0.24371 0.31618 0.8026 0.0
C345 C 0.11052 0.18989 0.77712 0.0
C346 C 0.19993 0.1921 0.80064 0.0
C347 C 0.07638 0.16409 0.76642 0.0
C348 C 0.35464 0.31407 0.83708 0.0
C349 C 0.32063 0.28608 0.82664 0.0
C350 C 0.23153 0.28152 0.80233 0.0
C351 C 0.14549 0.18248 0.77913 0.0
C352 C 0.18182 0.21029 0.79048 0.0
C353 C 0.2844 0.29139 0.82436 0.0
C354 C 0.2493 0.26331 0.81263 0.0
H355 H 0.11226 0.0968 0.75277 0.0
H356 H 0.17213 0.14224 0.77136 0.0
H357 H 0.18561 0.27053 0.78352 0.0
H358 H 0.31371 0.37763 0.85004 0.0
H359 H 0.25448 0.32888 0.83185 0.0
C360 C 0.91167 0.0614 0.692 0.0
C361 C 0.91609 0.0246 0.69351 0.0
C362 C 0.88068 0.06067 0.68142 0.0
C363 C 0.77747 0.98931 0.66082 0.0
H364 H 0.816 0.08248 0.6301 0.0
C365 C 0.66279 0.98707 0.61084 0.0
C366 C 0.66606 0.02685 0.60687 0.0
C367 C 0.69357 0.98599 0.62105 0.0
C368 C 0.80445 0.05654 0.63874 0.0
H369 H 0.89081 0.95781 0.68551 0.0
H370 H 0.83583 0.95629 0.66721 0.0
H371 H 0.86813 0.08216 0.64917 0.0
H372 H 0.70506 0.0968 0.61039 0.0
H373 H 0.75726 0.0948 0.62875 0.0
H374 H 0.71357 0.96424 0.65083 0.0
C375 C 0.85666 0.98573 0.67414 0.0
C376 C 0.83442 0.05632 0.64961 0.0
C377 C 0.88815 0.98667 0.68455 0.0
C378 C 0.70103 0.0655 0.61334 0.0
C379 C 0.73148 0.06439 0.6237 0.0
C380 C 0.7473 0.98983 0.65011 0.0
C381 C 0.85306 0.02292 0.67233 0.0
C382 C 0.82119 0.02276 0.66076 0.0
C383 C 0.72816 0.02462 0.62772 0.0
C384 C 0.76038 0.02352 0.63894 0.0
H385 H 0.93278 0.09109 0.69875 0.0
H386 H 0.87824 0.08963 0.68034 0.0
H387 H 0.76643 0.96324 0.66941 0.0
H388 H 0.63604 0.95657 0.60628 0.0
H389 H 0.69024 0.95479 0.62365 0.0
C390 C 0.89671 0.96339 0.01563 0.0
C391 C 0.91819 0.95772 0.02881 0.0
C392 C 0.8697 0.92839 0.00542 0.0
C393 C 0.84256 0.81601 0.99369 0.0
H394 H 0.74144 0.81285 0.97456 0.0
C395 C 0.73935 0.69116 0.94334 0.0
C396 C 0.69453 0.67618 0.94279 0.0
C397 C 0.76655 0.72455 0.95418 0.0
C398 C 0.76913 0.81271 0.97995 0.0
H399 H 0.92778 0.91072 0.04175 0.0
H400 H 0.87915 0.84911 0.02433 0.0
H401 H 0.78733 0.87127 0.99328 0.0
H402 H 0.64252 0.68283 0.95345 0.0
H403 H 0.68934 0.73966 0.97281 0.0
H404 H 0.82301 0.75618 0.98093 0.0
C405 C 0.88416 0.88088 0.02156 0.0
C406 C 0.79604 0.84683 0.99051 0.0
C407 C 0.91184 0.91615 0.03163 0.0
C408 C 0.67715 0.69435 0.95349 0.0
C409 C 0.70411 0.72712 0.96451 0.0
C410 C 0.8152 0.78144 0.9833 0.0
C411 C 0.86276 0.88655 0.00828 0.0
C412 C 0.83337 0.84923 0.99743 0.0
C413 C 0.7493 0.74311 0.96489 0.0
C414 C 0.77822 0.77944 0.97621 0.0
H415 H 0.90138 0.99513 0.01299 0.0
H416 H 0.85476 0.93442 0.99513 0.0
H417 H 0.87125 0.81691 0.9986 0.0
H418 H 0.75347 0.67771 0.93512 0.0
H419 H 0.80119 0.73637 0.9539 0.0
C420 C 0.9828 0.91903 0.35644 0.0
C421 C 0.01493 0.96322 0.35711 0.0
C422 C 0.98769 0.89008 0.3463 0.0
C423 C 0.04642 0.88591 0.31007 0.0
H424 H 0.00979 0.76979 0.32479 0.0
C425 C 0.03094 0.74904 0.26707 0.0
C426 C 0.044 0.72065 0.27309 0.0
C427 C 0.02905 0.77966 0.27731 0.0
C428 C 0.02058 0.80221 0.32054 0.0
H429 H 0.07761 0.01175 0.34785 0.0
H430 H 0.0865 0.96103 0.33029 0.0
H431 H 0.00454 0.8214 0.34294 0.0
H432 H 0.06521 0.70219 0.29464 0.0
H433 H 0.06308 0.75627 0.31235 0.0
H434 H 0.06328 0.86691 0.28776 0.0
C435 C 0.05718 0.94887 0.33741 0.0
C436 C 0.01705 0.83164 0.33088 0.0
C437 C 0.05222 0.97787 0.34754 0.0
C438 C 0.05551 0.72388 0.28955 0.0
C439 C 0.05374 0.75453 0.29976 0.0
C440 C 0.05004 0.85647 0.29972 0.0
C441 C 0.0249 0.90464 0.33664 0.0
C442 C 0.02973 0.87377 0.32575 0.0
C443 C 0.04022 0.7826 0.2938 0.0
C444 C 0.03703 0.81423 0.30482 0.0
H445 H 0.9536 0.90681 0.36364 0.0
H446 H 0.9619 0.85637 0.34583 0.0
H447 H 0.05608 0.91797 0.30568 0.0
H448 H 0.02228 0.74771 0.25442 0.0
H449 H 0.0181 0.80051 0.27236 0.0
C450 C 0.12718 0.06513 0.69304 0.0
C451 C 0.09702 0.02892 0.70178 0.0
C452 C 0.15972 0.06365 0.68411 0.0
C453 C 0.18174 0.98765 0.66218 0.0
H454 H 0.29976 0.0855 0.66074 0.0
C455 C 0.31249 0.98829 0.62015 0.0
C456 C 0.34078 0.0276 0.61257 0.0
C457 C 0.28426 0.98679 0.63225 0.0
C458 C 0.26683 0.05806 0.66087 0.0
H459 H 0.07789 0.96309 0.70839 0.0
H460 H 0.13475 0.96028 0.6925 0.0
H461 H 0.24878 0.08595 0.68038 0.0
H462 H 0.36095 0.09589 0.61141 0.0
H463 H 0.31117 0.0932 0.63224 0.0
H464 H 0.19916 0.96036 0.64232 0.0
C465 C 0.13308 0.98981 0.69263 0.0
C466 C 0.23774 0.05824 0.6722 0.0
C467 C 0.10077 0.9915 0.70178 0.0
C468 C 0.3399 0.06525 0.61719 0.0
C469 C 0.31151 0.0637 0.62919 0.0
C470 C 0.21075 0.9876 0.65076 0.0
C471 C 0.16257 0.02575 0.68357 0.0
C472 C 0.19471 0.02336 0.6728 0.0
C473 C 0.28352 0.02452 0.63696 0.0
C474 C 0.25346 0.02315 0.64979 0.0
H475 H 0.1252 0.09447 0.69284 0.0
H476 H 0.18169 0.09169 0.67713 0.0
H477 H 0.14861 0.96054 0.66225 0.0
H478 H 0.31289 0.95887 0.617 0.0
H479 H 0.26359 0.95619 0.6381 0.0
C480 C 0.14347 0.12947 0.03087 0.0
C481 C 0.104 0.12817 0.02759 0.0
C482 C 0.17909 0.15147 0.02057 0.0
C483 C 0.208 0.18548 0.97908 0.0
H484 H 0.31463 0.28365 0.99598 0.0
C485 C 0.33408 0.31422 0.93707 0.0
C486 C 0.37842 0.33674 0.94151 0.0
C487 C 0.30264 0.28487 0.94758 0.0
C488 C 0.28558 0.25578 0.99105 0.0
H489 H 0.07051 0.14782 0.01078 0.0
H490 H 0.13222 0.185 0.99262 0.0
H491 H 0.2562 0.2384 0.01448 0.0
H492 H 0.42429 0.34485 0.96051 0.0
H493 H 0.36978 0.29201 0.97844 0.0
H494 H 0.23701 0.20196 0.95573 0.0
C495 C 0.13573 0.16953 0.00324 0.0
C496 C 0.25207 0.23003 0.00168 0.0
C497 C 0.10058 0.1485 0.01369 0.0
C498 C 0.39056 0.32792 0.95656 0.0
C499 C 0.35912 0.29801 0.96699 0.0
C500 C 0.24173 0.21065 0.96848 0.0
C501 C 0.17533 0.17145 0.00663 0.0
C502 C 0.21268 0.19532 0.99572 0.0
C503 C 0.31462 0.27651 0.96275 0.0
C504 C 0.2806 0.24687 0.97425 0.0
H505 H 0.14703 0.11418 0.04152 0.0
H506 H 0.20941 0.15262 0.0234 0.0
H507 H 0.17798 0.15855 0.97425 0.0
H508 H 0.32343 0.31942 0.92548 0.0
H509 H 0.26877 0.26959 0.94391 0.0
C510 C 0.9669 0.1298 0.36072 0.0
C511 C 0.00332 0.13461 0.3692 0.0
C512 C 0.9699 0.16375 0.35158 0.0
C513 C 0.04095 0.28145 0.34254 0.0
H514 H 0.97925 0.24485 0.30137 0.0
C515 C 0.07276 0.39693 0.28881 0.0
C516 C 0.03557 0.393 0.2811 0.0
C517 C 0.06876 0.36725 0.30053 0.0
C518 C 0.99636 0.25558 0.31288 0.0
H519 H 0.071 0.1792 0.37535 0.0
H520 H 0.07685 0.23826 0.35892 0.0
H521 H 0.97213 0.19047 0.32041 0.0
H522 H 0.96488 0.35527 0.28015 0.0
H523 H 0.95818 0.30294 0.30017 0.0
H524 H 0.06622 0.34681 0.33456 0.0
C525 C 0.04561 0.20859 0.35958 0.0
C526 C 0.99211 0.22441 0.32388 0.0
C527 C 0.04235 0.17474 0.36898 0.0
C528 C 0.99433 0.35878 0.2855 0.0
C529 C 0.9904 0.32891 0.29706 0.0
C530 C 0.04559 0.31271 0.33141 0.0
C531 C 0.00969 0.20308 0.35041 0.0
C532 C 0.01411 0.23685 0.33891 0.0
C533 C 0.02755 0.33274 0.30466 0.0
C534 C 0.02316 0.30001 0.31651 0.0
H535 H 0.93623 0.09934 0.36085 0.0
H536 H 0.94117 0.15871 0.34512 0.0
H537 H 0.05804 0.29229 0.35404 0.0
H538 H 0.10507 0.4225 0.28561 0.0
H539 H 0.09797 0.37067 0.30608 0.0
loop_
_geom_bond_atom_site_label_1
_geom_bond_atom_site_label_2
_geom_bond_distance
_geom_bond_site_symmetry_2
_ccdc_geom_bond_type
Co0 O1 2.216 1_445 S
Co0 O2 2.091 1_545 S
Co0 O4 2.004 . S
Co0 O10 2.021 1_445 S
Co0 O12 2.137 . S
Co0 O13 2.244 1_455 S
O1 Co0 2.216 1_665 S
O1 C8 1.247 1_655 S
O2 Co0 2.091 1_565 S
O2 C8 1.261 . S
C3 O12 1.247 . S
C3 O13 1.272 1_455 S
O4 Co0 2.004 . S
O4 C9 1.259 . S
Co5 O6 2.061 1_655 S
Co5 O11 2.052 . S
Co5 O13 2.135 . S
O6 Co5 2.061 1_455 S
O6 C9 1.235 . S
C7 O10 1.238 . S
C7 O11 1.241 1_565 S
C8 O1 1.247 1_455 S
C8 O2 1.261 . S
C9 O4 1.259 . S
C9 O6 1.235 . S
O10 Co0 2.021 1_665 S
O10 C7 1.238 . S
O11 Co5 2.052 . S
O11 C7 1.241 1_545 S
O12 Co0 2.137 . S
O12 C3 1.247 . S
O13 Co0 2.244 1_655 S
O13 C3 1.272 1_655 S
O13 Co5 2.135 . S
Co14 O15 2.216 1_455 S
Co14 O16 2.091 . S
Co14 O18 2.004 . S
Co14 O24 2.021 . S
Co14 O26 2.137 . S
Co14 O27 2.244 1_545 S
O15 Co14 2.216 1_655 S
O15 C22 1.247 1_655 S
O16 Co14 2.091 . S
O16 C22 1.261 . S
C17 O26 1.247 1_565 S
C17 O27 1.272 . S
O18 Co14 2.004 . S
O18 C23 1.259 . S
Co19 O20 2.061 1_655 S
Co19 O25 2.052 . S
Co19 O27 2.135 1_655 S
O20 Co19 2.061 1_455 S
O20 C23 1.235 1_565 S
C21 O24 1.238 1_655 S
C21 O25 1.241 1_545 S
C22 O15 1.247 1_455 S
C22 O16 1.261 . S
C23 O18 1.259 . S
C23 O20 1.235 1_545 S
O24 Co14 2.021 . S
O24 C21 1.238 1_455 S
O25 Co19 2.052 . S
O25 C21 1.241 1_565 S
O26 Co14 2.137 . S
O26 C17 1.247 1_545 S
O27 Co14 2.244 1_565 S
O27 C17 1.272 . S
O27 Co19 2.135 1_455 S
Co28 O29 2.216 . S
Co28 O30 2.091 1_545 S
Co28 O32 2.004 1_445 S
Co28 O38 2.021 . S
Co28 O40 2.137 1_445 S
Co28 O41 2.244 1_455 S
O29 Co28 2.216 . S
O29 C36 1.247 . S
O30 Co28 2.091 1_565 S
O30 C36 1.261 1_565 S
C31 O40 1.247 1_545 S
C31 O41 1.272 . S
O32 Co28 2.004 1_665 S
O32 C37 1.259 . S
Co33 O34 2.084 . S
Co33 O39 2.052 1_655 S
Co33 O41 2.135 . S
O34 Co33 2.084 . S
O34 C37 1.210 1_545 S
C35 O38 1.238 . S
C35 O39 1.241 . S
C36 O29 1.247 . S
C36 O30 1.261 1_545 S
C37 O32 1.259 . S
C37 O34 1.210 1_565 S
O38 Co28 2.021 . S
O38 C35 1.238 . S
O39 Co33 2.052 1_455 S
O39 C35 1.241 . S
O40 Co28 2.137 1_665 S
O40 C31 1.247 1_565 S
O41 Co28 2.244 1_655 S
O41 C31 1.272 . S
O41 Co33 2.135 . S
C42 C43 1.384 1_655 S
C42 C44 1.384 . S
C42 H70 0.931 . S
C43 C42 1.384 1_455 S
C43 C46 1.382 . S
C44 C42 1.384 . S
C44 C45 1.381 1_655 S
C44 H71 0.930 . S
C45 C44 1.381 1_455 S
C45 C47 1.381 . S
C45 C48 1.487 . S
C46 C43 1.382 . S
C46 C47 1.387 . S
C46 H72 0.930 . S
C47 C45 1.381 . S
C47 C46 1.387 . S
C47 H73 0.931 . S
C48 C45 1.487 . S
C48 C55 1.399 . S
C48 N86 1.343 . S
C49 C50 1.384 . S
C49 C51 1.384 . S
C49 H74 0.931 . S
C50 C49 1.384 . S
C50 C53 1.382 1_455 S
C51 C49 1.384 . S
C51 C52 1.381 . S
C51 H75 0.930 . S
C52 C51 1.381 . S
C52 C54 1.381 1_455 S
C52 C55 1.487 . S
C53 C50 1.382 1_655 S
C53 C54 1.387 . S
C53 H76 0.930 . S
C54 C52 1.381 1_655 S
C54 C53 1.387 . S
C54 H77 0.931 . S
C55 C48 1.399 . S
C55 C52 1.487 . S
C55 N87 1.343 . S
C56 C57 1.384 . S
C56 C58 1.384 . S
C56 H78 0.931 . S
C57 C56 1.384 . S
C57 C60 1.382 1_455 S
C58 C56 1.384 . S
C58 C59 1.381 . S
C58 H79 0.930 . S
C59 C58 1.381 . S
C59 C61 1.381 1_455 S
C59 C62 1.487 . S
C60 C57 1.382 1_655 S
C60 C61 1.387 . S
C60 H80 0.930 . S
C61 C59 1.381 1_655 S
C61 C60 1.387 . S
C61 H81 0.931 . S
C62 C59 1.487 . S
C62 C69 1.399 . S
C62 N87 1.343 . S
C63 C64 1.384 1_655 S
C63 C65 1.384 . S
C63 H82 0.931 . S
C64 C63 1.384 1_455 S
C64 C67 1.382 . S
C65 C63 1.384 . S
C65 C66 1.381 1_655 S
C65 H83 0.930 . S
C66 C65 1.381 1_455 S
C66 C68 1.381 . S
C66 C69 1.487 . S
C67 C64 1.382 . S
C67 C68 1.387 . S
C67 H84 0.930 . S
C68 C66 1.381 . S
C68 C67 1.387 . S
C68 H85 0.931 . S
C69 C62 1.399 . S
C69 C66 1.487 . S
C69 N86 1.343 . S
H70 C42 0.931 . S
H71 C44 0.930 . S
H72 C46 0.930 . S
H73 C47 0.931 . S
H74 C49 0.931 . S
H75 C51 0.930 . S
H76 C53 0.930 . S
H77 C54 0.931 . S
H78 C56 0.931 . S
H79 C58 0.930 . S
H80 C60 0.930 . S
H81 C61 0.931 . S
H82 C63 0.931 . S
H83 C65 0.930 . S
H84 C67 0.930 . S
H85 C68 0.931 . S
N86 C48 1.343 . S
N86 C69 1.343 . S
N87 C55 1.343 . S
N87 C62 1.343 . S
C88 C89 1.384 . S
C88 C90 1.384 . S
C88 H116 0.931 . S
C89 C88 1.384 . S
C89 C92 1.382 1_545 S
C90 C88 1.384 . S
C90 C91 1.381 . S
C90 H117 0.930 . S
C91 C90 1.381 . S
C91 C93 1.381 1_545 S
C91 C94 1.487 . S
C92 C89 1.382 1_565 S
C92 C93 1.387 . S
C92 H118 0.930 . S
C93 C91 1.381 1_565 S
C93 C92 1.387 . S
C93 H119 0.931 . S
C94 C91 1.487 . S
C94 C101 1.399 . S
C94 N132 1.343 . S
C95 C96 1.384 1_565 S
C95 C97 1.384 . S
C95 H120 0.931 . S
C96 C95 1.384 1_545 S
C96 C99 1.382 . S
C97 C95 1.384 . S
C97 C98 1.381 1_565 S
C97 H121 0.930 . S
C98 C97 1.381 1_545 S
C98 C100 1.381 . S
C98 C101 1.487 . S
C99 C96 1.382 . S
C99 C100 1.387 . S
C99 H122 0.930 . S
C100 C98 1.381 . S
C100 C99 1.387 . S
C100 H123 0.931 . S
C101 C94 1.399 . S
C101 C98 1.487 . S
C101 N133 1.343 . S
C102 C103 1.384 1_565 S
C102 C104 1.384 . S
C102 H124 0.931 . S
C103 C102 1.384 1_545 S
C103 C106 1.382 . S
C104 C102 1.384 . S
C104 C105 1.381 1_565 S
C104 H125 0.930 . S
C105 C104 1.381 1_545 S
C105 C107 1.381 . S
C105 C108 1.487 . S
C106 C103 1.382 . S
C106 C107 1.387 . S
C106 H126 0.930 . S
C107 C105 1.381 . S
C107 C106 1.387 . S
C107 H127 0.931 . S
C108 C105 1.487 . S
C108 C115 1.399 . S
C108 N133 1.343 . S
C109 C110 1.384 . S
C109 C111 1.384 . S
C109 H128 0.931 . S
C110 C109 1.384 . S
C110 C113 1.382 1_545 S
C111 C109 1.384 . S
C111 C112 1.381 . S
C111 H129 0.930 . S
C112 C111 1.381 . S
C112 C114 1.381 1_545 S
C112 C115 1.487 . S
C113 C110 1.382 1_565 S
C113 C114 1.387 . S
C113 H130 0.930 . S
C114 C112 1.381 1_565 S
C114 C113 1.387 . S
C114 H131 0.931 . S
C115 C108 1.399 . S
C115 C112 1.487 . S
C115 N132 1.343 . S
H116 C88 0.931 . S
H117 C90 0.930 . S
H118 C92 0.930 . S
H119 C93 0.931 . S
H120 C95 0.931 . S
H121 C97 0.930 . S
H122 C99 0.930 . S
H123 C100 0.931 . S
H124 C102 0.931 . S
H125 C104 0.930 . S
H126 C106 0.930 . S
H127 C107 0.931 . S
H128 C109 0.931 . S
H129 C111 0.930 . S
H130 C113 0.930 . S
H131 C114 0.931 . S
N132 C94 1.343 . S
N132 C115 1.343 . S
N133 C101 1.343 . S
N133 C108 1.343 . S
C134 C135 1.384 . S
C134 C136 1.384 . S
C134 H162 0.931 . S
C135 C134 1.384 . S
C135 C138 1.382 . S
C136 C134 1.384 . S
C136 C137 1.381 . S
C136 H163 0.930 . S
C137 C136 1.381 . S
C137 C139 1.381 . S
C137 C140 1.487 . S
C138 C135 1.382 . S
C138 C139 1.387 . S
C138 H164 0.930 . S
C139 C137 1.381 . S
C139 C138 1.387 . S
C139 H165 0.931 . S
C140 C137 1.487 . S
C140 C147 1.399 . S
C140 N178 1.343 . S
C141 C142 1.384 . S
C141 C143 1.384 . S
C141 H166 0.931 . S
C142 C141 1.384 . S
C142 C145 1.382 . S
C143 C141 1.384 . S
C143 C144 1.381 . S
C143 H167 0.930 . S
C144 C143 1.381 . S
C144 C146 1.381 . S
C144 C147 1.487 . S
C145 C142 1.382 . S
C145 C146 1.387 . S
C145 H168 0.930 . S
C146 C144 1.381 . S
C146 C145 1.387 . S
C146 H169 0.931 . S
C147 C140 1.399 . S
C147 C144 1.487 . S
C147 N179 1.343 . S
C148 C149 1.384 . S
C148 C150 1.384 . S
C148 H170 0.931 . S
C149 C148 1.384 . S
C149 C152 1.382 . S
C150 C148 1.384 . S
C150 C151 1.381 . S
C150 H171 0.930 . S
C151 C150 1.381 . S
C151 C153 1.381 . S
C151 C154 1.487 . S
C152 C149 1.382 . S
C152 C153 1.387 . S
C152 H172 0.930 . S
C153 C151 1.381 . S
C153 C152 1.387 . S
C153 H173 0.931 . S
C154 C151 1.487 . S
C154 C161 1.399 . S
C154 N179 1.343 . S
C155 C156 1.384 . S
C155 C157 1.384 . S
C155 H174 0.931 . S
C156 C155 1.384 . S
C156 C159 1.382 . S
C157 C155 1.384 . S
C157 C158 1.381 . S
C157 H175 0.930 . S
C158 C157 1.381 . S
C158 C160 1.381 . S
C158 C161 1.487 . S
C159 C156 1.382 . S
C159 C160 1.387 . S
C159 H176 0.930 . S
C160 C158 1.381 . S
C160 C159 1.387 . S
C160 H177 0.931 . S
C161 C154 1.399 . S
C161 C158 1.487 . S
C161 N178 1.343 . S
H162 C134 0.931 . S
H163 C136 0.930 . S
H164 C138 0.930 . S
H165 C139 0.931 . S
H166 C141 0.931 . S
H167 C143 0.930 . S
H168 C145 0.930 . S
H169 C146 0.931 . S
H170 C148 0.931 . S
H171 C150 0.930 . S
H172 C152 0.930 . S
H173 C153 0.931 . S
H174 C155 0.931 . S
H175 C157 0.930 . S
H176 C159 0.930 . S
H177 C160 0.931 . S
N178 C140 1.343 . S
N178 C161 1.343 . S
N179 C147 1.343 . S
N179 C154 1.343 . S
C180 C181 1.349 . S
C180 C182 1.327 . S
C180 H205 0.950 . S
C181 C180 1.349 . S
C181 C197 1.349 1_455 S
C182 C180 1.327 . S
C182 C201 1.429 . S
C182 H206 0.950 . S
C183 C200 1.574 . S
C183 C202 1.368 1_655 S
C183 H207 0.949 . S
H184 C188 0.949 . S
C185 C186 1.349 1_655 S
C185 C187 1.327 . S
C185 H208 0.950 . S
C186 C185 1.349 1_455 S
C186 C198 1.349 . S
C187 C185 1.327 . S
C187 C203 1.429 1_655 S
C187 H209 0.950 . S
C188 H184 0.949 . S
C188 C196 1.574 . S
C188 C204 1.368 . S
H189 C197 0.950 . S
H190 C195 0.950 . S
H191 C196 0.949 . S
H192 C198 0.950 . S
H193 C199 0.950 . S
H194 C200 0.949 . S
C195 H190 0.950 . S
C195 C197 1.327 . S
C195 C201 1.429 1_655 S
C196 C188 1.574 . S
C196 H191 0.949 . S
C196 C202 1.368 . S
C197 C181 1.349 1_655 S
C197 H189 0.950 . S
C197 C195 1.327 . S
C198 C186 1.349 . S
C198 H192 0.950 . S
C198 C199 1.327 . S
C199 H193 0.950 . S
C199 C198 1.327 . S
C199 C203 1.429 . S
C200 C183 1.574 . S
C200 H194 0.949 . S
C200 C204 1.368 1_655 S
C201 C182 1.429 . S
C201 C195 1.429 1_455 S
C201 C202 1.523 . S
C202 C183 1.368 1_455 S
C202 C196 1.368 . S
C202 C201 1.523 . S
C203 C187 1.429 1_455 S
C203 C199 1.429 . S
C203 C204 1.523 . S
C204 C188 1.368 . S
C204 C200 1.368 1_455 S
C204 C203 1.523 . S
H205 C180 0.950 . S
H206 C182 0.950 . S
H207 C183 0.949 . S
H208 C185 0.950 . S
H209 C187 0.950 . S
C210 C211 1.349 . S
C210 C212 1.327 . S
C210 H235 0.950 . S
C211 C210 1.349 . S
C211 C227 1.349 1_545 S
C212 C210 1.327 . S
C212 C231 1.429 . S
C212 H236 0.950 . S
C213 C230 1.574 . S
C213 C232 1.368 1_565 S
C213 H237 0.949 . S
H214 C218 0.949 . S
C215 C216 1.349 1_565 S
C215 C217 1.327 . S
C215 H238 0.950 . S
C216 C215 1.349 1_545 S
C216 C228 1.349 . S
C217 C215 1.327 . S
C217 C233 1.429 1_565 S
C217 H239 0.950 . S
C218 H214 0.949 . S
C218 C226 1.574 . S
C218 C234 1.368 . S
H219 C227 0.950 . S
H220 C225 0.950 . S
H221 C226 0.949 . S
H222 C228 0.950 . S
H223 C229 0.950 . S
H224 C230 0.949 . S
C225 H220 0.950 . S
C225 C227 1.327 . S
C225 C231 1.429 1_565 S
C226 C218 1.574 . S
C226 H221 0.949 . S
C226 C232 1.368 . S
C227 C211 1.349 1_565 S
C227 H219 0.950 . S
C227 C225 1.327 . S
C228 C216 1.349 . S
C228 H222 0.950 . S
C228 C229 1.327 . S
C229 H223 0.950 . S
C229 C228 1.327 . S
C229 C233 1.429 . S
C230 C213 1.574 . S
C230 H224 0.949 . S
C230 C234 1.368 1_565 S
C231 C212 1.429 . S
C231 C225 1.429 1_545 S
C231 C232 1.523 . S
C232 C213 1.368 1_545 S
C232 C226 1.368 . S
C232 C231 1.523 . S
C233 C217 1.429 1_545 S
C233 C229 1.429 . S
C233 C234 1.523 . S
C234 C218 1.368 . S
C234 C230 1.368 1_545 S
C234 C233 1.523 . S
H235 C210 0.950 . S
H236 C212 0.950 . S
H237 C213 0.949 . S
H238 C215 0.950 . S
H239 C217 0.950 . S
C240 C241 1.349 . S
C240 C242 1.327 . S
C240 H265 0.950 . S
C241 C240 1.349 . S
C241 C257 1.349 . S
C242 C240 1.327 . S
C242 C261 1.429 . S
C242 H266 0.950 . S
C243 C260 1.574 . S
C243 C262 1.368 . S
C243 H267 0.949 . S
H244 C248 0.949 . S
C245 C246 1.349 . S
C245 C247 1.327 . S
C245 H268 0.950 . S
C246 C245 1.349 . S
C246 C258 1.349 . S
C247 C245 1.327 . S
C247 C263 1.429 . S
C247 H269 0.950 . S
C248 H244 0.949 . S
C248 C256 1.574 . S
C248 C264 1.368 . S
H249 C257 0.950 . S
H250 C255 0.950 . S
H251 C256 0.949 . S
H252 C258 0.950 . S
H253 C259 0.950 . S
H254 C260 0.949 . S
C255 H250 0.950 . S
C255 C257 1.327 . S
C255 C261 1.429 . S
C256 C248 1.574 . S
C256 H251 0.949 . S
C256 C262 1.368 . S
C257 C241 1.349 . S
C257 H249 0.950 . S
C257 C255 1.327 . S
C258 C246 1.349 . S
C258 H252 0.950 . S
C258 C259 1.327 . S
C259 H253 0.950 . S
C259 C258 1.327 . S
C259 C263 1.429 . S
C260 C243 1.574 . S
C260 H254 0.949 . S
C260 C264 1.368 . S
C261 C242 1.429 . S
C261 C255 1.429 . S
C261 C262 1.523 . S
C262 C243 1.368 . S
C262 C256 1.368 . S
C262 C261 1.523 . S
C263 C247 1.429 . S
C263 C259 1.429 . S
C263 C264 1.523 . S
C264 C248 1.368 . S
C264 C260 1.368 . S
C264 C263 1.523 . S
H265 C240 0.950 . S
H266 C242 0.950 . S
H267 C243 0.949 . S
H268 C245 0.950 . S
H269 C247 0.950 . S
C270 C271 1.349 . S
C270 C272 1.327 . S
C270 H295 0.950 . S
C271 C270 1.349 . S
C271 C287 1.349 1_455 S
C272 C270 1.327 . S
C272 C291 1.429 . S
C272 H296 0.950 . S
C273 C290 1.574 . S
C273 C292 1.368 1_655 S
C273 H297 0.949 . S
H274 C278 0.949 . S
C275 C276 1.349 1_655 S
C275 C277 1.327 . S
C275 H298 0.950 . S
C276 C275 1.349 1_455 S
C276 C288 1.349 . S
C277 C275 1.327 . S
C277 C293 1.429 1_655 S
C277 H299 0.950 . S
C278 H274 0.949 . S
C278 C286 1.574 . S
C278 C294 1.368 . S
H279 C287 0.950 . S
H280 C285 0.950 . S
H281 C286 0.949 . S
H282 C288 0.950 . S
H283 C289 0.950 . S
H284 C290 0.949 . S
C285 H280 0.950 . S
C285 C287 1.327 . S
C285 C291 1.429 1_655 S
C286 C278 1.574 . S
C286 H281 0.949 . S
C286 C292 1.368 . S
C287 C271 1.349 1_655 S
C287 H279 0.950 . S
C287 C285 1.327 . S
C288 C276 1.349 . S
C288 H282 0.950 . S
C288 C289 1.327 . S
C289 H283 0.950 . S
C289 C288 1.327 . S
C289 C293 1.429 . S
C290 C273 1.574 . S
C290 H284 0.949 . S
C290 C294 1.368 1_655 S
C291 C272 1.429 . S
C291 C285 1.429 1_455 S
C291 C292 1.523 . S
C292 C273 1.368 1_455 S
C292 C286 1.368 . S
C292 C291 1.523 . S
C293 C277 1.429 1_455 S
C293 C289 1.429 . S
C293 C294 1.523 . S
C294 C278 1.368 . S
C294 C290 1.368 1_455 S
C294 C293 1.523 . S
H295 C270 0.950 . S
H296 C272 0.950 . S
H297 C273 0.949 . S
H298 C275 0.950 . S
H299 C277 0.950 . S
C300 C301 1.349 . S
C300 C302 1.327 . S
C300 H325 0.950 1_545 S
C301 C300 1.349 . S
C301 C317 1.349 . S
C302 C300 1.327 . S
C302 C321 1.429 . S
C302 H326 0.950 1_545 S
C303 C320 1.574 . S
C303 C322 1.368 . S
C303 H327 0.949 . S
H304 C308 0.949 . S
C305 C306 1.349 . S
C305 C307 1.327 . S
C305 H328 0.950 . S
C306 C305 1.349 . S
C306 C318 1.349 1_545 S
C307 C305 1.327 . S
C307 C323 1.429 . S
C307 H329 0.950 . S
C308 H304 0.949 . S
C308 C316 1.564 1_565 S
C308 C324 1.368 1_565 S
H309 C317 0.950 . S
H310 C315 0.950 . S
H311 C316 0.939 1_565 S
H312 C318 0.950 . S
H313 C319 0.950 . S
H314 C320 0.949 . S
C315 H310 0.950 . S
C315 C317 1.327 . S
C315 C321 1.429 . S
C316 C308 1.564 1_545 S
C316 H311 0.939 1_545 S
C316 C322 1.390 . S
C317 C301 1.349 . S
C317 H309 0.950 . S
C317 C315 1.327 . S
C318 C306 1.349 1_565 S
C318 H312 0.950 . S
C318 C319 1.327 . S
C319 H313 0.950 . S
C319 C318 1.327 . S
C319 C323 1.429 1_565 S
C320 C303 1.574 . S
C320 H314 0.949 . S
C320 C324 1.368 . S
C321 C302 1.429 . S
C321 C315 1.429 . S
C321 C322 1.523 . S
C322 C303 1.368 . S
C322 C316 1.390 . S
C322 C321 1.523 . S
C323 C307 1.429 . S
C323 C319 1.429 1_545 S
C323 C324 1.523 . S
C324 C308 1.368 1_545 S
C324 C320 1.368 . S
C324 C323 1.523 . S
H325 C300 0.950 1_565 S
H326 C302 0.950 1_565 S
H327 C303 0.949 . S
H328 C305 0.950 . S
H329 C307 0.950 . S
C330 C331 1.349 . S
C330 C332 1.327 . S
C330 H355 0.950 . S
C331 C330 1.349 . S
C331 C347 1.349 . S
C332 C330 1.327 . S
C332 C351 1.429 . S
C332 H356 0.950 . S
C333 C350 1.574 . S
C333 C352 1.368 . S
C333 H357 0.949 . S
H334 C338 0.949 . S
C335 C336 1.349 . S
C335 C337 1.327 . S
C335 H358 0.950 . S
C336 C335 1.349 . S
C336 C348 1.349 . S
C337 C335 1.327 . S
C337 C353 1.429 . S
C337 H359 0.950 . S
C338 H334 0.949 . S
C338 C346 1.574 . S
C338 C354 1.368 . S
H339 C347 0.950 . S
H340 C345 0.950 . S
H341 C346 0.949 . S
H342 C348 0.950 . S
H343 C349 0.950 . S
H344 C350 0.949 . S
C345 H340 0.950 . S
C345 C347 1.327 . S
C345 C351 1.429 . S
C346 C338 1.574 . S
C346 H341 0.949 . S
C346 C352 1.368 . S
C347 C331 1.349 . S
C347 H339 0.950 . S
C347 C345 1.327 . S
C348 C336 1.349 . S
C348 H342 0.950 . S
C348 C349 1.327 . S
C349 H343 0.950 . S
C349 C348 1.327 . S
C349 C353 1.429 . S
C350 C333 1.574 . S
C350 H344 0.949 . S
C350 C354 1.368 . S
C351 C332 1.429 . S
C351 C345 1.429 . S
C351 C352 1.523 . S
C352 C333 1.368 . S
C352 C346 1.368 . S
C352 C351 1.523 . S
C353 C337 1.429 . S
C353 C349 1.429 . S
C353 C354 1.523 . S
C354 C338 1.368 . S
C354 C350 1.368 . S
C354 C353 1.523 . S
H355 C330 0.950 . S
H356 C332 0.950 . S
H357 C333 0.949 . S
H358 C335 0.950 . S
H359 C337 0.950 . S
C360 C361 1.349 . S
C360 C362 1.327 . S
C360 H385 0.950 . S
C361 C360 1.349 . S
C361 C377 1.349 1_545 S
C362 C360 1.327 . S
C362 C381 1.429 . S
C362 H386 0.950 . S
C363 C380 1.574 . S
C363 C382 1.368 1_565 S
C363 H387 0.949 . S
H364 C368 0.949 . S
C365 C366 1.349 1_565 S
C365 C367 1.327 . S
C365 H388 0.950 . S
C366 C365 1.349 1_545 S
C366 C378 1.349 . S
C367 C365 1.327 . S
C367 C383 1.429 1_565 S
C367 H389 0.950 . S
C368 H364 0.949 . S
C368 C376 1.574 . S
C368 C384 1.368 . S
H369 C377 0.950 . S
H370 C375 0.950 . S
H371 C376 0.949 . S
H372 C378 0.950 . S
H373 C379 0.950 . S
H374 C380 0.949 . S
C375 H370 0.950 . S
C375 C377 1.327 . S
C375 C381 1.429 1_565 S
C376 C368 1.574 . S
C376 H371 0.949 . S
C376 C382 1.368 . S
C377 C361 1.349 1_565 S
C377 H369 0.950 . S
C377 C375 1.327 . S
C378 C366 1.349 . S
C378 H372 0.950 . S
C378 C379 1.327 . S
C379 H373 0.950 . S
C379 C378 1.327 . S
C379 C383 1.429 . S
C380 C363 1.574 . S
C380 H374 0.949 . S
C380 C384 1.368 1_565 S
C381 C362 1.429 . S
C381 C375 1.429 1_545 S
C381 C382 1.523 . S
C382 C363 1.368 1_545 S
C382 C376 1.368 . S
C382 C381 1.523 . S
C383 C367 1.429 1_545 S
C383 C379 1.429 . S
C383 C384 1.523 . S
C384 C368 1.368 . S
C384 C380 1.368 1_545 S
C384 C383 1.523 . S
H385 C360 0.950 . S
H386 C362 0.950 . S
H387 C363 0.949 . S
H388 C365 0.950 . S
H389 C367 0.950 . S
C390 C391 1.349 . S
C390 C392 1.327 . S
C390 H415 0.950 . S
C391 C390 1.349 . S
C391 C407 1.349 . S
C392 C390 1.327 . S
C392 C411 1.429 . S
C392 H416 0.947 1_554 S
C393 C410 1.574 . S
C393 C412 1.368 . S
C393 H417 0.949 1_556 S
H394 C398 0.949 . S
C395 C396 1.349 . S
C395 C397 1.327 . S
C395 H418 0.950 . S
C396 C395 1.349 . S
C396 C408 1.349 . S
C397 C395 1.327 . S
C397 C413 1.429 . S
C397 H419 0.950 . S
C398 H394 0.949 . S
C398 C406 1.574 . S
C398 C414 1.368 . S
H399 C407 0.950 . S
H400 C405 0.950 . S
H401 C406 0.949 . S
H402 C408 0.950 . S
H403 C409 0.950 . S
H404 C410 0.949 . S
C405 H400 0.950 . S
C405 C407 1.327 . S
C405 C411 1.429 . S
C406 C398 1.574 . S
C406 H401 0.949 . S
C406 C412 1.368 . S
C407 C391 1.349 . S
C407 H399 0.950 . S
C407 C405 1.327 . S
C408 C396 1.349 . S
C408 H402 0.950 . S
C408 C409 1.327 . S
C409 H403 0.950 . S
C409 C408 1.327 . S
C409 C413 1.429 . S
C410 C393 1.574 . S
C410 H404 0.949 . S
C410 C414 1.368 . S
C411 C392 1.429 . S
C411 C405 1.429 . S
C411 C412 1.523 1_554 S
C412 C393 1.368 . S
C412 C406 1.368 . S
C412 C411 1.523 1_556 S
C413 C397 1.429 . S
C413 C409 1.429 . S
C413 C414 1.523 . S
C414 C398 1.368 . S
C414 C410 1.368 . S
C414 C413 1.523 . S
H415 C390 0.950 . S
H416 C392 0.947 1_556 S
H417 C393 0.949 1_554 S
H418 C395 0.950 . S
H419 C397 0.950 . S
C420 C421 1.349 . S
C420 C422 1.327 . S
C420 H445 0.950 . S
C421 C420 1.349 . S
C421 C437 1.349 . S
C422 C420 1.327 . S
C422 C441 1.429 . S
C422 H446 0.950 . S
C423 C440 1.574 . S
C423 C442 1.368 . S
C423 H447 0.949 . S
H424 C428 0.949 . S
C425 C426 1.349 . S
C425 C427 1.327 . S
C425 H448 0.950 . S
C426 C425 1.349 . S
C426 C438 1.349 . S
C427 C425 1.327 . S
C427 C443 1.429 . S
C427 H449 0.950 . S
C428 H424 0.949 . S
C428 C436 1.574 . S
C428 C444 1.368 . S
H429 C437 0.950 . S
H430 C435 0.950 . S
H431 C436 0.949 . S
H432 C438 0.950 . S
H433 C439 0.950 . S
H434 C440 0.949 . S
C435 H430 0.950 . S
C435 C437 1.327 . S
C435 C441 1.429 . S
C436 C428 1.574 . S
C436 H431 0.949 . S
C436 C442 1.368 . S
C437 C421 1.349 . S
C437 H429 0.950 . S
C437 C435 1.327 . S
C438 C426 1.349 . S
C438 H432 0.950 . S
C438 C439 1.327 . S
C439 H433 0.950 . S
C439 C438 1.327 . S
C439 C443 1.429 . S
C440 C423 1.574 . S
C440 H434 0.949 . S
C440 C444 1.368 . S
C441 C422 1.429 . S
C441 C435 1.429 . S
C441 C442 1.523 . S
C442 C423 1.368 . S
C442 C436 1.368 . S
C442 C441 1.523 . S
C443 C427 1.429 . S
C443 C439 1.429 . S
C443 C444 1.523 . S
C444 C428 1.368 . S
C444 C440 1.368 . S
C444 C443 1.523 . S
H445 C420 0.950 . S
H446 C422 0.950 . S
H447 C423 0.949 . S
H448 C425 0.950 . S
H449 C427 0.950 . S
C450 C451 1.349 . S
C450 C452 1.327 . S
C450 H475 0.950 . S
C451 C450 1.349 . S
C451 C467 1.349 1_545 S
C452 C450 1.327 . S
C452 C471 1.429 . S
C452 H476 0.950 . S
C453 C470 1.574 . S
C453 C472 1.368 1_565 S
C453 H477 0.949 . S
H454 C458 0.949 . S
C455 C456 1.349 1_565 S
C455 C457 1.327 . S
C455 H478 0.950 . S
C456 C455 1.349 1_545 S
C456 C468 1.349 . S
C457 C455 1.327 . S
C457 C473 1.429 1_565 S
C457 H479 0.950 . S
C458 H454 0.949 . S
C458 C466 1.574 . S
C458 C474 1.368 . S
H459 C467 0.950 . S
H460 C465 0.950 . S
H461 C466 0.949 . S
H462 C468 0.950 . S
H463 C469 0.950 . S
H464 C470 0.949 . S
C465 H460 0.950 . S
C465 C467 1.327 . S
C465 C471 1.429 1_565 S
C466 C458 1.574 . S
C466 H461 0.949 . S
C466 C472 1.368 . S
C467 C451 1.349 1_565 S
C467 H459 0.950 . S
C467 C465 1.327 . S
C468 C456 1.349 . S
C468 H462 0.950 . S
C468 C469 1.327 . S
C469 H463 0.950 . S
C469 C468 1.327 . S
C469 C473 1.429 . S
C470 C453 1.574 . S
C470 H464 0.949 . S
C470 C474 1.368 1_565 S
C471 C452 1.429 . S
C471 C465 1.429 1_545 S
C471 C472 1.523 . S
C472 C453 1.368 1_545 S
C472 C466 1.368 . S
C472 C471 1.523 . S
C473 C457 1.429 1_545 S
C473 C469 1.429 . S
C473 C474 1.523 . S
C474 C458 1.368 . S
C474 C470 1.368 1_545 S
C474 C473 1.523 . S
H475 C450 0.950 . S
H476 C452 0.950 . S
H477 C453 0.949 . S
H478 C455 0.950 . S
H479 C457 0.950 . S
C480 C481 1.349 . S
C480 C482 1.327 . S
C480 H505 0.950 . S
C481 C480 1.349 . S
C481 C497 1.349 . S
C482 C480 1.327 . S
C482 C501 1.429 . S
C482 H506 0.950 . S
C483 C500 1.574 . S
C483 C502 1.368 . S
C483 H507 0.949 . S
H484 C488 0.949 . S
C485 C486 1.349 . S
C485 C487 1.327 . S
C485 H508 0.950 . S
C486 C485 1.349 . S
C486 C498 1.349 . S
C487 C485 1.327 . S
C487 C503 1.429 . S
C487 H509 0.950 . S
C488 H484 0.949 . S
C488 C496 1.574 1_556 S
C488 C504 1.368 . S
H489 C497 0.950 . S
H490 C495 0.903 1_556 S
H491 C496 0.949 . S
H492 C498 0.950 . S
H493 C499 0.950 . S
H494 C500 0.949 . S
C495 H490 0.903 1_554 S
C495 C497 1.358 . S
C495 C501 1.444 . S
C496 C488 1.574 1_554 S
C496 H491 0.949 . S
C496 C502 1.368 1_554 S
C497 C481 1.349 . S
C497 H489 0.950 . S
C497 C495 1.358 . S
C498 C486 1.349 . S
C498 H492 0.950 . S
C498 C499 1.327 . S
C499 H493 0.950 . S
C499 C498 1.327 . S
C499 C503 1.429 . S
C500 C483 1.574 . S
C500 H494 0.949 . S
C500 C504 1.368 . S
C501 C482 1.429 . S
C501 C495 1.444 . S
C501 C502 1.523 1_554 S
C502 C483 1.368 . S
C502 C496 1.368 1_556 S
C502 C501 1.523 1_556 S
C503 C487 1.429 . S
C503 C499 1.429 . S
C503 C504 1.523 . S
C504 C488 1.368 . S
C504 C500 1.368 . S
C504 C503 1.523 . S
H505 C480 0.950 . S
H506 C482 0.950 . S
H507 C483 0.949 . S
H508 C485 0.950 . S
H509 C487 0.950 . S
C510 C511 1.349 1_655 S
C510 C512 1.327 . S
C510 H535 0.950 . S
C511 C510 1.349 1_455 S
C511 C527 1.349 . S
C512 C510 1.327 . S
C512 C531 1.429 1_655 S
C512 H536 0.950 . S
C513 C530 1.574 . S
C513 C532 1.368 . S
C513 H537 0.949 . S
H514 C518 0.949 . S
C515 C516 1.349 . S
C515 C517 1.327 . S
C515 H538 0.950 . S
C516 C515 1.349 . S
C516 C528 1.349 1_455 S
C517 C515 1.327 . S
C517 C533 1.429 . S
C517 H539 0.950 . S
C518 H514 0.949 . S
C518 C526 1.574 . S
C518 C534 1.368 1_655 S
H519 C527 0.950 . S
H520 C525 0.950 . S
H521 C526 0.949 . S
H522 C528 0.950 . S
H523 C529 0.950 . S
H524 C530 0.949 . S
C525 H520 0.950 . S
C525 C527 1.327 . S
C525 C531 1.429 . S
C526 C518 1.574 . S
C526 H521 0.949 . S
C526 C532 1.368 1_655 S
C527 C511 1.349 . S
C527 H519 0.950 . S
C527 C525 1.327 . S
C528 C516 1.349 1_655 S
C528 H522 0.950 . S
C528 C529 1.327 . S
C529 H523 0.950 . S
C529 C528 1.327 . S
C529 C533 1.429 1_655 S
C530 C513 1.574 . S
C530 H524 0.949 . S
C530 C534 1.368 . S
C531 C512 1.429 1_455 S
C531 C525 1.429 . S
C531 C532 1.523 . S
C532 C513 1.368 . S
C532 C526 1.368 1_455 S
C532 C531 1.523 . S
C533 C517 1.429 . S
C533 C529 1.429 1_455 S
C533 C534 1.523 . S
C534 C518 1.368 1_455 S
C534 C530 1.368 . S
C534 C533 1.523 . S
H535 C510 0.950 . S
H536 C512 0.950 . S
H537 C513 0.949 . S
H538 C515 0.950 . S
H539 C517 0.950 . S
C186 C50 1.494 . S
C181 C3 1.491 . S
C211 C21 1.511 . S
C216 C89 1.532 . S
C241 C37 1.489 . S
C246 C156 1.510 . S
C271 C8 1.499 . S
C276 C57 1.499 . S
C306 C110 1.516 . S
C301 C23 1.496 . S
C331 C35 1.487 . S
C336 C135 1.511 . S
C366 C96 1.483 . S
C361 C31 1.480 . S
C391 C7 1.488 . S
C396 C149 1.509 . S
C426 C64 1.495 . S
C421 C17 1.492 . S
C456 C103 1.472 . S
C451 C36 1.473 . S
C486 C142 1.509 . S
C481 C9 1.489 . S
C511 C22 1.500 . S
C516 C43 1.498 . S
