# Generated by pormake.
# Topology ssa, (4,4)-cn, num edge types: 1
# Building blocks:
#     Node 0, Type 0, BuildingBlock: ESEHIV_clean_sbu_0, # of connection points: 4
#     Node 1, Type 0, BuildingBlock: ESEHIV_clean_sbu_0, # of connection points: 4
#     Node 2, Type 0, BuildingBlock: ESEHIV_clean_sbu_0, # of connection points: 4
#     Node 3, Type 0, BuildingBlock: ESEHIV_clean_sbu_0, # of connection points: 4
#     Node 4, Type 0, BuildingBlock: ESEHIV_clean_sbu_0, # of connection points: 4
#     Node 5, Type 0, BuildingBlock: ESEHIV_clean_sbu_0, # of connection points: 4
#     Node 6, Type 1, BuildingBlock: GIZVER_clean_linker_0, # of connection points: 4
#     Node 7, Type 1, BuildingBlock: GIZVER_clean_linker_0, # of connection points: 4
#     Node 8, Type 1, BuildingBlock: GIZVER_clean_linker_0, # of connection points: 4
#     Node 9, Type 1, BuildingBlock: GIZVER_clean_linker_0, # of connection points: 4
#     Node 10, Type 1, BuildingBlock: GIZVER_clean_linker_0, # of connection points: 4
#     Node 11, Type 1, BuildingBlock: GIZVER_clean_linker_0, # of connection points: 4
#     Edge 12, Type (0, 1), BuildingBlock: EZIPEK_clean_linker_0, # of connection points: 2
#     Edge 13, Type (0, 1), BuildingBlock: EZIPEK_clean_linker_0, # of connection points: 2
#     Edge 14, Type (0, 1), BuildingBlock: EZIPEK_clean_linker_0, # of connection points: 2
#     Edge 15, Type (0, 1), BuildingBlock: EZIPEK_clean_linker_0, # of connection points: 2
#     Edge 16, Type (0, 1), BuildingBlock: EZIPEK_clean_linker_0, # of connection points: 2
#     Edge 17, Type (0, 1), BuildingBlock: EZIPEK_clean_linker_0, # of connection points: 2
#     Edge 18, Type (0, 1), BuildingBlock: EZIPEK_clean_linker_0, # of connection points: 2
#     Edge 19, Type (0, 1), BuildingBlock: EZIPEK_clean_linker_0, # of connection points: 2
#     Edge 20, Type (0, 1), BuildingBlock: EZIPEK_clean_linker_0, # of connection points: 2
#     Edge 21, Type (0, 1), BuildingBlock: EZIPEK_clean_linker_0, # of connection points: 2
#     Edge 22, Type (0, 1), BuildingBlock: EZIPEK_clean_linker_0, # of connection points: 2
#     Edge 23, Type (0, 1), BuildingBlock: EZIPEK_clean_linker_0, # of connection points: 2
#     Edge 24, Type (0, 1), BuildingBlock: EZIPEK_clean_linker_0, # of connection points: 2
#     Edge 25, Type (0, 1), BuildingBlock: EZIPEK_clean_linker_0, # of connection points: 2
#     Edge 26, Type (0, 1), BuildingBlock: EZIPEK_clean_linker_0, # of connection points: 2
#     Edge 27, Type (0, 1), BuildingBlock: EZIPEK_clean_linker_0, # of connection points: 2
#     Edge 28, Type (0, 1), BuildingBlock: EZIPEK_clean_linker_0, # of connection points: 2
#     Edge 29, Type (0, 1), BuildingBlock: EZIPEK_clean_linker_0, # of connection points: 2
#     Edge 30, Type (0, 1), BuildingBlock: EZIPEK_clean_linker_0, # of connection points: 2
#     Edge 31, Type (0, 1), BuildingBlock: EZIPEK_clean_linker_0, # of connection points: 2
#     Edge 32, Type (0, 1), BuildingBlock: EZIPEK_clean_linker_0, # of connection points: 2
#     Edge 33, Type (0, 1), BuildingBlock: EZIPEK_clean_linker_0, # of connection points: 2
#     Edge 34, Type (0, 1), BuildingBlock: EZIPEK_clean_linker_0, # of connection points: 2
#     Edge 35, Type (0, 1), BuildingBlock: EZIPEK_clean_linker_0, # of connection points: 2
# Relax obj value: 0.007
# Max RMSD: 0.108
# Mean RMSD: 0.064
data_MOF--net-ssa--node1-ESEHIV_clean_sbu_0--node2-GIZVER_clean_linker_0--edge1-EZIPEK_clean_linker_0
_symmetry_space_group_name_H-M    P1
_symmetry_Int_Tables_number       1
_symmetry_cell_setting            triclinic
loop_
_symmetry_equiv_pos_as_xyz
'x, y, z'
_cell_length_a     39.278876
_cell_length_b     42.804949
_cell_length_c     23.08877
_cell_angle_alpha  87.093433
_cell_angle_beta   91.363602
_cell_angle_gamma 122.21187
loop_
_atom_site_label
_atom_site_type_symbol
_atom_site_fract_x
_atom_site_fract_y
_atom_site_fract_z
_atom_type_partial_charge
Cu0 Cu 0.03555 0.5553 0.04203 0.0
N1 N 0.99755 0.5071 0.06633 0.0
N2 N 0.94975 0.44806 0.05651 0.0
C3 C 0.97614 0.48035 0.02903 0.0
C4 C 0.95435 0.45441 0.11361 0.0
C5 C 0.98428 0.49119 0.11962 0.0
O6 O 1.01325 0.5634 0.97035 0.0
C7 C 0.09756 0.54272 0.00365 0.0
O8 O 0.07559 0.52606 0.95833 0.0
H9 H 0.97923 0.48466 0.98234 0.0
H10 H 0.99504 0.50543 0.15969 0.0
N11 N 0.04328 0.58829 0.09825 0.0
N12 N 0.079 0.62999 0.16434 0.0
C13 C 0.07262 0.59989 0.13811 0.0
C14 C 1.02958 0.61111 0.10064 0.0
C15 C 0.05206 0.63729 0.14085 0.0
C16 C 1.01645 0.5933 0.95129 0.0
O17 O 0.04309 0.62477 0.97383 0.0
H18 H 0.09101 0.58813 0.14477 0.0
H19 H 1.00662 0.61026 0.07277 0.0
O20 O 0.08658 0.55832 0.03741 0.0
H21 H 0.93684 0.43424 0.14797 0.0
H22 H 0.04988 0.66065 0.15051 0.0
Cu23 Cu 0.5783 0.0322 0.51563 0.0
N24 N 0.60244 0.01841 0.46186 0.0
N25 N 0.60852 0.98136 0.40375 0.0
C26 C 0.58946 0.98326 0.45001 0.0
C27 C 0.63526 0.01674 0.38646 0.0
C28 C 0.63165 0.03957 0.42268 0.0
O29 O 0.52716 0.98785 0.53776 0.0
C30 C 0.6412 0.08706 0.57998 0.0
O31 O 0.65148 0.10489 0.52921 0.0
H32 H 0.56498 0.95941 0.47268 0.0
H33 H 0.64822 0.06942 0.41933 0.0
N34 N 0.56822 0.06784 0.48463 0.0
N35 N 0.55405 0.11164 0.48957 0.0
C36 C 0.54931 0.08047 0.51448 0.0
C37 C 0.58451 0.09142 0.43802 0.0
C38 C 0.57591 0.11871 0.44114 0.0
C39 C 0.49921 0.97596 0.5003 0.0
O40 O 0.50549 0.99524 0.45127 0.0
H41 H 0.5346 0.06845 0.55582 0.0
H42 H 0.60368 0.09052 0.40629 0.0
O43 O 0.61188 0.05351 0.58346 0.0
H44 H 0.65502 0.02535 0.34923 0.0
H45 H 0.58706 0.14305 0.41252 0.0
Cu46 Cu 0.5135 0.49223 0.9876 0.0
N47 N 0.50006 0.44322 0.9857 0.0
N48 N 0.49182 0.39353 0.94443 0.0
C49 C 0.50182 0.42878 0.9362 0.0
C50 C 0.48314 0.38507 0.00143 0.0
C51 C 0.48857 0.41605 0.02705 0.0
O52 O 0.56351 0.52065 0.94426 0.0
C53 C 0.4358 0.47546 0.98999 0.0
O54 O 0.4327 0.44728 0.02046 0.0
H55 H 0.51032 0.44393 0.89468 0.0
H56 H 0.48439 0.41854 0.07233 0.0
N57 N 0.52407 0.51399 0.05872 0.0
N58 N 0.5344 0.55967 0.11342 0.0
C59 C 0.52349 0.54496 0.06131 0.0
C60 C 0.53578 0.50858 0.11162 0.0
C61 C 0.54234 0.53711 0.14576 0.0
C62 C 0.59273 0.51957 0.96745 0.0
O63 O 0.58733 0.50175 0.01774 0.0
H64 H 0.51659 0.55739 0.02467 0.0
H65 H 0.5402 0.48627 0.12397 0.0
O66 O 0.46849 0.49661 0.96194 0.0
H67 H 0.47365 0.35854 0.02276 0.0
H68 H 0.55253 0.54123 0.19029 0.0
Cu69 Cu 1.02098 0.49618 0.52574 0.0
N70 N 0.0326 0.47588 0.4652 0.0
N71 N 0.07209 0.47373 0.39966 0.0
C72 C 0.07008 0.48483 0.45228 0.0
C73 C 0.03423 0.45625 0.37891 0.0
C74 C 1.00981 0.45757 0.4196 0.0
O75 O 0.07025 0.54361 0.53709 0.0
C76 C 0.97104 0.4298 0.58802 0.0
O77 O 0.95818 0.41837 0.53566 0.0
H78 H 0.09601 0.50194 0.47847 0.0
H79 H 0.97835 0.44812 0.4145 0.0
N80 N 0.98149 0.5064 0.50542 0.0
N81 N 0.93688 0.52251 0.51828 0.0
C82 C 0.96234 0.51423 0.54411 0.0
C83 C 0.96785 0.5102 0.45303 0.0
C84 C 0.9401 0.52017 0.46091 0.0
C85 C 0.10144 0.54962 0.56471 0.0
O86 O 0.10011 0.52323 0.5981 0.0
H87 H 0.96768 0.51472 0.59038 0.0
H88 H 0.97816 0.50704 0.41201 0.0
O89 O 1.00059 0.46276 0.59414 0.0
H90 H 1.02547 0.4455 0.33603 0.0
H91 H 0.92448 0.52629 0.4274 0.0
Cu92 Cu 0.49956 1.0001 0.02716 0.0
N93 N 0.46964 1.01366 0.98014 0.0
N94 N 0.4558 0.04768 0.91941 0.0
C95 C 0.48442 0.0417 0.9397 0.0
C96 C 0.42172 0.02259 0.94783 0.0
C97 C 0.43037 1.00165 0.98535 0.0
O98 O 0.55172 0.0451 0.03911 0.0
C99 C 0.43996 0.94267 0.09801 0.0
O100 O 0.42693 0.92751 0.04778 0.0
H101 H 0.51572 0.05825 0.92672 0.0
H102 H 0.40977 0.9801 0.01575 0.0
N103 N 0.5076 0.96595 -0.00703 0.0
N104 N 0.51923 0.92033 -0.00433 0.0
C105 C 0.52567 0.95053 0.02126 0.0
C106 C 0.48996 0.94543 0.9465 0.0
C107 C 0.49716 0.91704 0.94805 0.0
C108 C 0.57765 0.0562 -0.0014 0.0
O109 O 0.56944 0.03564 0.95379 0.0
H110 H 0.54024 0.95933 0.0628 0.0
H111 H 0.47026 0.94876 0.91686 0.0
O112 O 0.47077 0.97551 0.09967 0.0
H113 H 0.39295 0.02016 0.9425 0.0
H114 H 0.48397 0.89389 0.91999 0.0
Cu115 Cu 0.56321 0.53119 0.43563 0.0
N116 N 0.60623 0.57221 0.39669 0.0
N117 N 0.6401 0.63262 0.3709 0.0
C118 C 0.60378 0.60073 0.37485 0.0
C119 C 0.66669 0.62387 0.39074 0.0
C120 C 0.64571 0.58654 0.40649 0.0
O121 O 0.51492 0.53159 0.41373 0.0
C122 C 0.59706 0.56417 0.54586 0.0
O123 O 0.59101 0.59107 0.53355 0.0
H124 H 0.57551 0.59919 0.36866 0.0
H125 H 0.65776 0.5721 0.43018 0.0
N126 N 0.55567 0.48543 0.42001 0.0
N127 N 0.53929 0.42832 0.44868 0.0
C128 C 0.55748 0.46379 0.46288 0.0
C129 C 0.53589 0.46274 0.37645 0.0
C130 C 0.52583 0.42732 0.39405 0.0
C131 C 0.47837 0.50556 0.42173 0.0
O132 O 0.46996 0.47691 0.45611 0.0
H133 H 0.56796 0.47286 0.5062 0.0
H134 H 0.52583 0.47046 0.33742 0.0
O135 O 0.5804 0.53587 0.51553 0.0
H136 H 0.69827 0.64362 0.39849 0.0
H137 H 0.50682 0.40237 0.37095 0.0
H138 H 0.27095 0.5561 0.10901 0.0
H139 H 0.255 0.52694 0.29261 0.0
H140 H 0.15495 0.50957 0.18839 0.0
H141 H 0.32823 0.58508 0.17505 0.0
H142 H 0.32103 0.57628 0.25105 0.0
H143 H 0.32866 0.53656 0.11346 0.0
H144 H 0.39915 0.49814 0.19759 0.0
H145 H 0.34074 0.53773 0.29979 0.0
C146 C 0.25157 0.54352 0.14671 0.0
C147 C 0.2107 0.53198 0.14218 0.0
C148 C 0.268 0.54162 0.20104 0.0
C149 C 0.24256 0.52696 0.25021 0.0
C150 C 0.20177 0.5154 0.24544 0.0
C151 C 0.18618 0.5175 0.19146 0.0
C152 C 0.31328 0.56241 0.20901 0.0
C153 C 0.3315 0.53888 0.20699 0.0
C154 C 0.33963 0.5302 0.15302 0.0
C155 C 0.36384 0.51529 0.14973 0.0
C156 C 0.37996 0.50909 0.20063 0.0
C157 C 0.37249 0.5176 0.25511 0.0
C158 C 0.3467 0.53103 0.25808 0.0
H159 H 0.74624 0.23049 0.73503 0.0
H160 H 0.73048 0.23083 0.91922 0.0
H161 H 0.67509 0.12823 0.83335 0.0
H162 H 0.75165 0.28365 0.7787 0.0
H163 H 0.7448 0.28385 0.85425 0.0
H164 H 0.81799 0.30521 0.73793 0.0
H165 H 0.91633 0.38081 0.84417 0.0
H166 H 0.80098 0.30433 0.92188 0.0
C167 C 0.73589 0.21576 0.77678 0.0
C168 C 0.71162 0.17702 0.77914 0.0
C169 C 0.74312 0.23555 0.82727 0.0
C170 C 0.72687 0.21595 0.88063 0.0
C171 C 0.70202 0.17718 0.88276 0.0
C172 C 0.69555 0.15803 0.83225 0.0
C173 C 0.75967 0.27653 0.82181 0.0
C174 C 0.80473 0.30034 0.82954 0.0
C175 C 0.83029 0.3145 0.78062 0.0
C176 C 0.87069 0.34349 0.78584 0.0
C177 C 0.88581 0.35723 0.84048 0.0
C178 C 0.86086 0.34308 0.88954 0.0
C179 C 0.82065 0.31395 0.88432 0.0
H180 H 0.51866 0.70899 0.16872 0.0
H181 H 0.60053 0.76884 0.30724 0.0
H182 H 0.60036 0.67853 0.23364 0.0
H183 H 0.50237 0.74172 0.2324 0.0
H184 H 0.52671 0.75334 0.30057 0.0
H185 H 0.53402 0.78798 0.14593 0.0
H186 H 0.57344 0.89699 0.19862 0.0
H187 H 0.56735 0.81661 0.32386 0.0
C188 C 0.54363 0.71445 0.19668 0.0
C189 C 0.55956 0.69188 0.19492 0.0
C190 C 0.55769 0.74189 0.23829 0.0
C191 C 0.5898 0.74808 0.27502 0.0
C192 C 0.60499 0.72487 0.2739 0.0
C193 C 0.58986 0.69744 0.23336 0.0
C194 C 0.53253 0.7576 0.253 0.0
C195 C 0.55124 0.79813 0.23599 0.0
C196 C 0.54693 0.80849 0.17872 0.0
C197 C 0.55468 0.8441 0.16542 0.0
C198 C 0.56889 0.86995 0.20857 0.0
C199 C 0.57399 0.86043 0.2655 0.0
C200 C 0.56555 0.82458 0.27913 0.0
H201 H 0.7721 0.59842 0.66075 0.0
H202 H 0.78277 0.59108 0.84715 0.0
H203 H 0.66823 0.55627 0.76977 0.0
H204 H 0.8371 0.6373 0.70782 0.0
H205 H 0.8408 0.63751 0.78457 0.0
H206 H 0.83228 0.58288 0.65569 0.0
H207 H 0.9179 0.55867 0.72824 0.0
H208 H 0.87308 0.60958 0.83202 0.0
C209 C 0.75849 0.58997 0.70352 0.0
C210 C 0.71711 0.57601 0.7097 0.0
C211 C 0.78277 0.59574 0.75307 0.0
C212 C 0.76458 0.58591 0.80856 0.0
C213 C 0.72312 0.5713 0.81408 0.0
C214 C 0.70001 0.56653 0.76485 0.0
C215 C 0.82827 0.61884 0.74762 0.0
C216 C 0.84818 0.59674 0.74533 0.0
C217 C 0.84901 0.58167 0.69283 0.0
C218 C 0.87432 0.56807 0.68673 0.0
C219 C 0.89767 0.56833 0.73359 0.0
C220 C 0.89726 0.58302 0.78604 0.0
C221 C 0.87216 0.59686 0.79213 0.0
H222 H 0.32914 0.79509 0.27134 0.0
H223 H 0.34152 0.80011 0.45751 0.0
H224 H 0.40341 0.89947 0.34916 0.0
H225 H 0.32012 0.74227 0.33055 0.0
H226 H 0.32893 0.74557 0.40635 0.0
H227 H 0.25357 0.74005 0.29458 0.0
H228 H 0.15606 0.6474 0.38906 0.0
H229 H 0.27267 0.70838 0.46705 0.0
C230 C 0.33969 0.81097 0.31 0.0
C231 C 0.36551 0.84961 0.30437 0.0
C232 C 0.33084 0.79269 0.36534 0.0
C233 C 0.3468 0.81382 0.41494 0.0
C234 C 0.37359 0.8523 0.409 0.0
C235 C 0.38196 0.86988 0.35388 0.0
C236 C 0.31336 0.75145 0.37056 0.0
C237 C 0.26831 0.72802 0.38036 0.0
C238 C 0.24194 0.72305 0.33424 0.0
C239 C 0.20136 0.69379 0.33712 0.0
C240 C 0.18704 0.67061 0.38723 0.0
C241 C 0.21224 0.6762 0.43446 0.0
C242 C 0.25278 0.70525 0.4314 0.0
H243 H 0.46526 0.26229 0.78281 0.0
H244 H 0.48248 0.27469 0.59746 0.0
H245 H 0.51529 0.36923 0.69621 0.0
H246 H 0.42375 0.21039 0.71952 0.0
H247 H 0.43195 0.2152 0.64349 0.0
H248 H 0.45065 0.18183 0.77946 0.0
H249 H 0.51271 0.13857 0.69687 0.0
H250 H 0.49305 0.21688 0.60314 0.0
C251 C 0.47682 0.27982 0.74362 0.0
C252 C 0.49211 0.31783 0.74606 0.0
C253 C 0.4732 0.26389 0.69009 0.0
C254 C 0.48656 0.28679 0.63914 0.0
C255 C 0.50197 0.32482 0.64118 0.0
C256 C 0.50484 0.34017 0.69476 0.0
C257 C 0.44784 0.2223 0.68588 0.0
C258 C 0.47147 0.20363 0.69191 0.0
C259 C 0.46759 0.18222 0.74277 0.0
C260 C 0.48261 0.15884 0.7446 0.0
C261 C 0.50247 0.15766 0.69614 0.0
C262 C 0.50605 0.1782 0.64506 0.0
C263 C 0.49152 0.20198 0.64337 0.0
C264 C 0.1305 0.50663 0.03125 0.0
C265 C 0.13355 0.54112 0.02057 0.0
C266 C 0.19654 0.57227 0.07586 0.0
C267 C 0.19253 0.53765 0.08833 0.0
N268 N 0.16422 0.47486 0.063 0.0
N269 N 0.17568 0.60752 0.01627 0.0
C270 C 0.16256 0.50595 0.06015 0.0
C271 C 0.16891 0.57423 0.03718 0.0
N272 N 0.0958 0.47422 0.01892 0.0
N273 N 0.22488 0.60274 0.104 0.0
H274 H 0.1561 0.60954 0.9872 0.0
H275 H 0.20235 0.63262 0.02296 0.0
H276 H 0.24626 0.60263 0.13147 0.0
H277 H 0.22585 0.62756 0.10251 0.0
H278 H 0.09031 0.44836 0.03255 0.0
H279 H 0.07105 0.47279 -0.00112 0.0
H280 H 0.14529 0.45164 0.0394 0.0
H281 H 0.18741 0.474 0.08456 0.0
C282 C 0.70017 0.12224 0.64652 0.0
C283 C 0.65914 0.10825 0.63293 0.0
C284 C 0.65607 0.14524 0.7079 0.0
C285 C 0.69561 0.15621 0.72542 0.0
N286 N 0.75441 0.15278 0.71619 0.0
N287 N 0.59593 0.10144 0.65745 0.0
C288 C 0.71754 0.14415 0.69592 0.0
C289 C 0.63645 0.11822 0.6657 0.0
N290 N 0.7225 0.11471 0.61202 0.0
N291 N 0.63757 0.16139 0.73069 0.0
H292 H 0.58015 0.08126 0.62751 0.0
H293 H 0.5772 0.10483 0.68408 0.0
H294 H 0.65088 0.18127 0.76194 0.0
H295 H 0.61075 0.15783 0.7147 0.0
H296 H 0.75356 0.12738 0.61549 0.0
H297 H 0.71017 0.09707 0.5776 0.0
H298 H 0.77014 0.14154 0.70079 0.0
H299 H 0.76834 0.16966 0.75113 0.0
C300 C 0.56856 0.6277 0.10301 0.0
C301 C 0.53777 0.59346 0.12854 0.0
C302 C 0.51085 0.62512 0.17817 0.0
C303 C 0.54403 0.65953 0.15791 0.0
N304 N 0.59822 0.69424 0.09029 0.0
N305 N 0.48032 0.5589 0.19115 0.0
C306 C 0.57066 0.66085 0.11619 0.0
C307 C 0.50876 0.59196 0.16563 0.0
N308 N 0.5972 0.62846 0.06945 0.0
N309 N 0.48071 0.62413 0.20797 0.0
H310 H 0.47616 0.53379 0.17998 0.0
H311 H 0.46283 0.55673 0.22607 0.0
H312 H 0.4817 0.64792 0.21879 0.0
H313 H 0.45294 0.5999 0.21564 0.0
H314 H 0.6222 0.65247 0.05218 0.0
H315 H 0.59738 0.60476 0.06176 0.0
H316 H 0.61761 0.69782 0.05713 0.0
H317 H 0.59939 0.71843 0.09951 0.0
C318 C 0.87719 0.50871 0.57327 0.0
C319 C 0.91462 0.53506 0.54736 0.0
C320 C 0.91484 0.58462 0.59618 0.0
C321 C 0.88137 0.55754 0.62996 0.0
N322 N 0.82871 0.49419 0.64974 0.0
N323 N 0.96936 0.59781 0.5316 0.0
C324 C 0.86141 0.51965 0.61737 0.0
C325 C 0.9331 0.57311 0.55713 0.0
N326 N 0.85735 0.47323 0.55581 0.0
N327 N 0.9295 0.62123 0.60264 0.0
H328 H 0.98278 0.59002 0.50186 0.0
H329 H 0.98707 0.62549 0.54163 0.0
H330 H 0.91686 0.6303 0.63149 0.0
H331 H 0.95182 0.64246 0.57635 0.0
H332 H 0.82852 0.45276 0.56959 0.0
H333 H 0.86898 0.46505 0.52381 0.0
H334 H 0.81523 0.46575 0.6476 0.0
H335 H 0.81572 0.50183 0.68048 0.0
C336 C 0.43964 0.90323 0.18243 0.0
C337 C 0.42086 0.91967 0.15184 0.0
C338 C 0.36318 0.88734 0.21891 0.0
C339 C 0.38108 0.86942 0.24713 0.0
N340 N 0.43203 0.85433 0.24913 0.0
N341 N 0.36261 0.92402 0.13562 0.0
C342 C 0.41798 0.87551 0.22669 0.0
C343 C 0.38186 0.91059 0.1684 0.0
N344 N 0.4786 0.91473 0.17022 0.0
N345 N 0.32896 0.88294 0.24152 0.0
H346 H 0.37625 0.94278 0.10048 0.0
H347 H 0.33249 0.91514 0.14118 0.0
H348 H 0.3136 0.86479 0.27676 0.0
H349 H 0.31692 0.89856 0.22748 0.0
H350 H 0.49543 0.90673 0.19499 0.0
H351 H 0.49541 0.93489 0.13817 0.0
H352 H 0.4562 0.8544 0.2315 0.0
H353 H 0.41733 0.83411 0.28223 0.0
C354 C 0.48959 0.38084 0.5185 0.0
C355 C 0.52746 0.39788 0.49028 0.0
C356 C 0.54837 0.36552 0.55912 0.0
C357 C 0.51011 0.34792 0.58655 0.0
N358 N 0.44155 0.33283 0.58589 0.0
N359 N 0.59063 0.40322 0.47695 0.0
C360 C 0.47982 0.35366 0.56402 0.0
C361 C 0.55609 0.389 0.50853 0.0
N362 N 0.46386 0.39225 0.50388 0.0
N363 N 0.57762 0.36072 0.58267 0.0
H364 H 0.59664 0.42062 0.44015 0.0
H365 H 0.61176 0.39588 0.48431 0.0
H366 H 0.57255 0.34306 0.61877 0.0
H367 H 0.60741 0.37551 0.56862 0.0
H368 H 0.43801 0.38444 0.5274 0.0
H369 H 0.46976 0.41171 0.47035 0.0
H370 H 0.41713 0.33282 0.56735 0.0
H371 H 0.4334 0.31314 0.61994 0.0
C372 C 0.62948 0.94063 0.3668 0.0
C373 C 0.59911 0.94851 0.37475 0.0
C374 C 0.55041 0.89122 0.32804 0.0
C375 C 0.58209 0.88694 0.31117 0.0
N376 N 0.65251 0.90824 0.31212 0.0
N377 N 0.53185 0.93419 0.35386 0.0
C378 C 0.62189 0.9117 0.33027 0.0
C379 C 0.55968 0.92433 0.3536 0.0
N380 N 0.66509 0.9602 0.39556 0.0
N381 N 0.51137 0.86359 0.31956 0.0
H382 H 0.53825 0.95947 0.36814 0.0
H383 H 0.50383 0.91913 0.33401 0.0
H384 H 0.50353 0.83909 0.30028 0.0
H385 H 0.48713 0.86346 0.33726 0.0
H386 H 0.68721 0.95378 0.39574 0.0
H387 H 0.67084 0.98072 0.42383 0.0
H388 H 0.68277 0.92787 0.31909 0.0
H389 H 0.64763 0.88657 0.28716 0.0
C390 C 0.65715 0.57344 0.92608 0.0
C391 C 0.63133 0.53472 0.93638 0.0
C392 C 0.68031 0.52493 0.89015 0.0
C393 C 0.70185 0.56235 0.87036 0.0
N394 N 0.71349 0.62339 0.87089 0.0
N395 N 0.61703 0.47286 0.9265 0.0
C396 C 0.69154 0.58715 0.88992 0.0
C397 C 0.64292 0.51025 0.91903 0.0
N398 N 0.64897 0.59694 0.95137 0.0
N399 N 0.69532 0.50341 0.87954 0.0
H400 H 0.58893 0.46081 0.94625 0.0
H401 H 0.62187 0.4536 0.90903 0.0
H402 H 0.72265 0.514 0.85796 0.0
H403 H 0.68301 0.47654 0.89673 0.0
H404 H 0.6685 0.62552 0.95001 0.0
H405 H 0.6238 0.58762 0.97764 0.0
H406 H 0.70496 0.64222 0.87704 0.0
H407 H 0.73995 0.63426 0.84685 0.0
C408 C 0.17036 0.5851 0.51838 0.0
C409 C 0.14001 0.58504 0.55098 0.0
C410 C 0.1681 0.65033 0.52263 0.0
C411 C 0.19517 0.64905 0.48472 0.0
N412 N 0.2295 0.61953 0.45621 0.0
N413 N 0.11724 0.61923 0.59853 0.0
C414 C 0.199 0.61789 0.48638 0.0
C415 C 0.14156 0.61846 0.55802 0.0
N416 N 0.17019 0.55324 0.51492 0.0
N417 N 0.16654 0.68149 0.52223 0.0
H418 H 0.09813 0.59612 0.62523 0.0
H419 H 0.11824 0.64303 0.60918 0.0
H420 H 0.18709 0.70573 0.49886 0.0
H421 H 0.14458 0.68324 0.54342 0.0
H422 H 0.18696 0.54945 0.48508 0.0
H423 H 0.15245 0.52979 0.54146 0.0
H424 H 0.23646 0.59923 0.45901 0.0
H425 H 0.2501 0.64271 0.43101 0.0
C426 C 0.48426 0.11359 0.89083 0.0
C427 C 0.4608 0.07584 0.87727 0.0
C428 C 0.44463 0.09304 0.78269 0.0
C429 C 0.47244 0.13093 0.79306 0.0
N430 N 0.52211 0.17753 0.85463 0.0
N431 N 0.42335 0.02951 0.80781 0.0
C432 C 0.4931 0.14137 0.84668 0.0
C433 C 0.44206 0.06551 0.82256 0.0
N434 N 0.4969 0.12269 0.94646 0.0
N435 N 0.42022 0.08345 0.73513 0.0
H436 H 0.42176 1.00884 0.83576 0.0
H437 H 0.41273 0.02076 0.76627 0.0
H438 H 0.42082 0.10293 0.70539 0.0
H439 H 0.39679 0.05648 0.72817 0.0
H440 H 0.51086 0.14953 0.9606 0.0
H441 H 0.49011 0.10278 0.97973 0.0
H442 H 0.54131 0.18622 0.89022 0.0
H443 H 0.52886 0.19863 0.82356 0.0
C444 C 0.44468 0.53895 0.38437 0.0
C445 C 0.44608 0.50643 0.38711 0.0
C446 C 0.38915 0.47827 0.31939 0.0
C447 C 0.39327 0.51301 0.30764 0.0
N448 N 0.42813 0.57808 0.32761 0.0
N449 N 0.42291 0.44665 0.34871 0.0
C450 C 0.42151 0.54375 0.34031 0.0
C451 C 0.41883 0.47623 0.35296 0.0
N452 N 0.4649 0.56503 0.42466 0.0
N453 N 0.35666 0.44708 0.29839 0.0
H454 H 0.44539 0.44445 0.36953 0.0
H455 H 0.4065 0.42597 0.31948 0.0
H456 H 0.33395 0.44759 0.27477 0.0
H457 H 0.35014 0.42057 0.30983 0.0
H458 H 0.46189 0.58759 0.4285 0.0
H459 H 0.48132 0.56202 0.45825 0.0
H460 H 0.45205 0.60204 0.34464 0.0
H461 H 0.41194 0.58337 0.29672 0.0
C462 C 0.88736 0.41478 0.00121 0.0
C463 C 0.92035 0.41535 0.028 0.0
C464 C 0.90434 0.36005 0.97789 0.0
C465 C 0.87588 0.36344 0.94378 0.0
N466 N 0.84087 0.39485 0.92065 0.0
N467 N 0.96142 0.38975 0.0432 0.0
C468 C 0.86685 0.39055 0.95557 0.0
C469 C 0.9287 0.38782 0.01759 0.0
N470 N 0.8765 0.43823 0.01902 0.0
N471 N 0.90814 0.33048 0.97165 0.0
H472 H 0.9791 0.40953 0.07321 0.0
H473 H 0.97217 0.37314 0.03283 0.0
H474 H 0.89054 0.30989 0.94269 0.0
H475 H 0.92608 0.32471 -0.00179 0.0
H476 H 0.85064 0.4374 0.00505 0.0
H477 H 0.89176 0.45651 0.05198 0.0
H478 H 0.83682 0.4169 0.92264 0.0
H479 H 0.82498 0.37763 0.88687 0.0
C480 C 0.944 0.56818 0.92394 0.0
C481 C 0.98574 0.5916 0.91004 0.0
C482 C 0.96811 0.61347 0.82087 0.0
C483 C 0.9269 0.58722 0.83155 0.0
N484 N 0.87523 0.53567 0.88868 0.0
N485 N 0.03754 0.63286 0.84129 0.0
C486 C 0.91466 0.56347 0.88188 0.0
C487 C 0.99793 0.6136 0.85752 0.0
N488 N 0.93226 0.55182 0.97827 0.0
N489 N 0.97751 0.63827 0.77531 0.0
H490 H 0.05996 0.63299 0.8666 0.0
H491 H 0.04785 0.64595 0.80062 0.0
H492 H 1.00645 0.66046 0.76533 0.0
H493 H 1.00645 0.66046 0.76533 0.0
H494 H 0.90249 0.53746 -0.0075 0.0
H495 H 0.95248 0.55564 0.01134 0.0
H496 H 0.86522 0.51468 0.9209 0.0
H497 H 0.85292 0.53194 0.85925 0.0
C498 C 0.46347 0.9071 0.50484 0.0
C499 C 0.46146 0.93906 0.50674 0.0
C500 C 0.39136 0.90342 0.47416 0.0
C501 C 0.39745 0.87524 0.4581 0.0
N502 N 0.43873 0.8484 0.46583 0.0
N503 N 0.42192 0.96666 0.50407 0.0
C504 C 0.43257 0.87596 0.47687 0.0
C505 C 0.4244 0.93654 0.49606 0.0
N506 N 0.49598 0.90695 0.52655 0.0
N507 N 0.35429 0.89858 0.4665 0.0
H508 H 0.44535 0.99032 0.52279 0.0
H509 H 0.39744 0.96858 0.49169 0.0
H510 H 0.33004 0.87423 0.45066 0.0
H511 H 0.34668 0.91697 0.47973 0.0
H512 H 0.49906 0.88431 0.52375 0.0
H513 H 0.51812 0.92828 0.55076 0.0
H514 H 0.41825 0.82456 0.44454 0.0
H515 H 0.41825 0.82456 0.44454 0.0
C516 C 0.52264 0.36625 0.89024 0.0
C517 C 0.48957 0.37008 0.89976 0.0
C518 C 0.45558 0.33443 0.81402 0.0
C519 C 0.49041 0.33376 0.8012 0.0
N520 N 0.55781 0.34995 0.82466 0.0
N521 N 0.42513 0.35932 0.87183 0.0
C522 C 0.52407 0.34967 0.83898 0.0
C523 C 0.45604 0.35428 0.86208 0.0
N524 N 0.55253 0.37851 0.93064 0.0
N525 N 0.42198 0.31574 0.78043 0.0
H526 H 0.42388 0.37201 0.90843 0.0
H527 H 0.40169 0.35251 0.84294 0.0
H528 H 0.42088 0.30174 0.74406 0.0
H529 H 0.39429 0.31197 0.79031 0.0
H530 H 0.57604 0.374 0.9297 0.0
H531 H 0.55235 0.39134 0.96774 0.0
H532 H 0.585 0.36437 0.84663 0.0
H533 H 0.55932 0.33709 0.78846 0.0
C534 C 0.13493 0.52249 0.35047 0.0
C535 C 0.10819 0.48477 0.36765 0.0
C536 C 0.14848 0.46761 0.31371 0.0
C537 C 0.17524 0.50535 0.29687 0.0
N538 N 0.20004 0.56947 0.31029 0.0
N539 N 0.09346 0.42267 0.37663 0.0
C540 C 0.17059 0.53306 0.31947 0.0
C541 C 0.11633 0.4577 0.35271 0.0
N542 N 0.12479 0.54778 0.36017 0.0
N543 N 0.15301 0.44128 0.29058 0.0
H544 H 0.06985 0.41501 0.40533 0.0
H545 H 0.09971 0.40217 0.37182 0.0
H546 H 0.17736 0.44794 0.26409 0.0
H547 H 0.13196 0.41303 0.29553 0.0
H548 H 0.14105 0.57504 0.34381 0.0
H549 H 0.09795 0.54078 0.38007 0.0
H550 H 0.20034 0.59092 0.33017 0.0
H551 H 0.22624 0.578 0.28696 0.0
C552 C 0.65228 0.09735 0.99071 0.0
C553 C 0.61448 0.09379 -0.00419 0.0
C554 C 0.64053 0.15371 0.94472 0.0
C555 C 0.67714 0.15561 0.93446 0.0
N556 N 0.7227 0.1363 0.96195 0.0
N557 N 0.5778 0.1242 -0.00143 0.0
C558 C 0.68473 0.12987 0.96309 0.0
C559 C 0.61059 0.12415 0.98047 0.0
N560 N 0.6562 0.06868 0.00972 0.0
N561 N 0.63279 0.17807 0.91631 0.0
H562 H 0.55536 0.10281 0.02459 0.0
H563 H 0.57519 0.14715 -0.00675 0.0
H564 H 0.65392 0.20045 0.89033 0.0
H565 H 0.60457 0.17486 0.91577 0.0
H566 H 0.68136 0.06736 0.0018 0.0
H567 H 0.63324 0.04552 0.03258 0.0
H568 H 0.73124 0.11997 0.98476 0.0
H569 H 0.74656 0.16014 0.94172 0.0
C570 C 0.66938 0.69266 0.31427 0.0
C571 C 0.6463 0.669 0.36176 0.0
C572 C 0.61413 0.70408 0.37213 0.0
C573 C 0.63191 0.72327 0.31883 0.0
N574 N 0.68898 0.74887 0.25592 0.0
N575 N 0.61235 0.66323 0.45019 0.0
C576 C 0.66506 0.72281 0.29727 0.0
C577 C 0.62407 0.67873 0.39573 0.0
N578 N 0.69227 0.68449 0.28258 0.0
N579 N 0.58522 0.70745 0.39722 0.0
H580 H 0.62107 0.64575 0.46779 0.0
H581 H 0.5984 0.67079 0.47929 0.0
H582 H 0.57912 0.72745 0.38325 0.0
H583 H 0.56691 0.69005 0.43122 0.0
H584 H 0.70653 0.69865 0.24394 0.0
H585 H 0.69528 0.66217 0.29352 0.0
H586 H 0.7149 0.75142 0.23967 0.0
H587 H 0.68406 0.76978 0.24208 0.0
C588 C 0.57347 0.16247 0.55487 0.0
C589 C 0.54499 0.13578 0.51712 0.0
C590 C 0.49244 0.14413 0.55335 0.0
C591 C 0.5207 0.17019 0.59242 0.0
N592 N 0.58942 0.21089 0.62095 0.0
N593 N 0.481 0.10708 0.47007 0.0
C594 C 0.56183 0.18177 0.5896 0.0
C595 C 0.50569 0.12889 0.5127 0.0
N596 N 0.61084 0.16764 0.5598 0.0
N597 N 0.45257 0.132 0.55791 0.0
H598 H 0.49027 0.09522 0.4408 0.0
H599 H 0.453 0.10325 0.46068 0.0
H600 H 0.44166 0.14278 0.58646 0.0
H601 H 0.42987 0.10988 0.53565 0.0
H602 H 0.63158 0.18336 0.59133 0.0
H603 H 0.62033 0.15428 0.53422 0.0
H604 H 0.62036 0.22268 0.61777 0.0
H605 H 0.58132 0.22537 0.64652 0.0
C606 C 0.42319 0.52556 0.01408 0.0
C607 C 0.40804 0.48777 0.00606 0.0
C608 C 0.35325 0.47026 0.07488 0.0
C609 C 0.37431 0.50721 0.09298 0.0
N610 N 0.42813 0.57094 0.07826 0.0
N611 N 0.35012 0.42618 0.00855 0.0
C612 C 0.40848 0.53532 0.06128 0.0
C613 C 0.36993 0.46075 0.02985 0.0
N614 N 0.45015 0.5518 0.97529 0.0
N615 N 0.31862 0.44416 0.10303 0.0
H616 H 0.36176 0.41986 0.97393 0.0
H617 H 0.3214 0.40493 0.02129 0.0
H618 H 0.30518 0.45081 0.13456 0.0
H619 H 0.30344 0.416 0.09628 0.0
H620 H 0.46051 0.57977 0.97665 0.0
H621 H 0.45792 0.54482 0.93733 0.0
H622 H 0.45601 0.59174 0.06166 0.0
H623 H 0.41756 0.57926 0.11148 0.0
C624 C 0.9566 0.38658 0.67515 0.0
C625 C 0.94561 0.40745 0.63864 0.0
C626 C 0.88676 0.38766 0.70005 0.0
C627 C 0.89558 0.36411 0.73355 0.0
N628 N 0.93575 0.3373 0.74937 0.0
N629 N 0.89658 0.42294 0.61014 0.0
C630 C 0.92971 0.36252 0.7201 0.0
C631 C 0.90954 0.40641 0.64915 0.0
N632 N 0.99286 0.39006 0.66714 0.0
N633 N 0.858 0.39376 0.71845 0.0
H634 H 0.91285 0.43816 0.57324 0.0
H635 H 0.86803 0.41892 0.61189 0.0
H636 H 0.84087 0.38112 0.75594 0.0
H637 H 0.85367 0.41401 0.6996 0.0
H638 H 1.00465 0.37868 0.6958 0.0
H639 H 1.01259 0.40661 0.63362 0.0
H640 H 0.95772 0.3321 0.73813 0.0
H641 H 0.91657 0.31934 0.78235 0.0
C642 C 0.49345 0.86582 0.0625 0.0
C643 C 0.52426 0.89256 0.02487 0.0
C644 C 0.57136 0.87668 0.06733 0.0
C645 C 0.54189 0.85356 0.10972 0.0
N646 N 0.47247 0.82237 0.14268 0.0
N647 N 0.59122 0.92254 0.98715 0.0
C648 C 0.50227 0.84638 0.10508 0.0
C649 C 0.56271 0.89712 0.02528 0.0
N650 N 0.45594 0.86047 0.06029 0.0
N651 N 0.60755 0.87922 0.06831 0.0
H652 H 0.58464 0.93683 0.95544 0.0
H653 H 0.62112 0.93003 0.98707 0.0
H654 H 0.61393 0.86408 0.09858 0.0
H655 H 0.63023 0.89427 0.03769 0.0
H656 H 0.43276 0.84177 0.08844 0.0
H657 H 0.44795 0.87445 0.0303 0.0
H658 H 0.4759 0.80691 0.17606 0.0
H659 H 0.4759 0.80691 0.17606 0.0
C660 C 0.62195 0.53703 0.62216 0.0
C661 C 0.62855 0.56838 0.58801 0.0
C662 C 0.6955 0.60541 0.63172 0.0
C663 C 0.69043 0.57315 0.66058 0.0
N664 N 0.65249 0.50666 0.67127 0.0
N665 N 0.67807 0.62943 0.54759 0.0
C666 C 0.65485 0.53839 0.65149 0.0
C667 C 0.66713 0.60181 0.58908 0.0
N668 N 0.58397 0.50653 0.62896 0.0
N669 N 0.72629 0.63968 0.64628 0.0
H670 H 0.66004 0.62718 0.5125 0.0
H671 H 0.7072 0.65263 0.54402 0.0
H672 H 0.74762 0.64396 0.67777 0.0
H673 H 0.72835 0.66392 0.63061 0.0
H674 H 0.57719 0.48423 0.65737 0.0
H675 H 0.55857 0.5053 0.6115 0.0
H676 H 0.62857 0.4804 0.66153 0.0
H677 H 0.67645 0.50685 0.6922 0.0
C678 C 0.10341 0.66064 0.25821 0.0
C679 C 0.11139 0.65191 0.20378 0.0
C680 C 0.18042 0.67375 0.23417 0.0
C681 C 0.17327 0.68478 0.28723 0.0
N682 N 0.1315 0.69861 0.3415 0.0
N683 N 0.16118 0.66223 0.13354 0.0
C684 C 0.13593 0.6817 0.29626 0.0
C685 C 0.15119 0.66247 0.18965 0.0
N686 N 0.06473 0.64671 0.27551 0.0
N687 N 0.21345 0.67144 0.22726 0.0
H688 H 0.14094 0.65617 0.09949 0.0
H689 H 0.19059 0.67225 0.12031 0.0
H690 H 0.23482 0.67751 0.25952 0.0
H691 H 0.21741 0.65987 0.19136 0.0
H692 H 0.05726 0.64938 0.3172 0.0
H693 H 0.03988 0.62922 0.2505 0.0
H694 H 0.1059 0.69966 0.3473 0.0
H695 H 0.1551 0.71483 0.36949 0.0
loop_
_geom_bond_atom_site_label_1
_geom_bond_atom_site_label_2
_geom_bond_distance
_geom_bond_site_symmetry_2
_ccdc_geom_bond_type
Cu0 N1 1.999 1_454 S
Cu0 O6 1.974 1_454 S
Cu0 N11 1.985 . S
Cu0 O20 1.959 . S
N1 Cu0 1.999 1_656 S
N1 C3 1.263 . S
N1 C5 1.389 1_556 S
N2 C3 1.358 . S
N2 C4 1.400 . S
C3 N1 1.263 . S
C3 N2 1.358 . S
C3 H9 0.930 . S
C4 N2 1.400 . S
C4 C5 1.351 1_556 S
C4 H21 0.930 . S
C5 N1 1.389 1_554 S
C5 C4 1.351 1_554 S
C5 H10 0.930 . S
O6 Cu0 1.974 1_656 S
O6 C16 1.282 . S
C7 O8 1.261 1_554 S
C7 O20 1.251 . S
O8 C7 1.261 1_556 S
H9 C3 0.930 . S
H10 C5 0.930 . S
N11 Cu0 1.985 . S
N11 C13 1.335 . S
N11 C14 1.390 . S
N12 C13 1.345 . S
N12 C15 1.336 . S
C13 N11 1.335 . S
C13 N12 1.345 . S
C13 H18 0.930 . S
C14 N11 1.390 . S
C14 C15 1.346 . S
C14 H19 0.930 1_554 S
C15 N12 1.336 . S
C15 C14 1.346 . S
C15 H22 0.929 . S
C16 O6 1.282 . S
C16 O17 1.218 1_655 S
O17 C16 1.218 1_455 S
H18 C13 0.930 . S
H19 C14 0.930 1_556 S
O20 Cu0 1.959 . S
O20 C7 1.251 . S
H21 C4 0.930 . S
H22 C15 0.929 . S
Cu23 N24 1.999 . S
Cu23 O29 1.974 . S
Cu23 N34 1.985 1_565 S
Cu23 O43 1.959 1_565 S
N24 Cu23 1.999 . S
N24 C26 1.263 . S
N24 C28 1.389 . S
N25 C26 1.358 . S
N25 C27 1.400 . S
C26 N24 1.263 . S
C26 N25 1.358 . S
C26 H32 0.930 . S
C27 N25 1.400 . S
C27 C28 1.351 . S
C27 H44 0.930 . S
C28 N24 1.389 . S
C28 C27 1.351 . S
C28 H33 0.930 . S
O29 Cu23 1.974 . S
O29 C39 1.282 . S
C30 O31 1.261 . S
C30 O43 1.251 . S
O31 C30 1.261 . S
H32 C26 0.930 . S
H33 C28 0.930 . S
N34 Cu23 1.985 1_545 S
N34 C36 1.335 . S
N34 C37 1.390 . S
N35 C36 1.345 . S
N35 C38 1.336 . S
C36 N34 1.335 . S
C36 N35 1.345 . S
C36 H41 0.930 . S
C37 N34 1.390 . S
C37 C38 1.346 . S
C37 H42 0.930 . S
C38 N35 1.336 . S
C38 C37 1.346 . S
C38 H45 0.929 . S
C39 O29 1.282 . S
C39 O40 1.216 . S
O40 C39 1.216 . S
H41 C36 0.930 . S
H42 C37 0.930 . S
O43 Cu23 1.959 1_545 S
O43 C30 1.251 . S
H44 C27 0.930 . S
H45 C38 0.929 . S
Cu46 N47 1.999 1_554 S
Cu46 O52 1.974 1_554 S
Cu46 N57 1.985 . S
Cu46 O66 1.959 . S
N47 Cu46 1.999 1_556 S
N47 C49 1.263 . S
N47 C51 1.389 . S
N48 C49 1.358 . S
N48 C50 1.400 . S
C49 N47 1.263 . S
C49 N48 1.358 . S
C49 H55 0.930 . S
C50 N48 1.400 . S
C50 C51 1.351 . S
C50 H67 0.930 . S
C51 N47 1.389 . S
C51 C50 1.351 . S
C51 H56 0.930 . S
O52 Cu46 1.974 1_556 S
O52 C62 1.282 . S
C53 O54 1.261 . S
C53 O66 1.251 . S
O54 C53 1.261 . S
H55 C49 0.930 . S
H56 C51 0.930 . S
N57 Cu46 1.985 . S
N57 C59 1.335 . S
N57 C60 1.390 . S
N58 C59 1.345 . S
N58 C61 1.336 . S
C59 N57 1.335 . S
C59 N58 1.345 . S
C59 H64 0.930 . S
C60 N57 1.390 . S
C60 C61 1.346 . S
C60 H65 0.930 . S
C61 N58 1.336 . S
C61 C60 1.346 . S
C61 H68 0.929 . S
C62 O52 1.282 . S
C62 O63 1.216 1_556 S
O63 C62 1.216 1_554 S
H64 C59 0.930 . S
H65 C60 0.930 . S
O66 Cu46 1.959 . S
O66 C53 1.251 . S
H67 C50 0.930 . S
H68 C61 0.929 . S
Cu69 N70 1.999 1_655 S
Cu69 O75 1.974 1_655 S
Cu69 N80 1.985 . S
Cu69 O89 1.959 . S
N70 Cu69 1.999 1_455 S
N70 C72 1.263 . S
N70 C74 1.389 1_455 S
N71 C72 1.358 . S
N71 C73 1.400 . S
C72 N70 1.263 . S
C72 N71 1.358 . S
C72 H78 0.930 . S
C73 N71 1.400 . S
C73 C74 1.351 1_455 S
C73 H90 0.930 . S
C74 N70 1.389 1_655 S
C74 C73 1.351 1_655 S
C74 H79 0.930 . S
O75 Cu69 1.974 1_455 S
O75 C85 1.282 . S
C76 O77 1.261 . S
C76 O89 1.251 . S
O77 C76 1.261 . S
H78 C72 0.930 . S
H79 C74 0.930 . S
N80 Cu69 1.985 . S
N80 C82 1.335 . S
N80 C83 1.390 . S
N81 C82 1.345 . S
N81 C84 1.336 . S
C82 N80 1.335 . S
C82 N81 1.345 . S
C82 H87 0.930 . S
C83 N80 1.390 . S
C83 C84 1.346 . S
C83 H88 0.930 1_655 S
C84 N81 1.336 . S
C84 C83 1.346 . S
C84 H91 0.929 . S
C85 O75 1.282 . S
C85 O86 1.216 . S
O86 C85 1.216 . S
H87 C82 0.930 . S
H88 C83 0.930 1_455 S
O89 Cu69 1.959 . S
O89 C76 1.251 . S
H90 C73 0.930 . S
H91 C84 0.929 . S
Cu92 N93 1.999 . S
Cu92 O98 1.974 1_554 S
Cu92 N103 1.985 1_545 S
Cu92 O112 1.959 1_545 S
N93 Cu92 1.999 . S
N93 C95 1.263 1_554 S
N93 C97 1.389 . S
N94 C95 1.358 . S
N94 C96 1.400 1_556 S
C95 N93 1.263 1_556 S
C95 N94 1.358 . S
C95 H101 0.930 . S
C96 N94 1.400 1_554 S
C96 C97 1.351 . S
C96 H113 0.930 . S
C97 N93 1.389 . S
C97 C96 1.351 . S
C97 H102 0.930 . S
O98 Cu92 1.974 1_556 S
O98 C108 1.282 . S
C99 O100 1.261 . S
C99 O112 1.251 . S
O100 C99 1.261 . S
H101 C95 0.930 . S
H102 C97 0.930 . S
N103 Cu92 1.985 1_565 S
N103 C105 1.335 . S
N103 C106 1.390 . S
N104 C105 1.345 . S
N104 C107 1.336 . S
C105 N103 1.335 . S
C105 N104 1.345 . S
C105 H110 0.930 . S
C106 N103 1.390 . S
C106 C107 1.346 . S
C106 H111 0.931 1_564 S
C107 N104 1.336 . S
C107 C106 1.346 . S
C107 H114 0.929 . S
C108 O98 1.282 . S
C108 O109 1.216 . S
O109 C108 1.216 . S
H110 C105 0.930 . S
H111 C106 0.931 1_546 S
O112 Cu92 1.959 1_565 S
O112 C99 1.251 . S
H113 C96 0.930 . S
H114 C107 0.929 . S
Cu115 N116 1.999 . S
Cu115 O121 1.974 . S
Cu115 N126 1.985 . S
Cu115 O135 1.959 . S
N116 Cu115 1.999 . S
N116 C118 1.263 . S
N116 C120 1.389 . S
N117 C118 1.358 . S
N117 C119 1.400 . S
C118 N116 1.263 . S
C118 N117 1.358 . S
C118 H124 0.930 . S
C119 N117 1.400 . S
C119 C120 1.351 . S
C119 H136 0.930 . S
C120 N116 1.389 . S
C120 C119 1.351 . S
C120 H125 0.930 . S
O121 Cu115 1.974 . S
O121 C131 1.282 . S
C122 O123 1.261 . S
C122 O135 1.251 . S
O123 C122 1.261 . S
H124 C118 0.930 . S
H125 C120 0.930 . S
N126 Cu115 1.985 . S
N126 C128 1.335 . S
N126 C129 1.390 . S
N127 C128 1.345 . S
N127 C130 1.336 . S
C128 N126 1.335 . S
C128 N127 1.345 . S
C128 H133 0.930 . S
C129 N126 1.390 . S
C129 C130 1.346 . S
C129 H134 0.930 . S
C130 N127 1.336 . S
C130 C129 1.346 . S
C130 H137 0.929 . S
C131 O121 1.282 . S
C131 O132 1.216 . S
O132 C131 1.216 . S
H133 C128 0.930 . S
H134 C129 0.930 . S
O135 Cu115 1.959 . S
O135 C122 1.251 . S
H136 C119 0.930 . S
H137 C130 0.929 . S
H138 C146 0.930 . S
H139 C149 0.930 . S
H140 C151 0.930 . S
H141 C152 0.970 . S
H142 C152 0.970 . S
H143 C154 0.930 . S
H144 C156 0.930 . S
H145 C158 0.930 . S
C146 H138 0.930 . S
C146 C147 1.382 . S
C146 C148 1.426 . S
C147 C146 1.382 . S
C147 C151 1.389 . S
C148 C146 1.426 . S
C148 C149 1.375 . S
C148 C152 1.532 . S
C149 H139 0.930 . S
C149 C148 1.375 . S
C149 C150 1.416 . S
C150 C149 1.416 . S
C150 C151 1.371 . S
C151 H140 0.930 . S
C151 C147 1.389 . S
C151 C150 1.371 . S
C152 H141 0.970 . S
C152 H142 0.970 . S
C152 C148 1.532 . S
C152 C153 1.499 . S
C153 C152 1.499 . S
C153 C154 1.370 . S
C153 C158 1.415 . S
C154 H143 0.930 . S
C154 C153 1.370 . S
C154 C155 1.407 . S
C155 C154 1.407 . S
C155 C156 1.365 . S
C156 H144 0.930 . S
C156 C155 1.365 . S
C156 C157 1.393 . S
C157 C156 1.393 . S
C157 C158 1.387 . S
C158 H145 0.930 . S
C158 C153 1.415 . S
C158 C157 1.387 . S
H159 C167 0.930 . S
H160 C170 0.930 . S
H161 C172 0.930 . S
H162 C173 0.970 . S
H163 C173 0.970 . S
H164 C175 0.930 . S
H165 C177 0.930 . S
H166 C179 0.930 . S
C167 H159 0.930 . S
C167 C168 1.382 . S
C167 C169 1.426 . S
C168 C167 1.382 . S
C168 C172 1.389 . S
C169 C167 1.426 . S
C169 C170 1.375 . S
C169 C173 1.532 . S
C170 H160 0.930 . S
C170 C169 1.375 . S
C170 C171 1.416 . S
C171 C170 1.416 . S
C171 C172 1.371 . S
C172 H161 0.930 . S
C172 C168 1.389 . S
C172 C171 1.371 . S
C173 H162 0.970 . S
C173 H163 0.970 . S
C173 C169 1.532 . S
C173 C174 1.499 . S
C174 C173 1.499 . S
C174 C175 1.370 . S
C174 C179 1.415 . S
C175 H164 0.930 . S
C175 C174 1.370 . S
C175 C176 1.407 . S
C176 C175 1.407 . S
C176 C177 1.365 . S
C177 H165 0.930 . S
C177 C176 1.365 . S
C177 C178 1.393 . S
C178 C177 1.393 . S
C178 C179 1.387 . S
C179 H166 0.930 . S
C179 C174 1.415 . S
C179 C178 1.387 . S
H180 C188 0.930 . S
H181 C191 0.930 . S
H182 C193 0.930 . S
H183 C194 0.970 . S
H184 C194 0.970 . S
H185 C196 0.930 . S
H186 C198 0.930 . S
H187 C200 0.930 . S
C188 H180 0.930 . S
C188 C189 1.382 . S
C188 C190 1.426 . S
C189 C188 1.382 . S
C189 C193 1.389 . S
C190 C188 1.426 . S
C190 C191 1.375 . S
C190 C194 1.532 . S
C191 H181 0.930 . S
C191 C190 1.375 . S
C191 C192 1.416 . S
C192 C191 1.416 . S
C192 C193 1.371 . S
C193 H182 0.930 . S
C193 C189 1.389 . S
C193 C192 1.371 . S
C194 H183 0.970 . S
C194 H184 0.970 . S
C194 C190 1.532 . S
C194 C195 1.499 . S
C195 C194 1.499 . S
C195 C196 1.370 . S
C195 C200 1.415 . S
C196 H185 0.930 . S
C196 C195 1.370 . S
C196 C197 1.407 . S
C197 C196 1.407 . S
C197 C198 1.365 . S
C198 H186 0.930 . S
C198 C197 1.365 . S
C198 C199 1.393 . S
C199 C198 1.393 . S
C199 C200 1.387 . S
C200 H187 0.930 . S
C200 C195 1.415 . S
C200 C199 1.387 . S
H201 C209 0.930 . S
H202 C212 0.930 . S
H203 C214 0.930 . S
H204 C215 0.970 . S
H205 C215 0.970 . S
H206 C217 0.930 . S
H207 C219 0.930 . S
H208 C221 0.930 . S
C209 H201 0.930 . S
C209 C210 1.382 . S
C209 C211 1.426 . S
C210 C209 1.382 . S
C210 C214 1.389 . S
C211 C209 1.426 . S
C211 C212 1.375 . S
C211 C215 1.532 . S
C212 H202 0.930 . S
C212 C211 1.375 . S
C212 C213 1.416 . S
C213 C212 1.416 . S
C213 C214 1.371 . S
C214 H203 0.930 . S
C214 C210 1.389 . S
C214 C213 1.371 . S
C215 H204 0.970 . S
C215 H205 0.970 . S
C215 C211 1.532 . S
C215 C216 1.499 . S
C216 C215 1.499 . S
C216 C217 1.370 . S
C216 C221 1.415 . S
C217 H206 0.930 . S
C217 C216 1.370 . S
C217 C218 1.407 . S
C218 C217 1.407 . S
C218 C219 1.365 . S
C219 H207 0.930 . S
C219 C218 1.365 . S
C219 C220 1.393 . S
C220 C219 1.393 . S
C220 C221 1.387 . S
C221 H208 0.930 . S
C221 C216 1.415 . S
C221 C220 1.387 . S
H222 C230 0.930 . S
H223 C233 0.930 . S
H224 C235 0.930 . S
H225 C236 0.970 . S
H226 C236 0.970 . S
H227 C238 0.930 . S
H228 C240 0.930 . S
H229 C242 0.930 . S
C230 H222 0.930 . S
C230 C231 1.382 . S
C230 C232 1.426 . S
C231 C230 1.382 . S
C231 C235 1.389 . S
C232 C230 1.426 . S
C232 C233 1.375 . S
C232 C236 1.532 . S
C233 H223 0.930 . S
C233 C232 1.375 . S
C233 C234 1.416 . S
C234 C233 1.416 . S
C234 C235 1.371 . S
C235 H224 0.930 . S
C235 C231 1.389 . S
C235 C234 1.371 . S
C236 H225 0.970 . S
C236 H226 0.970 . S
C236 C232 1.532 . S
C236 C237 1.499 . S
C237 C236 1.499 . S
C237 C238 1.370 . S
C237 C242 1.415 . S
C238 H227 0.930 . S
C238 C237 1.370 . S
C238 C239 1.407 . S
C239 C238 1.407 . S
C239 C240 1.365 . S
C240 H228 0.930 . S
C240 C239 1.365 . S
C240 C241 1.393 . S
C241 C240 1.393 . S
C241 C242 1.387 . S
C242 H229 0.930 . S
C242 C237 1.415 . S
C242 C241 1.387 . S
H243 C251 0.930 . S
H244 C254 0.930 . S
H245 C256 0.930 . S
H246 C257 0.970 . S
H247 C257 0.970 . S
H248 C259 0.930 . S
H249 C261 0.930 . S
H250 C263 0.930 . S
C251 H243 0.930 . S
C251 C252 1.382 . S
C251 C253 1.426 . S
C252 C251 1.382 . S
C252 C256 1.389 . S
C253 C251 1.426 . S
C253 C254 1.375 . S
C253 C257 1.532 . S
C254 H244 0.930 . S
C254 C253 1.375 . S
C254 C255 1.416 . S
C255 C254 1.416 . S
C255 C256 1.371 . S
C256 H245 0.930 . S
C256 C252 1.389 . S
C256 C255 1.371 . S
C257 H246 0.970 . S
C257 H247 0.970 . S
C257 C253 1.532 . S
C257 C258 1.499 . S
C258 C257 1.499 . S
C258 C259 1.370 . S
C258 C263 1.415 . S
C259 H248 0.930 . S
C259 C258 1.370 . S
C259 C260 1.407 . S
C260 C259 1.407 . S
C260 C261 1.365 . S
C261 H249 0.930 . S
C261 C260 1.365 . S
C261 C262 1.393 . S
C262 C261 1.393 . S
C262 C263 1.387 . S
C263 H250 0.930 . S
C263 C258 1.415 . S
C263 C262 1.387 . S
C264 C265 1.363 . S
C264 C270 1.379 . S
C264 N272 1.356 . S
C265 C264 1.363 . S
C265 C271 1.363 . S
C266 C267 1.363 . S
C266 C271 1.379 . S
C266 N273 1.356 . S
C267 C266 1.363 . S
C267 C270 1.363 . S
N268 C270 1.356 . S
N268 H280 0.984 . S
N268 H281 0.985 . S
N269 C271 1.356 . S
N269 H274 0.984 . S
N269 H275 0.985 . S
C270 C264 1.379 . S
C270 C267 1.363 . S
C270 N268 1.356 . S
C271 C265 1.363 . S
C271 C266 1.379 . S
C271 N269 1.356 . S
N272 C264 1.356 . S
N272 H278 0.984 . S
N272 H279 0.984 . S
N273 C266 1.356 . S
N273 H276 0.984 . S
N273 H277 0.985 . S
H274 N269 0.984 . S
H275 N269 0.985 . S
H276 N273 0.984 . S
H277 N273 0.985 . S
H278 N272 0.984 . S
H279 N272 0.984 . S
H280 N268 0.984 . S
H281 N268 0.985 . S
C282 C283 1.363 . S
C282 C288 1.379 . S
C282 N290 1.356 . S
C283 C282 1.363 . S
C283 C289 1.363 . S
C284 C285 1.363 . S
C284 C289 1.379 . S
C284 N291 1.356 . S
C285 C284 1.363 . S
C285 C288 1.363 . S
N286 C288 1.356 . S
N286 H298 0.984 . S
N286 H299 0.985 . S
N287 C289 1.356 . S
N287 H292 0.984 . S
N287 H293 0.985 . S
C288 C282 1.379 . S
C288 C285 1.363 . S
C288 N286 1.356 . S
C289 C283 1.363 . S
C289 C284 1.379 . S
C289 N287 1.356 . S
N290 C282 1.356 . S
N290 H296 0.984 . S
N290 H297 0.984 . S
N291 C284 1.356 . S
N291 H294 0.984 . S
N291 H295 0.985 . S
H292 N287 0.984 . S
H293 N287 0.985 . S
H294 N291 0.984 . S
H295 N291 0.985 . S
H296 N290 0.984 . S
H297 N290 0.984 . S
H298 N286 0.984 . S
H299 N286 0.985 . S
C300 C301 1.363 . S
C300 C306 1.379 . S
C300 N308 1.356 . S
C301 C300 1.363 . S
C301 C307 1.363 . S
C302 C303 1.363 . S
C302 C307 1.379 . S
C302 N309 1.356 . S
C303 C302 1.363 . S
C303 C306 1.363 . S
N304 C306 1.356 . S
N304 H316 0.984 . S
N304 H317 0.985 . S
N305 C307 1.356 . S
N305 H310 0.984 . S
N305 H311 0.985 . S
C306 C300 1.379 . S
C306 C303 1.363 . S
C306 N304 1.356 . S
C307 C301 1.363 . S
C307 C302 1.379 . S
C307 N305 1.356 . S
N308 C300 1.356 . S
N308 H314 0.984 . S
N308 H315 0.984 . S
N309 C302 1.356 . S
N309 H312 0.984 . S
N309 H313 0.985 . S
H310 N305 0.984 . S
H311 N305 0.985 . S
H312 N309 0.984 . S
H313 N309 0.985 . S
H314 N308 0.984 . S
H315 N308 0.984 . S
H316 N304 0.984 . S
H317 N304 0.985 . S
C318 C319 1.363 . S
C318 C324 1.379 . S
C318 N326 1.356 . S
C319 C318 1.363 . S
C319 C325 1.363 . S
C320 C321 1.363 . S
C320 C325 1.379 . S
C320 N327 1.356 . S
C321 C320 1.363 . S
C321 C324 1.363 . S
N322 C324 1.356 . S
N322 H334 0.984 . S
N322 H335 0.985 . S
N323 C325 1.356 . S
N323 H328 0.984 . S
N323 H329 0.985 . S
C324 C318 1.379 . S
C324 C321 1.363 . S
C324 N322 1.356 . S
C325 C319 1.363 . S
C325 C320 1.379 . S
C325 N323 1.356 . S
N326 C318 1.356 . S
N326 H332 0.984 . S
N326 H333 0.984 . S
N327 C320 1.356 . S
N327 H330 0.984 . S
N327 H331 0.985 . S
H328 N323 0.984 . S
H329 N323 0.985 . S
H330 N327 0.984 . S
H331 N327 0.985 . S
H332 N326 0.984 . S
H333 N326 0.984 . S
H334 N322 0.984 . S
H335 N322 0.985 . S
C336 C337 1.363 . S
C336 C342 1.379 . S
C336 N344 1.356 . S
C337 C336 1.363 . S
C337 C343 1.363 . S
C338 C339 1.363 . S
C338 C343 1.379 . S
C338 N345 1.356 . S
C339 C338 1.363 . S
C339 C342 1.363 . S
N340 C342 1.356 . S
N340 H352 0.984 . S
N340 H353 0.985 . S
N341 C343 1.356 . S
N341 H346 0.984 . S
N341 H347 0.985 . S
C342 C336 1.379 . S
C342 C339 1.363 . S
C342 N340 1.356 . S
C343 C337 1.363 . S
C343 C338 1.379 . S
C343 N341 1.356 . S
N344 C336 1.356 . S
N344 H350 0.984 . S
N344 H351 0.984 . S
N345 C338 1.356 . S
N345 H348 0.984 . S
N345 H349 0.985 . S
H346 N341 0.984 . S
H347 N341 0.985 . S
H348 N345 0.984 . S
H349 N345 0.985 . S
H350 N344 0.984 . S
H351 N344 0.984 . S
H352 N340 0.984 . S
H353 N340 0.985 . S
C354 C355 1.363 . S
C354 C360 1.379 . S
C354 N362 1.356 . S
C355 C354 1.363 . S
C355 C361 1.363 . S
C356 C357 1.363 . S
C356 C361 1.379 . S
C356 N363 1.356 . S
C357 C356 1.363 . S
C357 C360 1.363 . S
N358 C360 1.356 . S
N358 H370 0.984 . S
N358 H371 0.985 . S
N359 C361 1.356 . S
N359 H364 0.984 . S
N359 H365 0.985 . S
C360 C354 1.379 . S
C360 C357 1.363 . S
C360 N358 1.356 . S
C361 C355 1.363 . S
C361 C356 1.379 . S
C361 N359 1.356 . S
N362 C354 1.356 . S
N362 H368 0.984 . S
N362 H369 0.984 . S
N363 C356 1.356 . S
N363 H366 0.984 . S
N363 H367 0.985 . S
H364 N359 0.984 . S
H365 N359 0.985 . S
H366 N363 0.984 . S
H367 N363 0.985 . S
H368 N362 0.984 . S
H369 N362 0.984 . S
H370 N358 0.984 . S
H371 N358 0.985 . S
C372 C373 1.363 . S
C372 C378 1.379 . S
C372 N380 1.356 . S
C373 C372 1.363 . S
C373 C379 1.363 . S
C374 C375 1.363 . S
C374 C379 1.379 . S
C374 N381 1.356 . S
C375 C374 1.363 . S
C375 C378 1.363 . S
N376 C378 1.356 . S
N376 H388 0.984 . S
N376 H389 0.985 . S
N377 C379 1.356 . S
N377 H382 0.984 . S
N377 H383 0.985 . S
C378 C372 1.379 . S
C378 C375 1.363 . S
C378 N376 1.356 . S
C379 C373 1.363 . S
C379 C374 1.379 . S
C379 N377 1.356 . S
N380 C372 1.356 . S
N380 H386 0.984 . S
N380 H387 0.984 . S
N381 C374 1.356 . S
N381 H384 0.984 . S
N381 H385 0.985 . S
H382 N377 0.984 . S
H383 N377 0.985 . S
H384 N381 0.984 . S
H385 N381 0.985 . S
H386 N380 0.984 . S
H387 N380 0.984 . S
H388 N376 0.984 . S
H389 N376 0.985 . S
C390 C391 1.363 . S
C390 C396 1.379 . S
C390 N398 1.356 . S
C391 C390 1.363 . S
C391 C397 1.363 . S
C392 C393 1.363 . S
C392 C397 1.379 . S
C392 N399 1.356 . S
C393 C392 1.363 . S
C393 C396 1.363 . S
N394 C396 1.356 . S
N394 H406 0.984 . S
N394 H407 0.985 . S
N395 C397 1.356 . S
N395 H400 0.984 . S
N395 H401 0.985 . S
C396 C390 1.379 . S
C396 C393 1.363 . S
C396 N394 1.356 . S
C397 C391 1.363 . S
C397 C392 1.379 . S
C397 N395 1.356 . S
N398 C390 1.356 . S
N398 H404 0.984 . S
N398 H405 0.984 1_556 S
N399 C392 1.356 . S
N399 H402 0.984 . S
N399 H403 0.985 . S
H400 N395 0.984 . S
H401 N395 0.985 . S
H402 N399 0.984 . S
H403 N399 0.985 . S
H404 N398 0.984 . S
H405 N398 0.984 1_554 S
H406 N394 0.984 . S
H407 N394 0.985 . S
C408 C409 1.363 . S
C408 C414 1.379 . S
C408 N416 1.356 . S
C409 C408 1.363 . S
C409 C415 1.363 . S
C410 C411 1.363 . S
C410 C415 1.379 . S
C410 N417 1.356 . S
C411 C410 1.363 . S
C411 C414 1.363 . S
N412 C414 1.356 . S
N412 H424 0.984 . S
N412 H425 0.985 . S
N413 C415 1.356 . S
N413 H418 0.984 . S
N413 H419 0.985 . S
C414 C408 1.379 . S
C414 C411 1.363 . S
C414 N412 1.356 . S
C415 C409 1.363 . S
C415 C410 1.379 . S
C415 N413 1.356 . S
N416 C408 1.356 . S
N416 H422 0.984 . S
N416 H423 0.984 . S
N417 C410 1.356 . S
N417 H420 0.984 . S
N417 H421 0.985 . S
H418 N413 0.984 . S
H419 N413 0.985 . S
H420 N417 0.984 . S
H421 N417 0.985 . S
H422 N416 0.984 . S
H423 N416 0.984 . S
H424 N412 0.984 . S
H425 N412 0.985 . S
C426 C427 1.363 . S
C426 C432 1.379 . S
C426 N434 1.356 . S
C427 C426 1.363 . S
C427 C433 1.363 . S
C428 C429 1.363 . S
C428 C433 1.379 . S
C428 N435 1.356 . S
C429 C428 1.363 . S
C429 C432 1.363 . S
N430 C432 1.356 . S
N430 H442 0.984 . S
N430 H443 0.985 . S
N431 C433 1.356 . S
N431 H436 0.984 . S
N431 H437 0.985 . S
C432 C426 1.379 . S
C432 C429 1.363 . S
C432 N430 1.356 . S
C433 C427 1.363 . S
C433 C428 1.379 . S
C433 N431 1.356 . S
N434 C426 1.356 . S
N434 H440 0.984 . S
N434 H441 0.984 . S
N435 C428 1.356 . S
N435 H438 0.984 . S
N435 H439 0.985 . S
H436 N431 0.984 . S
H437 N431 0.985 . S
H438 N435 0.984 . S
H439 N435 0.985 . S
H440 N434 0.984 . S
H441 N434 0.984 . S
H442 N430 0.984 . S
H443 N430 0.985 . S
C444 C445 1.363 . S
C444 C450 1.379 . S
C444 N452 1.356 . S
C445 C444 1.363 . S
C445 C451 1.363 . S
C446 C447 1.363 . S
C446 C451 1.379 . S
C446 N453 1.356 . S
C447 C446 1.363 . S
C447 C450 1.363 . S
N448 C450 1.356 . S
N448 H460 0.984 . S
N448 H461 0.985 . S
N449 C451 1.356 . S
N449 H454 0.984 . S
N449 H455 0.985 . S
C450 C444 1.379 . S
C450 C447 1.363 . S
C450 N448 1.356 . S
C451 C445 1.363 . S
C451 C446 1.379 . S
C451 N449 1.356 . S
N452 C444 1.356 . S
N452 H458 0.984 . S
N452 H459 0.984 . S
N453 C446 1.356 . S
N453 H456 0.984 . S
N453 H457 0.985 . S
H454 N449 0.984 . S
H455 N449 0.985 . S
H456 N453 0.984 . S
H457 N453 0.985 . S
H458 N452 0.984 . S
H459 N452 0.984 . S
H460 N448 0.984 . S
H461 N448 0.985 . S
C462 C463 1.363 . S
C462 C468 1.379 . S
C462 N470 1.356 . S
C463 C462 1.363 . S
C463 C469 1.363 . S
C464 C465 1.363 . S
C464 C469 1.379 . S
C464 N471 1.356 . S
C465 C464 1.363 . S
C465 C468 1.363 . S
N466 C468 1.356 . S
N466 H478 0.984 . S
N466 H479 0.985 . S
N467 C469 1.356 . S
N467 H472 0.984 . S
N467 H473 0.985 . S
C468 C462 1.379 . S
C468 C465 1.363 . S
C468 N466 1.356 . S
C469 C463 1.363 . S
C469 C464 1.379 . S
C469 N467 1.356 . S
N470 C462 1.356 . S
N470 H476 0.984 . S
N470 H477 0.984 . S
N471 C464 1.356 . S
N471 H474 0.984 . S
N471 H475 0.985 . S
H472 N467 0.984 . S
H473 N467 0.985 . S
H474 N471 0.984 . S
H475 N471 0.985 . S
H476 N470 0.984 . S
H477 N470 0.984 . S
H478 N466 0.984 . S
H479 N466 0.985 . S
C480 C481 1.363 . S
C480 C486 1.379 . S
C480 N488 1.356 . S
C481 C480 1.363 . S
C481 C487 1.363 . S
C482 C483 1.363 . S
C482 C487 1.379 . S
C482 N489 1.356 . S
C483 C482 1.363 . S
C483 C486 1.363 . S
N484 C486 1.356 . S
N484 H496 0.984 . S
N484 H497 0.985 . S
N485 C487 1.356 . S
N485 H490 0.984 . S
N485 H491 0.985 . S
C486 C480 1.379 . S
C486 C483 1.363 . S
C486 N484 1.356 . S
C487 C481 1.363 . S
C487 C482 1.379 . S
C487 N485 1.356 . S
N488 C480 1.356 . S
N488 H494 0.984 1_556 S
N488 H495 0.984 . S
N489 C482 1.356 . S
N489 H492 0.984 . S
N489 H493 0.985 . S
H490 N485 0.984 . S
H491 N485 0.985 . S
H492 N489 0.984 . S
H493 N489 0.985 . S
H494 N488 0.984 1_554 S
H495 N488 0.984 . S
H496 N484 0.984 . S
H497 N484 0.985 . S
C498 C499 1.363 . S
C498 C504 1.379 . S
C498 N506 1.356 . S
C499 C498 1.363 . S
C499 C505 1.363 . S
C500 C501 1.363 . S
C500 C505 1.379 . S
C500 N507 1.356 . S
C501 C500 1.363 . S
C501 C504 1.363 . S
N502 C504 1.356 . S
N502 H514 0.984 . S
N502 H515 0.985 . S
N503 C505 1.356 . S
N503 H508 0.984 . S
N503 H509 0.985 . S
C504 C498 1.379 . S
C504 C501 1.363 . S
C504 N502 1.356 . S
C505 C499 1.363 . S
C505 C500 1.379 . S
C505 N503 1.356 . S
N506 C498 1.356 . S
N506 H512 0.984 . S
N506 H513 0.984 . S
N507 C500 1.356 . S
N507 H510 0.984 . S
N507 H511 0.985 . S
H508 N503 0.984 . S
H509 N503 0.985 . S
H510 N507 0.984 . S
H511 N507 0.985 . S
H512 N506 0.984 . S
H513 N506 0.984 . S
H514 N502 0.984 . S
H515 N502 0.985 . S
C516 C517 1.363 . S
C516 C522 1.379 . S
C516 N524 1.356 . S
C517 C516 1.363 . S
C517 C523 1.363 . S
C518 C519 1.363 . S
C518 C523 1.379 . S
C518 N525 1.356 . S
C519 C518 1.363 . S
C519 C522 1.363 . S
N520 C522 1.356 . S
N520 H532 0.984 . S
N520 H533 0.985 . S
N521 C523 1.356 . S
N521 H526 0.984 . S
N521 H527 0.985 . S
C522 C516 1.379 . S
C522 C519 1.363 . S
C522 N520 1.356 . S
C523 C517 1.363 . S
C523 C518 1.379 . S
C523 N521 1.356 . S
N524 C516 1.356 . S
N524 H530 0.984 1_556 S
N524 H531 0.984 . S
N525 C518 1.356 . S
N525 H528 0.984 . S
N525 H529 0.985 . S
H526 N521 0.984 . S
H527 N521 0.985 . S
H528 N525 0.984 . S
H529 N525 0.985 . S
H530 N524 0.984 1_554 S
H531 N524 0.984 . S
H532 N520 0.984 . S
H533 N520 0.985 . S
C534 C535 1.363 . S
C534 C540 1.379 . S
C534 N542 1.356 . S
C535 C534 1.363 . S
C535 C541 1.363 . S
C536 C537 1.363 . S
C536 C541 1.379 . S
C536 N543 1.356 . S
C537 C536 1.363 . S
C537 C540 1.363 . S
N538 C540 1.356 . S
N538 H550 0.984 . S
N538 H551 0.985 . S
N539 C541 1.356 . S
N539 H544 0.984 . S
N539 H545 0.985 . S
C540 C534 1.379 . S
C540 C537 1.363 . S
C540 N538 1.356 . S
C541 C535 1.363 . S
C541 C536 1.379 . S
C541 N539 1.356 . S
N542 C534 1.356 . S
N542 H548 0.984 . S
N542 H549 0.984 . S
N543 C536 1.356 . S
N543 H546 0.984 . S
N543 H547 0.985 . S
H544 N539 0.984 . S
H545 N539 0.985 . S
H546 N543 0.984 . S
H547 N543 0.985 . S
H548 N542 0.984 . S
H549 N542 0.984 . S
H550 N538 0.984 . S
H551 N538 0.985 . S
C552 C553 1.363 . S
C552 C558 1.379 . S
C552 N560 1.356 . S
C553 C552 1.363 . S
C553 C559 1.363 . S
C554 C555 1.363 . S
C554 C559 1.379 . S
C554 N561 1.356 . S
C555 C554 1.363 . S
C555 C558 1.363 . S
N556 C558 1.356 . S
N556 H568 0.984 . S
N556 H569 0.985 . S
N557 C559 1.356 . S
N557 H562 0.984 . S
N557 H563 0.985 . S
C558 C552 1.379 . S
C558 C555 1.363 . S
C558 N556 1.356 . S
C559 C553 1.363 . S
C559 C554 1.379 . S
C559 N557 1.356 . S
N560 C552 1.356 . S
N560 H566 0.984 . S
N560 H567 0.984 . S
N561 C554 1.356 . S
N561 H564 0.984 . S
N561 H565 0.985 . S
H562 N557 0.984 . S
H563 N557 0.985 . S
H564 N561 0.984 . S
H565 N561 0.985 . S
H566 N560 0.984 . S
H567 N560 0.984 . S
H568 N556 0.984 . S
H569 N556 0.985 . S
C570 C571 1.363 . S
C570 C576 1.379 . S
C570 N578 1.356 . S
C571 C570 1.363 . S
C571 C577 1.363 . S
C572 C573 1.363 . S
C572 C577 1.379 . S
C572 N579 1.356 . S
C573 C572 1.363 . S
C573 C576 1.363 . S
N574 C576 1.356 . S
N574 H586 0.984 . S
N574 H587 0.985 . S
N575 C577 1.356 . S
N575 H580 0.984 . S
N575 H581 0.985 . S
C576 C570 1.379 . S
C576 C573 1.363 . S
C576 N574 1.356 . S
C577 C571 1.363 . S
C577 C572 1.379 . S
C577 N575 1.356 . S
N578 C570 1.356 . S
N578 H584 0.984 . S
N578 H585 0.984 . S
N579 C572 1.356 . S
N579 H582 0.984 . S
N579 H583 0.985 . S
H580 N575 0.984 . S
H581 N575 0.985 . S
H582 N579 0.984 . S
H583 N579 0.985 . S
H584 N578 0.984 . S
H585 N578 0.984 . S
H586 N574 0.984 . S
H587 N574 0.985 . S
C588 C589 1.363 . S
C588 C594 1.379 . S
C588 N596 1.356 . S
C589 C588 1.363 . S
C589 C595 1.363 . S
C590 C591 1.363 . S
C590 C595 1.379 . S
C590 N597 1.356 . S
C591 C590 1.363 . S
C591 C594 1.363 . S
N592 C594 1.356 . S
N592 H604 0.984 . S
N592 H605 0.985 . S
N593 C595 1.356 . S
N593 H598 0.984 . S
N593 H599 0.985 . S
C594 C588 1.379 . S
C594 C591 1.363 . S
C594 N592 1.356 . S
C595 C589 1.363 . S
C595 C590 1.379 . S
C595 N593 1.356 . S
N596 C588 1.356 . S
N596 H602 0.984 . S
N596 H603 0.984 . S
N597 C590 1.356 . S
N597 H600 0.984 . S
N597 H601 0.985 . S
H598 N593 0.984 . S
H599 N593 0.985 . S
H600 N597 0.984 . S
H601 N597 0.985 . S
H602 N596 0.984 . S
H603 N596 0.984 . S
H604 N592 0.984 . S
H605 N592 0.985 . S
C606 C607 1.363 . S
C606 C612 1.379 . S
C606 N614 1.356 . S
C607 C606 1.363 . S
C607 C613 1.363 . S
C608 C609 1.363 . S
C608 C613 1.379 . S
C608 N615 1.356 . S
C609 C608 1.363 . S
C609 C612 1.363 . S
N610 C612 1.356 . S
N610 H622 0.984 . S
N610 H623 0.985 . S
N611 C613 1.356 . S
N611 H616 0.984 . S
N611 H617 0.985 . S
C612 C606 1.379 . S
C612 C609 1.363 . S
C612 N610 1.356 . S
C613 C607 1.363 . S
C613 C608 1.379 . S
C613 N611 1.356 . S
N614 C606 1.356 . S
N614 H620 0.984 . S
N614 H621 0.984 . S
N615 C608 1.356 . S
N615 H618 0.984 . S
N615 H619 0.985 . S
H616 N611 0.984 . S
H617 N611 0.985 . S
H618 N615 0.984 . S
H619 N615 0.985 . S
H620 N614 0.984 . S
H621 N614 0.984 . S
H622 N610 0.984 . S
H623 N610 0.985 . S
C624 C625 1.363 . S
C624 C630 1.379 . S
C624 N632 1.356 . S
C625 C624 1.363 . S
C625 C631 1.363 . S
C626 C627 1.363 . S
C626 C631 1.379 . S
C626 N633 1.356 . S
C627 C626 1.363 . S
C627 C630 1.363 . S
N628 C630 1.356 . S
N628 H640 0.984 . S
N628 H641 0.985 . S
N629 C631 1.356 . S
N629 H634 0.984 . S
N629 H635 0.985 . S
C630 C624 1.379 . S
C630 C627 1.363 . S
C630 N628 1.356 . S
C631 C625 1.363 . S
C631 C626 1.379 . S
C631 N629 1.356 . S
N632 C624 1.356 . S
N632 H638 0.984 . S
N632 H639 0.984 . S
N633 C626 1.356 . S
N633 H636 0.984 . S
N633 H637 0.985 . S
H634 N629 0.984 . S
H635 N629 0.985 . S
H636 N633 0.984 . S
H637 N633 0.985 . S
H638 N632 0.984 . S
H639 N632 0.984 . S
H640 N628 0.984 . S
H641 N628 0.985 . S
C642 C643 1.363 . S
C642 C648 1.379 . S
C642 N650 1.356 . S
C643 C642 1.363 . S
C643 C649 1.363 . S
C644 C645 1.363 . S
C644 C649 1.379 . S
C644 N651 1.356 . S
C645 C644 1.363 . S
C645 C648 1.363 . S
N646 C648 1.356 . S
N646 H658 0.984 . S
N646 H659 0.985 . S
N647 C649 1.356 . S
N647 H652 0.984 . S
N647 H653 0.985 . S
C648 C642 1.379 . S
C648 C645 1.363 . S
C648 N646 1.356 . S
C649 C643 1.363 . S
C649 C644 1.379 . S
C649 N647 1.356 . S
N650 C642 1.356 . S
N650 H656 0.984 . S
N650 H657 0.984 . S
N651 C644 1.356 . S
N651 H654 0.984 . S
N651 H655 0.985 . S
H652 N647 0.984 . S
H653 N647 0.985 . S
H654 N651 0.984 . S
H655 N651 0.985 . S
H656 N650 0.984 . S
H657 N650 0.984 . S
H658 N646 0.984 . S
H659 N646 0.985 . S
C660 C661 1.363 . S
C660 C666 1.379 . S
C660 N668 1.356 . S
C661 C660 1.363 . S
C661 C667 1.363 . S
C662 C663 1.363 . S
C662 C667 1.379 . S
C662 N669 1.356 . S
C663 C662 1.363 . S
C663 C666 1.363 . S
N664 C666 1.356 . S
N664 H676 0.984 . S
N664 H677 0.985 . S
N665 C667 1.356 . S
N665 H670 0.984 . S
N665 H671 0.985 . S
C666 C660 1.379 . S
C666 C663 1.363 . S
C666 N664 1.356 . S
C667 C661 1.363 . S
C667 C662 1.379 . S
C667 N665 1.356 . S
N668 C660 1.356 . S
N668 H674 0.984 . S
N668 H675 0.984 . S
N669 C662 1.356 . S
N669 H672 0.984 . S
N669 H673 0.985 . S
H670 N665 0.984 . S
H671 N665 0.985 . S
H672 N669 0.984 . S
H673 N669 0.985 . S
H674 N668 0.984 . S
H675 N668 0.984 . S
H676 N664 0.984 . S
H677 N664 0.985 . S
C678 C679 1.363 . S
C678 C684 1.379 . S
C678 N686 1.356 . S
C679 C678 1.363 . S
C679 C685 1.363 . S
C680 C681 1.363 . S
C680 C685 1.379 . S
C680 N687 1.356 . S
C681 C680 1.363 . S
C681 C684 1.363 . S
N682 C684 1.356 . S
N682 H694 0.984 . S
N682 H695 0.985 . S
N683 C685 1.356 . S
N683 H688 0.984 . S
N683 H689 0.985 . S
C684 C678 1.379 . S
C684 C681 1.363 . S
C684 N682 1.356 . S
C685 C679 1.363 . S
C685 C680 1.379 . S
C685 N683 1.356 . S
N686 C678 1.356 . S
N686 H692 0.984 . S
N686 H693 0.984 . S
N687 C680 1.356 . S
N687 H690 0.984 . S
N687 H691 0.985 . S
H688 N683 0.984 . S
H689 N683 0.985 . S
H690 N687 0.984 . S
H691 N687 0.985 . S
H692 N686 0.984 . S
H693 N686 0.984 . S
H694 N682 0.984 . S
H695 N682 0.985 . S
C265 C7 1.749 . S
C267 C147 1.591 . S
C283 C30 1.539 . S
C285 C168 1.405 . S
C303 C189 1.487 . S
C301 N58 1.591 . S
C321 C218 1.417 . S
C319 N81 1.386 . S
C339 C231 1.541 . S
C337 C99 1.643 . S
C357 C255 1.425 . S
C355 N127 1.422 . S
C373 N25 1.595 . S
C375 C199 1.497 . S
C391 C62 1.545 . S
C393 C213 1.489 . S
C411 C241 1.562 . S
C409 C85 1.697 . S
C429 C260 1.439 . S
C427 N94 1.456 . S
C445 C131 1.682 . S
C447 C157 1.592 . S
C465 C178 1.335 . S
C463 N2 1.389 . S
C483 C220 1.630 . S
C481 C16 1.742 . S
C499 C39 1.546 . S
C501 C234 1.355 . S
C519 C252 1.583 . S
C517 N48 1.631 . S
C535 N71 1.414 . S
C537 C150 1.285 . S
C553 C108 1.669 . S
C555 C171 1.505 . S
C571 N117 1.459 . S
C573 C192 1.285 . S
C589 N35 1.607 . S
C591 C262 1.577 . S
C609 C155 1.389 . S
C607 C53 1.580 . S
C625 C76 1.768 . S
C627 C176 1.554 . S
C643 N104 1.458 . S
C645 C197 1.305 . S
C661 C122 1.660 . S
C663 C210 1.598 . S
C679 N12 1.384 . S
C681 C239 1.287 . S
