# Generated by pormake.
# Topology anh, (6,3)-cn, num edge types: 1
# Building blocks:
#     Node 0, Type 0, BuildingBlock: BETGAK_clean_sbu_0, # of connection points: 6
#     Node 1, Type 0, BuildingBlock: BETGAK_clean_sbu_0, # of connection points: 6
#     Node 2, Type 0, BuildingBlock: BETGAK_clean_sbu_0, # of connection points: 6
#     Node 3, Type 1, BuildingBlock: PAMTOO_clean_linker_0, # of connection points: 3
#     Node 4, Type 1, BuildingBlock: PAMTOO_clean_linker_0, # of connection points: 3
#     Node 5, Type 1, BuildingBlock: PAMTOO_clean_linker_0, # of connection points: 3
#     Node 6, Type 1, BuildingBlock: PAMTOO_clean_linker_0, # of connection points: 3
#     Node 7, Type 1, BuildingBlock: PAMTOO_clean_linker_0, # of connection points: 3
#     Node 8, Type 1, BuildingBlock: PAMTOO_clean_linker_0, # of connection points: 3
#     Edge 9, Type (0, 1), BuildingBlock: MIFKUJ_clean_linker_0, # of connection points: 2
#     Edge 10, Type (0, 1), BuildingBlock: MIFKUJ_clean_linker_0, # of connection points: 2
#     Edge 11, Type (0, 1), BuildingBlock: MIFKUJ_clean_linker_0, # of connection points: 2
#     Edge 12, Type (0, 1), BuildingBlock: MIFKUJ_clean_linker_0, # of connection points: 2
#     Edge 13, Type (0, 1), BuildingBlock: MIFKUJ_clean_linker_0, # of connection points: 2
#     Edge 14, Type (0, 1), BuildingBlock: MIFKUJ_clean_linker_0, # of connection points: 2
#     Edge 15, Type (0, 1), BuildingBlock: MIFKUJ_clean_linker_0, # of connection points: 2
#     Edge 16, Type (0, 1), BuildingBlock: MIFKUJ_clean_linker_0, # of connection points: 2
#     Edge 17, Type (0, 1), BuildingBlock: MIFKUJ_clean_linker_0, # of connection points: 2
#     Edge 18, Type (0, 1), BuildingBlock: MIFKUJ_clean_linker_0, # of connection points: 2
#     Edge 19, Type (0, 1), BuildingBlock: MIFKUJ_clean_linker_0, # of connection points: 2
#     Edge 20, Type (0, 1), BuildingBlock: MIFKUJ_clean_linker_0, # of connection points: 2
#     Edge 21, Type (0, 1), BuildingBlock: MIFKUJ_clean_linker_0, # of connection points: 2
#     Edge 22, Type (0, 1), BuildingBlock: MIFKUJ_clean_linker_0, # of connection points: 2
#     Edge 23, Type (0, 1), BuildingBlock: MIFKUJ_clean_linker_0, # of connection points: 2
#     Edge 24, Type (0, 1), BuildingBlock: MIFKUJ_clean_linker_0, # of connection points: 2
#     Edge 25, Type (0, 1), BuildingBlock: MIFKUJ_clean_linker_0, # of connection points: 2
#     Edge 26, Type (0, 1), BuildingBlock: MIFKUJ_clean_linker_0, # of connection points: 2
# Relax obj value: 0.136
# Max RMSD: 0.166
# Mean RMSD: 0.120
data_MOF--net-anh--node1-BETGAK_clean_sbu_0--node2-PAMTOO_clean_linker_0--edge1-MIFKUJ_clean_linker_0
_symmetry_space_group_name_H-M    P1
_symmetry_Int_Tables_number       1
_symmetry_cell_setting            triclinic
loop_
_symmetry_equiv_pos_as_xyz
'x, y, z'
_cell_length_a     39.269969
_cell_length_b     46.76241
_cell_length_c     64.026315
_cell_angle_alpha  88.622596
_cell_angle_beta   91.585758
_cell_angle_gamma 128.21523
loop_
_atom_site_label
_atom_site_type_symbol
_atom_site_fract_x
_atom_site_fract_y
_atom_site_fract_z
_atom_type_partial_charge
La0 La 0.17183 0.55318 0.15164 0.0
La1 La 0.12234 0.5794 0.16505 0.0
C2 C 0.22025 0.54297 0.13434 0.0
C3 C 0.25708 0.5444 0.14171 0.0
C4 C 0.25601 0.52966 0.16127 0.0
C5 C 0.28826 0.52682 0.16711 0.0
C6 C 0.32276 0.53924 0.15367 0.0
C7 C 0.32539 0.5565 0.13475 0.0
C8 C 0.29261 0.55881 0.12876 0.0
C9 C 0.15909 0.54881 0.19212 0.0
C10 C 0.22114 0.63868 0.1592 0.0
C11 C 1.07491 0.58817 0.18492 0.0
C12 C 1.03205 0.56378 0.19442 0.0
C13 C 1.00879 0.57669 0.19818 0.0
C14 C 0.96578 0.55269 0.20456 0.0
C15 C 0.94534 0.51535 0.20694 0.0
C16 C 0.96937 0.50277 0.20409 0.0
C17 C 1.01269 0.52698 0.19822 0.0
C18 C 0.13746 0.58451 0.12465 0.0
C19 C 1.07247 0.49569 0.1552 0.0
O20 O 0.18278 0.51697 0.1424 0.0
O21 O 0.2266 0.57389 0.13331 0.0
O22 O 0.16378 0.52774 0.18224 0.0
O23 O 0.16691 0.57351 0.17992 0.0
O24 O 0.22143 0.61309 0.15083 0.0
O25 O 0.18619 0.63106 0.16783 0.0
O26 O 1.07512 0.5872 0.16451 0.0
O27 O 0.10543 0.58816 0.19364 0.0
O28 O 0.13477 0.60694 0.13455 0.0
O29 O 0.12802 0.55927 0.13684 0.0
O30 O 1.07435 0.5198 0.16667 0.0
O31 O 0.10599 0.50538 0.14402 0.0
H32 H 0.2292 0.51879 0.17171 0.0
H33 H 0.28451 0.51285 0.18162 0.0
H34 H 0.3519 0.56702 0.12419 0.0
H35 H 0.29431 0.57077 0.11374 0.0
H36 H 1.02332 0.60505 0.1954 0.0
H37 H 0.94772 0.56295 0.20635 0.0
H38 H 0.95433 0.47412 0.20591 0.0
H39 H 1.03054 0.51671 0.19602 0.0
La40 La 0.66181 0.03479 0.48778 0.0
La41 La 0.60735 0.05715 0.47459 0.0
C42 C 0.69178 1.00678 0.50694 0.0
C43 C 0.68172 0.97082 0.50854 0.0
C44 C 0.66726 0.94806 0.49111 0.0
C45 C 0.6596 0.91463 0.4929 0.0
C46 C 0.66567 0.90322 0.51219 0.0
C47 C 0.67925 0.92577 0.52967 0.0
C48 C 0.68735 0.95932 0.52783 0.0
C49 C 0.65808 0.04334 0.44722 0.0
C50 C 0.55997 0.97415 0.47849 0.0
C51 C 0.57676 0.08652 0.45791 0.0
C52 C 0.5849 0.12147 0.46088 0.0
C53 C 0.5508 0.12335 0.45818 0.0
C54 C 0.55706 0.1555 0.46255 0.0
C55 C 0.59769 0.18652 0.46966 0.0
C56 C 0.63201 0.18463 0.47196 0.0
C57 C 0.62559 0.15238 0.46776 0.0
C58 C 0.61352 0.05034 0.51532 0.0
C59 C 0.71011 0.11734 0.48147 0.0
O60 O 0.70609 0.0238 0.48896 0.0
O61 O 0.66341 1.00932 0.51489 0.0
O62 O 0.69129 0.04945 0.45697 0.0
O63 O 0.62735 0.02975 0.45971 0.0
O64 O 0.59533 0.98288 0.4884 0.0
O65 O 0.55973 0.99918 0.46855 0.0
O66 O 0.55925 0.06396 0.47377 0.0
O67 O 0.60813 0.08799 0.44988 0.0
O68 O 0.57973 0.04358 0.50595 0.0
O69 O 0.64303 0.06326 0.50228 0.0
O70 O 0.67405 0.1081 0.47214 0.0
O71 O 0.71093 0.09312 0.49204 0.0
H72 H 0.66227 0.95624 0.4761 0.0
H73 H 0.64878 0.89764 0.47923 0.0
H74 H 0.6846 0.91784 0.54469 0.0
H75 H 0.69848 0.97651 0.54144 0.0
H76 H 0.51901 0.09966 0.45313 0.0
H77 H 0.52966 0.15566 0.46091 0.0
H78 H 0.66389 0.20802 0.47709 0.0
H79 H 0.65227 0.1515 0.47021 0.0
La80 La 0.6843 0.57691 0.84049 0.0
La81 La 0.62306 0.49573 0.8444 0.0
C82 C 0.72039 0.64105 0.82802 0.0
C83 C 0.70733 0.66457 0.82552 0.0
C84 C 0.69324 0.67311 0.84254 0.0
C85 C 0.68186 0.69602 0.83976 0.0
C86 C 0.68388 0.71041 0.8199 0.0
C87 C 0.69711 0.70124 0.80286 0.0
C88 C 0.70898 0.67873 0.80568 0.0
C89 C 0.66814 0.55085 0.8789 0.0
C90 C 0.58115 0.5352 0.84325 0.0
C91 C 0.58527 0.43034 0.855 0.0
C92 C 0.59096 0.40243 0.85101 0.0
C93 C 0.56584 0.3763 0.83544 0.0
C94 C 0.57058 0.34967 0.83158 0.0
C95 C 0.60022 0.34818 0.84337 0.0
C96 C 0.62529 0.37427 0.85902 0.0
C97 C 0.62069 0.40106 0.86282 0.0
C98 C 0.6387 0.52126 0.80588 0.0
C99 C 0.72731 0.53853 0.84331 0.0
O100 O 0.72442 0.63269 0.84712 0.0
O101 O 0.70098 0.61311 0.8155 0.0
O102 O 0.70529 0.58045 0.87324 0.0
O103 O 0.64177 0.53906 0.86387 0.0
O104 O 0.61953 0.56421 0.83657 0.0
O105 O 0.57664 0.50615 0.85047 0.0
O106 O 0.57331 0.44031 0.83897 0.0
O107 O 0.61494 0.45812 0.86654 0.0
O108 O 0.60192 0.49195 0.81193 0.0
O109 O 0.66568 0.53332 0.82073 0.0
O110 O 0.68791 0.50836 0.84803 0.0
O111 O 0.73306 0.5686 0.8373 0.0
H112 H 0.69122 0.66233 0.85801 0.0
H113 H 0.67142 0.70245 0.85311 0.0
H114 H 0.69938 0.71226 0.78742 0.0
H115 H 0.7198 0.67257 0.79236 0.0
H116 H 0.54244 0.37642 0.82615 0.0
H117 H 0.55118 0.3304 0.81919 0.0
H118 H 0.64798 0.37364 0.86861 0.0
H119 H 0.64028 0.42055 0.87509 0.0
H120 H 0.71889 0.13908 0.22691 0.0
H121 H 0.61849 0.02484 0.21593 0.0
H122 H 0.68789 0.09753 0.16421 0.0
H123 H 0.5962 0.02905 0.14886 0.0
C124 C 0.58886 0.02006 0.16545 0.0
O125 O 0.62626 0.02957 0.17541 0.0
H126 H 0.57748 0.03425 0.17263 0.0
C127 C 0.69966 0.11649 0.2162 0.0
C128 C 0.70708 0.12284 0.19464 0.0
C129 C 0.6681 0.08127 0.22411 0.0
C130 C 0.64294 0.05221 0.21014 0.0
C131 C 0.65011 0.05807 0.18861 0.0
C132 C 0.68251 0.09325 0.18089 0.0
H133 H 0.6675 0.61457 0.58761 0.0
H134 H 0.66968 0.52501 0.57738 0.0
H135 H 0.64646 0.57153 0.52583 0.0
H136 H 0.59434 0.49215 0.52217 0.0
C137 C 0.61257 0.48774 0.5336 0.0
O138 O 0.65268 0.52071 0.53738 0.0
H139 H 0.59365 0.47643 0.54825 0.0
C140 C 0.66514 0.5955 0.57717 0.0
C141 C 0.65668 0.59646 0.5558 0.0
C142 C 0.67005 0.57001 0.58525 0.0
C143 C 0.66617 0.54503 0.57157 0.0
C144 C 0.65762 0.54562 0.55023 0.0
C145 C 0.65341 0.57154 0.54232 0.0
H146 H 0.0875 0.5513 0.90171 0.0
H147 H 0.20442 0.56263 0.89753 0.0
H148 H 0.12887 0.54353 0.84187 0.0
H149 H 0.18566 0.51281 0.83896 0.0
C150 C 0.20079 0.52486 0.85445 0.0
O151 O 0.20084 0.55436 0.85738 0.0
H152 H 0.17989 0.50319 0.86627 0.0
C153 C 0.11042 0.55176 0.89232 0.0
C154 C 0.10295 0.54642 0.87067 0.0
C155 C 0.14671 0.55776 0.90218 0.0
C156 C 0.17612 0.55779 0.89015 0.0
C157 C 0.17009 0.55248 0.86847 0.0
C158 C 0.13353 0.54722 0.85862 0.0
H159 H 1.06352 0.47332 0.41298 0.0
H160 H 0.17767 0.58363 0.42383 0.0
H161 H 0.11092 0.51058 0.47563 0.0
H162 H 0.16367 0.59156 0.49018 0.0
C163 C 0.17261 0.59994 0.4736 0.0
O164 O 0.17768 0.57645 0.4643 0.0
H165 H 0.14568 0.59849 0.46599 0.0
C166 C 0.08647 0.49507 0.4236 0.0
C167 C 0.08221 0.48796 0.44521 0.0
C168 C 0.12068 0.52938 0.41554 0.0
C169 C 0.15122 0.55679 0.42954 0.0
C170 C 0.14773 0.54989 0.4511 0.0
C171 C 0.11348 0.51549 0.45891 0.0
H172 H 0.65603 0.9848 0.7341 0.0
H173 H 0.65073 0.07194 0.74668 0.0
H174 H 0.65375 1.01227 0.7976 0.0
H175 H 0.60837 0.04065 0.81089 0.0
C176 C 0.6138 0.05545 0.79597 0.0
O177 O 0.65176 0.0657 0.7873 0.0
H178 H 0.58572 0.03675 0.78528 0.0
C179 C 0.65501 1.00138 0.7452 0.0
C180 C 0.65465 0.99463 0.76676 0.0
C181 C 0.65346 0.02906 0.73776 0.0
C182 C 0.65191 0.05044 0.75212 0.0
C183 C 0.6526 0.04459 0.77362 0.0
C184 C 0.65416 0.01691 0.78092 0.0
H185 H 0.59798 0.40039 0.09323 0.0
H186 H 0.46819 0.35861 0.07566 0.0
H187 H 0.50182 0.36229 0.1401 0.0
H188 H 0.42506 0.30152 0.13224 0.0
C189 C 0.41018 0.31325 0.12475 0.0
O190 O 0.44005 0.34458 0.11353 0.0
H191 H 0.38364 0.29247 0.1141 0.0
C192 C 0.56518 0.38862 0.09753 0.0
C193 C 0.55361 0.38162 0.11868 0.0
C194 C 0.5352 0.3816 0.08183 0.0
C195 C 0.49186 0.36373 0.08732 0.0
C196 C 0.47978 0.35606 0.10828 0.0
C197 C 0.51089 0.36605 0.12389 0.0
H198 H 0.35532 0.51887 0.12564 0.0
H199 H 0.38505 0.48719 0.13331 0.0
H200 H 0.38289 0.50222 0.19928 0.0
H201 H 0.35479 0.53578 0.19176 0.0
H202 H 0.45247 0.49362 0.15671 0.0
H203 H 0.32721 0.41469 0.21916 0.0
H204 H 0.26293 0.40593 0.23262 0.0
H205 H 0.23033 0.41992 0.17063 0.0
H206 H 0.29397 0.42815 0.15683 0.0
H207 H 0.44461 0.34052 0.16363 0.0
H208 H 0.43703 0.38103 0.18267 0.0
H209 H 0.33263 0.35292 0.14087 0.0
H210 H 0.34088 0.31323 0.12153 0.0
H211 H 0.32734 0.37244 0.18323 0.0
H212 H 0.42771 0.41917 0.12228 0.0
H213 H 0.48825 0.42626 0.10525 0.0
H214 H 0.56646 0.47444 0.16094 0.0
H215 H 0.50636 0.46785 0.1782 0.0
C216 C 0.36302 0.51718 0.14176 0.0
C217 C 0.35162 0.52923 0.1581 0.0
C218 C 0.38004 0.49889 0.14612 0.0
C219 C 0.38546 0.49189 0.16686 0.0
C220 C 0.37853 0.50714 0.18317 0.0
C221 C 0.36202 0.52594 0.17882 0.0
C222 C 0.38977 0.46303 0.17093 0.0
C223 C 0.42583 0.46749 0.16318 0.0
C224 C 0.35473 0.42878 0.17911 0.0
C225 C 0.31547 0.42238 0.18706 0.0
C226 C 0.30614 0.41568 0.20843 0.0
C227 C 0.26985 0.41082 0.2161 0.0
C228 C 0.24264 0.41247 0.2025 0.0
C229 C 0.25147 0.41872 0.18116 0.0
C230 C 0.28759 0.42343 0.17341 0.0
C231 C 0.41873 0.34171 0.15915 0.0
C232 C 0.39345 0.32399 0.14107 0.0
C233 C 0.41443 0.36481 0.17004 0.0
C234 C 0.38462 0.37018 0.163 0.0
C235 C 0.35565 0.34892 0.14661 0.0
C236 C 0.36028 0.32618 0.13558 0.0
C237 C 0.38991 0.40306 0.16892 0.0
C238 C 0.35531 0.39918 0.17813 0.0
C239 C 0.42618 0.43782 0.162 0.0
C240 C 0.46273 0.44301 0.15148 0.0
C241 C 0.45792 0.4314 0.13082 0.0
C242 C 0.49209 0.4353 0.12115 0.0
C243 C 0.53114 0.45071 0.13202 0.0
C244 C 0.5362 0.46252 0.15254 0.0
C245 C 0.50218 0.45884 0.16224 0.0
H246 H 0.55746 0.45348 0.12455 0.0
H247 H 0.21467 0.40885 0.20848 0.0
H248 H 0.7877 0.14986 0.50255 0.0
H249 H 0.8535 0.2131 0.49933 0.0
H250 H 0.788 0.23468 0.45431 0.0
H251 H 0.72271 0.17176 0.45713 0.0
H252 H 0.86672 0.26047 0.44106 0.0
H253 H 0.80616 0.26449 0.50446 0.0
H254 H 0.77823 0.24565 0.54026 0.0
H255 H 0.90055 0.27523 0.56208 0.0
H256 H 0.92904 0.2938 0.52632 0.0
H257 H 0.99751 0.44916 0.43322 0.0
H258 H 0.93725 0.38655 0.4426 0.0
H259 H 1.02173 0.38138 0.48411 0.0
H260 H 0.08257 0.44447 0.47473 0.0
H261 H 0.93904 0.34613 0.50046 0.0
H262 H 1.001 0.34575 0.43735 0.0
H263 H 1.02899 0.36533 0.40161 0.0
H264 H 0.90383 0.32846 0.37918 0.0
H265 H 0.87524 0.3092 0.41488 0.0
C266 C 0.78728 0.16812 0.49202 0.0
C267 C 0.7498 0.15575 0.4802 0.0
C268 C 0.82486 0.20429 0.49027 0.0
C269 C 0.82559 0.2287 0.47668 0.0
C270 C 0.7882 0.21636 0.4649 0.0
C271 C 0.75074 0.18035 0.46665 0.0
C272 C 0.86543 0.26691 0.47415 0.0
C273 C 0.88226 0.27925 0.45403 0.0
C274 C 0.88659 0.29114 0.49118 0.0
C275 C 0.86956 0.28013 0.51268 0.0
C276 C 0.82699 0.26669 0.51686 0.0
C277 C 0.81107 0.25611 0.53715 0.0
C278 C 0.83755 0.25913 0.55342 0.0
C279 C 0.88005 0.27284 0.54945 0.0
C280 C 0.8961 0.28342 0.52918 0.0
C281 C 1.00327 0.43478 0.44443 0.0
C282 C 1.04492 0.45153 0.453 0.0
C283 C 0.96878 0.39903 0.4498 0.0
C284 C 0.9752 0.37908 0.46374 0.0
C285 C 1.01616 0.39627 0.47324 0.0
C286 C 1.05082 0.43227 0.46791 0.0
C287 C 0.93951 0.33977 0.46729 0.0
C288 C 0.92364 0.32722 0.48755 0.0
C289 C 0.91915 0.31519 0.4504 0.0
C290 C 0.93606 0.32628 0.42884 0.0
C291 C 0.97951 0.34203 0.42483 0.0
C292 C 0.99548 0.35306 0.40457 0.0
C293 C 0.96823 0.34821 0.38814 0.0
C294 C 0.92491 0.33222 0.39193 0.0
C295 C 0.90879 0.32121 0.41217 0.0
H296 H 0.98066 0.35678 0.37247 0.0
H297 H 0.82517 0.25094 0.56912 0.0
H298 H 0.63193 0.70902 0.79003 0.0
H299 H 0.62162 0.75499 0.78328 0.0
H300 H 0.70451 0.81645 0.83621 0.0
H301 H 0.71402 0.77006 0.84328 0.0
H302 H 0.63958 0.81995 0.8338 0.0
H303 H 0.74356 0.83789 0.78623 0.0
H304 H 0.77098 0.81996 0.75949 0.0
H305 H 0.66909 0.79439 0.71711 0.0
H306 H 0.64067 0.81168 0.74373 0.0
H307 H 0.69916 0.99307 0.80008 0.0
H308 H 0.69927 0.94268 0.81133 0.0
H309 H 0.60894 0.8765 0.76151 0.0
H310 H 0.60804 0.92632 0.75042 0.0
H311 H 0.67772 0.87577 0.76292 0.0
H312 H 0.57568 0.86048 0.81128 0.0
H313 H 0.55102 0.88021 0.8384 0.0
H314 H 0.65343 0.90376 0.87966 0.0
H315 H 0.67909 0.88464 0.85266 0.0
C316 C 0.64767 0.73224 0.80028 0.0
C317 C 0.67418 0.73626 0.81701 0.0
C318 C 0.64181 0.75848 0.79643 0.0
C319 C 0.66309 0.7896 0.80897 0.0
C320 C 0.68791 0.79276 0.82628 0.0
C321 C 0.69335 0.76628 0.8303 0.0
C322 C 0.66144 0.81975 0.80334 0.0
C323 C 0.64835 0.83241 0.81837 0.0
C324 C 0.6725 0.83584 0.78315 0.0
C325 C 0.68975 0.82574 0.76704 0.0
C326 C 0.72683 0.82821 0.77126 0.0
C327 C 0.74257 0.81819 0.75612 0.0
C328 C 0.72172 0.80595 0.73664 0.0
C329 C 0.68516 0.80382 0.73223 0.0
C330 C 0.66924 0.81375 0.74732 0.0
C331 C 0.67886 0.96762 0.79171 0.0
C332 C 0.65385 0.96385 0.77425 0.0
C333 C 0.67901 0.93887 0.79814 0.0
C334 C 0.65402 0.90581 0.78728 0.0
C335 C 0.62864 0.90184 0.77004 0.0
C336 C 0.62837 0.93044 0.76366 0.0
C337 C 0.65546 0.87573 0.79329 0.0
C338 C 0.66878 0.86321 0.77833 0.0
C339 C 0.64507 0.86013 0.81358 0.0
C340 C 0.62956 0.87147 0.82986 0.0
C341 C 0.59316 0.87015 0.82607 0.0
C342 C 0.57896 0.88117 0.84143 0.0
C343 C 0.60071 0.89332 0.86072 0.0
C344 C 0.63665 0.89439 0.8647 0.0
C345 C 0.65101 0.88343 0.84938 0.0
H346 H 0.58967 0.90184 0.8726 0.0
H347 H 0.73395 0.7982 0.72494 0.0
H348 H 0.88867 0.45701 0.1827 0.0
H349 H 0.81107 0.42499 0.17941 0.0
H350 H 0.81642 0.48236 0.23286 0.0
H351 H 0.89512 0.51607 0.23545 0.0
H352 H 0.73752 0.38383 0.19712 0.0
H353 H 0.75461 0.50834 0.22291 0.0
H354 H 0.8113 0.5741 0.22896 0.0
H355 H 0.89044 0.57745 0.18243 0.0
H356 H 0.83397 0.51188 0.17594 0.0
H357 H 0.54327 0.34574 0.15558 0.0
H358 H 0.59899 0.3623 0.18184 0.0
H359 H 0.69454 0.45659 0.14488 0.0
H360 H 0.63877 0.44204 0.11967 0.0
H361 H 0.7124 0.47425 0.18285 0.0
H362 H 0.67415 0.36991 0.1433 0.0
H363 H 0.62395 0.30668 0.13073 0.0
H364 H 0.59732 0.26706 0.19407 0.0
H365 H 0.64707 0.33014 0.20699 0.0
C366 C 0.87311 0.46198 0.19416 0.0
C367 C 0.89781 0.48941 0.20908 0.0
C368 C 0.82862 0.44356 0.19232 0.0
C369 C 0.80801 0.45196 0.20554 0.0
C370 C 0.83183 0.47613 0.22214 0.0
C371 C 0.87667 0.49528 0.22366 0.0
C372 C 0.76424 0.4401 0.19951 0.0
C373 C 0.73169 0.40347 0.19435 0.0
C374 C 0.75662 0.46571 0.19567 0.0
C375 C 0.7904 0.50522 0.19918 0.0
C376 C 0.78408 0.52319 0.21396 0.0
C377 C 0.81615 0.5604 0.21745 0.0
C378 C 0.85452 0.57991 0.20615 0.0
C379 C 0.86078 0.5623 0.19122 0.0
C380 C 0.82875 0.52514 0.18761 0.0
C381 C 0.57599 0.37042 0.15327 0.0
C382 C 0.58666 0.39216 0.13525 0.0
C383 C 0.6079 0.37965 0.16822 0.0
C384 C 0.65119 0.4103 0.16518 0.0
C385 C 0.66145 0.43271 0.14761 0.0
C386 C 0.62956 0.42396 0.13295 0.0
C387 C 0.68676 0.41842 0.17931 0.0
C388 C 0.71751 0.45429 0.18625 0.0
C389 C 0.69357 0.39248 0.18383 0.0
C390 C 0.6638 0.35465 0.17609 0.0
C391 C 0.65735 0.34769 0.15453 0.0
C392 C 0.62903 0.31191 0.14735 0.0
C393 C 0.60733 0.28288 0.16159 0.0
C394 C 0.61404 0.28957 0.18305 0.0
C395 C 0.64229 0.32532 0.19031 0.0
H396 H 0.58542 0.25519 0.15601 0.0
H397 H 0.87934 0.60868 0.20892 0.0
H398 H 0.48424 0.94489 0.45664 0.0
H399 H 0.42005 0.88108 0.45508 0.0
H400 H 0.48276 0.8517 0.49642 0.0
H401 H 0.54752 0.91542 0.49774 0.0
H402 H 0.44119 0.80383 0.46554 0.0
H403 H 0.40542 0.85734 0.51419 0.0
H404 H 0.39675 0.90195 0.52667 0.0
H405 H 0.30398 0.87186 0.4774 0.0
H406 H 0.31255 0.8274 0.46444 0.0
H407 H 0.24869 0.6281 0.49467 0.0
H408 H 0.3159 0.69116 0.49446 0.0
H409 H 0.25739 0.7208 0.45021 0.0
H410 H 0.19029 0.65782 0.45043 0.0
H411 H 0.29706 0.76822 0.48274 0.0
H412 H 0.33274 0.71341 0.43467 0.0
H413 H 0.3415 0.66842 0.4231 0.0
H414 H 0.43444 0.70036 0.4726 0.0
H415 H 0.42576 0.7452 0.48466 0.0
C416 C 0.48447 0.92489 0.46542 0.0
C417 C 0.52102 0.93537 0.47742 0.0
C418 C 0.44761 0.88839 0.46455 0.0
C419 C 0.44628 0.86159 0.47586 0.0
C420 C 0.48297 0.87187 0.48759 0.0
C421 C 0.51995 0.90838 0.48839 0.0
C422 C 0.4065 0.82292 0.47553 0.0
C423 C 0.40977 0.79599 0.46957 0.0
C424 C 0.36532 0.81268 0.48043 0.0
C425 C 0.35995 0.83929 0.48823 0.0
C426 C 0.38342 0.86043 0.50592 0.0
C427 C 0.37848 0.88566 0.5131 0.0
C428 C 0.34992 0.8898 0.5028 0.0
C429 C 0.32614 0.86865 0.48534 0.0
C430 C 0.331 0.84341 0.47808 0.0
C431 C 0.25045 0.64814 0.48483 0.0
C432 C 0.21437 0.6383 0.4727 0.0
C433 C 0.28878 0.68405 0.48466 0.0
C434 C 0.29172 0.71069 0.47226 0.0
C435 C 0.25581 0.70073 0.45993 0.0
C436 C 0.21757 0.6648 0.46003 0.0
C437 C 0.33171 0.74919 0.47264 0.0
C438 C 0.32848 0.77608 0.47868 0.0
C439 C 0.37291 0.7593 0.46796 0.0
C440 C 0.37826 0.73241 0.4607 0.0
C441 C 0.35477 0.71063 0.4432 0.0
C442 C 0.35977 0.68519 0.43653 0.0
C443 C 0.38842 0.68146 0.44714 0.0
C444 C 0.41221 0.70323 0.46441 0.0
C445 C 0.40728 0.72869 0.47116 0.0
H446 H 0.39226 0.66176 0.44195 0.0
H447 H 0.34613 0.90935 0.50838 0.0
H448 H 0.67438 0.35406 0.84374 0.0
H449 H 0.68077 0.3063 0.83707 0.0
H450 H 0.54252 0.22954 0.82657 0.0
H451 H 0.53559 0.27653 0.83425 0.0
H452 H 0.5687 0.19893 0.84927 0.0
H453 H 0.61656 0.27049 0.78578 0.0
H454 H 0.6617 0.32689 0.76479 0.0
H455 H 0.77623 0.34082 0.7851 0.0
H456 H 0.73178 0.28471 0.80644 0.0
H457 H 0.54842 0.06077 0.79336 0.0
H458 H 0.55048 0.11237 0.8025 0.0
H459 H 0.68622 0.17503 0.81878 0.0
H460 H 0.68423 0.12327 0.80978 0.0
H461 H 0.66668 0.21463 0.79482 0.0
H462 H 0.61728 0.14052 0.85669 0.0
H463 H 0.57129 0.08368 0.87722 0.0
H464 H 0.45852 0.07421 0.85932 0.0
H465 H 0.50379 0.13075 0.83842 0.0
C466 C 0.64526 0.32692 0.84026 0.0
C467 C 0.60448 0.31925 0.83942 0.0
C468 C 0.64903 0.29972 0.83621 0.0
C469 C 0.6122 0.26441 0.831 0.0
C470 C 0.57145 0.25659 0.83045 0.0
C471 C 0.5676 0.28365 0.83464 0.0
C472 C 0.61576 0.23541 0.82617 0.0
C473 C 0.58981 0.20229 0.8372 0.0
C474 C 0.64417 0.24005 0.81082 0.0
C475 C 0.67089 0.27362 0.79788 0.0
C476 C 0.6514 0.28572 0.78588 0.0
C477 C 0.67685 0.31761 0.77391 0.0
C478 C 0.72182 0.33749 0.77366 0.0
C479 C 0.74141 0.32543 0.78534 0.0
C480 C 0.7161 0.29357 0.79736 0.0
C481 C 0.5788 0.0857 0.79867 0.0
C482 C 0.61637 0.08831 0.80039 0.0
C483 C 0.5799 0.11506 0.80399 0.0
C484 C 0.6185 0.14749 0.81135 0.0
C485 C 0.65619 0.15031 0.813 0.0
C486 C 0.65502 0.12079 0.80782 0.0
C487 C 0.61903 0.17809 0.81765 0.0
C488 C 0.64579 0.21145 0.80694 0.0
C489 C 0.59121 0.17366 0.83323 0.0
C490 C 0.5639 0.1397 0.84584 0.0
C491 C 0.58263 0.12616 0.85699 0.0
C492 C 0.5567 0.09402 0.86872 0.0
C493 C 0.512 0.0753 0.86954 0.0
C494 C 0.49315 0.08872 0.85866 0.0
C495 C 0.51894 0.12083 0.84688 0.0
H496 H 0.49198 0.05042 0.87863 0.0
H497 H 0.74147 0.36218 0.76439 0.0
H498 H 0.62128 0.85054 0.54221 0.0
H499 H 0.61507 0.7954 0.54678 0.0
H500 H 0.69007 0.82274 0.49131 0.0
H501 H 0.69544 0.87754 0.48642 0.0
H502 H 0.62711 0.75147 0.49302 0.0
H503 H 0.73673 0.84113 0.54053 0.0
H504 H 0.76755 0.88693 0.56835 0.0
H505 H 0.67247 0.80529 0.61111 0.0
H506 H 0.64068 0.75908 0.58345 0.0
H507 H 0.69144 0.64008 0.52085 0.0
H508 H 0.68813 0.68918 0.51045 0.0
H509 H 0.60623 0.66299 0.56281 0.0
H510 H 0.60919 0.61398 0.57315 0.0
H511 H 0.67472 0.73437 0.56155 0.0
H512 H 0.56603 0.64434 0.51307 0.0
H513 H 0.53769 0.59951 0.48486 0.0
H514 H 0.63488 0.68301 0.44354 0.0
H515 H 0.6642 0.72827 0.47161 0.0
C516 C 0.63626 0.84467 0.53095 0.0
C517 C 0.65917 0.86846 0.51407 0.0
C518 C 0.63275 0.8132 0.53358 0.0
C519 C 0.65287 0.80529 0.51963 0.0
C520 C 0.67438 0.82831 0.5023 0.0
C521 C 0.67743 0.85959 0.49952 0.0
C522 C 0.65296 0.77388 0.52364 0.0
C523 C 0.63799 0.74794 0.50792 0.0
C524 C 0.66681 0.76905 0.54314 0.0
C525 C 0.68609 0.79672 0.55986 0.0
C526 C 0.72222 0.83299 0.55583 0.0
C527 C 0.73988 0.85902 0.57157 0.0
C528 C 0.72191 0.84905 0.59147 0.0
C529 C 0.68632 0.81299 0.59568 0.0
C530 C 0.66849 0.78686 0.57998 0.0
C531 C 0.67208 0.64439 0.52988 0.0
C532 C 0.651 0.62346 0.54795 0.0
C533 C 0.67024 0.67245 0.52395 0.0
C534 C 0.64701 0.6798 0.5359 0.0
C535 C 0.62462 0.658 0.55346 0.0
C536 C 0.62646 0.63007 0.55938 0.0
C537 C 0.64817 0.71161 0.53109 0.0
C538 C 0.66372 0.73782 0.54666 0.0
C539 C 0.63527 0.71677 0.51141 0.0
C540 C 0.61758 0.68961 0.49451 0.0
C541 C 0.58159 0.65308 0.49802 0.0
C542 C 0.5653 0.62761 0.48205 0.0
C543 C 0.58455 0.63838 0.46244 0.0
C544 C 0.62005 0.67469 0.45874 0.0
C545 C 0.63649 0.70027 0.47468 0.0
H546 H 0.57188 0.61862 0.45009 0.0
H547 H 0.73562 0.86924 0.60363 0.0
H548 H 0.80684 0.58629 0.82463 0.0
H549 H 0.86931 0.58622 0.8262 0.0
H550 H 0.79831 0.49091 0.86582 0.0
H551 H 0.73527 0.49028 0.8639 0.0
H552 H 0.88535 0.54745 0.8806 0.0
H553 H 0.81267 0.48123 0.81708 0.0
H554 H 0.78017 0.47265 0.78202 0.0
H555 H 0.90198 0.56746 0.75956 0.0
H556 H 0.93506 0.57688 0.79459 0.0
H557 H 1.01958 0.49642 0.88351 0.0
H558 H 0.95728 0.49506 0.87608 0.0
H559 H 1.03205 0.58246 0.83142 0.0
H560 H 0.0952 0.58404 0.83902 0.0
H561 H 0.94566 0.53342 0.8181 0.0
H562 H 1.02027 0.60098 0.87864 0.0
H563 H 1.05647 0.61576 0.91315 0.0
H564 H 0.93649 0.52774 0.94097 0.0
H565 H 0.89977 0.51163 0.90647 0.0
C566 C 0.80432 0.56518 0.83365 0.0
C567 C 0.76561 0.53828 0.84413 0.0
C568 C 0.84023 0.56512 0.83448 0.0
C569 C 0.83897 0.53851 0.8461 0.0
C570 C 0.80049 0.5118 0.85673 0.0
C571 C 0.76424 0.51141 0.85556 0.0
C572 C 0.87778 0.53885 0.84743 0.0
C573 C 0.898 0.54377 0.86695 0.0
C574 C 0.89598 0.53571 0.82959 0.0
C575 C 0.87622 0.52998 0.80851 0.0
C576 C 0.83243 0.50043 0.80472 0.0
C577 C 0.81392 0.49538 0.78484 0.0
C578 C 0.83896 0.51956 0.76859 0.0
C579 C 0.8826 0.54878 0.77217 0.0
C580 C 0.90126 0.55397 0.79203 0.0
C581 C 1.02268 0.51491 0.87174 0.0
C582 C 1.06278 0.54037 0.86191 0.0
C583 C 0.98689 0.51427 0.86759 0.0
C584 C 0.98965 0.53911 0.85345 0.0
C585 C 1.02872 0.56301 0.84248 0.0
C586 C 1.06488 0.56374 0.84671 0.0
C587 C 0.95267 0.54122 0.85139 0.0
C588 C 0.93295 0.53695 0.83178 0.0
C589 C 0.9354 0.54575 0.8691 0.0
C590 C 0.95735 0.55481 0.88989 0.0
C591 C 1.00169 0.58441 0.89205 0.0
C592 C 1.02232 0.59305 0.91162 0.0
C593 C 0.99885 0.57263 0.92922 0.0
C594 C 0.95469 0.54342 0.92729 0.0
C595 C 0.93395 0.53448 0.90772 0.0
H596 H 1.01488 0.57964 0.94435 0.0
H597 H 0.82457 0.51561 0.75321 0.0
H598 H 0.3045 0.66532 0.15085 0.0
H599 H 0.37014 0.72909 0.15138 0.0
H600 H 0.29375 0.76252 0.16772 0.0
H601 H 0.22838 0.69925 0.16734 0.0
H602 H 0.35122 0.80469 0.13605 0.0
H603 H 0.35239 0.75944 0.20431 0.0
H604 H 0.35154 0.71772 0.22899 0.0
H605 H 0.4692 0.74727 0.20301 0.0
H606 H 0.47039 0.78882 0.17795 0.0
H607 H 0.50265 0.98321 0.17286 0.0
H608 H 0.44378 0.91769 0.171 0.0
H609 H 0.5356 0.89948 0.15658 0.0
H610 H 0.59481 0.96532 0.1584 0.0
H611 H 0.47431 0.84862 0.1851 0.0
H612 H 0.47589 0.89659 0.11827 0.0
H613 H 0.47669 0.93791 0.09325 0.0
H614 H 0.35409 0.90268 0.11581 0.0
H615 H 0.35285 0.86152 0.14119 0.0
C616 C 0.30169 0.68626 0.15453 0.0
C617 C 0.26115 0.67711 0.15913 0.0
C618 C 0.33925 0.72267 0.1549 0.0
C619 C 0.33687 0.75056 0.15969 0.0
C620 C 0.29638 0.74148 0.16398 0.0
C621 C 0.25902 0.7052 0.16384 0.0
C622 C 0.37631 0.78931 0.16028 0.0
C623 C 0.37797 0.81434 0.1469 0.0
C624 C 0.41177 0.80174 0.17401 0.0
C625 C 0.41119 0.7769 0.18909 0.0
C626 C 0.37787 0.75679 0.20373 0.0
C627 C 0.37736 0.73323 0.21782 0.0
C628 C 0.41022 0.72976 0.21753 0.0
C629 C 0.44372 0.74993 0.20319 0.0
C630 C 0.44434 0.77351 0.18905 0.0
C631 C 0.51037 0.9652 0.16956 0.0
C632 C 0.55341 0.97932 0.16613 0.0
C633 C 0.47668 0.92778 0.16838 0.0
C634 C 0.48521 0.90365 0.16351 0.0
C635 C 0.52828 0.91756 0.16042 0.0
C636 C 0.56204 0.95512 0.1615 0.0
C637 C 0.44883 0.86411 0.16113 0.0
C638 C 0.44775 0.83894 0.17413 0.0
C639 C 0.41387 0.85145 0.14698 0.0
C640 C 0.41449 0.87622 0.13177 0.0
C641 C 0.44928 0.89788 0.11802 0.0
C642 C 0.44977 0.92123 0.10375 0.0
C643 C 0.41551 0.92298 0.10298 0.0
C644 C 0.38063 0.90133 0.11644 0.0
C645 C 0.38 0.87796 0.13077 0.0
H646 H 0.41594 0.94106 0.09191 0.0
H647 H 0.40979 0.7115 0.22844 0.0
H648 H 0.56305 0.21652 0.45013 0.0
H649 H 0.57046 0.27002 0.4605 0.0
H650 H 0.65497 0.2875 0.51172 0.0
H651 H 0.64581 0.23288 0.50218 0.0
H652 H 0.59902 0.29543 0.52475 0.0
H653 H 0.69351 0.34149 0.4663 0.0
H654 H 0.71417 0.34255 0.4301 0.0
H655 H 0.61701 0.35096 0.40687 0.0
H656 H 0.59537 0.34946 0.44293 0.0
H657 H 0.66163 0.46918 0.55026 0.0
H658 H 0.66518 0.42146 0.53865 0.0
H659 H 0.57581 0.39579 0.48799 0.0
H660 H 0.57311 0.44401 0.49928 0.0
H661 H 0.63873 0.39422 0.47491 0.0
H662 H 0.54229 0.34492 0.53359 0.0
H663 H 0.52215 0.34399 0.56989 0.0
H664 H 0.62464 0.34216 0.59273 0.0
H665 H 0.64573 0.34354 0.55655 0.0
C666 C 0.58299 0.23154 0.4637 0.0
C667 C 0.60384 0.22025 0.47528 0.0
C668 C 0.58766 0.26248 0.46945 0.0
C669 C 0.61381 0.2832 0.48673 0.0
C670 C 0.6348 0.27211 0.49827 0.0
C671 C 0.62986 0.24101 0.49264 0.0
C672 C 0.61805 0.31565 0.49322 0.0
C673 C 0.60844 0.31731 0.51391 0.0
C674 C 0.62948 0.34394 0.47903 0.0
C675 C 0.64258 0.34505 0.45732 0.0
C676 C 0.67635 0.34331 0.45347 0.0
C677 C 0.68826 0.34403 0.43297 0.0
C678 C 0.66685 0.34673 0.41619 0.0
C679 C 0.63354 0.34883 0.41988 0.0
C680 C 0.62147 0.34809 0.44035 0.0
C681 C 0.64334 0.45366 0.53646 0.0
C682 C 0.61754 0.46052 0.5255 0.0
C683 C 0.6451 0.42626 0.52993 0.0
C684 C 0.62038 0.40474 0.51256 0.0
C685 C 0.59524 0.41207 0.50138 0.0
C686 C 0.59367 0.43958 0.50785 0.0
C687 C 0.61951 0.37383 0.50637 0.0
C688 C 0.62966 0.37243 0.48574 0.0
C689 C 0.60871 0.34582 0.52063 0.0
C690 C 0.59585 0.34471 0.54237 0.0
C691 C 0.56071 0.34457 0.54636 0.0
C692 C 0.5491 0.34392 0.56691 0.0
C693 C 0.57218 0.34312 0.58361 0.0
C694 C 0.60684 0.34284 0.57978 0.0
C695 C 0.61861 0.34353 0.55926 0.0
H696 H 0.56315 0.34263 0.59951 0.0
H697 H 0.67611 0.34728 0.40034 0.0
H698 H 0.56774 0.57826 0.82031 0.0
H699 H 0.50683 0.58002 0.82162 0.0
H700 H 0.44999 0.49872 0.87068 0.0
H701 H 0.50942 0.49525 0.86832 0.0
H702 H 0.38804 0.48319 0.84889 0.0
H703 H 0.50806 0.60011 0.87592 0.0
H704 H 0.58107 0.65953 0.87502 0.0
H705 H 0.54527 0.68996 0.81987 0.0
H706 H 0.47216 0.63051 0.82028 0.0
H707 H 0.2353 0.5043 0.88365 0.0
H708 H 0.30162 0.51021 0.8818 0.0
H709 H 0.33529 0.57219 0.82464 0.0
H710 H 0.26848 0.56619 0.82649 0.0
H711 H 0.40904 0.5992 0.84929 0.0
H712 H 0.28879 0.48231 0.82318 0.0
H713 H 0.21611 0.42268 0.82433 0.0
H714 H 0.25378 0.39276 0.87901 0.0
H715 H 0.32654 0.45244 0.87835 0.0
C716 C 0.54223 0.56069 0.83137 0.0
C717 C 0.54382 0.53658 0.84419 0.0
C718 C 0.50731 0.56199 0.83231 0.0
C719 C 0.4734 0.54016 0.84664 0.0
C720 C 0.47513 0.51602 0.85941 0.0
C721 C 0.50945 0.51406 0.8581 0.0
C722 C 0.43579 0.54161 0.8481 0.0
C723 C 0.39315 0.50876 0.84934 0.0
C724 C 0.44112 0.57468 0.84808 0.0
C725 C 0.48473 0.61073 0.84805 0.0
C726 C 0.5158 0.61942 0.86356 0.0
C727 C 0.55719 0.65309 0.86313 0.0
C728 C 0.56779 0.67847 0.84738 0.0
C729 C 0.53699 0.67026 0.83205 0.0
C730 C 0.49555 0.6366 0.83239 0.0
C731 C 0.25717 0.51985 0.87088 0.0
C732 C 0.24628 0.53485 0.85525 0.0
C733 C 0.29516 0.52298 0.86973 0.0
C734 C 0.32373 0.54118 0.85288 0.0
C735 C 0.31414 0.55791 0.83782 0.0
C736 C 0.27588 0.5546 0.83892 0.0
C737 C 0.36188 0.54085 0.85053 0.0
C738 C 0.40434 0.57379 0.84899 0.0
C739 C 0.35659 0.50793 0.85046 0.0
C740 C 0.31296 0.47197 0.85083 0.0
C741 C 0.28147 0.46311 0.83554 0.0
C742 C 0.24028 0.42929 0.83609 0.0
C743 C 0.2303 0.40398 0.85176 0.0
C744 C 0.26154 0.41241 0.86689 0.0
C745 C 0.30276 0.44621 0.86643 0.0
H746 H 0.19839 0.37781 0.85216 0.0
H747 H 0.59981 0.70452 0.84711 0.0
H748 H 0.99234 0.46945 0.16858 0.0
H749 H 0.92804 0.40603 0.17187 0.0
H750 H 0.99671 0.37144 0.14514 0.0
H751 H 1.06136 0.43516 0.14162 0.0
H752 H 0.91097 0.33031 0.13112 0.0
H753 H 0.98868 0.37077 0.19758 0.0
H754 H 1.02454 0.4143 0.22668 0.0
H755 H 0.90485 0.39398 0.2405 0.0
H756 H 0.86841 0.35064 0.21131 0.0
H757 H 0.77372 0.14643 0.16826 0.0
H758 H 0.83372 0.20945 0.15877 0.0
H759 H 0.77639 0.24707 0.19405 0.0
H760 H 0.7174 0.18429 0.2041 0.0
H761 H 0.85696 0.28731 0.20313 0.0
H762 H 0.77759 0.24714 0.1384 0.0
H763 H 0.74026 0.20739 0.10783 0.0
H764 H 0.85881 0.22932 0.08951 0.0
H765 H 0.89675 0.26884 0.12015 0.0
C766 C 0.99385 0.44844 0.16334 0.0
C767 C 1.03228 0.45739 0.15517 0.0
C768 C 0.95695 0.41213 0.16518 0.0
C769 C 0.95777 0.38391 0.15911 0.0
C770 C 0.99538 0.39276 0.14999 0.0
C771 C 1.03234 0.4292 0.14804 0.0
C772 C 0.92034 0.34528 0.16348 0.0
C773 C 0.89941 0.32069 0.14687 0.0
C774 C 0.90457 0.33301 0.18398 0.0
C775 C 0.92588 0.35759 0.20221 0.0
C776 C 0.97002 0.37558 0.20684 0.0
C777 C 0.99046 0.40025 0.22332 0.0
C778 C 0.967 0.40694 0.23541 0.0
C779 C 0.92298 0.38876 0.23113 0.0
C780 C 0.90239 0.36408 0.21464 0.0
C781 C 0.77371 0.16818 0.1737 0.0
C782 C 0.74095 0.16049 0.18692 0.0
C783 C 0.80798 0.20423 0.16825 0.0
C784 C 0.80964 0.23326 0.17553 0.0
C785 C 0.77617 0.22536 0.18829 0.0
C786 C 0.74236 0.18945 0.19399 0.0
C787 C 0.84703 0.27191 0.17071 0.0
C788 C 0.86823 0.29664 0.18731 0.0
C789 C 0.86258 0.28435 0.15015 0.0
C790 C 0.8399 0.26066 0.13169 0.0
C791 C 0.79563 0.24326 0.12795 0.0
C792 C 0.77437 0.22081 0.11059 0.0
C793 C 0.79712 0.21576 0.09677 0.0
C794 C 0.84121 0.23322 0.10025 0.0
C795 C 0.86262 0.25568 0.1176 0.0
H796 H 0.7806 0.19837 0.08334 0.0
H797 H 0.98293 0.42618 0.2481 0.0
H798 H 0.15114 0.54246 0.10403 0.0
H799 H 0.15843 0.54041 0.06635 0.0
H800 H 0.14474 0.62444 0.05648 0.0
H801 H 0.13809 0.627 0.09433 0.0
H802 H 0.0889 0.56009 0.031 0.0
H803 H 0.2405 0.64675 0.05163 0.0
H804 H 0.30421 0.66547 0.07316 0.0
H805 H 0.29533 0.57554 0.05011 0.0
H806 H 0.23116 0.55597 0.02867 0.0
H807 H 0.13698 0.60071 0.92512 0.0
H808 H 0.13989 0.60614 0.96303 0.0
H809 H 0.17452 0.53495 0.96937 0.0
H810 H 0.17124 0.52907 0.93122 0.0
H811 H 0.2198 0.59007 0.99716 0.0
H812 H 1.07415 0.50232 0.97688 0.0
H813 H 1.00471 0.47365 0.95802 0.0
H814 H 0.99479 0.55274 0.98269 0.0
H815 H 1.065 0.58274 0.00116 0.0
C816 C 0.15007 0.56073 0.09384 0.0
C817 C 0.14403 0.58489 0.10204 0.0
C818 C 0.15431 0.55956 0.07235 0.0
C819 C 0.15225 0.58234 0.05866 0.0
C820 C 0.14646 0.60667 0.06682 0.0
C821 C 0.1428 0.60819 0.08839 0.0
C822 C 0.15454 0.57979 0.03578 0.0
C823 C 0.11775 0.56733 0.02349 0.0
C824 C 0.19145 0.58732 0.02627 0.0
C825 C 0.23083 0.59975 0.03866 0.0
C826 C 0.252 0.63086 0.05123 0.0
C827 C 0.2882 0.64163 0.06341 0.0
C828 C 0.30374 0.62165 0.06304 0.0
C829 C 0.28324 0.59097 0.0504 0.0
C830 C 0.24699 0.58006 0.0382 0.0
C831 C 0.14522 0.58616 0.93455 0.0
C832 C 0.15323 0.56399 0.92514 0.0
C833 C 0.14697 0.58937 0.95623 0.0
C834 C 0.15668 0.57046 0.96908 0.0
C835 C 0.16682 0.54971 0.95976 0.0
C836 C 0.16503 0.54643 0.93797 0.0
C837 C 0.15445 0.57141 0.99218 0.0
C838 C 0.19102 0.58319 0.00455 0.0
C839 C 0.1168 0.56222 0.00191 0.0
C840 C 1.07525 0.54512 0.99021 0.0
C841 C 1.0576 0.51403 0.97801 0.0
C842 C 1.01803 0.49748 0.96741 0.0
C843 C 0.99542 0.51142 0.96911 0.0
C844 C 1.01242 0.54204 0.98135 0.0
C845 C 1.05219 0.55892 0.99183 0.0
H846 H 0.96463 0.49838 0.96102 0.0
H847 H 0.33171 0.62998 0.07252 0.0
H848 H 0.58626 0.02045 0.42369 0.0
H849 H 0.58204 0.02592 0.38562 0.0
H850 H 0.71926 0.08093 0.3817 0.0
H851 H 0.72359 0.07543 0.4196 0.0
H852 H 0.69267 0.11477 0.35825 0.0
H853 H 0.64897 0.99336 0.3695 0.0
H854 H 0.6035 0.93148 0.38475 0.0
H855 H 0.49022 0.91053 0.35573 0.0
H856 H 0.53499 0.97251 0.34053 0.0
H857 H 0.73142 0.1064 0.25374 0.0
H858 H 0.72353 0.09863 0.29156 0.0
H859 H 0.58476 0.03463 0.2842 0.0
H860 H 0.59254 0.04182 0.2461 0.0
H861 H 0.60415 1.0053 0.31351 0.0
H862 H 0.64697 0.12381 0.29971 0.0
H863 H 0.69098 0.18569 0.2845 0.0
H864 H 0.80311 0.21281 0.31852 0.0
H865 H 0.75992 0.15089 0.3337 0.0
C866 C 0.61546 0.03375 0.41466 0.0
C867 C 0.65522 0.04735 0.42449 0.0
C868 C 0.613 0.03678 0.39296 0.0
C869 C 0.6503 0.05361 0.38086 0.0
C870 C 0.69012 0.06784 0.39077 0.0
C871 C 0.69252 0.06458 0.41238 0.0
C872 C 0.64818 0.05623 0.35781 0.0
C873 C 0.67357 0.09086 0.34844 0.0
C874 C 0.62208 0.02503 0.3451 0.0
C875 C 0.59524 0.98769 0.35409 0.0
C876 C 0.61431 0.97566 0.36652 0.0
C877 C 0.58868 0.94055 0.37512 0.0
C878 C 0.54398 0.91713 0.37127 0.0
C879 C 0.52484 0.92873 0.35873 0.0
C880 C 0.55033 0.96383 0.35011 0.0
C881 C 0.69923 0.09078 0.26018 0.0
C882 C 0.66263 0.07509 0.24701 0.0
C883 C 0.69474 0.08639 0.2818 0.0
C884 C 0.65362 0.06674 0.29077 0.0
C885 C 0.61682 0.05009 0.27763 0.0
C886 C 0.62128 0.05419 0.25591 0.0
C887 C 0.64951 0.06391 0.31387 0.0
C888 C 0.62289 0.02927 0.32328 0.0
C889 C 0.67419 0.09517 0.32666 0.0
C890 C 0.70024 0.13259 0.31773 0.0
C891 C 0.68107 0.14289 0.30385 0.0
C892 C 0.70587 0.17798 0.29524 0.0
C893 C 0.74983 0.20314 0.30051 0.0
C894 C 0.76906 0.19328 0.31445 0.0
C895 C 0.74442 0.1582 0.32307 0.0
H896 H 0.76898 0.2303 0.29383 0.0
H897 H 0.52418 0.88996 0.37794 0.0
H898 H 0.71895 0.56554 0.78851 0.0
H899 H 0.73556 0.58141 0.75133 0.0
H900 H 0.59917 0.5198 0.73691 0.0
H901 H 0.58238 0.50327 0.77387 0.0
H902 H 0.70248 0.52986 0.71718 0.0
H903 H 0.59311 0.57159 0.6996 0.0
H904 H 0.56752 0.60115 0.71747 0.0
H905 H 0.68086 0.65806 0.75726 0.0
H906 H 0.70736 0.62916 0.73951 0.0
H907 H 0.63373 0.51003 0.61073 0.0
H908 H 0.64051 0.50872 0.64876 0.0
H909 H 0.72848 0.62606 0.6496 0.0
H910 H 0.72279 0.62765 0.61155 0.0
H911 H 0.66243 0.59759 0.67712 0.0
H912 H 0.76708 0.58124 0.66031 0.0
H913 H 0.79499 0.55334 0.64274 0.0
H914 H 0.69791 0.45059 0.67203 0.0
H915 H 0.66899 0.47775 0.68955 0.0
C916 C 0.69263 0.55563 0.77738 0.0
C917 C 0.64939 0.53312 0.78394 0.0
C918 C 0.70212 0.56456 0.75621 0.0
C919 C 0.66857 0.55179 0.74147 0.0
C920 C 0.62548 0.53003 0.74811 0.0
C921 C 0.61595 0.52059 0.76916 0.0
C922 C 0.67798 0.56009 0.71898 0.0
C923 C 0.69405 0.54487 0.70839 0.0
C924 C 0.66747 0.58009 0.70768 0.0
C925 C 0.65202 0.59794 0.71831 0.0
C926 C 0.61265 0.59051 0.71211 0.0
C927 C 0.59796 0.60711 0.72224 0.0
C928 C 0.62248 0.63135 0.73855 0.0
C929 C 0.6618 0.63912 0.74472 0.0
C930 C 0.67662 0.62257 0.73465 0.0
C931 C 0.65531 0.53555 0.61893 0.0
C932 C 0.67746 0.56895 0.60808 0.0
C933 C 0.65902 0.53476 0.64069 0.0
C934 C 0.68497 0.56731 0.65199 0.0
C935 C 0.70809 0.60064 0.64118 0.0
C936 C 0.70463 0.60147 0.61944 0.0
C937 C 0.6859 0.56653 0.67515 0.0
C938 C 0.67147 0.58299 0.68588 0.0
C939 C 0.69828 0.54792 0.68657 0.0
C940 C 0.71567 0.53149 0.67612 0.0
C941 C 0.75146 0.55263 0.66288 0.0
C942 C 0.7675 0.53695 0.65295 0.0
C943 C 0.74819 0.5002 0.65623 0.0
C944 C 0.71283 0.47906 0.66949 0.0
C945 C 0.69663 0.49459 0.67945 0.0
H946 H 0.76066 0.48811 0.64853 0.0
H947 H 0.61107 0.64419 0.74638 0.0
H948 H 0.6846 0.06698 0.53681 0.0
H949 H 0.69307 0.06454 0.57475 0.0
H950 H 0.56435 0.03096 0.58316 0.0
H951 H 0.55511 0.03216 0.54519 0.0
H952 H 0.63361 0.09079 0.60975 0.0
H953 H 0.5723 0.96903 0.58815 0.0
H954 H 0.56926 0.92405 0.56707 0.0
H955 H 0.69496 0.96407 0.59059 0.0
H956 H 0.69905 1.00974 0.61159 0.0
H957 H 0.59723 0.03457 0.71579 0.0
H958 H 0.59296 0.04037 0.67791 0.0
H959 H 0.70385 0.04303 0.67055 0.0
H960 H 0.70721 0.03601 0.7084 0.0
H961 H 0.6463 1.00058 0.64276 0.0
H962 H 0.7092 0.12091 0.66486 0.0
H963 H 0.71618 0.16835 0.68533 0.0
H964 H 0.59421 0.13538 0.66034 0.0
H965 H 0.58619 0.08739 0.63993 0.0
C966 C 0.65797 0.05873 0.54674 0.0
C967 C 0.61901 0.04934 0.53811 0.0
C968 C 0.66292 0.0575 0.56836 0.0
C969 C 0.62926 0.04748 0.58166 0.0
C970 C 0.59065 0.03877 0.5731 0.0
C971 C 0.5854 0.03937 0.55146 0.0
C972 C 0.63421 0.04584 0.60453 0.0
C973 C 0.63591 0.07085 0.61707 0.0
C974 C 0.63859 0.02055 0.61384 0.0
C975 C 0.63615 0.99304 0.60129 0.0
C976 C 0.59948 0.96848 0.58868 0.0
C977 C 0.59752 0.94281 0.57678 0.0
C978 C 0.63189 0.9412 0.57749 0.0
C979 C 0.66835 0.96533 0.59008 0.0
C980 C 0.67049 0.9911 0.60199 0.0
C981 C 0.62093 0.0368 0.70607 0.0
C982 C 0.65259 0.03493 0.71497 0.0
C983 C 0.61857 0.04019 0.68443 0.0
C984 C 0.64845 0.04263 0.67133 0.0
C985 C 0.68039 0.04115 0.68029 0.0
C986 C 0.68235 0.0372 0.70189 0.0
C987 C 0.64552 0.04553 0.64827 0.0
C988 C 0.64424 0.02073 0.63559 0.0
C989 C 0.64219 0.07144 0.6388 0.0
C990 C 0.64691 0.10032 0.65102 0.0
C991 C 0.6837 0.12359 0.66385 0.0
C992 C 0.68787 0.15061 0.67542 0.0
C993 C 0.65561 0.15482 0.67417 0.0
C994 C 0.61915 0.13206 0.66131 0.0
C995 C 0.6148 0.10497 0.64972 0.0
H996 H 0.6589 0.17575 0.68314 0.0
H997 H 0.63022 0.9212 0.56834 0.0
H998 H 0.59076 0.48906 0.89077 0.0
H999 H 0.57069 0.45997 0.92502 0.0
H1000 H 0.69819 0.54645 0.9492 0.0
H1001 H 0.71934 0.57476 0.91428 0.0
H1002 H 0.67376 0.48407 0.96444 0.0
H1003 H 0.60725 0.5415 0.95872 0.0
H1004 H 0.56348 0.55732 0.94203 0.0
H1005 H 0.45084 0.44493 0.94354 0.0
H1006 H 0.49409 0.42833 0.95999 0.0
H1007 H 0.61114 0.44711 0.07105 0.0
H1008 H 0.63503 0.47414 0.03639 0.0
H1009 H 0.51719 0.37955 0.00932 0.0
H1010 H 0.49333 0.35143 0.04409 0.0
H1011 H 0.53758 0.44669 0.99613 0.0
H1012 H 0.60765 0.39114 0.00285 0.0
H1013 H 0.6536 0.37832 0.02045 0.0
H1014 H 0.76237 0.49206 0.01868 0.0
H1015 H 0.71688 0.50564 0.00133 0.0
C1016 C 0.61473 0.50178 0.90332 0.0
C1017 C 0.65669 0.53411 0.89988 0.0
C1018 C 0.60303 0.48528 0.92297 0.0
C1019 C 0.63259 0.50137 0.93984 0.0
C1020 C 0.67477 0.53361 0.93643 0.0
C1021 C 0.68679 0.54985 0.91655 0.0
C1022 C 0.61915 0.48424 0.96091 0.0
C1023 C 0.64434 0.47642 0.97149 0.0
C1024 C 0.58035 0.47369 0.97001 0.0
C1025 C 0.55402 0.48364 0.96044 0.0
C1026 C 0.5732 0.52012 0.95539 0.0
C1027 C 0.54848 0.52923 0.94598 0.0
C1028 C 0.50443 0.50214 0.94168 0.0
C1029 C 0.48498 0.46588 0.94687 0.0
C1030 C 0.50957 0.45661 0.95626 0.0
C1031 C 0.59064 0.43146 0.05775 0.0
C1032 C 0.55043 0.39678 0.06041 0.0
C1033 C 0.6043 0.44718 0.03793 0.0
C1034 C 0.57803 0.42873 0.02032 0.0
C1035 C 0.53791 0.39417 0.02278 0.0
C1036 C 0.52431 0.37821 0.04265 0.0
C1037 C 0.592 0.44633 -0.00053 0.0
C1038 C 0.56697 0.45436 0.989 0.0
C1039 C 0.63126 0.4576 0.99067 0.0
C1040 C 0.65874 0.44943 0.00095 0.0
C1041 C 0.64127 0.41345 0.00636 0.0
C1042 C 0.66725 0.40604 0.01627 0.0
C1043 C 0.71085 0.43437 0.02073 0.0
C1044 C 0.72858 0.47015 0.01524 0.0
C1045 C 0.70273 0.47771 0.00534 0.0
H1046 H 0.73091 0.42857 0.02841 0.0
H1047 H 0.48536 0.50924 0.93436 0.0
H1048 H 0.13009 0.49176 0.21829 0.0
H1049 H 0.12027 0.48888 0.25608 0.0
H1050 H 0.16377 0.59923 0.25475 0.0
H1051 H 0.1731 0.60197 0.21691 0.0
H1052 H 0.17648 0.52532 0.2862 0.0
H1053 H 0.11778 0.61209 0.2904 0.0
H1054 H 1.07075 0.62161 0.27041 0.0
H1055 H 0.99813 0.51376 0.24558 0.0
H1056 H 1.0453 0.50403 0.26492 0.0
H1057 H 0.19483 0.56897 0.39231 0.0
H1058 H 0.20034 0.57526 0.35433 0.0
H1059 H 1.06107 0.5089 0.34861 0.0
H1060 H 1.05549 0.50453 0.38652 0.0
H1061 H 0.09383 0.55872 0.32047 0.0
H1062 H 0.11675 0.47355 0.34256 0.0
H1063 H 0.15052 0.4511 0.36267 0.0
H1064 H 0.27353 0.53447 0.33532 0.0
H1065 H 0.24058 0.55774 0.31525 0.0
C1066 C 0.13733 0.51531 0.22609 0.0
C1067 C 0.15215 0.54703 0.21475 0.0
C1068 C 0.13176 0.51366 0.24766 0.0
C1069 C 0.14101 0.54374 0.25826 0.0
C1070 C 0.15566 0.57544 0.24688 0.0
C1071 C 0.16105 0.57702 0.22528 0.0
C1072 C 0.13701 0.54247 0.28132 0.0
C1073 C 0.15847 0.53269 0.2937 0.0
C1074 C 0.11273 0.55122 0.29113 0.0
C1075 C 0.08527 0.5575 0.27895 0.0
C1076 C 0.09193 0.59055 0.28054 0.0
C1077 C 1.06538 0.59604 0.26924 0.0
C1078 C 1.03171 0.56845 0.25654 0.0
C1079 C 1.02462 0.53536 0.25509 0.0
C1080 C 1.05139 0.52991 0.26613 0.0
C1081 C 0.16542 0.55638 0.38301 0.0
C1082 C 0.12465 0.53581 0.39253 0.0
C1083 C 0.16859 0.55963 0.36125 0.0
C1084 C 0.13106 0.54186 0.34855 0.0
C1085 C 0.09051 0.52265 0.35803 0.0
C1086 C 0.08734 0.5198 0.37975 0.0
C1087 C 0.13374 0.54196 0.32543 0.0
C1088 C 0.11213 0.55161 0.31302 0.0
C1089 C 0.15637 0.53153 0.31557 0.0
C1090 C 0.17631 0.51762 0.32758 0.0
C1091 C 0.15107 0.48726 0.34096 0.0
C1092 C 0.17005 0.47436 0.35233 0.0
C1093 C 0.21417 0.49141 0.35032 0.0
C1094 C 0.23938 0.52134 0.33689 0.0
C1095 C 0.22057 0.53438 0.3255 0.0
H1096 H 0.22881 0.48138 0.35913 0.0
H1097 H 1.01096 0.57261 0.24795 0.0
loop_
_geom_bond_atom_site_label_1
_geom_bond_atom_site_label_2
_geom_bond_distance
_geom_bond_site_symmetry_2
_ccdc_geom_bond_type
La0 C2 2.928 . S
La0 O20 2.521 . S
La0 O21 2.628 . S
La0 O22 2.554 . S
La0 O23 2.757 1_455 S
La0 O24 2.470 . S
La0 O29 2.482 . S
La0 O31 2.503 1_455 S
La1 C11 2.928 . S
La1 O23 2.482 . S
La1 O25 2.503 1_655 S
La1 O26 2.521 . S
La1 O27 2.628 . S
La1 O28 2.554 . S
La1 O29 2.757 1_655 S
La1 O30 2.470 . S
C2 La0 2.928 . S
C2 C3 1.503 . S
C2 O20 1.261 . S
C2 O21 1.243 . S
C3 C2 1.503 . S
C3 C4 1.394 . S
C3 C8 1.373 . S
C4 C3 1.394 . S
C4 C5 1.380 . S
C4 H32 0.930 . S
C5 C4 1.380 . S
C5 C6 1.376 . S
C5 H33 0.930 . S
C6 C5 1.376 . S
C6 C7 1.370 . S
C7 C6 1.370 . S
C7 C8 1.396 . S
C7 H34 0.929 . S
C8 C3 1.373 . S
C8 C7 1.396 . S
C8 H35 0.929 . S
C9 O22 1.240 . S
C9 O23 1.289 1_455 S
C10 O24 1.258 . S
C10 O25 1.256 . S
C11 La1 2.928 . S
C11 C12 1.503 . S
C11 O26 1.261 . S
C11 O27 1.243 . S
C12 C11 1.503 . S
C12 C13 1.394 . S
C12 C17 1.373 . S
C13 C12 1.394 . S
C13 C14 1.380 . S
C13 H36 0.930 . S
C14 C13 1.380 . S
C14 C15 1.376 . S
C14 H37 0.930 . S
C15 C14 1.376 . S
C15 C16 1.370 . S
C16 C15 1.370 . S
C16 C17 1.396 . S
C16 H38 0.929 . S
C17 C12 1.373 . S
C17 C16 1.396 . S
C17 H39 0.929 . S
C18 O28 1.240 1_455 S
C18 O29 1.289 . S
C19 O30 1.258 . S
C19 O31 1.256 . S
O20 La0 2.521 . S
O20 C2 1.261 . S
O21 La0 2.628 . S
O21 C2 1.243 . S
O22 La0 2.554 . S
O22 C9 1.240 . S
O23 La0 2.757 1_655 S
O23 La1 2.482 . S
O23 C9 1.289 1_655 S
O24 La0 2.470 . S
O24 C10 1.258 . S
O25 La1 2.503 1_455 S
O25 C10 1.256 . S
O26 La1 2.521 . S
O26 C11 1.261 . S
O27 La1 2.628 . S
O27 C11 1.243 . S
O28 La1 2.554 . S
O28 C18 1.240 1_655 S
O29 La0 2.482 . S
O29 La1 2.757 1_455 S
O29 C18 1.289 . S
O30 La1 2.470 . S
O30 C19 1.258 . S
O31 La0 2.503 1_655 S
O31 C19 1.256 . S
H32 C4 0.930 . S
H33 C5 0.930 . S
H34 C7 0.929 . S
H35 C8 0.929 . S
H36 C13 0.930 . S
H37 C14 0.930 . S
H38 C16 0.929 . S
H39 C17 0.929 . S
La40 C42 2.928 1_545 S
La40 O60 2.521 1_545 S
La40 O61 2.628 1_545 S
La40 O62 2.554 . S
La40 O63 2.757 . S
La40 O64 2.470 1_545 S
La40 O69 2.482 . S
La40 O71 2.503 . S
La41 C51 2.928 . S
La41 O63 2.482 . S
La41 O65 2.503 1_545 S
La41 O66 2.521 . S
La41 O67 2.628 . S
La41 O68 2.554 . S
La41 O69 2.757 . S
La41 O70 2.470 . S
C42 La40 2.928 1_565 S
C42 C43 1.503 . S
C42 O60 1.261 . S
C42 O61 1.243 . S
C43 C42 1.503 . S
C43 C44 1.394 . S
C43 C48 1.373 . S
C44 C43 1.394 . S
C44 C45 1.380 . S
C44 H72 0.930 . S
C45 C44 1.380 . S
C45 C46 1.376 . S
C45 H73 0.930 . S
C46 C45 1.376 . S
C46 C47 1.370 . S
C47 C46 1.370 . S
C47 C48 1.396 . S
C47 H74 0.929 . S
C48 C43 1.373 . S
C48 C47 1.396 . S
C48 H75 0.929 . S
C49 O62 1.240 . S
C49 O63 1.289 . S
C50 O64 1.258 . S
C50 O65 1.256 . S
C51 La41 2.928 . S
C51 C52 1.503 . S
C51 O66 1.261 . S
C51 O67 1.243 . S
C52 C51 1.503 . S
C52 C53 1.394 . S
C52 C57 1.373 . S
C53 C52 1.394 . S
C53 C54 1.380 . S
C53 H76 0.930 . S
C54 C53 1.380 . S
C54 C55 1.376 . S
C54 H77 0.930 . S
C55 C54 1.376 . S
C55 C56 1.370 . S
C56 C55 1.370 . S
C56 C57 1.396 . S
C56 H78 0.929 . S
C57 C52 1.373 . S
C57 C56 1.396 . S
C57 H79 0.929 . S
C58 O68 1.240 . S
C58 O69 1.289 . S
C59 O70 1.258 . S
C59 O71 1.256 . S
O60 La40 2.521 1_565 S
O60 C42 1.261 . S
O61 La40 2.628 1_565 S
O61 C42 1.243 . S
O62 La40 2.554 . S
O62 C49 1.240 . S
O63 La40 2.757 . S
O63 La41 2.482 . S
O63 C49 1.289 . S
O64 La40 2.470 1_565 S
O64 C50 1.258 . S
O65 La41 2.503 1_565 S
O65 C50 1.256 . S
O66 La41 2.521 . S
O66 C51 1.261 . S
O67 La41 2.628 . S
O67 C51 1.243 . S
O68 La41 2.554 . S
O68 C58 1.240 . S
O69 La40 2.482 . S
O69 La41 2.757 . S
O69 C58 1.289 . S
O70 La41 2.470 . S
O70 C59 1.258 . S
O71 La40 2.503 . S
O71 C59 1.256 . S
H72 C44 0.930 . S
H73 C45 0.930 . S
H74 C47 0.929 . S
H75 C48 0.929 . S
H76 C53 0.930 . S
H77 C54 0.930 . S
H78 C56 0.929 . S
H79 C57 0.929 . S
La80 C82 2.928 . S
La80 O100 2.521 . S
La80 O101 2.628 . S
La80 O102 2.554 . S
La80 O103 2.757 . S
La80 O104 2.470 . S
La80 O109 2.482 . S
La80 O111 2.503 . S
La81 C91 2.928 . S
La81 O103 2.482 . S
La81 O105 2.503 . S
La81 O106 2.521 . S
La81 O107 2.628 . S
La81 O108 2.554 . S
La81 O109 2.757 . S
La81 O110 2.470 . S
C82 La80 2.928 . S
C82 C83 1.503 . S
C82 O100 1.261 . S
C82 O101 1.243 . S
C83 C82 1.503 . S
C83 C84 1.394 . S
C83 C88 1.373 . S
C84 C83 1.394 . S
C84 C85 1.380 . S
C84 H112 0.930 . S
C85 C84 1.380 . S
C85 C86 1.376 . S
C85 H113 0.930 . S
C86 C85 1.376 . S
C86 C87 1.370 . S
C87 C86 1.370 . S
C87 C88 1.396 . S
C87 H114 0.929 . S
C88 C83 1.373 . S
C88 C87 1.396 . S
C88 H115 0.929 . S
C89 O102 1.240 . S
C89 O103 1.289 . S
C90 O104 1.258 . S
C90 O105 1.256 . S
C91 La81 2.928 . S
C91 C92 1.503 . S
C91 O106 1.261 . S
C91 O107 1.243 . S
C92 C91 1.503 . S
C92 C93 1.394 . S
C92 C97 1.373 . S
C93 C92 1.394 . S
C93 C94 1.380 . S
C93 H116 0.930 . S
C94 C93 1.380 . S
C94 C95 1.376 . S
C94 H117 0.930 . S
C95 C94 1.376 . S
C95 C96 1.370 . S
C96 C95 1.370 . S
C96 C97 1.396 . S
C96 H118 0.929 . S
C97 C92 1.373 . S
C97 C96 1.396 . S
C97 H119 0.929 . S
C98 O108 1.240 . S
C98 O109 1.289 . S
C99 O110 1.258 . S
C99 O111 1.256 . S
O100 La80 2.521 . S
O100 C82 1.261 . S
O101 La80 2.628 . S
O101 C82 1.243 . S
O102 La80 2.554 . S
O102 C89 1.240 . S
O103 La80 2.757 . S
O103 La81 2.482 . S
O103 C89 1.289 . S
O104 La80 2.470 . S
O104 C90 1.258 . S
O105 La81 2.503 . S
O105 C90 1.256 . S
O106 La81 2.521 . S
O106 C91 1.261 . S
O107 La81 2.628 . S
O107 C91 1.243 . S
O108 La81 2.554 . S
O108 C98 1.240 . S
O109 La80 2.482 . S
O109 La81 2.757 . S
O109 C98 1.289 . S
O110 La81 2.470 . S
O110 C99 1.258 . S
O111 La80 2.503 . S
O111 C99 1.256 . S
H112 C84 0.930 . S
H113 C85 0.930 . S
H114 C87 0.929 . S
H115 C88 0.929 . S
H116 C93 0.930 . S
H117 C94 0.930 . S
H118 C96 0.929 . S
H119 C97 0.929 . S
H120 C127 0.929 . S
H121 C130 0.930 . S
H122 C132 0.929 . S
H123 C124 0.969 . S
C124 H123 0.969 . S
C124 O125 1.550 . S
C124 H126 0.973 . S
O125 C124 1.550 . S
O125 C131 1.412 . S
H126 C124 0.973 . S
C127 H120 0.929 . S
C127 C128 1.400 . S
C127 C129 1.364 . S
C128 C127 1.400 . S
C128 C132 1.377 . S
C129 C127 1.364 . S
C129 C130 1.374 1_545 S
C130 H121 0.930 . S
C130 C129 1.374 1_565 S
C130 C131 1.383 . S
C131 O125 1.412 . S
C131 C130 1.383 . S
C131 C132 1.394 1_565 S
C132 H122 0.929 . S
C132 C128 1.377 . S
C132 C131 1.394 1_545 S
H133 C140 0.929 . S
H134 C143 0.930 . S
H135 C145 0.929 . S
H136 C137 0.969 . S
C137 H136 0.969 . S
C137 O138 1.550 . S
C137 H139 0.973 . S
O138 C137 1.550 . S
O138 C144 1.412 . S
H139 C137 0.973 . S
C140 H133 0.929 . S
C140 C141 1.400 . S
C140 C142 1.364 . S
C141 C140 1.400 . S
C141 C145 1.377 . S
C142 C140 1.364 . S
C142 C143 1.374 . S
C143 H134 0.930 . S
C143 C142 1.374 . S
C143 C144 1.383 . S
C144 O138 1.412 . S
C144 C143 1.383 . S
C144 C145 1.394 . S
C145 H135 0.929 . S
C145 C141 1.377 . S
C145 C144 1.394 . S
H146 C153 0.929 . S
H147 C156 0.930 . S
H148 C158 0.929 . S
H149 C150 0.969 . S
C150 H149 0.969 . S
C150 O151 1.550 . S
C150 H152 0.973 . S
O151 C150 1.550 . S
O151 C157 1.412 . S
H152 C150 0.973 . S
C153 H146 0.929 . S
C153 C154 1.400 . S
C153 C155 1.364 . S
C154 C153 1.400 . S
C154 C158 1.377 . S
C155 C153 1.364 . S
C155 C156 1.374 . S
C156 H147 0.930 . S
C156 C155 1.374 . S
C156 C157 1.383 . S
C157 O151 1.412 . S
C157 C156 1.383 . S
C157 C158 1.394 . S
C158 H148 0.929 . S
C158 C154 1.377 . S
C158 C157 1.394 . S
H159 C166 0.929 1_655 S
H160 C169 0.930 . S
H161 C171 0.929 . S
H162 C163 0.969 . S
C163 H162 0.969 . S
C163 O164 1.550 . S
C163 H165 0.973 . S
O164 C163 1.550 . S
O164 C170 1.412 . S
H165 C163 0.973 . S
C166 H159 0.929 1_455 S
C166 C167 1.400 . S
C166 C168 1.364 . S
C167 C166 1.400 . S
C167 C171 1.381 . S
C168 C166 1.364 . S
C168 C169 1.374 . S
C169 H160 0.930 . S
C169 C168 1.374 . S
C169 C170 1.383 . S
C170 O164 1.412 . S
C170 C169 1.383 . S
C170 C171 1.394 . S
C171 H161 0.929 . S
C171 C167 1.381 . S
C171 C170 1.394 . S
H172 C179 0.929 . S
H173 C182 0.930 . S
H174 C184 0.929 . S
H175 C176 0.969 . S
C176 H175 0.969 . S
C176 O177 1.550 . S
C176 H178 0.973 . S
O177 C176 1.550 . S
O177 C183 1.412 . S
H178 C176 0.973 . S
C179 H172 0.929 . S
C179 C180 1.400 . S
C179 C181 1.364 1_565 S
C180 C179 1.400 . S
C180 C184 1.377 1_565 S
C181 C179 1.364 1_545 S
C181 C182 1.374 . S
C182 H173 0.930 . S
C182 C181 1.374 . S
C182 C183 1.383 . S
C183 O177 1.412 . S
C183 C182 1.383 . S
C183 C184 1.394 . S
C184 H174 0.929 . S
C184 C180 1.377 1_545 S
C184 C183 1.394 . S
H185 C192 0.929 . S
H186 C195 0.930 . S
H187 C197 0.929 . S
H188 C189 0.969 . S
C189 H188 0.969 . S
C189 O190 1.550 . S
C189 H191 0.973 . S
O190 C189 1.550 . S
O190 C196 1.412 . S
H191 C189 0.973 . S
C192 H185 0.929 . S
C192 C193 1.400 . S
C192 C194 1.364 . S
C193 C192 1.400 . S
C193 C197 1.377 . S
C194 C192 1.364 . S
C194 C195 1.374 . S
C195 H186 0.930 . S
C195 C194 1.374 . S
C195 C196 1.383 . S
C196 O190 1.412 . S
C196 C195 1.383 . S
C196 C197 1.394 . S
C197 H187 0.929 . S
C197 C193 1.377 . S
C197 C196 1.394 . S
H198 C216 0.951 . S
H199 C218 0.951 . S
H200 C220 0.950 . S
H201 C221 0.950 . S
H202 C223 0.950 . S
H203 C226 0.950 . S
H204 C227 0.950 . S
H205 C229 0.950 . S
H206 C230 0.950 . S
H207 C231 0.951 . S
H208 C233 0.951 . S
H209 C235 0.950 . S
H210 C236 0.950 . S
H211 C238 0.950 . S
H212 C241 0.950 . S
H213 C242 0.950 . S
H214 C244 0.950 . S
H215 C245 0.950 . S
C216 H198 0.951 . S
C216 C217 1.366 . S
C216 C218 1.388 . S
C217 C216 1.366 . S
C217 C221 1.385 . S
C218 H199 0.951 . S
C218 C216 1.388 . S
C218 C219 1.366 . S
C219 C218 1.366 . S
C219 C220 1.414 . S
C219 C222 1.499 . S
C220 H200 0.950 . S
C220 C219 1.414 . S
C220 C221 1.374 . S
C221 H201 0.950 . S
C221 C217 1.385 . S
C221 C220 1.374 . S
C222 C219 1.499 . S
C222 C223 1.373 . S
C222 C224 1.389 . S
C223 H202 0.950 . S
C223 C222 1.373 . S
C223 C239 1.377 . S
C224 C222 1.389 . S
C224 C225 1.524 . S
C224 C238 1.377 . S
C225 C224 1.524 . S
C225 C226 1.397 . S
C225 C230 1.363 . S
C226 H203 0.950 . S
C226 C225 1.397 . S
C226 C227 1.334 . S
C227 H204 0.950 . S
C227 C226 1.334 . S
C227 C228 1.287 . S
C228 C227 1.287 . S
C228 C229 1.524 . S
C228 H247 0.913 . S
C229 H205 0.950 . S
C229 C228 1.524 . S
C229 C230 1.415 . S
C230 H206 0.950 . S
C230 C225 1.363 . S
C230 C229 1.415 . S
C231 H207 0.951 . S
C231 C232 1.366 . S
C231 C233 1.388 . S
C232 C231 1.366 . S
C232 C236 1.385 . S
C233 H208 0.951 . S
C233 C231 1.388 . S
C233 C234 1.366 . S
C234 C233 1.366 . S
C234 C235 1.414 . S
C234 C237 1.499 . S
C235 H209 0.950 . S
C235 C234 1.414 . S
C235 C236 1.374 . S
C236 H210 0.950 . S
C236 C232 1.385 . S
C236 C235 1.374 . S
C237 C234 1.499 . S
C237 C238 1.373 . S
C237 C239 1.389 . S
C238 H211 0.950 . S
C238 C224 1.377 . S
C238 C237 1.373 . S
C239 C223 1.377 . S
C239 C237 1.389 . S
C239 C240 1.524 . S
C240 C239 1.524 . S
C240 C241 1.397 . S
C240 C245 1.363 . S
C241 H212 0.950 . S
C241 C240 1.397 . S
C241 C242 1.334 . S
C242 H213 0.950 . S
C242 C241 1.334 . S
C242 C243 1.287 . S
C243 C242 1.287 . S
C243 C244 1.524 . S
C243 H246 0.999 . S
C244 H214 0.950 . S
C244 C243 1.524 . S
C244 C245 1.415 . S
C245 H215 0.950 . S
C245 C240 1.363 . S
C245 C244 1.415 . S
H246 C243 0.999 . S
H247 C228 0.913 . S
H248 C266 0.951 . S
H249 C268 0.951 . S
H250 C270 0.950 . S
H251 C271 0.950 . S
H252 C273 0.950 . S
H253 C276 0.950 . S
H254 C277 0.950 . S
H255 C279 0.950 . S
H256 C280 0.950 . S
H257 C281 0.951 . S
H258 C283 0.951 . S
H259 C285 0.950 . S
H260 C286 0.950 . S
H261 C288 0.950 . S
H262 C291 0.950 . S
H263 C292 0.950 . S
H264 C294 0.950 . S
H265 C295 0.950 . S
C266 H248 0.951 . S
C266 C267 1.366 . S
C266 C268 1.388 . S
C267 C266 1.366 . S
C267 C271 1.385 . S
C268 H249 0.951 . S
C268 C266 1.388 . S
C268 C269 1.366 . S
C269 C268 1.366 . S
C269 C270 1.414 . S
C269 C272 1.499 . S
C270 H250 0.950 . S
C270 C269 1.414 . S
C270 C271 1.374 . S
C271 H251 0.950 . S
C271 C267 1.385 . S
C271 C270 1.374 . S
C272 C269 1.499 . S
C272 C273 1.373 . S
C272 C274 1.389 . S
C273 H252 0.950 . S
C273 C272 1.373 . S
C273 C289 1.377 . S
C274 C272 1.389 . S
C274 C275 1.524 . S
C274 C288 1.377 . S
C275 C274 1.524 . S
C275 C276 1.397 . S
C275 C280 1.363 . S
C276 H253 0.950 . S
C276 C275 1.397 . S
C276 C277 1.334 . S
C277 H254 0.950 . S
C277 C276 1.334 . S
C277 C278 1.287 . S
C278 C277 1.287 . S
C278 C279 1.524 . S
C278 H297 0.913 . S
C279 H255 0.950 . S
C279 C278 1.524 . S
C279 C280 1.415 . S
C280 H256 0.950 . S
C280 C275 1.363 . S
C280 C279 1.415 . S
C281 H257 0.951 . S
C281 C282 1.366 . S
C281 C283 1.388 . S
C282 C281 1.366 . S
C282 C286 1.385 . S
C283 H258 0.951 . S
C283 C281 1.388 . S
C283 C284 1.366 . S
C284 C283 1.366 . S
C284 C285 1.414 . S
C284 C287 1.499 . S
C285 H259 0.950 . S
C285 C284 1.414 . S
C285 C286 1.374 . S
C286 H260 0.950 . S
C286 C282 1.385 . S
C286 C285 1.374 . S
C287 C284 1.499 . S
C287 C288 1.373 . S
C287 C289 1.389 . S
C288 H261 0.950 . S
C288 C274 1.377 . S
C288 C287 1.373 . S
C289 C273 1.377 . S
C289 C287 1.389 . S
C289 C290 1.524 . S
C290 C289 1.524 . S
C290 C291 1.397 . S
C290 C295 1.363 . S
C291 H262 0.950 . S
C291 C290 1.397 . S
C291 C292 1.334 . S
C292 H263 0.950 . S
C292 C291 1.334 . S
C292 C293 1.287 . S
C293 C292 1.287 . S
C293 C294 1.524 . S
C293 H296 0.999 . S
C294 H264 0.950 . S
C294 C293 1.524 . S
C294 C295 1.415 . S
C295 H265 0.950 . S
C295 C290 1.363 . S
C295 C294 1.415 . S
H296 C293 0.999 . S
H297 C278 0.913 . S
H298 C316 0.951 . S
H299 C318 0.951 . S
H300 C320 0.950 . S
H301 C321 0.950 . S
H302 C323 0.950 . S
H303 C326 0.950 . S
H304 C327 0.950 . S
H305 C329 0.950 . S
H306 C330 0.950 . S
H307 C331 0.951 . S
H308 C333 0.951 . S
H309 C335 0.950 . S
H310 C336 0.950 . S
H311 C338 0.950 . S
H312 C341 0.950 . S
H313 C342 0.950 . S
H314 C344 0.950 . S
H315 C345 0.950 . S
C316 H298 0.951 . S
C316 C317 1.366 . S
C316 C318 1.388 . S
C317 C316 1.366 . S
C317 C321 1.385 . S
C318 H299 0.951 . S
C318 C316 1.388 . S
C318 C319 1.366 . S
C319 C318 1.366 . S
C319 C320 1.414 . S
C319 C322 1.499 . S
C320 H300 0.950 . S
C320 C319 1.414 . S
C320 C321 1.374 . S
C321 H301 0.950 . S
C321 C317 1.385 . S
C321 C320 1.374 . S
C322 C319 1.499 . S
C322 C323 1.373 . S
C322 C324 1.389 . S
C323 H302 0.950 . S
C323 C322 1.373 . S
C323 C339 1.377 . S
C324 C322 1.389 . S
C324 C325 1.524 . S
C324 C338 1.377 . S
C325 C324 1.524 . S
C325 C326 1.397 . S
C325 C330 1.363 . S
C326 H303 0.950 . S
C326 C325 1.397 . S
C326 C327 1.334 . S
C327 H304 0.950 . S
C327 C326 1.334 . S
C327 C328 1.287 . S
C328 C327 1.287 . S
C328 C329 1.524 . S
C328 H347 0.913 . S
C329 H305 0.950 . S
C329 C328 1.524 . S
C329 C330 1.415 . S
C330 H306 0.950 . S
C330 C325 1.363 . S
C330 C329 1.415 . S
C331 H307 0.951 . S
C331 C332 1.366 . S
C331 C333 1.388 . S
C332 C331 1.366 . S
C332 C336 1.385 . S
C333 H308 0.951 . S
C333 C331 1.388 . S
C333 C334 1.366 . S
C334 C333 1.366 . S
C334 C335 1.414 . S
C334 C337 1.499 . S
C335 H309 0.950 . S
C335 C334 1.414 . S
C335 C336 1.374 . S
C336 H310 0.950 . S
C336 C332 1.385 . S
C336 C335 1.374 . S
C337 C334 1.499 . S
C337 C338 1.373 . S
C337 C339 1.389 . S
C338 H311 0.950 . S
C338 C324 1.377 . S
C338 C337 1.373 . S
C339 C323 1.377 . S
C339 C337 1.389 . S
C339 C340 1.524 . S
C340 C339 1.524 . S
C340 C341 1.397 . S
C340 C345 1.363 . S
C341 H312 0.950 . S
C341 C340 1.397 . S
C341 C342 1.334 . S
C342 H313 0.950 . S
C342 C341 1.334 . S
C342 C343 1.287 . S
C343 C342 1.287 . S
C343 C344 1.524 . S
C343 H346 0.999 . S
C344 H314 0.950 . S
C344 C343 1.524 . S
C344 C345 1.415 . S
C345 H315 0.950 . S
C345 C340 1.363 . S
C345 C344 1.415 . S
H346 C343 0.999 . S
H347 C328 0.913 . S
H348 C366 0.951 . S
H349 C368 0.951 . S
H350 C370 0.950 . S
H351 C371 0.950 . S
H352 C373 0.950 . S
H353 C376 0.950 . S
H354 C377 0.950 . S
H355 C379 0.950 . S
H356 C380 0.950 . S
H357 C381 0.951 . S
H358 C383 0.951 . S
H359 C385 0.950 . S
H360 C386 0.950 . S
H361 C388 0.950 . S
H362 C391 0.950 . S
H363 C392 0.950 . S
H364 C394 0.950 . S
H365 C395 0.950 . S
C366 H348 0.951 . S
C366 C367 1.366 . S
C366 C368 1.388 . S
C367 C366 1.366 . S
C367 C371 1.385 . S
C368 H349 0.951 . S
C368 C366 1.388 . S
C368 C369 1.366 . S
C369 C368 1.366 . S
C369 C370 1.414 . S
C369 C372 1.499 . S
C370 H350 0.950 . S
C370 C369 1.414 . S
C370 C371 1.374 . S
C371 H351 0.950 . S
C371 C367 1.385 . S
C371 C370 1.374 . S
C372 C369 1.499 . S
C372 C373 1.373 . S
C372 C374 1.389 . S
C373 H352 0.950 . S
C373 C372 1.373 . S
C373 C389 1.377 . S
C374 C372 1.389 . S
C374 C375 1.524 . S
C374 C388 1.377 . S
C375 C374 1.524 . S
C375 C376 1.397 . S
C375 C380 1.363 . S
C376 H353 0.950 . S
C376 C375 1.397 . S
C376 C377 1.334 . S
C377 H354 0.950 . S
C377 C376 1.334 . S
C377 C378 1.287 . S
C378 C377 1.287 . S
C378 C379 1.524 . S
C378 H397 0.913 . S
C379 H355 0.950 . S
C379 C378 1.524 . S
C379 C380 1.415 . S
C380 H356 0.950 . S
C380 C375 1.363 . S
C380 C379 1.415 . S
C381 H357 0.951 . S
C381 C382 1.366 . S
C381 C383 1.388 . S
C382 C381 1.366 . S
C382 C386 1.385 . S
C383 H358 0.951 . S
C383 C381 1.388 . S
C383 C384 1.366 . S
C384 C383 1.366 . S
C384 C385 1.414 . S
C384 C387 1.499 . S
C385 H359 0.950 . S
C385 C384 1.414 . S
C385 C386 1.374 . S
C386 H360 0.950 . S
C386 C382 1.385 . S
C386 C385 1.374 . S
C387 C384 1.499 . S
C387 C388 1.373 . S
C387 C389 1.389 . S
C388 H361 0.950 . S
C388 C374 1.377 . S
C388 C387 1.373 . S
C389 C373 1.377 . S
C389 C387 1.389 . S
C389 C390 1.524 . S
C390 C389 1.524 . S
C390 C391 1.397 . S
C390 C395 1.363 . S
C391 H362 0.950 . S
C391 C390 1.397 . S
C391 C392 1.334 . S
C392 H363 0.950 . S
C392 C391 1.334 . S
C392 C393 1.287 . S
C393 C392 1.287 . S
C393 C394 1.524 . S
C393 H396 0.999 . S
C394 H364 0.950 . S
C394 C393 1.524 . S
C394 C395 1.415 . S
C395 H365 0.950 . S
C395 C390 1.363 . S
C395 C394 1.415 . S
H396 C393 0.999 . S
H397 C378 0.913 . S
H398 C416 0.951 . S
H399 C418 0.951 . S
H400 C420 0.950 . S
H401 C421 0.950 . S
H402 C423 0.950 . S
H403 C426 0.950 . S
H404 C427 0.950 . S
H405 C429 0.950 . S
H406 C430 0.950 . S
H407 C431 0.951 . S
H408 C433 0.951 . S
H409 C435 0.950 . S
H410 C436 0.950 . S
H411 C438 0.950 . S
H412 C441 0.950 . S
H413 C442 0.950 . S
H414 C444 0.950 . S
H415 C445 0.950 . S
C416 H398 0.951 . S
C416 C417 1.366 . S
C416 C418 1.388 . S
C417 C416 1.366 . S
C417 C421 1.385 . S
C418 H399 0.951 . S
C418 C416 1.388 . S
C418 C419 1.366 . S
C419 C418 1.366 . S
C419 C420 1.414 . S
C419 C422 1.499 . S
C420 H400 0.950 . S
C420 C419 1.414 . S
C420 C421 1.374 . S
C421 H401 0.950 . S
C421 C417 1.385 . S
C421 C420 1.374 . S
C422 C419 1.499 . S
C422 C423 1.373 . S
C422 C424 1.389 . S
C423 H402 0.950 . S
C423 C422 1.373 . S
C423 C439 1.377 . S
C424 C422 1.389 . S
C424 C425 1.524 . S
C424 C438 1.377 . S
C425 C424 1.524 . S
C425 C426 1.397 . S
C425 C430 1.363 . S
C426 H403 0.950 . S
C426 C425 1.397 . S
C426 C427 1.334 . S
C427 H404 0.950 . S
C427 C426 1.334 . S
C427 C428 1.287 . S
C428 C427 1.287 . S
C428 C429 1.524 . S
C428 H447 0.913 . S
C429 H405 0.950 . S
C429 C428 1.524 . S
C429 C430 1.415 . S
C430 H406 0.950 . S
C430 C425 1.363 . S
C430 C429 1.415 . S
C431 H407 0.951 . S
C431 C432 1.366 . S
C431 C433 1.388 . S
C432 C431 1.366 . S
C432 C436 1.385 . S
C433 H408 0.951 . S
C433 C431 1.388 . S
C433 C434 1.366 . S
C434 C433 1.366 . S
C434 C435 1.414 . S
C434 C437 1.499 . S
C435 H409 0.950 . S
C435 C434 1.414 . S
C435 C436 1.374 . S
C436 H410 0.950 . S
C436 C432 1.385 . S
C436 C435 1.374 . S
C437 C434 1.499 . S
C437 C438 1.373 . S
C437 C439 1.389 . S
C438 H411 0.950 . S
C438 C424 1.377 . S
C438 C437 1.373 . S
C439 C423 1.377 . S
C439 C437 1.389 . S
C439 C440 1.524 . S
C440 C439 1.524 . S
C440 C441 1.397 . S
C440 C445 1.363 . S
C441 H412 0.950 . S
C441 C440 1.397 . S
C441 C442 1.334 . S
C442 H413 0.950 . S
C442 C441 1.334 . S
C442 C443 1.287 . S
C443 C442 1.287 . S
C443 C444 1.524 . S
C443 H446 0.999 . S
C444 H414 0.950 . S
C444 C443 1.524 . S
C444 C445 1.415 . S
C445 H415 0.950 . S
C445 C440 1.363 . S
C445 C444 1.415 . S
H446 C443 0.999 . S
H447 C428 0.913 . S
H448 C466 0.951 . S
H449 C468 0.951 . S
H450 C470 0.950 . S
H451 C471 0.950 . S
H452 C473 0.950 . S
H453 C476 0.950 . S
H454 C477 0.950 . S
H455 C479 0.950 . S
H456 C480 0.950 . S
H457 C481 0.951 . S
H458 C483 0.951 . S
H459 C485 0.950 . S
H460 C486 0.950 . S
H461 C488 0.950 . S
H462 C491 0.950 . S
H463 C492 0.950 . S
H464 C494 0.950 . S
H465 C495 0.950 . S
C466 H448 0.951 . S
C466 C467 1.366 . S
C466 C468 1.388 . S
C467 C466 1.366 . S
C467 C471 1.385 . S
C468 H449 0.951 . S
C468 C466 1.388 . S
C468 C469 1.366 . S
C469 C468 1.366 . S
C469 C470 1.414 . S
C469 C472 1.499 . S
C470 H450 0.950 . S
C470 C469 1.414 . S
C470 C471 1.374 . S
C471 H451 0.950 . S
C471 C467 1.385 . S
C471 C470 1.374 . S
C472 C469 1.499 . S
C472 C473 1.373 . S
C472 C474 1.389 . S
C473 H452 0.950 . S
C473 C472 1.373 . S
C473 C489 1.377 . S
C474 C472 1.389 . S
C474 C475 1.524 . S
C474 C488 1.377 . S
C475 C474 1.524 . S
C475 C476 1.397 . S
C475 C480 1.363 . S
C476 H453 0.950 . S
C476 C475 1.397 . S
C476 C477 1.334 . S
C477 H454 0.950 . S
C477 C476 1.334 . S
C477 C478 1.287 . S
C478 C477 1.287 . S
C478 C479 1.524 . S
C478 H497 0.913 . S
C479 H455 0.950 . S
C479 C478 1.524 . S
C479 C480 1.415 . S
C480 H456 0.950 . S
C480 C475 1.363 . S
C480 C479 1.415 . S
C481 H457 0.951 . S
C481 C482 1.366 . S
C481 C483 1.388 . S
C482 C481 1.366 . S
C482 C486 1.385 . S
C483 H458 0.951 . S
C483 C481 1.388 . S
C483 C484 1.366 . S
C484 C483 1.366 . S
C484 C485 1.414 . S
C484 C487 1.499 . S
C485 H459 0.950 . S
C485 C484 1.414 . S
C485 C486 1.374 . S
C486 H460 0.950 . S
C486 C482 1.385 . S
C486 C485 1.374 . S
C487 C484 1.499 . S
C487 C488 1.373 . S
C487 C489 1.389 . S
C488 H461 0.950 . S
C488 C474 1.377 . S
C488 C487 1.373 . S
C489 C473 1.377 . S
C489 C487 1.389 . S
C489 C490 1.524 . S
C490 C489 1.524 . S
C490 C491 1.397 . S
C490 C495 1.363 . S
C491 H462 0.950 . S
C491 C490 1.397 . S
C491 C492 1.334 . S
C492 H463 0.950 . S
C492 C491 1.334 . S
C492 C493 1.287 . S
C493 C492 1.287 . S
C493 C494 1.524 . S
C493 H496 0.999 . S
C494 H464 0.950 . S
C494 C493 1.524 . S
C494 C495 1.415 . S
C495 H465 0.950 . S
C495 C490 1.363 . S
C495 C494 1.415 . S
H496 C493 0.999 . S
H497 C478 0.913 . S
H498 C516 0.951 . S
H499 C518 0.951 . S
H500 C520 0.950 . S
H501 C521 0.950 . S
H502 C523 0.950 . S
H503 C526 0.950 . S
H504 C527 0.950 . S
H505 C529 0.950 . S
H506 C530 0.950 . S
H507 C531 0.951 . S
H508 C533 0.951 . S
H509 C535 0.950 . S
H510 C536 0.950 . S
H511 C538 0.950 . S
H512 C541 0.950 . S
H513 C542 0.950 . S
H514 C544 0.950 . S
H515 C545 0.950 . S
C516 H498 0.951 . S
C516 C517 1.366 . S
C516 C518 1.388 . S
C517 C516 1.366 . S
C517 C521 1.385 . S
C518 H499 0.951 . S
C518 C516 1.388 . S
C518 C519 1.366 . S
C519 C518 1.366 . S
C519 C520 1.414 . S
C519 C522 1.499 . S
C520 H500 0.950 . S
C520 C519 1.414 . S
C520 C521 1.374 . S
C521 H501 0.950 . S
C521 C517 1.385 . S
C521 C520 1.374 . S
C522 C519 1.499 . S
C522 C523 1.373 . S
C522 C524 1.389 . S
C523 H502 0.950 . S
C523 C522 1.373 . S
C523 C539 1.377 . S
C524 C522 1.389 . S
C524 C525 1.524 . S
C524 C538 1.377 . S
C525 C524 1.524 . S
C525 C526 1.397 . S
C525 C530 1.363 . S
C526 H503 0.950 . S
C526 C525 1.397 . S
C526 C527 1.334 . S
C527 H504 0.950 . S
C527 C526 1.334 . S
C527 C528 1.287 . S
C528 C527 1.287 . S
C528 C529 1.524 . S
C528 H547 0.913 . S
C529 H505 0.950 . S
C529 C528 1.524 . S
C529 C530 1.415 . S
C530 H506 0.950 . S
C530 C525 1.363 . S
C530 C529 1.415 . S
C531 H507 0.951 . S
C531 C532 1.366 . S
C531 C533 1.388 . S
C532 C531 1.366 . S
C532 C536 1.385 . S
C533 H508 0.951 . S
C533 C531 1.388 . S
C533 C534 1.366 . S
C534 C533 1.366 . S
C534 C535 1.414 . S
C534 C537 1.499 . S
C535 H509 0.950 . S
C535 C534 1.414 . S
C535 C536 1.374 . S
C536 H510 0.950 . S
C536 C532 1.385 . S
C536 C535 1.374 . S
C537 C534 1.499 . S
C537 C538 1.373 . S
C537 C539 1.389 . S
C538 H511 0.950 . S
C538 C524 1.377 . S
C538 C537 1.373 . S
C539 C523 1.377 . S
C539 C537 1.389 . S
C539 C540 1.524 . S
C540 C539 1.524 . S
C540 C541 1.397 . S
C540 C545 1.363 . S
C541 H512 0.950 . S
C541 C540 1.397 . S
C541 C542 1.334 . S
C542 H513 0.950 . S
C542 C541 1.334 . S
C542 C543 1.287 . S
C543 C542 1.287 . S
C543 C544 1.524 . S
C543 H546 0.999 . S
C544 H514 0.950 . S
C544 C543 1.524 . S
C544 C545 1.415 . S
C545 H515 0.950 . S
C545 C540 1.363 . S
C545 C544 1.415 . S
H546 C543 0.999 . S
H547 C528 0.913 . S
H548 C566 0.951 . S
H549 C568 0.951 . S
H550 C570 0.950 . S
H551 C571 0.950 . S
H552 C573 0.950 . S
H553 C576 0.950 . S
H554 C577 0.950 . S
H555 C579 0.950 . S
H556 C580 0.950 . S
H557 C581 0.951 . S
H558 C583 0.951 . S
H559 C585 0.950 . S
H560 C586 0.950 1_455 S
H561 C588 0.950 . S
H562 C591 0.950 . S
H563 C592 0.950 . S
H564 C594 0.950 . S
H565 C595 0.950 . S
C566 H548 0.951 . S
C566 C567 1.366 . S
C566 C568 1.388 . S
C567 C566 1.366 . S
C567 C571 1.385 . S
C568 H549 0.951 . S
C568 C566 1.388 . S
C568 C569 1.366 . S
C569 C568 1.366 . S
C569 C570 1.414 . S
C569 C572 1.499 . S
C570 H550 0.950 . S
C570 C569 1.414 . S
C570 C571 1.374 . S
C571 H551 0.950 . S
C571 C567 1.385 . S
C571 C570 1.374 . S
C572 C569 1.499 . S
C572 C573 1.373 . S
C572 C574 1.389 . S
C573 H552 0.950 . S
C573 C572 1.373 . S
C573 C589 1.377 . S
C574 C572 1.389 . S
C574 C575 1.524 . S
C574 C588 1.377 . S
C575 C574 1.524 . S
C575 C576 1.397 . S
C575 C580 1.363 . S
C576 H553 0.950 . S
C576 C575 1.397 . S
C576 C577 1.334 . S
C577 H554 0.950 . S
C577 C576 1.334 . S
C577 C578 1.287 . S
C578 C577 1.287 . S
C578 C579 1.524 . S
C578 H597 0.913 . S
C579 H555 0.950 . S
C579 C578 1.524 . S
C579 C580 1.415 . S
C580 H556 0.950 . S
C580 C575 1.363 . S
C580 C579 1.415 . S
C581 H557 0.951 . S
C581 C582 1.366 . S
C581 C583 1.388 . S
C582 C581 1.366 . S
C582 C586 1.385 . S
C583 H558 0.951 . S
C583 C581 1.388 . S
C583 C584 1.366 . S
C584 C583 1.366 . S
C584 C585 1.414 . S
C584 C587 1.499 . S
C585 H559 0.950 . S
C585 C584 1.414 . S
C585 C586 1.374 . S
C586 H560 0.950 1_655 S
C586 C582 1.385 . S
C586 C585 1.374 . S
C587 C584 1.499 . S
C587 C588 1.373 . S
C587 C589 1.389 . S
C588 H561 0.950 . S
C588 C574 1.377 . S
C588 C587 1.373 . S
C589 C573 1.377 . S
C589 C587 1.389 . S
C589 C590 1.524 . S
C590 C589 1.524 . S
C590 C591 1.397 . S
C590 C595 1.363 . S
C591 H562 0.950 . S
C591 C590 1.397 . S
C591 C592 1.334 . S
C592 H563 0.950 . S
C592 C591 1.334 . S
C592 C593 1.287 . S
C593 C592 1.287 . S
C593 C594 1.524 . S
C593 H596 0.999 . S
C594 H564 0.950 . S
C594 C593 1.524 . S
C594 C595 1.415 . S
C595 H565 0.950 . S
C595 C590 1.363 . S
C595 C594 1.415 . S
H596 C593 0.999 . S
H597 C578 0.913 . S
H598 C616 0.951 . S
H599 C618 0.951 . S
H600 C620 0.950 . S
H601 C621 0.950 . S
H602 C623 0.950 . S
H603 C626 0.950 . S
H604 C627 0.950 . S
H605 C629 0.950 . S
H606 C630 0.950 . S
H607 C631 0.951 . S
H608 C633 0.951 . S
H609 C635 0.950 . S
H610 C636 0.950 . S
H611 C638 0.950 . S
H612 C641 0.950 . S
H613 C642 0.950 . S
H614 C644 0.950 . S
H615 C645 0.950 . S
C616 H598 0.951 . S
C616 C617 1.366 . S
C616 C618 1.388 . S
C617 C616 1.366 . S
C617 C621 1.385 . S
C618 H599 0.951 . S
C618 C616 1.388 . S
C618 C619 1.366 . S
C619 C618 1.366 . S
C619 C620 1.414 . S
C619 C622 1.499 . S
C620 H600 0.950 . S
C620 C619 1.414 . S
C620 C621 1.374 . S
C621 H601 0.950 . S
C621 C617 1.385 . S
C621 C620 1.374 . S
C622 C619 1.499 . S
C622 C623 1.373 . S
C622 C624 1.389 . S
C623 H602 0.950 . S
C623 C622 1.373 . S
C623 C639 1.377 . S
C624 C622 1.389 . S
C624 C625 1.524 . S
C624 C638 1.377 . S
C625 C624 1.524 . S
C625 C626 1.397 . S
C625 C630 1.363 . S
C626 H603 0.950 . S
C626 C625 1.397 . S
C626 C627 1.334 . S
C627 H604 0.950 . S
C627 C626 1.334 . S
C627 C628 1.287 . S
C628 C627 1.287 . S
C628 C629 1.524 . S
C628 H647 0.913 . S
C629 H605 0.950 . S
C629 C628 1.524 . S
C629 C630 1.415 . S
C630 H606 0.950 . S
C630 C625 1.363 . S
C630 C629 1.415 . S
C631 H607 0.951 . S
C631 C632 1.366 . S
C631 C633 1.388 . S
C632 C631 1.366 . S
C632 C636 1.385 . S
C633 H608 0.951 . S
C633 C631 1.388 . S
C633 C634 1.366 . S
C634 C633 1.366 . S
C634 C635 1.414 . S
C634 C637 1.499 . S
C635 H609 0.950 . S
C635 C634 1.414 . S
C635 C636 1.374 . S
C636 H610 0.950 . S
C636 C632 1.385 . S
C636 C635 1.374 . S
C637 C634 1.499 . S
C637 C638 1.373 . S
C637 C639 1.389 . S
C638 H611 0.950 . S
C638 C624 1.377 . S
C638 C637 1.373 . S
C639 C623 1.377 . S
C639 C637 1.389 . S
C639 C640 1.524 . S
C640 C639 1.524 . S
C640 C641 1.397 . S
C640 C645 1.363 . S
C641 H612 0.950 . S
C641 C640 1.397 . S
C641 C642 1.334 . S
C642 H613 0.950 . S
C642 C641 1.334 . S
C642 C643 1.287 . S
C643 C642 1.287 . S
C643 C644 1.524 . S
C643 H646 0.999 . S
C644 H614 0.950 . S
C644 C643 1.524 . S
C644 C645 1.415 . S
C645 H615 0.950 . S
C645 C640 1.363 . S
C645 C644 1.415 . S
H646 C643 0.999 . S
H647 C628 0.913 . S
H648 C666 0.951 . S
H649 C668 0.951 . S
H650 C670 0.950 . S
H651 C671 0.950 . S
H652 C673 0.950 . S
H653 C676 0.950 . S
H654 C677 0.950 . S
H655 C679 0.950 . S
H656 C680 0.950 . S
H657 C681 0.951 . S
H658 C683 0.951 . S
H659 C685 0.950 . S
H660 C686 0.950 . S
H661 C688 0.950 . S
H662 C691 0.950 . S
H663 C692 0.950 . S
H664 C694 0.950 . S
H665 C695 0.950 . S
C666 H648 0.951 . S
C666 C667 1.366 . S
C666 C668 1.388 . S
C667 C666 1.366 . S
C667 C671 1.385 . S
C668 H649 0.951 . S
C668 C666 1.388 . S
C668 C669 1.366 . S
C669 C668 1.366 . S
C669 C670 1.414 . S
C669 C672 1.499 . S
C670 H650 0.950 . S
C670 C669 1.414 . S
C670 C671 1.374 . S
C671 H651 0.950 . S
C671 C667 1.385 . S
C671 C670 1.374 . S
C672 C669 1.499 . S
C672 C673 1.373 . S
C672 C674 1.389 . S
C673 H652 0.950 . S
C673 C672 1.373 . S
C673 C689 1.377 . S
C674 C672 1.389 . S
C674 C675 1.524 . S
C674 C688 1.377 . S
C675 C674 1.524 . S
C675 C676 1.397 . S
C675 C680 1.363 . S
C676 H653 0.950 . S
C676 C675 1.397 . S
C676 C677 1.334 . S
C677 H654 0.950 . S
C677 C676 1.334 . S
C677 C678 1.287 . S
C678 C677 1.287 . S
C678 C679 1.524 . S
C678 H697 0.913 . S
C679 H655 0.950 . S
C679 C678 1.524 . S
C679 C680 1.415 . S
C680 H656 0.950 . S
C680 C675 1.363 . S
C680 C679 1.415 . S
C681 H657 0.951 . S
C681 C682 1.366 . S
C681 C683 1.388 . S
C682 C681 1.366 . S
C682 C686 1.385 . S
C683 H658 0.951 . S
C683 C681 1.388 . S
C683 C684 1.366 . S
C684 C683 1.366 . S
C684 C685 1.414 . S
C684 C687 1.499 . S
C685 H659 0.950 . S
C685 C684 1.414 . S
C685 C686 1.374 . S
C686 H660 0.950 . S
C686 C682 1.385 . S
C686 C685 1.374 . S
C687 C684 1.499 . S
C687 C688 1.373 . S
C687 C689 1.389 . S
C688 H661 0.950 . S
C688 C674 1.377 . S
C688 C687 1.373 . S
C689 C673 1.377 . S
C689 C687 1.389 . S
C689 C690 1.524 . S
C690 C689 1.524 . S
C690 C691 1.397 . S
C690 C695 1.363 . S
C691 H662 0.950 . S
C691 C690 1.397 . S
C691 C692 1.334 . S
C692 H663 0.950 . S
C692 C691 1.334 . S
C692 C693 1.287 . S
C693 C692 1.287 . S
C693 C694 1.524 . S
C693 H696 0.999 . S
C694 H664 0.950 . S
C694 C693 1.524 . S
C694 C695 1.415 . S
C695 H665 0.950 . S
C695 C690 1.363 . S
C695 C694 1.415 . S
H696 C693 0.999 . S
H697 C678 0.913 . S
H698 C716 0.951 . S
H699 C718 0.951 . S
H700 C720 0.950 . S
H701 C721 0.950 . S
H702 C723 0.950 . S
H703 C726 0.950 . S
H704 C727 0.950 . S
H705 C729 0.950 . S
H706 C730 0.950 . S
H707 C731 0.951 . S
H708 C733 0.951 . S
H709 C735 0.950 . S
H710 C736 0.950 . S
H711 C738 0.950 . S
H712 C741 0.950 . S
H713 C742 0.950 . S
H714 C744 0.950 . S
H715 C745 0.950 . S
C716 H698 0.951 . S
C716 C717 1.366 . S
C716 C718 1.388 . S
C717 C716 1.366 . S
C717 C721 1.385 . S
C718 H699 0.951 . S
C718 C716 1.388 . S
C718 C719 1.366 . S
C719 C718 1.366 . S
C719 C720 1.414 . S
C719 C722 1.499 . S
C720 H700 0.950 . S
C720 C719 1.414 . S
C720 C721 1.374 . S
C721 H701 0.950 . S
C721 C717 1.385 . S
C721 C720 1.374 . S
C722 C719 1.499 . S
C722 C723 1.373 . S
C722 C724 1.389 . S
C723 H702 0.950 . S
C723 C722 1.373 . S
C723 C739 1.377 . S
C724 C722 1.389 . S
C724 C725 1.524 . S
C724 C738 1.377 . S
C725 C724 1.524 . S
C725 C726 1.397 . S
C725 C730 1.363 . S
C726 H703 0.950 . S
C726 C725 1.397 . S
C726 C727 1.334 . S
C727 H704 0.950 . S
C727 C726 1.334 . S
C727 C728 1.287 . S
C728 C727 1.287 . S
C728 C729 1.524 . S
C728 H747 0.913 . S
C729 H705 0.950 . S
C729 C728 1.524 . S
C729 C730 1.415 . S
C730 H706 0.950 . S
C730 C725 1.363 . S
C730 C729 1.415 . S
C731 H707 0.951 . S
C731 C732 1.366 . S
C731 C733 1.388 . S
C732 C731 1.366 . S
C732 C736 1.385 . S
C733 H708 0.951 . S
C733 C731 1.388 . S
C733 C734 1.366 . S
C734 C733 1.366 . S
C734 C735 1.414 . S
C734 C737 1.499 . S
C735 H709 0.950 . S
C735 C734 1.414 . S
C735 C736 1.374 . S
C736 H710 0.950 . S
C736 C732 1.385 . S
C736 C735 1.374 . S
C737 C734 1.499 . S
C737 C738 1.373 . S
C737 C739 1.389 . S
C738 H711 0.950 . S
C738 C724 1.377 . S
C738 C737 1.373 . S
C739 C723 1.377 . S
C739 C737 1.389 . S
C739 C740 1.524 . S
C740 C739 1.524 . S
C740 C741 1.397 . S
C740 C745 1.363 . S
C741 H712 0.950 . S
C741 C740 1.397 . S
C741 C742 1.334 . S
C742 H713 0.950 . S
C742 C741 1.334 . S
C742 C743 1.287 . S
C743 C742 1.287 . S
C743 C744 1.524 . S
C743 H746 0.999 . S
C744 H714 0.950 . S
C744 C743 1.524 . S
C744 C745 1.415 . S
C745 H715 0.950 . S
C745 C740 1.363 . S
C745 C744 1.415 . S
H746 C743 0.999 . S
H747 C728 0.913 . S
H748 C766 0.951 . S
H749 C768 0.951 . S
H750 C770 0.950 . S
H751 C771 0.950 . S
H752 C773 0.950 . S
H753 C776 0.950 . S
H754 C777 0.950 . S
H755 C779 0.950 . S
H756 C780 0.950 . S
H757 C781 0.951 . S
H758 C783 0.951 . S
H759 C785 0.950 . S
H760 C786 0.950 . S
H761 C788 0.950 . S
H762 C791 0.950 . S
H763 C792 0.950 . S
H764 C794 0.950 . S
H765 C795 0.950 . S
C766 H748 0.951 . S
C766 C767 1.366 . S
C766 C768 1.388 . S
C767 C766 1.366 . S
C767 C771 1.385 . S
C768 H749 0.951 . S
C768 C766 1.388 . S
C768 C769 1.366 . S
C769 C768 1.366 . S
C769 C770 1.414 . S
C769 C772 1.499 . S
C770 H750 0.950 . S
C770 C769 1.414 . S
C770 C771 1.374 . S
C771 H751 0.950 . S
C771 C767 1.385 . S
C771 C770 1.374 . S
C772 C769 1.499 . S
C772 C773 1.373 . S
C772 C774 1.389 . S
C773 H752 0.950 . S
C773 C772 1.373 . S
C773 C789 1.377 . S
C774 C772 1.389 . S
C774 C775 1.524 . S
C774 C788 1.377 . S
C775 C774 1.524 . S
C775 C776 1.397 . S
C775 C780 1.363 . S
C776 H753 0.950 . S
C776 C775 1.397 . S
C776 C777 1.334 . S
C777 H754 0.950 . S
C777 C776 1.334 . S
C777 C778 1.287 . S
C778 C777 1.287 . S
C778 C779 1.524 . S
C778 H797 0.913 . S
C779 H755 0.950 . S
C779 C778 1.524 . S
C779 C780 1.415 . S
C780 H756 0.950 . S
C780 C775 1.363 . S
C780 C779 1.415 . S
C781 H757 0.951 . S
C781 C782 1.366 . S
C781 C783 1.388 . S
C782 C781 1.366 . S
C782 C786 1.385 . S
C783 H758 0.951 . S
C783 C781 1.388 . S
C783 C784 1.366 . S
C784 C783 1.366 . S
C784 C785 1.414 . S
C784 C787 1.499 . S
C785 H759 0.950 . S
C785 C784 1.414 . S
C785 C786 1.374 . S
C786 H760 0.950 . S
C786 C782 1.385 . S
C786 C785 1.374 . S
C787 C784 1.499 . S
C787 C788 1.373 . S
C787 C789 1.389 . S
C788 H761 0.950 . S
C788 C774 1.377 . S
C788 C787 1.373 . S
C789 C773 1.377 . S
C789 C787 1.389 . S
C789 C790 1.524 . S
C790 C789 1.524 . S
C790 C791 1.397 . S
C790 C795 1.363 . S
C791 H762 0.950 . S
C791 C790 1.397 . S
C791 C792 1.334 . S
C792 H763 0.950 . S
C792 C791 1.334 . S
C792 C793 1.287 . S
C793 C792 1.287 . S
C793 C794 1.524 . S
C793 H796 0.999 . S
C794 H764 0.950 . S
C794 C793 1.524 . S
C794 C795 1.415 . S
C795 H765 0.950 . S
C795 C790 1.363 . S
C795 C794 1.415 . S
H796 C793 0.999 . S
H797 C778 0.913 . S
H798 C816 0.951 . S
H799 C818 0.951 . S
H800 C820 0.950 . S
H801 C821 0.950 . S
H802 C823 0.950 1_655 S
H803 C826 0.950 . S
H804 C827 0.950 . S
H805 C829 0.950 . S
H806 C830 0.950 . S
H807 C831 0.951 . S
H808 C833 0.951 . S
H809 C835 0.950 . S
H810 C836 0.950 . S
H811 C838 0.935 1_556 S
H812 C841 0.950 . S
H813 C842 0.950 . S
H814 C844 0.950 . S
H815 C845 0.950 1_554 S
C816 H798 0.951 . S
C816 C817 1.366 . S
C816 C818 1.388 . S
C817 C816 1.366 . S
C817 C821 1.385 . S
C818 H799 0.951 . S
C818 C816 1.388 . S
C818 C819 1.366 . S
C819 C818 1.366 . S
C819 C820 1.414 . S
C819 C822 1.499 . S
C820 H800 0.950 . S
C820 C819 1.414 . S
C820 C821 1.374 . S
C821 H801 0.950 . S
C821 C817 1.385 . S
C821 C820 1.374 . S
C822 C819 1.499 . S
C822 C823 1.373 . S
C822 C824 1.389 . S
C823 H802 0.950 1_455 S
C823 C822 1.373 . S
C823 C839 1.377 . S
C824 C822 1.389 . S
C824 C825 1.524 . S
C824 C838 1.377 . S
C825 C824 1.524 . S
C825 C826 1.397 . S
C825 C830 1.363 . S
C826 H803 0.950 . S
C826 C825 1.397 . S
C826 C827 1.334 . S
C827 H804 0.950 . S
C827 C826 1.334 . S
C827 C828 1.287 . S
C828 C827 1.287 . S
C828 C829 1.524 . S
C828 H847 0.913 . S
C829 H805 0.950 . S
C829 C828 1.524 . S
C829 C830 1.415 . S
C830 H806 0.950 . S
C830 C825 1.363 . S
C830 C829 1.415 . S
C831 H807 0.951 . S
C831 C832 1.366 . S
C831 C833 1.388 . S
C832 C831 1.366 . S
C832 C836 1.385 . S
C833 H808 0.951 . S
C833 C831 1.388 . S
C833 C834 1.366 . S
C834 C833 1.366 . S
C834 C835 1.414 . S
C834 C837 1.499 . S
C835 H809 0.950 . S
C835 C834 1.414 . S
C835 C836 1.374 . S
C836 H810 0.950 . S
C836 C832 1.385 . S
C836 C835 1.374 . S
C837 C834 1.499 . S
C837 C838 1.373 1_556 S
C837 C839 1.389 1_556 S
C838 H811 0.935 1_554 S
C838 C824 1.377 . S
C838 C837 1.373 1_554 S
C839 C823 1.377 . S
C839 C837 1.389 1_554 S
C839 C840 1.524 1_454 S
C840 C839 1.524 1_656 S
C840 C841 1.397 . S
C840 C845 1.363 . S
C841 H812 0.950 . S
C841 C840 1.397 . S
C841 C842 1.334 . S
C842 H813 0.950 . S
C842 C841 1.334 . S
C842 C843 1.287 . S
C843 C842 1.287 . S
C843 C844 1.524 . S
C843 H846 0.999 . S
C844 H814 0.950 . S
C844 C843 1.524 . S
C844 C845 1.415 . S
C845 H815 0.950 1_556 S
C845 C840 1.363 . S
C845 C844 1.415 . S
H846 C843 0.999 . S
H847 C828 0.913 . S
H848 C866 0.951 . S
H849 C868 0.945 . S
H850 C870 0.950 . S
H851 C871 0.950 . S
H852 C873 0.950 . S
H853 C876 0.950 . S
H854 C877 0.950 . S
H855 C879 0.950 . S
H856 C880 0.950 . S
H857 C881 0.951 . S
H858 C883 0.951 . S
H859 C885 0.950 1_565 S
H860 C886 0.950 1_565 S
H861 C888 0.950 . S
H862 C891 0.950 . S
H863 C892 0.950 . S
H864 C894 0.950 . S
H865 C895 0.950 . S
C866 H848 0.951 . S
C866 C867 1.366 . S
C866 C868 1.388 . S
C867 C866 1.366 . S
C867 C871 1.385 . S
C868 H849 0.945 . S
C868 C866 1.388 . S
C868 C869 1.366 . S
C869 C868 1.366 . S
C869 C870 1.414 . S
C869 C872 1.499 . S
C870 H850 0.950 . S
C870 C869 1.414 . S
C870 C871 1.374 . S
C871 H851 0.950 . S
C871 C867 1.385 . S
C871 C870 1.374 . S
C872 C869 1.499 . S
C872 C873 1.373 . S
C872 C874 1.389 1_545 S
C873 H852 0.950 . S
C873 C872 1.373 . S
C873 C889 1.377 . S
C874 C872 1.389 1_565 S
C874 C875 1.524 . S
C874 C888 1.377 . S
C875 C874 1.524 . S
C875 C876 1.397 . S
C875 C880 1.363 . S
C876 H853 0.950 . S
C876 C875 1.397 . S
C876 C877 1.334 . S
C877 H854 0.950 . S
C877 C876 1.334 . S
C877 C878 1.287 . S
C878 C877 1.287 . S
C878 C879 1.524 . S
C878 H897 0.913 . S
C879 H855 0.950 . S
C879 C878 1.524 . S
C879 C880 1.415 . S
C880 H856 0.950 . S
C880 C875 1.363 . S
C880 C879 1.415 . S
C881 H857 0.951 . S
C881 C882 1.366 . S
C881 C883 1.388 . S
C882 C881 1.366 . S
C882 C886 1.385 . S
C883 H858 0.951 . S
C883 C881 1.388 . S
C883 C884 1.366 . S
C884 C883 1.366 . S
C884 C885 1.414 . S
C884 C887 1.499 . S
C885 H859 0.950 1_545 S
C885 C884 1.414 . S
C885 C886 1.374 . S
C886 H860 0.950 1_545 S
C886 C882 1.385 . S
C886 C885 1.374 . S
C887 C884 1.499 . S
C887 C888 1.373 1_545 S
C887 C889 1.389 . S
C888 H861 0.950 . S
C888 C874 1.377 . S
C888 C887 1.373 1_565 S
C889 C873 1.377 . S
C889 C887 1.389 . S
C889 C890 1.524 . S
C890 C889 1.524 . S
C890 C891 1.397 . S
C890 C895 1.363 . S
C891 H862 0.950 . S
C891 C890 1.397 . S
C891 C892 1.334 . S
C892 H863 0.950 . S
C892 C891 1.334 . S
C892 C893 1.287 . S
C893 C892 1.287 . S
C893 C894 1.524 . S
C893 H896 0.999 . S
C894 H864 0.950 . S
C894 C893 1.524 . S
C894 C895 1.415 . S
C895 H865 0.950 . S
C895 C890 1.363 . S
C895 C894 1.415 . S
H896 C893 0.999 . S
H897 C878 0.913 . S
H898 C916 0.951 . S
H899 C918 0.951 . S
H900 C920 0.950 . S
H901 C921 0.950 . S
H902 C923 0.950 . S
H903 C926 0.950 . S
H904 C927 0.950 . S
H905 C929 0.950 . S
H906 C930 0.950 . S
H907 C931 0.951 . S
H908 C933 0.951 . S
H909 C935 0.950 . S
H910 C936 0.950 . S
H911 C938 0.950 . S
H912 C941 0.950 . S
H913 C942 0.950 . S
H914 C944 0.950 . S
H915 C945 0.950 . S
C916 H898 0.951 . S
C916 C917 1.366 . S
C916 C918 1.388 . S
C917 C916 1.366 . S
C917 C921 1.385 . S
C918 H899 0.951 . S
C918 C916 1.388 . S
C918 C919 1.366 . S
C919 C918 1.366 . S
C919 C920 1.414 . S
C919 C922 1.499 . S
C920 H900 0.950 . S
C920 C919 1.414 . S
C920 C921 1.374 . S
C921 H901 0.950 . S
C921 C917 1.385 . S
C921 C920 1.374 . S
C922 C919 1.499 . S
C922 C923 1.373 . S
C922 C924 1.389 . S
C923 H902 0.950 . S
C923 C922 1.373 . S
C923 C939 1.377 . S
C924 C922 1.389 . S
C924 C925 1.524 . S
C924 C938 1.377 . S
C925 C924 1.524 . S
C925 C926 1.397 . S
C925 C930 1.363 . S
C926 H903 0.950 . S
C926 C925 1.397 . S
C926 C927 1.334 . S
C927 H904 0.950 . S
C927 C926 1.334 . S
C927 C928 1.287 . S
C928 C927 1.287 . S
C928 C929 1.524 . S
C928 H947 0.913 . S
C929 H905 0.950 . S
C929 C928 1.524 . S
C929 C930 1.415 . S
C930 H906 0.950 . S
C930 C925 1.363 . S
C930 C929 1.415 . S
C931 H907 0.951 . S
C931 C932 1.366 . S
C931 C933 1.388 . S
C932 C931 1.366 . S
C932 C936 1.385 . S
C933 H908 0.951 . S
C933 C931 1.388 . S
C933 C934 1.366 . S
C934 C933 1.366 . S
C934 C935 1.414 . S
C934 C937 1.499 . S
C935 H909 0.950 . S
C935 C934 1.414 . S
C935 C936 1.374 . S
C936 H910 0.950 . S
C936 C932 1.385 . S
C936 C935 1.374 . S
C937 C934 1.499 . S
C937 C938 1.373 . S
C937 C939 1.389 . S
C938 H911 0.950 . S
C938 C924 1.377 . S
C938 C937 1.373 . S
C939 C923 1.377 . S
C939 C937 1.389 . S
C939 C940 1.524 . S
C940 C939 1.524 . S
C940 C941 1.397 . S
C940 C945 1.363 . S
C941 H912 0.950 . S
C941 C940 1.397 . S
C941 C942 1.334 . S
C942 H913 0.950 . S
C942 C941 1.334 . S
C942 C943 1.287 . S
C943 C942 1.287 . S
C943 C944 1.524 . S
C943 H946 0.999 . S
C944 H914 0.950 . S
C944 C943 1.524 . S
C944 C945 1.415 . S
C945 H915 0.950 . S
C945 C940 1.363 . S
C945 C944 1.415 . S
H946 C943 0.999 . S
H947 C928 0.913 . S
H948 C966 0.951 . S
H949 C968 0.951 . S
H950 C970 0.950 . S
H951 C971 0.950 . S
H952 C973 0.950 . S
H953 C976 0.950 . S
H954 C977 0.950 . S
H955 C979 0.950 . S
H956 C980 0.950 . S
H957 C981 0.951 . S
H958 C983 0.951 . S
H959 C985 0.950 . S
H960 C986 0.950 . S
H961 C988 0.950 . S
H962 C991 0.950 . S
H963 C992 0.950 . S
H964 C994 0.950 . S
H965 C995 0.950 . S
C966 H948 0.951 . S
C966 C967 1.366 . S
C966 C968 1.388 . S
C967 C966 1.366 . S
C967 C971 1.385 . S
C968 H949 0.951 . S
C968 C966 1.388 . S
C968 C969 1.366 . S
C969 C968 1.366 . S
C969 C970 1.414 . S
C969 C972 1.499 . S
C970 H950 0.950 . S
C970 C969 1.414 . S
C970 C971 1.374 . S
C971 H951 0.950 . S
C971 C967 1.385 . S
C971 C970 1.374 . S
C972 C969 1.499 . S
C972 C973 1.373 . S
C972 C974 1.389 1_545 S
C973 H952 0.950 . S
C973 C972 1.373 . S
C973 C989 1.377 . S
C974 C972 1.389 1_565 S
C974 C975 1.524 . S
C974 C988 1.377 . S
C975 C974 1.524 . S
C975 C976 1.397 . S
C975 C980 1.363 . S
C976 H953 0.950 . S
C976 C975 1.397 . S
C976 C977 1.334 . S
C977 H954 0.950 . S
C977 C976 1.334 . S
C977 C978 1.287 . S
C978 C977 1.287 . S
C978 C979 1.524 . S
C978 H997 0.913 . S
C979 H955 0.950 . S
C979 C978 1.524 . S
C979 C980 1.415 . S
C980 H956 0.950 . S
C980 C975 1.363 . S
C980 C979 1.415 . S
C981 H957 0.951 . S
C981 C982 1.366 . S
C981 C983 1.388 . S
C982 C981 1.366 . S
C982 C986 1.385 . S
C983 H958 0.951 . S
C983 C981 1.388 . S
C983 C984 1.366 . S
C984 C983 1.366 . S
C984 C985 1.414 . S
C984 C987 1.499 . S
C985 H959 0.950 . S
C985 C984 1.414 . S
C985 C986 1.374 . S
C986 H960 0.950 . S
C986 C982 1.385 . S
C986 C985 1.374 . S
C987 C984 1.499 . S
C987 C988 1.373 1_545 S
C987 C989 1.389 . S
C988 H961 0.950 . S
C988 C974 1.377 . S
C988 C987 1.373 1_565 S
C989 C973 1.377 . S
C989 C987 1.389 . S
C989 C990 1.524 . S
C990 C989 1.524 . S
C990 C991 1.397 . S
C990 C995 1.363 . S
C991 H962 0.950 . S
C991 C990 1.397 . S
C991 C992 1.334 . S
C992 H963 0.950 . S
C992 C991 1.334 . S
C992 C993 1.287 . S
C993 C992 1.287 . S
C993 C994 1.524 . S
C993 H996 0.999 . S
C994 H964 0.950 . S
C994 C993 1.524 . S
C994 C995 1.415 . S
C995 H965 0.950 . S
C995 C990 1.363 . S
C995 C994 1.415 . S
H996 C993 0.999 . S
H997 C978 0.913 . S
H998 C1016 0.951 . S
H999 C1018 0.951 . S
H1000 C1020 0.950 . S
H1001 C1021 0.950 . S
H1002 C1023 0.950 . S
H1003 C1026 0.950 . S
H1004 C1027 0.950 . S
H1005 C1029 0.950 . S
H1006 C1030 0.950 . S
H1007 C1031 0.951 . S
H1008 C1033 0.951 . S
H1009 C1035 0.950 . S
H1010 C1036 0.950 . S
H1011 C1038 0.950 . S
H1012 C1041 0.950 . S
H1013 C1042 0.950 . S
H1014 C1044 0.950 . S
H1015 C1045 0.950 . S
C1016 H998 0.951 . S
C1016 C1017 1.366 . S
C1016 C1018 1.388 . S
C1017 C1016 1.366 . S
C1017 C1021 1.385 . S
C1018 H999 0.951 . S
C1018 C1016 1.388 . S
C1018 C1019 1.366 . S
C1019 C1018 1.366 . S
C1019 C1020 1.414 . S
C1019 C1022 1.499 . S
C1020 H1000 0.950 . S
C1020 C1019 1.414 . S
C1020 C1021 1.374 . S
C1021 H1001 0.950 . S
C1021 C1017 1.385 . S
C1021 C1020 1.374 . S
C1022 C1019 1.499 . S
C1022 C1023 1.373 . S
C1022 C1024 1.389 . S
C1023 H1002 0.950 . S
C1023 C1022 1.373 . S
C1023 C1039 1.427 . S
C1024 C1022 1.389 . S
C1024 C1025 1.524 . S
C1024 C1038 1.377 . S
C1025 C1024 1.524 . S
C1025 C1026 1.397 . S
C1025 C1030 1.363 . S
C1026 H1003 0.950 . S
C1026 C1025 1.397 . S
C1026 C1027 1.334 . S
C1027 H1004 0.950 . S
C1027 C1026 1.334 . S
C1027 C1028 1.287 . S
C1028 C1027 1.287 . S
C1028 C1029 1.524 . S
C1028 H1047 0.913 . S
C1029 H1005 0.950 . S
C1029 C1028 1.524 . S
C1029 C1030 1.415 . S
C1030 H1006 0.950 . S
C1030 C1025 1.363 . S
C1030 C1029 1.415 . S
C1031 H1007 0.951 . S
C1031 C1032 1.366 . S
C1031 C1033 1.388 . S
C1032 C1031 1.366 . S
C1032 C1036 1.385 . S
C1033 H1008 0.951 . S
C1033 C1031 1.388 . S
C1033 C1034 1.366 . S
C1034 C1033 1.366 . S
C1034 C1035 1.414 . S
C1034 C1037 1.499 . S
C1035 H1009 0.950 . S
C1035 C1034 1.414 . S
C1035 C1036 1.374 . S
C1036 H1010 0.950 . S
C1036 C1032 1.385 . S
C1036 C1035 1.374 . S
C1037 C1034 1.499 . S
C1037 C1038 1.373 1_554 S
C1037 C1039 1.373 1_554 S
C1038 H1011 0.950 . S
C1038 C1024 1.377 . S
C1038 C1037 1.373 1_556 S
C1039 C1023 1.427 . S
C1039 C1037 1.373 1_556 S
C1039 C1040 1.494 1_556 S
C1040 C1039 1.494 1_554 S
C1040 C1041 1.397 . S
C1040 C1045 1.363 . S
C1041 H1012 0.950 . S
C1041 C1040 1.397 . S
C1041 C1042 1.334 . S
C1042 H1013 0.950 . S
C1042 C1041 1.334 . S
C1042 C1043 1.287 . S
C1043 C1042 1.287 . S
C1043 C1044 1.524 . S
C1043 H1046 0.999 . S
C1044 H1014 0.950 . S
C1044 C1043 1.524 . S
C1044 C1045 1.415 . S
C1045 H1015 0.950 . S
C1045 C1040 1.363 . S
C1045 C1044 1.415 . S
H1046 C1043 0.999 . S
H1047 C1028 0.913 . S
H1048 C1066 0.951 . S
H1049 C1068 0.951 . S
H1050 C1070 0.950 . S
H1051 C1071 0.950 . S
H1052 C1073 0.950 . S
H1053 C1076 0.950 1_455 S
H1054 C1077 0.950 . S
H1055 C1079 0.950 . S
H1056 C1080 0.950 . S
H1057 C1081 0.951 . S
H1058 C1083 0.951 . S
H1059 C1085 0.950 . S
H1060 C1086 0.950 . S
H1061 C1088 0.950 . S
H1062 C1091 0.950 . S
H1063 C1092 0.950 . S
H1064 C1094 0.950 . S
H1065 C1095 0.950 . S
C1066 H1048 0.951 . S
C1066 C1067 1.366 . S
C1066 C1068 1.388 . S
C1067 C1066 1.366 . S
C1067 C1071 1.385 1_655 S
C1068 H1049 0.951 . S
C1068 C1066 1.388 . S
C1068 C1069 1.366 1_655 S
C1069 C1068 1.366 1_455 S
C1069 C1070 1.414 . S
C1069 C1072 1.499 . S
C1070 H1050 0.950 . S
C1070 C1069 1.414 . S
C1070 C1071 1.374 . S
C1071 H1051 0.950 . S
C1071 C1067 1.385 1_455 S
C1071 C1070 1.374 . S
C1072 C1069 1.499 . S
C1072 C1073 1.373 . S
C1072 C1074 1.389 1_455 S
C1073 H1052 0.950 . S
C1073 C1072 1.373 . S
C1073 C1089 1.377 . S
C1074 C1072 1.389 1_655 S
C1074 C1075 1.524 . S
C1074 C1088 1.377 . S
C1075 C1074 1.524 . S
C1075 C1076 1.397 . S
C1075 C1080 1.363 . S
C1076 H1053 0.950 1_655 S
C1076 C1075 1.397 . S
C1076 C1077 1.334 . S
C1077 H1054 0.950 . S
C1077 C1076 1.334 . S
C1077 C1078 1.287 . S
C1078 C1077 1.287 . S
C1078 C1079 1.524 . S
C1078 H1097 0.913 . S
C1079 H1055 0.950 . S
C1079 C1078 1.524 . S
C1079 C1080 1.415 . S
C1080 H1056 0.950 . S
C1080 C1075 1.363 . S
C1080 C1079 1.415 . S
C1081 H1057 0.951 . S
C1081 C1082 1.366 . S
C1081 C1083 1.388 . S
C1082 C1081 1.366 . S
C1082 C1086 1.385 1_455 S
C1083 H1058 0.951 . S
C1083 C1081 1.388 . S
C1083 C1084 1.366 . S
C1084 C1083 1.366 . S
C1084 C1085 1.414 1_455 S
C1084 C1087 1.499 . S
C1085 H1059 0.950 . S
C1085 C1084 1.414 1_655 S
C1085 C1086 1.374 . S
C1086 H1060 0.950 . S
C1086 C1082 1.385 1_655 S
C1086 C1085 1.374 . S
C1087 C1084 1.499 . S
C1087 C1088 1.373 1_455 S
C1087 C1089 1.389 . S
C1088 H1061 0.950 . S
C1088 C1074 1.377 . S
C1088 C1087 1.373 1_655 S
C1089 C1073 1.377 . S
C1089 C1087 1.389 . S
C1089 C1090 1.524 . S
C1090 C1089 1.524 . S
C1090 C1091 1.397 . S
C1090 C1095 1.363 . S
C1091 H1062 0.950 . S
C1091 C1090 1.397 . S
C1091 C1092 1.334 . S
C1092 H1063 0.950 . S
C1092 C1091 1.334 . S
C1092 C1093 1.287 . S
C1093 C1092 1.287 . S
C1093 C1094 1.524 . S
C1093 H1096 0.999 . S
C1094 H1064 0.950 . S
C1094 C1093 1.524 . S
C1094 C1095 1.415 . S
C1095 H1065 0.950 . S
C1095 C1090 1.363 . S
C1095 C1094 1.415 . S
H1096 C1093 0.999 . S
H1097 C1078 0.913 . S
C217 C6 0.452 . S
C232 C189 0.534 . S
C267 C59 1.782 . S
C282 C167 1.760 1_655 S
C317 C86 1.095 . S
C332 C180 1.089 . S
C367 C15 0.278 . S
C382 C193 0.173 . S
C432 C163 1.865 . S
C417 C50 1.990 . S
C482 C176 1.228 . S
C467 C95 1.301 . S
C517 C46 1.037 . S
C532 C141 1.030 . S
C567 C99 2.998 . S
C582 C154 2.970 1_655 S
C617 C10 1.987 . S
C632 C124 1.865 . S
C682 C137 1.250 . S
C667 C55 1.312 . S
C732 C150 2.887 . S
C717 C90 3.035 . S
C767 C19 1.786 . S
C782 C128 1.775 . S
C832 C155 1.738 . S
C817 C18 1.687 . S
C867 C49 1.461 . S
C882 C129 1.500 . S
C917 C98 1.509 . S
C932 C142 1.605 . S
C982 C181 1.548 . S
C967 C58 1.468 . S
C1032 C194 1.345 . S
C1017 C89 1.325 . S
C1067 C9 1.433 1_655 S
C1082 C168 1.490 . S
