# Generated by pormake.
# Topology pyr, (3,6)-cn, num edge types: 1
# Building blocks:
#     Node 0, Type 0, BuildingBlock: BETDIP_clean_linker_0, # of connection points: 3
#     Node 1, Type 0, BuildingBlock: BETDIP_clean_linker_0, # of connection points: 3
#     Node 2, Type 0, BuildingBlock: BETDIP_clean_linker_0, # of connection points: 3
#     Node 3, Type 0, BuildingBlock: BETDIP_clean_linker_0, # of connection points: 3
#     Node 4, Type 0, BuildingBlock: BETDIP_clean_linker_0, # of connection points: 3
#     Node 5, Type 0, BuildingBlock: BETDIP_clean_linker_0, # of connection points: 3
#     Node 6, Type 0, BuildingBlock: BETDIP_clean_linker_0, # of connection points: 3
#     Node 7, Type 0, BuildingBlock: BETDIP_clean_linker_0, # of connection points: 3
#     Node 8, Type 1, BuildingBlock: BETFAJ_clean_sbu_0, # of connection points: 6
#     Node 9, Type 1, BuildingBlock: BETFAJ_clean_sbu_0, # of connection points: 6
#     Node 10, Type 1, BuildingBlock: BETFAJ_clean_sbu_0, # of connection points: 6
#     Node 11, Type 1, BuildingBlock: BETFAJ_clean_sbu_0, # of connection points: 6
#     Edge 12, Type (0, 1), BuildingBlock: XIVTED_clean_linker_0, # of connection points: 2
#     Edge 13, Type (0, 1), BuildingBlock: XIVTED_clean_linker_0, # of connection points: 2
#     Edge 14, Type (0, 1), BuildingBlock: XIVTED_clean_linker_0, # of connection points: 2
#     Edge 15, Type (0, 1), BuildingBlock: XIVTED_clean_linker_0, # of connection points: 2
#     Edge 16, Type (0, 1), BuildingBlock: XIVTED_clean_linker_0, # of connection points: 2
#     Edge 17, Type (0, 1), BuildingBlock: XIVTED_clean_linker_0, # of connection points: 2
#     Edge 18, Type (0, 1), BuildingBlock: XIVTED_clean_linker_0, # of connection points: 2
#     Edge 19, Type (0, 1), BuildingBlock: XIVTED_clean_linker_0, # of connection points: 2
#     Edge 20, Type (0, 1), BuildingBlock: XIVTED_clean_linker_0, # of connection points: 2
#     Edge 21, Type (0, 1), BuildingBlock: XIVTED_clean_linker_0, # of connection points: 2
#     Edge 22, Type (0, 1), BuildingBlock: XIVTED_clean_linker_0, # of connection points: 2
#     Edge 23, Type (0, 1), BuildingBlock: XIVTED_clean_linker_0, # of connection points: 2
#     Edge 24, Type (0, 1), BuildingBlock: XIVTED_clean_linker_0, # of connection points: 2
#     Edge 25, Type (0, 1), BuildingBlock: XIVTED_clean_linker_0, # of connection points: 2
#     Edge 26, Type (0, 1), BuildingBlock: XIVTED_clean_linker_0, # of connection points: 2
#     Edge 27, Type (0, 1), BuildingBlock: XIVTED_clean_linker_0, # of connection points: 2
#     Edge 28, Type (0, 1), BuildingBlock: XIVTED_clean_linker_0, # of connection points: 2
#     Edge 29, Type (0, 1), BuildingBlock: XIVTED_clean_linker_0, # of connection points: 2
#     Edge 30, Type (0, 1), BuildingBlock: XIVTED_clean_linker_0, # of connection points: 2
#     Edge 31, Type (0, 1), BuildingBlock: XIVTED_clean_linker_0, # of connection points: 2
#     Edge 32, Type (0, 1), BuildingBlock: XIVTED_clean_linker_0, # of connection points: 2
#     Edge 33, Type (0, 1), BuildingBlock: XIVTED_clean_linker_0, # of connection points: 2
#     Edge 34, Type (0, 1), BuildingBlock: XIVTED_clean_linker_0, # of connection points: 2
#     Edge 35, Type (0, 1), BuildingBlock: XIVTED_clean_linker_0, # of connection points: 2
# Relax obj value: 0.129
# Max RMSD: 0.169
# Mean RMSD: 0.137
data_MOF--net-pyr--node1-BETFAJ_clean_sbu_0--node2-BETDIP_clean_linker_0--edge1-XIVTED_clean_linker_0
_symmetry_space_group_name_H-M    P1
_symmetry_Int_Tables_number       1
_symmetry_cell_setting            triclinic
loop_
_symmetry_equiv_pos_as_xyz
'x, y, z'
_cell_length_a     38.259582
_cell_length_b     39.993988
_cell_length_c     37.642167
_cell_angle_alpha  91.767882
_cell_angle_beta   87.536535
_cell_angle_gamma 106.52602
loop_
_atom_site_label
_atom_site_type_symbol
_atom_site_fract_x
_atom_site_fract_y
_atom_site_fract_z
_atom_type_partial_charge
H0 H 0.33998 0.34608 0.23093 0.0
H1 H 0.40918 0.31656 0.15026 0.0
H2 H 0.3682 0.25029 0.23958 0.0
H3 H 0.37622 0.40456 0.20838 0.0
C4 C 0.36605 0.39398 0.18265 0.0
C5 C 0.35505 0.32839 0.2209 0.0
C6 C 0.352 0.29765 0.23924 0.0
C7 C 0.37602 0.33551 0.18895 0.0
C8 C 0.39413 0.31161 0.17552 0.0
C9 C 0.39161 0.2808 0.19379 0.0
C10 C 0.37083 0.27432 0.22578 0.0
N11 N 0.3762 0.3647 0.16827 0.0
H12 H 0.16983 0.82401 0.70879 0.0
H13 H 0.18849 0.77813 0.60784 0.0
H14 H 0.27956 0.83431 0.66969 0.0
H15 H 0.09963 0.77489 0.61047 0.0
C16 C 0.12064 0.79521 0.62331 0.0
C17 C 0.18876 0.81897 0.6885 0.0
C18 C 0.22652 0.83295 0.69206 0.0
C19 C 0.17521 0.79988 0.65782 0.0
C20 C 0.19936 0.7934 0.63121 0.0
C21 C 0.2372 0.80531 0.6354 0.0
C22 C 0.25046 0.82563 0.66564 0.0
N23 N 0.13709 0.78704 0.65368 0.0
H24 H 0.71057 0.43117 0.85009 0.0
H25 H 0.61834 0.3402 0.84096 0.0
H26 H 0.69961 0.34355 0.91766 0.0
H27 H 0.61802 0.36142 0.78444 0.0
C28 C 0.62621 0.38966 0.7872 0.0
C29 C 0.69573 0.40528 0.8588 0.0
C30 C 0.70984 0.38943 0.88572 0.0
C31 C 0.66313 0.38781 0.84194 0.0
C32 C 0.64373 0.35377 0.85311 0.0
C33 C 0.65692 0.33724 0.8803 0.0
C34 C 0.68995 0.35549 0.89611 0.0
N35 N 0.6506 0.40572 0.81468 0.0
H36 H 0.80935 0.65145 0.34473 0.0
H37 H 0.90388 0.74069 0.33999 0.0
H38 H 0.82785 0.72874 0.42899 0.0
H39 H 0.91635 0.71922 0.28836 0.0
C40 C 0.90051 0.69223 0.28492 0.0
C41 C 0.82562 0.67552 0.35666 0.0
C42 C 0.81342 0.68858 0.38852 0.0
C43 C 0.85859 0.69345 0.33933 0.0
C44 C 0.87915 0.72592 0.35355 0.0
C45 C 0.86744 0.73966 0.38543 0.0
C46 C 0.8355 0.71983 0.40318 0.0
N47 N 0.86984 0.6775 0.30803 0.0
H48 H 0.62785 0.78443 0.92203 0.0
H49 H 0.70555 0.76963 0.84209 0.0
H50 H 0.6524 0.84994 0.83061 0.0
H51 H 0.67329 0.70831 0.85946 0.0
C52 C 0.68183 0.71658 0.8863 0.0
C53 C 0.64173 0.79103 0.8964 0.0
C54 C 0.63687 0.81896 0.87737 0.0
C55 C 0.66489 0.77189 0.88261 0.0
C56 C 0.68508 0.78232 0.85075 0.0
C57 C 0.6815 0.81095 0.83201 0.0
C58 C 0.65584 0.82795 0.84475 0.0
N59 N 0.67067 0.74453 0.9027 0.0
H60 H 0.78759 0.1836 0.41775 0.0
H61 H 0.76795 0.2359 0.51457 0.0
H62 H 0.69004 0.21639 0.43195 0.0
H63 H 0.79868 0.19743 0.53546 0.0
C64 C 0.81984 0.19802 0.51508 0.0
C65 C 0.77035 0.19606 0.43362 0.0
C66 C 0.73706 0.19778 0.42081 0.0
C67 C 0.78116 0.20901 0.46751 0.0
C68 C 0.75912 0.22492 0.4887 0.0
C69 C 0.726 0.22739 0.47606 0.0
C70 C 0.71502 0.21348 0.44226 0.0
N71 N 0.81433 0.20525 0.47949 0.0
H72 H 0.32475 0.67419 0.22221 0.0
H73 H 0.41368 0.76845 0.22765 0.0
H74 H 0.33263 0.7567 0.14881 0.0
H75 H 0.36591 0.65086 0.24781 0.0
C76 C 0.38057 0.67086 0.26624 0.0
C77 C 0.33921 0.69952 0.21192 0.0
C78 C 0.32429 0.71298 0.18366 0.0
C79 C 0.37176 0.7193 0.22786 0.0
C80 C 0.38915 0.75306 0.21512 0.0
C81 C 0.3752 0.76714 0.18669 0.0
C82 C 0.3429 0.74664 0.17131 0.0
N83 N 0.38701 0.70677 0.25735 0.0
H84 H 0.13417 0.32849 0.73685 0.0
H85 H 0.21621 0.42741 0.72519 0.0
H86 H 0.21326 0.34444 0.64962 0.0
H87 H 0.20662 0.43206 0.78368 0.0
C88 C 0.17747 0.42074 0.78818 0.0
C89 C 0.15778 0.34494 0.72273 0.0
C90 C 0.17141 0.33237 0.69123 0.0
C91 C 0.1741 0.37901 0.73582 0.0
C92 C 0.20425 0.40067 0.71666 0.0
C93 C 0.21828 0.38846 0.68532 0.0
C94 C 0.20187 0.35428 0.6732 0.0
N95 N 0.15871 0.39126 0.76721 0.0
Sm96 Sm 0.05704 0.04558 0.50627 0.0
Sm97 Sm 0.02319 1.01346 0.57663 0.0
C98 C 0.07508 0.07362 0.443 0.0
C99 C 0.10426 0.10309 0.42813 0.0
C100 C 0.09931 0.13652 0.4264 0.0
C101 C 0.12722 0.16433 0.41271 0.0
C102 C 0.16058 0.15921 0.40052 0.0
C103 C 0.16536 0.12574 0.402 0.0
C104 C 0.1375 0.09798 0.4155 0.0
C105 C 0.10034 1.01617 0.54385 0.0
C106 C 0.07875 0.09365 0.57679 0.0
C107 C 1.00337 0.98573 0.63972 0.0
C108 C 0.96856 0.96285 0.65343 0.0
C109 C 0.96751 0.94136 0.68239 0.0
C110 C 0.93401 0.92066 0.69607 0.0
C111 C 0.90122 0.92147 0.68104 0.0
C112 C 0.90257 0.94228 0.65139 0.0
C113 C 0.93594 0.96264 0.6376 0.0
C114 C 0.97901 0.04285 0.54032 0.0
C115 C 0.99942 0.96634 0.50546 0.0
O116 O 0.05061 0.08131 0.46458 0.0
O117 O 0.08501 0.04688 0.45341 0.0
O118 O 0.06668 1.00403 0.54005 0.0
O119 O 0.11354 0.04361 0.5246 0.0
O120 O 0.07548 0.09396 0.54207 0.0
O121 O 0.06622 0.06446 0.59488 0.0
O122 O 0.02082 0.97191 0.61545 0.0
O123 O 1.00288 1.01728 0.63209 0.0
O124 O 0.01291 0.05537 0.54329 0.0
O125 O 0.96719 1.01426 0.55796 0.0
O126 O 1.00098 0.96565 0.54037 0.0
O127 O 0.01505 0.99484 0.48731 0.0
H128 H 0.0739 0.14124 0.43566 0.0
H129 H 0.12279 0.18986 0.41187 0.0
H130 H 0.19044 0.1208 0.39201 0.0
H131 H 0.14205 0.07248 0.41596 0.0
H132 H 0.99247 0.94105 0.69474 0.0
H133 H 0.93364 0.90497 0.71911 0.0
H134 H 0.87773 0.94308 0.6391 0.0
H135 H 0.93618 0.97871 0.61494 0.0
Sm136 Sm 0.55115 0.06123 0.04431 0.0
Sm137 Sm 0.47949 0.04139 1.01816 0.0
C138 C 0.61584 0.09209 0.07056 0.0
C139 C 0.62956 0.09939 0.10651 0.0
C140 C 0.6609 0.12691 0.11251 0.0
C141 C 0.67312 0.13507 0.147 0.0
C142 C 0.65413 0.11574 0.176 0.0
C143 C 0.62291 0.08783 0.16967 0.0
C144 C 0.61063 0.07984 0.13522 0.0
C145 C 0.50883 0.99903 0.07404 0.0
C146 C 0.49024 0.09387 0.08345 0.0
C147 C 0.41374 1.00955 0.99446 0.0
C148 C 0.39512 0.99352 0.96201 0.0
C149 C 0.38047 0.95716 0.95965 0.0
C150 C 0.36103 0.94157 0.93007 0.0
C151 C 0.35556 0.96207 0.90232 0.0
C152 C 0.37039 0.99848 0.90461 0.0
C153 C 0.38993 1.01408 0.93418 0.0
C154 C 0.52198 0.10385 0.98909 0.0
C155 C 0.54144 1.01041 0.9782 0.0
O156 O 0.5932 0.10912 0.06162 0.0
O157 O 0.60545 0.05927 0.0608 0.0
O158 O 0.49797 1.02577 0.06998 0.0
O159 O 0.5426 1.00527 0.0635 0.0
O160 O 0.52494 0.0997 0.0742 0.0
O161 O 0.466 0.06678 0.07007 0.0
O162 O 0.43423 0.99318 1.00925 0.0
O163 O 0.4276 0.04338 0.99548 0.0
O164 O 0.53264 0.07692 0.9927 0.0
O165 O 0.48824 0.09779 0.99986 0.0
O166 O 0.50653 1.00382 0.98717 0.0
O167 O 0.56498 0.03802 0.99155 0.0
H168 H 0.67559 0.14241 0.09059 0.0
H169 H 0.6969 0.15706 0.15102 0.0
H170 H 0.60794 0.07214 0.19131 0.0
H171 H 0.58618 0.05858 0.13102 0.0
H172 H 0.38381 0.94073 0.98086 0.0
H173 H 0.35042 0.91342 0.92887 0.0
H174 H 0.36627 1.01501 0.88387 0.0
H175 H 0.40053 0.04223 0.93536 0.0
Sm176 Sm 0.51232 0.51581 0.50961 0.0
Sm177 Sm 0.51015 0.57549 0.55679 0.0
C178 C 0.5323 0.46581 0.47439 0.0
C179 C 0.54897 0.43884 0.4847 0.0
C180 C 0.58172 0.43729 0.46756 0.0
C181 C 0.59989 0.41409 0.47881 0.0
C182 C 0.58542 0.39178 0.50721 0.0
C183 C 0.55228 0.39279 0.52402 0.0
C184 C 0.53431 0.41642 0.51307 0.0
C185 C 0.44592 0.50756 0.54469 0.0
C186 C 0.54081 0.51723 0.59282 0.0
C187 C 0.48984 0.62514 0.59285 0.0
C188 C 0.46815 0.64861 0.58454 0.0
C189 C 0.44479 0.64096 0.55583 0.0
C190 C 0.42302 0.66243 0.54876 0.0
C191 C 0.42375 0.69171 0.57065 0.0
C192 C 0.448 0.69983 0.59885 0.0
C193 C 0.47011 0.67846 0.60565 0.0
C194 C 0.57704 0.58348 0.52347 0.0
C195 C 0.48229 0.57322 0.47289 0.0
O196 O 0.55329 0.49783 0.47695 0.0
O197 O 0.49866 0.4625 0.48556 0.0
O198 O 0.47668 0.51942 0.55831 0.0
O199 O 0.44946 0.49909 0.5114 0.0
O200 O 0.54003 0.5039 0.56008 0.0
O201 O 0.52829 0.54442 0.59988 0.0
O202 O 0.47189 0.59206 0.59444 0.0
O203 O 0.52137 0.63061 0.57581 0.0
O204 O 0.54673 0.57178 0.50873 0.0
O205 O 0.57255 0.5922 0.55653 0.0
O206 O 0.48147 0.58591 0.50581 0.0
O207 O 0.49643 0.54715 0.46607 0.0
H208 H 0.59355 0.45447 0.44579 0.0
H209 H 0.62514 0.41335 0.46507 0.0
H210 H 0.54068 0.37579 0.54597 0.0
H211 H 0.50932 0.41744 0.52712 0.0
H212 H 0.44262 0.61791 0.53937 0.0
H213 H 0.40504 0.65565 0.52658 0.0
H214 H 0.44887 0.72187 0.61659 0.0
H215 H 0.48803 0.68475 0.62791 0.0
Sm216 Sm 0.02042 0.51279 0.04872 0.0
Sm217 Sm 0.0194 0.5792 1.01543 0.0
C218 C 0.03829 0.45719 0.06937 0.0
C219 C 0.07089 0.4506 0.08348 0.0
C220 C 0.09714 0.47732 0.10057 0.0
C221 C 0.12952 0.47165 0.1112 0.0
C222 C 0.13618 0.43907 0.105 0.0
C223 C 0.10934 0.41217 0.0885 0.0
C224 C 0.07706 0.41796 0.07774 0.0
C225 C 0.98343 0.55112 0.08948 0.0
C226 C 0.09023 0.58421 0.06127 0.0
C227 C 1.00171 0.63418 0.99301 0.0
C228 C 0.96776 0.64151 0.98328 0.0
C229 C 0.93506 0.62838 1.00328 0.0
C230 C 0.90304 0.6354 0.99353 0.0
C231 C 0.90303 0.65524 0.96337 0.0
C232 C 0.93572 0.66809 0.94327 0.0
C233 C 0.96782 0.66138 0.95324 0.0
C234 C 0.05751 0.54132 0.97552 0.0
C235 C 0.94873 0.5089 1.00485 0.0
O236 O 0.04166 0.46738 0.03644 0.0
O237 O 0.02102 0.47453 0.09011 0.0
O238 O 0.01332 0.56317 0.07251 0.0
O239 O 0.97229 0.51731 0.08614 0.0
O240 O 0.07857 0.54963 0.0608 0.0
O241 O 0.07051 0.60269 0.04783 0.0
O242 O 1.00466 0.62829 1.02658 0.0
O243 O 0.01358 0.61315 0.97158 0.0
O244 O 0.02703 0.52893 0.99146 0.0
O245 O 0.06865 0.57502 0.97975 0.0
O246 O 0.96029 0.54342 1.00668 0.0
O247 O 0.96904 0.49 1.0163 0.0
H248 H 0.09287 0.50274 0.10517 0.0
H249 H 0.14969 0.49309 0.12344 0.0
H250 H 0.11328 0.38661 0.08384 0.0
H251 H 0.0571 0.39706 0.0645 0.0
H252 H 0.93418 0.61258 1.02635 0.0
H253 H 0.87815 0.62482 1.00924 0.0
H254 H 0.93656 0.68367 0.92005 0.0
H255 H 0.99273 0.67164 0.93743 0.0
H256 H 0.28254 0.30354 0.24683 0.0
H257 H 0.2339 0.17595 0.41113 0.0
H258 H 0.36208 0.26842 0.30158 0.0
H259 H 0.15401 0.20797 0.3537 0.0
H260 H 0.2824 0.21812 0.37833 0.0
H261 H 0.23689 0.27804 0.29302 0.0
C262 C 0.29065 0.29115 0.269 0.0
C263 C 0.32608 0.2877 0.27013 0.0
C264 C 0.25427 0.21627 0.3732 0.0
C265 C 0.27369 0.25775 0.32267 0.0
C266 C 0.22659 0.1921 0.3918 0.0
C267 C 0.1899 0.18805 0.38467 0.0
C268 C 0.24522 0.23639 0.34708 0.0
C269 C 0.18193 0.21019 0.35999 0.0
C270 C 0.26445 0.27634 0.29524 0.0
C271 C 0.33487 0.27103 0.29932 0.0
N272 N 0.20939 0.23308 0.34171 0.0
N273 N 0.30873 0.25629 0.32419 0.0
H274 H 0.20509 0.82158 0.76224 0.0
H275 H 0.37007 0.97854 0.83206 0.0
H276 H 0.28225 0.89327 0.69346 0.0
H277 H 0.29275 0.90783 0.90165 0.0
H278 H 0.33566 0.94987 0.7811 0.0
H279 H 0.23399 0.85525 0.81388 0.0
C280 C 0.22782 0.84464 0.75802 0.0
C281 C 0.24153 0.85449 0.72357 0.0
C282 C 0.32612 0.94067 0.80752 0.0
C283 C 0.27495 0.89284 0.78237 0.0
C284 C 0.34568 0.95716 0.83666 0.0
C285 C 0.33439 0.94546 0.87118 0.0
C286 C 0.29505 0.91221 0.81289 0.0
C287 C 0.30281 0.91733 0.87546 0.0
C288 C 0.24445 0.86373 0.78747 0.0
C289 C 0.27124 0.88442 0.71961 0.0
N290 N 0.28432 0.90159 0.84665 0.0
N291 N 0.28707 0.90241 0.74864 0.0
H292 H 0.59479 0.36463 0.72476 0.0
H293 H 0.55834 0.54155 0.66159 0.0
H294 H 0.63142 0.46086 0.7848 0.0
H295 H 0.55544 0.45358 0.59143 0.0
H296 H 0.58027 0.51216 0.70887 0.0
H297 H 0.57535 0.39601 0.67808 0.0
C298 C 0.5988 0.39245 0.72816 0.0
C299 C 0.61499 0.40999 0.75887 0.0
C300 C 0.57493 0.49937 0.68308 0.0
C301 C 0.5921 0.44648 0.70515 0.0
C302 C 0.56228 0.51612 0.656 0.0
C303 C 0.55492 0.50023 0.62213 0.0
C304 C 0.57979 0.46606 0.67671 0.0
C305 C 0.56073 0.46715 0.61683 0.0
C306 C 0.5877 0.41043 0.70136 0.0
C307 C 0.61929 0.44616 0.76161 0.0
N308 N 0.57246 0.45125 0.64368 0.0
N309 N 0.60774 0.46309 0.7353 0.0
H310 H 0.95597 0.71423 0.23596 0.0
H311 H 0.92411 0.52835 0.13534 0.0
H312 H 0.86948 0.62301 0.26581 0.0
H313 H 1.00896 0.62079 0.1054 0.0
H314 H 0.90238 0.56252 0.18208 0.0
H315 H 0.9747 0.68049 0.18716 0.0
C316 C 0.94087 0.68708 0.23217 0.0
C317 C 0.91116 0.67148 0.25502 0.0
C318 C 0.92566 0.57537 0.16521 0.0
C319 C 0.93247 0.63245 0.1991 0.0
C320 C 0.93804 0.55587 0.13848 0.0
C321 C 0.96847 0.5717 0.1165 0.0
C322 C 0.94386 0.611 0.17007 0.0
C323 C 0.98544 0.60747 0.12175 0.0
C324 C 0.95156 0.6678 0.20428 0.0
C325 C 0.89256 0.63617 0.24888 0.0
N326 N 0.97302 0.62582 0.148 0.0
N327 N 0.90356 0.61786 0.22158 0.0
H328 H 0.46032 0.29095 0.16346 0.0
H329 H 0.53274 0.15481 0.11226 0.0
H330 H 0.36146 0.21016 0.18927 0.0
H331 H 0.42043 0.0937 0.10355 0.0
H332 H 0.51223 0.20159 0.14114 0.0
H333 H 0.48758 0.24641 0.13917 0.0
C334 C 0.44447 0.2638 0.16419 0.0
C335 C 0.40873 0.25424 0.17874 0.0
C336 C 0.49199 0.17819 0.13259 0.0
C337 C 0.44001 0.20286 0.15197 0.0
C338 C 0.50372 0.15117 0.11651 0.0
C339 C 0.47825 0.12038 0.10508 0.0
C340 C 0.45444 0.17449 0.13709 0.0
C341 C 0.44105 0.11704 0.11168 0.0
C342 C 0.46023 0.23825 0.15082 0.0
C343 C 0.38936 0.21867 0.17896 0.0
N344 N 0.43029 0.14383 0.12713 0.0
N345 N 0.40518 0.19434 0.16566 0.0
H346 H 0.14019 0.85528 0.66371 0.0
H347 H 0.13532 0.97845 0.50239 0.0
H348 H 0.1184 0.8175 0.55606 0.0
H349 H 0.10896 1.00033 0.61139 0.0
H350 H 0.15077 0.92632 0.52146 0.0
H351 H 0.14931 0.91481 0.64393 0.0
C352 C 0.13823 0.8596 0.63573 0.0
C353 C 0.12886 0.83155 0.61131 0.0
C354 C 0.14274 0.94318 0.54128 0.0
C355 C 0.13879 0.89947 0.58872 0.0
C356 C 0.13447 0.97307 0.53051 0.0
C357 C 0.12146 0.99364 0.55558 0.0
C358 C 0.13798 0.9342 0.57729 0.0
C359 C 0.11949 0.9852 0.59151 0.0
C360 C 0.14319 0.89355 0.62454 0.0
C361 C 0.12553 0.83854 0.57561 0.0
N362 N 0.12738 0.95588 0.60134 0.0
N363 N 0.13039 0.8719 0.56531 0.0
H364 H 0.73787 0.45989 0.90267 0.0
H365 H 0.91746 0.43863 0.99261 0.0
H366 H 0.76339 0.36189 0.90886 0.0
H367 H 0.89778 0.53841 0.97923 0.0
H368 H 0.86006 0.41022 0.96396 0.0
H369 H 0.79509 0.48901 0.93157 0.0
C370 C 0.75544 0.44439 0.90982 0.0
C371 C 0.74522 0.40808 0.90314 0.0
C372 C 0.86819 0.43833 0.9673 0.0
C373 C 0.81121 0.44161 0.93704 0.0
C374 C 0.90108 0.45466 0.98383 0.0
C375 C 0.91282 0.49114 0.98854 0.0
C376 C 0.8464 0.45841 0.95525 0.0
C377 C 0.89009 0.51027 0.97631 0.0
C378 C 0.78815 0.46112 0.92662 0.0
C379 C 0.76934 0.3897 0.91381 0.0
N380 N 0.85817 0.49375 0.96032 0.0
N381 N 0.8009 0.40655 0.93011 0.0
H382 H 0.77665 0.61763 0.39029 0.0
H383 H 0.63745 0.63335 0.54465 0.0
H384 H 0.76685 0.71809 0.42753 0.0
H385 H 0.59697 0.56271 0.4571 0.0
H386 H 0.69454 0.65717 0.51043 0.0
H387 H 0.71845 0.58981 0.42165 0.0
C388 C 0.76251 0.63397 0.40477 0.0
C389 C 0.77749 0.6705 0.40649 0.0
C390 C 0.6732 0.63626 0.49889 0.0
C391 C 0.71159 0.63844 0.44332 0.0
C392 C 0.64071 0.62255 0.51838 0.0
C393 C 0.61238 0.59609 0.50361 0.0
C394 C 0.67788 0.62283 0.46474 0.0
C395 C 0.61815 0.58316 0.46938 0.0
C396 C 0.72938 0.61794 0.42278 0.0
C397 C 0.7576 0.68991 0.42624 0.0
N398 N 0.65044 0.59653 0.45106 0.0
N399 N 0.72612 0.67365 0.44421 0.0
H400 H 0.3327 0.44005 0.21213 0.0
H401 H 0.17722 0.40235 0.06818 0.0
H402 H 0.328 0.36962 0.1222 0.0
H403 H 0.17528 0.46299 0.16478 0.0
H404 H 0.23449 0.39307 0.08541 0.0
H405 H 0.27768 0.45265 0.19249 0.0
C406 C 0.32021 0.4275 0.18806 0.0
C407 C 0.33478 0.40374 0.16883 0.0
C408 C 0.22156 0.40844 0.10282 0.0
C409 C 0.27177 0.41774 0.14629 0.0
C410 C 0.18867 0.41355 0.09313 0.0
C411 C 0.17119 0.43337 0.11513 0.0
C412 C 0.23726 0.4233 0.13473 0.0
C413 C 0.18788 0.44786 0.14677 0.0
C414 C 0.28875 0.43456 0.17694 0.0
C415 C 0.3176 0.38807 0.13788 0.0
N416 N 0.21991 0.44249 0.15562 0.0
N417 N 0.2869 0.39527 0.12763 0.0
H418 H 0.58248 0.30893 0.89201 0.0
H419 H 0.59467 0.12508 0.96572 0.0
H420 H 0.684 0.28312 0.89864 0.0
H421 H 0.49692 0.15847 0.97158 0.0
H422 H 0.6274 0.18068 0.9375 0.0
H423 H 0.5502 0.25192 0.91665 0.0
C424 C 0.59805 0.29124 0.89825 0.0
C425 C 0.63625 0.30132 0.89321 0.0
C426 C 0.59875 0.17578 0.94488 0.0
C427 C 0.59913 0.23542 0.92201 0.0
C428 C 0.58004 0.14396 0.96095 0.0
C429 C 0.54288 0.13688 0.97106 0.0
C430 C 0.58021 0.20078 0.9386 0.0
C431 C 0.52549 0.16258 0.96429 0.0
C432 C 0.57955 0.25865 0.91265 0.0
C433 C 0.65468 0.277 0.90241 0.0
N434 N 0.54414 0.1931 0.94856 0.0
N435 N 0.63608 0.24544 0.91627 0.0
H436 H 0.83887 0.78694 0.42241 0.0
H437 H 0.01657 0.94411 0.43917 0.0
H438 H 0.94196 0.7739 0.38253 0.0
H439 H 0.93937 0.91473 0.52756 0.0
H440 H 0.98566 0.88915 0.40822 0.0
H441 H 0.87144 0.84147 0.45127 0.0
C442 C 0.86835 0.79515 0.41983 0.0
C443 C 0.88753 0.77478 0.40055 0.0
C444 C 0.97559 0.89489 0.43436 0.0
C445 C 0.92485 0.83875 0.43245 0.0
C446 C 0.99296 0.92624 0.45192 0.0
C447 C 0.98042 0.93395 0.48596 0.0
C448 C 0.94485 0.87169 0.45054 0.0
C449 C 0.94996 0.90975 0.50141 0.0
C450 C 0.88683 0.82659 0.43618 0.0
C451 C 0.92575 0.78836 0.39696 0.0
N452 N 0.93294 0.87991 0.48341 0.0
N453 N 0.94315 0.81954 0.41268 0.0
H454 H 0.30596 0.84205 0.61109 0.0
H455 H 0.35205 0.66602 0.55389 0.0
H456 H 0.22711 0.74065 0.60439 0.0
H457 H 0.43375 0.76251 0.57803 0.0
H458 H 0.30598 0.69722 0.55568 0.0
H459 H 0.35209 0.81724 0.58306 0.0
C460 C 0.29816 0.81473 0.60322 0.0
C461 C 0.26279 0.79322 0.61094 0.0
C462 C 0.33406 0.71171 0.56009 0.0
C463 C 0.3153 0.76485 0.57867 0.0
C464 C 0.36054 0.69393 0.55881 0.0
C465 C 0.39684 0.71156 0.56638 0.0
C466 C 0.34378 0.74732 0.56935 0.0
C467 C 0.40594 0.74771 0.57295 0.0
C468 C 0.32448 0.80064 0.58713 0.0
C469 C 0.25397 0.75828 0.59916 0.0
N470 N 0.37946 0.76434 0.57479 0.0
N471 N 0.2802 0.74508 0.58415 0.0
H472 H 0.71097 0.88007 0.81602 0.0
H473 H 0.87811 0.85351 0.70259 0.0
H474 H 0.71424 0.77684 0.78138 0.0
H475 H 0.8436 0.94692 0.69737 0.0
H476 H 0.81993 0.82458 0.73347 0.0
H477 H 0.76027 0.90499 0.77367 0.0
C478 C 0.72129 0.86244 0.79902 0.0
C479 C 0.70813 0.82607 0.8026 0.0
C480 C 0.825 0.85125 0.72509 0.0
C481 C 0.76618 0.85495 0.75484 0.0
C482 C 0.85818 0.86779 0.70778 0.0
C483 C 0.86559 0.90262 0.69758 0.0
C484 C 0.79955 0.87 0.73281 0.0
C485 C 0.83884 0.91996 0.70462 0.0
C486 C 0.74985 0.87686 0.77499 0.0
C487 C 0.72386 0.80499 0.78026 0.0
N488 N 0.80719 0.90361 0.72219 0.0
N489 N 0.75248 0.81975 0.75772 0.0
H490 H 0.77944 0.20204 0.35952 0.0
H491 H 0.61155 0.11633 0.23631 0.0
H492 H 0.66853 0.16166 0.40017 0.0
H493 H 0.72407 0.13726 0.1996 0.0
H494 H 0.63183 0.13389 0.29632 0.0
H495 H 0.75969 0.17965 0.30045 0.0
C496 C 0.75098 0.18821 0.35612 0.0
C497 C 0.72559 0.18379 0.38488 0.0
C498 C 0.65208 0.13448 0.27517 0.0
C499 C 0.70272 0.15859 0.31718 0.0
C500 C 0.64053 0.12427 0.2409 0.0
C501 C 0.66615 0.12533 0.2128 0.0
C502 C 0.68955 0.14611 0.28143 0.0
C503 C 0.70336 0.13653 0.22031 0.0
C504 C 0.7397 0.17557 0.32233 0.0
C505 C 0.68895 0.16617 0.37869 0.0
N506 N 0.71395 0.14662 0.25388 0.0
N507 N 0.6786 0.15433 0.34549 0.0
H508 H 0.41291 0.70854 0.32612 0.0
H509 H 0.46635 0.54574 0.40571 0.0
H510 H 0.38479 0.60554 0.27829 0.0
H511 H 0.4639 0.63565 0.47092 0.0
H512 H 0.4425 0.57037 0.35669 0.0
H513 H 0.43737 0.68576 0.37696 0.0
C514 C 0.41201 0.68124 0.32615 0.0
C515 C 0.39675 0.65898 0.29765 0.0
C516 C 0.4471 0.5848 0.38168 0.0
C517 C 0.42503 0.63271 0.3558 0.0
C518 C 0.46088 0.57072 0.40984 0.0
C519 C 0.46723 0.58843 0.44288 0.0
C520 C 0.43989 0.61733 0.38592 0.0
C521 C 0.45936 0.62082 0.44617 0.0
C522 C 0.42586 0.66819 0.35529 0.0
C523 C 0.39625 0.62375 0.29949 0.0
N524 N 0.44637 0.63425 0.41813 0.0
N525 N 0.41024 0.61189 0.3277 0.0
H526 H 0.20737 0.47944 0.82634 0.0
H527 H 0.03019 0.47376 0.95075 0.0
H528 H 0.10584 0.39892 0.8151 0.0
H529 H 0.1239 0.56383 0.94097 0.0
H530 H 0.05859 0.44294 0.90565 0.0
H531 H 0.17851 0.50761 0.87276 0.0
C532 C 0.17893 0.46764 0.83373 0.0
C533 C 0.15901 0.43685 0.81672 0.0
C534 C 0.07291 0.46943 0.91342 0.0
C535 C 0.12557 0.46901 0.87023 0.0
C536 C 0.05679 0.48699 0.93924 0.0
C537 C 0.07467 0.52149 0.94955 0.0
C538 C 0.10734 0.48636 0.89809 0.0
C539 C 0.10907 0.53734 0.93376 0.0
C540 C 0.16242 0.48379 0.86023 0.0
C541 C 0.12222 0.4227 0.82742 0.0
N542 N 0.12424 0.51968 0.90896 0.0
N543 N 0.10668 0.43885 0.85356 0.0
H544 H 0.57982 0.83761 0.85045 0.0
H545 H 0.61066 1.00455 0.97538 0.0
H546 H 0.65029 0.85535 0.9396 0.0
H547 H 0.50285 0.95482 0.93765 0.0
H548 H 0.63085 0.95552 0.95141 0.0
H549 H 0.55463 0.8847 0.87327 0.0
C550 C 0.58941 0.85102 0.87515 0.0
C551 C 0.6168 0.84251 0.89349 0.0
C552 C 0.60285 0.95551 0.94818 0.0
C553 C 0.58946 0.8968 0.91864 0.0
C554 C 0.59136 0.98365 0.96146 0.0
C555 C 0.55496 0.98376 0.95854 0.0
C556 C 0.57801 0.92753 0.93126 0.0
C557 C 0.53114 0.95571 0.94049 0.0
C558 C 0.57521 0.87783 0.888 0.0
C559 C 0.62882 0.86086 0.92504 0.0
N560 N 0.54311 0.92864 0.92738 0.0
N561 N 0.61547 0.88752 0.93636 0.0
H562 H 0.88369 0.20284 0.4775 0.0
H563 H 0.90666 1.02992 0.55771 0.0
H564 H 0.81718 0.15081 0.56606 0.0
H565 H 0.99768 0.106 0.50811 0.0
H566 H 0.86965 0.07025 0.55345 0.0
H567 H 0.92351 0.16503 0.48268 0.0
C568 C 0.87779 0.1837 0.4983 0.0
C569 C 0.84715 0.17963 0.52134 0.0
C570 C 0.8977 0.07804 0.54342 0.0
C571 C 0.89179 0.13609 0.5268 0.0
C572 C 0.91869 0.05495 0.54549 0.0
C573 C 0.95525 0.0648 0.53331 0.0
C574 C 0.91324 0.11092 0.52859 0.0
C575 C 0.96956 0.09753 0.5178 0.0
C576 C 0.90043 0.16218 0.50119 0.0
C577 C 0.84066 0.15467 0.5479 0.0
N578 N 0.94845 0.11952 0.51582 0.0
N579 N 0.86255 0.1334 0.54961 0.0
H580 H 0.29869 0.64164 0.16958 0.0
H581 H 0.11903 0.65465 0.07344 0.0
H582 H 0.26908 0.73714 0.15915 0.0
H583 H 0.14194 0.55669 0.08909 0.0
H584 H 0.17489 0.68484 0.10348 0.0
H585 H 0.24243 0.60982 0.14017 0.0
C586 C 0.28041 0.656 0.16139 0.0
C587 C 0.28924 0.69244 0.16685 0.0
C588 C 0.16782 0.65673 0.10041 0.0
C589 C 0.22449 0.65588 0.13251 0.0
C590 C 0.1358 0.63936 0.08305 0.0
C591 C 0.12534 0.60284 0.07859 0.0
C592 C 0.19011 0.63772 0.11358 0.0
C593 C 0.14854 0.58477 0.09193 0.0
C594 C 0.24829 0.63775 0.14433 0.0
C595 C 0.26425 0.70932 0.15508 0.0
N596 N 0.17967 0.60231 0.10873 0.0
N597 N 0.23337 0.69104 0.13856 0.0
H598 H 0.22648 0.39627 0.61315 0.0
H599 H 0.43492 0.51289 0.61685 0.0
H600 H 0.28234 0.43207 0.71034 0.0
H601 H 0.37815 0.47432 0.52078 0.0
H602 H 0.37826 0.48796 0.65165 0.0
H603 H 0.28046 0.42893 0.57916 0.0
C604 C 0.25013 0.41107 0.62738 0.0
C605 C 0.24997 0.41104 0.66471 0.0
C606 C 0.37813 0.48515 0.62295 0.0
C607 C 0.31216 0.44882 0.62575 0.0
C608 C 0.41044 0.49942 0.60307 0.0
C609 C 0.41129 0.49542 0.56588 0.0
C610 C 0.3464 0.46674 0.60551 0.0
C611 C 0.37878 0.47784 0.5494 0.0
C612 C 0.28096 0.42986 0.60791 0.0
C613 C 0.2812 0.43136 0.68163 0.0
N614 N 0.34778 0.46399 0.56931 0.0
N615 N 0.31113 0.44918 0.66204 0.0
H616 H 0.7127 0.73086 0.95199 0.0
H617 H 0.87552 0.64953 0.89693 0.0
H618 H 0.71872 0.67564 0.85272 0.0
H619 H 0.85316 0.67704 1.00552 0.0
H620 H 0.81989 0.66228 0.87952 0.0
H621 H 0.76547 0.71406 0.9719 0.0
C622 C 0.72496 0.71498 0.93452 0.0
C623 C 0.71149 0.70463 0.90062 0.0
C624 C 0.82704 0.66539 0.9072 0.0
C625 C 0.7719 0.68576 0.92296 0.0
C626 C 0.85891 0.65835 0.91708 0.0
C627 C 0.86898 0.66233 0.95269 0.0
C628 C 0.80524 0.67693 0.93301 0.0
C629 C 0.84622 0.67342 0.97781 0.0
C630 C 0.75504 0.7054 0.94588 0.0
C631 C 0.72833 0.6841 0.87905 0.0
N632 N 0.81552 0.68058 0.96746 0.0
N633 N 0.75784 0.67558 0.89044 0.0
H634 H 0.34504 0.81788 0.16436 0.0
H635 H 0.53578 0.94665 0.09408 0.0
H636 H 0.44922 0.79859 0.176 0.0
H637 H 0.43551 0.97569 0.09607 0.0
H638 H 0.5037 0.89201 0.12274 0.0
H639 H 0.37643 0.87455 0.13842 0.0
C640 C 0.37451 0.82541 0.16148 0.0
C641 C 0.39431 0.80293 0.17245 0.0
C642 C 0.48857 0.91025 0.11713 0.0
C643 C 0.4307 0.86849 0.14252 0.0
C644 C 0.50693 0.94164 0.10065 0.0
C645 C 0.48848 0.96614 0.09263 0.0
C646 C 0.45103 0.9026 0.12562 0.0
C647 C 0.45098 0.95779 0.10184 0.0
C648 C 0.39245 0.85801 0.14676 0.0
C649 C 0.43259 0.81482 0.16837 0.0
N650 N 0.43352 0.92674 0.11765 0.0
N651 N 0.44933 0.84644 0.15363 0.0
H652 H 0.15593 0.31451 0.62197 0.0
H653 H 0.08452 0.10758 0.64924 0.0
H654 H 0.1478 0.2691 0.72552 0.0
H655 H 0.10748 0.15775 0.54753 0.0
H656 H 0.10517 0.16524 0.67876 0.0
H657 H 0.13428 0.2564 0.59553 0.0
C658 C 0.14954 0.29223 0.63922 0.0
C659 C 0.1542 0.2968 0.67603 0.0
C660 C 0.10579 0.16348 0.64999 0.0
C661 C 0.12906 0.2295 0.64568 0.0
C662 C 0.09417 0.13056 0.63309 0.0
C663 C 0.09419 0.12761 0.59574 0.0
C664 C 0.11733 0.19368 0.6294 0.0
C665 C 0.10683 0.15845 0.57631 0.0
C666 C 0.13713 0.25892 0.62406 0.0
C667 C 0.14461 0.26683 0.69704 0.0
N668 N 0.11766 0.18995 0.59331 0.0
N669 N 0.1327 0.23442 0.68155 0.0
H670 H 0.65213 0.20885 0.48895 0.0
H671 H 0.65708 0.4053 0.5225 0.0
H672 H 0.75048 0.29137 0.50832 0.0
H673 H 0.55736 0.3216 0.51599 0.0
H674 H 0.69074 0.36252 0.52928 0.0
H675 H 0.61604 0.24733 0.51058 0.0
C676 C 0.66607 0.2349 0.49841 0.0
C677 C 0.70426 0.24725 0.49623 0.0
C678 C 0.66141 0.35342 0.52704 0.0
C679 C 0.66333 0.29148 0.52059 0.0
C680 C 0.64227 0.37784 0.52306 0.0
C681 C 0.60462 0.36677 0.51801 0.0
C682 C 0.64281 0.31768 0.52523 0.0
C683 C 0.58648 0.33106 0.51955 0.0
C684 C 0.64551 0.25682 0.51083 0.0
C685 C 0.72107 0.28091 0.50939 0.0
N686 N 0.60588 0.30766 0.52229 0.0
N687 N 0.70047 0.30212 0.52035 0.0
loop_
_geom_bond_atom_site_label_1
_geom_bond_atom_site_label_2
_geom_bond_distance
_geom_bond_site_symmetry_2
_ccdc_geom_bond_type
H0 C5 0.930 . S
H1 C8 0.930 . S
H2 C10 0.930 . S
H3 C4 1.016 . S
C4 H3 1.016 . S
C4 N11 1.286 . S
C5 H0 0.930 . S
C5 C6 1.397 . S
C5 C7 1.361 . S
C6 C5 1.397 . S
C6 C10 1.390 . S
C7 C5 1.361 . S
C7 C8 1.393 . S
C7 N11 1.413 . S
C8 H1 0.930 . S
C8 C7 1.393 . S
C8 C9 1.399 . S
C9 C8 1.399 . S
C9 C10 1.381 . S
C10 H2 0.930 . S
C10 C6 1.390 . S
C10 C9 1.381 . S
N11 C4 1.286 . S
N11 C7 1.413 . S
H12 C17 0.930 . S
H13 C20 0.930 . S
H14 C22 0.930 . S
H15 C16 1.016 . S
C16 H15 1.016 . S
C16 N23 1.286 . S
C17 H12 0.930 . S
C17 C18 1.397 . S
C17 C19 1.361 . S
C18 C17 1.397 . S
C18 C22 1.390 . S
C19 C17 1.361 . S
C19 C20 1.393 . S
C19 N23 1.413 . S
C20 H13 0.930 . S
C20 C19 1.393 . S
C20 C21 1.399 . S
C21 C20 1.399 . S
C21 C22 1.381 . S
C22 H14 0.930 . S
C22 C18 1.390 . S
C22 C21 1.381 . S
N23 C16 1.286 . S
N23 C19 1.413 . S
H24 C29 0.930 . S
H25 C32 0.930 . S
H26 C34 0.930 . S
H27 C28 1.016 . S
C28 H27 1.016 . S
C28 N35 1.286 . S
C29 H24 0.930 . S
C29 C30 1.397 . S
C29 C31 1.361 . S
C30 C29 1.397 . S
C30 C34 1.390 . S
C31 C29 1.361 . S
C31 C32 1.393 . S
C31 N35 1.413 . S
C32 H25 0.930 . S
C32 C31 1.393 . S
C32 C33 1.399 . S
C33 C32 1.399 . S
C33 C34 1.381 . S
C34 H26 0.930 . S
C34 C30 1.390 . S
C34 C33 1.381 . S
N35 C28 1.286 . S
N35 C31 1.413 . S
H36 C41 0.930 . S
H37 C44 0.930 . S
H38 C46 0.930 . S
H39 C40 1.016 . S
C40 H39 1.016 . S
C40 N47 1.286 . S
C41 H36 0.930 . S
C41 C42 1.397 . S
C41 C43 1.361 . S
C42 C41 1.397 . S
C42 C46 1.390 . S
C43 C41 1.361 . S
C43 C44 1.393 . S
C43 N47 1.413 . S
C44 H37 0.930 . S
C44 C43 1.393 . S
C44 C45 1.399 . S
C45 C44 1.399 . S
C45 C46 1.381 . S
C46 H38 0.930 . S
C46 C42 1.390 . S
C46 C45 1.381 . S
N47 C40 1.286 . S
N47 C43 1.413 . S
H48 C53 0.930 . S
H49 C56 0.930 . S
H50 C58 0.930 . S
H51 C52 1.016 . S
C52 H51 1.016 . S
C52 N59 1.286 . S
C53 H48 0.930 . S
C53 C54 1.397 . S
C53 C55 1.361 . S
C54 C53 1.397 . S
C54 C58 1.390 . S
C55 C53 1.361 . S
C55 C56 1.393 . S
C55 N59 1.413 . S
C56 H49 0.930 . S
C56 C55 1.393 . S
C56 C57 1.399 . S
C57 C56 1.399 . S
C57 C58 1.381 . S
C58 H50 0.930 . S
C58 C54 1.390 . S
C58 C57 1.381 . S
N59 C52 1.286 . S
N59 C55 1.413 . S
H60 C65 0.930 . S
H61 C68 0.930 . S
H62 C70 0.930 . S
H63 C64 1.016 . S
C64 H63 1.016 . S
C64 N71 1.286 . S
C65 H60 0.930 . S
C65 C66 1.397 . S
C65 C67 1.361 . S
C66 C65 1.397 . S
C66 C70 1.390 . S
C67 C65 1.361 . S
C67 C68 1.393 . S
C67 N71 1.413 . S
C68 H61 0.930 . S
C68 C67 1.393 . S
C68 C69 1.399 . S
C69 C68 1.399 . S
C69 C70 1.381 . S
C70 H62 0.930 . S
C70 C66 1.390 . S
C70 C69 1.381 . S
N71 C64 1.286 . S
N71 C67 1.413 . S
H72 C77 0.930 . S
H73 C80 0.930 . S
H74 C82 0.930 . S
H75 C76 1.016 . S
C76 H75 1.016 . S
C76 N83 1.286 . S
C77 H72 0.930 . S
C77 C78 1.397 . S
C77 C79 1.361 . S
C78 C77 1.397 . S
C78 C82 1.390 . S
C79 C77 1.361 . S
C79 C80 1.393 . S
C79 N83 1.413 . S
C80 H73 0.930 . S
C80 C79 1.393 . S
C80 C81 1.399 . S
C81 C80 1.399 . S
C81 C82 1.381 . S
C82 H74 0.930 . S
C82 C78 1.390 . S
C82 C81 1.381 . S
N83 C76 1.286 . S
N83 C79 1.413 . S
H84 C89 0.930 . S
H85 C92 0.930 . S
H86 C94 0.930 . S
H87 C88 1.016 . S
C88 H87 1.016 . S
C88 N95 1.286 . S
C89 H84 0.930 . S
C89 C90 1.397 . S
C89 C91 1.361 . S
C90 C89 1.397 . S
C90 C94 1.390 . S
C91 C89 1.361 . S
C91 C92 1.393 . S
C91 N95 1.413 . S
C92 H85 0.930 . S
C92 C91 1.393 . S
C92 C93 1.399 . S
C93 C92 1.399 . S
C93 C94 1.381 . S
C94 H86 0.930 . S
C94 C90 1.390 . S
C94 C93 1.381 . S
N95 C88 1.286 . S
N95 C91 1.413 . S
Sm96 C98 2.846 . S
Sm96 O116 2.543 . S
Sm96 O117 2.450 . S
Sm96 O118 2.681 1_545 S
Sm96 O119 2.464 1_545 S
Sm96 O120 2.396 . S
Sm96 O124 2.386 1_455 S
Sm96 O127 2.408 1_445 S
Sm97 C107 2.847 . S
Sm97 O118 2.387 1_655 S
Sm97 O121 2.407 1_665 S
Sm97 O122 2.544 . S
Sm97 O123 2.450 . S
Sm97 O124 2.680 1_565 S
Sm97 O125 2.462 1_565 S
Sm97 O126 2.397 . S
C98 Sm96 2.846 . S
C98 C99 1.506 . S
C98 O116 1.261 . S
C98 O117 1.242 . S
C99 C98 1.506 . S
C99 C100 1.358 . S
C99 C104 1.382 . S
C100 C99 1.358 . S
C100 C101 1.385 . S
C100 H128 0.930 . S
C101 C100 1.385 . S
C101 C102 1.395 . S
C101 H129 0.929 . S
C102 C101 1.395 . S
C102 C103 1.335 . S
C103 C102 1.335 . S
C103 C104 1.398 . S
C103 H130 0.930 . S
C104 C99 1.382 . S
C104 C103 1.398 . S
C104 H131 0.929 . S
C105 O118 1.271 . S
C105 O119 1.251 . S
C106 O120 1.252 . S
C106 O121 1.272 . S
C107 Sm97 2.847 . S
C107 C108 1.506 . S
C107 O122 1.261 . S
C107 O123 1.242 . S
C108 C107 1.506 . S
C108 C109 1.358 . S
C108 C113 1.382 . S
C109 C108 1.358 . S
C109 C110 1.385 . S
C109 H132 0.930 . S
C110 C109 1.385 . S
C110 C111 1.395 . S
C110 H133 0.929 . S
C111 C110 1.395 . S
C111 C112 1.335 . S
C112 C111 1.335 . S
C112 C113 1.398 . S
C112 H134 0.930 . S
C113 C108 1.382 . S
C113 C112 1.398 . S
C113 H135 0.929 . S
C114 O124 1.271 . S
C114 O125 1.251 . S
C115 O126 1.252 . S
C115 O127 1.272 . S
O116 Sm96 2.543 . S
O116 C98 1.261 . S
O117 Sm96 2.450 . S
O117 C98 1.242 . S
O118 Sm96 2.681 1_565 S
O118 Sm97 2.387 1_455 S
O118 C105 1.271 . S
O119 Sm96 2.464 1_565 S
O119 C105 1.251 . S
O120 Sm96 2.396 . S
O120 C106 1.252 . S
O121 Sm97 2.407 1_445 S
O121 C106 1.272 . S
O122 Sm97 2.544 . S
O122 C107 1.261 . S
O123 Sm97 2.450 . S
O123 C107 1.242 . S
O124 Sm96 2.386 1_655 S
O124 Sm97 2.680 1_545 S
O124 C114 1.271 . S
O125 Sm97 2.462 1_545 S
O125 C114 1.251 . S
O126 Sm97 2.397 . S
O126 C115 1.252 . S
O127 Sm96 2.408 1_665 S
O127 C115 1.272 . S
H128 C100 0.930 . S
H129 C101 0.929 . S
H130 C103 0.930 . S
H131 C104 0.929 . S
H132 C109 0.930 . S
H133 C110 0.929 . S
H134 C112 0.930 . S
H135 C113 0.929 . S
Sm136 C138 2.846 . S
Sm136 O156 2.543 . S
Sm136 O157 2.450 . S
Sm136 O158 2.681 1_545 S
Sm136 O159 2.464 1_545 S
Sm136 O160 2.396 . S
Sm136 O164 2.386 . S
Sm136 O167 2.408 1_544 S
Sm137 C147 2.846 1_545 S
Sm137 O158 2.386 1_546 S
Sm137 O161 2.408 1_556 S
Sm137 O162 2.543 1_545 S
Sm137 O163 2.449 1_545 S
Sm137 O164 2.681 1_556 S
Sm137 O165 2.464 . S
Sm137 O166 2.396 1_545 S
C138 Sm136 2.846 . S
C138 C139 1.506 . S
C138 O156 1.261 . S
C138 O157 1.242 . S
C139 C138 1.506 . S
C139 C140 1.358 . S
C139 C144 1.382 . S
C140 C139 1.358 . S
C140 C141 1.385 . S
C140 H168 0.930 . S
C141 C140 1.385 . S
C141 C142 1.395 . S
C141 H169 0.929 . S
C142 C141 1.395 . S
C142 C143 1.335 . S
C143 C142 1.335 . S
C143 C144 1.398 . S
C143 H170 0.930 . S
C144 C139 1.382 . S
C144 C143 1.398 . S
C144 H171 0.929 . S
C145 O158 1.271 . S
C145 O159 1.251 . S
C146 O160 1.252 . S
C146 O161 1.272 . S
C147 Sm137 2.846 1_565 S
C147 C148 1.506 . S
C147 O162 1.261 . S
C147 O163 1.274 . S
C148 C147 1.506 . S
C148 C149 1.358 . S
C148 C153 1.382 . S
C149 C148 1.358 . S
C149 C150 1.385 . S
C149 H172 0.930 . S
C150 C149 1.385 . S
C150 C151 1.395 . S
C150 H173 0.929 . S
C151 C150 1.395 . S
C151 C152 1.335 . S
C152 C151 1.335 . S
C152 C153 1.398 . S
C152 H174 0.930 . S
C153 C148 1.382 . S
C153 C152 1.398 . S
C153 H175 0.929 . S
C154 O164 1.272 1_556 S
C154 O165 1.251 . S
C155 O166 1.252 . S
C155 O167 1.272 . S
O156 Sm136 2.543 . S
O156 C138 1.261 . S
O157 Sm136 2.450 . S
O157 C138 1.242 . S
O158 Sm136 2.681 1_565 S
O158 Sm137 2.386 1_564 S
O158 C145 1.271 . S
O159 Sm136 2.464 1_565 S
O159 C145 1.251 . S
O160 Sm136 2.396 . S
O160 C146 1.252 . S
O161 Sm137 2.408 1_554 S
O161 C146 1.272 . S
O162 Sm137 2.543 1_565 S
O162 C147 1.261 . S
O163 Sm137 2.449 1_565 S
O163 C147 1.274 . S
O164 Sm136 2.386 . S
O164 Sm137 2.681 1_554 S
O164 C154 1.272 1_554 S
O165 Sm137 2.464 . S
O165 C154 1.251 . S
O166 Sm137 2.396 1_565 S
O166 C155 1.252 . S
O167 Sm136 2.408 1_566 S
O167 C155 1.272 . S
H168 C140 0.930 . S
H169 C141 0.929 . S
H170 C143 0.930 . S
H171 C144 0.929 . S
H172 C149 0.930 . S
H173 C150 0.929 . S
H174 C152 0.930 . S
H175 C153 0.929 . S
Sm176 C178 2.846 . S
Sm176 O196 2.543 . S
Sm176 O197 2.450 . S
Sm176 O198 2.681 . S
Sm176 O199 2.464 . S
Sm176 O200 2.396 . S
Sm176 O204 2.386 . S
Sm176 O207 2.408 . S
Sm177 C187 2.846 . S
Sm177 O198 2.386 . S
Sm177 O201 2.408 . S
Sm177 O202 2.543 . S
Sm177 O203 2.450 . S
Sm177 O204 2.681 . S
Sm177 O205 2.464 . S
Sm177 O206 2.396 . S
C178 Sm176 2.846 . S
C178 C179 1.506 . S
C178 O196 1.261 . S
C178 O197 1.242 . S
C179 C178 1.506 . S
C179 C180 1.358 . S
C179 C184 1.382 . S
C180 C179 1.358 . S
C180 C181 1.385 . S
C180 H208 0.930 . S
C181 C180 1.385 . S
C181 C182 1.395 . S
C181 H209 0.929 . S
C182 C181 1.395 . S
C182 C183 1.335 . S
C183 C182 1.335 . S
C183 C184 1.398 . S
C183 H210 0.930 . S
C184 C179 1.382 . S
C184 C183 1.398 . S
C184 H211 0.929 . S
C185 O198 1.271 . S
C185 O199 1.251 . S
C186 O200 1.252 . S
C186 O201 1.272 . S
C187 Sm177 2.846 . S
C187 C188 1.506 . S
C187 O202 1.261 . S
C187 O203 1.242 . S
C188 C187 1.506 . S
C188 C189 1.358 . S
C188 C193 1.382 . S
C189 C188 1.358 . S
C189 C190 1.385 . S
C189 H212 0.930 . S
C190 C189 1.385 . S
C190 C191 1.395 . S
C190 H213 0.929 . S
C191 C190 1.395 . S
C191 C192 1.335 . S
C192 C191 1.335 . S
C192 C193 1.398 . S
C192 H214 0.930 . S
C193 C188 1.382 . S
C193 C192 1.398 . S
C193 H215 0.929 . S
C194 O204 1.271 . S
C194 O205 1.251 . S
C195 O206 1.252 . S
C195 O207 1.272 . S
O196 Sm176 2.543 . S
O196 C178 1.261 . S
O197 Sm176 2.450 . S
O197 C178 1.242 . S
O198 Sm176 2.681 . S
O198 Sm177 2.386 . S
O198 C185 1.271 . S
O199 Sm176 2.464 . S
O199 C185 1.251 . S
O200 Sm176 2.396 . S
O200 C186 1.252 . S
O201 Sm177 2.408 . S
O201 C186 1.272 . S
O202 Sm177 2.543 . S
O202 C187 1.261 . S
O203 Sm177 2.450 . S
O203 C187 1.242 . S
O204 Sm176 2.386 . S
O204 Sm177 2.681 . S
O204 C194 1.271 . S
O205 Sm177 2.464 . S
O205 C194 1.251 . S
O206 Sm177 2.396 . S
O206 C195 1.252 . S
O207 Sm176 2.408 . S
O207 C195 1.272 . S
H208 C180 0.930 . S
H209 C181 0.929 . S
H210 C183 0.930 . S
H211 C184 0.929 . S
H212 C189 0.930 . S
H213 C190 0.929 . S
H214 C192 0.930 . S
H215 C193 0.929 . S
Sm216 C218 2.846 . S
Sm216 O236 2.543 . S
Sm216 O237 2.450 . S
Sm216 O238 2.681 1_455 S
Sm216 O239 2.464 1_455 S
Sm216 O240 2.396 . S
Sm216 O244 2.386 1_554 S
Sm216 O247 2.408 1_454 S
Sm217 C227 2.846 1_455 S
Sm217 O238 2.386 1_456 S
Sm217 O241 2.408 1_556 S
Sm217 O242 2.543 1_455 S
Sm217 O243 2.450 1_455 S
Sm217 O244 2.681 . S
Sm217 O245 2.464 . S
Sm217 O246 2.396 1_455 S
C218 Sm216 2.846 . S
C218 C219 1.506 . S
C218 O236 1.261 . S
C218 O237 1.242 . S
C219 C218 1.506 . S
C219 C220 1.358 . S
C219 C224 1.382 . S
C220 C219 1.358 . S
C220 C221 1.385 . S
C220 H248 0.930 . S
C221 C220 1.385 . S
C221 C222 1.395 . S
C221 H249 0.929 . S
C222 C221 1.395 . S
C222 C223 1.335 . S
C223 C222 1.335 . S
C223 C224 1.398 . S
C223 H250 0.930 . S
C224 C219 1.382 . S
C224 C223 1.398 . S
C224 H251 0.929 . S
C225 O238 1.271 . S
C225 O239 1.251 . S
C226 O240 1.252 . S
C226 O241 1.272 . S
C227 Sm217 2.846 1_655 S
C227 C228 1.506 . S
C227 O242 1.261 . S
C227 O243 1.242 . S
C228 C227 1.506 . S
C228 C229 1.358 . S
C228 C233 1.382 . S
C229 C228 1.358 . S
C229 C230 1.385 . S
C229 H252 0.930 . S
C230 C229 1.385 . S
C230 C231 1.395 . S
C230 H253 0.929 . S
C231 C230 1.395 . S
C231 C232 1.335 . S
C232 C231 1.335 . S
C232 C233 1.398 . S
C232 H254 0.930 . S
C233 C228 1.382 . S
C233 C232 1.398 . S
C233 H255 0.929 . S
C234 O244 1.271 . S
C234 O245 1.251 . S
C235 O246 1.252 . S
C235 O247 1.272 . S
O236 Sm216 2.543 . S
O236 C218 1.261 . S
O237 Sm216 2.450 . S
O237 C218 1.242 . S
O238 Sm216 2.681 1_655 S
O238 Sm217 2.386 1_654 S
O238 C225 1.271 . S
O239 Sm216 2.464 1_655 S
O239 C225 1.251 . S
O240 Sm216 2.396 . S
O240 C226 1.252 . S
O241 Sm217 2.408 1_554 S
O241 C226 1.272 . S
O242 Sm217 2.543 1_655 S
O242 C227 1.261 . S
O243 Sm217 2.450 1_655 S
O243 C227 1.242 . S
O244 Sm216 2.386 1_556 S
O244 Sm217 2.681 . S
O244 C234 1.271 . S
O245 Sm217 2.464 . S
O245 C234 1.251 . S
O246 Sm217 2.396 1_655 S
O246 C235 1.252 . S
O247 Sm216 2.408 1_656 S
O247 C235 1.272 . S
H248 C220 0.930 . S
H249 C221 0.929 . S
H250 C223 0.930 . S
H251 C224 0.929 . S
H252 C229 0.930 . S
H253 C230 0.929 . S
H254 C232 0.930 . S
H255 C233 0.929 . S
H256 C262 0.930 . S
H257 C266 0.930 . S
H258 C271 0.929 . S
H259 C269 0.929 . S
H260 C264 0.929 . S
H261 C270 0.929 . S
C262 H256 0.930 . S
C262 C263 1.367 . S
C262 C270 1.378 . S
C263 C262 1.367 . S
C263 C271 1.433 . S
C264 H260 0.929 . S
C264 C266 1.378 . S
C264 C268 1.350 . S
C265 C268 1.463 . S
C265 C270 1.350 . S
C265 N273 1.427 . S
C266 H257 0.930 . S
C266 C264 1.378 . S
C266 C267 1.367 . S
C267 C266 1.367 . S
C267 C269 1.433 . S
C268 C264 1.350 . S
C268 C265 1.463 . S
C268 N272 1.427 . S
C269 H259 0.929 . S
C269 C267 1.433 . S
C269 N272 1.384 . S
C270 H261 0.929 . S
C270 C262 1.378 . S
C270 C265 1.350 . S
C271 H258 0.929 . S
C271 C263 1.433 . S
C271 N273 1.384 . S
N272 C268 1.427 . S
N272 C269 1.384 . S
N273 C265 1.427 . S
N273 C271 1.384 . S
H274 C280 0.930 . S
H275 C284 0.930 . S
H276 C289 0.929 . S
H277 C287 0.929 . S
H278 C282 0.929 . S
H279 C288 0.929 . S
C280 H274 0.930 . S
C280 C281 1.367 . S
C280 C288 1.378 . S
C281 C280 1.367 . S
C281 C289 1.433 . S
C282 H278 0.929 . S
C282 C284 1.378 . S
C282 C286 1.350 . S
C283 C286 1.463 . S
C283 C288 1.350 . S
C283 N291 1.427 . S
C284 H275 0.930 . S
C284 C282 1.378 . S
C284 C285 1.367 . S
C285 C284 1.367 . S
C285 C287 1.433 . S
C286 C282 1.350 . S
C286 C283 1.463 . S
C286 N290 1.427 . S
C287 H277 0.929 . S
C287 C285 1.433 . S
C287 N290 1.384 . S
C288 H279 0.929 . S
C288 C280 1.378 . S
C288 C283 1.350 . S
C289 H276 0.929 . S
C289 C281 1.433 . S
C289 N291 1.384 . S
N290 C286 1.427 . S
N290 C287 1.384 . S
N291 C283 1.427 . S
N291 C289 1.384 . S
H292 C298 0.930 . S
H293 C302 0.930 . S
H294 C307 0.929 . S
H295 C305 0.929 . S
H296 C300 0.929 . S
H297 C306 0.929 . S
C298 H292 0.930 . S
C298 C299 1.367 . S
C298 C306 1.378 . S
C299 C298 1.367 . S
C299 C307 1.433 . S
C300 H296 0.929 . S
C300 C302 1.378 . S
C300 C304 1.350 . S
C301 C304 1.463 . S
C301 C306 1.350 . S
C301 N309 1.427 . S
C302 H293 0.930 . S
C302 C300 1.378 . S
C302 C303 1.367 . S
C303 C302 1.367 . S
C303 C305 1.433 . S
C304 C300 1.350 . S
C304 C301 1.463 . S
C304 N308 1.427 . S
C305 H295 0.929 . S
C305 C303 1.433 . S
C305 N308 1.384 . S
C306 H297 0.929 . S
C306 C298 1.378 . S
C306 C301 1.350 . S
C307 H294 0.929 . S
C307 C299 1.433 . S
C307 N309 1.384 . S
N308 C304 1.427 . S
N308 C305 1.384 . S
N309 C301 1.427 . S
N309 C307 1.384 . S
H310 C316 0.930 . S
H311 C320 0.930 . S
H312 C325 0.929 . S
H313 C323 0.929 . S
H314 C318 0.929 . S
H315 C324 0.929 . S
C316 H310 0.930 . S
C316 C317 1.367 . S
C316 C324 1.378 . S
C317 C316 1.367 . S
C317 C325 1.433 . S
C318 H314 0.929 . S
C318 C320 1.378 . S
C318 C322 1.350 . S
C319 C322 1.463 . S
C319 C324 1.350 . S
C319 N327 1.427 . S
C320 H311 0.930 . S
C320 C318 1.378 . S
C320 C321 1.367 . S
C321 C320 1.367 . S
C321 C323 1.433 . S
C322 C318 1.350 . S
C322 C319 1.463 . S
C322 N326 1.427 . S
C323 H313 0.929 . S
C323 C321 1.433 . S
C323 N326 1.384 . S
C324 H315 0.929 . S
C324 C316 1.378 . S
C324 C319 1.350 . S
C325 H312 0.929 . S
C325 C317 1.433 . S
C325 N327 1.384 . S
N326 C322 1.427 . S
N326 C323 1.384 . S
N327 C319 1.427 . S
N327 C325 1.384 . S
H328 C334 0.930 . S
H329 C338 0.930 . S
H330 C343 0.929 . S
H331 C341 0.929 . S
H332 C336 0.929 . S
H333 C342 0.929 . S
C334 H328 0.930 . S
C334 C335 1.367 . S
C334 C342 1.378 . S
C335 C334 1.367 . S
C335 C343 1.433 . S
C336 H332 0.929 . S
C336 C338 1.378 . S
C336 C340 1.350 . S
C337 C340 1.463 . S
C337 C342 1.350 . S
C337 N345 1.427 . S
C338 H329 0.930 . S
C338 C336 1.378 . S
C338 C339 1.367 . S
C339 C338 1.367 . S
C339 C341 1.433 . S
C340 C336 1.350 . S
C340 C337 1.463 . S
C340 N344 1.427 . S
C341 H331 0.929 . S
C341 C339 1.433 . S
C341 N344 1.384 . S
C342 H333 0.929 . S
C342 C334 1.378 . S
C342 C337 1.350 . S
C343 H330 0.929 . S
C343 C335 1.433 . S
C343 N345 1.384 . S
N344 C340 1.427 . S
N344 C341 1.384 . S
N345 C337 1.427 . S
N345 C343 1.384 . S
H346 C352 0.930 . S
H347 C356 0.930 . S
H348 C361 0.929 . S
H349 C359 0.929 . S
H350 C354 0.929 . S
H351 C360 0.929 . S
C352 H346 0.930 . S
C352 C353 1.367 . S
C352 C360 1.378 . S
C353 C352 1.367 . S
C353 C361 1.433 . S
C354 H350 0.929 . S
C354 C356 1.378 . S
C354 C358 1.350 . S
C355 C358 1.463 . S
C355 C360 1.350 . S
C355 N363 1.427 . S
C356 H347 0.930 . S
C356 C354 1.378 . S
C356 C357 1.367 . S
C357 C356 1.367 . S
C357 C359 1.433 . S
C358 C354 1.350 . S
C358 C355 1.463 . S
C358 N362 1.427 . S
C359 H349 0.929 . S
C359 C357 1.433 . S
C359 N362 1.384 . S
C360 H351 0.929 . S
C360 C352 1.378 . S
C360 C355 1.350 . S
C361 H348 0.929 . S
C361 C353 1.433 . S
C361 N363 1.384 . S
N362 C358 1.427 . S
N362 C359 1.384 . S
N363 C355 1.427 . S
N363 C361 1.384 . S
H364 C370 0.930 . S
H365 C374 0.930 . S
H366 C379 0.929 . S
H367 C377 0.929 . S
H368 C372 0.929 . S
H369 C378 0.929 . S
C370 H364 0.930 . S
C370 C371 1.367 . S
C370 C378 1.378 . S
C371 C370 1.367 . S
C371 C379 1.433 . S
C372 H368 0.929 . S
C372 C374 1.378 . S
C372 C376 1.350 . S
C373 C376 1.463 . S
C373 C378 1.350 . S
C373 N381 1.427 . S
C374 H365 0.930 . S
C374 C372 1.378 . S
C374 C375 1.367 . S
C375 C374 1.367 . S
C375 C377 1.433 . S
C376 C372 1.350 . S
C376 C373 1.463 . S
C376 N380 1.427 . S
C377 H367 0.929 . S
C377 C375 1.433 . S
C377 N380 1.384 . S
C378 H369 0.929 . S
C378 C370 1.378 . S
C378 C373 1.350 . S
C379 H366 0.929 . S
C379 C371 1.433 . S
C379 N381 1.384 . S
N380 C376 1.427 . S
N380 C377 1.384 . S
N381 C373 1.427 . S
N381 C379 1.384 . S
H382 C388 0.930 . S
H383 C392 0.930 . S
H384 C397 0.929 . S
H385 C395 0.929 . S
H386 C390 0.929 . S
H387 C396 0.929 . S
C388 H382 0.930 . S
C388 C389 1.367 . S
C388 C396 1.378 . S
C389 C388 1.367 . S
C389 C397 1.433 . S
C390 H386 0.929 . S
C390 C392 1.378 . S
C390 C394 1.350 . S
C391 C394 1.463 . S
C391 C396 1.350 . S
C391 N399 1.427 . S
C392 H383 0.930 . S
C392 C390 1.378 . S
C392 C393 1.367 . S
C393 C392 1.367 . S
C393 C395 1.433 . S
C394 C390 1.350 . S
C394 C391 1.463 . S
C394 N398 1.427 . S
C395 H385 0.929 . S
C395 C393 1.433 . S
C395 N398 1.384 . S
C396 H387 0.929 . S
C396 C388 1.378 . S
C396 C391 1.350 . S
C397 H384 0.929 . S
C397 C389 1.433 . S
C397 N399 1.384 . S
N398 C394 1.427 . S
N398 C395 1.384 . S
N399 C391 1.427 . S
N399 C397 1.384 . S
H400 C406 0.930 . S
H401 C410 0.930 . S
H402 C415 0.929 . S
H403 C413 0.929 . S
H404 C408 0.929 . S
H405 C414 0.929 . S
C406 H400 0.930 . S
C406 C407 1.367 . S
C406 C414 1.378 . S
C407 C406 1.367 . S
C407 C415 1.433 . S
C408 H404 0.929 . S
C408 C410 1.378 . S
C408 C412 1.350 . S
C409 C412 1.463 . S
C409 C414 1.350 . S
C409 N417 1.427 . S
C410 H401 0.930 . S
C410 C408 1.378 . S
C410 C411 1.367 . S
C411 C410 1.367 . S
C411 C413 1.433 . S
C412 C408 1.350 . S
C412 C409 1.463 . S
C412 N416 1.427 . S
C413 H403 0.929 . S
C413 C411 1.433 . S
C413 N416 1.384 . S
C414 H405 0.929 . S
C414 C406 1.378 . S
C414 C409 1.350 . S
C415 H402 0.929 . S
C415 C407 1.433 . S
C415 N417 1.384 . S
N416 C412 1.427 . S
N416 C413 1.384 . S
N417 C409 1.427 . S
N417 C415 1.384 . S
H418 C424 0.930 . S
H419 C428 0.930 . S
H420 C433 0.929 . S
H421 C431 0.929 . S
H422 C426 0.929 . S
H423 C432 0.929 . S
C424 H418 0.930 . S
C424 C425 1.367 . S
C424 C432 1.378 . S
C425 C424 1.367 . S
C425 C433 1.433 . S
C426 H422 0.929 . S
C426 C428 1.378 . S
C426 C430 1.350 . S
C427 C430 1.463 . S
C427 C432 1.350 . S
C427 N435 1.427 . S
C428 H419 0.930 . S
C428 C426 1.378 . S
C428 C429 1.367 . S
C429 C428 1.367 . S
C429 C431 1.433 . S
C430 C426 1.350 . S
C430 C427 1.463 . S
C430 N434 1.427 . S
C431 H421 0.929 . S
C431 C429 1.433 . S
C431 N434 1.384 . S
C432 H423 0.929 . S
C432 C424 1.378 . S
C432 C427 1.350 . S
C433 H420 0.929 . S
C433 C425 1.433 . S
C433 N435 1.384 . S
N434 C430 1.427 . S
N434 C431 1.384 . S
N435 C427 1.427 . S
N435 C433 1.384 . S
H436 C442 0.930 . S
H437 C446 0.930 . S
H438 C451 0.929 . S
H439 C449 0.929 . S
H440 C444 0.929 . S
H441 C450 0.929 . S
C442 H436 0.930 . S
C442 C443 1.367 . S
C442 C450 1.378 . S
C443 C442 1.367 . S
C443 C451 1.433 . S
C444 H440 0.929 . S
C444 C446 1.378 . S
C444 C448 1.350 . S
C445 C448 1.463 . S
C445 C450 1.350 . S
C445 N453 1.427 . S
C446 H437 0.930 . S
C446 C444 1.378 . S
C446 C447 1.367 . S
C447 C446 1.367 . S
C447 C449 1.433 . S
C448 C444 1.350 . S
C448 C445 1.463 . S
C448 N452 1.427 . S
C449 H439 0.929 . S
C449 C447 1.433 . S
C449 N452 1.384 . S
C450 H441 0.929 . S
C450 C442 1.378 . S
C450 C445 1.350 . S
C451 H438 0.929 . S
C451 C443 1.433 . S
C451 N453 1.384 . S
N452 C448 1.427 . S
N452 C449 1.384 . S
N453 C445 1.427 . S
N453 C451 1.384 . S
H454 C460 0.930 . S
H455 C464 0.930 . S
H456 C469 0.929 . S
H457 C467 0.929 . S
H458 C462 0.929 . S
H459 C468 0.929 . S
C460 H454 0.930 . S
C460 C461 1.367 . S
C460 C468 1.378 . S
C461 C460 1.367 . S
C461 C469 1.433 . S
C462 H458 0.929 . S
C462 C464 1.378 . S
C462 C466 1.350 . S
C463 C466 1.463 . S
C463 C468 1.350 . S
C463 N471 1.427 . S
C464 H455 0.930 . S
C464 C462 1.378 . S
C464 C465 1.367 . S
C465 C464 1.367 . S
C465 C467 1.433 . S
C466 C462 1.350 . S
C466 C463 1.463 . S
C466 N470 1.427 . S
C467 H457 0.929 . S
C467 C465 1.433 . S
C467 N470 1.384 . S
C468 H459 0.929 . S
C468 C460 1.378 . S
C468 C463 1.350 . S
C469 H456 0.929 . S
C469 C461 1.433 . S
C469 N471 1.384 . S
N470 C466 1.427 . S
N470 C467 1.384 . S
N471 C463 1.427 . S
N471 C469 1.384 . S
H472 C478 0.930 . S
H473 C482 0.930 . S
H474 C487 0.929 . S
H475 C485 0.929 . S
H476 C480 0.929 . S
H477 C486 0.929 . S
C478 H472 0.930 . S
C478 C479 1.367 . S
C478 C486 1.378 . S
C479 C478 1.367 . S
C479 C487 1.433 . S
C480 H476 0.929 . S
C480 C482 1.378 . S
C480 C484 1.350 . S
C481 C484 1.463 . S
C481 C486 1.350 . S
C481 N489 1.427 . S
C482 H473 0.930 . S
C482 C480 1.378 . S
C482 C483 1.367 . S
C483 C482 1.367 . S
C483 C485 1.433 . S
C484 C480 1.350 . S
C484 C481 1.463 . S
C484 N488 1.427 . S
C485 H475 0.929 . S
C485 C483 1.433 . S
C485 N488 1.384 . S
C486 H477 0.929 . S
C486 C478 1.378 . S
C486 C481 1.350 . S
C487 H474 0.929 . S
C487 C479 1.433 . S
C487 N489 1.384 . S
N488 C484 1.427 . S
N488 C485 1.384 . S
N489 C481 1.427 . S
N489 C487 1.384 . S
H490 C496 0.930 . S
H491 C500 0.930 . S
H492 C505 0.929 . S
H493 C503 0.929 . S
H494 C498 0.929 . S
H495 C504 0.929 . S
C496 H490 0.930 . S
C496 C497 1.367 . S
C496 C504 1.378 . S
C497 C496 1.367 . S
C497 C505 1.433 . S
C498 H494 0.929 . S
C498 C500 1.378 . S
C498 C502 1.350 . S
C499 C502 1.463 . S
C499 C504 1.350 . S
C499 N507 1.427 . S
C500 H491 0.930 . S
C500 C498 1.378 . S
C500 C501 1.367 . S
C501 C500 1.367 . S
C501 C503 1.433 . S
C502 C498 1.350 . S
C502 C499 1.463 . S
C502 N506 1.427 . S
C503 H493 0.929 . S
C503 C501 1.433 . S
C503 N506 1.384 . S
C504 H495 0.929 . S
C504 C496 1.378 . S
C504 C499 1.350 . S
C505 H492 0.929 . S
C505 C497 1.433 . S
C505 N507 1.384 . S
N506 C502 1.427 . S
N506 C503 1.384 . S
N507 C499 1.427 . S
N507 C505 1.384 . S
H508 C514 0.930 . S
H509 C518 0.930 . S
H510 C523 0.929 . S
H511 C521 0.929 . S
H512 C516 0.929 . S
H513 C522 0.929 . S
C514 H508 0.930 . S
C514 C515 1.367 . S
C514 C522 1.378 . S
C515 C514 1.367 . S
C515 C523 1.433 . S
C516 H512 0.929 . S
C516 C518 1.378 . S
C516 C520 1.350 . S
C517 C520 1.463 . S
C517 C522 1.350 . S
C517 N525 1.427 . S
C518 H509 0.930 . S
C518 C516 1.378 . S
C518 C519 1.367 . S
C519 C518 1.367 . S
C519 C521 1.433 . S
C520 C516 1.350 . S
C520 C517 1.463 . S
C520 N524 1.427 . S
C521 H511 0.929 . S
C521 C519 1.433 . S
C521 N524 1.384 . S
C522 H513 0.929 . S
C522 C514 1.378 . S
C522 C517 1.350 . S
C523 H510 0.929 . S
C523 C515 1.433 . S
C523 N525 1.384 . S
N524 C520 1.427 . S
N524 C521 1.384 . S
N525 C517 1.427 . S
N525 C523 1.384 . S
H526 C532 0.930 . S
H527 C536 0.930 . S
H528 C541 0.929 . S
H529 C539 0.929 . S
H530 C534 0.929 . S
H531 C540 0.929 . S
C532 H526 0.930 . S
C532 C533 1.367 . S
C532 C540 1.378 . S
C533 C532 1.367 . S
C533 C541 1.433 . S
C534 H530 0.929 . S
C534 C536 1.378 . S
C534 C538 1.350 . S
C535 C538 1.463 . S
C535 C540 1.350 . S
C535 N543 1.427 . S
C536 H527 0.930 . S
C536 C534 1.378 . S
C536 C537 1.367 . S
C537 C536 1.367 . S
C537 C539 1.433 . S
C538 C534 1.350 . S
C538 C535 1.463 . S
C538 N542 1.427 . S
C539 H529 0.929 . S
C539 C537 1.433 . S
C539 N542 1.384 . S
C540 H531 0.929 . S
C540 C532 1.378 . S
C540 C535 1.350 . S
C541 H528 0.929 . S
C541 C533 1.433 . S
C541 N543 1.384 . S
N542 C538 1.427 . S
N542 C539 1.384 . S
N543 C535 1.427 . S
N543 C541 1.384 . S
H544 C550 0.930 . S
H545 C554 0.930 . S
H546 C559 0.929 . S
H547 C557 0.929 . S
H548 C552 0.929 . S
H549 C558 0.929 . S
C550 H544 0.930 . S
C550 C551 1.367 . S
C550 C558 1.378 . S
C551 C550 1.367 . S
C551 C559 1.433 . S
C552 H548 0.929 . S
C552 C554 1.378 . S
C552 C556 1.350 . S
C553 C556 1.463 . S
C553 C558 1.350 . S
C553 N561 1.427 . S
C554 H545 0.930 . S
C554 C552 1.378 . S
C554 C555 1.367 . S
C555 C554 1.367 . S
C555 C557 1.433 . S
C556 C552 1.350 . S
C556 C553 1.463 . S
C556 N560 1.427 . S
C557 H547 0.929 . S
C557 C555 1.433 . S
C557 N560 1.384 . S
C558 H549 0.929 . S
C558 C550 1.378 . S
C558 C553 1.350 . S
C559 H546 0.929 . S
C559 C551 1.433 . S
C559 N561 1.384 . S
N560 C556 1.427 . S
N560 C557 1.384 . S
N561 C553 1.427 . S
N561 C559 1.384 . S
H562 C568 0.930 . S
H563 C572 0.930 . S
H564 C577 0.929 . S
H565 C575 0.929 . S
H566 C570 0.929 . S
H567 C576 0.929 . S
C568 H562 0.930 . S
C568 C569 1.367 . S
C568 C576 1.378 . S
C569 C568 1.367 . S
C569 C577 1.433 . S
C570 H566 0.929 . S
C570 C572 1.378 . S
C570 C574 1.350 . S
C571 C574 1.463 . S
C571 C576 1.350 . S
C571 N579 1.427 . S
C572 H563 0.930 . S
C572 C570 1.378 . S
C572 C573 1.367 . S
C573 C572 1.367 . S
C573 C575 1.433 . S
C574 C570 1.350 . S
C574 C571 1.463 . S
C574 N578 1.427 . S
C575 H565 0.929 . S
C575 C573 1.433 . S
C575 N578 1.384 . S
C576 H567 0.929 . S
C576 C568 1.378 . S
C576 C571 1.350 . S
C577 H564 0.929 . S
C577 C569 1.433 . S
C577 N579 1.384 . S
N578 C574 1.427 . S
N578 C575 1.384 . S
N579 C571 1.427 . S
N579 C577 1.384 . S
H580 C586 0.930 . S
H581 C590 0.930 . S
H582 C595 0.929 . S
H583 C593 0.929 . S
H584 C588 0.929 . S
H585 C594 0.929 . S
C586 H580 0.930 . S
C586 C587 1.367 . S
C586 C594 1.378 . S
C587 C586 1.367 . S
C587 C595 1.433 . S
C588 H584 0.929 . S
C588 C590 1.378 . S
C588 C592 1.350 . S
C589 C592 1.463 . S
C589 C594 1.350 . S
C589 N597 1.427 . S
C590 H581 0.930 . S
C590 C588 1.378 . S
C590 C591 1.367 . S
C591 C590 1.367 . S
C591 C593 1.433 . S
C592 C588 1.350 . S
C592 C589 1.463 . S
C592 N596 1.427 . S
C593 H583 0.929 . S
C593 C591 1.433 . S
C593 N596 1.384 . S
C594 H585 0.929 . S
C594 C586 1.378 . S
C594 C589 1.350 . S
C595 H582 0.929 . S
C595 C587 1.433 . S
C595 N597 1.384 . S
N596 C592 1.427 . S
N596 C593 1.384 . S
N597 C589 1.427 . S
N597 C595 1.384 . S
H598 C604 0.930 . S
H599 C608 0.930 . S
H600 C613 0.929 . S
H601 C611 0.929 . S
H602 C606 0.929 . S
H603 C612 0.929 . S
C604 H598 0.930 . S
C604 C605 1.367 . S
C604 C612 1.378 . S
C605 C604 1.367 . S
C605 C613 1.433 . S
C606 H602 0.929 . S
C606 C608 1.378 . S
C606 C610 1.350 . S
C607 C610 1.463 . S
C607 C612 1.350 . S
C607 N615 1.427 . S
C608 H599 0.930 . S
C608 C606 1.378 . S
C608 C609 1.367 . S
C609 C608 1.367 . S
C609 C611 1.433 . S
C610 C606 1.350 . S
C610 C607 1.463 . S
C610 N614 1.427 . S
C611 H601 0.929 . S
C611 C609 1.433 . S
C611 N614 1.384 . S
C612 H603 0.929 . S
C612 C604 1.378 . S
C612 C607 1.350 . S
C613 H600 0.929 . S
C613 C605 1.433 . S
C613 N615 1.384 . S
N614 C610 1.427 . S
N614 C611 1.384 . S
N615 C607 1.427 . S
N615 C613 1.384 . S
H616 C622 0.930 . S
H617 C626 0.930 . S
H618 C631 0.929 . S
H619 C629 0.929 . S
H620 C624 0.929 . S
H621 C630 0.929 . S
C622 H616 0.930 . S
C622 C623 1.367 . S
C622 C630 1.378 . S
C623 C622 1.367 . S
C623 C631 1.433 . S
C624 H620 0.929 . S
C624 C626 1.378 . S
C624 C628 1.350 . S
C625 C628 1.463 . S
C625 C630 1.350 . S
C625 N633 1.427 . S
C626 H617 0.930 . S
C626 C624 1.378 . S
C626 C627 1.367 . S
C627 C626 1.367 . S
C627 C629 1.433 . S
C628 C624 1.350 . S
C628 C625 1.463 . S
C628 N632 1.427 . S
C629 H619 0.929 . S
C629 C627 1.433 . S
C629 N632 1.384 . S
C630 H621 0.929 . S
C630 C622 1.378 . S
C630 C625 1.350 . S
C631 H618 0.929 . S
C631 C623 1.433 . S
C631 N633 1.384 . S
N632 C628 1.427 . S
N632 C629 1.384 . S
N633 C625 1.427 . S
N633 C631 1.384 . S
H634 C640 0.930 . S
H635 C644 0.930 . S
H636 C649 0.929 . S
H637 C647 0.929 . S
H638 C642 0.929 . S
H639 C648 0.929 . S
C640 H634 0.930 . S
C640 C641 1.367 . S
C640 C648 1.378 . S
C641 C640 1.367 . S
C641 C649 1.433 . S
C642 H638 0.929 . S
C642 C644 1.378 . S
C642 C646 1.350 . S
C643 C646 1.463 . S
C643 C648 1.350 . S
C643 N651 1.427 . S
C644 H635 0.930 . S
C644 C642 1.378 . S
C644 C645 1.367 . S
C645 C644 1.367 . S
C645 C647 1.433 . S
C646 C642 1.350 . S
C646 C643 1.463 . S
C646 N650 1.427 . S
C647 H637 0.929 . S
C647 C645 1.433 . S
C647 N650 1.384 . S
C648 H639 0.929 . S
C648 C640 1.378 . S
C648 C643 1.350 . S
C649 H636 0.929 . S
C649 C641 1.433 . S
C649 N651 1.384 . S
N650 C646 1.427 . S
N650 C647 1.384 . S
N651 C643 1.427 . S
N651 C649 1.384 . S
H652 C658 0.930 . S
H653 C662 0.930 . S
H654 C667 0.929 . S
H655 C665 0.929 . S
H656 C660 0.929 . S
H657 C666 0.929 . S
C658 H652 0.930 . S
C658 C659 1.367 . S
C658 C666 1.378 . S
C659 C658 1.367 . S
C659 C667 1.433 . S
C660 H656 0.929 . S
C660 C662 1.378 . S
C660 C664 1.350 . S
C661 C664 1.463 . S
C661 C666 1.350 . S
C661 N669 1.427 . S
C662 H653 0.930 . S
C662 C660 1.378 . S
C662 C663 1.367 . S
C663 C662 1.367 . S
C663 C665 1.433 . S
C664 C660 1.350 . S
C664 C661 1.463 . S
C664 N668 1.427 . S
C665 H655 0.929 . S
C665 C663 1.433 . S
C665 N668 1.384 . S
C666 H657 0.929 . S
C666 C658 1.378 . S
C666 C661 1.350 . S
C667 H654 0.929 . S
C667 C659 1.433 . S
C667 N669 1.384 . S
N668 C664 1.427 . S
N668 C665 1.384 . S
N669 C661 1.427 . S
N669 C667 1.384 . S
H670 C676 0.930 . S
H671 C680 0.930 . S
H672 C685 0.929 . S
H673 C683 0.929 . S
H674 C678 0.929 . S
H675 C684 0.929 . S
C676 H670 0.930 . S
C676 C677 1.367 . S
C676 C684 1.378 . S
C677 C676 1.367 . S
C677 C685 1.433 . S
C678 H674 0.929 . S
C678 C680 1.378 . S
C678 C682 1.350 . S
C679 C682 1.463 . S
C679 C684 1.350 . S
C679 N687 1.427 . S
C680 H671 0.930 . S
C680 C678 1.378 . S
C680 C681 1.367 . S
C681 C680 1.367 . S
C681 C683 1.433 . S
C682 C678 1.350 . S
C682 C679 1.463 . S
C682 N686 1.427 . S
C683 H673 0.929 . S
C683 C681 1.433 . S
C683 N686 1.384 . S
C684 H675 0.929 . S
C684 C676 1.378 . S
C684 C679 1.350 . S
C685 H672 0.929 . S
C685 C677 1.433 . S
C685 N687 1.384 . S
N686 C682 1.427 . S
N686 C683 1.384 . S
N687 C679 1.427 . S
N687 C685 1.384 . S
C263 C6 1.038 . S
C267 C102 1.073 . S
C281 C18 1.245 . S
C285 C151 1.231 . S
C303 C186 2.585 . S
C299 C28 2.630 . S
C317 C40 1.801 . S
C321 C225 1.757 . S
C339 C146 2.337 . S
C335 C9 2.233 . S
C357 C105 0.818 . S
C353 C16 0.843 . S
C375 C235 1.891 . S
C371 C30 1.926 . S
C393 C194 1.301 . S
C389 C42 1.334 . S
C407 C4 1.474 . S
C411 C222 1.500 . S
C429 C154 2.511 . S
C425 C33 2.590 . S
C443 C45 2.078 . S
C447 C115 2.068 . S
C461 C21 1.018 . S
C465 C191 1.031 . S
C483 C111 1.090 . S
C479 C57 1.065 . S
C497 C66 1.279 . S
C501 C142 1.258 . S
C515 C76 2.679 . S
C519 C195 2.625 . S
C533 C88 1.734 . S
C537 C234 1.704 . S
C551 C54 2.222 . S
C555 C155 2.320 . S
C573 C114 0.928 . S
C569 C64 0.962 . S
C591 C226 1.803 . S
C587 C78 1.847 . S
C609 C185 1.350 . S
C605 C93 1.370 . S
C623 C52 1.434 . S
C627 C231 1.503 . S
C645 C145 2.489 . S
C641 C81 2.576 . S
C663 C106 2.045 . S
C659 C90 2.056 . S
C677 C69 1.010 . S
C681 C182 1.044 . S
