# Generated by pormake.
# Topology wbl, (4,4)-cn, num edge types: 1
# Building blocks:
#     Node 0, Type 0, BuildingBlock: MUDLON_clean_linker_0, # of connection points: 4
#     Node 1, Type 0, BuildingBlock: MUDLON_clean_linker_0, # of connection points: 4
#     Node 2, Type 0, BuildingBlock: MUDLON_clean_linker_0, # of connection points: 4
#     Node 3, Type 0, BuildingBlock: MUDLON_clean_linker_0, # of connection points: 4
#     Node 4, Type 0, BuildingBlock: MUDLON_clean_linker_0, # of connection points: 4
#     Node 5, Type 0, BuildingBlock: MUDLON_clean_linker_0, # of connection points: 4
#     Node 6, Type 0, BuildingBlock: MUDLON_clean_linker_0, # of connection points: 4
#     Node 7, Type 0, BuildingBlock: MUDLON_clean_linker_0, # of connection points: 4
#     Node 8, Type 1, BuildingBlock: QUQFOY_clean_sbu_3, # of connection points: 4
#     Node 9, Type 1, BuildingBlock: QUQFOY_clean_sbu_3, # of connection points: 4
#     Node 10, Type 1, BuildingBlock: QUQFOY_clean_sbu_3, # of connection points: 4
#     Node 11, Type 1, BuildingBlock: QUQFOY_clean_sbu_3, # of connection points: 4
#     Node 12, Type 1, BuildingBlock: QUQFOY_clean_sbu_3, # of connection points: 4
#     Node 13, Type 1, BuildingBlock: QUQFOY_clean_sbu_3, # of connection points: 4
#     Node 14, Type 1, BuildingBlock: QUQFOY_clean_sbu_3, # of connection points: 4
#     Node 15, Type 1, BuildingBlock: QUQFOY_clean_sbu_3, # of connection points: 4
#     Edge 16, Type (0, 1), BuildingBlock: KIFKEQ_clean_linker_1, # of connection points: 2
#     Edge 17, Type (0, 1), BuildingBlock: KIFKEQ_clean_linker_1, # of connection points: 2
#     Edge 18, Type (0, 1), BuildingBlock: KIFKEQ_clean_linker_1, # of connection points: 2
#     Edge 19, Type (0, 1), BuildingBlock: KIFKEQ_clean_linker_1, # of connection points: 2
#     Edge 20, Type (0, 1), BuildingBlock: KIFKEQ_clean_linker_1, # of connection points: 2
#     Edge 21, Type (0, 1), BuildingBlock: KIFKEQ_clean_linker_1, # of connection points: 2
#     Edge 22, Type (0, 1), BuildingBlock: KIFKEQ_clean_linker_1, # of connection points: 2
#     Edge 23, Type (0, 1), BuildingBlock: KIFKEQ_clean_linker_1, # of connection points: 2
#     Edge 24, Type (0, 1), BuildingBlock: KIFKEQ_clean_linker_1, # of connection points: 2
#     Edge 25, Type (0, 1), BuildingBlock: KIFKEQ_clean_linker_1, # of connection points: 2
#     Edge 26, Type (0, 1), BuildingBlock: KIFKEQ_clean_linker_1, # of connection points: 2
#     Edge 27, Type (0, 1), BuildingBlock: KIFKEQ_clean_linker_1, # of connection points: 2
#     Edge 28, Type (0, 1), BuildingBlock: KIFKEQ_clean_linker_1, # of connection points: 2
#     Edge 29, Type (0, 1), BuildingBlock: KIFKEQ_clean_linker_1, # of connection points: 2
#     Edge 30, Type (0, 1), BuildingBlock: KIFKEQ_clean_linker_1, # of connection points: 2
#     Edge 31, Type (0, 1), BuildingBlock: KIFKEQ_clean_linker_1, # of connection points: 2
#     Edge 32, Type (0, 1), BuildingBlock: KIFKEQ_clean_linker_1, # of connection points: 2
#     Edge 33, Type (0, 1), BuildingBlock: KIFKEQ_clean_linker_1, # of connection points: 2
#     Edge 34, Type (0, 1), BuildingBlock: KIFKEQ_clean_linker_1, # of connection points: 2
#     Edge 35, Type (0, 1), BuildingBlock: KIFKEQ_clean_linker_1, # of connection points: 2
#     Edge 36, Type (0, 1), BuildingBlock: KIFKEQ_clean_linker_1, # of connection points: 2
#     Edge 37, Type (0, 1), BuildingBlock: KIFKEQ_clean_linker_1, # of connection points: 2
#     Edge 38, Type (0, 1), BuildingBlock: KIFKEQ_clean_linker_1, # of connection points: 2
#     Edge 39, Type (0, 1), BuildingBlock: KIFKEQ_clean_linker_1, # of connection points: 2
#     Edge 40, Type (0, 1), BuildingBlock: KIFKEQ_clean_linker_1, # of connection points: 2
#     Edge 41, Type (0, 1), BuildingBlock: KIFKEQ_clean_linker_1, # of connection points: 2
#     Edge 42, Type (0, 1), BuildingBlock: KIFKEQ_clean_linker_1, # of connection points: 2
#     Edge 43, Type (0, 1), BuildingBlock: KIFKEQ_clean_linker_1, # of connection points: 2
#     Edge 44, Type (0, 1), BuildingBlock: KIFKEQ_clean_linker_1, # of connection points: 2
#     Edge 45, Type (0, 1), BuildingBlock: KIFKEQ_clean_linker_1, # of connection points: 2
#     Edge 46, Type (0, 1), BuildingBlock: KIFKEQ_clean_linker_1, # of connection points: 2
#     Edge 47, Type (0, 1), BuildingBlock: KIFKEQ_clean_linker_1, # of connection points: 2
# Relax obj value: 0.125
# Max RMSD: 0.148
# Mean RMSD: 0.132
data_MOF--net-wbl--node1-QUQFOY_clean_sbu_3--node2-MUDLON_clean_linker_0--edge1-KIFKEQ_clean_linker_1
_symmetry_space_group_name_H-M    P1
_symmetry_Int_Tables_number       1
_symmetry_cell_setting            triclinic
loop_
_symmetry_equiv_pos_as_xyz
'x, y, z'
_cell_length_a     54.993617
_cell_length_b     55.629705
_cell_length_c     78.081087
_cell_angle_alpha  90.805751
_cell_angle_beta   90.311112
_cell_angle_gamma 90.060166
loop_
_atom_site_label
_atom_site_type_symbol
_atom_site_fract_x
_atom_site_fract_y
_atom_site_fract_z
_atom_type_partial_charge
H0 H 0.101 0.95673 0.31604 0.0
N1 N 0.06686 0.93202 0.29729 0.0
H2 H 0.11055 0.95165 0.34619 0.0
H3 H 0.04485 0.90298 0.31913 0.0
H4 H 0.05558 0.89611 0.34907 0.0
H5 H 0.09067 0.89049 0.29907 0.0
H6 H 0.12835 0.87916 0.2855 0.0
H7 H 0.08953 0.95644 0.27048 0.0
H8 H 0.12668 0.94452 0.25619 0.0
H9 H 0.08134 0.97941 0.29613 0.0
H10 H 0.01966 0.93217 0.29029 0.0
H11 H 0.05492 0.01413 0.29362 0.0
H12 H 0.99266 0.96686 0.28886 0.0
H13 H 0.95416 0.11719 0.31443 0.0
H14 H 0.94043 0.12677 0.34353 0.0
H15 H 0.93091 0.05096 0.35295 0.0
H16 H 0.944 0.04168 0.3238 0.0
H17 H 0.91468 0.04602 0.30032 0.0
H18 H 0.87548 0.05519 0.28749 0.0
H19 H 0.90774 0.1152 0.26126 0.0
H20 H 0.9468 0.10652 0.27504 0.0
H21 H -8e-05 0.06925 0.31244 0.0
H22 H 0.02753 0.03543 0.30989 0.0
H23 H 0.97731 0.00019 0.27487 0.0
N24 N 0.95557 0.07414 0.29907 0.0
H25 H 0.94916 0.03331 0.27825 0.0
C26 C 0.07183 0.93052 0.31542 0.0
C27 C 0.09045 0.94407 0.3233 0.0
C28 C 0.09626 0.9407 0.34053 0.0
C29 C 0.08405 0.92325 0.35018 0.0
C30 C 0.06517 0.90998 0.34225 0.0
C31 C 0.05904 0.91376 0.3251 0.0
C32 C 0.08754 0.92499 0.28679 0.0
C33 C 0.09839 0.90254 0.28978 0.0
C34 C 0.11996 0.89587 0.28174 0.0
C35 C 0.13107 0.91105 0.26984 0.0
C36 C 0.11924 0.93271 0.26573 0.0
C37 C 0.09775 0.93963 0.27407 0.0
C38 C 0.05255 0.95297 0.29311 0.0
C39 C 0.06211 0.97643 0.29412 0.0
C40 C 0.04681 -0.00359 0.2929 0.0
C41 C 0.02143 0.99353 0.29126 0.0
C42 C 0.01204 0.97001 0.28982 0.0
C43 C 0.02746 0.95006 0.29067 0.0
C44 C 0.95018 0.07883 0.31693 0.0
C45 C 0.94941 0.10269 0.3229 0.0
C46 C 0.94161 0.10809 0.33952 0.0
C47 C 0.93439 0.08964 0.35054 0.0
C48 C 0.93591 0.06564 0.34471 0.0
C49 C 0.94361 0.06027 0.32808 0.0
C50 C 0.93375 0.07574 0.28872 0.0
C51 C 0.91344 0.06096 0.29164 0.0
C52 C 0.89096 0.06617 0.28415 0.0
C53 C 0.88824 0.08616 0.27344 0.0
C54 C 0.90896 0.09999 0.26972 0.0
C55 C 0.93141 0.09487 0.27736 0.0
C56 C 0.97191 0.05393 0.29611 0.0
C57 C -0.00526 0.05417 0.30428 0.0
C58 C 0.01074 0.03483 0.3026 0.0
C59 C 0.00477 0.01479 0.2922 0.0
C60 C 0.98237 0.01494 0.28335 0.0
C61 C 0.96611 0.03417 0.2853 0.0
H62 H -0.00063 0.42171 0.58321 0.0
N63 N 0.97467 0.42647 0.5541 0.0
H64 H 0.98294 0.41641 0.61203 0.0
H65 H 0.92656 0.42781 0.56305 0.0
H66 H 0.91001 0.42261 0.59173 0.0
H67 H 0.93715 0.43174 0.53115 0.0
H68 H 0.91802 0.39935 0.51425 0.0
H69 H 0.99021 0.38186 0.55027 0.0
H70 H 0.97091 0.34928 0.53415 0.0
H71 H 0.01612 0.44011 0.53982 0.0
H72 H 0.94586 0.46671 0.55504 0.0
H73 H 0.02941 0.48109 0.53393 0.0
H74 H 0.95934 0.50765 0.5506 0.0
H75 H 0.0758 0.59618 0.55963 0.0
H76 H 0.095 0.60314 0.58751 0.0
H77 H 0.0243 0.60572 0.61122 0.0
H78 H 0.00501 0.59931 0.58306 0.0
H79 H 0.0114 0.6401 0.54958 0.0
H80 H 0.03038 0.67213 0.5335 0.0
H81 H 0.08095 0.62085 0.51166 0.0
H82 H 0.06211 0.58896 0.52841 0.0
H83 H 0.05583 0.55536 0.55319 0.0
H84 H 0.04215 0.51415 0.54945 0.0
H85 H 0.97097 0.53969 0.53435 0.0
N86 N 0.0268 0.59546 0.55277 0.0
H87 H 0.98454 0.581 0.53954 0.0
C88 C 0.9643 0.42497 0.57099 0.0
C89 C 0.97987 0.42212 0.58506 0.0
C90 C 0.97044 0.41921 0.60148 0.0
C91 C 0.94515 0.41901 0.60413 0.0
C92 C 0.92954 0.42237 0.59006 0.0
C93 C 0.93901 0.42542 0.57365 0.0
C94 C 0.96525 0.40914 0.54188 0.0
C95 C 0.94495 0.4139 0.53144 0.0
C96 C 0.93387 0.39527 0.52195 0.0
C97 C 0.94278 0.37155 0.52283 0.0
C98 C 0.9637 0.36726 0.53279 0.0
C99 C 0.97479 0.38585 0.54211 0.0
C100 C 0.98025 0.45031 0.54819 0.0
C101 C 0.0035 0.45482 0.54174 0.0
C102 C 0.01114 0.47834 0.53861 0.0
C103 C -0.00425 0.49801 0.54216 0.0
C104 C 0.97181 0.4932 0.54756 0.0
C105 C 0.96405 0.46962 0.55033 0.0
C106 C 0.03882 0.59761 0.56922 0.0
C107 C 0.06434 0.5983 0.57075 0.0
C108 C 0.07534 0.60228 0.5867 0.0
C109 C 0.06111 0.60514 0.60146 0.0
C110 C 0.03567 0.6035 0.60003 0.0
C111 C 0.02466 0.5999 0.58401 0.0
C112 C 0.03523 0.61223 0.5402 0.0
C113 C 0.02615 0.6357 0.54094 0.0
C114 C 0.03706 0.65399 0.53167 0.0
C115 C 0.05737 0.64921 0.52127 0.0
C116 C 0.0656 0.62529 0.51972 0.0
C117 C 0.05466 0.60694 0.52913 0.0
C118 C 0.02095 0.57132 0.54708 0.0
C119 C 0.03734 0.55215 0.54895 0.0
C120 C 0.02946 0.52841 0.5466 0.0
C121 C 0.00517 0.52328 0.54189 0.0
C122 C 0.98953 0.54272 0.53853 0.0
C123 C -0.00268 0.56642 0.54126 0.0
H124 H 0.59585 0.44374 0.81149 0.0
N125 N 0.55658 0.42651 0.79349 0.0
H126 H 0.6049 0.43736 0.84167 0.0
H127 H 0.52935 0.40333 0.81611 0.0
H128 H 0.53798 0.39726 0.8466 0.0
H129 H 0.57777 0.38374 0.79155 0.0
H130 H 0.61613 0.37335 0.77841 0.0
H131 H 0.58215 0.45488 0.77037 0.0
H132 H 0.61952 0.44403 0.75605 0.0
H133 H 0.5705 0.47347 0.7986 0.0
H134 H 0.51127 0.42829 0.78145 0.0
H135 H 0.54417 0.50858 0.79743 0.0
H136 H 0.48442 0.46342 0.78063 0.0
H137 H 0.45544 0.6106 0.81523 0.0
H138 H 0.44252 0.62148 0.84436 0.0
H139 H 0.41023 0.5512 0.84964 0.0
H140 H 0.42368 0.54029 0.82073 0.0
H141 H 0.40921 0.53779 0.79237 0.0
H142 H 0.36955 0.54773 0.78005 0.0
H143 H 0.39566 0.61883 0.76842 0.0
H144 H 0.43538 0.60872 0.78072 0.0
H145 H 0.48424 0.55647 0.8183 0.0
H146 H 0.51134 0.52264 0.81478 0.0
H147 H 0.47461 0.50242 0.76775 0.0
N148 N 0.44673 0.56969 0.79814 0.0
H149 H 0.44697 0.53623 0.77132 0.0
C150 C 0.56185 0.42394 0.81154 0.0
C151 C 0.58301 0.43375 0.81908 0.0
C152 C 0.58813 0.43013 0.83638 0.0
C153 C 0.57217 0.41677 0.84658 0.0
C154 C 0.55083 0.40732 0.83906 0.0
C155 C 0.54576 0.4109 0.82171 0.0
C156 C 0.5771 0.4203 0.78262 0.0
C157 C 0.58671 0.39699 0.78372 0.0
C158 C 0.60873 0.39099 0.77597 0.0
C159 C 0.62153 0.4079 0.76625 0.0
C160 C 0.61087 0.4307 0.76394 0.0
C161 C 0.5891 0.43694 0.77214 0.0
C162 C 0.54288 0.44811 0.79004 0.0
C163 C 0.55191 0.47112 0.79433 0.0
C164 C 0.53671 0.49121 0.79379 0.0
C165 C 0.51202 0.48881 0.78919 0.0
C166 C 0.50334 0.46599 0.78411 0.0
C167 C 0.51864 0.44588 0.78456 0.0
C168 C 0.44035 0.57482 0.81576 0.0
C169 C 0.44582 0.59752 0.82278 0.0
C170 C 0.43848 0.60364 0.83938 0.0
C171 C 0.42526 0.58721 0.84918 0.0
C172 C 0.42014 0.56429 0.84226 0.0
C173 C 0.42777 0.55806 0.82575 0.0
C174 C 0.42545 0.57253 0.78737 0.0
C175 C 0.40667 0.55528 0.78675 0.0
C176 C 0.38397 0.56098 0.77969 0.0
C177 C 0.37945 0.58415 0.77343 0.0
C178 C 0.39857 0.60091 0.77328 0.0
C179 C 0.42132 0.59508 0.78011 0.0
C180 C 0.46206 0.54849 0.79581 0.0
C181 C 0.48139 0.54456 0.80738 0.0
C182 C 0.49734 0.52532 0.80519 0.0
C183 C 0.49511 0.50963 0.79104 0.0
C184 C 0.47649 0.51385 0.77902 0.0
C185 C 0.46042 0.53324 0.78121 0.0
H186 H 0.45578 0.91234 0.06387 0.0
N187 N 0.43776 0.95198 0.04768 0.0
H188 H 0.44863 0.90105 0.09336 0.0
H189 H 0.41396 0.97706 0.07156 0.0
H190 H 0.40732 0.96626 0.10151 0.0
H191 H 0.39253 0.94106 0.03864 0.0
H192 H 0.37824 0.90415 0.02439 0.0
H193 H 0.46678 0.91879 0.03063 0.0
H194 H 0.45268 0.88212 0.01666 0.0
H195 H 0.4856 0.93967 0.05302 0.0
H196 H 0.4387 -0.00403 0.03489 0.0
H197 H 0.5208 0.96531 0.04925 0.0
H198 H 0.47384 0.0226 0.03216 0.0
H199 H 0.62644 0.0651 0.05622 0.0
H200 H 0.63871 0.08136 0.08417 0.0
H201 H 0.56311 0.09372 0.0966 0.0
H202 H 0.55132 0.07891 0.06826 0.0
H203 H 0.54936 0.09988 0.04067 0.0
H204 H 0.55714 0.13835 0.02687 0.0
H205 H 0.62464 0.11039 0.00687 0.0
H206 H 0.6167 0.07195 0.02074 0.0
H207 H 0.57326 0.02495 0.06328 0.0
H208 H 0.53902 -0.00231 0.06287 0.0
H209 H 0.51027 0.03291 0.01814 0.0
N210 N 0.58175 0.06262 0.04299 0.0
H211 H 0.54396 0.06108 0.01906 0.0
C212 C 0.43527 0.94561 0.06545 0.0
C213 C 0.4453 0.92433 0.07197 0.0
C214 C 0.44128 0.91792 0.08894 0.0
C215 C 0.42736 0.93272 0.09986 0.0
C216 C 0.4178 0.95425 0.0934 0.0
C217 C 0.42173 0.96058 0.07636 0.0
C218 C 0.43067 0.93292 0.03587 0.0
C219 C 0.40575 0.92858 0.03341 0.0
C220 C 0.39762 0.90738 0.02543 0.0
C221 C 0.41433 0.89007 0.0196 0.0
C222 C 0.43933 0.89515 0.02094 0.0
C223 C 0.44745 0.91629 0.02903 0.0
C224 C 0.45935 0.96576 0.04398 0.0
C225 C 0.48283 0.95747 0.048 0.0
C226 C 0.50304 0.97242 0.04609 0.0
C227 C 0.50031 -0.00371 0.04061 0.0
C228 C 0.47684 0.00431 0.0362 0.0
C229 C 0.45666 0.98914 0.03781 0.0
C230 C 0.58805 0.07053 0.06019 0.0
C231 C 0.61259 0.07123 0.06506 0.0
C232 C 0.61951 0.08043 0.0811 0.0
C233 C 0.60194 0.08888 0.09278 0.0
C234 C 0.57725 0.08784 0.08791 0.0
C235 C 0.5704 0.07908 0.07174 0.0
C236 C 0.58248 0.08295 0.03166 0.0
C237 C 0.56544 0.10178 0.03288 0.0
C238 C 0.56992 0.12376 0.02497 0.0
C239 C 0.59164 0.12744 0.01594 0.0
C240 C 0.60787 0.10814 0.01389 0.0
C241 C 0.60325 0.08611 0.02163 0.0
C242 C 0.56089 0.0464 0.04196 0.0
C243 C 0.55939 0.02728 0.05355 0.0
C244 C 0.53986 0.01127 0.0531 0.0
C245 C 0.52156 0.01309 0.04056 0.0
C246 C 0.52359 0.03134 0.02832 0.0
C247 C 0.54305 0.04766 0.02891 0.0
H248 H 0.09581 0.5531 0.93459 0.0
N249 N 0.05937 0.57229 0.95455 0.0
H250 H 0.10492 0.56291 0.90529 0.0
H251 H 0.03497 0.60197 0.93421 0.0
H252 H 0.04361 0.61142 0.90422 0.0
H253 H 0.06509 0.61275 0.97248 0.0
H254 H 0.10145 0.62624 0.98781 0.0
H255 H 0.09814 0.54373 0.96317 0.0
H256 H 0.13553 0.55769 0.97662 0.0
H257 H 0.06695 0.52536 0.9443 0.0
H258 H 0.01837 0.57202 0.97227 0.0
H259 H 0.03829 0.49238 0.9468 0.0
H260 H 0.9899 0.53863 0.97568 0.0
H261 H 0.9383 0.39224 0.94203 0.0
H262 H 0.92596 0.37942 0.91325 0.0
H263 H 0.92305 0.45382 0.89799 0.0
H264 H 0.93383 0.46636 0.92692 0.0
H265 H 0.89913 0.46316 0.94965 0.0
H266 H 0.85975 0.45577 0.9627 0.0
H267 H 0.89098 0.39859 0.99234 0.0
H268 H 0.93102 0.40695 0.97986 0.0
H269 H 0.98794 0.43208 0.96063 0.0
H270 H 0.01848 0.46388 0.96386 0.0
H271 H 0.96197 0.51725 0.95842 0.0
N272 N 0.94069 0.43678 0.95452 0.0
H273 H 0.93184 0.4857 0.95602 0.0
C274 C 0.06459 0.57687 0.93677 0.0
C275 C 0.0842 0.56583 0.92824 0.0
C276 C 0.08934 0.57136 0.91128 0.0
C277 C 0.07495 0.58789 0.90232 0.0
C278 C 0.05523 0.5988 0.9108 0.0
C279 C 0.05014 0.5933 0.92786 0.0
C280 C 0.07909 0.57756 0.96627 0.0
C281 C 0.08022 0.60047 0.97385 0.0
C282 C 0.10128 0.60826 0.98235 0.0
C283 C 0.12209 0.59351 0.98299 0.0
C284 C 0.12015 0.56978 0.97649 0.0
C285 C 0.09873 0.56176 0.9685 0.0
C286 C 0.04463 0.55142 0.95789 0.0
C287 C 0.05032 0.52848 0.95127 0.0
C288 C 0.03387 0.50943 0.95285 0.0
C289 C 0.01152 0.51278 0.96128 0.0
C290 C 0.00661 0.53544 0.96874 0.0
C291 C 0.02295 0.55452 0.96697 0.0
C292 C 0.93724 0.43016 0.93672 0.0
C293 C 0.93535 0.40571 0.93236 0.0
C294 C 0.92834 0.39844 0.91586 0.0
C295 C 0.92331 0.41557 0.90322 0.0
C296 C 0.92623 0.4401 0.90744 0.0
C297 C 0.93283 0.44734 0.92403 0.0
C298 C 0.9184 0.43609 0.96419 0.0
C299 C 0.898 0.44993 0.95961 0.0
C300 C 0.87533 0.44548 0.96692 0.0
C301 C 0.87242 0.42666 0.97851 0.0
C302 C 0.89284 0.41326 0.98346 0.0
C303 C 0.91567 0.41813 0.97646 0.0
C304 C 0.95755 0.45624 0.95806 0.0
C305 C 0.98218 0.45068 0.96045 0.0
C306 C -0.00038 0.46892 0.96213 0.0
C307 C 0.99282 0.49326 0.96129 0.0
C308 C 0.96797 0.4988 0.95942 0.0
C309 C 0.95055 0.48056 0.95791 0.0
H310 H 0.54791 0.40364 0.18756 0.0
N311 N 0.56455 0.44345 0.20509 0.0
H312 H 0.55792 0.39188 0.15828 0.0
H313 H 0.59122 0.46784 0.18289 0.0
H314 H 0.60177 0.45592 0.15349 0.0
H315 H 0.60902 0.43336 0.2159 0.0
H316 H 0.62263 0.39666 0.22967 0.0
H317 H 0.53448 0.41037 0.22065 0.0
H318 H 0.54781 0.3742 0.23497 0.0
H319 H 0.51742 0.43057 0.19726 0.0
H320 H 0.562 0.48763 0.21828 0.0
H321 H 0.48202 0.4566 0.19835 0.0
H322 H 0.52665 0.51436 0.21876 0.0
H323 H 0.38036 0.55536 0.18197 0.0
H324 H 0.37254 0.57053 0.15316 0.0
H325 H 0.44914 0.58612 0.14773 0.0
H326 H 0.45656 0.5716 0.1766 0.0
H327 H 0.45739 0.58992 0.20455 0.0
H328 H 0.45078 0.62959 0.21758 0.0
H329 H 0.37717 0.60941 0.22993 0.0
H330 H 0.38397 0.56961 0.21693 0.0
H331 H 0.43476 0.5175 0.17887 0.0
H332 H 0.468 0.48957 0.18243 0.0
H333 H 0.48722 0.5241 0.2305 0.0
N334 N 0.42244 0.55533 0.19908 0.0
H335 H 0.45428 0.55261 0.2268 0.0
C336 C 0.56888 0.43672 0.18744 0.0
C337 C 0.55944 0.41534 0.1802 0.0
C338 C 0.56536 0.4085 0.16347 0.0
C339 C 0.5808 0.42287 0.1536 0.0
C340 C 0.58968 0.44455 0.16071 0.0
C341 C 0.58377 0.45136 0.17748 0.0
C342 C 0.57081 0.42477 0.21704 0.0
C343 C 0.59553 0.42081 0.22048 0.0
C344 C 0.60327 0.39976 0.22838 0.0
C345 C 0.58635 0.38217 0.23321 0.0
C346 C 0.56141 0.38705 0.23103 0.0
C347 C 0.55369 0.40802 0.22294 0.0
C348 C 0.54253 0.45708 0.20783 0.0
C349 C 0.5196 0.44858 0.20239 0.0
C350 C 0.49931 0.46368 0.20282 0.0
C351 C 0.50147 0.48776 0.20841 0.0
C352 C 0.5242 0.49589 0.21452 0.0
C353 C 0.54445 0.48067 0.21423 0.0
C354 C 0.41894 0.56227 0.18144 0.0
C355 C 0.39542 0.56186 0.17445 0.0
C356 C 0.39104 0.57048 0.15798 0.0
C357 C 0.4102 0.57968 0.14814 0.0
C358 C 0.43388 0.5796 0.15506 0.0
C359 C 0.43821 0.57114 0.17154 0.0
C360 C 0.42115 0.57664 0.20989 0.0
C361 C 0.44005 0.59376 0.21047 0.0
C362 C 0.43625 0.61644 0.21793 0.0
C363 C 0.41339 0.62262 0.22465 0.0
C364 C 0.39491 0.60518 0.22474 0.0
C365 C 0.39883 0.5824 0.2175 0.0
C366 C 0.44265 0.53874 0.20179 0.0
C367 C 0.44636 0.51963 0.19004 0.0
C368 C 0.46524 0.50321 0.19226 0.0
C369 C 0.48061 0.50472 0.20666 0.0
C370 C 0.4762 0.52284 0.21899 0.0
C371 C 0.45728 0.53941 0.21674 0.0
H372 H 0.41035 0.95159 0.43593 0.0
N373 N 0.45044 0.93696 0.45388 0.0
H374 H 0.39968 0.94052 0.40653 0.0
H375 H 0.47665 0.91064 0.43194 0.0
H376 H 0.46589 0.89919 0.40234 0.0
H377 H 0.4301 0.89392 0.45709 0.0
H378 H 0.3919 0.88425 0.47046 0.0
H379 H 0.42556 0.9665 0.47717 0.0
H380 H 0.3885 0.95637 0.49189 0.0
H381 H 0.43403 0.98253 0.44699 0.0
H382 H 0.49559 0.94262 0.46574 0.0
H383 H 0.45842 0.01906 0.44685 0.0
H384 H 0.52026 0.97943 0.4657 0.0
H385 H 0.54183 0.12254 0.42582 0.0
H386 H 0.5542 0.12942 0.39624 0.0
H387 H 0.59334 0.06196 0.39623 0.0
H388 H 0.57928 0.05457 0.42513 0.0
H389 H 0.58927 0.05381 0.4541 0.0
H390 H 0.62768 0.06456 0.46803 0.0
H391 H 0.60276 0.13768 0.47443 0.0
H392 H 0.56408 0.12673 0.46055 0.0
H393 H 0.51794 0.06651 0.4243 0.0
H394 H 0.49247 0.03171 0.42867 0.0
H395 H 0.52496 0.02157 0.47844 0.0
N396 N 0.55269 0.08515 0.44539 0.0
H397 H 0.55056 0.05666 0.47429 0.0
C398 C 0.44454 0.93212 0.43609 0.0
C399 C 0.4229 0.94065 0.4286 0.0
C400 C 0.41676 0.93422 0.41179 0.0
C401 C 0.43195 0.91899 0.40215 0.0
C402 C 0.45374 0.91079 0.40954 0.0
C403 C 0.45999 0.91741 0.42634 0.0
C404 C 0.4305 0.93119 0.46527 0.0
C405 C 0.42117 0.90766 0.46474 0.0
C406 C 0.39924 0.90208 0.47264 0.0
C407 C 0.38637 0.91964 0.48204 0.0
C408 C 0.39708 0.94257 0.48412 0.0
C409 C 0.41868 0.9484 0.4757 0.0
C410 C 0.46305 0.95962 0.45628 0.0
C411 C 0.45273 0.9816 0.45124 0.0
C412 C 0.46673 0.00255 0.45114 0.0
C413 C 0.49136 0.00207 0.45606 0.0
C414 C 0.50131 0.9804 0.46193 0.0
C415 C 0.48727 0.95938 0.46196 0.0
C416 C 0.5598 0.08826 0.42775 0.0
C417 C 0.5529 0.10922 0.41929 0.0
C418 C 0.56023 0.11319 0.40245 0.0
C419 C 0.575 0.09636 0.39377 0.0
C420 C 0.58172 0.07522 0.4023 0.0
C421 C 0.57401 0.07109 0.41901 0.0
C422 C 0.57355 0.08948 0.45642 0.0
C423 C 0.59175 0.07202 0.45883 0.0
C424 C 0.61372 0.07817 0.46684 0.0
C425 C 0.6182 0.10198 0.47226 0.0
C426 C 0.5998 0.11922 0.47032 0.0
C427 C 0.57766 0.11296 0.46256 0.0
C428 C 0.53803 0.06365 0.44827 0.0
C429 C 0.52028 0.05666 0.43605 0.0
C430 C 0.50526 0.03685 0.43866 0.0
C431 C 0.50696 0.02364 0.45379 0.0
C432 C 0.52372 0.03104 0.46644 0.0
C433 C 0.53866 0.0511 0.46391 0.0
H434 H 0.05202 0.90684 0.68772 0.0
N435 N 0.06923 0.94465 0.70712 0.0
H436 H 0.06285 0.89707 0.65821 0.0
H437 H 0.09858 0.96921 0.68677 0.0
H438 H 0.10961 0.95948 0.65704 0.0
H439 H 0.11268 0.93199 0.71855 0.0
H440 H 0.12397 0.89439 0.73211 0.0
H441 H 0.037 0.91204 0.72117 0.0
H442 H 0.048 0.87502 0.73528 0.0
H443 H 0.02211 0.9333 0.69809 0.0
H444 H 0.0674 0.98878 0.72051 0.0
H445 H 0.98757 0.96033 0.69846 0.0
H446 H 0.03292 0.01662 0.72014 0.0
H447 H 0.88567 0.05305 0.68304 0.0
H448 H 0.87547 0.06694 0.65414 0.0
H449 H 0.9492 0.09199 0.64802 0.0
H450 H 0.95944 0.07746 0.67657 0.0
H451 H 0.96026 0.09514 0.70351 0.0
H452 H 0.95143 0.13414 0.71644 0.0
H453 H 0.88236 0.10699 0.73413 0.0
H454 H 0.89081 0.06842 0.71999 0.0
H455 H 0.94176 0.02113 0.67877 0.0
H456 H 0.97516 0.99352 0.68243 0.0
H457 H 0.99337 0.02773 0.73081 0.0
N458 N 0.92794 0.0578 0.6996 0.0
H459 H 0.9604 0.05617 0.7269 0.0
C460 C 0.07448 0.9389 0.68944 0.0
C461 C 0.06434 0.91864 0.6811 0.0
C462 C 0.07052 0.91307 0.66418 0.0
C463 C 0.08707 0.92752 0.65531 0.0
C464 C 0.09698 0.9479 0.66362 0.0
C465 C 0.09065 0.95355 0.68051 0.0
C466 C 0.07409 0.92504 0.71863 0.0
C467 C 0.09843 0.91988 0.72256 0.0
C468 C 0.10484 0.89831 0.73036 0.0
C469 C 0.08694 0.88137 0.7346 0.0
C470 C 0.06236 0.88733 0.7318 0.0
C471 C 0.05598 0.90881 0.72381 0.0
C472 C 0.0475 0.95888 0.7095 0.0
C473 C 0.02462 0.95116 0.7034 0.0
C474 C 0.00483 0.96688 0.70337 0.0
C475 C 0.00746 0.99087 0.70906 0.0
C476 C 0.0301 -0.00174 0.71579 0.0
C477 C 0.04985 0.98239 0.71601 0.0
C478 C 0.92315 0.06441 0.68204 0.0
C479 C 0.89965 0.06126 0.67534 0.0
C480 C 0.89389 0.06917 0.6589 0.0
C481 C 0.91153 0.0807 0.64896 0.0
C482 C 0.93521 0.08345 0.65553 0.0
C483 C 0.94104 0.07522 0.67185 0.0
C484 C 0.92598 0.07888 0.71057 0.0
C485 C 0.94331 0.0975 0.71027 0.0
C486 C 0.93827 0.11983 0.71787 0.0
C487 C 0.91594 0.124 0.72617 0.0
C488 C 0.89945 0.10474 0.72749 0.0
C489 C 0.90438 0.08253 0.71966 0.0
C490 C 0.94899 0.04217 0.7019 0.0
C491 C 0.95322 0.02335 0.69 0.0
C492 C 0.97218 0.00707 0.69228 0.0
C493 C 0.98714 0.00837 0.7069 0.0
C494 C 0.98259 0.02653 0.71919 0.0
C495 C 0.96362 0.04302 0.71684 0.0
C496 C 0.38479 0.64426 0.02907 0.0
O497 O 0.40347 0.64631 0.01971 0.0
Cd498 Cd 0.40302 0.65886 0.99053 0.0
O499 O 0.36368 0.64913 0.0232 0.0
Cd500 Cd 0.34511 0.66306 0.99578 0.0
C501 C 0.37812 0.71514 0.99591 0.0
O502 O 0.37021 0.6369 0.97767 0.0
O503 O 0.34658 0.66124 0.96434 0.0
O504 O 0.31062 0.6381 0.00461 0.0
C505 C 0.36187 0.64427 0.96354 0.0
O506 O 0.39626 0.70212 0.9918 0.0
C507 C 0.29435 0.65247 -0.00059 0.0
O508 O 0.35755 0.7056 -0.00094 0.0
O509 O 0.30164 0.67207 0.99304 0.0
C510 C 0.39659 0.8744 0.21992 0.0
O511 O 0.4149 0.87204 0.22972 0.0
Cd512 Cd 0.4138 0.85523 0.25761 0.0
O513 O 0.37541 0.86827 0.22488 0.0
Cd514 Cd 0.35623 0.85226 0.25149 0.0
C515 C 0.38806 0.79977 0.24902 0.0
O516 O 0.38106 0.87532 0.27164 0.0
O517 O 0.35931 0.84742 0.28281 0.0
O518 O 0.32279 0.88103 0.25044 0.0
C519 C 0.37349 0.86521 0.28502 0.0
O520 O 0.4066 0.81224 0.25334 0.0
C521 C 0.30589 0.86562 0.24885 0.0
O522 O 0.36743 0.80974 0.24682 0.0
O523 O 0.31228 0.84369 0.24802 0.0
C524 C 0.13629 0.89531 0.47234 0.0
O525 O 0.13814 0.91361 0.48216 0.0
Cd526 Cd 0.15221 0.912 0.51102 0.0
O527 O 0.14147 0.87437 0.47775 0.0
Cd528 Cd 0.15547 0.8549 0.50482 0.0
C529 C 0.20834 0.88627 0.50353 0.0
O530 O 0.13072 0.87966 0.52411 0.0
O531 O 0.15753 0.85717 0.53614 0.0
O532 O 0.12723 0.82312 0.49587 0.0
C533 C 0.13993 0.87168 0.53781 0.0
O534 O 0.19551 0.90454 0.50744 0.0
C535 C 0.14072 0.8057 0.50016 0.0
O536 O 0.19869 0.86561 0.50124 0.0
O537 O 0.16155 0.81101 0.50623 0.0
C538 C 0.1284 0.62175 0.78142 0.0
O539 O 0.12838 0.60408 0.77097 0.0
Cd540 Cd 0.14472 0.60557 0.74289 0.0
O541 O 0.13655 0.64221 0.77693 0.0
Cd542 Cd 0.15254 0.66096 0.75012 0.0
C543 C 0.20301 0.6259 0.75133 0.0
O544 O 0.12551 0.63958 0.73032 0.0
O545 O 0.1552 0.65829 0.71852 0.0
O546 O 0.1256 0.69455 0.75669 0.0
C547 C 0.13546 0.64671 0.71673 0.0
O548 O 0.18879 0.60895 0.74663 0.0
C549 C 0.1411 0.71109 0.75447 0.0
O550 O 0.19476 0.64698 0.75423 0.0
O551 O 0.16257 0.70442 0.75078 0.0
C552 C 0.86834 0.12285 0.46909 0.0
O553 O 0.86556 0.10492 0.47879 0.0
Cd554 Cd 0.8506 0.10692 0.50738 0.0
O555 O 0.86331 0.14407 0.47443 0.0
Cd556 Cd 0.84839 0.16421 0.50133 0.0
C557 C 0.7949 0.13318 0.49967 0.0
O558 O 0.87263 0.13928 0.52039 0.0
O559 O 0.84782 0.1635 0.53296 0.0
O560 O 0.87605 0.19638 0.49281 0.0
C561 C 0.86439 0.14783 0.53428 0.0
O562 O 0.80737 0.11503 0.50415 0.0
C563 C 0.86231 0.21358 0.49741 0.0
O564 O 0.80515 0.15335 0.49696 0.0
O565 O 0.84164 0.20791 0.50333 0.0
C566 C 0.89195 0.37117 0.72235 0.0
O567 O 0.90883 0.36816 0.73326 0.0
Cd568 Cd 0.90387 0.35392 0.76171 0.0
O569 O 0.8699 0.36653 0.72616 0.0
Cd570 Cd 0.84801 0.35134 0.75196 0.0
C571 C 0.87917 0.29855 0.75272 0.0
O572 O 0.87005 0.3751 0.7733 0.0
O573 O 0.84923 0.34573 0.78336 0.0
O574 O 0.81456 0.37994 0.7497 0.0
C575 C 0.86179 0.3645 0.78627 0.0
O576 O 0.89656 0.31074 0.75929 0.0
C577 C 0.7978 0.36447 0.74772 0.0
O578 O 0.85981 0.30887 0.74756 0.0
O579 O 0.80429 0.34257 0.74704 0.0
C580 C 0.62133 0.39021 0.96982 0.0
O581 O 0.62164 0.40835 0.97987 0.0
Cd582 Cd 0.63837 0.40841 0.00814 0.0
O583 O 0.62913 0.36986 0.97484 0.0
Cd584 Cd 0.64549 0.35175 0.00176 0.0
C585 C 0.69611 0.38685 -2e-05 0.0
O586 O 0.62081 0.37471 0.02205 0.0
O587 O 0.65021 0.35434 0.03302 0.0
O588 O 0.61814 0.31742 -0.00166 0.0
C589 C 0.63173 0.36756 0.03537 0.0
O590 O 0.68215 0.40423 0.00409 0.0
C591 C 0.63457 0.30143 -0.00178 0.0
O592 O 0.68768 0.36566 -0.00225 0.0
O593 O 0.65643 0.30879 -0.00073 0.0
C594 C 0.63925 0.12459 0.27437 0.0
O595 O 0.63912 0.10721 0.26366 0.0
Cd596 Cd 0.65664 0.10994 0.23577 0.0
O597 O 0.64757 0.14509 0.27022 0.0
Cd598 Cd 0.66367 0.16515 0.24424 0.0
C599 C 0.71431 0.13098 0.24573 0.0
O600 O 0.63871 0.14422 0.22283 0.0
O601 O 0.66982 0.16304 0.21301 0.0
O602 O 0.63505 0.19714 0.25086 0.0
C603 C 0.6504 0.15141 0.20995 0.0
O604 O 0.70068 0.11435 0.23967 0.0
C605 C 0.64987 0.21446 0.24943 0.0
O606 O 0.70548 0.15143 0.24988 0.0
O607 O 0.67178 0.20898 0.24601 0.0
H608 H 0.14982 0.86613 0.26238 0.0
H609 H 0.16823 0.94166 0.26098 0.0
H610 H 0.19143 0.85584 0.25581 0.0
H611 H 0.20922 0.93139 0.25246 0.0
H612 H 0.28698 0.90707 0.26181 0.0
H613 H 0.24457 0.91819 0.26439 0.0
H614 H 0.22377 0.85251 0.23774 0.0
H615 H 0.26644 0.84073 0.23635 0.0
C616 C 0.16262 0.88064 0.26048 0.0
C617 C 0.15552 0.9048 0.2627 0.0
C618 C 0.18659 0.87468 0.25633 0.0
C619 C 0.20414 0.89271 0.25381 0.0
C620 C 0.19659 0.91689 0.25481 0.0
C621 C 0.17275 0.92284 0.25938 0.0
C622 C 0.27333 0.89508 0.25642 0.0
C623 C 0.28002 0.87297 0.24897 0.0
C624 C 0.24887 0.90155 0.25775 0.0
C625 C 0.23037 0.88635 0.25127 0.0
C626 C 0.23726 0.86454 0.24325 0.0
C627 C 0.26177 0.8578 0.24231 0.0
H628 H 0.1068 0.65435 0.51764 0.0
H629 H 0.03885 0.69048 0.50743 0.0
H630 H 0.12898 0.68984 0.50875 0.0
H631 H 0.06085 0.72651 0.49993 0.0
H632 H 0.10349 0.78778 0.48059 0.0
H633 H 0.08544 0.74784 0.48167 0.0
H634 H 0.13848 0.72768 0.51998 0.0
H635 H 0.15726 0.76716 0.51805 0.0
C636 C 0.09654 0.66971 0.51328 0.0
C637 C 0.07095 0.66954 0.51349 0.0
C638 C 0.10931 0.6903 0.50844 0.0
C639 C 0.09684 0.71138 0.50387 0.0
C640 C 0.07126 0.71072 0.50322 0.0
C641 C 0.05853 0.69005 0.5078 0.0
C642 C 0.11151 0.77462 0.48901 0.0
C643 C 0.13167 0.78064 0.49933 0.0
C644 C 0.10104 0.75174 0.48976 0.0
C645 C 0.11015 0.73445 0.50113 0.0
C646 C 0.13103 0.74025 0.5109 0.0
C647 C 0.14178 0.763 0.50989 0.0
H648 H 0.35501 0.62442 0.78355 0.0
H649 H 0.34726 0.56011 0.75248 0.0
H650 H 0.31294 0.63508 0.77756 0.0
H651 H 0.30536 0.57115 0.7458 0.0
H652 H 0.22439 0.58192 0.75401 0.0
H653 H 0.26704 0.57272 0.75841 0.0
H654 H 0.28419 0.64857 0.75762 0.0
H655 H 0.2411 0.6578 0.754 0.0
C656 C 0.3444 0.61281 0.77513 0.0
C657 C 0.35441 0.59142 0.76849 0.0
C658 C 0.32024 0.61895 0.77163 0.0
C659 C 0.30551 0.60398 0.76123 0.0
C660 C 0.31586 0.5829 0.75418 0.0
C661 C 0.33994 0.5766 0.75789 0.0
C662 C 0.23724 0.59668 0.75474 0.0
C663 C 0.22928 0.62062 0.75367 0.0
C664 C 0.26184 0.59137 0.75713 0.0
C665 C 0.2793 0.60984 0.75829 0.0
C666 C 0.27133 0.63384 0.75706 0.0
C667 C 0.2466 0.63917 0.75489 0.0
H668 H 0.43043 0.86338 0.99213 0.0
H669 H 0.37956 0.86192 0.03403 0.0
H670 H 0.41958 0.82202 0.98451 0.0
H671 H 0.36902 0.82055 0.02667 0.0
H672 H 0.34382 0.74973 0.0032 0.0
H673 H 0.35025 0.793 0.0067 0.0
H674 H 0.42672 0.78332 0.99621 0.0
H675 H 0.42023 0.7405 0.99224 0.0
C676 C 0.41684 0.85426 -0.00035 0.0
C677 C 0.40591 0.86592 0.0137 0.0
C678 C 0.41067 0.83052 0.99534 0.0
C679 C 0.39357 0.81781 0.00506 0.0
C680 C 0.38201 0.82982 0.01873 0.0
C681 C 0.38807 0.85358 0.02297 0.0
C682 C 0.36196 0.75689 0.00152 0.0
C683 C 0.38149 0.74158 -0.00252 0.0
C684 C 0.36568 0.78169 0.0036 0.0
C685 C 0.38902 0.79172 0.00173 0.0
C686 C 0.40842 0.77639 -0.00256 0.0
C687 C 0.4047 0.7517 0.99531 0.0
H688 H 0.13859 0.64019 0.98109 0.0
H689 H 0.1608 0.56977 -0.00195 0.0
H690 H 0.17824 0.65586 0.98822 0.0
H691 H 0.20151 0.58493 0.0032 0.0
H692 H 0.27173 0.61977 0.01978 0.0
H693 H 0.22922 0.60727 0.01873 0.0
H694 H 0.21642 0.65661 0.97726 0.0
H695 H 0.25827 0.6701 0.97928 0.0
C696 C 0.15174 0.62794 0.98647 0.0
C697 C 0.14612 0.60349 0.98884 0.0
C698 C 0.17491 0.63693 0.99021 0.0
C699 C 0.19356 0.62168 0.99594 0.0
C700 C 0.18778 0.59742 -0.0011 0.0
C701 C 0.16436 0.58854 0.9956 0.0
C702 C 0.25963 0.62813 0.01064 0.0
C703 C 0.26828 0.64595 -0.00035 0.0
C704 C 0.23526 0.62082 0.0099 0.0
C705 C 0.2191 0.63075 -0.00215 0.0
C706 C 0.2279 0.64883 0.98702 0.0
C707 C 0.25206 0.65652 0.98806 0.0
H708 H 0.37472 0.65032 0.21562 0.0
H709 H 0.44073 0.65176 0.24573 0.0
H710 H 0.36792 0.69265 0.22228 0.0
H711 H 0.43358 0.69395 0.25303 0.0
H712 H 0.43028 0.77467 0.24518 0.0
H713 H 0.43541 0.7318 0.24041 0.0
H714 H 0.3575 0.72201 0.2429 0.0
H715 H 0.35235 0.76529 0.24693 0.0
C716 C 0.38751 0.65961 0.22399 0.0
C717 C 0.40828 0.64776 0.23014 0.0
C718 C 0.3836 0.68391 0.22786 0.0
C719 C 0.40024 0.69692 0.23814 0.0
C720 C 0.42062 0.68475 0.24476 0.0
C721 C 0.42469 0.66052 0.24068 0.0
C722 C 0.41421 0.7634 0.24474 0.0
C723 C 0.39089 0.77346 0.2464 0.0
C724 C 0.41717 0.73869 0.24214 0.0
C725 C 0.39691 0.72324 0.24135 0.0
C726 C 0.37354 0.73331 0.24318 0.0
C727 C 0.37056 0.75814 0.24557 0.0
H728 H 0.34859 0.95164 0.4866 0.0
H729 H 0.36607 0.8762 0.49161 0.0
H730 H 0.30706 0.94328 0.49388 0.0
H731 H 0.32366 0.86742 0.49652 0.0
H732 H 0.246 0.85889 0.51538 0.0
H733 H 0.28947 0.86725 0.51278 0.0
H734 H 0.27259 0.92914 0.48183 0.0
H735 H 0.2296 0.92176 0.48586 0.0
C736 C 0.34381 0.93322 0.4893 0.0
C737 C 0.36111 0.91464 0.48822 0.0
C738 C 0.31953 0.92828 0.49307 0.0
C739 C 0.31145 0.9045 0.49528 0.0
C740 C 0.32889 0.886 0.49491 0.0
C741 C 0.35338 0.89104 0.49171 0.0
C742 C 0.25182 0.87425 0.50807 0.0
C743 C 0.2346 0.88978 0.5009 0.0
C744 C 0.27674 0.87906 0.50648 0.0
C745 C 0.28492 0.89913 0.49724 0.0
C746 C 0.26736 0.91405 0.4896 0.0
C747 C 0.24259 0.90968 0.49167 0.0
H748 H 0.06541 0.83838 0.72612 0.0
H749 H 0.12491 0.86851 0.75584 0.0
H750 H 0.07857 0.79818 0.73348 0.0
H751 H 0.13844 0.82795 0.76282 0.0
H752 H 0.16961 0.75086 0.74924 0.0
H753 H 0.15618 0.7926 0.74676 0.0
H754 H 0.08265 0.77098 0.75814 0.0
H755 H 0.09594 0.7294 0.76051 0.0
C756 C 0.08102 0.83653 0.73452 0.0
C757 C 0.094 0.85686 0.74041 0.0
C758 C 0.08864 0.81339 0.73867 0.0
C759 C 0.10956 0.80985 0.74873 0.0
C760 C 0.12239 0.83009 0.75489 0.0
C761 C 0.11463 0.85333 0.75085 0.0
C762 C 0.15065 0.75508 0.75144 0.0
C763 C 0.13383 0.73677 0.75493 0.0
C764 C 0.14297 0.779 0.75009 0.0
C765 C 0.1183 0.78505 0.7521 0.0
C766 C 0.10171 0.76685 0.75627 0.0
C767 C 0.10938 0.74303 0.75771 0.0
H768 H 0.65982 0.43907 0.76102 0.0
H769 H 0.64063 0.3638 0.75644 0.0
H770 H 0.70104 0.42959 0.75305 0.0
H771 H 0.68256 0.354 0.75072 0.0
H772 H 0.75901 0.34061 0.7332 0.0
H773 H 0.71625 0.35216 0.73417 0.0
H774 H 0.73569 0.41522 0.76443 0.0
H775 H 0.77818 0.40454 0.76212 0.0
C776 C 0.66418 0.42047 0.75826 0.0
C777 C 0.64653 0.40226 0.7597 0.0
C778 C 0.68823 0.4149 0.75404 0.0
C779 C 0.6957 0.39087 0.75165 0.0
C780 C 0.67785 0.37276 0.75237 0.0
C781 C 0.65362 0.3784 0.75607 0.0
C782 C 0.75401 0.3571 0.73983 0.0
C783 C 0.77191 0.3717 0.74753 0.0
C784 C 0.72942 0.36368 0.74056 0.0
C785 C 0.72208 0.3847 0.74946 0.0
C786 C 0.74027 0.39928 0.75704 0.0
C787 C 0.76481 0.39304 0.75587 0.0
H788 H 0.63486 0.15025 0.02117 0.0
H789 H 0.56387 0.16009 -0.00144 0.0
H790 H 0.64531 0.1916 0.01484 0.0
H791 H 0.57455 0.20142 0.99152 0.0
H792 H 0.59 0.28118 0.00284 0.0
H793 H 0.58005 0.2388 0.00507 0.0
H794 H 0.65492 0.22043 0.99445 0.0
H795 H 0.66502 0.26307 0.99306 0.0
C796 C 0.62168 0.16114 0.01444 0.0
C797 C 0.59854 0.15192 0.01035 0.0
C798 C 0.62769 0.18491 0.01074 0.0
C799 C 0.61081 0.20006 0.00267 0.0
C800 C 0.5879 0.19051 -0.00195 0.0
C801 C 0.58177 0.16678 0.00198 0.0
C802 C 0.60431 0.26808 0.00085 0.0
C803 C 0.62834 0.2755 -0.00211 0.0
C804 C 0.59856 0.24368 0.002 0.0
C805 C 0.61665 0.22599 2e-05 0.0
C806 C 0.64056 0.23346 0.99642 0.0
C807 C 0.64636 0.25792 0.99549 0.0
H808 H 0.8701 0.13181 0.26973 0.0
H809 H 0.85027 0.05701 0.26326 0.0
H810 H 0.82927 0.14361 0.26132 0.0
H811 H 0.809 0.06875 0.25612 0.0
H812 H 0.74112 0.09544 0.23066 0.0
H813 H 0.78366 0.08576 0.23549 0.0
H814 H 0.78928 0.14482 0.27191 0.0
H815 H 0.74689 0.15513 0.26641 0.0
C816 C 0.85714 0.11783 0.26638 0.0
C817 C 0.86363 0.0934 0.26721 0.0
C818 C 0.83351 0.12463 0.26184 0.0
C819 C 0.81562 0.10719 0.25815 0.0
C820 C 0.82225 0.08277 0.25866 0.0
C821 C 0.84593 0.07599 0.26302 0.0
C822 C 0.75148 0.10645 0.23963 0.0
C823 C 0.74056 0.12599 0.24822 0.0
C824 C 0.77589 0.1008 0.2425 0.0
C825 C 0.79001 0.11431 0.25424 0.0
C826 C 0.77917 0.13416 0.2626 0.0
C827 C 0.75478 0.14003 0.25954 0.0
H828 H 0.96195 0.33082 0.50792 0.0
H829 H 0.89336 0.36522 0.51923 0.0
H830 H 0.94068 0.29443 0.49947 0.0
H831 H 0.87187 0.32942 0.50931 0.0
H832 H 0.84515 0.25158 0.51616 0.0
H833 H 0.86318 0.29132 0.51926 0.0
H834 H 0.91645 0.27265 0.48074 0.0
H835 H 0.89917 0.23238 0.47852 0.0
C836 C 0.94228 0.33079 0.50836 0.0
C837 C 0.9295 0.35092 0.51463 0.0
C838 C 0.92996 0.30991 0.5032 0.0
C839 C 0.9044 0.30867 0.50383 0.0
C840 C 0.89154 0.32938 0.50901 0.0
C841 C 0.90392 0.35017 0.51445 0.0
C842 C 0.86052 0.25611 0.5082 0.0
C843 C 0.87091 0.23879 0.49724 0.0
C844 C 0.87083 0.27903 0.50989 0.0
C845 C 0.89156 0.28535 0.5004 0.0
C846 C 0.90096 0.26837 0.48863 0.0
C847 C 0.89093 0.2453 0.48722 0.0
H848 H 0.64599 0.13968 0.46199 0.0
H849 H 0.64572 0.07997 0.49666 0.0
H850 H 0.688 0.14863 0.4699 0.0
H851 H 0.68744 0.08937 0.50516 0.0
H852 H 0.76935 0.09125 0.49835 0.0
H853 H 0.72628 0.08552 0.49326 0.0
H854 H 0.7165 0.1625 0.49071 0.0
H855 H 0.76018 0.1682 0.49516 0.0
C856 C 0.65479 0.12881 0.47162 0.0
C857 C 0.64268 0.10903 0.47864 0.0
C858 C 0.67888 0.13397 0.47621 0.0
C859 C 0.69133 0.1196 0.48806 0.0
C860 C 0.67871 0.10048 0.49567 0.0
C861 C 0.65475 0.09514 0.4909 0.0
C862 C 0.75807 0.10703 0.49679 0.0
C863 C 0.76829 0.13021 0.49715 0.0
C864 C 0.73321 0.10373 0.494 0.0
C865 C 0.71772 0.12352 0.49169 0.0
C866 C 0.72788 0.14679 0.49224 0.0
C867 C 0.75291 0.15009 0.49487 0.0
H868 H 0.94571 0.15887 0.74035 0.0
H869 H 0.87095 0.14548 0.72565 0.0
H870 H 0.93558 0.20027 0.74729 0.0
H871 H 0.86041 0.1863 0.73399 0.0
H872 H 0.85604 0.26838 0.72987 0.0
H873 H 0.86408 0.22582 0.72469 0.0
H874 H 0.91644 0.22652 0.76624 0.0
H875 H 0.90927 0.26925 0.77072 0.0
C876 C 0.92705 0.16462 0.73874 0.0
C877 C 0.90925 0.14868 0.73229 0.0
C878 C 0.92111 0.18839 0.74301 0.0
C879 C 0.89711 0.19685 0.7412 0.0
C880 C 0.87916 0.18068 0.73529 0.0
C881 C 0.88517 0.157 0.73078 0.0
C882 C 0.86913 0.25935 0.73795 0.0
C883 C 0.88217 0.27222 0.75059 0.0
C884 C 0.87369 0.23487 0.73506 0.0
C885 C 0.8911 0.22258 0.74495 0.0
C886 C 0.90338 0.23538 0.75805 0.0
C887 C 0.89914 0.2599 0.76072 0.0
H888 H 0.83862 0.45481 0.99442 0.0
H889 H 0.85057 0.38308 0.97464 0.0
H890 H 0.79673 0.44435 0.00124 0.0
H891 H 0.80832 0.37281 0.98037 0.0
H892 H 0.73437 0.35547 0.00264 0.0
H893 H 0.7776 0.36444 -0.00038 0.0
H894 H 0.75982 0.43818 0.98791 0.0
H895 H 0.71707 0.42945 0.99195 0.0
C896 C 0.83218 0.43677 0.99157 0.0
C897 C 0.84773 0.41973 0.98407 0.0
C898 C 0.8081 0.43078 0.99528 0.0
C899 C 0.7988 0.40776 0.99115 0.0
C900 C 0.81472 0.39057 0.98399 0.0
C901 C 0.83895 0.39645 0.98063 0.0
C902 C 0.73982 0.37358 -0.00054 0.0
C903 C 0.72234 0.39177 -0.00239 0.0
C904 C 0.76461 0.37875 -0.00235 0.0
C905 C 0.77246 0.40213 0.9936 0.0
C906 C 0.75476 0.42014 0.9915 0.0
C907 C 0.73012 0.41508 0.99366 0.0
H908 H 0.56643 0.3384 0.22502 0.0
H909 H 0.62587 0.37089 0.25351 0.0
H910 H 0.58196 0.29878 0.23159 0.0
H911 H 0.64174 0.33089 0.25977 0.0
H912 H 0.67615 0.25581 0.24454 0.0
H913 H 0.6605 0.29691 0.24313 0.0
H914 H 0.58867 0.27115 0.25545 0.0
H915 H 0.60415 0.23024 0.25668 0.0
C916 C 0.58252 0.33716 0.23302 0.0
C917 C 0.59479 0.35799 0.23877 0.0
C918 C 0.59151 0.31435 0.23672 0.0
C919 C 0.61311 0.31166 0.2462 0.0
C920 C 0.6252 0.33239 0.25227 0.0
C921 C 0.61608 0.35529 0.24867 0.0
C922 C 0.65709 0.25899 0.24717 0.0
C923 C 0.64136 0.23972 0.25055 0.0
C924 C 0.64815 0.28254 0.24643 0.0
C925 C 0.62328 0.28725 0.24901 0.0
C926 C 0.60783 0.26808 0.25313 0.0
C927 C 0.61675 0.24463 0.25391 0.0
H928 H 0.05529 0.90978 0.37726 0.0
H929 H 0.13001 0.92532 0.36415 0.0
H930 H 0.06805 0.90136 0.40658 0.0
H931 H 0.14216 0.91835 0.39369 0.0
H932 H 0.14107 0.93552 0.45325 0.0
H933 H 0.12839 0.94133 0.42356 0.0
H934 H 0.10063 0.8688 0.42124 0.0
H935 H 0.11392 0.86261 0.45094 0.0
C936 C 0.07439 0.91131 0.38051 0.0
C937 C 0.09155 0.9184 0.36821 0.0
C938 C 0.08161 0.90658 0.39733 0.0
C939 C 0.10602 0.9093 0.40229 0.0
C940 C 0.12318 0.91635 0.39014 0.0
C941 C 0.1161 0.92058 0.37326 0.0
C942 C 0.13227 0.92079 0.44643 0.0
C943 C 0.12848 0.8986 0.45439 0.0
C944 C 0.12513 0.92411 0.42945 0.0
C945 C 0.11356 0.90551 0.42023 0.0
C946 C 0.10946 0.8834 0.42818 0.0
C947 C 0.11714 0.87986 0.44508 0.0
H948 H 0.05334 0.58302 0.63191 0.0
H949 H 0.095 0.63955 0.60871 0.0
H950 H 0.07222 0.59228 0.65956 0.0
H951 H 0.11315 0.64968 0.63642 0.0
H952 H 0.15778 0.64869 0.68555 0.0
H953 H 0.14066 0.63756 0.65765 0.0
H954 H 0.07216 0.62087 0.68175 0.0
H955 H 0.08972 0.63082 0.70958 0.0
C956 C 0.06642 0.59757 0.6328 0.0
C957 C 0.07275 0.61056 0.61822 0.0
C958 C 0.07717 0.603 0.64865 0.0
C959 C 0.09419 0.62185 0.65033 0.0
C960 C 0.1005 0.63478 0.63564 0.0
C961 C 0.09002 0.62908 0.61975 0.0
C962 C 0.13909 0.64258 0.68483 0.0
C963 C 0.12512 0.64054 0.69973 0.0
C964 C 0.12919 0.63633 0.66883 0.0
C965 C 0.10497 0.62823 0.66736 0.0
C966 C 0.091 0.62648 0.68234 0.0
C967 C 0.10101 0.63238 0.69832 0.0
H968 H 0.45058 0.60867 0.87541 0.0
H969 H 0.37935 0.58185 0.86152 0.0
H970 H 0.43504 0.6216 0.90339 0.0
H971 H 0.36382 0.59482 0.88946 0.0
H972 H 0.34203 0.65069 0.93184 0.0
H973 H 0.35742 0.63579 0.90436 0.0
H974 H 0.41753 0.60191 0.93032 0.0
H975 H 0.40207 0.6166 0.95785 0.0
C976 C 0.43163 0.60553 0.87838 0.0
C977 C 0.41616 0.59426 0.86634 0.0
C978 C 0.42279 0.61277 0.89439 0.0
C979 C 0.39824 0.60922 0.89854 0.0
C980 C 0.38279 0.59789 0.88653 0.0
C981 C 0.39171 0.59033 0.87062 0.0
C982 C 0.35848 0.63999 0.93168 0.0
C983 C 0.37085 0.63481 0.94698 0.0
C984 C 0.3672 0.63138 0.91598 0.0
C985 C 0.38865 0.61773 0.91525 0.0
C986 C 0.40103 0.61254 0.93054 0.0
C987 C 0.39212 0.62084 0.94627 0.0
H988 H 0.45872 0.91112 0.12221 0.0
H989 H 0.3851 0.93762 0.11813 0.0
H990 H 0.45042 0.89729 0.15096 0.0
H991 H 0.37721 0.92501 0.14736 0.0
H992 H 0.36438 0.87475 0.19293 0.0
H993 H 0.37149 0.8895 0.16407 0.0
H994 H 0.44384 0.91194 0.17921 0.0
H995 H 0.43705 0.89654 0.20771 0.0
C996 C 0.44076 0.91407 0.12746 0.0
C997 C 0.42256 0.92542 0.11779 0.0
C998 C 0.43609 0.90642 0.14407 0.0
C999 C 0.41315 0.91009 0.15155 0.0
C1000 C 0.39499 0.92164 0.14195 0.0
C1001 C 0.39963 0.92919 0.12527 0.0
C1002 C 0.38177 0.88289 0.19008 0.0
C1003 C 0.4002 0.88428 0.20259 0.0
C1004 C 0.38581 0.89147 0.17356 0.0
C1005 C 0.40832 0.90178 0.16925 0.0
C1006 C 0.42649 0.90365 0.18193 0.0
C1007 C 0.42253 0.89491 0.19834 0.0
H1008 H 0.07347 0.63183 0.88666 0.0
H1009 H 0.08972 0.5569 0.87701 0.0
H1010 H 0.08448 0.64107 0.8572 0.0
H1011 H 0.10196 0.56626 0.84808 0.0
H1012 H 0.13379 0.65116 0.80977 0.0
H1013 H 0.1195 0.64373 0.83882 0.0
H1014 H 0.08594 0.57751 0.82122 0.0
H1015 H 0.10087 0.58447 0.79254 0.0
C1016 C 0.07928 0.61732 0.87825 0.0
C1017 C 0.08077 0.59363 0.88424 0.0
C1018 C 0.0859 0.62267 0.86143 0.0
C1019 C 0.09415 0.60444 0.85023 0.0
C1020 C 0.09538 0.58074 0.85622 0.0
C1021 C 0.08866 0.5754 0.87294 0.0
C1022 C 0.1233 0.63507 0.81214 0.0
C1023 C 0.11873 0.61827 0.79889 0.0
C1024 C 0.11497 0.63087 0.82876 0.0
C1025 C 0.10175 0.60989 0.83243 0.0
C1026 C 0.09655 0.59356 0.819 0.0
C1027 C 0.10505 0.59762 0.80249 0.0
H1028 H 0.43053 0.61973 0.13412 0.0
H1029 H 0.37901 0.56276 0.12314 0.0
H1030 H 0.42365 0.6359 0.10568 0.0
H1031 H 0.37184 0.57929 0.09475 0.0
H1032 H 0.34916 0.63082 0.0515 0.0
H1033 H 0.35448 0.61577 0.08057 0.0
H1034 H 0.43232 0.62308 0.07578 0.0
H1035 H 0.42711 0.63819 0.0469 0.0
C1036 C 0.41786 0.61053 0.12562 0.0
C1037 C 0.40549 0.5898 0.1309 0.0
C1038 C 0.41386 0.61988 0.10934 0.0
C1039 C 0.39727 0.60882 0.09797 0.0
C1040 C 0.38454 0.58835 0.10331 0.0
C1041 C 0.38866 0.5789 0.11958 0.0
C1042 C 0.3674 0.62931 0.05668 0.0
C1043 C 0.38771 0.63571 0.04686 0.0
C1044 C 0.37044 0.62056 0.07328 0.0
C1045 C 0.39382 0.61827 0.08044 0.0
C1046 C 0.41406 0.6249 0.07068 0.0
C1047 C 0.41106 0.63343 0.05408 0.0
H1048 H 0.4335 0.87358 0.3884 0.0
H1049 H 0.41337 0.94652 0.37654 0.0
H1050 H 0.41968 0.8603 0.35999 0.0
H1051 H 0.39917 0.9332 0.34828 0.0
H1052 H 0.40158 0.90415 0.29305 0.0
H1053 H 0.41644 0.91688 0.32121 0.0
H1054 H 0.38018 0.85642 0.34402 0.0
H1055 H 0.36536 0.84353 0.31575 0.0
C1056 C 0.4263 0.88678 0.37966 0.0
C1057 C 0.42455 0.91109 0.38466 0.0
C1058 C 0.41815 0.87915 0.36349 0.0
C1059 C 0.40829 0.8957 0.35194 0.0
C1060 C 0.40685 0.92006 0.35686 0.0
C1061 C 0.41481 0.92765 0.37307 0.0
C1062 C 0.39676 0.89354 0.30406 0.0
C1063 C 0.38228 0.87283 0.30219 0.0
C1064 C 0.40519 0.90091 0.32019 0.0
C1065 C 0.39946 0.88766 0.33481 0.0
C1066 C 0.38508 0.86686 0.33295 0.0
C1067 C 0.37648 0.85956 0.31679 0.0
H1068 H 0.13297 0.92717 0.64216 0.0
H1069 H 0.05809 0.91248 0.62866 0.0
H1070 H 0.14556 0.91449 0.61349 0.0
H1071 H 0.07075 0.89932 0.60008 0.0
H1072 H 0.10162 0.90123 0.54525 0.0
H1073 H 0.08874 0.91579 0.57344 0.0
H1074 H 0.14709 0.87599 0.59702 0.0
H1075 H 0.16007 0.86156 0.56889 0.0
C1076 C 0.11919 0.92142 0.63301 0.0
C1077 C 0.09455 0.9208 0.63765 0.0
C1078 C 0.12642 0.91393 0.61667 0.0
C1079 C 0.10915 0.90581 0.60458 0.0
C1080 C 0.08445 0.90563 0.6091 0.0
C1081 C 0.07723 0.91297 0.62549 0.0
C1082 C 0.11169 0.89559 0.55646 0.0
C1083 C 0.13187 0.88026 0.55486 0.0
C1084 C 0.10425 0.90385 0.57259 0.0
C1085 C 0.11695 0.89708 0.58743 0.0
C1086 C 0.13713 0.88176 0.5858 0.0
C1087 C 0.14446 0.87337 0.5697 0.0
H1088 H 0.56583 0.37543 0.8648 0.0
H1089 H 0.5918 0.44852 0.86991 0.0
H1090 H 0.57597 0.36848 0.89478 0.0
H1091 H 0.60302 0.44124 0.89954 0.0
H1092 H 0.62372 0.35784 0.94301 0.0
H1093 H 0.61094 0.36391 0.9134 0.0
H1094 H 0.58518 0.43498 0.92698 0.0
H1095 H 0.5985 0.42921 0.95635 0.0
C1096 C 0.57361 0.39005 0.87232 0.0
C1097 C 0.57798 0.41255 0.86493 0.0
C1098 C 0.57971 0.38596 0.88946 0.0
C1099 C 0.59033 0.40428 0.89959 0.0
C1100 C 0.59458 0.4268 0.8922 0.0
C1101 C 0.58843 0.4309 0.87512 0.0
C1102 C 0.61523 0.37471 0.93968 0.0
C1103 C 0.61231 0.39309 0.95204 0.0
C1104 C 0.60779 0.37816 0.92272 0.0
C1105 C 0.59718 0.40002 0.91776 0.0
C1106 C 0.59373 0.41812 0.93025 0.0
C1107 C 0.60126 0.41473 0.94714 0.0
H1108 H 0.58093 0.12608 0.11094 0.0
H1109 H 0.63983 0.07468 0.11345 0.0
H1110 H 0.59251 0.14183 0.13912 0.0
H1111 H 0.65203 0.09153 0.14119 0.0
H1112 H 0.67905 0.1491 0.18148 0.0
H1113 H 0.66753 0.13449 0.15281 0.0
H1114 H 0.59422 0.12245 0.17019 0.0
H1115 H 0.60577 0.13653 0.19893 0.0
C1116 C 0.59624 0.11801 0.11745 0.0
C1117 C 0.60932 0.09894 0.10984 0.0
C1118 C 0.60295 0.12722 0.13354 0.0
C1119 C 0.62317 0.11792 0.14222 0.0
C1120 C 0.63652 0.09917 0.13462 0.0
C1121 C 0.62955 0.08963 0.11868 0.0
C1122 C 0.66046 0.14345 0.17914 0.0
C1123 C 0.6433 0.14389 0.19242 0.0
C1124 C 0.65393 0.135 0.1628 0.0
C1125 C 0.63002 0.12737 0.15937 0.0
C1126 C 0.61274 0.12836 0.17252 0.0
C1127 C 0.61937 0.13632 0.18894 0.0
H1128 H 0.89573 0.06863 0.36631 0.0
H1129 H 0.95025 0.12386 0.37375 0.0
H1130 H 0.87953 0.07747 0.39464 0.0
H1131 H 0.93378 0.13287 0.40213 0.0
H1132 H 0.88102 0.15657 0.44532 0.0
H1133 H 0.89673 0.14931 0.41645 0.0
H1134 H 0.89286 0.07275 0.42446 0.0
H1135 H 0.87701 0.07986 0.45305 0.0
C1136 C 0.90442 0.08252 0.37405 0.0
C1137 C 0.92446 0.09536 0.3678 0.0
C1138 C 0.89507 0.08764 0.39027 0.0
C1139 C 0.90545 0.10579 0.40066 0.0
C1140 C 0.92523 0.11894 0.39435 0.0
C1141 C 0.93467 0.11376 0.3781 0.0
C1142 C 0.88347 0.1382 0.44089 0.0
C1143 C 0.8777 0.11881 0.45151 0.0
C1144 C 0.8926 0.13406 0.4244 0.0
C1145 C 0.89596 0.11046 0.41817 0.0
C1146 C 0.89016 0.09114 0.42879 0.0
C1147 C 0.88119 0.09525 0.44524 0.0
H1148 H 0.90739 0.38949 0.61258 0.0
H1149 H 0.96046 0.43816 0.63478 0.0
H1150 H 0.89309 0.37961 0.64116 0.0
H1151 H 0.94602 0.42854 0.66334 0.0
H1152 H 0.93713 0.38136 0.71023 0.0
H1153 H 0.94825 0.39447 0.68185 0.0
H1154 H 0.87254 0.39435 0.66677 0.0
H1155 H 0.86132 0.38059 0.69528 0.0
C1156 C 0.91572 0.39839 0.62356 0.0
C1157 C 0.93519 0.41447 0.62144 0.0
C1158 C 0.9075 0.39276 0.63995 0.0
C1159 C 0.91853 0.40313 0.65457 0.0
C1160 C 0.93744 0.41984 0.65238 0.0
C1161 C 0.94572 0.42539 0.63602 0.0
C1162 C 0.92276 0.38418 0.70093 0.0
C1163 C 0.8983 0.37987 0.70507 0.0
C1164 C 0.92916 0.3919 0.68465 0.0
C1165 C 0.9113 0.39562 0.67203 0.0
C1166 C 0.88678 0.39146 0.67615 0.0
C1167 C 0.88034 0.38368 0.69251 0.0
H1168 H 0.58238 0.06347 0.3677 0.0
H1169 H 0.58725 0.13955 0.37936 0.0
H1170 H 0.59848 0.07048 0.33942 0.0
H1171 H 0.60113 0.14684 0.35046 0.0
H1172 H 0.64977 0.15011 0.30365 0.0
H1173 H 0.63428 0.14333 0.33235 0.0
H1174 H 0.58961 0.08505 0.31259 0.0
H1175 H 0.60628 0.091 0.28421 0.0
C1176 C 0.58678 0.08174 0.36427 0.0
C1177 C 0.58359 0.10089 0.376 0.0
C1178 C 0.59564 0.08584 0.34784 0.0
C1179 C 0.60111 0.10928 0.34249 0.0
C1180 C 0.59753 0.12849 0.35412 0.0
C1181 C 0.5891 0.12433 0.37068 0.0
C1182 C 0.63666 0.13584 0.3055 0.0
C1183 C 0.62935 0.121 0.29172 0.0
C1184 C 0.6276 0.13203 0.32194 0.0
C1185 C 0.61064 0.11358 0.32493 0.0
C1186 C 0.60304 0.09906 0.31098 0.0
C1187 C 0.61248 0.10256 0.29463 0.0
H1188 H 0.88794 0.05775 0.62257 0.0
H1189 H 0.92046 0.12569 0.63723 0.0
H1190 H 0.87694 0.07421 0.59463 0.0
H1191 H 0.90931 0.14219 0.60937 0.0
H1192 H 0.85676 0.16781 0.56593 0.0
H1193 H 0.86863 0.15153 0.59371 0.0
H1194 H 0.90055 0.08993 0.56825 0.0
H1195 H 0.88899 0.10629 0.54047 0.0
C1196 C 0.89267 0.07619 0.6198 0.0
C1197 C 0.90508 0.09045 0.63199 0.0
C1198 C 0.88652 0.08554 0.60382 0.0
C1199 C 0.89229 0.10945 0.59989 0.0
C1200 C 0.90455 0.12375 0.61213 0.0
C1201 C 0.91106 0.11428 0.62799 0.0
C1202 C 0.86638 0.15084 0.56628 0.0
C1203 C 0.87197 0.13833 0.55105 0.0
C1204 C 0.87324 0.14159 0.58214 0.0
C1205 C 0.88544 0.11948 0.58308 0.0
C1206 C 0.89099 0.10694 0.56787 0.0
C1207 C 0.8845 0.11637 0.55199 0.0
H1208 H 0.88954 0.43831 0.88314 0.0
H1209 H 0.93559 0.37532 0.88424 0.0
H1210 H 0.87421 0.42589 0.85507 0.0
H1211 H 0.91918 0.36247 0.85647 0.0
H1212 H 0.86141 0.3377 0.81542 0.0
H1213 H 0.87617 0.34982 0.84395 0.0
H1214 H 0.8939 0.42013 0.82493 0.0
H1215 H 0.87959 0.408 0.79643 0.0
C1216 C 0.89659 0.42194 0.8774 0.0
C1217 C 0.91401 0.40795 0.88601 0.0
C1218 C 0.88761 0.41476 0.86137 0.0
C1219 C 0.89547 0.39321 0.85368 0.0
C1220 C 0.91263 0.37903 0.86225 0.0
C1221 C 0.92195 0.3864 0.87818 0.0
C1222 C 0.86835 0.35576 0.81738 0.0
C1223 C 0.86939 0.37191 0.80372 0.0
C1224 C 0.87691 0.36262 0.83364 0.0
C1225 C 0.88618 0.38587 0.83657 0.0
C1226 C 0.88673 0.40215 0.823 0.0
C1227 C 0.87861 0.39517 0.80671 0.0
H1228 H 0.59401 0.3777 0.14314 0.0
H1229 H 0.58435 0.44992 0.12467 0.0
H1230 H 0.60594 0.36433 0.11455 0.0
H1231 H 0.59707 0.43669 0.09614 0.0
H1232 H 0.59465 0.39805 0.04375 0.0
H1233 H 0.58228 0.41142 0.07228 0.0
H1234 H 0.63973 0.369 0.09462 0.0
H1235 H 0.65188 0.35531 0.0661 0.0
C1236 C 0.59435 0.39071 0.13295 0.0
C1237 C 0.58813 0.41486 0.13616 0.0
C1238 C 0.60147 0.3831 0.11661 0.0
C1239 C 0.6025 0.39945 0.10308 0.0
C1240 C 0.59624 0.4236 0.10627 0.0
C1241 C 0.58919 0.43124 0.12264 0.0
C1242 C 0.60463 0.39155 0.05475 0.0
C1243 C 0.62423 0.37561 0.05268 0.0
C1244 C 0.59763 0.39934 0.07109 0.0
C1245 C 0.61003 0.39129 0.08571 0.0
C1246 C 0.62962 0.37531 0.08362 0.0
C1247 C 0.63666 0.36756 0.06728 0.0
loop_
_geom_bond_atom_site_label_1
_geom_bond_atom_site_label_2
_geom_bond_distance
_geom_bond_site_symmetry_2
_ccdc_geom_bond_type
H0 C27 0.929 . S
N1 C26 1.433 . S
N1 C32 1.435 . S
N1 C38 1.423 . S
H2 C28 0.930 . S
H3 C31 0.931 . S
H4 C30 0.929 . S
H5 C33 0.930 . S
H6 C34 0.932 . S
H7 C37 0.929 . S
H8 C36 0.931 . S
H9 C39 0.929 . S
H10 C43 0.932 . S
H11 C40 0.931 . S
H12 C42 0.929 . S
H13 C45 0.929 . S
H14 C46 0.930 . S
H15 C48 0.929 . S
H16 C49 0.931 . S
H17 C51 0.930 . S
H18 C52 0.932 . S
H19 C54 0.931 . S
H20 C55 0.929 . S
H21 C57 0.929 . S
H22 C58 0.931 . S
H23 C60 0.929 . S
N24 C44 1.433 . S
N24 C50 1.435 . S
N24 C56 1.423 . S
H25 C61 0.932 . S
C26 N1 1.433 . S
C26 C27 1.363 . S
C26 C31 1.370 . S
C27 H0 0.929 . S
C27 C26 1.363 . S
C27 C28 1.385 . S
C28 H2 0.930 . S
C28 C27 1.385 . S
C28 C29 1.357 . S
C29 C28 1.357 . S
C29 C30 1.406 . S
C30 H4 0.929 . S
C30 C29 1.406 . S
C30 C31 1.391 . S
C31 H3 0.931 . S
C31 C26 1.370 . S
C31 C30 1.391 . S
C32 N1 1.435 . S
C32 C33 1.358 . S
C32 C37 1.371 . S
C33 H5 0.930 . S
C33 C32 1.358 . S
C33 C34 1.405 . S
C34 H6 0.932 . S
C34 C33 1.405 . S
C34 C35 1.383 . S
C35 C34 1.383 . S
C35 C36 1.393 . S
C36 H8 0.931 . S
C36 C35 1.393 . S
C36 C37 1.382 . S
C37 H7 0.929 . S
C37 C32 1.371 . S
C37 C36 1.382 . S
C38 N1 1.423 . S
C38 C39 1.362 1_565 S
C38 C43 1.388 . S
C39 H9 0.929 . S
C39 C38 1.362 1_545 S
C39 C40 1.376 . S
C40 H11 0.931 . S
C40 C39 1.376 . S
C40 C41 1.396 . S
C41 C40 1.396 . S
C41 C42 1.348 1_545 S
C41 C59 1.472 . S
C42 H12 0.929 . S
C42 C41 1.348 1_565 S
C42 C43 1.443 . S
C43 H10 0.932 . S
C43 C38 1.388 . S
C43 C42 1.443 . S
C44 N24 1.433 . S
C44 C45 1.363 . S
C44 C49 1.370 . S
C45 H13 0.929 . S
C45 C44 1.363 . S
C45 C46 1.385 . S
C46 H14 0.930 . S
C46 C45 1.385 . S
C46 C47 1.357 . S
C47 C46 1.357 . S
C47 C48 1.406 . S
C48 H15 0.929 . S
C48 C47 1.406 . S
C48 C49 1.391 . S
C49 H16 0.931 . S
C49 C44 1.370 . S
C49 C48 1.391 . S
C50 N24 1.435 . S
C50 C51 1.358 . S
C50 C55 1.371 . S
C51 H17 0.930 . S
C51 C50 1.358 . S
C51 C52 1.405 . S
C52 H18 0.932 . S
C52 C51 1.405 . S
C52 C53 1.383 . S
C53 C52 1.383 . S
C53 C54 1.393 . S
C54 H19 0.931 . S
C54 C53 1.393 . S
C54 C55 1.382 . S
C55 H20 0.929 . S
C55 C50 1.371 . S
C55 C54 1.382 . S
C56 N24 1.423 . S
C56 C57 1.362 . S
C56 C61 1.388 . S
C57 H21 0.929 . S
C57 C56 1.362 . S
C57 C58 1.376 1_655 S
C58 H22 0.931 . S
C58 C57 1.376 1_455 S
C58 C59 1.396 . S
C59 C41 1.472 . S
C59 C58 1.396 . S
C59 C60 1.348 1_455 S
C60 H23 0.929 . S
C60 C59 1.348 1_655 S
C60 C61 1.443 . S
C61 H25 0.932 . S
C61 C56 1.388 . S
C61 C60 1.443 . S
H62 C89 0.929 . S
N63 C88 1.433 . S
N63 C94 1.435 . S
N63 C100 1.423 . S
H64 C90 0.930 . S
H65 C93 0.931 . S
H66 C92 0.929 . S
H67 C95 0.930 . S
H68 C96 0.932 . S
H69 C99 0.929 . S
H70 C98 0.931 . S
H71 C101 0.929 . S
H72 C105 0.932 . S
H73 C102 0.931 . S
H74 C104 0.929 . S
H75 C107 0.929 . S
H76 C108 0.930 . S
H77 C110 0.929 . S
H78 C111 0.931 . S
H79 C113 0.930 . S
H80 C114 0.932 . S
H81 C116 0.931 . S
H82 C117 0.929 . S
H83 C119 0.929 . S
H84 C120 0.931 . S
H85 C122 0.929 . S
N86 C106 1.433 . S
N86 C112 1.435 . S
N86 C118 1.423 . S
H87 C123 0.932 . S
C88 N63 1.433 . S
C88 C89 1.363 . S
C88 C93 1.370 . S
C89 H62 0.929 . S
C89 C88 1.363 . S
C89 C90 1.385 . S
C90 H64 0.930 . S
C90 C89 1.385 . S
C90 C91 1.357 . S
C91 C90 1.357 . S
C91 C92 1.406 . S
C92 H66 0.929 . S
C92 C91 1.406 . S
C92 C93 1.391 . S
C93 H65 0.931 . S
C93 C88 1.370 . S
C93 C92 1.391 . S
C94 N63 1.435 . S
C94 C95 1.358 . S
C94 C99 1.371 . S
C95 H67 0.930 . S
C95 C94 1.358 . S
C95 C96 1.405 . S
C96 H68 0.932 . S
C96 C95 1.405 . S
C96 C97 1.383 . S
C97 C96 1.383 . S
C97 C98 1.393 . S
C98 H70 0.931 . S
C98 C97 1.393 . S
C98 C99 1.382 . S
C99 H69 0.929 . S
C99 C94 1.371 . S
C99 C98 1.382 . S
C100 N63 1.423 . S
C100 C101 1.362 1_655 S
C100 C105 1.388 . S
C101 H71 0.929 . S
C101 C100 1.362 1_455 S
C101 C102 1.376 . S
C102 H73 0.931 . S
C102 C101 1.376 . S
C102 C103 1.396 . S
C103 C102 1.396 . S
C103 C104 1.348 1_455 S
C103 C121 1.472 . S
C104 H74 0.929 . S
C104 C103 1.348 1_655 S
C104 C105 1.443 . S
C105 H72 0.932 . S
C105 C100 1.388 . S
C105 C104 1.443 . S
C106 N86 1.433 . S
C106 C107 1.363 . S
C106 C111 1.370 . S
C107 H75 0.929 . S
C107 C106 1.363 . S
C107 C108 1.385 . S
C108 H76 0.930 . S
C108 C107 1.385 . S
C108 C109 1.357 . S
C109 C108 1.357 . S
C109 C110 1.406 . S
C110 H77 0.929 . S
C110 C109 1.406 . S
C110 C111 1.391 . S
C111 H78 0.931 . S
C111 C106 1.370 . S
C111 C110 1.391 . S
C112 N86 1.435 . S
C112 C113 1.358 . S
C112 C117 1.371 . S
C113 H79 0.930 . S
C113 C112 1.358 . S
C113 C114 1.405 . S
C114 H80 0.932 . S
C114 C113 1.405 . S
C114 C115 1.383 . S
C115 C114 1.383 . S
C115 C116 1.393 . S
C116 H81 0.931 . S
C116 C115 1.393 . S
C116 C117 1.382 . S
C117 H82 0.929 . S
C117 C112 1.371 . S
C117 C116 1.382 . S
C118 N86 1.423 . S
C118 C119 1.362 . S
C118 C123 1.388 . S
C119 H83 0.929 . S
C119 C118 1.362 . S
C119 C120 1.376 . S
C120 H84 0.931 . S
C120 C119 1.376 . S
C120 C121 1.396 . S
C121 C103 1.472 . S
C121 C120 1.396 . S
C121 C122 1.348 . S
C122 H85 0.929 . S
C122 C121 1.348 . S
C122 C123 1.443 . S
C123 H87 0.932 . S
C123 C118 1.388 . S
C123 C122 1.443 . S
H124 C151 0.929 . S
N125 C150 1.433 . S
N125 C156 1.435 . S
N125 C162 1.423 . S
H126 C152 0.930 . S
H127 C155 0.931 . S
H128 C154 0.929 . S
H129 C157 0.930 . S
H130 C158 0.932 . S
H131 C161 0.929 . S
H132 C160 0.931 . S
H133 C163 0.929 . S
H134 C167 0.932 . S
H135 C164 0.931 . S
H136 C166 0.929 . S
H137 C169 0.929 . S
H138 C170 0.930 . S
H139 C172 0.929 . S
H140 C173 0.931 . S
H141 C175 0.930 . S
H142 C176 0.932 . S
H143 C178 0.931 . S
H144 C179 0.929 . S
H145 C181 0.929 . S
H146 C182 0.931 . S
H147 C184 0.929 . S
N148 C168 1.433 . S
N148 C174 1.435 . S
N148 C180 1.423 . S
H149 C185 0.932 . S
C150 N125 1.433 . S
C150 C151 1.363 . S
C150 C155 1.370 . S
C151 H124 0.929 . S
C151 C150 1.363 . S
C151 C152 1.385 . S
C152 H126 0.930 . S
C152 C151 1.385 . S
C152 C153 1.357 . S
C153 C152 1.357 . S
C153 C154 1.406 . S
C154 H128 0.929 . S
C154 C153 1.406 . S
C154 C155 1.391 . S
C155 H127 0.931 . S
C155 C150 1.370 . S
C155 C154 1.391 . S
C156 N125 1.435 . S
C156 C157 1.358 . S
C156 C161 1.371 . S
C157 H129 0.930 . S
C157 C156 1.358 . S
C157 C158 1.405 . S
C158 H130 0.932 . S
C158 C157 1.405 . S
C158 C159 1.383 . S
C159 C158 1.383 . S
C159 C160 1.393 . S
C160 H132 0.931 . S
C160 C159 1.393 . S
C160 C161 1.382 . S
C161 H131 0.929 . S
C161 C156 1.371 . S
C161 C160 1.382 . S
C162 N125 1.423 . S
C162 C163 1.362 . S
C162 C167 1.388 . S
C163 H133 0.929 . S
C163 C162 1.362 . S
C163 C164 1.376 . S
C164 H135 0.931 . S
C164 C163 1.376 . S
C164 C165 1.396 . S
C165 C164 1.396 . S
C165 C166 1.348 . S
C165 C183 1.472 . S
C166 H136 0.929 . S
C166 C165 1.348 . S
C166 C167 1.443 . S
C167 H134 0.932 . S
C167 C162 1.388 . S
C167 C166 1.443 . S
C168 N148 1.433 . S
C168 C169 1.363 . S
C168 C173 1.370 . S
C169 H137 0.929 . S
C169 C168 1.363 . S
C169 C170 1.385 . S
C170 H138 0.930 . S
C170 C169 1.385 . S
C170 C171 1.357 . S
C171 C170 1.357 . S
C171 C172 1.406 . S
C172 H139 0.929 . S
C172 C171 1.406 . S
C172 C173 1.391 . S
C173 H140 0.931 . S
C173 C168 1.370 . S
C173 C172 1.391 . S
C174 N148 1.435 . S
C174 C175 1.358 . S
C174 C179 1.371 . S
C175 H141 0.930 . S
C175 C174 1.358 . S
C175 C176 1.405 . S
C176 H142 0.932 . S
C176 C175 1.405 . S
C176 C177 1.383 . S
C177 C176 1.383 . S
C177 C178 1.393 . S
C178 H143 0.931 . S
C178 C177 1.393 . S
C178 C179 1.382 . S
C179 H144 0.929 . S
C179 C174 1.371 . S
C179 C178 1.382 . S
C180 N148 1.423 . S
C180 C181 1.362 . S
C180 C185 1.388 . S
C181 H145 0.929 . S
C181 C180 1.362 . S
C181 C182 1.376 . S
C182 H146 0.931 . S
C182 C181 1.376 . S
C182 C183 1.396 . S
C183 C165 1.472 . S
C183 C182 1.396 . S
C183 C184 1.348 . S
C184 H147 0.929 . S
C184 C183 1.348 . S
C184 C185 1.443 . S
C185 H149 0.932 . S
C185 C180 1.388 . S
C185 C184 1.443 . S
H186 C213 0.929 . S
N187 C212 1.433 . S
N187 C218 1.435 . S
N187 C224 1.423 . S
H188 C214 0.930 . S
H189 C217 0.931 . S
H190 C216 0.929 . S
H191 C219 0.930 . S
H192 C220 0.932 . S
H193 C223 0.929 . S
H194 C222 0.931 . S
H195 C225 0.929 . S
H196 C229 0.932 . S
H197 C226 0.931 . S
H198 C228 0.929 . S
H199 C231 0.929 . S
H200 C232 0.930 . S
H201 C234 0.929 . S
H202 C235 0.931 . S
H203 C237 0.930 . S
H204 C238 0.932 . S
H205 C240 0.931 . S
H206 C241 0.929 . S
H207 C243 0.929 . S
H208 C244 0.931 1_565 S
H209 C246 0.929 . S
N210 C230 1.433 . S
N210 C236 1.435 . S
N210 C242 1.423 . S
H211 C247 0.932 . S
C212 N187 1.433 . S
C212 C213 1.363 . S
C212 C217 1.370 . S
C213 H186 0.929 . S
C213 C212 1.363 . S
C213 C214 1.385 . S
C214 H188 0.930 . S
C214 C213 1.385 . S
C214 C215 1.357 . S
C215 C214 1.357 . S
C215 C216 1.406 . S
C216 H190 0.929 . S
C216 C215 1.406 . S
C216 C217 1.391 . S
C217 H189 0.931 . S
C217 C212 1.370 . S
C217 C216 1.391 . S
C218 N187 1.435 . S
C218 C219 1.358 . S
C218 C223 1.371 . S
C219 H191 0.930 . S
C219 C218 1.358 . S
C219 C220 1.405 . S
C220 H192 0.932 . S
C220 C219 1.405 . S
C220 C221 1.383 . S
C221 C220 1.383 . S
C221 C222 1.393 . S
C222 H194 0.931 . S
C222 C221 1.393 . S
C222 C223 1.382 . S
C223 H193 0.929 . S
C223 C218 1.371 . S
C223 C222 1.382 . S
C224 N187 1.423 . S
C224 C225 1.362 . S
C224 C229 1.388 . S
C225 H195 0.929 . S
C225 C224 1.362 . S
C225 C226 1.376 . S
C226 H197 0.931 . S
C226 C225 1.376 . S
C226 C227 1.396 . S
C227 C226 1.396 . S
C227 C228 1.348 . S
C227 C245 1.472 1_565 S
C228 H198 0.929 . S
C228 C227 1.348 . S
C228 C229 1.443 . S
C229 H196 0.932 . S
C229 C224 1.388 . S
C229 C228 1.443 . S
C230 N210 1.433 . S
C230 C231 1.363 . S
C230 C235 1.370 . S
C231 H199 0.929 . S
C231 C230 1.363 . S
C231 C232 1.385 . S
C232 H200 0.930 . S
C232 C231 1.385 . S
C232 C233 1.357 . S
C233 C232 1.357 . S
C233 C234 1.406 . S
C234 H201 0.929 . S
C234 C233 1.406 . S
C234 C235 1.391 . S
C235 H202 0.931 . S
C235 C230 1.370 . S
C235 C234 1.391 . S
C236 N210 1.435 . S
C236 C237 1.358 . S
C236 C241 1.371 . S
C237 H203 0.930 . S
C237 C236 1.358 . S
C237 C238 1.405 . S
C238 H204 0.932 . S
C238 C237 1.405 . S
C238 C239 1.383 . S
C239 C238 1.383 . S
C239 C240 1.393 . S
C240 H205 0.931 . S
C240 C239 1.393 . S
C240 C241 1.382 . S
C241 H206 0.929 . S
C241 C236 1.371 . S
C241 C240 1.382 . S
C242 N210 1.423 . S
C242 C243 1.362 . S
C242 C247 1.388 . S
C243 H207 0.929 . S
C243 C242 1.362 . S
C243 C244 1.376 . S
C244 H208 0.931 1_545 S
C244 C243 1.376 . S
C244 C245 1.396 . S
C245 C227 1.472 1_545 S
C245 C244 1.396 . S
C245 C246 1.348 . S
C246 H209 0.929 . S
C246 C245 1.348 . S
C246 C247 1.443 . S
C247 H211 0.932 . S
C247 C242 1.388 . S
C247 C246 1.443 . S
H248 C275 0.929 . S
N249 C274 1.433 . S
N249 C280 1.435 . S
N249 C286 1.423 . S
H250 C276 0.930 . S
H251 C279 0.931 . S
H252 C278 0.929 . S
H253 C281 0.930 . S
H254 C282 0.932 . S
H255 C285 0.929 . S
H256 C284 0.931 . S
H257 C287 0.929 . S
H258 C291 0.932 . S
H259 C288 0.931 . S
H260 C290 0.929 . S
H261 C293 0.929 . S
H262 C294 0.930 . S
H263 C296 0.929 . S
H264 C297 0.931 . S
H265 C299 0.930 . S
H266 C300 0.932 . S
H267 C302 0.931 . S
H268 C303 0.929 . S
H269 C305 0.929 . S
H270 C306 0.931 1_455 S
H271 C308 0.929 . S
N272 C292 1.433 . S
N272 C298 1.435 . S
N272 C304 1.423 . S
H273 C309 0.932 . S
C274 N249 1.433 . S
C274 C275 1.363 . S
C274 C279 1.370 . S
C275 H248 0.929 . S
C275 C274 1.363 . S
C275 C276 1.385 . S
C276 H250 0.930 . S
C276 C275 1.385 . S
C276 C277 1.357 . S
C277 C276 1.357 . S
C277 C278 1.406 . S
C278 H252 0.929 . S
C278 C277 1.406 . S
C278 C279 1.391 . S
C279 H251 0.931 . S
C279 C274 1.370 . S
C279 C278 1.391 . S
C280 N249 1.435 . S
C280 C281 1.358 . S
C280 C285 1.371 . S
C281 H253 0.930 . S
C281 C280 1.358 . S
C281 C282 1.405 . S
C282 H254 0.932 . S
C282 C281 1.405 . S
C282 C283 1.383 . S
C283 C282 1.383 . S
C283 C284 1.393 . S
C284 H256 0.931 . S
C284 C283 1.393 . S
C284 C285 1.382 . S
C285 H255 0.929 . S
C285 C280 1.371 . S
C285 C284 1.382 . S
C286 N249 1.423 . S
C286 C287 1.362 . S
C286 C291 1.388 . S
C287 H257 0.929 . S
C287 C286 1.362 . S
C287 C288 1.376 . S
C288 H259 0.931 . S
C288 C287 1.376 . S
C288 C289 1.396 . S
C289 C288 1.396 . S
C289 C290 1.348 . S
C289 C307 1.508 . S
C290 H260 0.929 . S
C290 C289 1.348 . S
C290 C291 1.443 . S
C291 H258 0.932 . S
C291 C286 1.388 . S
C291 C290 1.443 . S
C292 N272 1.433 . S
C292 C293 1.363 . S
C292 C297 1.370 . S
C293 H261 0.929 . S
C293 C292 1.363 . S
C293 C294 1.385 . S
C294 H262 0.930 . S
C294 C293 1.385 . S
C294 C295 1.357 . S
C295 C294 1.357 . S
C295 C296 1.406 . S
C296 H263 0.929 . S
C296 C295 1.406 . S
C296 C297 1.391 . S
C297 H264 0.931 . S
C297 C292 1.370 . S
C297 C296 1.391 . S
C298 N272 1.435 . S
C298 C299 1.358 . S
C298 C303 1.371 . S
C299 H265 0.930 . S
C299 C298 1.358 . S
C299 C300 1.405 . S
C300 H266 0.932 . S
C300 C299 1.405 . S
C300 C301 1.383 . S
C301 C300 1.383 . S
C301 C302 1.393 . S
C302 H267 0.931 . S
C302 C301 1.393 . S
C302 C303 1.382 . S
C303 H268 0.929 . S
C303 C298 1.371 . S
C303 C302 1.382 . S
C304 N272 1.423 . S
C304 C305 1.362 . S
C304 C309 1.388 . S
C305 H269 0.929 . S
C305 C304 1.362 . S
C305 C306 1.376 . S
C306 H270 0.931 1_655 S
C306 C305 1.376 . S
C306 C307 1.392 1_655 S
C307 C289 1.508 . S
C307 C306 1.392 1_455 S
C307 C308 1.315 1_455 S
C308 H271 0.929 . S
C308 C307 1.315 1_655 S
C308 C309 1.443 . S
C309 H273 0.932 . S
C309 C304 1.388 . S
C309 C308 1.443 . S
H310 C337 0.929 . S
N311 C336 1.433 . S
N311 C342 1.435 . S
N311 C348 1.423 . S
H312 C338 0.930 . S
H313 C341 0.931 . S
H314 C340 0.929 . S
H315 C343 0.930 . S
H316 C344 0.932 . S
H317 C347 0.929 . S
H318 C346 0.931 . S
H319 C349 0.929 . S
H320 C353 0.932 . S
H321 C350 0.931 . S
H322 C352 0.929 . S
H323 C355 0.929 . S
H324 C356 0.930 . S
H325 C358 0.929 . S
H326 C359 0.931 . S
H327 C361 0.930 . S
H328 C362 0.932 . S
H329 C364 0.931 . S
H330 C365 0.929 . S
H331 C367 0.929 . S
H332 C368 0.931 . S
H333 C370 0.929 . S
N334 C354 1.433 . S
N334 C360 1.435 . S
N334 C366 1.423 . S
H335 C371 0.932 . S
C336 N311 1.433 . S
C336 C337 1.363 . S
C336 C341 1.370 . S
C337 H310 0.929 . S
C337 C336 1.363 . S
C337 C338 1.385 . S
C338 H312 0.930 . S
C338 C337 1.385 . S
C338 C339 1.357 . S
C339 C338 1.357 . S
C339 C340 1.406 . S
C340 H314 0.929 . S
C340 C339 1.406 . S
C340 C341 1.391 . S
C341 H313 0.931 . S
C341 C336 1.370 . S
C341 C340 1.391 . S
C342 N311 1.435 . S
C342 C343 1.358 . S
C342 C347 1.371 . S
C343 H315 0.930 . S
C343 C342 1.358 . S
C343 C344 1.405 . S
C344 H316 0.932 . S
C344 C343 1.405 . S
C344 C345 1.383 . S
C345 C344 1.383 . S
C345 C346 1.393 . S
C346 H318 0.931 . S
C346 C345 1.393 . S
C346 C347 1.382 . S
C347 H317 0.929 . S
C347 C342 1.371 . S
C347 C346 1.382 . S
C348 N311 1.423 . S
C348 C349 1.362 . S
C348 C353 1.388 . S
C349 H319 0.929 . S
C349 C348 1.362 . S
C349 C350 1.376 . S
C350 H321 0.931 . S
C350 C349 1.376 . S
C350 C351 1.396 . S
C351 C350 1.396 . S
C351 C352 1.348 . S
C351 C369 1.472 . S
C352 H322 0.929 . S
C352 C351 1.348 . S
C352 C353 1.443 . S
C353 H320 0.932 . S
C353 C348 1.388 . S
C353 C352 1.443 . S
C354 N334 1.433 . S
C354 C355 1.363 . S
C354 C359 1.370 . S
C355 H323 0.929 . S
C355 C354 1.363 . S
C355 C356 1.385 . S
C356 H324 0.930 . S
C356 C355 1.385 . S
C356 C357 1.357 . S
C357 C356 1.357 . S
C357 C358 1.406 . S
C358 H325 0.929 . S
C358 C357 1.406 . S
C358 C359 1.391 . S
C359 H326 0.931 . S
C359 C354 1.370 . S
C359 C358 1.391 . S
C360 N334 1.435 . S
C360 C361 1.358 . S
C360 C365 1.371 . S
C361 H327 0.930 . S
C361 C360 1.358 . S
C361 C362 1.405 . S
C362 H328 0.932 . S
C362 C361 1.405 . S
C362 C363 1.383 . S
C363 C362 1.383 . S
C363 C364 1.393 . S
C364 H329 0.931 . S
C364 C363 1.393 . S
C364 C365 1.382 . S
C365 H330 0.929 . S
C365 C360 1.371 . S
C365 C364 1.382 . S
C366 N334 1.423 . S
C366 C367 1.362 . S
C366 C371 1.388 . S
C367 H331 0.929 . S
C367 C366 1.362 . S
C367 C368 1.376 . S
C368 H332 0.931 . S
C368 C367 1.376 . S
C368 C369 1.396 . S
C369 C351 1.472 . S
C369 C368 1.396 . S
C369 C370 1.348 . S
C370 H333 0.929 . S
C370 C369 1.348 . S
C370 C371 1.443 . S
C371 H335 0.932 . S
C371 C366 1.388 . S
C371 C370 1.443 . S
H372 C399 0.929 . S
N373 C398 1.433 . S
N373 C404 1.435 . S
N373 C410 1.423 . S
H374 C400 0.930 . S
H375 C403 0.931 . S
H376 C402 0.929 . S
H377 C405 0.930 . S
H378 C406 0.932 . S
H379 C409 0.929 . S
H380 C408 0.931 . S
H381 C411 0.929 . S
H382 C415 0.932 . S
H383 C412 0.931 . S
H384 C414 0.929 . S
H385 C417 0.929 . S
H386 C418 0.930 . S
H387 C420 0.929 . S
H388 C421 0.931 . S
H389 C423 0.930 . S
H390 C424 0.932 . S
H391 C426 0.931 . S
H392 C427 0.929 . S
H393 C429 0.929 . S
H394 C430 0.931 . S
H395 C432 0.929 . S
N396 C416 1.433 . S
N396 C422 1.435 . S
N396 C428 1.423 . S
H397 C433 0.932 . S
C398 N373 1.433 . S
C398 C399 1.363 . S
C398 C403 1.370 . S
C399 H372 0.929 . S
C399 C398 1.363 . S
C399 C400 1.385 . S
C400 H374 0.930 . S
C400 C399 1.385 . S
C400 C401 1.357 . S
C401 C400 1.357 . S
C401 C402 1.406 . S
C402 H376 0.929 . S
C402 C401 1.406 . S
C402 C403 1.391 . S
C403 H375 0.931 . S
C403 C398 1.370 . S
C403 C402 1.391 . S
C404 N373 1.435 . S
C404 C405 1.358 . S
C404 C409 1.371 . S
C405 H377 0.930 . S
C405 C404 1.358 . S
C405 C406 1.405 . S
C406 H378 0.932 . S
C406 C405 1.405 . S
C406 C407 1.383 . S
C407 C406 1.383 . S
C407 C408 1.393 . S
C408 H380 0.931 . S
C408 C407 1.393 . S
C408 C409 1.382 . S
C409 H379 0.929 . S
C409 C404 1.371 . S
C409 C408 1.382 . S
C410 N373 1.423 . S
C410 C411 1.362 1_565 S
C410 C415 1.388 . S
C411 H381 0.929 . S
C411 C410 1.362 1_545 S
C411 C412 1.376 . S
C412 H383 0.931 . S
C412 C411 1.376 . S
C412 C413 1.396 . S
C413 C412 1.396 . S
C413 C414 1.348 1_545 S
C413 C431 1.472 . S
C414 H384 0.929 . S
C414 C413 1.348 1_565 S
C414 C415 1.443 . S
C415 H382 0.932 . S
C415 C410 1.388 . S
C415 C414 1.443 . S
C416 N396 1.433 . S
C416 C417 1.363 . S
C416 C421 1.370 . S
C417 H385 0.929 . S
C417 C416 1.363 . S
C417 C418 1.385 . S
C418 H386 0.930 . S
C418 C417 1.385 . S
C418 C419 1.357 . S
C419 C418 1.357 . S
C419 C420 1.406 . S
C420 H387 0.929 . S
C420 C419 1.406 . S
C420 C421 1.391 . S
C421 H388 0.931 . S
C421 C416 1.370 . S
C421 C420 1.391 . S
C422 N396 1.435 . S
C422 C423 1.358 . S
C422 C427 1.371 . S
C423 H389 0.930 . S
C423 C422 1.358 . S
C423 C424 1.405 . S
C424 H390 0.932 . S
C424 C423 1.405 . S
C424 C425 1.383 . S
C425 C424 1.383 . S
C425 C426 1.393 . S
C426 H391 0.931 . S
C426 C425 1.393 . S
C426 C427 1.382 . S
C427 H392 0.929 . S
C427 C422 1.371 . S
C427 C426 1.382 . S
C428 N396 1.423 . S
C428 C429 1.362 . S
C428 C433 1.388 . S
C429 H393 0.929 . S
C429 C428 1.362 . S
C429 C430 1.376 . S
C430 H394 0.931 . S
C430 C429 1.376 . S
C430 C431 1.396 . S
C431 C413 1.472 . S
C431 C430 1.396 . S
C431 C432 1.348 . S
C432 H395 0.929 . S
C432 C431 1.348 . S
C432 C433 1.443 . S
C433 H397 0.932 . S
C433 C428 1.388 . S
C433 C432 1.443 . S
H434 C461 0.929 . S
N435 C460 1.433 . S
N435 C466 1.435 . S
N435 C472 1.423 . S
H436 C462 0.930 . S
H437 C465 0.931 . S
H438 C464 0.929 . S
H439 C467 0.930 . S
H440 C468 0.932 . S
H441 C471 0.929 . S
H442 C470 0.931 . S
H443 C473 0.929 . S
H444 C477 0.932 . S
H445 C474 0.931 1_655 S
H446 C476 0.929 1_545 S
H447 C479 0.929 . S
H448 C480 0.930 . S
H449 C482 0.929 . S
H450 C483 0.931 . S
H451 C485 0.930 . S
H452 C486 0.932 . S
H453 C488 0.931 . S
H454 C489 0.929 . S
H455 C491 0.929 . S
H456 C492 0.931 . S
H457 C494 0.929 1_455 S
N458 C478 1.433 . S
N458 C484 1.435 . S
N458 C490 1.423 . S
H459 C495 0.932 . S
C460 N435 1.433 . S
C460 C461 1.363 . S
C460 C465 1.370 . S
C461 H434 0.929 . S
C461 C460 1.363 . S
C461 C462 1.385 . S
C462 H436 0.930 . S
C462 C461 1.385 . S
C462 C463 1.357 . S
C463 C462 1.357 . S
C463 C464 1.406 . S
C464 H438 0.929 . S
C464 C463 1.406 . S
C464 C465 1.391 . S
C465 H437 0.931 . S
C465 C460 1.370 . S
C465 C464 1.391 . S
C466 N435 1.435 . S
C466 C467 1.358 . S
C466 C471 1.371 . S
C467 H439 0.930 . S
C467 C466 1.358 . S
C467 C468 1.405 . S
C468 H440 0.932 . S
C468 C467 1.405 . S
C468 C469 1.383 . S
C469 C468 1.383 . S
C469 C470 1.393 . S
C470 H442 0.931 . S
C470 C469 1.393 . S
C470 C471 1.382 . S
C471 H441 0.929 . S
C471 C466 1.371 . S
C471 C470 1.382 . S
C472 N435 1.423 . S
C472 C473 1.362 . S
C472 C477 1.388 . S
C473 H443 0.929 . S
C473 C472 1.362 . S
C473 C474 1.376 . S
C474 H445 0.931 1_455 S
C474 C473 1.376 . S
C474 C475 1.396 1_565 S
C475 C474 1.396 1_545 S
C475 C476 1.348 1_545 S
C475 C493 1.472 1_455 S
C476 H446 0.929 1_565 S
C476 C475 1.348 1_565 S
C476 C477 1.443 . S
C477 H444 0.932 . S
C477 C472 1.388 . S
C477 C476 1.443 . S
C478 N458 1.433 . S
C478 C479 1.363 . S
C478 C483 1.370 . S
C479 H447 0.929 . S
C479 C478 1.363 . S
C479 C480 1.385 . S
C480 H448 0.930 . S
C480 C479 1.385 . S
C480 C481 1.357 . S
C481 C480 1.357 . S
C481 C482 1.406 . S
C482 H449 0.929 . S
C482 C481 1.406 . S
C482 C483 1.391 . S
C483 H450 0.931 . S
C483 C478 1.370 . S
C483 C482 1.391 . S
C484 N458 1.435 . S
C484 C485 1.358 . S
C484 C489 1.371 . S
C485 H451 0.930 . S
C485 C484 1.358 . S
C485 C486 1.405 . S
C486 H452 0.932 . S
C486 C485 1.405 . S
C486 C487 1.383 . S
C487 C486 1.383 . S
C487 C488 1.393 . S
C488 H453 0.931 . S
C488 C487 1.393 . S
C488 C489 1.382 . S
C489 H454 0.929 . S
C489 C484 1.371 . S
C489 C488 1.382 . S
C490 N458 1.423 . S
C490 C491 1.362 . S
C490 C495 1.388 . S
C491 H455 0.929 . S
C491 C490 1.362 . S
C491 C492 1.376 . S
C492 H456 0.931 . S
C492 C491 1.376 . S
C492 C493 1.396 . S
C493 C475 1.472 1_655 S
C493 C492 1.396 . S
C493 C494 1.348 . S
C494 H457 0.929 1_655 S
C494 C493 1.348 . S
C494 C495 1.443 . S
C495 H459 0.932 . S
C495 C490 1.388 . S
C495 C494 1.443 . S
C496 O497 1.306 . S
C496 O499 1.160 . S
O497 C496 1.306 . S
O497 Cd498 2.228 . S
Cd498 O497 2.228 . S
Cd498 O502 2.273 1_554 S
Cd498 O506 2.277 . S
O499 C496 1.160 . S
O499 Cd500 2.203 . S
Cd500 O499 2.203 . S
Cd500 O502 2.411 1_554 S
Cd500 O503 2.333 1_554 S
Cd500 O504 2.352 . S
Cd500 O508 2.277 . S
Cd500 O509 2.356 1_554 S
C501 O506 1.209 . S
C501 O508 1.226 . S
O502 Cd498 2.273 1_556 S
O502 Cd500 2.411 1_556 S
O502 C505 1.320 . S
O503 Cd500 2.333 1_556 S
O503 C505 1.214 . S
O504 Cd500 2.352 . S
O504 C507 1.267 . S
C505 O502 1.320 . S
C505 O503 1.214 . S
O506 Cd498 2.277 . S
O506 C501 1.209 . S
C507 O504 1.267 . S
C507 O509 1.279 1_554 S
O508 Cd500 2.277 . S
O508 C501 1.226 . S
O509 Cd500 2.356 1_556 S
O509 C507 1.279 1_556 S
C510 O511 1.306 . S
C510 O513 1.160 . S
O511 C510 1.306 . S
O511 Cd512 2.228 . S
Cd512 O511 2.228 . S
Cd512 O516 2.273 . S
Cd512 O520 2.277 . S
O513 C510 1.160 . S
O513 Cd514 2.203 . S
Cd514 O513 2.203 . S
Cd514 O516 2.411 . S
Cd514 O517 2.333 . S
Cd514 O518 2.352 . S
Cd514 O522 2.277 . S
Cd514 O523 2.356 . S
C515 O520 1.209 . S
C515 O522 1.226 . S
O516 Cd512 2.273 . S
O516 Cd514 2.411 . S
O516 C519 1.320 . S
O517 Cd514 2.333 . S
O517 C519 1.214 . S
O518 Cd514 2.352 . S
O518 C521 1.258 . S
C519 O516 1.320 . S
C519 O517 1.214 . S
O520 Cd512 2.277 . S
O520 C515 1.209 . S
C521 O518 1.258 . S
C521 O523 1.282 . S
O522 Cd514 2.277 . S
O522 C515 1.226 . S
O523 Cd514 2.356 . S
O523 C521 1.282 . S
C524 O525 1.306 . S
C524 O527 1.160 . S
O525 C524 1.306 . S
O525 Cd526 2.228 . S
Cd526 O525 2.228 . S
Cd526 O530 2.273 . S
Cd526 O534 2.277 . S
O527 C524 1.160 . S
O527 Cd528 2.203 . S
Cd528 O527 2.203 . S
Cd528 O530 2.411 . S
Cd528 O531 2.333 . S
Cd528 O532 2.352 . S
Cd528 O536 2.277 . S
Cd528 O537 2.356 . S
C529 O534 1.209 . S
C529 O536 1.226 . S
O530 Cd526 2.273 . S
O530 Cd528 2.411 . S
O530 C533 1.320 . S
O531 Cd528 2.333 . S
O531 C533 1.214 . S
O532 Cd528 2.352 . S
O532 C535 1.258 . S
C533 O530 1.320 . S
C533 O531 1.214 . S
O534 Cd526 2.277 . S
O534 C529 1.209 . S
C535 O532 1.258 . S
C535 O537 1.282 . S
O536 Cd528 2.277 . S
O536 C529 1.226 . S
O537 Cd528 2.356 . S
O537 C535 1.282 . S
C538 O539 1.306 . S
C538 O541 1.160 . S
O539 C538 1.306 . S
O539 Cd540 2.228 . S
Cd540 O539 2.228 . S
Cd540 O544 2.273 . S
Cd540 O548 2.277 . S
O541 C538 1.160 . S
O541 Cd542 2.203 . S
Cd542 O541 2.203 . S
Cd542 O544 2.411 . S
Cd542 O545 2.333 . S
Cd542 O546 2.352 . S
Cd542 O550 2.277 . S
Cd542 O551 2.356 . S
C543 O548 1.209 . S
C543 O550 1.226 . S
O544 Cd540 2.273 . S
O544 Cd542 2.411 . S
O544 C547 1.320 . S
O545 Cd542 2.333 . S
O545 C547 1.214 . S
O546 Cd542 2.352 . S
O546 C549 1.258 . S
C547 O544 1.320 . S
C547 O545 1.214 . S
O548 Cd540 2.277 . S
O548 C543 1.209 . S
C549 O546 1.258 . S
C549 O551 1.282 . S
O550 Cd542 2.277 . S
O550 C543 1.226 . S
O551 Cd542 2.356 . S
O551 C549 1.282 . S
C552 O553 1.306 . S
C552 O555 1.160 . S
O553 C552 1.306 . S
O553 Cd554 2.228 . S
Cd554 O553 2.228 . S
Cd554 O558 2.273 . S
Cd554 O562 2.277 . S
O555 C552 1.160 . S
O555 Cd556 2.203 . S
Cd556 O555 2.203 . S
Cd556 O558 2.411 . S
Cd556 O559 2.333 . S
Cd556 O560 2.352 . S
Cd556 O564 2.277 . S
Cd556 O565 2.356 . S
C557 O562 1.209 . S
C557 O564 1.226 . S
O558 Cd554 2.273 . S
O558 Cd556 2.411 . S
O558 C561 1.320 . S
O559 Cd556 2.333 . S
O559 C561 1.214 . S
O560 Cd556 2.352 . S
O560 C563 1.258 . S
C561 O558 1.320 . S
C561 O559 1.214 . S
O562 Cd554 2.277 . S
O562 C557 1.209 . S
C563 O560 1.258 . S
C563 O565 1.282 . S
O564 Cd556 2.277 . S
O564 C557 1.226 . S
O565 Cd556 2.356 . S
O565 C563 1.282 . S
C566 O567 1.306 . S
C566 O569 1.160 . S
O567 C566 1.306 . S
O567 Cd568 2.228 . S
Cd568 O567 2.228 . S
Cd568 O572 2.273 . S
Cd568 O576 2.277 . S
O569 C566 1.160 . S
O569 Cd570 2.203 . S
Cd570 O569 2.203 . S
Cd570 O572 2.411 . S
Cd570 O573 2.333 . S
Cd570 O574 2.352 . S
Cd570 O578 2.277 . S
Cd570 O579 2.356 . S
C571 O576 1.209 . S
C571 O578 1.226 . S
O572 Cd568 2.273 . S
O572 Cd570 2.411 . S
O572 C575 1.320 . S
O573 Cd570 2.333 . S
O573 C575 1.214 . S
O574 Cd570 2.352 . S
O574 C577 1.258 . S
C575 O572 1.320 . S
C575 O573 1.214 . S
O576 Cd568 2.277 . S
O576 C571 1.209 . S
C577 O574 1.258 . S
C577 O579 1.282 . S
O578 Cd570 2.277 . S
O578 C571 1.226 . S
O579 Cd570 2.356 . S
O579 C577 1.282 . S
C580 O581 1.306 . S
C580 O583 1.160 . S
O581 C580 1.306 . S
O581 Cd582 2.206 1_556 S
Cd582 O581 2.206 1_554 S
Cd582 O586 2.290 . S
Cd582 O590 2.274 1_554 S
O583 C580 1.160 . S
O583 Cd584 2.203 1_556 S
Cd584 O583 2.203 1_554 S
Cd584 O586 2.411 . S
Cd584 O587 2.333 . S
Cd584 O588 2.352 . S
Cd584 O592 2.277 1_554 S
Cd584 O593 2.356 . S
C585 O590 1.209 . S
C585 O592 1.226 . S
O586 Cd582 2.290 . S
O586 Cd584 2.411 . S
O586 C589 1.320 . S
O587 Cd584 2.333 . S
O587 C589 1.214 . S
O588 Cd584 2.352 . S
O588 C591 1.258 . S
C589 O586 1.320 . S
C589 O587 1.214 . S
O590 Cd582 2.274 1_556 S
O590 C585 1.209 . S
C591 O588 1.258 . S
C591 O593 1.282 . S
O592 Cd584 2.277 1_556 S
O592 C585 1.226 . S
O593 Cd584 2.356 . S
O593 C591 1.282 . S
C594 O595 1.306 . S
C594 O597 1.160 . S
O595 C594 1.306 . S
O595 Cd596 2.228 . S
Cd596 O595 2.228 . S
Cd596 O600 2.273 . S
Cd596 O604 2.277 . S
O597 C594 1.160 . S
O597 Cd598 2.203 . S
Cd598 O597 2.203 . S
Cd598 O600 2.411 . S
Cd598 O601 2.333 . S
Cd598 O602 2.352 . S
Cd598 O606 2.277 . S
Cd598 O607 2.356 . S
C599 O604 1.209 . S
C599 O606 1.226 . S
O600 Cd596 2.273 . S
O600 Cd598 2.411 . S
O600 C603 1.320 . S
O601 Cd598 2.333 . S
O601 C603 1.214 . S
O602 Cd598 2.352 . S
O602 C605 1.258 . S
C603 O600 1.320 . S
C603 O601 1.214 . S
O604 Cd596 2.277 . S
O604 C599 1.209 . S
C605 O602 1.258 . S
C605 O607 1.282 . S
O606 Cd598 2.277 . S
O606 C599 1.226 . S
O607 Cd598 2.356 . S
O607 C605 1.282 . S
H608 C616 0.950 . S
H609 C621 0.950 . S
H610 C618 0.950 . S
H611 C620 0.950 . S
H612 C622 0.950 . S
H613 C624 0.950 . S
H614 C626 0.950 . S
H615 C627 0.950 . S
C616 H608 0.950 . S
C616 C617 1.386 . S
C616 C618 1.391 . S
C617 C616 1.386 . S
C617 C621 1.393 . S
C618 H610 0.950 . S
C618 C616 1.391 . S
C618 C619 1.400 . S
C619 C618 1.400 . S
C619 C620 1.398 . S
C619 C625 1.491 . S
C620 H611 0.950 . S
C620 C619 1.398 . S
C620 C621 1.391 . S
C621 H609 0.950 . S
C621 C617 1.393 . S
C621 C620 1.391 . S
C622 H612 0.950 . S
C622 C623 1.386 . S
C622 C624 1.391 . S
C623 C622 1.386 . S
C623 C627 1.393 . S
C624 H613 0.950 . S
C624 C622 1.391 . S
C624 C625 1.400 . S
C625 C619 1.491 . S
C625 C624 1.400 . S
C625 C626 1.398 . S
C626 H614 0.950 . S
C626 C625 1.398 . S
C626 C627 1.391 . S
C627 H615 0.950 . S
C627 C623 1.393 . S
C627 C626 1.391 . S
H628 C636 0.950 . S
H629 C641 0.950 . S
H630 C638 0.950 . S
H631 C640 0.950 . S
H632 C642 0.950 . S
H633 C644 0.950 . S
H634 C646 0.950 . S
H635 C647 0.950 . S
C636 H628 0.950 . S
C636 C637 1.386 . S
C636 C638 1.391 . S
C637 C636 1.386 . S
C637 C641 1.393 . S
C638 H630 0.950 . S
C638 C636 1.391 . S
C638 C639 1.400 . S
C639 C638 1.400 . S
C639 C640 1.398 . S
C639 C645 1.491 . S
C640 H631 0.950 . S
C640 C639 1.398 . S
C640 C641 1.391 . S
C641 H629 0.950 . S
C641 C637 1.393 . S
C641 C640 1.391 . S
C642 H632 0.950 . S
C642 C643 1.386 . S
C642 C644 1.391 . S
C643 C642 1.386 . S
C643 C647 1.393 . S
C644 H633 0.950 . S
C644 C642 1.391 . S
C644 C645 1.400 . S
C645 C639 1.491 . S
C645 C644 1.400 . S
C645 C646 1.398 . S
C646 H634 0.950 . S
C646 C645 1.398 . S
C646 C647 1.391 . S
C647 H635 0.950 . S
C647 C643 1.393 . S
C647 C646 1.391 . S
H648 C656 0.950 . S
H649 C661 0.950 . S
H650 C658 0.950 . S
H651 C660 0.950 . S
H652 C662 0.950 . S
H653 C664 0.950 . S
H654 C666 0.950 . S
H655 C667 0.950 . S
C656 H648 0.950 . S
C656 C657 1.386 . S
C656 C658 1.391 . S
C657 C656 1.386 . S
C657 C661 1.393 . S
C658 H650 0.950 . S
C658 C656 1.391 . S
C658 C659 1.400 . S
C659 C658 1.400 . S
C659 C660 1.398 . S
C659 C665 1.491 . S
C660 H651 0.950 . S
C660 C659 1.398 . S
C660 C661 1.391 . S
C661 H649 0.950 . S
C661 C657 1.393 . S
C661 C660 1.391 . S
C662 H652 0.950 . S
C662 C663 1.386 . S
C662 C664 1.391 . S
C663 C662 1.386 . S
C663 C667 1.393 . S
C664 H653 0.950 . S
C664 C662 1.391 . S
C664 C665 1.400 . S
C665 C659 1.491 . S
C665 C664 1.400 . S
C665 C666 1.398 . S
C666 H654 0.950 . S
C666 C665 1.398 . S
C666 C667 1.391 . S
C667 H655 0.950 . S
C667 C663 1.393 . S
C667 C666 1.391 . S
H668 C676 0.950 . S
H669 C681 0.950 . S
H670 C678 0.950 . S
H671 C680 0.950 . S
H672 C682 0.950 . S
H673 C684 0.950 . S
H674 C686 0.950 . S
H675 C687 0.950 . S
C676 H668 0.950 . S
C676 C677 1.386 1_556 S
C676 C678 1.391 . S
C677 C676 1.386 1_554 S
C677 C681 1.393 . S
C678 H670 0.950 . S
C678 C676 1.391 . S
C678 C679 1.400 1_556 S
C679 C678 1.400 1_554 S
C679 C680 1.398 . S
C679 C685 1.491 . S
C680 H671 0.950 . S
C680 C679 1.398 . S
C680 C681 1.391 . S
C681 H669 0.950 . S
C681 C677 1.393 . S
C681 C680 1.391 . S
C682 H672 0.950 . S
C682 C683 1.386 . S
C682 C684 1.391 . S
C683 C682 1.386 . S
C683 C687 1.393 1_554 S
C684 H673 0.950 . S
C684 C682 1.391 . S
C684 C685 1.400 . S
C685 C679 1.491 . S
C685 C684 1.400 . S
C685 C686 1.398 1_554 S
C686 H674 0.950 . S
C686 C685 1.398 1_556 S
C686 C687 1.391 . S
C687 H675 0.950 . S
C687 C683 1.393 1_556 S
C687 C686 1.391 . S
H688 C696 0.950 . S
H689 C701 0.950 . S
H690 C698 0.950 . S
H691 C700 0.950 . S
H692 C702 0.950 . S
H693 C704 0.950 . S
H694 C706 0.950 . S
H695 C707 0.950 . S
C696 H688 0.950 . S
C696 C697 1.386 . S
C696 C698 1.391 . S
C697 C696 1.386 . S
C697 C701 1.393 1_556 S
C698 H690 0.950 . S
C698 C696 1.391 . S
C698 C699 1.400 . S
C699 C698 1.400 . S
C699 C700 1.398 1_556 S
C699 C705 1.491 . S
C700 H691 0.950 . S
C700 C699 1.398 1_554 S
C700 C701 1.391 . S
C701 H689 0.950 . S
C701 C697 1.393 1_554 S
C701 C700 1.391 . S
C702 H692 0.950 . S
C702 C703 1.361 1_554 S
C702 C704 1.391 . S
C703 C702 1.361 1_556 S
C703 C707 1.420 . S
C704 H693 0.950 . S
C704 C702 1.391 . S
C704 C705 1.400 1_554 S
C705 C699 1.491 . S
C705 C704 1.400 1_556 S
C705 C706 1.398 . S
C706 H694 0.950 . S
C706 C705 1.398 . S
C706 C707 1.391 . S
C707 H695 0.950 . S
C707 C703 1.420 . S
C707 C706 1.391 . S
H708 C716 0.950 . S
H709 C721 0.950 . S
H710 C718 0.950 . S
H711 C720 0.950 . S
H712 C722 0.950 . S
H713 C724 0.950 . S
H714 C726 0.950 . S
H715 C727 0.950 . S
C716 H708 0.950 . S
C716 C717 1.386 . S
C716 C718 1.391 . S
C717 C716 1.386 . S
C717 C721 1.393 . S
C718 H710 0.950 . S
C718 C716 1.391 . S
C718 C719 1.400 . S
C719 C718 1.400 . S
C719 C720 1.398 . S
C719 C725 1.491 . S
C720 H711 0.950 . S
C720 C719 1.398 . S
C720 C721 1.391 . S
C721 H709 0.950 . S
C721 C717 1.393 . S
C721 C720 1.391 . S
C722 H712 0.950 . S
C722 C723 1.386 . S
C722 C724 1.391 . S
C723 C722 1.386 . S
C723 C727 1.393 . S
C724 H713 0.950 . S
C724 C722 1.391 . S
C724 C725 1.400 . S
C725 C719 1.491 . S
C725 C724 1.400 . S
C725 C726 1.398 . S
C726 H714 0.950 . S
C726 C725 1.398 . S
C726 C727 1.391 . S
C727 H715 0.950 . S
C727 C723 1.393 . S
C727 C726 1.391 . S
H728 C736 0.950 . S
H729 C741 0.950 . S
H730 C738 0.950 . S
H731 C740 0.950 . S
H732 C742 0.950 . S
H733 C744 0.950 . S
H734 C746 0.950 . S
H735 C747 0.950 . S
C736 H728 0.950 . S
C736 C737 1.386 . S
C736 C738 1.391 . S
C737 C736 1.386 . S
C737 C741 1.393 . S
C738 H730 0.950 . S
C738 C736 1.391 . S
C738 C739 1.400 . S
C739 C738 1.400 . S
C739 C740 1.398 . S
C739 C745 1.491 . S
C740 H731 0.950 . S
C740 C739 1.398 . S
C740 C741 1.391 . S
C741 H729 0.950 . S
C741 C737 1.393 . S
C741 C740 1.391 . S
C742 H732 0.950 . S
C742 C743 1.386 . S
C742 C744 1.391 . S
C743 C742 1.386 . S
C743 C747 1.393 . S
C744 H733 0.950 . S
C744 C742 1.391 . S
C744 C745 1.400 . S
C745 C739 1.491 . S
C745 C744 1.400 . S
C745 C746 1.398 . S
C746 H734 0.950 . S
C746 C745 1.398 . S
C746 C747 1.391 . S
C747 H735 0.950 . S
C747 C743 1.393 . S
C747 C746 1.391 . S
H748 C756 0.950 . S
H749 C761 0.950 . S
H750 C758 0.950 . S
H751 C760 0.950 . S
H752 C762 0.950 . S
H753 C764 0.950 . S
H754 C766 0.950 . S
H755 C767 0.950 . S
C756 H748 0.950 . S
C756 C757 1.386 . S
C756 C758 1.391 . S
C757 C756 1.386 . S
C757 C761 1.393 . S
C758 H750 0.950 . S
C758 C756 1.391 . S
C758 C759 1.400 . S
C759 C758 1.400 . S
C759 C760 1.398 . S
C759 C765 1.491 . S
C760 H751 0.950 . S
C760 C759 1.398 . S
C760 C761 1.391 . S
C761 H749 0.950 . S
C761 C757 1.393 . S
C761 C760 1.391 . S
C762 H752 0.950 . S
C762 C763 1.386 . S
C762 C764 1.391 . S
C763 C762 1.386 . S
C763 C767 1.393 . S
C764 H753 0.950 . S
C764 C762 1.391 . S
C764 C765 1.400 . S
C765 C759 1.491 . S
C765 C764 1.400 . S
C765 C766 1.398 . S
C766 H754 0.950 . S
C766 C765 1.398 . S
C766 C767 1.391 . S
C767 H755 0.950 . S
C767 C763 1.393 . S
C767 C766 1.391 . S
H768 C776 0.950 . S
H769 C781 0.950 . S
H770 C778 0.950 . S
H771 C780 0.950 . S
H772 C782 0.950 . S
H773 C784 0.950 . S
H774 C786 0.950 . S
H775 C787 0.950 . S
C776 H768 0.950 . S
C776 C777 1.386 . S
C776 C778 1.391 . S
C777 C776 1.386 . S
C777 C781 1.393 . S
C778 H770 0.950 . S
C778 C776 1.391 . S
C778 C779 1.400 . S
C779 C778 1.400 . S
C779 C780 1.398 . S
C779 C785 1.491 . S
C780 H771 0.950 . S
C780 C779 1.398 . S
C780 C781 1.391 . S
C781 H769 0.950 . S
C781 C777 1.393 . S
C781 C780 1.391 . S
C782 H772 0.950 . S
C782 C783 1.386 . S
C782 C784 1.391 . S
C783 C782 1.386 . S
C783 C787 1.393 . S
C784 H773 0.950 . S
C784 C782 1.391 . S
C784 C785 1.400 . S
C785 C779 1.491 . S
C785 C784 1.400 . S
C785 C786 1.398 . S
C786 H774 0.950 . S
C786 C785 1.398 . S
C786 C787 1.391 . S
C787 H775 0.950 . S
C787 C783 1.393 . S
C787 C786 1.391 . S
H788 C796 0.950 . S
H789 C801 0.950 . S
H790 C798 0.950 . S
H791 C800 0.950 . S
H792 C802 0.950 . S
H793 C804 0.950 . S
H794 C806 0.950 . S
H795 C807 0.950 . S
C796 H788 0.950 . S
C796 C797 1.386 . S
C796 C798 1.391 . S
C797 C796 1.386 . S
C797 C801 1.393 . S
C798 H790 0.950 . S
C798 C796 1.391 . S
C798 C799 1.400 . S
C799 C798 1.400 . S
C799 C800 1.398 . S
C799 C805 1.491 . S
C800 H791 0.950 . S
C800 C799 1.398 . S
C800 C801 1.391 . S
C801 H789 0.950 . S
C801 C797 1.393 . S
C801 C800 1.391 . S
C802 H792 0.950 . S
C802 C803 1.386 . S
C802 C804 1.391 . S
C803 C802 1.386 . S
C803 C807 1.393 . S
C804 H793 0.950 . S
C804 C802 1.391 . S
C804 C805 1.400 . S
C805 C799 1.491 . S
C805 C804 1.400 . S
C805 C806 1.398 . S
C806 H794 0.950 . S
C806 C805 1.398 . S
C806 C807 1.391 . S
C807 H795 0.950 . S
C807 C803 1.393 . S
C807 C806 1.391 . S
H808 C816 0.950 . S
H809 C821 0.950 . S
H810 C818 0.950 . S
H811 C820 0.950 . S
H812 C822 0.950 . S
H813 C824 0.950 . S
H814 C826 0.950 . S
H815 C827 0.950 . S
C816 H808 0.950 . S
C816 C817 1.386 . S
C816 C818 1.391 . S
C817 C816 1.386 . S
C817 C821 1.393 . S
C818 H810 0.950 . S
C818 C816 1.391 . S
C818 C819 1.400 . S
C819 C818 1.400 . S
C819 C820 1.398 . S
C819 C825 1.491 . S
C820 H811 0.950 . S
C820 C819 1.398 . S
C820 C821 1.391 . S
C821 H809 0.950 . S
C821 C817 1.393 . S
C821 C820 1.391 . S
C822 H812 0.950 . S
C822 C823 1.386 . S
C822 C824 1.391 . S
C823 C822 1.386 . S
C823 C827 1.393 . S
C824 H813 0.950 . S
C824 C822 1.391 . S
C824 C825 1.400 . S
C825 C819 1.491 . S
C825 C824 1.400 . S
C825 C826 1.398 . S
C826 H814 0.950 . S
C826 C825 1.398 . S
C826 C827 1.391 . S
C827 H815 0.950 . S
C827 C823 1.393 . S
C827 C826 1.391 . S
H828 C836 0.950 . S
H829 C841 0.950 . S
H830 C838 0.950 . S
H831 C840 0.950 . S
H832 C842 0.950 . S
H833 C844 0.950 . S
H834 C846 0.950 . S
H835 C847 0.950 . S
C836 H828 0.950 . S
C836 C837 1.386 . S
C836 C838 1.391 . S
C837 C836 1.386 . S
C837 C841 1.393 . S
C838 H830 0.950 . S
C838 C836 1.391 . S
C838 C839 1.400 . S
C839 C838 1.400 . S
C839 C840 1.398 . S
C839 C845 1.491 . S
C840 H831 0.950 . S
C840 C839 1.398 . S
C840 C841 1.391 . S
C841 H829 0.950 . S
C841 C837 1.393 . S
C841 C840 1.391 . S
C842 H832 0.950 . S
C842 C843 1.386 . S
C842 C844 1.391 . S
C843 C842 1.386 . S
C843 C847 1.393 . S
C844 H833 0.950 . S
C844 C842 1.391 . S
C844 C845 1.400 . S
C845 C839 1.491 . S
C845 C844 1.400 . S
C845 C846 1.398 . S
C846 H834 0.950 . S
C846 C845 1.398 . S
C846 C847 1.391 . S
C847 H835 0.950 . S
C847 C843 1.393 . S
C847 C846 1.391 . S
H848 C856 0.950 . S
H849 C861 0.950 . S
H850 C858 0.950 . S
H851 C860 0.950 . S
H852 C862 0.950 . S
H853 C864 0.950 . S
H854 C866 0.950 . S
H855 C867 0.950 . S
C856 H848 0.950 . S
C856 C857 1.386 . S
C856 C858 1.391 . S
C857 C856 1.386 . S
C857 C861 1.393 . S
C858 H850 0.950 . S
C858 C856 1.391 . S
C858 C859 1.400 . S
C859 C858 1.400 . S
C859 C860 1.398 . S
C859 C865 1.491 . S
C860 H851 0.950 . S
C860 C859 1.398 . S
C860 C861 1.391 . S
C861 H849 0.950 . S
C861 C857 1.393 . S
C861 C860 1.391 . S
C862 H852 0.950 . S
C862 C863 1.386 . S
C862 C864 1.391 . S
C863 C862 1.386 . S
C863 C867 1.393 . S
C864 H853 0.950 . S
C864 C862 1.391 . S
C864 C865 1.400 . S
C865 C859 1.491 . S
C865 C864 1.400 . S
C865 C866 1.398 . S
C866 H854 0.950 . S
C866 C865 1.398 . S
C866 C867 1.391 . S
C867 H855 0.950 . S
C867 C863 1.393 . S
C867 C866 1.391 . S
H868 C876 0.950 . S
H869 C881 0.950 . S
H870 C878 0.950 . S
H871 C880 0.950 . S
H872 C882 0.950 . S
H873 C884 0.950 . S
H874 C886 0.950 . S
H875 C887 0.950 . S
C876 H868 0.950 . S
C876 C877 1.386 . S
C876 C878 1.391 . S
C877 C876 1.386 . S
C877 C881 1.393 . S
C878 H870 0.950 . S
C878 C876 1.391 . S
C878 C879 1.400 . S
C879 C878 1.400 . S
C879 C880 1.398 . S
C879 C885 1.491 . S
C880 H871 0.950 . S
C880 C879 1.398 . S
C880 C881 1.391 . S
C881 H869 0.950 . S
C881 C877 1.393 . S
C881 C880 1.391 . S
C882 H872 0.950 . S
C882 C883 1.386 . S
C882 C884 1.391 . S
C883 C882 1.386 . S
C883 C887 1.393 . S
C884 H873 0.950 . S
C884 C882 1.391 . S
C884 C885 1.400 . S
C885 C879 1.491 . S
C885 C884 1.400 . S
C885 C886 1.398 . S
C886 H874 0.950 . S
C886 C885 1.398 . S
C886 C887 1.391 . S
C887 H875 0.950 . S
C887 C883 1.393 . S
C887 C886 1.391 . S
H888 C896 0.950 1_554 S
H889 C901 0.950 . S
H890 C898 0.950 1_554 S
H891 C900 0.950 . S
H892 C902 0.950 . S
H893 C904 0.950 . S
H894 C906 0.977 . S
H895 C907 0.950 . S
C896 H888 0.950 1_556 S
C896 C897 1.386 . S
C896 C898 1.391 . S
C897 C896 1.386 . S
C897 C901 1.393 . S
C898 H890 0.950 1_556 S
C898 C896 1.391 . S
C898 C899 1.400 . S
C899 C898 1.400 . S
C899 C900 1.398 . S
C899 C905 1.491 . S
C900 H891 0.950 . S
C900 C899 1.398 . S
C900 C901 1.391 . S
C901 H889 0.950 . S
C901 C897 1.393 . S
C901 C900 1.391 . S
C902 H892 0.950 . S
C902 C903 1.386 . S
C902 C904 1.391 . S
C903 C902 1.386 . S
C903 C907 1.393 1_556 S
C904 H893 0.950 . S
C904 C902 1.391 . S
C904 C905 1.400 . S
C905 C899 1.491 . S
C905 C904 1.400 . S
C905 C906 1.374 1_556 S
C906 H894 0.977 . S
C906 C905 1.374 1_554 S
C906 C907 1.394 . S
C907 H895 0.950 . S
C907 C903 1.393 1_554 S
C907 C906 1.394 . S
H908 C916 0.950 . S
H909 C921 0.950 . S
H910 C918 0.950 . S
H911 C920 0.950 . S
H912 C922 0.950 . S
H913 C924 0.950 . S
H914 C926 0.950 . S
H915 C927 0.950 . S
C916 H908 0.950 . S
C916 C917 1.386 . S
C916 C918 1.391 . S
C917 C916 1.386 . S
C917 C921 1.393 . S
C918 H910 0.950 . S
C918 C916 1.391 . S
C918 C919 1.400 . S
C919 C918 1.400 . S
C919 C920 1.398 . S
C919 C925 1.491 . S
C920 H911 0.950 . S
C920 C919 1.398 . S
C920 C921 1.391 . S
C921 H909 0.950 . S
C921 C917 1.393 . S
C921 C920 1.391 . S
C922 H912 0.950 . S
C922 C923 1.386 . S
C922 C924 1.391 . S
C923 C922 1.386 . S
C923 C927 1.393 . S
C924 H913 0.950 . S
C924 C922 1.391 . S
C924 C925 1.400 . S
C925 C919 1.491 . S
C925 C924 1.400 . S
C925 C926 1.398 . S
C926 H914 0.950 . S
C926 C925 1.398 . S
C926 C927 1.391 . S
C927 H915 0.950 . S
C927 C923 1.393 . S
C927 C926 1.391 . S
H928 C936 0.950 . S
H929 C941 0.950 . S
H930 C938 0.950 . S
H931 C940 0.950 . S
H932 C942 0.950 . S
H933 C944 0.950 . S
H934 C946 0.950 . S
H935 C947 0.950 . S
C936 H928 0.950 . S
C936 C937 1.386 . S
C936 C938 1.391 . S
C937 C936 1.386 . S
C937 C941 1.393 . S
C938 H930 0.950 . S
C938 C936 1.391 . S
C938 C939 1.400 . S
C939 C938 1.400 . S
C939 C940 1.398 . S
C939 C945 1.491 . S
C940 H931 0.950 . S
C940 C939 1.398 . S
C940 C941 1.391 . S
C941 H929 0.950 . S
C941 C937 1.393 . S
C941 C940 1.391 . S
C942 H932 0.950 . S
C942 C943 1.386 . S
C942 C944 1.391 . S
C943 C942 1.386 . S
C943 C947 1.393 . S
C944 H933 0.950 . S
C944 C942 1.391 . S
C944 C945 1.400 . S
C945 C939 1.491 . S
C945 C944 1.400 . S
C945 C946 1.398 . S
C946 H934 0.950 . S
C946 C945 1.398 . S
C946 C947 1.391 . S
C947 H935 0.950 . S
C947 C943 1.393 . S
C947 C946 1.391 . S
H948 C956 0.950 . S
H949 C961 0.950 . S
H950 C958 0.950 . S
H951 C960 0.950 . S
H952 C962 0.950 . S
H953 C964 0.950 . S
H954 C966 0.950 . S
H955 C967 0.950 . S
C956 H948 0.950 . S
C956 C957 1.386 . S
C956 C958 1.391 . S
C957 C956 1.386 . S
C957 C961 1.393 . S
C958 H950 0.950 . S
C958 C956 1.391 . S
C958 C959 1.400 . S
C959 C958 1.400 . S
C959 C960 1.398 . S
C959 C965 1.491 . S
C960 H951 0.950 . S
C960 C959 1.398 . S
C960 C961 1.391 . S
C961 H949 0.950 . S
C961 C957 1.393 . S
C961 C960 1.391 . S
C962 H952 0.950 . S
C962 C963 1.386 . S
C962 C964 1.391 . S
C963 C962 1.386 . S
C963 C967 1.393 . S
C964 H953 0.950 . S
C964 C962 1.391 . S
C964 C965 1.400 . S
C965 C959 1.491 . S
C965 C964 1.400 . S
C965 C966 1.398 . S
C966 H954 0.950 . S
C966 C965 1.398 . S
C966 C967 1.391 . S
C967 H955 0.950 . S
C967 C963 1.393 . S
C967 C966 1.391 . S
H968 C976 0.950 . S
H969 C981 0.950 . S
H970 C978 0.950 . S
H971 C980 0.950 . S
H972 C982 0.950 . S
H973 C984 0.950 . S
H974 C986 0.950 . S
H975 C987 0.950 . S
C976 H968 0.950 . S
C976 C977 1.386 . S
C976 C978 1.391 . S
C977 C976 1.386 . S
C977 C981 1.393 . S
C978 H970 0.950 . S
C978 C976 1.391 . S
C978 C979 1.400 . S
C979 C978 1.400 . S
C979 C980 1.398 . S
C979 C985 1.491 . S
C980 H971 0.950 . S
C980 C979 1.398 . S
C980 C981 1.391 . S
C981 H969 0.950 . S
C981 C977 1.393 . S
C981 C980 1.391 . S
C982 H972 0.950 . S
C982 C983 1.386 . S
C982 C984 1.391 . S
C983 C982 1.386 . S
C983 C987 1.393 . S
C984 H973 0.950 . S
C984 C982 1.391 . S
C984 C985 1.400 . S
C985 C979 1.491 . S
C985 C984 1.400 . S
C985 C986 1.398 . S
C986 H974 0.950 . S
C986 C985 1.398 . S
C986 C987 1.391 . S
C987 H975 0.950 . S
C987 C983 1.393 . S
C987 C986 1.391 . S
H988 C996 0.950 . S
H989 C1001 0.950 . S
H990 C998 0.950 . S
H991 C1000 0.950 . S
H992 C1002 0.950 . S
H993 C1004 0.950 . S
H994 C1006 0.950 . S
H995 C1007 0.950 . S
C996 H988 0.950 . S
C996 C997 1.386 . S
C996 C998 1.391 . S
C997 C996 1.386 . S
C997 C1001 1.393 . S
C998 H990 0.950 . S
C998 C996 1.391 . S
C998 C999 1.400 . S
C999 C998 1.400 . S
C999 C1000 1.398 . S
C999 C1005 1.491 . S
C1000 H991 0.950 . S
C1000 C999 1.398 . S
C1000 C1001 1.391 . S
C1001 H989 0.950 . S
C1001 C997 1.393 . S
C1001 C1000 1.391 . S
C1002 H992 0.950 . S
C1002 C1003 1.386 . S
C1002 C1004 1.391 . S
C1003 C1002 1.386 . S
C1003 C1007 1.393 . S
C1004 H993 0.950 . S
C1004 C1002 1.391 . S
C1004 C1005 1.400 . S
C1005 C999 1.491 . S
C1005 C1004 1.400 . S
C1005 C1006 1.398 . S
C1006 H994 0.950 . S
C1006 C1005 1.398 . S
C1006 C1007 1.391 . S
C1007 H995 0.950 . S
C1007 C1003 1.393 . S
C1007 C1006 1.391 . S
H1008 C1016 0.950 . S
H1009 C1021 0.950 . S
H1010 C1018 0.950 . S
H1011 C1020 0.950 . S
H1012 C1022 0.950 . S
H1013 C1024 0.950 . S
H1014 C1026 0.950 . S
H1015 C1027 0.950 . S
C1016 H1008 0.950 . S
C1016 C1017 1.386 . S
C1016 C1018 1.391 . S
C1017 C1016 1.386 . S
C1017 C1021 1.393 . S
C1018 H1010 0.950 . S
C1018 C1016 1.391 . S
C1018 C1019 1.400 . S
C1019 C1018 1.400 . S
C1019 C1020 1.398 . S
C1019 C1025 1.491 . S
C1020 H1011 0.950 . S
C1020 C1019 1.398 . S
C1020 C1021 1.391 . S
C1021 H1009 0.950 . S
C1021 C1017 1.393 . S
C1021 C1020 1.391 . S
C1022 H1012 0.950 . S
C1022 C1023 1.386 . S
C1022 C1024 1.391 . S
C1023 C1022 1.386 . S
C1023 C1027 1.393 . S
C1024 H1013 0.950 . S
C1024 C1022 1.391 . S
C1024 C1025 1.400 . S
C1025 C1019 1.491 . S
C1025 C1024 1.400 . S
C1025 C1026 1.398 . S
C1026 H1014 0.950 . S
C1026 C1025 1.398 . S
C1026 C1027 1.391 . S
C1027 H1015 0.950 . S
C1027 C1023 1.393 . S
C1027 C1026 1.391 . S
H1028 C1036 0.950 . S
H1029 C1041 0.950 . S
H1030 C1038 0.950 . S
H1031 C1040 0.950 . S
H1032 C1042 0.950 . S
H1033 C1044 0.950 . S
H1034 C1046 0.950 . S
H1035 C1047 0.950 . S
C1036 H1028 0.950 . S
C1036 C1037 1.386 . S
C1036 C1038 1.391 . S
C1037 C1036 1.386 . S
C1037 C1041 1.393 . S
C1038 H1030 0.950 . S
C1038 C1036 1.391 . S
C1038 C1039 1.400 . S
C1039 C1038 1.400 . S
C1039 C1040 1.398 . S
C1039 C1045 1.491 . S
C1040 H1031 0.950 . S
C1040 C1039 1.398 . S
C1040 C1041 1.391 . S
C1041 H1029 0.950 . S
C1041 C1037 1.393 . S
C1041 C1040 1.391 . S
C1042 H1032 0.950 . S
C1042 C1043 1.386 . S
C1042 C1044 1.391 . S
C1043 C1042 1.386 . S
C1043 C1047 1.393 . S
C1044 H1033 0.950 . S
C1044 C1042 1.391 . S
C1044 C1045 1.400 . S
C1045 C1039 1.491 . S
C1045 C1044 1.400 . S
C1045 C1046 1.398 . S
C1046 H1034 0.950 . S
C1046 C1045 1.398 . S
C1046 C1047 1.391 . S
C1047 H1035 0.950 . S
C1047 C1043 1.393 . S
C1047 C1046 1.391 . S
H1048 C1056 0.950 . S
H1049 C1061 0.950 . S
H1050 C1058 0.950 . S
H1051 C1060 0.950 . S
H1052 C1062 0.950 . S
H1053 C1064 0.950 . S
H1054 C1066 0.950 . S
H1055 C1067 0.950 . S
C1056 H1048 0.950 . S
C1056 C1057 1.386 . S
C1056 C1058 1.391 . S
C1057 C1056 1.386 . S
C1057 C1061 1.393 . S
C1058 H1050 0.950 . S
C1058 C1056 1.391 . S
C1058 C1059 1.400 . S
C1059 C1058 1.400 . S
C1059 C1060 1.398 . S
C1059 C1065 1.491 . S
C1060 H1051 0.950 . S
C1060 C1059 1.398 . S
C1060 C1061 1.391 . S
C1061 H1049 0.950 . S
C1061 C1057 1.393 . S
C1061 C1060 1.391 . S
C1062 H1052 0.950 . S
C1062 C1063 1.386 . S
C1062 C1064 1.391 . S
C1063 C1062 1.386 . S
C1063 C1067 1.393 . S
C1064 H1053 0.950 . S
C1064 C1062 1.391 . S
C1064 C1065 1.400 . S
C1065 C1059 1.491 . S
C1065 C1064 1.400 . S
C1065 C1066 1.398 . S
C1066 H1054 0.950 . S
C1066 C1065 1.398 . S
C1066 C1067 1.391 . S
C1067 H1055 0.950 . S
C1067 C1063 1.393 . S
C1067 C1066 1.391 . S
H1068 C1076 0.950 . S
H1069 C1081 0.950 . S
H1070 C1078 0.950 . S
H1071 C1080 0.950 . S
H1072 C1082 0.950 . S
H1073 C1084 0.950 . S
H1074 C1086 0.950 . S
H1075 C1087 0.950 . S
C1076 H1068 0.950 . S
C1076 C1077 1.386 . S
C1076 C1078 1.391 . S
C1077 C1076 1.386 . S
C1077 C1081 1.393 . S
C1078 H1070 0.950 . S
C1078 C1076 1.391 . S
C1078 C1079 1.400 . S
C1079 C1078 1.400 . S
C1079 C1080 1.398 . S
C1079 C1085 1.491 . S
C1080 H1071 0.950 . S
C1080 C1079 1.398 . S
C1080 C1081 1.391 . S
C1081 H1069 0.950 . S
C1081 C1077 1.393 . S
C1081 C1080 1.391 . S
C1082 H1072 0.950 . S
C1082 C1083 1.386 . S
C1082 C1084 1.391 . S
C1083 C1082 1.386 . S
C1083 C1087 1.393 . S
C1084 H1073 0.950 . S
C1084 C1082 1.391 . S
C1084 C1085 1.400 . S
C1085 C1079 1.491 . S
C1085 C1084 1.400 . S
C1085 C1086 1.398 . S
C1086 H1074 0.950 . S
C1086 C1085 1.398 . S
C1086 C1087 1.391 . S
C1087 H1075 0.950 . S
C1087 C1083 1.393 . S
C1087 C1086 1.391 . S
H1088 C1096 0.950 . S
H1089 C1101 0.950 . S
H1090 C1098 0.950 . S
H1091 C1100 0.950 . S
H1092 C1102 0.950 . S
H1093 C1104 0.950 . S
H1094 C1106 0.950 . S
H1095 C1107 0.950 . S
C1096 H1088 0.950 . S
C1096 C1097 1.386 . S
C1096 C1098 1.391 . S
C1097 C1096 1.386 . S
C1097 C1101 1.393 . S
C1098 H1090 0.950 . S
C1098 C1096 1.391 . S
C1098 C1099 1.400 . S
C1099 C1098 1.400 . S
C1099 C1100 1.398 . S
C1099 C1105 1.491 . S
C1100 H1091 0.950 . S
C1100 C1099 1.398 . S
C1100 C1101 1.391 . S
C1101 H1089 0.950 . S
C1101 C1097 1.393 . S
C1101 C1100 1.391 . S
C1102 H1092 0.950 . S
C1102 C1103 1.386 . S
C1102 C1104 1.391 . S
C1103 C1102 1.386 . S
C1103 C1107 1.393 . S
C1104 H1093 0.950 . S
C1104 C1102 1.391 . S
C1104 C1105 1.400 . S
C1105 C1099 1.491 . S
C1105 C1104 1.400 . S
C1105 C1106 1.398 . S
C1106 H1094 0.950 . S
C1106 C1105 1.398 . S
C1106 C1107 1.391 . S
C1107 H1095 0.950 . S
C1107 C1103 1.393 . S
C1107 C1106 1.391 . S
H1108 C1116 0.950 . S
H1109 C1121 0.950 . S
H1110 C1118 0.950 . S
H1111 C1120 0.950 . S
H1112 C1122 0.950 . S
H1113 C1124 0.950 . S
H1114 C1126 0.950 . S
H1115 C1127 0.950 . S
C1116 H1108 0.950 . S
C1116 C1117 1.386 . S
C1116 C1118 1.391 . S
C1117 C1116 1.386 . S
C1117 C1121 1.393 . S
C1118 H1110 0.950 . S
C1118 C1116 1.391 . S
C1118 C1119 1.400 . S
C1119 C1118 1.400 . S
C1119 C1120 1.398 . S
C1119 C1125 1.491 . S
C1120 H1111 0.950 . S
C1120 C1119 1.398 . S
C1120 C1121 1.391 . S
C1121 H1109 0.950 . S
C1121 C1117 1.393 . S
C1121 C1120 1.391 . S
C1122 H1112 0.950 . S
C1122 C1123 1.386 . S
C1122 C1124 1.391 . S
C1123 C1122 1.386 . S
C1123 C1127 1.393 . S
C1124 H1113 0.950 . S
C1124 C1122 1.391 . S
C1124 C1125 1.400 . S
C1125 C1119 1.491 . S
C1125 C1124 1.400 . S
C1125 C1126 1.398 . S
C1126 H1114 0.950 . S
C1126 C1125 1.398 . S
C1126 C1127 1.391 . S
C1127 H1115 0.950 . S
C1127 C1123 1.393 . S
C1127 C1126 1.391 . S
H1128 C1136 0.950 . S
H1129 C1141 0.950 . S
H1130 C1138 0.950 . S
H1131 C1140 0.950 . S
H1132 C1142 0.950 . S
H1133 C1144 0.950 . S
H1134 C1146 0.950 . S
H1135 C1147 0.950 . S
C1136 H1128 0.950 . S
C1136 C1137 1.386 . S
C1136 C1138 1.391 . S
C1137 C1136 1.386 . S
C1137 C1141 1.393 . S
C1138 H1130 0.950 . S
C1138 C1136 1.391 . S
C1138 C1139 1.400 . S
C1139 C1138 1.400 . S
C1139 C1140 1.398 . S
C1139 C1145 1.491 . S
C1140 H1131 0.950 . S
C1140 C1139 1.398 . S
C1140 C1141 1.391 . S
C1141 H1129 0.950 . S
C1141 C1137 1.393 . S
C1141 C1140 1.391 . S
C1142 H1132 0.950 . S
C1142 C1143 1.386 . S
C1142 C1144 1.391 . S
C1143 C1142 1.386 . S
C1143 C1147 1.393 . S
C1144 H1133 0.950 . S
C1144 C1142 1.391 . S
C1144 C1145 1.400 . S
C1145 C1139 1.491 . S
C1145 C1144 1.400 . S
C1145 C1146 1.398 . S
C1146 H1134 0.950 . S
C1146 C1145 1.398 . S
C1146 C1147 1.391 . S
C1147 H1135 0.950 . S
C1147 C1143 1.393 . S
C1147 C1146 1.391 . S
H1148 C1156 0.950 . S
H1149 C1161 0.950 . S
H1150 C1158 0.950 . S
H1151 C1160 0.950 . S
H1152 C1162 0.950 . S
H1153 C1164 0.950 . S
H1154 C1166 0.950 . S
H1155 C1167 0.950 . S
C1156 H1148 0.950 . S
C1156 C1157 1.386 . S
C1156 C1158 1.391 . S
C1157 C1156 1.386 . S
C1157 C1161 1.393 . S
C1158 H1150 0.950 . S
C1158 C1156 1.391 . S
C1158 C1159 1.400 . S
C1159 C1158 1.400 . S
C1159 C1160 1.398 . S
C1159 C1165 1.491 . S
C1160 H1151 0.950 . S
C1160 C1159 1.398 . S
C1160 C1161 1.391 . S
C1161 H1149 0.950 . S
C1161 C1157 1.393 . S
C1161 C1160 1.391 . S
C1162 H1152 0.950 . S
C1162 C1163 1.386 . S
C1162 C1164 1.391 . S
C1163 C1162 1.386 . S
C1163 C1167 1.393 . S
C1164 H1153 0.950 . S
C1164 C1162 1.391 . S
C1164 C1165 1.400 . S
C1165 C1159 1.491 . S
C1165 C1164 1.400 . S
C1165 C1166 1.398 . S
C1166 H1154 0.950 . S
C1166 C1165 1.398 . S
C1166 C1167 1.391 . S
C1167 H1155 0.950 . S
C1167 C1163 1.393 . S
C1167 C1166 1.391 . S
H1168 C1176 0.950 . S
H1169 C1181 0.950 . S
H1170 C1178 0.950 . S
H1171 C1180 0.950 . S
H1172 C1182 0.950 . S
H1173 C1184 0.950 . S
H1174 C1186 0.950 . S
H1175 C1187 0.950 . S
C1176 H1168 0.950 . S
C1176 C1177 1.386 . S
C1176 C1178 1.391 . S
C1177 C1176 1.386 . S
C1177 C1181 1.393 . S
C1178 H1170 0.950 . S
C1178 C1176 1.391 . S
C1178 C1179 1.400 . S
C1179 C1178 1.400 . S
C1179 C1180 1.398 . S
C1179 C1185 1.491 . S
C1180 H1171 0.950 . S
C1180 C1179 1.398 . S
C1180 C1181 1.391 . S
C1181 H1169 0.950 . S
C1181 C1177 1.393 . S
C1181 C1180 1.391 . S
C1182 H1172 0.950 . S
C1182 C1183 1.386 . S
C1182 C1184 1.391 . S
C1183 C1182 1.386 . S
C1183 C1187 1.393 . S
C1184 H1173 0.950 . S
C1184 C1182 1.391 . S
C1184 C1185 1.400 . S
C1185 C1179 1.491 . S
C1185 C1184 1.400 . S
C1185 C1186 1.398 . S
C1186 H1174 0.950 . S
C1186 C1185 1.398 . S
C1186 C1187 1.391 . S
C1187 H1175 0.950 . S
C1187 C1183 1.393 . S
C1187 C1186 1.391 . S
H1188 C1196 0.950 . S
H1189 C1201 0.950 . S
H1190 C1198 0.950 . S
H1191 C1200 0.950 . S
H1192 C1202 0.950 . S
H1193 C1204 0.950 . S
H1194 C1206 0.950 . S
H1195 C1207 0.950 . S
C1196 H1188 0.950 . S
C1196 C1197 1.386 . S
C1196 C1198 1.391 . S
C1197 C1196 1.386 . S
C1197 C1201 1.393 . S
C1198 H1190 0.950 . S
C1198 C1196 1.391 . S
C1198 C1199 1.400 . S
C1199 C1198 1.400 . S
C1199 C1200 1.398 . S
C1199 C1205 1.491 . S
C1200 H1191 0.950 . S
C1200 C1199 1.398 . S
C1200 C1201 1.391 . S
C1201 H1189 0.950 . S
C1201 C1197 1.393 . S
C1201 C1200 1.391 . S
C1202 H1192 0.950 . S
C1202 C1203 1.386 . S
C1202 C1204 1.391 . S
C1203 C1202 1.386 . S
C1203 C1207 1.393 . S
C1204 H1193 0.950 . S
C1204 C1202 1.391 . S
C1204 C1205 1.400 . S
C1205 C1199 1.491 . S
C1205 C1204 1.400 . S
C1205 C1206 1.398 . S
C1206 H1194 0.950 . S
C1206 C1205 1.398 . S
C1206 C1207 1.391 . S
C1207 H1195 0.950 . S
C1207 C1203 1.393 . S
C1207 C1206 1.391 . S
H1208 C1216 0.950 . S
H1209 C1221 0.950 . S
H1210 C1218 0.950 . S
H1211 C1220 0.950 . S
H1212 C1222 0.950 . S
H1213 C1224 0.950 . S
H1214 C1226 0.950 . S
H1215 C1227 0.950 . S
C1216 H1208 0.950 . S
C1216 C1217 1.386 . S
C1216 C1218 1.391 . S
C1217 C1216 1.386 . S
C1217 C1221 1.393 . S
C1218 H1210 0.950 . S
C1218 C1216 1.391 . S
C1218 C1219 1.400 . S
C1219 C1218 1.400 . S
C1219 C1220 1.398 . S
C1219 C1225 1.491 . S
C1220 H1211 0.950 . S
C1220 C1219 1.398 . S
C1220 C1221 1.391 . S
C1221 H1209 0.950 . S
C1221 C1217 1.393 . S
C1221 C1220 1.391 . S
C1222 H1212 0.950 . S
C1222 C1223 1.386 . S
C1222 C1224 1.391 . S
C1223 C1222 1.386 . S
C1223 C1227 1.393 . S
C1224 H1213 0.950 . S
C1224 C1222 1.391 . S
C1224 C1225 1.400 . S
C1225 C1219 1.491 . S
C1225 C1224 1.400 . S
C1225 C1226 1.398 . S
C1226 H1214 0.950 . S
C1226 C1225 1.398 . S
C1226 C1227 1.391 . S
C1227 H1215 0.950 . S
C1227 C1223 1.393 . S
C1227 C1226 1.391 . S
H1228 C1236 0.950 . S
H1229 C1241 0.950 . S
H1230 C1238 0.950 . S
H1231 C1240 0.950 . S
H1232 C1242 0.950 . S
H1233 C1244 0.950 . S
H1234 C1246 0.950 . S
H1235 C1247 0.950 . S
C1236 H1228 0.950 . S
C1236 C1237 1.386 . S
C1236 C1238 1.391 . S
C1237 C1236 1.386 . S
C1237 C1241 1.393 . S
C1238 H1230 0.950 . S
C1238 C1236 1.391 . S
C1238 C1239 1.400 . S
C1239 C1238 1.400 . S
C1239 C1240 1.398 . S
C1239 C1245 1.491 . S
C1240 H1231 0.950 . S
C1240 C1239 1.398 . S
C1240 C1241 1.391 . S
C1241 H1229 0.950 . S
C1241 C1237 1.393 . S
C1241 C1240 1.391 . S
C1242 H1232 0.950 . S
C1242 C1243 1.386 . S
C1242 C1244 1.391 . S
C1243 C1242 1.386 . S
C1243 C1247 1.393 . S
C1244 H1233 0.950 . S
C1244 C1242 1.391 . S
C1244 C1245 1.400 . S
C1245 C1239 1.491 . S
C1245 C1244 1.400 . S
C1245 C1246 1.398 . S
C1246 H1234 0.950 . S
C1246 C1245 1.398 . S
C1246 C1247 1.391 . S
C1247 H1235 0.950 . S
C1247 C1243 1.393 . S
C1247 C1246 1.391 . S
C623 C521 1.463 . S
C617 C35 1.308 . S
C643 C535 1.446 . S
C637 C115 1.312 . S
C663 C543 1.486 . S
C657 C177 1.352 . S
C677 C221 1.285 . S
C683 C501 1.456 . S
C697 C283 1.295 . S
C703 C507 1.430 1_556 S
C717 C363 1.324 . S
C723 C515 1.455 . S
C743 C529 1.547 . S
C737 C407 1.366 . S
C763 C549 1.488 . S
C757 C469 1.309 . S
C777 C159 1.266 . S
C783 C577 1.437 . S
C803 C591 1.525 . S
C797 C239 1.392 . S
C817 C53 1.308 . S
C823 C599 1.456 . S
C843 C563 1.395 . S
C837 C97 1.222 . S
C857 C425 1.348 . S
C863 C557 1.489 . S
C877 C487 1.319 . S
C883 C571 1.476 . S
C903 C585 1.476 . S
C897 C301 1.314 . S
C917 C345 1.323 . S
C923 C605 1.508 . S
C943 C524 1.829 . S
C937 C29 1.859 . S
C963 C547 1.865 . S
C957 C109 1.828 . S
C977 C171 1.825 . S
C983 C505 1.872 . S
C997 C215 1.888 . S
C1003 C510 1.853 . S
C1017 C277 1.850 . S
C1023 C538 1.822 . S
C1043 C496 1.840 . S
C1037 C357 1.831 . S
C1063 C519 1.875 . S
C1057 C401 1.867 . S
C1083 C533 1.881 . S
C1077 C463 1.870 . S
C1103 C580 1.823 . S
C1097 C153 1.854 . S
C1123 C603 1.859 . S
C1117 C233 1.829 . S
C1137 C47 1.815 . S
C1143 C552 1.824 . S
C1163 C566 1.817 . S
C1157 C91 1.840 . S
C1183 C594 1.858 . S
C1177 C419 1.847 . S
C1197 C481 1.842 . S
C1203 C561 1.892 . S
C1223 C575 1.887 . S
C1217 C295 1.851 . S
C1243 C589 1.889 . S
C1237 C339 1.880 . S
