# Generated by pormake.
# Topology ctn, (3,4)-cn, num edge types: 1
# Building blocks:
#     Node 0, Type 0, BuildingBlock: CUQRIR_clean_linker_1, # of connection points: 3
#     Node 1, Type 0, BuildingBlock: CUQRIR_clean_linker_1, # of connection points: 3
#     Node 2, Type 0, BuildingBlock: CUQRIR_clean_linker_1, # of connection points: 3
#     Node 3, Type 0, BuildingBlock: CUQRIR_clean_linker_1, # of connection points: 3
#     Node 4, Type 0, BuildingBlock: CUQRIR_clean_linker_1, # of connection points: 3
#     Node 5, Type 0, BuildingBlock: CUQRIR_clean_linker_1, # of connection points: 3
#     Node 6, Type 0, BuildingBlock: CUQRIR_clean_linker_1, # of connection points: 3
#     Node 7, Type 0, BuildingBlock: CUQRIR_clean_linker_1, # of connection points: 3
#     Node 8, Type 0, BuildingBlock: CUQRIR_clean_linker_1, # of connection points: 3
#     Node 9, Type 0, BuildingBlock: CUQRIR_clean_linker_1, # of connection points: 3
#     Node 10, Type 0, BuildingBlock: CUQRIR_clean_linker_1, # of connection points: 3
#     Node 11, Type 0, BuildingBlock: CUQRIR_clean_linker_1, # of connection points: 3
#     Node 12, Type 0, BuildingBlock: CUQRIR_clean_linker_1, # of connection points: 3
#     Node 13, Type 0, BuildingBlock: CUQRIR_clean_linker_1, # of connection points: 3
#     Node 14, Type 0, BuildingBlock: CUQRIR_clean_linker_1, # of connection points: 3
#     Node 15, Type 0, BuildingBlock: CUQRIR_clean_linker_1, # of connection points: 3
#     Node 16, Type 1, BuildingBlock: AZAVOO_clean_sbu_0, # of connection points: 4
#     Node 17, Type 1, BuildingBlock: AZAVOO_clean_sbu_0, # of connection points: 4
#     Node 18, Type 1, BuildingBlock: AZAVOO_clean_sbu_0, # of connection points: 4
#     Node 19, Type 1, BuildingBlock: AZAVOO_clean_sbu_0, # of connection points: 4
#     Node 20, Type 1, BuildingBlock: AZAVOO_clean_sbu_0, # of connection points: 4
#     Node 21, Type 1, BuildingBlock: AZAVOO_clean_sbu_0, # of connection points: 4
#     Node 22, Type 1, BuildingBlock: AZAVOO_clean_sbu_0, # of connection points: 4
#     Node 23, Type 1, BuildingBlock: AZAVOO_clean_sbu_0, # of connection points: 4
#     Node 24, Type 1, BuildingBlock: AZAVOO_clean_sbu_0, # of connection points: 4
#     Node 25, Type 1, BuildingBlock: AZAVOO_clean_sbu_0, # of connection points: 4
#     Node 26, Type 1, BuildingBlock: AZAVOO_clean_sbu_0, # of connection points: 4
#     Node 27, Type 1, BuildingBlock: AZAVOO_clean_sbu_0, # of connection points: 4
#     Edge 28, Type (0, 1), BuildingBlock: EZIPEK_clean_linker_0, # of connection points: 2
#     Edge 29, Type (0, 1), BuildingBlock: EZIPEK_clean_linker_0, # of connection points: 2
#     Edge 30, Type (0, 1), BuildingBlock: EZIPEK_clean_linker_0, # of connection points: 2
#     Edge 31, Type (0, 1), BuildingBlock: EZIPEK_clean_linker_0, # of connection points: 2
#     Edge 32, Type (0, 1), BuildingBlock: EZIPEK_clean_linker_0, # of connection points: 2
#     Edge 33, Type (0, 1), BuildingBlock: EZIPEK_clean_linker_0, # of connection points: 2
#     Edge 34, Type (0, 1), BuildingBlock: EZIPEK_clean_linker_0, # of connection points: 2
#     Edge 35, Type (0, 1), BuildingBlock: EZIPEK_clean_linker_0, # of connection points: 2
#     Edge 36, Type (0, 1), BuildingBlock: EZIPEK_clean_linker_0, # of connection points: 2
#     Edge 37, Type (0, 1), BuildingBlock: EZIPEK_clean_linker_0, # of connection points: 2
#     Edge 38, Type (0, 1), BuildingBlock: EZIPEK_clean_linker_0, # of connection points: 2
#     Edge 39, Type (0, 1), BuildingBlock: EZIPEK_clean_linker_0, # of connection points: 2
#     Edge 40, Type (0, 1), BuildingBlock: EZIPEK_clean_linker_0, # of connection points: 2
#     Edge 41, Type (0, 1), BuildingBlock: EZIPEK_clean_linker_0, # of connection points: 2
#     Edge 42, Type (0, 1), BuildingBlock: EZIPEK_clean_linker_0, # of connection points: 2
#     Edge 43, Type (0, 1), BuildingBlock: EZIPEK_clean_linker_0, # of connection points: 2
#     Edge 44, Type (0, 1), BuildingBlock: EZIPEK_clean_linker_0, # of connection points: 2
#     Edge 45, Type (0, 1), BuildingBlock: EZIPEK_clean_linker_0, # of connection points: 2
#     Edge 46, Type (0, 1), BuildingBlock: EZIPEK_clean_linker_0, # of connection points: 2
#     Edge 47, Type (0, 1), BuildingBlock: EZIPEK_clean_linker_0, # of connection points: 2
#     Edge 48, Type (0, 1), BuildingBlock: EZIPEK_clean_linker_0, # of connection points: 2
#     Edge 49, Type (0, 1), BuildingBlock: EZIPEK_clean_linker_0, # of connection points: 2
#     Edge 50, Type (0, 1), BuildingBlock: EZIPEK_clean_linker_0, # of connection points: 2
#     Edge 51, Type (0, 1), BuildingBlock: EZIPEK_clean_linker_0, # of connection points: 2
#     Edge 52, Type (0, 1), BuildingBlock: EZIPEK_clean_linker_0, # of connection points: 2
#     Edge 53, Type (0, 1), BuildingBlock: EZIPEK_clean_linker_0, # of connection points: 2
#     Edge 54, Type (0, 1), BuildingBlock: EZIPEK_clean_linker_0, # of connection points: 2
#     Edge 55, Type (0, 1), BuildingBlock: EZIPEK_clean_linker_0, # of connection points: 2
#     Edge 56, Type (0, 1), BuildingBlock: EZIPEK_clean_linker_0, # of connection points: 2
#     Edge 57, Type (0, 1), BuildingBlock: EZIPEK_clean_linker_0, # of connection points: 2
#     Edge 58, Type (0, 1), BuildingBlock: EZIPEK_clean_linker_0, # of connection points: 2
#     Edge 59, Type (0, 1), BuildingBlock: EZIPEK_clean_linker_0, # of connection points: 2
#     Edge 60, Type (0, 1), BuildingBlock: EZIPEK_clean_linker_0, # of connection points: 2
#     Edge 61, Type (0, 1), BuildingBlock: EZIPEK_clean_linker_0, # of connection points: 2
#     Edge 62, Type (0, 1), BuildingBlock: EZIPEK_clean_linker_0, # of connection points: 2
#     Edge 63, Type (0, 1), BuildingBlock: EZIPEK_clean_linker_0, # of connection points: 2
#     Edge 64, Type (0, 1), BuildingBlock: EZIPEK_clean_linker_0, # of connection points: 2
#     Edge 65, Type (0, 1), BuildingBlock: EZIPEK_clean_linker_0, # of connection points: 2
#     Edge 66, Type (0, 1), BuildingBlock: EZIPEK_clean_linker_0, # of connection points: 2
#     Edge 67, Type (0, 1), BuildingBlock: EZIPEK_clean_linker_0, # of connection points: 2
#     Edge 68, Type (0, 1), BuildingBlock: EZIPEK_clean_linker_0, # of connection points: 2
#     Edge 69, Type (0, 1), BuildingBlock: EZIPEK_clean_linker_0, # of connection points: 2
#     Edge 70, Type (0, 1), BuildingBlock: EZIPEK_clean_linker_0, # of connection points: 2
#     Edge 71, Type (0, 1), BuildingBlock: EZIPEK_clean_linker_0, # of connection points: 2
#     Edge 72, Type (0, 1), BuildingBlock: EZIPEK_clean_linker_0, # of connection points: 2
#     Edge 73, Type (0, 1), BuildingBlock: EZIPEK_clean_linker_0, # of connection points: 2
#     Edge 74, Type (0, 1), BuildingBlock: EZIPEK_clean_linker_0, # of connection points: 2
#     Edge 75, Type (0, 1), BuildingBlock: EZIPEK_clean_linker_0, # of connection points: 2
# Relax obj value: 0.084
# Max RMSD: 0.206
# Mean RMSD: 0.131
data_MOF--net-ctn--node1-AZAVOO_clean_sbu_0--node2-CUQRIR_clean_linker_1--edge1-EZIPEK_clean_linker_0
_symmetry_space_group_name_H-M    P1
_symmetry_Int_Tables_number       1
_symmetry_cell_setting            triclinic
loop_
_symmetry_equiv_pos_as_xyz
'x, y, z'
_cell_length_a     36.155302
_cell_length_b     34.175819
_cell_length_c     35.029556
_cell_angle_alpha  97.470032
_cell_angle_beta   92.034731
_cell_angle_gamma 96.834307
loop_
_atom_site_label
_atom_site_type_symbol
_atom_site_fract_x
_atom_site_fract_y
_atom_site_fract_z
_atom_type_partial_charge
C0 C 0.03751 0.99212 0.06733 0.0
N1 N 0.05393 0.00237 0.03515 0.0
N2 N 0.00513 0.00776 0.07196 0.0
C3 C 0.05319 0.96673 0.09434 0.0
C4 C 1.00188 0.02754 0.04141 0.0
N5 N 0.03143 0.02465 0.01879 0.0
C6 C 0.97166 0.0534 0.03606 0.0
H7 H 0.04035 0.97018 0.12268 0.0
H8 H 0.08388 0.97451 0.09848 0.0
H9 H 0.04746 0.93507 0.08143 0.0
H10 H 0.98067 0.08368 0.0515 0.0
H11 H 0.94543 0.04145 0.04827 0.0
H12 H 0.96627 0.05569 0.00511 0.0
C13 C 0.29576 0.72713 0.22422 0.0
N14 N 0.30593 0.70883 0.25428 0.0
N15 N 0.31532 0.76346 0.22571 0.0
C16 C 0.26546 0.7102 0.19392 0.0
C17 C 0.3388 0.76653 0.25722 0.0
N18 N 0.33343 0.73316 0.2746 0.0
C19 C 0.36704 0.80183 0.27097 0.0
H20 H 0.27308 0.71884 0.16549 0.0
H21 H 0.23929 0.72261 0.2016 0.0
H22 H 0.2604 0.67729 0.19165 0.0
H23 H 0.36585 0.80984 0.3026 0.0
H24 H 0.36232 0.82773 0.25616 0.0
H25 H 0.39535 0.79384 0.26515 0.0
C26 C 0.98405 0.5013 0.10405 0.0
N27 N 1.00255 0.4689 0.10058 0.0
N28 N 0.95246 0.49457 0.08123 0.0
C29 C 0.99761 0.54 0.12887 0.0
C30 C 0.95204 0.45694 0.06373 0.0
N31 N 0.98284 0.44119 0.07471 0.0
C32 C 0.92188 0.43625 0.03485 0.0
H33 H 1.00073 0.53485 0.15937 0.0
H34 H 0.97822 0.56253 0.12669 0.0
H35 H 0.02554 0.55161 0.12004 0.0
H36 H 0.92782 0.44501 0.00607 0.0
H37 H 0.89444 0.4455 0.04269 0.0
H38 H 0.92044 0.40345 0.03309 0.0
C39 C 0.68081 0.77808 0.21002 0.0
N40 N 0.71362 0.79781 0.20175 0.0
N41 N 0.66764 0.79671 0.24222 0.0
C42 C 0.66372 0.73852 0.18912 0.0
C43 C 0.69339 0.82855 0.25325 0.0
N44 N 0.72178 0.82901 0.2291 0.0
C45 C 0.69172 0.85767 0.289 0.0
H46 H 0.66563 0.73802 0.15753 0.0
H47 H 0.63411 0.73181 0.19602 0.0
H48 H 0.67954 0.715 0.19798 0.0
H49 H 0.70323 0.84539 0.31406 0.0
H50 H 0.66237 0.8622 0.29438 0.0
H51 H 0.70829 0.88665 0.28658 0.0
C52 C 0.02548 0.99203 0.49808 0.0
N53 N 0.05749 0.99212 0.51995 0.0
N54 N 0.02921 0.02024 0.47429 0.0
C55 C 0.99182 0.96097 0.49643 0.0
C56 C 0.06389 0.03933 0.4838 0.0
N57 N 0.08168 0.02194 0.51065 0.0
C58 C 0.08139 0.07374 0.46493 0.0
H59 H 0.99271 0.9385 0.47069 0.0
H60 H 0.96567 0.97441 0.49362 0.0
H61 H 0.99088 0.94595 0.52267 0.0
H62 H 0.06228 0.08185 0.4426 0.0
H63 H 0.10751 0.06606 0.45177 0.0
H64 H 0.08886 0.10016 0.48693 0.0
C65 C 0.18538 0.74064 0.78659 0.0
N66 N 0.20754 0.72265 0.80892 0.0
N67 N 0.16935 0.71458 0.75642 0.0
C68 C 0.17953 0.78373 0.7946 0.0
C69 C 0.18273 0.68006 0.76129 0.0
N70 N 0.20645 0.68502 0.79279 0.0
C71 C 0.17347 0.64142 0.73497 0.0
H72 H 0.15776 0.78699 0.81592 0.0
H73 H 0.17061 0.79516 0.76797 0.0
H74 H 0.20556 0.80196 0.80731 0.0
H75 H 0.14714 0.64088 0.71754 0.0
H76 H 0.17086 0.61622 0.75212 0.0
H77 H 0.19655 0.63728 0.71537 0.0
C78 C 0.95757 0.48398 0.45296 0.0
N79 N 0.98152 0.51777 0.45366 0.0
N80 N 0.92912 0.49052 0.47596 0.0
C81 C 0.96205 0.44456 0.43025 0.0
C82 C 0.93652 0.52917 0.49099 0.0
N83 N 0.96855 0.54585 0.47785 0.0
C84 C 0.91334 0.55001 0.52011 0.0
H85 H 0.94689 0.44216 0.40178 0.0
H86 H 0.94991 0.41974 0.44524 0.0
H87 H 0.99185 0.44187 0.42543 0.0
H88 H 0.92428 0.54718 0.54949 0.0
H89 H 0.8838 0.53632 0.51674 0.0
H90 H 0.91489 0.58211 0.51724 0.0
C91 C 0.77925 0.776 0.81682 0.0
N92 N 0.80696 0.75322 0.80861 0.0
N93 N 0.77179 0.79593 0.78735 0.0
C94 C 0.75948 0.77901 0.85407 0.0
C95 C 0.79565 0.78456 0.76055 0.0
N96 N 0.81781 0.75887 0.77325 0.0
C97 C 0.79933 0.8015 0.72308 0.0
H98 H 0.73733 0.7534 0.8528 0.0
H99 H 0.74614 0.80669 0.85902 0.0
H100 H 0.77923 0.77789 0.87876 0.0
H101 H 0.81649 0.83103 0.72843 0.0
H102 H 0.77151 0.80588 0.71116 0.0
H103 H 0.81276 0.7817 0.70159 0.0
C104 C 0.28229 0.27945 0.32014 0.0
N105 N 0.31027 0.25683 0.31239 0.0
N106 N 0.27539 0.29968 0.2907 0.0
C107 C 0.26126 0.28154 0.3566 0.0
C108 C 0.29992 0.2888 0.26443 0.0
N109 N 0.32179 0.263 0.27737 0.0
C110 C 0.30432 0.30601 0.22715 0.0
H111 H 0.23818 0.25668 0.35355 0.0
H112 H 0.24889 0.30977 0.3622 0.0
H113 H 0.27983 0.27855 0.38167 0.0
H114 H 0.3219 0.33526 0.23289 0.0
H115 H 0.27684 0.31095 0.21486 0.0
H116 H 0.31772 0.28611 0.20572 0.0
C117 C 0.49364 0.00405 0.59841 0.0
N118 N 0.5116 0.97124 0.59529 0.0
N119 N 0.46189 0.99753 0.57583 0.0
C120 C 0.50726 0.04252 0.62358 0.0
C121 C 0.46085 0.95966 0.55877 0.0
N122 N 0.49136 0.94349 0.56989 0.0
C123 C 0.4303 0.93899 0.53037 0.0
H124 H 0.50481 0.03813 0.65426 0.0
H125 H 0.49096 0.06675 0.61756 0.0
H126 H 0.53717 0.05135 0.61914 0.0
H127 H 0.43635 0.94687 0.50129 0.0
H128 H 0.40313 0.94904 0.53808 0.0
H129 H 0.42827 0.90621 0.52932 0.0
C130 C 0.17482 0.28256 0.71426 0.0
N131 N 0.20884 0.29711 0.70339 0.0
N132 N 0.16602 0.30366 0.74732 0.0
C133 C 0.15087 0.24619 0.69413 0.0
C134 C 0.19506 0.33264 0.75563 0.0
N135 N 0.22106 0.32892 0.729 0.0
C136 C 0.1997 0.36219 0.79173 0.0
H137 H 0.15865 0.23881 0.66392 0.0
H138 H 0.12108 0.25104 0.69429 0.0
H139 H 0.15402 0.22063 0.71 0.0
H140 H 0.22126 0.35378 0.81141 0.0
H141 H 0.17319 0.36298 0.80666 0.0
H142 H 0.20956 0.39231 0.78478 0.0
C143 C 0.78234 0.24131 0.73925 0.0
N144 N 0.79816 0.22068 0.76452 0.0
N145 N 0.80419 0.27545 0.7361 0.0
C146 C 0.746 0.22741 0.71624 0.0
C147 C 0.83378 0.27548 0.76103 0.0
N148 N 0.82999 0.24235 0.779 0.0
C149 C 0.86646 0.30755 0.76745 0.0
H150 H 0.75208 0.21383 0.68697 0.0
H151 H 0.73012 0.25264 0.7129 0.0
H152 H 0.72812 0.20517 0.73004 0.0
H153 H 0.86143 0.32959 0.79226 0.0
H154 H 0.87011 0.32333 0.74185 0.0
H155 H 0.89239 0.29485 0.77425 0.0
C156 C 0.52136 0.49124 0.56306 0.0
N157 N 0.54191 0.50196 0.53342 0.0
N158 N 0.49678 0.51724 0.57268 0.0
C159 C 0.52716 0.4571 0.58478 0.0
C160 C 0.50243 0.54411 0.54793 0.0
N161 N 0.52952 0.535 0.52372 0.0
C162 C 0.48123 0.57949 0.54734 0.0
H163 H 0.50013 0.44351 0.59409 0.0
H164 H 0.54526 0.46844 0.61107 0.0
H165 H 0.54061 0.43408 0.56693 0.0
H166 H 0.47116 0.5893 0.57611 0.0
H167 H 0.45651 0.57101 0.527 0.0
H168 H 0.49887 0.60473 0.53751 0.0
C169 C 0.52432 0.49316 1.00078 0.0
N170 N 0.55653 0.49403 0.02253 0.0
N171 N 0.52716 0.52159 0.97721 0.0
C172 C 0.49136 0.4612 0.99901 0.0
C173 C 0.56141 0.54171 0.98686 0.0
N174 N 0.5799 0.5247 0.01352 0.0
C175 C 0.57794 0.5766 0.96806 0.0
H176 H 0.49273 0.43896 0.9732 0.0
H177 H 0.46477 0.47384 0.99628 0.0
H178 H 0.49089 0.44608 0.02518 0.0
H179 H 0.55837 0.58429 0.94592 0.0
H180 H 0.60419 0.56974 0.95469 0.0
H181 H 0.58496 0.60303 0.99014 0.0
C182 C 0.6886 0.2447 0.28911 0.0
N183 N 0.71113 0.22711 0.31147 0.0
N184 N 0.67347 0.21872 0.25846 0.0
C185 C 0.68167 0.28743 0.29754 0.0
C186 C 0.6879 0.18468 0.263 0.0
N187 N 0.71141 0.18987 0.29469 0.0
C188 C 0.67968 0.14616 0.23629 0.0
H189 H 0.65967 0.2898 0.31871 0.0
H190 H 0.67259 0.29896 0.27102 0.0
H191 H 0.70732 0.30612 0.31062 0.0
H192 H 0.65313 0.14486 0.21904 0.0
H193 H 0.67808 0.12072 0.25314 0.0
H194 H 0.70279 0.14315 0.21653 0.0
C195 C 0.46502 0.98527 0.95403 0.0
N196 N 0.48768 0.02003 0.95513 0.0
N197 N 0.43495 0.99062 0.97497 0.0
C198 C 0.47208 0.94614 0.93247 0.0
C199 C 0.44004 0.02957 0.98926 0.0
N200 N 0.4723 0.04762 0.97772 0.0
C201 C 0.41441 0.04937 0.01636 0.0
H202 H 0.45815 0.94254 0.90328 0.0
H203 H 0.46025 0.92113 0.94738 0.0
H204 H 0.50239 0.94502 0.92935 0.0
H205 H 0.42262 0.04551 0.04633 0.0
H206 H 0.38515 0.03542 0.01001 0.0
H207 H 0.41622 0.08167 0.01435 0.0
Mg208 Mg 0.23159 0.85351 0.04133 0.0
O209 O 0.28624 0.88792 0.0259 0.0
O210 O 0.3294 0.84571 0.02349 0.0
Mg211 Mg 0.3044 0.78679 0.04241 0.0
C212 C 0.31916 0.87952 0.01963 0.0
C213 C 0.16269 0.89846 0.02814 0.0
O214 O 0.14802 0.86835 0.04475 0.0
O215 O 0.22773 0.818 0.98096 0.0
O216 O 0.27005 0.77546 0.98511 0.0
O217 O 0.24536 0.87195 0.10511 0.0
O218 O 0.26146 0.81775 0.07234 0.0
C219 C 0.24469 0.78924 0.96647 0.0
C220 C 0.2619 0.84032 0.10479 0.0
O221 O 0.1972 0.90098 0.02117 0.0
Mg222 Mg 0.16377 0.51268 0.29702 0.0
O223 O 0.12738 0.50365 0.23982 0.0
O224 O 0.16561 0.48921 0.19267 0.0
Mg225 Mg 0.22635 0.50479 0.21699 0.0
C226 C 0.13289 0.49238 0.20436 0.0
C227 C 0.10967 0.52887 0.36112 0.0
O228 O 0.13572 0.55941 0.36881 0.0
O229 O 0.17358 0.44725 0.2885 0.0
O230 O 0.21953 0.44912 0.24702 0.0
O231 O 0.17484 0.57887 0.3016 0.0
O232 O 0.20887 0.53804 0.2697 0.0
C233 C 0.19913 0.43133 0.27009 0.0
C234 C 0.20392 0.57405 0.28188 0.0
O235 O 0.11256 0.50247 0.33254 0.0
Mg236 Mg 0.8034 0.6641 0.02634 0.0
O237 O 0.74648 0.6247 0.02702 0.0
O238 O 0.70282 0.66204 0.01247 0.0
Mg239 Mg 0.73143 0.72466 0.00509 0.0
C240 C 0.71229 0.62936 0.02123 0.0
C241 C 0.85809 0.61194 0.0538 0.0
O242 O 0.86435 0.64462 0.07852 0.0
O243 O 0.80333 0.66084 0.96013 0.0
O244 O 0.76392 0.7049 0.95113 0.0
O245 O 0.80015 0.68602 0.08855 0.0
O246 O 0.77986 0.7172 0.04283 0.0
C247 C 0.78801 0.68246 0.9386 0.0
C248 C 0.78586 0.71662 0.07922 0.0
O249 O 0.83342 0.60934 0.02653 0.0
Mg250 Mg 0.89051 0.04015 0.26808 0.0
O251 O 0.85 0.98179 0.25956 0.0
O252 O 0.88374 0.93174 0.24388 0.0
Mg253 Mg 0.94484 0.95709 0.24234 0.0
C254 C 0.85264 0.94486 0.25011 0.0
C255 C 0.81732 0.07937 0.27612 0.0
O256 O 0.81296 0.06173 0.24037 0.0
O257 O 0.91529 0.02945 0.3262 0.0
O258 O 0.94955 0.98087 0.30687 0.0
O259 O 0.88539 0.0446 0.20452 0.0
O260 O 0.92777 0.0143 0.23186 0.0
C261 C 0.93899 0.00606 0.33323 0.0
C262 C 0.9135 0.02443 0.20122 0.0
O263 O 0.84613 0.07533 0.29634 0.0
Mg264 Mg 0.30566 0.16311 0.5286 0.0
O265 O 0.24908 0.12157 0.5276 0.0
O266 O 0.20467 0.15854 0.51365 0.0
Mg267 Mg 0.23135 0.22237 0.50918 0.0
C268 C 0.21468 0.12576 0.52157 0.0
C269 C 0.36493 0.11387 0.55214 0.0
O270 O 0.37146 0.14686 0.57642 0.0
O271 O 0.3054 0.16267 0.46267 0.0
O272 O 0.26453 0.20558 0.45489 0.0
O273 O 0.30244 0.18176 0.59149 0.0
O274 O 0.27826 0.21259 0.54706 0.0
C275 C 0.28922 0.18424 0.44177 0.0
C276 C 0.28274 0.20893 0.58305 0.0
O277 O 0.3385 0.11008 0.52649 0.0
Mg278 Mg 0.38653 0.53966 0.77252 0.0
O279 O 0.34891 0.47933 0.76274 0.0
O280 O 0.38461 0.43242 0.74242 0.0
Mg281 Mg 0.44486 0.46131 0.74312 0.0
C282 C 0.35292 0.44324 0.7505 0.0
C283 C 0.31035 0.57166 0.78231 0.0
O284 O 0.30515 0.55078 0.74793 0.0
O285 O 0.41265 0.5285 0.82959 0.0
O286 O 0.44859 0.4821 0.80846 0.0
O287 O 0.37958 0.54599 0.70973 0.0
O288 O 0.42474 0.51778 0.73513 0.0
C289 C 0.43726 0.50583 0.83564 0.0
C290 C 0.40896 0.52797 0.70526 0.0
O291 O 0.34066 0.57139 0.80167 0.0
Mg292 Mg 0.72464 0.35853 0.54451 0.0
O293 O 0.77999 0.39152 0.52958 0.0
O294 O 0.82237 0.3485 0.52878 0.0
Mg295 Mg 0.79588 0.29057 0.54863 0.0
C296 C 0.81279 0.38238 0.52401 0.0
C297 C 0.65661 0.40299 0.52637 0.0
O298 O 0.6401 0.37057 0.53792 0.0
O299 O 0.72166 0.32222 0.48421 0.0
O300 O 0.76314 0.27923 0.49048 0.0
O301 O 0.73754 0.37858 0.60812 0.0
O302 O 0.7532 0.32316 0.57741 0.0
C303 C 0.7387 0.29309 0.4707 0.0
C304 C 0.75349 0.34678 0.60929 0.0
O305 O 0.69188 0.40682 0.52361 0.0
Mg306 Mg 0.66711 0.01551 0.79529 0.0
O307 O 0.63311 0.00397 0.73678 0.0
O308 O 0.67298 0.98996 0.69132 0.0
Mg309 Mg 0.7327 0.0051 0.71871 0.0
C310 C 0.63981 0.99284 0.70167 0.0
C311 C 0.61286 0.03207 0.85834 0.0
O312 O 0.64067 0.06063 0.86716 0.0
O313 O 0.67737 0.95022 0.79061 0.0
O314 O 0.72325 0.94999 0.74905 0.0
O315 O 0.67592 0.08092 0.79514 0.0
O316 O 0.71473 0.04014 0.77076 0.0
C317 C 0.70242 0.93321 0.7724 0.0
C318 C 0.70699 0.07597 0.77901 0.0
O319 O 0.61433 0.00644 0.82876 0.0
Mg320 Mg 0.02745 0.22614 0.92369 0.0
O321 O 0.97076 0.22071 0.88948 0.0
O322 O 0.92617 0.20293 0.92852 0.0
Mg323 Mg 0.95559 0.19154 0.98497 0.0
C324 C 0.93641 0.21285 0.89625 0.0
C325 C 0.05465 0.24522 0.84496 0.0
O326 O 0.03604 0.20983 0.83446 0.0
O327 O 0.01592 0.28243 0.96147 0.0
O328 O 0.97421 0.25928 1.00132 0.0
O329 O 0.03628 0.16293 0.9044 0.0
O330 O 0.00926 0.18308 0.95773 0.0
C331 C 0.99562 0.28785 0.99032 0.0
C332 C 0.02181 0.15459 0.9361 0.0
O333 O 0.05481 0.26128 0.87973 0.0
Mg334 Mg 0.53182 0.72627 0.41992 0.0
O335 O 0.47375 0.72202 0.38888 0.0
O336 O 0.43051 0.69943 0.42703 0.0
Mg337 Mg 0.46228 0.69202 0.48354 0.0
C338 C 0.4397 0.71159 0.39533 0.0
C339 C 0.5541 0.74301 0.33939 0.0
O340 O 0.53343 0.70848 0.3309 0.0
O341 O 0.52269 0.78296 0.45832 0.0
O342 O 0.48046 0.76037 0.49788 0.0
O343 O 0.53785 0.6631 0.3985 0.0
O344 O 0.51505 0.6829 0.45461 0.0
C345 C 0.50217 0.78877 0.48692 0.0
C346 C 0.52472 0.65438 0.43065 0.0
O347 O 0.55716 0.76004 0.37399 0.0
Mg348 Mg 0.98962 0.76494 0.60265 0.0
O349 O 0.03989 0.75048 0.63698 0.0
O350 O 0.0879 0.74839 0.599 0.0
Mg351 Mg 0.06695 0.75055 0.5375 0.0
C352 C 0.07407 0.74672 0.63178 0.0
C353 C 0.92816 0.75781 0.66306 0.0
O354 O 0.91289 0.73542 0.63183 0.0
O355 O 0.01715 0.83038 0.59759 0.0
O356 O 0.05956 0.81522 0.55473 0.0
O357 O 0.97163 0.69978 0.58686 0.0
O358 O 0.00891 0.73471 0.55197 0.0
C359 C 0.04283 0.84078 0.57498 0.0
C360 C 0.99183 0.70084 0.55722 0.0
O361 O 0.96021 0.77755 0.66086 0.0
Mg362 Mg 0.49186 0.26647 0.10522 0.0
O363 O 0.54248 0.25245 0.13936 0.0
O364 O 0.59024 0.25058 0.1011 0.0
Mg365 Mg 0.56879 0.25248 0.03969 0.0
C366 C 0.57666 0.24892 0.134 0.0
C367 C 0.4306 0.25991 0.16583 0.0
O368 O 0.41492 0.23789 0.13458 0.0
O369 O 0.51886 0.33202 0.09989 0.0
O370 O 0.56119 0.31717 0.05685 0.0
O371 O 0.47424 0.20127 0.08997 0.0
O372 O 0.51082 0.2362 0.05436 0.0
C373 C 0.54436 0.3426 0.07717 0.0
C374 C 0.49415 0.20229 0.06011 0.0
O375 O 0.46284 0.2792 0.16355 0.0
C376 C 0.19191 0.73103 0.87723 0.0
C377 C 0.21827 0.73715 0.8488 0.0
C378 C 0.26187 0.77796 0.89762 0.0
C379 C 0.23552 0.77151 0.92601 0.0
N380 N 0.17844 0.73714 0.94495 0.0
N381 N 0.27426 0.77275 0.82965 0.0
C382 C 0.20125 0.74687 0.91637 0.0
C383 C 0.25238 0.76202 0.85846 0.0
N384 N 0.15696 0.71218 0.86621 0.0
N385 N 0.29607 0.79906 0.90822 0.0
H386 H 0.26677 0.76325 0.80074 0.0
H387 H 0.29782 0.79379 0.83376 0.0
H388 H 0.30338 0.81304 0.93617 0.0
H389 H 0.31817 0.80098 0.89005 0.0
H390 H 0.13477 0.71116 0.88432 0.0
H391 H 0.1492 0.69962 0.83795 0.0
H392 H 0.15529 0.71555 0.94059 0.0
H393 H 0.18416 0.74851 0.97393 0.0
C394 C 0.00941 0.52671 0.39142 0.0
C395 C 0.01398 0.52225 0.43095 0.0
C396 C 0.08108 0.51999 0.42415 0.0
C397 C 0.07671 0.52617 0.38502 0.0
N398 N 0.03827 0.54152 0.33265 0.0
N399 N 0.05088 0.50104 0.4808 0.0
C400 C 0.04124 0.53098 0.3689 0.0
C401 C 0.04907 0.51565 0.44642 0.0
N402 N 0.97428 0.5239 0.37476 0.0
N403 N 0.11584 0.51813 0.44 0.0
H404 H 0.02709 0.49297 0.49521 0.0
H405 H 0.07482 0.49218 0.49264 0.0
H406 H 0.13963 0.51818 0.42403 0.0
H407 H 0.12156 0.51884 0.46944 0.0
H408 H 0.96862 0.52213 0.3452 0.0
H409 H 0.95029 0.5197 0.39012 0.0
H410 H 0.01413 0.55016 0.32097 0.0
H411 H 0.06088 0.54484 0.31516 0.0
C412 C 0.84102 0.73056 0.86204 0.0
C413 C 0.81371 0.72174 0.83114 0.0
C414 C 0.77874 0.67248 0.86639 0.0
C415 C 0.80212 0.68704 0.89959 0.0
N416 N 0.86139 0.72051 0.92672 0.0
N417 N 0.75781 0.68258 0.80212 0.0
C418 C 0.83554 0.71262 0.89642 0.0
C419 C 0.78389 0.69066 0.83219 0.0
N420 N 0.87006 0.75933 0.85968 0.0
N421 N 0.75129 0.64173 0.86811 0.0
H422 H 0.76031 0.69665 0.77746 0.0
H423 H 0.73299 0.66378 0.80211 0.0
H424 H 0.74742 0.62839 0.8931 0.0
H425 H 0.73459 0.62732 0.84444 0.0
H426 H 0.88932 0.7712 0.88216 0.0
H427 H 0.87434 0.77197 0.83452 0.0
H428 H 0.88746 0.73682 0.92595 0.0
H429 H 0.85781 0.70827 0.95228 0.0
C430 C 0.96936 0.02846 0.44088 0.0
C431 C 0.00686 0.02035 0.43915 0.0
C432 C 1.00088 0.01471 0.36909 0.0
C433 C 0.96159 0.01382 0.37042 0.0
N434 N 0.90762 0.0165 0.40905 0.0
N435 N 0.05588 0.99748 0.3998 0.0
C436 C 0.94545 0.02014 0.40677 0.0
C437 C 0.02194 0.011 0.40275 0.0
N438 N 0.9569 0.0446 0.47497 0.0
N439 N 0.01859 0.02127 0.33624 0.0
H440 H 0.07245 0.99345 0.42342 0.0
H441 H 0.06588 0.98671 0.37341 0.0
H442 H 0.00481 0.02815 0.31177 0.0
H443 H 0.04758 0.02526 0.33525 0.0
H444 H 0.93075 0.05435 0.47739 0.0
H445 H 0.97423 0.05121 0.50005 0.0
H446 H 0.89461 0.01733 0.43516 0.0
H447 H 0.88925 0.00908 0.38488 0.0
C448 C 0.23723 0.23713 0.67725 0.0
C449 C 0.23022 0.27673 0.67447 0.0
C450 C 0.26176 0.27372 0.61352 0.0
C451 C 0.2639 0.23243 0.61379 0.0
N452 N 0.24291 0.17301 0.64186 0.0
N453 N 0.22686 0.32811 0.63421 0.0
C454 C 0.2488 0.21358 0.64461 0.0
C455 C 0.24011 0.29387 0.64102 0.0
N456 N 0.23239 0.22157 0.71092 0.0
N457 N 0.28123 0.29421 0.58816 0.0
H458 H 0.20813 0.34121 0.65211 0.0
H459 H 0.2307 0.34031 0.60866 0.0
H460 H 0.29908 0.28136 0.56891 0.0
H461 H 0.28282 0.32501 0.58934 0.0
H462 H 0.24108 0.19449 0.71558 0.0
H463 H 0.22262 0.23708 0.73521 0.0
H464 H 0.2286 0.15813 0.66211 0.0
H465 H 0.24759 0.15413 0.61715 0.0
C466 C 0.48577 0.5482 0.63809 0.0
C467 C 0.47402 0.51974 0.6056 0.0
C468 C 0.41806 0.49656 0.63779 0.0
C469 C 0.42895 0.52662 0.66932 0.0
N470 N 0.46889 0.586 0.69677 0.0
N471 N 0.42724 0.47099 0.57116 0.0
C472 C 0.4616 0.55391 0.66866 0.0
C473 C 0.43955 0.49508 0.60447 0.0
N474 N 0.52046 0.56928 0.63988 0.0
N475 N 0.38804 0.46886 0.64028 0.0
H476 H 0.44285 0.46931 0.54663 0.0
H477 H 0.40078 0.45489 0.56694 0.0
H478 H 0.37156 0.46975 0.66414 0.0
H479 H 0.38082 0.44381 0.61995 0.0
H480 H 0.53261 0.58699 0.66462 0.0
H481 H 0.53828 0.56689 0.61726 0.0
H482 H 0.4901 0.60921 0.69569 0.0
H483 H 0.45165 0.59142 0.71963 0.0
C484 C 0.8166 0.29981 0.67388 0.0
C485 C 0.79791 0.30223 0.70861 0.0
C486 C 0.75181 0.33887 0.68072 0.0
C487 C 0.77107 0.33714 0.64581 0.0
N488 N 0.82973 0.33025 0.61686 0.0
N489 N 0.75486 0.33313 0.74925 0.0
C490 C 0.80597 0.32196 0.64477 0.0
C491 C 0.76821 0.32547 0.71347 0.0
N492 N 0.84327 0.2749 0.66784 0.0
N493 N 0.71676 0.34998 0.68203 0.0
H494 H 0.76634 0.32268 0.77318 0.0
H495 H 0.73518 0.35262 0.75563 0.0
H496 H 0.70252 0.35808 0.65855 0.0
H497 H 0.70028 0.34764 0.70561 0.0
H498 H 0.85494 0.26896 0.64123 0.0
H499 H 0.85161 0.25794 0.68851 0.0
H500 H 0.8568 0.32263 0.61634 0.0
H501 H 0.82353 0.34922 0.5974 0.0
C502 C 0.58018 0.98227 0.6067 0.0
C503 C 0.54471 0.96785 0.61867 0.0
C504 C 0.57376 0.96173 0.68163 0.0
C505 C 0.60787 0.98248 0.67205 0.0
N506 N 0.64004 0.02035 0.62654 0.0
N507 N 0.5069 0.95622 0.67245 0.0
C508 C 0.61045 0.99447 0.63462 0.0
C509 C 0.54123 0.96077 0.65748 0.0
N510 N 0.58441 0.98627 0.56889 0.0
N511 N 0.57225 0.94218 0.71325 0.0
H512 H 0.48239 0.95808 0.65655 0.0
H513 H 0.50334 0.95479 0.70167 0.0
H514 H 0.59587 0.93965 0.73029 0.0
H515 H 0.5483 0.92444 0.7195 0.0
H516 H 0.61026 0.99306 0.55749 0.0
H517 H 0.5622 0.97929 0.54854 0.0
H518 H 0.64142 0.0328 0.60094 0.0
H519 H 0.66111 0.03332 0.64689 0.0
C520 C 0.87859 0.20321 0.80115 0.0
C521 C 0.85524 0.23345 0.80915 0.0
C522 C 0.887 0.252 0.8736 0.0
C523 C 0.90748 0.21898 0.86683 0.0
N524 N 0.91912 0.15971 0.8262 0.0
N525 N 0.83568 0.28586 0.85376 0.0
C526 C 0.90208 0.19348 0.83121 0.0
C527 C 0.85899 0.25755 0.84571 0.0
N528 N 0.88044 0.18595 0.76406 0.0
N529 N 0.89567 0.27927 0.90583 0.0
H530 H 0.8162 0.29219 0.83352 0.0
H531 H 0.8337 0.3012 0.88115 0.0
H532 H 0.91588 0.27636 0.92691 0.0
H533 H 0.88508 0.30642 0.91039 0.0
H534 H 0.89924 0.16611 0.75542 0.0
H535 H 0.86622 0.19537 0.7413 0.0
H536 H 0.91329 0.13786 0.8024 0.0
H537 H 0.93677 0.15191 0.84742 0.0
C538 C 0.50669 0.90197 0.51065 0.0
C539 C 0.502 0.90632 0.55105 0.0
C540 C 0.50645 0.83512 0.54982 0.0
C541 C 0.50419 0.82965 0.50882 0.0
N542 N 0.49488 0.85846 0.4502 0.0
N543 N 0.48798 0.87407 0.60676 0.0
C544 C 0.50289 0.8633 0.4891 0.0
C545 C 0.49973 0.87215 0.57017 0.0
N546 N 0.51314 0.93494 0.49253 0.0
N547 N 0.51555 0.80535 0.5695 0.0
H548 H 0.47896 0.89964 0.62064 0.0
H549 H 0.48271 0.84916 0.62096 0.0
H550 H 0.5225 0.77846 0.55576 0.0
H551 H 0.52037 0.8093 0.59935 0.0
H552 H 0.5207 0.93379 0.46401 0.0
H553 H 0.51372 0.96365 0.50692 0.0
H554 H 0.4898 0.88182 0.43517 0.0
H555 H 0.48903 0.83074 0.43345 0.0
C556 C 0.14839 0.26929 0.80288 0.0
C557 C 0.13825 0.29077 0.77297 0.0
C558 C 0.07268 0.28097 0.78899 0.0
C559 C 0.08311 0.26097 0.81996 0.0
N560 N 0.13062 0.23842 0.85904 0.0
N561 N 0.09308 0.32153 0.73959 0.0
C562 C 0.12094 0.25589 0.82772 0.0
C563 C 0.10095 0.29787 0.76662 0.0
N564 N 0.18413 0.26051 0.80651 0.0
N565 N 0.03579 0.28322 0.7808 0.0
H566 H 0.11358 0.33385 0.72288 0.0
H567 H 0.06715 0.33104 0.7353 0.0
H568 H 0.01461 0.27205 0.79737 0.0
H569 H 0.02583 0.2941 0.75655 0.0
H570 H 0.19253 0.24056 0.8241 0.0
H571 H 0.20545 0.27164 0.79025 0.0
H572 H 0.158 0.23857 0.86933 0.0
H573 H 0.11122 0.22522 0.8763 0.0
C574 C 0.50502 0.55208 0.4625 0.0
C575 C 0.53588 0.55417 0.48951 0.0
C576 C 0.56465 0.6139 0.4647 0.0
C577 C 0.53063 0.61619 0.44426 0.0
N578 N 0.4694 0.5867 0.42008 0.0
N579 N 0.59466 0.58808 0.51698 0.0
C580 C 0.50135 0.58451 0.44134 0.0
C581 C 0.56614 0.58467 0.48988 0.0
N582 N 0.47783 0.52032 0.45976 0.0
N583 N 0.59532 0.64028 0.46069 0.0
H584 H 0.59655 0.56707 0.53544 0.0
H585 H 0.615 0.61264 0.52263 0.0
H586 H 0.59497 0.66266 0.44311 0.0
H587 H 0.62188 0.63772 0.47184 0.0
H588 H 0.45586 0.51485 0.43905 0.0
H589 H 0.47842 0.49803 0.47742 0.0
H590 H 0.44519 0.56683 0.41952 0.0
H591 H 0.46679 0.60962 0.40354 0.0
C592 C 0.87882 0.78956 0.75587 0.0
C593 C 0.85409 0.75445 0.75732 0.0
C594 C 0.89012 0.71983 0.70844 0.0
C595 C 0.90828 0.75695 0.70016 0.0
N596 N 0.91834 0.82853 0.71632 0.0
N597 N 0.83642 0.68531 0.73487 0.0
C598 C 0.90314 0.79228 0.72469 0.0
C599 C 0.86024 0.71912 0.73403 0.0
N600 N 0.87633 0.82068 0.78373 0.0
N601 N 0.90197 0.6852 0.69237 0.0
H602 H 0.81558 0.68386 0.75449 0.0
H603 H 0.83639 0.6597 0.71516 0.0
H604 H 0.92498 0.68478 0.67521 0.0
H605 H 0.89183 0.65744 0.69959 0.0
H606 H 0.89406 0.84742 0.78709 0.0
H607 H 0.89406 0.84742 0.78709 0.0
H608 H 0.91147 0.85543 0.72994 0.0
H609 H 0.93553 0.83215 0.69354 0.0
C610 C 0.06171 0.92057 0.5105 0.0
C611 C 0.06542 0.95663 0.53618 0.0
C612 C 0.0585 0.91676 0.59027 0.0
C613 C 0.0484 0.88176 0.56357 0.0
N614 N 0.02944 0.85415 0.49769 0.0
N615 N 0.06502 0.98911 0.60112 0.0
C616 C 0.04727 0.88469 0.52348 0.0
C617 C 0.06353 0.95472 0.57641 0.0
N618 N 0.06893 0.92127 0.47264 0.0
N619 N 0.06386 0.9138 0.62848 0.0
H620 H 0.07017 0.01673 0.59163 0.0
H621 H 0.05962 0.99007 0.63021 0.0
H622 H 0.06011 0.88661 0.63922 0.0
H623 H 0.07455 0.93781 0.64887 0.0
H624 H 0.06971 0.89558 0.45321 0.0
H625 H 0.07762 0.94761 0.46185 0.0
H626 H 0.02477 0.85636 0.46856 0.0
H627 H 0.01501 0.82862 0.50605 0.0
C628 C 0.11146 0.73826 0.73328 0.0
C629 C 0.14515 0.72234 0.72534 0.0
C630 C 0.12804 0.715 0.65678 0.0
C631 C 0.0982 0.73815 0.66431 0.0
N632 N 0.06933 0.78143 0.71205 0.0
N633 N 0.19015 0.70649 0.67834 0.0
C634 C 0.09191 0.75256 0.70327 0.0
C635 C 0.15501 0.7142 0.6867 0.0
N636 N 0.09778 0.73911 0.7691 0.0
N637 N 0.12973 0.69166 0.62229 0.0
H638 H 0.21125 0.70786 0.69964 0.0
H639 H 0.19902 0.70319 0.65021 0.0
H640 H 0.10819 0.68672 0.60103 0.0
H641 H 0.1501 0.67266 0.6173 0.0
H642 H 0.07174 0.74787 0.7753 0.0
H643 H 0.11068 0.72701 0.79112 0.0
H644 H 0.06636 0.79417 0.74031 0.0
H645 H 0.05784 0.79647 0.69143 0.0
C646 C 1.00311 0.59286 0.53 0.0
C647 C 0.98635 0.58553 0.49202 0.0
C648 C 0.98379 0.65728 0.49289 0.0
C649 C 0.99685 0.66354 0.53216 0.0
N650 N 0.03056 0.64089 0.58362 0.0
N651 N 0.959 0.60965 0.43776 0.0
C652 C 0.01043 0.6324 0.54915 0.0
C653 C 0.97745 0.61771 0.47308 0.0
N654 N 0.00816 0.56153 0.54929 0.0
N655 N 0.97665 0.68896 0.47487 0.0
H656 H 0.95295 0.58084 0.42356 0.0
H657 H 0.94764 0.63061 0.42347 0.0
H658 H 0.97927 0.71803 0.48886 0.0
H659 H 0.97064 0.68717 0.4454 0.0
H660 H 0.01592 0.56435 0.57851 0.0
H661 H 1.00134 0.53219 0.53678 0.0
H662 H 0.04464 0.62035 0.59587 0.0
H663 H 0.03627 0.66973 0.59816 0.0
C664 C 0.78236 0.8562 0.26371 0.0
C665 C 0.75527 0.85731 0.2336 0.0
C666 C 0.79175 0.91623 0.21464 0.0
C667 C 0.81837 0.91579 0.24535 0.0
N668 N 0.83657 0.88979 0.30291 0.0
N669 N 0.72895 0.89388 0.18773 0.0
C670 C 0.81314 0.88678 0.27082 0.0
C671 C 0.75863 0.88877 0.21093 0.0
N672 N 0.77829 0.82607 0.28585 0.0
N673 N 0.79844 0.94228 0.18847 0.0
H674 H 0.70361 0.87561 0.18649 0.0
H675 H 0.72798 0.9184 0.1731 0.0
H676 H 0.82164 0.96386 0.19087 0.0
H677 H 0.78235 0.94076 0.16295 0.0
H678 H 0.7991 0.82006 0.30471 0.0
H679 H 0.7542 0.80591 0.2844 0.0
H680 H 0.83241 0.87221 0.32486 0.0
H681 H 0.85901 0.91218 0.30931 0.0
C682 C 0.77397 0.17419 0.27645 0.0
C683 C 0.74201 0.16659 0.29809 0.0
C684 C 0.76228 0.10301 0.31046 0.0
C685 C 0.79406 0.11104 0.28881 0.0
N686 N 0.83557 0.15836 0.26051 0.0
N687 N 0.70797 0.12728 0.34011 0.0
C688 C 0.80171 0.14811 0.27506 0.0
C689 C 0.73717 0.13219 0.31689 0.0
N690 N 0.7764 0.20457 0.25457 0.0
N691 N 0.75548 0.06692 0.32338 0.0
H692 H 0.68882 0.14774 0.34385 0.0
H693 H 0.70396 0.10469 0.35734 0.0
H694 H 0.77406 0.04572 0.32003 0.0
H695 H 0.73104 0.05724 0.336 0.0
H696 H 0.79644 0.20843 0.2343 0.0
H697 H 0.7566 0.22425 0.25433 0.0
H698 H 0.84424 0.18671 0.25375 0.0
H699 H 0.85648 0.13971 0.25868 0.0
C700 C 0.37425 0.94923 0.95983 0.0
C701 C 0.40642 0.96111 0.98466 0.0
C702 C 0.37783 0.92593 0.03443 0.0
C703 C 0.34725 0.9103 0.00831 0.0
N704 N 0.31707 0.90398 0.94485 0.0
N705 N 0.44244 0.95497 0.04194 0.0
C706 C 0.34552 0.92116 0.97057 0.0
C707 C 0.40929 0.94757 0.02087 0.0
N708 N 0.37102 0.96563 0.92654 0.0
N709 N 0.37592 0.9219 0.0726 0.0
H710 H 0.46623 0.9698 0.03185 0.0
H711 H 0.44729 0.94288 0.06719 0.0
H712 H 0.35175 0.90931 0.0839 0.0
H713 H 0.39624 0.93541 0.09356 0.0
H714 H 0.34673 0.96147 0.90887 0.0
H715 H 0.3922 0.9856 0.91791 0.0
H716 H 0.31644 0.90734 0.91573 0.0
H717 H 0.29491 0.88439 0.9522 0.0
C718 C 0.21871 0.32443 0.26675 0.0
C719 C 0.25221 0.33109 0.29009 0.0
C720 C 0.24188 0.40001 0.30975 0.0
C721 C 0.21183 0.39506 0.28178 0.0
N722 N 0.17084 0.35353 0.23338 0.0
N723 N 0.29782 0.3754 0.3316 0.0
C724 C 0.19965 0.35735 0.26044 0.0
C725 C 0.26415 0.36884 0.31141 0.0
N726 N 0.20547 0.28655 0.25078 0.0
N727 N 0.24918 0.43472 0.33451 0.0
H728 H 0.31475 0.35312 0.33374 0.0
H729 H 0.31027 0.40345 0.34395 0.0
H730 H 0.23348 0.45836 0.33381 0.0
H731 H 0.26842 0.43874 0.35794 0.0
H732 H 0.17971 0.27879 0.23581 0.0
H733 H 0.21942 0.26229 0.25505 0.0
H734 H 0.16299 0.32792 0.21393 0.0
H735 H 0.1556 0.37695 0.22951 0.0
C736 C 0.12212 0.07589 0.55084 0.0
C737 C 0.1186 0.03826 0.52754 0.0
C738 C 0.18175 0.05497 0.50515 0.0
C739 C 0.18452 0.09315 0.52732 0.0
N740 N 0.16237 0.13446 0.58074 0.0
N741 N 0.15055 0.98733 0.49478 0.0
C742 C 0.15645 0.10159 0.55353 0.0
C743 C 0.15043 0.02627 0.50894 0.0
N744 N 0.0912 0.08893 0.56694 0.0
N745 N 0.20762 0.04677 0.47874 0.0
H746 H 0.12927 0.966 0.50027 0.0
H747 H 0.17362 0.97578 0.48292 0.0
H748 H 0.23069 0.06694 0.4748 0.0
H749 H 0.20467 0.02113 0.45869 0.0
H750 H 0.09049 0.11794 0.58012 0.0
H751 H 0.06531 0.07145 0.56427 0.0
H752 H 0.14449 0.14004 0.60294 0.0
H753 H 0.18694 0.15416 0.58327 0.0
C754 C 0.77796 0.15019 0.73951 0.0
C755 C 0.78323 0.18113 0.77128 0.0
C756 C 0.74608 0.13809 0.80989 0.0
C757 C 0.73519 0.11057 0.77629 0.0
N758 N 0.7371 0.09306 0.70758 0.0
N759 N 0.76533 0.20702 0.83414 0.0
C760 C 0.75068 0.11683 0.74072 0.0
C761 C 0.76589 0.17557 0.80605 0.0
N762 N 0.79749 0.15396 0.70729 0.0
N763 N 0.73784 0.12842 0.84553 0.0
H764 H 0.77679 0.23558 0.83069 0.0
H765 H 0.7499 0.20552 0.85859 0.0
H766 H 0.72435 0.1007 0.84975 0.0
H767 H 0.74805 0.14631 0.87099 0.0
H768 H 0.79788 0.1308 0.68487 0.0
H769 H 0.81512 0.1796 0.70408 0.0
H770 H 0.74466 0.0986 0.6802 0.0
H771 H 0.71534 0.07005 0.7071 0.0
C772 C 0.44219 0.0482 0.5381 0.0
C773 C 0.43647 0.02549 0.56886 0.0
C774 C 0.38257 0.05927 0.58763 0.0
C775 C 0.38758 0.08122 0.55601 0.0
N776 N 0.41829 0.09327 0.49791 0.0
N777 N 0.39995 0.00481 0.62006 0.0
C778 C 0.41615 0.0745 0.53009 0.0
C779 C 0.40619 0.02971 0.59281 0.0
N780 N 0.47345 0.04555 0.51762 0.0
N781 N 0.35556 0.06717 0.61289 0.0
H782 H 0.41754 0.98362 0.62476 0.0
H783 H 0.37648 0.00332 0.63639 0.0
H784 H 0.33639 0.08695 0.60872 0.0
H785 H 0.35291 0.05552 0.63879 0.0
H786 H 0.48164 0.06398 0.49723 0.0
H787 H 0.4929 0.02652 0.52311 0.0
H788 H 0.43602 0.08673 0.47584 0.0
H789 H 0.40043 0.11373 0.49183 0.0
C790 C 0.60696 0.49317 0.55239 0.0
C791 C 0.57683 0.48644 0.52398 0.0
C792 C 0.60487 0.42961 0.49142 0.0
C793 C 0.63401 0.43581 0.52066 0.0
N794 N 0.66849 0.47988 0.57261 0.0
N795 N 0.55118 0.45361 0.46254 0.0
C796 C 0.63713 0.46999 0.54871 0.0
C797 C 0.57745 0.45659 0.49194 0.0
N798 N 0.60518 0.51973 0.58476 0.0
N799 N 0.60287 0.39708 0.46388 0.0
H800 H 0.53097 0.47279 0.46295 0.0
H801 H 0.5511 0.43472 0.43673 0.0
H802 H 0.62374 0.37839 0.4615 0.0
H803 H 0.58031 0.38779 0.44422 0.0
H804 H 0.62298 0.52189 0.60918 0.0
H805 H 0.58431 0.53818 0.58806 0.0
H806 H 0.6741 0.50681 0.59071 0.0
H807 H 0.69064 0.46296 0.57198 0.0
C808 C 0.69167 0.2339 0.37866 0.0
C809 C 0.7197 0.24075 0.35198 0.0
C810 C 0.75993 0.28239 0.40324 0.0
C811 C 0.73174 0.2757 0.42978 0.0
N812 N 0.67354 0.24068 0.44506 0.0
N813 N 0.77681 0.27718 0.33655 0.0
C814 C 0.69824 0.2504 0.41807 0.0
C815 C 0.75304 0.26622 0.36377 0.0
N816 N 0.65781 0.21349 0.36562 0.0
N817 N 0.7935 0.30382 0.41595 0.0
H818 H 0.77167 0.2668 0.30742 0.0
H819 H 0.79972 0.29895 0.34201 0.0
H820 H 0.79905 0.31794 0.44412 0.0
H821 H 0.81679 0.30584 0.39937 0.0
H822 H 0.63436 0.2119 0.38198 0.0
H823 H 0.65235 0.19968 0.33736 0.0
H824 H 0.65076 0.21873 0.43953 0.0
H825 H 0.67715 0.2527 0.47408 0.0
C826 C 0.55583 0.02396 0.94717 0.0
C827 C 0.51951 0.02613 0.93168 0.0
C828 C 0.5446 0.03345 0.86837 0.0
C829 C 0.5807 0.02964 0.88343 0.0
N830 N 0.62051 0.01586 0.93546 0.0
N831 N 0.47803 0.02283 0.87563 0.0
C832 C 0.5864 0.02389 0.92256 0.0
C833 C 0.51355 0.02804 0.8917 0.0
N834 N 0.56064 0.0202 0.98521 0.0
N835 N 0.54009 0.04379 0.83222 0.0
H836 H 0.45447 0.01967 0.8918 0.0
H837 H 0.4719 0.01881 0.846 0.0
H838 H 0.56214 0.04822 0.81421 0.0
H839 H 0.51512 0.05141 0.82137 0.0
H840 H 0.58644 0.02378 1.0002 0.0
H841 H 0.5382 0.01402 1.00205 0.0
H842 H 0.62599 0.00783 0.96253 0.0
H843 H 0.6432 0.01433 0.918 0.0
C844 C 0.34366 0.23283 0.36549 0.0
C845 C 0.3164 0.22487 0.33462 0.0
C846 C 0.28124 0.17532 0.36942 0.0
C847 C 0.30355 0.19059 0.40324 0.0
N848 N 0.3582 0.23176 0.43358 0.0
N849 N 0.25989 0.1867 0.30579 0.0
C850 C 0.33606 0.21794 0.40104 0.0
C851 C 0.28623 0.19418 0.33561 0.0
N852 N 0.37613 0.25598 0.36104 0.0
N853 N 0.25472 0.1435 0.37015 0.0
H854 H 0.26239 0.20092 0.28122 0.0
H855 H 0.23475 0.16848 0.30625 0.0
H856 H 0.25066 0.12974 0.39486 0.0
H857 H 0.23931 0.12867 0.34575 0.0
H858 H 0.39868 0.2612 0.38112 0.0
H859 H 0.38173 0.26657 0.33509 0.0
H860 H 0.37961 0.25522 0.43529 0.0
H861 H 0.35414 0.22078 0.45973 0.0
C862 C 0.52028 0.51219 0.90564 0.0
C863 C 0.50481 0.52097 0.94194 0.0
C864 C 0.44325 0.51853 0.90919 0.0
C865 C 0.45971 0.51312 0.87293 0.0
N866 N 0.51687 0.52289 0.83927 0.0
N867 N 0.45384 0.54323 0.97741 0.0
C868 C 0.49913 0.51535 0.87186 0.0
C869 C 0.46692 0.52766 0.94342 0.0
N870 N 0.55474 0.49989 0.90289 0.0
N871 N 0.4054 0.5133 0.91128 0.0
H872 H 0.47098 0.55042 1.00258 0.0
H873 H 0.42727 0.55198 0.97963 0.0
H874 H 0.38722 0.505 0.88705 0.0
H875 H 0.39232 0.51353 0.93733 0.0
H876 H 0.56511 0.48954 0.87656 0.0
H877 H 0.57146 0.49643 0.9266 0.0
H878 H 0.54586 0.52782 0.83857 0.0
H879 H 0.50303 0.52974 0.81484 0.0
C880 C 0.76573 0.76158 0.17911 0.0
C881 C 0.73694 0.78445 0.17125 0.0
C882 C 0.74971 0.7747 0.10244 0.0
C883 C 0.77489 0.74745 0.11006 0.0
N884 N 0.82131 0.73524 0.15677 0.0
N885 N 0.69812 0.80915 0.12505 0.0
C886 C 0.78742 0.74705 0.14882 0.0
C887 C 0.72832 0.79051 0.13281 0.0
N888 N 0.77019 0.75058 0.21483 0.0
N889 N 0.74868 0.78836 0.06757 0.0
H890 H 0.68128 0.81992 0.14653 0.0
H891 H 0.68774 0.81056 0.09721 0.0
H892 H 0.76838 0.78276 0.04724 0.0
H893 H 0.7326 0.81027 0.06128 0.0
H894 H 0.78833 0.73055 0.22124 0.0
H895 H 0.75242 0.75769 0.2366 0.0
H896 H 0.83308 0.73737 0.18468 0.0
H897 H 0.83993 0.72906 0.13536 0.0
C898 C 0.99167 0.042 0.13521 0.0
C899 C 0.98272 0.01005 0.10517 0.0
C900 C 0.92714 0.98661 0.13781 0.0
C901 C 0.9344 0.02082 0.16585 0.0
N902 N 0.96986 0.08462 0.18809 0.0
N903 N 0.94105 0.95384 0.07499 0.0
C904 C 0.96551 0.04966 0.16349 0.0
C905 C 0.95008 0.98284 0.10564 0.0
N906 N 0.02588 0.06406 0.13744 0.0
N907 N 0.89909 0.95743 0.14256 0.0
H908 H 0.95831 0.94988 0.05189 0.0
H909 H 0.91581 0.93531 0.07144 0.0
H910 H 0.88155 0.95991 0.16551 0.0
H911 H 0.89461 0.92997 0.12524 0.0
H912 H 0.03558 0.08554 0.16061 0.0
H913 H 0.04626 0.05768 0.11821 0.0
H914 H 0.9898 0.10849 0.18508 0.0
H915 H 0.9514 0.09126 0.20953 0.0
C916 C 0.32883 0.79588 0.16809 0.0
C917 C 0.30819 0.79269 0.20111 0.0
C918 C 0.25913 0.82607 0.17402 0.0
C919 C 0.27974 0.8293 0.14042 0.0
N920 N 0.33947 0.82928 0.11217 0.0
N921 N 0.26058 0.81497 0.24116 0.0
C922 C 0.31631 0.81788 0.13955 0.0
C923 C 0.27573 0.81163 0.20597 0.0
N924 N 0.35951 0.77639 0.16333 0.0
N925 N 0.22288 0.83368 0.17457 0.0
H926 H 0.27313 0.80513 0.26483 0.0
H927 H 0.23845 0.83116 0.24779 0.0
H928 H 0.20882 0.84287 0.15152 0.0
H929 H 0.20557 0.82751 0.19674 0.0
H930 H 0.37339 0.77367 0.13773 0.0
H931 H 0.36968 0.76098 0.18447 0.0
H932 H 0.36746 0.82479 0.11174 0.0
H933 H 0.33135 0.84731 0.09261 0.0
C934 C 0.03362 0.45889 0.16219 0.0
C935 C 0.03625 0.4662 0.12335 0.0
C936 C 0.10171 0.49437 0.13836 0.0
C937 C 0.10016 0.48213 0.17572 0.0
N938 N 0.06613 0.44124 0.21756 0.0
N939 N 0.0746 0.48606 0.07308 0.0
C940 C 0.06663 0.4607 0.18588 0.0
C941 C 0.07117 0.48166 0.1109 0.0
N942 N 0.99959 0.45334 0.17764 0.0
N943 N 0.13064 0.52091 0.12995 0.0
H944 H 0.05214 0.47876 0.05308 0.0
H945 H 0.10011 0.49356 0.06127 0.0
H946 H 0.15183 0.53417 0.15007 0.0
H947 H 0.13129 0.53356 0.10445 0.0
H948 H 0.99653 0.45172 0.2069 0.0
H949 H 0.97471 0.45456 0.1621 0.0
H950 H 0.0427 0.42294 0.22415 0.0
H951 H 0.09011 0.43943 0.23436 0.0
C952 C 0.35015 0.73448 0.34427 0.0
C953 C 0.35763 0.72365 0.30518 0.0
C954 C 0.41515 0.69895 0.32585 0.0
C955 C 0.41012 0.71398 0.36484 0.0
N956 N 0.37563 0.75346 0.40992 0.0
N957 N 0.4023 0.70523 0.25888 0.0
C958 C 0.37811 0.7334 0.37389 0.0
C959 C 0.3916 0.70864 0.29602 0.0
N960 N 0.31662 0.74689 0.35296 0.0
N961 N 0.44152 0.67412 0.31722 0.0
H962 H 0.38577 0.71191 0.23617 0.0
H963 H 0.42873 0.69875 0.25125 0.0
H964 H 0.45798 0.66443 0.33829 0.0
H965 H 0.44403 0.65964 0.28952 0.0
H966 H 0.30752 0.75113 0.3809 0.0
H967 H 0.29687 0.75019 0.33167 0.0
H968 H 0.3549 0.77143 0.41704 0.0
H969 H 0.39631 0.75566 0.43183 0.0
C970 C 0.99841 0.40067 0.01491 0.0
C971 C 0.99417 0.40456 0.0554 0.0
C972 C 1.00025 0.33365 0.05346 0.0
C973 C 0.99744 0.32851 0.01248 0.0
N974 N 0.98653 0.35748 0.95428 0.0
N975 N 0.98179 0.37157 0.111 0.0
C976 C 0.99509 0.36219 0.99309 0.0
C977 C 0.99302 0.37026 0.07425 0.0
N978 N 0.00395 0.43384 0.99697 0.0
N979 N 0.01027 0.30392 0.07268 0.0
H980 H 0.97241 0.39676 0.12526 0.0
H981 H 0.97732 0.34647 0.12504 0.0
H982 H 0.01752 0.27733 0.05856 0.0
H983 H 0.01549 0.30768 0.10248 0.0
H984 H 0.01118 0.43304 0.96836 0.0
H985 H 0.00406 0.46239 0.01151 0.0
H986 H 0.9806 0.38079 0.93957 0.0
H987 H 0.98112 0.32983 0.93736 0.0
C988 C 0.60212 0.79219 0.26004 0.0
C989 C 0.63835 0.78133 0.26492 0.0
C990 C 0.61901 0.74481 0.3179 0.0
C991 C 0.58244 0.75517 0.31268 0.0
N992 N 0.53709 0.78358 0.27642 0.0
N993 N 0.68092 0.74348 0.29373 0.0
C994 C 0.5733 0.77729 0.2829 0.0
C995 C 0.64665 0.75647 0.29251 0.0
N996 N 0.5959 0.81754 0.23407 0.0
N997 N 0.62737 0.72439 0.34758 0.0
H998 H 0.70202 0.75251 0.27618 0.0
H999 H 0.68791 0.72187 0.31008 0.0
H1000 H 0.60743 0.71294 0.36533 0.0
H1001 H 0.65433 0.72022 0.35604 0.0
H1002 H 0.57119 0.82992 0.23115 0.0
H1003 H 0.61659 0.82788 0.21649 0.0
H1004 H 0.52777 0.79654 0.25319 0.0
H1005 H 0.51562 0.77358 0.29326 0.0
C1006 C 0.05419 0.09367 0.01027 0.0
C1007 C 0.0415 0.05405 0.99339 0.0
C1008 C 0.0187 0.0797 0.9355 0.0
C1009 C 0.03115 0.11906 0.95312 0.0
N1010 N 0.07359 0.16136 1.0002 0.0
N1011 N 0.01946 0.00871 0.93715 0.0
C1012 C 0.05307 0.12532 0.9882 0.0
C1013 C 0.02676 0.04695 0.95472 0.0
N1014 N 0.06465 0.10151 0.04856 0.0
N1015 N 0.99768 0.07374 0.90161 0.0
H1016 H 0.02558 0.98501 0.95115 0.0
H1017 H 0.01089 1.00084 0.90821 0.0
H1018 H 0.99145 0.09713 0.88709 0.0
H1019 H 0.98464 0.04605 0.88903 0.0
H1020 H 0.06885 0.13016 0.06371 0.0
H1021 H 0.06739 0.07905 0.06543 0.0
H1022 H 0.0926 0.16618 0.02391 0.0
H1023 H 0.0749 0.18502 0.98404 0.0
C1024 C 0.38356 0.29234 0.25991 0.0
C1025 C 0.35788 0.25771 0.26139 0.0
C1026 C 0.39222 0.22239 0.21135 0.0
C1027 C 0.41095 0.25923 0.20306 0.0
N1028 N 0.42278 0.3307 0.21996 0.0
N1029 N 0.33829 0.18902 0.23832 0.0
C1030 C 0.40702 0.29457 0.2281 0.0
C1031 C 0.36284 0.22229 0.23751 0.0
N1032 N 0.38363 0.32398 0.28799 0.0
N1033 N 0.40306 0.18744 0.19476 0.0
H1034 H 0.31775 0.18791 0.25829 0.0
H1035 H 0.33737 0.16355 0.21824 0.0
H1036 H 0.42574 0.18651 0.17719 0.0
H1037 H 0.39247 0.1598 0.20197 0.0
H1038 H 0.40348 0.34904 0.29075 0.0
H1039 H 0.36584 0.32308 0.31073 0.0
H1040 H 0.41708 0.35763 0.23468 0.0
H1041 H 0.43913 0.33428 0.19653 0.0
C1042 C 0.5623 0.42281 0.01289 0.0
C1043 C 0.56539 0.45879 0.03866 0.0
C1044 C 0.5592 0.41868 0.09261 0.0
C1045 C 0.5496 0.38364 0.06582 0.0
N1046 N 0.53096 0.356 0.99987 0.0
N1047 N 0.56453 0.49098 0.10363 0.0
C1048 C 0.54842 0.38667 0.02575 0.0
C1049 C 0.5636 0.45671 0.07885 0.0
N1050 N 0.56942 0.42379 0.97505 0.0
N1051 N 0.56466 0.4157 0.1308 0.0
H1052 H 0.56919 0.51868 0.0942 0.0
H1053 H 0.55915 0.49175 0.13271 0.0
H1054 H 0.5614 0.38845 0.14147 0.0
H1055 H 0.57498 0.43979 0.15125 0.0
H1056 H 0.57064 0.39823 0.95556 0.0
H1057 H 0.57761 0.45029 0.96434 0.0
H1058 H 0.52624 0.35824 0.97075 0.0
H1059 H 0.5168 0.33027 0.00812 0.0
C1060 C 0.65879 0.21835 0.18875 0.0
C1061 C 0.64892 0.22606 0.22744 0.0
C1062 C 0.59477 0.25496 0.20551 0.0
C1063 C 0.60116 0.24082 0.16649 0.0
N1064 N 0.6335 0.19515 0.12445 0.0
N1065 N 0.60103 0.24118 0.27117 0.0
C1066 C 0.63154 0.21846 0.1589 0.0
C1067 C 0.61477 0.24099 0.23543 0.0
N1068 N 0.69417 0.21171 0.18025 0.0
N1069 N 0.57167 0.28328 0.21445 0.0
H1070 H 0.61419 0.22918 0.29309 0.0
H1071 H 0.57474 0.24924 0.27737 0.0
H1072 H 0.55986 0.29821 0.19393 0.0
H1073 H 0.56856 0.29577 0.24276 0.0
H1074 H 0.70294 0.20871 0.15208 0.0
H1075 H 0.71544 0.2137 0.20148 0.0
H1076 H 0.65436 0.17676 0.11941 0.0
H1077 H 0.6118 0.18955 0.10334 0.0
C1078 C 0.50318 0.09412 0.0328 0.0
C1079 C 0.48894 0.08725 0.99382 0.0
C1080 C 0.48489 0.1588 0.99573 0.0
C1081 C 0.49874 0.16504 0.03479 0.0
N1082 N 0.53215 0.1415 0.086 0.0
N1083 N 0.47131 0.11315 0.93639 0.0
C1084 C 0.5118 0.13359 0.05166 0.0
C1085 C 0.48225 0.1199 0.97454 0.0
N1086 N 0.50504 0.06288 0.05311 0.0
N1087 N 0.47154 0.18919 0.97987 0.0
H1088 H 0.46598 0.0846 0.92151 0.0
H1089 H 0.46967 0.13553 0.91913 0.0
H1090 H 0.47311 0.21804 0.99426 0.0
H1091 H 0.45705 0.18562 0.95321 0.0
H1092 H 0.51098 0.06623 0.08276 0.0
H1093 H 0.49708 0.03353 0.0411 0.0
H1094 H 0.54552 0.12023 0.09795 0.0
H1095 H 0.53885 0.1703 0.10042 0.0
C1096 C 0.25525 0.39287 0.71733 0.0
C1097 C 0.25567 0.3551 0.7298 0.0
C1098 C 0.31851 0.37674 0.75969 0.0
C1099 C 0.31944 0.4129 0.74354 0.0
N1100 N 0.29135 0.45117 0.69946 0.0
N1101 N 0.28821 0.30969 0.76077 0.0
C1102 C 0.28859 0.41976 0.72013 0.0
C1103 C 0.28776 0.3465 0.74991 0.0
N1104 N 0.22237 0.40404 0.70483 0.0
N1105 N 0.3457 0.37237 0.78643 0.0
H1106 H 0.26497 0.28834 0.75666 0.0
H1107 H 0.31203 0.29961 0.77153 0.0
H1108 H 0.36767 0.39454 0.79584 0.0
H1109 H 0.3447 0.34844 0.80212 0.0
H1110 H 0.21961 0.43289 0.69954 0.0
H1111 H 0.19713 0.38548 0.70317 0.0
H1112 H 0.27094 0.45493 0.67895 0.0
H1113 H 0.31544 0.47127 0.69983 0.0
C1114 C 0.26874 0.66671 0.77713 0.0
C1115 C 0.23565 0.66022 0.79723 0.0
C1116 C 0.25355 0.59641 0.81193 0.0
C1117 C 0.2869 0.60374 0.79251 0.0
N1118 N 0.33073 0.64978 0.76509 0.0
N1119 N 0.19798 0.62186 0.83737 0.0
C1120 C 0.29604 0.64035 0.77818 0.0
C1121 C 0.22875 0.62607 0.81616 0.0
N1122 N 0.27271 0.69618 0.75421 0.0
N1123 N 0.24512 0.56059 0.82499 0.0
H1124 H 0.17884 0.64241 0.83913 0.0
H1125 H 0.19245 0.5996 0.85475 0.0
H1126 H 0.26345 0.53909 0.82337 0.0
H1127 H 0.21966 0.5514 0.83597 0.0
H1128 H 0.29391 0.69927 0.73505 0.0
H1129 H 0.25295 0.71555 0.75167 0.0
H1130 H 0.34027 0.67789 0.75829 0.0
H1131 H 0.35129 0.63076 0.76435 0.0
C1132 C 0.90397 0.4484 0.52282 0.0
C1133 C 0.9003 0.46203 0.48672 0.0
C1134 C 0.83866 0.4234 0.47432 0.0
C1135 C 0.8413 0.41222 0.5119 0.0
N1136 N 0.87197 0.42248 0.57527 0.0
N1137 N 0.86348 0.46773 0.42988 0.0
C1138 C 0.87277 0.42701 0.53714 0.0
C1139 C 0.8674 0.45096 0.46288 0.0
N1140 N 0.93758 0.45555 0.54307 0.0
N1141 N 0.80937 0.40694 0.44934 0.0
H1142 H 0.88458 0.48745 0.42076 0.0
H1143 H 0.83871 0.46424 0.41302 0.0
H1144 H 0.78721 0.38765 0.45711 0.0
H1145 H 0.80806 0.41047 0.42027 0.0
H1146 H 0.94307 0.44319 0.56801 0.0
H1147 H 0.96105 0.47079 0.53276 0.0
H1148 H 0.89293 0.43552 0.59574 0.0
H1149 H 0.84823 0.40978 0.58722 0.0
C1150 C 0.7158 0.8245 0.76735 0.0
C1151 C 0.75068 0.82912 0.7881 0.0
C1152 C 0.74507 0.89903 0.80909 0.0
C1153 C 0.71336 0.89596 0.78349 0.0
N1154 N 0.66772 0.85681 0.73806 0.0
N1155 N 0.80079 0.87091 0.82586 0.0
C1156 C 0.69811 0.8588 0.76287 0.0
C1157 C 0.76577 0.86636 0.80862 0.0
N1158 N 0.69999 0.78725 0.75203 0.0
N1159 N 0.75542 0.93342 0.83362 0.0
H1160 H 0.81691 0.84759 0.82586 0.0
H1161 H 0.81509 0.89835 0.83755 0.0
H1162 H 0.74066 0.95795 0.83454 0.0
H1163 H 0.77627 0.93631 0.85546 0.0
H1164 H 0.67323 0.78105 0.73904 0.0
H1165 H 0.71301 0.76201 0.75482 0.0
H1166 H 0.65744 0.83156 0.71905 0.0
H1167 H 0.65354 0.88133 0.73559 0.0
C1168 C 0.64852 0.52974 0.01021 0.0
C1169 C 0.61702 0.5414 0.02964 0.0
C1170 C 0.65482 0.60519 0.05451 0.0
C1171 C 0.6821 0.59699 0.02736 0.0
N1172 N 0.70416 0.55081 0.97783 0.0
N1173 N 0.59012 0.5919 0.06985 0.0
C1174 C 0.67912 0.55879 0.00521 0.0
C1175 C 0.62071 0.57918 0.05279 0.0
N1176 N 0.64916 0.49075 0.99663 0.0
N1177 N 0.6614 0.63794 0.08182 0.0
H1178 H 0.56441 0.57414 0.06791 0.0
H1179 H 0.58948 0.62089 0.08314 0.0
H1180 H 0.68624 0.65729 0.08412 0.0
H1181 H 0.64396 0.64355 0.10441 0.0
H1182 H 0.67213 0.47959 0.98414 0.0
H1183 H 0.62879 0.46915 0.00345 0.0
H1184 H 0.70085 0.52507 0.95789 0.0
H1185 H 0.72668 0.57125 0.97293 0.0
C1186 C 0.24503 0.68025 0.27448 0.0
C1187 C 0.28279 0.676 0.26714 0.0
C1188 C 0.27029 0.6059 0.27562 0.0
C1189 C 0.2312 0.60867 0.27562 0.0
N1190 N 0.18175 0.64829 0.264 0.0
N1191 N 0.32831 0.63163 0.25067 0.0
C1192 C 0.21857 0.64588 0.27223 0.0
C1193 C 0.2947 0.63793 0.26497 0.0
N1194 N 0.23416 0.71719 0.28222 0.0
N1195 N 0.28465 0.57398 0.28734 0.0
H1196 H 0.34518 0.65386 0.23967 0.0
H1197 H 0.33696 0.60346 0.24559 0.0
H1198 H 0.26876 0.55145 0.29902 0.0
H1199 H 0.31329 0.57271 0.29014 0.0
H1200 H 0.20757 0.72181 0.29096 0.0
H1201 H 0.25274 0.74306 0.28327 0.0
H1202 H 0.17198 0.6745 0.25817 0.0
H1203 H 0.16184 0.62335 0.2578 0.0
C1204 C 0.93548 0.54637 0.04346 0.0
C1205 C 0.9276 0.52267 0.07312 0.0
C1206 C 0.87261 0.55581 0.08875 0.0
C1207 C 0.8799 0.5788 0.05823 0.0
N1208 N 0.91438 0.59248 0.00278 0.0
N1209 N 0.88759 0.50033 0.12103 0.0
C1210 C 0.91008 0.57284 0.03426 0.0
C1211 C 0.89571 0.52607 0.09488 0.0
N1212 N 0.96813 0.54451 0.02523 0.0
N1213 N 0.84396 0.56297 0.11212 0.0
H1214 H 0.90485 0.47908 0.12654 0.0
H1215 H 0.86301 0.49827 0.1356 0.0
H1216 H 0.82527 0.583 0.10713 0.0
H1217 H 0.83942 0.55042 0.13732 0.0
H1218 H 0.97776 0.56371 0.006 0.0
H1219 H 0.9872 0.52541 0.03157 0.0
H1220 H 0.93344 0.58648 0.98189 0.0
H1221 H 0.897 0.61309 0.99589 0.0
C1222 C 0.12108 0.99666 0.02871 0.0
C1223 C 0.08342 0.98172 0.01784 0.0
C1224 C 0.10338 0.91586 0.99895 0.0
C1225 C 0.13853 0.9289 0.01867 0.0
N1226 N 0.18035 0.98272 0.05459 0.0
N1227 N 0.03827 0.92568 0.9938 0.0
C1228 C 0.14766 0.96979 0.0335 0.0
C1229 C 0.07467 0.94106 1.00221 0.0
N1230 N 0.13131 0.03662 0.03485 0.0
N1231 N 0.09737 0.87923 0.97733 0.0
H1232 H 0.01651 0.94318 0.99648 0.0
H1233 H 0.0295 0.89534 0.98689 0.0
H1234 H 0.11815 0.86048 0.97391 0.0
H1235 H 0.07335 0.8694 0.95974 0.0
H1236 H 0.15883 0.04973 0.04028 0.0
H1237 H 0.11272 0.05612 0.02894 0.0
H1238 H 0.18621 0.01116 0.06991 0.0
H1239 H 0.20049 0.96432 0.0595 0.0
loop_
_geom_bond_atom_site_label_1
_geom_bond_atom_site_label_2
_geom_bond_distance
_geom_bond_site_symmetry_2
_ccdc_geom_bond_type
C0 N1 1.317 . S
C0 N2 1.332 1_465 S
C0 C3 1.485 . S
N1 C0 1.317 . S
N1 N5 1.370 1_565 S
N2 C0 1.332 1_645 S
N2 C4 1.368 . S
C3 C0 1.485 . S
C3 H7 0.960 . S
C3 H8 0.961 . S
C3 H9 0.960 . S
C4 N2 1.368 . S
C4 N5 1.307 1_655 S
C4 C6 1.486 . S
N5 N1 1.370 1_545 S
N5 C4 1.307 1_455 S
C6 C4 1.486 . S
C6 H10 0.960 . S
C6 H11 0.960 . S
C6 H12 0.959 . S
H7 C3 0.960 . S
H8 C3 0.961 . S
H9 C3 0.960 . S
H10 C6 0.960 . S
H11 C6 0.960 . S
H12 C6 0.959 . S
C13 N14 1.317 . S
C13 N15 1.348 . S
C13 C16 1.485 . S
N14 C13 1.317 . S
N14 N18 1.370 . S
N15 C13 1.348 . S
N15 C17 1.346 . S
C16 C13 1.485 . S
C16 H20 0.960 . S
C16 H21 0.961 . S
C16 H22 0.960 . S
C17 N15 1.346 . S
C17 N18 1.307 . S
C17 C19 1.486 . S
N18 N14 1.370 . S
N18 C17 1.307 . S
C19 C17 1.486 . S
C19 H23 0.960 . S
C19 H24 0.960 . S
C19 H25 0.959 . S
H20 C16 0.960 . S
H21 C16 0.961 . S
H22 C16 0.960 . S
H23 C19 0.960 . S
H24 C19 0.960 . S
H25 C19 0.959 . S
C26 N27 1.319 1_655 S
C26 N28 1.348 . S
C26 C29 1.485 . S
N27 C26 1.319 1_455 S
N27 N31 1.371 1_455 S
N28 C26 1.348 . S
N28 C30 1.346 . S
C29 C26 1.485 . S
C29 H33 0.960 . S
C29 H34 0.961 . S
C29 H35 0.960 1_655 S
C30 N28 1.346 . S
C30 N31 1.307 . S
C30 C32 1.486 . S
N31 N27 1.371 1_655 S
N31 C30 1.307 . S
C32 C30 1.486 . S
C32 H36 0.960 1_554 S
C32 H37 0.960 . S
C32 H38 0.955 1_554 S
H33 C29 0.960 . S
H34 C29 0.961 . S
H35 C29 0.960 1_455 S
H36 C32 0.960 1_556 S
H37 C32 0.960 . S
H38 C32 0.955 1_556 S
C39 N40 1.317 . S
C39 N41 1.348 . S
C39 C42 1.485 . S
N40 C39 1.317 . S
N40 N44 1.370 . S
N41 C39 1.348 . S
N41 C43 1.346 . S
C42 C39 1.485 . S
C42 H46 0.960 . S
C42 H47 0.961 . S
C42 H48 0.960 . S
C43 N41 1.346 . S
C43 N44 1.307 . S
C43 C45 1.486 . S
N44 N40 1.370 . S
N44 C43 1.307 . S
C45 C43 1.486 . S
C45 H49 0.960 . S
C45 H50 0.960 . S
C45 H51 0.959 . S
H46 C42 0.960 . S
H47 C42 0.961 . S
H48 C42 0.960 . S
H49 C45 0.960 . S
H50 C45 0.960 . S
H51 C45 0.959 . S
C52 N53 1.317 . S
C52 N54 1.348 . S
C52 C55 1.485 1_455 S
N53 C52 1.317 . S
N53 N57 1.370 . S
N54 C52 1.348 . S
N54 C56 1.346 1_565 S
C55 C52 1.485 1_655 S
C55 H59 0.960 . S
C55 H60 0.961 . S
C55 H61 0.960 . S
C56 N54 1.346 1_545 S
C56 N57 1.307 1_545 S
C56 C58 1.486 . S
N57 N53 1.370 . S
N57 C56 1.307 1_565 S
C58 C56 1.486 . S
C58 H62 0.960 . S
C58 H63 0.960 . S
C58 H64 0.959 . S
H59 C55 0.960 . S
H60 C55 0.961 . S
H61 C55 0.960 . S
H62 C58 0.960 . S
H63 C58 0.960 . S
H64 C58 0.959 . S
C65 N66 1.317 . S
C65 N67 1.348 . S
C65 C68 1.485 . S
N66 C65 1.317 . S
N66 N70 1.370 . S
N67 C65 1.348 . S
N67 C69 1.346 . S
C68 C65 1.485 . S
C68 H72 0.960 . S
C68 H73 0.961 . S
C68 H74 0.960 . S
C69 N67 1.346 . S
C69 N70 1.307 . S
C69 C71 1.486 . S
N70 N66 1.370 . S
N70 C69 1.307 . S
C71 C69 1.486 . S
C71 H75 0.960 . S
C71 H76 0.960 . S
C71 H77 0.959 . S
H72 C68 0.960 . S
H73 C68 0.961 . S
H74 C68 0.960 . S
H75 C71 0.960 . S
H76 C71 0.960 . S
H77 C71 0.959 . S
C78 N79 1.317 . S
C78 N80 1.348 . S
C78 C81 1.485 . S
N79 C78 1.317 . S
N79 N83 1.370 . S
N80 C78 1.348 . S
N80 C82 1.346 . S
C81 C78 1.485 . S
C81 H85 0.960 . S
C81 H86 0.961 . S
C81 H87 0.960 . S
C82 N80 1.346 . S
C82 N83 1.307 . S
C82 C84 1.486 . S
N83 N79 1.370 . S
N83 C82 1.307 . S
C84 C82 1.486 . S
C84 H88 0.960 . S
C84 H89 0.960 . S
C84 H90 0.959 . S
H85 C81 0.960 . S
H86 C81 0.961 . S
H87 C81 0.960 . S
H88 C84 0.960 . S
H89 C84 0.960 . S
H90 C84 0.959 . S
C91 N92 1.317 . S
C91 N93 1.348 . S
C91 C94 1.485 . S
N92 C91 1.317 . S
N92 N96 1.370 . S
N93 C91 1.348 . S
N93 C95 1.346 . S
C94 C91 1.485 . S
C94 H98 0.960 . S
C94 H99 0.961 . S
C94 H100 0.960 . S
C95 N93 1.346 . S
C95 N96 1.307 . S
C95 C97 1.486 . S
N96 N92 1.370 . S
N96 C95 1.307 . S
C97 C95 1.486 . S
C97 H101 0.960 . S
C97 H102 0.960 . S
C97 H103 0.959 . S
H98 C94 0.960 . S
H99 C94 0.961 . S
H100 C94 0.960 . S
H101 C97 0.960 . S
H102 C97 0.960 . S
H103 C97 0.959 . S
C104 N105 1.317 . S
C104 N106 1.348 . S
C104 C107 1.485 . S
N105 C104 1.317 . S
N105 N109 1.370 . S
N106 C104 1.348 . S
N106 C108 1.346 . S
C107 C104 1.485 . S
C107 H111 0.960 . S
C107 H112 0.961 . S
C107 H113 0.960 . S
C108 N106 1.346 . S
C108 N109 1.307 . S
C108 C110 1.486 . S
N109 N105 1.370 . S
N109 C108 1.307 . S
C110 C108 1.486 . S
C110 H114 0.960 . S
C110 H115 0.960 . S
C110 H116 0.959 . S
H111 C107 0.960 . S
H112 C107 0.961 . S
H113 C107 0.960 . S
H114 C110 0.960 . S
H115 C110 0.960 . S
H116 C110 0.959 . S
C117 N118 1.317 . S
C117 N119 1.348 . S
C117 C120 1.485 1_565 S
N118 C117 1.317 . S
N118 N122 1.370 . S
N119 C117 1.348 . S
N119 C121 1.346 . S
C120 C117 1.485 1_545 S
C120 H124 0.960 . S
C120 H125 0.961 . S
C120 H126 0.960 . S
C121 N119 1.346 . S
C121 N122 1.307 . S
C121 C123 1.486 . S
N122 N118 1.370 . S
N122 C121 1.307 . S
C123 C121 1.486 . S
C123 H127 0.960 . S
C123 H128 0.960 . S
C123 H129 0.959 . S
H124 C120 0.960 . S
H125 C120 0.961 . S
H126 C120 0.960 . S
H127 C123 0.960 . S
H128 C123 0.960 . S
H129 C123 0.959 . S
C130 N131 1.317 . S
C130 N132 1.348 . S
C130 C133 1.485 . S
N131 C130 1.317 . S
N131 N135 1.370 . S
N132 C130 1.348 . S
N132 C134 1.346 . S
C133 C130 1.485 . S
C133 H137 0.960 . S
C133 H138 0.961 . S
C133 H139 0.960 . S
C134 N132 1.346 . S
C134 N135 1.307 . S
C134 C136 1.486 . S
N135 N131 1.370 . S
N135 C134 1.307 . S
C136 C134 1.486 . S
C136 H140 0.960 . S
C136 H141 0.960 . S
C136 H142 0.959 . S
H137 C133 0.960 . S
H138 C133 0.961 . S
H139 C133 0.960 . S
H140 C136 0.960 . S
H141 C136 0.960 . S
H142 C136 0.959 . S
C143 N144 1.317 . S
C143 N145 1.348 . S
C143 C146 1.485 . S
N144 C143 1.317 . S
N144 N148 1.370 . S
N145 C143 1.348 . S
N145 C147 1.346 . S
C146 C143 1.485 . S
C146 H150 0.960 . S
C146 H151 0.961 . S
C146 H152 0.960 . S
C147 N145 1.346 . S
C147 N148 1.307 . S
C147 C149 1.486 . S
N148 N144 1.370 . S
N148 C147 1.307 . S
C149 C147 1.486 . S
C149 H153 0.960 . S
C149 H154 0.960 . S
C149 H155 0.959 . S
H150 C146 0.960 . S
H151 C146 0.961 . S
H152 C146 0.960 . S
H153 C149 0.960 . S
H154 C149 0.960 . S
H155 C149 0.959 . S
C156 N157 1.317 . S
C156 N158 1.348 . S
C156 C159 1.485 . S
N157 C156 1.317 . S
N157 N161 1.370 . S
N158 C156 1.348 . S
N158 C160 1.346 . S
C159 C156 1.485 . S
C159 H163 0.960 . S
C159 H164 0.961 . S
C159 H165 0.960 . S
C160 N158 1.346 . S
C160 N161 1.307 . S
C160 C162 1.486 . S
N161 N157 1.370 . S
N161 C160 1.307 . S
C162 C160 1.486 . S
C162 H166 0.960 . S
C162 H167 0.960 . S
C162 H168 0.959 . S
H163 C159 0.960 . S
H164 C159 0.961 . S
H165 C159 0.960 . S
H166 C162 0.960 . S
H167 C162 0.960 . S
H168 C162 0.959 . S
C169 N170 1.317 . S
C169 N171 1.348 . S
C169 C172 1.485 . S
N170 C169 1.317 . S
N170 N174 1.370 . S
N171 C169 1.348 . S
N171 C173 1.346 . S
C172 C169 1.485 . S
C172 H176 0.960 . S
C172 H177 0.961 . S
C172 H178 0.960 . S
C173 N171 1.346 . S
C173 N174 1.307 . S
C173 C175 1.486 . S
N174 N170 1.370 . S
N174 C173 1.307 . S
C175 C173 1.486 . S
C175 H179 0.960 . S
C175 H180 0.960 . S
C175 H181 0.959 . S
H176 C172 0.960 . S
H177 C172 0.961 . S
H178 C172 0.960 . S
H179 C175 0.960 . S
H180 C175 0.960 . S
H181 C175 0.959 . S
C182 N183 1.317 . S
C182 N184 1.348 . S
C182 C185 1.485 . S
N183 C182 1.317 . S
N183 N187 1.370 . S
N184 C182 1.348 . S
N184 C186 1.346 . S
C185 C182 1.485 . S
C185 H189 0.960 . S
C185 H190 0.961 . S
C185 H191 0.960 . S
C186 N184 1.346 . S
C186 N187 1.307 . S
C186 C188 1.486 . S
N187 N183 1.370 . S
N187 C186 1.307 . S
C188 C186 1.486 . S
C188 H192 0.960 . S
C188 H193 0.960 . S
C188 H194 0.959 . S
H189 C185 0.960 . S
H190 C185 0.961 . S
H191 C185 0.960 . S
H192 C188 0.960 . S
H193 C188 0.960 . S
H194 C188 0.959 . S
C195 N196 1.317 . S
C195 N197 1.348 . S
C195 C198 1.485 1_545 S
N196 C195 1.317 . S
N196 N200 1.370 . S
N197 C195 1.348 . S
N197 C199 1.346 1_556 S
C198 C195 1.485 1_565 S
C198 H202 0.960 . S
C198 H203 0.961 . S
C198 H204 0.960 . S
C199 N197 1.346 1_554 S
C199 N200 1.307 1_554 S
C199 C201 1.486 . S
N200 N196 1.370 . S
N200 C199 1.307 1_556 S
C201 C199 1.486 . S
C201 H205 0.960 . S
C201 H206 0.960 . S
C201 H207 0.959 . S
H202 C198 0.960 . S
H203 C198 0.961 . S
H204 C198 0.960 . S
H205 C201 0.960 . S
H206 C201 0.960 . S
H207 C201 0.959 . S
Mg208 O209 2.028 . S
Mg208 O215 1.986 1_554 S
Mg208 O217 2.114 . S
Mg208 O218 2.251 . S
Mg208 O221 2.010 . S
O209 Mg208 2.028 . S
O209 C212 1.250 . S
O210 Mg211 2.029 1_554 S
O210 C212 1.250 . S
Mg211 O210 2.029 1_556 S
Mg211 O216 2.032 . S
Mg211 O218 2.079 1_556 S
C212 O209 1.250 . S
C212 O210 1.250 . S
C213 O214 1.264 . S
C213 O221 1.249 . S
O214 C213 1.264 . S
O215 Mg208 1.986 1_556 S
O215 C219 1.246 . S
O216 Mg211 2.032 . S
O216 C219 1.259 . S
O217 Mg208 2.114 . S
O217 C220 1.252 . S
O218 Mg208 2.251 . S
O218 Mg211 2.079 1_554 S
O218 C220 1.273 . S
C219 O215 1.246 . S
C219 O216 1.259 . S
C220 O217 1.252 . S
C220 O218 1.273 . S
O221 Mg208 2.010 . S
O221 C213 1.249 . S
Mg222 O223 2.028 . S
Mg222 O229 1.986 . S
Mg222 O231 2.114 . S
Mg222 O232 2.251 . S
Mg222 O235 2.010 . S
O223 Mg222 2.028 . S
O223 C226 1.250 . S
O224 Mg225 2.028 . S
O224 C226 1.248 . S
Mg225 O224 2.028 . S
Mg225 O230 2.032 . S
Mg225 O232 2.079 . S
C226 O223 1.250 . S
C226 O224 1.248 . S
C227 O228 1.264 . S
C227 O235 1.249 . S
O228 C227 1.264 . S
O229 Mg222 1.986 . S
O229 C233 1.246 . S
O230 Mg225 2.032 . S
O230 C233 1.259 . S
O231 Mg222 2.114 . S
O231 C234 1.252 . S
O232 Mg222 2.251 . S
O232 Mg225 2.079 . S
O232 C234 1.273 . S
C233 O229 1.246 . S
C233 O230 1.259 . S
C234 O231 1.252 . S
C234 O232 1.273 . S
O235 Mg222 2.010 . S
O235 C227 1.249 . S
Mg236 O237 2.028 . S
Mg236 O243 1.986 1_554 S
Mg236 O245 2.114 . S
Mg236 O246 2.251 . S
Mg236 O249 2.010 . S
O237 Mg236 2.028 . S
O237 C240 1.250 1_554 S
O238 Mg239 2.028 1_556 S
O238 C240 1.248 . S
Mg239 O238 2.028 1_554 S
Mg239 O244 2.032 1_554 S
Mg239 O246 2.079 . S
C240 O237 1.250 1_556 S
C240 O238 1.248 . S
C241 O242 1.264 . S
C241 O249 1.249 . S
O242 C241 1.264 . S
O243 Mg236 1.986 1_556 S
O243 C247 1.246 . S
O244 Mg239 2.032 1_556 S
O244 C247 1.259 . S
O245 Mg236 2.114 . S
O245 C248 1.252 . S
O246 Mg236 2.251 . S
O246 Mg239 2.079 . S
O246 C248 1.273 . S
C247 O243 1.246 . S
C247 O244 1.259 . S
C248 O245 1.252 . S
C248 O246 1.273 . S
O249 Mg236 2.010 . S
O249 C241 1.249 . S
Mg250 O251 2.028 1_545 S
Mg250 O257 1.986 . S
Mg250 O259 2.114 . S
Mg250 O260 2.251 1_545 S
Mg250 O263 2.010 . S
O251 Mg250 2.028 1_565 S
O251 C254 1.250 . S
O252 Mg253 2.028 . S
O252 C254 1.248 . S
Mg253 O252 2.028 . S
Mg253 O258 2.032 . S
Mg253 O260 2.079 . S
C254 O251 1.250 . S
C254 O252 1.248 . S
C255 O256 1.264 . S
C255 O263 1.249 . S
O256 C255 1.264 . S
O257 Mg250 1.986 . S
O257 C261 1.247 . S
O258 Mg253 2.032 . S
O258 C261 1.258 1_565 S
O259 Mg250 2.114 . S
O259 C262 1.252 . S
O260 Mg250 2.251 1_565 S
O260 Mg253 2.079 . S
O260 C262 1.273 1_565 S
C261 O257 1.247 . S
C261 O258 1.258 1_545 S
C262 O259 1.252 . S
C262 O260 1.273 1_545 S
O263 Mg250 2.010 . S
O263 C255 1.249 . S
Mg264 O265 2.028 . S
Mg264 O271 1.986 . S
Mg264 O273 2.114 . S
Mg264 O274 2.251 . S
Mg264 O277 2.010 . S
O265 Mg264 2.028 . S
O265 C268 1.250 . S
O266 Mg267 2.028 . S
O266 C268 1.248 . S
Mg267 O266 2.028 . S
Mg267 O272 2.032 . S
Mg267 O274 2.079 . S
C268 O265 1.250 . S
C268 O266 1.248 . S
C269 O270 1.264 . S
C269 O277 1.249 . S
O270 C269 1.264 . S
O271 Mg264 1.986 . S
O271 C275 1.246 . S
O272 Mg267 2.032 . S
O272 C275 1.259 . S
O273 Mg264 2.114 . S
O273 C276 1.252 . S
O274 Mg264 2.251 . S
O274 Mg267 2.079 . S
O274 C276 1.273 . S
C275 O271 1.246 . S
C275 O272 1.259 . S
C276 O273 1.252 . S
C276 O274 1.273 . S
O277 Mg264 2.010 . S
O277 C269 1.249 . S
Mg278 O279 2.028 . S
Mg278 O285 1.986 . S
Mg278 O287 2.114 . S
Mg278 O288 2.251 . S
Mg278 O291 2.010 . S
O279 Mg278 2.028 . S
O279 C282 1.250 . S
O280 Mg281 2.028 . S
O280 C282 1.248 . S
Mg281 O280 2.028 . S
Mg281 O286 2.032 . S
Mg281 O288 2.079 . S
C282 O279 1.250 . S
C282 O280 1.248 . S
C283 O284 1.264 . S
C283 O291 1.249 . S
O284 C283 1.264 . S
O285 Mg278 1.986 . S
O285 C289 1.246 . S
O286 Mg281 2.032 . S
O286 C289 1.259 . S
O287 Mg278 2.114 . S
O287 C290 1.252 . S
O288 Mg278 2.251 . S
O288 Mg281 2.079 . S
O288 C290 1.273 . S
C289 O285 1.246 . S
C289 O286 1.259 . S
C290 O287 1.252 . S
C290 O288 1.273 . S
O291 Mg278 2.010 . S
O291 C283 1.249 . S
Mg292 O293 2.028 . S
Mg292 O299 1.986 . S
Mg292 O301 2.114 . S
Mg292 O302 2.251 . S
Mg292 O305 2.010 . S
O293 Mg292 2.028 . S
O293 C296 1.250 . S
O294 Mg295 2.028 . S
O294 C296 1.248 . S
Mg295 O294 2.028 . S
Mg295 O300 2.032 . S
Mg295 O302 2.079 . S
C296 O293 1.250 . S
C296 O294 1.248 . S
C297 O298 1.264 . S
C297 O305 1.249 . S
O298 C297 1.264 . S
O299 Mg292 1.986 . S
O299 C303 1.246 . S
O300 Mg295 2.032 . S
O300 C303 1.259 . S
O301 Mg292 2.114 . S
O301 C304 1.252 . S
O302 Mg292 2.251 . S
O302 Mg295 2.079 . S
O302 C304 1.273 . S
C303 O299 1.246 . S
C303 O300 1.259 . S
C304 O301 1.252 . S
C304 O302 1.273 . S
O305 Mg292 2.010 . S
O305 C297 1.249 . S
Mg306 O307 2.028 . S
Mg306 O313 1.986 1_545 S
Mg306 O315 2.114 . S
Mg306 O316 2.251 . S
Mg306 O319 2.010 . S
O307 Mg306 2.028 . S
O307 C310 1.250 1_545 S
O308 Mg309 2.028 . S
O308 C310 1.248 . S
Mg309 O308 2.028 . S
Mg309 O314 2.032 . S
Mg309 O316 2.079 1_565 S
C310 O307 1.250 1_565 S
C310 O308 1.248 . S
C311 O312 1.264 . S
C311 O319 1.249 . S
O312 C311 1.264 . S
O313 Mg306 1.986 1_565 S
O313 C317 1.246 . S
O314 Mg309 2.032 . S
O314 C317 1.259 . S
O315 Mg306 2.114 . S
O315 C318 1.252 . S
O316 Mg306 2.251 . S
O316 Mg309 2.079 1_545 S
O316 C318 1.273 . S
C317 O313 1.246 . S
C317 O314 1.259 . S
C318 O315 1.252 . S
C318 O316 1.273 . S
O319 Mg306 2.010 . S
O319 C311 1.249 . S
Mg320 O321 2.028 1_455 S
Mg320 O327 1.986 . S
Mg320 O329 2.114 . S
Mg320 O330 2.251 1_455 S
Mg320 O333 2.010 . S
O321 Mg320 2.028 1_655 S
O321 C324 1.250 . S
O322 Mg323 2.028 . S
O322 C324 1.248 . S
Mg323 O322 2.028 . S
Mg323 O328 2.032 . S
Mg323 O330 2.079 . S
C324 O321 1.250 . S
C324 O322 1.248 . S
C325 O326 1.264 . S
C325 O333 1.249 . S
O326 C325 1.264 . S
O327 Mg320 1.986 . S
O327 C331 1.246 1_455 S
O328 Mg323 2.032 . S
O328 C331 1.259 . S
O329 Mg320 2.114 . S
O329 C332 1.252 . S
O330 Mg320 2.251 1_655 S
O330 Mg323 2.079 . S
O330 C332 1.273 1_655 S
C331 O327 1.246 1_655 S
C331 O328 1.259 . S
C332 O329 1.252 . S
C332 O330 1.273 1_455 S
O333 Mg320 2.010 . S
O333 C325 1.249 . S
Mg334 O335 2.028 . S
Mg334 O341 1.986 . S
Mg334 O343 2.114 . S
Mg334 O344 2.251 . S
Mg334 O347 2.010 . S
O335 Mg334 2.028 . S
O335 C338 1.250 . S
O336 Mg337 2.028 . S
O336 C338 1.248 . S
Mg337 O336 2.028 . S
Mg337 O342 2.032 . S
Mg337 O344 2.079 . S
C338 O335 1.250 . S
C338 O336 1.248 . S
C339 O340 1.264 . S
C339 O347 1.249 . S
O340 C339 1.264 . S
O341 Mg334 1.986 . S
O341 C345 1.246 . S
O342 Mg337 2.032 . S
O342 C345 1.259 . S
O343 Mg334 2.114 . S
O343 C346 1.252 . S
O344 Mg334 2.251 . S
O344 Mg337 2.079 . S
O344 C346 1.273 . S
C345 O341 1.246 . S
C345 O342 1.259 . S
C346 O343 1.252 . S
C346 O344 1.273 . S
O347 Mg334 2.010 . S
O347 C339 1.249 . S
Mg348 O349 2.028 . S
Mg348 O355 1.986 . S
Mg348 O357 2.114 1_455 S
Mg348 O358 2.251 . S
Mg348 O361 2.010 1_455 S
O349 Mg348 2.028 . S
O349 C352 1.250 . S
O350 Mg351 2.028 . S
O350 C352 1.248 . S
Mg351 O350 2.028 . S
Mg351 O356 2.032 . S
Mg351 O358 2.079 . S
C352 O349 1.250 . S
C352 O350 1.248 . S
C353 O354 1.264 . S
C353 O361 1.249 . S
O354 C353 1.264 . S
O355 Mg348 1.986 . S
O355 C359 1.246 . S
O356 Mg351 2.032 . S
O356 C359 1.259 . S
O357 Mg348 2.114 1_655 S
O357 C360 1.252 1_655 S
O358 Mg348 2.251 . S
O358 Mg351 2.079 . S
O358 C360 1.273 . S
C359 O355 1.246 . S
C359 O356 1.259 . S
C360 O357 1.252 1_455 S
C360 O358 1.273 . S
O361 Mg348 2.010 1_655 S
O361 C353 1.249 . S
Mg362 O363 2.028 . S
Mg362 O369 1.986 . S
Mg362 O371 2.114 . S
Mg362 O372 2.251 . S
Mg362 O375 2.010 . S
O363 Mg362 2.028 . S
O363 C366 1.250 . S
O364 Mg365 2.028 . S
O364 C366 1.248 . S
Mg365 O364 2.028 . S
Mg365 O370 2.032 . S
Mg365 O372 2.079 . S
C366 O363 1.250 . S
C366 O364 1.248 . S
C367 O368 1.264 . S
C367 O375 1.249 . S
O368 C367 1.264 . S
O369 Mg362 1.986 . S
O369 C373 1.246 . S
O370 Mg365 2.032 . S
O370 C373 1.259 . S
O371 Mg362 2.114 . S
O371 C374 1.252 . S
O372 Mg362 2.251 . S
O372 Mg365 2.079 . S
O372 C374 1.273 . S
C373 O369 1.246 . S
C373 O370 1.259 . S
C374 O371 1.252 . S
C374 O372 1.273 . S
O375 Mg362 2.010 . S
O375 C367 1.249 . S
C376 C377 1.363 . S
C376 C382 1.379 . S
C376 N384 1.356 . S
C377 C376 1.363 . S
C377 C383 1.363 . S
C378 C379 1.363 . S
C378 C383 1.379 . S
C378 N385 1.356 . S
C379 C378 1.363 . S
C379 C382 1.363 . S
N380 C382 1.356 . S
N380 H392 0.984 . S
N380 H393 0.985 . S
N381 C383 1.356 . S
N381 H386 0.984 . S
N381 H387 0.985 . S
C382 C376 1.379 . S
C382 C379 1.363 . S
C382 N380 1.356 . S
C383 C377 1.363 . S
C383 C378 1.379 . S
C383 N381 1.356 . S
N384 C376 1.356 . S
N384 H390 0.984 . S
N384 H391 0.984 . S
N385 C378 1.356 . S
N385 H388 0.984 . S
N385 H389 0.985 . S
H386 N381 0.984 . S
H387 N381 0.985 . S
H388 N385 0.984 . S
H389 N385 0.985 . S
H390 N384 0.984 . S
H391 N384 0.984 . S
H392 N380 0.984 . S
H393 N380 0.985 . S
C394 C395 1.363 . S
C394 C400 1.379 . S
C394 N402 1.356 1_455 S
C395 C394 1.363 . S
C395 C401 1.363 . S
C396 C397 1.363 . S
C396 C401 1.379 . S
C396 N403 1.356 . S
C397 C396 1.363 . S
C397 C400 1.363 . S
N398 C400 1.356 . S
N398 H410 0.984 . S
N398 H411 0.985 . S
N399 C401 1.356 . S
N399 H404 0.984 1_455 S
N399 H405 0.985 . S
C400 C394 1.379 . S
C400 C397 1.363 . S
C400 N398 1.356 . S
C401 C395 1.363 . S
C401 C396 1.379 . S
C401 N399 1.356 . S
N402 C394 1.356 1_655 S
N402 H408 0.984 . S
N402 H409 0.984 . S
N403 C396 1.356 . S
N403 H406 0.984 . S
N403 H407 0.985 . S
H404 N399 0.984 1_655 S
H405 N399 0.985 . S
H406 N403 0.984 . S
H407 N403 0.985 . S
H408 N402 0.984 . S
H409 N402 0.984 . S
H410 N398 0.984 . S
H411 N398 0.985 . S
C412 C413 1.363 . S
C412 C418 1.379 . S
C412 N420 1.356 . S
C413 C412 1.363 . S
C413 C419 1.363 . S
C414 C415 1.363 . S
C414 C419 1.379 . S
C414 N421 1.356 . S
C415 C414 1.363 . S
C415 C418 1.363 . S
N416 C418 1.356 . S
N416 H428 0.984 . S
N416 H429 0.985 . S
N417 C419 1.356 . S
N417 H422 0.984 . S
N417 H423 0.985 . S
C418 C412 1.379 . S
C418 C415 1.363 . S
C418 N416 1.356 . S
C419 C413 1.363 . S
C419 C414 1.379 . S
C419 N417 1.356 . S
N420 C412 1.356 . S
N420 H426 0.984 . S
N420 H427 0.984 . S
N421 C414 1.356 . S
N421 H424 0.984 . S
N421 H425 0.985 . S
H422 N417 0.984 . S
H423 N417 0.985 . S
H424 N421 0.984 . S
H425 N421 0.985 . S
H426 N420 0.984 . S
H427 N420 0.984 . S
H428 N416 0.984 . S
H429 N416 0.985 . S
C430 C431 1.333 1_645 S
C430 C436 1.379 . S
C430 N438 1.356 . S
C431 C430 1.333 1_465 S
C431 C437 1.369 . S
C432 C433 1.363 1_565 S
C432 C437 1.379 1_655 S
C432 N439 1.356 . S
C433 C432 1.363 1_545 S
C433 C436 1.363 . S
N434 C436 1.356 . S
N434 H446 0.984 . S
N434 H447 0.985 . S
N435 C437 1.356 . S
N435 H440 0.984 . S
N435 H441 0.985 . S
C436 C430 1.379 . S
C436 C433 1.363 . S
C436 N434 1.356 . S
C437 C431 1.369 . S
C437 C432 1.379 1_455 S
C437 N435 1.356 . S
N438 C430 1.356 . S
N438 H444 0.984 . S
N438 H445 0.984 1_545 S
N439 C432 1.356 . S
N439 H442 0.984 . S
N439 H443 0.985 . S
H440 N435 0.984 . S
H441 N435 0.985 . S
H442 N439 0.984 . S
H443 N439 0.985 . S
H444 N438 0.984 . S
H445 N438 0.984 1_565 S
H446 N434 0.984 . S
H447 N434 0.985 . S
C448 C449 1.363 . S
C448 C454 1.379 . S
C448 N456 1.356 . S
C449 C448 1.363 . S
C449 C455 1.363 . S
C450 C451 1.363 . S
C450 C455 1.379 . S
C450 N457 1.356 . S
C451 C450 1.363 . S
C451 C454 1.363 . S
N452 C454 1.356 . S
N452 H464 0.984 . S
N452 H465 0.985 . S
N453 C455 1.356 . S
N453 H458 0.984 . S
N453 H459 0.985 . S
C454 C448 1.379 . S
C454 C451 1.363 . S
C454 N452 1.356 . S
C455 C449 1.363 . S
C455 C450 1.379 . S
C455 N453 1.356 . S
N456 C448 1.356 . S
N456 H462 0.984 . S
N456 H463 0.984 . S
N457 C450 1.356 . S
N457 H460 0.984 . S
N457 H461 0.985 . S
H458 N453 0.984 . S
H459 N453 0.985 . S
H460 N457 0.984 . S
H461 N457 0.985 . S
H462 N456 0.984 . S
H463 N456 0.984 . S
H464 N452 0.984 . S
H465 N452 0.985 . S
C466 C467 1.363 . S
C466 C472 1.379 . S
C466 N474 1.356 . S
C467 C466 1.363 . S
C467 C473 1.363 . S
C468 C469 1.363 . S
C468 C473 1.379 . S
C468 N475 1.356 . S
C469 C468 1.363 . S
C469 C472 1.363 . S
N470 C472 1.356 . S
N470 H482 0.984 . S
N470 H483 0.985 . S
N471 C473 1.356 . S
N471 H476 0.984 . S
N471 H477 0.985 . S
C472 C466 1.379 . S
C472 C469 1.363 . S
C472 N470 1.356 . S
C473 C467 1.363 . S
C473 C468 1.379 . S
C473 N471 1.356 . S
N474 C466 1.356 . S
N474 H480 0.984 . S
N474 H481 0.984 . S
N475 C468 1.356 . S
N475 H478 0.984 . S
N475 H479 0.985 . S
H476 N471 0.984 . S
H477 N471 0.985 . S
H478 N475 0.984 . S
H479 N475 0.985 . S
H480 N474 0.984 . S
H481 N474 0.984 . S
H482 N470 0.984 . S
H483 N470 0.985 . S
C484 C485 1.363 . S
C484 C490 1.379 . S
C484 N492 1.356 . S
C485 C484 1.363 . S
C485 C491 1.363 . S
C486 C487 1.363 . S
C486 C491 1.379 . S
C486 N493 1.356 . S
C487 C486 1.363 . S
C487 C490 1.363 . S
N488 C490 1.356 . S
N488 H500 0.984 . S
N488 H501 0.985 . S
N489 C491 1.356 . S
N489 H494 0.984 . S
N489 H495 0.985 . S
C490 C484 1.379 . S
C490 C487 1.363 . S
C490 N488 1.356 . S
C491 C485 1.363 . S
C491 C486 1.379 . S
C491 N489 1.356 . S
N492 C484 1.356 . S
N492 H498 0.984 . S
N492 H499 0.984 . S
N493 C486 1.356 . S
N493 H496 0.984 . S
N493 H497 0.985 . S
H494 N489 0.984 . S
H495 N489 0.985 . S
H496 N493 0.984 . S
H497 N493 0.985 . S
H498 N492 0.984 . S
H499 N492 0.984 . S
H500 N488 0.984 . S
H501 N488 0.985 . S
C502 C503 1.363 . S
C502 C508 1.379 1_565 S
C502 N510 1.356 1_565 S
C503 C502 1.363 . S
C503 C509 1.363 . S
C504 C505 1.363 . S
C504 C509 1.379 . S
C504 N511 1.356 . S
C505 C504 1.363 . S
C505 C508 1.363 1_565 S
N506 C508 1.356 . S
N506 H518 0.984 . S
N506 H519 0.985 . S
N507 C509 1.356 . S
N507 H512 0.984 . S
N507 H513 0.985 . S
C508 C502 1.379 1_545 S
C508 C505 1.363 1_545 S
C508 N506 1.356 . S
C509 C503 1.363 . S
C509 C504 1.379 . S
C509 N507 1.356 . S
N510 C502 1.356 1_545 S
N510 H516 0.984 . S
N510 H517 0.984 1_545 S
N511 C504 1.356 . S
N511 H514 0.984 . S
N511 H515 0.985 . S
H512 N507 0.984 . S
H513 N507 0.985 . S
H514 N511 0.984 . S
H515 N511 0.985 . S
H516 N510 0.984 . S
H517 N510 0.984 1_565 S
H518 N506 0.984 . S
H519 N506 0.985 . S
C520 C521 1.363 . S
C520 C526 1.379 . S
C520 N528 1.356 . S
C521 C520 1.363 . S
C521 C527 1.363 . S
C522 C523 1.363 . S
C522 C527 1.379 . S
C522 N529 1.356 . S
C523 C522 1.363 . S
C523 C526 1.363 . S
N524 C526 1.356 . S
N524 H536 0.984 . S
N524 H537 0.985 . S
N525 C527 1.356 . S
N525 H530 0.984 . S
N525 H531 0.985 . S
C526 C520 1.379 . S
C526 C523 1.363 . S
C526 N524 1.356 . S
C527 C521 1.363 . S
C527 C522 1.379 . S
C527 N525 1.356 . S
N528 C520 1.356 . S
N528 H534 0.984 . S
N528 H535 0.984 . S
N529 C522 1.356 . S
N529 H532 0.984 . S
N529 H533 0.985 . S
H530 N525 0.984 . S
H531 N525 0.985 . S
H532 N529 0.984 . S
H533 N529 0.985 . S
H534 N528 0.984 . S
H535 N528 0.984 . S
H536 N524 0.984 . S
H537 N524 0.985 . S
C538 C539 1.363 . S
C538 C544 1.379 . S
C538 N546 1.356 . S
C539 C538 1.363 . S
C539 C545 1.363 . S
C540 C541 1.363 . S
C540 C545 1.379 . S
C540 N547 1.356 . S
C541 C540 1.363 . S
C541 C544 1.363 . S
N542 C544 1.356 . S
N542 H554 0.984 . S
N542 H555 0.985 . S
N543 C545 1.356 . S
N543 H548 0.984 . S
N543 H549 0.985 . S
C544 C538 1.379 . S
C544 C541 1.363 . S
C544 N542 1.356 . S
C545 C539 1.363 . S
C545 C540 1.379 . S
C545 N543 1.356 . S
N546 C538 1.356 . S
N546 H552 0.984 . S
N546 H553 0.984 . S
N547 C540 1.356 . S
N547 H550 0.984 . S
N547 H551 0.985 . S
H548 N543 0.984 . S
H549 N543 0.985 . S
H550 N547 0.984 . S
H551 N547 0.985 . S
H552 N546 0.984 . S
H553 N546 0.984 . S
H554 N542 0.984 . S
H555 N542 0.985 . S
C556 C557 1.363 . S
C556 C562 1.379 . S
C556 N564 1.356 . S
C557 C556 1.363 . S
C557 C563 1.363 . S
C558 C559 1.363 . S
C558 C563 1.379 . S
C558 N565 1.356 . S
C559 C558 1.363 . S
C559 C562 1.363 . S
N560 C562 1.356 . S
N560 H572 0.984 . S
N560 H573 0.985 . S
N561 C563 1.356 . S
N561 H566 0.984 . S
N561 H567 0.985 . S
C562 C556 1.379 . S
C562 C559 1.363 . S
C562 N560 1.356 . S
C563 C557 1.363 . S
C563 C558 1.379 . S
C563 N561 1.356 . S
N564 C556 1.356 . S
N564 H570 0.984 . S
N564 H571 0.984 . S
N565 C558 1.356 . S
N565 H568 0.984 . S
N565 H569 0.985 . S
H566 N561 0.984 . S
H567 N561 0.985 . S
H568 N565 0.984 . S
H569 N565 0.985 . S
H570 N564 0.984 . S
H571 N564 0.984 . S
H572 N560 0.984 . S
H573 N560 0.985 . S
C574 C575 1.363 . S
C574 C580 1.379 . S
C574 N582 1.356 . S
C575 C574 1.363 . S
C575 C581 1.363 . S
C576 C577 1.363 . S
C576 C581 1.379 . S
C576 N583 1.356 . S
C577 C576 1.363 . S
C577 C580 1.363 . S
N578 C580 1.356 . S
N578 H590 0.984 . S
N578 H591 0.985 . S
N579 C581 1.356 . S
N579 H584 0.984 . S
N579 H585 0.985 . S
C580 C574 1.379 . S
C580 C577 1.363 . S
C580 N578 1.356 . S
C581 C575 1.363 . S
C581 C576 1.379 . S
C581 N579 1.356 . S
N582 C574 1.356 . S
N582 H588 0.984 . S
N582 H589 0.984 . S
N583 C576 1.356 . S
N583 H586 0.984 . S
N583 H587 0.985 . S
H584 N579 0.984 . S
H585 N579 0.985 . S
H586 N583 0.984 . S
H587 N583 0.985 . S
H588 N582 0.984 . S
H589 N582 0.984 . S
H590 N578 0.984 . S
H591 N578 0.985 . S
C592 C593 1.363 . S
C592 C598 1.379 . S
C592 N600 1.356 . S
C593 C592 1.363 . S
C593 C599 1.363 . S
C594 C595 1.363 . S
C594 C599 1.379 . S
C594 N601 1.356 . S
C595 C594 1.363 . S
C595 C598 1.363 . S
N596 C598 1.356 . S
N596 H608 0.984 . S
N596 H609 0.985 . S
N597 C599 1.356 . S
N597 H602 0.984 . S
N597 H603 0.985 . S
C598 C592 1.379 . S
C598 C595 1.363 . S
C598 N596 1.356 . S
C599 C593 1.363 . S
C599 C594 1.379 . S
C599 N597 1.356 . S
N600 C592 1.356 . S
N600 H606 0.984 . S
N600 H607 0.984 . S
N601 C594 1.356 . S
N601 H604 0.984 . S
N601 H605 0.985 . S
H602 N597 0.984 . S
H603 N597 0.985 . S
H604 N601 0.984 . S
H605 N601 0.985 . S
H606 N600 0.984 . S
H607 N600 0.984 . S
H608 N596 0.984 . S
H609 N596 0.985 . S
C610 C611 1.363 . S
C610 C616 1.379 . S
C610 N618 1.356 . S
C611 C610 1.363 . S
C611 C617 1.363 . S
C612 C613 1.363 . S
C612 C617 1.379 . S
C612 N619 1.356 . S
C613 C612 1.363 . S
C613 C616 1.363 . S
N614 C616 1.356 . S
N614 H626 0.984 . S
N614 H627 0.985 . S
N615 C617 1.356 . S
N615 H620 0.984 . S
N615 H621 0.985 . S
C616 C610 1.379 . S
C616 C613 1.363 . S
C616 N614 1.356 . S
C617 C611 1.363 . S
C617 C612 1.379 . S
C617 N615 1.356 . S
N618 C610 1.356 . S
N618 H624 0.984 . S
N618 H625 0.984 . S
N619 C612 1.356 . S
N619 H622 0.984 . S
N619 H623 0.985 . S
H620 N615 0.984 . S
H621 N615 0.985 . S
H622 N619 0.984 . S
H623 N619 0.985 . S
H624 N618 0.984 . S
H625 N618 0.984 . S
H626 N614 0.984 . S
H627 N614 0.985 . S
C628 C629 1.363 . S
C628 C634 1.379 . S
C628 N636 1.356 . S
C629 C628 1.363 . S
C629 C635 1.363 . S
C630 C631 1.363 . S
C630 C635 1.379 . S
C630 N637 1.356 . S
C631 C630 1.363 . S
C631 C634 1.363 . S
N632 C634 1.356 . S
N632 H644 0.984 . S
N632 H645 0.985 . S
N633 C635 1.356 . S
N633 H638 0.984 . S
N633 H639 0.985 . S
C634 C628 1.379 . S
C634 C631 1.363 . S
C634 N632 1.356 . S
C635 C629 1.363 . S
C635 C630 1.379 . S
C635 N633 1.356 . S
N636 C628 1.356 . S
N636 H642 0.984 . S
N636 H643 0.984 . S
N637 C630 1.356 . S
N637 H640 0.984 . S
N637 H641 0.985 . S
H638 N633 0.984 . S
H639 N633 0.985 . S
H640 N637 0.984 . S
H641 N637 0.985 . S
H642 N636 0.984 . S
H643 N636 0.984 . S
H644 N632 0.984 . S
H645 N632 0.985 . S
C646 C647 1.363 . S
C646 C652 1.379 1_655 S
C646 N654 1.356 . S
C647 C646 1.363 . S
C647 C653 1.363 . S
C648 C649 1.363 . S
C648 C653 1.379 . S
C648 N655 1.356 . S
C649 C648 1.363 . S
C649 C652 1.363 1_655 S
N650 C652 1.356 . S
N650 H662 0.984 . S
N650 H663 0.985 . S
N651 C653 1.356 . S
N651 H656 0.984 . S
N651 H657 0.985 . S
C652 C646 1.379 1_455 S
C652 C649 1.363 1_455 S
C652 N650 1.356 . S
C653 C647 1.363 . S
C653 C648 1.379 . S
C653 N651 1.356 . S
N654 C646 1.356 . S
N654 H660 0.984 1_655 S
N654 H661 0.984 . S
N655 C648 1.356 . S
N655 H658 0.984 . S
N655 H659 0.985 . S
H656 N651 0.984 . S
H657 N651 0.985 . S
H658 N655 0.984 . S
H659 N655 0.985 . S
H660 N654 0.984 1_455 S
H661 N654 0.984 . S
H662 N650 0.984 . S
H663 N650 0.985 . S
C664 C665 1.363 . S
C664 C670 1.379 . S
C664 N672 1.356 . S
C665 C664 1.363 . S
C665 C671 1.363 . S
C666 C667 1.363 . S
C666 C671 1.379 . S
C666 N673 1.356 . S
C667 C666 1.363 . S
C667 C670 1.363 . S
N668 C670 1.356 . S
N668 H680 0.984 . S
N668 H681 0.985 . S
N669 C671 1.356 . S
N669 H674 0.984 . S
N669 H675 0.985 . S
C670 C664 1.379 . S
C670 C667 1.363 . S
C670 N668 1.356 . S
C671 C665 1.363 . S
C671 C666 1.379 . S
C671 N669 1.356 . S
N672 C664 1.356 . S
N672 H678 0.984 . S
N672 H679 0.984 . S
N673 C666 1.356 . S
N673 H676 0.984 . S
N673 H677 0.985 . S
H674 N669 0.984 . S
H675 N669 0.985 . S
H676 N673 0.984 . S
H677 N673 0.985 . S
H678 N672 0.984 . S
H679 N672 0.984 . S
H680 N668 0.984 . S
H681 N668 0.985 . S
C682 C683 1.363 . S
C682 C688 1.379 . S
C682 N690 1.356 . S
C683 C682 1.363 . S
C683 C689 1.363 . S
C684 C685 1.363 . S
C684 C689 1.379 . S
C684 N691 1.356 . S
C685 C684 1.363 . S
C685 C688 1.363 . S
N686 C688 1.356 . S
N686 H698 0.984 . S
N686 H699 0.985 . S
N687 C689 1.356 . S
N687 H692 0.984 . S
N687 H693 0.985 . S
C688 C682 1.379 . S
C688 C685 1.363 . S
C688 N686 1.356 . S
C689 C683 1.363 . S
C689 C684 1.379 . S
C689 N687 1.356 . S
N690 C682 1.356 . S
N690 H696 0.984 . S
N690 H697 0.984 . S
N691 C684 1.356 . S
N691 H694 0.984 . S
N691 H695 0.985 . S
H692 N687 0.984 . S
H693 N687 0.985 . S
H694 N691 0.984 . S
H695 N691 0.985 . S
H696 N690 0.984 . S
H697 N690 0.984 . S
H698 N686 0.984 . S
H699 N686 0.985 . S
C700 C701 1.363 . S
C700 C706 1.379 . S
C700 N708 1.356 1_565 S
C701 C700 1.363 . S
C701 C707 1.363 1_556 S
C702 C703 1.363 . S
C702 C707 1.379 . S
C702 N709 1.356 . S
C703 C702 1.363 . S
C703 C706 1.363 1_554 S
N704 C706 1.356 . S
N704 H716 1.006 . S
N704 H717 0.985 . S
N705 C707 1.356 . S
N705 H710 0.984 1_554 S
N705 H711 0.985 . S
C706 C700 1.379 . S
C706 C703 1.363 1_556 S
C706 N704 1.356 . S
C707 C701 1.363 1_554 S
C707 C702 1.379 . S
C707 N705 1.356 . S
N708 C700 1.356 1_545 S
N708 H714 0.984 . S
N708 H715 0.984 . S
N709 C702 1.356 . S
N709 H712 0.984 . S
N709 H713 0.985 . S
H710 N705 0.984 1_556 S
H711 N705 0.985 . S
H712 N709 0.984 . S
H713 N709 0.985 . S
H714 N708 0.984 . S
H715 N708 0.984 . S
H716 N704 1.006 . S
H717 N704 0.985 . S
C718 C719 1.363 . S
C718 C724 1.379 . S
C718 N726 1.356 . S
C719 C718 1.363 . S
C719 C725 1.363 . S
C720 C721 1.363 . S
C720 C725 1.379 . S
C720 N727 1.356 . S
C721 C720 1.363 . S
C721 C724 1.363 . S
N722 C724 1.356 . S
N722 H734 0.984 . S
N722 H735 0.985 . S
N723 C725 1.356 . S
N723 H728 0.984 . S
N723 H729 0.985 . S
C724 C718 1.379 . S
C724 C721 1.363 . S
C724 N722 1.356 . S
C725 C719 1.363 . S
C725 C720 1.379 . S
C725 N723 1.356 . S
N726 C718 1.356 . S
N726 H732 0.984 . S
N726 H733 0.984 . S
N727 C720 1.356 . S
N727 H730 0.984 . S
N727 H731 0.985 . S
H728 N723 0.984 . S
H729 N723 0.985 . S
H730 N727 0.984 . S
H731 N727 0.985 . S
H732 N726 0.984 . S
H733 N726 0.984 . S
H734 N722 0.984 . S
H735 N722 0.985 . S
C736 C737 1.363 . S
C736 C742 1.379 . S
C736 N744 1.356 . S
C737 C736 1.363 . S
C737 C743 1.363 . S
C738 C739 1.363 . S
C738 C743 1.379 . S
C738 N745 1.356 . S
C739 C738 1.363 . S
C739 C742 1.363 . S
N740 C742 1.356 . S
N740 H752 0.984 . S
N740 H753 0.985 . S
N741 C743 1.356 1_565 S
N741 H746 0.984 . S
N741 H747 0.985 . S
C742 C736 1.379 . S
C742 C739 1.363 . S
C742 N740 1.356 . S
C743 C737 1.363 . S
C743 C738 1.379 . S
C743 N741 1.356 1_545 S
N744 C736 1.356 . S
N744 H750 0.984 . S
N744 H751 0.984 . S
N745 C738 1.356 . S
N745 H748 0.984 . S
N745 H749 0.985 . S
H746 N741 0.984 . S
H747 N741 0.985 . S
H748 N745 0.984 . S
H749 N745 0.985 . S
H750 N744 0.984 . S
H751 N744 0.984 . S
H752 N740 0.984 . S
H753 N740 0.985 . S
C754 C755 1.363 . S
C754 C760 1.379 . S
C754 N762 1.356 . S
C755 C754 1.363 . S
C755 C761 1.363 . S
C756 C757 1.363 . S
C756 C761 1.379 . S
C756 N763 1.356 . S
C757 C756 1.363 . S
C757 C760 1.363 . S
N758 C760 1.356 . S
N758 H770 0.984 . S
N758 H771 0.985 . S
N759 C761 1.356 . S
N759 H764 0.984 . S
N759 H765 0.985 . S
C760 C754 1.379 . S
C760 C757 1.363 . S
C760 N758 1.356 . S
C761 C755 1.363 . S
C761 C756 1.379 . S
C761 N759 1.356 . S
N762 C754 1.356 . S
N762 H768 0.984 . S
N762 H769 0.984 . S
N763 C756 1.356 . S
N763 H766 0.984 . S
N763 H767 0.985 . S
H764 N759 0.984 . S
H765 N759 0.985 . S
H766 N763 0.984 . S
H767 N763 0.985 . S
H768 N762 0.984 . S
H769 N762 0.984 . S
H770 N758 0.984 . S
H771 N758 0.985 . S
C772 C773 1.363 . S
C772 C778 1.379 . S
C772 N780 1.356 . S
C773 C772 1.363 . S
C773 C779 1.363 . S
C774 C775 1.363 . S
C774 C779 1.379 . S
C774 N781 1.356 . S
C775 C774 1.363 . S
C775 C778 1.363 . S
N776 C778 1.356 . S
N776 H788 0.984 . S
N776 H789 0.985 . S
N777 C779 1.356 1_565 S
N777 H782 0.984 . S
N777 H783 0.985 . S
C778 C772 1.379 . S
C778 C775 1.363 . S
C778 N776 1.356 . S
C779 C773 1.363 . S
C779 C774 1.379 . S
C779 N777 1.356 1_545 S
N780 C772 1.356 . S
N780 H786 0.984 . S
N780 H787 0.984 . S
N781 C774 1.356 . S
N781 H784 0.984 . S
N781 H785 0.985 . S
H782 N777 0.984 . S
H783 N777 0.985 . S
H784 N781 0.984 . S
H785 N781 0.985 . S
H786 N780 0.984 . S
H787 N780 0.984 . S
H788 N776 0.984 . S
H789 N776 0.985 . S
C790 C791 1.363 . S
C790 C796 1.379 . S
C790 N798 1.356 . S
C791 C790 1.363 . S
C791 C797 1.363 . S
C792 C793 1.363 . S
C792 C797 1.379 . S
C792 N799 1.356 . S
C793 C792 1.363 . S
C793 C796 1.363 . S
N794 C796 1.356 . S
N794 H806 0.984 . S
N794 H807 0.985 . S
N795 C797 1.356 . S
N795 H800 0.984 . S
N795 H801 0.985 . S
C796 C790 1.379 . S
C796 C793 1.363 . S
C796 N794 1.356 . S
C797 C791 1.363 . S
C797 C792 1.379 . S
C797 N795 1.356 . S
N798 C790 1.356 . S
N798 H804 0.984 . S
N798 H805 0.984 . S
N799 C792 1.356 . S
N799 H802 0.984 . S
N799 H803 0.985 . S
H800 N795 0.984 . S
H801 N795 0.985 . S
H802 N799 0.984 . S
H803 N799 0.985 . S
H804 N798 0.984 . S
H805 N798 0.984 . S
H806 N794 0.984 . S
H807 N794 0.985 . S
C808 C809 1.363 . S
C808 C814 1.379 . S
C808 N816 1.356 . S
C809 C808 1.363 . S
C809 C815 1.363 . S
C810 C811 1.363 . S
C810 C815 1.379 . S
C810 N817 1.356 . S
C811 C810 1.363 . S
C811 C814 1.363 . S
N812 C814 1.356 . S
N812 H824 0.984 . S
N812 H825 0.985 . S
N813 C815 1.356 . S
N813 H818 0.984 . S
N813 H819 0.985 . S
C814 C808 1.379 . S
C814 C811 1.363 . S
C814 N812 1.356 . S
C815 C809 1.363 . S
C815 C810 1.379 . S
C815 N813 1.356 . S
N816 C808 1.356 . S
N816 H822 0.984 . S
N816 H823 0.984 . S
N817 C810 1.356 . S
N817 H820 0.984 . S
N817 H821 0.985 . S
H818 N813 0.984 . S
H819 N813 0.985 . S
H820 N817 0.984 . S
H821 N817 0.985 . S
H822 N816 0.984 . S
H823 N816 0.984 . S
H824 N812 0.984 . S
H825 N812 0.985 . S
C826 C827 1.363 . S
C826 C832 1.379 . S
C826 N834 1.356 1_545 S
C827 C826 1.363 . S
C827 C833 1.363 . S
C828 C829 1.363 . S
C828 C833 1.379 . S
C828 N835 1.356 . S
C829 C828 1.363 . S
C829 C832 1.363 . S
N830 C832 1.356 1_565 S
N830 H842 0.984 . S
N830 H843 0.985 . S
N831 C833 1.356 . S
N831 H836 0.984 . S
N831 H837 0.985 . S
C832 C826 1.379 . S
C832 C829 1.363 . S
C832 N830 1.356 1_545 S
C833 C827 1.363 . S
C833 C828 1.379 . S
C833 N831 1.356 . S
N834 C826 1.356 1_565 S
N834 H840 0.984 . S
N834 H841 0.984 1_565 S
N835 C828 1.356 . S
N835 H838 0.984 . S
N835 H839 0.985 . S
H836 N831 0.984 . S
H837 N831 0.985 . S
H838 N835 0.984 . S
H839 N835 0.985 . S
H840 N834 0.984 . S
H841 N834 0.984 1_545 S
H842 N830 0.984 . S
H843 N830 0.985 . S
C844 C845 1.363 . S
C844 C850 1.379 . S
C844 N852 1.356 . S
C845 C844 1.363 . S
C845 C851 1.363 . S
C846 C847 1.363 . S
C846 C851 1.379 . S
C846 N853 1.356 . S
C847 C846 1.363 . S
C847 C850 1.363 . S
N848 C850 1.356 . S
N848 H860 0.984 . S
N848 H861 0.985 . S
N849 C851 1.356 . S
N849 H854 0.984 . S
N849 H855 0.985 . S
C850 C844 1.379 . S
C850 C847 1.363 . S
C850 N848 1.356 . S
C851 C845 1.363 . S
C851 C846 1.379 . S
C851 N849 1.356 . S
N852 C844 1.356 . S
N852 H858 0.984 . S
N852 H859 0.984 . S
N853 C846 1.356 . S
N853 H856 0.984 . S
N853 H857 0.985 . S
H854 N849 0.984 . S
H855 N849 0.985 . S
H856 N853 0.984 . S
H857 N853 0.985 . S
H858 N852 0.984 . S
H859 N852 0.984 . S
H860 N848 0.984 . S
H861 N848 0.985 . S
C862 C863 1.363 . S
C862 C868 1.379 . S
C862 N870 1.356 . S
C863 C862 1.363 . S
C863 C869 1.363 . S
C864 C865 1.363 . S
C864 C869 1.379 . S
C864 N871 1.356 . S
C865 C864 1.363 . S
C865 C868 1.363 . S
N866 C868 1.356 . S
N866 H878 0.984 . S
N866 H879 0.985 . S
N867 C869 1.356 . S
N867 H872 0.984 . S
N867 H873 0.985 . S
C868 C862 1.379 . S
C868 C865 1.363 . S
C868 N866 1.356 . S
C869 C863 1.363 . S
C869 C864 1.379 . S
C869 N867 1.356 . S
N870 C862 1.356 . S
N870 H876 0.984 . S
N870 H877 0.984 . S
N871 C864 1.356 . S
N871 H874 0.984 . S
N871 H875 0.985 . S
H872 N867 0.984 . S
H873 N867 0.985 . S
H874 N871 0.984 . S
H875 N871 0.985 . S
H876 N870 0.984 . S
H877 N870 0.984 . S
H878 N866 0.984 . S
H879 N866 0.985 . S
C880 C881 1.363 . S
C880 C886 1.379 . S
C880 N888 1.356 . S
C881 C880 1.363 . S
C881 C887 1.363 . S
C882 C883 1.363 . S
C882 C887 1.379 . S
C882 N889 1.356 . S
C883 C882 1.363 . S
C883 C886 1.363 . S
N884 C886 1.356 . S
N884 H896 0.984 . S
N884 H897 0.985 . S
N885 C887 1.356 . S
N885 H890 0.984 . S
N885 H891 0.985 . S
C886 C880 1.379 . S
C886 C883 1.363 . S
C886 N884 1.356 . S
C887 C881 1.363 . S
C887 C882 1.379 . S
C887 N885 1.356 . S
N888 C880 1.356 . S
N888 H894 0.984 . S
N888 H895 0.984 . S
N889 C882 1.356 . S
N889 H892 0.984 . S
N889 H893 0.985 . S
H890 N885 0.984 . S
H891 N885 0.985 . S
H892 N889 0.984 . S
H893 N889 0.985 . S
H894 N888 0.984 . S
H895 N888 0.984 . S
H896 N884 0.984 . S
H897 N884 0.985 . S
C898 C899 1.379 . S
C898 C904 1.379 . S
C898 N906 1.356 1_655 S
C899 C898 1.379 . S
C899 C905 1.347 1_565 S
C900 C901 1.363 . S
C900 C905 1.379 . S
C900 N907 1.356 . S
C901 C900 1.363 . S
C901 C904 1.363 1_545 S
N902 C904 1.356 . S
N902 H914 0.984 . S
N902 H915 0.985 . S
N903 C905 1.356 . S
N903 H908 0.984 . S
N903 H909 0.985 . S
C904 C898 1.379 . S
C904 C901 1.363 1_565 S
C904 N902 1.356 . S
C905 C899 1.347 1_545 S
C905 C900 1.379 . S
C905 N903 1.356 . S
N906 C898 1.356 1_455 S
N906 H912 0.984 . S
N906 H913 0.984 . S
N907 C900 1.356 . S
N907 H910 0.984 . S
N907 H911 0.985 . S
H908 N903 0.984 . S
H909 N903 0.985 . S
H910 N907 0.984 . S
H911 N907 0.985 . S
H912 N906 0.984 . S
H913 N906 0.984 . S
H914 N902 0.984 . S
H915 N902 0.985 . S
C916 C917 1.363 . S
C916 C922 1.379 . S
C916 N924 1.356 . S
C917 C916 1.363 . S
C917 C923 1.363 . S
C918 C919 1.363 . S
C918 C923 1.379 . S
C918 N925 1.356 . S
C919 C918 1.363 . S
C919 C922 1.363 . S
N920 C922 1.356 . S
N920 H932 0.984 . S
N920 H933 0.985 . S
N921 C923 1.356 . S
N921 H926 0.984 . S
N921 H927 0.985 . S
C922 C916 1.379 . S
C922 C919 1.363 . S
C922 N920 1.356 . S
C923 C917 1.363 . S
C923 C918 1.379 . S
C923 N921 1.356 . S
N924 C916 1.356 . S
N924 H930 0.984 . S
N924 H931 0.984 . S
N925 C918 1.356 . S
N925 H928 0.984 . S
N925 H929 0.985 . S
H926 N921 0.984 . S
H927 N921 0.985 . S
H928 N925 0.984 . S
H929 N925 0.985 . S
H930 N924 0.984 . S
H931 N924 0.984 . S
H932 N920 0.984 . S
H933 N920 0.985 . S
C934 C935 1.363 . S
C934 C940 1.379 . S
C934 N942 1.356 . S
C935 C934 1.363 . S
C935 C941 1.363 . S
C936 C937 1.363 . S
C936 C941 1.379 . S
C936 N943 1.356 . S
C937 C936 1.363 . S
C937 C940 1.363 . S
N938 C940 1.356 . S
N938 H950 0.984 . S
N938 H951 0.985 . S
N939 C941 1.356 . S
N939 H944 0.984 . S
N939 H945 0.985 . S
C940 C934 1.379 . S
C940 C937 1.363 . S
C940 N938 1.356 . S
C941 C935 1.363 . S
C941 C936 1.379 . S
C941 N939 1.356 . S
N942 C934 1.356 . S
N942 H948 0.984 1_455 S
N942 H949 0.984 1_455 S
N943 C936 1.356 . S
N943 H946 0.984 . S
N943 H947 0.985 . S
H944 N939 0.984 . S
H945 N939 0.985 . S
H946 N943 0.984 . S
H947 N943 0.985 . S
H948 N942 0.984 1_655 S
H949 N942 0.984 1_655 S
H950 N938 0.984 . S
H951 N938 0.985 . S
C952 C953 1.363 . S
C952 C958 1.379 . S
C952 N960 1.356 . S
C953 C952 1.363 . S
C953 C959 1.363 . S
C954 C955 1.363 . S
C954 C959 1.379 . S
C954 N961 1.356 . S
C955 C954 1.363 . S
C955 C958 1.363 . S
N956 C958 1.356 . S
N956 H968 0.984 . S
N956 H969 0.985 . S
N957 C959 1.356 . S
N957 H962 0.984 . S
N957 H963 0.985 . S
C958 C952 1.379 . S
C958 C955 1.363 . S
C958 N956 1.356 . S
C959 C953 1.363 . S
C959 C954 1.379 . S
C959 N957 1.356 . S
N960 C952 1.356 . S
N960 H966 0.984 . S
N960 H967 0.984 . S
N961 C954 1.356 . S
N961 H964 0.984 . S
N961 H965 0.985 . S
H962 N957 0.984 . S
H963 N957 0.985 . S
H964 N961 0.984 . S
H965 N961 0.985 . S
H966 N960 0.984 . S
H967 N960 0.984 . S
H968 N956 0.984 . S
H969 N956 0.985 . S
C970 C971 1.363 . S
C970 C976 1.379 1_554 S
C970 N978 1.356 . S
C971 C970 1.363 . S
C971 C977 1.363 1_655 S
C972 C973 1.381 1_554 S
C972 C977 1.379 . S
C972 N979 1.356 . S
C973 C972 1.381 1_556 S
C973 C976 1.339 1_455 S
N974 C976 1.356 . S
N974 H986 0.984 . S
N974 H987 0.985 . S
N975 C977 1.356 . S
N975 H980 0.984 . S
N975 H981 0.985 . S
C976 C970 1.379 1_556 S
C976 C973 1.339 1_655 S
C976 N974 1.356 . S
C977 C971 1.363 1_455 S
C977 C972 1.379 . S
C977 N975 1.356 . S
N978 C970 1.356 . S
N978 H984 0.984 1_554 S
N978 H985 0.984 . S
N979 C972 1.356 . S
N979 H982 0.984 1_554 S
N979 H983 0.985 . S
H980 N975 0.984 . S
H981 N975 0.985 . S
H982 N979 0.984 1_556 S
H983 N979 0.985 . S
H984 N978 0.984 1_556 S
H985 N978 0.984 . S
H986 N974 0.984 . S
H987 N974 0.985 . S
C988 C989 1.363 . S
C988 C994 1.379 . S
C988 N996 1.356 . S
C989 C988 1.363 . S
C989 C995 1.363 . S
C990 C991 1.363 . S
C990 C995 1.379 . S
C990 N997 1.356 . S
C991 C990 1.363 . S
C991 C994 1.363 . S
N992 C994 1.356 . S
N992 H1004 0.984 . S
N992 H1005 0.985 . S
N993 C995 1.356 . S
N993 H998 0.984 . S
N993 H999 0.985 . S
C994 C988 1.379 . S
C994 C991 1.363 . S
C994 N992 1.356 . S
C995 C989 1.363 . S
C995 C990 1.379 . S
C995 N993 1.356 . S
N996 C988 1.356 . S
N996 H1002 0.984 . S
N996 H1003 0.984 . S
N997 C990 1.356 . S
N997 H1000 0.984 . S
N997 H1001 0.985 . S
H998 N993 0.984 . S
H999 N993 0.985 . S
H1000 N997 0.984 . S
H1001 N997 0.985 . S
H1002 N996 0.984 . S
H1003 N996 0.984 . S
H1004 N992 0.984 . S
H1005 N992 0.985 . S
C1006 C1007 1.363 1_655 S
C1006 C1012 1.379 1_554 S
C1006 N1014 1.356 . S
C1007 C1006 1.363 1_455 S
C1007 C1013 1.364 1_554 S
C1008 C1009 1.363 . S
C1008 C1013 1.379 . S
C1008 N1015 1.356 . S
C1009 C1008 1.363 . S
C1009 C1012 1.363 1_455 S
N1010 C1012 1.356 . S
N1010 H1022 0.984 1_556 S
N1010 H1023 0.985 . S
N1011 C1013 1.356 . S
N1011 H1016 0.984 . S
N1011 H1017 0.985 . S
C1012 C1006 1.379 1_556 S
C1012 C1009 1.363 1_655 S
C1012 N1010 1.356 . S
C1013 C1007 1.364 1_556 S
C1013 C1008 1.379 . S
C1013 N1011 1.356 . S
N1014 C1006 1.356 . S
N1014 H1020 0.984 . S
N1014 H1021 0.984 . S
N1015 C1008 1.356 . S
N1015 H1018 0.984 . S
N1015 H1019 0.985 . S
H1016 N1011 0.984 . S
H1017 N1011 0.985 . S
H1018 N1015 0.984 . S
H1019 N1015 0.985 . S
H1020 N1014 0.984 . S
H1021 N1014 0.984 . S
H1022 N1010 0.984 1_554 S
H1023 N1010 0.985 . S
C1024 C1025 1.363 . S
C1024 C1030 1.379 . S
C1024 N1032 1.356 . S
C1025 C1024 1.363 . S
C1025 C1031 1.363 . S
C1026 C1027 1.363 . S
C1026 C1031 1.379 . S
C1026 N1033 1.356 . S
C1027 C1026 1.363 . S
C1027 C1030 1.363 . S
N1028 C1030 1.356 . S
N1028 H1040 0.984 . S
N1028 H1041 0.985 . S
N1029 C1031 1.356 . S
N1029 H1034 0.984 . S
N1029 H1035 0.985 . S
C1030 C1024 1.379 . S
C1030 C1027 1.363 . S
C1030 N1028 1.356 . S
C1031 C1025 1.363 . S
C1031 C1026 1.379 . S
C1031 N1029 1.356 . S
N1032 C1024 1.356 . S
N1032 H1038 0.984 . S
N1032 H1039 0.984 . S
N1033 C1026 1.356 . S
N1033 H1036 0.984 . S
N1033 H1037 0.985 . S
H1034 N1029 0.984 . S
H1035 N1029 0.985 . S
H1036 N1033 0.984 . S
H1037 N1033 0.985 . S
H1038 N1032 0.984 . S
H1039 N1032 0.984 . S
H1040 N1028 0.984 . S
H1041 N1028 0.985 . S
C1042 C1043 1.363 . S
C1042 C1048 1.379 . S
C1042 N1050 1.356 1_554 S
C1043 C1042 1.363 . S
C1043 C1049 1.363 . S
C1044 C1045 1.363 . S
C1044 C1049 1.379 . S
C1044 N1051 1.356 . S
C1045 C1044 1.363 . S
C1045 C1048 1.363 . S
N1046 C1048 1.356 . S
N1046 H1058 0.984 1_554 S
N1046 H1059 0.985 . S
N1047 C1049 1.356 . S
N1047 H1052 0.984 . S
N1047 H1053 0.985 . S
C1048 C1042 1.379 . S
C1048 C1045 1.363 . S
C1048 N1046 1.356 . S
C1049 C1043 1.363 . S
C1049 C1044 1.379 . S
C1049 N1047 1.356 . S
N1050 C1042 1.356 1_556 S
N1050 H1056 0.984 . S
N1050 H1057 0.984 . S
N1051 C1044 1.356 . S
N1051 H1054 0.984 . S
N1051 H1055 0.985 . S
H1052 N1047 0.984 . S
H1053 N1047 0.985 . S
H1054 N1051 0.984 . S
H1055 N1051 0.985 . S
H1056 N1050 0.984 . S
H1057 N1050 0.984 . S
H1058 N1046 0.984 1_556 S
H1059 N1046 0.985 . S
C1060 C1061 1.363 . S
C1060 C1066 1.379 . S
C1060 N1068 1.356 . S
C1061 C1060 1.363 . S
C1061 C1067 1.363 . S
C1062 C1063 1.363 . S
C1062 C1067 1.379 . S
C1062 N1069 1.356 . S
C1063 C1062 1.363 . S
C1063 C1066 1.363 . S
N1064 C1066 1.356 . S
N1064 H1076 0.984 . S
N1064 H1077 0.985 . S
N1065 C1067 1.356 . S
N1065 H1070 0.984 . S
N1065 H1071 0.985 . S
C1066 C1060 1.379 . S
C1066 C1063 1.363 . S
C1066 N1064 1.356 . S
C1067 C1061 1.363 . S
C1067 C1062 1.379 . S
C1067 N1065 1.356 . S
N1068 C1060 1.356 . S
N1068 H1074 0.984 . S
N1068 H1075 0.984 . S
N1069 C1062 1.356 . S
N1069 H1072 0.984 . S
N1069 H1073 0.985 . S
H1070 N1065 0.984 . S
H1071 N1065 0.985 . S
H1072 N1069 0.984 . S
H1073 N1069 0.985 . S
H1074 N1068 0.984 . S
H1075 N1068 0.984 . S
H1076 N1064 0.984 . S
H1077 N1064 0.985 . S
C1078 C1079 1.363 . S
C1078 C1084 1.379 . S
C1078 N1086 1.356 . S
C1079 C1078 1.363 . S
C1079 C1085 1.363 . S
C1080 C1081 1.363 . S
C1080 C1085 1.379 . S
C1080 N1087 1.356 . S
C1081 C1080 1.363 . S
C1081 C1084 1.363 . S
N1082 C1084 1.356 . S
N1082 H1094 0.984 . S
N1082 H1095 0.985 . S
N1083 C1085 1.356 1_556 S
N1083 H1088 0.984 . S
N1083 H1089 0.985 . S
C1084 C1078 1.379 . S
C1084 C1081 1.363 . S
C1084 N1082 1.356 . S
C1085 C1079 1.363 . S
C1085 C1080 1.379 . S
C1085 N1083 1.356 1_554 S
N1086 C1078 1.356 . S
N1086 H1092 0.984 . S
N1086 H1093 0.984 . S
N1087 C1080 1.356 . S
N1087 H1090 0.984 . S
N1087 H1091 0.985 . S
H1088 N1083 0.984 . S
H1089 N1083 0.985 . S
H1090 N1087 0.984 . S
H1091 N1087 0.985 . S
H1092 N1086 0.984 . S
H1093 N1086 0.984 . S
H1094 N1082 0.984 . S
H1095 N1082 0.985 . S
C1096 C1097 1.363 . S
C1096 C1102 1.379 . S
C1096 N1104 1.356 . S
C1097 C1096 1.363 . S
C1097 C1103 1.363 . S
C1098 C1099 1.363 . S
C1098 C1103 1.379 . S
C1098 N1105 1.356 . S
C1099 C1098 1.363 . S
C1099 C1102 1.363 . S
N1100 C1102 1.356 . S
N1100 H1112 0.984 . S
N1100 H1113 0.985 . S
N1101 C1103 1.356 . S
N1101 H1106 0.984 . S
N1101 H1107 0.985 . S
C1102 C1096 1.379 . S
C1102 C1099 1.363 . S
C1102 N1100 1.356 . S
C1103 C1097 1.363 . S
C1103 C1098 1.379 . S
C1103 N1101 1.356 . S
N1104 C1096 1.356 . S
N1104 H1110 0.984 . S
N1104 H1111 0.984 . S
N1105 C1098 1.356 . S
N1105 H1108 0.984 . S
N1105 H1109 0.985 . S
H1106 N1101 0.984 . S
H1107 N1101 0.985 . S
H1108 N1105 0.984 . S
H1109 N1105 0.985 . S
H1110 N1104 0.984 . S
H1111 N1104 0.984 . S
H1112 N1100 0.984 . S
H1113 N1100 0.985 . S
C1114 C1115 1.363 . S
C1114 C1120 1.379 . S
C1114 N1122 1.356 . S
C1115 C1114 1.363 . S
C1115 C1121 1.363 . S
C1116 C1117 1.363 . S
C1116 C1121 1.379 . S
C1116 N1123 1.356 . S
C1117 C1116 1.363 . S
C1117 C1120 1.363 . S
N1118 C1120 1.356 . S
N1118 H1130 0.984 . S
N1118 H1131 0.985 . S
N1119 C1121 1.356 . S
N1119 H1124 0.984 . S
N1119 H1125 0.985 . S
C1120 C1114 1.379 . S
C1120 C1117 1.363 . S
C1120 N1118 1.356 . S
C1121 C1115 1.363 . S
C1121 C1116 1.379 . S
C1121 N1119 1.356 . S
N1122 C1114 1.356 . S
N1122 H1128 0.984 . S
N1122 H1129 0.984 . S
N1123 C1116 1.356 . S
N1123 H1126 0.984 . S
N1123 H1127 0.985 . S
H1124 N1119 0.984 . S
H1125 N1119 0.985 . S
H1126 N1123 0.984 . S
H1127 N1123 0.985 . S
H1128 N1122 0.984 . S
H1129 N1122 0.984 . S
H1130 N1118 0.984 . S
H1131 N1118 0.985 . S
C1132 C1133 1.363 . S
C1132 C1138 1.379 . S
C1132 N1140 1.356 . S
C1133 C1132 1.363 . S
C1133 C1139 1.363 . S
C1134 C1135 1.363 . S
C1134 C1139 1.379 . S
C1134 N1141 1.356 . S
C1135 C1134 1.363 . S
C1135 C1138 1.363 . S
N1136 C1138 1.356 . S
N1136 H1148 0.984 . S
N1136 H1149 0.985 . S
N1137 C1139 1.356 . S
N1137 H1142 0.984 . S
N1137 H1143 0.985 . S
C1138 C1132 1.379 . S
C1138 C1135 1.363 . S
C1138 N1136 1.356 . S
C1139 C1133 1.363 . S
C1139 C1134 1.379 . S
C1139 N1137 1.356 . S
N1140 C1132 1.356 . S
N1140 H1146 0.984 . S
N1140 H1147 0.984 . S
N1141 C1134 1.356 . S
N1141 H1144 0.984 . S
N1141 H1145 0.985 . S
H1142 N1137 0.984 . S
H1143 N1137 0.985 . S
H1144 N1141 0.984 . S
H1145 N1141 0.985 . S
H1146 N1140 0.984 . S
H1147 N1140 0.984 . S
H1148 N1136 0.984 . S
H1149 N1136 0.985 . S
C1150 C1151 1.363 . S
C1150 C1156 1.379 . S
C1150 N1158 1.356 . S
C1151 C1150 1.363 . S
C1151 C1157 1.363 . S
C1152 C1153 1.363 . S
C1152 C1157 1.379 . S
C1152 N1159 1.356 . S
C1153 C1152 1.363 . S
C1153 C1156 1.363 . S
N1154 C1156 1.356 . S
N1154 H1166 0.984 . S
N1154 H1167 0.985 . S
N1155 C1157 1.356 . S
N1155 H1160 0.984 . S
N1155 H1161 0.985 . S
C1156 C1150 1.379 . S
C1156 C1153 1.363 . S
C1156 N1154 1.356 . S
C1157 C1151 1.363 . S
C1157 C1152 1.379 . S
C1157 N1155 1.356 . S
N1158 C1150 1.356 . S
N1158 H1164 0.984 . S
N1158 H1165 0.984 . S
N1159 C1152 1.356 . S
N1159 H1162 0.984 . S
N1159 H1163 0.985 . S
H1160 N1155 0.984 . S
H1161 N1155 0.985 . S
H1162 N1159 0.984 . S
H1163 N1159 0.985 . S
H1164 N1158 0.984 . S
H1165 N1158 0.984 . S
H1166 N1154 0.984 . S
H1167 N1154 0.985 . S
C1168 C1169 1.363 . S
C1168 C1174 1.379 . S
C1168 N1176 1.356 . S
C1169 C1168 1.363 . S
C1169 C1175 1.363 1_556 S
C1170 C1171 1.363 1_554 S
C1170 C1175 1.379 . S
C1170 N1177 1.356 . S
C1171 C1170 1.363 1_556 S
C1171 C1174 1.363 . S
N1172 C1174 1.356 . S
N1172 H1184 0.984 . S
N1172 H1185 0.985 . S
N1173 C1175 1.356 . S
N1173 H1178 0.984 . S
N1173 H1179 0.985 . S
C1174 C1168 1.379 . S
C1174 C1171 1.363 . S
C1174 N1172 1.356 . S
C1175 C1169 1.363 1_554 S
C1175 C1170 1.379 . S
C1175 N1173 1.356 . S
N1176 C1168 1.356 . S
N1176 H1182 0.984 . S
N1176 H1183 0.984 . S
N1177 C1170 1.356 . S
N1177 H1180 0.984 . S
N1177 H1181 0.985 . S
H1178 N1173 0.984 . S
H1179 N1173 0.985 . S
H1180 N1177 0.984 . S
H1181 N1177 0.985 . S
H1182 N1176 0.984 . S
H1183 N1176 0.984 . S
H1184 N1172 0.984 . S
H1185 N1172 0.985 . S
C1186 C1187 1.363 . S
C1186 C1192 1.379 . S
C1186 N1194 1.356 . S
C1187 C1186 1.363 . S
C1187 C1193 1.363 . S
C1188 C1189 1.363 . S
C1188 C1193 1.379 . S
C1188 N1195 1.356 . S
C1189 C1188 1.363 . S
C1189 C1192 1.363 . S
N1190 C1192 1.356 . S
N1190 H1202 0.984 . S
N1190 H1203 0.985 . S
N1191 C1193 1.356 . S
N1191 H1196 0.984 . S
N1191 H1197 0.985 . S
C1192 C1186 1.379 . S
C1192 C1189 1.363 . S
C1192 N1190 1.356 . S
C1193 C1187 1.363 . S
C1193 C1188 1.379 . S
C1193 N1191 1.356 . S
N1194 C1186 1.356 . S
N1194 H1200 0.984 . S
N1194 H1201 0.984 . S
N1195 C1188 1.356 . S
N1195 H1198 0.984 . S
N1195 H1199 0.985 . S
H1196 N1191 0.984 . S
H1197 N1191 0.985 . S
H1198 N1195 0.984 . S
H1199 N1195 0.985 . S
H1200 N1194 0.984 . S
H1201 N1194 0.984 . S
H1202 N1190 0.984 . S
H1203 N1190 0.985 . S
C1204 C1205 1.363 . S
C1204 C1210 1.379 . S
C1204 N1212 1.349 1_554 S
C1205 C1204 1.363 . S
C1205 C1211 1.363 . S
C1206 C1207 1.363 . S
C1206 C1211 1.379 . S
C1206 N1213 1.356 . S
C1207 C1206 1.363 . S
C1207 C1210 1.363 . S
N1208 C1210 1.356 1_556 S
N1208 H1220 0.984 . S
N1208 H1221 0.985 . S
N1209 C1211 1.356 . S
N1209 H1214 0.984 . S
N1209 H1215 0.985 . S
C1210 C1204 1.379 . S
C1210 C1207 1.363 . S
C1210 N1208 1.356 1_554 S
C1211 C1205 1.363 . S
C1211 C1206 1.379 . S
C1211 N1209 1.356 . S
N1212 C1204 1.349 1_556 S
N1212 H1218 1.003 . S
N1212 H1219 0.973 1_556 S
N1213 C1206 1.356 . S
N1213 H1216 0.984 . S
N1213 H1217 0.985 . S
H1214 N1209 0.984 . S
H1215 N1209 0.985 . S
H1216 N1213 0.984 . S
H1217 N1213 0.985 . S
H1218 N1212 1.003 . S
H1219 N1212 0.973 1_554 S
H1220 N1208 0.984 . S
H1221 N1208 0.985 . S
C1222 C1223 1.363 . S
C1222 C1228 1.379 . S
C1222 N1230 1.356 1_565 S
C1223 C1222 1.363 . S
C1223 C1229 1.361 . S
C1224 C1225 1.370 . S
C1224 C1229 1.378 . S
C1224 N1231 1.351 1_554 S
C1225 C1224 1.370 . S
C1225 C1228 1.363 . S
N1226 C1228 1.356 . S
N1226 H1238 0.984 . S
N1226 H1239 0.985 . S
N1227 C1229 1.358 1_556 S
N1227 H1232 0.984 . S
N1227 H1233 0.985 . S
C1228 C1222 1.379 . S
C1228 C1225 1.363 . S
C1228 N1226 1.356 . S
C1229 C1223 1.361 . S
C1229 C1224 1.378 . S
C1229 N1227 1.358 1_554 S
N1230 C1222 1.356 1_545 S
N1230 H1236 0.984 . S
N1230 H1237 0.984 . S
N1231 C1224 1.351 1_556 S
N1231 H1234 0.984 . S
N1231 H1235 0.985 . S
H1232 N1227 0.984 . S
H1233 N1227 0.985 . S
H1234 N1231 0.984 . S
H1235 N1231 0.985 . S
H1236 N1230 0.984 . S
H1237 N1230 0.984 . S
H1238 N1226 0.984 . S
H1239 N1226 0.985 . S
C379 C219 1.321 . S
C377 N66 1.313 . S
C397 C227 1.370 . S
C395 N79 1.553 1_455 S
C413 N92 1.631 . S
C415 C247 1.633 . S
C433 C261 1.364 . S
C431 N54 1.435 . S
C451 C276 1.519 . S
C449 N131 1.506 . S
C469 C290 1.316 . S
C467 N158 1.307 . S
C485 N145 1.571 . S
C487 C304 1.575 . S
C505 C310 1.663 . S
C503 N118 1.668 . S
C521 N148 1.858 . S
C523 C324 1.815 . S
C541 C345 1.583 . S
C539 N122 1.568 . S
C557 N132 1.319 . S
C559 C325 1.121 . S
C577 C346 1.538 . S
C575 N161 1.494 . S
C593 N96 1.734 . S
C595 C353 1.467 . S
C611 N53 1.654 . S
C613 C359 1.667 . S
C629 N67 1.189 . S
C631 C352 1.161 . S
C647 N83 1.384 . S
C649 C360 1.401 1_655 S
C665 N44 1.455 . S
C667 C254 1.423 . S
C683 N187 1.490 . S
C685 C255 1.248 . S
C703 C212 1.250 . S
C701 N197 1.306 1_565 S
C721 C233 1.318 . S
C719 N106 1.347 . S
C737 N57 1.710 1_545 S
C739 C268 1.681 . S
C757 C318 1.476 . S
C755 N144 1.451 . S
C775 C269 1.157 . S
C773 N119 1.385 1_545 S
C793 C297 1.422 . S
C791 N157 1.711 . S
C811 C303 1.321 . S
C809 N183 1.313 . S
C827 N196 1.553 . S
C829 C311 1.370 . S
C845 N105 1.630 . S
C847 C275 1.633 . S
C865 C289 1.364 . S
C863 N171 1.412 . S
C881 N40 1.506 . S
C883 C248 1.519 . S
C901 C262 1.316 . S
C899 N2 1.304 1_565 S
C919 C220 1.575 . S
C917 N15 1.571 . S
C937 C226 1.663 . S
C935 N27 1.666 . S
C953 N18 1.858 . S
C955 C338 1.815 . S
C971 N31 1.568 . S
C973 C331 1.585 1_455 S
C989 N41 1.319 . S
C991 C339 1.121 . S
C1007 N5 1.494 . S
C1009 C332 1.538 . S
C1027 C367 1.467 . S
C1025 N109 1.734 . S
C1045 C373 1.667 . S
C1043 N170 1.654 1_554 S
C1063 C366 1.161 . S
C1061 N184 1.189 . S
C1079 N200 1.384 1_554 S
C1081 C374 1.401 . S
C1097 N135 1.455 . S
C1099 C282 1.423 . S
C1117 C283 1.248 . S
C1115 N70 1.490 . S
C1135 C296 1.250 . S
C1133 N80 1.306 . S
C1153 C317 1.318 . S
C1151 N93 1.347 . S
C1169 N174 1.710 . S
C1171 C240 1.681 . S
C1189 C234 1.476 . S
C1187 N14 1.451 . S
C1205 N28 1.385 . S
C1207 C241 1.157 . S
C1225 C213 1.422 . S
C1223 N1 1.711 . S
