# Generated by pormake.
# Topology ptr, (4,4)-cn, num edge types: 1
# Building blocks:
#     Node 0, Type 0, BuildingBlock: CEKHIL_clean_sbu_0, # of connection points: 4
#     Node 1, Type 0, BuildingBlock: CEKHIL_clean_sbu_0, # of connection points: 4
#     Node 2, Type 0, BuildingBlock: CEKHIL_clean_sbu_0, # of connection points: 4
#     Node 3, Type 0, BuildingBlock: CEKHIL_clean_sbu_0, # of connection points: 4
#     Node 4, Type 0, BuildingBlock: CEKHIL_clean_sbu_0, # of connection points: 4
#     Node 5, Type 0, BuildingBlock: CEKHIL_clean_sbu_0, # of connection points: 4
#     Node 6, Type 0, BuildingBlock: CEKHIL_clean_sbu_0, # of connection points: 4
#     Node 7, Type 0, BuildingBlock: CEKHIL_clean_sbu_0, # of connection points: 4
#     Node 8, Type 0, BuildingBlock: CEKHIL_clean_sbu_0, # of connection points: 4
#     Node 9, Type 0, BuildingBlock: CEKHIL_clean_sbu_0, # of connection points: 4
#     Node 10, Type 0, BuildingBlock: CEKHIL_clean_sbu_0, # of connection points: 4
#     Node 11, Type 0, BuildingBlock: CEKHIL_clean_sbu_0, # of connection points: 4
#     Node 12, Type 0, BuildingBlock: CEKHIL_clean_sbu_0, # of connection points: 4
#     Node 13, Type 0, BuildingBlock: CEKHIL_clean_sbu_0, # of connection points: 4
#     Node 14, Type 0, BuildingBlock: CEKHIL_clean_sbu_0, # of connection points: 4
#     Node 15, Type 0, BuildingBlock: CEKHIL_clean_sbu_0, # of connection points: 4
#     Node 16, Type 0, BuildingBlock: CEKHIL_clean_sbu_0, # of connection points: 4
#     Node 17, Type 0, BuildingBlock: CEKHIL_clean_sbu_0, # of connection points: 4
#     Node 18, Type 1, BuildingBlock: NAWXER_clean_linker_0, # of connection points: 4
#     Node 19, Type 1, BuildingBlock: NAWXER_clean_linker_0, # of connection points: 4
#     Node 20, Type 1, BuildingBlock: NAWXER_clean_linker_0, # of connection points: 4
#     Node 21, Type 1, BuildingBlock: NAWXER_clean_linker_0, # of connection points: 4
#     Node 22, Type 1, BuildingBlock: NAWXER_clean_linker_0, # of connection points: 4
#     Node 23, Type 1, BuildingBlock: NAWXER_clean_linker_0, # of connection points: 4
#     Node 24, Type 1, BuildingBlock: NAWXER_clean_linker_0, # of connection points: 4
#     Node 25, Type 1, BuildingBlock: NAWXER_clean_linker_0, # of connection points: 4
#     Node 26, Type 1, BuildingBlock: NAWXER_clean_linker_0, # of connection points: 4
#     Node 27, Type 1, BuildingBlock: NAWXER_clean_linker_0, # of connection points: 4
#     Node 28, Type 1, BuildingBlock: NAWXER_clean_linker_0, # of connection points: 4
#     Node 29, Type 1, BuildingBlock: NAWXER_clean_linker_0, # of connection points: 4
#     Node 30, Type 1, BuildingBlock: NAWXER_clean_linker_0, # of connection points: 4
#     Node 31, Type 1, BuildingBlock: NAWXER_clean_linker_0, # of connection points: 4
#     Node 32, Type 1, BuildingBlock: NAWXER_clean_linker_0, # of connection points: 4
#     Node 33, Type 1, BuildingBlock: NAWXER_clean_linker_0, # of connection points: 4
#     Node 34, Type 1, BuildingBlock: NAWXER_clean_linker_0, # of connection points: 4
#     Node 35, Type 1, BuildingBlock: NAWXER_clean_linker_0, # of connection points: 4
#     Edge 36, Type (0, 1), BuildingBlock: XIVTED_clean_linker_0, # of connection points: 2
#     Edge 37, Type (0, 1), BuildingBlock: XIVTED_clean_linker_0, # of connection points: 2
#     Edge 38, Type (0, 1), BuildingBlock: XIVTED_clean_linker_0, # of connection points: 2
#     Edge 39, Type (0, 1), BuildingBlock: XIVTED_clean_linker_0, # of connection points: 2
#     Edge 40, Type (0, 1), BuildingBlock: XIVTED_clean_linker_0, # of connection points: 2
#     Edge 41, Type (0, 1), BuildingBlock: XIVTED_clean_linker_0, # of connection points: 2
#     Edge 42, Type (0, 1), BuildingBlock: XIVTED_clean_linker_0, # of connection points: 2
#     Edge 43, Type (0, 1), BuildingBlock: XIVTED_clean_linker_0, # of connection points: 2
#     Edge 44, Type (0, 1), BuildingBlock: XIVTED_clean_linker_0, # of connection points: 2
#     Edge 45, Type (0, 1), BuildingBlock: XIVTED_clean_linker_0, # of connection points: 2
#     Edge 46, Type (0, 1), BuildingBlock: XIVTED_clean_linker_0, # of connection points: 2
#     Edge 47, Type (0, 1), BuildingBlock: XIVTED_clean_linker_0, # of connection points: 2
#     Edge 48, Type (0, 1), BuildingBlock: XIVTED_clean_linker_0, # of connection points: 2
#     Edge 49, Type (0, 1), BuildingBlock: XIVTED_clean_linker_0, # of connection points: 2
#     Edge 50, Type (0, 1), BuildingBlock: XIVTED_clean_linker_0, # of connection points: 2
#     Edge 51, Type (0, 1), BuildingBlock: XIVTED_clean_linker_0, # of connection points: 2
#     Edge 52, Type (0, 1), BuildingBlock: XIVTED_clean_linker_0, # of connection points: 2
#     Edge 53, Type (0, 1), BuildingBlock: XIVTED_clean_linker_0, # of connection points: 2
#     Edge 54, Type (0, 1), BuildingBlock: XIVTED_clean_linker_0, # of connection points: 2
#     Edge 55, Type (0, 1), BuildingBlock: XIVTED_clean_linker_0, # of connection points: 2
#     Edge 56, Type (0, 1), BuildingBlock: XIVTED_clean_linker_0, # of connection points: 2
#     Edge 57, Type (0, 1), BuildingBlock: XIVTED_clean_linker_0, # of connection points: 2
#     Edge 58, Type (0, 1), BuildingBlock: XIVTED_clean_linker_0, # of connection points: 2
#     Edge 59, Type (0, 1), BuildingBlock: XIVTED_clean_linker_0, # of connection points: 2
#     Edge 60, Type (0, 1), BuildingBlock: XIVTED_clean_linker_0, # of connection points: 2
#     Edge 61, Type (0, 1), BuildingBlock: XIVTED_clean_linker_0, # of connection points: 2
#     Edge 62, Type (0, 1), BuildingBlock: XIVTED_clean_linker_0, # of connection points: 2
#     Edge 63, Type (0, 1), BuildingBlock: XIVTED_clean_linker_0, # of connection points: 2
#     Edge 64, Type (0, 1), BuildingBlock: XIVTED_clean_linker_0, # of connection points: 2
#     Edge 65, Type (0, 1), BuildingBlock: XIVTED_clean_linker_0, # of connection points: 2
#     Edge 66, Type (0, 1), BuildingBlock: XIVTED_clean_linker_0, # of connection points: 2
#     Edge 67, Type (0, 1), BuildingBlock: XIVTED_clean_linker_0, # of connection points: 2
#     Edge 68, Type (0, 1), BuildingBlock: XIVTED_clean_linker_0, # of connection points: 2
#     Edge 69, Type (0, 1), BuildingBlock: XIVTED_clean_linker_0, # of connection points: 2
#     Edge 70, Type (0, 1), BuildingBlock: XIVTED_clean_linker_0, # of connection points: 2
#     Edge 71, Type (0, 1), BuildingBlock: XIVTED_clean_linker_0, # of connection points: 2
#     Edge 72, Type (0, 1), BuildingBlock: XIVTED_clean_linker_0, # of connection points: 2
#     Edge 73, Type (0, 1), BuildingBlock: XIVTED_clean_linker_0, # of connection points: 2
#     Edge 74, Type (0, 1), BuildingBlock: XIVTED_clean_linker_0, # of connection points: 2
#     Edge 75, Type (0, 1), BuildingBlock: XIVTED_clean_linker_0, # of connection points: 2
#     Edge 76, Type (0, 1), BuildingBlock: XIVTED_clean_linker_0, # of connection points: 2
#     Edge 77, Type (0, 1), BuildingBlock: XIVTED_clean_linker_0, # of connection points: 2
#     Edge 78, Type (0, 1), BuildingBlock: XIVTED_clean_linker_0, # of connection points: 2
#     Edge 79, Type (0, 1), BuildingBlock: XIVTED_clean_linker_0, # of connection points: 2
#     Edge 80, Type (0, 1), BuildingBlock: XIVTED_clean_linker_0, # of connection points: 2
#     Edge 81, Type (0, 1), BuildingBlock: XIVTED_clean_linker_0, # of connection points: 2
#     Edge 82, Type (0, 1), BuildingBlock: XIVTED_clean_linker_0, # of connection points: 2
#     Edge 83, Type (0, 1), BuildingBlock: XIVTED_clean_linker_0, # of connection points: 2
#     Edge 84, Type (0, 1), BuildingBlock: XIVTED_clean_linker_0, # of connection points: 2
#     Edge 85, Type (0, 1), BuildingBlock: XIVTED_clean_linker_0, # of connection points: 2
#     Edge 86, Type (0, 1), BuildingBlock: XIVTED_clean_linker_0, # of connection points: 2
#     Edge 87, Type (0, 1), BuildingBlock: XIVTED_clean_linker_0, # of connection points: 2
#     Edge 88, Type (0, 1), BuildingBlock: XIVTED_clean_linker_0, # of connection points: 2
#     Edge 89, Type (0, 1), BuildingBlock: XIVTED_clean_linker_0, # of connection points: 2
#     Edge 90, Type (0, 1), BuildingBlock: XIVTED_clean_linker_0, # of connection points: 2
#     Edge 91, Type (0, 1), BuildingBlock: XIVTED_clean_linker_0, # of connection points: 2
#     Edge 92, Type (0, 1), BuildingBlock: XIVTED_clean_linker_0, # of connection points: 2
#     Edge 93, Type (0, 1), BuildingBlock: XIVTED_clean_linker_0, # of connection points: 2
#     Edge 94, Type (0, 1), BuildingBlock: XIVTED_clean_linker_0, # of connection points: 2
#     Edge 95, Type (0, 1), BuildingBlock: XIVTED_clean_linker_0, # of connection points: 2
#     Edge 96, Type (0, 1), BuildingBlock: XIVTED_clean_linker_0, # of connection points: 2
#     Edge 97, Type (0, 1), BuildingBlock: XIVTED_clean_linker_0, # of connection points: 2
#     Edge 98, Type (0, 1), BuildingBlock: XIVTED_clean_linker_0, # of connection points: 2
#     Edge 99, Type (0, 1), BuildingBlock: XIVTED_clean_linker_0, # of connection points: 2
#     Edge 100, Type (0, 1), BuildingBlock: XIVTED_clean_linker_0, # of connection points: 2
#     Edge 101, Type (0, 1), BuildingBlock: XIVTED_clean_linker_0, # of connection points: 2
#     Edge 102, Type (0, 1), BuildingBlock: XIVTED_clean_linker_0, # of connection points: 2
#     Edge 103, Type (0, 1), BuildingBlock: XIVTED_clean_linker_0, # of connection points: 2
#     Edge 104, Type (0, 1), BuildingBlock: XIVTED_clean_linker_0, # of connection points: 2
#     Edge 105, Type (0, 1), BuildingBlock: XIVTED_clean_linker_0, # of connection points: 2
#     Edge 106, Type (0, 1), BuildingBlock: XIVTED_clean_linker_0, # of connection points: 2
#     Edge 107, Type (0, 1), BuildingBlock: XIVTED_clean_linker_0, # of connection points: 2
# Relax obj value: 0.032
# Max RMSD: 0.131
# Mean RMSD: 0.053
data_MOF--net-ptr--node1-CEKHIL_clean_sbu_0--node2-NAWXER_clean_linker_0--edge1-XIVTED_clean_linker_0
_symmetry_space_group_name_H-M    P1
_symmetry_Int_Tables_number       1
_symmetry_cell_setting            triclinic
loop_
_symmetry_equiv_pos_as_xyz
'x, y, z'
_cell_length_a     87.754045
_cell_length_b     86.786826
_cell_length_c     64.86681
_cell_angle_alpha  91.027472
_cell_angle_beta   89.400688
_cell_angle_gamma 120.97417
loop_
_atom_site_label
_atom_site_type_symbol
_atom_site_fract_x
_atom_site_fract_y
_atom_site_fract_z
_atom_type_partial_charge
Co0 Co 0.00935 0.34185 0.00529 0.0
O1 O 0.01514 0.32885 0.02387 0.0
O2 O 0.03494 0.35455 0.00957 0.0
C3 C 0.99062 0.31778 0.98587 0.0
O4 O 0.00762 0.35835 0.9846 0.0
Co5 Co 0.97018 0.33275 0.00425 0.0
O6 O 0.97848 0.34695 0.97861 0.0
C7 C 0.99326 0.3545 0.0386 0.0
C8 C 0.03162 0.34131 0.02162 0.0
C9 C 0.99482 0.35783 0.97442 0.0
O10 O 0.00669 0.35555 0.02909 0.0
O11 O 0.97725 0.3447 0.0322 0.0
O12 O 0.00763 0.32598 0.98253 0.0
O13 O 0.9858 0.32328 0.00188 0.0
Co14 Co 0.66071 0.66308 0.00959 0.0
O15 O 0.67556 0.6739 0.98593 0.0
O16 O 0.6704 0.64862 0.0002 0.0
C17 C 0.67211 0.68865 0.0284 0.0
O18 O 0.64686 0.64817 0.03437 0.0
Co19 Co 0.6342 0.67423 0.02516 0.0
O20 O 0.63265 0.6605 0.04999 0.0
C21 C 0.62537 0.65047 0.98838 0.0
C22 C 0.67853 0.66073 0.98615 0.0
C23 C 0.63772 0.64914 0.04944 0.0
O24 O 0.63931 0.6494 0.99113 0.0
O25 O 0.62166 0.66047 -0.00052 0.0
O26 O 0.68004 0.67948 0.02793 0.0
O27 O 0.65842 0.68281 0.01659 0.0
Co28 Co 0.33645 0.0005 0.00708 0.0
O29 O 0.32409 0.00551 0.98671 0.0
O30 O 0.34944 0.02607 0.00106 0.0
C31 C 0.31224 0.98325 0.02652 0.0
O32 O 0.35235 -0.00031 0.0294 0.0
Co33 Co 0.3265 0.96085 0.01188 0.0
O34 O 0.34007 0.97061 0.03785 0.0
C35 C 0.34952 0.9819 0.97741 0.0
C36 C 0.33653 0.02223 0.98832 0.0
C37 C 0.35126 0.98725 0.04103 0.0
O38 O 0.34998 0.99598 0.98485 0.0
O39 O 0.33988 0.96624 0.98508 0.0
O40 O 0.32073 0.00063 0.02848 0.0
O41 O 0.31759 0.97707 0.01166 0.0
Co42 Co 0.00097 0.66662 0.00876 0.0
O43 O 0.99594 0.67931 0.98872 0.0
O44 O 0.97582 0.65322 0.00196 0.0
C45 C 0.01769 0.69073 0.02923 0.0
O46 O 0.00161 0.65015 0.03046 0.0
Co47 Co 0.04011 0.67667 0.01491 0.0
O48 O 0.03014 0.66212 0.04008 0.0
C49 C 0.02015 0.65461 0.97887 0.0
C50 C 0.9795 0.66637 0.9896 0.0
C51 C 0.01361 0.65077 0.04237 0.0
O52 O 0.00597 0.6536 0.98613 0.0
O53 O 0.03545 0.66428 0.98723 0.0
O54 O 0.00048 0.68207 0.03072 0.0
O55 O 0.024 0.68561 0.01431 0.0
Co56 Co 0.33951 0.34331 0.00619 0.0
O57 O 0.32353 0.32951 0.02787 0.0
O58 O 0.32668 0.35472 0.01575 0.0
C59 C 0.33234 0.31956 0.9853 0.0
O60 O 0.3541 0.36073 0.98352 0.0
Co61 Co 0.37038 0.3376 0.99331 0.0
O62 O 0.37223 0.35234 0.96924 0.0
C63 C 0.37253 0.35663 0.03226 0.0
C64 C 0.31878 0.34141 0.02848 0.0
C65 C 0.3652 0.36205 0.96953 0.0
O66 O 0.3589 0.35747 0.02693 0.0
O67 O 0.37819 0.34784 0.02195 0.0
O68 O 0.3226 0.32686 0.98553 0.0
O69 O 0.34513 0.326 0.99852 0.0
Co70 Co 0.66306 0.00096 0.01031 0.0
O71 O 0.67534 0.99563 0.03049 0.0
O72 O 0.64999 0.97531 0.01595 0.0
C73 C 0.68726 0.01838 0.99095 0.0
O74 O 0.64724 0.00206 0.98816 0.0
Co75 Co 0.67316 0.0407 0.00592 0.0
O76 O 0.65968 0.03119 0.97982 0.0
C77 C 0.65017 0.01948 0.04034 0.0
C78 C 0.66285 0.97894 0.02869 0.0
C79 C 0.64844 0.01457 0.97656 0.0
O80 O 0.64956 0.00537 0.03274 0.0
O81 O 0.65993 0.03517 0.03281 0.0
O82 O 0.67874 0.00101 0.98869 0.0
O83 O 0.68196 0.02439 0.00604 0.0
Co84 Co 0.67029 0.67508 0.34039 0.0
O85 O 0.67331 0.66153 0.36132 0.0
O86 O 0.69471 0.68777 0.34973 0.0
C87 C 0.65474 0.65131 0.31901 0.0
O88 O 0.67247 0.69265 0.31849 0.0
Co89 Co 0.6331 0.66716 0.32763 0.0
O90 O 0.64589 0.68238 0.30359 0.0
C91 C 0.64894 0.68651 0.36686 0.0
C92 C 0.68988 0.67424 0.36188 0.0
C93 C 0.66262 0.69326 0.30436 0.0
O94 O 0.66375 0.68769 0.36197 0.0
O95 O 0.63481 0.67771 0.35599 0.0
O96 O 0.67201 0.6599 0.31898 0.0
O97 O 0.64753 0.65666 0.33257 0.0
Co98 Co 0.3284 0.99452 0.3474 0.0
O99 O 0.34494 0.00509 0.32507 0.0
O100 O 0.3378 0.97935 0.33978 0.0
C101 C 0.33909 0.02002 0.36624 0.0
O102 O 0.31239 0.97971 0.3711 0.0
Co103 Co 0.3018 0.00688 0.35828 0.0
O104 O 0.29675 0.99191 0.38306 0.0
C105 C 0.29624 0.98465 0.32096 0.0
C106 C 0.34696 0.99132 0.3259 0.0
C107 C 0.30169 0.98047 0.38425 0.0
O108 O 0.30842 0.98165 0.32694 0.0
O109 O 0.2927 0.99552 0.33042 0.0
O110 O 0.34656 0.01044 0.36732 0.0
O111 O 0.32643 0.0146 0.35297 0.0
Co112 Co 0.00738 0.33703 0.34071 0.0
O113 O 0.99404 0.34209 0.32157 0.0
O114 O 0.02031 0.36238 0.33435 0.0
C115 C 0.98422 0.31971 0.36157 0.0
O116 O 0.02468 0.33692 0.36142 0.0
Co117 Co 0.99834 0.29764 0.34639 0.0
O118 O 0.0167 0.30835 0.36823 0.0
C119 C 0.01764 0.31736 0.30928 0.0
C120 C 0.00692 0.35871 0.32254 0.0
C121 C 0.0267 0.32526 0.3711 0.0
O122 O 0.01958 0.33199 0.31717 0.0
O123 O 0.00813 0.302 0.31764 0.0
O124 O 0.99255 0.33712 0.36349 0.0
O125 O 0.98914 0.31363 0.34625 0.0
Co126 Co 0.65993 0.99062 0.34516 0.0
O127 O 0.65409 0.00251 0.32487 0.0
O128 O 0.63462 0.97686 0.33956 0.0
C129 C 0.67738 0.01549 0.3643 0.0
O130 O 0.66117 0.97466 0.36697 0.0
Co131 Co 0.69913 0.0007 0.3497 0.0
O132 O 0.68972 0.98283 0.37211 0.0
C133 C 0.67852 0.97941 0.31383 0.0
C134 C 0.6378 0.98931 0.32637 0.0
C135 C 0.67319 0.97296 0.37607 0.0
O136 O 0.66428 0.97707 0.32259 0.0
O137 O 0.69409 0.99002 0.32106 0.0
O138 O 0.66024 0.0067 0.36687 0.0
O139 O 0.68314 0.00984 0.34933 0.0
Co140 Co 0.00781 0.67194 0.34133 0.0
O141 O 0.99052 0.65804 0.36201 0.0
O142 O 0.99626 0.68457 0.3511 0.0
C143 C 8e-05 0.64919 0.31867 0.0
O144 O 0.02398 0.68974 0.31963 0.0
Co145 Co 0.0374 0.66378 0.32935 0.0
O146 O 0.04138 0.68007 0.3062 0.0
C147 C 0.03987 0.68242 0.36867 0.0
C148 C 0.98701 0.67084 0.36294 0.0
C149 C 0.03533 0.69064 0.3062 0.0
O150 O 0.02675 0.68412 0.3632 0.0
O151 O 0.04515 0.67343 0.35809 0.0
O152 O 0.99101 0.6572 0.31962 0.0
O153 O 0.01213 0.65392 0.33262 0.0
Co154 Co 0.33103 0.33474 0.3429 0.0
O155 O 0.34258 0.32931 0.36408 0.0
O156 O 0.31752 0.30927 0.3486 0.0
C157 C 0.3557 0.35188 0.32406 0.0
O158 O 0.31555 0.33539 0.32004 0.0
Co159 Co 0.34106 0.37423 0.33625 0.0
O160 O 0.32662 0.36411 0.31088 0.0
C161 C 0.31865 0.3543 0.37174 0.0
C162 C 0.3298 0.31271 0.36207 0.0
C163 C 0.31581 0.34731 0.30822 0.0
O164 O 0.31735 0.33973 0.36456 0.0
O165 O 0.32864 0.36969 0.36361 0.0
O166 O 0.3472 0.33448 0.32212 0.0
O167 O 0.35 0.35812 0.33845 0.0
Co168 Co 0.33905 0.00965 0.67295 0.0
O169 O 0.3442 0.99767 0.69392 0.0
O170 O 0.36415 0.02322 0.67947 0.0
C171 C 0.32184 0.98476 0.65364 0.0
O172 O 0.3388 0.02557 0.65033 0.0
Co173 Co 0.30015 -3e-05 0.66502 0.0
O174 O 0.31063 0.0146 0.63999 0.0
C175 C 0.31934 0.02133 0.70192 0.0
C176 C 0.36062 0.01064 0.6926 0.0
C177 C 0.3273 0.02544 0.63802 0.0
O178 O 0.334 0.02333 0.6948 0.0
O179 O 0.30426 0.0112 0.69325 0.0
O180 O 0.33905 0.99309 0.65186 0.0
O181 O 0.31594 0.99084 0.66792 0.0
Co182 Co 0.99484 0.32789 0.67418 0.0
O183 O 0.01018 0.34049 0.65132 0.0
O184 O 0.00813 0.31665 0.66606 0.0
C185 C 0.00173 0.3527 0.69302 0.0
O186 O 0.98121 0.31157 0.69819 0.0
Co187 Co 0.96372 0.333 0.6879 0.0
O188 O 0.96377 0.32048 0.71315 0.0
C189 C 0.95967 0.31016 0.65133 0.0
C190 C 0.01544 0.329 0.65215 0.0
C191 C 0.97085 0.31084 0.71283 0.0
O192 O 0.97501 0.31204 0.65448 0.0
O193 O 0.95337 0.31807 0.66221 0.0
O194 O 0.01193 0.34593 0.69358 0.0
O195 O 0.98855 0.34504 0.68036 0.0
Co196 Co 0.67323 0.66791 0.67425 0.0
O197 O 0.6611 0.67232 0.65289 0.0
O198 O 0.68641 0.69318 0.66712 0.0
C199 C 0.64894 0.65139 0.69391 0.0
O200 O 0.68915 0.66805 0.69712 0.0
Co201 Co 0.66306 0.6285 0.68226 0.0
O202 O 0.678 0.6395 0.70711 0.0
C203 C 0.68491 0.64739 0.64605 0.0
C204 C 0.67377 0.689 0.65385 0.0
C205 C 0.68893 0.65634 0.70928 0.0
O206 O 0.68653 0.66221 0.65279 0.0
O207 O 0.67486 0.63222 0.65462 0.0
O208 O 0.65744 0.66882 0.69517 0.0
O209 O 0.65439 0.64477 0.67971 0.0
Co210 Co 0.3323 0.32866 0.67476 0.0
O211 O 0.32724 0.34226 0.65606 0.0
O212 O 0.30713 0.31563 0.66811 0.0
C213 C 0.3493 0.35202 0.69612 0.0
O214 O 0.33279 0.31115 0.69502 0.0
Co215 Co 0.37147 0.33842 0.68049 0.0
O216 O 0.36125 0.32168 0.70389 0.0
C217 C 0.35199 0.31938 0.64272 0.0
C218 C 0.31079 0.32931 0.65668 0.0
C219 C 0.34464 0.31058 0.70603 0.0
O220 O 0.33739 0.3168 0.65078 0.0
O221 O 0.36717 0.32907 0.65134 0.0
O222 O 0.3321 0.3433 0.69803 0.0
O223 O 0.35532 0.34726 0.68061 0.0
Co224 Co 0.67266 0.00875 0.67156 0.0
O225 O 0.65679 0.99694 0.69421 0.0
O226 O 0.66217 0.02256 0.68072 0.0
C227 C 0.66314 0.98406 0.65145 0.0
O228 O 0.68745 0.02448 0.64767 0.0
Co229 Co 0.70089 0.99891 0.65856 0.0
O230 O 0.70322 0.01306 0.63381 0.0
C231 C 0.7062 0.02039 0.69639 0.0
C232 C 0.65368 0.01004 0.69425 0.0
C233 C 0.69756 0.02396 0.63347 0.0
O234 O 0.69312 0.02235 0.6914 0.0
O235 O 0.71034 0.01026 0.68627 0.0
O236 O 0.65433 0.99236 0.65193 0.0
O237 O 0.67608 0.98988 0.66437 0.0
Co238 Co 0.99158 0.66567 0.67455 0.0
O239 O 0.00171 0.66038 0.69757 0.0
O240 O 0.97719 0.64048 0.68109 0.0
C241 C 0.01739 0.68181 0.65725 0.0
O242 O 0.97726 0.66568 0.65001 0.0
Co243 Co 0.0025 0.70456 0.66329 0.0
O244 O 0.9896 0.69345 0.63719 0.0
C245 C 0.97793 0.6867 0.69828 0.0
C246 C 0.98867 0.64389 0.69559 0.0
C247 C 0.97836 0.67664 0.63616 0.0
O248 O 0.97739 0.67188 0.69403 0.0
O249 O 0.98786 0.70134 0.68864 0.0
O250 O 0.00844 0.66438 0.6557 0.0
O251 O 0.01114 0.68877 0.67002 0.0
C252 C 0.2216 0.33623 0.13717 0.0
C253 C 0.21929 0.32418 0.12107 0.0
C254 C 0.20709 0.33363 0.14895 0.0
C255 C 0.19003 0.31891 0.14485 0.0
C256 C 0.20223 0.30932 0.11717 0.0
C257 C 0.18769 0.30682 0.12885 0.0
C258 C 0.17442 0.31716 0.15578 0.0
C259 C 0.20646 0.30727 0.20082 0.0
C260 C 0.21466 0.32116 0.21563 0.0
C261 C 0.1926 0.30566 0.18868 0.0
C262 C 0.1867 0.31788 0.19124 0.0
C263 C 0.2082 0.33288 0.2187 0.0
C264 C 0.19427 0.33116 0.20673 0.0
C265 C 0.17311 0.31739 0.17747 0.0
C266 C 0.09999 0.30692 0.19006 0.0
C267 C 0.10366 0.31884 0.20683 0.0
C268 C 0.11379 0.30658 0.17952 0.0
C269 C 0.13155 0.31829 0.18538 0.0
C270 C 0.12145 0.33039 0.21277 0.0
C271 C 0.13523 0.33006 0.20221 0.0
C272 C 0.14636 0.31805 0.17452 0.0
C273 C 0.12262 0.33722 0.12748 0.0
C274 C 0.11532 0.32577 0.11018 0.0
C275 C 0.13295 0.33455 0.14157 0.0
C276 C 0.13603 0.3203 0.13872 0.0
C277 C 0.11864 0.31166 0.10724 0.0
C278 C 0.12899 0.30903 0.12132 0.0
C279 C 0.14782 0.31799 0.1528 0.0
H280 H 0.23462 0.34773 0.14056 0.0
H281 H 0.20911 0.34339 0.16089 0.0
H282 H 0.20005 0.29994 0.1047 0.0
H283 H 0.17458 0.29554 0.12527 0.0
H284 H 0.21115 0.29804 0.19815 0.0
H285 H 0.18669 0.29506 0.17708 0.0
H286 H 0.21409 0.34352 0.23025 0.0
H287 H 0.18983 0.34062 0.2091 0.0
H288 H 0.08645 0.29787 0.18506 0.0
H289 H 0.11055 0.29704 0.16692 0.0
H290 H 0.12473 0.33945 0.22588 0.0
H291 H 0.1488 0.33907 0.20715 0.0
H292 H 0.12021 0.34813 0.13023 0.0
H293 H 0.13872 0.34378 0.15454 0.0
H294 H 0.11341 0.30277 0.09391 0.0
H295 H 0.13149 0.29817 0.11862 0.0
N296 N 0.1617 0.31738 0.1443 0.0
N297 N 0.15916 0.3179 0.18603 0.0
C298 C 0.66712 0.88105 0.125 0.0
C299 C 0.67973 0.89147 0.10995 0.0
C300 C 0.67013 0.87026 0.13806 0.0
C301 C 0.68585 0.86977 0.13642 0.0
C302 C 0.69526 0.89059 0.108 0.0
C303 C 0.69822 0.87973 0.12103 0.0
C304 C 0.68906 0.85829 0.15013 0.0
C305 C 0.69563 0.90262 0.19467 0.0
C306 C 0.67977 0.89699 0.20579 0.0
C307 C 0.69799 0.8903 0.18302 0.0
C308 C 0.6847 0.87209 0.18258 0.0
C309 C 0.66623 0.87874 0.20453 0.0
C310 C 0.66882 0.86638 0.19335 0.0
C311 C 0.6877 0.85885 0.17173 0.0
C312 C 0.70806 0.80476 0.19824 0.0
C313 C 0.69603 0.79733 0.21467 0.0
C314 C 0.70777 0.81753 0.18563 0.0
C315 C 0.69488 0.8224 0.1887 0.0
C316 C 0.68394 0.80303 0.21857 0.0
C317 C 0.68331 0.81538 0.20565 0.0
C318 C 0.69316 0.83474 0.17461 0.0
C319 C 0.68592 0.78874 0.13412 0.0
C320 C 0.69808 0.79371 0.11775 0.0
C321 C 0.68478 0.80182 0.1457 0.0
C322 C 0.69615 0.82014 0.14151 0.0
C323 C 0.70939 0.81202 0.11349 0.0
C324 C 0.70844 0.82512 0.12528 0.0
C325 C 0.69439 0.83407 0.15284 0.0
H326 H 0.65508 0.88148 0.12695 0.0
H327 H 0.66011 0.86222 0.14937 0.0
H328 H 0.7051 0.89826 0.09635 0.0
H329 H 0.71028 0.8793 0.11926 0.0
H330 H 0.70653 0.91642 0.19546 0.0
H331 H 0.71041 0.89488 0.17488 0.0
H332 H 0.65364 0.87388 0.21232 0.0
H333 H 0.65839 0.85234 0.19302 0.0
H334 H 0.71764 0.80066 0.19516 0.0
H335 H 0.71743 0.82333 0.17331 0.0
H336 H 0.67454 0.79744 0.23119 0.0
H337 H 0.67342 0.81907 0.20861 0.0
H338 H 0.67678 0.7747 0.13741 0.0
H339 H 0.67474 0.79759 0.15764 0.0
H340 H 0.71883 0.81617 0.10088 0.0
H341 H 0.71718 0.83916 0.12161 0.0
N342 N 0.69246 0.84599 0.14149 0.0
N343 N 0.68976 0.84709 0.18315 0.0
C344 C 0.10809 0.79373 0.13551 0.0
C345 C 0.09717 0.79543 0.12119 0.0
C346 C 0.12034 0.80853 0.14722 0.0
C347 C 0.12184 0.82531 0.14493 0.0
C348 C 0.09854 0.8122 0.11906 0.0
C349 C 0.11094 0.82709 0.13071 0.0
C350 C 0.1357 0.84114 0.15635 0.0
C351 C 0.09424 0.80455 0.20158 0.0
C352 C 0.10078 0.79667 0.21486 0.0
C353 C 0.10601 0.8194 0.18978 0.0
C354 C 0.12445 0.82658 0.19123 0.0
C355 C 0.11922 0.80431 0.21679 0.0
C356 C 0.13093 0.81918 0.2052 0.0
C357 C 0.13724 0.84145 0.17803 0.0
C358 C 0.20327 0.91369 0.19523 0.0
C359 C 0.2106 0.90829 0.21068 0.0
C360 C 0.18864 0.9009 0.18376 0.0
C361 C 0.18116 0.88249 0.18749 0.0
C362 C 0.2031 0.88985 0.21427 0.0
C363 C 0.1885 0.87711 0.20287 0.0
C364 C 0.16532 0.86867 0.1761 0.0
C365 C 0.20927 0.89167 0.12965 0.0
C366 C 0.20761 0.90246 0.11504 0.0
C367 C 0.19507 0.88072 0.14256 0.0
C368 C 0.17894 0.88035 0.1411 0.0
C369 C 0.19142 0.90204 0.11354 0.0
C370 C 0.17711 0.89089 0.12634 0.0
C371 C 0.16385 0.86829 0.15443 0.0
H372 H 0.10725 0.78095 0.13754 0.0
H373 H 0.1289 0.80695 0.15779 0.0
H374 H 0.0904 0.81391 0.10797 0.0
H375 H 0.11209 0.84 0.12855 0.0
H376 H 0.08007 0.79892 0.19988 0.0
H377 H 0.10073 0.82513 0.17936 0.0
H378 H 0.12461 0.79865 0.22716 0.0
H379 H 0.14508 0.82456 0.20669 0.0
H380 H 0.20877 0.9278 0.19207 0.0
H381 H 0.18301 0.90541 0.17225 0.0
H382 H 0.20821 0.88525 0.22631 0.0
H383 H 0.1829 0.86299 0.20609 0.0
H384 H 0.22162 0.89181 0.13122 0.0
H385 H 0.19664 0.87241 0.15359 0.0
H386 H 0.18975 0.91011 0.10226 0.0
H387 H 0.16467 0.89059 0.12485 0.0
N388 N 0.14904 0.85461 0.14535 0.0
N389 N 0.152 0.85519 0.18703 0.0
C390 C 0.32708 0.1134 0.82299 0.0
C391 C 0.31373 0.10232 0.80879 0.0
C392 C 0.32563 0.12623 0.83477 0.0
C393 C 0.31077 0.12813 0.83265 0.0
C394 C 0.29898 0.10444 0.80655 0.0
C395 C 0.29758 0.1173 0.81828 0.0
C396 C 0.30917 0.14179 0.84481 0.0
C397 C 0.3058 0.10091 0.88921 0.0
C398 C 0.31898 0.10807 0.90461 0.0
C399 C 0.3029 0.11222 0.87691 0.0
C400 C 0.31338 0.13095 0.87944 0.0
C401 C 0.32917 0.12683 0.90739 0.0
C402 C 0.32636 0.13812 0.89497 0.0
C403 C 0.31069 0.14326 0.86652 0.0
C404 C 0.29526 0.20231 0.88644 0.0
C405 C 0.3084 0.21161 0.90155 0.0
C406 C 0.29496 0.18842 0.87478 0.0
C407 C 0.30786 0.18371 0.878 0.0
C408 C 0.32116 0.20669 0.90475 0.0
C409 C 0.32079 0.19281 0.89323 0.0
C410 C 0.30807 0.16928 0.86581 0.0
C411 C 0.32371 0.2142 0.82196 0.0
C412 C 0.31286 0.21015 0.8045 0.0
C413 C 0.32162 0.20062 0.83494 0.0
C414 C 0.30828 0.18267 0.83117 0.0
C415 C 0.29939 0.1922 0.80078 0.0
C416 C 0.2972 0.17856 0.81394 0.0
C417 C 0.30709 0.16815 0.84405 0.0
H418 H 0.33857 0.11207 0.82509 0.0
H419 H 0.33617 0.13474 0.84547 0.0
H420 H 0.28865 0.09635 0.79546 0.0
H421 H 0.28613 0.11873 0.81623 0.0
H422 H 0.29777 0.08654 0.8865 0.0
H423 H 0.29243 0.10628 0.86548 0.0
H424 H 0.33917 0.13281 0.91935 0.0
H425 H 0.33446 0.15253 0.89741 0.0
H426 H 0.28512 0.20562 0.88377 0.0
H427 H 0.28464 0.18132 0.86335 0.0
H428 H 0.3317 0.21379 0.91593 0.0
H429 H 0.33089 0.18944 0.89593 0.0
H430 H 0.33409 0.22788 0.82545 0.0
H431 H 0.33081 0.20416 0.84763 0.0
H432 H 0.29095 0.18859 0.78733 0.0
H433 H 0.28702 0.16478 0.81052 0.0
N434 N 0.30742 0.15427 0.83441 0.0
N435 N 0.31003 0.15693 0.87613 0.0
C436 C 0.90671 0.20274 0.88812 0.0
C437 C 0.90139 0.21196 0.90168 0.0
C438 C 0.89413 0.1881 0.87637 0.0
C439 C 0.87603 0.18245 0.87792 0.0
C440 C 0.88321 0.2061 0.90328 0.0
C441 C 0.87066 0.19142 0.89163 0.0
C442 C 0.86252 0.16713 0.86548 0.0
C443 C 0.89293 0.2121 0.82194 0.0
C444 C 0.90439 0.20962 0.80882 0.0
C445 C 0.87983 0.19786 0.83327 0.0
C446 C 0.87784 0.18078 0.83179 0.0
C447 C 0.90222 0.19239 0.80718 0.0
C448 C 0.88895 0.17805 0.81847 0.0
C449 C 0.86385 0.16584 0.84389 0.0
C450 C 0.79016 0.10915 0.81999 0.0
C451 C 0.79351 0.09965 0.80459 0.0
C452 C 0.80384 0.12156 0.83278 0.0
C453 C 0.82111 0.12454 0.8307 0.0
C454 C 0.81084 0.10273 0.80248 0.0
C455 C 0.82451 0.11513 0.81534 0.0
C456 C 0.83585 0.13838 0.84346 0.0
C457 C 0.7984 0.09599 0.88804 0.0
C458 C 0.79023 0.10222 0.90191 0.0
C459 C 0.81274 0.10808 0.87586 0.0
C460 C 0.81913 0.12658 0.87732 0.0
C461 C 0.79668 0.12078 0.90318 0.0
C462 C 0.81106 0.13282 0.89116 0.0
C463 C 0.83456 0.13973 0.86509 0.0
H464 H 0.92055 0.20667 0.8868 0.0
H465 H 0.89853 0.18111 0.86619 0.0
H466 H 0.87865 0.21303 0.9133 0.0
H467 H 0.85675 0.18727 0.89305 0.0
H468 H 0.89379 0.22498 0.82317 0.0
H469 H 0.87109 0.20015 0.84307 0.0
H470 H 0.91085 0.18999 0.79733 0.0
H471 H 0.88752 0.16492 0.81704 0.0
H472 H 0.77697 0.10705 0.82212 0.0
H473 H 0.80096 0.12908 0.84406 0.0
H474 H 0.81395 0.09589 0.79054 0.0
H475 H 0.83779 0.11743 0.81324 0.0
H476 H 0.79396 0.08183 0.88689 0.0
H477 H 0.819 0.10301 0.86556 0.0
H478 H 0.79053 0.12606 0.91336 0.0
H479 H 0.81578 0.14704 0.89251 0.0
N480 N 0.84791 0.15409 0.87522 0.0
N481 N 0.85052 0.15147 0.83367 0.0
C482 C 0.79233 0.69236 0.89264 0.0
C483 C 0.78291 0.67683 0.90464 0.0
C484 C 0.80716 0.69539 0.88114 0.0
C485 C 0.81283 0.68295 0.88144 0.0
C486 C 0.789 0.66469 0.90531 0.0
C487 C 0.80389 0.66781 0.89396 0.0
C488 C 0.82784 0.68534 0.86851 0.0
C489 C 0.78307 0.67154 0.82529 0.0
C490 C 0.78652 0.68377 0.80942 0.0
C491 C 0.79678 0.67326 0.83761 0.0
C492 C 0.81426 0.68766 0.83501 0.0
C493 C 0.80402 0.69827 0.80683 0.0
C494 C 0.81776 0.70014 0.81947 0.0
C495 C 0.82902 0.68865 0.84711 0.0
C496 C 0.88476 0.6747 0.81687 0.0
C497 C 0.89556 0.68988 0.8048 0.0
C498 C 0.87236 0.67463 0.83064 0.0
C499 C 0.87046 0.68968 0.83254 0.0
C500 C 0.8938 0.70506 0.80713 0.0
C501 C 0.88121 0.70486 0.82067 0.0
C502 C 0.85648 0.68917 0.84585 0.0
C503 C 0.89846 0.69234 0.8881 0.0
C504 C 0.89231 0.67849 0.90262 0.0
C505 C 0.88649 0.69466 0.87646 0.0
C506 C 0.86809 0.68292 0.87872 0.0
C507 C 0.87388 0.66691 0.90499 0.0
C508 C 0.86194 0.66912 0.89318 0.0
C509 C 0.85505 0.68541 0.86713 0.0
H510 H 0.78829 0.70222 0.89215 0.0
H511 H 0.81412 0.70737 0.87192 0.0
H512 H 0.782 0.6525 0.91417 0.0
H513 H 0.8081 0.65806 0.89443 0.0
H514 H 0.76976 0.66036 0.828 0.0
H515 H 0.7937 0.66295 0.84882 0.0
H516 H 0.80723 0.70781 0.79461 0.0
H517 H 0.83118 0.71119 0.8169 0.0
H518 H 0.88545 0.66264 0.81528 0.0
H519 H 0.86393 0.66264 0.83942 0.0
H520 H 0.90209 0.71713 0.79846 0.0
H521 H 0.87989 0.71658 0.82192 0.0
H522 H 0.91255 0.70145 0.88572 0.0
H523 H 0.89167 0.70582 0.86598 0.0
H524 H 0.86862 0.65634 0.91628 0.0
H525 H 0.84782 0.66002 0.89545 0.0
N526 N 0.84078 0.68369 0.87759 0.0
N527 N 0.84344 0.69066 0.83668 0.0
C528 C 0.76905 0.64367 0.46124 0.0
C529 C 0.77511 0.65753 0.44678 0.0
C530 C 0.78111 0.64134 0.47268 0.0
C531 C 0.79948 0.65311 0.47028 0.0
C532 C 0.79353 0.66889 0.44394 0.0
C533 C 0.80556 0.66669 0.45556 0.0
C534 C 0.81256 0.65123 0.48257 0.0
C535 C 0.78088 0.6631 0.52803 0.0
C536 C 0.77095 0.6492 0.54202 0.0
C537 C 0.79392 0.6629 0.51571 0.0
C538 C 0.79714 0.64866 0.51688 0.0
C539 C 0.77441 0.63512 0.54338 0.0
C540 C 0.78744 0.63491 0.53101 0.0
C541 C 0.8111 0.64845 0.5041 0.0
C542 C 0.88314 0.66433 0.52748 0.0
C543 C 0.8798 0.64965 0.53968 0.0
C544 C 0.86961 0.66381 0.51581 0.0
C545 C 0.85242 0.64864 0.5161 0.0
C546 C 0.86246 0.63449 0.54003 0.0
C547 C 0.84886 0.63408 0.52849 0.0
C548 C 0.83816 0.64823 0.50377 0.0
C549 C 0.87555 0.6433 0.46062 0.0
C550 C 0.88396 0.65729 0.44632 0.0
C551 C 0.86098 0.64101 0.47206 0.0
C552 C 0.85475 0.65291 0.46984 0.0
C553 C 0.87729 0.66879 0.44364 0.0
C554 C 0.86284 0.6666 0.45526 0.0
C555 C 0.83966 0.65106 0.48228 0.0
H556 H 0.75498 0.6347 0.46393 0.0
H557 H 0.77603 0.63036 0.48342 0.0
H558 H 0.79871 0.67942 0.43259 0.0
H559 H 0.81967 0.67577 0.45318 0.0
H560 H 0.77851 0.6741 0.52652 0.0
H561 H 0.80156 0.67392 0.50531 0.0
H562 H 0.76727 0.62439 0.55428 0.0
H563 H 0.78989 0.62394 0.53239 0.0
H564 H 0.89614 0.67643 0.52721 0.0
H565 H 0.87254 0.67536 0.50667 0.0
H566 H 0.85939 0.62287 0.54907 0.0
H567 H 0.83563 0.62229 0.52896 0.0
H568 H 0.88034 0.63423 0.46319 0.0
H569 H 0.85461 0.62993 0.48266 0.0
H570 H 0.88314 0.67943 0.43244 0.0
H571 H 0.85811 0.67578 0.45302 0.0
N572 N 0.82684 0.65252 0.47257 0.0
N573 N 0.82389 0.64692 0.51385 0.0
C574 C 0.3338 0.21622 0.46156 0.0
C575 C 0.34392 0.22431 0.44385 0.0
C576 C 0.3376 0.20558 0.4738 0.0
C577 C 0.35201 0.20333 0.46898 0.0
C578 C 0.35761 0.22117 0.43825 0.0
C579 C 0.36165 0.21076 0.45076 0.0
C580 C 0.35673 0.19295 0.48274 0.0
C581 C 0.36547 0.24114 0.51926 0.0
C582 C 0.35392 0.23708 0.53618 0.0
C583 C 0.36672 0.22756 0.50896 0.0
C584 C 0.35629 0.20962 0.51522 0.0
C585 C 0.34365 0.21913 0.54252 0.0
C586 C 0.34489 0.20556 0.5322 0.0
C587 C 0.35739 0.19504 0.50444 0.0
C588 C 0.37244 0.13772 0.53255 0.0
C589 C 0.35797 0.12852 0.54607 0.0
C590 C 0.3739 0.15163 0.52043 0.0
C591 C 0.36089 0.15648 0.52169 0.0
C592 C 0.34555 0.13409 0.54803 0.0
C593 C 0.34706 0.14799 0.53606 0.0
C594 C 0.36083 0.16968 0.50763 0.0
C595 C 0.35146 0.12197 0.46904 0.0
C596 C 0.36389 0.12625 0.4531 0.0
C597 C 0.35051 0.13555 0.47975 0.0
C598 C 0.36234 0.15368 0.47511 0.0
C599 C 0.37557 0.14438 0.44828 0.0
C600 C 0.3748 0.15798 0.45921 0.0
C601 C 0.36116 0.16818 0.4859 0.0
H602 H 0.32296 0.21818 0.46596 0.0
H603 H 0.32939 0.19928 0.4872 0.0
H604 H 0.36556 0.22726 0.42461 0.0
H605 H 0.37258 0.20891 0.44651 0.0
H606 H 0.37354 0.25482 0.51397 0.0
H607 H 0.3759 0.23108 0.49617 0.0
H608 H 0.33492 0.21559 0.55576 0.0
H609 H 0.33684 0.19185 0.53742 0.0
H610 H 0.38222 0.13373 0.5308 0.0
H611 H 0.38487 0.15825 0.5097 0.0
H612 H 0.33446 0.12747 0.55862 0.0
H613 H 0.33699 0.15163 0.53745 0.0
H614 H 0.34201 0.10809 0.47271 0.0
H615 H 0.34032 0.13184 0.49139 0.0
H616 H 0.38523 0.14801 0.43598 0.0
H617 H 0.38389 0.17187 0.45521 0.0
N618 N 0.35903 0.17984 0.47429 0.0
N619 N 0.35904 0.18311 0.51603 0.0
C620 C 0.77106 0.12236 0.45991 0.0
C621 C 0.76208 0.12579 0.44461 0.0
C622 C 0.78483 0.13648 0.47097 0.0
C623 C 0.78947 0.15433 0.46754 0.0
C624 C 0.76721 0.14366 0.44041 0.0
C625 C 0.7808 0.15785 0.45187 0.0
C626 C 0.80379 0.16921 0.47983 0.0
C627 C 0.75994 0.13376 0.52378 0.0
C628 C 0.765 0.12405 0.53622 0.0
C629 C 0.77278 0.14852 0.51264 0.0
C630 C 0.79082 0.15379 0.514 0.0
C631 C 0.78308 0.12973 0.53798 0.0
C632 C 0.79586 0.14454 0.52713 0.0
C633 C 0.80465 0.16854 0.50152 0.0
C634 C 0.87278 0.2368 0.52476 0.0
C635 C 0.87789 0.22936 0.54036 0.0
C636 C 0.85859 0.22563 0.51168 0.0
C637 C 0.84959 0.20686 0.51375 0.0
C638 C 0.86912 0.21062 0.54214 0.0
C639 C 0.85514 0.19949 0.52896 0.0
C640 C 0.83367 0.19463 0.50133 0.0
C641 C 0.87891 0.22116 0.45717 0.0
C642 C 0.87799 0.2338 0.44483 0.0
C643 C 0.8641 0.20864 0.46828 0.0
C644 C 0.84809 0.20854 0.46735 0.0
C645 C 0.86185 0.23354 0.4437 0.0
C646 C 0.84695 0.22087 0.45474 0.0
C647 C 0.83268 0.19563 0.47972 0.0
H648 H 0.76766 0.10872 0.46302 0.0
H649 H 0.7919 0.13341 0.48219 0.0
H650 H 0.76056 0.14659 0.42848 0.0
H651 H 0.7844 0.17153 0.44866 0.0
H652 H 0.74606 0.12964 0.52227 0.0
H653 H 0.76865 0.15565 0.50279 0.0
H654 H 0.78732 0.12261 0.54772 0.0
H655 H 0.80969 0.14843 0.5285 0.0
H656 H 0.87921 0.25124 0.52332 0.0
H657 H 0.8543 0.23171 0.50047 0.0
H658 H 0.87288 0.20457 0.55401 0.0
H659 H 0.84845 0.18507 0.53086 0.0
H660 H 0.89118 0.22109 0.45845 0.0
H661 H 0.86517 0.19907 0.47773 0.0
H662 H 0.86071 0.24298 0.43411 0.0
H663 H 0.83465 0.2209 0.45374 0.0
N664 N 0.81777 0.1829 0.46973 0.0
N665 N 0.81959 0.18114 0.51132 0.0
C666 C 0.97792 0.53875 0.14462 0.0
C667 C 0.9934 0.55024 0.13344 0.0
C668 C 0.97708 0.52508 0.15657 0.0
C669 C 0.9917 0.52267 0.15756 0.0
C670 C 0.00782 0.54743 0.13403 0.0
C671 C 0.00692 0.5337 0.14589 0.0
C672 C 0.99136 0.50897 0.17106 0.0
C673 C 0.00359 0.55428 0.21744 0.0
C674 C 0.9872 0.55257 0.22294 0.0
C675 C 0.00416 0.54024 0.20743 0.0
C676 C 0.98843 0.52409 0.20303 0.0
C677 C 0.97141 0.53627 0.2183 0.0
C678 C 0.97205 0.52208 0.20863 0.0
C679 C 0.98931 0.5094 0.19261 0.0
C680 C 0.0129 0.46561 0.23132 0.0
C681 C 0.99839 0.44834 0.23548 0.0
C682 C 0.0109 0.47718 0.21842 0.0
C683 C 0.99439 0.47173 0.2095 0.0
C684 C 0.98184 0.443 0.22641 0.0
C685 C 0.97985 0.45464 0.21362 0.0
C686 C 0.99247 0.48397 0.19583 0.0
C687 C 0.9837 0.43895 0.15085 0.0
C688 C 0.00038 0.44282 0.14321 0.0
C689 C 0.98186 0.45212 0.16122 0.0
C690 C 0.99659 0.46943 0.16409 0.0
C691 C 0.0152 0.46019 0.1465 0.0
C692 C 0.01328 0.47342 0.15675 0.0
C693 C 0.99435 0.4834 0.17431 0.0
H694 H 0.96661 0.54058 0.14451 0.0
H695 H 0.96506 0.51645 0.16513 0.0
H696 H 0.01981 0.55586 0.12532 0.0
H697 H 0.01829 0.53196 0.14633 0.0
H698 H 0.01607 0.56634 0.22121 0.0
H699 H 0.01692 0.5419 0.20331 0.0
H700 H 0.95854 0.53447 0.22202 0.0
H701 H 0.95978 0.50962 0.20529 0.0
H702 H 0.02577 0.47031 0.23822 0.0
H703 H 0.02226 0.49038 0.21538 0.0
H704 H 0.97043 0.42974 0.22895 0.0
H705 H 0.96699 0.45027 0.20685 0.0
H706 H 0.97191 0.4259 0.14828 0.0
H707 H 0.96884 0.44891 0.16666 0.0
H708 H 0.02828 0.46362 0.14112 0.0
H709 H 0.02479 0.48675 0.15893 0.0
N710 N 0.99391 0.49601 0.16262 0.0
N711 N 0.99014 0.49703 0.20432 0.0
C712 C 0.46798 0.43091 0.15082 0.0
C713 C 0.45707 0.43639 0.14161 0.0
C714 C 0.4824 0.44286 0.16312 0.0
C715 C 0.4864 0.46057 0.1661 0.0
C716 C 0.46084 0.45405 0.14546 0.0
C717 C 0.47553 0.46609 0.15728 0.0
C718 C 0.50235 0.47365 0.17766 0.0
C719 C 0.45852 0.44783 0.22395 0.0
C720 C 0.45997 0.43568 0.23661 0.0
C721 C 0.47278 0.45976 0.21171 0.0
C722 C 0.48877 0.45977 0.21181 0.0
C723 C 0.47601 0.43568 0.2367 0.0
C724 C 0.49038 0.44778 0.22452 0.0
C725 C 0.50386 0.4728 0.19913 0.0
C726 C 0.56525 0.54641 0.21857 0.0
C727 C 0.57394 0.54274 0.23402 0.0
C728 C 0.55164 0.53243 0.20713 0.0
C729 C 0.54691 0.51452 0.21034 0.0
C730 C 0.56885 0.52483 0.2378 0.0
C731 C 0.55547 0.51081 0.22598 0.0
C732 C 0.53235 0.49965 0.19827 0.0
C733 C 0.57499 0.53567 0.15382 0.0
C734 C 0.56958 0.54544 0.14204 0.0
C735 C 0.56242 0.52059 0.16475 0.0
C736 C 0.54431 0.51509 0.16389 0.0
C737 C 0.5514 0.53945 0.1406 0.0
C738 C 0.53888 0.52433 0.15128 0.0
C739 C 0.53087 0.50026 0.17662 0.0
H740 H 0.4658 0.4176 0.14803 0.0
H741 H 0.49078 0.43845 0.16977 0.0
H742 H 0.45255 0.45871 0.13923 0.0
H743 H 0.4784 0.47972 0.15961 0.0
H744 H 0.44631 0.44807 0.22344 0.0
H745 H 0.47138 0.46917 0.20234 0.0
H746 H 0.47754 0.42658 0.24647 0.0
H747 H 0.50269 0.44773 0.22494 0.0
H748 H 0.56861 0.56008 0.21577 0.0
H749 H 0.54466 0.53566 0.19598 0.0
H750 H 0.57527 0.5217 0.24983 0.0
H751 H 0.55181 0.49709 0.22903 0.0
H752 H 0.58894 0.54 0.15508 0.0
H753 H 0.56685 0.51347 0.17418 0.0
H754 H 0.54688 0.54658 0.13134 0.0
H755 H 0.52498 0.52024 0.15028 0.0
N756 N 0.51585 0.48732 0.16719 0.0
N757 N 0.51883 0.48581 0.20871 0.0
C758 C 0.44958 0.00545 0.22272 0.0
C759 C 0.43922 0.99009 0.23472 0.0
C760 C 0.46343 0.00691 0.21047 0.0
C761 C 0.46722 0.99305 0.20997 0.0
C762 C 0.44319 0.97632 0.23427 0.0
C763 C 0.45716 0.97787 0.22215 0.0
C764 C 0.48207 0.99459 0.19741 0.0
C765 C 0.44 0.98748 0.15354 0.0
C766 C 0.44508 0.00085 0.13861 0.0
C767 C 0.45268 0.98678 0.16561 0.0
C768 C 0.47078 -0.00013 0.16374 0.0
C769 C 0.46326 0.01385 0.13655 0.0
C770 C 0.47596 0.01334 0.14898 0.0
C771 C 0.48436 0.9989 0.17623 0.0
C772 C 0.54588 0.98949 0.15289 0.0
C773 C 0.55555 0.00439 0.14005 0.0
C774 C 0.5316 0.98767 0.16461 0.0
C775 C 0.52684 0.00084 0.16402 0.0
C776 C 0.55055 0.0174 0.13924 0.0
C777 C 0.53631 0.01559 0.15104 0.0
C778 C 0.51165 0.99901 0.17626 0.0
C779 C 0.55201 0.00508 0.22321 0.0
C780 C 0.54642 0.9896 0.23503 0.0
C781 C 0.54 0.00661 0.21071 0.0
C782 C 0.52216 0.9927 0.20977 0.0
C783 C 0.52848 0.97573 0.23408 0.0
C784 C 0.51646 0.97734 0.2217 0.0
C785 C 0.50916 0.99448 0.19734 0.0
H786 H 0.4472 0.01652 0.22304 0.0
H787 H 0.47133 0.01896 0.20157 0.0
H788 H 0.4354 0.96422 0.24311 0.0
H789 H 0.45995 0.96707 0.22206 0.0
H790 H 0.42616 0.97737 0.15589 0.0
H791 H 0.44825 0.97577 0.17619 0.0
H792 H 0.46776 0.02417 0.12502 0.0
H793 H 0.48986 0.02343 0.14697 0.0
H794 H 0.54938 0.97926 0.15397 0.0
H795 H 0.52419 0.97586 0.174 0.0
H796 H 0.55746 0.02885 0.12922 0.0
H797 H 0.53274 0.02579 0.1501 0.0
H798 H 0.5656 0.01622 0.22391 0.0
H799 H 0.54459 0.0188 0.20206 0.0
H800 H 0.52373 0.96354 0.24276 0.0
H801 H 0.50269 0.96651 0.2213 0.0
N802 N 0.49446 0.9924 0.20705 0.0
N803 N 0.49917 0.00109 0.16653 0.0
C804 C 0.56174 0.01682 0.80206 0.0
C805 C 0.55836 0.00428 0.78611 0.0
C806 C 0.54775 0.01569 0.81377 0.0
C807 C 0.53015 0.00204 0.80968 0.0
C808 C 0.54072 0.99066 0.78205 0.0
C809 C 0.52673 0.98966 0.79361 0.0
C810 C 0.51517 0.00119 0.82129 0.0
C811 C 0.54453 0.98637 0.86534 0.0
C812 C 0.55348 -0.00041 0.8807 0.0
C813 C 0.53167 0.98671 0.85309 0.0
C814 C 0.52751 0.00021 0.85611 0.0
C815 C 0.54898 0.01282 0.88397 0.0
C816 C 0.53599 0.01302 0.87191 0.0
C817 C 0.51423 0.00099 0.84302 0.0
C818 C 0.44007 0.98517 0.85908 0.0
C819 C 0.44297 0.99635 0.87638 0.0
C820 C 0.45439 0.98686 0.84759 0.0
C821 C 0.47192 -0.00012 0.85302 0.0
C822 C 0.46053 0.00936 0.8818 0.0
C823 C 0.47486 0.01102 0.8703 0.0
C824 C 0.48721 0.00124 0.84149 0.0
C825 C 0.45939 0.01789 0.79727 0.0
C826 C 0.45125 0.0057 0.78075 0.0
C827 C 0.47139 0.01657 0.81005 0.0
C828 C 0.47545 0.00306 0.80651 0.0
C829 C 0.45556 0.99237 0.77707 0.0
C830 C 0.46767 0.99117 0.78973 0.0
C831 C 0.48828 0.00164 0.81973 0.0
H832 H 0.57521 0.02742 0.80554 0.0
H833 H 0.55065 0.02564 0.82581 0.0
H834 H 0.53771 0.98097 0.76968 0.0
H835 H 0.51323 0.97917 0.79006 0.0
H836 H 0.54776 0.97604 0.86249 0.0
H837 H 0.52502 0.97647 0.84123 0.0
H838 H 0.55551 0.02303 0.89589 0.0
H839 H 0.53283 0.02343 0.87463 0.0
H840 H 0.42672 0.97507 0.85444 0.0
H841 H 0.45176 0.97776 0.83466 0.0
H842 H 0.46324 0.01797 0.89523 0.0
H843 H 0.48827 0.021 0.87493 0.0
H844 H 0.45628 0.02825 0.8005 0.0
H845 H 0.47755 0.02615 0.82265 0.0
H846 H 0.44966 0.98295 0.76428 0.0
H847 H 0.4708 0.9808 0.78657 0.0
N848 N 0.50213 0.00144 0.81047 0.0
N849 N 0.50032 0.00109 0.85232 0.0
C850 C 0.98312 0.54395 0.79823 0.0
C851 C 0.99263 0.5506 0.77978 0.0
C852 C 0.98584 0.53249 0.81043 0.0
C853 C 0.9986 0.52797 0.8048 0.0
C854 C 0.00472 0.54538 0.77359 0.0
C855 C 0.0077 0.53418 0.78601 0.0
C856 C 0.00208 0.51631 0.81799 0.0
C857 C 0.01723 0.56536 0.85712 0.0
C858 C 0.00632 0.56216 0.87448 0.0
C859 C 0.01611 0.55102 0.84566 0.0
C860 C 0.00398 0.53321 0.85127 0.0
C861 C 0.99418 0.5443 0.88003 0.0
C862 C 0.99313 0.52997 0.86862 0.0
C863 C 0.00321 0.51797 0.83973 0.0
C864 C 0.02137 0.4626 0.86462 0.0
C865 C 0.00767 0.45274 0.87885 0.0
C866 C 0.02109 0.47569 0.85258 0.0
C867 C 0.00712 0.47908 0.85467 0.0
C868 C 0.9941 0.45668 0.88138 0.0
C869 C 0.99391 0.46982 0.86951 0.0
C870 C 0.00585 0.492 0.84134 0.0
C871 C 0.99783 0.44554 0.8011 0.0
C872 C 0.00953 0.45061 0.78424 0.0
C873 C 0.99638 0.45851 0.8126 0.0
C874 C 0.00701 0.47682 0.80783 0.0
C875 C 0.01993 0.46887 0.77927 0.0
C876 C 0.01868 0.48184 0.79096 0.0
C877 C 0.00559 0.49083 0.81957 0.0
H878 H 0.97348 0.54752 0.80313 0.0
H879 H 0.97796 0.5272 0.82428 0.0
H880 H 0.01221 0.55034 0.75941 0.0
H881 H 0.01737 0.53065 0.78112 0.0
H882 H 0.02667 0.57896 0.85242 0.0
H883 H 0.02489 0.55386 0.83257 0.0
H884 H 0.98581 0.5414 0.89352 0.0
H885 H 0.98382 0.51634 0.87335 0.0
H886 H 0.03199 0.45984 0.86239 0.0
H887 H 0.03159 0.48294 0.84144 0.0
H888 H 0.98354 0.4495 0.89249 0.0
H889 H 0.98313 0.47238 0.87151 0.0
H890 H 0.98939 0.43151 0.80496 0.0
H891 H 0.98674 0.45416 0.825 0.0
H892 H 0.02903 0.47311 0.76632 0.0
H893 H 0.02688 0.49585 0.78685 0.0
N894 N 0.00364 0.503 0.80877 0.0
N895 N 0.0047 0.50554 0.85056 0.0
C896 C 0.53531 0.57784 0.79556 0.0
C897 C 0.54412 0.57148 0.78293 0.0
C898 C 0.52035 0.56587 0.80703 0.0
C899 C 0.51395 0.54735 0.80605 0.0
C900 C 0.5377 0.55291 0.78222 0.0
C901 C 0.52269 0.54099 0.7935 0.0
C902 C 0.49788 0.53434 0.81752 0.0
C903 C 0.53945 0.56322 0.86678 0.0
C904 C 0.53606 0.57423 0.87987 0.0
C905 C 0.52651 0.55119 0.85297 0.0
C906 C 0.50992 0.54986 0.85199 0.0
C907 C 0.51951 0.57313 0.87845 0.0
C908 C 0.5065 0.5609 0.86481 0.0
C909 C 0.49569 0.53593 0.83889 0.0
C910 C 0.44049 0.46182 0.86007 0.0
C911 C 0.42851 0.46369 0.87291 0.0
C912 C 0.45321 0.47627 0.84868 0.0
C913 C 0.45426 0.49294 0.84979 0.0
C914 C 0.4297 0.48051 0.87416 0.0
C915 C 0.44258 0.49506 0.86279 0.0
C916 C 0.46807 0.50815 0.83786 0.0
C917 C 0.42658 0.46996 0.79359 0.0
C918 C 0.43233 0.46047 0.78117 0.0
C919 C 0.43882 0.48518 0.80485 0.0
C920 C 0.45704 0.49118 0.80391 0.0
C921 C 0.45064 0.4667 0.78011 0.0
C922 C 0.46286 0.48198 0.79123 0.0
C923 C 0.47009 0.50676 0.81642 0.0
H924 H 0.53971 0.59201 0.79624 0.0
H925 H 0.51361 0.57105 0.81633 0.0
H926 H 0.54431 0.54753 0.77303 0.0
H927 H 0.518 0.52675 0.79258 0.0
H928 H 0.55185 0.5634 0.86767 0.0
H929 H 0.52927 0.54248 0.84352 0.0
H930 H 0.51652 0.5816 0.88799 0.0
H931 H 0.49372 0.55999 0.86432 0.0
H932 H 0.44037 0.4493 0.85915 0.0
H933 H 0.46243 0.47448 0.83918 0.0
H934 H 0.42066 0.48241 0.88384 0.0
H935 H 0.44332 0.5079 0.86397 0.0
H936 H 0.41264 0.46576 0.79447 0.0
H937 H 0.43407 0.49228 0.81429 0.0
H938 H 0.45555 0.45959 0.77098 0.0
H939 H 0.47685 0.48635 0.79035 0.0
N940 N 0.48499 0.51981 0.80708 0.0
N941 N 0.48087 0.52276 0.8483 0.0
C942 C 0.65515 0.77474 0.49188 0.0
C943 C 0.64174 0.7644 0.47738 0.0
C944 C 0.6544 0.78784 0.50397 0.0
C945 C 0.64008 0.79066 0.50204 0.0
C946 C 0.62749 0.76735 0.47545 0.0
C947 C 0.62672 0.78038 0.4876 0.0
C948 C 0.63942 0.805 0.51398 0.0
C949 C 0.63782 0.76585 0.5598 0.0
C950 C 0.6532 0.77353 0.57218 0.0
C951 C 0.63385 0.77669 0.54807 0.0
C952 C 0.64516 0.79543 0.54848 0.0
C953 C 0.66423 0.79236 0.5729 0.0
C954 C 0.66016 0.80318 0.56129 0.0
C955 C 0.64166 0.80714 0.53558 0.0
C956 C 0.62661 0.86723 0.55235 0.0
C957 C 0.64017 0.87731 0.56675 0.0
C958 C 0.6256 0.85231 0.54231 0.0
C959 C 0.63826 0.84742 0.54634 0.0
C960 C 0.65205 0.87161 0.57168 0.0
C961 C 0.65109 0.85682 0.56162 0.0
C962 C 0.63872 0.83296 0.53444 0.0
C963 C 0.65137 0.87692 0.49001 0.0
C964 C 0.64067 0.87191 0.47239 0.0
C965 C 0.6504 0.86385 0.50309 0.0
C966 C 0.63813 0.8455 0.49929 0.0
C967 C 0.62877 0.85362 0.46815 0.0
C968 C 0.62744 0.84052 0.48157 0.0
C969 C 0.63752 0.83146 0.51267 0.0
H970 H 0.66627 0.77279 0.49383 0.0
H971 H 0.66516 0.79595 0.51457 0.0
H972 H 0.61712 0.75991 0.46416 0.0
H973 H 0.61569 0.78251 0.48563 0.0
H974 H 0.62878 0.75144 0.55923 0.0
H975 H 0.62198 0.77045 0.53864 0.0
H976 H 0.67625 0.79877 0.58206 0.0
H977 H 0.66903 0.81763 0.56189 0.0
H978 H 0.61719 0.8712 0.54834 0.0
H979 H 0.61524 0.84492 0.53099 0.0
H980 H 0.66233 0.87877 0.58315 0.0
H981 H 0.6608 0.85312 0.56526 0.0
H982 H 0.66096 0.89095 0.49325 0.0
H983 H 0.65956 0.86814 0.51591 0.0
H984 H 0.62058 0.84949 0.45443 0.0
H985 H 0.61816 0.82648 0.47801 0.0
N986 N 0.63752 0.81728 0.50338 0.0
N987 N 0.64112 0.82097 0.54496 0.0
C988 C 0.13236 0.75749 0.49336 0.0
C989 C 0.12398 0.76202 0.47827 0.0
C990 C 0.14627 0.77092 0.50515 0.0
C991 C 0.15195 0.7891 0.50218 0.0
C992 C 0.12986 0.78024 0.4752 0.0
C993 C 0.14375 0.79363 0.48696 0.0
C994 C 0.16654 0.80357 0.51455 0.0
C995 C 0.12086 0.77184 0.55669 0.0
C996 C 0.12426 0.76376 0.57312 0.0
C997 C 0.13483 0.78493 0.54501 0.0
C998 C 0.15247 0.78973 0.54902 0.0
C999 C 0.14192 0.76908 0.57778 0.0
C1000 C 0.15593 0.78194 0.56577 0.0
C1001 C 0.16731 0.80341 0.53633 0.0
C1002 C 0.22276 0.87875 0.55725 0.0
C1003 C 0.23464 0.87712 0.57009 0.0
C1004 C 0.20971 0.8639 0.54628 0.0
C1005 C 0.20832 0.84712 0.54783 0.0
C1006 C 0.23317 0.86026 0.57173 0.0
C1007 C 0.21998 0.84532 0.56081 0.0
C1008 C 0.19466 0.83156 0.53583 0.0
C1009 C 0.23679 0.86965 0.49205 0.0
C1010 C 0.23047 0.87794 0.47908 0.0
C1011 C 0.22488 0.8545 0.50333 0.0
C1012 C 0.20648 0.84739 0.50173 0.0
C1013 C 0.21203 0.8705 0.47717 0.0
C1014 C 0.20017 0.85532 0.48827 0.0
C1015 C 0.1936 0.83192 0.51417 0.0
H1016 H 0.12812 0.74358 0.49611 0.0
H1017 H 0.15262 0.76711 0.51655 0.0
H1018 H 0.12395 0.78421 0.46342 0.0
H1019 H 0.14799 0.80756 0.48428 0.0
H1020 H 0.10739 0.7683 0.55314 0.0
H1021 H 0.1318 0.79135 0.53289 0.0
H1022 H 0.14486 0.76312 0.59052 0.0
H1023 H 0.16943 0.78568 0.56943 0.0
H1024 H 0.22363 0.89158 0.55556 0.0
H1025 H 0.20069 0.86551 0.53654 0.0
H1026 H 0.24202 0.85858 0.5817 0.0
H1027 H 0.21902 0.83243 0.56228 0.0
H1028 H 0.25093 0.87509 0.49379 0.0
H1029 H 0.23003 0.84841 0.51338 0.0
H1030 H 0.20677 0.87642 0.46702 0.0
H1031 H 0.18603 0.84999 0.4867 0.0
N1032 N 0.17959 0.81792 0.50437 0.0
N1033 N 0.18149 0.81733 0.54614 0.0
C1034 C 0.23601 0.36119 0.49414 0.0
C1035 C 0.23214 0.3497 0.47691 0.0
C1036 C 0.22231 0.36108 0.5055 0.0
C1037 C 0.20447 0.34939 0.4999 0.0
C1038 C 0.21427 0.338 0.47141 0.0
C1039 C 0.20061 0.33793 0.48272 0.0
C1040 C 0.18978 0.34967 0.51104 0.0
C1041 C 0.21348 0.32937 0.55618 0.0
C1042 C 0.22188 0.34109 0.573 0.0
C1043 C 0.20255 0.33203 0.54304 0.0
C1044 C 0.19989 0.34651 0.54642 0.0
C1045 C 0.2189 0.35537 0.57658 0.0
C1046 C 0.20788 0.35795 0.5635 0.0
C1047 C 0.18817 0.34926 0.53272 0.0
C1048 C 0.11467 0.33605 0.54649 0.0
C1049 C 0.11765 0.34594 0.5649 0.0
C1050 C 0.12896 0.33774 0.53493 0.0
C1051 C 0.14655 0.34984 0.54119 0.0
C1052 C 0.13519 0.35786 0.57132 0.0
C1053 C 0.1495 0.35982 0.55955 0.0
C1054 C 0.16187 0.35084 0.53002 0.0
C1055 C 0.1336 0.36469 0.48206 0.0
C1056 C 0.12634 0.35181 0.46596 0.0
C1057 C 0.14563 0.36456 0.49603 0.0
C1058 C 0.15053 0.35152 0.49415 0.0
C1059 C 0.13132 0.33878 0.46431 0.0
C1060 C 0.14339 0.33878 0.47808 0.0
C1061 C 0.16343 0.35112 0.50829 0.0
H1062 H 0.24963 0.37033 0.49881 0.0
H1063 H 0.22568 0.37038 0.51839 0.0
H1064 H 0.21083 0.32922 0.45801 0.0
H1065 H 0.18697 0.32893 0.47798 0.0
H1066 H 0.21559 0.31831 0.55296 0.0
H1067 H 0.19614 0.32273 0.53025 0.0
H1068 H 0.22501 0.36448 0.58958 0.0
H1069 H 0.20577 0.36903 0.56656 0.0
H1070 H 0.10125 0.32651 0.54143 0.0
H1071 H 0.12618 0.32916 0.52147 0.0
H1072 H 0.13782 0.36564 0.58547 0.0
H1073 H 0.1629 0.36902 0.56491 0.0
H1074 H 0.13023 0.37502 0.48369 0.0
H1075 H 0.15122 0.37472 0.50814 0.0
H1076 H 0.12571 0.32836 0.45251 0.0
H1077 H 0.14695 0.32858 0.47636 0.0
N1078 N 0.17728 0.35046 0.4997 0.0
N1079 N 0.17439 0.35003 0.54136 0.0
H1080 H 0.02376 0.38588 0.04878 0.0
H1081 H 0.98265 0.40618 0.14862 0.0
H1082 H 0.97022 0.34987 0.06998 0.0
H1083 H 0.02169 0.44791 0.10949 0.0
H1084 H 0.98262 0.38365 0.12542 0.0
H1085 H 0.02772 0.40685 0.07689 0.0
C1086 C 0.01294 0.38224 0.05953 0.0
C1087 C 0.99655 0.36619 0.05692 0.0
C1088 C 0.99129 0.39777 0.1221 0.0
C1089 C 0.00109 0.39003 0.08909 0.0
C1090 C 0.99127 0.41066 0.13524 0.0
C1091 C 0.00195 0.42905 0.13087 0.0
C1092 C 0.00228 0.40327 0.10462 0.0
C1093 C 0.01328 0.43396 0.11363 0.0
C1094 C 0.0152 0.39426 0.07547 0.0
C1095 C 0.98299 0.3622 0.07129 0.0
N1096 N 0.01307 0.42115 0.10108 0.0
N1097 N 0.98554 0.37407 0.08675 0.0
H1098 H 0.64161 0.6197 0.05195 0.0
H1099 H 0.5718 0.57781 0.14401 0.0
H1100 H 0.61942 0.64751 0.08457 0.0
H1101 H 0.59705 0.55101 0.11645 0.0
H1102 H 0.59137 0.60455 0.12422 0.0
H1103 H 0.62783 0.59562 0.07718 0.0
C1104 C 0.63404 0.62088 0.06453 0.0
C1105 C 0.63146 0.63557 0.06592 0.0
C1106 C 0.59279 0.59292 0.12256 0.0
C1107 C 0.6156 0.608 0.09477 0.0
C1108 C 0.58157 0.57763 0.13381 0.0
C1109 C 0.58269 0.56216 0.1316 0.0
C1110 C 0.60512 0.59269 0.10876 0.0
C1111 C 0.59577 0.5627 0.11849 0.0
C1112 C 0.62616 0.6071 0.07892 0.0
C1113 C 0.62159 0.63637 0.08265 0.0
N1114 N 0.60635 0.57767 0.10732 0.0
N1115 N 0.6139 0.62271 0.09625 0.0
H1116 H 0.34809 0.96616 0.07318 0.0
H1117 H 0.44395 0.02958 0.12224 0.0
H1118 H 0.38388 0.01836 0.04763 0.0
H1119 H 0.41509 0.97152 0.12294 0.0
H1120 H 0.42086 0.02818 0.09976 0.0
H1121 H 0.37079 0.97095 0.09782 0.0
C1122 C 0.3607 0.97874 0.07283 0.0
C1123 C 0.36417 0.99174 0.05799 0.0
C1124 C 0.41967 0.01583 0.10499 0.0
C1125 C 0.39038 0.99726 0.08635 0.0
C1126 C 0.43286 0.01656 0.11772 0.0
C1127 C 0.43145 0.00063 0.12481 0.0
C1128 C 0.40489 0.99907 0.0996 0.0
C1129 C 0.41663 0.9842 0.11851 0.0
C1130 C 0.37369 0.98142 0.08691 0.0
C1131 C 0.38068 0.00793 0.05869 0.0
N1132 N 0.40396 0.98388 0.10644 0.0
N1133 N 0.39331 0.01019 0.07254 0.0
H1134 H 0.37419 0.01311 0.95855 0.0
H1135 H 0.4135 0.96485 0.88826 0.0
H1136 H 0.35255 0.95574 0.95665 0.0
H1137 H 0.43788 0.02244 0.89384 0.0
H1138 H 0.38933 0.9612 0.91059 0.0
H1139 H 0.39578 0.01664 0.93219 0.0
C1140 C 0.37384 0.00122 0.9525 0.0
C1141 C 0.36157 0.98409 0.96002 0.0
C1142 C 0.39992 0.97464 0.90686 0.0
C1143 C 0.38638 0.98811 0.92983 0.0
C1144 C 0.41368 0.97674 0.894 0.0
C1145 C 0.4278 0.99399 0.8892 0.0
C1146 C 0.40021 0.98988 0.91503 0.0
C1147 C 0.42742 0.00889 0.89736 0.0
C1148 C 0.38623 0.00327 0.93746 0.0
C1149 C 0.3618 0.96922 0.95148 0.0
N1150 N 0.41388 0.0065 0.90991 0.0
N1151 N 0.37406 0.97159 0.93694 0.0
H1152 H 0.02623 0.38943 0.96624 0.0
H1153 H 0.97924 0.41909 0.88403 0.0
H1154 H 0.97229 0.35597 0.94464 0.0
H1155 H 0.03456 0.45265 0.90024 0.0
H1156 H 0.97742 0.39522 0.90499 0.0
H1157 H 0.03071 0.41208 0.94083 0.0
C1158 C 0.01542 0.38674 0.95603 0.0
C1159 C 0.99878 0.37087 0.95779 0.0
C1160 C 0.99003 0.40774 0.90396 0.0
C1161 C 0.00378 0.39666 0.92886 0.0
C1162 C 0.99102 0.42141 0.89205 0.0
C1163 C 0.00701 0.43792 0.89062 0.0
C1164 C 0.00509 0.41058 0.91473 0.0
C1165 C 0.02198 0.44009 0.90099 0.0
C1166 C 0.01797 0.39968 0.94158 0.0
C1167 C 0.98526 0.36809 0.94413 0.0
N1168 N 0.02062 0.42662 0.91281 0.0
N1169 N 0.98803 0.38088 0.93041 0.0
H1170 H 0.63118 0.63474 0.95441 0.0
H1171 H 0.52994 0.5821 0.91917 0.0
H1172 H 0.59063 0.64095 0.98489 0.0
H1173 H 0.57265 0.59333 0.87679 0.0
H1174 H 0.55184 0.60095 0.94508 0.0
H1175 H 0.60964 0.61652 0.92745 0.0
C1176 C 0.61777 0.63226 0.95546 0.0
C1177 C 0.61271 0.63942 0.9719 0.0
C1178 C 0.5564 0.59934 0.93007 0.0
C1179 C 0.58809 0.61854 0.94131 0.0
C1180 C 0.54389 0.58867 0.91516 0.0
C1181 C 0.54937 0.58614 0.89561 0.0
C1182 C 0.57458 0.60739 0.9256 0.0
C1183 C 0.56774 0.59465 0.89168 0.0
C1184 C 0.60554 0.62195 0.94004 0.0
C1185 C 0.59517 0.63582 0.97244 0.0
N1186 N 0.57968 0.60483 0.90657 0.0
N1187 N 0.58348 0.62556 0.95745 0.0
H1188 H 0.04677 0.65336 0.9577 0.0
H1189 H 0.97981 0.56626 0.89135 0.0
H1190 H 0.98976 0.62963 0.95871 0.0
H1191 H 0.03691 0.59255 0.88694 0.0
H1192 H 0.98318 0.59036 0.91454 0.0
H1193 H 0.04347 0.63241 0.93011 0.0
C1194 C 0.03356 0.64385 0.95205 0.0
C1195 C 0.01851 0.64318 0.96075 0.0
C1196 C 0.99498 0.59093 0.90838 0.0
C1197 C 0.01465 0.61901 0.92916 0.0
C1198 C 0.99306 0.57713 0.89523 0.0
C1199 C 0.0081 0.57733 0.88731 0.0
C1200 C 0.01208 0.60497 0.91381 0.0
C1201 C 0.02495 0.5919 0.89258 0.0
C1202 C 0.03169 0.63187 0.93626 0.0
C1203 C 0.00175 0.6306 0.95262 0.0
N1204 N 0.02648 0.60505 0.90563 0.0
N1205 N 0.00027 0.61892 0.93742 0.0
H1206 H 0.36508 0.39352 0.9724 0.0
H1207 H 0.40976 0.42793 0.86193 0.0
H1208 H 0.37869 0.36284 0.93114 0.0
H1209 H 0.41734 0.46413 0.91264 0.0
H1210 H 0.3916 0.40251 0.88428 0.0
H1211 H 0.37757 0.41805 0.94754 0.0
C1212 C 0.37046 0.39184 0.958 0.0
C1213 C 0.37101 0.37619 0.95389 0.0
C1214 C 0.39713 0.41604 0.89043 0.0
C1215 C 0.3851 0.40405 0.92546 0.0
C1216 C 0.40758 0.43057 0.87773 0.0
C1217 C 0.41544 0.44826 0.8855 0.0
C1218 C 0.39429 0.41914 0.911 0.0
C1219 C 0.41158 0.45078 0.90593 0.0
C1220 C 0.37764 0.40586 0.94391 0.0
C1221 C 0.37819 0.37475 0.93503 0.0
N1222 N 0.40137 0.43637 0.91803 0.0
N1223 N 0.38497 0.38851 0.92151 0.0
H1224 H 0.65187 0.03552 0.94408 0.0
H1225 H 0.55338 0.97177 0.90056 0.0
H1226 H 0.61584 0.9836 0.9701 0.0
H1227 H 0.58638 0.02841 0.88849 0.0
H1228 H 0.57731 0.97356 0.92185 0.0
H1229 H 0.62942 0.03045 0.91889 0.0
C1230 C 0.63925 0.02295 0.94442 0.0
C1231 C 0.63565 0.01009 0.9595 0.0
C1232 C 0.57929 0.98554 0.91445 0.0
C1233 C 0.60969 0.00425 0.93057 0.0
C1234 C 0.5657 0.98453 0.90228 0.0
C1235 C 0.56788 2e-05 0.89294 0.0
C1236 C 0.5952 0.00211 0.91699 0.0
C1237 C 0.58405 0.01621 0.89567 0.0
C1238 C 0.6264 0.02009 0.93001 0.0
C1239 C 0.61914 0.99393 0.95884 0.0
N1240 N 0.59705 0.01682 0.90742 0.0
N1241 N 0.60665 0.99153 0.94474 0.0
H1242 H 0.64926 0.04591 0.06323 0.0
H1243 H 0.5579 0.97784 0.11918 0.0
H1244 H 0.62331 0.98818 0.05691 0.0
H1245 H 0.58741 0.03501 0.13156 0.0
H1246 H 0.58219 0.98125 0.09725 0.0
H1247 H 0.62733 0.04212 0.0892 0.0
C1248 C 0.63905 0.03242 0.06739 0.0
C1249 C 0.63809 0.01735 0.05768 0.0
C1250 C 0.5834 0.99304 0.10485 0.0
C1251 C 0.61278 0.01292 0.08738 0.0
C1252 C 0.56956 0.9911 0.11748 0.0
C1253 C 0.57053 0.00618 0.12721 0.0
C1254 C 0.59835 0.0102 0.10179 0.0
C1255 C 0.5859 0.02305 0.1241 0.0
C1256 C 0.62651 0.03027 0.08225 0.0
C1257 C 0.62458 0.00021 0.06388 0.0
N1258 N 0.59914 0.0246 0.1116 0.0
N1259 N 0.61237 0.99848 0.07818 0.0
H1260 H 0.03319 0.6525 0.07558 0.0
H1261 H 0.96839 0.55022 0.10816 0.0
H1262 H 0.98273 0.61775 0.04589 0.0
H1263 H 0.0214 0.58476 0.13183 0.0
H1264 H 0.97154 0.57538 0.08802 0.0
H1265 H 0.02699 0.62862 0.09934 0.0
C1266 C 0.02071 0.63986 0.07413 0.0
C1267 C 0.00857 0.63707 0.0585 0.0
C1268 C 0.98243 0.57744 0.09769 0.0
C1269 C 0.00142 0.60945 0.08572 0.0
C1270 C 0.98063 0.56312 0.10923 0.0
C1271 C 0.99473 0.56536 0.12154 0.0
C1272 C 0.9984 0.59413 0.0986 0.0
C1273 C 0.01032 0.58232 0.12227 0.0
C1274 C 0.01719 0.62618 0.08773 0.0
C1275 C 0.9925 0.62048 0.05765 0.0
N1276 N 0.01173 0.596 0.11094 0.0
N1277 N 0.98947 0.60719 0.07094 0.0
H1278 H 0.39223 0.34917 0.05812 0.0
H1279 H 0.44492 0.44533 0.1075 0.0
H1280 H 0.37616 0.38778 0.04786 0.0
H1281 H 0.43583 0.39931 0.14239 0.0
H1282 H 0.4221 0.42513 0.08326 0.0
H1283 H 0.41088 0.36789 0.08688 0.0
C1284 C 0.39256 0.36153 0.062 0.0
C1285 C 0.38272 0.36701 0.05057 0.0
C1286 C 0.42504 0.41953 0.09636 0.0
C1287 C 0.40416 0.38849 0.08307 0.0
C1288 C 0.43802 0.43105 0.11037 0.0
C1289 C 0.44246 0.42414 0.12723 0.0
C1290 C 0.4167 0.40091 0.0988 0.0
C1291 C 0.43325 0.40535 0.12948 0.0
C1292 C 0.40311 0.37212 0.07844 0.0
C1293 C 0.38352 0.38307 0.05631 0.0
N1294 N 0.42097 0.39438 0.11528 0.0
N1295 N 0.39431 0.39342 0.07197 0.0
H1296 H 0.67682 0.71209 0.39011 0.0
H1297 H 0.61478 0.73115 0.46454 0.0
H1298 H 0.61954 0.68345 0.38601 0.0
H1299 H 0.67141 0.76738 0.45878 0.0
H1300 H 0.61666 0.7108 0.43954 0.0
H1301 H 0.67535 0.72965 0.41916 0.0
C1302 C 0.66392 0.70937 0.39539 0.0
C1303 C 0.64828 0.69637 0.38543 0.0
C1304 C 0.62869 0.72317 0.44384 0.0
C1305 C 0.64654 0.71642 0.41871 0.0
C1306 C 0.62762 0.73484 0.45805 0.0
C1307 C 0.64293 0.75114 0.46364 0.0
C1308 C 0.64519 0.72775 0.43515 0.0
C1309 C 0.65927 0.75494 0.45508 0.0
C1310 C 0.66311 0.71945 0.41195 0.0
C1311 C 0.63196 0.69345 0.39303 0.0
N1312 N 0.65995 0.74339 0.44118 0.0
N1313 N 0.63153 0.70343 0.40915 0.0
H1314 H 0.30666 0.95213 0.39114 0.0
H1315 H 0.22924 0.90854 0.4754 0.0
H1316 H 0.27847 0.97741 0.41474 0.0
H1317 H 0.25996 0.88471 0.45665 0.0
H1318 H 0.24841 0.93465 0.45446 0.0
H1319 H 0.29114 0.92821 0.41627 0.0
C1320 C 0.29734 0.95277 0.40169 0.0
C1321 C 0.29376 0.96677 0.40062 0.0
C1322 C 0.25107 0.92379 0.45497 0.0
C1323 C 0.2759 0.93934 0.42937 0.0
C1324 C 0.24006 0.90883 0.46685 0.0
C1325 C 0.2429 0.89436 0.46757 0.0
C1326 C 0.26498 0.92427 0.44353 0.0
C1327 C 0.25733 0.8956 0.45652 0.0
C1328 C 0.28848 0.93908 0.41604 0.0
C1329 C 0.28159 0.96686 0.4148 0.0
N1330 N 0.26774 0.91022 0.44478 0.0
N1331 N 0.27303 0.95331 0.42843 0.0
H1332 H 0.04173 0.35456 0.39766 0.0
H1333 H 0.12362 0.34373 0.42463 0.0
H1334 H 0.04675 0.31015 0.37573 0.0
H1335 H 0.09979 0.35957 0.47274 0.0
H1336 H 0.10008 0.33924 0.40124 0.0
H1337 H 0.06741 0.36381 0.42068 0.0
C1338 C 0.04828 0.34685 0.39764 0.0
C1339 C 0.04208 0.33149 0.38496 0.0
C1340 C 0.10013 0.34384 0.41689 0.0
C1341 C 0.07142 0.3422 0.4105 0.0
C1342 C 0.11347 0.3463 0.43033 0.0
C1343 C 0.11347 0.35156 0.45094 0.0
C1344 C 0.0868 0.34699 0.42386 0.0
C1345 C 0.10032 0.35542 0.45705 0.0
C1346 C 0.06281 0.35208 0.41074 0.0
C1347 C 0.05098 0.32194 0.38544 0.0
N1348 N 0.0874 0.35294 0.44358 0.0
N1349 N 0.06527 0.32753 0.39786 0.0
H1350 H 0.04433 0.3474 0.29023 0.0
H1351 H 0.0716 0.28979 0.218 0.0
H1352 H 0.01469 0.28941 0.28585 0.0
H1353 H 0.10236 0.3477 0.22274 0.0
H1354 H 0.0487 0.28978 0.23961 0.0
H1355 H 0.06371 0.34814 0.26238 0.0
C1356 C 0.04173 0.33484 0.28326 0.0
C1357 C 0.02798 0.31831 0.29063 0.0
C1358 C 0.06039 0.30251 0.23582 0.0
C1359 C 0.05019 0.31908 0.25884 0.0
C1360 C 0.07345 0.30254 0.22335 0.0
C1361 C 0.08903 0.31877 0.21866 0.0
C1362 C 0.06291 0.31883 0.24377 0.0
C1363 C 0.09074 0.33484 0.22629 0.0
C1364 C 0.05285 0.33527 0.2674 0.0
C1365 C 0.02525 0.30248 0.28092 0.0
N1366 N 0.07791 0.33446 0.23858 0.0
N1367 N 0.03634 0.30326 0.26569 0.0
H1368 H 0.65221 0.6931 0.26477 0.0
H1369 H 0.7014 0.79771 0.25605 0.0
H1370 H 0.691 0.72728 0.31031 0.0
H1371 H 0.68819 0.7641 0.20159 0.0
H1372 H 0.69626 0.77218 0.27707 0.0
H1373 H 0.66357 0.71883 0.24176 0.0
C1374 C 0.66322 0.70599 0.26983 0.0
C1375 C 0.67064 0.7081 0.28948 0.0
C1376 C 0.69477 0.77049 0.26049 0.0
C1377 C 0.68342 0.73757 0.26347 0.0
C1378 C 0.69766 0.78499 0.24856 0.0
C1379 C 0.69524 0.78289 0.22716 0.0
C1380 C 0.68892 0.7537 0.25096 0.0
C1381 C 0.69029 0.76618 0.21808 0.0
C1382 C 0.66974 0.72062 0.25668 0.0
C1383 C 0.68495 0.72507 0.29525 0.0
N1384 N 0.68698 0.7521 0.23007 0.0
N1385 N 0.69067 0.73926 0.28244 0.0
H1386 H 0.29759 0.95868 0.29743 0.0
H1387 H 0.21481 0.93941 0.22754 0.0
H1388 H 0.27038 0.98828 0.30245 0.0
H1389 H 0.23981 0.90768 0.22419 0.0
H1390 H 0.2374 0.95965 0.25219 0.0
H1391 H 0.27861 0.9418 0.26817 0.0
C1392 C 0.2877 0.9617 0.29236 0.0
C1393 C 0.28549 0.97482 0.3026 0.0
C1394 C 0.23803 0.94833 0.24596 0.0
C1395 C 0.26375 0.95556 0.26908 0.0
C1396 C 0.22521 0.93684 0.23174 0.0
C1397 C 0.22532 0.92172 0.22392 0.0
C1398 C 0.25107 0.94468 0.25246 0.0
C1399 C 0.23903 0.91898 0.23013 0.0
C1400 C 0.27687 0.95205 0.27564 0.0
C1401 C 0.2725 0.9782 0.29521 0.0
N1402 N 0.25128 0.93027 0.24414 0.0
N1403 N 0.26209 0.96857 0.27899 0.0
H1404 H 0.65019 0.94666 0.30281 0.0
H1405 H 0.69375 0.9335 0.20094 0.0
H1406 H 0.70295 0.98685 0.28316 0.0
H1407 H 0.66126 0.89001 0.24235 0.0
H1408 H 0.69227 0.95444 0.22547 0.0
H1409 H 0.64885 0.92702 0.27441 0.0
C1410 C 0.66138 0.95147 0.29234 0.0
C1411 C 0.67679 0.96833 0.29545 0.0
C1412 C 0.68536 0.94025 0.22895 0.0
C1413 C 0.67521 0.94604 0.26294 0.0
C1414 C 0.68628 0.92826 0.21507 0.0
C1415 C 0.67775 0.90983 0.21951 0.0
C1416 C 0.67552 0.93375 0.24717 0.0
C1417 C 0.66784 0.90394 0.23789 0.0
C1418 C 0.66062 0.94023 0.27624 0.0
C1419 C 0.69091 0.97385 0.28143 0.0
N1420 N 0.667 0.91585 0.251 0.0
N1421 N 0.68979 0.96272 0.26575 0.0
H1422 H 0.05606 0.69417 0.27286 0.0
H1423 H 0.07172 0.78944 0.23858 0.0
H1424 H 0.03079 0.71976 0.30369 0.0
H1425 H 0.10224 0.76624 0.21676 0.0
H1426 H 0.05339 0.76243 0.25921 0.0
H1427 H 0.0697 0.7188 0.24878 0.0
C1428 C 0.05331 0.70495 0.27457 0.0
C1429 C 0.04242 0.70496 0.29056 0.0
C1430 C 0.06404 0.76325 0.2498 0.0
C1431 C 0.05817 0.73342 0.26286 0.0
C1432 C 0.07442 0.77858 0.238 0.0
C1433 C 0.08861 0.7801 0.22619 0.0
C1434 C 0.06783 0.74936 0.24954 0.0
C1435 C 0.09161 0.76572 0.22594 0.0
C1436 C 0.06113 0.71905 0.26075 0.0
C1437 C 0.03919 0.71923 0.2917 0.0
N1438 N 0.08136 0.75101 0.23747 0.0
N1439 N 0.04716 0.73299 0.27812 0.0
H1440 H 0.28612 0.31384 0.30105 0.0
H1441 H 0.24574 0.35271 0.22171 0.0
H1442 H 0.31423 0.36804 0.27812 0.0
H1443 H 0.2195 0.29631 0.23573 0.0
H1444 H 0.27125 0.35799 0.24194 0.0
H1445 H 0.26208 0.30636 0.27655 0.0
C1446 C 0.28737 0.3241 0.29073 0.0
C1447 C 0.30216 0.34168 0.29188 0.0
C1448 C 0.25999 0.34442 0.24058 0.0
C1449 C 0.27466 0.33324 0.26398 0.0
C1450 C 0.24536 0.34143 0.22913 0.0
C1451 C 0.23042 0.32409 0.22726 0.0
C1452 C 0.25969 0.33 0.25048 0.0
C1453 C 0.23078 0.3099 0.23683 0.0
C1454 C 0.27361 0.31983 0.27679 0.0
C1455 C 0.30303 0.35439 0.27807 0.0
N1456 N 0.24514 0.31318 0.24823 0.0
N1457 N 0.28944 0.34995 0.26489 0.0
H1458 H 0.29263 0.32411 0.39122 0.0
H1459 H 0.26328 0.37947 0.46481 0.0
H1460 H 0.31907 0.38205 0.39313 0.0
H1461 H 0.23395 0.32159 0.45952 0.0
H1462 H 0.2858 0.3805 0.4415 0.0
H1463 H 0.27292 0.32281 0.41895 0.0
C1464 C 0.2944 0.33656 0.39754 0.0
C1465 C 0.30746 0.35321 0.38963 0.0
C1466 C 0.2745 0.36756 0.44553 0.0
C1467 C 0.28489 0.35179 0.4214 0.0
C1468 C 0.26168 0.36695 0.45897 0.0
C1469 C 0.24662 0.35042 0.46405 0.0
C1470 C 0.27228 0.35151 0.43706 0.0
C1471 C 0.24518 0.33465 0.45576 0.0
C1472 C 0.28311 0.3358 0.41336 0.0
C1473 C 0.30912 0.36889 0.39854 0.0
N1474 N 0.25779 0.33559 0.44261 0.0
N1475 N 0.29792 0.36778 0.41384 0.0
H1476 H 0.6895 0.95408 0.3827 0.0
H1477 H 0.63439 0.89937 0.47885 0.0
H1478 H 0.64423 0.95768 0.40212 0.0
H1479 H 0.65284 0.87612 0.43305 0.0
H1480 H 0.64104 0.92385 0.45495 0.0
H1481 H 0.67995 0.92862 0.40557 0.0
C1482 C 0.67763 0.94961 0.39193 0.0
C1483 C 0.66766 0.95803 0.39058 0.0
C1484 C 0.64341 0.91326 0.45012 0.0
C1485 C 0.65679 0.92901 0.41685 0.0
C1486 C 0.63968 0.89939 0.46368 0.0
C1487 C 0.64301 0.88578 0.45773 0.0
C1488 C 0.65104 0.91372 0.43084 0.0
C1489 C 0.64997 0.88634 0.43805 0.0
C1490 C 0.67213 0.935 0.40482 0.0
C1491 C 0.65226 0.95152 0.40271 0.0
N1492 N 0.65401 0.90025 0.42538 0.0
N1493 N 0.64737 0.93747 0.41558 0.0
H1494 H 0.03587 0.70604 0.39371 0.0
H1495 H 0.12219 0.73218 0.46066 0.0
H1496 H 0.06703 0.68068 0.38668 0.0
H1497 H 0.09311 0.75981 0.46581 0.0
H1498 H 0.09982 0.71072 0.43658 0.0
H1499 H 0.05452 0.72348 0.42295 0.0
C1500 C 0.04653 0.70402 0.39838 0.0
C1501 C 0.05 0.692 0.3875 0.0
C1502 C 0.09826 0.7214 0.44308 0.0
C1503 C 0.0714 0.71196 0.42097 0.0
C1504 C 0.11098 0.7336 0.45695 0.0
C1505 C 0.10964 0.74794 0.46511 0.0
C1506 C 0.08408 0.72354 0.43728 0.0
C1507 C 0.09487 0.74918 0.45957 0.0
C1508 C 0.05718 0.714 0.41508 0.0
C1509 C 0.06394 0.6899 0.39439 0.0
N1510 N 0.08274 0.73723 0.44589 0.0
N1511 N 0.07418 0.69986 0.41057 0.0
H1512 H 0.34824 0.05041 0.72031 0.0
H1513 H 0.28771 0.06783 0.79925 0.0
H1514 H 0.29129 0.01606 0.7258 0.0
H1515 H 0.34332 0.10619 0.78904 0.0
H1516 H 0.28985 0.04676 0.77574 0.0
H1517 H 0.34775 0.069 0.74891 0.0
C1518 C 0.33567 0.04666 0.72763 0.0
C1519 C 0.31975 0.03178 0.72044 0.0
C1520 C 0.30163 0.05975 0.7787 0.0
C1521 C 0.31911 0.05296 0.7531 0.0
C1522 C 0.30038 0.07181 0.79206 0.0
C1523 C 0.3153 0.08889 0.79591 0.0
C1524 C 0.3179 0.06478 0.76901 0.0
C1525 C 0.33149 0.09315 0.78655 0.0
C1526 C 0.3354 0.05731 0.74391 0.0
C1527 C 0.30387 0.02754 0.73059 0.0
N1528 N 0.33233 0.08124 0.77338 0.0
N1529 N 0.30396 0.03812 0.74628 0.0
H1530 H 0.97015 0.27895 0.71004 0.0
H1531 H 0.92456 0.24523 0.82031 0.0
H1532 H 0.95874 0.31102 0.75179 0.0
H1533 H 0.91549 0.20903 0.76906 0.0
H1534 H 0.94392 0.27056 0.79839 0.0
H1535 H 0.95704 0.25443 0.7349 0.0
C1536 C 0.9652 0.28096 0.72458 0.0
C1537 C 0.96538 0.29699 0.72879 0.0
C1538 C 0.93779 0.25705 0.79204 0.0
C1539 C 0.95049 0.26909 0.7572 0.0
C1540 C 0.92664 0.24256 0.80448 0.0
C1541 C 0.91802 0.22491 0.79644 0.0
C1542 C 0.94058 0.25393 0.77145 0.0
C1543 C 0.92181 0.22234 0.77599 0.0
C1544 C 0.95763 0.26693 0.73867 0.0
C1545 C 0.95869 0.29882 0.74783 0.0
N1546 N 0.93271 0.2367 0.76415 0.0
N1547 N 0.95147 0.28502 0.76131 0.0
H1548 H 0.718 0.69024 0.71732 0.0
H1549 H 0.75987 0.65159 0.79428 0.0
H1550 H 0.69117 0.63553 0.73866 0.0
H1551 H 0.78025 0.70862 0.7911 0.0
H1552 H 0.7358 0.64606 0.77154 0.0
H1553 H 0.74183 0.698 0.74242 0.0
C1554 C 0.71699 0.67991 0.72736 0.0
C1555 C 0.7026 0.66214 0.72566 0.0
C1556 C 0.74544 0.65981 0.77588 0.0
C1557 C 0.72983 0.67089 0.75409 0.0
C1558 C 0.7592 0.663 0.78903 0.0
C1559 C 0.77203 0.68061 0.79501 0.0
C1560 C 0.74446 0.6743 0.76826 0.0
C1561 C 0.77071 0.69482 0.7869 0.0
C1562 C 0.73061 0.68436 0.74163 0.0
C1563 C 0.70203 0.64935 0.73913 0.0
N1564 N 0.75716 0.69137 0.7739 0.0
N1565 N 0.71547 0.65395 0.75256 0.0
H1566 H 0.68201 0.61892 0.62372 0.0
H1567 H 0.77257 0.67825 0.56186 0.0
H1568 H 0.71303 0.67688 0.62794 0.0
H1569 H 0.73819 0.62098 0.5529 0.0
H1570 H 0.75044 0.67828 0.58498 0.0
H1571 H 0.70186 0.61966 0.59672 0.0
C1572 C 0.69294 0.63184 0.6189 0.0
C1573 C 0.69592 0.64786 0.6283 0.0
C1574 C 0.74769 0.66573 0.57786 0.0
C1575 C 0.71885 0.64877 0.59736 0.0
C1576 C 0.7603 0.6657 0.56457 0.0
C1577 C 0.7573 0.64956 0.55547 0.0
C1578 C 0.73199 0.64949 0.5822 0.0
C1579 C 0.74123 0.63369 0.55984 0.0
C1580 C 0.70428 0.63223 0.60344 0.0
C1581 C 0.71023 0.66418 0.62121 0.0
N1582 N 0.72924 0.63405 0.57295 0.0
N1583 N 0.72126 0.6642 0.6063 0.0
H1584 H 0.30795 0.02633 0.60587 0.0
H1585 H 0.38214 0.12449 0.56854 0.0
H1586 H 0.36031 0.05592 0.63296 0.0
H1587 H 0.3273 0.09622 0.54928 0.0
H1588 H 0.37608 0.09826 0.58889 0.0
H1589 H 0.31663 0.05041 0.58151 0.0
C1590 C 0.32134 0.03785 0.60665 0.0
C1591 C 0.33333 0.03916 0.62172 0.0
C1592 C 0.36543 0.09781 0.58012 0.0
C1593 C 0.34336 0.06702 0.59376 0.0
C1594 C 0.36889 0.11272 0.56847 0.0
C1595 C 0.35513 0.11259 0.55747 0.0
C1596 C 0.34814 0.08267 0.58052 0.0
C1597 C 0.33821 0.09703 0.55787 0.0
C1598 C 0.32629 0.05165 0.59269 0.0
C1599 C 0.35058 0.05437 0.62169 0.0
N1600 N 0.3352 0.08276 0.56925 0.0
N1601 N 0.35504 0.06781 0.60805 0.0
H1602 H 0.92367 0.29034 0.65091 0.0
H1603 H 0.91168 0.25815 0.53449 0.0
H1604 H 0.96964 0.30192 0.61431 0.0
H1605 H 0.8739 0.22702 0.58187 0.0
H1606 H 0.93273 0.27761 0.56151 0.0
H1607 H 0.9045 0.27032 0.62354 0.0
C1608 C 0.92973 0.28869 0.63706 0.0
C1609 C 0.94825 0.2978 0.63483 0.0
C1610 C 0.91987 0.26641 0.56588 0.0
C1611 C 0.92636 0.27504 0.60338 0.0
C1612 C 0.90788 0.25543 0.55055 0.0
C1613 C 0.89112 0.24099 0.55605 0.0
C1614 C 0.91477 0.26312 0.58667 0.0
C1615 C 0.88676 0.23793 0.57702 0.0
C1616 C 0.91878 0.2772 0.62151 0.0
C1617 C 0.95539 0.29506 0.61662 0.0
N1618 N 0.89844 0.24901 0.59156 0.0
N1619 N 0.9444 0.28402 0.60141 0.0
H1620 H 0.32261 0.29241 0.62261 0.0
H1621 H 0.38157 0.27054 0.54684 0.0
H1622 H 0.37986 0.32445 0.6185 0.0
H1623 H 0.32461 0.23658 0.55232 0.0
H1624 H 0.38049 0.29289 0.56908 0.0
H1625 H 0.32244 0.27433 0.59313 0.0
C1626 C 0.33512 0.2958 0.61539 0.0
C1627 C 0.3513 0.30979 0.62332 0.0
C1628 C 0.36819 0.28062 0.56529 0.0
C1629 C 0.35119 0.28912 0.58964 0.0
C1630 C 0.36879 0.26788 0.55246 0.0
C1631 C 0.35318 0.25154 0.5479 0.0
C1632 C 0.35188 0.277 0.57374 0.0
C1633 C 0.33702 0.24882 0.55582 0.0
C1634 C 0.33501 0.28544 0.59858 0.0
C1635 C 0.36708 0.31362 0.61319 0.0
N1636 N 0.33681 0.26134 0.56851 0.0
N1637 N 0.36663 0.30324 0.59704 0.0
H1638 H 0.69404 0.05359 0.62983 0.0
H1639 H 0.7616 0.09118 0.53506 0.0
H1640 H 0.71555 0.02454 0.59858 0.0
H1641 H 0.73835 0.12005 0.56223 0.0
H1642 H 0.74219 0.06534 0.5562 0.0
H1643 H 0.7075 0.07677 0.60345 0.0
C1644 C 0.70141 0.05196 0.61734 0.0
C1645 C 0.70388 0.03719 0.61663 0.0
C1646 C 0.74115 0.07723 0.55748 0.0
C1647 C 0.7193 0.06367 0.58647 0.0
C1648 C 0.75226 0.09197 0.54543 0.0
C1649 C 0.75168 0.10777 0.54714 0.0
C1650 C 0.72949 0.07833 0.57161 0.0
C1651 C 0.73918 0.10807 0.56055 0.0
C1652 C 0.7091 0.06522 0.6023 0.0
C1653 C 0.71349 0.03578 0.60001 0.0
N1654 N 0.72871 0.09363 0.57253 0.0
N1655 N 0.72094 0.0489 0.58574 0.0
H1656 H 0.98079 0.69167 0.59864 0.0
H1657 H 0.87743 0.63593 0.57836 0.0
H1658 H 0.94506 0.64654 0.63613 0.0
H1659 H 0.91533 0.66536 0.53022 0.0
H1660 H 0.90177 0.63971 0.59997 0.0
H1661 H 0.95697 0.6826 0.57351 0.0
C1662 C 0.96799 0.67974 0.60147 0.0
C1663 C 0.96488 0.66992 0.61958 0.0
C1664 C 0.90471 0.64518 0.58459 0.0
C1665 C 0.93748 0.65965 0.59105 0.0
C1666 C 0.89079 0.64296 0.57216 0.0
C1667 C 0.89427 0.65052 0.55243 0.0
C1668 C 0.92227 0.65523 0.5774 0.0
C1669 C 0.91199 0.65972 0.54549 0.0
C1670 C 0.95441 0.67455 0.58711 0.0
C1671 C 0.94805 0.6545 0.62238 0.0
N1672 N 0.92532 0.662 0.55803 0.0
N1673 N 0.93489 0.65 0.60843 0.0
H1674 H 0.96146 0.66276 0.72977 0.0
H1675 H 0.90435 0.70556 0.76671 0.0
H1676 H 0.9674 0.71109 0.70396 0.0
H1677 H 0.91534 0.67345 0.80721 0.0
H1678 H 0.92473 0.70494 0.74145 0.0
H1679 H 0.94164 0.66353 0.75624 0.0
C1680 C 0.95861 0.67351 0.72966 0.0
C1681 C 0.96613 0.6869 0.71464 0.0
C1682 C 0.92272 0.69808 0.75591 0.0
C1683 C 0.94341 0.68772 0.74465 0.0
C1684 C 0.91115 0.69853 0.77046 0.0
C1685 C 0.90813 0.68965 0.78931 0.0
C1686 C 0.93119 0.68848 0.75999 0.0
C1687 C 0.91702 0.6803 0.79285 0.0
C1688 C 0.94737 0.67397 0.7448 0.0
C1689 C 0.96201 0.70054 0.71528 0.0
N1690 N 0.92809 0.6799 0.77829 0.0
N1691 N 0.95085 0.70052 0.72993 0.0
H1692 H 0.36594 0.306 0.7324 0.0
H1693 H 0.28887 0.21565 0.78339 0.0
H1694 H 0.31091 0.28201 0.71462 0.0
H1695 H 0.34512 0.23744 0.79161 0.0
H1696 H 0.29576 0.24013 0.75955 0.0
H1697 H 0.35759 0.28168 0.75611 0.0
C1698 C 0.35204 0.29564 0.73348 0.0
C1699 C 0.33914 0.29609 0.72131 0.0
C1700 C 0.30655 0.23951 0.76664 0.0
C1701 C 0.32942 0.26788 0.7487 0.0
C1702 C 0.30264 0.22552 0.78017 0.0
C1703 C 0.31644 0.22458 0.78974 0.0
C1704 C 0.32437 0.25261 0.7627 0.0
C1705 C 0.33402 0.23779 0.78505 0.0
C1706 C 0.34727 0.28166 0.74707 0.0
C1707 C 0.32133 0.28222 0.72363 0.0
N1708 N 0.33744 0.25121 0.77196 0.0
N1709 N 0.31698 0.26863 0.73704 0.0
H1710 H 0.73123 0.01591 0.71554 0.0
H1711 H 0.76754 0.10371 0.78683 0.0
H1712 H 0.70706 0.04848 0.71788 0.0
H1713 H 0.78673 0.0669 0.78975 0.0
H1714 H 0.7448 0.08338 0.76232 0.0
H1715 H 0.75116 0.03415 0.74328 0.0
C1716 C 0.73005 0.02687 0.72192 0.0
C1717 C 0.71751 0.03073 0.71419 0.0
C1718 C 0.75392 0.0797 0.76842 0.0
C1719 C 0.74046 0.0518 0.74606 0.0
C1720 C 0.76687 0.09126 0.78251 0.0
C1721 C 0.77914 0.08705 0.79034 0.0
C1722 C 0.75327 0.06384 0.762 0.0
C1723 C 0.77776 0.07086 0.78388 0.0
C1724 C 0.74145 0.03728 0.73783 0.0
C1725 C 0.71655 0.04502 0.72328 0.0
N1726 N 0.76513 0.0599 0.77003 0.0
N1727 N 0.72798 0.05513 0.73863 0.0
H1728 H 0.06659 0.36765 0.02926 0.0
H1729 H 0.08432 0.29987 0.09252 0.0
H1730 H 0.02815 0.31152 0.0387 0.0
H1731 H 0.12039 0.35731 0.09439 0.0
H1732 H 0.06533 0.30397 0.06899 0.0
H1733 H 0.08825 0.36424 0.04958 0.0
C1734 C 0.06277 0.35463 0.03545 0.0
C1735 C 0.04554 0.33988 0.03245 0.0
C1736 C 0.07742 0.31572 0.07448 0.0
C1737 C 0.07004 0.33589 0.05545 0.0
C1738 C 0.08833 0.31335 0.08783 0.0
C1739 C 0.10395 0.32826 0.09547 0.0
C1740 C 0.08209 0.33313 0.06864 0.0
C1741 C 0.10833 0.34546 0.08907 0.0
C1742 C 0.07507 0.35271 0.04707 0.0
C1743 C 0.04123 0.32331 0.04079 0.0
N1744 N 0.09743 0.34745 0.07602 0.0
N1745 N 0.05335 0.32179 0.05188 0.0
H1746 H 0.69273 0.69854 0.06323 0.0
H1747 H 0.69648 0.79201 0.07586 0.0
H1748 H 0.66533 0.71544 0.02307 0.0
H1749 H 0.69863 0.76361 0.12861 0.0
H1750 H 0.69251 0.7672 0.05352 0.0
H1751 H 0.7018 0.72546 0.08497 0.0
C1752 C 0.68875 0.70797 0.05895 0.0
C1753 C 0.6782 0.70479 0.04147 0.0
C1754 C 0.69403 0.76649 0.06997 0.0
C1755 C 0.68872 0.73546 0.0658 0.0
C1756 C 0.69642 0.78067 0.08268 0.0
C1757 C 0.69777 0.77975 0.10408 0.0
C1758 C 0.69318 0.7514 0.0787 0.0
C1759 C 0.69744 0.76468 0.11218 0.0
C1760 C 0.69387 0.72322 0.07133 0.0
C1761 C 0.67334 0.71734 0.03653 0.0
N1762 N 0.69514 0.75102 0.09945 0.0
N1763 N 0.67871 0.73217 0.04859 0.0
H1764 H 0.29549 0.9932 0.05471 0.0
H1765 H 0.22885 0.89345 0.09335 0.0
H1766 H 0.2946 0.94657 0.02886 0.0
H1767 H 0.22093 0.93783 0.10594 0.0
H1768 H 0.25456 0.91309 0.07192 0.0
H1769 H 0.26983 0.97349 0.0761 0.0
C1770 C 0.28993 0.9788 0.05359 0.0
C1771 C 0.29714 0.97148 0.03997 0.0
C1772 C 0.24717 0.91852 0.07931 0.0
C1773 C 0.26782 0.94888 0.0644 0.0
C1774 C 0.23256 0.90735 0.0916 0.0
C1775 C 0.22279 0.91406 0.10143 0.0
C1776 C 0.25217 0.93658 0.07702 0.0
C1777 C 0.22803 0.9321 0.09849 0.0
C1778 C 0.27524 0.96757 0.06573 0.0
C1779 C 0.2894 0.95276 0.03912 0.0
N1780 N 0.24244 0.94278 0.08664 0.0
N1781 N 0.27517 0.94209 0.05121 0.0
H1782 H 0.36151 0.05833 0.98345 0.0
H1783 H 0.29393 0.07559 0.92039 0.0
H1784 H 0.30816 0.01718 0.9665 0.0
H1785 H 0.35059 0.11305 0.91944 0.0
H1786 H 0.2988 0.05548 0.94118 0.0
H1787 H 0.35774 0.08014 0.96364 0.0
C1788 C 0.34906 0.0539 0.9756 0.0
C1789 C 0.33516 0.03592 0.97657 0.0
C1790 C 0.3102 0.06809 0.93641 0.0
C1791 C 0.33071 0.06063 0.95425 0.0
C1792 C 0.30742 0.07956 0.92441 0.0
C1793 C 0.32187 0.09599 0.91789 0.0
C1794 C 0.32754 0.07304 0.94216 0.0
C1795 C 0.33902 0.10058 0.9242 0.0
C1796 C 0.34693 0.0663 0.96431 0.0
C1797 C 0.31929 0.03086 0.96614 0.0
N1798 N 0.3414 0.08915 0.93597 0.0
N1799 N 0.3175 0.04313 0.95553 0.0
H1800 H 0.99678 0.30571 0.94929 0.0
H1801 H 0.89827 0.22083 0.94165 0.0
H1802 H 0.95507 0.2958 0.99249 0.0
H1803 H 0.93488 0.23873 0.89029 0.0
H1804 H 0.91985 0.24699 0.96161 0.0
H1805 H 0.97515 0.28001 0.9284 0.0
C1806 C 0.98307 0.29815 0.95434 0.0
C1807 C 0.97768 0.30283 0.97265 0.0
C1808 C 0.92314 0.24522 0.94595 0.0
C1809 C 0.95299 0.27342 0.949 0.0
C1810 C 0.91079 0.23031 0.93449 0.0
C1811 C 0.91468 0.22759 0.91417 0.0
C1812 C 0.93962 0.25748 0.93715 0.0
C1813 C 0.93135 0.24014 0.90596 0.0
C1814 C 0.97074 0.28352 0.94241 0.0
C1815 C 0.95977 0.29264 0.97848 0.0
N1816 N 0.94322 0.25454 0.91748 0.0
N1817 N 0.94808 0.27834 0.96675 0.0
H1818 H 0.69163 0.67934 0.9506 0.0
H1819 H 0.77174 0.66176 0.94287 0.0
H1820 H 0.69568 0.64202 0.98992 0.0
H1821 H 0.75684 0.68333 0.89261 0.0
H1822 H 0.74474 0.65552 0.96118 0.0
H1823 H 0.71613 0.6819 0.92971 0.0
C1824 C 0.69757 0.67154 0.95471 0.0
C1825 C 0.69171 0.66052 0.97205 0.0
C1826 C 0.74735 0.66152 0.94609 0.0
C1827 C 0.71991 0.66361 0.94844 0.0
C1828 C 0.76275 0.66507 0.93558 0.0
C1829 C 0.76665 0.67313 0.91613 0.0
C1830 C 0.73583 0.66625 0.93723 0.0
C1831 C 0.75462 0.67742 0.90771 0.0
C1832 C 0.71155 0.673 0.94278 0.0
C1833 C 0.69981 0.65066 0.97664 0.0
N1834 N 0.73982 0.67401 0.91835 0.0
N1835 N 0.71368 0.65261 0.96505 0.0
H1836 H 0.9446 0.63982 0.98249 0.0
H1837 H 0.92371 0.7051 0.91938 0.0
H1838 H 0.98352 0.69492 0.96851 0.0
H1839 H 0.88989 0.64731 0.91599 0.0
H1840 H 0.94442 0.70166 0.94061 0.0
H1841 H 0.92283 0.64231 0.96138 0.0
C1842 C 0.94855 0.6524 0.97503 0.0
C1843 C 0.96589 0.66717 0.97722 0.0
C1844 C 0.93248 0.68971 0.93519 0.0
C1845 C 0.94118 0.67014 0.95333 0.0
C1846 C 0.92067 0.69166 0.92291 0.0
C1847 C 0.90503 0.67648 0.91566 0.0
C1848 C 0.92863 0.67246 0.94052 0.0
C1849 C 0.90167 0.65942 0.92136 0.0
C1850 C 0.93617 0.6538 0.96297 0.0
C1851 C 0.97033 0.68316 0.96721 0.0
N1852 N 0.91336 0.65787 0.93347 0.0
N1853 N 0.95806 0.68422 0.9558 0.0
H1854 H 0.34621 0.29811 0.98851 0.0
H1855 H 0.30222 0.23809 0.88887 0.0
H1856 H 0.3094 0.30536 0.95236 0.0
H1857 H 0.3163 0.21927 0.94248 0.0
H1858 H 0.30683 0.26436 0.90906 0.0
H1859 H 0.33861 0.27123 0.96824 0.0
C1860 C 0.33657 0.29409 0.97621 0.0
C1861 C 0.32836 0.30392 0.97214 0.0
C1862 C 0.30875 0.25435 0.91634 0.0
C1863 C 0.31962 0.27313 0.94885 0.0
C1864 C 0.30605 0.23933 0.90491 0.0
C1865 C 0.30918 0.22659 0.91389 0.0
C1866 C 0.31482 0.25668 0.93673 0.0
C1867 C 0.31424 0.22898 0.9347 0.0
C1868 C 0.33216 0.27867 0.96475 0.0
C1869 C 0.31596 0.29807 0.95601 0.0
N1870 N 0.31711 0.24383 0.94531 0.0
N1871 N 0.312 0.28303 0.94481 0.0
H1872 H 0.69793 0.00961 0.95511 0.0
H1873 H 0.78352 0.10731 0.94207 0.0
H1874 H 0.71017 0.05446 0.99569 0.0
H1875 H 0.76261 0.06816 0.89228 0.0
H1876 H 0.75824 0.08697 0.96331 0.0
H1877 H 0.72305 0.02978 0.93315 0.0
C1878 C 0.70589 0.0237 0.95938 0.0
C1879 C 0.70201 0.0304 0.97724 0.0
C1880 C 0.75916 0.08284 0.94772 0.0
C1881 C 0.73076 0.05344 0.95236 0.0
C1882 C 0.77357 0.09449 0.93551 0.0
C1883 C 0.77517 0.08956 0.91522 0.0
C1884 C 0.74628 0.066 0.93974 0.0
C1885 C 0.76205 0.07251 0.90786 0.0
C1886 C 0.72018 0.03519 0.94683 0.0
C1887 C 0.7127 0.04876 0.98204 0.0
N1888 N 0.74815 0.06133 0.92012 0.0
N1889 N 0.72666 0.05962 0.96973 0.0
H1890 H 0.63862 0.94238 0.03093 0.0
H1891 H 0.7042 0.92597 0.09969 0.0
H1892 H 0.69016 0.98403 0.05271 0.0
H1893 H 0.64913 0.88505 0.09066 0.0
H1894 H 0.69961 0.94648 0.07927 0.0
H1895 H 0.64231 0.92024 0.0501 0.0
C1896 C 0.65065 0.94686 0.03973 0.0
C1897 C 0.66408 0.96508 0.04024 0.0
C1898 C 0.68849 0.93302 0.0817 0.0
C1899 C 0.66844 0.93997 0.0619 0.0
C1900 C 0.69116 0.92124 0.09324 0.0
C1901 C 0.67704 0.90376 0.09689 0.0
C1902 C 0.67157 0.92734 0.07362 0.0
C1903 C 0.66034 0.89848 0.08839 0.0
C1904 C 0.65274 0.93425 0.05064 0.0
C1905 C 0.67941 0.97016 0.05186 0.0
N1906 N 0.65805 0.91023 0.07712 0.0
N1907 N 0.68116 0.95771 0.06212 0.0
H1908 H 0.05371 0.70748 0.03295 0.0
H1909 H 0.06219 0.78304 0.1122 0.0
H1910 H 0.00808 0.70795 0.05757 0.0
H1911 H 0.1045 0.77258 0.10002 0.0
H1912 H 0.04243 0.75711 0.0902 0.0
H1913 H 0.0729 0.73284 0.05562 0.0
C1914 C 0.04773 0.71291 0.04317 0.0
C1915 C 0.0293 0.70563 0.04339 0.0
C1916 C 0.05603 0.76048 0.09242 0.0
C1917 C 0.05117 0.73474 0.06926 0.0
C1918 C 0.06731 0.7753 0.10484 0.0
C1919 C 0.08496 0.77988 0.10796 0.0
C1920 C 0.06255 0.75036 0.08285 0.0
C1921 C 0.09092 0.76937 0.09821 0.0
C1922 C 0.05868 0.72736 0.05613 0.0
C1923 C 0.02224 0.71316 0.05696 0.0
N1924 N 0.07977 0.75516 0.08603 0.0
N1925 N 0.03321 0.7274 0.06929 0.0
H1926 H 0.29823 0.31309 0.05324 0.0
H1927 H 0.24459 0.35573 0.1038 0.0
H1928 H 0.30723 0.365 0.03621 0.0
H1929 H 0.22851 0.29983 0.10848 0.0
H1930 H 0.2694 0.36055 0.08164 0.0
H1931 H 0.27445 0.30923 0.07622 0.0
C1932 C 0.29523 0.32373 0.05438 0.0
C1933 C 0.3047 0.33939 0.04275 0.0
C1934 C 0.26044 0.34725 0.08753 0.0
C1935 C 0.27743 0.33502 0.06911 0.0
C1936 C 0.24638 0.34451 0.10027 0.0
C1937 C 0.23452 0.32736 0.10798 0.0
C1938 C 0.26275 0.33275 0.08265 0.0
C1939 C 0.23727 0.31323 0.10272 0.0
C1940 C 0.2816 0.32147 0.06747 0.0
C1941 C 0.30022 0.3527 0.04486 0.0
N1942 N 0.25113 0.31626 0.09042 0.0
N1943 N 0.28688 0.35023 0.05783 0.0
H1944 H 0.72476 0.69972 0.37002 0.0
H1945 H 0.74284 0.63167 0.43092 0.0
H1946 H 0.68396 0.64524 0.38382 0.0
H1947 H 0.77817 0.68925 0.4347 0.0
H1948 H 0.72205 0.63619 0.41111 0.0
H1949 H 0.74565 0.69601 0.3912 0.0
C1950 C 0.72019 0.68703 0.37754 0.0
C1951 C 0.70262 0.67277 0.37516 0.0
C1952 C 0.73434 0.64784 0.41633 0.0
C1953 C 0.72638 0.66839 0.39913 0.0
C1954 C 0.7462 0.64528 0.42776 0.0
C1955 C 0.76232 0.66009 0.4346 0.0
C1956 C 0.73865 0.66533 0.41146 0.0
C1957 C 0.76606 0.6774 0.42952 0.0
C1958 C 0.73209 0.68493 0.38963 0.0
C1959 C 0.69738 0.65661 0.38525 0.0
N1960 N 0.75434 0.67954 0.4182 0.0
N1961 N 0.70922 0.65483 0.39667 0.0
H1962 H 0.33336 0.0471 0.35814 0.0
H1963 H 0.36322 0.09607 0.46633 0.0
H1964 H 0.35759 0.03006 0.40279 0.0
H1965 H 0.36354 0.12334 0.41124 0.0
H1966 H 0.35941 0.07068 0.44487 0.0
H1967 H 0.34206 0.07402 0.37898 0.0
C1968 C 0.34053 0.04905 0.37238 0.0
C1969 C 0.34473 0.03636 0.37883 0.0
C1970 C 0.36057 0.08235 0.43753 0.0
C1971 C 0.35462 0.06707 0.40281 0.0
C1972 C 0.36266 0.09675 0.44972 0.0
C1973 C 0.36362 0.11174 0.44049 0.0
C1974 C 0.35905 0.08285 0.41607 0.0
C1975 C 0.36294 0.11208 0.41894 0.0
C1976 C 0.34559 0.06447 0.38418 0.0
C1977 C 0.35414 0.03959 0.39732 0.0
N1978 N 0.36045 0.09773 0.40747 0.0
N1979 N 0.35861 0.05459 0.40886 0.0
H1980 H 0.96877 0.28346 0.36382 0.0
H1981 H 0.89125 0.26998 0.44076 0.0
H1982 H 0.96622 0.32804 0.3903 0.0
H1983 H 0.90078 0.22768 0.42215 0.0
H1984 H 0.91784 0.2915 0.42155 0.0
H1985 H 0.9433 0.26289 0.38462 0.0
C1986 C 0.96289 0.28894 0.37412 0.0
C1987 C 0.96959 0.30748 0.37531 0.0
C1988 C 0.91412 0.27752 0.42174 0.0
C1989 C 0.94022 0.28392 0.39911 0.0
C1990 C 0.89889 0.26523 0.43256 0.0
C1991 C 0.89382 0.24703 0.43306 0.0
C1992 C 0.92421 0.27151 0.41121 0.0
C1993 C 0.9043 0.24161 0.42237 0.0
C1994 C 0.94832 0.27717 0.38601 0.0
C1995 C 0.96146 0.31382 0.38896 0.0
N1996 N 0.91894 0.25377 0.41185 0.0
N1997 N 0.94708 0.30203 0.40026 0.0
H1998 H 0.97731 0.35753 0.30852 0.0
H1999 H 0.02718 0.44389 0.23912 0.0
H2000 H 0.03444 0.39137 0.30975 0.0
H2001 H 0.97439 0.42448 0.26332 0.0
H2002 H 0.02994 0.42306 0.26152 0.0
H2003 H 0.97566 0.38006 0.28822 0.0
C2004 C 0.98952 0.36973 0.30449 0.0
C2005 C 0.00604 0.37262 0.31079 0.0
C2006 C 0.01782 0.42349 0.26195 0.0
C2007 C 0.00425 0.39834 0.28736 0.0
C2008 C 0.01622 0.43541 0.24923 0.0
C2009 C 0.00048 0.43596 0.24921 0.0
C2010 C 0.00349 0.41184 0.27451 0.0
C2011 C 0.98663 0.42432 0.26241 0.0
C2012 C 0.98856 0.3826 0.29299 0.0
C2013 C 0.02144 0.3887 0.30525 0.0
N2014 N 0.98842 0.41267 0.27438 0.0
N2015 N 0.0202 0.40092 0.29363 0.0
H2016 H 0.66444 0.64113 0.28325 0.0
H2017 H 0.57465 0.54599 0.27587 0.0
H2018 H 0.62039 0.62512 0.32507 0.0
H2019 H 0.60369 0.57341 0.22124 0.0
H2020 H 0.59537 0.57232 0.29672 0.0
H2021 H 0.64581 0.61381 0.26238 0.0
C2022 C 0.65088 0.63188 0.28801 0.0
C2023 C 0.64387 0.63538 0.3058 0.0
C2024 C 0.59727 0.57248 0.28018 0.0
C2025 C 0.62284 0.60417 0.28248 0.0
C2026 C 0.58558 0.55746 0.26835 0.0
C2027 C 0.5875 0.55765 0.24688 0.0
C2028 C 0.61114 0.58762 0.27048 0.0
C2029 C 0.60176 0.57287 0.23778 0.0
C2030 C 0.64031 0.61637 0.27614 0.0
C2031 C 0.62626 0.62298 0.31137 0.0
N2032 N 0.6131 0.5873 0.24965 0.0
N2033 N 0.61639 0.60786 0.29984 0.0
H2034 H 0.36117 0.00962 0.29049 0.0
H2035 H 0.42888 0.97553 0.27335 0.0
H2036 H 0.3607 0.96926 0.32884 0.0
H2037 H 0.41584 0.00118 0.22594 0.0
H2038 H 0.40513 0.97408 0.29482 0.0
H2039 H 0.38254 0.00797 0.26766 0.0
C2040 C 0.36555 0.00037 0.29409 0.0
C2041 C 0.35923 0.98961 0.31163 0.0
C2042 C 0.40743 0.97992 0.27966 0.0
C2043 C 0.38382 0.98775 0.28561 0.0
C2044 C 0.42094 0.9807 0.26733 0.0
C2045 C 0.42448 0.98859 0.24778 0.0
C2046 C 0.3975 0.98725 0.27251 0.0
C2047 C 0.4139 0.99533 0.24103 0.0
C2048 C 0.37771 0.99938 0.28099 0.0
C2049 C 0.36526 0.97778 0.31546 0.0
N2050 N 0.40099 0.99461 0.25342 0.0
N2051 N 0.37738 0.97727 0.30263 0.0
H2052 H 0.64275 0.0092 0.29246 0.0
H2053 H 0.54068 0.97457 0.27351 0.0
H2054 H 0.60139 0.96757 0.32949 0.0
H2055 H 0.58145 0.00115 0.22723 0.0
H2056 H 0.56238 0.97319 0.29559 0.0
H2057 H 0.62022 0.00821 0.27004 0.0
C2058 C 0.62889 -0.00015 0.29591 0.0
C2059 C 0.62393 0.98848 0.31292 0.0
C2060 C 0.5665 0.97923 0.28055 0.0
C2061 C 0.59799 0.98732 0.28722 0.0
C2062 C 0.55411 0.97997 0.26787 0.0
C2063 C 0.55923 0.98809 0.24846 0.0
C2064 C 0.58415 0.98685 0.27388 0.0
C2065 C 0.57693 0.99511 0.2422 0.0
C2066 C 0.61603 0.99924 0.28301 0.0
C2067 C 0.60576 0.97656 0.31653 0.0
N2068 N 0.58875 0.99442 0.25491 0.0
N2069 N 0.59339 0.97636 0.30383 0.0
H2070 H 0.02509 0.64357 0.30109 0.0
H2071 H 0.96344 0.55042 0.25269 0.0
H2072 H 0.96913 0.62514 0.29918 0.0
H2073 H 0.01001 0.58902 0.21894 0.0
H2074 H 0.96513 0.57512 0.2733 0.0
H2075 H 0.02047 0.62108 0.27474 0.0
C2076 C 0.01184 0.63483 0.29506 0.0
C2077 C 0.99746 0.63617 0.30223 0.0
C2078 C 0.97479 0.57807 0.26117 0.0
C2079 C 0.99207 0.61023 0.27261 0.0
C2080 C 0.97385 0.56402 0.2493 0.0
C2081 C 0.9868 0.5675 0.23417 0.0
C2082 C 0.98899 0.59561 0.25822 0.0
C2083 C 9e-05 0.5855 0.23086 0.0
C2084 C 0.00925 0.62209 0.28 0.0
C2085 C 0.98054 0.6245 0.29392 0.0
N2086 N 0.00106 0.59884 0.24307 0.0
N2087 N 0.97821 0.61171 0.27975 0.0
H2088 H 0.3727 0.34242 0.29538 0.0
H2089 H 0.43925 0.4437 0.26076 0.0
H2090 H 0.37317 0.38846 0.32241 0.0
H2091 H 0.44621 0.39964 0.24262 0.0
H2092 H 0.4137 0.42317 0.28168 0.0
H2093 H 0.39832 0.36268 0.27407 0.0
C2094 C 0.37816 0.35678 0.29679 0.0
C2095 C 0.37083 0.36379 0.31069 0.0
C2096 C 0.42082 0.41797 0.27318 0.0
C2097 C 0.40005 0.38698 0.28641 0.0
C2098 C 0.43535 0.42967 0.26115 0.0
C2099 C 0.44482 0.42334 0.24989 0.0
C2100 C 0.41558 0.39973 0.27388 0.0
C2101 C 0.43935 0.40508 0.2512 0.0
C2102 C 0.3928 0.36832 0.28468 0.0
C2103 C 0.37843 0.38248 0.31192 0.0
N2104 N 0.42501 0.39387 0.2629 0.0
N2105 N 0.39259 0.39341 0.29992 0.0
H2106 H 0.31444 0.27677 0.35271 0.0
H2107 H 0.34251 0.25306 0.45846 0.0
H2108 H 0.34534 0.3167 0.39927 0.0
H2109 H 0.33794 0.22362 0.40231 0.0
H2110 H 0.3375 0.27386 0.43877 0.0
H2111 H 0.3169 0.25427 0.37269 0.0
C2112 C 0.32154 0.28072 0.36723 0.0
C2113 C 0.32975 0.29858 0.37438 0.0
C2114 C 0.33754 0.26282 0.43078 0.0
C2115 C 0.33244 0.27309 0.39718 0.0
C2116 C 0.34033 0.25094 0.44198 0.0
C2117 C 0.34065 0.23669 0.43193 0.0
C2118 C 0.33476 0.26024 0.40942 0.0
C2119 C 0.33789 0.23456 0.41054 0.0
C2120 C 0.32304 0.26796 0.37849 0.0
C2121 C 0.33891 0.30309 0.39318 0.0
N2122 N 0.33494 0.24619 0.39995 0.0
N2123 N 0.33994 0.29041 0.40398 0.0
H2124 H 0.71135 0.0411 0.35472 0.0
H2125 H 0.73247 0.09628 0.45948 0.0
H2126 H 0.67071 0.02731 0.40086 0.0
H2127 H 0.7598 0.12065 0.40288 0.0
H2128 H 0.7108 0.06956 0.43979 0.0
H2129 H 0.73089 0.06888 0.37384 0.0
C2130 C 0.70657 0.04388 0.36895 0.0
C2131 C 0.68941 0.0319 0.37627 0.0
C2132 C 0.72143 0.08084 0.43168 0.0
C2133 C 0.71172 0.0636 0.3982 0.0
C2134 C 0.73376 0.09602 0.44287 0.0
C2135 C 0.74787 0.11059 0.43271 0.0
C2136 C 0.72352 0.08011 0.41027 0.0
C2137 C 0.74902 0.1097 0.41121 0.0
C2138 C 0.71768 0.05979 0.37974 0.0
C2139 C 0.68386 0.03622 0.39471 0.0
N2140 N 0.73714 0.09458 0.4007 0.0
N2141 N 0.69505 0.05169 0.40518 0.0
H2142 H 0.96279 0.64167 0.38452 0.0
H2143 H 0.91371 0.68903 0.43501 0.0
H2144 H 0.97827 0.69646 0.37158 0.0
H2145 H 0.89001 0.63144 0.43009 0.0
H2146 H 0.9392 0.69282 0.4151 0.0
H2147 H 0.93804 0.63863 0.40519 0.0
C2148 C 0.96104 0.65311 0.38612 0.0
C2149 C 0.97257 0.66933 0.37626 0.0
C2150 C 0.92839 0.67938 0.4184 0.0
C2151 C 0.94423 0.66592 0.39993 0.0
C2152 C 0.91377 0.67717 0.42966 0.0
C2153 C 0.89961 0.65986 0.43427 0.0
C2154 C 0.92897 0.66419 0.41186 0.0
C2155 C 0.90068 0.64504 0.42726 0.0
C2156 C 0.94685 0.65133 0.39785 0.0
C2157 C 0.96964 0.6837 0.37887 0.0
N2158 N 0.91511 0.64755 0.41647 0.0
N2159 N 0.95575 0.68167 0.3905 0.0
H2160 H 0.39549 0.03767 0.69771 0.0
H2161 H 0.41904 0.97798 0.76803 0.0
H2162 H 0.35729 0.98372 0.71663 0.0
H2163 H 0.45339 0.03547 0.76362 0.0
H2164 H 0.39731 0.97951 0.74633 0.0
H2165 H 0.41798 0.03691 0.7192 0.0
C2166 C 0.39184 0.02569 0.70635 0.0
C2167 C 0.3745 0.01074 0.7054 0.0
C2168 C 0.40958 0.99181 0.75011 0.0
C2169 C 0.40007 0.00973 0.72979 0.0
C2170 C 0.42203 0.99092 0.76238 0.0
C2171 C 0.43803 0.00661 0.76759 0.0
C2172 C 0.41318 0.0085 0.74279 0.0
C2173 C 0.44113 0.02307 0.76008 0.0
C2174 C 0.40465 0.02528 0.71864 0.0
C2175 C 0.37047 0.99557 0.71693 0.0
N2176 N 0.42884 0.02359 0.74797 0.0
N2177 N 0.38316 0.99544 0.72856 0.0
H2178 H 0.98921 0.3749 0.68655 0.0
H2179 H 0.01314 0.42251 0.79634 0.0
H2180 H 0.01995 0.36468 0.72971 0.0
H2181 H 0.00715 0.4473 0.74244 0.0
H2182 H 0.0128 0.39909 0.77403 0.0
H2183 H 0.99253 0.39941 0.70875 0.0
C2184 C 0.99669 0.37785 0.70073 0.0
C2185 C 0.00434 0.3678 0.70634 0.0
C2186 C 0.01172 0.40977 0.76714 0.0
C2187 C 0.00801 0.3957 0.73192 0.0
C2188 C 0.01181 0.42302 0.77982 0.0
C2189 C 0.01017 0.43681 0.77115 0.0
C2190 C 0.00957 0.41016 0.74578 0.0
C2191 C 0.00857 0.43697 0.74969 0.0
C2192 C 0.99864 0.39189 0.71333 0.0
C2193 C 0.01393 0.37221 0.72484 0.0
N2194 N 0.00813 0.42374 0.73776 0.0
N2195 N 0.01536 0.38578 0.73715 0.0
H2196 H 0.6268 0.61517 0.69078 0.0
H2197 H 0.57124 0.60581 0.79277 0.0
H2198 H 0.63697 0.66118 0.72808 0.0
H2199 H 0.55262 0.5658 0.74387 0.0
H2200 H 0.59699 0.62573 0.77147 0.0
H2201 H 0.60144 0.59605 0.7127 0.0
C2202 C 0.62372 0.62125 0.70364 0.0
C2203 C 0.63395 0.63979 0.70759 0.0
C2204 C 0.58722 0.61258 0.76546 0.0
C2205 C 0.60492 0.61796 0.73278 0.0
C2206 C 0.57247 0.60123 0.77755 0.0
C2207 C 0.55973 0.584 0.7702 0.0
C2208 C 0.58933 0.6066 0.74598 0.0
C2209 C 0.56223 0.57875 0.75044 0.0
C2210 C 0.60919 0.61033 0.7161 0.0
C2211 C 0.62936 0.64694 0.72447 0.0
N2212 N 0.57675 0.58996 0.73911 0.0
N2213 N 0.61517 0.63599 0.73652 0.0
H2214 H 0.65571 0.68247 0.61804 0.0
H2215 H 0.6683 0.77965 0.6108 0.0
H2216 H 0.69015 0.72567 0.65962 0.0
H2217 H 0.64891 0.74099 0.56047 0.0
H2218 H 0.67558 0.76015 0.62976 0.0
H2219 H 0.65218 0.70367 0.59758 0.0
C2220 C 0.66264 0.69649 0.62279 0.0
C2221 C 0.6732 0.70233 0.64059 0.0
C2222 C 0.66982 0.75602 0.61452 0.0
C2223 C 0.66902 0.7267 0.61731 0.0
C2224 C 0.66568 0.76716 0.60363 0.0
C2225 C 0.65785 0.76195 0.58399 0.0
C2226 C 0.66593 0.73948 0.60581 0.0
C2227 C 0.65455 0.74545 0.57571 0.0
C2228 C 0.66064 0.7086 0.61106 0.0
C2229 C 0.68194 0.72066 0.64595 0.0
N2230 N 0.65851 0.73479 0.58669 0.0
N2231 N 0.67949 0.73221 0.63447 0.0
H2232 H 0.28606 0.96943 0.65119 0.0
H2233 H 0.27006 0.88882 0.57545 0.0
H2234 H 0.32947 0.96518 0.62593 0.0
H2235 H 0.2299 0.90141 0.59205 0.0
H2236 H 0.29202 0.91549 0.59505 0.0
H2237 H 0.26533 0.94348 0.6306 0.0
C2238 C 0.29126 0.96306 0.64122 0.0
C2239 C 0.30954 0.96948 0.64028 0.0
C2240 C 0.2784 0.9124 0.59432 0.0
C2241 C 0.28572 0.93949 0.61664 0.0
C2242 C 0.26586 0.89715 0.58328 0.0
C2243 C 0.24815 0.89294 0.58208 0.0
C2244 C 0.2731 0.92336 0.60438 0.0
C2245 C 0.24344 0.90426 0.59234 0.0
C2246 C 0.27938 0.9482 0.62943 0.0
C2247 C 0.31547 0.96066 0.62706 0.0
N2248 N 0.25581 0.91888 0.60308 0.0
N2249 N 0.30356 0.946 0.6158 0.0
H2250 H 0.02658 0.34676 0.61572 0.0
H2251 H 0.11242 0.33865 0.60597 0.0
H2252 H 0.03661 0.31478 0.65739 0.0
H2253 H 0.08843 0.34702 0.55296 0.0
H2254 H 0.08686 0.33362 0.62691 0.0
H2255 H 0.05124 0.35048 0.59401 0.0
C2256 C 0.03394 0.34047 0.62025 0.0
C2257 C 0.02959 0.33045 0.63836 0.0
C2258 C 0.08719 0.33652 0.61069 0.0
C2259 C 0.0579 0.3349 0.61383 0.0
C2260 C 0.1018 0.33952 0.5988 0.0
C2261 C 0.10248 0.34327 0.57776 0.0
C2262 C 0.07336 0.33761 0.60153 0.0
C2263 C 0.08832 0.34408 0.56913 0.0
C2264 C 0.04796 0.34257 0.60784 0.0
C2265 C 0.03951 0.32255 0.6435 0.0
N2266 N 0.07438 0.34141 0.5811 0.0
N2267 N 0.05335 0.3251 0.6314 0.0
H2268 H 0.31505 0.35838 0.63649 0.0
H2269 H 0.21732 0.30984 0.58892 0.0
H2270 H 0.27556 0.30341 0.65022 0.0
H2271 H 0.2544 0.36703 0.58743 0.0
H2272 H 0.23845 0.30644 0.60999 0.0
H2273 H 0.29305 0.36099 0.61699 0.0
C2274 C 0.30171 0.34681 0.6354 0.0
C2275 C 0.29714 0.33062 0.645 0.0
C2276 C 0.24189 0.31973 0.60512 0.0
C2277 C 0.27174 0.33356 0.62254 0.0
C2278 C 0.2299 0.32167 0.59302 0.0
C2279 C 0.23412 0.33875 0.5864 0.0
C2280 C 0.25827 0.33496 0.61044 0.0
C2281 C 0.2505 0.35364 0.59235 0.0
C2282 C 0.28911 0.34835 0.62429 0.0
C2283 C 0.27962 0.31613 0.64307 0.0
N2284 N 0.26199 0.35138 0.60392 0.0
N2285 N 0.26752 0.31791 0.63196 0.0
H2286 H 0.6857 0.97303 0.63936 0.0
H2287 H 0.61459 0.88408 0.5818 0.0
H2288 H 0.63249 0.96222 0.62953 0.0
H2289 H 0.67121 0.90897 0.57277 0.0
H2290 H 0.61973 0.9115 0.59989 0.0
H2291 H 0.67971 0.94837 0.6161 0.0
C2292 C 0.67274 0.9655 0.63222 0.0
C2293 C 0.65955 0.96965 0.63642 0.0
C2294 C 0.63096 0.91094 0.59374 0.0
C2295 C 0.65248 0.94109 0.60984 0.0
C2296 C 0.62806 0.89535 0.58342 0.0
C2297 C 0.64254 0.8941 0.57618 0.0
C2298 C 0.64845 0.92524 0.59686 0.0
C2299 C 0.65969 0.9091 0.57867 0.0
C2300 C 0.66934 0.95142 0.61884 0.0
C2301 C 0.64301 0.95942 0.62664 0.0
N2302 N 0.66217 0.92392 0.58897 0.0
N2303 N 0.63982 0.94538 0.61394 0.0
H2304 H 0.04308 0.71637 0.66557 0.0
H2305 H 0.09427 0.73342 0.55967 0.0
H2306 H 0.02863 0.67313 0.62161 0.0
H2307 H 0.12024 0.76359 0.61492 0.0
H2308 H 0.06857 0.71236 0.5805 0.0
H2309 H 0.06994 0.7354 0.64555 0.0
C2310 C 0.04557 0.7109 0.65167 0.0
C2311 C 0.03364 0.69318 0.64519 0.0
C2312 C 0.07997 0.7235 0.58805 0.0
C2313 C 0.06423 0.71492 0.62216 0.0
C2314 C 0.09456 0.73551 0.57621 0.0
C2315 C 0.10932 0.75021 0.58566 0.0
C2316 C 0.08003 0.72648 0.60939 0.0
C2317 C 0.10913 0.75235 0.60711 0.0
C2318 C 0.06094 0.72172 0.64035 0.0
C2319 C 0.03754 0.68672 0.62714 0.0
N2320 N 0.0946 0.74073 0.61825 0.0
N2321 N 0.05245 0.69767 0.61609 0.0
H2322 H 0.00359 0.64794 0.73338 0.0
H2323 H 0.98599 0.54902 0.7384 0.0
H2324 H 0.97124 0.60762 0.68784 0.0
H2325 H 0.99428 0.58137 0.7931 0.0
H2326 H 0.98334 0.57119 0.71816 0.0
H2327 H 0.00312 0.62455 0.75436 0.0
C2328 C 0.99633 0.63414 0.72785 0.0
C2329 C 0.98745 0.62967 0.70887 0.0
C2330 C 0.9856 0.57333 0.73462 0.0
C2331 C 0.98709 0.60295 0.73259 0.0
C2332 C 0.98722 0.56078 0.74611 0.0
C2333 C 0.99035 0.56343 0.7674 0.0
C2334 C 0.98754 0.58878 0.74445 0.0
C2335 C 0.99175 0.57881 0.77672 0.0
C2336 C 0.99601 0.62081 0.73985 0.0
C2337 C 0.97819 0.61158 0.70244 0.0
N2338 N 0.99052 0.59102 0.76515 0.0
N2339 N 0.97842 0.59887 0.71418 0.0
H2340 H 0.38513 0.3732 0.69273 0.0
H2341 H 0.39878 0.43373 0.79274 0.0
H2342 H 0.34099 0.36499 0.73081 0.0
H2343 H 0.43631 0.44993 0.7424 0.0
H2344 H 0.37812 0.40672 0.77289 0.0
H2345 H 0.40502 0.39918 0.71399 0.0
C2346 C 0.37962 0.37682 0.70565 0.0
C2347 C 0.36136 0.367 0.70994 0.0
C2348 C 0.39088 0.41624 0.76626 0.0
C2349 C 0.38412 0.39683 0.73436 0.0
C2350 C 0.40266 0.43171 0.7775 0.0
C2351 C 0.4194 0.44415 0.76929 0.0
C2352 C 0.39596 0.41311 0.74678 0.0
C2353 C 0.42375 0.44061 0.74959 0.0
C2354 C 0.39099 0.39171 0.71774 0.0
C2355 C 0.35499 0.37227 0.72694 0.0
N2356 N 0.41216 0.42542 0.73908 0.0
N2357 N 0.36638 0.38689 0.73858 0.0
H2358 H 0.64617 0.0368 0.70085 0.0
H2359 H 0.5639 0.97705 0.77503 0.0
H2360 H 0.63146 0.98362 0.72046 0.0
H2361 H 0.58628 0.03412 0.7686 0.0
H2362 H 0.58773 0.97894 0.75337 0.0
H2363 H 0.62355 0.03597 0.72413 0.0
C2364 C 0.63823 0.02499 0.71008 0.0
C2365 C 0.64065 0.01024 0.70868 0.0
C2366 C 0.5875 0.99108 0.75676 0.0
C2367 C 0.61476 0.00915 0.73515 0.0
C2368 C 0.57384 0.98998 0.76902 0.0
C2369 C 0.57311 0.00544 0.77356 0.0
C2370 C 0.60044 0.00774 0.74877 0.0
C2371 C 0.58645 0.02191 0.76558 0.0
C2372 C 0.62537 0.02454 0.72338 0.0
C2373 C 0.63004 0.99529 0.72103 0.0
N2374 N 0.59952 0.02261 0.75344 0.0
N2375 N 0.61751 0.99509 0.73363 0.0
loop_
_geom_bond_atom_site_label_1
_geom_bond_atom_site_label_2
_geom_bond_distance
_geom_bond_site_symmetry_2
_ccdc_geom_bond_type
Co0 O1 2.216 . S
Co0 O2 2.091 . S
Co0 O4 2.004 1_554 S
Co0 O10 2.021 . S
Co0 O12 2.137 1_454 S
Co0 O13 2.244 1_455 S
O1 Co0 2.216 . S
O1 C8 1.247 . S
O2 Co0 2.091 . S
O2 C8 1.261 . S
C3 O12 1.247 . S
C3 O13 1.272 1_556 S
O4 Co0 2.004 1_556 S
O4 C9 1.259 . S
Co5 O6 2.061 1_554 S
Co5 O11 2.052 . S
Co5 O13 2.135 . S
O6 Co5 2.061 1_556 S
O6 C9 1.235 1_655 S
C7 O10 1.238 1_655 S
C7 O11 1.241 . S
C8 O1 1.247 . S
C8 O2 1.261 . S
C9 O4 1.259 . S
C9 O6 1.235 1_455 S
O10 Co0 2.021 . S
O10 C7 1.238 1_455 S
O11 Co5 2.052 . S
O11 C7 1.241 . S
O12 Co0 2.137 1_656 S
O12 C3 1.247 . S
O13 Co0 2.244 1_655 S
O13 C3 1.272 1_554 S
O13 Co5 2.135 . S
Co14 O15 2.216 1_554 S
Co14 O16 2.091 . S
Co14 O18 2.004 . S
Co14 O24 2.021 1_554 S
Co14 O26 2.137 . S
Co14 O27 2.244 . S
O15 Co14 2.216 1_556 S
O15 C22 1.247 . S
O16 Co14 2.091 . S
O16 C22 1.261 1_554 S
C17 O26 1.247 . S
C17 O27 1.272 . S
O18 Co14 2.004 . S
O18 C23 1.259 . S
Co19 O20 2.061 . S
Co19 O25 2.052 1_554 S
Co19 O27 2.135 . S
O20 Co19 2.061 . S
O20 C23 1.235 . S
C21 O24 1.238 . S
C21 O25 1.241 . S
C22 O15 1.247 . S
C22 O16 1.261 1_556 S
C23 O18 1.259 . S
C23 O20 1.235 . S
O24 Co14 2.021 1_556 S
O24 C21 1.238 . S
O25 Co19 2.052 1_556 S
O25 C21 1.241 . S
O26 Co14 2.137 . S
O26 C17 1.247 . S
O27 Co14 2.244 . S
O27 C17 1.272 . S
O27 Co19 2.135 . S
Co28 O29 2.216 1_554 S
Co28 O30 2.091 . S
Co28 O32 2.004 . S
Co28 O38 2.021 1_554 S
Co28 O40 2.137 . S
Co28 O41 2.244 1_545 S
O29 Co28 2.216 1_556 S
O29 C36 1.247 . S
O30 Co28 2.091 . S
O30 C36 1.261 1_554 S
C31 O40 1.233 1_565 S
C31 O41 1.272 . S
O32 Co28 2.004 . S
O32 C37 1.259 . S
Co33 O34 2.061 . S
Co33 O39 2.052 1_554 S
Co33 O41 2.135 . S
O34 Co33 2.061 . S
O34 C37 1.235 1_565 S
C35 O38 1.238 1_565 S
C35 O39 1.241 . S
C36 O29 1.247 . S
C36 O30 1.261 1_556 S
C37 O32 1.259 . S
C37 O34 1.235 1_545 S
O38 Co28 2.021 1_556 S
O38 C35 1.238 1_545 S
O39 Co33 2.052 1_556 S
O39 C35 1.241 . S
O40 Co28 2.137 . S
O40 C31 1.233 1_545 S
O41 Co28 2.244 1_565 S
O41 C31 1.272 . S
O41 Co33 2.135 . S
Co42 O43 2.216 1_554 S
Co42 O44 2.091 . S
Co42 O46 2.004 . S
Co42 O52 2.021 1_554 S
Co42 O54 2.137 1_655 S
Co42 O55 2.244 1_655 S
O43 Co42 2.216 1_556 S
O43 C50 1.247 . S
O44 Co42 2.091 . S
O44 C50 1.261 1_554 S
C45 O54 1.247 . S
C45 O55 1.272 . S
O46 Co42 2.004 . S
O46 C51 1.301 . S
Co47 O48 2.061 . S
Co47 O53 2.052 1_554 S
Co47 O55 2.135 . S
O48 Co47 2.061 . S
O48 C51 1.192 1_455 S
C49 O52 1.238 1_455 S
C49 O53 1.241 . S
C50 O43 1.247 . S
C50 O44 1.261 1_556 S
C51 O46 1.301 . S
C51 O48 1.192 1_655 S
O52 Co42 2.021 1_556 S
O52 C49 1.238 1_655 S
O53 Co47 2.052 1_556 S
O53 C49 1.241 . S
O54 Co42 2.137 1_455 S
O54 C45 1.247 . S
O55 Co42 2.244 1_455 S
O55 C45 1.272 . S
O55 Co47 2.135 . S
Co56 O57 2.216 . S
Co56 O58 2.091 . S
Co56 O60 2.004 1_554 S
Co56 O66 2.021 . S
Co56 O68 2.137 1_554 S
Co56 O69 2.244 1_554 S
O57 Co56 2.216 . S
O57 C64 1.247 . S
O58 Co56 2.091 . S
O58 C64 1.261 . S
C59 O68 1.247 . S
C59 O69 1.272 . S
O60 Co56 2.004 1_556 S
O60 C65 1.259 . S
Co61 O62 2.061 . S
Co61 O67 2.052 1_556 S
Co61 O69 2.135 . S
O62 Co61 2.061 . S
O62 C65 1.235 . S
C63 O66 1.238 . S
C63 O67 1.241 . S
C64 O57 1.247 . S
C64 O58 1.261 . S
C65 O60 1.259 . S
C65 O62 1.235 . S
O66 Co56 2.021 . S
O66 C63 1.238 . S
O67 Co61 2.052 1_554 S
O67 C63 1.241 . S
O68 Co56 2.137 1_556 S
O68 C59 1.247 . S
O69 Co56 2.244 1_556 S
O69 C59 1.272 . S
O69 Co61 2.135 . S
Co70 O71 2.216 . S
Co70 O72 2.091 . S
Co70 O74 2.004 1_554 S
Co70 O80 2.021 . S
Co70 O82 2.137 1_564 S
Co70 O83 2.244 1_565 S
O71 Co70 2.216 . S
O71 C78 1.247 . S
O72 Co70 2.091 . S
O72 C78 1.261 . S
C73 O82 1.247 . S
C73 O83 1.272 1_556 S
O74 Co70 2.004 1_556 S
O74 C79 1.302 . S
Co75 O76 2.061 1_554 S
Co75 O81 2.052 . S
Co75 O83 2.135 . S
O76 Co75 2.061 1_556 S
O76 C79 1.193 1_545 S
C77 O80 1.238 1_545 S
C77 O81 1.241 . S
C78 O71 1.247 . S
C78 O72 1.261 . S
C79 O74 1.302 . S
C79 O76 1.193 1_565 S
O80 Co70 2.021 . S
O80 C77 1.238 1_565 S
O81 Co75 2.052 . S
O81 C77 1.241 . S
O82 Co70 2.137 1_546 S
O82 C73 1.247 . S
O83 Co70 2.244 1_545 S
O83 C73 1.272 1_554 S
O83 Co75 2.135 . S
Co84 O85 2.216 . S
Co84 O86 2.091 . S
Co84 O88 2.004 . S
Co84 O94 2.021 . S
Co84 O96 2.137 . S
Co84 O97 2.244 . S
O85 Co84 2.216 . S
O85 C92 1.247 . S
O86 Co84 2.091 . S
O86 C92 1.261 . S
C87 O96 1.247 . S
C87 O97 1.272 . S
O88 Co84 2.004 . S
O88 C93 1.259 . S
Co89 O90 2.061 . S
Co89 O95 2.052 . S
Co89 O97 2.135 . S
O90 Co89 2.061 . S
O90 C93 1.235 . S
C91 O94 1.238 . S
C91 O95 1.241 . S
C92 O85 1.247 . S
C92 O86 1.261 . S
C93 O88 1.259 . S
C93 O90 1.235 . S
O94 Co84 2.021 . S
O94 C91 1.238 . S
O95 Co89 2.052 . S
O95 C91 1.241 . S
O96 Co84 2.137 . S
O96 C87 1.247 . S
O97 Co84 2.244 . S
O97 C87 1.272 . S
O97 Co89 2.135 . S
Co98 O99 2.213 1_565 S
Co98 O100 2.091 . S
Co98 O102 2.004 . S
Co98 O108 2.021 . S
Co98 O110 2.137 1_565 S
Co98 O111 2.244 1_565 S
O99 Co98 2.213 1_545 S
O99 C106 1.235 1_545 S
O100 Co98 2.091 . S
O100 C106 1.261 . S
C101 O110 1.247 . S
C101 O111 1.272 . S
O102 Co98 2.004 . S
O102 C107 1.259 . S
Co103 O104 2.061 . S
Co103 O109 2.052 . S
Co103 O111 2.135 1_565 S
O104 Co103 2.061 . S
O104 C107 1.235 . S
C105 O108 1.238 . S
C105 O109 1.241 . S
C106 O99 1.235 1_565 S
C106 O100 1.261 . S
C107 O102 1.259 . S
C107 O104 1.235 . S
O108 Co98 2.021 . S
O108 C105 1.238 . S
O109 Co103 2.052 . S
O109 C105 1.241 . S
O110 Co98 2.137 1_545 S
O110 C101 1.247 . S
O111 Co98 2.244 1_545 S
O111 C101 1.272 . S
O111 Co103 2.135 1_545 S
Co112 O113 2.216 . S
Co112 O114 2.091 . S
Co112 O116 2.004 . S
Co112 O122 2.021 . S
Co112 O124 2.137 1_455 S
Co112 O125 2.244 . S
O113 Co112 2.216 . S
O113 C120 1.247 . S
O114 Co112 2.091 . S
O114 C120 1.261 . S
C115 O124 1.247 . S
C115 O125 1.272 1_655 S
O116 Co112 2.004 . S
O116 C121 1.259 . S
Co117 O118 2.061 . S
Co117 O123 2.052 . S
Co117 O125 2.135 . S
O118 Co117 2.061 . S
O118 C121 1.235 . S
C119 O122 1.238 . S
C119 O123 1.241 . S
C120 O113 1.247 . S
C120 O114 1.261 . S
C121 O116 1.259 . S
C121 O118 1.235 . S
O122 Co112 2.021 . S
O122 C119 1.238 . S
O123 Co117 2.052 . S
O123 C119 1.241 . S
O124 Co112 2.137 1_655 S
O124 C115 1.247 . S
O125 Co112 2.244 . S
O125 C115 1.272 1_455 S
O125 Co117 2.135 . S
Co126 O127 2.224 . S
Co126 O128 2.091 . S
Co126 O130 2.004 . S
Co126 O136 2.021 . S
Co126 O138 2.137 1_565 S
Co126 O139 2.244 1_565 S
O127 Co126 2.224 . S
O127 C134 1.247 . S
O128 Co126 2.091 . S
O128 C134 1.261 . S
C129 O138 1.247 . S
C129 O139 1.272 . S
O130 Co126 2.004 . S
O130 C135 1.259 . S
Co131 O132 2.061 . S
Co131 O137 2.052 . S
Co131 O139 2.135 1_565 S
O132 Co131 2.061 . S
O132 C135 1.235 . S
C133 O136 1.238 . S
C133 O137 1.241 . S
C134 O127 1.247 . S
C134 O128 1.261 . S
C135 O130 1.259 . S
C135 O132 1.235 . S
O136 Co126 2.021 . S
O136 C133 1.238 . S
O137 Co131 2.052 . S
O137 C133 1.241 . S
O138 Co126 2.137 1_545 S
O138 C129 1.247 . S
O139 Co126 2.244 1_545 S
O139 C129 1.272 . S
O139 Co131 2.135 1_545 S
Co140 O141 2.216 1_455 S
Co140 O142 2.091 1_455 S
Co140 O144 2.004 . S
Co140 O150 2.021 . S
Co140 O152 2.137 1_455 S
Co140 O153 2.244 . S
O141 Co140 2.216 1_655 S
O141 C148 1.247 . S
O142 Co140 2.091 1_655 S
O142 C148 1.261 . S
C143 O152 1.247 1_455 S
C143 O153 1.272 . S
O144 Co140 2.004 . S
O144 C149 1.259 . S
Co145 O146 2.061 . S
Co145 O151 2.052 . S
Co145 O153 2.135 . S
O146 Co145 2.061 . S
O146 C149 1.235 . S
C147 O150 1.238 . S
C147 O151 1.241 . S
C148 O141 1.247 . S
C148 O142 1.261 . S
C149 O144 1.259 . S
C149 O146 1.235 . S
O150 Co140 2.021 . S
O150 C147 1.238 . S
O151 Co145 2.052 . S
O151 C147 1.241 . S
O152 Co140 2.137 1_655 S
O152 C143 1.247 1_655 S
O153 Co140 2.244 . S
O153 C143 1.272 . S
O153 Co145 2.135 . S
Co154 O155 2.216 . S
Co154 O156 2.091 . S
Co154 O158 2.004 . S
Co154 O164 2.021 . S
Co154 O166 2.137 . S
Co154 O167 2.244 . S
O155 Co154 2.216 . S
O155 C162 1.247 . S
O156 Co154 2.091 . S
O156 C162 1.261 . S
C157 O166 1.247 . S
C157 O167 1.272 . S
O158 Co154 2.004 . S
O158 C163 1.259 . S
Co159 O160 2.061 . S
Co159 O165 2.052 . S
Co159 O167 2.135 . S
O160 Co159 2.061 . S
O160 C163 1.235 . S
C161 O164 1.238 . S
C161 O165 1.241 . S
C162 O155 1.247 . S
C162 O156 1.261 . S
C163 O158 1.259 . S
C163 O160 1.235 . S
O164 Co154 2.021 . S
O164 C161 1.238 . S
O165 Co159 2.052 . S
O165 C161 1.241 . S
O166 Co154 2.137 . S
O166 C157 1.247 . S
O167 Co154 2.244 . S
O167 C157 1.272 . S
O167 Co159 2.135 . S
Co168 O169 2.216 . S
Co168 O170 2.091 . S
Co168 O172 2.004 . S
Co168 O178 2.021 . S
Co168 O180 2.137 1_545 S
Co168 O181 2.246 . S
O169 Co168 2.216 . S
O169 C176 1.247 . S
O170 Co168 2.091 . S
O170 C176 1.261 . S
C171 O180 1.247 . S
C171 O181 1.259 1_565 S
O172 Co168 2.004 . S
O172 C177 1.259 . S
Co173 O174 2.061 . S
Co173 O179 2.052 . S
Co173 O181 2.149 . S
O174 Co173 2.061 . S
O174 C177 1.235 . S
C175 O178 1.238 . S
C175 O179 1.241 . S
C176 O169 1.247 . S
C176 O170 1.261 . S
C177 O172 1.259 . S
C177 O174 1.235 . S
O178 Co168 2.021 . S
O178 C175 1.238 . S
O179 Co173 2.052 . S
O179 C175 1.241 . S
O180 Co168 2.137 1_565 S
O180 C171 1.247 . S
O181 Co168 2.246 . S
O181 C171 1.259 1_545 S
O181 Co173 2.149 . S
Co182 O183 2.216 1_655 S
Co182 O184 2.091 1_655 S
Co182 O186 2.004 . S
Co182 O192 2.021 . S
Co182 O194 2.137 1_655 S
Co182 O195 2.244 . S
O183 Co182 2.216 1_455 S
O183 C190 1.247 . S
O184 Co182 2.091 1_455 S
O184 C190 1.261 . S
C185 O194 1.247 1_655 S
C185 O195 1.272 . S
O186 Co182 2.004 . S
O186 C191 1.259 . S
Co187 O188 2.061 . S
Co187 O193 2.052 . S
Co187 O195 2.135 . S
O188 Co187 2.061 . S
O188 C191 1.235 . S
C189 O192 1.238 . S
C189 O193 1.241 . S
C190 O183 1.247 . S
C190 O184 1.261 . S
C191 O186 1.259 . S
C191 O188 1.235 . S
O192 Co182 2.021 . S
O192 C189 1.238 . S
O193 Co187 2.052 . S
O193 C189 1.241 . S
O194 Co182 2.137 1_455 S
O194 C185 1.247 1_455 S
O195 Co182 2.244 . S
O195 C185 1.272 . S
O195 Co187 2.135 . S
Co196 O197 2.216 . S
Co196 O198 2.091 . S
Co196 O200 2.004 . S
Co196 O206 2.021 . S
Co196 O208 2.137 . S
Co196 O209 2.244 . S
O197 Co196 2.216 . S
O197 C204 1.247 . S
O198 Co196 2.091 . S
O198 C204 1.261 . S
C199 O208 1.247 . S
C199 O209 1.272 . S
O200 Co196 2.004 . S
O200 C205 1.259 . S
Co201 O202 2.061 . S
Co201 O207 2.052 . S
Co201 O209 2.135 . S
O202 Co201 2.061 . S
O202 C205 1.235 . S
C203 O206 1.238 . S
C203 O207 1.241 . S
C204 O197 1.247 . S
C204 O198 1.261 . S
C205 O200 1.259 . S
C205 O202 1.235 . S
O206 Co196 2.021 . S
O206 C203 1.238 . S
O207 Co201 2.052 . S
O207 C203 1.241 . S
O208 Co196 2.137 . S
O208 C199 1.247 . S
O209 Co196 2.244 . S
O209 C199 1.272 . S
O209 Co201 2.135 . S
Co210 O211 2.216 . S
Co210 O212 2.091 . S
Co210 O214 2.004 . S
Co210 O220 2.021 . S
Co210 O222 2.137 . S
Co210 O223 2.244 . S
O211 Co210 2.216 . S
O211 C218 1.247 . S
O212 Co210 2.091 . S
O212 C218 1.261 . S
C213 O222 1.247 . S
C213 O223 1.272 . S
O214 Co210 2.004 . S
O214 C219 1.259 . S
Co215 O216 2.061 . S
Co215 O221 2.052 . S
Co215 O223 2.135 . S
O216 Co215 2.061 . S
O216 C219 1.235 . S
C217 O220 1.238 . S
C217 O221 1.241 . S
C218 O211 1.247 . S
C218 O212 1.261 . S
C219 O214 1.259 . S
C219 O216 1.235 . S
O220 Co210 2.021 . S
O220 C217 1.238 . S
O221 Co215 2.052 . S
O221 C217 1.241 . S
O222 Co210 2.137 . S
O222 C213 1.247 . S
O223 Co210 2.244 . S
O223 C213 1.272 . S
O223 Co215 2.135 . S
Co224 O225 2.216 . S
Co224 O226 2.091 . S
Co224 O228 2.004 . S
Co224 O234 2.021 . S
Co224 O236 2.137 1_545 S
Co224 O237 2.247 1_545 S
O225 Co224 2.216 . S
O225 C232 1.247 . S
O226 Co224 2.091 . S
O226 C232 1.261 . S
C227 O236 1.247 . S
C227 O237 1.271 . S
O228 Co224 2.004 . S
O228 C233 1.259 . S
Co229 O230 2.061 . S
Co229 O235 2.052 . S
Co229 O237 2.135 1_545 S
O230 Co229 2.061 . S
O230 C233 1.235 . S
C231 O234 1.238 . S
C231 O235 1.241 . S
C232 O225 1.247 . S
C232 O226 1.261 . S
C233 O228 1.259 . S
C233 O230 1.235 . S
O234 Co224 2.021 . S
O234 C231 1.238 . S
O235 Co229 2.052 . S
O235 C231 1.241 . S
O236 Co224 2.137 1_565 S
O236 C227 1.247 . S
O237 Co224 2.247 1_565 S
O237 C227 1.271 . S
O237 Co229 2.135 1_565 S
Co238 O239 2.216 . S
Co238 O240 2.091 . S
Co238 O242 2.004 . S
Co238 O248 2.021 . S
Co238 O250 2.137 1_655 S
Co238 O251 2.246 . S
O239 Co238 2.216 . S
O239 C246 1.247 . S
O240 Co238 2.091 . S
O240 C246 1.261 . S
C241 O250 1.247 . S
C241 O251 1.262 1_455 S
O242 Co238 2.004 . S
O242 C247 1.259 . S
Co243 O244 2.061 . S
Co243 O249 2.052 . S
Co243 O251 2.146 . S
O244 Co243 2.061 . S
O244 C247 1.235 . S
C245 O248 1.238 . S
C245 O249 1.241 . S
C246 O239 1.247 . S
C246 O240 1.261 . S
C247 O242 1.259 . S
C247 O244 1.235 . S
O248 Co238 2.021 . S
O248 C245 1.238 . S
O249 Co243 2.052 . S
O249 C245 1.241 . S
O250 Co238 2.137 1_455 S
O250 C241 1.247 . S
O251 Co238 2.246 . S
O251 C241 1.262 1_655 S
O251 Co243 2.146 . S
C252 C253 1.384 . S
C252 C254 1.384 . S
C252 H280 0.931 . S
C253 C252 1.384 . S
C253 C256 1.382 . S
C254 C252 1.384 . S
C254 C255 1.381 . S
C254 H281 0.930 . S
C255 C254 1.381 . S
C255 C257 1.381 . S
C255 C258 1.487 . S
C256 C253 1.382 . S
C256 C257 1.387 . S
C256 H282 0.930 . S
C257 C255 1.381 . S
C257 C256 1.387 . S
C257 H283 0.931 . S
C258 C255 1.487 . S
C258 C265 1.399 . S
C258 N296 1.343 . S
C259 C260 1.384 . S
C259 C261 1.384 . S
C259 H284 0.931 . S
C260 C259 1.384 . S
C260 C263 1.382 . S
C261 C259 1.384 . S
C261 C262 1.381 . S
C261 H285 0.930 . S
C262 C261 1.381 . S
C262 C264 1.381 . S
C262 C265 1.487 . S
C263 C260 1.382 . S
C263 C264 1.387 . S
C263 H286 0.930 . S
C264 C262 1.381 . S
C264 C263 1.387 . S
C264 H287 0.931 . S
C265 C258 1.399 . S
C265 C262 1.487 . S
C265 N297 1.343 . S
C266 C267 1.384 . S
C266 C268 1.384 . S
C266 H288 0.931 . S
C267 C266 1.384 . S
C267 C270 1.382 . S
C268 C266 1.384 . S
C268 C269 1.381 . S
C268 H289 0.930 . S
C269 C268 1.381 . S
C269 C271 1.381 . S
C269 C272 1.487 . S
C270 C267 1.382 . S
C270 C271 1.387 . S
C270 H290 0.930 . S
C271 C269 1.381 . S
C271 C270 1.387 . S
C271 H291 0.931 . S
C272 C269 1.487 . S
C272 C279 1.399 . S
C272 N297 1.343 . S
C273 C274 1.384 . S
C273 C275 1.384 . S
C273 H292 0.931 . S
C274 C273 1.384 . S
C274 C277 1.382 . S
C275 C273 1.384 . S
C275 C276 1.381 . S
C275 H293 0.930 . S
C276 C275 1.381 . S
C276 C278 1.381 . S
C276 C279 1.487 . S
C277 C274 1.382 . S
C277 C278 1.387 . S
C277 H294 0.930 . S
C278 C276 1.381 . S
C278 C277 1.387 . S
C278 H295 0.931 . S
C279 C272 1.399 . S
C279 C276 1.487 . S
C279 N296 1.343 . S
H280 C252 0.931 . S
H281 C254 0.930 . S
H282 C256 0.930 . S
H283 C257 0.931 . S
H284 C259 0.931 . S
H285 C261 0.930 . S
H286 C263 0.930 . S
H287 C264 0.931 . S
H288 C266 0.931 . S
H289 C268 0.930 . S
H290 C270 0.930 . S
H291 C271 0.931 . S
H292 C273 0.931 . S
H293 C275 0.930 . S
H294 C277 0.930 . S
H295 C278 0.931 . S
N296 C258 1.343 . S
N296 C279 1.343 . S
N297 C265 1.343 . S
N297 C272 1.343 . S
C298 C299 1.384 . S
C298 C300 1.384 . S
C298 H326 0.931 . S
C299 C298 1.384 . S
C299 C302 1.382 . S
C300 C298 1.384 . S
C300 C301 1.381 . S
C300 H327 0.930 . S
C301 C300 1.381 . S
C301 C303 1.381 . S
C301 C304 1.487 . S
C302 C299 1.382 . S
C302 C303 1.387 . S
C302 H328 0.930 . S
C303 C301 1.381 . S
C303 C302 1.387 . S
C303 H329 0.931 . S
C304 C301 1.487 . S
C304 C311 1.399 . S
C304 N342 1.343 . S
C305 C306 1.384 . S
C305 C307 1.384 . S
C305 H330 0.931 . S
C306 C305 1.384 . S
C306 C309 1.382 . S
C307 C305 1.384 . S
C307 C308 1.381 . S
C307 H331 0.930 . S
C308 C307 1.381 . S
C308 C310 1.381 . S
C308 C311 1.487 . S
C309 C306 1.382 . S
C309 C310 1.387 . S
C309 H332 0.930 . S
C310 C308 1.381 . S
C310 C309 1.387 . S
C310 H333 0.931 . S
C311 C304 1.399 . S
C311 C308 1.487 . S
C311 N343 1.343 . S
C312 C313 1.384 . S
C312 C314 1.384 . S
C312 H334 0.931 . S
C313 C312 1.384 . S
C313 C316 1.382 . S
C314 C312 1.384 . S
C314 C315 1.381 . S
C314 H335 0.930 . S
C315 C314 1.381 . S
C315 C317 1.381 . S
C315 C318 1.487 . S
C316 C313 1.382 . S
C316 C317 1.387 . S
C316 H336 0.930 . S
C317 C315 1.381 . S
C317 C316 1.387 . S
C317 H337 0.931 . S
C318 C315 1.487 . S
C318 C325 1.399 . S
C318 N343 1.343 . S
C319 C320 1.384 . S
C319 C321 1.384 . S
C319 H338 0.931 . S
C320 C319 1.384 . S
C320 C323 1.382 . S
C321 C319 1.384 . S
C321 C322 1.381 . S
C321 H339 0.930 . S
C322 C321 1.381 . S
C322 C324 1.381 . S
C322 C325 1.487 . S
C323 C320 1.382 . S
C323 C324 1.387 . S
C323 H340 0.930 . S
C324 C322 1.381 . S
C324 C323 1.387 . S
C324 H341 0.931 . S
C325 C318 1.399 . S
C325 C322 1.487 . S
C325 N342 1.343 . S
H326 C298 0.931 . S
H327 C300 0.930 . S
H328 C302 0.930 . S
H329 C303 0.931 . S
H330 C305 0.931 . S
H331 C307 0.930 . S
H332 C309 0.930 . S
H333 C310 0.931 . S
H334 C312 0.931 . S
H335 C314 0.930 . S
H336 C316 0.930 . S
H337 C317 0.931 . S
H338 C319 0.931 . S
H339 C321 0.930 . S
H340 C323 0.930 . S
H341 C324 0.931 . S
N342 C304 1.343 . S
N342 C325 1.343 . S
N343 C311 1.343 . S
N343 C318 1.343 . S
C344 C345 1.384 . S
C344 C346 1.384 . S
C344 H372 0.931 . S
C345 C344 1.384 . S
C345 C348 1.382 . S
C346 C344 1.384 . S
C346 C347 1.381 . S
C346 H373 0.930 . S
C347 C346 1.381 . S
C347 C349 1.381 . S
C347 C350 1.487 . S
C348 C345 1.382 . S
C348 C349 1.387 . S
C348 H374 0.930 . S
C349 C347 1.381 . S
C349 C348 1.387 . S
C349 H375 0.931 . S
C350 C347 1.487 . S
C350 C357 1.399 . S
C350 N388 1.343 . S
C351 C352 1.384 . S
C351 C353 1.384 . S
C351 H376 0.931 . S
C352 C351 1.384 . S
C352 C355 1.382 . S
C353 C351 1.384 . S
C353 C354 1.381 . S
C353 H377 0.930 . S
C354 C353 1.381 . S
C354 C356 1.381 . S
C354 C357 1.487 . S
C355 C352 1.382 . S
C355 C356 1.387 . S
C355 H378 0.930 . S
C356 C354 1.381 . S
C356 C355 1.387 . S
C356 H379 0.931 . S
C357 C350 1.399 . S
C357 C354 1.487 . S
C357 N389 1.343 . S
C358 C359 1.384 . S
C358 C360 1.384 . S
C358 H380 0.931 . S
C359 C358 1.384 . S
C359 C362 1.382 . S
C360 C358 1.384 . S
C360 C361 1.381 . S
C360 H381 0.930 . S
C361 C360 1.381 . S
C361 C363 1.381 . S
C361 C364 1.487 . S
C362 C359 1.382 . S
C362 C363 1.387 . S
C362 H382 0.930 . S
C363 C361 1.381 . S
C363 C362 1.387 . S
C363 H383 0.931 . S
C364 C361 1.487 . S
C364 C371 1.399 . S
C364 N389 1.343 . S
C365 C366 1.384 . S
C365 C367 1.384 . S
C365 H384 0.931 . S
C366 C365 1.384 . S
C366 C369 1.382 . S
C367 C365 1.384 . S
C367 C368 1.381 . S
C367 H385 0.930 . S
C368 C367 1.381 . S
C368 C370 1.381 . S
C368 C371 1.487 . S
C369 C366 1.382 . S
C369 C370 1.387 . S
C369 H386 0.930 . S
C370 C368 1.381 . S
C370 C369 1.387 . S
C370 H387 0.931 . S
C371 C364 1.399 . S
C371 C368 1.487 . S
C371 N388 1.343 . S
H372 C344 0.931 . S
H373 C346 0.930 . S
H374 C348 0.930 . S
H375 C349 0.931 . S
H376 C351 0.931 . S
H377 C353 0.930 . S
H378 C355 0.930 . S
H379 C356 0.931 . S
H380 C358 0.931 . S
H381 C360 0.930 . S
H382 C362 0.930 . S
H383 C363 0.931 . S
H384 C365 0.931 . S
H385 C367 0.930 . S
H386 C369 0.930 . S
H387 C370 0.931 . S
N388 C350 1.343 . S
N388 C371 1.343 . S
N389 C357 1.343 . S
N389 C364 1.343 . S
C390 C391 1.384 . S
C390 C392 1.384 . S
C390 H418 0.931 . S
C391 C390 1.384 . S
C391 C394 1.382 . S
C392 C390 1.384 . S
C392 C393 1.381 . S
C392 H419 0.930 . S
C393 C392 1.381 . S
C393 C395 1.381 . S
C393 C396 1.487 . S
C394 C391 1.382 . S
C394 C395 1.387 . S
C394 H420 0.930 . S
C395 C393 1.381 . S
C395 C394 1.387 . S
C395 H421 0.931 . S
C396 C393 1.487 . S
C396 C403 1.399 . S
C396 N434 1.343 . S
C397 C398 1.384 . S
C397 C399 1.384 . S
C397 H422 0.931 . S
C398 C397 1.384 . S
C398 C401 1.382 . S
C399 C397 1.384 . S
C399 C400 1.381 . S
C399 H423 0.930 . S
C400 C399 1.381 . S
C400 C402 1.381 . S
C400 C403 1.487 . S
C401 C398 1.382 . S
C401 C402 1.387 . S
C401 H424 0.930 . S
C402 C400 1.381 . S
C402 C401 1.387 . S
C402 H425 0.931 . S
C403 C396 1.399 . S
C403 C400 1.487 . S
C403 N435 1.343 . S
C404 C405 1.384 . S
C404 C406 1.384 . S
C404 H426 0.931 . S
C405 C404 1.384 . S
C405 C408 1.382 . S
C406 C404 1.384 . S
C406 C407 1.381 . S
C406 H427 0.930 . S
C407 C406 1.381 . S
C407 C409 1.381 . S
C407 C410 1.487 . S
C408 C405 1.382 . S
C408 C409 1.387 . S
C408 H428 0.930 . S
C409 C407 1.381 . S
C409 C408 1.387 . S
C409 H429 0.931 . S
C410 C407 1.487 . S
C410 C417 1.399 . S
C410 N435 1.343 . S
C411 C412 1.384 . S
C411 C413 1.384 . S
C411 H430 0.931 . S
C412 C411 1.384 . S
C412 C415 1.382 . S
C413 C411 1.384 . S
C413 C414 1.381 . S
C413 H431 0.930 . S
C414 C413 1.381 . S
C414 C416 1.381 . S
C414 C417 1.487 . S
C415 C412 1.382 . S
C415 C416 1.387 . S
C415 H432 0.930 . S
C416 C414 1.381 . S
C416 C415 1.387 . S
C416 H433 0.931 . S
C417 C410 1.399 . S
C417 C414 1.487 . S
C417 N434 1.343 . S
H418 C390 0.931 . S
H419 C392 0.930 . S
H420 C394 0.930 . S
H421 C395 0.931 . S
H422 C397 0.931 . S
H423 C399 0.930 . S
H424 C401 0.930 . S
H425 C402 0.931 . S
H426 C404 0.931 . S
H427 C406 0.930 . S
H428 C408 0.930 . S
H429 C409 0.931 . S
H430 C411 0.931 . S
H431 C413 0.930 . S
H432 C415 0.930 . S
H433 C416 0.931 . S
N434 C396 1.343 . S
N434 C417 1.343 . S
N435 C403 1.343 . S
N435 C410 1.343 . S
C436 C437 1.384 . S
C436 C438 1.384 . S
C436 H464 0.931 . S
C437 C436 1.384 . S
C437 C440 1.382 . S
C438 C436 1.384 . S
C438 C439 1.381 . S
C438 H465 0.930 . S
C439 C438 1.381 . S
C439 C441 1.381 . S
C439 C442 1.487 . S
C440 C437 1.382 . S
C440 C441 1.387 . S
C440 H466 0.930 . S
C441 C439 1.381 . S
C441 C440 1.387 . S
C441 H467 0.931 . S
C442 C439 1.487 . S
C442 C449 1.399 . S
C442 N480 1.343 . S
C443 C444 1.384 . S
C443 C445 1.384 . S
C443 H468 0.931 . S
C444 C443 1.384 . S
C444 C447 1.382 . S
C445 C443 1.384 . S
C445 C446 1.381 . S
C445 H469 0.930 . S
C446 C445 1.381 . S
C446 C448 1.381 . S
C446 C449 1.487 . S
C447 C444 1.382 . S
C447 C448 1.387 . S
C447 H470 0.930 . S
C448 C446 1.381 . S
C448 C447 1.387 . S
C448 H471 0.931 . S
C449 C442 1.399 . S
C449 C446 1.487 . S
C449 N481 1.343 . S
C450 C451 1.384 . S
C450 C452 1.384 . S
C450 H472 0.931 . S
C451 C450 1.384 . S
C451 C454 1.382 . S
C452 C450 1.384 . S
C452 C453 1.381 . S
C452 H473 0.930 . S
C453 C452 1.381 . S
C453 C455 1.381 . S
C453 C456 1.487 . S
C454 C451 1.382 . S
C454 C455 1.387 . S
C454 H474 0.930 . S
C455 C453 1.381 . S
C455 C454 1.387 . S
C455 H475 0.931 . S
C456 C453 1.487 . S
C456 C463 1.399 . S
C456 N481 1.343 . S
C457 C458 1.384 . S
C457 C459 1.384 . S
C457 H476 0.931 . S
C458 C457 1.384 . S
C458 C461 1.382 . S
C459 C457 1.384 . S
C459 C460 1.381 . S
C459 H477 0.930 . S
C460 C459 1.381 . S
C460 C462 1.381 . S
C460 C463 1.487 . S
C461 C458 1.382 . S
C461 C462 1.387 . S
C461 H478 0.930 . S
C462 C460 1.381 . S
C462 C461 1.387 . S
C462 H479 0.931 . S
C463 C456 1.399 . S
C463 C460 1.487 . S
C463 N480 1.343 . S
H464 C436 0.931 . S
H465 C438 0.930 . S
H466 C440 0.930 . S
H467 C441 0.931 . S
H468 C443 0.931 . S
H469 C445 0.930 . S
H470 C447 0.930 . S
H471 C448 0.931 . S
H472 C450 0.931 . S
H473 C452 0.930 . S
H474 C454 0.930 . S
H475 C455 0.931 . S
H476 C457 0.931 . S
H477 C459 0.930 . S
H478 C461 0.930 . S
H479 C462 0.931 . S
N480 C442 1.343 . S
N480 C463 1.343 . S
N481 C449 1.343 . S
N481 C456 1.343 . S
C482 C483 1.384 . S
C482 C484 1.384 . S
C482 H510 0.931 . S
C483 C482 1.384 . S
C483 C486 1.382 . S
C484 C482 1.384 . S
C484 C485 1.381 . S
C484 H511 0.930 . S
C485 C484 1.381 . S
C485 C487 1.381 . S
C485 C488 1.487 . S
C486 C483 1.382 . S
C486 C487 1.387 . S
C486 H512 0.930 . S
C487 C485 1.381 . S
C487 C486 1.387 . S
C487 H513 0.931 . S
C488 C485 1.487 . S
C488 C495 1.399 . S
C488 N526 1.343 . S
C489 C490 1.384 . S
C489 C491 1.384 . S
C489 H514 0.931 . S
C490 C489 1.384 . S
C490 C493 1.382 . S
C491 C489 1.384 . S
C491 C492 1.381 . S
C491 H515 0.930 . S
C492 C491 1.381 . S
C492 C494 1.381 . S
C492 C495 1.487 . S
C493 C490 1.382 . S
C493 C494 1.387 . S
C493 H516 0.930 . S
C494 C492 1.381 . S
C494 C493 1.387 . S
C494 H517 0.931 . S
C495 C488 1.399 . S
C495 C492 1.487 . S
C495 N527 1.343 . S
C496 C497 1.384 . S
C496 C498 1.384 . S
C496 H518 0.931 . S
C497 C496 1.384 . S
C497 C500 1.382 . S
C498 C496 1.384 . S
C498 C499 1.381 . S
C498 H519 0.930 . S
C499 C498 1.381 . S
C499 C501 1.381 . S
C499 C502 1.487 . S
C500 C497 1.382 . S
C500 C501 1.387 . S
C500 H520 0.930 . S
C501 C499 1.381 . S
C501 C500 1.387 . S
C501 H521 0.931 . S
C502 C499 1.487 . S
C502 C509 1.399 . S
C502 N527 1.343 . S
C503 C504 1.384 . S
C503 C505 1.384 . S
C503 H522 0.931 . S
C504 C503 1.384 . S
C504 C507 1.382 . S
C505 C503 1.384 . S
C505 C506 1.381 . S
C505 H523 0.930 . S
C506 C505 1.381 . S
C506 C508 1.381 . S
C506 C509 1.487 . S
C507 C504 1.382 . S
C507 C508 1.387 . S
C507 H524 0.930 . S
C508 C506 1.381 . S
C508 C507 1.387 . S
C508 H525 0.931 . S
C509 C502 1.399 . S
C509 C506 1.487 . S
C509 N526 1.343 . S
H510 C482 0.931 . S
H511 C484 0.930 . S
H512 C486 0.930 . S
H513 C487 0.931 . S
H514 C489 0.931 . S
H515 C491 0.930 . S
H516 C493 0.930 . S
H517 C494 0.931 . S
H518 C496 0.931 . S
H519 C498 0.930 . S
H520 C500 0.930 . S
H521 C501 0.931 . S
H522 C503 0.931 . S
H523 C505 0.930 . S
H524 C507 0.930 . S
H525 C508 0.931 . S
N526 C488 1.343 . S
N526 C509 1.343 . S
N527 C495 1.343 . S
N527 C502 1.343 . S
C528 C529 1.384 . S
C528 C530 1.384 . S
C528 H556 0.931 . S
C529 C528 1.384 . S
C529 C532 1.382 . S
C530 C528 1.384 . S
C530 C531 1.381 . S
C530 H557 0.930 . S
C531 C530 1.381 . S
C531 C533 1.381 . S
C531 C534 1.487 . S
C532 C529 1.382 . S
C532 C533 1.387 . S
C532 H558 0.930 . S
C533 C531 1.381 . S
C533 C532 1.387 . S
C533 H559 0.931 . S
C534 C531 1.487 . S
C534 C541 1.399 . S
C534 N572 1.343 . S
C535 C536 1.384 . S
C535 C537 1.384 . S
C535 H560 0.931 . S
C536 C535 1.384 . S
C536 C539 1.382 . S
C537 C535 1.384 . S
C537 C538 1.381 . S
C537 H561 0.930 . S
C538 C537 1.381 . S
C538 C540 1.381 . S
C538 C541 1.487 . S
C539 C536 1.382 . S
C539 C540 1.387 . S
C539 H562 0.930 . S
C540 C538 1.381 . S
C540 C539 1.387 . S
C540 H563 0.931 . S
C541 C534 1.399 . S
C541 C538 1.487 . S
C541 N573 1.343 . S
C542 C543 1.384 . S
C542 C544 1.384 . S
C542 H564 0.931 . S
C543 C542 1.384 . S
C543 C546 1.382 . S
C544 C542 1.384 . S
C544 C545 1.381 . S
C544 H565 0.930 . S
C545 C544 1.381 . S
C545 C547 1.381 . S
C545 C548 1.487 . S
C546 C543 1.382 . S
C546 C547 1.387 . S
C546 H566 0.930 . S
C547 C545 1.381 . S
C547 C546 1.387 . S
C547 H567 0.931 . S
C548 C545 1.487 . S
C548 C555 1.399 . S
C548 N573 1.343 . S
C549 C550 1.384 . S
C549 C551 1.384 . S
C549 H568 0.931 . S
C550 C549 1.384 . S
C550 C553 1.382 . S
C551 C549 1.384 . S
C551 C552 1.381 . S
C551 H569 0.930 . S
C552 C551 1.381 . S
C552 C554 1.381 . S
C552 C555 1.487 . S
C553 C550 1.382 . S
C553 C554 1.387 . S
C553 H570 0.930 . S
C554 C552 1.381 . S
C554 C553 1.387 . S
C554 H571 0.931 . S
C555 C548 1.399 . S
C555 C552 1.487 . S
C555 N572 1.343 . S
H556 C528 0.931 . S
H557 C530 0.930 . S
H558 C532 0.930 . S
H559 C533 0.931 . S
H560 C535 0.931 . S
H561 C537 0.930 . S
H562 C539 0.930 . S
H563 C540 0.931 . S
H564 C542 0.931 . S
H565 C544 0.930 . S
H566 C546 0.930 . S
H567 C547 0.931 . S
H568 C549 0.931 . S
H569 C551 0.930 . S
H570 C553 0.930 . S
H571 C554 0.931 . S
N572 C534 1.343 . S
N572 C555 1.343 . S
N573 C541 1.343 . S
N573 C548 1.343 . S
C574 C575 1.384 . S
C574 C576 1.384 . S
C574 H602 0.931 . S
C575 C574 1.384 . S
C575 C578 1.382 . S
C576 C574 1.384 . S
C576 C577 1.381 . S
C576 H603 0.930 . S
C577 C576 1.381 . S
C577 C579 1.381 . S
C577 C580 1.487 . S
C578 C575 1.382 . S
C578 C579 1.387 . S
C578 H604 0.930 . S
C579 C577 1.381 . S
C579 C578 1.387 . S
C579 H605 0.931 . S
C580 C577 1.487 . S
C580 C587 1.399 . S
C580 N618 1.343 . S
C581 C582 1.384 . S
C581 C583 1.384 . S
C581 H606 0.931 . S
C582 C581 1.384 . S
C582 C585 1.382 . S
C583 C581 1.384 . S
C583 C584 1.381 . S
C583 H607 0.930 . S
C584 C583 1.381 . S
C584 C586 1.381 . S
C584 C587 1.487 . S
C585 C582 1.382 . S
C585 C586 1.387 . S
C585 H608 0.930 . S
C586 C584 1.381 . S
C586 C585 1.387 . S
C586 H609 0.931 . S
C587 C580 1.399 . S
C587 C584 1.487 . S
C587 N619 1.343 . S
C588 C589 1.384 . S
C588 C590 1.384 . S
C588 H610 0.931 . S
C589 C588 1.384 . S
C589 C592 1.382 . S
C590 C588 1.384 . S
C590 C591 1.381 . S
C590 H611 0.930 . S
C591 C590 1.381 . S
C591 C593 1.381 . S
C591 C594 1.487 . S
C592 C589 1.382 . S
C592 C593 1.387 . S
C592 H612 0.930 . S
C593 C591 1.381 . S
C593 C592 1.387 . S
C593 H613 0.931 . S
C594 C591 1.487 . S
C594 C601 1.399 . S
C594 N619 1.343 . S
C595 C596 1.384 . S
C595 C597 1.384 . S
C595 H614 0.931 . S
C596 C595 1.384 . S
C596 C599 1.382 . S
C597 C595 1.384 . S
C597 C598 1.381 . S
C597 H615 0.930 . S
C598 C597 1.381 . S
C598 C600 1.381 . S
C598 C601 1.487 . S
C599 C596 1.382 . S
C599 C600 1.387 . S
C599 H616 0.930 . S
C600 C598 1.381 . S
C600 C599 1.387 . S
C600 H617 0.931 . S
C601 C594 1.399 . S
C601 C598 1.487 . S
C601 N618 1.343 . S
H602 C574 0.931 . S
H603 C576 0.930 . S
H604 C578 0.930 . S
H605 C579 0.931 . S
H606 C581 0.931 . S
H607 C583 0.930 . S
H608 C585 0.930 . S
H609 C586 0.931 . S
H610 C588 0.931 . S
H611 C590 0.930 . S
H612 C592 0.930 . S
H613 C593 0.931 . S
H614 C595 0.931 . S
H615 C597 0.930 . S
H616 C599 0.930 . S
H617 C600 0.931 . S
N618 C580 1.343 . S
N618 C601 1.343 . S
N619 C587 1.343 . S
N619 C594 1.343 . S
C620 C621 1.384 . S
C620 C622 1.384 . S
C620 H648 0.931 . S
C621 C620 1.384 . S
C621 C624 1.382 . S
C622 C620 1.384 . S
C622 C623 1.381 . S
C622 H649 0.930 . S
C623 C622 1.381 . S
C623 C625 1.381 . S
C623 C626 1.487 . S
C624 C621 1.382 . S
C624 C625 1.387 . S
C624 H650 0.930 . S
C625 C623 1.381 . S
C625 C624 1.387 . S
C625 H651 0.931 . S
C626 C623 1.487 . S
C626 C633 1.399 . S
C626 N664 1.343 . S
C627 C628 1.384 . S
C627 C629 1.384 . S
C627 H652 0.931 . S
C628 C627 1.384 . S
C628 C631 1.382 . S
C629 C627 1.384 . S
C629 C630 1.381 . S
C629 H653 0.930 . S
C630 C629 1.381 . S
C630 C632 1.381 . S
C630 C633 1.487 . S
C631 C628 1.382 . S
C631 C632 1.387 . S
C631 H654 0.930 . S
C632 C630 1.381 . S
C632 C631 1.387 . S
C632 H655 0.931 . S
C633 C626 1.399 . S
C633 C630 1.487 . S
C633 N665 1.343 . S
C634 C635 1.384 . S
C634 C636 1.384 . S
C634 H656 0.931 . S
C635 C634 1.384 . S
C635 C638 1.382 . S
C636 C634 1.384 . S
C636 C637 1.381 . S
C636 H657 0.930 . S
C637 C636 1.381 . S
C637 C639 1.381 . S
C637 C640 1.487 . S
C638 C635 1.382 . S
C638 C639 1.387 . S
C638 H658 0.930 . S
C639 C637 1.381 . S
C639 C638 1.387 . S
C639 H659 0.931 . S
C640 C637 1.487 . S
C640 C647 1.399 . S
C640 N665 1.343 . S
C641 C642 1.384 . S
C641 C643 1.384 . S
C641 H660 0.931 . S
C642 C641 1.384 . S
C642 C645 1.382 . S
C643 C641 1.384 . S
C643 C644 1.381 . S
C643 H661 0.930 . S
C644 C643 1.381 . S
C644 C646 1.381 . S
C644 C647 1.487 . S
C645 C642 1.382 . S
C645 C646 1.387 . S
C645 H662 0.930 . S
C646 C644 1.381 . S
C646 C645 1.387 . S
C646 H663 0.931 . S
C647 C640 1.399 . S
C647 C644 1.487 . S
C647 N664 1.343 . S
H648 C620 0.931 . S
H649 C622 0.930 . S
H650 C624 0.930 . S
H651 C625 0.931 . S
H652 C627 0.931 . S
H653 C629 0.930 . S
H654 C631 0.930 . S
H655 C632 0.931 . S
H656 C634 0.931 . S
H657 C636 0.930 . S
H658 C638 0.930 . S
H659 C639 0.931 . S
H660 C641 0.931 . S
H661 C643 0.930 . S
H662 C645 0.930 . S
H663 C646 0.931 . S
N664 C626 1.343 . S
N664 C647 1.343 . S
N665 C633 1.343 . S
N665 C640 1.343 . S
C666 C667 1.384 . S
C666 C668 1.384 . S
C666 H694 0.931 . S
C667 C666 1.384 . S
C667 C670 1.382 1_655 S
C668 C666 1.384 . S
C668 C669 1.405 . S
C668 H695 0.930 . S
C669 C668 1.405 . S
C669 C671 1.369 1_655 S
C669 C672 1.473 1_655 S
C670 C667 1.382 1_455 S
C670 C671 1.387 . S
C670 H696 0.930 . S
C671 C669 1.369 1_455 S
C671 C670 1.387 . S
C671 H697 0.931 . S
C672 C669 1.473 1_455 S
C672 C679 1.399 1_455 S
C672 N710 1.312 . S
C673 C674 1.384 . S
C673 C675 1.384 . S
C673 H698 0.931 . S
C674 C673 1.384 . S
C674 C677 1.382 1_455 S
C675 C673 1.384 . S
C675 C676 1.382 1_455 S
C675 H699 0.930 . S
C676 C675 1.382 1_655 S
C676 C678 1.378 . S
C676 C679 1.496 . S
C677 C674 1.382 1_655 S
C677 C678 1.387 . S
C677 H700 0.930 . S
C678 C676 1.378 . S
C678 C677 1.387 . S
C678 H701 0.931 . S
C679 C672 1.399 1_655 S
C679 C676 1.496 . S
C679 N711 1.361 . S
C680 C681 1.384 . S
C680 C682 1.384 . S
C680 H702 0.931 . S
C681 C680 1.384 . S
C681 C684 1.382 1_455 S
C682 C680 1.384 . S
C682 C683 1.422 . S
C682 H703 0.930 . S
C683 C682 1.422 . S
C683 C685 1.361 1_455 S
C683 C686 1.465 . S
C684 C681 1.382 1_655 S
C684 C685 1.387 . S
C684 H704 0.930 . S
C685 C683 1.361 1_655 S
C685 C684 1.387 . S
C685 H705 0.931 . S
C686 C683 1.465 . S
C686 C693 1.399 . S
C686 N711 1.319 1_455 S
C687 C688 1.384 . S
C687 C689 1.384 . S
C687 H706 0.931 . S
C688 C687 1.384 . S
C688 C691 1.382 1_655 S
C689 C687 1.384 . S
C689 C690 1.379 1_655 S
C689 H707 0.930 . S
C690 C689 1.379 1_455 S
C690 C692 1.388 . S
C690 C693 1.496 . S
C691 C688 1.382 1_455 S
C691 C692 1.387 . S
C691 H708 0.930 . S
C692 C690 1.388 . S
C692 C691 1.387 . S
C692 H709 0.931 . S
C693 C686 1.399 . S
C693 C690 1.496 . S
C693 N710 1.361 . S
H694 C666 0.931 . S
H695 C668 0.930 . S
H696 C670 0.930 . S
H697 C671 0.931 . S
H698 C673 0.931 . S
H699 C675 0.930 . S
H700 C677 0.930 . S
H701 C678 0.931 . S
H702 C680 0.931 . S
H703 C682 0.930 . S
H704 C684 0.930 . S
H705 C685 0.931 . S
H706 C687 0.931 . S
H707 C689 0.930 . S
H708 C691 0.930 . S
H709 C692 0.931 . S
N710 C672 1.312 . S
N710 C693 1.361 . S
N711 C679 1.361 . S
N711 C686 1.319 1_655 S
C712 C713 1.384 . S
C712 C714 1.384 . S
C712 H740 0.931 . S
C713 C712 1.384 . S
C713 C716 1.382 . S
C714 C712 1.384 . S
C714 C715 1.381 . S
C714 H741 0.930 . S
C715 C714 1.381 . S
C715 C717 1.381 . S
C715 C718 1.487 . S
C716 C713 1.382 . S
C716 C717 1.387 . S
C716 H742 0.930 . S
C717 C715 1.381 . S
C717 C716 1.387 . S
C717 H743 0.931 . S
C718 C715 1.487 . S
C718 C725 1.399 . S
C718 N756 1.343 . S
C719 C720 1.384 . S
C719 C721 1.384 . S
C719 H744 0.931 . S
C720 C719 1.384 . S
C720 C723 1.382 . S
C721 C719 1.384 . S
C721 C722 1.381 . S
C721 H745 0.930 . S
C722 C721 1.381 . S
C722 C724 1.381 . S
C722 C725 1.487 . S
C723 C720 1.382 . S
C723 C724 1.387 . S
C723 H746 0.930 . S
C724 C722 1.381 . S
C724 C723 1.387 . S
C724 H747 0.931 . S
C725 C718 1.399 . S
C725 C722 1.487 . S
C725 N757 1.343 . S
C726 C727 1.384 . S
C726 C728 1.384 . S
C726 H748 0.931 . S
C727 C726 1.384 . S
C727 C730 1.382 . S
C728 C726 1.384 . S
C728 C729 1.381 . S
C728 H749 0.930 . S
C729 C728 1.381 . S
C729 C731 1.381 . S
C729 C732 1.487 . S
C730 C727 1.382 . S
C730 C731 1.387 . S
C730 H750 0.930 . S
C731 C729 1.381 . S
C731 C730 1.387 . S
C731 H751 0.931 . S
C732 C729 1.487 . S
C732 C739 1.399 . S
C732 N757 1.343 . S
C733 C734 1.384 . S
C733 C735 1.384 . S
C733 H752 0.931 . S
C734 C733 1.384 . S
C734 C737 1.382 . S
C735 C733 1.384 . S
C735 C736 1.381 . S
C735 H753 0.930 . S
C736 C735 1.381 . S
C736 C738 1.381 . S
C736 C739 1.487 . S
C737 C734 1.382 . S
C737 C738 1.387 . S
C737 H754 0.930 . S
C738 C736 1.381 . S
C738 C737 1.387 . S
C738 H755 0.931 . S
C739 C732 1.399 . S
C739 C736 1.487 . S
C739 N756 1.343 . S
H740 C712 0.931 . S
H741 C714 0.930 . S
H742 C716 0.930 . S
H743 C717 0.931 . S
H744 C719 0.931 . S
H745 C721 0.930 . S
H746 C723 0.930 . S
H747 C724 0.931 . S
H748 C726 0.931 . S
H749 C728 0.930 . S
H750 C730 0.930 . S
H751 C731 0.931 . S
H752 C733 0.931 . S
H753 C735 0.930 . S
H754 C737 0.930 . S
H755 C738 0.931 . S
N756 C718 1.343 . S
N756 C739 1.343 . S
N757 C725 1.343 . S
N757 C732 1.343 . S
C758 C759 1.384 1_545 S
C758 C760 1.384 . S
C758 H786 0.931 . S
C759 C758 1.384 1_565 S
C759 C762 1.382 . S
C760 C758 1.384 . S
C760 C761 1.381 1_545 S
C760 H787 0.930 . S
C761 C760 1.381 1_565 S
C761 C763 1.381 . S
C761 C764 1.487 . S
C762 C759 1.382 . S
C762 C763 1.387 . S
C762 H788 0.930 . S
C763 C761 1.381 . S
C763 C762 1.387 . S
C763 H789 0.931 . S
C764 C761 1.487 . S
C764 C771 1.399 1_565 S
C764 N802 1.343 . S
C765 C766 1.384 1_565 S
C765 C767 1.384 . S
C765 H790 0.931 . S
C766 C765 1.384 1_545 S
C766 C769 1.382 . S
C767 C765 1.384 . S
C767 C768 1.381 1_565 S
C767 H791 0.930 . S
C768 C767 1.381 1_545 S
C768 C770 1.381 . S
C768 C771 1.487 . S
C769 C766 1.382 . S
C769 C770 1.387 . S
C769 H792 0.930 . S
C770 C768 1.381 . S
C770 C769 1.387 . S
C770 H793 0.931 . S
C771 C764 1.399 1_545 S
C771 C768 1.487 . S
C771 N803 1.343 . S
C772 C773 1.384 1_565 S
C772 C774 1.384 . S
C772 H794 0.931 . S
C773 C772 1.384 1_545 S
C773 C776 1.382 . S
C774 C772 1.384 . S
C774 C775 1.381 1_565 S
C774 H795 0.930 . S
C775 C774 1.381 1_545 S
C775 C777 1.381 . S
C775 C778 1.487 . S
C776 C773 1.382 . S
C776 C777 1.387 . S
C776 H796 0.930 . S
C777 C775 1.381 . S
C777 C776 1.387 . S
C777 H797 0.931 . S
C778 C775 1.487 . S
C778 C785 1.399 1_545 S
C778 N803 1.343 . S
C779 C780 1.384 1_545 S
C779 C781 1.384 . S
C779 H798 0.931 . S
C780 C779 1.384 1_565 S
C780 C783 1.382 . S
C781 C779 1.384 . S
C781 C782 1.381 1_545 S
C781 H799 0.930 . S
C782 C781 1.381 1_565 S
C782 C784 1.381 . S
C782 C785 1.487 . S
C783 C780 1.382 . S
C783 C784 1.387 . S
C783 H800 0.930 . S
C784 C782 1.381 . S
C784 C783 1.387 . S
C784 H801 0.931 . S
C785 C778 1.399 1_565 S
C785 C782 1.487 . S
C785 N802 1.343 . S
H786 C758 0.931 . S
H787 C760 0.930 . S
H788 C762 0.930 . S
H789 C763 0.931 . S
H790 C765 0.931 . S
H791 C767 0.930 . S
H792 C769 0.930 . S
H793 C770 0.931 . S
H794 C772 0.931 . S
H795 C774 0.930 . S
H796 C776 0.930 . S
H797 C777 0.931 . S
H798 C779 0.931 . S
H799 C781 0.930 . S
H800 C783 0.930 . S
H801 C784 0.931 . S
N802 C764 1.343 . S
N802 C785 1.343 . S
N803 C771 1.343 . S
N803 C778 1.343 . S
C804 C805 1.384 . S
C804 C806 1.384 . S
C804 H832 0.931 . S
C805 C804 1.384 . S
C805 C808 1.382 1_545 S
C806 C804 1.384 . S
C806 C807 1.380 . S
C806 H833 0.930 . S
C807 C806 1.380 . S
C807 C809 1.385 1_545 S
C807 C810 1.490 1_545 S
C808 C805 1.382 1_565 S
C808 C809 1.387 . S
C808 H834 0.930 . S
C809 C807 1.385 1_565 S
C809 C808 1.387 . S
C809 H835 0.931 . S
C810 C807 1.490 1_565 S
C810 C817 1.399 1_565 S
C810 N848 1.363 . S
C811 C812 1.384 . S
C811 C813 1.384 . S
C811 H836 0.931 . S
C812 C811 1.384 . S
C812 C815 1.382 1_565 S
C813 C811 1.384 . S
C813 C814 1.400 . S
C813 H837 0.930 . S
C814 C813 1.400 . S
C814 C816 1.372 1_565 S
C814 C817 1.474 1_565 S
C815 C812 1.382 1_545 S
C815 C816 1.387 . S
C815 H838 0.930 . S
C816 C814 1.372 1_545 S
C816 C815 1.387 . S
C816 H839 0.931 . S
C817 C810 1.399 1_545 S
C817 C814 1.474 1_545 S
C817 N849 1.313 . S
C818 C819 1.384 . S
C818 C820 1.384 . S
C818 H840 0.931 . S
C819 C818 1.384 . S
C819 C822 1.382 1_565 S
C820 C818 1.384 . S
C820 C821 1.380 1_565 S
C820 H841 0.930 . S
C821 C820 1.380 1_545 S
C821 C823 1.385 . S
C821 C824 1.497 . S
C822 C819 1.382 1_545 S
C822 C823 1.387 . S
C822 H842 0.930 . S
C823 C821 1.385 . S
C823 C822 1.387 . S
C823 H843 0.931 . S
C824 C821 1.497 . S
C824 C831 1.399 1_545 S
C824 N849 1.363 . S
C825 C826 1.384 . S
C825 C827 1.384 . S
C825 H844 0.931 . S
C826 C825 1.384 . S
C826 C829 1.382 1_545 S
C827 C825 1.384 . S
C827 C828 1.416 . S
C827 H845 0.930 . S
C828 C827 1.416 . S
C828 C830 1.364 1_545 S
C828 C831 1.474 1_545 S
C829 C826 1.382 1_565 S
C829 C830 1.387 . S
C829 H846 0.930 . S
C830 C828 1.364 1_565 S
C830 C829 1.387 . S
C830 H847 0.931 . S
C831 C824 1.399 1_565 S
C831 C828 1.474 1_565 S
C831 N848 1.313 . S
H832 C804 0.931 . S
H833 C806 0.930 . S
H834 C808 0.930 . S
H835 C809 0.931 . S
H836 C811 0.931 . S
H837 C813 0.930 . S
H838 C815 0.930 . S
H839 C816 0.931 . S
H840 C818 0.931 . S
H841 C820 0.930 . S
H842 C822 0.930 . S
H843 C823 0.931 . S
H844 C825 0.931 . S
H845 C827 0.930 . S
H846 C829 0.930 . S
H847 C830 0.931 . S
N848 C810 1.363 . S
N848 C831 1.313 . S
N849 C817 1.313 . S
N849 C824 1.363 . S
C850 C851 1.384 . S
C850 C852 1.384 . S
C850 H878 0.931 . S
C851 C850 1.384 . S
C851 C854 1.382 1_655 S
C852 C850 1.384 . S
C852 C853 1.430 . S
C852 H879 0.930 . S
C853 C852 1.430 . S
C853 C855 1.357 1_655 S
C853 C856 1.463 . S
C854 C851 1.382 1_455 S
C854 C855 1.387 . S
C854 H880 0.930 . S
C855 C853 1.357 1_455 S
C855 C854 1.387 . S
C855 H881 0.931 . S
C856 C853 1.463 . S
C856 C863 1.399 . S
C856 N894 1.321 1_655 S
C857 C858 1.384 . S
C857 C859 1.384 . S
C857 H882 0.931 . S
C858 C857 1.384 . S
C858 C861 1.382 1_455 S
C859 C857 1.384 . S
C859 C860 1.381 1_455 S
C859 H883 0.930 . S
C860 C859 1.381 1_655 S
C860 C862 1.382 . S
C860 C863 1.498 . S
C861 C858 1.382 1_655 S
C861 C862 1.387 . S
C861 H884 0.930 . S
C862 C860 1.382 . S
C862 C861 1.387 . S
C862 H885 0.931 . S
C863 C856 1.399 . S
C863 C860 1.498 . S
C863 N895 1.360 . S
C864 C865 1.384 . S
C864 C866 1.384 . S
C864 H886 0.931 . S
C865 C864 1.384 . S
C865 C868 1.382 1_455 S
C866 C864 1.384 . S
C866 C867 1.414 . S
C866 H887 0.930 . S
C867 C866 1.414 . S
C867 C869 1.365 1_455 S
C867 C870 1.470 1_455 S
C868 C865 1.382 1_655 S
C868 C869 1.387 . S
C868 H888 0.930 . S
C869 C867 1.365 1_655 S
C869 C868 1.387 . S
C869 H889 0.931 . S
C870 C867 1.470 1_655 S
C870 C877 1.399 1_655 S
C870 N895 1.314 . S
C871 C872 1.384 . S
C871 C873 1.384 . S
C871 H890 0.931 . S
C872 C871 1.384 . S
C872 C875 1.382 1_655 S
C873 C871 1.384 . S
C873 C874 1.381 . S
C873 H891 0.930 . S
C874 C873 1.381 . S
C874 C876 1.382 1_655 S
C874 C877 1.491 1_655 S
C875 C872 1.382 1_455 S
C875 C876 1.387 . S
C875 H892 0.930 . S
C876 C874 1.382 1_455 S
C876 C875 1.387 . S
C876 H893 0.931 . S
C877 C870 1.399 1_455 S
C877 C874 1.491 1_455 S
C877 N894 1.360 . S
H878 C850 0.931 . S
H879 C852 0.930 . S
H880 C854 0.930 . S
H881 C855 0.931 . S
H882 C857 0.931 . S
H883 C859 0.930 . S
H884 C861 0.930 . S
H885 C862 0.931 . S
H886 C864 0.931 . S
H887 C866 0.930 . S
H888 C868 0.930 . S
H889 C869 0.931 . S
H890 C871 0.931 . S
H891 C873 0.930 . S
H892 C875 0.930 . S
H893 C876 0.931 . S
N894 C856 1.321 1_455 S
N894 C877 1.360 . S
N895 C863 1.360 . S
N895 C870 1.314 . S
C896 C897 1.384 . S
C896 C898 1.384 . S
C896 H924 0.931 . S
C897 C896 1.384 . S
C897 C900 1.382 . S
C898 C896 1.384 . S
C898 C899 1.381 . S
C898 H925 0.930 . S
C899 C898 1.381 . S
C899 C901 1.381 . S
C899 C902 1.487 . S
C900 C897 1.382 . S
C900 C901 1.387 . S
C900 H926 0.930 . S
C901 C899 1.381 . S
C901 C900 1.387 . S
C901 H927 0.931 . S
C902 C899 1.487 . S
C902 C909 1.399 . S
C902 N940 1.343 . S
C903 C904 1.384 . S
C903 C905 1.384 . S
C903 H928 0.931 . S
C904 C903 1.384 . S
C904 C907 1.382 . S
C905 C903 1.384 . S
C905 C906 1.381 . S
C905 H929 0.930 . S
C906 C905 1.381 . S
C906 C908 1.381 . S
C906 C909 1.487 . S
C907 C904 1.382 . S
C907 C908 1.387 . S
C907 H930 0.930 . S
C908 C906 1.381 . S
C908 C907 1.387 . S
C908 H931 0.931 . S
C909 C902 1.399 . S
C909 C906 1.487 . S
C909 N941 1.343 . S
C910 C911 1.384 . S
C910 C912 1.384 . S
C910 H932 0.931 . S
C911 C910 1.384 . S
C911 C914 1.382 . S
C912 C910 1.384 . S
C912 C913 1.381 . S
C912 H933 0.930 . S
C913 C912 1.381 . S
C913 C915 1.381 . S
C913 C916 1.487 . S
C914 C911 1.382 . S
C914 C915 1.387 . S
C914 H934 0.930 . S
C915 C913 1.381 . S
C915 C914 1.387 . S
C915 H935 0.931 . S
C916 C913 1.487 . S
C916 C923 1.399 . S
C916 N941 1.343 . S
C917 C918 1.384 . S
C917 C919 1.384 . S
C917 H936 0.931 . S
C918 C917 1.384 . S
C918 C921 1.382 . S
C919 C917 1.384 . S
C919 C920 1.381 . S
C919 H937 0.930 . S
C920 C919 1.381 . S
C920 C922 1.381 . S
C920 C923 1.487 . S
C921 C918 1.382 . S
C921 C922 1.387 . S
C921 H938 0.930 . S
C922 C920 1.381 . S
C922 C921 1.387 . S
C922 H939 0.931 . S
C923 C916 1.399 . S
C923 C920 1.487 . S
C923 N940 1.343 . S
H924 C896 0.931 . S
H925 C898 0.930 . S
H926 C900 0.930 . S
H927 C901 0.931 . S
H928 C903 0.931 . S
H929 C905 0.930 . S
H930 C907 0.930 . S
H931 C908 0.931 . S
H932 C910 0.931 . S
H933 C912 0.930 . S
H934 C914 0.930 . S
H935 C915 0.931 . S
H936 C917 0.931 . S
H937 C919 0.930 . S
H938 C921 0.930 . S
H939 C922 0.931 . S
N940 C902 1.343 . S
N940 C923 1.343 . S
N941 C909 1.343 . S
N941 C916 1.343 . S
C942 C943 1.384 . S
C942 C944 1.384 . S
C942 H970 0.931 . S
C943 C942 1.384 . S
C943 C946 1.382 . S
C944 C942 1.384 . S
C944 C945 1.381 . S
C944 H971 0.930 . S
C945 C944 1.381 . S
C945 C947 1.381 . S
C945 C948 1.487 . S
C946 C943 1.382 . S
C946 C947 1.387 . S
C946 H972 0.930 . S
C947 C945 1.381 . S
C947 C946 1.387 . S
C947 H973 0.931 . S
C948 C945 1.487 . S
C948 C955 1.399 . S
C948 N986 1.343 . S
C949 C950 1.384 . S
C949 C951 1.384 . S
C949 H974 0.931 . S
C950 C949 1.384 . S
C950 C953 1.382 . S
C951 C949 1.384 . S
C951 C952 1.381 . S
C951 H975 0.930 . S
C952 C951 1.381 . S
C952 C954 1.381 . S
C952 C955 1.487 . S
C953 C950 1.382 . S
C953 C954 1.387 . S
C953 H976 0.930 . S
C954 C952 1.381 . S
C954 C953 1.387 . S
C954 H977 0.931 . S
C955 C948 1.399 . S
C955 C952 1.487 . S
C955 N987 1.343 . S
C956 C957 1.384 . S
C956 C958 1.384 . S
C956 H978 0.931 . S
C957 C956 1.384 . S
C957 C960 1.382 . S
C958 C956 1.384 . S
C958 C959 1.381 . S
C958 H979 0.930 . S
C959 C958 1.381 . S
C959 C961 1.381 . S
C959 C962 1.487 . S
C960 C957 1.382 . S
C960 C961 1.387 . S
C960 H980 0.930 . S
C961 C959 1.381 . S
C961 C960 1.387 . S
C961 H981 0.931 . S
C962 C959 1.487 . S
C962 C969 1.399 . S
C962 N987 1.343 . S
C963 C964 1.384 . S
C963 C965 1.384 . S
C963 H982 0.931 . S
C964 C963 1.384 . S
C964 C967 1.382 . S
C965 C963 1.384 . S
C965 C966 1.381 . S
C965 H983 0.930 . S
C966 C965 1.381 . S
C966 C968 1.381 . S
C966 C969 1.487 . S
C967 C964 1.382 . S
C967 C968 1.387 . S
C967 H984 0.930 . S
C968 C966 1.381 . S
C968 C967 1.387 . S
C968 H985 0.931 . S
C969 C962 1.399 . S
C969 C966 1.487 . S
C969 N986 1.343 . S
H970 C942 0.931 . S
H971 C944 0.930 . S
H972 C946 0.930 . S
H973 C947 0.931 . S
H974 C949 0.931 . S
H975 C951 0.930 . S
H976 C953 0.930 . S
H977 C954 0.931 . S
H978 C956 0.931 . S
H979 C958 0.930 . S
H980 C960 0.930 . S
H981 C961 0.931 . S
H982 C963 0.931 . S
H983 C965 0.930 . S
H984 C967 0.930 . S
H985 C968 0.931 . S
N986 C948 1.343 . S
N986 C969 1.343 . S
N987 C955 1.343 . S
N987 C962 1.343 . S
C988 C989 1.384 . S
C988 C990 1.384 . S
C988 H1016 0.931 . S
C989 C988 1.384 . S
C989 C992 1.382 . S
C990 C988 1.384 . S
C990 C991 1.381 . S
C990 H1017 0.930 . S
C991 C990 1.381 . S
C991 C993 1.381 . S
C991 C994 1.487 . S
C992 C989 1.382 . S
C992 C993 1.387 . S
C992 H1018 0.930 . S
C993 C991 1.381 . S
C993 C992 1.387 . S
C993 H1019 0.931 . S
C994 C991 1.487 . S
C994 C1001 1.399 . S
C994 N1032 1.343 . S
C995 C996 1.384 . S
C995 C997 1.384 . S
C995 H1020 0.931 . S
C996 C995 1.384 . S
C996 C999 1.382 . S
C997 C995 1.384 . S
C997 C998 1.381 . S
C997 H1021 0.930 . S
C998 C997 1.381 . S
C998 C1000 1.381 . S
C998 C1001 1.487 . S
C999 C996 1.382 . S
C999 C1000 1.387 . S
C999 H1022 0.930 . S
C1000 C998 1.381 . S
C1000 C999 1.387 . S
C1000 H1023 0.931 . S
C1001 C994 1.399 . S
C1001 C998 1.487 . S
C1001 N1033 1.343 . S
C1002 C1003 1.384 . S
C1002 C1004 1.384 . S
C1002 H1024 0.931 . S
C1003 C1002 1.384 . S
C1003 C1006 1.382 . S
C1004 C1002 1.384 . S
C1004 C1005 1.381 . S
C1004 H1025 0.930 . S
C1005 C1004 1.381 . S
C1005 C1007 1.381 . S
C1005 C1008 1.487 . S
C1006 C1003 1.382 . S
C1006 C1007 1.387 . S
C1006 H1026 0.930 . S
C1007 C1005 1.381 . S
C1007 C1006 1.387 . S
C1007 H1027 0.931 . S
C1008 C1005 1.487 . S
C1008 C1015 1.399 . S
C1008 N1033 1.343 . S
C1009 C1010 1.384 . S
C1009 C1011 1.384 . S
C1009 H1028 0.931 . S
C1010 C1009 1.384 . S
C1010 C1013 1.382 . S
C1011 C1009 1.384 . S
C1011 C1012 1.381 . S
C1011 H1029 0.930 . S
C1012 C1011 1.381 . S
C1012 C1014 1.381 . S
C1012 C1015 1.487 . S
C1013 C1010 1.382 . S
C1013 C1014 1.387 . S
C1013 H1030 0.930 . S
C1014 C1012 1.381 . S
C1014 C1013 1.387 . S
C1014 H1031 0.931 . S
C1015 C1008 1.399 . S
C1015 C1012 1.487 . S
C1015 N1032 1.343 . S
H1016 C988 0.931 . S
H1017 C990 0.930 . S
H1018 C992 0.930 . S
H1019 C993 0.931 . S
H1020 C995 0.931 . S
H1021 C997 0.930 . S
H1022 C999 0.930 . S
H1023 C1000 0.931 . S
H1024 C1002 0.931 . S
H1025 C1004 0.930 . S
H1026 C1006 0.930 . S
H1027 C1007 0.931 . S
H1028 C1009 0.931 . S
H1029 C1011 0.930 . S
H1030 C1013 0.930 . S
H1031 C1014 0.931 . S
N1032 C994 1.343 . S
N1032 C1015 1.343 . S
N1033 C1001 1.343 . S
N1033 C1008 1.343 . S
C1034 C1035 1.384 . S
C1034 C1036 1.384 . S
C1034 H1062 0.931 . S
C1035 C1034 1.384 . S
C1035 C1038 1.382 . S
C1036 C1034 1.384 . S
C1036 C1037 1.381 . S
C1036 H1063 0.930 . S
C1037 C1036 1.381 . S
C1037 C1039 1.381 . S
C1037 C1040 1.487 . S
C1038 C1035 1.382 . S
C1038 C1039 1.387 . S
C1038 H1064 0.930 . S
C1039 C1037 1.381 . S
C1039 C1038 1.387 . S
C1039 H1065 0.931 . S
C1040 C1037 1.487 . S
C1040 C1047 1.399 . S
C1040 N1078 1.343 . S
C1041 C1042 1.384 . S
C1041 C1043 1.384 . S
C1041 H1066 0.931 . S
C1042 C1041 1.384 . S
C1042 C1045 1.382 . S
C1043 C1041 1.384 . S
C1043 C1044 1.381 . S
C1043 H1067 0.930 . S
C1044 C1043 1.381 . S
C1044 C1046 1.381 . S
C1044 C1047 1.487 . S
C1045 C1042 1.382 . S
C1045 C1046 1.387 . S
C1045 H1068 0.930 . S
C1046 C1044 1.381 . S
C1046 C1045 1.387 . S
C1046 H1069 0.931 . S
C1047 C1040 1.399 . S
C1047 C1044 1.487 . S
C1047 N1079 1.343 . S
C1048 C1049 1.384 . S
C1048 C1050 1.384 . S
C1048 H1070 0.931 . S
C1049 C1048 1.384 . S
C1049 C1052 1.382 . S
C1050 C1048 1.384 . S
C1050 C1051 1.381 . S
C1050 H1071 0.930 . S
C1051 C1050 1.381 . S
C1051 C1053 1.381 . S
C1051 C1054 1.487 . S
C1052 C1049 1.382 . S
C1052 C1053 1.387 . S
C1052 H1072 0.930 . S
C1053 C1051 1.381 . S
C1053 C1052 1.387 . S
C1053 H1073 0.931 . S
C1054 C1051 1.487 . S
C1054 C1061 1.399 . S
C1054 N1079 1.343 . S
C1055 C1056 1.384 . S
C1055 C1057 1.384 . S
C1055 H1074 0.931 . S
C1056 C1055 1.384 . S
C1056 C1059 1.382 . S
C1057 C1055 1.384 . S
C1057 C1058 1.381 . S
C1057 H1075 0.930 . S
C1058 C1057 1.381 . S
C1058 C1060 1.381 . S
C1058 C1061 1.487 . S
C1059 C1056 1.382 . S
C1059 C1060 1.387 . S
C1059 H1076 0.930 . S
C1060 C1058 1.381 . S
C1060 C1059 1.387 . S
C1060 H1077 0.931 . S
C1061 C1054 1.399 . S
C1061 C1058 1.487 . S
C1061 N1078 1.343 . S
H1062 C1034 0.931 . S
H1063 C1036 0.930 . S
H1064 C1038 0.930 . S
H1065 C1039 0.931 . S
H1066 C1041 0.931 . S
H1067 C1043 0.930 . S
H1068 C1045 0.930 . S
H1069 C1046 0.931 . S
H1070 C1048 0.931 . S
H1071 C1050 0.930 . S
H1072 C1052 0.930 . S
H1073 C1053 0.931 . S
H1074 C1055 0.931 . S
H1075 C1057 0.930 . S
H1076 C1059 0.930 . S
H1077 C1060 0.931 . S
N1078 C1040 1.343 . S
N1078 C1061 1.343 . S
N1079 C1047 1.343 . S
N1079 C1054 1.343 . S
H1080 C1086 0.937 1_455 S
H1081 C1090 0.930 . S
H1082 C1095 0.929 . S
H1083 C1093 0.966 1_455 S
H1084 C1088 0.929 . S
H1085 C1094 0.966 1_455 S
C1086 H1080 0.937 1_655 S
C1086 C1087 1.338 . S
C1086 C1094 1.380 . S
C1087 C1086 1.338 . S
C1087 C1095 1.433 . S
C1088 H1084 0.929 . S
C1088 C1090 1.378 . S
C1088 C1092 1.350 . S
C1089 C1092 1.463 . S
C1089 C1094 1.349 . S
C1089 N1097 1.427 . S
C1090 H1081 0.930 . S
C1090 C1088 1.378 . S
C1090 C1091 1.367 . S
C1091 C1090 1.367 . S
C1091 C1093 1.431 . S
C1092 C1088 1.350 . S
C1092 C1089 1.463 . S
C1092 N1096 1.407 . S
C1093 H1083 0.966 1_655 S
C1093 C1091 1.431 . S
C1093 N1096 1.387 . S
C1094 H1085 0.966 1_655 S
C1094 C1086 1.380 . S
C1094 C1089 1.349 . S
C1095 H1082 0.929 . S
C1095 C1087 1.433 . S
C1095 N1097 1.384 . S
N1096 C1092 1.407 . S
N1096 C1093 1.387 . S
N1097 C1089 1.427 . S
N1097 C1095 1.384 . S
H1098 C1104 0.930 . S
H1099 C1108 0.930 . S
H1100 C1113 0.929 . S
H1101 C1111 0.929 . S
H1102 C1106 0.929 . S
H1103 C1112 0.929 . S
C1104 H1098 0.930 . S
C1104 C1105 1.367 . S
C1104 C1112 1.378 . S
C1105 C1104 1.367 . S
C1105 C1113 1.433 . S
C1106 H1102 0.929 . S
C1106 C1108 1.378 . S
C1106 C1110 1.350 . S
C1107 C1110 1.463 . S
C1107 C1112 1.350 . S
C1107 N1115 1.427 . S
C1108 H1099 0.930 . S
C1108 C1106 1.378 . S
C1108 C1109 1.367 . S
C1109 C1108 1.367 . S
C1109 C1111 1.433 . S
C1110 C1106 1.350 . S
C1110 C1107 1.463 . S
C1110 N1114 1.427 . S
C1111 H1101 0.929 . S
C1111 C1109 1.433 . S
C1111 N1114 1.384 . S
C1112 H1103 0.929 . S
C1112 C1104 1.378 . S
C1112 C1107 1.350 . S
C1113 H1100 0.929 . S
C1113 C1105 1.433 . S
C1113 N1115 1.384 . S
N1114 C1110 1.427 . S
N1114 C1111 1.384 . S
N1115 C1107 1.427 . S
N1115 C1113 1.384 . S
H1116 C1122 0.930 . S
H1117 C1126 0.930 . S
H1118 C1131 0.929 . S
H1119 C1129 0.929 . S
H1120 C1124 0.929 . S
H1121 C1130 0.929 . S
C1122 H1116 0.930 . S
C1122 C1123 1.367 1_565 S
C1122 C1130 1.378 . S
C1123 C1122 1.367 1_545 S
C1123 C1131 1.433 . S
C1124 H1120 0.929 . S
C1124 C1126 1.378 . S
C1124 C1128 1.350 . S
C1125 C1128 1.463 . S
C1125 C1130 1.350 1_545 S
C1125 N1133 1.427 . S
C1126 H1117 0.930 . S
C1126 C1124 1.378 . S
C1126 C1127 1.367 . S
C1127 C1126 1.367 . S
C1127 C1129 1.433 1_545 S
C1128 C1124 1.350 . S
C1128 C1125 1.463 . S
C1128 N1132 1.427 1_545 S
C1129 H1119 0.929 . S
C1129 C1127 1.433 1_565 S
C1129 N1132 1.384 . S
C1130 H1121 0.929 . S
C1130 C1122 1.378 . S
C1130 C1125 1.350 1_565 S
C1131 H1118 0.929 . S
C1131 C1123 1.433 . S
C1131 N1133 1.384 . S
N1132 C1128 1.427 1_565 S
N1132 C1129 1.384 . S
N1133 C1125 1.427 . S
N1133 C1131 1.384 . S
H1134 C1140 0.930 . S
H1135 C1144 0.930 . S
H1136 C1149 0.929 . S
H1137 C1147 0.929 . S
H1138 C1142 0.929 . S
H1139 C1148 0.929 . S
C1140 H1134 0.930 . S
C1140 C1141 1.368 1_545 S
C1140 C1148 1.378 . S
C1141 C1140 1.368 1_565 S
C1141 C1149 1.431 . S
C1142 H1138 0.929 . S
C1142 C1144 1.378 . S
C1142 C1146 1.350 . S
C1143 C1146 1.483 . S
C1143 C1148 1.305 1_565 S
C1143 N1151 1.457 . S
C1144 H1135 0.930 . S
C1144 C1142 1.378 . S
C1144 C1145 1.367 . S
C1145 C1144 1.367 . S
C1145 C1147 1.433 1_565 S
C1146 C1142 1.350 . S
C1146 C1143 1.483 . S
C1146 N1150 1.427 1_565 S
C1147 H1137 0.929 . S
C1147 C1145 1.433 1_545 S
C1147 N1150 1.384 . S
C1148 H1139 0.929 . S
C1148 C1140 1.378 . S
C1148 C1143 1.305 1_545 S
C1149 H1136 0.929 . S
C1149 C1141 1.431 . S
C1149 N1151 1.384 . S
N1150 C1146 1.427 1_545 S
N1150 C1147 1.384 . S
N1151 C1143 1.457 . S
N1151 C1149 1.384 . S
H1152 C1158 0.930 . S
H1153 C1162 0.930 . S
H1154 C1167 0.929 . S
H1155 C1165 0.929 . S
H1156 C1160 0.929 . S
H1157 C1166 0.929 . S
C1158 H1152 0.930 . S
C1158 C1159 1.367 . S
C1158 C1166 1.378 . S
C1159 C1158 1.367 . S
C1159 C1167 1.433 1_455 S
C1160 H1156 0.929 . S
C1160 C1162 1.378 . S
C1160 C1164 1.350 1_655 S
C1161 C1164 1.463 . S
C1161 C1166 1.350 . S
C1161 N1169 1.427 1_455 S
C1162 H1153 0.930 . S
C1162 C1160 1.378 . S
C1162 C1163 1.367 1_655 S
C1163 C1162 1.367 1_455 S
C1163 C1165 1.433 . S
C1164 C1160 1.350 1_455 S
C1164 C1161 1.463 . S
C1164 N1168 1.427 . S
C1165 H1155 0.929 . S
C1165 C1163 1.433 . S
C1165 N1168 1.384 . S
C1166 H1157 0.929 . S
C1166 C1158 1.378 . S
C1166 C1161 1.350 . S
C1167 H1154 0.929 . S
C1167 C1159 1.433 1_655 S
C1167 N1169 1.384 . S
N1168 C1164 1.427 . S
N1168 C1165 1.384 . S
N1169 C1161 1.427 1_655 S
N1169 C1167 1.384 . S
H1170 C1176 0.930 . S
H1171 C1180 0.930 . S
H1172 C1185 0.929 . S
H1173 C1183 0.929 . S
H1174 C1178 0.929 . S
H1175 C1184 0.929 . S
C1176 H1170 0.930 . S
C1176 C1177 1.367 . S
C1176 C1184 1.378 . S
C1177 C1176 1.367 . S
C1177 C1185 1.433 . S
C1178 H1174 0.929 . S
C1178 C1180 1.378 . S
C1178 C1182 1.350 . S
C1179 C1182 1.463 . S
C1179 C1184 1.350 . S
C1179 N1187 1.427 . S
C1180 H1171 0.930 . S
C1180 C1178 1.378 . S
C1180 C1181 1.367 . S
C1181 C1180 1.367 . S
C1181 C1183 1.433 . S
C1182 C1178 1.350 . S
C1182 C1179 1.463 . S
C1182 N1186 1.427 . S
C1183 H1173 0.929 . S
C1183 C1181 1.433 . S
C1183 N1186 1.384 . S
C1184 H1175 0.929 . S
C1184 C1176 1.378 . S
C1184 C1179 1.350 . S
C1185 H1172 0.929 . S
C1185 C1177 1.433 . S
C1185 N1187 1.384 . S
N1186 C1182 1.427 . S
N1186 C1183 1.384 . S
N1187 C1179 1.427 . S
N1187 C1185 1.384 . S
H1188 C1194 0.930 . S
H1189 C1198 0.930 . S
H1190 C1203 0.929 . S
H1191 C1201 0.929 . S
H1192 C1196 0.929 . S
H1193 C1202 0.929 . S
C1194 H1188 0.930 . S
C1194 C1195 1.367 . S
C1194 C1202 1.378 . S
C1195 C1194 1.367 . S
C1195 C1203 1.433 1_455 S
C1196 H1192 0.929 . S
C1196 C1198 1.378 . S
C1196 C1200 1.350 1_655 S
C1197 C1200 1.463 . S
C1197 C1202 1.350 . S
C1197 N1205 1.427 1_455 S
C1198 H1189 0.930 . S
C1198 C1196 1.378 . S
C1198 C1199 1.367 1_655 S
C1199 C1198 1.367 1_455 S
C1199 C1201 1.433 . S
C1200 C1196 1.350 1_455 S
C1200 C1197 1.463 . S
C1200 N1204 1.427 . S
C1201 H1191 0.929 . S
C1201 C1199 1.433 . S
C1201 N1204 1.384 . S
C1202 H1193 0.929 . S
C1202 C1194 1.378 . S
C1202 C1197 1.350 . S
C1203 H1190 0.929 . S
C1203 C1195 1.433 1_655 S
C1203 N1205 1.384 . S
N1204 C1200 1.427 . S
N1204 C1201 1.384 . S
N1205 C1197 1.427 1_655 S
N1205 C1203 1.384 . S
H1206 C1212 0.930 . S
H1207 C1216 0.930 . S
H1208 C1221 0.929 . S
H1209 C1219 0.929 . S
H1210 C1214 0.929 . S
H1211 C1220 0.929 . S
C1212 H1206 0.930 . S
C1212 C1213 1.367 . S
C1212 C1220 1.378 . S
C1213 C1212 1.367 . S
C1213 C1221 1.433 . S
C1214 H1210 0.929 . S
C1214 C1216 1.378 . S
C1214 C1218 1.350 . S
C1215 C1218 1.463 . S
C1215 C1220 1.350 . S
C1215 N1223 1.427 . S
C1216 H1207 0.930 . S
C1216 C1214 1.378 . S
C1216 C1217 1.367 . S
C1217 C1216 1.367 . S
C1217 C1219 1.433 . S
C1218 C1214 1.350 . S
C1218 C1215 1.463 . S
C1218 N1222 1.427 . S
C1219 H1209 0.929 . S
C1219 C1217 1.433 . S
C1219 N1222 1.384 . S
C1220 H1211 0.929 . S
C1220 C1212 1.378 . S
C1220 C1215 1.350 . S
C1221 H1208 0.929 . S
C1221 C1213 1.433 . S
C1221 N1223 1.384 . S
N1222 C1218 1.427 . S
N1222 C1219 1.384 . S
N1223 C1215 1.427 . S
N1223 C1221 1.384 . S
H1224 C1230 0.930 . S
H1225 C1234 0.930 . S
H1226 C1239 0.929 . S
H1227 C1237 0.929 . S
H1228 C1232 0.929 . S
H1229 C1238 0.929 . S
C1230 H1224 0.930 . S
C1230 C1231 1.367 1_545 S
C1230 C1238 1.378 . S
C1231 C1230 1.367 1_565 S
C1231 C1239 1.433 . S
C1232 H1228 0.929 . S
C1232 C1234 1.378 . S
C1232 C1236 1.350 . S
C1233 C1236 1.463 . S
C1233 C1238 1.350 1_565 S
C1233 N1241 1.427 . S
C1234 H1225 0.930 . S
C1234 C1232 1.378 . S
C1234 C1235 1.367 . S
C1235 C1234 1.367 . S
C1235 C1237 1.433 1_565 S
C1236 C1232 1.350 . S
C1236 C1233 1.463 . S
C1236 N1240 1.427 1_565 S
C1237 H1227 0.929 . S
C1237 C1235 1.433 1_545 S
C1237 N1240 1.384 . S
C1238 H1229 0.929 . S
C1238 C1230 1.378 . S
C1238 C1233 1.350 1_545 S
C1239 H1226 0.929 . S
C1239 C1231 1.433 . S
C1239 N1241 1.384 . S
N1240 C1236 1.427 1_545 S
N1240 C1237 1.384 . S
N1241 C1233 1.427 . S
N1241 C1239 1.384 . S
H1242 C1248 0.930 . S
H1243 C1252 0.930 . S
H1244 C1257 0.929 . S
H1245 C1255 0.929 . S
H1246 C1250 0.929 . S
H1247 C1256 0.929 . S
C1248 H1242 0.930 . S
C1248 C1249 1.367 . S
C1248 C1256 1.378 . S
C1249 C1248 1.367 . S
C1249 C1257 1.433 1_545 S
C1250 H1246 0.929 . S
C1250 C1252 1.378 . S
C1250 C1254 1.350 1_565 S
C1251 C1254 1.463 . S
C1251 C1256 1.350 . S
C1251 N1259 1.427 1_545 S
C1252 H1243 0.930 . S
C1252 C1250 1.378 . S
C1252 C1253 1.367 1_565 S
C1253 C1252 1.367 1_545 S
C1253 C1255 1.433 . S
C1254 C1250 1.350 1_545 S
C1254 C1251 1.463 . S
C1254 N1258 1.427 . S
C1255 H1245 0.929 . S
C1255 C1253 1.433 . S
C1255 N1258 1.384 . S
C1256 H1247 0.929 . S
C1256 C1248 1.378 . S
C1256 C1251 1.350 . S
C1257 H1244 0.929 . S
C1257 C1249 1.433 1_565 S
C1257 N1259 1.384 . S
N1258 C1254 1.427 . S
N1258 C1255 1.384 . S
N1259 C1251 1.427 1_565 S
N1259 C1257 1.384 . S
H1260 C1266 0.930 . S
H1261 C1270 0.930 . S
H1262 C1275 0.929 . S
H1263 C1273 0.929 . S
H1264 C1268 0.929 . S
H1265 C1274 0.929 . S
C1266 H1260 0.930 . S
C1266 C1267 1.367 1_455 S
C1266 C1274 1.378 . S
C1267 C1266 1.367 1_655 S
C1267 C1275 1.433 . S
C1268 H1264 0.929 . S
C1268 C1270 1.378 . S
C1268 C1272 1.350 . S
C1269 C1272 1.463 . S
C1269 C1274 1.350 1_655 S
C1269 N1277 1.427 . S
C1270 H1261 0.930 . S
C1270 C1268 1.378 . S
C1270 C1271 1.367 . S
C1271 C1270 1.367 . S
C1271 C1273 1.433 1_655 S
C1272 C1268 1.350 . S
C1272 C1269 1.463 . S
C1272 N1276 1.427 1_655 S
C1273 H1263 0.929 . S
C1273 C1271 1.433 1_455 S
C1273 N1276 1.384 . S
C1274 H1265 0.929 . S
C1274 C1266 1.378 . S
C1274 C1269 1.350 1_455 S
C1275 H1262 0.929 . S
C1275 C1267 1.433 . S
C1275 N1277 1.384 . S
N1276 C1272 1.427 1_455 S
N1276 C1273 1.384 . S
N1277 C1269 1.427 . S
N1277 C1275 1.384 . S
H1278 C1284 0.930 . S
H1279 C1288 0.930 . S
H1280 C1293 0.929 . S
H1281 C1291 0.929 . S
H1282 C1286 0.929 . S
H1283 C1292 0.929 . S
C1284 H1278 0.930 . S
C1284 C1285 1.367 . S
C1284 C1292 1.378 . S
C1285 C1284 1.367 . S
C1285 C1293 1.433 . S
C1286 H1282 0.929 . S
C1286 C1288 1.378 . S
C1286 C1290 1.350 . S
C1287 C1290 1.463 . S
C1287 C1292 1.350 . S
C1287 N1295 1.427 . S
C1288 H1279 0.930 . S
C1288 C1286 1.378 . S
C1288 C1289 1.367 . S
C1289 C1288 1.367 . S
C1289 C1291 1.433 . S
C1290 C1286 1.350 . S
C1290 C1287 1.463 . S
C1290 N1294 1.427 . S
C1291 H1281 0.929 . S
C1291 C1289 1.433 . S
C1291 N1294 1.384 . S
C1292 H1283 0.929 . S
C1292 C1284 1.378 . S
C1292 C1287 1.350 . S
C1293 H1280 0.929 . S
C1293 C1285 1.433 . S
C1293 N1295 1.384 . S
N1294 C1290 1.427 . S
N1294 C1291 1.384 . S
N1295 C1287 1.427 . S
N1295 C1293 1.384 . S
H1296 C1302 0.930 . S
H1297 C1306 0.930 . S
H1298 C1311 0.929 . S
H1299 C1309 0.929 . S
H1300 C1304 0.929 . S
H1301 C1310 0.929 . S
C1302 H1296 0.930 . S
C1302 C1303 1.367 . S
C1302 C1310 1.378 . S
C1303 C1302 1.367 . S
C1303 C1311 1.433 . S
C1304 H1300 0.929 . S
C1304 C1306 1.378 . S
C1304 C1308 1.350 . S
C1305 C1308 1.463 . S
C1305 C1310 1.350 . S
C1305 N1313 1.427 . S
C1306 H1297 0.930 . S
C1306 C1304 1.378 . S
C1306 C1307 1.367 . S
C1307 C1306 1.367 . S
C1307 C1309 1.433 . S
C1308 C1304 1.350 . S
C1308 C1305 1.463 . S
C1308 N1312 1.427 . S
C1309 H1299 0.929 . S
C1309 C1307 1.433 . S
C1309 N1312 1.384 . S
C1310 H1301 0.929 . S
C1310 C1302 1.378 . S
C1310 C1305 1.350 . S
C1311 H1298 0.929 . S
C1311 C1303 1.433 . S
C1311 N1313 1.384 . S
N1312 C1308 1.427 . S
N1312 C1309 1.384 . S
N1313 C1305 1.427 . S
N1313 C1311 1.384 . S
H1314 C1320 0.930 . S
H1315 C1324 0.930 . S
H1316 C1329 0.929 . S
H1317 C1327 0.929 . S
H1318 C1322 0.929 . S
H1319 C1328 0.929 . S
C1320 H1314 0.930 . S
C1320 C1321 1.367 . S
C1320 C1328 1.378 . S
C1321 C1320 1.367 . S
C1321 C1329 1.433 . S
C1322 H1318 0.929 . S
C1322 C1324 1.378 . S
C1322 C1326 1.350 . S
C1323 C1326 1.463 . S
C1323 C1328 1.350 . S
C1323 N1331 1.427 . S
C1324 H1315 0.930 . S
C1324 C1322 1.378 . S
C1324 C1325 1.367 . S
C1325 C1324 1.367 . S
C1325 C1327 1.433 . S
C1326 C1322 1.350 . S
C1326 C1323 1.463 . S
C1326 N1330 1.427 . S
C1327 H1317 0.929 . S
C1327 C1325 1.433 . S
C1327 N1330 1.384 . S
C1328 H1319 0.929 . S
C1328 C1320 1.378 . S
C1328 C1323 1.350 . S
C1329 H1316 0.929 . S
C1329 C1321 1.433 . S
C1329 N1331 1.384 . S
N1330 C1326 1.427 . S
N1330 C1327 1.384 . S
N1331 C1323 1.427 . S
N1331 C1329 1.384 . S
H1332 C1338 0.930 . S
H1333 C1342 0.930 . S
H1334 C1347 0.929 . S
H1335 C1345 0.929 . S
H1336 C1340 0.929 . S
H1337 C1346 0.929 . S
C1338 H1332 0.930 . S
C1338 C1339 1.367 . S
C1338 C1346 1.378 . S
C1339 C1338 1.367 . S
C1339 C1347 1.433 . S
C1340 H1336 0.929 . S
C1340 C1342 1.378 . S
C1340 C1344 1.350 . S
C1341 C1344 1.463 . S
C1341 C1346 1.350 . S
C1341 N1349 1.427 . S
C1342 H1333 0.930 . S
C1342 C1340 1.378 . S
C1342 C1343 1.367 . S
C1343 C1342 1.367 . S
C1343 C1345 1.433 . S
C1344 C1340 1.350 . S
C1344 C1341 1.463 . S
C1344 N1348 1.427 . S
C1345 H1335 0.929 . S
C1345 C1343 1.433 . S
C1345 N1348 1.384 . S
C1346 H1337 0.929 . S
C1346 C1338 1.378 . S
C1346 C1341 1.350 . S
C1347 H1334 0.929 . S
C1347 C1339 1.433 . S
C1347 N1349 1.384 . S
N1348 C1344 1.427 . S
N1348 C1345 1.384 . S
N1349 C1341 1.427 . S
N1349 C1347 1.384 . S
H1350 C1356 0.930 . S
H1351 C1360 0.930 . S
H1352 C1365 0.929 . S
H1353 C1363 0.929 . S
H1354 C1358 0.929 . S
H1355 C1364 0.929 . S
C1356 H1350 0.930 . S
C1356 C1357 1.367 . S
C1356 C1364 1.378 . S
C1357 C1356 1.367 . S
C1357 C1365 1.433 . S
C1358 H1354 0.929 . S
C1358 C1360 1.378 . S
C1358 C1362 1.350 . S
C1359 C1362 1.463 . S
C1359 C1364 1.350 . S
C1359 N1367 1.427 . S
C1360 H1351 0.930 . S
C1360 C1358 1.378 . S
C1360 C1361 1.367 . S
C1361 C1360 1.367 . S
C1361 C1363 1.433 . S
C1362 C1358 1.350 . S
C1362 C1359 1.463 . S
C1362 N1366 1.427 . S
C1363 H1353 0.929 . S
C1363 C1361 1.433 . S
C1363 N1366 1.384 . S
C1364 H1355 0.929 . S
C1364 C1356 1.378 . S
C1364 C1359 1.350 . S
C1365 H1352 0.929 . S
C1365 C1357 1.433 . S
C1365 N1367 1.384 . S
N1366 C1362 1.427 . S
N1366 C1363 1.384 . S
N1367 C1359 1.427 . S
N1367 C1365 1.384 . S
H1368 C1374 0.930 . S
H1369 C1378 0.930 . S
H1370 C1383 0.929 . S
H1371 C1381 0.929 . S
H1372 C1376 0.929 . S
H1373 C1382 0.929 . S
C1374 H1368 0.930 . S
C1374 C1375 1.367 . S
C1374 C1382 1.378 . S
C1375 C1374 1.367 . S
C1375 C1383 1.433 . S
C1376 H1372 0.929 . S
C1376 C1378 1.378 . S
C1376 C1380 1.350 . S
C1377 C1380 1.463 . S
C1377 C1382 1.350 . S
C1377 N1385 1.427 . S
C1378 H1369 0.930 . S
C1378 C1376 1.378 . S
C1378 C1379 1.367 . S
C1379 C1378 1.367 . S
C1379 C1381 1.433 . S
C1380 C1376 1.350 . S
C1380 C1377 1.463 . S
C1380 N1384 1.427 . S
C1381 H1371 0.929 . S
C1381 C1379 1.433 . S
C1381 N1384 1.384 . S
C1382 H1373 0.929 . S
C1382 C1374 1.378 . S
C1382 C1377 1.350 . S
C1383 H1370 0.929 . S
C1383 C1375 1.433 . S
C1383 N1385 1.384 . S
N1384 C1380 1.427 . S
N1384 C1381 1.384 . S
N1385 C1377 1.427 . S
N1385 C1383 1.384 . S
H1386 C1392 0.930 . S
H1387 C1396 0.930 . S
H1388 C1401 0.929 . S
H1389 C1399 0.929 . S
H1390 C1394 0.929 . S
H1391 C1400 0.929 . S
C1392 H1386 0.930 . S
C1392 C1393 1.367 . S
C1392 C1400 1.378 . S
C1393 C1392 1.367 . S
C1393 C1401 1.433 . S
C1394 H1390 0.929 . S
C1394 C1396 1.378 . S
C1394 C1398 1.350 . S
C1395 C1398 1.463 . S
C1395 C1400 1.350 . S
C1395 N1403 1.427 . S
C1396 H1387 0.930 . S
C1396 C1394 1.378 . S
C1396 C1397 1.367 . S
C1397 C1396 1.367 . S
C1397 C1399 1.433 . S
C1398 C1394 1.350 . S
C1398 C1395 1.463 . S
C1398 N1402 1.427 . S
C1399 H1389 0.929 . S
C1399 C1397 1.433 . S
C1399 N1402 1.384 . S
C1400 H1391 0.929 . S
C1400 C1392 1.378 . S
C1400 C1395 1.350 . S
C1401 H1388 0.929 . S
C1401 C1393 1.433 . S
C1401 N1403 1.384 . S
N1402 C1398 1.427 . S
N1402 C1399 1.384 . S
N1403 C1395 1.427 . S
N1403 C1401 1.384 . S
H1404 C1410 0.930 . S
H1405 C1414 0.930 . S
H1406 C1419 0.929 . S
H1407 C1417 0.929 . S
H1408 C1412 0.929 . S
H1409 C1418 0.929 . S
C1410 H1404 0.930 . S
C1410 C1411 1.367 . S
C1410 C1418 1.378 . S
C1411 C1410 1.367 . S
C1411 C1419 1.433 . S
C1412 H1408 0.929 . S
C1412 C1414 1.378 . S
C1412 C1416 1.350 . S
C1413 C1416 1.463 . S
C1413 C1418 1.350 . S
C1413 N1421 1.427 . S
C1414 H1405 0.930 . S
C1414 C1412 1.378 . S
C1414 C1415 1.367 . S
C1415 C1414 1.367 . S
C1415 C1417 1.433 . S
C1416 C1412 1.350 . S
C1416 C1413 1.463 . S
C1416 N1420 1.427 . S
C1417 H1407 0.929 . S
C1417 C1415 1.433 . S
C1417 N1420 1.384 . S
C1418 H1409 0.929 . S
C1418 C1410 1.378 . S
C1418 C1413 1.350 . S
C1419 H1406 0.929 . S
C1419 C1411 1.433 . S
C1419 N1421 1.384 . S
N1420 C1416 1.427 . S
N1420 C1417 1.384 . S
N1421 C1413 1.427 . S
N1421 C1419 1.384 . S
H1422 C1428 0.930 . S
H1423 C1432 0.930 . S
H1424 C1437 0.929 . S
H1425 C1435 0.929 . S
H1426 C1430 0.929 . S
H1427 C1436 0.929 . S
C1428 H1422 0.930 . S
C1428 C1429 1.367 . S
C1428 C1436 1.378 . S
C1429 C1428 1.367 . S
C1429 C1437 1.433 . S
C1430 H1426 0.929 . S
C1430 C1432 1.378 . S
C1430 C1434 1.350 . S
C1431 C1434 1.463 . S
C1431 C1436 1.350 . S
C1431 N1439 1.427 . S
C1432 H1423 0.930 . S
C1432 C1430 1.378 . S
C1432 C1433 1.367 . S
C1433 C1432 1.367 . S
C1433 C1435 1.433 . S
C1434 C1430 1.350 . S
C1434 C1431 1.463 . S
C1434 N1438 1.427 . S
C1435 H1425 0.929 . S
C1435 C1433 1.433 . S
C1435 N1438 1.384 . S
C1436 H1427 0.929 . S
C1436 C1428 1.378 . S
C1436 C1431 1.350 . S
C1437 H1424 0.929 . S
C1437 C1429 1.433 . S
C1437 N1439 1.384 . S
N1438 C1434 1.427 . S
N1438 C1435 1.384 . S
N1439 C1431 1.427 . S
N1439 C1437 1.384 . S
H1440 C1446 0.930 . S
H1441 C1450 0.930 . S
H1442 C1455 0.929 . S
H1443 C1453 0.929 . S
H1444 C1448 0.929 . S
H1445 C1454 0.929 . S
C1446 H1440 0.930 . S
C1446 C1447 1.367 . S
C1446 C1454 1.378 . S
C1447 C1446 1.367 . S
C1447 C1455 1.433 . S
C1448 H1444 0.929 . S
C1448 C1450 1.378 . S
C1448 C1452 1.350 . S
C1449 C1452 1.463 . S
C1449 C1454 1.350 . S
C1449 N1457 1.427 . S
C1450 H1441 0.930 . S
C1450 C1448 1.378 . S
C1450 C1451 1.367 . S
C1451 C1450 1.367 . S
C1451 C1453 1.433 . S
C1452 C1448 1.350 . S
C1452 C1449 1.463 . S
C1452 N1456 1.427 . S
C1453 H1443 0.929 . S
C1453 C1451 1.433 . S
C1453 N1456 1.384 . S
C1454 H1445 0.929 . S
C1454 C1446 1.378 . S
C1454 C1449 1.350 . S
C1455 H1442 0.929 . S
C1455 C1447 1.433 . S
C1455 N1457 1.384 . S
N1456 C1452 1.427 . S
N1456 C1453 1.384 . S
N1457 C1449 1.427 . S
N1457 C1455 1.384 . S
H1458 C1464 0.930 . S
H1459 C1468 0.930 . S
H1460 C1473 0.929 . S
H1461 C1471 0.929 . S
H1462 C1466 0.929 . S
H1463 C1472 0.929 . S
C1464 H1458 0.930 . S
C1464 C1465 1.367 . S
C1464 C1472 1.378 . S
C1465 C1464 1.367 . S
C1465 C1473 1.433 . S
C1466 H1462 0.929 . S
C1466 C1468 1.378 . S
C1466 C1470 1.350 . S
C1467 C1470 1.463 . S
C1467 C1472 1.350 . S
C1467 N1475 1.427 . S
C1468 H1459 0.930 . S
C1468 C1466 1.378 . S
C1468 C1469 1.367 . S
C1469 C1468 1.367 . S
C1469 C1471 1.433 . S
C1470 C1466 1.350 . S
C1470 C1467 1.463 . S
C1470 N1474 1.427 . S
C1471 H1461 0.929 . S
C1471 C1469 1.433 . S
C1471 N1474 1.384 . S
C1472 H1463 0.929 . S
C1472 C1464 1.378 . S
C1472 C1467 1.350 . S
C1473 H1460 0.929 . S
C1473 C1465 1.433 . S
C1473 N1475 1.384 . S
N1474 C1470 1.427 . S
N1474 C1471 1.384 . S
N1475 C1467 1.427 . S
N1475 C1473 1.384 . S
H1476 C1482 0.930 . S
H1477 C1486 0.930 . S
H1478 C1491 0.929 . S
H1479 C1489 0.929 . S
H1480 C1484 0.929 . S
H1481 C1490 0.929 . S
C1482 H1476 0.930 . S
C1482 C1483 1.367 . S
C1482 C1490 1.378 . S
C1483 C1482 1.367 . S
C1483 C1491 1.433 . S
C1484 H1480 0.929 . S
C1484 C1486 1.378 . S
C1484 C1488 1.350 . S
C1485 C1488 1.463 . S
C1485 C1490 1.350 . S
C1485 N1493 1.427 . S
C1486 H1477 0.930 . S
C1486 C1484 1.378 . S
C1486 C1487 1.367 . S
C1487 C1486 1.367 . S
C1487 C1489 1.433 . S
C1488 C1484 1.350 . S
C1488 C1485 1.463 . S
C1488 N1492 1.427 . S
C1489 H1479 0.929 . S
C1489 C1487 1.433 . S
C1489 N1492 1.384 . S
C1490 H1481 0.929 . S
C1490 C1482 1.378 . S
C1490 C1485 1.350 . S
C1491 H1478 0.929 . S
C1491 C1483 1.433 . S
C1491 N1493 1.384 . S
N1492 C1488 1.427 . S
N1492 C1489 1.384 . S
N1493 C1485 1.427 . S
N1493 C1491 1.384 . S
H1494 C1500 0.930 . S
H1495 C1504 0.930 . S
H1496 C1509 0.929 . S
H1497 C1507 0.929 . S
H1498 C1502 0.929 . S
H1499 C1508 0.929 . S
C1500 H1494 0.930 . S
C1500 C1501 1.367 . S
C1500 C1508 1.378 . S
C1501 C1500 1.367 . S
C1501 C1509 1.433 . S
C1502 H1498 0.929 . S
C1502 C1504 1.378 . S
C1502 C1506 1.350 . S
C1503 C1506 1.463 . S
C1503 C1508 1.350 . S
C1503 N1511 1.427 . S
C1504 H1495 0.930 . S
C1504 C1502 1.378 . S
C1504 C1505 1.367 . S
C1505 C1504 1.367 . S
C1505 C1507 1.433 . S
C1506 C1502 1.350 . S
C1506 C1503 1.463 . S
C1506 N1510 1.427 . S
C1507 H1497 0.929 . S
C1507 C1505 1.433 . S
C1507 N1510 1.384 . S
C1508 H1499 0.929 . S
C1508 C1500 1.378 . S
C1508 C1503 1.350 . S
C1509 H1496 0.929 . S
C1509 C1501 1.433 . S
C1509 N1511 1.384 . S
N1510 C1506 1.427 . S
N1510 C1507 1.384 . S
N1511 C1503 1.427 . S
N1511 C1509 1.384 . S
H1512 C1518 0.930 . S
H1513 C1522 0.930 . S
H1514 C1527 0.929 . S
H1515 C1525 0.929 . S
H1516 C1520 0.929 . S
H1517 C1526 0.929 . S
C1518 H1512 0.930 . S
C1518 C1519 1.367 . S
C1518 C1526 1.378 . S
C1519 C1518 1.367 . S
C1519 C1527 1.433 . S
C1520 H1516 0.929 . S
C1520 C1522 1.378 . S
C1520 C1524 1.350 . S
C1521 C1524 1.463 . S
C1521 C1526 1.350 . S
C1521 N1529 1.427 . S
C1522 H1513 0.930 . S
C1522 C1520 1.378 . S
C1522 C1523 1.367 . S
C1523 C1522 1.367 . S
C1523 C1525 1.433 . S
C1524 C1520 1.350 . S
C1524 C1521 1.463 . S
C1524 N1528 1.427 . S
C1525 H1515 0.929 . S
C1525 C1523 1.433 . S
C1525 N1528 1.384 . S
C1526 H1517 0.929 . S
C1526 C1518 1.378 . S
C1526 C1521 1.350 . S
C1527 H1514 0.929 . S
C1527 C1519 1.433 . S
C1527 N1529 1.384 . S
N1528 C1524 1.427 . S
N1528 C1525 1.384 . S
N1529 C1521 1.427 . S
N1529 C1527 1.384 . S
H1530 C1536 0.930 . S
H1531 C1540 0.930 . S
H1532 C1545 0.929 . S
H1533 C1543 0.929 . S
H1534 C1538 0.929 . S
H1535 C1544 0.929 . S
C1536 H1530 0.930 . S
C1536 C1537 1.367 . S
C1536 C1544 1.378 . S
C1537 C1536 1.367 . S
C1537 C1545 1.433 . S
C1538 H1534 0.929 . S
C1538 C1540 1.378 . S
C1538 C1542 1.350 . S
C1539 C1542 1.463 . S
C1539 C1544 1.350 . S
C1539 N1547 1.427 . S
C1540 H1531 0.930 . S
C1540 C1538 1.378 . S
C1540 C1541 1.367 . S
C1541 C1540 1.367 . S
C1541 C1543 1.433 . S
C1542 C1538 1.350 . S
C1542 C1539 1.463 . S
C1542 N1546 1.427 . S
C1543 H1533 0.929 . S
C1543 C1541 1.433 . S
C1543 N1546 1.384 . S
C1544 H1535 0.929 . S
C1544 C1536 1.378 . S
C1544 C1539 1.350 . S
C1545 H1532 0.929 . S
C1545 C1537 1.433 . S
C1545 N1547 1.384 . S
N1546 C1542 1.427 . S
N1546 C1543 1.384 . S
N1547 C1539 1.427 . S
N1547 C1545 1.384 . S
H1548 C1554 0.930 . S
H1549 C1558 0.930 . S
H1550 C1563 0.929 . S
H1551 C1561 0.929 . S
H1552 C1556 0.929 . S
H1553 C1562 0.929 . S
C1554 H1548 0.930 . S
C1554 C1555 1.367 . S
C1554 C1562 1.378 . S
C1555 C1554 1.367 . S
C1555 C1563 1.433 . S
C1556 H1552 0.929 . S
C1556 C1558 1.378 . S
C1556 C1560 1.350 . S
C1557 C1560 1.463 . S
C1557 C1562 1.350 . S
C1557 N1565 1.427 . S
C1558 H1549 0.930 . S
C1558 C1556 1.378 . S
C1558 C1559 1.367 . S
C1559 C1558 1.367 . S
C1559 C1561 1.433 . S
C1560 C1556 1.350 . S
C1560 C1557 1.463 . S
C1560 N1564 1.427 . S
C1561 H1551 0.929 . S
C1561 C1559 1.433 . S
C1561 N1564 1.384 . S
C1562 H1553 0.929 . S
C1562 C1554 1.378 . S
C1562 C1557 1.350 . S
C1563 H1550 0.929 . S
C1563 C1555 1.433 . S
C1563 N1565 1.384 . S
N1564 C1560 1.427 . S
N1564 C1561 1.384 . S
N1565 C1557 1.427 . S
N1565 C1563 1.384 . S
H1566 C1572 0.930 . S
H1567 C1576 0.930 . S
H1568 C1581 0.929 . S
H1569 C1579 0.929 . S
H1570 C1574 0.929 . S
H1571 C1580 0.929 . S
C1572 H1566 0.930 . S
C1572 C1573 1.367 . S
C1572 C1580 1.378 . S
C1573 C1572 1.367 . S
C1573 C1581 1.433 . S
C1574 H1570 0.929 . S
C1574 C1576 1.378 . S
C1574 C1578 1.350 . S
C1575 C1578 1.463 . S
C1575 C1580 1.350 . S
C1575 N1583 1.427 . S
C1576 H1567 0.930 . S
C1576 C1574 1.378 . S
C1576 C1577 1.367 . S
C1577 C1576 1.367 . S
C1577 C1579 1.433 . S
C1578 C1574 1.350 . S
C1578 C1575 1.463 . S
C1578 N1582 1.427 . S
C1579 H1569 0.929 . S
C1579 C1577 1.433 . S
C1579 N1582 1.384 . S
C1580 H1571 0.929 . S
C1580 C1572 1.378 . S
C1580 C1575 1.350 . S
C1581 H1568 0.929 . S
C1581 C1573 1.433 . S
C1581 N1583 1.384 . S
N1582 C1578 1.427 . S
N1582 C1579 1.384 . S
N1583 C1575 1.427 . S
N1583 C1581 1.384 . S
H1584 C1590 0.930 . S
H1585 C1594 0.930 . S
H1586 C1599 0.929 . S
H1587 C1597 0.929 . S
H1588 C1592 0.929 . S
H1589 C1598 0.929 . S
C1590 H1584 0.930 . S
C1590 C1591 1.367 . S
C1590 C1598 1.378 . S
C1591 C1590 1.367 . S
C1591 C1599 1.433 . S
C1592 H1588 0.929 . S
C1592 C1594 1.378 . S
C1592 C1596 1.350 . S
C1593 C1596 1.463 . S
C1593 C1598 1.350 . S
C1593 N1601 1.427 . S
C1594 H1585 0.930 . S
C1594 C1592 1.378 . S
C1594 C1595 1.367 . S
C1595 C1594 1.367 . S
C1595 C1597 1.433 . S
C1596 C1592 1.350 . S
C1596 C1593 1.463 . S
C1596 N1600 1.427 . S
C1597 H1587 0.929 . S
C1597 C1595 1.433 . S
C1597 N1600 1.384 . S
C1598 H1589 0.929 . S
C1598 C1590 1.378 . S
C1598 C1593 1.350 . S
C1599 H1586 0.929 . S
C1599 C1591 1.433 . S
C1599 N1601 1.384 . S
N1600 C1596 1.427 . S
N1600 C1597 1.384 . S
N1601 C1593 1.427 . S
N1601 C1599 1.384 . S
H1602 C1608 0.930 . S
H1603 C1612 0.930 . S
H1604 C1617 0.929 . S
H1605 C1615 0.929 . S
H1606 C1610 0.929 . S
H1607 C1616 0.929 . S
C1608 H1602 0.930 . S
C1608 C1609 1.367 . S
C1608 C1616 1.378 . S
C1609 C1608 1.367 . S
C1609 C1617 1.433 . S
C1610 H1606 0.929 . S
C1610 C1612 1.378 . S
C1610 C1614 1.350 . S
C1611 C1614 1.463 . S
C1611 C1616 1.350 . S
C1611 N1619 1.427 . S
C1612 H1603 0.930 . S
C1612 C1610 1.378 . S
C1612 C1613 1.367 . S
C1613 C1612 1.367 . S
C1613 C1615 1.433 . S
C1614 C1610 1.350 . S
C1614 C1611 1.463 . S
C1614 N1618 1.427 . S
C1615 H1605 0.929 . S
C1615 C1613 1.433 . S
C1615 N1618 1.384 . S
C1616 H1607 0.929 . S
C1616 C1608 1.378 . S
C1616 C1611 1.350 . S
C1617 H1604 0.929 . S
C1617 C1609 1.433 . S
C1617 N1619 1.384 . S
N1618 C1614 1.427 . S
N1618 C1615 1.384 . S
N1619 C1611 1.427 . S
N1619 C1617 1.384 . S
H1620 C1626 0.930 . S
H1621 C1630 0.930 . S
H1622 C1635 0.929 . S
H1623 C1633 0.929 . S
H1624 C1628 0.929 . S
H1625 C1634 0.929 . S
C1626 H1620 0.930 . S
C1626 C1627 1.367 . S
C1626 C1634 1.378 . S
C1627 C1626 1.367 . S
C1627 C1635 1.433 . S
C1628 H1624 0.929 . S
C1628 C1630 1.378 . S
C1628 C1632 1.350 . S
C1629 C1632 1.463 . S
C1629 C1634 1.350 . S
C1629 N1637 1.427 . S
C1630 H1621 0.930 . S
C1630 C1628 1.378 . S
C1630 C1631 1.367 . S
C1631 C1630 1.367 . S
C1631 C1633 1.433 . S
C1632 C1628 1.350 . S
C1632 C1629 1.463 . S
C1632 N1636 1.427 . S
C1633 H1623 0.929 . S
C1633 C1631 1.433 . S
C1633 N1636 1.384 . S
C1634 H1625 0.929 . S
C1634 C1626 1.378 . S
C1634 C1629 1.350 . S
C1635 H1622 0.929 . S
C1635 C1627 1.433 . S
C1635 N1637 1.384 . S
N1636 C1632 1.427 . S
N1636 C1633 1.384 . S
N1637 C1629 1.427 . S
N1637 C1635 1.384 . S
H1638 C1644 0.930 . S
H1639 C1648 0.930 . S
H1640 C1653 0.929 . S
H1641 C1651 0.929 . S
H1642 C1646 0.929 . S
H1643 C1652 0.929 . S
C1644 H1638 0.930 . S
C1644 C1645 1.367 . S
C1644 C1652 1.378 . S
C1645 C1644 1.367 . S
C1645 C1653 1.433 . S
C1646 H1642 0.929 . S
C1646 C1648 1.378 . S
C1646 C1650 1.350 . S
C1647 C1650 1.463 . S
C1647 C1652 1.350 . S
C1647 N1655 1.427 . S
C1648 H1639 0.930 . S
C1648 C1646 1.378 . S
C1648 C1649 1.367 . S
C1649 C1648 1.367 . S
C1649 C1651 1.433 . S
C1650 C1646 1.350 . S
C1650 C1647 1.463 . S
C1650 N1654 1.427 . S
C1651 H1641 0.929 . S
C1651 C1649 1.433 . S
C1651 N1654 1.384 . S
C1652 H1643 0.929 . S
C1652 C1644 1.378 . S
C1652 C1647 1.350 . S
C1653 H1640 0.929 . S
C1653 C1645 1.433 . S
C1653 N1655 1.384 . S
N1654 C1650 1.427 . S
N1654 C1651 1.384 . S
N1655 C1647 1.427 . S
N1655 C1653 1.384 . S
H1656 C1662 0.930 . S
H1657 C1666 0.930 . S
H1658 C1671 0.929 . S
H1659 C1669 0.929 . S
H1660 C1664 0.929 . S
H1661 C1670 0.929 . S
C1662 H1656 0.930 . S
C1662 C1663 1.367 . S
C1662 C1670 1.378 . S
C1663 C1662 1.367 . S
C1663 C1671 1.433 . S
C1664 H1660 0.929 . S
C1664 C1666 1.378 . S
C1664 C1668 1.350 . S
C1665 C1668 1.463 . S
C1665 C1670 1.350 . S
C1665 N1673 1.427 . S
C1666 H1657 0.930 . S
C1666 C1664 1.378 . S
C1666 C1667 1.367 . S
C1667 C1666 1.367 . S
C1667 C1669 1.433 . S
C1668 C1664 1.350 . S
C1668 C1665 1.463 . S
C1668 N1672 1.427 . S
C1669 H1659 0.929 . S
C1669 C1667 1.433 . S
C1669 N1672 1.384 . S
C1670 H1661 0.929 . S
C1670 C1662 1.378 . S
C1670 C1665 1.350 . S
C1671 H1658 0.929 . S
C1671 C1663 1.433 . S
C1671 N1673 1.384 . S
N1672 C1668 1.427 . S
N1672 C1669 1.384 . S
N1673 C1665 1.427 . S
N1673 C1671 1.384 . S
H1674 C1680 0.930 . S
H1675 C1684 0.930 . S
H1676 C1689 0.929 . S
H1677 C1687 0.929 . S
H1678 C1682 0.929 . S
H1679 C1688 0.929 . S
C1680 H1674 0.930 . S
C1680 C1681 1.367 . S
C1680 C1688 1.378 . S
C1681 C1680 1.367 . S
C1681 C1689 1.433 . S
C1682 H1678 0.929 . S
C1682 C1684 1.378 . S
C1682 C1686 1.350 . S
C1683 C1686 1.463 . S
C1683 C1688 1.350 . S
C1683 N1691 1.427 . S
C1684 H1675 0.930 . S
C1684 C1682 1.378 . S
C1684 C1685 1.367 . S
C1685 C1684 1.367 . S
C1685 C1687 1.433 . S
C1686 C1682 1.350 . S
C1686 C1683 1.463 . S
C1686 N1690 1.427 . S
C1687 H1677 0.929 . S
C1687 C1685 1.433 . S
C1687 N1690 1.384 . S
C1688 H1679 0.929 . S
C1688 C1680 1.378 . S
C1688 C1683 1.350 . S
C1689 H1676 0.929 . S
C1689 C1681 1.433 . S
C1689 N1691 1.384 . S
N1690 C1686 1.427 . S
N1690 C1687 1.384 . S
N1691 C1683 1.427 . S
N1691 C1689 1.384 . S
H1692 C1698 0.930 . S
H1693 C1702 0.930 . S
H1694 C1707 0.929 . S
H1695 C1705 0.929 . S
H1696 C1700 0.929 . S
H1697 C1706 0.929 . S
C1698 H1692 0.930 . S
C1698 C1699 1.367 . S
C1698 C1706 1.378 . S
C1699 C1698 1.367 . S
C1699 C1707 1.433 . S
C1700 H1696 0.929 . S
C1700 C1702 1.378 . S
C1700 C1704 1.350 . S
C1701 C1704 1.463 . S
C1701 C1706 1.350 . S
C1701 N1709 1.427 . S
C1702 H1693 0.930 . S
C1702 C1700 1.378 . S
C1702 C1703 1.367 . S
C1703 C1702 1.367 . S
C1703 C1705 1.433 . S
C1704 C1700 1.350 . S
C1704 C1701 1.463 . S
C1704 N1708 1.427 . S
C1705 H1695 0.929 . S
C1705 C1703 1.433 . S
C1705 N1708 1.384 . S
C1706 H1697 0.929 . S
C1706 C1698 1.378 . S
C1706 C1701 1.350 . S
C1707 H1694 0.929 . S
C1707 C1699 1.433 . S
C1707 N1709 1.384 . S
N1708 C1704 1.427 . S
N1708 C1705 1.384 . S
N1709 C1701 1.427 . S
N1709 C1707 1.384 . S
H1710 C1716 0.930 . S
H1711 C1720 0.930 . S
H1712 C1725 0.929 . S
H1713 C1723 0.929 . S
H1714 C1718 0.929 . S
H1715 C1724 0.929 . S
C1716 H1710 0.930 . S
C1716 C1717 1.367 . S
C1716 C1724 1.378 . S
C1717 C1716 1.367 . S
C1717 C1725 1.433 . S
C1718 H1714 0.929 . S
C1718 C1720 1.378 . S
C1718 C1722 1.350 . S
C1719 C1722 1.463 . S
C1719 C1724 1.350 . S
C1719 N1727 1.427 . S
C1720 H1711 0.930 . S
C1720 C1718 1.378 . S
C1720 C1721 1.367 . S
C1721 C1720 1.367 . S
C1721 C1723 1.433 . S
C1722 C1718 1.350 . S
C1722 C1719 1.463 . S
C1722 N1726 1.427 . S
C1723 H1713 0.929 . S
C1723 C1721 1.433 . S
C1723 N1726 1.384 . S
C1724 H1715 0.929 . S
C1724 C1716 1.378 . S
C1724 C1719 1.350 . S
C1725 H1712 0.929 . S
C1725 C1717 1.433 . S
C1725 N1727 1.384 . S
N1726 C1722 1.427 . S
N1726 C1723 1.384 . S
N1727 C1719 1.427 . S
N1727 C1725 1.384 . S
H1728 C1734 0.930 . S
H1729 C1738 0.930 . S
H1730 C1743 0.929 . S
H1731 C1741 0.929 . S
H1732 C1736 0.929 . S
H1733 C1742 0.929 . S
C1734 H1728 0.930 . S
C1734 C1735 1.367 . S
C1734 C1742 1.378 . S
C1735 C1734 1.367 . S
C1735 C1743 1.433 . S
C1736 H1732 0.929 . S
C1736 C1738 1.378 . S
C1736 C1740 1.350 . S
C1737 C1740 1.463 . S
C1737 C1742 1.350 . S
C1737 N1745 1.427 . S
C1738 H1729 0.930 . S
C1738 C1736 1.378 . S
C1738 C1739 1.367 . S
C1739 C1738 1.367 . S
C1739 C1741 1.433 . S
C1740 C1736 1.350 . S
C1740 C1737 1.463 . S
C1740 N1744 1.427 . S
C1741 H1731 0.929 . S
C1741 C1739 1.433 . S
C1741 N1744 1.384 . S
C1742 H1733 0.929 . S
C1742 C1734 1.378 . S
C1742 C1737 1.350 . S
C1743 H1730 0.929 . S
C1743 C1735 1.433 . S
C1743 N1745 1.384 . S
N1744 C1740 1.427 . S
N1744 C1741 1.384 . S
N1745 C1737 1.427 . S
N1745 C1743 1.384 . S
H1746 C1752 0.930 . S
H1747 C1756 0.930 . S
H1748 C1761 0.929 . S
H1749 C1759 0.929 . S
H1750 C1754 0.929 . S
H1751 C1760 0.929 . S
C1752 H1746 0.930 . S
C1752 C1753 1.367 . S
C1752 C1760 1.378 . S
C1753 C1752 1.367 . S
C1753 C1761 1.433 . S
C1754 H1750 0.929 . S
C1754 C1756 1.378 . S
C1754 C1758 1.350 . S
C1755 C1758 1.463 . S
C1755 C1760 1.350 . S
C1755 N1763 1.427 . S
C1756 H1747 0.930 . S
C1756 C1754 1.378 . S
C1756 C1757 1.367 . S
C1757 C1756 1.367 . S
C1757 C1759 1.433 . S
C1758 C1754 1.350 . S
C1758 C1755 1.463 . S
C1758 N1762 1.427 . S
C1759 H1749 0.929 . S
C1759 C1757 1.433 . S
C1759 N1762 1.384 . S
C1760 H1751 0.929 . S
C1760 C1752 1.378 . S
C1760 C1755 1.350 . S
C1761 H1748 0.929 . S
C1761 C1753 1.433 . S
C1761 N1763 1.384 . S
N1762 C1758 1.427 . S
N1762 C1759 1.384 . S
N1763 C1755 1.427 . S
N1763 C1761 1.384 . S
H1764 C1770 0.930 . S
H1765 C1774 0.930 . S
H1766 C1779 0.929 . S
H1767 C1777 0.929 . S
H1768 C1772 0.929 . S
H1769 C1778 0.929 . S
C1770 H1764 0.930 . S
C1770 C1771 1.367 . S
C1770 C1778 1.378 . S
C1771 C1770 1.367 . S
C1771 C1779 1.433 . S
C1772 H1768 0.929 . S
C1772 C1774 1.378 . S
C1772 C1776 1.350 . S
C1773 C1776 1.463 . S
C1773 C1778 1.350 . S
C1773 N1781 1.427 . S
C1774 H1765 0.930 . S
C1774 C1772 1.378 . S
C1774 C1775 1.367 . S
C1775 C1774 1.367 . S
C1775 C1777 1.433 . S
C1776 C1772 1.350 . S
C1776 C1773 1.463 . S
C1776 N1780 1.427 . S
C1777 H1767 0.929 . S
C1777 C1775 1.433 . S
C1777 N1780 1.384 . S
C1778 H1769 0.929 . S
C1778 C1770 1.378 . S
C1778 C1773 1.350 . S
C1779 H1766 0.929 . S
C1779 C1771 1.433 . S
C1779 N1781 1.384 . S
N1780 C1776 1.427 . S
N1780 C1777 1.384 . S
N1781 C1773 1.427 . S
N1781 C1779 1.384 . S
H1782 C1788 0.930 . S
H1783 C1792 0.930 . S
H1784 C1797 0.929 . S
H1785 C1795 0.929 . S
H1786 C1790 0.929 . S
H1787 C1796 0.929 . S
C1788 H1782 0.930 . S
C1788 C1789 1.367 . S
C1788 C1796 1.378 . S
C1789 C1788 1.367 . S
C1789 C1797 1.433 . S
C1790 H1786 0.929 . S
C1790 C1792 1.378 . S
C1790 C1794 1.350 . S
C1791 C1794 1.463 . S
C1791 C1796 1.350 . S
C1791 N1799 1.427 . S
C1792 H1783 0.930 . S
C1792 C1790 1.378 . S
C1792 C1793 1.367 . S
C1793 C1792 1.367 . S
C1793 C1795 1.433 . S
C1794 C1790 1.350 . S
C1794 C1791 1.463 . S
C1794 N1798 1.427 . S
C1795 H1785 0.929 . S
C1795 C1793 1.433 . S
C1795 N1798 1.384 . S
C1796 H1787 0.929 . S
C1796 C1788 1.378 . S
C1796 C1791 1.350 . S
C1797 H1784 0.929 . S
C1797 C1789 1.433 . S
C1797 N1799 1.384 . S
N1798 C1794 1.427 . S
N1798 C1795 1.384 . S
N1799 C1791 1.427 . S
N1799 C1797 1.384 . S
H1800 C1806 0.930 . S
H1801 C1810 0.930 . S
H1802 C1815 0.929 1_554 S
H1803 C1813 0.929 . S
H1804 C1808 0.929 . S
H1805 C1814 0.929 . S
C1806 H1800 0.930 . S
C1806 C1807 1.367 . S
C1806 C1814 1.378 . S
C1807 C1806 1.367 . S
C1807 C1815 1.433 . S
C1808 H1804 0.929 . S
C1808 C1810 1.378 . S
C1808 C1812 1.350 . S
C1809 C1812 1.463 . S
C1809 C1814 1.350 . S
C1809 N1817 1.427 . S
C1810 H1801 0.930 . S
C1810 C1808 1.378 . S
C1810 C1811 1.367 . S
C1811 C1810 1.367 . S
C1811 C1813 1.433 . S
C1812 C1808 1.350 . S
C1812 C1809 1.463 . S
C1812 N1816 1.427 . S
C1813 H1803 0.929 . S
C1813 C1811 1.433 . S
C1813 N1816 1.384 . S
C1814 H1805 0.929 . S
C1814 C1806 1.378 . S
C1814 C1809 1.350 . S
C1815 H1802 0.929 1_556 S
C1815 C1807 1.433 . S
C1815 N1817 1.384 . S
N1816 C1812 1.427 . S
N1816 C1813 1.384 . S
N1817 C1809 1.427 . S
N1817 C1815 1.384 . S
H1818 C1824 0.930 . S
H1819 C1828 0.930 . S
H1820 C1833 0.929 1_554 S
H1821 C1831 0.929 . S
H1822 C1826 0.929 . S
H1823 C1832 0.929 . S
C1824 H1818 0.930 . S
C1824 C1825 1.367 . S
C1824 C1832 1.378 . S
C1825 C1824 1.367 . S
C1825 C1833 1.433 . S
C1826 H1822 0.929 . S
C1826 C1828 1.378 . S
C1826 C1830 1.350 . S
C1827 C1830 1.463 . S
C1827 C1832 1.350 . S
C1827 N1835 1.427 . S
C1828 H1819 0.930 . S
C1828 C1826 1.378 . S
C1828 C1829 1.367 . S
C1829 C1828 1.367 . S
C1829 C1831 1.433 . S
C1830 C1826 1.350 . S
C1830 C1827 1.463 . S
C1830 N1834 1.427 . S
C1831 H1821 0.929 . S
C1831 C1829 1.433 . S
C1831 N1834 1.384 . S
C1832 H1823 0.929 . S
C1832 C1824 1.378 . S
C1832 C1827 1.350 . S
C1833 H1820 0.929 1_556 S
C1833 C1825 1.433 . S
C1833 N1835 1.384 . S
N1834 C1830 1.427 . S
N1834 C1831 1.384 . S
N1835 C1827 1.427 . S
N1835 C1833 1.384 . S
H1836 C1842 0.930 . S
H1837 C1846 0.930 . S
H1838 C1851 0.929 . S
H1839 C1849 0.929 . S
H1840 C1844 0.929 . S
H1841 C1850 0.929 . S
C1842 H1836 0.930 . S
C1842 C1843 1.367 . S
C1842 C1850 1.378 . S
C1843 C1842 1.367 . S
C1843 C1851 1.433 . S
C1844 H1840 0.929 . S
C1844 C1846 1.378 . S
C1844 C1848 1.350 . S
C1845 C1848 1.463 . S
C1845 C1850 1.350 . S
C1845 N1853 1.427 . S
C1846 H1837 0.930 . S
C1846 C1844 1.378 . S
C1846 C1847 1.367 . S
C1847 C1846 1.367 . S
C1847 C1849 1.433 . S
C1848 C1844 1.350 . S
C1848 C1845 1.463 . S
C1848 N1852 1.427 . S
C1849 H1839 0.929 . S
C1849 C1847 1.433 . S
C1849 N1852 1.384 . S
C1850 H1841 0.929 . S
C1850 C1842 1.378 . S
C1850 C1845 1.350 . S
C1851 H1838 0.929 . S
C1851 C1843 1.433 . S
C1851 N1853 1.384 . S
N1852 C1848 1.427 . S
N1852 C1849 1.384 . S
N1853 C1845 1.427 . S
N1853 C1851 1.384 . S
H1854 C1860 0.930 1_554 S
H1855 C1864 0.930 . S
H1856 C1869 0.929 . S
H1857 C1867 0.929 . S
H1858 C1862 0.929 . S
H1859 C1868 0.929 . S
C1860 H1854 0.930 1_556 S
C1860 C1861 1.367 . S
C1860 C1868 1.378 . S
C1861 C1860 1.367 . S
C1861 C1869 1.433 . S
C1862 H1858 0.929 . S
C1862 C1864 1.378 . S
C1862 C1866 1.350 . S
C1863 C1866 1.463 . S
C1863 C1868 1.350 . S
C1863 N1871 1.427 . S
C1864 H1855 0.930 . S
C1864 C1862 1.378 . S
C1864 C1865 1.367 . S
C1865 C1864 1.367 . S
C1865 C1867 1.433 . S
C1866 C1862 1.350 . S
C1866 C1863 1.463 . S
C1866 N1870 1.427 . S
C1867 H1857 0.929 . S
C1867 C1865 1.433 . S
C1867 N1870 1.384 . S
C1868 H1859 0.929 . S
C1868 C1860 1.378 . S
C1868 C1863 1.350 . S
C1869 H1856 0.929 . S
C1869 C1861 1.433 . S
C1869 N1871 1.384 . S
N1870 C1866 1.427 . S
N1870 C1867 1.384 . S
N1871 C1863 1.427 . S
N1871 C1869 1.384 . S
H1872 C1878 0.930 . S
H1873 C1882 0.930 . S
H1874 C1887 0.929 1_554 S
H1875 C1885 0.929 . S
H1876 C1880 0.929 . S
H1877 C1886 0.929 . S
C1878 H1872 0.930 . S
C1878 C1879 1.367 . S
C1878 C1886 1.378 . S
C1879 C1878 1.367 . S
C1879 C1887 1.433 . S
C1880 H1876 0.929 . S
C1880 C1882 1.378 . S
C1880 C1884 1.350 . S
C1881 C1884 1.463 . S
C1881 C1886 1.350 . S
C1881 N1889 1.427 . S
C1882 H1873 0.930 . S
C1882 C1880 1.378 . S
C1882 C1883 1.367 . S
C1883 C1882 1.367 . S
C1883 C1885 1.433 . S
C1884 C1880 1.350 . S
C1884 C1881 1.463 . S
C1884 N1888 1.427 . S
C1885 H1875 0.929 . S
C1885 C1883 1.433 . S
C1885 N1888 1.384 . S
C1886 H1877 0.929 . S
C1886 C1878 1.378 . S
C1886 C1881 1.350 . S
C1887 H1874 0.929 1_556 S
C1887 C1879 1.433 . S
C1887 N1889 1.384 . S
N1888 C1884 1.427 . S
N1888 C1885 1.384 . S
N1889 C1881 1.427 . S
N1889 C1887 1.384 . S
H1890 C1896 0.930 . S
H1891 C1900 0.930 . S
H1892 C1905 0.929 . S
H1893 C1903 0.929 . S
H1894 C1898 0.929 . S
H1895 C1904 0.929 . S
C1896 H1890 0.930 . S
C1896 C1897 1.367 . S
C1896 C1904 1.378 . S
C1897 C1896 1.367 . S
C1897 C1905 1.433 . S
C1898 H1894 0.929 . S
C1898 C1900 1.378 . S
C1898 C1902 1.350 . S
C1899 C1902 1.463 . S
C1899 C1904 1.350 . S
C1899 N1907 1.427 . S
C1900 H1891 0.930 . S
C1900 C1898 1.378 . S
C1900 C1901 1.367 . S
C1901 C1900 1.367 . S
C1901 C1903 1.433 . S
C1902 C1898 1.350 . S
C1902 C1899 1.463 . S
C1902 N1906 1.427 . S
C1903 H1893 0.929 . S
C1903 C1901 1.433 . S
C1903 N1906 1.384 . S
C1904 H1895 0.929 . S
C1904 C1896 1.378 . S
C1904 C1899 1.350 . S
C1905 H1892 0.929 . S
C1905 C1897 1.433 . S
C1905 N1907 1.384 . S
N1906 C1902 1.427 . S
N1906 C1903 1.384 . S
N1907 C1899 1.427 . S
N1907 C1905 1.384 . S
H1908 C1914 0.930 . S
H1909 C1918 0.930 . S
H1910 C1923 0.929 . S
H1911 C1921 0.929 . S
H1912 C1916 0.929 . S
H1913 C1922 0.929 . S
C1914 H1908 0.930 . S
C1914 C1915 1.367 . S
C1914 C1922 1.378 . S
C1915 C1914 1.367 . S
C1915 C1923 1.433 . S
C1916 H1912 0.929 . S
C1916 C1918 1.378 . S
C1916 C1920 1.350 . S
C1917 C1920 1.463 . S
C1917 C1922 1.350 . S
C1917 N1925 1.427 . S
C1918 H1909 0.930 . S
C1918 C1916 1.378 . S
C1918 C1919 1.367 . S
C1919 C1918 1.367 . S
C1919 C1921 1.433 . S
C1920 C1916 1.350 . S
C1920 C1917 1.463 . S
C1920 N1924 1.427 . S
C1921 H1911 0.929 . S
C1921 C1919 1.433 . S
C1921 N1924 1.384 . S
C1922 H1913 0.929 . S
C1922 C1914 1.378 . S
C1922 C1917 1.350 . S
C1923 H1910 0.929 . S
C1923 C1915 1.433 . S
C1923 N1925 1.384 . S
N1924 C1920 1.427 . S
N1924 C1921 1.384 . S
N1925 C1917 1.427 . S
N1925 C1923 1.384 . S
H1926 C1932 0.930 . S
H1927 C1936 0.930 . S
H1928 C1941 0.929 . S
H1929 C1939 0.929 . S
H1930 C1934 0.929 . S
H1931 C1940 0.929 . S
C1932 H1926 0.930 . S
C1932 C1933 1.367 . S
C1932 C1940 1.378 . S
C1933 C1932 1.367 . S
C1933 C1941 1.433 . S
C1934 H1930 0.929 . S
C1934 C1936 1.378 . S
C1934 C1938 1.350 . S
C1935 C1938 1.463 . S
C1935 C1940 1.350 . S
C1935 N1943 1.427 . S
C1936 H1927 0.930 . S
C1936 C1934 1.378 . S
C1936 C1937 1.367 . S
C1937 C1936 1.367 . S
C1937 C1939 1.433 . S
C1938 C1934 1.350 . S
C1938 C1935 1.463 . S
C1938 N1942 1.427 . S
C1939 H1929 0.929 . S
C1939 C1937 1.433 . S
C1939 N1942 1.384 . S
C1940 H1931 0.929 . S
C1940 C1932 1.378 . S
C1940 C1935 1.350 . S
C1941 H1928 0.929 . S
C1941 C1933 1.433 . S
C1941 N1943 1.384 . S
N1942 C1938 1.427 . S
N1942 C1939 1.384 . S
N1943 C1935 1.427 . S
N1943 C1941 1.384 . S
H1944 C1950 0.930 . S
H1945 C1954 0.930 . S
H1946 C1959 0.929 . S
H1947 C1957 0.929 . S
H1948 C1952 0.929 . S
H1949 C1958 0.929 . S
C1950 H1944 0.930 . S
C1950 C1951 1.367 . S
C1950 C1958 1.378 . S
C1951 C1950 1.367 . S
C1951 C1959 1.433 . S
C1952 H1948 0.929 . S
C1952 C1954 1.378 . S
C1952 C1956 1.350 . S
C1953 C1956 1.463 . S
C1953 C1958 1.350 . S
C1953 N1961 1.427 . S
C1954 H1945 0.930 . S
C1954 C1952 1.378 . S
C1954 C1955 1.367 . S
C1955 C1954 1.367 . S
C1955 C1957 1.433 . S
C1956 C1952 1.350 . S
C1956 C1953 1.463 . S
C1956 N1960 1.427 . S
C1957 H1947 0.929 . S
C1957 C1955 1.433 . S
C1957 N1960 1.384 . S
C1958 H1949 0.929 . S
C1958 C1950 1.378 . S
C1958 C1953 1.350 . S
C1959 H1946 0.929 . S
C1959 C1951 1.433 . S
C1959 N1961 1.384 . S
N1960 C1956 1.427 . S
N1960 C1957 1.384 . S
N1961 C1953 1.427 . S
N1961 C1959 1.384 . S
H1962 C1968 0.930 . S
H1963 C1972 0.930 . S
H1964 C1977 0.929 . S
H1965 C1975 0.929 . S
H1966 C1970 0.929 . S
H1967 C1976 0.929 . S
C1968 H1962 0.930 . S
C1968 C1969 1.367 . S
C1968 C1976 1.378 . S
C1969 C1968 1.367 . S
C1969 C1977 1.433 . S
C1970 H1966 0.929 . S
C1970 C1972 1.378 . S
C1970 C1974 1.350 . S
C1971 C1974 1.463 . S
C1971 C1976 1.350 . S
C1971 N1979 1.427 . S
C1972 H1963 0.930 . S
C1972 C1970 1.378 . S
C1972 C1973 1.367 . S
C1973 C1972 1.367 . S
C1973 C1975 1.433 . S
C1974 C1970 1.350 . S
C1974 C1971 1.463 . S
C1974 N1978 1.427 . S
C1975 H1965 0.929 . S
C1975 C1973 1.433 . S
C1975 N1978 1.384 . S
C1976 H1967 0.929 . S
C1976 C1968 1.378 . S
C1976 C1971 1.350 . S
C1977 H1964 0.929 . S
C1977 C1969 1.433 . S
C1977 N1979 1.384 . S
N1978 C1974 1.427 . S
N1978 C1975 1.384 . S
N1979 C1971 1.427 . S
N1979 C1977 1.384 . S
H1980 C1986 0.930 . S
H1981 C1990 0.930 . S
H1982 C1995 0.929 . S
H1983 C1993 0.929 . S
H1984 C1988 0.929 . S
H1985 C1994 0.929 . S
C1986 H1980 0.930 . S
C1986 C1987 1.367 . S
C1986 C1994 1.378 . S
C1987 C1986 1.367 . S
C1987 C1995 1.433 . S
C1988 H1984 0.929 . S
C1988 C1990 1.378 . S
C1988 C1992 1.350 . S
C1989 C1992 1.463 . S
C1989 C1994 1.350 . S
C1989 N1997 1.427 . S
C1990 H1981 0.930 . S
C1990 C1988 1.378 . S
C1990 C1991 1.367 . S
C1991 C1990 1.367 . S
C1991 C1993 1.433 . S
C1992 C1988 1.350 . S
C1992 C1989 1.463 . S
C1992 N1996 1.427 . S
C1993 H1983 0.929 . S
C1993 C1991 1.433 . S
C1993 N1996 1.384 . S
C1994 H1985 0.929 . S
C1994 C1986 1.378 . S
C1994 C1989 1.350 . S
C1995 H1982 0.929 . S
C1995 C1987 1.433 . S
C1995 N1997 1.384 . S
N1996 C1992 1.427 . S
N1996 C1993 1.384 . S
N1997 C1989 1.427 . S
N1997 C1995 1.384 . S
H1998 C2004 0.930 . S
H1999 C2008 0.930 . S
H2000 C2013 0.929 . S
H2001 C2011 0.929 . S
H2002 C2006 0.929 . S
H2003 C2012 0.929 . S
C2004 H1998 0.930 . S
C2004 C2005 1.367 1_655 S
C2004 C2012 1.378 . S
C2005 C2004 1.367 1_455 S
C2005 C2013 1.433 . S
C2006 H2002 0.929 . S
C2006 C2008 1.378 . S
C2006 C2010 1.350 . S
C2007 C2010 1.463 . S
C2007 C2012 1.350 1_455 S
C2007 N2015 1.427 . S
C2008 H1999 0.930 . S
C2008 C2006 1.378 . S
C2008 C2009 1.367 . S
C2009 C2008 1.367 . S
C2009 C2011 1.433 1_455 S
C2010 C2006 1.350 . S
C2010 C2007 1.463 . S
C2010 N2014 1.427 1_455 S
C2011 H2001 0.929 . S
C2011 C2009 1.433 1_655 S
C2011 N2014 1.384 . S
C2012 H2003 0.929 . S
C2012 C2004 1.378 . S
C2012 C2007 1.350 1_655 S
C2013 H2000 0.929 . S
C2013 C2005 1.433 . S
C2013 N2015 1.384 . S
N2014 C2010 1.427 1_655 S
N2014 C2011 1.384 . S
N2015 C2007 1.427 . S
N2015 C2013 1.384 . S
H2016 C2022 0.930 . S
H2017 C2026 0.930 . S
H2018 C2031 0.929 . S
H2019 C2029 0.929 . S
H2020 C2024 0.929 . S
H2021 C2030 0.929 . S
C2022 H2016 0.930 . S
C2022 C2023 1.367 . S
C2022 C2030 1.378 . S
C2023 C2022 1.367 . S
C2023 C2031 1.433 . S
C2024 H2020 0.929 . S
C2024 C2026 1.378 . S
C2024 C2028 1.350 . S
C2025 C2028 1.463 . S
C2025 C2030 1.350 . S
C2025 N2033 1.427 . S
C2026 H2017 0.930 . S
C2026 C2024 1.378 . S
C2026 C2027 1.367 . S
C2027 C2026 1.367 . S
C2027 C2029 1.433 . S
C2028 C2024 1.350 . S
C2028 C2025 1.463 . S
C2028 N2032 1.427 . S
C2029 H2019 0.929 . S
C2029 C2027 1.433 . S
C2029 N2032 1.384 . S
C2030 H2021 0.929 . S
C2030 C2022 1.378 . S
C2030 C2025 1.350 . S
C2031 H2018 0.929 . S
C2031 C2023 1.433 . S
C2031 N2033 1.384 . S
N2032 C2028 1.427 . S
N2032 C2029 1.384 . S
N2033 C2025 1.427 . S
N2033 C2031 1.384 . S
H2034 C2040 0.930 . S
H2035 C2044 0.930 . S
H2036 C2049 0.930 . S
H2037 C2047 0.929 . S
H2038 C2042 0.929 . S
H2039 C2048 0.929 . S
C2040 H2034 0.930 . S
C2040 C2041 1.367 . S
C2040 C2048 1.378 . S
C2041 C2040 1.367 . S
C2041 C2049 1.434 1_565 S
C2042 H2038 0.929 . S
C2042 C2044 1.378 . S
C2042 C2046 1.350 1_545 S
C2043 C2046 1.463 . S
C2043 C2048 1.350 . S
C2043 N2051 1.416 1_565 S
C2044 H2035 0.930 . S
C2044 C2042 1.378 . S
C2044 C2045 1.367 1_545 S
C2045 C2044 1.367 1_565 S
C2045 C2047 1.433 . S
C2046 C2042 1.350 1_565 S
C2046 C2043 1.463 . S
C2046 N2050 1.427 . S
C2047 H2037 0.929 . S
C2047 C2045 1.433 . S
C2047 N2050 1.384 . S
C2048 H2039 0.929 . S
C2048 C2040 1.378 . S
C2048 C2043 1.350 . S
C2049 H2036 0.930 . S
C2049 C2041 1.434 1_545 S
C2049 N2051 1.404 . S
N2050 C2046 1.427 . S
N2050 C2047 1.384 . S
N2051 C2043 1.416 1_545 S
N2051 C2049 1.404 . S
H2052 C2058 0.930 . S
H2053 C2062 0.930 . S
H2054 C2067 0.929 . S
H2055 C2065 0.929 . S
H2056 C2060 0.929 . S
H2057 C2066 0.929 . S
C2058 H2052 0.930 . S
C2058 C2059 1.367 1_545 S
C2058 C2066 1.378 . S
C2059 C2058 1.367 1_565 S
C2059 C2067 1.433 . S
C2060 H2056 0.929 . S
C2060 C2062 1.378 . S
C2060 C2064 1.350 . S
C2061 C2064 1.463 . S
C2061 C2066 1.350 1_565 S
C2061 N2069 1.427 . S
C2062 H2053 0.930 . S
C2062 C2060 1.378 . S
C2062 C2063 1.367 . S
C2063 C2062 1.367 . S
C2063 C2065 1.433 1_565 S
C2064 C2060 1.350 . S
C2064 C2061 1.463 . S
C2064 N2068 1.427 1_565 S
C2065 H2055 0.929 . S
C2065 C2063 1.433 1_545 S
C2065 N2068 1.384 . S
C2066 H2057 0.929 . S
C2066 C2058 1.378 . S
C2066 C2061 1.350 1_545 S
C2067 H2054 0.929 . S
C2067 C2059 1.433 . S
C2067 N2069 1.384 . S
N2068 C2064 1.427 1_545 S
N2068 C2065 1.384 . S
N2069 C2061 1.427 . S
N2069 C2067 1.384 . S
H2070 C2076 0.930 . S
H2071 C2080 0.930 . S
H2072 C2085 0.929 . S
H2073 C2083 0.929 . S
H2074 C2078 0.929 . S
H2075 C2084 0.929 . S
C2076 H2070 0.930 . S
C2076 C2077 1.367 . S
C2076 C2084 1.378 . S
C2077 C2076 1.367 . S
C2077 C2085 1.433 1_455 S
C2078 H2074 0.929 . S
C2078 C2080 1.378 . S
C2078 C2082 1.350 1_655 S
C2079 C2082 1.463 . S
C2079 C2084 1.350 . S
C2079 N2087 1.427 1_455 S
C2080 H2071 0.930 . S
C2080 C2078 1.378 . S
C2080 C2081 1.367 1_655 S
C2081 C2080 1.367 1_455 S
C2081 C2083 1.433 . S
C2082 C2078 1.350 1_455 S
C2082 C2079 1.463 . S
C2082 N2086 1.427 . S
C2083 H2073 0.929 . S
C2083 C2081 1.433 . S
C2083 N2086 1.384 . S
C2084 H2075 0.929 . S
C2084 C2076 1.378 . S
C2084 C2079 1.350 . S
C2085 H2072 0.929 . S
C2085 C2077 1.433 1_655 S
C2085 N2087 1.384 . S
N2086 C2082 1.427 . S
N2086 C2083 1.384 . S
N2087 C2079 1.427 1_655 S
N2087 C2085 1.384 . S
H2088 C2094 0.930 . S
H2089 C2098 0.930 . S
H2090 C2103 0.929 . S
H2091 C2101 0.929 . S
H2092 C2096 0.929 . S
H2093 C2102 0.929 . S
C2094 H2088 0.930 . S
C2094 C2095 1.367 . S
C2094 C2102 1.378 . S
C2095 C2094 1.367 . S
C2095 C2103 1.433 . S
C2096 H2092 0.929 . S
C2096 C2098 1.378 . S
C2096 C2100 1.350 . S
C2097 C2100 1.463 . S
C2097 C2102 1.350 . S
C2097 N2105 1.427 . S
C2098 H2089 0.930 . S
C2098 C2096 1.378 . S
C2098 C2099 1.367 . S
C2099 C2098 1.367 . S
C2099 C2101 1.433 . S
C2100 C2096 1.350 . S
C2100 C2097 1.463 . S
C2100 N2104 1.427 . S
C2101 H2091 0.929 . S
C2101 C2099 1.433 . S
C2101 N2104 1.384 . S
C2102 H2093 0.929 . S
C2102 C2094 1.378 . S
C2102 C2097 1.350 . S
C2103 H2090 0.929 . S
C2103 C2095 1.433 . S
C2103 N2105 1.384 . S
N2104 C2100 1.427 . S
N2104 C2101 1.384 . S
N2105 C2097 1.427 . S
N2105 C2103 1.384 . S
H2106 C2112 0.930 . S
H2107 C2116 0.930 . S
H2108 C2121 0.929 . S
H2109 C2119 0.929 . S
H2110 C2114 0.929 . S
H2111 C2120 0.929 . S
C2112 H2106 0.930 . S
C2112 C2113 1.367 . S
C2112 C2120 1.378 . S
C2113 C2112 1.367 . S
C2113 C2121 1.433 . S
C2114 H2110 0.929 . S
C2114 C2116 1.378 . S
C2114 C2118 1.350 . S
C2115 C2118 1.463 . S
C2115 C2120 1.350 . S
C2115 N2123 1.427 . S
C2116 H2107 0.930 . S
C2116 C2114 1.378 . S
C2116 C2117 1.367 . S
C2117 C2116 1.367 . S
C2117 C2119 1.433 . S
C2118 C2114 1.350 . S
C2118 C2115 1.463 . S
C2118 N2122 1.427 . S
C2119 H2109 0.929 . S
C2119 C2117 1.433 . S
C2119 N2122 1.384 . S
C2120 H2111 0.929 . S
C2120 C2112 1.378 . S
C2120 C2115 1.350 . S
C2121 H2108 0.929 . S
C2121 C2113 1.433 . S
C2121 N2123 1.384 . S
N2122 C2118 1.427 . S
N2122 C2119 1.384 . S
N2123 C2115 1.427 . S
N2123 C2121 1.384 . S
H2124 C2130 0.930 . S
H2125 C2134 0.930 . S
H2126 C2139 0.929 . S
H2127 C2137 0.929 . S
H2128 C2132 0.929 . S
H2129 C2138 0.929 . S
C2130 H2124 0.930 . S
C2130 C2131 1.367 . S
C2130 C2138 1.378 . S
C2131 C2130 1.367 . S
C2131 C2139 1.433 . S
C2132 H2128 0.929 . S
C2132 C2134 1.378 . S
C2132 C2136 1.350 . S
C2133 C2136 1.463 . S
C2133 C2138 1.350 . S
C2133 N2141 1.427 . S
C2134 H2125 0.930 . S
C2134 C2132 1.378 . S
C2134 C2135 1.367 . S
C2135 C2134 1.367 . S
C2135 C2137 1.433 . S
C2136 C2132 1.350 . S
C2136 C2133 1.463 . S
C2136 N2140 1.427 . S
C2137 H2127 0.929 . S
C2137 C2135 1.433 . S
C2137 N2140 1.384 . S
C2138 H2129 0.929 . S
C2138 C2130 1.378 . S
C2138 C2133 1.350 . S
C2139 H2126 0.929 . S
C2139 C2131 1.433 . S
C2139 N2141 1.384 . S
N2140 C2136 1.427 . S
N2140 C2137 1.384 . S
N2141 C2133 1.427 . S
N2141 C2139 1.384 . S
H2142 C2148 0.930 . S
H2143 C2152 0.930 . S
H2144 C2157 0.929 . S
H2145 C2155 0.929 . S
H2146 C2150 0.929 . S
H2147 C2156 0.929 . S
C2148 H2142 0.930 . S
C2148 C2149 1.367 . S
C2148 C2156 1.378 . S
C2149 C2148 1.367 . S
C2149 C2157 1.433 . S
C2150 H2146 0.929 . S
C2150 C2152 1.378 . S
C2150 C2154 1.350 . S
C2151 C2154 1.463 . S
C2151 C2156 1.350 . S
C2151 N2159 1.427 . S
C2152 H2143 0.930 . S
C2152 C2150 1.378 . S
C2152 C2153 1.367 . S
C2153 C2152 1.367 . S
C2153 C2155 1.433 . S
C2154 C2150 1.350 . S
C2154 C2151 1.463 . S
C2154 N2158 1.427 . S
C2155 H2145 0.929 . S
C2155 C2153 1.433 . S
C2155 N2158 1.384 . S
C2156 H2147 0.929 . S
C2156 C2148 1.378 . S
C2156 C2151 1.350 . S
C2157 H2144 0.929 . S
C2157 C2149 1.433 . S
C2157 N2159 1.384 . S
N2158 C2154 1.427 . S
N2158 C2155 1.384 . S
N2159 C2151 1.427 . S
N2159 C2157 1.384 . S
H2160 C2166 0.930 . S
H2161 C2170 0.930 . S
H2162 C2175 0.929 . S
H2163 C2173 0.929 . S
H2164 C2168 0.929 . S
H2165 C2174 0.929 . S
C2166 H2160 0.930 . S
C2166 C2167 1.367 . S
C2166 C2174 1.378 . S
C2167 C2166 1.367 . S
C2167 C2175 1.433 1_545 S
C2168 H2164 0.929 . S
C2168 C2170 1.378 . S
C2168 C2172 1.350 1_565 S
C2169 C2172 1.463 . S
C2169 C2174 1.350 . S
C2169 N2177 1.427 1_545 S
C2170 H2161 0.930 . S
C2170 C2168 1.378 . S
C2170 C2171 1.367 1_565 S
C2171 C2170 1.367 1_545 S
C2171 C2173 1.433 . S
C2172 C2168 1.350 1_545 S
C2172 C2169 1.463 . S
C2172 N2176 1.427 . S
C2173 H2163 0.929 . S
C2173 C2171 1.433 . S
C2173 N2176 1.384 . S
C2174 H2165 0.929 . S
C2174 C2166 1.378 . S
C2174 C2169 1.350 . S
C2175 H2162 0.929 . S
C2175 C2167 1.433 1_565 S
C2175 N2177 1.384 . S
N2176 C2172 1.427 . S
N2176 C2173 1.384 . S
N2177 C2169 1.427 1_565 S
N2177 C2175 1.384 . S
H2178 C2184 0.930 . S
H2179 C2188 0.930 . S
H2180 C2193 0.929 . S
H2181 C2191 0.929 . S
H2182 C2186 0.929 . S
H2183 C2192 0.929 . S
C2184 H2178 0.930 . S
C2184 C2185 1.367 1_455 S
C2184 C2192 1.378 . S
C2185 C2184 1.367 1_655 S
C2185 C2193 1.433 . S
C2186 H2182 0.929 . S
C2186 C2188 1.378 . S
C2186 C2190 1.350 . S
C2187 C2190 1.463 . S
C2187 C2192 1.350 1_655 S
C2187 N2195 1.427 . S
C2188 H2179 0.930 . S
C2188 C2186 1.378 . S
C2188 C2189 1.367 . S
C2189 C2188 1.367 . S
C2189 C2191 1.433 1_655 S
C2190 C2186 1.350 . S
C2190 C2187 1.463 . S
C2190 N2194 1.427 1_655 S
C2191 H2181 0.929 . S
C2191 C2189 1.433 1_455 S
C2191 N2194 1.384 . S
C2192 H2183 0.929 . S
C2192 C2184 1.378 . S
C2192 C2187 1.350 1_455 S
C2193 H2180 0.929 . S
C2193 C2185 1.433 . S
C2193 N2195 1.384 . S
N2194 C2190 1.427 1_455 S
N2194 C2191 1.384 . S
N2195 C2187 1.427 . S
N2195 C2193 1.384 . S
H2196 C2202 0.930 . S
H2197 C2206 0.930 . S
H2198 C2211 0.929 . S
H2199 C2209 0.929 . S
H2200 C2204 0.929 . S
H2201 C2210 0.929 . S
C2202 H2196 0.930 . S
C2202 C2203 1.367 . S
C2202 C2210 1.378 . S
C2203 C2202 1.367 . S
C2203 C2211 1.433 . S
C2204 H2200 0.929 . S
C2204 C2206 1.378 . S
C2204 C2208 1.350 . S
C2205 C2208 1.463 . S
C2205 C2210 1.350 . S
C2205 N2213 1.427 . S
C2206 H2197 0.930 . S
C2206 C2204 1.378 . S
C2206 C2207 1.367 . S
C2207 C2206 1.367 . S
C2207 C2209 1.433 . S
C2208 C2204 1.350 . S
C2208 C2205 1.463 . S
C2208 N2212 1.427 . S
C2209 H2199 0.929 . S
C2209 C2207 1.433 . S
C2209 N2212 1.384 . S
C2210 H2201 0.929 . S
C2210 C2202 1.378 . S
C2210 C2205 1.350 . S
C2211 H2198 0.929 . S
C2211 C2203 1.433 . S
C2211 N2213 1.384 . S
N2212 C2208 1.427 . S
N2212 C2209 1.384 . S
N2213 C2205 1.427 . S
N2213 C2211 1.384 . S
H2214 C2220 0.930 . S
H2215 C2224 0.930 . S
H2216 C2229 0.929 . S
H2217 C2227 0.929 . S
H2218 C2222 0.929 . S
H2219 C2228 0.929 . S
C2220 H2214 0.930 . S
C2220 C2221 1.367 . S
C2220 C2228 1.378 . S
C2221 C2220 1.367 . S
C2221 C2229 1.433 . S
C2222 H2218 0.929 . S
C2222 C2224 1.378 . S
C2222 C2226 1.350 . S
C2223 C2226 1.463 . S
C2223 C2228 1.350 . S
C2223 N2231 1.427 . S
C2224 H2215 0.930 . S
C2224 C2222 1.378 . S
C2224 C2225 1.367 . S
C2225 C2224 1.367 . S
C2225 C2227 1.433 . S
C2226 C2222 1.350 . S
C2226 C2223 1.463 . S
C2226 N2230 1.427 . S
C2227 H2217 0.929 . S
C2227 C2225 1.433 . S
C2227 N2230 1.384 . S
C2228 H2219 0.929 . S
C2228 C2220 1.378 . S
C2228 C2223 1.350 . S
C2229 H2216 0.929 . S
C2229 C2221 1.433 . S
C2229 N2231 1.384 . S
N2230 C2226 1.427 . S
N2230 C2227 1.384 . S
N2231 C2223 1.427 . S
N2231 C2229 1.384 . S
H2232 C2238 0.930 . S
H2233 C2242 0.930 . S
H2234 C2247 0.929 . S
H2235 C2245 0.929 . S
H2236 C2240 0.929 . S
H2237 C2246 0.929 . S
C2238 H2232 0.930 . S
C2238 C2239 1.367 . S
C2238 C2246 1.378 . S
C2239 C2238 1.367 . S
C2239 C2247 1.433 . S
C2240 H2236 0.929 . S
C2240 C2242 1.378 . S
C2240 C2244 1.350 . S
C2241 C2244 1.463 . S
C2241 C2246 1.350 . S
C2241 N2249 1.427 . S
C2242 H2233 0.930 . S
C2242 C2240 1.378 . S
C2242 C2243 1.367 . S
C2243 C2242 1.367 . S
C2243 C2245 1.433 . S
C2244 C2240 1.350 . S
C2244 C2241 1.463 . S
C2244 N2248 1.427 . S
C2245 H2235 0.929 . S
C2245 C2243 1.433 . S
C2245 N2248 1.384 . S
C2246 H2237 0.929 . S
C2246 C2238 1.378 . S
C2246 C2241 1.350 . S
C2247 H2234 0.929 . S
C2247 C2239 1.433 . S
C2247 N2249 1.384 . S
N2248 C2244 1.427 . S
N2248 C2245 1.384 . S
N2249 C2241 1.427 . S
N2249 C2247 1.384 . S
H2250 C2256 0.930 . S
H2251 C2260 0.930 . S
H2252 C2265 0.929 . S
H2253 C2263 0.929 . S
H2254 C2258 0.929 . S
H2255 C2264 0.929 . S
C2256 H2250 0.930 . S
C2256 C2257 1.367 . S
C2256 C2264 1.378 . S
C2257 C2256 1.367 . S
C2257 C2265 1.433 . S
C2258 H2254 0.929 . S
C2258 C2260 1.378 . S
C2258 C2262 1.350 . S
C2259 C2262 1.463 . S
C2259 C2264 1.350 . S
C2259 N2267 1.427 . S
C2260 H2251 0.930 . S
C2260 C2258 1.378 . S
C2260 C2261 1.367 . S
C2261 C2260 1.367 . S
C2261 C2263 1.433 . S
C2262 C2258 1.350 . S
C2262 C2259 1.463 . S
C2262 N2266 1.427 . S
C2263 H2253 0.929 . S
C2263 C2261 1.433 . S
C2263 N2266 1.384 . S
C2264 H2255 0.929 . S
C2264 C2256 1.378 . S
C2264 C2259 1.350 . S
C2265 H2252 0.929 . S
C2265 C2257 1.433 . S
C2265 N2267 1.384 . S
N2266 C2262 1.427 . S
N2266 C2263 1.384 . S
N2267 C2259 1.427 . S
N2267 C2265 1.384 . S
H2268 C2274 0.930 . S
H2269 C2278 0.930 . S
H2270 C2283 0.929 . S
H2271 C2281 0.929 . S
H2272 C2276 0.929 . S
H2273 C2282 0.929 . S
C2274 H2268 0.930 . S
C2274 C2275 1.367 . S
C2274 C2282 1.378 . S
C2275 C2274 1.367 . S
C2275 C2283 1.433 . S
C2276 H2272 0.929 . S
C2276 C2278 1.378 . S
C2276 C2280 1.350 . S
C2277 C2280 1.463 . S
C2277 C2282 1.350 . S
C2277 N2285 1.427 . S
C2278 H2269 0.930 . S
C2278 C2276 1.378 . S
C2278 C2279 1.367 . S
C2279 C2278 1.367 . S
C2279 C2281 1.433 . S
C2280 C2276 1.350 . S
C2280 C2277 1.463 . S
C2280 N2284 1.427 . S
C2281 H2271 0.929 . S
C2281 C2279 1.433 . S
C2281 N2284 1.384 . S
C2282 H2273 0.929 . S
C2282 C2274 1.378 . S
C2282 C2277 1.350 . S
C2283 H2270 0.929 . S
C2283 C2275 1.433 . S
C2283 N2285 1.384 . S
N2284 C2280 1.427 . S
N2284 C2281 1.384 . S
N2285 C2277 1.427 . S
N2285 C2283 1.384 . S
H2286 C2292 0.930 . S
H2287 C2296 0.930 . S
H2288 C2301 0.929 . S
H2289 C2299 0.929 . S
H2290 C2294 0.929 . S
H2291 C2300 0.929 . S
C2292 H2286 0.930 . S
C2292 C2293 1.367 . S
C2292 C2300 1.378 . S
C2293 C2292 1.367 . S
C2293 C2301 1.433 . S
C2294 H2290 0.929 . S
C2294 C2296 1.378 . S
C2294 C2298 1.350 . S
C2295 C2298 1.463 . S
C2295 C2300 1.350 . S
C2295 N2303 1.427 . S
C2296 H2287 0.930 . S
C2296 C2294 1.378 . S
C2296 C2297 1.367 . S
C2297 C2296 1.367 . S
C2297 C2299 1.433 . S
C2298 C2294 1.350 . S
C2298 C2295 1.463 . S
C2298 N2302 1.427 . S
C2299 H2289 0.929 . S
C2299 C2297 1.433 . S
C2299 N2302 1.384 . S
C2300 H2291 0.929 . S
C2300 C2292 1.378 . S
C2300 C2295 1.350 . S
C2301 H2288 0.929 . S
C2301 C2293 1.433 . S
C2301 N2303 1.384 . S
N2302 C2298 1.427 . S
N2302 C2299 1.384 . S
N2303 C2295 1.427 . S
N2303 C2301 1.384 . S
H2304 C2310 0.930 . S
H2305 C2314 0.930 . S
H2306 C2319 0.929 . S
H2307 C2317 0.929 . S
H2308 C2312 0.929 . S
H2309 C2318 0.929 . S
C2310 H2304 0.930 . S
C2310 C2311 1.367 . S
C2310 C2318 1.378 . S
C2311 C2310 1.367 . S
C2311 C2319 1.433 . S
C2312 H2308 0.929 . S
C2312 C2314 1.378 . S
C2312 C2316 1.350 . S
C2313 C2316 1.463 . S
C2313 C2318 1.350 . S
C2313 N2321 1.427 . S
C2314 H2305 0.930 . S
C2314 C2312 1.378 . S
C2314 C2315 1.367 . S
C2315 C2314 1.367 . S
C2315 C2317 1.433 . S
C2316 C2312 1.350 . S
C2316 C2313 1.463 . S
C2316 N2320 1.427 . S
C2317 H2307 0.929 . S
C2317 C2315 1.433 . S
C2317 N2320 1.384 . S
C2318 H2309 0.929 . S
C2318 C2310 1.378 . S
C2318 C2313 1.350 . S
C2319 H2306 0.929 . S
C2319 C2311 1.433 . S
C2319 N2321 1.384 . S
N2320 C2316 1.427 . S
N2320 C2317 1.384 . S
N2321 C2313 1.427 . S
N2321 C2319 1.384 . S
H2322 C2328 0.930 1_455 S
H2323 C2332 0.930 . S
H2324 C2337 0.929 . S
H2325 C2335 0.929 . S
H2326 C2330 0.929 . S
H2327 C2336 0.929 1_455 S
C2328 H2322 0.930 1_655 S
C2328 C2329 1.367 . S
C2328 C2336 1.378 . S
C2329 C2328 1.367 . S
C2329 C2337 1.433 . S
C2330 H2326 0.929 . S
C2330 C2332 1.378 . S
C2330 C2334 1.350 . S
C2331 C2334 1.463 . S
C2331 C2336 1.350 . S
C2331 N2339 1.427 . S
C2332 H2323 0.930 . S
C2332 C2330 1.378 . S
C2332 C2333 1.367 . S
C2333 C2332 1.367 . S
C2333 C2335 1.433 1_655 S
C2334 C2330 1.350 . S
C2334 C2331 1.463 . S
C2334 N2338 1.413 1_655 S
C2335 H2325 0.929 . S
C2335 C2333 1.433 1_455 S
C2335 N2338 1.406 . S
C2336 H2327 0.929 1_655 S
C2336 C2328 1.378 . S
C2336 C2331 1.350 . S
C2337 H2324 0.929 . S
C2337 C2329 1.433 . S
C2337 N2339 1.384 . S
N2338 C2334 1.413 1_455 S
N2338 C2335 1.406 . S
N2339 C2331 1.427 . S
N2339 C2337 1.384 . S
H2340 C2346 0.930 . S
H2341 C2350 0.930 . S
H2342 C2355 0.929 . S
H2343 C2353 0.929 . S
H2344 C2348 0.929 . S
H2345 C2354 0.929 . S
C2346 H2340 0.930 . S
C2346 C2347 1.367 . S
C2346 C2354 1.378 . S
C2347 C2346 1.367 . S
C2347 C2355 1.433 . S
C2348 H2344 0.929 . S
C2348 C2350 1.378 . S
C2348 C2352 1.350 . S
C2349 C2352 1.463 . S
C2349 C2354 1.350 . S
C2349 N2357 1.427 . S
C2350 H2341 0.930 . S
C2350 C2348 1.378 . S
C2350 C2351 1.367 . S
C2351 C2350 1.367 . S
C2351 C2353 1.433 . S
C2352 C2348 1.350 . S
C2352 C2349 1.463 . S
C2352 N2356 1.427 . S
C2353 H2343 0.929 . S
C2353 C2351 1.433 . S
C2353 N2356 1.384 . S
C2354 H2345 0.929 . S
C2354 C2346 1.378 . S
C2354 C2349 1.350 . S
C2355 H2342 0.929 . S
C2355 C2347 1.433 . S
C2355 N2357 1.384 . S
N2356 C2352 1.427 . S
N2356 C2353 1.384 . S
N2357 C2349 1.427 . S
N2357 C2355 1.384 . S
H2358 C2364 0.930 . S
H2359 C2368 0.930 . S
H2360 C2373 0.929 . S
H2361 C2371 0.929 . S
H2362 C2366 0.929 . S
H2363 C2372 0.929 . S
C2364 H2358 0.930 . S
C2364 C2365 1.367 . S
C2364 C2372 1.378 . S
C2365 C2364 1.367 . S
C2365 C2373 1.433 1_545 S
C2366 H2362 0.929 . S
C2366 C2368 1.378 . S
C2366 C2370 1.350 1_565 S
C2367 C2370 1.463 . S
C2367 C2372 1.350 . S
C2367 N2375 1.427 1_545 S
C2368 H2359 0.930 . S
C2368 C2366 1.378 . S
C2368 C2369 1.367 1_565 S
C2369 C2368 1.367 1_545 S
C2369 C2371 1.433 . S
C2370 C2366 1.350 1_545 S
C2370 C2367 1.463 . S
C2370 N2374 1.427 . S
C2371 H2361 0.929 . S
C2371 C2369 1.433 . S
C2371 N2374 1.384 . S
C2372 H2363 0.929 . S
C2372 C2364 1.378 . S
C2372 C2367 1.350 . S
C2373 H2360 0.929 . S
C2373 C2365 1.433 1_565 S
C2373 N2375 1.384 . S
N2374 C2370 1.427 . S
N2374 C2371 1.384 . S
N2375 C2367 1.427 1_565 S
N2375 C2373 1.384 . S
C1087 C7 1.428 . S
C1091 C688 1.458 . S
C1105 C23 1.603 . S
C1109 C734 1.584 . S
C1127 C766 1.475 . S
C1123 C37 1.435 . S
C1141 C35 1.440 . S
C1145 C819 1.460 . S
C1159 C9 1.451 . S
C1163 C865 1.481 . S
C1177 C21 1.581 . S
C1181 C904 1.608 . S
C1195 C49 1.424 . S
C1199 C858 1.447 . S
C1217 C911 1.597 . S
C1213 C65 1.598 . S
C1235 C812 1.493 . S
C1231 C79 1.446 . S
C1249 C77 1.422 . S
C1253 C773 1.440 . S
C1271 C667 1.490 . S
C1267 C51 1.443 . S
C1285 C63 1.575 . S
C1289 C713 1.591 . S
C1303 C91 1.654 . S
C1307 C943 1.691 . S
C1321 C107 1.673 . S
C1325 C1010 1.646 . S
C1343 C1056 1.641 . S
C1339 C121 1.671 . S
C1357 C119 1.605 . S
C1361 C267 1.621 . S
C1375 C93 1.672 . S
C1379 C313 1.654 . S
C1393 C105 1.630 . S
C1397 C359 1.637 . S
C1411 C133 1.555 . S
C1415 C306 1.575 . S
C1429 C149 1.645 . S
C1433 C352 1.632 . S
C1451 C260 1.646 . S
C1447 C163 1.673 . S
C1469 C1035 1.720 . S
C1465 C161 1.701 . S
C1487 C964 1.649 . S
C1483 C135 1.658 . S
C1505 C989 1.676 . S
C1501 C147 1.653 . S
C1519 C175 1.558 . S
C1523 C391 1.590 . S
C1537 C191 1.642 . S
C1541 C444 1.632 . S
C1555 C205 1.669 . S
C1559 C490 1.658 . S
C1573 C203 1.688 . S
C1577 C536 1.723 . S
C1595 C589 1.648 . S
C1591 C177 1.668 . S
C1613 C635 1.676 . S
C1609 C189 1.648 . S
C1631 C582 1.688 . S
C1627 C217 1.668 . S
C1649 C628 1.651 . S
C1645 C233 1.681 . S
C1663 C247 1.665 . S
C1667 C543 1.654 . S
C1685 C497 1.625 . S
C1681 C245 1.602 . S
C1699 C219 1.667 . S
C1703 C412 1.665 . S
C1721 C451 1.648 . S
C1717 C231 1.623 . S
C1739 C274 1.628 . S
C1735 C8 1.640 . S
C1753 C17 1.539 . S
C1757 C320 1.530 . S
C1775 C366 1.630 . S
C1771 C31 1.634 . S
C1793 C398 1.629 . S
C1789 C36 1.654 . S
C1811 C437 1.603 . S
C1807 C3 1.618 . S
C1829 C483 1.523 . S
C1825 C22 1.553 . S
C1843 C50 1.647 . S
C1847 C504 1.628 . S
C1861 C59 1.532 . S
C1865 C405 1.504 . S
C1879 C73 1.615 . S
C1883 C458 1.603 . S
C1897 C78 1.673 . S
C1901 C299 1.665 . S
C1919 C345 1.613 . S
C1915 C45 1.614 . S
C1933 C64 1.550 . S
C1937 C253 1.529 . S
C1955 C529 1.572 . S
C1951 C92 1.597 . S
C1969 C101 1.682 . S
C1973 C596 1.663 . S
C1987 C115 1.691 . S
C1991 C642 1.675 . S
C2009 C681 1.429 . S
C2005 C120 1.427 . S
C2023 C87 1.594 . S
C2027 C727 1.586 . S
C2041 C106 1.388 . S
C2045 C759 1.394 . S
C2059 C134 1.411 . S
C2063 C780 1.406 . S
C2077 C143 1.411 . S
C2081 C674 1.413 . S
C2099 C720 1.595 . S
C2095 C157 1.606 . S
C2113 C162 1.612 . S
C2117 C575 1.595 . S
C2131 C129 1.682 . S
C2135 C621 1.660 . S
C2153 C550 1.641 . S
C2149 C148 1.679 . S
C2171 C826 1.416 . S
C2167 C176 1.410 . S
C2185 C185 1.411 . S
C2189 C872 1.407 . S
C2203 C199 1.606 . S
C2207 C897 1.585 . S
C2225 C950 1.576 . S
C2221 C204 1.601 . S
C2243 C1003 1.666 . S
C2239 C171 1.685 . S
C2257 C190 1.684 . S
C2261 C1049 1.666 . S
C2275 C218 1.602 . S
C2279 C1042 1.584 . S
C2293 C227 1.677 . S
C2297 C957 1.652 . S
C2315 C996 1.658 . S
C2311 C241 1.677 . S
C2333 C851 1.424 . S
C2329 C246 1.419 . S
C2351 C918 1.576 . S
C2347 C213 1.601 . S
C2365 C232 1.393 . S
C2369 C805 1.398 . S
