# Generated by pormake.
# Topology anh, (6,3)-cn, num edge types: 1
# Building blocks:
#     Node 0, Type 0, BuildingBlock: BETFEN_clean_sbu_0, # of connection points: 6
#     Node 1, Type 0, BuildingBlock: BETFEN_clean_sbu_0, # of connection points: 6
#     Node 2, Type 0, BuildingBlock: BETFEN_clean_sbu_0, # of connection points: 6
#     Node 3, Type 1, BuildingBlock: QEWDON_clean_linker_0, # of connection points: 3
#     Node 4, Type 1, BuildingBlock: QEWDON_clean_linker_0, # of connection points: 3
#     Node 5, Type 1, BuildingBlock: QEWDON_clean_linker_0, # of connection points: 3
#     Node 6, Type 1, BuildingBlock: QEWDON_clean_linker_0, # of connection points: 3
#     Node 7, Type 1, BuildingBlock: QEWDON_clean_linker_0, # of connection points: 3
#     Node 8, Type 1, BuildingBlock: QEWDON_clean_linker_0, # of connection points: 3
#     Edge 9, Type (0, 1), BuildingBlock: OJICUG_clean_linker_0, # of connection points: 2
#     Edge 10, Type (0, 1), BuildingBlock: OJICUG_clean_linker_0, # of connection points: 2
#     Edge 11, Type (0, 1), BuildingBlock: OJICUG_clean_linker_0, # of connection points: 2
#     Edge 12, Type (0, 1), BuildingBlock: OJICUG_clean_linker_0, # of connection points: 2
#     Edge 13, Type (0, 1), BuildingBlock: OJICUG_clean_linker_0, # of connection points: 2
#     Edge 14, Type (0, 1), BuildingBlock: OJICUG_clean_linker_0, # of connection points: 2
#     Edge 15, Type (0, 1), BuildingBlock: OJICUG_clean_linker_0, # of connection points: 2
#     Edge 16, Type (0, 1), BuildingBlock: OJICUG_clean_linker_0, # of connection points: 2
#     Edge 17, Type (0, 1), BuildingBlock: OJICUG_clean_linker_0, # of connection points: 2
#     Edge 18, Type (0, 1), BuildingBlock: OJICUG_clean_linker_0, # of connection points: 2
#     Edge 19, Type (0, 1), BuildingBlock: OJICUG_clean_linker_0, # of connection points: 2
#     Edge 20, Type (0, 1), BuildingBlock: OJICUG_clean_linker_0, # of connection points: 2
#     Edge 21, Type (0, 1), BuildingBlock: OJICUG_clean_linker_0, # of connection points: 2
#     Edge 22, Type (0, 1), BuildingBlock: OJICUG_clean_linker_0, # of connection points: 2
#     Edge 23, Type (0, 1), BuildingBlock: OJICUG_clean_linker_0, # of connection points: 2
#     Edge 24, Type (0, 1), BuildingBlock: OJICUG_clean_linker_0, # of connection points: 2
#     Edge 25, Type (0, 1), BuildingBlock: OJICUG_clean_linker_0, # of connection points: 2
#     Edge 26, Type (0, 1), BuildingBlock: OJICUG_clean_linker_0, # of connection points: 2
# Relax obj value: 0.193
# Max RMSD: 0.197
# Mean RMSD: 0.130
data_MOF--net-anh--node1-BETFEN_clean_sbu_0--node2-QEWDON_clean_linker_0--edge1-OJICUG_clean_linker_0
_symmetry_space_group_name_H-M    P1
_symmetry_Int_Tables_number       1
_symmetry_cell_setting            triclinic
loop_
_symmetry_equiv_pos_as_xyz
'x, y, z'
_cell_length_a     23.104095
_cell_length_b     23.812219
_cell_length_c     35.586926
_cell_angle_alpha  94.597591
_cell_angle_beta   95.289774
_cell_angle_gamma 96.691331
loop_
_atom_site_label
_atom_site_type_symbol
_atom_site_fract_x
_atom_site_fract_y
_atom_site_fract_z
_atom_type_partial_charge
Pr0 Pr 0.06795 0.5821 0.14564 0.0
Pr1 Pr 0.0903 0.71255 0.12744 0.0
C2 C 1.02923 0.48187 0.17007 0.0
C3 C 0.97147 0.45503 0.1781 0.0
C4 C 0.95173 0.39912 0.16315 0.0
C5 C 0.89443 0.37522 0.16643 0.0
C6 C 0.85572 0.40677 0.18493 0.0
C7 C 0.8765 0.46217 0.20112 0.0
C8 C 0.93363 0.48619 0.19753 0.0
C9 C 0.07549 0.6036 0.07015 0.0
C10 C 0.95342 0.65704 0.13295 0.0
C11 C 0.11979 0.80688 0.09385 0.0
C12 C 0.16798 0.85395 0.10318 0.0
C13 C 0.15517 0.90844 0.11489 0.0
C14 C 0.20016 0.95126 0.12926 0.0
C15 C 0.2589 0.94055 0.13184 0.0
C16 C 0.27196 0.88694 0.11827 0.0
C17 C 0.22696 0.84395 0.10423 0.0
C18 C 0.10104 0.70804 0.20618 0.0
C19 C 0.20382 0.63802 0.14458 0.0
O20 O 0.05371 0.52569 0.19304 0.0
O21 O 1.03463 0.48854 0.13439 0.0
O22 O 0.04933 0.63023 0.09386 0.0
O23 O 0.09837 0.56177 0.08473 0.0
O24 O 0.98784 0.69817 0.12017 0.0
O25 O 0.97409 0.61241 0.14681 0.0
O26 O 0.13453 0.75726 0.08221 0.0
O27 O 0.07956 0.80357 0.11761 0.0
O28 O 0.08988 0.66652 0.18136 0.0
O29 O 0.10775 0.75501 0.19007 0.0
O30 O 0.16965 0.59892 0.15939 0.0
O31 O 0.18259 0.67917 0.12676 0.0
H32 H 0.98006 0.37457 0.14774 0.0
H33 H 0.87986 0.33283 0.15309 0.0
H34 H 0.84834 0.48744 0.21608 0.0
H35 H 0.9476 0.52964 0.20911 0.0
H36 H 0.11016 0.91731 0.11427 0.0
H37 H 0.18895 0.99248 0.13908 0.0
H38 H 0.31679 0.8774 0.12014 0.0
H39 H 0.23847 0.80238 0.09558 0.0
Pr40 Pr 0.6274 0.15834 0.48437 0.0
Pr41 Pr 0.50517 0.14256 0.50684 0.0
C42 C 0.7253 0.19035 0.45184 0.0
C43 C 0.76072 0.24458 0.44679 0.0
C44 C 0.81803 0.25661 0.46481 0.0
C45 C 0.85041 0.30957 0.46325 0.0
C46 C 0.82637 0.35131 0.44322 0.0
C47 C 0.76996 0.3385 0.42387 0.0
C48 C 0.73729 0.28574 0.42576 0.0
C49 C 0.62185 0.1498 0.56113 0.0
C50 C 0.56195 0.27618 0.50759 0.0
C51 C 0.40322 0.10886 0.53407 0.0
C52 C 0.36317 1.05523 0.52865 0.0
C53 C 0.30381 1.05612 0.51662 0.0
C54 C 0.26703 1.00542 0.50582 0.0
C55 C 0.28899 0.95278 0.50683 0.0
C56 C 0.34791 0.95197 0.52054 0.0
C57 C 0.38463 1.00268 0.53135 0.0
C58 C 0.51171 0.15117 0.42979 0.0
C59 C 0.57459 1.02493 0.49238 0.0
O60 O 0.67331 0.17949 0.43287 0.0
O61 O 0.72613 0.17569 0.4865 0.0
O62 O 0.59117 0.17881 0.5411 0.0
O63 O 0.65929 0.12599 0.54214 0.0
O64 O 0.5228 0.24184 0.52257 0.0
O65 O 0.60234 0.25429 0.48858 0.0
O66 O 0.4543 0.10814 0.55319 0.0
O67 O 0.4064 0.13701 0.50412 0.0
O68 O 0.5414 0.12108 0.4497 0.0
O69 O 0.47662 0.17727 0.44934 0.0
O70 O 0.61548 1.05773 0.47768 0.0
O71 O 0.53072 1.04757 0.50686 0.0
H72 H 0.83723 0.2255 0.48097 0.0
H73 H 0.89396 0.31827 0.47821 0.0
H74 H 0.75015 0.37014 0.40857 0.0
H75 H 0.6932 0.27789 0.41158 0.0
H76 H 0.28643 1.09615 0.5141 0.0
H77 H 0.22207 1.00767 0.49499 0.0
H78 H 0.36598 0.91215 0.52218 0.0
H79 H 0.43022 1.00074 0.54068 0.0
Pr80 Pr 0.57423 0.58081 0.82108 0.0
Pr81 Pr 0.59042 0.70564 0.82894 0.0
C82 C 0.58505 0.47029 0.80963 0.0
C83 C 0.63453 0.43876 0.81928 0.0
C84 C 0.62484 0.39012 0.83842 0.0
C85 C 0.67051 0.35858 0.84714 0.0
C86 C 0.72712 0.37477 0.83658 0.0
C87 C 0.73771 0.42639 0.82027 0.0
C88 C 0.69173 0.45805 0.81157 0.0
C89 C 0.56772 0.62777 0.89469 0.0
C90 C 0.71151 0.64554 0.83315 0.0
C91 C 0.60025 0.81586 0.85369 0.0
C92 C 0.55778 0.8576 0.85455 0.0
C93 C 0.53817 0.88085 0.82141 0.0
C94 C 0.49699 0.91914 0.82239 0.0
C95 C 0.47418 0.93502 0.8565 0.0
C96 C 0.49283 0.91072 0.88949 0.0
C97 C 0.53439 0.87258 0.88855 0.0
C98 C 0.56538 0.66082 0.75321 0.0
C99 C 0.45646 0.63936 0.81659 0.0
O100 O 0.59044 0.50472 0.78295 0.0
O101 O 0.56147 0.49153 0.83858 0.0
O102 O 0.60578 0.64352 0.87329 0.0
O103 O 0.52974 0.58703 0.87781 0.0
O104 O 0.69021 0.69427 0.83021 0.0
O105 O 0.67655 0.59761 0.83299 0.0
O106 O 0.5917 0.77515 0.87588 0.0
O107 O 0.61549 0.79824 0.82057 0.0
O108 O 0.60022 0.64301 0.77764 0.0
O109 O 0.54196 0.70364 0.76757 0.0
O110 O 0.47953 0.59747 0.79944 0.0
O111 O 0.49073 0.68154 0.83665 0.0
H112 H 0.58136 0.37543 0.84555 0.0
H113 H 0.65977 0.31895 0.85935 0.0
H114 H 0.78062 0.44024 0.81192 0.0
H115 H 0.70067 0.49657 0.79775 0.0
H116 H 0.55509 0.87013 0.79472 0.0
H117 H 0.48513 0.9382 0.79661 0.0
H118 H 0.47628 0.92213 0.9162 0.0
H119 H 0.54848 0.855 0.91452 0.0
H120 H 0.54908 0.23248 0.26333 0.0
C121 C 0.52056 0.19712 0.24788 0.0
C122 C 0.49642 0.1528 0.26763 0.0
C123 C 0.50648 0.19671 0.20852 0.0
H124 H 0.43783 1.07476 0.2634 0.0
C125 C 0.45763 0.10819 0.24796 0.0
C126 C 0.44225 0.10766 0.20885 0.0
C127 C 0.46771 0.1514 0.18923 0.0
C128 C 0.52954 0.24477 0.18769 0.0
H129 H 0.45588 0.15101 0.15901 0.0
C130 C 0.58871 0.2686 0.19429 0.0
C131 C 0.6106 0.31329 0.17375 0.0
C132 C 0.49214 0.26684 0.16072 0.0
H133 H 0.44618 0.25017 0.15548 0.0
C134 C 0.51344 0.31105 0.14039 0.0
H135 H 0.61769 0.25207 0.21521 0.0
C136 C 0.57219 0.33396 0.14663 0.0
H137 H 0.58766 0.36735 0.12971 0.0
H138 H 0.48432 0.32744 0.11952 0.0
H139 H 0.57758 0.68625 0.57738 0.0
C140 C 0.57196 0.64227 0.56602 0.0
C141 C 0.56564 0.60006 0.5915 0.0
C142 C 0.57417 0.62837 0.52688 0.0
H143 H 0.55702 0.51037 0.59763 0.0
C144 C 0.5615 0.54246 0.5778 0.0
C145 C 0.56356 0.52535 0.53926 0.0
C146 C 0.56941 0.56874 0.51397 0.0
C147 C 0.58492 0.67586 0.50041 0.0
H148 H 0.56896 0.55518 0.48425 0.0
C149 C 0.57601 0.7346 0.5092 0.0
C150 C 0.5907 0.77738 0.48413 0.0
C151 C 0.60781 0.66262 0.46586 0.0
H152 H 0.61831 0.62063 0.45782 0.0
C153 C 0.61967 0.7035 0.44087 0.0
H154 H 0.55884 0.74759 0.53532 0.0
C155 C 0.61124 0.75967 0.44972 0.0
H156 H 0.62144 0.7898 0.4293 0.0
H157 H 0.63669 0.69161 0.41442 0.0
H158 H 0.12818 0.65148 0.89677 0.0
C159 C 0.08233 0.64719 0.88614 0.0
C160 C 1.04037 0.63824 0.91192 0.0
C161 C 0.06512 0.65328 0.84762 0.0
H162 H 0.94842 0.62895 0.91941 0.0
C163 C 0.98074 0.63533 0.89939 0.0
C164 C 0.96218 0.6415 0.86162 0.0
C165 C 1.00424 0.6498 0.8358 0.0
C166 C 0.11012 0.66488 0.82013 0.0
H167 H 0.98876 0.65249 0.80646 0.0
C168 C 0.16731 0.64853 0.82573 0.0
C169 C 0.20861 0.65997 0.79955 0.0
C170 C 0.09639 0.69375 0.78796 0.0
H171 H 0.05476 0.70984 0.78302 0.0
C172 C 0.13673 0.70376 0.76169 0.0
H173 H 0.18004 0.62631 0.84991 0.0
C174 C 0.19228 0.6868 0.76727 0.0
H175 H 0.22329 0.69633 0.7469 0.0
H176 H 0.12514 0.72574 0.73713 0.0
H177 H 1.0181 0.65432 0.36742 0.0
C178 C 0.05239 0.68161 0.38527 0.0
C179 C 0.09898 0.71058 0.36886 0.0
C180 C 1.04742 0.69161 0.42429 0.0
H181 H 0.17721 0.77088 0.37973 0.0
C182 C 0.14173 0.74781 0.39226 0.0
C183 C 0.13715 0.75847 0.43114 0.0
C184 C 0.09033 0.72952 0.44696 0.0
C185 C 0.99509 0.66692 0.44132 0.0
H186 H 0.08664 0.7373 0.47703 0.0
C187 C 0.97487 0.60846 0.43545 0.0
C188 C 0.92793 0.58553 0.45436 0.0
C189 C 0.9662 0.70227 0.46494 0.0
H190 H 0.98022 0.74755 0.46943 0.0
C191 C 0.91902 0.6797 0.48305 0.0
H192 H 0.99697 0.58065 0.41757 0.0
C193 C 0.90026 0.62161 0.47811 0.0
H194 H 0.86383 0.60478 0.49271 0.0
H195 H 0.89724 0.70727 0.50123 0.0
H196 H 0.52564 0.14925 0.72569 0.0
C197 C 0.56876 0.15946 0.74117 0.0
C198 C 0.61918 0.15467 0.72249 0.0
C199 C 0.5737 0.18073 0.77922 0.0
H200 H 0.71375 0.16605 0.72851 0.0
C201 C 0.67476 0.16766 0.7431 0.0
C202 C 0.68043 0.18962 0.78126 0.0
C203 C 0.62914 0.19524 0.79914 0.0
C204 C 0.52092 0.18839 0.79839 0.0
H205 H 0.63181 0.21406 0.82809 0.0
C206 C 0.48532 0.1404 0.80644 0.0
C207 C 0.44035 0.14535 0.83 0.0
C208 C 0.5093 0.24243 0.81214 0.0
H209 H 0.53673 0.28013 0.80627 0.0
C210 C 0.46281 0.24779 0.83429 0.0
H211 H 0.49606 1.09868 0.79708 0.0
C212 C 0.42907 0.19929 0.84395 0.0
H213 H 0.39566 0.20371 0.86305 0.0
H214 H 0.4544 0.28949 0.84519 0.0
H215 H 0.53712 0.66578 0.07484 0.0
C216 C 0.58219 0.6616 0.08405 0.0
C217 C 0.62203 0.66042 0.05655 0.0
C218 C 0.60069 0.65936 0.12284 0.0
H219 H 0.71245 0.65813 0.04687 0.0
C220 C 0.68151 0.65923 0.06797 0.0
C221 C 0.7017 0.6578 0.10614 0.0
C222 C 0.661 0.65587 0.13325 0.0
C223 C 0.55783 0.66296 0.1523 0.0
H224 H 0.67714 0.65265 0.16239 0.0
C225 C 0.49647 0.64785 0.14306 0.0
C226 C 0.45691 0.65359 0.17071 0.0
C227 C 0.57787 0.68378 0.19008 0.0
H228 H 0.62355 0.69848 0.19869 0.0
C229 C 0.53899 0.68774 0.21763 0.0
H230 H 0.47881 0.63109 0.11465 0.0
C231 C 0.47906 0.67277 0.20813 0.0
H232 H 0.44976 0.67798 0.22989 0.0
H233 H 0.55536 0.70376 0.24644 0.0
C234 C 0.30443 0.6682 0.12582 0.0
C235 C 0.26842 0.63707 0.14872 0.0
H236 H 0.39214 0.69666 0.11427 0.0
C237 C 0.29509 0.60733 0.17676 0.0
H238 H 0.28542 0.6914 0.10382 0.0
C239 C 0.35627 0.61086 0.18292 0.0
C240 C 0.39223 0.64331 0.16073 0.0
H241 H 0.26881 0.58299 0.19492 0.0
H242 H 0.37559 0.58914 0.20561 0.0
C243 C 0.3656 0.67088 0.13155 0.0
C244 C 0.86204 0.43842 0.41231 0.0
C245 C 0.85789 0.4095 0.4451 0.0
H246 H 0.88897 0.51712 0.38953 0.0
C247 C 0.88085 0.43781 0.4804 0.0
H248 H 0.84485 0.41741 0.38475 0.0
C249 C 0.90528 0.49457 0.48311 0.0
C250 C 0.90803 0.5239 0.45053 0.0
H251 H 0.87777 0.41674 0.50615 0.0
H252 H 0.92099 0.516 0.51081 0.0
C253 C 0.88748 0.49512 0.41498 0.0
C254 C 0.40147 0.9924 0.82646 0.0
C255 C 0.43916 0.98343 0.85819 0.0
H256 H 0.36956 1.05475 0.79263 0.0
C257 C 0.45445 1.02784 0.88719 0.0
H258 H 0.38707 0.95841 0.80432 0.0
C259 C 0.44247 1.08261 0.88098 0.0
C260 C 0.41636 1.09327 0.84554 0.0
H261 H 0.48272 1.02239 0.91229 0.0
H262 H 0.46262 0.11752 0.90114 0.0
C263 C 0.39036 1.04736 0.82004 0.0
C264 C 0.86533 0.70145 0.10931 0.0
C265 C 0.88895 0.6594 0.12932 0.0
H266 H 0.7881 0.73389 0.08675 0.0
C267 C 0.85013 0.61871 0.14419 0.0
H268 H 0.89354 0.73361 0.09752 0.0
C269 C 0.78919 0.61927 0.13819 0.0
C270 C 0.76591 0.66008 0.11683 0.0
H271 H 0.86669 0.58578 0.15986 0.0
H272 H 0.7603 0.58659 0.149 0.0
C273 C 0.80475 0.70161 0.10305 0.0
C274 C 0.19206 0.89085 0.49702 0.0
C275 C 0.25159 0.89954 0.49105 0.0
H276 H 0.10935 0.83975 0.48276 0.0
C277 C 0.27425 0.85877 0.46764 0.0
H278 H 0.17338 0.92109 0.51522 0.0
C279 C 0.23769 0.8117 0.44938 0.0
C280 C 0.17764 0.80429 0.45412 0.0
H281 H 0.3198 0.86438 0.46213 0.0
H282 H 0.25617 0.78175 0.43085 0.0
C283 C 0.15551 0.8438 0.47877 0.0
C284 C 0.781 0.31766 0.7952 0.0
C285 C 0.76716 0.33058 0.83231 0.0
H286 H 0.76238 0.25653 0.74753 0.0
C287 C 0.76269 0.28577 0.8558 0.0
H288 H 0.79027 0.35099 0.77683 0.0
C289 C 0.74642 0.23041 0.83885 0.0
C290 C 0.73674 0.22164 0.79906 0.0
H291 H 0.75711 0.29432 0.88552 0.0
H292 H 0.72952 0.19813 0.85618 0.0
C293 C 0.76463 0.26262 0.77813 0.0
C294 C 0.53282 0.92274 0.50343 0.0
C295 C 0.57878 0.96158 0.49319 0.0
H296 H 0.49996 0.83515 0.50927 0.0
C297 C 0.62982 0.93902 0.48379 0.0
H298 H 0.49271 0.93783 0.51103 0.0
C299 C 0.63424 0.88041 0.48342 0.0
C300 C 0.58768 0.84098 0.49204 0.0
H301 H 0.66673 0.96671 0.47628 0.0
H302 H 0.67429 0.86559 0.4753 0.0
C303 C 0.53714 0.8635 0.50282 0.0
C304 C 0.81565 0.68944 0.82957 0.0
C305 C 0.77595 0.64382 0.83798 0.0
H306 H 0.90605 0.72378 0.82953 0.0
C307 C 0.7984 0.59596 0.85158 0.0
H308 H 0.79986 0.72676 0.81883 0.0
C309 C 0.85882 0.59453 0.85788 0.0
C310 C 0.89846 0.64045 0.85017 0.0
H311 H 0.7693 0.56004 0.85843 0.0
H312 H 0.87469 0.5578 0.86948 0.0
C313 C 0.87636 0.68756 0.83531 0.0
C314 C 0.35919 0.99568 0.13525 0.0
C315 C 0.30596 0.98382 0.15097 0.0
H316 H 0.44427 1.0444 0.14129 0.0
C317 C 0.29837 1.01233 0.18595 0.0
H318 H 0.36612 0.97434 0.1083 0.0
C319 C 0.34302 1.05182 0.20487 0.0
C320 C 0.3961 1.06403 0.1891 0.0
H321 H 0.25813 1.00349 0.19898 0.0
H322 H 0.33568 1.07348 0.23164 0.0
C323 C 0.40372 1.03579 0.15402 0.0
C324 C 0.60008 0.37947 0.49701 0.0
C325 C 0.56094 0.34024 0.51318 0.0
H326 H 0.63134 0.46748 0.49165 0.0
C327 C 0.52037 0.36319 0.53543 0.0
H328 H 0.63197 0.36416 0.47955 0.0
C329 C 0.51997 0.42237 0.54225 0.0
C330 C 0.55993 0.46183 0.52706 0.0
H331 H 0.48904 0.33529 0.54829 0.0
H332 H 0.48837 0.43736 0.56008 0.0
C333 C 0.59941 0.43912 0.50369 0.0
C334 C 0.36632 0.67023 0.84206 0.0
C335 C 0.39195 0.63959 0.81387 0.0
H336 H 0.28773 0.69906 0.8601 0.0
C337 C 0.35562 0.61128 0.78258 0.0
H338 H 0.39309 0.6922 0.86666 0.0
C339 C 0.29544 0.61594 0.77864 0.0
C340 C 0.27015 0.64773 0.8064 0.0
H341 H 0.37403 0.58744 0.76039 0.0
H342 H 0.26879 0.5958 0.75344 0.0
C343 C 0.30597 0.67374 0.83855 0.0
C344 C 0.77691 0.32516 0.18834 0.0
C345 C 0.79311 0.38329 0.18518 0.0
H346 H 0.70704 0.25733 0.18671 0.0
C347 C 0.74869 0.41854 0.18035 0.0
H348 H 0.80988 0.29686 0.19262 0.0
C349 C 0.68975 0.3961 0.17787 0.0
C350 C 0.67348 0.33766 0.17966 0.0
H351 H 0.75925 0.46335 0.17731 0.0
H352 H 0.65686 0.42462 0.17407 0.0
C353 C 0.71783 0.30259 0.18548 0.0
C354 C 1.04352 0.66022 0.01814 0.0
C355 C 0.07363 0.61573 0.03002 0.0
H356 H 1.0102 0.70238 0.97145 0.0
C357 C 0.09835 0.58209 0.00302 0.0
H358 H 1.02442 0.68725 0.0383 0.0
C359 C 0.09053 0.59125 0.96448 0.0
C360 C 0.05753 0.63382 0.95261 0.0
H361 H 0.122 0.54771 0.01148 0.0
H362 H 0.1078 0.56348 0.94385 0.0
C363 C 1.03541 0.66901 0.97989 0.0
C364 C 0.53283 0.10977 0.36635 0.0
C365 C 0.51307 0.15359 0.38864 0.0
H366 H 0.54229 1.07494 0.30997 0.0
C367 C 0.49219 0.19912 0.37111 0.0
H368 H 0.54916 1.07425 0.37925 0.0
C369 C 0.48969 0.20019 0.33181 0.0
C370 C 0.50689 0.15517 0.30935 0.0
H371 H 0.47707 0.23359 0.38776 0.0
H372 H 0.47205 0.23504 0.31882 0.0
C373 C 0.52897 0.11017 0.32688 0.0
C374 C 0.59567 0.60165 0.69874 0.0
C375 C 0.56365 0.64456 0.71191 0.0
H376 H 0.62235 0.55485 0.65083 0.0
C377 C 0.53201 0.67284 0.68525 0.0
H378 H 0.62076 0.57923 0.71853 0.0
C379 C 0.53281 0.65876 0.64624 0.0
C380 C 0.56502 0.61586 0.63302 0.0
H381 H 0.50694 0.70613 0.69452 0.0
H382 H 0.50768 0.68106 0.62642 0.0
C383 C 0.59639 0.58753 0.65986 0.0
C384 C 0.57792 0.17618 0.62012 0.0
C385 C 0.61772 0.14632 0.6018 0.0
H386 H 0.54736 0.20226 0.67267 0.0
C387 C 0.65415 0.11438 0.62279 0.0
H388 H 0.54909 0.20088 0.60449 0.0
C389 C 0.65259 0.11439 0.66194 0.0
C390 C 0.61455 0.14637 0.6806 0.0
H391 H 0.68476 1.09046 0.60914 0.0
H392 H 0.68214 1.09062 0.67774 0.0
C393 C 0.57643 0.17633 0.65914 0.0
C394 C 0.54012 0.61262 0.9599 0.0
C395 C 0.57558 0.64221 0.93611 0.0
H396 H 0.52711 0.59523 0.01692 0.0
C397 C 0.62205 0.68265 0.95239 0.0
H398 H 0.50384 0.58136 0.94806 0.0
C399 C 0.63511 0.69083 -0.00833 0.0
C400 C 0.60207 0.65864 0.01551 0.0
H401 H 0.64972 0.70653 0.93473 0.0
H402 H 0.67232 0.72111 0.00337 0.0
C403 C 0.55326 0.62077 -0.0007 0.0
C404 C 0.11404 0.75751 0.2708 0.0
C405 C 0.10169 0.70625 0.2476 0.0
H406 H 0.12143 0.79904 0.3266 0.0
C407 C 0.0883 0.65548 0.26435 0.0
H408 H 0.12402 0.79745 0.25875 0.0
C409 C 0.08724 0.6563 0.30382 0.0
C410 C 0.09989 0.70789 0.32699 0.0
H411 H 0.07829 0.61543 0.24703 0.0
H412 H 0.07701 0.61672 0.31622 0.0
C413 C 0.11294 0.75837 0.30986 0.0
loop_
_geom_bond_atom_site_label_1
_geom_bond_atom_site_label_2
_geom_bond_distance
_geom_bond_site_symmetry_2
_ccdc_geom_bond_type
Pr0 C2 2.880 . S
Pr0 O20 2.562 . S
Pr0 O21 2.490 . S
Pr0 O22 2.695 1_655 S
Pr0 O23 2.512 . S
Pr0 O25 2.437 . S
Pr0 O28 2.436 1_655 S
Pr0 O30 2.438 1_655 S
Pr1 C11 2.880 . S
Pr1 O22 2.436 . S
Pr1 O24 2.438 1_455 S
Pr1 O26 2.562 . S
Pr1 O27 2.490 . S
Pr1 O28 2.695 . S
Pr1 O29 2.512 . S
Pr1 O31 2.437 . S
C2 Pr0 2.880 . S
C2 C3 1.491 . S
C2 O20 1.254 . S
C2 O21 1.225 . S
C3 C2 1.491 . S
C3 C4 1.392 . S
C3 C8 1.356 . S
C4 C3 1.392 . S
C4 C5 1.368 . S
C4 H32 0.929 . S
C5 C4 1.368 . S
C5 C6 1.386 . S
C5 H33 0.929 . S
C6 C5 1.386 . S
C6 C7 1.373 . S
C7 C6 1.373 . S
C7 C8 1.409 . S
C7 H34 0.931 . S
C8 C3 1.356 . S
C8 C7 1.409 . S
C8 H35 0.930 . S
C9 O22 1.270 . S
C9 O23 1.248 1_455 S
C10 O24 1.267 . S
C10 O25 1.278 . S
C11 Pr1 2.880 . S
C11 C12 1.491 . S
C11 O26 1.254 . S
C11 O27 1.225 . S
C12 C11 1.491 . S
C12 C13 1.392 . S
C12 C17 1.356 . S
C13 C12 1.392 . S
C13 C14 1.368 . S
C13 H36 0.929 . S
C14 C13 1.368 . S
C14 C15 1.386 . S
C14 H37 0.929 . S
C15 C14 1.386 . S
C15 C16 1.373 . S
C16 C15 1.373 . S
C16 C17 1.409 . S
C16 H38 0.931 . S
C17 C12 1.356 . S
C17 C16 1.409 . S
C17 H39 0.930 . S
C18 O28 1.270 . S
C18 O29 1.248 . S
C19 O30 1.267 . S
C19 O31 1.278 . S
O20 Pr0 2.562 . S
O20 C2 1.254 . S
O21 Pr0 2.490 . S
O21 C2 1.225 . S
O22 Pr0 2.695 1_455 S
O22 Pr1 2.436 . S
O22 C9 1.270 . S
O23 Pr0 2.512 . S
O23 C9 1.248 1_655 S
O24 Pr1 2.438 1_655 S
O24 C10 1.267 . S
O25 Pr0 2.437 . S
O25 C10 1.278 . S
O26 Pr1 2.562 . S
O26 C11 1.254 . S
O27 Pr1 2.490 . S
O27 C11 1.225 . S
O28 Pr0 2.436 1_455 S
O28 Pr1 2.695 . S
O28 C18 1.270 . S
O29 Pr1 2.512 . S
O29 C18 1.248 . S
O30 Pr0 2.438 1_455 S
O30 C19 1.267 . S
O31 Pr1 2.437 . S
O31 C19 1.278 . S
H32 C4 0.929 . S
H33 C5 0.929 . S
H34 C7 0.931 . S
H35 C8 0.930 . S
H36 C13 0.929 . S
H37 C14 0.929 . S
H38 C16 0.931 . S
H39 C17 0.930 . S
Pr40 C42 2.880 . S
Pr40 O60 2.562 . S
Pr40 O61 2.490 . S
Pr40 O62 2.695 . S
Pr40 O63 2.512 . S
Pr40 O65 2.437 . S
Pr40 O68 2.436 . S
Pr40 O70 2.438 1_545 S
Pr41 C51 2.880 1_545 S
Pr41 O62 2.436 . S
Pr41 O64 2.438 . S
Pr41 O66 2.562 1_545 S
Pr41 O67 2.490 1_545 S
Pr41 O68 2.695 . S
Pr41 O69 2.512 . S
Pr41 O71 2.437 1_545 S
C42 Pr40 2.880 . S
C42 C43 1.491 . S
C42 O60 1.254 . S
C42 O61 1.225 . S
C43 C42 1.491 . S
C43 C44 1.392 . S
C43 C48 1.356 . S
C44 C43 1.392 . S
C44 C45 1.368 . S
C44 H72 0.929 . S
C45 C44 1.368 . S
C45 C46 1.386 . S
C45 H73 0.929 . S
C46 C45 1.386 . S
C46 C47 1.373 . S
C47 C46 1.373 . S
C47 C48 1.409 . S
C47 H74 0.931 . S
C48 C43 1.356 . S
C48 C47 1.409 . S
C48 H75 0.930 . S
C49 O62 1.270 . S
C49 O63 1.248 . S
C50 O64 1.267 . S
C50 O65 1.278 . S
C51 Pr41 2.880 1_565 S
C51 C52 1.491 . S
C51 O66 1.254 . S
C51 O67 1.225 . S
C52 C51 1.491 . S
C52 C53 1.392 . S
C52 C57 1.356 . S
C53 C52 1.392 . S
C53 C54 1.368 . S
C53 H76 0.929 . S
C54 C53 1.368 . S
C54 C55 1.386 . S
C54 H77 0.929 . S
C55 C54 1.386 . S
C55 C56 1.373 . S
C56 C55 1.373 . S
C56 C57 1.409 . S
C56 H78 0.931 . S
C57 C52 1.356 . S
C57 C56 1.409 . S
C57 H79 0.930 . S
C58 O68 1.270 . S
C58 O69 1.248 . S
C59 O70 1.267 . S
C59 O71 1.278 . S
O60 Pr40 2.562 . S
O60 C42 1.254 . S
O61 Pr40 2.490 . S
O61 C42 1.225 . S
O62 Pr40 2.695 . S
O62 Pr41 2.436 . S
O62 C49 1.270 . S
O63 Pr40 2.512 . S
O63 C49 1.248 . S
O64 Pr41 2.438 . S
O64 C50 1.267 . S
O65 Pr40 2.437 . S
O65 C50 1.278 . S
O66 Pr41 2.562 1_565 S
O66 C51 1.254 . S
O67 Pr41 2.490 1_565 S
O67 C51 1.225 . S
O68 Pr40 2.436 . S
O68 Pr41 2.695 . S
O68 C58 1.270 . S
O69 Pr41 2.512 . S
O69 C58 1.248 . S
O70 Pr40 2.438 1_565 S
O70 C59 1.267 . S
O71 Pr41 2.437 1_565 S
O71 C59 1.278 . S
H72 C44 0.929 . S
H73 C45 0.929 . S
H74 C47 0.931 . S
H75 C48 0.930 . S
H76 C53 0.929 . S
H77 C54 0.929 . S
H78 C56 0.931 . S
H79 C57 0.930 . S
Pr80 C82 2.880 . S
Pr80 O100 2.562 . S
Pr80 O101 2.490 . S
Pr80 O102 2.695 . S
Pr80 O103 2.512 . S
Pr80 O105 2.437 . S
Pr80 O108 2.436 . S
Pr80 O110 2.438 . S
Pr81 C91 2.880 . S
Pr81 O102 2.436 . S
Pr81 O104 2.438 . S
Pr81 O106 2.562 . S
Pr81 O107 2.490 . S
Pr81 O108 2.695 . S
Pr81 O109 2.512 . S
Pr81 O111 2.437 . S
C82 Pr80 2.880 . S
C82 C83 1.491 . S
C82 O100 1.254 . S
C82 O101 1.225 . S
C83 C82 1.491 . S
C83 C84 1.392 . S
C83 C88 1.356 . S
C84 C83 1.392 . S
C84 C85 1.368 . S
C84 H112 0.929 . S
C85 C84 1.368 . S
C85 C86 1.386 . S
C85 H113 0.929 . S
C86 C85 1.386 . S
C86 C87 1.373 . S
C87 C86 1.373 . S
C87 C88 1.409 . S
C87 H114 0.931 . S
C88 C83 1.356 . S
C88 C87 1.409 . S
C88 H115 0.930 . S
C89 O102 1.270 . S
C89 O103 1.248 . S
C90 O104 1.267 . S
C90 O105 1.278 . S
C91 Pr81 2.880 . S
C91 C92 1.491 . S
C91 O106 1.254 . S
C91 O107 1.225 . S
C92 C91 1.491 . S
C92 C93 1.392 . S
C92 C97 1.356 . S
C93 C92 1.392 . S
C93 C94 1.368 . S
C93 H116 0.929 . S
C94 C93 1.368 . S
C94 C95 1.386 . S
C94 H117 0.929 . S
C95 C94 1.386 . S
C95 C96 1.373 . S
C96 C95 1.373 . S
C96 C97 1.409 . S
C96 H118 0.931 . S
C97 C92 1.356 . S
C97 C96 1.409 . S
C97 H119 0.930 . S
C98 O108 1.270 . S
C98 O109 1.248 . S
C99 O110 1.267 . S
C99 O111 1.278 . S
O100 Pr80 2.562 . S
O100 C82 1.254 . S
O101 Pr80 2.490 . S
O101 C82 1.225 . S
O102 Pr80 2.695 . S
O102 Pr81 2.436 . S
O102 C89 1.270 . S
O103 Pr80 2.512 . S
O103 C89 1.248 . S
O104 Pr81 2.438 . S
O104 C90 1.267 . S
O105 Pr80 2.437 . S
O105 C90 1.278 . S
O106 Pr81 2.562 . S
O106 C91 1.254 . S
O107 Pr81 2.490 . S
O107 C91 1.225 . S
O108 Pr80 2.436 . S
O108 Pr81 2.695 . S
O108 C98 1.270 . S
O109 Pr81 2.512 . S
O109 C98 1.248 . S
O110 Pr80 2.438 . S
O110 C99 1.267 . S
O111 Pr81 2.437 . S
O111 C99 1.278 . S
H112 C84 0.929 . S
H113 C85 0.929 . S
H114 C87 0.931 . S
H115 C88 0.930 . S
H116 C93 0.929 . S
H117 C94 0.929 . S
H118 C96 0.931 . S
H119 C97 0.930 . S
H120 C121 0.949 . S
C121 H120 0.949 . S
C121 C122 1.395 . S
C121 C123 1.391 . S
C122 C121 1.395 . S
C122 C125 1.390 . S
C123 C121 1.391 . S
C123 C127 1.387 . S
C123 C128 1.491 . S
H124 C125 0.950 1_565 S
C125 C122 1.390 . S
C125 H124 0.950 1_545 S
C125 C126 1.378 . S
C126 C125 1.378 . S
C126 C127 1.408 . S
C127 C123 1.387 . S
C127 C126 1.408 . S
C127 H129 0.951 . S
C128 C123 1.491 . S
C128 C130 1.382 . S
C128 C132 1.404 . S
H129 C127 0.951 . S
C130 C128 1.382 . S
C130 C131 1.390 . S
C130 H135 0.949 . S
C131 C130 1.390 . S
C131 C136 1.399 . S
C132 C128 1.404 . S
C132 H133 0.950 . S
C132 C134 1.375 . S
H133 C132 0.950 . S
C134 C132 1.375 . S
C134 C136 1.382 . S
C134 H138 0.950 . S
H135 C130 0.949 . S
C136 C131 1.399 . S
C136 C134 1.382 . S
C136 H137 0.952 . S
H137 C136 0.952 . S
H138 C134 0.950 . S
H139 C140 0.949 . S
C140 H139 0.949 . S
C140 C141 1.395 . S
C140 C142 1.391 . S
C141 C140 1.395 . S
C141 C144 1.390 . S
C142 C140 1.391 . S
C142 C146 1.387 . S
C142 C147 1.491 . S
H143 C144 0.950 . S
C144 C141 1.390 . S
C144 H143 0.950 . S
C144 C145 1.378 . S
C145 C144 1.378 . S
C145 C146 1.409 . S
C146 C142 1.387 . S
C146 C145 1.409 . S
C146 H148 0.951 . S
C147 C142 1.491 . S
C147 C149 1.382 . S
C147 C151 1.404 . S
H148 C146 0.951 . S
C149 C147 1.382 . S
C149 C150 1.390 . S
C149 H154 0.949 . S
C150 C149 1.390 . S
C150 C155 1.399 . S
C151 C147 1.404 . S
C151 H152 0.950 . S
C151 C153 1.375 . S
H152 C151 0.950 . S
C153 C151 1.375 . S
C153 C155 1.382 . S
C153 H157 0.950 . S
H154 C149 0.949 . S
C155 C150 1.399 . S
C155 C153 1.382 . S
C155 H156 0.952 . S
H156 C155 0.952 . S
H157 C153 0.950 . S
H158 C159 0.949 . S
C159 H158 0.949 . S
C159 C160 1.395 . S
C159 C161 1.391 . S
C160 C159 1.395 . S
C160 C163 1.390 1_455 S
C161 C159 1.391 . S
C161 C165 1.387 1_455 S
C161 C166 1.491 . S
H162 C163 0.950 . S
C163 C160 1.390 1_655 S
C163 H162 0.950 . S
C163 C164 1.378 . S
C164 C163 1.378 . S
C164 C165 1.409 . S
C165 C161 1.387 1_655 S
C165 C164 1.409 . S
C165 H167 0.951 . S
C166 C161 1.491 . S
C166 C168 1.382 . S
C166 C170 1.404 . S
H167 C165 0.951 . S
C168 C166 1.382 . S
C168 C169 1.390 . S
C168 H173 0.949 . S
C169 C168 1.390 . S
C169 C174 1.399 . S
C170 C166 1.404 . S
C170 H171 0.950 . S
C170 C172 1.375 . S
H171 C170 0.950 . S
C172 C170 1.375 . S
C172 C174 1.382 . S
C172 H176 0.950 . S
H173 C168 0.949 . S
C174 C169 1.399 . S
C174 C172 1.382 . S
C174 H175 0.952 . S
H175 C174 0.952 . S
H176 C172 0.950 . S
H177 C178 0.949 . S
C178 H177 0.949 . S
C178 C179 1.395 1_655 S
C178 C180 1.391 1_655 S
C179 C178 1.395 1_455 S
C179 C182 1.390 . S
C180 C178 1.391 1_455 S
C180 C184 1.387 . S
C180 C185 1.491 1_455 S
H181 C182 0.950 . S
C182 C179 1.390 . S
C182 H181 0.950 . S
C182 C183 1.378 . S
C183 C182 1.378 . S
C183 C184 1.409 . S
C184 C180 1.387 . S
C184 C183 1.409 . S
C184 H186 0.951 . S
C185 C180 1.491 1_655 S
C185 C187 1.382 . S
C185 C189 1.404 . S
H186 C184 0.951 . S
C187 C185 1.382 . S
C187 C188 1.390 . S
C187 H192 0.949 . S
C188 C187 1.390 . S
C188 C193 1.399 . S
C189 C185 1.404 . S
C189 H190 0.950 . S
C189 C191 1.375 . S
H190 C189 0.950 . S
C191 C189 1.375 . S
C191 C193 1.382 . S
C191 H195 0.950 . S
H192 C187 0.949 . S
C193 C188 1.399 . S
C193 C191 1.382 . S
C193 H194 0.952 . S
H194 C193 0.952 . S
H195 C191 0.950 . S
H196 C197 0.949 1_565 S
C197 H196 0.949 1_545 S
C197 C198 1.395 . S
C197 C199 1.391 . S
C198 C197 1.395 . S
C198 C201 1.390 . S
C199 C197 1.391 . S
C199 C203 1.387 . S
C199 C204 1.491 1_545 S
H200 C201 0.950 . S
C201 C198 1.390 . S
C201 H200 0.950 . S
C201 C202 1.378 . S
C202 C201 1.378 . S
C202 C203 1.409 . S
C203 C199 1.387 . S
C203 C202 1.409 . S
C203 H205 0.951 . S
C204 C199 1.491 1_565 S
C204 C206 1.382 . S
C204 C208 1.404 . S
H205 C203 0.951 . S
C206 C204 1.382 . S
C206 C207 1.390 . S
C206 H211 0.949 . S
C207 C206 1.390 . S
C207 C212 1.399 . S
C208 C204 1.404 . S
C208 H209 0.950 1_565 S
C208 C210 1.375 . S
H209 C208 0.950 1_545 S
C210 C208 1.375 . S
C210 C212 1.382 . S
C210 H214 0.950 . S
H211 C206 0.949 . S
C212 C207 1.399 . S
C212 C210 1.382 . S
C212 H213 0.952 . S
H213 C212 0.952 . S
H214 C210 0.950 . S
H215 C216 0.949 . S
C216 H215 0.949 . S
C216 C217 1.395 . S
C216 C218 1.391 . S
C217 C216 1.395 . S
C217 C220 1.390 . S
C218 C216 1.391 . S
C218 C222 1.387 . S
C218 C223 1.491 . S
H219 C220 0.950 . S
C220 C217 1.390 . S
C220 H219 0.950 . S
C220 C221 1.378 . S
C221 C220 1.378 . S
C221 C222 1.409 . S
C222 C218 1.387 . S
C222 C221 1.409 . S
C222 H224 0.951 . S
C223 C218 1.491 . S
C223 C225 1.382 . S
C223 C227 1.404 . S
H224 C222 0.951 . S
C225 C223 1.382 . S
C225 C226 1.390 . S
C225 H230 0.949 . S
C226 C225 1.390 . S
C226 C231 1.399 . S
C227 C223 1.404 . S
C227 H228 0.950 . S
C227 C229 1.375 . S
H228 C227 0.950 . S
C229 C227 1.375 . S
C229 C231 1.382 . S
C229 H233 0.950 . S
H230 C225 0.949 . S
C231 C226 1.399 . S
C231 C229 1.382 . S
C231 H232 0.952 . S
H232 C231 0.952 . S
H233 C229 0.950 . S
C234 C235 1.387 . S
C234 H238 0.950 . S
C234 C243 1.390 . S
C235 C234 1.387 . S
C235 C237 1.387 . S
H236 C243 0.950 . S
C237 C235 1.387 . S
C237 C239 1.390 . S
C237 H241 0.950 . S
H238 C234 0.950 . S
C239 C237 1.390 . S
C239 C240 1.387 . S
C239 H242 0.950 . S
C240 C239 1.387 . S
C240 C243 1.387 . S
H241 C237 0.950 . S
H242 C239 0.950 . S
C243 C234 1.390 . S
C243 H236 0.950 . S
C243 C240 1.387 . S
C244 C245 1.387 . S
C244 H248 0.950 . S
C244 C253 1.390 . S
C245 C244 1.387 . S
C245 C247 1.387 . S
H246 C253 0.950 . S
C247 C245 1.387 . S
C247 C249 1.390 . S
C247 H251 0.950 . S
H248 C244 0.950 . S
C249 C247 1.390 . S
C249 C250 1.387 . S
C249 H252 0.950 . S
C250 C249 1.387 . S
C250 C253 1.387 . S
H251 C247 0.950 . S
H252 C249 0.950 . S
C253 C244 1.390 . S
C253 H246 0.950 . S
C253 C250 1.387 . S
C254 C255 1.387 . S
C254 H258 0.950 . S
C254 C263 1.390 . S
C255 C254 1.387 . S
C255 C257 1.387 . S
H256 C263 0.950 . S
C257 C255 1.387 . S
C257 C259 1.390 . S
C257 H261 0.950 . S
H258 C254 0.950 . S
C259 C257 1.390 . S
C259 C260 1.387 . S
C259 H262 0.950 . S
C260 C259 1.387 . S
C260 C263 1.387 . S
H261 C257 0.950 . S
H262 C259 0.950 . S
C263 C254 1.390 . S
C263 H256 0.950 . S
C263 C260 1.387 . S
C264 C265 1.387 . S
C264 H268 0.950 . S
C264 C273 1.390 . S
C265 C264 1.387 . S
C265 C267 1.387 . S
H266 C273 0.950 . S
C267 C265 1.387 . S
C267 C269 1.390 . S
C267 H271 0.950 . S
H268 C264 0.950 . S
C269 C267 1.390 . S
C269 C270 1.387 . S
C269 H272 0.950 . S
C270 C269 1.387 . S
C270 C273 1.387 . S
H271 C267 0.950 . S
H272 C269 0.950 . S
C273 C264 1.390 . S
C273 H266 0.950 . S
C273 C270 1.387 . S
C274 C275 1.387 . S
C274 H278 0.950 . S
C274 C283 1.390 . S
C275 C274 1.387 . S
C275 C277 1.387 . S
H276 C283 0.950 . S
C277 C275 1.387 . S
C277 C279 1.390 . S
C277 H281 0.950 . S
H278 C274 0.950 . S
C279 C277 1.390 . S
C279 C280 1.387 . S
C279 H282 0.950 . S
C280 C279 1.387 . S
C280 C283 1.387 . S
H281 C277 0.950 . S
H282 C279 0.950 . S
C283 C274 1.390 . S
C283 H276 0.950 . S
C283 C280 1.387 . S
C284 C285 1.387 . S
C284 H288 0.950 . S
C284 C293 1.390 . S
C285 C284 1.387 . S
C285 C287 1.387 . S
H286 C293 0.950 . S
C287 C285 1.387 . S
C287 C289 1.390 . S
C287 H291 0.950 . S
H288 C284 0.950 . S
C289 C287 1.390 . S
C289 C290 1.387 . S
C289 H292 0.950 . S
C290 C289 1.387 . S
C290 C293 1.387 . S
H291 C287 0.950 . S
H292 C289 0.950 . S
C293 C284 1.390 . S
C293 H286 0.950 . S
C293 C290 1.387 . S
C294 C295 1.387 . S
C294 H298 0.950 . S
C294 C303 1.390 . S
C295 C294 1.387 . S
C295 C297 1.387 . S
H296 C303 0.950 . S
C297 C295 1.387 . S
C297 C299 1.390 . S
C297 H301 0.950 . S
H298 C294 0.950 . S
C299 C297 1.390 . S
C299 C300 1.387 . S
C299 H302 0.950 . S
C300 C299 1.387 . S
C300 C303 1.387 . S
H301 C297 0.950 . S
H302 C299 0.950 . S
C303 C294 1.390 . S
C303 H296 0.950 . S
C303 C300 1.387 . S
C304 C305 1.387 . S
C304 H308 0.950 . S
C304 C313 1.390 . S
C305 C304 1.387 . S
C305 C307 1.387 . S
H306 C313 0.950 . S
C307 C305 1.387 . S
C307 C309 1.390 . S
C307 H311 0.950 . S
H308 C304 0.950 . S
C309 C307 1.390 . S
C309 C310 1.387 . S
C309 H312 0.950 . S
C310 C309 1.387 . S
C310 C313 1.387 . S
H311 C307 0.950 . S
H312 C309 0.950 . S
C313 C304 1.390 . S
C313 H306 0.950 . S
C313 C310 1.387 . S
C314 C315 1.387 . S
C314 H318 0.950 . S
C314 C323 1.390 . S
C315 C314 1.387 . S
C315 C317 1.387 . S
H316 C323 0.950 . S
C317 C315 1.387 . S
C317 C319 1.390 . S
C317 H321 0.950 . S
H318 C314 0.950 . S
C319 C317 1.390 . S
C319 C320 1.387 . S
C319 H322 0.950 . S
C320 C319 1.387 . S
C320 C323 1.387 . S
H321 C317 0.950 . S
H322 C319 0.950 . S
C323 C314 1.390 . S
C323 H316 0.950 . S
C323 C320 1.387 . S
C324 C325 1.387 . S
C324 H328 0.950 . S
C324 C333 1.390 . S
C325 C324 1.387 . S
C325 C327 1.387 . S
H326 C333 0.950 . S
C327 C325 1.387 . S
C327 C329 1.390 . S
C327 H331 0.950 . S
H328 C324 0.950 . S
C329 C327 1.390 . S
C329 C330 1.387 . S
C329 H332 0.950 . S
C330 C329 1.387 . S
C330 C333 1.387 . S
H331 C327 0.950 . S
H332 C329 0.950 . S
C333 C324 1.390 . S
C333 H326 0.950 . S
C333 C330 1.387 . S
C334 C335 1.387 . S
C334 H338 0.950 . S
C334 C343 1.390 . S
C335 C334 1.387 . S
C335 C337 1.387 . S
H336 C343 0.950 . S
C337 C335 1.387 . S
C337 C339 1.390 . S
C337 H341 0.950 . S
H338 C334 0.950 . S
C339 C337 1.390 . S
C339 C340 1.387 . S
C339 H342 0.950 . S
C340 C339 1.387 . S
C340 C343 1.387 . S
H341 C337 0.950 . S
H342 C339 0.950 . S
C343 C334 1.390 . S
C343 H336 0.950 . S
C343 C340 1.387 . S
C344 C345 1.387 . S
C344 H348 0.950 . S
C344 C353 1.390 . S
C345 C344 1.387 . S
C345 C347 1.387 . S
H346 C353 0.950 . S
C347 C345 1.387 . S
C347 C349 1.390 . S
C347 H351 0.950 . S
H348 C344 0.950 . S
C349 C347 1.390 . S
C349 C350 1.387 . S
C349 H352 0.950 . S
C350 C349 1.387 . S
C350 C353 1.387 . S
H351 C347 0.950 . S
H352 C349 0.950 . S
C353 C344 1.390 . S
C353 H346 0.950 . S
C353 C350 1.387 . S
C354 C355 1.387 . S
C354 H358 0.950 . S
C354 C363 1.390 1_554 S
C355 C354 1.387 . S
C355 C357 1.387 1_455 S
H356 C363 0.950 . S
C357 C355 1.387 1_655 S
C357 C359 1.390 1_554 S
C357 H361 0.950 . S
H358 C354 0.950 . S
C359 C357 1.390 1_556 S
C359 C360 1.387 1_655 S
C359 H362 0.950 . S
C360 C359 1.387 1_455 S
C360 C363 1.387 . S
H361 C357 0.950 . S
H362 C359 0.950 . S
C363 C354 1.390 1_556 S
C363 H356 0.950 . S
C363 C360 1.387 . S
C364 C365 1.387 . S
C364 H368 0.950 1_545 S
C364 C373 1.390 . S
C365 C364 1.387 . S
C365 C367 1.387 . S
H366 C373 0.950 1_565 S
C367 C365 1.387 . S
C367 C369 1.390 . S
C367 H371 0.950 . S
H368 C364 0.950 1_565 S
C369 C367 1.390 . S
C369 C370 1.387 . S
C369 H372 0.950 . S
C370 C369 1.387 . S
C370 C373 1.387 . S
H371 C367 0.950 . S
H372 C369 0.950 . S
C373 C364 1.390 . S
C373 H366 0.950 1_545 S
C373 C370 1.387 . S
C374 C375 1.387 . S
C374 H378 0.950 . S
C374 C383 1.390 . S
C375 C374 1.387 . S
C375 C377 1.387 . S
H376 C383 0.950 . S
C377 C375 1.387 . S
C377 C379 1.390 . S
C377 H381 0.950 . S
H378 C374 0.950 . S
C379 C377 1.390 . S
C379 C380 1.387 . S
C379 H382 0.950 . S
C380 C379 1.387 . S
C380 C383 1.387 . S
H381 C377 0.950 . S
H382 C379 0.950 . S
C383 C374 1.390 . S
C383 H376 0.950 . S
C383 C380 1.387 . S
C384 C385 1.387 . S
C384 H388 0.950 1_545 S
C384 C393 1.390 . S
C385 C384 1.387 . S
C385 C387 1.387 . S
H386 C393 0.950 1_565 S
C387 C385 1.387 . S
C387 C389 1.390 . S
C387 H391 0.950 . S
H388 C384 0.950 1_565 S
C389 C387 1.390 . S
C389 C390 1.387 . S
C389 H392 0.950 . S
C390 C389 1.387 . S
C390 C393 1.387 . S
H391 C387 0.950 . S
H392 C389 0.950 . S
C393 C384 1.390 . S
C393 H386 0.950 1_545 S
C393 C390 1.387 . S
C394 C395 1.387 . S
C394 H398 0.950 . S
C394 C403 1.390 1_556 S
C395 C394 1.387 . S
C395 C397 1.387 . S
H396 C403 0.950 . S
C397 C395 1.387 . S
C397 C399 1.390 1_556 S
C397 H401 0.950 . S
H398 C394 0.950 . S
C399 C397 1.390 1_554 S
C399 C400 1.387 . S
C399 H402 0.950 . S
C400 C399 1.387 . S
C400 C403 1.387 . S
H401 C397 0.950 . S
H402 C399 0.950 . S
C403 C394 1.390 1_554 S
C403 H396 0.950 . S
C403 C400 1.387 . S
C404 C405 1.387 . S
C404 H408 0.950 . S
C404 C413 1.390 . S
C405 C404 1.387 . S
C405 C407 1.387 . S
H406 C413 0.950 . S
C407 C405 1.387 . S
C407 C409 1.390 . S
C407 H411 0.950 1_455 S
H408 C404 0.950 . S
C409 C407 1.390 . S
C409 C410 1.387 . S
C409 H412 0.950 . S
C410 C409 1.387 . S
C410 C413 1.387 . S
H411 C407 0.950 1_655 S
H412 C409 0.950 . S
C413 C404 1.390 . S
C413 H406 0.950 . S
C413 C410 1.387 . S
C235 C19 2.013 . S
C240 C226 1.961 . S
C245 C46 1.343 . S
C250 C188 1.272 . S
C255 C95 0.761 . S
C260 C207 0.753 . S
C265 C10 1.929 . S
C270 C221 1.886 . S
C280 C183 1.258 . S
C275 C55 1.257 . S
C290 C202 0.733 . S
C285 C86 0.737 . S
C295 C59 3.222 . S
C300 C150 3.152 . S
C305 C90 1.957 . S
C310 C164 1.957 . S
C315 C15 1.154 . S
C320 C126 1.160 1_565 S
C330 C145 3.023 . S
C325 C50 3.056 . S
C340 C169 1.983 . S
C335 C99 2.015 . S
C345 C6 1.360 . S
C350 C131 1.258 . S
C360 C160 1.522 . S
C355 C9 1.441 . S
C365 C58 1.587 . S
C370 C122 1.570 . S
C375 C98 1.706 . S
C380 C141 1.796 . S
C390 C198 1.283 . S
C385 C49 1.219 . S
C400 C217 1.508 . S
C395 C89 1.489 . S
C405 C18 1.563 . S
C410 C179 1.547 . S
