# Generated by pormake.
# Topology zzz, (3,6)-cn, num edge types: 1
# Building blocks:
#     Node 0, Type 0, BuildingBlock: CUQRIR_clean_linker_1, # of connection points: 3
#     Node 1, Type 0, BuildingBlock: CUQRIR_clean_linker_1, # of connection points: 3
#     Node 2, Type 0, BuildingBlock: CUQRIR_clean_linker_1, # of connection points: 3
#     Node 3, Type 0, BuildingBlock: CUQRIR_clean_linker_1, # of connection points: 3
#     Node 4, Type 0, BuildingBlock: CUQRIR_clean_linker_1, # of connection points: 3
#     Node 5, Type 0, BuildingBlock: CUQRIR_clean_linker_1, # of connection points: 3
#     Node 6, Type 0, BuildingBlock: CUQRIR_clean_linker_1, # of connection points: 3
#     Node 7, Type 0, BuildingBlock: CUQRIR_clean_linker_1, # of connection points: 3
#     Node 8, Type 1, BuildingBlock: GEDQOX_clean_sbu_0, # of connection points: 6
#     Node 9, Type 1, BuildingBlock: GEDQOX_clean_sbu_0, # of connection points: 6
#     Node 10, Type 1, BuildingBlock: GEDQOX_clean_sbu_0, # of connection points: 6
#     Node 11, Type 1, BuildingBlock: GEDQOX_clean_sbu_0, # of connection points: 6
#     Edge 12, Type (0, 1), BuildingBlock: XIVTED_clean_linker_0, # of connection points: 2
#     Edge 13, Type (0, 1), BuildingBlock: XIVTED_clean_linker_0, # of connection points: 2
#     Edge 14, Type (0, 1), BuildingBlock: XIVTED_clean_linker_0, # of connection points: 2
#     Edge 15, Type (0, 1), BuildingBlock: XIVTED_clean_linker_0, # of connection points: 2
#     Edge 16, Type (0, 1), BuildingBlock: XIVTED_clean_linker_0, # of connection points: 2
#     Edge 17, Type (0, 1), BuildingBlock: XIVTED_clean_linker_0, # of connection points: 2
#     Edge 18, Type (0, 1), BuildingBlock: XIVTED_clean_linker_0, # of connection points: 2
#     Edge 19, Type (0, 1), BuildingBlock: XIVTED_clean_linker_0, # of connection points: 2
#     Edge 20, Type (0, 1), BuildingBlock: XIVTED_clean_linker_0, # of connection points: 2
#     Edge 21, Type (0, 1), BuildingBlock: XIVTED_clean_linker_0, # of connection points: 2
#     Edge 22, Type (0, 1), BuildingBlock: XIVTED_clean_linker_0, # of connection points: 2
#     Edge 23, Type (0, 1), BuildingBlock: XIVTED_clean_linker_0, # of connection points: 2
#     Edge 24, Type (0, 1), BuildingBlock: XIVTED_clean_linker_0, # of connection points: 2
#     Edge 25, Type (0, 1), BuildingBlock: XIVTED_clean_linker_0, # of connection points: 2
#     Edge 26, Type (0, 1), BuildingBlock: XIVTED_clean_linker_0, # of connection points: 2
#     Edge 27, Type (0, 1), BuildingBlock: XIVTED_clean_linker_0, # of connection points: 2
#     Edge 28, Type (0, 1), BuildingBlock: XIVTED_clean_linker_0, # of connection points: 2
#     Edge 29, Type (0, 1), BuildingBlock: XIVTED_clean_linker_0, # of connection points: 2
#     Edge 30, Type (0, 1), BuildingBlock: XIVTED_clean_linker_0, # of connection points: 2
#     Edge 31, Type (0, 1), BuildingBlock: XIVTED_clean_linker_0, # of connection points: 2
#     Edge 32, Type (0, 1), BuildingBlock: XIVTED_clean_linker_0, # of connection points: 2
#     Edge 33, Type (0, 1), BuildingBlock: XIVTED_clean_linker_0, # of connection points: 2
#     Edge 34, Type (0, 1), BuildingBlock: XIVTED_clean_linker_0, # of connection points: 2
#     Edge 35, Type (0, 1), BuildingBlock: XIVTED_clean_linker_0, # of connection points: 2
# Relax obj value: 0.125
# Max RMSD: 0.190
# Mean RMSD: 0.088
data_MOF--net-zzz--node1-GEDQOX_clean_sbu_0--node2-CUQRIR_clean_linker_1--edge1-XIVTED_clean_linker_0
_symmetry_space_group_name_H-M    P1
_symmetry_Int_Tables_number       1
_symmetry_cell_setting            triclinic
loop_
_symmetry_equiv_pos_as_xyz
'x, y, z'
_cell_length_a     51.658131
_cell_length_b     50.693053
_cell_length_c     15.743397
_cell_angle_alpha  78.328314
_cell_angle_beta   89.189632
_cell_angle_gamma 100.63777
loop_
_atom_site_label
_atom_site_type_symbol
_atom_site_fract_x
_atom_site_fract_y
_atom_site_fract_z
_atom_type_partial_charge
C0 C 0.76696 0.5478 0.20894 0.0
N1 N 0.79174 0.54326 0.19985 0.0
N2 N 0.7515 0.53748 0.15006 0.0
C3 C 0.75768 0.56155 0.27648 0.0
C4 C 0.76778 0.52661 0.10477 0.0
N5 N 0.7922 0.52993 0.13559 0.0
C6 C 0.76 0.51395 0.02822 0.0
H7 H 0.73615 0.55469 0.29161 0.0
H8 H 0.76179 0.58406 0.25106 0.0
H9 H 0.76841 0.55722 0.33676 0.0
H10 H 0.74667 0.52558 0.9881 0.0
H11 H 0.74903 0.49268 0.05231 0.0
H12 H 0.77748 0.51325 0.98758 0.0
C13 C 0.02704 0.74646 0.32554 0.0
N14 N 0.03001 0.77385 0.32207 0.0
N15 N 0.03347 0.74148 0.24664 0.0
C16 C 0.01883 0.72481 0.40633 0.0
C17 C 0.0402 0.767 0.19541 0.0
N18 N 0.03826 0.78646 0.24133 0.0
C19 C 0.04622 0.77287 0.09887 0.0
H20 H 0.02754 0.70646 0.40473 0.0
H21 H 0.99702 0.71858 0.4105 0.0
H22 H 0.02484 0.73289 0.46498 0.0
H23 H 0.03571 0.75599 0.06976 0.0
H24 H 0.06774 0.7748 0.08634 0.0
H25 H 0.04056 0.7924 0.06666 0.0
C26 C 0.77997 0.98122 0.22816 0.0
N27 N 0.75591 0.98788 0.21595 0.0
N28 N 0.79578 0.99092 0.15469 0.0
C29 C 0.78742 0.96381 0.30982 0.0
C30 C 0.78046 1.00388 0.09767 0.0
N31 N 0.75624 1.00189 0.13478 0.0
C32 C 0.78989 0.02072 0.0088 0.0
H33 H 0.79547 0.97728 0.35447 0.0
H34 H 0.80268 0.95233 0.2953 0.0
H35 H 0.76989 0.9491 0.34325 0.0
H36 H 0.787 0.00726 0.9609 0.0
H37 H 0.81116 0.02993 1.00712 0.0
H38 H 0.77859 0.03739 0.98921 0.0
C39 C 0.52584 0.80114 0.52257 0.0
N40 N 0.51879 0.77342 0.53642 0.0
N41 N 0.5165 0.81298 0.44693 0.0
C42 C 0.54148 0.81652 0.58277 0.0
C43 C 0.50376 0.79152 0.41523 0.0
N44 N 0.50507 0.76756 0.46961 0.0
C45 C 0.49157 0.79398 0.32838 0.0
H46 H 0.53628 0.80585 0.65134 0.0
H47 H 0.53808 0.8379 0.57277 0.0
H48 H 0.56276 0.81715 0.56941 0.0
H49 H 0.50014 0.81372 0.28401 0.0
H50 H 0.47008 0.79301 0.33819 0.0
H51 H 0.49436 0.7768 0.29749 0.0
C52 C 0.29032 0.51702 0.63908 0.0
N53 N 0.26513 0.52031 0.6497 0.0
N54 N 0.30483 0.52435 0.70462 0.0
C55 C 0.30027 0.50479 0.56856 0.0
C56 C 0.28755 0.53224 0.75538 0.0
N57 N 0.26343 0.52975 0.72207 0.0
C58 C 0.29466 0.54404 0.83415 0.0
H59 H 0.28421 0.49004 0.54785 0.0
H60 H 0.3167 0.4942 0.59064 0.0
H61 H 0.30765 0.5215 0.5116 0.0
H62 H 0.28212 0.55898 0.84263 0.0
H63 H 0.3157 0.55431 0.82907 0.0
H64 H 0.29141 0.52715 0.89257 0.0
C65 C 0.03001 0.32013 0.52311 0.0
N66 N 0.02766 0.2928 0.52633 0.0
N67 N 0.02601 0.32506 0.60383 0.0
C68 C 0.0349 0.34175 0.44096 0.0
C69 C 0.02145 0.29962 0.65595 0.0
N70 N 0.02233 0.28015 0.60898 0.0
C71 C 0.01864 0.29401 0.75357 0.0
H72 H 0.05646 0.34932 0.42904 0.0
H73 H 0.02547 0.35933 0.44666 0.0
H74 H 0.02732 0.33316 0.38465 0.0
H75 H 0.99745 0.29064 0.77405 0.0
H76 H 0.02936 0.31161 0.77895 0.0
H77 H 0.02631 0.27533 0.78264 0.0
C78 C 0.27731 0.08225 0.62492 0.0
N79 N 0.30146 0.07602 0.6384 0.0
N80 N 0.26128 0.07237 0.69793 0.0
C81 C 0.26918 0.09697 0.53982 0.0
C82 C 0.27658 0.05971 0.75575 0.0
N83 N 0.30086 0.06189 0.71927 0.0
C84 C 0.26741 0.04404 0.84608 0.0
H85 H 0.252 0.10654 0.54948 0.0
H86 H 0.26372 0.08202 0.49743 0.0
H87 H 0.28578 0.11299 0.5063 0.0
H88 H 0.24705 0.03222 0.84644 0.0
H89 H 0.26721 0.05881 0.88923 0.0
H90 H 0.28065 0.02982 0.87256 0.0
C91 C 0.53628 0.26532 0.32056 0.0
N92 N 0.54318 0.29305 0.30786 0.0
N93 N 0.54452 0.25328 0.39787 0.0
C94 C 0.52122 0.25007 0.25892 0.0
C95 C 0.55653 0.2746 0.43164 0.0
N96 N 0.55579 0.29866 0.377 0.0
C97 C 0.56783 0.27206 0.51991 0.0
H98 H 0.4998 0.24768 0.27465 0.0
H99 H 0.52603 0.22932 0.26553 0.0
H100 H 0.52558 0.26167 0.19093 0.0
H101 H 0.58966 0.27726 0.51172 0.0
H102 H 0.56208 0.25104 0.56002 0.0
H103 H 0.5613 0.28687 0.55465 0.0
Nd104 Nd 0.01298 0.01691 0.84879 0.0
Nd105 Nd 0.03975 0.04703 0.99866 0.0
C106 C 0.98366 0.98252 0.76634 0.0
C107 C 0.98803 0.95942 0.7258 0.0
C108 C 0.97011 0.93427 0.7447 0.0
C109 C 0.97419 0.91211 0.70846 0.0
C110 C 0.99633 0.91448 0.65202 0.0
C111 C 0.01421 0.93982 0.6331 0.0
C112 C 0.01018 0.96191 0.66965 0.0
C113 C 0.06709 0.03239 0.81746 0.0
C114 C 0.04065 0.98383 0.01391 0.0
C115 C 0.06568 0.08212 0.08695 0.0
C116 C 0.06144 0.10685 0.11777 0.0
C117 C 0.08034 0.11952 0.16736 0.0
C118 C 0.07617 0.14223 0.20027 0.0
C119 C 0.05291 0.15285 0.18456 0.0
C120 C 0.03412 0.1402 0.13374 0.0
C121 C 0.03835 0.11749 0.10073 0.0
C122 C 0.98829 0.02028 0.03185 0.0
C123 C 0.0112 0.08167 0.83475 0.0
O124 O 0.98401 0.97833 0.85126 0.0
O125 O 0.99546 0.0074 0.72802 0.0
O126 O 0.05163 0.02039 0.76691 0.0
O127 O 0.05341 0.03543 0.87978 0.0
O128 O 0.02075 0.98353 0.96203 0.0
O129 O 0.05545 0.00683 0.02646 0.0
O130 O 0.0694 0.08457 1.00297 0.0
O131 O 0.05031 0.05893 0.12367 0.0
O132 O 0.00516 0.02257 0.09158 0.0
O133 O 0.9982 0.03382 0.95869 0.0
O134 O 0.0247 0.08127 0.90568 0.0
O135 O 0.00324 0.05979 0.80094 0.0
H136 H 0.95297 0.93168 0.78818 0.0
H137 H 0.96013 0.89295 0.72596 0.0
H138 H 0.03127 0.9428 0.58905 0.0
H139 H 0.02447 0.98095 0.65388 0.0
H140 H 0.09824 0.11159 0.18171 0.0
H141 H 0.09094 0.15103 0.23996 0.0
H142 H 0.01614 0.1479 0.11913 0.0
H143 H 0.02348 0.10807 0.0625 0.0
Nd144 Nd 0.53107 0.0157 0.86137 0.0
Nd145 Nd 0.52798 0.05099 0.9884 0.0
C146 C 0.53237 0.97898 0.76448 0.0
C147 C 0.5542 0.97252 0.7158 0.0
C148 C 0.57861 0.97102 0.75278 0.0
C149 C 0.60018 0.96837 0.70277 0.0
C150 C 0.59795 0.96752 0.61431 0.0
C151 C 0.57321 0.96813 0.57828 0.0
C152 C 0.55156 0.97057 0.62862 0.0
C153 C 0.54098 0.07095 0.78668 0.0
C154 C 0.58569 0.0413 0.93139 0.0
C155 C 0.52674 0.08673 0.08882 0.0
C156 C 0.50619 0.08941 0.15159 0.0
C157 C 0.49122 0.11012 0.13031 0.0
C158 C 0.46958 0.11062 0.18419 0.0
C159 C 0.46249 0.0904 0.26047 0.0
C160 C 0.4783 0.07056 0.28385 0.0
C161 C 0.49987 0.07005 0.23016 0.0
C162 C 0.51792 0.99569 0.06258 0.0
C163 C 0.47322 0.02612 0.91633 0.0
O164 O 0.53252 0.97313 0.84933 0.0
O165 O 0.52636 1.00296 0.73477 0.0
O166 O 0.55453 0.05363 0.76751 0.0
O167 O 0.52303 0.059 0.84413 0.0
O168 O 0.57326 0.02023 0.90181 0.0
O169 O 0.57283 0.05887 0.95642 0.0
O170 O 0.5213 0.09158 1.00688 0.0
O171 O 0.53808 0.06544 0.10967 0.0
O172 O 0.50431 0.013 0.08126 0.0
O173 O 0.53608 0.0077 1.00594 0.0
O174 O 0.48569 0.04644 0.94934 0.0
O175 O 0.48602 0.00901 0.88826 0.0
H176 H 0.58131 0.97267 0.81976 0.0
H177 H 0.61874 0.96745 0.73325 0.0
H178 H 0.57077 0.96786 0.51025 0.0
H179 H 0.53298 0.97196 0.59856 0.0
H180 H 0.49569 0.12538 0.07041 0.0
H181 H 0.45777 0.12614 0.16423 0.0
H182 H 0.47372 0.05505 0.34313 0.0
H183 H 0.51106 0.05393 0.24925 0.0
Nd184 Nd 0.50955 0.53065 1.00107 0.0
Nd185 Nd 0.54772 0.5356 0.85338 0.0
C186 C 0.47175 0.53461 0.10985 0.0
C187 C 0.47101 0.55427 0.16581 0.0
C188 C 0.44719 0.55668 0.20452 0.0
C189 C 0.44699 0.57613 0.25618 0.0
C190 C 0.47066 0.59315 0.26992 0.0
C191 C 0.4944 0.59052 0.23072 0.0
C192 C 0.49455 0.57134 0.17899 0.0
C193 C 0.56133 0.53621 0.04595 0.0
C194 C 0.5334 0.59178 0.87903 0.0
C195 C 0.58545 0.53129 0.74505 0.0
C196 C 0.58593 0.51119 0.69052 0.0
C197 C 0.60933 0.50948 0.6477 0.0
C198 C 0.60922 0.48977 0.59683 0.0
C199 C 0.58564 0.47179 0.58803 0.0
C200 C 0.56232 0.4737 0.63146 0.0
C201 C 0.56249 0.49316 0.68235 0.0
C202 C 0.4958 0.52956 0.80905 0.0
C203 C 0.52361 0.47446 0.97475 0.0
O204 O 0.47261 0.54487 0.02646 0.0
O205 O 0.48862 0.51838 0.13056 0.0
O206 O 0.54189 0.52019 0.09417 0.0
O207 O 0.55318 0.54967 0.97901 0.0
O208 O 0.51292 0.57577 0.92643 0.0
O209 O 0.55319 0.58126 0.85552 0.0
O210 O 0.58475 0.52147 0.82869 0.0
O211 O 0.56856 0.54745 0.72372 0.0
O212 O 0.51514 0.54531 0.75965 0.0
O213 O 0.50421 0.51644 0.87596 0.0
O214 O 0.5443 0.4904 0.92823 0.0
O215 O 0.50379 0.48513 0.99721 0.0
H216 H 0.42885 0.54369 0.19439 0.0
H217 H 0.42844 0.57782 0.28554 0.0
H218 H 0.51285 0.60378 0.23837 0.0
H219 H 0.51307 0.56995 0.14855 0.0
H220 H 0.62759 0.52325 0.65384 0.0
H221 H 0.62745 0.48867 0.56407 0.0
H222 H 0.54398 0.45973 0.62758 0.0
H223 H 0.54429 0.49406 0.71588 0.0
Nd224 Nd 0.02844 0.55181 0.84391 0.0
Nd225 Nd 0.02868 0.51477 1.00601 0.0
C226 C 0.01626 0.58731 0.70991 0.0
C227 C 0.99489 0.5851 0.64888 0.0
C228 C 0.97938 0.60538 0.63181 0.0
C229 C 0.95743 0.60205 0.58099 0.0
C230 C 0.9506 0.57834 0.54627 0.0
C231 C 0.96673 0.5585 0.56145 0.0
C232 C 0.98848 0.56173 0.6126 0.0
C233 C 0.03234 0.49995 0.8207 0.0
C234 C 0.97179 0.51869 0.94424 0.0
C235 C 0.04032 0.47912 0.14105 0.0
C236 C 0.06347 0.47809 0.19517 0.0
C237 C 0.08865 0.479 0.15833 0.0
C238 C 0.11073 0.48071 0.20878 0.0
C239 C 0.10815 0.48152 0.29727 0.0
C240 C 0.08279 0.47966 0.33465 0.0
C241 C 0.06072 0.47794 0.28412 0.0
C242 C 0.02449 0.56673 0.02742 0.0
C243 C 0.08512 0.54814 0.90569 0.0
O244 O 0.00882 0.58666 0.79006 0.0
O245 O 0.03426 0.57258 0.705 0.0
O246 O 0.046 0.52264 0.77634 0.0
O247 O 0.01681 0.50473 0.87634 0.0
O248 O 0.98466 0.54087 0.89115 0.0
O249 O 0.98471 0.50131 0.99071 0.0
O250 O 0.04323 0.4766 0.06063 0.0
O251 O 0.02695 0.49809 0.14817 0.0
O252 O 0.01026 0.54413 0.07051 0.0
O253 O 0.04036 0.56177 0.97323 0.0
O254 O 0.07243 0.52541 0.95683 0.0
O255 O 0.07197 0.56593 0.86272 0.0
H256 H 0.98383 0.62345 0.65976 0.0
H257 H 0.94535 0.61763 0.57139 0.0
H258 H 0.96244 0.54024 0.53443 0.0
H259 H 0.99994 0.54562 0.62508 0.0
H260 H 0.09144 0.47891 0.09011 0.0
H261 H 0.12986 0.48158 0.17818 0.0
H262 H 0.08005 0.48047 0.40233 0.0
H263 H 0.04152 0.47724 0.31411 0.0
H264 H 0.22408 0.05252 0.59735 0.0
H265 H 0.10373 0.05704 0.91709 0.0
H266 H 0.23518 0.08821 0.82322 0.0
H267 H 0.09536 0.02832 0.67719 0.0
H268 H 0.15167 0.07041 0.88377 0.0
H269 H 0.17638 0.04581 0.62328 0.0
C270 C 0.21632 0.05938 0.65156 0.0
C271 C 0.23335 0.07101 0.70802 0.0
C272 C 0.13926 0.06132 0.83835 0.0
C273 C 0.17889 0.06276 0.74017 0.0
C274 C 0.11199 0.0537 0.85741 0.0
C275 C 0.09573 0.04151 0.7999 0.0
C276 C 0.15007 0.05659 0.76147 0.0
C277 C 0.10725 0.03757 0.72348 0.0
C278 C 0.18914 0.05536 0.66701 0.0
C279 C 0.22249 0.07901 0.77872 0.0
N280 N 0.13366 0.04499 0.7067 0.0
N281 N 0.19587 0.07456 0.79331 0.0
H282 H 0.57474 0.21714 0.37529 0.0
H283 H 0.50719 0.1063 0.79511 0.0
H284 H 0.50655 0.22574 0.51905 0.0
H285 H 0.57394 0.09654 0.64487 0.0
H286 H 0.50566 0.14932 0.69258 0.0
H287 H 0.57318 0.17149 0.46792 0.0
C288 C 0.55904 0.20892 0.42514 0.0
C289 C 0.54051 0.22472 0.43923 0.0
C290 C 0.52065 0.13778 0.68197 0.0
C291 C 0.53895 0.17322 0.54733 0.0
C292 C 0.52161 0.11329 0.74078 0.0
C293 C 0.54076 0.09785 0.72859 0.0
C294 C 0.53901 0.14697 0.61044 0.0
C295 C 0.55887 0.10782 0.65685 0.0
C296 C 0.55826 0.1831 0.47859 0.0
C297 C 0.52087 0.21377 0.5058 0.0
N298 N 0.55756 0.1317 0.60061 0.0
N299 N 0.52069 0.18877 0.55788 0.0
H300 H 0.32506 0.49846 0.84778 0.0
H301 H 0.47485 0.55526 0.6643 0.0
H302 H 0.34656 0.54853 0.59267 0.0
H303 H 0.45291 0.4997 0.91128 0.0
H304 H 0.42808 0.55303 0.6363 0.0
H305 H 0.37187 0.49863 0.87246 0.0
C306 C 0.33978 0.50948 0.79712 0.0
C307 C 0.33218 0.52357 0.71835 0.0
C308 C 0.43347 0.54123 0.69647 0.0
C309 C 0.38561 0.52388 0.74537 0.0
C310 C 0.46016 0.5425 0.71244 0.0
C311 C 0.4677 0.52761 0.79012 0.0
C312 C 0.41418 0.52506 0.75891 0.0
C313 C 0.4479 0.51144 0.85043 0.0
C314 C 0.36642 0.50952 0.81089 0.0
C315 C 0.35179 0.53734 0.65404 0.0
N316 N 0.42205 0.51067 0.83368 0.0
N317 N 0.37765 0.53726 0.66904 0.0
H318 H 0.06404 0.37123 0.56461 0.0
H319 H 0.99656 0.45111 0.87399 0.0
H320 H 0.98906 0.33795 0.70423 0.0
H321 H 0.06518 0.4882 0.70276 0.0
H322 H 0.99447 0.40862 0.81913 0.0
H323 H 0.06552 0.41378 0.61801 0.0
C324 C 0.04777 0.37302 0.60578 0.0
C325 C 0.02642 0.35101 0.63 0.0
C326 C 0.01 0.42607 0.79363 0.0
C327 C 0.02813 0.39946 0.69335 0.0
C328 C 0.01124 0.45029 0.82527 0.0
C329 C 0.03102 0.47332 0.79285 0.0
C330 C 0.02879 0.42476 0.72951 0.0
C331 C 0.04951 0.47104 0.72952 0.0
C332 C 0.04867 0.39722 0.63692 0.0
C333 C 0.00603 0.3543 0.6848 0.0
N334 N 0.04795 0.44733 0.70014 0.0
N335 N 0.00743 0.37791 0.71486 0.0
H336 H 0.81806 0.97582 0.02008 0.0
H337 H 0.96315 1.00299 0.19157 0.0
H338 H 0.83555 1.00343 0.25798 0.0
H339 H 0.94888 0.0146 0.91832 0.0
H340 H 0.91558 0.99114 0.2253 0.0
H341 H 0.86545 0.97871 0.99018 0.0
C342 C 0.83193 0.98228 0.06618 0.0
C343 C 0.82308 0.98961 0.1412 0.0
C344 C 0.92288 0.99606 0.15803 0.0
C345 C 0.87683 0.99233 0.10877 0.0
C346 C 0.94998 1.00273 0.13867 0.0
C347 C 0.95985 0.01011 0.05198 0.0
C348 C 0.90556 0.99641 0.09025 0.0
C349 C 0.94196 0.00927 0.98598 0.0
C350 C 0.85883 0.98385 0.04928 0.0
C351 C 0.84163 0.99735 0.19995 0.0
N352 N 0.91557 1.00264 1.00647 0.0
N353 N 0.86769 0.99856 0.18244 0.0
H354 H 0.55973 0.84648 0.36106 0.0
H355 H 0.48105 0.9679 0.19044 0.0
H356 H 0.47863 0.84313 0.43545 0.0
H357 H 0.55464 0.96247 0.06869 0.0
H358 H 0.48206 0.92483 0.29264 0.0
H359 H 0.56104 0.89217 0.26794 0.0
C360 C 0.54247 0.85583 0.35928 0.0
C361 C 0.51917 0.84151 0.40646 0.0
C362 C 0.49798 0.93298 0.24353 0.0
C363 C 0.52013 0.89307 0.29944 0.0
C364 C 0.49738 0.95755 0.185 0.0
C365 C 0.51774 0.96873 0.12079 0.0
C366 C 0.51923 0.9195 0.23853 0.0
C367 C 0.53847 0.95448 0.11696 0.0
C368 C 0.54305 0.88164 0.30557 0.0
C369 C 0.49701 0.85391 0.40076 0.0
N370 N 0.53874 0.93066 0.17523 0.0
N371 N 0.49799 0.87894 0.34812 0.0
H372 H 0.73035 0.58212 0.09176 0.0
H373 H 0.58199 0.49968 0.1637 0.0
H374 H 0.71102 0.49443 0.17897 0.0
H375 H 0.60424 0.57444 0.96995 0.0
H376 H 0.62865 0.5003 0.19102 0.0
H377 H 0.6834 0.58269 0.06677 0.0
C378 C 0.71605 0.56307 0.10588 0.0
C379 C 0.72417 0.5382 0.1372 0.0
C380 C 0.6233 0.51659 0.14265 0.0
C381 C 0.67096 0.53858 0.11017 0.0
C382 C 0.59672 0.51632 0.12733 0.0
C383 C 0.58934 0.53706 0.06453 0.0
C384 C 0.64259 0.538 0.0959 0.0
C385 C 0.60919 0.55807 0.01888 0.0
C386 C 0.68945 0.56334 0.09141 0.0
C387 C 0.70524 0.51392 0.15455 0.0
N388 N 0.63496 0.55811 0.03581 0.0
N389 N 0.67942 0.51469 0.14135 0.0
H390 H 0.9929 0.69755 0.27405 0.0
H391 H 0.06196 0.61444 0.9802 0.0
H392 H 0.07162 0.7262 0.1578 0.0
H393 H 0.99051 0.57956 0.13964 0.0
H394 H 0.06459 0.65683 0.03583 0.0
H395 H 0.99065 0.65503 0.21994 0.0
C396 C 0.00982 0.69473 0.23802 0.0
C397 C 0.03248 0.71544 0.22055 0.0
C398 C 0.04832 0.6399 0.05855 0.0
C399 C 0.0299 0.66707 0.15617 0.0
C400 C 0.04676 0.61575 0.02642 0.0
C401 C 0.02602 0.59335 0.05539 0.0
C402 C 0.02888 0.64182 0.11954 0.0
C403 C 0.00691 0.59623 0.11563 0.0
C404 C 0.00848 0.67056 0.20642 0.0
C405 C 0.05367 0.71088 0.17195 0.0
N406 N 0.00877 0.6199 0.14548 0.0
N407 N 0.05183 0.68735 0.14116 0.0
H408 H 0.05587 0.24727 0.58128 0.0
H409 H 0.98759 0.11539 0.90922 0.0
H410 H 0.98157 0.24669 0.70992 0.0
H411 H 0.02408 0.10924 0.66798 0.0
H412 H 0.98754 0.16401 0.84947 0.0
H413 H 0.04834 0.19711 0.62563 0.0
C414 C 0.03794 0.23649 0.61867 0.0
C415 C 0.01913 0.25094 0.64124 0.0
C416 C 0.995 0.15185 0.80902 0.0
C417 C 0.01079 0.19394 0.69421 0.0
C418 C 0.99493 0.1242 0.84277 0.0
C419 C 0.00554 0.10843 0.7927 0.0
C420 C 0.00666 0.16392 0.72598 0.0
C421 C 0.01534 0.12074 0.70778 0.0
C422 C 0.03364 0.20798 0.64373 0.0
C423 C 0.99655 0.23619 0.69186 0.0
N424 N 0.01618 0.14802 0.67749 0.0
N425 N 0.99307 0.20841 0.71746 0.0
H426 H 0.31097 0.01071 0.74212 0.0
H427 H 0.44084 0.99339 0.82579 0.0
H428 H 0.34045 0.09152 0.78653 0.0
H429 H 0.44091 0.05587 0.97611 0.0
H430 H 0.39586 0.9974 0.78628 0.0
H431 H 0.35086 0.9957 0.8027 0.0
C432 C 0.32594 0.0251 0.76538 0.0
C433 C 0.3229 0.05223 0.75999 0.0
C434 C 0.40547 0.00967 0.8298 0.0
C435 C 0.36821 0.03579 0.82726 0.0
C436 C 0.43121 0.00747 0.85207 0.0
C437 C 0.44477 0.02454 0.90346 0.0
C438 C 0.39341 0.02913 0.85915 0.0
C439 C 0.43138 0.04252 0.93541 0.0
C440 C 0.34869 0.01672 0.79898 0.0
C441 C 0.34243 0.07043 0.79024 0.0
N442 N 0.40664 0.04464 0.91158 0.0
N443 N 0.36431 0.06187 0.82287 0.0
H444 H 0.60373 0.32395 0.41512 0.0
H445 H 0.54924 0.4573 0.47371 0.0
H446 H 0.52322 0.33388 0.38393 0.0
H447 H 0.6205 0.43706 0.58701 0.0
H448 H 0.54418 0.41682 0.40945 0.0
H449 H 0.61437 0.36955 0.45219 0.0
C450 C 0.58841 0.33587 0.41599 0.0
C451 C 0.56264 0.32547 0.39664 0.0
C452 C 0.56105 0.42136 0.44775 0.0
C453 C 0.57452 0.37726 0.43675 0.0
C454 C 0.56395 0.44443 0.48438 0.0
C455 C 0.58504 0.45019 0.53706 0.0
C456 C 0.57938 0.40391 0.46385 0.0
C457 C 0.60391 0.43326 0.547 0.0
C458 C 0.59444 0.36179 0.4365 0.0
C459 C 0.54337 0.34152 0.39745 0.0
N460 N 0.60047 0.41061 0.51155 0.0
N461 N 0.54969 0.36666 0.41715 0.0
H462 H 0.24013 0.50979 0.88222 0.0
H463 H 0.11635 0.58298 0.7715 0.0
H464 H 0.23383 0.56467 0.63951 0.0
H465 H 0.11937 0.52074 1.00102 0.0
H466 H 0.16225 0.58236 0.73258 0.0
H467 H 0.19865 0.51895 0.93667 0.0
C468 C 0.23005 0.52405 0.84107 0.0
C469 C 0.24011 0.53646 0.75654 0.0
C470 C 0.15294 0.56906 0.79196 0.0
C471 C 0.19274 0.5469 0.81719 0.0
C472 C 0.12679 0.56954 0.81452 0.0
C473 C 0.1139 0.55161 0.88904 0.0
C474 C 0.16627 0.5506 0.8445 0.0
C475 C 0.12839 0.5346 0.94229 0.0
C476 C 0.20639 0.5292 0.87172 0.0
C477 C 0.22639 0.55458 0.70486 0.0
N478 N 0.1537 0.53434 0.91861 0.0
N479 N 0.20329 0.55917 0.7358 0.0
H480 H 0.08193 0.8233 0.17078 0.0
H481 H 0.00304 0.94724 0.11552 0.0
H482 H 0.99943 0.81501 0.23831 0.0
H483 H 0.08426 0.95948 0.02433 0.0
H484 H 0.0038 0.89934 0.17654 0.0
H485 H 0.08528 0.87348 0.12569 0.0
C486 C 0.06457 0.83219 0.17529 0.0
C487 C 0.04038 0.8154 0.208 0.0
C488 C 0.02164 0.9124 0.14414 0.0
C489 C 0.04398 0.87209 0.15883 0.0
C490 C 0.02124 0.9398 0.11001 0.0
C491 C 0.04364 0.95713 0.06542 0.0
C492 C 0.04451 0.902 0.13227 0.0
C493 C 0.06671 0.94664 0.05927 0.0
C494 C 0.06647 0.86066 0.15045 0.0
C495 C 0.0184 0.82749 0.21379 0.0
N496 N 0.06649 0.91951 0.09149 0.0
N497 N 0.02072 0.85507 0.18968 0.0
H498 H 0.73465 0.99123 0.98842 0.0
H499 H 0.61592 0.06903 0.03932 0.0
H500 H 0.7288 0.03656 0.18909 0.0
H501 H 0.61991 0.01728 0.85471 0.0
H502 H 0.66077 0.06427 0.0792 0.0
H503 H 0.69602 0.00706 0.92354 0.0
C504 C 0.72524 1.00479 0.01802 0.0
C505 C 0.73452 0.0125 0.0941 0.0
C506 C 0.65193 0.0543 0.02911 0.0
C507 C 0.69033 0.03048 0.02169 0.0
C508 C 0.62642 0.05716 1.00594 0.0
C509 C 0.61409 0.0432 0.94457 0.0
C510 C 0.66507 0.03747 0.99026 0.0
C511 C 0.62854 0.02805 0.90338 0.0
C512 C 0.70322 0.01377 0.98142 0.0
C513 C 0.7218 0.02996 0.1309 0.0
N514 N 0.65315 0.02537 0.92759 0.0
N515 N 0.70014 0.03823 0.0947 0.0
H516 H 0.45622 0.74333 0.4352 0.0
H517 H 0.50511 0.60574 0.39181 0.0
H518 H 0.53606 0.73077 0.46416 0.0
H519 H 0.43716 0.62958 0.26382 0.0
H520 H 0.51073 0.6465 0.45484 0.0
H521 H 0.44375 0.6972 0.40256 0.0
C522 C 0.47098 0.7307 0.43514 0.0
C523 C 0.49709 0.7405 0.45271 0.0
C524 C 0.49442 0.64265 0.41371 0.0
C525 C 0.48312 0.68816 0.41779 0.0
C526 C 0.4912 0.61943 0.37781 0.0
C527 C 0.47098 0.61465 0.32112 0.0
C528 C 0.47729 0.66123 0.3929 0.0
C529 C 0.45308 0.63263 0.30691 0.0
C530 C 0.46391 0.70451 0.41709 0.0
C531 C 0.51563 0.72359 0.45261 0.0
N532 N 0.45686 0.65543 0.3417 0.0
N533 N 0.5083 0.69821 0.43553 0.0
H534 H 0.82654 0.56856 0.02871 0.0
H535 H 0.93897 0.54565 0.84114 0.0
H536 H 0.81168 0.48322 0.15384 0.0
H537 H 0.93869 0.48467 0.07657 0.0
H538 H 0.89298 0.54639 0.8746 0.0
H539 H 0.86891 0.56363 0.96845 0.0
C540 C 0.83221 0.54865 0.04169 0.0
C541 C 0.81587 0.52619 0.09478 0.0
C542 C 0.90297 0.53293 0.91922 0.0
C543 C 0.86395 0.52005 0.02649 0.0
C544 C 0.92919 0.53228 0.89979 0.0
C545 C 0.94288 0.51548 0.95715 0.0
C546 C 0.89034 0.51688 0.99712 0.0
C547 C 0.92896 0.49815 0.03106 0.0
C548 C 0.8562 0.5457 1.00705 0.0
C549 C 0.82391 0.50082 0.11203 0.0
N550 N 0.90345 0.4995 0.04951 0.0
N551 N 0.84766 0.49845 0.07874 0.0
H552 H 0.07069 0.29659 0.42077 0.0
H553 H 0.00617 0.16081 0.25272 0.0
H554 H 0.9898 0.25572 0.47601 0.0
H555 H 0.08841 0.19883 0.20562 0.0
H556 H 0.99891 0.19822 0.32094 0.0
H557 H 0.07655 0.26455 0.32652 0.0
C558 C 0.05398 0.28138 0.41069 0.0
C559 C 0.02971 0.2788 0.45559 0.0
C560 C 0.01853 0.19851 0.29528 0.0
C561 C 0.03627 0.24162 0.3501 0.0
C562 C 0.02269 0.17714 0.25567 0.0
C563 C 0.048 0.1764 0.22318 0.0
C564 C 0.03978 0.21955 0.3028 0.0
C565 C 0.06863 0.19814 0.2307 0.0
C566 C 0.05737 0.26285 0.35797 0.0
C567 C 0.00876 0.25839 0.44204 0.0
N568 N 0.06409 0.21867 0.26977 0.0
N569 N 0.01257 0.24046 0.39137 0.0
H570 H 0.33438 0.12341 0.56518 0.0
H571 H 0.42615 0.04467 0.33234 0.0
H572 H 0.31734 0.03674 0.5716 0.0
H573 H 0.44255 0.13259 0.30736 0.0
H574 H 0.38604 0.04191 0.41928 0.0
H575 H 0.37356 0.12809 0.46795 0.0
C576 C 0.33884 0.10551 0.54478 0.0
C577 C 0.32285 0.07971 0.5752 0.0
C578 C 0.39834 0.06186 0.39487 0.0
C579 C 0.3674 0.08456 0.46638 0.0
C580 C 0.42141 0.06343 0.34571 0.0
C581 C 0.43793 0.08888 0.31315 0.0
C582 C 0.39157 0.08592 0.41211 0.0
C583 C 0.43036 0.11255 0.3309 0.0
C584 C 0.36114 0.10807 0.48999 0.0
C585 C 0.32936 0.05692 0.54887 0.0
N586 N 0.40778 0.11048 0.37956 0.0
N587 N 0.35118 0.05983 0.49622 0.0
H588 H 0.49556 0.30134 0.24968 0.0
H589 H 0.48354 0.43502 0.06497 0.0
H590 H 0.57892 0.33269 0.20677 0.0
H591 H 0.56324 0.44595 0.95935 0.0
H592 H 0.48515 0.38761 0.13081 0.0
H593 H 0.48711 0.34293 0.15264 0.0
C594 C 0.51205 0.31677 0.21785 0.0
C595 C 0.53794 0.31373 0.23594 0.0
C596 C 0.5021 0.39998 0.09147 0.0
C597 C 0.52867 0.36207 0.12857 0.0
C598 C 0.50126 0.42731 0.05425 0.0
C599 C 0.52332 0.44467 1.00658 0.0
C600 C 0.52525 0.38977 0.0813 0.0
C601 C 0.54574 0.43343 0.99548 0.0
C602 C 0.50729 0.34084 0.16395 0.0
C603 C 0.55869 0.33441 0.19423 0.0
N604 N 0.54622 0.40688 0.03339 0.0
N605 N 0.55364 0.35778 0.14329 0.0
H606 H 0.26227 0.53929 0.47779 0.0
H607 H 0.11401 0.45762 0.46749 0.0
H608 H 0.21882 0.48564 0.70178 0.0
H609 H 0.15646 0.51458 0.2464 0.0
H610 H 0.15269 0.46603 0.55292 0.0
H611 H 0.22442 0.52861 0.38963 0.0
C612 C 0.24474 0.52509 0.50789 0.0
C613 C 0.24346 0.51332 0.59666 0.0
C614 C 0.15357 0.47661 0.4856 0.0
C615 C 0.2001 0.50112 0.49739 0.0
C616 C 0.13142 0.47191 0.43683 0.0
C617 C 0.13189 0.48541 0.34943 0.0
C618 C 0.17642 0.49496 0.44691 0.0
C619 C 0.15523 0.50339 0.31306 0.0
C620 C 0.22313 0.51908 0.458 0.0
C621 C 0.22034 0.49524 0.63348 0.0
N622 N 0.17648 0.50768 0.36195 0.0
N623 N 0.19952 0.48971 0.58376 0.0
H624 H 0.06663 0.80827 0.38676 0.0
H625 H 0.9595 0.87479 0.59878 0.0
H626 H 0.98374 0.7738 0.40634 0.0
H627 H 0.0435 0.89957 0.61594 0.0
H628 H 0.96756 0.83709 0.53274 0.0
H629 H 0.05848 0.84065 0.47594 0.0
C630 C 0.04678 0.80709 0.41228 0.0
C631 C 0.0259 0.78814 0.39052 0.0
C632 C 0.98422 0.85071 0.55138 0.0
C633 C 0.01606 0.82579 0.49022 0.0
C634 C 0.97964 0.87228 0.5896 0.0
C635 C 0.00082 0.89078 0.61308 0.0
C636 C 0.01019 0.84747 0.53579 0.0
C637 C 0.02647 0.8864 0.5977 0.0
C638 C 0.04204 0.82572 0.46242 0.0
C639 C 0.00039 0.78779 0.42324 0.0
N640 N 0.03038 0.86542 0.5599 0.0
N641 N 0.99612 0.80655 0.47055 0.0
H642 H 0.75557 1.00238 0.37115 0.0
H643 H 0.60147 0.94072 0.47965 0.0
H644 H 0.70658 0.96033 0.20225 0.0
H645 H 0.64861 0.99503 0.62142 0.0
H646 H 0.64038 0.94354 0.3853 0.0
H647 H 0.71737 0.99516 0.47322 0.0
C648 C 0.73673 0.99131 0.35648 0.0
C649 C 0.73401 0.98189 0.27886 0.0
C650 C 0.64218 0.95471 0.4374 0.0
C651 C 0.69022 0.97379 0.39391 0.0
C652 C 0.61994 0.95322 0.49112 0.0
C653 C 0.62164 0.96766 0.55889 0.0
C654 C 0.66637 0.97068 0.45157 0.0
C655 C 0.6463 0.98315 0.57119 0.0
C656 C 0.71492 0.98735 0.41413 0.0
C657 C 0.70925 0.96796 0.26158 0.0
N658 N 0.6676 0.98428 0.51808 0.0
N659 N 0.68823 0.96436 0.31859 0.0
H660 H 0.56566 0.76039 0.58603 0.0
H661 H 0.49361 0.61955 0.89847 0.0
H662 H 0.48215 0.73882 0.64844 0.0
H663 H 0.57271 0.63189 0.78596 0.0
H664 H 0.49185 0.66712 0.83258 0.0
H665 H 0.57136 0.71775 0.68536 0.0
C666 C 0.54871 0.74711 0.62327 0.0
C667 C 0.52344 0.75302 0.60998 0.0
C668 C 0.5097 0.65952 0.82295 0.0
C669 C 0.52954 0.70419 0.72173 0.0
C670 C 0.51075 0.63231 0.86078 0.0
C671 C 0.53326 0.6215 0.84722 0.0
C672 C 0.53133 0.67625 0.77127 0.0
C673 C 0.55486 0.6392 0.79774 0.0
C674 C 0.55185 0.72264 0.67885 0.0
C675 C 0.50193 0.73493 0.6578 0.0
N676 N 0.5533 0.66561 0.76117 0.0
N677 N 0.5054 0.71126 0.71094 0.0
H678 H 0.81619 0.59333 0.22164 0.0
H679 H 0.9159 0.52998 0.55281 0.0
H680 H 0.81673 0.50703 0.29718 0.0
H681 H 0.92939 0.61587 0.42905 0.0
H682 H 0.87679 0.522 0.47033 0.0
H683 H 0.85488 0.60296 0.30852 0.0
C684 C 0.82446 0.5765 0.25724 0.0
C685 C 0.81355 0.54941 0.25295 0.0
C686 C 0.88831 0.5426 0.46099 0.0
C687 C 0.85735 0.55999 0.35149 0.0
C688 C 0.91081 0.54718 0.50774 0.0
C689 C 0.92628 0.57361 0.49727 0.0
C690 C 0.88089 0.56461 0.40351 0.0
C691 C 0.91804 0.59518 0.43972 0.0
C692 C 0.8465 0.58192 0.30619 0.0
C693 C 0.82485 0.52816 0.29902 0.0
N694 N 0.89593 0.5902 0.39489 0.0
N695 N 0.84609 0.53387 0.34655 0.0
loop_
_geom_bond_atom_site_label_1
_geom_bond_atom_site_label_2
_geom_bond_distance
_geom_bond_site_symmetry_2
_ccdc_geom_bond_type
C0 N1 1.317 . S
C0 N2 1.348 1_554 S
C0 C3 1.485 . S
N1 C0 1.317 . S
N1 N5 1.370 1_554 S
N2 C0 1.348 1_556 S
N2 C4 1.346 . S
C3 C0 1.485 . S
C3 H7 0.960 . S
C3 H8 0.961 . S
C3 H9 0.960 . S
C4 N2 1.346 . S
C4 N5 1.307 . S
C4 C6 1.486 . S
N5 N1 1.370 1_556 S
N5 C4 1.307 . S
C6 C4 1.486 . S
C6 H10 0.960 . S
C6 H11 0.960 . S
C6 H12 0.959 . S
H7 C3 0.960 . S
H8 C3 0.961 . S
H9 C3 0.960 . S
H10 C6 0.960 . S
H11 C6 0.960 . S
H12 C6 0.959 . S
C13 N14 1.317 . S
C13 N15 1.348 . S
C13 C16 1.485 . S
N14 C13 1.317 . S
N14 N18 1.370 . S
N15 C13 1.348 . S
N15 C17 1.346 . S
C16 C13 1.485 . S
C16 H20 0.960 1_655 S
C16 H21 0.961 . S
C16 H22 0.960 . S
C17 N15 1.346 . S
C17 N18 1.307 . S
C17 C19 1.486 1_554 S
N18 N14 1.370 . S
N18 C17 1.307 . S
C19 C17 1.486 1_556 S
C19 H23 0.960 . S
C19 H24 0.960 1_655 S
C19 H25 0.959 . S
H20 C16 0.960 1_455 S
H21 C16 0.961 . S
H22 C16 0.960 . S
H23 C19 0.960 . S
H24 C19 0.960 1_455 S
H25 C19 0.959 . S
C26 N27 1.317 . S
C26 N28 1.348 . S
C26 C29 1.485 . S
N27 C26 1.317 . S
N27 N31 1.370 . S
N28 C26 1.348 . S
N28 C30 1.346 . S
C29 C26 1.485 . S
C29 H33 0.960 . S
C29 H34 0.961 . S
C29 H35 0.960 . S
C30 N28 1.346 . S
C30 N31 1.307 . S
C30 C32 1.486 1_554 S
N31 N27 1.370 . S
N31 C30 1.307 . S
C32 C30 1.486 1_556 S
C32 H36 0.960 . S
C32 H37 0.960 . S
C32 H38 0.959 . S
H33 C29 0.960 . S
H34 C29 0.961 . S
H35 C29 0.960 . S
H36 C32 0.960 . S
H37 C32 0.960 . S
H38 C32 0.959 . S
C39 N40 1.317 . S
C39 N41 1.348 . S
C39 C42 1.485 . S
N40 C39 1.317 . S
N40 N44 1.370 . S
N41 C39 1.348 . S
N41 C43 1.346 . S
C42 C39 1.485 . S
C42 H46 0.960 . S
C42 H47 0.961 . S
C42 H48 0.960 . S
C43 N41 1.346 . S
C43 N44 1.307 . S
C43 C45 1.486 . S
N44 N40 1.370 . S
N44 C43 1.307 . S
C45 C43 1.486 . S
C45 H49 0.960 . S
C45 H50 0.960 . S
C45 H51 0.959 . S
H46 C42 0.960 . S
H47 C42 0.961 . S
H48 C42 0.960 . S
H49 C45 0.960 . S
H50 C45 0.960 . S
H51 C45 0.959 . S
C52 N53 1.317 . S
C52 N54 1.348 . S
C52 C55 1.485 . S
N53 C52 1.317 . S
N53 N57 1.370 . S
N54 C52 1.348 . S
N54 C56 1.346 . S
C55 C52 1.485 . S
C55 H59 0.960 . S
C55 H60 0.961 . S
C55 H61 0.960 . S
C56 N54 1.346 . S
C56 N57 1.307 . S
C56 C58 1.486 1_556 S
N57 N53 1.370 . S
N57 C56 1.307 . S
C58 C56 1.486 1_554 S
C58 H62 0.960 . S
C58 H63 0.960 . S
C58 H64 0.959 . S
H59 C55 0.960 . S
H60 C55 0.961 . S
H61 C55 0.960 . S
H62 C58 0.960 . S
H63 C58 0.960 . S
H64 C58 0.959 . S
C65 N66 1.317 . S
C65 N67 1.348 . S
C65 C68 1.485 . S
N66 C65 1.317 . S
N66 N70 1.370 . S
N67 C65 1.348 . S
N67 C69 1.346 . S
C68 C65 1.485 . S
C68 H72 0.960 . S
C68 H73 0.961 . S
C68 H74 0.960 . S
C69 N67 1.346 . S
C69 N70 1.307 . S
C69 C71 1.486 . S
N70 N66 1.370 . S
N70 C69 1.307 . S
C71 C69 1.486 . S
C71 H75 0.960 . S
C71 H76 0.960 . S
C71 H77 0.959 . S
H72 C68 0.960 . S
H73 C68 0.961 . S
H74 C68 0.960 . S
H75 C71 0.960 . S
H76 C71 0.960 . S
H77 C71 0.959 . S
C78 N79 1.317 . S
C78 N80 1.348 . S
C78 C81 1.485 . S
N79 C78 1.317 . S
N79 N83 1.370 . S
N80 C78 1.348 . S
N80 C82 1.346 . S
C81 C78 1.485 . S
C81 H85 0.960 . S
C81 H86 0.961 . S
C81 H87 0.960 . S
C82 N80 1.346 . S
C82 N83 1.307 . S
C82 C84 1.486 . S
N83 N79 1.370 . S
N83 C82 1.307 . S
C84 C82 1.486 . S
C84 H88 0.960 . S
C84 H89 0.960 . S
C84 H90 0.959 . S
H85 C81 0.960 . S
H86 C81 0.961 . S
H87 C81 0.960 . S
H88 C84 0.960 . S
H89 C84 0.960 . S
H90 C84 0.959 . S
C91 N92 1.317 . S
C91 N93 1.348 . S
C91 C94 1.485 . S
N92 C91 1.317 . S
N92 N96 1.370 . S
N93 C91 1.348 . S
N93 C95 1.346 . S
C94 C91 1.485 . S
C94 H98 0.960 . S
C94 H99 0.961 . S
C94 H100 0.960 . S
C95 N93 1.346 . S
C95 N96 1.307 . S
C95 C97 1.486 . S
N96 N92 1.370 . S
N96 C95 1.307 . S
C97 C95 1.486 . S
C97 H101 0.960 . S
C97 H102 0.960 . S
C97 H103 0.959 . S
H98 C94 0.960 . S
H99 C94 0.961 . S
H100 C94 0.960 . S
H101 C97 0.960 . S
H102 C97 0.960 . S
H103 C97 0.959 . S
Nd104 C106 2.836 1_545 S
Nd104 O124 2.483 1_445 S
Nd104 O125 2.492 1_545 S
Nd104 O126 2.487 . S
Nd104 O127 2.682 . S
Nd104 O128 2.410 1_545 S
Nd104 O133 2.414 1_455 S
Nd104 O135 2.424 . S
Nd105 C115 2.836 . S
Nd105 O127 2.414 1_554 S
Nd105 O129 2.424 1_545 S
Nd105 O130 2.500 . S
Nd105 O131 2.492 . S
Nd105 O132 2.487 1_455 S
Nd105 O133 2.682 1_454 S
Nd105 O134 2.410 1_554 S
C106 Nd104 2.836 1_565 S
C106 C107 1.498 . S
C106 O124 1.228 1_455 S
C106 O125 1.239 . S
C107 C106 1.498 . S
C107 C108 1.366 1_455 S
C107 C112 1.407 . S
C108 C107 1.366 1_655 S
C108 C109 1.392 . S
C108 H136 0.930 . S
C109 C108 1.392 . S
C109 C110 1.398 1_655 S
C109 H137 0.929 . S
C110 C109 1.398 1_455 S
C110 C111 1.352 . S
C111 C110 1.352 . S
C111 C112 1.384 . S
C111 H138 0.930 . S
C112 C107 1.407 . S
C112 C111 1.384 . S
C112 H139 0.929 . S
C113 O126 1.241 . S
C113 O127 1.273 . S
C114 O128 1.251 . S
C114 O129 1.268 1_556 S
C115 Nd105 2.836 . S
C115 C116 1.498 . S
C115 O130 1.258 . S
C115 O131 1.239 . S
C116 C115 1.498 . S
C116 C117 1.366 . S
C116 C121 1.407 . S
C117 C116 1.366 . S
C117 C118 1.392 . S
C117 H140 0.930 . S
C118 C117 1.392 . S
C118 C119 1.398 . S
C118 H141 0.929 . S
C119 C118 1.398 . S
C119 C120 1.352 . S
C120 C119 1.352 . S
C120 C121 1.384 . S
C120 H142 0.930 . S
C121 C116 1.407 . S
C121 C120 1.384 . S
C121 H143 0.929 . S
C122 O132 1.241 1_556 S
C122 O133 1.273 . S
C123 O134 1.251 . S
C123 O135 1.268 . S
O124 Nd104 2.483 1_665 S
O124 C106 1.228 1_655 S
O125 Nd104 2.492 1_565 S
O125 C106 1.239 . S
O126 Nd104 2.487 . S
O126 C113 1.241 . S
O127 Nd104 2.682 . S
O127 Nd105 2.414 1_556 S
O127 C113 1.273 . S
O128 Nd104 2.410 1_565 S
O128 C114 1.251 . S
O129 Nd105 2.424 1_565 S
O129 C114 1.268 1_554 S
O130 Nd105 2.500 . S
O130 C115 1.258 . S
O131 Nd105 2.492 . S
O131 C115 1.239 . S
O132 Nd105 2.487 1_655 S
O132 C122 1.241 1_554 S
O133 Nd104 2.414 1_655 S
O133 Nd105 2.682 1_656 S
O133 C122 1.273 . S
O134 Nd105 2.410 1_556 S
O134 C123 1.251 . S
O135 Nd104 2.424 . S
O135 C123 1.268 . S
H136 C108 0.930 . S
H137 C109 0.929 . S
H138 C111 0.930 . S
H139 C112 0.929 . S
H140 C117 0.930 . S
H141 C118 0.929 . S
H142 C120 0.930 . S
H143 C121 0.929 . S
Nd144 C146 2.836 1_545 S
Nd144 O164 2.500 1_545 S
Nd144 O165 2.492 . S
Nd144 O166 2.487 . S
Nd144 O167 2.682 . S
Nd144 O168 2.410 . S
Nd144 O173 2.414 1_545 S
Nd144 O175 2.424 . S
Nd145 C155 2.836 . S
Nd145 O167 2.414 1_554 S
Nd145 O169 2.422 1_554 S
Nd145 O170 2.500 . S
Nd145 O171 2.492 . S
Nd145 O172 2.487 1_545 S
Nd145 O173 2.682 1_544 S
Nd145 O174 2.410 1_554 S
C146 Nd144 2.836 1_565 S
C146 C147 1.498 . S
C146 O164 1.258 . S
C146 O165 1.239 1_565 S
C147 C146 1.498 . S
C147 C148 1.366 . S
C147 C152 1.407 . S
C148 C147 1.366 . S
C148 C149 1.392 . S
C148 H176 0.930 . S
C149 C148 1.392 . S
C149 C150 1.398 . S
C149 H177 0.929 . S
C150 C149 1.398 . S
C150 C151 1.352 . S
C151 C150 1.352 . S
C151 C152 1.384 . S
C151 H178 0.930 . S
C152 C147 1.407 . S
C152 C151 1.384 . S
C152 H179 0.929 1_565 S
C153 O166 1.241 . S
C153 O167 1.273 . S
C154 O168 1.251 . S
C154 O169 1.277 . S
C155 Nd145 2.836 . S
C155 C156 1.498 . S
C155 O170 1.258 . S
C155 O171 1.239 . S
C156 C155 1.498 . S
C156 C157 1.366 . S
C156 C161 1.407 . S
C157 C156 1.366 . S
C157 C158 1.392 . S
C157 H180 0.930 . S
C158 C157 1.392 . S
C158 C159 1.398 . S
C158 H181 0.929 . S
C159 C158 1.398 . S
C159 C160 1.352 . S
C160 C159 1.352 . S
C160 C161 1.384 . S
C160 H182 0.930 . S
C161 C156 1.407 . S
C161 C160 1.384 . S
C161 H183 0.929 . S
C162 O172 1.241 . S
C162 O173 1.273 1_554 S
C163 O174 1.251 . S
C163 O175 1.268 . S
O164 Nd144 2.500 1_565 S
O164 C146 1.258 . S
O165 Nd144 2.492 . S
O165 C146 1.239 1_545 S
O166 Nd144 2.487 . S
O166 C153 1.241 . S
O167 Nd144 2.682 . S
O167 Nd145 2.414 1_556 S
O167 C153 1.273 . S
O168 Nd144 2.410 . S
O168 C154 1.251 . S
O169 Nd145 2.422 1_556 S
O169 C154 1.277 . S
O170 Nd145 2.500 . S
O170 C155 1.258 . S
O171 Nd145 2.492 . S
O171 C155 1.239 . S
O172 Nd145 2.487 1_565 S
O172 C162 1.241 . S
O173 Nd144 2.414 1_565 S
O173 Nd145 2.682 1_566 S
O173 C162 1.273 1_556 S
O174 Nd145 2.410 1_556 S
O174 C163 1.251 . S
O175 Nd144 2.424 . S
O175 C163 1.268 . S
H176 C148 0.930 . S
H177 C149 0.929 . S
H178 C151 0.930 . S
H179 C152 0.929 1_545 S
H180 C157 0.930 . S
H181 C158 0.929 . S
H182 C160 0.930 . S
H183 C161 0.929 . S
Nd184 C186 2.836 . S
Nd184 O204 2.500 . S
Nd184 O205 2.492 . S
Nd184 O206 2.487 . S
Nd184 O207 2.682 1_554 S
Nd184 O208 2.410 1_554 S
Nd184 O213 2.414 1_554 S
Nd184 O215 2.424 . S
Nd185 C195 2.836 . S
Nd185 O207 2.414 . S
Nd185 O209 2.424 . S
Nd185 O210 2.500 . S
Nd185 O211 2.492 . S
Nd185 O212 2.487 . S
Nd185 O213 2.682 . S
Nd185 O214 2.410 . S
C186 Nd184 2.836 . S
C186 C187 1.498 . S
C186 O204 1.258 . S
C186 O205 1.239 . S
C187 C186 1.498 . S
C187 C188 1.366 . S
C187 C192 1.407 . S
C188 C187 1.366 . S
C188 C189 1.392 . S
C188 H216 0.930 . S
C189 C188 1.392 . S
C189 C190 1.398 . S
C189 H217 0.929 . S
C190 C189 1.398 . S
C190 C191 1.352 . S
C191 C190 1.352 . S
C191 C192 1.384 . S
C191 H218 0.930 . S
C192 C187 1.407 . S
C192 C191 1.384 . S
C192 H219 0.929 . S
C193 O206 1.241 1_556 S
C193 O207 1.273 . S
C194 O208 1.251 . S
C194 O209 1.268 . S
C195 Nd185 2.836 . S
C195 C196 1.498 . S
C195 O210 1.258 . S
C195 O211 1.239 . S
C196 C195 1.498 . S
C196 C197 1.366 . S
C196 C201 1.407 . S
C197 C196 1.366 . S
C197 C198 1.392 . S
C197 H220 0.930 . S
C198 C197 1.392 . S
C198 C199 1.398 . S
C198 H221 0.929 . S
C199 C198 1.398 . S
C199 C200 1.352 . S
C200 C199 1.352 . S
C200 C201 1.384 . S
C200 H222 0.930 . S
C201 C196 1.407 . S
C201 C200 1.384 . S
C201 H223 0.929 . S
C202 O212 1.241 . S
C202 O213 1.273 . S
C203 O214 1.251 1_554 S
C203 O215 1.268 . S
O204 Nd184 2.500 . S
O204 C186 1.258 . S
O205 Nd184 2.492 . S
O205 C186 1.239 . S
O206 Nd184 2.487 . S
O206 C193 1.241 1_554 S
O207 Nd184 2.682 1_556 S
O207 Nd185 2.414 . S
O207 C193 1.273 . S
O208 Nd184 2.410 1_556 S
O208 C194 1.251 . S
O209 Nd185 2.424 . S
O209 C194 1.268 . S
O210 Nd185 2.500 . S
O210 C195 1.258 . S
O211 Nd185 2.492 . S
O211 C195 1.239 . S
O212 Nd185 2.487 . S
O212 C202 1.241 . S
O213 Nd184 2.414 1_556 S
O213 Nd185 2.682 . S
O213 C202 1.273 . S
O214 Nd185 2.410 . S
O214 C203 1.251 1_556 S
O215 Nd184 2.424 . S
O215 C203 1.268 . S
H216 C188 0.930 . S
H217 C189 0.929 . S
H218 C191 0.930 . S
H219 C192 0.929 . S
H220 C197 0.930 . S
H221 C198 0.929 . S
H222 C200 0.930 . S
H223 C201 0.929 . S
Nd224 C226 2.836 1_455 S
Nd224 O244 2.500 1_455 S
Nd224 O245 2.492 1_455 S
Nd224 O246 2.487 . S
Nd224 O247 2.682 . S
Nd224 O248 2.410 1_455 S
Nd224 O253 2.414 . S
Nd224 O255 2.424 . S
Nd225 C235 2.836 . S
Nd225 O247 2.414 1_554 S
Nd225 O249 2.424 1_455 S
Nd225 O250 2.500 . S
Nd225 O251 2.492 . S
Nd225 O252 2.487 . S
Nd225 O253 2.682 1_554 S
Nd225 O254 2.410 1_554 S
C226 Nd224 2.836 1_655 S
C226 C227 1.498 . S
C226 O244 1.258 . S
C226 O245 1.239 . S
C227 C226 1.498 . S
C227 C228 1.366 . S
C227 C232 1.407 . S
C228 C227 1.366 . S
C228 C229 1.392 . S
C228 H256 0.930 . S
C229 C228 1.392 . S
C229 C230 1.398 . S
C229 H257 0.929 . S
C230 C229 1.398 . S
C230 C231 1.352 . S
C231 C230 1.352 . S
C231 C232 1.384 . S
C231 H258 0.930 . S
C232 C227 1.407 . S
C232 C231 1.384 . S
C232 H259 0.929 . S
C233 O246 1.241 . S
C233 O247 1.273 . S
C234 O248 1.251 . S
C234 O249 1.268 1_556 S
C235 Nd225 2.836 . S
C235 C236 1.498 . S
C235 O250 1.258 . S
C235 O251 1.239 . S
C236 C235 1.498 . S
C236 C237 1.366 . S
C236 C241 1.407 . S
C237 C236 1.366 . S
C237 C238 1.392 . S
C237 H260 0.930 . S
C238 C237 1.392 . S
C238 C239 1.398 . S
C238 H261 0.929 . S
C239 C238 1.398 . S
C239 C240 1.352 . S
C240 C239 1.352 . S
C240 C241 1.384 . S
C240 H262 0.930 . S
C241 C236 1.407 . S
C241 C240 1.384 . S
C241 H263 0.929 . S
C242 O252 1.241 1_556 S
C242 O253 1.273 . S
C243 O254 1.251 . S
C243 O255 1.268 . S
O244 Nd224 2.500 1_655 S
O244 C226 1.258 . S
O245 Nd224 2.492 1_655 S
O245 C226 1.239 . S
O246 Nd224 2.487 . S
O246 C233 1.241 . S
O247 Nd224 2.682 . S
O247 Nd225 2.414 1_556 S
O247 C233 1.273 . S
O248 Nd224 2.410 1_655 S
O248 C234 1.251 . S
O249 Nd225 2.424 1_655 S
O249 C234 1.268 1_554 S
O250 Nd225 2.500 . S
O250 C235 1.258 . S
O251 Nd225 2.492 . S
O251 C235 1.239 . S
O252 Nd225 2.487 . S
O252 C242 1.241 1_554 S
O253 Nd224 2.414 . S
O253 Nd225 2.682 1_556 S
O253 C242 1.273 . S
O254 Nd225 2.410 1_556 S
O254 C243 1.251 . S
O255 Nd224 2.424 . S
O255 C243 1.268 . S
H256 C228 0.930 . S
H257 C229 0.929 . S
H258 C231 0.930 . S
H259 C232 0.929 . S
H260 C237 0.930 . S
H261 C238 0.929 . S
H262 C240 0.930 . S
H263 C241 0.929 . S
H264 C270 0.930 . S
H265 C274 0.930 . S
H266 C279 0.929 . S
H267 C277 0.929 . S
H268 C272 0.929 . S
H269 C278 0.929 . S
C270 H264 0.930 . S
C270 C271 1.367 . S
C270 C278 1.378 . S
C271 C270 1.367 . S
C271 C279 1.433 . S
C272 H268 0.929 . S
C272 C274 1.378 . S
C272 C276 1.350 . S
C273 C276 1.463 . S
C273 C278 1.350 . S
C273 N281 1.427 . S
C274 H265 0.930 . S
C274 C272 1.378 . S
C274 C275 1.367 . S
C275 C274 1.367 . S
C275 C277 1.433 . S
C276 C272 1.350 . S
C276 C273 1.463 . S
C276 N280 1.427 . S
C277 H267 0.929 . S
C277 C275 1.433 . S
C277 N280 1.384 . S
C278 H269 0.929 . S
C278 C270 1.378 . S
C278 C273 1.350 . S
C279 H266 0.929 . S
C279 C271 1.433 . S
C279 N281 1.384 . S
N280 C276 1.427 . S
N280 C277 1.384 . S
N281 C273 1.427 . S
N281 C279 1.384 . S
H282 C288 0.930 . S
H283 C292 0.930 . S
H284 C297 0.929 . S
H285 C295 0.929 . S
H286 C290 0.929 . S
H287 C296 0.929 . S
C288 H282 0.930 . S
C288 C289 1.367 . S
C288 C296 1.378 . S
C289 C288 1.367 . S
C289 C297 1.433 . S
C290 H286 0.929 . S
C290 C292 1.378 . S
C290 C294 1.350 . S
C291 C294 1.463 . S
C291 C296 1.350 . S
C291 N299 1.427 . S
C292 H283 0.930 . S
C292 C290 1.378 . S
C292 C293 1.367 . S
C293 C292 1.367 . S
C293 C295 1.433 . S
C294 C290 1.350 . S
C294 C291 1.463 . S
C294 N298 1.427 . S
C295 H285 0.929 . S
C295 C293 1.433 . S
C295 N298 1.384 . S
C296 H287 0.929 . S
C296 C288 1.378 . S
C296 C291 1.350 . S
C297 H284 0.929 . S
C297 C289 1.433 . S
C297 N299 1.384 . S
N298 C294 1.427 . S
N298 C295 1.384 . S
N299 C291 1.427 . S
N299 C297 1.384 . S
H300 C306 0.930 . S
H301 C310 0.930 . S
H302 C315 0.929 . S
H303 C313 0.929 . S
H304 C308 0.929 . S
H305 C314 0.929 . S
C306 H300 0.930 . S
C306 C307 1.367 . S
C306 C314 1.378 . S
C307 C306 1.367 . S
C307 C315 1.433 . S
C308 H304 0.929 . S
C308 C310 1.378 . S
C308 C312 1.350 . S
C309 C312 1.463 . S
C309 C314 1.350 . S
C309 N317 1.427 . S
C310 H301 0.930 . S
C310 C308 1.378 . S
C310 C311 1.367 . S
C311 C310 1.367 . S
C311 C313 1.433 . S
C312 C308 1.350 . S
C312 C309 1.463 . S
C312 N316 1.427 . S
C313 H303 0.929 . S
C313 C311 1.433 . S
C313 N316 1.384 . S
C314 H305 0.929 . S
C314 C306 1.378 . S
C314 C309 1.350 . S
C315 H302 0.929 . S
C315 C307 1.433 . S
C315 N317 1.384 . S
N316 C312 1.427 . S
N316 C313 1.384 . S
N317 C309 1.427 . S
N317 C315 1.384 . S
H318 C324 0.930 . S
H319 C328 0.922 1_554 S
H320 C333 0.929 . S
H321 C331 0.929 . S
H322 C326 0.929 . S
H323 C332 0.929 . S
C324 H318 0.930 . S
C324 C325 1.367 . S
C324 C332 1.378 . S
C325 C324 1.367 . S
C325 C333 1.433 . S
C326 H322 0.929 . S
C326 C328 1.378 . S
C326 C330 1.350 . S
C327 C330 1.463 . S
C327 C332 1.350 . S
C327 N335 1.427 . S
C328 H319 0.922 1_556 S
C328 C326 1.378 . S
C328 C329 1.367 . S
C329 C328 1.367 . S
C329 C331 1.433 . S
C330 C326 1.350 . S
C330 C327 1.463 . S
C330 N334 1.427 . S
C331 H321 0.929 . S
C331 C329 1.433 . S
C331 N334 1.384 . S
C332 H323 0.929 . S
C332 C324 1.378 . S
C332 C327 1.350 . S
C333 H320 0.929 . S
C333 C325 1.433 . S
C333 N335 1.384 . S
N334 C330 1.427 . S
N334 C331 1.384 . S
N335 C327 1.427 . S
N335 C333 1.384 . S
H336 C342 0.930 . S
H337 C346 0.930 . S
H338 C351 0.929 . S
H339 C349 0.942 1_545 S
H340 C344 0.929 . S
H341 C350 0.929 . S
C342 H336 0.930 . S
C342 C343 1.367 1_556 S
C342 C350 1.378 . S
C343 C342 1.367 1_554 S
C343 C351 1.433 . S
C344 H340 0.929 . S
C344 C346 1.378 1_565 S
C344 C348 1.350 1_554 S
C345 C348 1.463 1_554 S
C345 C350 1.350 1_554 S
C345 N353 1.427 . S
C346 H337 0.930 . S
C346 C344 1.378 1_545 S
C346 C347 1.367 1_554 S
C347 C346 1.367 1_556 S
C347 C349 1.421 1_545 S
C348 C344 1.350 1_556 S
C348 C345 1.463 1_556 S
C348 N352 1.427 . S
C349 H339 0.942 1_565 S
C349 C347 1.421 1_565 S
C349 N352 1.388 . S
C350 H341 0.929 . S
C350 C342 1.378 . S
C350 C345 1.350 1_556 S
C351 H338 0.929 . S
C351 C343 1.433 . S
C351 N353 1.384 . S
N352 C348 1.427 . S
N352 C349 1.388 . S
N353 C345 1.427 . S
N353 C351 1.384 . S
H354 C360 0.930 . S
H355 C364 0.930 . S
H356 C369 0.929 . S
H357 C367 0.929 . S
H358 C362 0.929 . S
H359 C368 0.929 . S
C360 H354 0.930 . S
C360 C361 1.367 . S
C360 C368 1.378 . S
C361 C360 1.367 . S
C361 C369 1.433 . S
C362 H358 0.929 . S
C362 C364 1.378 . S
C362 C366 1.350 . S
C363 C366 1.463 . S
C363 C368 1.350 . S
C363 N371 1.427 . S
C364 H355 0.930 . S
C364 C362 1.378 . S
C364 C365 1.367 . S
C365 C364 1.367 . S
C365 C367 1.433 . S
C366 C362 1.350 . S
C366 C363 1.463 . S
C366 N370 1.427 . S
C367 H357 0.929 . S
C367 C365 1.433 . S
C367 N370 1.384 . S
C368 H359 0.929 . S
C368 C360 1.378 . S
C368 C363 1.350 . S
C369 H356 0.929 . S
C369 C361 1.433 . S
C369 N371 1.384 . S
N370 C366 1.427 . S
N370 C367 1.384 . S
N371 C363 1.427 . S
N371 C369 1.384 . S
H372 C378 0.930 . S
H373 C382 0.930 . S
H374 C387 0.929 . S
H375 C385 0.929 . S
H376 C380 0.929 . S
H377 C386 0.929 . S
C378 H372 0.930 . S
C378 C379 1.367 . S
C378 C386 1.378 . S
C379 C378 1.367 . S
C379 C387 1.433 . S
C380 H376 0.929 . S
C380 C382 1.378 . S
C380 C384 1.350 . S
C381 C384 1.463 . S
C381 C386 1.350 . S
C381 N389 1.427 . S
C382 H373 0.930 . S
C382 C380 1.378 . S
C382 C383 1.367 . S
C383 C382 1.367 . S
C383 C385 1.433 . S
C384 C380 1.350 . S
C384 C381 1.463 . S
C384 N388 1.427 . S
C385 H375 0.929 . S
C385 C383 1.433 . S
C385 N388 1.384 . S
C386 H377 0.929 . S
C386 C378 1.378 . S
C386 C381 1.350 . S
C387 H374 0.929 . S
C387 C379 1.433 . S
C387 N389 1.384 . S
N388 C384 1.427 . S
N388 C385 1.384 . S
N389 C381 1.427 . S
N389 C387 1.384 . S
H390 C396 0.930 . S
H391 C400 0.930 . S
H392 C405 0.929 . S
H393 C403 0.929 . S
H394 C398 0.929 . S
H395 C404 0.929 . S
C396 H390 0.930 . S
C396 C397 1.367 . S
C396 C404 1.378 . S
C397 C396 1.367 . S
C397 C405 1.433 1_654 S
C398 H394 0.929 . S
C398 C400 1.378 . S
C398 C402 1.350 1_556 S
C399 C402 1.463 . S
C399 C404 1.350 1_455 S
C399 N407 1.427 1_554 S
C400 H391 0.930 . S
C400 C398 1.378 . S
C400 C401 1.367 . S
C401 C400 1.367 . S
C401 C403 1.433 1_556 S
C402 C398 1.350 1_554 S
C402 C399 1.463 . S
C402 N406 1.427 . S
C403 H393 0.929 . S
C403 C401 1.433 1_554 S
C403 N406 1.384 . S
C404 H395 0.929 . S
C404 C396 1.378 . S
C404 C399 1.350 1_655 S
C405 H392 0.929 . S
C405 C397 1.433 1_456 S
C405 N407 1.384 . S
N406 C402 1.427 . S
N406 C403 1.384 . S
N407 C399 1.427 1_556 S
N407 C405 1.384 . S
H408 C414 0.930 . S
H409 C418 0.930 . S
H410 C423 0.929 . S
H411 C421 0.929 . S
H412 C416 0.929 . S
H413 C422 0.929 . S
C414 H408 0.930 . S
C414 C415 1.367 . S
C414 C422 1.378 . S
C415 C414 1.367 . S
C415 C423 1.433 . S
C416 H412 0.929 . S
C416 C418 1.378 . S
C416 C420 1.350 . S
C417 C420 1.463 . S
C417 C422 1.350 . S
C417 N425 1.427 . S
C418 H409 0.930 . S
C418 C416 1.378 . S
C418 C419 1.367 . S
C419 C418 1.367 . S
C419 C421 1.433 . S
C420 C416 1.350 . S
C420 C417 1.463 . S
C420 N424 1.427 . S
C421 H411 0.929 . S
C421 C419 1.433 . S
C421 N424 1.384 . S
C422 H413 0.929 . S
C422 C414 1.378 . S
C422 C417 1.350 . S
C423 H410 0.929 . S
C423 C415 1.433 . S
C423 N425 1.384 . S
N424 C420 1.427 . S
N424 C421 1.384 . S
N425 C417 1.427 . S
N425 C423 1.384 . S
H426 C432 0.930 . S
H427 C436 0.930 . S
H428 C441 0.929 . S
H429 C439 0.929 1_554 S
H430 C434 0.929 . S
H431 C440 0.929 . S
C432 H426 0.930 . S
C432 C433 1.367 . S
C432 C440 1.378 . S
C433 C432 1.367 . S
C433 C441 1.433 . S
C434 H430 0.929 . S
C434 C436 1.378 . S
C434 C438 1.350 . S
C435 C438 1.463 . S
C435 C440 1.350 . S
C435 N443 1.427 . S
C436 H427 0.930 . S
C436 C434 1.378 . S
C436 C437 1.367 . S
C437 C436 1.367 . S
C437 C439 1.433 . S
C438 C434 1.350 . S
C438 C435 1.463 . S
C438 N442 1.427 . S
C439 H429 0.929 1_556 S
C439 C437 1.433 . S
C439 N442 1.384 . S
C440 H431 0.929 . S
C440 C432 1.378 . S
C440 C435 1.350 . S
C441 H428 0.929 . S
C441 C433 1.433 . S
C441 N443 1.384 . S
N442 C438 1.427 . S
N442 C439 1.384 . S
N443 C435 1.427 . S
N443 C441 1.384 . S
H444 C450 0.930 . S
H445 C454 0.930 . S
H446 C459 0.929 . S
H447 C457 0.929 . S
H448 C452 0.929 . S
H449 C458 0.929 . S
C450 H444 0.930 . S
C450 C451 1.367 . S
C450 C458 1.378 . S
C451 C450 1.367 . S
C451 C459 1.433 . S
C452 H448 0.929 . S
C452 C454 1.378 . S
C452 C456 1.350 . S
C453 C456 1.463 . S
C453 C458 1.350 . S
C453 N461 1.427 . S
C454 H445 0.930 . S
C454 C452 1.378 . S
C454 C455 1.367 . S
C455 C454 1.367 . S
C455 C457 1.433 . S
C456 C452 1.350 . S
C456 C453 1.463 . S
C456 N460 1.427 . S
C457 H447 0.929 . S
C457 C455 1.433 . S
C457 N460 1.384 . S
C458 H449 0.929 . S
C458 C450 1.378 . S
C458 C453 1.350 . S
C459 H446 0.929 . S
C459 C451 1.433 . S
C459 N461 1.384 . S
N460 C456 1.427 . S
N460 C457 1.384 . S
N461 C453 1.427 . S
N461 C459 1.384 . S
H462 C468 0.930 1_554 S
H463 C472 0.930 . S
H464 C477 0.929 . S
H465 C475 0.929 1_554 S
H466 C470 0.929 . S
H467 C476 0.929 1_554 S
C468 H462 0.930 1_556 S
C468 C469 1.367 . S
C468 C476 1.378 . S
C469 C468 1.367 . S
C469 C477 1.433 . S
C470 H466 0.929 . S
C470 C472 1.378 . S
C470 C474 1.350 . S
C471 C474 1.463 . S
C471 C476 1.350 . S
C471 N479 1.427 . S
C472 H463 0.930 . S
C472 C470 1.378 . S
C472 C473 1.367 . S
C473 C472 1.367 . S
C473 C475 1.433 . S
C474 C470 1.350 . S
C474 C471 1.463 . S
C474 N478 1.427 . S
C475 H465 0.929 1_556 S
C475 C473 1.433 . S
C475 N478 1.384 . S
C476 H467 0.929 1_556 S
C476 C468 1.378 . S
C476 C471 1.350 . S
C477 H464 0.929 . S
C477 C469 1.433 . S
C477 N479 1.384 . S
N478 C474 1.427 . S
N478 C475 1.384 . S
N479 C471 1.427 . S
N479 C477 1.384 . S
H480 C486 0.930 . S
H481 C490 0.930 . S
H482 C495 0.929 . S
H483 C493 0.929 . S
H484 C488 0.929 1_655 S
H485 C494 0.929 . S
C486 H480 0.930 . S
C486 C487 1.367 1_455 S
C486 C494 1.378 . S
C487 C486 1.367 1_655 S
C487 C495 1.433 1_554 S
C488 H484 0.929 1_455 S
C488 C490 1.378 . S
C488 C492 1.350 1_556 S
C489 C492 1.463 . S
C489 C494 1.350 . S
C489 N497 1.427 1_454 S
C490 H481 0.930 . S
C490 C488 1.378 . S
C490 C491 1.367 . S
C491 C490 1.367 . S
C491 C493 1.433 1_556 S
C492 C488 1.350 1_554 S
C492 C489 1.463 . S
C492 N496 1.427 . S
C493 H483 0.929 . S
C493 C491 1.433 1_554 S
C493 N496 1.384 . S
C494 H485 0.929 . S
C494 C486 1.378 . S
C494 C489 1.350 . S
C495 H482 0.929 . S
C495 C487 1.433 1_556 S
C495 N497 1.384 . S
N496 C492 1.427 . S
N496 C493 1.384 . S
N497 C489 1.427 1_656 S
N497 C495 1.384 . S
H498 C504 0.930 . S
H499 C508 0.930 . S
H500 C513 0.929 . S
H501 C511 0.929 . S
H502 C506 0.929 . S
H503 C512 0.929 . S
C504 H498 0.930 . S
C504 C505 1.367 1_556 S
C504 C512 1.378 . S
C505 C504 1.367 1_554 S
C505 C513 1.433 . S
C506 H502 0.929 . S
C506 C508 1.378 . S
C506 C510 1.350 1_544 S
C507 C510 1.463 . S
C507 C512 1.350 . S
C507 N515 1.427 1_556 S
C508 H499 0.930 . S
C508 C506 1.378 . S
C508 C509 1.367 1_554 S
C509 C508 1.367 1_556 S
C509 C511 1.433 1_545 S
C510 C506 1.350 1_566 S
C510 C507 1.463 . S
C510 N514 1.427 . S
C511 H501 0.929 . S
C511 C509 1.433 1_565 S
C511 N514 1.384 . S
C512 H503 0.929 . S
C512 C504 1.378 . S
C512 C507 1.350 . S
C513 H500 0.929 . S
C513 C505 1.433 . S
C513 N515 1.384 . S
N514 C510 1.427 . S
N514 C511 1.384 . S
N515 C507 1.427 1_554 S
N515 C513 1.384 . S
H516 C522 0.930 . S
H517 C526 0.930 . S
H518 C531 0.929 . S
H519 C529 0.929 . S
H520 C524 0.929 . S
H521 C530 0.929 . S
C522 H516 0.930 . S
C522 C523 1.367 . S
C522 C530 1.378 . S
C523 C522 1.367 . S
C523 C531 1.433 . S
C524 H520 0.929 . S
C524 C526 1.378 . S
C524 C528 1.350 . S
C525 C528 1.463 . S
C525 C530 1.350 . S
C525 N533 1.427 . S
C526 H517 0.930 . S
C526 C524 1.378 . S
C526 C527 1.367 . S
C527 C526 1.367 . S
C527 C529 1.433 . S
C528 C524 1.350 . S
C528 C525 1.463 . S
C528 N532 1.427 . S
C529 H519 0.929 . S
C529 C527 1.433 . S
C529 N532 1.384 . S
C530 H521 0.929 . S
C530 C522 1.378 . S
C530 C525 1.350 . S
C531 H518 0.929 . S
C531 C523 1.433 . S
C531 N533 1.384 . S
N532 C528 1.427 . S
N532 C529 1.384 . S
N533 C525 1.427 . S
N533 C531 1.384 . S
H534 C540 0.930 . S
H535 C544 0.930 . S
H536 C549 0.929 . S
H537 C547 0.929 . S
H538 C542 0.929 . S
H539 C548 0.929 . S
C540 H534 0.930 . S
C540 C541 1.367 . S
C540 C548 1.378 . S
C541 C540 1.367 . S
C541 C549 1.433 . S
C542 H538 0.929 . S
C542 C544 1.378 . S
C542 C546 1.350 . S
C543 C546 1.463 . S
C543 C548 1.350 . S
C543 N551 1.427 . S
C544 H535 0.930 . S
C544 C542 1.378 . S
C544 C545 1.367 . S
C545 C544 1.367 . S
C545 C547 1.433 . S
C546 C542 1.350 . S
C546 C543 1.463 . S
C546 N550 1.427 . S
C547 H537 0.929 . S
C547 C545 1.433 . S
C547 N550 1.384 . S
C548 H539 0.929 . S
C548 C540 1.378 . S
C548 C543 1.350 . S
C549 H536 0.929 . S
C549 C541 1.433 . S
C549 N551 1.384 . S
N550 C546 1.427 . S
N550 C547 1.384 . S
N551 C543 1.427 . S
N551 C549 1.384 . S
H552 C558 0.930 . S
H553 C562 0.930 . S
H554 C567 0.929 . S
H555 C565 0.929 . S
H556 C560 0.929 . S
H557 C566 0.929 . S
C558 H552 0.930 . S
C558 C559 1.367 . S
C558 C566 1.378 . S
C559 C558 1.367 . S
C559 C567 1.433 . S
C560 H556 0.929 . S
C560 C562 1.378 . S
C560 C564 1.350 . S
C561 C564 1.463 . S
C561 C566 1.350 . S
C561 N569 1.427 . S
C562 H553 0.930 . S
C562 C560 1.378 . S
C562 C563 1.367 . S
C563 C562 1.367 . S
C563 C565 1.433 . S
C564 C560 1.350 . S
C564 C561 1.463 . S
C564 N568 1.427 . S
C565 H555 0.929 . S
C565 C563 1.433 . S
C565 N568 1.384 . S
C566 H557 0.929 . S
C566 C558 1.378 . S
C566 C561 1.350 . S
C567 H554 0.929 . S
C567 C559 1.433 . S
C567 N569 1.384 . S
N568 C564 1.427 . S
N568 C565 1.384 . S
N569 C561 1.427 . S
N569 C567 1.384 . S
H570 C576 0.930 . S
H571 C580 0.930 . S
H572 C585 0.929 . S
H573 C583 0.929 . S
H574 C578 0.929 . S
H575 C584 0.929 . S
C576 H570 0.930 . S
C576 C577 1.367 . S
C576 C584 1.378 . S
C577 C576 1.367 . S
C577 C585 1.433 . S
C578 H574 0.929 . S
C578 C580 1.378 . S
C578 C582 1.350 . S
C579 C582 1.463 . S
C579 C584 1.350 . S
C579 N587 1.427 . S
C580 H571 0.930 . S
C580 C578 1.378 . S
C580 C581 1.367 . S
C581 C580 1.367 . S
C581 C583 1.433 . S
C582 C578 1.350 . S
C582 C579 1.463 . S
C582 N586 1.427 . S
C583 H573 0.929 . S
C583 C581 1.433 . S
C583 N586 1.384 . S
C584 H575 0.929 . S
C584 C576 1.378 . S
C584 C579 1.350 . S
C585 H572 0.929 . S
C585 C577 1.433 . S
C585 N587 1.384 . S
N586 C582 1.427 . S
N586 C583 1.384 . S
N587 C579 1.427 . S
N587 C585 1.384 . S
H588 C594 0.930 . S
H589 C598 0.930 . S
H590 C603 0.929 . S
H591 C601 0.916 1_556 S
H592 C596 0.929 . S
H593 C602 0.929 . S
C594 H588 0.930 . S
C594 C595 1.367 . S
C594 C602 1.378 . S
C595 C594 1.367 . S
C595 C603 1.433 . S
C596 H592 0.929 . S
C596 C598 1.378 . S
C596 C600 1.350 . S
C597 C600 1.463 . S
C597 C602 1.350 . S
C597 N605 1.427 . S
C598 H589 0.930 . S
C598 C596 1.378 . S
C598 C599 1.367 . S
C599 C598 1.367 . S
C599 C601 1.443 . S
C600 C596 1.350 . S
C600 C597 1.463 . S
C600 N604 1.427 . S
C601 H591 0.916 1_554 S
C601 C599 1.443 . S
C601 N604 1.387 . S
C602 H593 0.929 . S
C602 C594 1.378 . S
C602 C597 1.350 . S
C603 H590 0.929 . S
C603 C595 1.433 . S
C603 N605 1.384 . S
N604 C600 1.427 . S
N604 C601 1.387 . S
N605 C597 1.427 . S
N605 C603 1.384 . S
H606 C612 0.930 . S
H607 C616 0.930 . S
H608 C621 0.929 . S
H609 C619 0.929 . S
H610 C614 0.929 . S
H611 C620 0.929 . S
C612 H606 0.930 . S
C612 C613 1.367 . S
C612 C620 1.378 . S
C613 C612 1.367 . S
C613 C621 1.433 . S
C614 H610 0.929 . S
C614 C616 1.378 . S
C614 C618 1.350 . S
C615 C618 1.463 . S
C615 C620 1.350 . S
C615 N623 1.427 . S
C616 H607 0.930 . S
C616 C614 1.378 . S
C616 C617 1.367 . S
C617 C616 1.367 . S
C617 C619 1.433 . S
C618 C614 1.350 . S
C618 C615 1.463 . S
C618 N622 1.427 . S
C619 H609 0.929 . S
C619 C617 1.433 . S
C619 N622 1.384 . S
C620 H611 0.929 . S
C620 C612 1.378 . S
C620 C615 1.350 . S
C621 H608 0.929 . S
C621 C613 1.433 . S
C621 N623 1.384 . S
N622 C618 1.427 . S
N622 C619 1.384 . S
N623 C615 1.427 . S
N623 C621 1.384 . S
H624 C630 0.930 . S
H625 C634 0.930 . S
H626 C639 0.929 . S
H627 C637 0.929 . S
H628 C632 0.929 . S
H629 C638 0.929 . S
C630 H624 0.930 . S
C630 C631 1.367 1_455 S
C630 C638 1.378 . S
C631 C630 1.367 1_655 S
C631 C639 1.433 . S
C632 H628 0.929 . S
C632 C634 1.378 . S
C632 C636 1.350 . S
C633 C636 1.463 . S
C633 C638 1.350 1_655 S
C633 N641 1.427 . S
C634 H625 0.930 . S
C634 C632 1.378 . S
C634 C635 1.357 1_655 S
C635 C634 1.357 1_455 S
C635 C637 1.445 . S
C636 C632 1.350 . S
C636 C633 1.463 . S
C636 N640 1.427 1_655 S
C637 H627 0.929 . S
C637 C635 1.445 . S
C637 N640 1.384 . S
C638 H629 0.929 . S
C638 C630 1.378 . S
C638 C633 1.350 1_455 S
C639 H626 0.929 . S
C639 C631 1.433 . S
C639 N641 1.384 . S
N640 C636 1.427 1_455 S
N640 C637 1.384 . S
N641 C633 1.427 . S
N641 C639 1.384 . S
H642 C648 0.930 . S
H643 C652 0.930 . S
H644 C657 0.929 . S
H645 C655 0.929 . S
H646 C650 0.929 . S
H647 C656 0.929 . S
C648 H642 0.930 . S
C648 C649 1.367 . S
C648 C656 1.378 . S
C649 C648 1.367 . S
C649 C657 1.433 . S
C650 H646 0.929 . S
C650 C652 1.378 . S
C650 C654 1.350 . S
C651 C654 1.463 . S
C651 C656 1.350 . S
C651 N659 1.427 . S
C652 H643 0.930 . S
C652 C650 1.378 . S
C652 C653 1.367 . S
C653 C652 1.367 . S
C653 C655 1.433 . S
C654 C650 1.350 . S
C654 C651 1.463 . S
C654 N658 1.427 . S
C655 H645 0.929 . S
C655 C653 1.433 . S
C655 N658 1.384 . S
C656 H647 0.929 . S
C656 C648 1.378 . S
C656 C651 1.350 . S
C657 H644 0.929 . S
C657 C649 1.433 . S
C657 N659 1.384 . S
N658 C654 1.427 . S
N658 C655 1.384 . S
N659 C651 1.427 . S
N659 C657 1.384 . S
H660 C666 0.930 . S
H661 C670 0.930 . S
H662 C675 0.929 . S
H663 C673 0.929 . S
H664 C668 0.929 . S
H665 C674 0.929 . S
C666 H660 0.930 . S
C666 C667 1.367 . S
C666 C674 1.378 . S
C667 C666 1.367 . S
C667 C675 1.433 . S
C668 H664 0.929 . S
C668 C670 1.378 . S
C668 C672 1.350 . S
C669 C672 1.463 . S
C669 C674 1.350 . S
C669 N677 1.427 . S
C670 H661 0.930 . S
C670 C668 1.378 . S
C670 C671 1.367 . S
C671 C670 1.367 . S
C671 C673 1.433 . S
C672 C668 1.350 . S
C672 C669 1.463 . S
C672 N676 1.427 . S
C673 H663 0.929 . S
C673 C671 1.433 . S
C673 N676 1.384 . S
C674 H665 0.929 . S
C674 C666 1.378 . S
C674 C669 1.350 . S
C675 H662 0.929 . S
C675 C667 1.433 . S
C675 N677 1.384 . S
N676 C672 1.427 . S
N676 C673 1.384 . S
N677 C669 1.427 . S
N677 C675 1.384 . S
H678 C684 0.930 . S
H679 C688 0.930 . S
H680 C693 0.929 . S
H681 C691 0.929 . S
H682 C686 0.929 . S
H683 C692 0.929 . S
C684 H678 0.930 . S
C684 C685 1.367 . S
C684 C692 1.378 . S
C685 C684 1.367 . S
C685 C693 1.433 . S
C686 H682 0.929 . S
C686 C688 1.378 . S
C686 C690 1.350 . S
C687 C690 1.463 . S
C687 C692 1.350 . S
C687 N695 1.427 . S
C688 H679 0.930 . S
C688 C686 1.378 . S
C688 C689 1.367 . S
C689 C688 1.367 . S
C689 C691 1.433 . S
C690 C686 1.350 . S
C690 C687 1.463 . S
C690 N694 1.427 . S
C691 H681 0.929 . S
C691 C689 1.433 . S
C691 N694 1.384 . S
C692 H683 0.929 . S
C692 C684 1.378 . S
C692 C687 1.350 . S
C693 H680 0.929 . S
C693 C685 1.433 . S
C693 N695 1.384 . S
N694 C690 1.427 . S
N694 C691 1.384 . S
N695 C687 1.427 . S
N695 C693 1.384 . S
C271 N80 1.596 . S
C275 C113 1.576 . S
C293 C153 1.278 . S
C289 N93 1.339 . S
C311 C202 1.310 . S
C307 N54 1.352 . S
C329 C233 1.720 . S
C325 N67 1.800 . S
C347 C122 1.570 . S
C343 N28 1.618 . S
C361 N41 1.355 . S
C365 C162 1.301 . S
C379 N2 1.352 . S
C383 C193 1.313 . S
C397 N15 1.809 . S
C401 C242 1.720 . S
C419 C123 0.912 . S
C415 N70 0.901 . S
C437 C163 1.362 . S
C433 N83 1.322 . S
C455 C199 0.737 . S
C451 N96 0.739 . S
C469 N57 1.079 . S
C473 C243 1.090 . S
C487 N18 0.895 . S
C491 C114 0.913 . S
C509 C154 1.363 . S
C505 N31 1.329 . S
C527 C190 0.736 . S
C523 N44 0.736 . S
C541 N5 1.077 . S
C545 C234 1.092 . S
C559 N66 1.658 . S
C563 C119 1.657 . S
C577 N79 1.453 . S
C581 C159 1.427 . S
C599 C203 1.884 . S
C595 N92 1.844 . S
C617 C239 1.421 . S
C613 N53 1.444 . S
C631 N14 1.662 . S
C635 C110 1.659 . S
C653 C150 1.427 . S
C649 N27 1.453 . S
C671 C194 1.886 . S
C667 N40 1.833 . S
C685 N1 1.435 . S
C689 C230 1.418 . S
