# Generated by pormake.
# Topology eea, (3,6)-cn, num edge types: 1
# Building blocks:
#     Node 0, Type 0, BuildingBlock: BETDAH_clean_linker_0, # of connection points: 3
#     Node 1, Type 0, BuildingBlock: BETDAH_clean_linker_0, # of connection points: 3
#     Node 2, Type 0, BuildingBlock: BETDAH_clean_linker_0, # of connection points: 3
#     Node 3, Type 0, BuildingBlock: BETDAH_clean_linker_0, # of connection points: 3
#     Node 4, Type 0, BuildingBlock: BETDAH_clean_linker_0, # of connection points: 3
#     Node 5, Type 0, BuildingBlock: BETDAH_clean_linker_0, # of connection points: 3
#     Node 6, Type 0, BuildingBlock: BETDAH_clean_linker_0, # of connection points: 3
#     Node 7, Type 0, BuildingBlock: BETDAH_clean_linker_0, # of connection points: 3
#     Node 8, Type 0, BuildingBlock: BETDAH_clean_linker_0, # of connection points: 3
#     Node 9, Type 0, BuildingBlock: BETDAH_clean_linker_0, # of connection points: 3
#     Node 10, Type 0, BuildingBlock: BETDAH_clean_linker_0, # of connection points: 3
#     Node 11, Type 0, BuildingBlock: BETDAH_clean_linker_0, # of connection points: 3
#     Node 12, Type 0, BuildingBlock: BETDAH_clean_linker_0, # of connection points: 3
#     Node 13, Type 0, BuildingBlock: BETDAH_clean_linker_0, # of connection points: 3
#     Node 14, Type 0, BuildingBlock: BETDAH_clean_linker_0, # of connection points: 3
#     Node 15, Type 0, BuildingBlock: BETDAH_clean_linker_0, # of connection points: 3
#     Node 16, Type 0, BuildingBlock: BETDAH_clean_linker_0, # of connection points: 3
#     Node 17, Type 0, BuildingBlock: BETDAH_clean_linker_0, # of connection points: 3
#     Node 18, Type 1, BuildingBlock: NUHQIS_clean_sbu_0, # of connection points: 6
#     Node 19, Type 1, BuildingBlock: NUHQIS_clean_sbu_0, # of connection points: 6
#     Node 20, Type 1, BuildingBlock: NUHQIS_clean_sbu_0, # of connection points: 6
#     Node 21, Type 1, BuildingBlock: NUHQIS_clean_sbu_0, # of connection points: 6
#     Node 22, Type 1, BuildingBlock: NUHQIS_clean_sbu_0, # of connection points: 6
#     Node 23, Type 1, BuildingBlock: NUHQIS_clean_sbu_0, # of connection points: 6
#     Node 24, Type 1, BuildingBlock: NUHQIS_clean_sbu_0, # of connection points: 6
#     Node 25, Type 1, BuildingBlock: NUHQIS_clean_sbu_0, # of connection points: 6
#     Node 26, Type 1, BuildingBlock: NUHQIS_clean_sbu_0, # of connection points: 6
#     Edge 27, Type (0, 1), BuildingBlock: KIFKEQ_clean_linker_1, # of connection points: 2
#     Edge 28, Type (0, 1), BuildingBlock: KIFKEQ_clean_linker_1, # of connection points: 2
#     Edge 29, Type (0, 1), BuildingBlock: KIFKEQ_clean_linker_1, # of connection points: 2
#     Edge 30, Type (0, 1), BuildingBlock: KIFKEQ_clean_linker_1, # of connection points: 2
#     Edge 31, Type (0, 1), BuildingBlock: KIFKEQ_clean_linker_1, # of connection points: 2
#     Edge 32, Type (0, 1), BuildingBlock: KIFKEQ_clean_linker_1, # of connection points: 2
#     Edge 33, Type (0, 1), BuildingBlock: KIFKEQ_clean_linker_1, # of connection points: 2
#     Edge 34, Type (0, 1), BuildingBlock: KIFKEQ_clean_linker_1, # of connection points: 2
#     Edge 35, Type (0, 1), BuildingBlock: KIFKEQ_clean_linker_1, # of connection points: 2
#     Edge 36, Type (0, 1), BuildingBlock: KIFKEQ_clean_linker_1, # of connection points: 2
#     Edge 37, Type (0, 1), BuildingBlock: KIFKEQ_clean_linker_1, # of connection points: 2
#     Edge 38, Type (0, 1), BuildingBlock: KIFKEQ_clean_linker_1, # of connection points: 2
#     Edge 39, Type (0, 1), BuildingBlock: KIFKEQ_clean_linker_1, # of connection points: 2
#     Edge 40, Type (0, 1), BuildingBlock: KIFKEQ_clean_linker_1, # of connection points: 2
#     Edge 41, Type (0, 1), BuildingBlock: KIFKEQ_clean_linker_1, # of connection points: 2
#     Edge 42, Type (0, 1), BuildingBlock: KIFKEQ_clean_linker_1, # of connection points: 2
#     Edge 43, Type (0, 1), BuildingBlock: KIFKEQ_clean_linker_1, # of connection points: 2
#     Edge 44, Type (0, 1), BuildingBlock: KIFKEQ_clean_linker_1, # of connection points: 2
#     Edge 45, Type (0, 1), BuildingBlock: KIFKEQ_clean_linker_1, # of connection points: 2
#     Edge 46, Type (0, 1), BuildingBlock: KIFKEQ_clean_linker_1, # of connection points: 2
#     Edge 47, Type (0, 1), BuildingBlock: KIFKEQ_clean_linker_1, # of connection points: 2
#     Edge 48, Type (0, 1), BuildingBlock: KIFKEQ_clean_linker_1, # of connection points: 2
#     Edge 49, Type (0, 1), BuildingBlock: KIFKEQ_clean_linker_1, # of connection points: 2
#     Edge 50, Type (0, 1), BuildingBlock: KIFKEQ_clean_linker_1, # of connection points: 2
#     Edge 51, Type (0, 1), BuildingBlock: KIFKEQ_clean_linker_1, # of connection points: 2
#     Edge 52, Type (0, 1), BuildingBlock: KIFKEQ_clean_linker_1, # of connection points: 2
#     Edge 53, Type (0, 1), BuildingBlock: KIFKEQ_clean_linker_1, # of connection points: 2
#     Edge 54, Type (0, 1), BuildingBlock: KIFKEQ_clean_linker_1, # of connection points: 2
#     Edge 55, Type (0, 1), BuildingBlock: KIFKEQ_clean_linker_1, # of connection points: 2
#     Edge 56, Type (0, 1), BuildingBlock: KIFKEQ_clean_linker_1, # of connection points: 2
#     Edge 57, Type (0, 1), BuildingBlock: KIFKEQ_clean_linker_1, # of connection points: 2
#     Edge 58, Type (0, 1), BuildingBlock: KIFKEQ_clean_linker_1, # of connection points: 2
#     Edge 59, Type (0, 1), BuildingBlock: KIFKEQ_clean_linker_1, # of connection points: 2
#     Edge 60, Type (0, 1), BuildingBlock: KIFKEQ_clean_linker_1, # of connection points: 2
#     Edge 61, Type (0, 1), BuildingBlock: KIFKEQ_clean_linker_1, # of connection points: 2
#     Edge 62, Type (0, 1), BuildingBlock: KIFKEQ_clean_linker_1, # of connection points: 2
#     Edge 63, Type (0, 1), BuildingBlock: KIFKEQ_clean_linker_1, # of connection points: 2
#     Edge 64, Type (0, 1), BuildingBlock: KIFKEQ_clean_linker_1, # of connection points: 2
#     Edge 65, Type (0, 1), BuildingBlock: KIFKEQ_clean_linker_1, # of connection points: 2
#     Edge 66, Type (0, 1), BuildingBlock: KIFKEQ_clean_linker_1, # of connection points: 2
#     Edge 67, Type (0, 1), BuildingBlock: KIFKEQ_clean_linker_1, # of connection points: 2
#     Edge 68, Type (0, 1), BuildingBlock: KIFKEQ_clean_linker_1, # of connection points: 2
#     Edge 69, Type (0, 1), BuildingBlock: KIFKEQ_clean_linker_1, # of connection points: 2
#     Edge 70, Type (0, 1), BuildingBlock: KIFKEQ_clean_linker_1, # of connection points: 2
#     Edge 71, Type (0, 1), BuildingBlock: KIFKEQ_clean_linker_1, # of connection points: 2
#     Edge 72, Type (0, 1), BuildingBlock: KIFKEQ_clean_linker_1, # of connection points: 2
#     Edge 73, Type (0, 1), BuildingBlock: KIFKEQ_clean_linker_1, # of connection points: 2
#     Edge 74, Type (0, 1), BuildingBlock: KIFKEQ_clean_linker_1, # of connection points: 2
#     Edge 75, Type (0, 1), BuildingBlock: KIFKEQ_clean_linker_1, # of connection points: 2
#     Edge 76, Type (0, 1), BuildingBlock: KIFKEQ_clean_linker_1, # of connection points: 2
#     Edge 77, Type (0, 1), BuildingBlock: KIFKEQ_clean_linker_1, # of connection points: 2
#     Edge 78, Type (0, 1), BuildingBlock: KIFKEQ_clean_linker_1, # of connection points: 2
#     Edge 79, Type (0, 1), BuildingBlock: KIFKEQ_clean_linker_1, # of connection points: 2
#     Edge 80, Type (0, 1), BuildingBlock: KIFKEQ_clean_linker_1, # of connection points: 2
# Relax obj value: 0.057
# Max RMSD: 0.205
# Mean RMSD: 0.145
data_MOF--net-eea--node1-NUHQIS_clean_sbu_0--node2-BETDAH_clean_linker_0--edge1-KIFKEQ_clean_linker_1
_symmetry_space_group_name_H-M    P1
_symmetry_Int_Tables_number       1
_symmetry_cell_setting            triclinic
loop_
_symmetry_equiv_pos_as_xyz
'x, y, z'
_cell_length_a     55.714928
_cell_length_b     55.863326
_cell_length_c     70.245785
_cell_angle_alpha  93.318383
_cell_angle_beta   93.560513
_cell_angle_gamma 119.83942
loop_
_atom_site_label
_atom_site_type_symbol
_atom_site_fract_x
_atom_site_fract_y
_atom_site_fract_z
_atom_type_partial_charge
H0 H 0.25358 0.08563 0.43404 0.0
H1 H 0.27988 0.17108 0.42692 0.0
H2 H 0.25733 0.11237 0.37756 0.0
C3 C 0.25724 0.10178 0.42484 0.0
C4 C 0.25361 0.09548 0.40485 0.0
C5 C 0.26706 0.12905 0.43303 0.0
C6 C 0.27235 0.14997 0.42088 0.0
C7 C 0.26882 0.14379 0.40088 0.0
C8 C 0.25996 0.1168 0.39302 0.0
N9 N 0.27525 0.16457 0.38828 0.0
C10 C 0.26637 0.18373 0.39002 0.0
H11 H 0.95089 0.20068 0.43854 0.0
H12 H 0.88193 0.11633 0.43024 0.0
H13 H 0.94436 0.1449 0.39112 0.0
C14 C 0.93974 0.18037 0.43049 0.0
C15 C 0.95065 0.17524 0.41422 0.0
C16 C 0.9149 0.15918 0.43658 0.0
C17 C 0.90072 0.13299 0.42566 0.0
C18 C 0.91133 0.12799 0.40919 0.0
C19 C 0.93622 0.14904 0.40375 0.0
N20 N 0.89813 0.10201 0.39782 0.0
C21 C 0.87262 0.07915 0.40029 0.0
H22 H 0.84483 0.7767 0.44677 0.0
H23 H 0.90561 0.75084 0.44282 0.0
H24 H 0.88138 0.77981 0.39407 0.0
C25 C 0.85956 0.7741 0.43879 0.0
C26 C 0.86162 0.78013 0.41958 0.0
C27 C 0.87536 0.76354 0.44745 0.0
C28 C 0.89411 0.76001 0.43672 0.0
C29 C 0.89693 0.76653 0.41767 0.0
C30 C 0.88039 0.77627 0.40908 0.0
N31 N 0.91198 0.75782 0.40633 0.0
C32 C 0.93754 0.77557 0.39985 0.0
H33 H 0.06897 0.25208 0.58603 0.0
H34 H 0.14892 0.25863 0.59906 0.0
H35 H 0.09068 0.23373 0.64101 0.0
C36 C 0.08349 0.24995 0.59578 0.0
C37 C 0.07621 0.24168 0.61412 0.0
C38 C 0.10973 0.25621 0.59011 0.0
C39 C 0.1284 0.25321 0.6029 0.0
C40 C 0.12143 0.24534 0.62129 0.0
C41 C 0.09562 0.23983 0.62675 0.0
N42 N 0.14094 0.24576 0.63543 0.0
C43 C 0.15746 0.23397 0.63265 0.0
H44 H 0.75339 0.82839 0.60467 0.0
H45 H 0.73911 0.89674 0.61617 0.0
H46 H 0.76573 0.86553 0.66236 0.0
C47 C 0.75323 0.84387 0.61461 0.0
C48 C 0.76122 0.84526 0.63419 0.0
C49 C 0.74506 0.86229 0.60786 0.0
C50 C 0.74504 0.88221 0.6211 0.0
C51 C 0.75236 0.88319 0.64077 0.0
C52 C 0.76021 0.86465 0.64716 0.0
N53 N 0.7517 0.90225 0.65462 0.0
C54 C 0.75482 0.92761 0.65062 0.0
H55 H 0.16575 0.92508 0.58535 0.0
H56 H 0.11009 0.83737 0.58392 0.0
H57 H 0.12132 0.89079 0.63419 0.0
C58 C 0.15058 0.90758 0.59208 0.0
C59 C 0.14505 0.91155 0.61098 0.0
C60 C 0.13801 0.88099 0.58213 0.0
C61 C 0.11977 0.8581 0.5913 0.0
C62 C 0.11328 0.86154 0.60981 0.0
C63 C 0.12583 0.88828 0.61967 0.0
N64 N 0.09587 0.83731 0.61854 0.0
C65 C 0.07559 0.83446 0.63028 0.0
H66 H 0.9353 0.42484 0.76454 0.0
H67 H 0.95949 0.51057 0.76037 0.0
H68 H 0.93072 0.45312 0.70961 0.0
C69 C 0.93825 0.44153 0.75606 0.0
C70 C 0.9316 0.43581 0.73613 0.0
C71 C 0.9484 0.46843 0.7651 0.0
C72 C 0.95113 0.48955 0.75383 0.0
C73 C 0.94472 0.48392 0.73384 0.0
C74 C 0.93512 0.45716 0.72508 0.0
N75 N 0.95012 0.50541 0.72211 0.0
C76 C 0.93671 0.52066 0.72322 0.0
H77 H 0.61239 0.51849 0.76864 0.0
H78 H 0.54186 0.4353 0.75845 0.0
H79 H 0.60269 0.46564 0.71823 0.0
C80 C 0.60058 0.4989 0.75974 0.0
C81 C 0.61077 0.49474 0.74275 0.0
C82 C 0.5758 0.47749 0.76568 0.0
C83 C 0.56106 0.45181 0.75421 0.0
C84 C 0.57094 0.44768 0.73711 0.0
C85 C 0.59555 0.46909 0.73157 0.0
N86 N 0.55702 0.42246 0.72488 0.0
C87 C 0.53262 0.39854 0.72775 0.0
H88 H 0.50128 0.09201 0.77886 0.0
H89 H 0.58323 0.10392 0.77299 0.0
H90 H 0.54614 0.13394 0.73252 0.0
C91 C 0.51948 0.09928 0.77111 0.0
C92 C 0.52083 0.11315 0.75482 0.0
C93 C 0.54179 0.09572 0.77793 0.0
C94 C 0.56588 0.10639 0.76801 0.0
C95 C 0.56728 0.12027 0.75158 0.0
C96 C 0.54484 0.12347 0.74527 0.0
N97 N 0.59071 0.13213 0.74091 0.0
C98 C 0.61406 0.12909 0.74219 0.0
H99 H 0.73399 0.58024 0.9203 0.0
H100 H 0.81031 0.57922 0.93284 0.0
H101 H 0.74924 0.55222 0.97301 0.0
C102 C 0.74728 0.5761 0.9298 0.0
C103 C 0.73802 0.56504 0.94714 0.0
C104 C 0.77337 0.58138 0.92443 0.0
C105 C 0.79005 0.57488 0.93657 0.0
C106 C 0.78118 0.56435 0.95411 0.0
C107 C 0.75548 0.55976 0.95925 0.0
N108 N 0.79801 0.55977 0.96774 0.0
C109 C 0.81892 0.55394 0.96405 0.0
H110 H 0.42589 0.16165 0.93558 0.0
H111 H 0.41783 0.23357 0.94841 0.0
H112 H 0.44851 0.20314 0.99278 0.0
C113 C 0.42845 0.17841 0.94563 0.0
C114 C 0.43861 0.18026 0.96481 0.0
C115 C 0.42075 0.19745 0.93948 0.0
C116 C 0.42338 0.21858 0.95291 0.0
C117 C 0.43308 0.22028 0.97219 0.0
C118 C 0.44049 0.20113 0.97796 0.0
N119 N 0.43552 0.24076 0.98632 0.0
C120 C 0.4362 0.26513 0.98241 0.0
H121 H 0.83396 0.25378 0.91677 0.0
H122 H 0.77553 0.17054 0.92857 0.0
H123 H 0.81415 0.23647 0.97436 0.0
C124 C 0.82208 0.23927 0.92674 0.0
C125 C 0.82562 0.2487 0.94623 0.0
C126 C 0.80405 0.21111 0.92015 0.0
C127 C 0.78906 0.19237 0.93333 0.0
C128 C 0.79256 0.20172 0.95288 0.0
C129 C 0.81091 0.22968 0.95918 0.0
N130 N 0.78048 0.18306 0.96685 0.0
C131 C 0.75222 0.16411 0.96631 0.0
H132 H 0.58367 0.74888 0.09761 0.0
H133 H 0.62414 0.83789 0.09794 0.0
H134 H 0.59845 0.78645 0.04462 0.0
C135 C 0.59128 0.76726 0.09006 0.0
C136 C 0.58919 0.76443 0.06992 0.0
C137 C 0.60417 0.79369 0.10047 0.0
C138 C 0.61366 0.81727 0.09033 0.0
C139 C 0.61135 0.81451 0.07025 0.0
C140 C 0.59959 0.78825 0.06014 0.0
N141 N 0.62285 0.83822 0.06011 0.0
C142 C 0.61019 0.85407 0.05821 0.0
H143 H 0.28019 0.86088 0.09915 0.0
H144 H 0.21643 0.77468 0.09628 0.0
H145 H 0.27553 0.80166 0.0549 0.0
C146 C 0.27032 0.83979 0.0924 0.0
C147 C 0.28062 0.83404 0.07597 0.0
C148 C 0.24699 0.81853 0.09987 0.0
C149 C 0.23397 0.79137 0.09053 0.0
C150 C 0.24427 0.78549 0.07423 0.0
C151 C 0.2675 0.80672 0.06722 0.0
N152 N 0.23242 0.75838 0.06469 0.0
C153 C 0.20673 0.73607 0.06745 0.0
H154 H 0.17482 0.43539 0.11416 0.0
H155 H 0.23601 0.41113 0.10638 0.0
H156 H 0.20938 0.44185 0.06008 0.0
C157 C 0.1895 0.43402 0.10541 0.0
C158 C 0.19025 0.44071 0.08628 0.0
C159 C 0.20603 0.42349 0.11293 0.0
C160 C 0.22378 0.42001 0.1011 0.0
C161 C 0.22524 0.42698 0.0822 0.0
C162 C 0.2086 0.43735 0.0749 0.0
N163 N 0.23872 0.41801 0.06955 0.0
C164 C 0.26556 0.43478 0.06464 0.0
H165 H 0.40368 0.91557 0.25035 0.0
H166 H 0.47615 0.90704 0.26127 0.0
H167 H 0.41488 0.88194 0.30138 0.0
C168 C 0.41592 0.90956 0.25932 0.0
C169 C 0.40633 0.89857 0.27661 0.0
C170 C 0.44127 0.913 0.25362 0.0
C171 C 0.45668 0.90452 0.26538 0.0
C172 C 0.44706 0.89333 0.28266 0.0
C173 C 0.42217 0.89068 0.28811 0.0
N174 N 0.46137 0.88435 0.2952 0.0
C175 C 0.48651 0.88524 0.29314 0.0
H176 H 0.08587 0.49248 0.2697 0.0
H177 H 0.06449 0.5561 0.27964 0.0
H178 H 0.09402 0.52914 0.327 0.0
C179 C 0.08393 0.50706 0.27942 0.0
C180 C 0.09127 0.50884 0.29916 0.0
C181 C 0.07389 0.52375 0.27218 0.0
C182 C 0.07231 0.54318 0.28493 0.0
C183 C 0.07952 0.545 0.30471 0.0
C184 C 0.08835 0.52744 0.31174 0.0
N185 N 0.07783 0.56412 0.31791 0.0
C186 C 0.08399 0.59039 0.31362 0.0
H187 H 0.50255 0.59552 0.25211 0.0
H188 H 0.44762 0.50945 0.25879 0.0
H189 H 0.47862 0.56964 0.30785 0.0
C190 C 0.49113 0.57939 0.26121 0.0
C191 C 0.49308 0.58637 0.28106 0.0
C192 C 0.4753 0.55172 0.25295 0.0
C193 C 0.45934 0.53102 0.26464 0.0
C194 C 0.45978 0.53776 0.28427 0.0
C195 C 0.47693 0.56523 0.29245 0.0
N196 N 0.44689 0.51625 0.29628 0.0
C197 C 0.42039 0.50723 0.30175 0.0
Tb198 Tb 0.50176 0.99352 0.99393 0.0
Eu199 Eu 0.51962 0.02089 0.03972 0.0
C200 C 0.52327 0.96837 0.02505 0.0
C201 C 0.45843 0.97141 0.02424 0.0
C202 C 0.49746 0.9879 0.94027 0.0
C203 C 0.50704 0.98477 0.90714 0.0
C204 C 0.50059 0.97332 0.92461 0.0
C205 C 0.5011 0.01434 0.93822 0.0
C206 C 0.50741 0.02579 0.92067 0.0
C207 C 0.51043 0.01114 0.90483 0.0
C208 C 0.49137 0.97548 0.95868 0.0
O209 O 0.4872 0.02293 0.99724 0.0
O210 O 0.51578 0.05263 0.02342 0.0
O211 O 0.55911 0.03841 0.02502 0.0
O212 O 0.53967 0.03328 0.99419 0.0
C213 C 0.49858 0.04687 1.00789 0.0
O214 O 0.51196 0.0388 0.06562 0.0
O215 O 0.54599 0.03045 0.06661 0.0
O216 O 0.51422 0.97825 0.0384 0.0
O217 O 0.52521 0.9765 1.00777 0.0
O218 O 0.46824 0.96429 0.00968 0.0
O219 O 0.47319 0.99545 0.03453 0.0
C220 C 0.56144 0.044 1.00705 0.0
O221 O 0.51279 0.97892 0.96963 0.0
O222 O 0.47421 0.97915 0.96859 0.0
C223 C 0.52183 0.02367 0.0945 0.0
C224 C 0.50456 0.99878 0.12899 0.0
C225 C 0.50477 0.0235 0.12567 0.0
C226 C 0.51337 0.03581 0.10867 0.0
C227 C 0.52152 0.99888 0.0977 0.0
C228 C 0.51312 0.98667 0.11478 0.0
C229 C 0.53072 0.03705 0.07656 0.0
H230 H 0.50972 0.97302 0.8955 0.0
H231 H 0.49822 0.95304 0.92593 0.0
H232 H 0.49906 0.02614 0.95016 0.0
H233 H 0.50954 0.04598 0.91948 0.0
H234 H 0.49863 0.0336 0.13635 0.0
H235 H 0.51343 0.0549 0.10659 0.0
H236 H 0.5277 0.98884 0.087 0.0
H237 H 0.51291 0.96748 0.11672 0.0
Tb238 Tb 0.01853 0.50281 0.99829 0.0
Eu239 Eu 0.99102 0.48981 0.03965 0.0
C240 C 0.04237 0.54799 0.03388 0.0
C241 C 0.0443 0.48392 0.03189 0.0
C242 C 0.02852 0.50903 0.94644 0.0
C243 C 0.03476 0.52265 0.91412 0.0
C244 C 0.04494 0.52675 0.93342 0.0
C245 C 1.00169 0.4871 0.93998 0.0
C246 C 0.99154 0.48286 0.92062 0.0
C247 C 0.00796 0.50066 0.90749 0.0
C248 C 0.03931 0.51448 0.96679 0.0
O249 O 0.98942 0.45825 0.99497 0.0
O250 O 0.9609 0.45389 0.01854 0.0
O251 O 0.97191 0.5106 0.02296 0.0
O252 O 0.97829 0.49991 0.99233 0.0
C253 C 0.96633 0.44397 1.00302 0.0
O254 O 0.97199 0.46271 0.06197 0.0
O255 O 0.97798 0.50424 0.0643 0.0
O256 O 0.03255 0.52874 0.04563 0.0
O257 O 0.03369 0.54227 0.01551 0.0
O258 O 0.04886 0.49936 0.01755 0.0
O259 O 0.02119 0.4741 0.04019 0.0
C260 C 0.96597 0.5081 1.00429 0.0
O261 O 0.03335 0.53045 0.97722 0.0
O262 O 0.03602 0.49321 0.97548 0.0
C263 C 0.98176 0.48613 0.09295 0.0
C264 C 1.00269 0.49535 0.13188 0.0
C265 C 0.97492 0.48812 0.12664 0.0
C266 C 0.96458 0.48355 0.10733 0.0
C267 C 0.0095 0.49344 0.09801 0.0
C268 C 0.01988 0.49798 0.11733 0.0
C269 C 0.97071 0.48179 0.07276 0.0
H270 H 0.04802 0.53649 0.90433 0.0
H271 H 0.06564 0.54386 0.93821 0.0
H272 H 0.98857 0.47341 0.94991 0.0
H273 H 0.97072 0.46591 0.91598 0.0
H274 H 0.96125 0.48634 0.13746 0.0
H275 H 0.94318 0.47814 0.10364 0.0
H276 H 0.02307 0.49561 0.08702 0.0
H277 H 0.04124 0.50321 0.12085 0.0
Tb278 Tb 0.51419 0.51703 0.02444 0.0
Eu279 Eu 0.492 0.51843 0.9799 0.0
C280 C 0.48534 0.46373 0.99547 0.0
C281 C 0.55346 0.52776 0.99154 0.0
C282 C 0.51839 0.51464 0.07781 0.0
C283 C 0.51703 0.50056 0.11003 0.0
C284 C 0.52533 0.50128 0.09157 0.0
C285 C 0.50203 0.52634 0.08258 0.0
C286 C 0.49393 0.52585 0.10109 0.0
C287 C 0.50181 0.51346 0.11522 0.0
C288 C 0.53009 0.51795 0.05919 0.0
O289 O 0.53423 0.55942 0.0169 0.0
O290 O 0.49833 0.55637 0.99762 0.0
O291 O 0.45388 0.50098 0.99606 0.0
O292 O 0.47522 0.51678 0.02696 0.0
C293 C 0.5205 0.57088 0.00988 0.0
O294 O 0.49666 0.5415 0.95496 0.0
O295 O 0.46437 0.49828 0.95346 0.0
O296 O 0.49368 0.47927 0.9813 0.0
O297 O 0.48549 0.47438 0.01268 0.0
O298 O 0.54545 0.51616 1.00753 0.0
O299 O 0.53811 0.53474 0.9809 0.0
C300 C 0.45284 0.50573 0.01451 0.0
O301 O 0.51976 0.49602 0.04685 0.0
O302 O 0.53412 0.53976 0.05097 0.0
C303 C 0.48695 0.51437 0.92535 0.0
C304 C 0.50569 0.50617 0.8903 0.0
C305 C 0.50324 0.52975 0.89452 0.0
C306 C 0.49388 0.53374 0.91183 0.0
C307 C 0.48942 0.4908 0.9212 0.0
C308 C 0.49854 0.48669 0.90382 0.0
C309 C 0.47814 0.51959 0.94386 0.0
H310 H 0.52298 0.49027 0.12034 0.0
H311 H 0.53779 0.49198 0.08818 0.0
H312 H 0.49625 0.53668 0.0722 0.0
H313 H 0.48246 0.53622 0.10451 0.0
H314 H 0.50832 0.54502 0.88436 0.0
H315 H 0.49223 0.5521 0.91472 0.0
H316 H 0.48456 0.47565 0.93144 0.0
H317 H 0.50052 0.46849 0.90112 0.0
Tb318 Tb 0.17158 0.33735 0.33383 0.0
Eu319 Eu 0.19052 0.36666 0.37894 0.0
C320 C 0.19818 0.31564 0.36399 0.0
C321 C 0.13192 0.31263 0.36636 0.0
C322 C 0.16531 0.33067 0.28037 0.0
C323 C 0.17057 0.3256 0.24646 0.0
C324 C 0.16461 0.31448 0.26409 0.0
C325 C 0.17239 0.35833 0.27879 0.0
C326 C 0.17808 0.36941 0.26113 0.0
C327 C 0.17718 0.35316 0.24471 0.0
C328 C 0.15849 0.31842 0.29879 0.0
O329 O 0.17452 0.37743 0.33363 0.0
O330 O 0.16474 0.38246 0.36421 0.0
O331 O 0.22387 0.39701 0.36213 0.0
O332 O 0.21637 0.36613 0.33608 0.0
C333 C 0.16529 0.38809 0.34632 0.0
O334 O 0.17946 0.38226 0.40417 0.0
O335 O 0.218 0.38152 0.40581 0.0
O336 O 0.20933 0.33958 0.37454 0.0
O337 O 0.17874 0.30869 0.3497 0.0
O338 O 0.13367 0.31939 0.34863 0.0
O339 O 0.15378 0.3241 0.37905 0.0
C340 C 0.23181 0.39026 0.34641 0.0
O341 O 0.17887 0.31907 0.30942 0.0
O342 O 0.14355 0.32513 0.30899 0.0
C343 C 0.19301 0.37154 0.43345 0.0
C344 C 0.17518 0.34476 0.4671 0.0
C345 C 0.17298 0.36821 0.46371 0.0
C346 C 0.18187 0.38147 0.44711 0.0
C347 C 0.19545 0.34823 0.43683 0.0
C348 C 0.1868 0.33509 0.45355 0.0
C349 C 0.20029 0.38478 0.41539 0.0
H350 H 0.16946 0.31244 0.2341 0.0
H351 H 0.15927 0.29311 0.26498 0.0
H352 H 0.17344 0.37136 0.29121 0.0
H353 H 0.18346 0.39079 0.26036 0.0
H354 H 0.16443 0.37639 0.47394 0.0
H355 H 0.17966 0.39932 0.44481 0.0
H356 H 0.20363 0.33987 0.42642 0.0
H357 H 0.18855 0.31694 0.45564 0.0
Tb358 Tb 0.6881 0.83851 0.33243 0.0
Eu359 Eu 0.66255 0.82844 0.374 0.0
C360 C 0.71365 0.88629 0.36668 0.0
C361 C 0.71531 0.82206 0.36569 0.0
C362 C 0.69359 0.83844 0.27994 0.0
C363 C 0.69763 0.84642 0.24641 0.0
C364 C 0.70968 0.85212 0.26536 0.0
C365 C 0.66527 0.81877 0.27538 0.0
C366 C 0.6532 0.81293 0.25638 0.0
C367 C 0.66922 0.82688 0.24171 0.0
C368 C 0.70626 0.84606 0.29991 0.0
O369 O 0.66059 0.79373 0.3324 0.0
O370 O 0.63034 0.7935 0.3531 0.0
O371 O 0.64386 0.84984 0.35735 0.0
O372 O 0.64796 0.83602 0.32697 0.0
C373 C 0.63628 0.78122 0.33925 0.0
O374 O 0.6453 0.8019 0.39701 0.0
O375 O 0.64973 0.84282 0.39873 0.0
O376 O 0.70379 0.86792 0.37909 0.0
O377 O 0.70518 0.87937 0.34828 0.0
O378 O 0.72007 0.83858 0.35207 0.0
O379 O 0.69158 0.81101 0.37331 0.0
C380 C 0.63707 0.84625 0.3387 0.0
O381 O 0.70155 0.86345 0.30979 0.0
O382 O 0.70343 0.82584 0.30969 0.0
C383 C 0.65559 0.82612 0.42788 0.0
C384 C 0.67648 0.8355 0.46695 0.0
C385 C 0.65197 0.81077 0.45978 0.0
C386 C 0.64162 0.8062 0.44047 0.0
C387 C 0.68031 0.85064 0.43484 0.0
C388 C 0.69058 0.85533 0.4542 0.0
C389 C 0.64395 0.82103 0.40767 0.0
H390 H 0.7106 0.85723 0.23541 0.0
H391 H 0.73153 0.86745 0.26867 0.0
H392 H 0.65246 0.80823 0.28653 0.0
H393 H 0.63123 0.79795 0.25323 0.0
H394 H 0.64084 0.79479 0.46905 0.0
H395 H 0.62262 0.78707 0.43535 0.0
H396 H 0.69159 0.8663 0.42538 0.0
H397 H 0.70932 0.87473 0.45921 0.0
Tb398 Tb 0.18231 0.84313 0.35652 0.0
Eu399 Eu 0.16137 0.85138 0.31341 0.0
C400 C 0.15562 0.794 0.32424 0.0
C401 C 0.22189 0.85905 0.3231 0.0
C402 C 0.19024 0.84204 0.40938 0.0
C403 C 0.18646 0.83112 0.44244 0.0
C404 C 0.1925 0.82692 0.42392 0.0
C405 C 0.18166 0.86136 0.41355 0.0
C406 C 0.17582 0.86575 0.4321 0.0
C407 C 0.17816 0.85067 0.44677 0.0
C408 C 0.19677 0.83738 0.38998 0.0
O409 O 0.17958 0.88036 0.36031 0.0
O410 O 0.18651 0.8937 0.33001 0.0
O411 O 0.12891 0.84912 0.33213 0.0
O412 O 0.13742 0.82682 0.35597 0.0
C413 C 0.18698 0.89951 0.34846 0.0
O414 O 0.16888 0.87743 0.28995 0.0
O415 O 0.13313 0.83605 0.28692 0.0
O416 O 0.14304 0.80555 0.31557 0.0
O417 O 0.17645 0.80813 0.33762 0.0
O418 O 0.2199 0.86269 0.34153 0.0
O419 O 0.20019 0.84932 0.3103 0.0
C420 C 0.12162 0.8352 0.34727 0.0
O421 O 0.17636 0.8174 0.3786 0.0
O422 O 0.21085 0.85946 0.38121 0.0
C423 C 0.15675 0.85254 0.2595 0.0
C424 C 0.17559 0.84571 0.2242 0.0
C425 C 0.16348 0.86251 0.22638 0.0
C426 C 0.15418 0.86588 0.24387 0.0
C427 C 0.16861 0.83561 0.25741 0.0
C428 C 0.17783 0.83214 0.23993 0.0
C429 C 0.14876 0.85776 0.27824 0.0
H430 H 0.1887 0.81937 0.45345 0.0
H431 H 0.19904 0.81189 0.42097 0.0
H432 H 0.17949 0.87306 0.40246 0.0
H433 H 0.16914 0.88069 0.43492 0.0
H434 H 0.16178 0.87361 0.21473 0.0
H435 H 0.1454 0.87931 0.24528 0.0
H436 H 0.171 0.8253 0.26938 0.0
H437 H 0.18665 0.81874 0.23876 0.0
Tb438 Tb 0.8336 0.66697 0.66663 0.0
Eu439 Eu 0.84998 0.69382 0.71248 0.0
C440 C 0.8565 0.64263 0.69765 0.0
C441 C 0.7903 0.64118 0.69679 0.0
C442 C 0.82986 0.6645 0.61307 0.0
C443 C 0.81309 0.66983 0.58157 0.0
C444 C 0.80791 0.6578 0.59893 0.0
C445 C 0.85717 0.68372 0.60951 0.0
C446 C 0.86238 0.69557 0.5921 0.0
C447 C 0.84043 0.6887 0.57785 0.0
C448 C 0.82402 0.65076 0.6311 0.0
O449 O 0.81553 0.69323 0.67064 0.0
O450 O 0.84409 0.72434 0.6961 0.0
O451 O 0.88979 0.71383 0.69829 0.0
O452 O 0.87054 0.70778 0.66729 0.0
C453 C 0.82624 0.71741 0.68082 0.0
O454 O 0.84061 0.71046 0.73816 0.0
O455 O 0.87666 0.70523 0.7394 0.0
O456 O 0.84802 0.65266 0.71132 0.0
O457 O 0.85744 0.65017 0.68021 0.0
O458 O 0.80082 0.63581 0.6819 0.0
O459 O 0.80381 0.665 0.70753 0.0
C460 C 0.89207 0.71973 0.68041 0.0
O461 O 0.84533 0.6539 0.64207 0.0
O462 O 0.80611 0.65282 0.64115 0.0
C463 C 0.85204 0.6967 0.76706 0.0
C464 C 0.83541 0.67085 0.80119 0.0
C465 C 0.83417 0.69489 0.79804 0.0
C466 C 0.84247 0.7077 0.7812 0.0
C467 C 0.85321 0.67261 0.77011 0.0
C468 C 0.84512 0.65993 0.78703 0.0
C469 C 0.86026 0.71035 0.7492 0.0
H470 H 0.79571 0.66386 0.57087 0.0
H471 H 0.78669 0.643 0.60124 0.0
H472 H 0.87461 0.68952 0.62011 0.0
H473 H 0.88364 0.71029 0.58984 0.0
H474 H 0.82706 0.70402 0.80872 0.0
H475 H 0.84137 0.72622 0.77919 0.0
H476 H 0.86023 0.66345 0.75938 0.0
H477 H 0.84603 0.64127 0.78889 0.0
Tb478 Tb 0.33869 0.15945 0.66651 0.0
Eu479 Eu 0.31451 0.15079 0.70908 0.0
C480 C 0.36576 0.20753 0.70016 0.0
C481 C 0.36518 0.14171 0.69998 0.0
C482 C 0.34723 0.16287 0.61394 0.0
C483 C 0.35497 0.17649 0.58169 0.0
C484 C 0.36468 0.17982 0.60101 0.0
C485 C 0.31977 0.14248 0.60733 0.0
C486 C 0.31002 0.13902 0.58792 0.0
C487 C 0.32753 0.15601 0.57485 0.0
C488 C 0.35791 0.16779 0.6343 0.0
O489 O 0.30818 0.11534 0.6652 0.0
O490 O 0.28165 0.11421 0.68943 0.0
O491 O 0.29473 0.17083 0.69215 0.0
O492 O 0.29936 0.15849 0.66136 0.0
C493 C 0.28541 0.10269 0.6739 0.0
O494 O 0.29849 0.12617 0.73318 0.0
O495 O 0.30359 0.1673 0.73382 0.0
O496 O 0.35663 0.18962 0.71292 0.0
O497 O 0.35532 0.20021 0.68214 0.0
O498 O 0.36973 0.15728 0.68576 0.0
O499 O 0.34218 0.1322 0.70834 0.0
C500 C 0.28823 0.16791 0.67349 0.0
O501 O 0.35427 0.18556 0.64466 0.0
O502 O 0.35266 0.14614 0.64322 0.0
C503 C 0.31169 0.15275 0.76336 0.0
C504 C 0.33647 0.16465 0.80165 0.0
C505 C 0.31083 0.14028 0.79599 0.0
C506 C 0.29856 0.13446 0.77706 0.0
C507 C 0.33743 0.17695 0.76883 0.0
C508 C 0.34963 0.18289 0.78779 0.0
C509 C 0.29831 0.14625 0.7435 0.0
H510 H 0.36888 0.19033 0.57218 0.0
H511 H 0.38583 0.19589 0.60592 0.0
H512 H 0.3059 0.12933 0.61717 0.0
H513 H 0.28887 0.12287 0.58314 0.0
H514 H 0.30032 0.12547 0.80613 0.0
H515 H 0.27879 0.11559 0.7731 0.0
H516 H 0.34809 0.19135 0.75848 0.0
H517 H 0.36919 0.202 0.79162 0.0
Tb518 Tb 0.85321 0.18195 0.69561 0.0
Eu519 Eu 0.82928 0.18587 0.65207 0.0
C520 C 0.82163 0.13009 0.66554 0.0
C521 C 0.89059 0.19376 0.66153 0.0
C522 C 0.85742 0.17791 0.74829 0.0
C523 C 0.85063 0.16139 0.77989 0.0
C524 C 0.86027 0.16186 0.7619 0.0
C525 C 0.84423 0.19306 0.7528 0.0
C526 C 0.83479 0.1928 0.77083 0.0
C527 C 0.83808 0.17715 0.78473 0.0
C528 C 0.86866 0.17901 0.72965 0.0
O529 O 0.87257 0.22536 0.69062 0.0
O530 O 0.83828 0.22437 0.67034 0.0
O531 O 0.79238 0.16885 0.66964 0.0
O532 O 0.81626 0.18464 0.69982 0.0
C533 C 0.85977 0.23762 0.68334 0.0
O534 O 0.8326 0.21009 0.62802 0.0
O535 O 0.80104 0.16659 0.62576 0.0
O536 O 0.83027 0.14618 0.65171 0.0
O537 O 0.82258 0.14038 0.683 0.0
O538 O 0.88318 0.18126 0.67726 0.0
O539 O 0.8751 0.20159 0.65193 0.0
C540 C 0.79298 0.17372 0.68833 0.0
O541 O 0.8543 0.15752 0.7171 0.0
O542 O 0.87738 0.20205 0.72177 0.0
C543 C 0.82285 0.18458 0.59787 0.0
C544 C 0.84231 0.17952 0.56236 0.0
C545 C 0.83074 0.1967 0.56521 0.0
C546 C 0.82111 0.19917 0.58277 0.0
C547 C 0.83432 0.16738 0.59515 0.0
C548 C 0.8438 0.16477 0.57758 0.0
C549 C 0.81406 0.18858 0.61664 0.0
H550 H 0.85305 0.14866 0.79001 0.0
H551 H 0.87016 0.14983 0.75865 0.0
H552 H 0.8416 0.20549 0.74249 0.0
H553 H 0.82559 0.20548 0.77401 0.0
H554 H 0.82964 0.20876 0.55402 0.0
H555 H 0.81265 0.21281 0.58464 0.0
H556 H 0.83612 0.1561 0.60667 0.0
H557 H 0.85218 0.15104 0.57591 0.0
H558 H 0.32932 0.87542 0.09552 0.0
H559 H 0.28819 0.84215 0.03822 0.0
H560 H 0.37132 0.90873 0.08218 0.0
H561 H 0.33022 0.87531 0.02489 0.0
H562 H 0.42186 0.91706 0.0099 0.0
H563 H 0.37805 0.88463 0.02204 0.0
H564 H 0.38889 0.94935 0.0644 0.0
H565 H 0.43236 0.98141 0.05258 0.0
C566 C 0.32909 0.87548 0.0801 0.0
C567 C 0.30542 0.85601 0.06796 0.0
C568 C 0.35319 0.89451 0.07242 0.0
C569 C 0.35419 0.89455 0.05244 0.0
C570 C 0.33032 0.8755 0.04032 0.0
C571 C 0.30622 0.85655 0.04799 0.0
C572 C 0.41476 0.92438 0.02169 0.0
C573 C 0.43079 0.95182 0.03028 0.0
C574 C 0.38963 0.90584 0.02864 0.0
C575 C 0.38011 0.91436 0.04433 0.0
C576 C 0.39584 0.94195 0.05255 0.0
C577 C 0.42077 0.9604 0.04563 0.0
H578 H 0.16327 0.42708 0.04967 0.0
H579 H 0.17152 0.47294 0.10376 0.0
H580 H 0.12947 0.43888 0.03646 0.0
H581 H 0.13686 0.48379 0.09061 0.0
H582 H 0.04923 0.46606 0.06662 0.0
H583 H 0.08544 0.45717 0.07948 0.0
H584 H 0.12577 0.48036 0.0277 0.0
H585 H 0.08957 0.48945 0.01478 0.0
C586 C 0.15829 0.44001 0.05872 0.0
C587 C 0.17039 0.44905 0.07787 0.0
C588 C 0.13871 0.44664 0.05112 0.0
C589 C 0.13037 0.46219 0.06249 0.0
C590 C 0.14257 0.47146 0.08154 0.0
C591 C 0.16242 0.46515 0.08909 0.0
C592 C 0.06577 0.46925 0.05792 0.0
C593 C 0.06639 0.4784 0.03961 0.0
C594 C 0.08666 0.46434 0.06538 0.0
C595 C 0.10853 0.46809 0.05464 0.0
C596 C 0.10911 0.47711 0.03629 0.0
C597 C 0.08842 0.48242 0.02892 0.0
H598 H 0.61237 0.74933 0.04208 0.0
H599 H 0.54037 0.71712 0.07368 0.0
H600 H 0.59491 0.70313 0.02549 0.0
H601 H 0.52284 0.67081 0.05701 0.0
H602 H 0.49042 0.59747 0.00915 0.0
H603 H 0.50607 0.6452 0.02226 0.0
H604 H 0.58803 0.65789 0.03798 0.0
H605 H 0.57246 0.61037 0.02518 0.0
C606 C 0.59264 0.73242 0.04528 0.0
C607 C 0.57771 0.73673 0.05917 0.0
C608 C 0.58275 0.70601 0.03588 0.0
C609 C 0.55756 0.68348 0.03999 0.0
C610 C 0.54221 0.68791 0.05347 0.0
C611 C 0.55232 0.71428 0.0631 0.0
C612 C 0.51184 0.6106 0.01522 0.0
C613 C 0.53022 0.60023 0.01617 0.0
C614 C 0.52071 0.63777 0.02281 0.0
C615 C 0.54823 0.65514 0.0311 0.0
C616 C 0.56677 0.64499 0.03152 0.0
C617 C 0.55781 0.61776 0.02427 0.0
H618 H 0.87957 0.28012 0.93864 0.0
H619 H 0.81692 0.28335 0.97002 0.0
H620 H 0.91343 0.32738 0.95201 0.0
H621 H 0.85032 0.33098 0.98289 0.0
H622 H 0.92354 0.40308 0.01944 0.0
H623 H 0.88969 0.35652 1.00519 0.0
H624 H 0.92743 0.37469 0.95201 0.0
H625 H 0.96205 0.42094 0.96661 0.0
C626 C 0.87295 0.29117 0.94816 0.0
C627 C 0.84566 0.27808 0.95334 0.0
C628 C 0.89232 0.31831 0.95581 0.0
C629 C 0.88475 0.33312 0.96865 0.0
C630 C 0.85716 0.32011 0.97341 0.0
C631 C 0.83792 0.29287 0.96596 0.0
C632 C 0.92461 0.39715 1.0047 0.0
C633 C 0.94556 0.41571 0.99419 0.0
C634 C 0.90504 0.37044 0.99645 0.0
C635 C 0.90563 0.36171 0.97737 0.0
C636 C 0.92652 0.38043 0.96682 0.0
C637 C 0.94634 0.40705 0.97517 0.0
H638 H 0.71328 0.59685 0.9437 0.0
H639 H 0.70019 0.52005 0.96379 0.0
H640 H 0.66907 0.58808 0.95453 0.0
H641 H 0.65605 0.51123 0.97455 0.0
H642 H 0.59288 0.51844 0.00961 0.0
H643 H 0.63722 0.52766 0.99877 0.0
H644 H 0.61944 0.55812 0.94776 0.0
H645 H 0.57554 0.54948 0.95872 0.0
C646 C 0.70084 0.57794 0.95022 0.0
C647 C 0.71041 0.55923 0.95292 0.0
C648 C 0.67547 0.5729 0.95647 0.0
C649 C 0.65896 0.54899 0.96554 0.0
C650 C 0.6684 0.53013 0.96799 0.0
C651 C 0.69374 0.53517 0.96177 0.0
C652 C 0.59843 0.52713 0.9961 0.0
C653 C 0.58055 0.53323 0.9851 0.0
C654 C 0.62383 0.53229 0.98981 0.0
C655 C 0.632 0.54366 0.97236 0.0
C656 C 0.6141 0.54975 0.9614 0.0
C657 C 0.58876 0.54461 0.96767 0.0
H658 H 0.43054 0.15605 0.99852 0.0
H659 H 0.46753 0.16054 0.94557 0.0
H660 H 0.44693 0.12545 0.00932 0.0
H661 H 0.48334 0.12944 0.95627 0.0
H662 H 0.47481 0.04716 0.97296 0.0
H663 H 0.46113 0.07989 0.96283 0.0
H664 H 0.49209 0.12647 0.01868 0.0
H665 H 0.50583 0.09344 0.02899 0.0
C666 C 0.44231 0.15068 0.98922 0.0
C667 C 0.4477 0.16078 0.97115 0.0
C668 C 0.4517 0.13317 0.99544 0.0
C669 C 0.46647 0.12514 0.98367 0.0
C670 C 0.47176 0.13508 0.96558 0.0
C671 C 0.46256 0.15277 0.95941 0.0
C672 C 0.47877 0.06437 0.98314 0.0
C673 C 0.49131 0.06762 1.00184 0.0
C674 C 0.47109 0.08323 0.97725 0.0
C675 C 0.47554 0.10572 0.98995 0.0
C676 C 0.48822 0.10917 0.00864 0.0
C677 C 0.49622 0.09038 0.0145 0.0
H678 H 0.70643 0.16733 0.95575 0.0
H679 H 0.7349 0.11929 0.98555 0.0
H680 H 0.65966 0.13849 0.9655 0.0
H681 H 0.68828 0.0902 0.99517 0.0
H682 H 0.6125 0.06679 0.02799 0.0
H683 H 0.65818 0.09535 0.01706 0.0
H684 H 0.61916 0.09124 0.96094 0.0
H685 H 0.57353 0.06304 0.97186 0.0
C686 C 0.70243 0.15022 0.96408 0.0
C687 C 0.72391 0.14518 0.96979 0.0
C688 C 0.67575 0.13375 0.96969 0.0
C689 C 0.67027 0.11216 0.98126 0.0
C690 C 0.69187 0.10691 0.98654 0.0
C691 C 0.71844 0.1233 0.98086 0.0
C692 C 0.61362 0.0721 0.01336 0.0
C693 C 0.58928 0.06256 1.00084 0.0
C694 C 0.63984 0.0883 1.00704 0.0
C695 C 0.64235 0.09544 0.98807 0.0
C696 C 0.61799 0.08631 0.97567 0.0
C697 C 0.5918 0.07002 0.98194 0.0
H698 H 0.81212 0.50876 0.97936 0.0
H699 H 0.87158 0.57977 0.95329 0.0
H700 H 0.84781 0.49669 0.98753 0.0
H701 H 0.90762 0.5676 0.96135 0.0
H702 H 0.95602 0.51816 0.96759 0.0
H703 H 0.92014 0.52831 0.95537 0.0
H704 H 0.89123 0.52183 0.01146 0.0
H705 H 0.92697 0.51203 0.02371 0.0
C706 C 0.83277 0.52141 0.97502 0.0
C707 C 0.83921 0.54502 0.96563 0.0
C708 C 0.85322 0.51465 0.97981 0.0
C709 C 0.88057 0.53133 0.97524 0.0
C710 C 0.88668 0.5543 0.96497 0.0
C711 C 0.86615 0.56124 0.96033 0.0
C712 C 0.94198 0.5189 0.9773 0.0
C713 C 0.94436 0.51425 0.99664 0.0
C714 C 0.92155 0.52483 0.97031 0.0
C715 C 0.90278 0.52569 0.98242 0.0
C716 C 0.90519 0.521 1.00171 0.0
C717 C 0.9258 0.51553 0.00876 0.0
H718 H 0.47463 0.30633 0.96452 0.0
H719 H 0.40531 0.28441 0.99767 0.0
H720 H 0.48441 0.35432 0.96623 0.0
H721 H 0.41456 0.33222 0.99918 0.0
H722 H 0.4659 0.4251 0.0212 0.0
H723 H 0.45125 0.37611 0.01589 0.0
H724 H 0.46742 0.38519 0.95661 0.0
H725 H 0.48256 0.43444 0.96196 0.0
C726 C 0.46114 0.31179 0.97177 0.0
C727 C 0.43923 0.29203 0.9809 0.0
C728 C 0.46665 0.33916 0.97274 0.0
C729 C 0.45037 0.34711 0.98296 0.0
C730 C 0.42771 0.32683 0.99144 0.0
C731 C 0.42224 0.29949 0.99044 0.0
C732 C 0.46624 0.41668 1.007 0.0
C733 C 0.47551 0.43374 0.99203 0.0
C734 C 0.45762 0.38851 1.00392 0.0
C735 C 0.45809 0.37673 0.98581 0.0
C736 C 0.46705 0.39371 0.97077 0.0
C737 C 0.47564 0.42191 0.97383 0.0
H738 H 0.15683 0.72675 0.05261 0.0
H739 H 0.19813 0.68884 0.08117 0.0
H740 H 0.11375 0.68171 0.04706 0.0
H741 H 0.15537 0.64364 0.07543 0.0
H742 H 0.06933 0.56736 0.07021 0.0
H743 H 0.10657 0.61439 0.0816 0.0
H744 H 0.10118 0.64039 0.02553 0.0
H745 H 0.0639 0.59378 0.01424 0.0
C746 C 0.15637 0.70879 0.05806 0.0
C747 C 0.18043 0.71095 0.06735 0.0
C748 C 0.13189 0.68303 0.05476 0.0
C749 C 0.13122 0.65905 0.06064 0.0
C750 C 0.15509 0.66171 0.07089 0.0
C751 C 0.17956 0.6875 0.07416 0.0
C752 C 0.07591 0.5832 0.06038 0.0
C753 C 0.06374 0.57676 0.04128 0.0
C754 C 0.0973 0.6101 0.0669 0.0
C755 C 0.10681 0.63113 0.05449 0.0
C756 C 0.09407 0.62481 0.03556 0.0
C757 C 0.07283 0.59796 0.02903 0.0
H758 H 0.31184 0.4847 0.07675 0.0
H759 H 0.27991 0.41206 0.03629 0.0
H760 H 0.35751 0.50395 0.06436 0.0
H761 H 0.32527 0.43067 0.02412 0.0
H762 H 0.40144 0.48131 0.99385 0.0
H763 H 0.35649 0.46627 1.00582 0.0
H764 H 0.39697 0.49652 0.06352 0.0
H765 H 0.44203 0.51207 0.05153 0.0
C766 C 0.31467 0.47296 0.06517 0.0
C767 C 0.29251 0.44707 0.05733 0.0
C768 C 0.34079 0.48382 0.05814 0.0
C769 C 0.34515 0.46895 0.04312 0.0
C770 C 0.32268 0.443 0.03539 0.0
C771 C 0.29671 0.43223 0.04242 0.0
C772 C 0.40085 0.48497 0.00908 0.0
C773 C 0.42549 0.49786 0.02168 0.0
C774 C 0.37498 0.47616 0.01598 0.0
C775 C 0.37296 0.47997 0.03569 0.0
C776 C 0.39766 0.49345 0.04825 0.0
C777 C 0.42356 0.50224 0.04135 0.0
H778 H 0.56313 0.84813 0.07128 0.0
H779 H 0.6284 0.89634 0.03647 0.0
H780 H 0.54017 0.8746 0.06323 0.0
H781 H 0.60598 0.92315 0.0286 0.0
H782 H 0.54413 0.94431 1.00136 0.0
H783 H 0.5642 0.9159 0.00984 0.0
H784 H 0.54651 0.92148 0.06842 0.0
H785 H 0.52595 0.9496 0.05989 0.0
C786 C 0.57259 0.8646 0.06205 0.0
C787 C 0.59738 0.87044 0.05446 0.0
C788 C 0.55957 0.87977 0.05748 0.0
C789 C 0.57116 0.90086 0.04517 0.0
C790 C 0.59627 0.90675 0.03784 0.0
C791 C 0.60923 0.89163 0.04245 0.0
C792 C 0.54431 0.93935 0.01603 0.0
C793 C 0.53355 0.94939 0.02996 0.0
C794 C 0.556 0.9232 0.02091 0.0
C795 C 0.55723 0.91668 0.03985 0.0
C796 C 0.54574 0.92601 0.05368 0.0
C797 C 0.53404 0.94221 0.04879 0.0
H798 H 0.99557 0.16998 0.40853 0.0
H799 H 0.9661 0.2281 0.40589 0.0
H800 H 0.03885 0.2032 0.39642 0.0
H801 H 0.00958 0.26151 0.39349 0.0
H802 H 0.07894 0.2961 0.35031 0.0
H803 H 0.0348 0.26383 0.36241 0.0
H804 H 0.08011 0.25083 0.40886 0.0
H805 H 0.12387 0.28297 0.39704 0.0
C806 C 0.99847 0.18997 0.40542 0.0
C807 C 0.97758 0.19655 0.4082 0.0
C808 C 0.02323 0.20898 0.39851 0.0
C809 C 0.02755 0.2349 0.39394 0.0
C810 C 0.00669 0.24158 0.39675 0.0
C811 C 0.982 0.22265 0.40401 0.0
C812 C 0.0794 0.28621 0.36303 0.0
C813 C 0.10491 0.29206 0.37268 0.0
C814 C 0.05419 0.26797 0.37004 0.0
C815 C 0.05405 0.25487 0.3866 0.0
C816 C 0.07954 0.26049 0.39603 0.0
C817 C 0.10462 0.27897 0.38925 0.0
H818 H 0.82201 0.75171 0.38942 0.0
H819 H 0.85674 0.82554 0.42913 0.0
H820 H 0.78671 0.76197 0.37599 0.0
H821 H 0.82204 0.83634 0.41524 0.0
H822 H 0.7717 0.85516 0.36609 0.0
H823 H 0.80816 0.84599 0.37857 0.0
H824 H 0.74543 0.76656 0.39361 0.0
H825 H 0.70894 0.77602 0.38175 0.0
C826 C 0.82236 0.77038 0.39501 0.0
C827 C 0.84217 0.78794 0.41021 0.0
C828 C 0.80211 0.77614 0.38743 0.0
C829 C 0.80167 0.79994 0.39458 0.0
C830 C 0.822 0.81794 0.40941 0.0
C831 C 0.84181 0.81179 0.41733 0.0
C832 C 0.76568 0.83573 0.37205 0.0
C833 C 0.73741 0.81631 0.37293 0.0
C834 C 0.78656 0.83056 0.37924 0.0
C835 C 0.77959 0.80554 0.38698 0.0
C836 C 0.75135 0.78595 0.38762 0.0
C837 C 0.73051 0.79143 0.38091 0.0
H838 H 0.21103 0.04742 0.41512 0.0
H839 H 0.27327 0.07863 0.37527 0.0
H840 H 0.1941 1.00016 0.401 0.0
H841 H 0.25654 0.03136 0.36124 0.0
H842 H 0.20171 0.9451 0.3288 0.0
H843 H 0.21707 0.99243 0.34212 0.0
H844 H 0.20878 0.96623 0.3992 0.0
H845 H 0.19289 0.91904 0.38597 0.0
C846 C 0.22123 0.04414 0.40344 0.0
C847 C 0.24348 0.06673 0.39632 0.0
C848 C 0.21155 0.01708 0.39534 0.0
C849 C 0.22398 0.01197 0.37999 0.0
C850 C 0.24621 0.03459 0.37284 0.0
C851 C 0.25584 0.06167 0.3809 0.0
C852 C 0.20308 0.94944 0.34418 0.0
C853 C 0.19601 0.92824 0.35629 0.0
C854 C 0.21203 0.97659 0.35182 0.0
C855 C 0.21413 0.98311 0.37173 0.0
C856 C 0.20699 0.96187 0.38379 0.0
C857 C 0.19801 0.93478 0.37617 0.0
H858 H 0.54432 0.62238 0.26993 0.0
H859 H 0.48915 0.61586 0.31255 0.0
H860 H 0.5774 0.66902 0.2835 0.0
H861 H 0.52377 0.66183 0.32742 0.0
H862 H 0.57984 0.75569 0.33921 0.0
H863 H 0.54509 0.70915 0.32524 0.0
H864 H 0.61078 0.69504 0.30835 0.0
H865 H 0.64519 0.74215 0.32126 0.0
C866 C 0.53906 0.63084 0.28218 0.0
C867 C 0.51361 0.61516 0.28988 0.0
C868 C 0.55852 0.65761 0.2903 0.0
C869 C 0.55362 0.66947 0.30675 0.0
C870 C 0.52829 0.65374 0.31461 0.0
C871 C 0.5085 0.62706 0.30622 0.0
C872 C 0.58678 0.74258 0.33248 0.0
C873 C 0.61524 0.75262 0.33124 0.0
C874 C 0.56683 0.71574 0.32456 0.0
C875 C 0.57488 0.69804 0.31552 0.0
C876 C 0.60352 0.70809 0.31469 0.0
C877 C 0.62339 0.73511 0.32224 0.0
H878 H 0.39763 0.91588 0.31132 0.0
H879 H 0.35487 0.87274 0.25612 0.0
H880 H 0.35389 0.90792 0.32238 0.0
H881 H 0.31071 0.86334 0.26732 0.0
H882 H 0.2374 0.86851 0.28689 0.0
H883 H 0.28185 0.87991 0.27558 0.0
H884 H 0.31251 0.87528 0.33255 0.0
H885 H 0.2684 0.86538 0.34399 0.0
C886 C 0.37875 0.90455 0.30157 0.0
C887 C 0.3797 0.89496 0.28285 0.0
C888 C 0.35352 0.89972 0.30795 0.0
C889 C 0.32835 0.8847 0.2959 0.0
C890 C 0.32949 0.87539 0.27703 0.0
C891 C 0.35484 0.88067 0.27056 0.0
C892 C 0.25367 0.87001 0.29703 0.0
C893 C 0.24927 0.86603 0.31638 0.0
C894 C 0.27924 0.87638 0.29049 0.0
C895 C 0.30113 0.87851 0.30303 0.0
C896 C 0.29659 0.87443 0.32242 0.0
C897 C 0.27112 0.86852 0.32903 0.0
H898 H 0.13169 0.50099 0.28533 0.0
H899 H 0.07645 0.47832 0.32985 0.0
H900 H 0.15054 0.47307 0.29744 0.0
H901 H 0.09476 0.44971 0.34177 0.0
H902 H 0.152 0.42101 0.36859 0.0
H903 H 0.13491 0.45112 0.35771 0.0
H904 H 0.13733 0.42586 0.29885 0.0
H905 H 0.15512 0.39671 0.30967 0.0
C906 C 0.12339 0.48976 0.2976 0.0
C907 C 0.10251 0.49168 0.30658 0.0
C908 C 0.13414 0.47372 0.30455 0.0
C909 C 0.12407 0.45898 0.32054 0.0
C910 C 0.10328 0.46108 0.3296 0.0
C911 C 0.09269 0.47735 0.32274 0.0
C912 C 0.14897 0.42202 0.35334 0.0
C913 C 0.1551 0.40659 0.34002 0.0
C914 C 0.13902 0.43914 0.34709 0.0
C915 C 0.13483 0.44103 0.32739 0.0
C916 C 0.14084 0.42542 0.31413 0.0
C917 C 0.15095 0.40854 0.32036 0.0
H918 H 0.37109 0.48571 0.28007 0.0
H919 H 0.40838 0.50003 0.33824 0.0
H920 H 0.3247 0.46 0.29095 0.0
H921 H 0.36217 0.47389 0.34925 0.0
H922 H 0.27307 0.44056 0.36463 0.0
H923 H 0.31823 0.47198 0.35379 0.0
H924 H 0.29762 0.41557 0.3028 0.0
H925 H 0.25266 0.38467 0.31334 0.0
C926 C 0.36923 0.48359 0.29523 0.0
C927 C 0.39305 0.49481 0.30837 0.0
C928 C 0.34274 0.4687 0.30147 0.0
C929 C 0.33962 0.46465 0.321 0.0
C930 C 0.36369 0.47682 0.33418 0.0
C931 C 0.39015 0.4917 0.32789 0.0
C932 C 0.27814 0.43496 0.35107 0.0
C933 C 0.25917 0.40997 0.33994 0.0
C934 C 0.30409 0.45292 0.34488 0.0
C935 C 0.31161 0.44639 0.32737 0.0
C936 C 0.29245 0.42157 0.31619 0.0
C937 C 0.26666 0.40365 0.32237 0.0
H938 H 0.53405 0.92097 0.31503 0.0
H939 H 0.49393 0.84383 0.27855 0.0
H940 H 0.57233 0.91315 0.32491 0.0
H941 H 0.53192 0.83558 0.28852 0.0
H942 H 0.61523 0.83862 0.30123 0.0
H943 H 0.58121 0.8504 0.28818 0.0
H944 H 0.57763 0.88173 0.34496 0.0
H945 H 0.61184 0.87032 0.35797 0.0
C946 C 0.53384 0.90265 0.30879 0.0
C947 C 0.51138 0.88317 0.29586 0.0
C948 C 0.55553 0.89795 0.31462 0.0
C949 C 0.55514 0.87357 0.30769 0.0
C950 C 0.5331 0.85468 0.29404 0.0
C951 C 0.51136 0.85939 0.28827 0.0
C952 C 0.60726 0.84808 0.31095 0.0
C953 C 0.61633 0.85346 0.3307 0.0
C954 C 0.58764 0.85475 0.30345 0.0
C955 C 0.57668 0.86714 0.31547 0.0
C956 C 0.5859 0.87265 0.33519 0.0
C957 C 0.6054 0.86587 0.3427 0.0
H958 H 0.13453 0.62851 0.30538 0.0
H959 H 0.05404 0.61608 0.31636 0.0
H960 H 0.15226 0.67831 0.30476 0.0
H961 H 0.07165 0.66595 0.31598 0.0
H962 H 0.10822 0.75544 0.30184 0.0
H963 H 0.0904 0.70558 0.29598 0.0
H964 H 0.1625 0.71536 0.33013 0.0
H965 H 0.18041 0.76498 0.33584 0.0
C966 C 0.12059 0.63653 0.30736 0.0
C967 C 0.09306 0.61886 0.3109 0.0
C968 C 0.13071 0.66495 0.30713 0.0
C969 C 0.1134 0.67607 0.31046 0.0
C970 C 0.08541 0.65797 0.31319 0.0
C971 C 0.07534 0.62954 0.31348 0.0
C972 C 0.12041 0.74698 0.30791 0.0
C973 C 0.14568 0.76418 0.31939 0.0
C974 C 0.11012 0.71842 0.30463 0.0
C975 C 0.12503 0.70656 0.3126 0.0
C976 C 0.15067 0.7239 0.32358 0.0
C977 C 0.16084 0.75235 0.32697 0.0
H978 H 0.86487 0.03346 0.41618 0.0
H979 H 0.8233 0.06617 0.38179 0.0
H980 H 0.82399 0.98691 0.40974 0.0
H981 H 0.7821 0.01979 0.3755 0.0
H982 H 0.73658 0.93045 0.34545 0.0
H983 H 0.77268 0.97789 0.35609 0.0
H984 H 0.7748 0.95609 0.41392 0.0
H985 H 0.73879 0.9083 0.40323 0.0
C986 C 0.84659 0.03069 0.40769 0.0
C987 C 0.84691 0.05313 0.39955 0.0
C988 C 0.82319 0.00411 0.40399 0.0
C989 C 0.79984 0.99957 0.39196 0.0
C990 C 0.79987 0.0225 0.38459 0.0
C991 C 0.82327 0.04906 0.38833 0.0
C992 C 0.74459 0.93572 0.36047 0.0
C993 C 0.73483 0.91547 0.37345 0.0
C994 C 0.76517 0.96304 0.36661 0.0
C995 C 0.77659 0.97086 0.38588 0.0
C996 C 0.76659 0.95071 0.39895 0.0
C997 C 0.74588 0.92333 0.39281 0.0
H998 H 0.98811 0.80032 0.42028 0.0
H999 H 0.94749 0.77993 0.36268 0.0
H1000 H 0.03321 0.81718 0.40769 0.0
H1001 H 0.9924 0.79621 0.34989 0.0
H1002 H 0.08129 0.84628 0.33301 0.0
H1003 H 0.03758 0.83523 0.34592 0.0
H1004 H 0.05725 0.79754 0.39177 0.0
H1005 H 0.10094 0.80896 0.37915 0.0
C1006 C 0.98898 0.7999 0.4049 0.0
C1007 C 0.96449 0.78915 0.39243 0.0
C1008 C 0.01475 0.80925 0.39765 0.0
C1009 C 0.01659 0.80789 0.37771 0.0
C1010 C 0.99197 0.7979 0.36529 0.0
C1011 C 0.96621 0.78854 0.37258 0.0
C1012 C 0.07633 0.83568 0.34587 0.0
C1013 C 0.09477 0.82849 0.35495 0.0
C1014 C 0.05115 0.82923 0.35325 0.0
C1015 C 0.04375 0.81553 0.36997 0.0
C1016 C 0.0623 0.8085 0.37907 0.0
C1017 C 0.08737 0.81486 0.37169 0.0
H1018 H 0.21297 0.17021 0.3831 0.0
H1019 H 0.29669 0.23955 0.39385 0.0
H1020 H 0.19546 0.20201 0.37777 0.0
H1021 H 0.27951 0.27153 0.38825 0.0
H1022 H 0.23613 0.32212 0.39338 0.0
H1023 H 0.25174 0.28992 0.40132 0.0
H1024 H 0.19734 0.23224 0.35339 0.0
H1025 H 0.18129 0.26427 0.34558 0.0
C1026 C 0.2275 0.19235 0.38454 0.0
C1027 C 0.25601 0.20268 0.389 0.0
C1028 C 0.21759 0.21051 0.38131 0.0
C1029 C 0.2361 0.2393 0.38248 0.0
C1030 C 0.26466 0.24952 0.38745 0.0
C1031 C 0.27454 0.23131 0.39064 0.0
C1032 C 0.22743 0.30257 0.38451 0.0
C1033 C 0.20749 0.29584 0.36878 0.0
C1034 C 0.23649 0.28415 0.38904 0.0
C1035 C 0.22583 0.25853 0.37799 0.0
C1036 C 0.20571 0.25167 0.36235 0.0
C1037 C 0.19665 0.27012 0.35779 0.0
H1038 H 0.65215 0.48877 0.72823 0.0
H1039 H 0.62939 0.55047 0.74283 0.0
H1040 H 0.69432 0.52388 0.71626 0.0
H1041 H 0.67162 0.58572 0.7307 0.0
H1042 H 0.7641 0.64597 0.72711 0.0
H1043 H 0.72112 0.61113 0.73797 0.0
H1044 H 0.71094 0.55304 0.69048 0.0
H1045 H 0.75472 0.588 0.67975 0.0
C1046 C 0.65606 0.50984 0.72877 0.0
C1047 C 0.63729 0.51676 0.73644 0.0
C1048 C 0.68023 0.52998 0.72181 0.0
C1049 C 0.68637 0.55766 0.72233 0.0
C1050 C 0.66775 0.56468 0.73022 0.0
C1051 C 0.64355 0.54449 0.73723 0.0
C1052 C 0.75275 0.62584 0.71884 0.0
C1053 C 0.76304 0.61986 0.7025 0.0
C1054 C 0.72787 0.60584 0.72506 0.0
C1055 C 0.71243 0.5792 0.71514 0.0
C1056 C 0.72247 0.57324 0.69863 0.0
C1057 C 0.74749 0.59333 0.69239 0.0
H1058 H 0.52385 0.15977 0.74189 0.0
H1059 H 0.46474 0.07558 0.75147 0.0
H1060 H 0.48602 0.16577 0.72855 0.0
H1061 H 0.42674 0.08155 0.73804 0.0
H1062 H 0.36452 0.11291 0.73045 0.0
H1063 H 0.40156 0.10586 0.74405 0.0
H1064 H 0.45283 0.15055 0.70042 0.0
H1065 H 0.41601 0.15811 0.68703 0.0
C1066 C 0.50276 0.14245 0.74104 0.0
C1067 C 0.49738 0.11712 0.74764 0.0
C1068 C 0.48104 0.14588 0.73334 0.0
C1069 C 0.45329 0.12408 0.73203 0.0
C1070 C 0.44782 0.09888 0.73898 0.0
C1071 C 0.4696 0.09545 0.7467 0.0
C1072 C 0.38363 0.12116 0.72368 0.0
C1073 C 0.38725 0.13618 0.70765 0.0
C1074 C 0.40486 0.11699 0.73145 0.0
C1075 C 0.43028 0.12773 0.72341 0.0
C1076 C 0.43372 0.14237 0.7072 0.0
C1077 C 0.4125 0.14655 0.69942 0.0
H1078 H 0.8841 0.40299 0.7123 0.0
H1079 H 0.95706 0.40539 0.73924 0.0
H1080 H 0.86643 0.35514 0.69886 0.0
H1081 H 0.94045 0.35829 0.72508 0.0
H1082 H 0.89003 0.26516 0.71713 0.0
H1083 H 0.90705 0.31305 0.729 0.0
H1084 H 0.87092 0.32479 0.67657 0.0
H1085 H 0.85257 0.27607 0.66512 0.0
C1086 C 0.89649 0.3933 0.71507 0.0
C1087 C 0.92174 0.40759 0.72691 0.0
C1088 C 0.88651 0.36598 0.7073 0.0
C1089 C 0.90184 0.35262 0.711 0.0
C1090 C 0.92764 0.36752 0.72233 0.0
C1091 C 0.93732 0.39457 0.73036 0.0
C1092 C 0.88576 0.27798 0.7081 0.0
C1093 C 0.8701 0.26693 0.69015 0.0
C1094 C 0.89571 0.30557 0.71485 0.0
C1095 C 0.89072 0.32306 0.70368 0.0
C1096 C 0.87493 0.31193 0.68568 0.0
C1097 C 0.86453 0.28406 0.67905 0.0
H1098 H 0.16787 0.9255 0.6486 0.0
H1099 H 0.15911 0.96165 0.59777 0.0
H1100 H 0.19981 0.97191 0.66463 0.0
H1101 H 0.19147 0.00784 0.61365 0.0
H1102 H 0.27938 0.07778 0.63794 0.0
H1103 H 0.24285 0.03205 0.62388 0.0
H1104 H 0.20412 0.01809 0.67661 0.0
H1105 H 0.24081 0.06414 0.6908 0.0
C1106 C 0.17226 0.94329 0.64096 0.0
C1107 C 0.16113 0.93974 0.62178 0.0
C1108 C 0.19067 0.9699 0.65014 0.0
C1109 C 0.19849 0.99351 0.6403 0.0
C1110 C 0.18629 0.99003 0.62148 0.0
C1111 C 0.16775 0.96352 0.61238 0.0
C1112 C 0.26315 0.06502 0.6466 0.0
C1113 C 0.2631 0.07466 0.66553 0.0
C1114 C 0.24206 0.03887 0.63847 0.0
C1115 C 0.2205 0.02151 0.6491 0.0
C1116 C 0.22051 0.03097 0.66809 0.0
C1117 C 0.24146 0.05737 0.67617 0.0
H1118 H 0.06535 0.25569 0.64931 0.0
H1119 H 0.02465 0.21337 0.59335 0.0
H1120 H 0.02041 0.24294 0.66045 0.0
H1121 H 0.97955 0.20096 0.6045 0.0
H1122 H 0.90819 0.21092 0.62676 0.0
H1123 H 0.95251 0.22239 0.61503 0.0
H1124 H 0.97795 0.20122 0.66775 0.0
H1125 H 0.93357 0.18994 0.67965 0.0
C1126 C 0.04681 0.24351 0.63938 0.0
C1127 C 0.0487 0.23535 0.62044 0.0
C1128 C 0.021 0.23618 0.64581 0.0
C1129 C 0.99632 0.22069 0.63345 0.0
C1130 C 0.99818 0.21306 0.61437 0.0
C1131 C 0.02405 0.22026 0.60796 0.0
C1132 C 0.92317 0.20866 0.6359 0.0
C1133 C 0.9173 0.19963 0.65424 0.0
C1134 C 0.94855 0.21507 0.62908 0.0
C1135 C 0.96886 0.21282 0.64045 0.0
C1136 C 0.9629 0.2035 0.65871 0.0
C1137 C 0.93738 0.19687 0.66549 0.0
H1138 H 0.73644 0.78914 0.62617 0.0
H1139 H 0.80766 0.85962 0.65819 0.0
H1140 H 0.75203 0.75854 0.63823 0.0
H1141 H 0.82386 0.82928 0.66984 0.0
H1142 H 0.8307 0.76303 0.70144 0.0
H1143 H 0.81452 0.79391 0.69061 0.0
H1144 H 0.78717 0.74716 0.63466 0.0
H1145 H 0.80229 0.71601 0.64563 0.0
C1146 C 0.75559 0.79807 0.63564 0.0
C1147 C 0.77086 0.82669 0.64123 0.0
C1148 C 0.7646 0.78061 0.64253 0.0
C1149 C 0.7893 0.79145 0.65498 0.0
C1150 C 0.80454 0.82015 0.66055 0.0
C1151 C 0.79536 0.83755 0.6538 0.0
C1152 C 0.82122 0.75943 0.68685 0.0
C1153 C 0.81754 0.73695 0.67447 0.0
C1154 C 0.81205 0.77717 0.6806 0.0
C1155 C 0.79931 0.7729 0.66179 0.0
C1156 C 0.79621 0.7507 0.64937 0.0
C1157 C 0.80506 0.73289 0.65566 0.0
H1158 H 0.03054 0.8398 0.62227 0.0
H1159 H 0.06589 0.80579 0.66104 0.0
H1160 H 0.98627 0.81566 0.63622 0.0
H1161 H 0.02165 0.78103 0.67476 0.0
H1162 H 0.9419 0.75012 0.70303 0.0
H1163 H 0.98722 0.7826 0.69306 0.0
H1164 H 0.94978 0.7682 0.63474 0.0
H1165 H 0.90461 0.73642 0.64472 0.0
C1166 C 0.02892 0.82762 0.6341 0.0
C1167 C 0.05149 0.82477 0.64079 0.0
C1168 C 1.00353 0.81352 0.64194 0.0
C1169 C 1.00021 0.79611 0.65652 0.0
C1170 C 0.02343 0.79444 0.66375 0.0
C1171 C 0.04879 0.80859 0.65591 0.0
C1172 C 0.9433 0.75407 0.68811 0.0
C1173 C 0.91954 0.74052 0.67469 0.0
C1174 C 0.96934 0.77263 0.68237 0.0
C1175 C 0.97226 0.77811 0.66308 0.0
C1176 C 0.94835 0.76493 0.64977 0.0
C1177 C 0.92238 0.74645 0.6555 0.0
H1178 H 0.20763 0.25002 0.61954 0.0
H1179 H 0.14528 0.18962 0.65125 0.0
H1180 H 0.23874 0.23198 0.62799 0.0
H1181 H 0.17607 0.17154 0.65971 0.0
H1182 H 0.25322 0.1782 0.69347 0.0
H1183 H 0.22047 0.19199 0.6813 0.0
H1184 H 0.24426 0.18931 0.62424 0.0
H1185 H 0.27718 0.17542 0.63639 0.0
C1186 C 0.20043 0.23247 0.62793 0.0
C1187 C 0.17418 0.22098 0.63469 0.0
C1188 C 0.21815 0.22217 0.63278 0.0
C1189 C 0.20993 0.20051 0.64467 0.0
C1190 C 0.18313 0.18845 0.65075 0.0
C1191 C 0.16544 0.1986 0.64578 0.0
C1192 C 0.25147 0.18045 0.67831 0.0
C1193 C 0.26784 0.17567 0.66592 0.0
C1194 C 0.23255 0.18819 0.67132 0.0
C1195 C 0.2297 0.19162 0.65179 0.0
C1196 C 0.24609 0.18694 0.63937 0.0
C1197 C 0.26482 0.17885 0.64633 0.0
H1198 H 0.7263 0.95065 0.66435 0.0
H1199 H 0.79651 0.96676 0.6335 0.0
H1200 H 0.73999 0.99977 0.66576 0.0
H1201 H 0.81068 0.01605 0.63511 0.0
H1202 H 0.81792 0.10101 0.63159 0.0
H1203 H 0.79846 0.05091 0.62524 0.0
H1204 H 0.77918 0.04098 0.68391 0.0
H1205 H 0.79817 0.09066 0.6902 0.0
C1206 C 0.74438 0.96476 0.65757 0.0
C1207 C 0.76042 0.95533 0.64879 0.0
C1208 C 0.75235 0.99281 0.6585 0.0
C1209 C 0.77657 0.0118 0.65071 0.0
C1210 C 0.79181 1.0019 0.64108 0.0
C1211 C 0.7838 0.97381 0.64019 0.0
C1212 C 0.8094 0.08809 0.64309 0.0
C1213 C 0.80964 0.09982 0.66141 0.0
C1214 C 0.79833 0.05944 0.63946 0.0
C1215 C 0.78714 0.04201 0.65404 0.0
C1216 C 0.78718 0.05378 0.67227 0.0
C1217 C 0.79832 0.08233 0.67592 0.0
H1218 H 0.48888 0.37825 0.74956 0.0
H1219 H 0.52228 0.35738 0.70174 0.0
H1220 H 0.44696 0.33166 0.74424 0.0
H1221 H 0.48098 0.3113 0.69642 0.0
H1222 H 0.39175 0.24807 0.67668 0.0
H1223 H 0.43128 0.29442 0.68499 0.0
H1224 H 0.43191 0.27943 0.74456 0.0
H1225 H 0.39186 0.23253 0.73626 0.0
C1226 C 0.48725 0.36357 0.73806 0.0
C1227 C 0.50848 0.3711 0.72598 0.0
C1228 C 0.46344 0.33702 0.73504 0.0
C1229 C 0.4606 0.31797 0.71978 0.0
C1230 C 0.48234 0.32563 0.70808 0.0
C1231 C 0.50601 0.35191 0.71116 0.0
C1232 C 0.40007 0.25455 0.6916 0.0
C1233 C 0.38871 0.23641 0.70578 0.0
C1234 C 0.42286 0.28115 0.69634 0.0
C1235 C 0.43489 0.29045 0.71539 0.0
C1236 C 0.42301 0.2728 0.72976 0.0
C1237 C 0.40018 0.24594 0.72498 0.0
H1238 H 0.66547 0.1694 0.75652 0.0
H1239 H 0.62113 0.09486 0.71751 0.0
H1240 H 0.70915 0.17932 0.74402 0.0
H1241 H 0.66482 0.10424 0.70512 0.0
H1242 H 0.7397 0.15002 0.67038 0.0
H1243 H 0.69686 0.13684 0.68514 0.0
H1244 H 0.74384 0.16617 0.74103 0.0
H1245 H 0.78657 0.17986 0.72632 0.0
C1246 C 0.66531 0.15464 0.74573 0.0
C1247 C 0.64017 0.13115 0.73819 0.0
C1248 C 0.6903 0.16034 0.73847 0.0
C1249 C 0.69059 0.14273 0.72339 0.0
C1250 C 0.66538 0.11851 0.71649 0.0
C1251 C 0.64042 0.11286 0.72378 0.0
C1252 C 0.74092 0.15376 0.6858 0.0
C1253 C 0.76673 0.16619 0.69708 0.0
C1254 C 0.71628 0.14594 0.69432 0.0
C1255 C 0.71676 0.15031 0.71434 0.0
C1256 C 0.7426 0.16274 0.72558 0.0
C1257 C 0.76718 0.17055 0.71709 0.0
H1258 H 0.94709 0.56679 0.74527 0.0
H1259 H 0.89474 0.50922 0.69686 0.0
H1260 H 0.92561 0.59531 0.7398 0.0
H1261 H 0.87297 0.53731 0.69141 0.0
H1262 H 0.87117 0.61399 0.67266 0.0
H1263 H 0.88873 0.58312 0.68007 0.0
H1264 H 0.88114 0.59567 0.74014 0.0
H1265 H 0.86378 0.62689 0.7328 0.0
C1266 C 0.93066 0.56012 0.73367 0.0
C1267 C 0.92239 0.53602 0.72146 0.0
C1268 C 0.91832 0.5763 0.73055 0.0
C1269 C 0.89772 0.56864 0.71509 0.0
C1270 C 0.88904 0.54397 0.70326 0.0
C1271 C 0.9013 0.52781 0.70643 0.0
C1272 C 0.87311 0.61013 0.68745 0.0
C1273 C 0.86609 0.62297 0.70212 0.0
C1274 C 0.88303 0.59228 0.69168 0.0
C1275 C 0.88627 0.58692 0.71069 0.0
C1276 C 0.87908 0.59959 0.72538 0.0
C1277 C 0.86899 0.61734 0.72113 0.0
H1278 H 0.46427 0.89667 0.22574 0.0
H1279 H 0.44176 0.95845 0.24056 0.0
H1280 H 0.4794 0.91675 0.19571 0.0
H1281 H 0.45734 0.97888 0.21087 0.0
H1282 H 0.4603 0.99237 0.14774 0.0
H1283 H 0.44548 0.97156 0.17744 0.0
H1284 H 0.51355 0.9551 0.18147 0.0
H1285 H 0.52797 0.97548 0.15148 0.0
C1286 C 0.46283 0.91473 0.22269 0.0
C1287 C 0.45158 0.92578 0.23554 0.0
C1288 C 0.47157 0.92632 0.20545 0.0
C1289 C 0.4695 0.94944 0.20064 0.0
C1290 C 0.4587 0.96074 0.21373 0.0
C1291 C 0.44981 0.94904 0.23085 0.0
C1292 C 0.47221 0.98446 0.15501 0.0
C1293 C 0.49541 0.98572 0.14718 0.0
C1294 C 0.46375 0.97254 0.17214 0.0
C1295 C 0.47834 0.96168 0.18209 0.0
C1296 C 0.50147 0.96282 0.17418 0.0
C1297 C 0.50982 0.97459 0.15695 0.0
H1298 H 0.04336 0.47517 0.24901 0.0
H1299 H 0.08223 0.56403 0.24844 0.0
H1300 H 0.02723 0.46879 0.21514 0.0
H1301 H 0.065 0.55756 0.21462 0.0
H1302 H 0.05372 0.53562 0.1493 0.0
H1303 H 0.07153 0.54266 0.18301 0.0
H1304 H 0.99351 0.47323 0.19479 0.0
H1305 H 0.97618 0.46548 0.16104 0.0
C1306 C 0.04858 0.49338 0.24163 0.0
C1307 C 0.06421 0.52013 0.25144 0.0
C1308 C 0.039 0.48969 0.22225 0.0
C1309 C 0.04469 0.51265 0.21217 0.0
C1310 C 0.06045 0.53944 0.22192 0.0
C1311 C 0.07007 0.54314 0.24135 0.0
C1312 C 0.04049 0.52169 0.15906 0.0
C1313 C 0.01354 0.49995 0.15245 0.0
C1314 C 0.05058 0.52593 0.17842 0.0
C1315 C 0.03396 0.5085 0.19161 0.0
C1316 C 0.00699 0.48684 0.18499 0.0
C1317 C 0.99692 0.48259 0.16566 0.0
H1318 H 0.52206 0.57357 0.23421 0.0
H1319 H 0.43423 0.51308 0.22567 0.0
H1320 H 0.52671 0.56272 0.20126 0.0
H1321 H 0.43923 0.50107 0.19265 0.0
H1322 H 0.45509 0.51089 0.12853 0.0
H1323 H 0.4477 0.51887 0.16163 0.0
H1324 H 0.52699 0.52749 0.18104 0.0
H1325 H 0.53512 0.52124 0.14809 0.0
C1326 C 0.50363 0.55799 0.22528 0.0
C1327 C 0.47766 0.54446 0.23262 0.0
C1328 C 0.50642 0.5514 0.20638 0.0
C1329 C 0.4834 0.53084 0.19424 0.0
C1330 C 0.45737 0.51718 0.20153 0.0
C1331 C 0.45455 0.52387 0.22052 0.0
C1332 C 0.47103 0.51464 0.13985 0.0
C1333 C 0.49581 0.51559 0.1355 0.0
C1334 C 0.46662 0.51887 0.15888 0.0
C1335 C 0.48685 0.5241 0.17406 0.0
C1336 C 0.51115 0.52406 0.16974 0.0
C1337 C 0.51563 0.52002 0.15077 0.0
H1338 H 0.94064 0.50175 0.79145 0.0
H1339 H 0.9763 0.44871 0.78632 0.0
H1340 H 0.95396 0.50988 0.8261 0.0
H1341 H 0.98904 0.45643 0.82076 0.0
H1342 H 0.98041 0.45161 0.88452 0.0
H1343 H 0.96505 0.44438 0.85031 0.0
H1344 H 0.99698 0.53232 0.84955 0.0
H1345 H 0.01188 0.53951 0.8839 0.0
C1346 C 0.95143 0.49196 0.79766 0.0
C1347 C 0.95709 0.47431 0.78611 0.0
C1348 C 0.95899 0.49656 0.8175 0.0
C1349 C 0.97224 0.48352 0.82617 0.0
C1350 C 0.97829 0.46628 0.81457 0.0
C1351 C 0.97093 0.46183 0.79481 0.0
C1352 C 0.98383 0.46935 0.87711 0.0
C1353 C 0.99745 0.49614 0.88689 0.0
C1354 C 0.97527 0.46525 0.85749 0.0
C1355 C 0.97997 0.48782 0.84722 0.0
C1356 C 0.99294 0.51452 0.85709 0.0
C1357 C 1.0017 0.51866 0.8767 0.0
H1358 H 0.57322 0.52301 0.77948 0.0
H1359 H 0.55507 0.44174 0.79326 0.0
H1360 H 0.55606 0.52989 0.80923 0.0
H1361 H 0.53843 0.44873 0.82317 0.0
H1362 H 0.48503 0.45837 0.86615 0.0
H1363 H 0.50154 0.45158 0.8361 0.0
H1364 H 0.5664 0.53779 0.84306 0.0
H1365 H 0.54941 0.5446 0.87289 0.0
C1366 C 0.5658 0.5067 0.78896 0.0
C1367 C 0.56548 0.4818 0.78394 0.0
C1368 C 0.556 0.51066 0.80607 0.0
C1369 C 0.54578 0.48989 0.81872 0.0
C1370 C 0.54561 0.46502 0.81369 0.0
C1371 C 0.55523 0.46101 0.79653 0.0
C1372 C 0.50289 0.47583 0.8613 0.0
C1373 C 0.51586 0.50203 0.87193 0.0
C1374 C 0.51245 0.47194 0.84406 0.0
C1375 C 0.5354 0.49411 0.83705 0.0
C1376 C 0.54839 0.52032 0.84775 0.0
C1377 C 0.53869 0.52424 0.86492 0.0
H1378 H 0.49658 0.0492 0.78776 0.0
H1379 H 0.58161 0.10984 0.80844 0.0
H1380 H 0.49035 0.02911 0.81804 0.0
H1381 H 0.5758 0.0888 0.83867 0.0
H1382 H 0.54428 0.06565 0.89802 0.0
H1383 H 0.55321 0.0849 0.86726 0.0
H1384 H 0.50126 0.00267 0.83792 0.0
H1385 H 0.49105 0.98371 0.86856 0.0
C1386 C 0.5141 0.05812 0.79873 0.0
C1387 C 0.53953 0.0814 0.79566 0.0
C1388 C 0.51061 0.04635 0.81612 0.0
C1389 C 0.53251 0.0573 0.831 0.0
C1390 C 0.5583 0.08002 0.82771 0.0
C1391 C 0.56178 0.09188 0.81025 0.0
C1392 C 0.5345 0.05167 0.88503 0.0
C1393 C 0.51678 0.02304 0.88594 0.0
C1394 C 0.53999 0.06271 0.86731 0.0
C1395 C 0.52798 0.04544 0.84995 0.0
C1396 C 0.51063 0.01677 0.85089 0.0
C1397 C 0.50504 0.00578 0.86857 0.0
H1398 H 0.10252 0.29605 0.5743 0.0
H1399 H 0.13696 0.24291 0.56387 0.0
H1400 H 0.11799 0.31642 0.54461 0.0
H1401 H 0.15196 0.26281 0.53378 0.0
H1402 H 0.20065 0.32546 0.49146 0.0
H1403 H 0.18452 0.30332 0.52066 0.0
H1404 H 0.10986 0.3084 0.51102 0.0
H1405 H 0.12644 0.33116 0.48221 0.0
C1406 C 0.113 0.28836 0.56548 0.0
C1407 C 0.11834 0.26771 0.57145 0.0
C1408 C 0.12188 0.30004 0.54837 0.0
C1409 C 0.1362 0.29128 0.5366 0.0
C1410 C 0.14139 0.27045 0.54253 0.0
C1411 C 0.13268 0.25892 0.55977 0.0
C1412 C 0.18072 0.32168 0.49555 0.0
C1413 C 0.16495 0.3303 0.48457 0.0
C1414 C 0.17138 0.30888 0.51229 0.0
C1415 C 0.14587 0.30411 0.5184 0.0
C1416 C 0.12988 0.31224 0.50712 0.0
C1417 C 0.13935 0.32525 0.49052 0.0
H1418 H 0.70241 0.86816 0.59174 0.0
H1419 H 0.76739 0.85182 0.57689 0.0
H1420 H 0.68706 0.86376 0.55789 0.0
H1421 H 0.75094 0.8457 0.54309 0.0
H1422 H 0.73077 0.86066 0.48293 0.0
H1423 H 0.74801 0.86931 0.51676 0.0
H1424 H 0.66347 0.82909 0.53165 0.0
H1425 H 0.64633 0.82201 0.49796 0.0
C1426 C 0.71352 0.86375 0.58127 0.0
C1427 C 0.73613 0.8603 0.58711 0.0
C1428 C 0.70444 0.86081 0.56182 0.0
C1429 C 0.7176 0.85416 0.54769 0.0
C1430 C 0.74045 0.85109 0.55352 0.0
C1431 C 0.74965 0.85422 0.57296 0.0
C1432 C 0.71585 0.85402 0.49342 0.0
C1433 C 0.68712 0.8406 0.48764 0.0
C1434 C 0.72575 0.85866 0.51285 0.0
C1435 C 0.70717 0.84986 0.527 0.0
C1436 C 0.67845 0.8365 0.52121 0.0
C1437 C 0.66857 0.83204 0.50181 0.0
H1438 H 0.14045 0.91086 0.55205 0.0
H1439 H 0.15001 0.84215 0.56745 0.0
H1440 H 0.14975 0.90363 0.51935 0.0
H1441 H 0.15992 0.83523 0.53495 0.0
H1442 H 0.14811 0.81169 0.47057 0.0
H1443 H 0.13838 0.81921 0.50302 0.0
H1444 H 0.18526 0.90786 0.50028 0.0
H1445 H 0.19441 0.90019 0.46764 0.0
C1446 C 0.14483 0.89438 0.54848 0.0
C1447 C 0.14437 0.87701 0.56231 0.0
C1448 C 0.15023 0.89026 0.52974 0.0
C1449 C 0.15553 0.86877 0.5244 0.0
C1450 C 0.15537 0.85161 0.53836 0.0
C1451 C 0.14977 0.85562 0.55704 0.0
C1452 C 0.15643 0.83278 0.47694 0.0
C1453 C 0.17205 0.85534 0.46653 0.0
C1454 C 0.15093 0.83713 0.49559 0.0
C1455 C 0.1611 0.86417 0.50439 0.0
C1456 C 0.17669 0.88674 0.49391 0.0
C1457 C 0.18201 0.88236 0.4752 0.0
H1458 H 0.6206 0.76444 0.1224 0.0
H1459 H 0.60116 0.83031 0.12676 0.0
H1460 H 0.63308 0.77142 0.15686 0.0
H1461 H 0.61416 0.83757 0.16136 0.0
H1462 H 0.67657 0.86454 0.21623 0.0
H1463 H 0.65794 0.85536 0.18259 0.0
H1464 H 0.61391 0.76738 0.18805 0.0
H1465 H 0.63309 0.77656 0.22164 0.0
C1466 C 0.61844 0.78006 0.13073 0.0
C1467 C 0.60979 0.79678 0.12174 0.0
C1468 C 0.62569 0.7841 0.15053 0.0
C1469 C 0.62466 0.80507 0.16185 0.0
C1470 C 0.6155 0.82145 0.15298 0.0
C1471 C 0.60808 0.81731 0.13315 0.0
C1472 C 0.66294 0.84323 0.21024 0.0
C1473 C 0.65649 0.82126 0.22155 0.0
C1474 C 0.65201 0.83799 0.19103 0.0
C1475 C 0.63448 0.81064 0.18265 0.0
C1476 C 0.62756 0.78867 0.19406 0.0
C1477 C 0.63836 0.79393 0.21333 0.0
H1478 H 0.19283 0.79754 0.1077 0.0
H1479 H 0.2775 0.8526 0.13245 0.0
H1480 H 0.17592 0.80445 0.13747 0.0
H1481 H 0.26053 0.86063 0.16191 0.0
H1482 H 0.22274 0.84317 0.21894 0.0
H1483 H 0.2396 0.83728 0.1889 0.0
H1484 H 0.17037 0.83707 0.1574 0.0
H1485 H 0.15268 0.84149 0.18747 0.0
C1486 C 0.20787 0.81123 0.11946 0.0
C1487 C 0.23658 0.82435 0.11765 0.0
C1488 C 0.19813 0.81547 0.1365 0.0
C1489 C 0.21682 0.83306 0.1522 0.0
C1490 C 0.24551 0.84663 0.15026 0.0
C1491 C 0.25525 0.84231 0.13323 0.0
C1492 C 0.21088 0.84153 0.20563 0.0
C1493 C 0.18621 0.84267 0.20572 0.0
C1494 C 0.22081 0.83856 0.18835 0.0
C1495 C 0.20644 0.83675 0.17064 0.0
C1496 C 0.18186 0.83807 0.17072 0.0
C1497 C 0.17188 0.84095 0.18801 0.0
H1498 H 0.20155 0.37544 0.1242 0.0
H1499 H 0.20367 0.45031 0.14615 0.0
H1500 H 0.1954 0.35939 0.15596 0.0
H1501 H 0.1982 0.43463 0.17816 0.0
H1502 H 0.15815 0.38475 0.22828 0.0
H1503 H 0.16585 0.40227 0.19692 0.0
H1504 H 0.21719 0.36582 0.18711 0.0
H1505 H 0.20881 0.34774 0.21827 0.0
C1506 C 0.20114 0.3887 0.1359 0.0
C1507 C 0.2032 0.41423 0.13261 0.0
C1508 C 0.19766 0.37951 0.15419 0.0
C1509 C 0.19633 0.39565 0.16981 0.0
C1510 C 0.19864 0.42134 0.16651 0.0
C1511 C 0.20189 0.43043 0.14815 0.0
C1512 C 0.17126 0.38067 0.21948 0.0
C1513 C 0.18276 0.36473 0.22579 0.0
C1514 C 0.17577 0.3908 0.20146 0.0
C1515 C 0.19213 0.38549 0.1893 0.0
C1516 C 0.204 0.36991 0.19581 0.0
C1517 C 0.19927 0.35958 0.21374 0.0
H1518 H 0.79884 0.56766 0.897 0.0
H1519 H 0.77062 0.62511 0.91128 0.0
H1520 H 0.81368 0.58857 0.86717 0.0
H1521 H 0.78593 0.64643 0.88185 0.0
H1522 H 0.78934 0.66061 0.81897 0.0
H1523 H 0.77468 0.63868 0.84833 0.0
H1524 H 0.84677 0.62859 0.85365 0.0
H1525 H 0.86103 0.65002 0.82397 0.0
C1526 C 0.79605 0.58493 0.89385 0.0
C1527 C 0.78331 0.59453 0.90646 0.0
C1528 C 0.80462 0.597 0.87676 0.0
C1529 C 0.80088 0.61916 0.87191 0.0
C1530 C 0.78859 0.62901 0.88476 0.0
C1531 C 0.77985 0.61683 0.90172 0.0
C1532 C 0.80214 0.65384 0.82646 0.0
C1533 C 0.82642 0.65719 0.81912 0.0
C1534 C 0.79378 0.64129 0.84337 0.0
C1535 C 0.80958 0.63193 0.85356 0.0
C1536 C 0.83381 0.63513 0.84613 0.0
C1537 C 0.84205 0.64751 0.82911 0.0
H1538 H 0.4379 0.1836 0.90697 0.0
H1539 H 0.37811 0.20523 0.92581 0.0
H1540 H 0.41769 0.17625 0.874 0.0
H1541 H 0.35897 0.19952 0.89266 0.0
H1542 H 0.31049 0.15523 0.83463 0.0
H1543 H 0.33136 0.16397 0.86755 0.0
H1544 H 0.41289 0.19878 0.84768 0.0
H1545 H 0.39185 0.18844 0.81467 0.0
C1546 C 0.4205 0.18691 0.90409 0.0
C1547 C 0.40954 0.19481 0.91914 0.0
C1548 C 0.40913 0.18307 0.8851 0.0
C1549 C 0.38661 0.18723 0.88058 0.0
C1550 C 0.37602 0.19571 0.89558 0.0
C1551 C 0.38728 0.19938 0.91461 0.0
C1552 C 0.33284 0.16443 0.83723 0.0
C1553 C 0.34941 0.17095 0.82189 0.0
C1554 C 0.34489 0.16986 0.85619 0.0
C1555 C 0.37387 0.18214 0.86037 0.0
C1556 C 0.39048 0.18898 0.84504 0.0
C1557 C 0.37841 0.18338 0.82607 0.0
H1558 H 0.80938 0.16747 0.90622 0.0
H1559 H 0.7971 0.23349 0.88816 0.0
H1560 H 0.81427 0.15577 0.87309 0.0
H1561 H 0.80212 0.22194 0.8551 0.0
H1562 H 0.79257 0.18007 0.79497 0.0
H1563 H 0.78049 0.18495 0.82722 0.0
H1564 H 0.85127 0.18065 0.85125 0.0
H1565 H 0.86394 0.17664 0.81917 0.0
C1566 C 0.80715 0.17909 0.8951 0.0
C1567 C 0.80293 0.20143 0.89977 0.0
C1568 C 0.81023 0.17258 0.87618 0.0
C1569 C 0.80877 0.18805 0.8615 0.0
C1570 C 0.80318 0.20951 0.86605 0.0
C1571 C 0.80045 0.21622 0.88498 0.0
C1572 C 0.8057 0.18031 0.8071 0.0
C1573 C 0.82938 0.17809 0.80435 0.0
C1574 C 0.79865 0.18297 0.82559 0.0
C1575 C 0.8149 0.18315 0.84178 0.0
C1576 C 0.83808 0.18015 0.83906 0.0
C1577 C 0.8453 0.17779 0.8206 0.0
H1578 H 0.31369 0.17254 0.4528 0.0
H1579 H 0.23572 0.10018 0.46102 0.0
H1580 H 0.32723 0.18032 0.48731 0.0
H1581 H 0.24952 0.10764 0.49552 0.0
H1582 H 0.27607 0.14452 0.55894 0.0
H1583 H 0.26016 0.13976 0.52499 0.0
H1584 H 0.34038 0.15545 0.51003 0.0
H1585 H 0.35613 0.15968 0.54378 0.0
C1586 C 0.29924 0.15857 0.46201 0.0
C1587 C 0.27368 0.13569 0.45417 0.0
C1588 C 0.30713 0.16283 0.48175 0.0
C1589 C 0.28957 0.14442 0.49412 0.0
C1590 C 0.26347 0.12225 0.48639 0.0
C1591 C 0.25566 0.11788 0.46662 0.0
C1592 C 0.29022 0.14667 0.54841 0.0
C1593 C 0.31744 0.1526 0.55416 0.0
C1594 C 0.28113 0.14406 0.52896 0.0
C1595 C 0.29909 0.14749 0.51484 0.0
C1596 C 0.32622 0.15328 0.52058 0.0
C1597 C 0.33524 0.1557 0.53996 0.0
H1598 H 0.9451 0.18889 0.47059 0.0
H1599 H 0.86063 0.13993 0.44379 0.0
H1600 H 0.92788 0.19517 0.50037 0.0
H1601 H 0.84336 0.14482 0.47389 0.0
H1602 H 0.82076 0.17884 0.52586 0.0
H1603 H 0.83873 0.17596 0.49563 0.0
H1604 H 0.90533 0.17054 0.52617 0.0
H1605 H 0.88835 0.17511 0.55644 0.0
C1606 C 0.92284 0.17957 0.47097 0.0
C1607 C 0.90432 0.16388 0.45467 0.0
C1608 C 0.91292 0.18282 0.48821 0.0
C1609 C 0.88415 0.17035 0.48971 0.0
C1610 C 0.86564 0.15498 0.47333 0.0
C1611 C 0.87557 0.15186 0.45606 0.0
C1612 C 0.83946 0.17743 0.52619 0.0
C1613 C 0.85304 0.17723 0.54372 0.0
C1614 C 0.84959 0.17539 0.50876 0.0
C1615 C 0.87353 0.17296 0.50832 0.0
C1616 C 0.88708 0.17275 0.52586 0.0
C1617 C 0.87705 0.17494 0.54328 0.0
H1618 H 0.82572 0.73365 0.46238 0.0
H1619 H 0.91434 0.77163 0.47688 0.0
H1620 H 0.8177 0.7164 0.49374 0.0
H1621 H 0.90646 0.75494 0.50854 0.0
H1622 H 0.88178 0.69589 0.55555 0.0
H1623 H 0.89042 0.7146 0.52462 0.0
H1624 H 0.8208 0.72832 0.52686 0.0
H1625 H 0.81185 0.70895 0.55758 0.0
C1626 C 0.84355 0.73874 0.47241 0.0
C1627 C 0.8707 0.75415 0.46708 0.0
C1628 C 0.83896 0.72884 0.49048 0.0
C1629 C 0.86139 0.7342 0.50387 0.0
C1630 C 0.88859 0.74991 0.49859 0.0
C1631 C 0.89316 0.75962 0.48043 0.0
C1632 C 0.86844 0.70309 0.5495 0.0
C1633 C 0.84607 0.70084 0.55909 0.0
C1634 C 0.87345 0.71395 0.53173 0.0
C1635 C 0.85636 0.72308 0.52306 0.0
C1636 C 0.83415 0.72107 0.5328 0.0
C1637 C 0.82902 0.71 0.5505 0.0
loop_
_geom_bond_atom_site_label_1
_geom_bond_atom_site_label_2
_geom_bond_distance
_geom_bond_site_symmetry_2
_ccdc_geom_bond_type
H0 C3 0.929 . S
H1 C6 0.929 . S
H2 C8 0.930 . S
C3 H0 0.929 . S
C3 C4 1.398 . S
C3 C5 1.396 . S
C4 C3 1.398 . S
C4 C8 1.407 . S
C5 C3 1.396 . S
C5 C6 1.394 . S
C6 H1 0.929 . S
C6 C5 1.394 . S
C6 C7 1.382 . S
C7 C6 1.382 . S
C7 C8 1.392 . S
C7 N9 1.420 . S
C8 H2 0.930 . S
C8 C4 1.407 . S
C8 C7 1.392 . S
N9 C7 1.420 . S
N9 C10 1.244 . S
C10 N9 1.244 . S
H11 C14 0.929 . S
H12 C17 0.929 . S
H13 C19 0.930 . S
C14 H11 0.929 . S
C14 C15 1.398 . S
C14 C16 1.396 . S
C15 C14 1.398 . S
C15 C19 1.407 . S
C16 C14 1.396 . S
C16 C17 1.394 . S
C17 H12 0.929 . S
C17 C16 1.394 . S
C17 C18 1.382 . S
C18 C17 1.382 . S
C18 C19 1.392 . S
C18 N20 1.420 . S
C19 H13 0.930 . S
C19 C15 1.407 . S
C19 C18 1.392 . S
N20 C18 1.420 . S
N20 C21 1.244 . S
C21 N20 1.244 . S
H22 C25 0.929 . S
H23 C28 0.929 . S
H24 C30 0.930 . S
C25 H22 0.929 . S
C25 C26 1.398 . S
C25 C27 1.396 . S
C26 C25 1.398 . S
C26 C30 1.407 . S
C27 C25 1.396 . S
C27 C28 1.394 . S
C28 H23 0.929 . S
C28 C27 1.394 . S
C28 C29 1.382 . S
C29 C28 1.382 . S
C29 C30 1.392 . S
C29 N31 1.420 . S
C30 H24 0.930 . S
C30 C26 1.407 . S
C30 C29 1.392 . S
N31 C29 1.420 . S
N31 C32 1.244 . S
C32 N31 1.244 . S
H33 C36 0.929 . S
H34 C39 0.929 . S
H35 C41 0.930 . S
C36 H33 0.929 . S
C36 C37 1.398 . S
C36 C38 1.396 . S
C37 C36 1.398 . S
C37 C41 1.407 . S
C38 C36 1.396 . S
C38 C39 1.394 . S
C39 H34 0.929 . S
C39 C38 1.394 . S
C39 C40 1.382 . S
C40 C39 1.382 . S
C40 C41 1.392 . S
C40 N42 1.420 . S
C41 H35 0.930 . S
C41 C37 1.407 . S
C41 C40 1.392 . S
N42 C40 1.420 . S
N42 C43 1.244 . S
C43 N42 1.244 . S
H44 C47 0.929 . S
H45 C50 0.929 . S
H46 C52 0.930 . S
C47 H44 0.929 . S
C47 C48 1.398 . S
C47 C49 1.396 . S
C48 C47 1.398 . S
C48 C52 1.407 . S
C49 C47 1.396 . S
C49 C50 1.394 . S
C50 H45 0.929 . S
C50 C49 1.394 . S
C50 C51 1.382 . S
C51 C50 1.382 . S
C51 C52 1.392 . S
C51 N53 1.420 . S
C52 H46 0.930 . S
C52 C48 1.407 . S
C52 C51 1.392 . S
N53 C51 1.420 . S
N53 C54 1.244 . S
C54 N53 1.244 . S
H55 C58 0.929 . S
H56 C61 0.929 . S
H57 C63 0.930 . S
C58 H55 0.929 . S
C58 C59 1.398 . S
C58 C60 1.396 . S
C59 C58 1.398 . S
C59 C63 1.407 . S
C60 C58 1.396 . S
C60 C61 1.394 . S
C61 H56 0.929 . S
C61 C60 1.394 . S
C61 C62 1.382 . S
C62 C61 1.382 . S
C62 C63 1.392 . S
C62 N64 1.420 . S
C63 H57 0.930 . S
C63 C59 1.407 . S
C63 C62 1.392 . S
N64 C62 1.420 . S
N64 C65 1.244 . S
C65 N64 1.244 . S
H66 C69 0.929 . S
H67 C72 0.929 . S
H68 C74 0.930 . S
C69 H66 0.929 . S
C69 C70 1.398 . S
C69 C71 1.396 . S
C70 C69 1.398 . S
C70 C74 1.407 . S
C71 C69 1.396 . S
C71 C72 1.394 . S
C72 H67 0.929 . S
C72 C71 1.394 . S
C72 C73 1.382 . S
C73 C72 1.382 . S
C73 C74 1.392 . S
C73 N75 1.420 . S
C74 H68 0.930 . S
C74 C70 1.407 . S
C74 C73 1.392 . S
N75 C73 1.420 . S
N75 C76 1.244 . S
C76 N75 1.244 . S
H77 C80 0.929 . S
H78 C83 0.929 . S
H79 C85 0.930 . S
C80 H77 0.929 . S
C80 C81 1.398 . S
C80 C82 1.396 . S
C81 C80 1.398 . S
C81 C85 1.407 . S
C82 C80 1.396 . S
C82 C83 1.394 . S
C83 H78 0.929 . S
C83 C82 1.394 . S
C83 C84 1.382 . S
C84 C83 1.382 . S
C84 C85 1.392 . S
C84 N86 1.420 . S
C85 H79 0.930 . S
C85 C81 1.407 . S
C85 C84 1.392 . S
N86 C84 1.420 . S
N86 C87 1.244 . S
C87 N86 1.244 . S
H88 C91 0.929 . S
H89 C94 0.929 . S
H90 C96 0.930 . S
C91 H88 0.929 . S
C91 C92 1.398 . S
C91 C93 1.396 . S
C92 C91 1.398 . S
C92 C96 1.407 . S
C93 C91 1.396 . S
C93 C94 1.394 . S
C94 H89 0.929 . S
C94 C93 1.394 . S
C94 C95 1.382 . S
C95 C94 1.382 . S
C95 C96 1.392 . S
C95 N97 1.420 . S
C96 H90 0.930 . S
C96 C92 1.407 . S
C96 C95 1.392 . S
N97 C95 1.420 . S
N97 C98 1.244 . S
C98 N97 1.244 . S
H99 C102 0.929 . S
H100 C105 0.929 . S
H101 C107 0.930 . S
C102 H99 0.929 . S
C102 C103 1.398 . S
C102 C104 1.396 . S
C103 C102 1.398 . S
C103 C107 1.407 . S
C104 C102 1.396 . S
C104 C105 1.394 . S
C105 H100 0.929 . S
C105 C104 1.394 . S
C105 C106 1.382 . S
C106 C105 1.382 . S
C106 C107 1.392 . S
C106 N108 1.420 . S
C107 H101 0.930 . S
C107 C103 1.407 . S
C107 C106 1.392 . S
N108 C106 1.420 . S
N108 C109 1.244 . S
C109 N108 1.244 . S
H110 C113 0.929 . S
H111 C116 0.929 . S
H112 C118 0.930 . S
C113 H110 0.929 . S
C113 C114 1.398 . S
C113 C115 1.396 . S
C114 C113 1.398 . S
C114 C118 1.407 . S
C115 C113 1.396 . S
C115 C116 1.394 . S
C116 H111 0.929 . S
C116 C115 1.394 . S
C116 C117 1.382 . S
C117 C116 1.382 . S
C117 C118 1.392 . S
C117 N119 1.420 . S
C118 H112 0.930 . S
C118 C114 1.407 . S
C118 C117 1.392 . S
N119 C117 1.420 . S
N119 C120 1.244 . S
C120 N119 1.244 . S
H121 C124 0.929 . S
H122 C127 0.929 . S
H123 C129 0.930 . S
C124 H121 0.929 . S
C124 C125 1.398 . S
C124 C126 1.396 . S
C125 C124 1.398 . S
C125 C129 1.407 . S
C126 C124 1.396 . S
C126 C127 1.394 . S
C127 H122 0.929 . S
C127 C126 1.394 . S
C127 C128 1.382 . S
C128 C127 1.382 . S
C128 C129 1.392 . S
C128 N130 1.420 . S
C129 H123 0.930 . S
C129 C125 1.407 . S
C129 C128 1.392 . S
N130 C128 1.420 . S
N130 C131 1.244 . S
C131 N130 1.244 . S
H132 C135 0.929 . S
H133 C138 0.929 . S
H134 C140 0.930 . S
C135 H132 0.929 . S
C135 C136 1.398 . S
C135 C137 1.396 . S
C136 C135 1.398 . S
C136 C140 1.407 . S
C137 C135 1.396 . S
C137 C138 1.394 . S
C138 H133 0.929 . S
C138 C137 1.394 . S
C138 C139 1.382 . S
C139 C138 1.382 . S
C139 C140 1.392 . S
C139 N141 1.420 . S
C140 H134 0.930 . S
C140 C136 1.407 . S
C140 C139 1.392 . S
N141 C139 1.420 . S
N141 C142 1.244 . S
C142 N141 1.244 . S
H143 C146 0.929 . S
H144 C149 0.929 . S
H145 C151 0.930 . S
C146 H143 0.929 . S
C146 C147 1.398 . S
C146 C148 1.396 . S
C147 C146 1.398 . S
C147 C151 1.407 . S
C148 C146 1.396 . S
C148 C149 1.394 . S
C149 H144 0.929 . S
C149 C148 1.394 . S
C149 C150 1.382 . S
C150 C149 1.382 . S
C150 C151 1.392 . S
C150 N152 1.420 . S
C151 H145 0.930 . S
C151 C147 1.407 . S
C151 C150 1.392 . S
N152 C150 1.420 . S
N152 C153 1.244 . S
C153 N152 1.244 . S
H154 C157 0.929 . S
H155 C160 0.929 . S
H156 C162 0.930 . S
C157 H154 0.929 . S
C157 C158 1.398 . S
C157 C159 1.396 . S
C158 C157 1.398 . S
C158 C162 1.407 . S
C159 C157 1.396 . S
C159 C160 1.394 . S
C160 H155 0.929 . S
C160 C159 1.394 . S
C160 C161 1.382 . S
C161 C160 1.382 . S
C161 C162 1.392 . S
C161 N163 1.420 . S
C162 H156 0.930 . S
C162 C158 1.407 . S
C162 C161 1.392 . S
N163 C161 1.420 . S
N163 C164 1.244 . S
C164 N163 1.244 . S
H165 C168 0.929 . S
H166 C171 0.929 . S
H167 C173 0.930 . S
C168 H165 0.929 . S
C168 C169 1.398 . S
C168 C170 1.396 . S
C169 C168 1.398 . S
C169 C173 1.407 . S
C170 C168 1.396 . S
C170 C171 1.394 . S
C171 H166 0.929 . S
C171 C170 1.394 . S
C171 C172 1.382 . S
C172 C171 1.382 . S
C172 C173 1.392 . S
C172 N174 1.420 . S
C173 H167 0.930 . S
C173 C169 1.407 . S
C173 C172 1.392 . S
N174 C172 1.420 . S
N174 C175 1.244 . S
C175 N174 1.244 . S
H176 C179 0.929 . S
H177 C182 0.929 . S
H178 C184 0.930 . S
C179 H176 0.929 . S
C179 C180 1.398 . S
C179 C181 1.396 . S
C180 C179 1.398 . S
C180 C184 1.407 . S
C181 C179 1.396 . S
C181 C182 1.394 . S
C182 H177 0.929 . S
C182 C181 1.394 . S
C182 C183 1.382 . S
C183 C182 1.382 . S
C183 C184 1.392 . S
C183 N185 1.420 . S
C184 H178 0.930 . S
C184 C180 1.407 . S
C184 C183 1.392 . S
N185 C183 1.420 . S
N185 C186 1.244 . S
C186 N185 1.244 . S
H187 C190 0.929 . S
H188 C193 0.929 . S
H189 C195 0.930 . S
C190 H187 0.929 . S
C190 C191 1.398 . S
C190 C192 1.396 . S
C191 C190 1.398 . S
C191 C195 1.407 . S
C192 C190 1.396 . S
C192 C193 1.394 . S
C193 H188 0.929 . S
C193 C192 1.394 . S
C193 C194 1.382 . S
C194 C193 1.382 . S
C194 C195 1.392 . S
C194 N196 1.420 . S
C195 H189 0.930 . S
C195 C191 1.407 . S
C195 C194 1.392 . S
N196 C194 1.420 . S
N196 C197 1.244 . S
C197 N196 1.244 . S
Tb198 C208 2.825 1_565 S
Tb198 O209 2.347 1_565 S
Tb198 O212 2.366 1_565 S
Tb198 O217 2.418 . S
Tb198 O218 2.384 . S
Tb198 O221 2.479 . S
Tb198 O222 2.471 1_565 S
Eu199 O210 2.418 . S
Eu199 O211 2.384 . S
Eu199 O214 2.479 . S
Eu199 O215 2.471 1_545 S
Eu199 O216 2.347 1_545 S
Eu199 O219 2.366 1_545 S
Eu199 C229 2.825 . S
C200 O216 1.259 . S
C200 O217 1.265 1_554 S
C201 O218 1.255 1_554 S
C201 O219 1.265 . S
C202 C204 1.380 1_545 S
C202 C205 1.374 . S
C202 C208 1.507 . S
C203 C204 1.384 1_545 S
C203 C207 1.387 . S
C203 H230 0.930 1_545 S
C204 C202 1.380 1_565 S
C204 C203 1.384 1_565 S
C204 H231 0.931 . S
C205 C202 1.374 . S
C205 C206 1.390 . S
C205 H232 0.930 . S
C206 C205 1.390 . S
C206 C207 1.391 . S
C206 H233 0.930 . S
C207 C203 1.387 . S
C207 C206 1.391 . S
C208 Tb198 2.825 1_545 S
C208 C202 1.507 . S
C208 O221 1.238 1_545 S
C208 O222 1.247 . S
O209 Tb198 2.347 1_545 S
O209 C213 1.259 1_556 S
O210 Eu199 2.418 . S
O210 C213 1.265 . S
O211 Eu199 2.384 . S
O211 C220 1.255 1_554 S
O212 Tb198 2.366 1_545 S
O212 C220 1.265 . S
C213 O209 1.259 1_554 S
C213 O210 1.265 . S
O214 Eu199 2.479 . S
O214 C229 1.238 . S
O215 Eu199 2.471 1_565 S
O215 C229 1.247 1_565 S
O216 Eu199 2.347 1_565 S
O216 C200 1.259 . S
O217 Tb198 2.418 . S
O217 C200 1.265 1_556 S
O218 Tb198 2.384 . S
O218 C201 1.255 1_556 S
O219 Eu199 2.366 1_565 S
O219 C201 1.265 . S
C220 O211 1.255 1_556 S
C220 O212 1.265 . S
O221 Tb198 2.479 . S
O221 C208 1.238 1_565 S
O222 Tb198 2.471 1_545 S
O222 C208 1.247 . S
C223 C226 1.380 1_565 S
C223 C227 1.374 . S
C223 C229 1.507 1_565 S
C224 C225 1.387 1_565 S
C224 C228 1.391 . S
C225 C224 1.387 1_545 S
C225 C226 1.384 . S
C225 H234 0.930 . S
C226 C223 1.380 1_545 S
C226 C225 1.384 . S
C226 H235 0.931 . S
C227 C223 1.374 . S
C227 C228 1.390 . S
C227 H236 0.930 . S
C228 C224 1.391 . S
C228 C227 1.390 . S
C228 H237 0.930 . S
C229 Eu199 2.825 . S
C229 O214 1.238 . S
C229 O215 1.247 1_545 S
C229 C223 1.507 1_545 S
H230 C203 0.930 1_565 S
H231 C204 0.931 . S
H232 C205 0.930 . S
H233 C206 0.930 . S
H234 C225 0.930 . S
H235 C226 0.931 . S
H236 C227 0.930 . S
H237 C228 0.930 . S
Tb238 C248 2.827 1_455 S
Tb238 O249 2.347 1_455 S
Tb238 O252 2.366 1_455 S
Tb238 O257 2.418 . S
Tb238 O258 2.384 1_556 S
Tb238 O261 2.479 . S
Tb238 O262 2.471 1_455 S
Eu239 O250 2.418 . S
Eu239 O251 2.384 . S
Eu239 O254 2.479 . S
Eu239 O255 2.471 1_655 S
Eu239 O256 2.347 1_655 S
Eu239 O259 2.366 1_655 S
Eu239 C269 2.825 1_655 S
C240 O256 1.259 . S
C240 O257 1.265 1_554 S
C241 O258 1.255 . S
C241 O259 1.265 . S
C242 C244 1.380 1_655 S
C242 C245 1.374 . S
C242 C248 1.505 . S
C243 C244 1.384 1_655 S
C243 C247 1.387 . S
C243 H270 0.930 1_655 S
C244 C242 1.380 1_455 S
C244 C243 1.384 1_455 S
C244 H271 0.931 . S
C245 C242 1.374 . S
C245 C246 1.390 . S
C245 H272 0.930 . S
C246 C245 1.390 . S
C246 C247 1.391 . S
C246 H273 0.930 . S
C247 C243 1.387 . S
C247 C246 1.391 . S
C248 Tb238 2.827 1_655 S
C248 C242 1.505 . S
C248 O261 1.240 1_655 S
C248 O262 1.247 . S
O249 Tb238 2.347 1_655 S
O249 C253 1.259 1_556 S
O250 Eu239 2.418 . S
O250 C253 1.265 . S
O251 Eu239 2.384 . S
O251 C260 1.255 1_554 S
O252 Tb238 2.366 1_655 S
O252 C260 1.265 . S
C253 O249 1.259 1_554 S
C253 O250 1.265 . S
O254 Eu239 2.479 . S
O254 C269 1.238 1_655 S
O255 Eu239 2.471 1_455 S
O255 C269 1.247 . S
O256 Eu239 2.347 1_455 S
O256 C240 1.259 . S
O257 Tb238 2.418 . S
O257 C240 1.265 1_556 S
O258 Tb238 2.384 1_554 S
O258 C241 1.255 . S
O259 Eu239 2.366 1_455 S
O259 C241 1.265 . S
C260 O251 1.255 1_556 S
C260 O252 1.265 . S
O261 Tb238 2.479 . S
O261 C248 1.240 1_455 S
O262 Tb238 2.471 1_655 S
O262 C248 1.247 . S
C263 C266 1.379 1_455 S
C263 C267 1.374 . S
C263 C269 1.507 . S
C264 C265 1.387 . S
C264 C268 1.391 . S
C265 C264 1.387 . S
C265 C266 1.383 1_455 S
C265 H274 0.919 1_455 S
C266 C263 1.379 1_655 S
C266 C265 1.383 1_655 S
C266 H275 0.932 . S
C267 C263 1.374 . S
C267 C268 1.390 . S
C267 H276 0.930 . S
C268 C264 1.391 . S
C268 C267 1.390 . S
C268 H277 0.930 . S
C269 Eu239 2.825 1_455 S
C269 O254 1.238 1_455 S
C269 O255 1.247 . S
C269 C263 1.507 . S
H270 C243 0.930 1_455 S
H271 C244 0.931 . S
H272 C245 0.930 . S
H273 C246 0.930 . S
H274 C265 0.919 1_655 S
H275 C266 0.932 . S
H276 C267 0.930 . S
H277 C268 0.930 . S
Tb278 C288 2.825 . S
Tb278 O289 2.347 . S
Tb278 O292 2.366 . S
Tb278 O297 2.418 . S
Tb278 O298 2.384 . S
Tb278 O301 2.479 . S
Tb278 O302 2.471 . S
Eu279 O290 2.418 . S
Eu279 O291 2.384 1_556 S
Eu279 O294 2.479 . S
Eu279 O295 2.471 . S
Eu279 O296 2.343 1_556 S
Eu279 O299 2.366 . S
Eu279 C309 2.825 . S
C280 O296 1.263 . S
C280 O297 1.265 . S
C281 O298 1.255 1_556 S
C281 O299 1.265 . S
C282 C284 1.380 . S
C282 C285 1.374 . S
C282 C288 1.507 . S
C283 C284 1.384 . S
C283 C287 1.387 . S
C283 H310 0.930 . S
C284 C282 1.380 . S
C284 C283 1.384 . S
C284 H311 0.931 . S
C285 C282 1.374 . S
C285 C286 1.390 . S
C285 H312 0.930 . S
C286 C285 1.390 . S
C286 C287 1.391 . S
C286 H313 0.930 . S
C287 C283 1.387 . S
C287 C286 1.391 . S
C288 Tb278 2.825 . S
C288 C282 1.507 . S
C288 O301 1.238 . S
C288 O302 1.247 . S
O289 Tb278 2.347 . S
O289 C293 1.259 . S
O290 Eu279 2.418 . S
O290 C293 1.265 1_556 S
O291 Eu279 2.384 1_554 S
O291 C300 1.255 . S
O292 Tb278 2.366 . S
O292 C300 1.265 . S
C293 O289 1.259 . S
C293 O290 1.265 1_554 S
O294 Eu279 2.479 . S
O294 C309 1.238 . S
O295 Eu279 2.471 . S
O295 C309 1.247 . S
O296 Eu279 2.343 1_554 S
O296 C280 1.263 . S
O297 Tb278 2.418 . S
O297 C280 1.265 . S
O298 Tb278 2.384 . S
O298 C281 1.255 1_554 S
O299 Eu279 2.366 . S
O299 C281 1.265 . S
C300 O291 1.255 . S
C300 O292 1.265 . S
O301 Tb278 2.479 . S
O301 C288 1.238 . S
O302 Tb278 2.471 . S
O302 C288 1.247 . S
C303 C306 1.380 . S
C303 C307 1.374 . S
C303 C309 1.507 . S
C304 C305 1.387 . S
C304 C308 1.391 . S
C305 C304 1.387 . S
C305 C306 1.384 . S
C305 H314 0.930 . S
C306 C303 1.380 . S
C306 C305 1.384 . S
C306 H315 0.931 . S
C307 C303 1.374 . S
C307 C308 1.390 . S
C307 H316 0.930 . S
C308 C304 1.391 . S
C308 C307 1.390 . S
C308 H317 0.930 . S
C309 Eu279 2.825 . S
C309 O294 1.238 . S
C309 O295 1.247 . S
C309 C303 1.507 . S
H310 C283 0.930 . S
H311 C284 0.931 . S
H312 C285 0.930 . S
H313 C286 0.930 . S
H314 C305 0.930 . S
H315 C306 0.931 . S
H316 C307 0.930 . S
H317 C308 0.930 . S
Tb318 C328 2.825 . S
Tb318 O329 2.347 . S
Tb318 O332 2.366 . S
Tb318 O337 2.418 . S
Tb318 O338 2.384 . S
Tb318 O341 2.479 . S
Tb318 O342 2.471 . S
Eu319 O330 2.418 . S
Eu319 O331 2.384 . S
Eu319 O334 2.479 . S
Eu319 O335 2.471 . S
Eu319 O336 2.347 . S
Eu319 O339 2.366 . S
Eu319 C349 2.825 . S
C320 O336 1.259 . S
C320 O337 1.265 . S
C321 O338 1.255 . S
C321 O339 1.265 . S
C322 C324 1.380 . S
C322 C325 1.374 . S
C322 C328 1.507 . S
C323 C324 1.384 . S
C323 C327 1.387 . S
C323 H350 0.930 . S
C324 C322 1.380 . S
C324 C323 1.384 . S
C324 H351 0.931 . S
C325 C322 1.374 . S
C325 C326 1.390 . S
C325 H352 0.930 . S
C326 C325 1.390 . S
C326 C327 1.391 . S
C326 H353 0.930 . S
C327 C323 1.387 . S
C327 C326 1.391 . S
C328 Tb318 2.825 . S
C328 C322 1.507 . S
C328 O341 1.238 . S
C328 O342 1.247 . S
O329 Tb318 2.347 . S
O329 C333 1.259 . S
O330 Eu319 2.418 . S
O330 C333 1.265 . S
O331 Eu319 2.384 . S
O331 C340 1.255 . S
O332 Tb318 2.366 . S
O332 C340 1.265 . S
C333 O329 1.259 . S
C333 O330 1.265 . S
O334 Eu319 2.479 . S
O334 C349 1.238 . S
O335 Eu319 2.471 . S
O335 C349 1.247 . S
O336 Eu319 2.347 . S
O336 C320 1.259 . S
O337 Tb318 2.418 . S
O337 C320 1.265 . S
O338 Tb318 2.384 . S
O338 C321 1.255 . S
O339 Eu319 2.366 . S
O339 C321 1.265 . S
C340 O331 1.255 . S
C340 O332 1.265 . S
O341 Tb318 2.479 . S
O341 C328 1.238 . S
O342 Tb318 2.471 . S
O342 C328 1.247 . S
C343 C346 1.380 . S
C343 C347 1.374 . S
C343 C349 1.507 . S
C344 C345 1.387 . S
C344 C348 1.391 . S
C345 C344 1.387 . S
C345 C346 1.384 . S
C345 H354 0.930 . S
C346 C343 1.380 . S
C346 C345 1.384 . S
C346 H355 0.931 . S
C347 C343 1.374 . S
C347 C348 1.390 . S
C347 H356 0.930 . S
C348 C344 1.391 . S
C348 C347 1.390 . S
C348 H357 0.930 . S
C349 Eu319 2.825 . S
C349 O334 1.238 . S
C349 O335 1.247 . S
C349 C343 1.507 . S
H350 C323 0.930 . S
H351 C324 0.931 . S
H352 C325 0.930 . S
H353 C326 0.930 . S
H354 C345 0.930 . S
H355 C346 0.931 . S
H356 C347 0.930 . S
H357 C348 0.930 . S
Tb358 C368 2.825 . S
Tb358 O369 2.347 . S
Tb358 O372 2.366 . S
Tb358 O377 2.418 . S
Tb358 O378 2.384 . S
Tb358 O381 2.479 . S
Tb358 O382 2.471 . S
Eu359 O370 2.418 . S
Eu359 O371 2.384 . S
Eu359 O374 2.479 . S
Eu359 O375 2.471 . S
Eu359 O376 2.347 . S
Eu359 O379 2.366 . S
Eu359 C389 2.825 . S
C360 O376 1.259 . S
C360 O377 1.265 . S
C361 O378 1.255 . S
C361 O379 1.265 . S
C362 C364 1.380 . S
C362 C365 1.374 . S
C362 C368 1.507 . S
C363 C364 1.384 . S
C363 C367 1.387 . S
C363 H390 0.930 . S
C364 C362 1.380 . S
C364 C363 1.384 . S
C364 H391 0.931 . S
C365 C362 1.374 . S
C365 C366 1.390 . S
C365 H392 0.930 . S
C366 C365 1.390 . S
C366 C367 1.391 . S
C366 H393 0.930 . S
C367 C363 1.387 . S
C367 C366 1.391 . S
C368 Tb358 2.825 . S
C368 C362 1.507 . S
C368 O381 1.238 . S
C368 O382 1.247 . S
O369 Tb358 2.347 . S
O369 C373 1.259 . S
O370 Eu359 2.418 . S
O370 C373 1.265 . S
O371 Eu359 2.384 . S
O371 C380 1.255 . S
O372 Tb358 2.366 . S
O372 C380 1.265 . S
C373 O369 1.259 . S
C373 O370 1.265 . S
O374 Eu359 2.479 . S
O374 C389 1.238 . S
O375 Eu359 2.471 . S
O375 C389 1.247 . S
O376 Eu359 2.347 . S
O376 C360 1.259 . S
O377 Tb358 2.418 . S
O377 C360 1.265 . S
O378 Tb358 2.384 . S
O378 C361 1.255 . S
O379 Eu359 2.366 . S
O379 C361 1.265 . S
C380 O371 1.255 . S
C380 O372 1.265 . S
O381 Tb358 2.479 . S
O381 C368 1.238 . S
O382 Tb358 2.471 . S
O382 C368 1.247 . S
C383 C386 1.380 . S
C383 C387 1.374 . S
C383 C389 1.507 . S
C384 C385 1.387 . S
C384 C388 1.391 . S
C385 C384 1.387 . S
C385 C386 1.384 . S
C385 H394 0.930 . S
C386 C383 1.380 . S
C386 C385 1.384 . S
C386 H395 0.931 . S
C387 C383 1.374 . S
C387 C388 1.390 . S
C387 H396 0.930 . S
C388 C384 1.391 . S
C388 C387 1.390 . S
C388 H397 0.930 . S
C389 Eu359 2.825 . S
C389 O374 1.238 . S
C389 O375 1.247 . S
C389 C383 1.507 . S
H390 C363 0.930 . S
H391 C364 0.931 . S
H392 C365 0.930 . S
H393 C366 0.930 . S
H394 C385 0.930 . S
H395 C386 0.931 . S
H396 C387 0.930 . S
H397 C388 0.930 . S
Tb398 C408 2.825 . S
Tb398 O409 2.347 . S
Tb398 O412 2.366 . S
Tb398 O417 2.418 . S
Tb398 O418 2.384 . S
Tb398 O421 2.479 . S
Tb398 O422 2.471 . S
Eu399 O410 2.418 . S
Eu399 O411 2.384 . S
Eu399 O414 2.479 . S
Eu399 O415 2.471 . S
Eu399 O416 2.347 . S
Eu399 O419 2.366 . S
Eu399 C429 2.825 . S
C400 O416 1.259 . S
C400 O417 1.265 . S
C401 O418 1.255 . S
C401 O419 1.265 . S
C402 C404 1.380 . S
C402 C405 1.374 . S
C402 C408 1.507 . S
C403 C404 1.384 . S
C403 C407 1.387 . S
C403 H430 0.930 . S
C404 C402 1.380 . S
C404 C403 1.384 . S
C404 H431 0.931 . S
C405 C402 1.374 . S
C405 C406 1.390 . S
C405 H432 0.930 . S
C406 C405 1.390 . S
C406 C407 1.391 . S
C406 H433 0.930 . S
C407 C403 1.387 . S
C407 C406 1.391 . S
C408 Tb398 2.825 . S
C408 C402 1.507 . S
C408 O421 1.238 . S
C408 O422 1.247 . S
O409 Tb398 2.347 . S
O409 C413 1.259 . S
O410 Eu399 2.418 . S
O410 C413 1.265 . S
O411 Eu399 2.384 . S
O411 C420 1.255 . S
O412 Tb398 2.366 . S
O412 C420 1.265 . S
C413 O409 1.259 . S
C413 O410 1.265 . S
O414 Eu399 2.479 . S
O414 C429 1.238 . S
O415 Eu399 2.471 . S
O415 C429 1.247 . S
O416 Eu399 2.347 . S
O416 C400 1.259 . S
O417 Tb398 2.418 . S
O417 C400 1.265 . S
O418 Tb398 2.384 . S
O418 C401 1.255 . S
O419 Eu399 2.366 . S
O419 C401 1.265 . S
C420 O411 1.255 . S
C420 O412 1.265 . S
O421 Tb398 2.479 . S
O421 C408 1.238 . S
O422 Tb398 2.471 . S
O422 C408 1.247 . S
C423 C426 1.380 . S
C423 C427 1.374 . S
C423 C429 1.507 . S
C424 C425 1.387 . S
C424 C428 1.391 . S
C425 C424 1.387 . S
C425 C426 1.384 . S
C425 H434 0.930 . S
C426 C423 1.380 . S
C426 C425 1.384 . S
C426 H435 0.931 . S
C427 C423 1.374 . S
C427 C428 1.390 . S
C427 H436 0.930 . S
C428 C424 1.391 . S
C428 C427 1.390 . S
C428 H437 0.930 . S
C429 Eu399 2.825 . S
C429 O414 1.238 . S
C429 O415 1.247 . S
C429 C423 1.507 . S
H430 C403 0.930 . S
H431 C404 0.931 . S
H432 C405 0.930 . S
H433 C406 0.930 . S
H434 C425 0.930 . S
H435 C426 0.931 . S
H436 C427 0.930 . S
H437 C428 0.930 . S
Tb438 C448 2.825 . S
Tb438 O449 2.347 . S
Tb438 O452 2.366 . S
Tb438 O457 2.418 . S
Tb438 O458 2.384 . S
Tb438 O461 2.479 . S
Tb438 O462 2.471 . S
Eu439 O450 2.418 . S
Eu439 O451 2.384 . S
Eu439 O454 2.479 . S
Eu439 O455 2.471 . S
Eu439 O456 2.347 . S
Eu439 O459 2.366 . S
Eu439 C469 2.825 . S
C440 O456 1.259 . S
C440 O457 1.265 . S
C441 O458 1.255 . S
C441 O459 1.265 . S
C442 C444 1.380 . S
C442 C445 1.374 . S
C442 C448 1.507 . S
C443 C444 1.384 . S
C443 C447 1.387 . S
C443 H470 0.930 . S
C444 C442 1.380 . S
C444 C443 1.384 . S
C444 H471 0.931 . S
C445 C442 1.374 . S
C445 C446 1.390 . S
C445 H472 0.930 . S
C446 C445 1.390 . S
C446 C447 1.391 . S
C446 H473 0.930 . S
C447 C443 1.387 . S
C447 C446 1.391 . S
C448 Tb438 2.825 . S
C448 C442 1.507 . S
C448 O461 1.238 . S
C448 O462 1.247 . S
O449 Tb438 2.347 . S
O449 C453 1.259 . S
O450 Eu439 2.418 . S
O450 C453 1.265 . S
O451 Eu439 2.384 . S
O451 C460 1.255 . S
O452 Tb438 2.366 . S
O452 C460 1.265 . S
C453 O449 1.259 . S
C453 O450 1.265 . S
O454 Eu439 2.479 . S
O454 C469 1.238 . S
O455 Eu439 2.471 . S
O455 C469 1.247 . S
O456 Eu439 2.347 . S
O456 C440 1.259 . S
O457 Tb438 2.418 . S
O457 C440 1.265 . S
O458 Tb438 2.384 . S
O458 C441 1.255 . S
O459 Eu439 2.366 . S
O459 C441 1.265 . S
C460 O451 1.255 . S
C460 O452 1.265 . S
O461 Tb438 2.479 . S
O461 C448 1.238 . S
O462 Tb438 2.471 . S
O462 C448 1.247 . S
C463 C466 1.380 . S
C463 C467 1.374 . S
C463 C469 1.507 . S
C464 C465 1.387 . S
C464 C468 1.391 . S
C465 C464 1.387 . S
C465 C466 1.384 . S
C465 H474 0.930 . S
C466 C463 1.380 . S
C466 C465 1.384 . S
C466 H475 0.931 . S
C467 C463 1.374 . S
C467 C468 1.390 . S
C467 H476 0.930 . S
C468 C464 1.391 . S
C468 C467 1.390 . S
C468 H477 0.930 . S
C469 Eu439 2.825 . S
C469 O454 1.238 . S
C469 O455 1.247 . S
C469 C463 1.507 . S
H470 C443 0.930 . S
H471 C444 0.931 . S
H472 C445 0.930 . S
H473 C446 0.930 . S
H474 C465 0.930 . S
H475 C466 0.931 . S
H476 C467 0.930 . S
H477 C468 0.930 . S
Tb478 C488 2.825 . S
Tb478 O489 2.347 . S
Tb478 O492 2.366 . S
Tb478 O497 2.418 . S
Tb478 O498 2.384 . S
Tb478 O501 2.479 . S
Tb478 O502 2.471 . S
Eu479 O490 2.418 . S
Eu479 O491 2.384 . S
Eu479 O494 2.479 . S
Eu479 O495 2.471 . S
Eu479 O496 2.347 . S
Eu479 O499 2.366 . S
Eu479 C509 2.825 . S
C480 O496 1.259 . S
C480 O497 1.265 . S
C481 O498 1.255 . S
C481 O499 1.265 . S
C482 C484 1.380 . S
C482 C485 1.374 . S
C482 C488 1.507 . S
C483 C484 1.384 . S
C483 C487 1.387 . S
C483 H510 0.930 . S
C484 C482 1.380 . S
C484 C483 1.384 . S
C484 H511 0.931 . S
C485 C482 1.374 . S
C485 C486 1.390 . S
C485 H512 0.930 . S
C486 C485 1.390 . S
C486 C487 1.391 . S
C486 H513 0.930 . S
C487 C483 1.387 . S
C487 C486 1.391 . S
C488 Tb478 2.825 . S
C488 C482 1.507 . S
C488 O501 1.238 . S
C488 O502 1.247 . S
O489 Tb478 2.347 . S
O489 C493 1.259 . S
O490 Eu479 2.418 . S
O490 C493 1.265 . S
O491 Eu479 2.384 . S
O491 C500 1.255 . S
O492 Tb478 2.366 . S
O492 C500 1.265 . S
C493 O489 1.259 . S
C493 O490 1.265 . S
O494 Eu479 2.479 . S
O494 C509 1.238 . S
O495 Eu479 2.471 . S
O495 C509 1.247 . S
O496 Eu479 2.347 . S
O496 C480 1.259 . S
O497 Tb478 2.418 . S
O497 C480 1.265 . S
O498 Tb478 2.384 . S
O498 C481 1.255 . S
O499 Eu479 2.366 . S
O499 C481 1.265 . S
C500 O491 1.255 . S
C500 O492 1.265 . S
O501 Tb478 2.479 . S
O501 C488 1.238 . S
O502 Tb478 2.471 . S
O502 C488 1.247 . S
C503 C506 1.380 . S
C503 C507 1.374 . S
C503 C509 1.507 . S
C504 C505 1.387 . S
C504 C508 1.391 . S
C505 C504 1.387 . S
C505 C506 1.384 . S
C505 H514 0.930 . S
C506 C503 1.380 . S
C506 C505 1.384 . S
C506 H515 0.931 . S
C507 C503 1.374 . S
C507 C508 1.390 . S
C507 H516 0.930 . S
C508 C504 1.391 . S
C508 C507 1.390 . S
C508 H517 0.930 . S
C509 Eu479 2.825 . S
C509 O494 1.238 . S
C509 O495 1.247 . S
C509 C503 1.507 . S
H510 C483 0.930 . S
H511 C484 0.931 . S
H512 C485 0.930 . S
H513 C486 0.930 . S
H514 C505 0.930 . S
H515 C506 0.931 . S
H516 C507 0.930 . S
H517 C508 0.930 . S
Tb518 C528 2.825 . S
Tb518 O529 2.347 . S
Tb518 O532 2.366 . S
Tb518 O537 2.418 . S
Tb518 O538 2.384 . S
Tb518 O541 2.479 . S
Tb518 O542 2.471 . S
Eu519 O530 2.418 . S
Eu519 O531 2.384 . S
Eu519 O534 2.479 . S
Eu519 O535 2.471 . S
Eu519 O536 2.347 . S
Eu519 O539 2.366 . S
Eu519 C549 2.825 . S
C520 O536 1.259 . S
C520 O537 1.265 . S
C521 O538 1.255 . S
C521 O539 1.265 . S
C522 C524 1.380 . S
C522 C525 1.374 . S
C522 C528 1.507 . S
C523 C524 1.384 . S
C523 C527 1.387 . S
C523 H550 0.930 . S
C524 C522 1.380 . S
C524 C523 1.384 . S
C524 H551 0.931 . S
C525 C522 1.374 . S
C525 C526 1.390 . S
C525 H552 0.930 . S
C526 C525 1.390 . S
C526 C527 1.391 . S
C526 H553 0.930 . S
C527 C523 1.387 . S
C527 C526 1.391 . S
C528 Tb518 2.825 . S
C528 C522 1.507 . S
C528 O541 1.238 . S
C528 O542 1.247 . S
O529 Tb518 2.347 . S
O529 C533 1.259 . S
O530 Eu519 2.418 . S
O530 C533 1.265 . S
O531 Eu519 2.384 . S
O531 C540 1.255 . S
O532 Tb518 2.366 . S
O532 C540 1.265 . S
C533 O529 1.259 . S
C533 O530 1.265 . S
O534 Eu519 2.479 . S
O534 C549 1.238 . S
O535 Eu519 2.471 . S
O535 C549 1.247 . S
O536 Eu519 2.347 . S
O536 C520 1.259 . S
O537 Tb518 2.418 . S
O537 C520 1.265 . S
O538 Tb518 2.384 . S
O538 C521 1.255 . S
O539 Eu519 2.366 . S
O539 C521 1.265 . S
C540 O531 1.255 . S
C540 O532 1.265 . S
O541 Tb518 2.479 . S
O541 C528 1.238 . S
O542 Tb518 2.471 . S
O542 C528 1.247 . S
C543 C546 1.380 . S
C543 C547 1.374 . S
C543 C549 1.507 . S
C544 C545 1.387 . S
C544 C548 1.391 . S
C545 C544 1.387 . S
C545 C546 1.384 . S
C545 H554 0.930 . S
C546 C543 1.380 . S
C546 C545 1.384 . S
C546 H555 0.931 . S
C547 C543 1.374 . S
C547 C548 1.390 . S
C547 H556 0.930 . S
C548 C544 1.391 . S
C548 C547 1.390 . S
C548 H557 0.930 . S
C549 Eu519 2.825 . S
C549 O534 1.238 . S
C549 O535 1.247 . S
C549 C543 1.507 . S
H550 C523 0.930 . S
H551 C524 0.931 . S
H552 C525 0.930 . S
H553 C526 0.930 . S
H554 C545 0.930 . S
H555 C546 0.931 . S
H556 C547 0.930 . S
H557 C548 0.930 . S
H558 C566 0.950 . S
H559 C571 0.950 . S
H560 C568 0.950 . S
H561 C570 0.950 . S
H562 C572 0.950 1_556 S
H563 C574 0.950 . S
H564 C576 0.950 . S
H565 C577 0.950 . S
C566 H558 0.950 . S
C566 C567 1.386 . S
C566 C568 1.391 . S
C567 C566 1.386 . S
C567 C571 1.393 . S
C568 H560 0.950 . S
C568 C566 1.391 . S
C568 C569 1.400 . S
C569 C568 1.400 . S
C569 C570 1.398 . S
C569 C575 1.491 . S
C570 H561 0.950 . S
C570 C569 1.398 . S
C570 C571 1.391 . S
C571 H559 0.950 . S
C571 C567 1.393 . S
C571 C570 1.391 . S
C572 H562 0.950 1_554 S
C572 C573 1.386 . S
C572 C574 1.391 . S
C573 C572 1.386 . S
C573 C577 1.393 . S
C574 H563 0.950 . S
C574 C572 1.391 . S
C574 C575 1.400 . S
C575 C569 1.491 . S
C575 C574 1.400 . S
C575 C576 1.398 . S
C576 H564 0.950 . S
C576 C575 1.398 . S
C576 C577 1.391 . S
C577 H565 0.950 . S
C577 C573 1.393 . S
C577 C576 1.391 . S
H578 C586 0.950 . S
H579 C591 0.950 . S
H580 C588 0.950 . S
H581 C590 0.950 . S
H582 C592 0.950 . S
H583 C594 0.950 . S
H584 C596 0.950 . S
H585 C597 0.950 . S
C586 H578 0.950 . S
C586 C587 1.386 . S
C586 C588 1.391 . S
C587 C586 1.386 . S
C587 C591 1.393 . S
C588 H580 0.950 . S
C588 C586 1.391 . S
C588 C589 1.400 . S
C589 C588 1.400 . S
C589 C590 1.398 . S
C589 C595 1.491 . S
C590 H581 0.950 . S
C590 C589 1.398 . S
C590 C591 1.391 . S
C591 H579 0.950 . S
C591 C587 1.393 . S
C591 C590 1.391 . S
C592 H582 0.950 . S
C592 C593 1.386 . S
C592 C594 1.391 . S
C593 C592 1.386 . S
C593 C597 1.393 . S
C594 H583 0.950 . S
C594 C592 1.391 . S
C594 C595 1.400 . S
C595 C589 1.491 . S
C595 C594 1.400 . S
C595 C596 1.398 . S
C596 H584 0.950 . S
C596 C595 1.398 . S
C596 C597 1.391 . S
C597 H585 0.950 . S
C597 C593 1.393 . S
C597 C596 1.391 . S
H598 C606 0.950 . S
H599 C611 0.950 . S
H600 C608 0.950 . S
H601 C610 0.950 . S
H602 C612 0.950 . S
H603 C614 0.950 . S
H604 C616 0.950 . S
H605 C617 0.950 . S
C606 H598 0.950 . S
C606 C607 1.386 . S
C606 C608 1.391 . S
C607 C606 1.386 . S
C607 C611 1.393 . S
C608 H600 0.950 . S
C608 C606 1.391 . S
C608 C609 1.400 . S
C609 C608 1.400 . S
C609 C610 1.398 . S
C609 C615 1.491 . S
C610 H601 0.950 . S
C610 C609 1.398 . S
C610 C611 1.391 . S
C611 H599 0.950 . S
C611 C607 1.393 . S
C611 C610 1.391 . S
C612 H602 0.950 . S
C612 C613 1.386 . S
C612 C614 1.391 . S
C613 C612 1.386 . S
C613 C617 1.393 . S
C614 H603 0.950 . S
C614 C612 1.391 . S
C614 C615 1.400 . S
C615 C609 1.491 . S
C615 C614 1.400 . S
C615 C616 1.398 . S
C616 H604 0.950 . S
C616 C615 1.398 . S
C616 C617 1.391 . S
C617 H605 0.950 . S
C617 C613 1.393 . S
C617 C616 1.391 . S
H618 C626 0.950 . S
H619 C631 0.950 . S
H620 C628 0.950 . S
H621 C630 0.950 1_554 S
H622 C632 0.950 . S
H623 C634 0.950 . S
H624 C636 0.950 . S
H625 C637 0.950 . S
C626 H618 0.950 . S
C626 C627 1.386 . S
C626 C628 1.391 . S
C627 C626 1.386 . S
C627 C631 1.393 . S
C628 H620 0.950 . S
C628 C626 1.391 . S
C628 C629 1.400 . S
C629 C628 1.400 . S
C629 C630 1.398 . S
C629 C635 1.491 . S
C630 H621 0.950 1_556 S
C630 C629 1.398 . S
C630 C631 1.391 . S
C631 H619 0.950 . S
C631 C627 1.393 . S
C631 C630 1.391 . S
C632 H622 0.950 . S
C632 C633 1.386 1_554 S
C632 C634 1.391 . S
C633 C632 1.386 1_556 S
C633 C637 1.393 . S
C634 H623 0.950 . S
C634 C632 1.391 . S
C634 C635 1.400 1_554 S
C635 C629 1.491 . S
C635 C634 1.400 1_556 S
C635 C636 1.398 . S
C636 H624 0.950 . S
C636 C635 1.398 . S
C636 C637 1.391 . S
C637 H625 0.950 . S
C637 C633 1.393 . S
C637 C636 1.391 . S
H638 C646 0.950 . S
H639 C651 0.950 . S
H640 C648 0.950 . S
H641 C650 0.950 . S
H642 C652 0.950 1_554 S
H643 C654 0.950 . S
H644 C656 0.950 . S
H645 C657 0.950 . S
C646 H638 0.950 . S
C646 C647 1.386 . S
C646 C648 1.391 . S
C647 C646 1.386 . S
C647 C651 1.393 . S
C648 H640 0.950 . S
C648 C646 1.391 . S
C648 C649 1.400 . S
C649 C648 1.400 . S
C649 C650 1.398 . S
C649 C655 1.491 . S
C650 H641 0.950 . S
C650 C649 1.398 . S
C650 C651 1.391 . S
C651 H639 0.950 . S
C651 C647 1.393 . S
C651 C650 1.391 . S
C652 H642 0.950 1_556 S
C652 C653 1.386 . S
C652 C654 1.391 . S
C653 C652 1.386 . S
C653 C657 1.393 . S
C654 H643 0.950 . S
C654 C652 1.391 . S
C654 C655 1.400 . S
C655 C649 1.491 . S
C655 C654 1.400 . S
C655 C656 1.398 . S
C656 H644 0.950 . S
C656 C655 1.398 . S
C656 C657 1.391 . S
C657 H645 0.950 . S
C657 C653 1.393 . S
C657 C656 1.391 . S
H658 C666 0.950 . S
H659 C671 0.950 . S
H660 C668 0.950 1_554 S
H661 C670 0.950 . S
H662 C672 0.950 . S
H663 C674 0.950 . S
H664 C676 0.950 . S
H665 C677 0.950 . S
C666 H658 0.950 . S
C666 C667 1.386 . S
C666 C668 1.391 . S
C667 C666 1.386 . S
C667 C671 1.393 . S
C668 H660 0.950 1_556 S
C668 C666 1.391 . S
C668 C669 1.400 . S
C669 C668 1.400 . S
C669 C670 1.398 . S
C669 C675 1.491 . S
C670 H661 0.950 . S
C670 C669 1.398 . S
C670 C671 1.391 . S
C671 H659 0.950 . S
C671 C667 1.393 . S
C671 C670 1.391 . S
C672 H662 0.950 . S
C672 C673 1.420 . S
C672 C674 1.391 . S
C673 C672 1.420 . S
C673 C677 1.370 1_556 S
C674 H663 0.950 . S
C674 C672 1.391 . S
C674 C675 1.400 . S
C675 C669 1.491 . S
C675 C674 1.400 . S
C675 C676 1.398 1_556 S
C676 H664 0.950 . S
C676 C675 1.398 1_554 S
C676 C677 1.391 . S
C677 H665 0.950 . S
C677 C673 1.370 1_554 S
C677 C676 1.391 . S
H678 C686 0.950 . S
H679 C691 0.950 . S
H680 C688 0.950 . S
H681 C690 0.955 1_554 S
H682 C692 0.950 . S
H683 C694 0.950 1_554 S
H684 C696 0.950 . S
H685 C697 0.950 . S
C686 H678 0.950 . S
C686 C687 1.386 . S
C686 C688 1.391 . S
C687 C686 1.386 . S
C687 C691 1.393 . S
C688 H680 0.950 . S
C688 C686 1.391 . S
C688 C689 1.400 . S
C689 C688 1.400 . S
C689 C690 1.398 . S
C689 C695 1.491 . S
C690 H681 0.955 1_556 S
C690 C689 1.398 . S
C690 C691 1.391 . S
C691 H679 0.950 . S
C691 C687 1.393 . S
C691 C690 1.391 . S
C692 H682 0.950 . S
C692 C693 1.386 1_554 S
C692 C694 1.391 1_554 S
C693 C692 1.386 1_556 S
C693 C697 1.393 . S
C694 H683 0.950 1_556 S
C694 C692 1.391 1_556 S
C694 C695 1.400 . S
C695 C689 1.491 . S
C695 C694 1.400 . S
C695 C696 1.398 . S
C696 H684 0.950 . S
C696 C695 1.398 . S
C696 C697 1.391 . S
C697 H685 0.950 . S
C697 C693 1.393 . S
C697 C696 1.391 . S
H698 C706 0.950 . S
H699 C711 0.950 . S
H700 C708 0.950 . S
H701 C710 0.950 . S
H702 C712 0.950 . S
H703 C714 0.950 . S
H704 C716 0.950 . S
H705 C717 0.950 . S
C706 H698 0.950 . S
C706 C707 1.386 . S
C706 C708 1.391 . S
C707 C706 1.386 . S
C707 C711 1.393 . S
C708 H700 0.950 . S
C708 C706 1.391 . S
C708 C709 1.400 . S
C709 C708 1.400 . S
C709 C710 1.398 . S
C709 C715 1.491 . S
C710 H701 0.950 . S
C710 C709 1.398 . S
C710 C711 1.391 . S
C711 H699 0.950 . S
C711 C707 1.393 . S
C711 C710 1.391 . S
C712 H702 0.950 . S
C712 C713 1.386 . S
C712 C714 1.391 . S
C713 C712 1.386 . S
C713 C717 1.393 . S
C714 H703 0.950 . S
C714 C712 1.391 . S
C714 C715 1.400 . S
C715 C709 1.491 . S
C715 C714 1.400 . S
C715 C716 1.398 . S
C716 H704 0.950 . S
C716 C715 1.398 . S
C716 C717 1.391 . S
C717 H705 0.950 . S
C717 C713 1.393 . S
C717 C716 1.391 . S
H718 C726 0.950 . S
H719 C731 0.950 . S
H720 C728 0.950 . S
H721 C730 0.950 . S
H722 C732 0.950 . S
H723 C734 0.950 . S
H724 C736 0.950 . S
H725 C737 0.950 . S
C726 H718 0.950 . S
C726 C727 1.386 . S
C726 C728 1.391 . S
C727 C726 1.386 . S
C727 C731 1.393 . S
C728 H720 0.950 . S
C728 C726 1.391 . S
C728 C729 1.400 . S
C729 C728 1.400 . S
C729 C730 1.398 . S
C729 C735 1.491 . S
C730 H721 0.950 . S
C730 C729 1.398 . S
C730 C731 1.391 . S
C731 H719 0.950 . S
C731 C727 1.393 . S
C731 C730 1.391 . S
C732 H722 0.950 . S
C732 C733 1.386 . S
C732 C734 1.391 . S
C733 C732 1.386 . S
C733 C737 1.393 1_554 S
C734 H723 0.950 . S
C734 C732 1.391 . S
C734 C735 1.400 1_554 S
C735 C729 1.491 . S
C735 C734 1.400 1_556 S
C735 C736 1.398 . S
C736 H724 0.950 . S
C736 C735 1.398 . S
C736 C737 1.391 . S
C737 H725 0.950 . S
C737 C733 1.393 1_556 S
C737 C736 1.391 . S
H738 C746 0.950 . S
H739 C751 0.950 . S
H740 C748 0.950 . S
H741 C750 0.950 . S
H742 C752 0.950 . S
H743 C754 0.950 . S
H744 C756 0.950 1_556 S
H745 C757 0.950 1_556 S
C746 H738 0.950 . S
C746 C747 1.386 . S
C746 C748 1.391 . S
C747 C746 1.386 . S
C747 C751 1.393 . S
C748 H740 0.950 . S
C748 C746 1.391 . S
C748 C749 1.400 . S
C749 C748 1.400 . S
C749 C750 1.398 . S
C749 C755 1.491 . S
C750 H741 0.950 . S
C750 C749 1.398 . S
C750 C751 1.391 . S
C751 H739 0.950 . S
C751 C747 1.393 . S
C751 C750 1.391 . S
C752 H742 0.950 . S
C752 C753 1.386 . S
C752 C754 1.391 . S
C753 C752 1.386 . S
C753 C757 1.393 . S
C754 H743 0.950 . S
C754 C752 1.391 . S
C754 C755 1.400 . S
C755 C749 1.491 . S
C755 C754 1.400 . S
C755 C756 1.398 . S
C756 H744 0.950 1_554 S
C756 C755 1.398 . S
C756 C757 1.391 . S
C757 H745 0.950 1_554 S
C757 C753 1.393 . S
C757 C756 1.391 . S
H758 C766 0.950 . S
H759 C771 0.950 . S
H760 C768 0.950 . S
H761 C770 0.950 . S
H762 C772 0.950 . S
H763 C774 0.950 . S
H764 C776 0.950 . S
H765 C777 0.950 . S
C766 H758 0.950 . S
C766 C767 1.386 . S
C766 C768 1.391 . S
C767 C766 1.386 . S
C767 C771 1.393 . S
C768 H760 0.950 . S
C768 C766 1.391 . S
C768 C769 1.400 . S
C769 C768 1.400 . S
C769 C770 1.398 . S
C769 C775 1.491 . S
C770 H761 0.950 . S
C770 C769 1.398 . S
C770 C771 1.391 . S
C771 H759 0.950 . S
C771 C767 1.393 . S
C771 C770 1.391 . S
C772 H762 0.950 . S
C772 C773 1.386 . S
C772 C774 1.391 . S
C773 C772 1.386 . S
C773 C777 1.393 . S
C774 H763 0.950 . S
C774 C772 1.391 . S
C774 C775 1.400 . S
C775 C769 1.491 . S
C775 C774 1.400 . S
C775 C776 1.398 . S
C776 H764 0.950 . S
C776 C775 1.398 . S
C776 C777 1.391 . S
C777 H765 0.950 . S
C777 C773 1.393 . S
C777 C776 1.391 . S
H778 C786 0.950 . S
H779 C791 0.950 . S
H780 C788 0.950 . S
H781 C790 0.950 . S
H782 C792 0.932 1_556 S
H783 C794 0.950 1_556 S
H784 C796 0.950 . S
H785 C797 0.950 . S
C786 H778 0.950 . S
C786 C787 1.386 . S
C786 C788 1.391 . S
C787 C786 1.386 . S
C787 C791 1.393 . S
C788 H780 0.950 . S
C788 C786 1.391 . S
C788 C789 1.400 . S
C789 C788 1.400 . S
C789 C790 1.398 . S
C789 C795 1.491 . S
C790 H781 0.950 . S
C790 C789 1.398 . S
C790 C791 1.391 . S
C791 H779 0.950 . S
C791 C787 1.393 . S
C791 C790 1.391 . S
C792 H782 0.932 1_554 S
C792 C793 1.399 . S
C792 C794 1.395 . S
C793 C792 1.399 . S
C793 C797 1.393 . S
C794 H783 0.950 1_554 S
C794 C792 1.395 . S
C794 C795 1.400 . S
C795 C789 1.491 . S
C795 C794 1.400 . S
C795 C796 1.398 . S
C796 H784 0.950 . S
C796 C795 1.398 . S
C796 C797 1.391 . S
C797 H785 0.950 . S
C797 C793 1.393 . S
C797 C796 1.391 . S
H798 C806 0.950 . S
H799 C811 0.950 . S
H800 C808 0.950 . S
H801 C810 0.950 . S
H802 C812 0.950 . S
H803 C814 0.950 . S
H804 C816 0.950 . S
H805 C817 0.950 . S
C806 H798 0.950 . S
C806 C807 1.386 . S
C806 C808 1.391 . S
C807 C806 1.386 . S
C807 C811 1.393 . S
C808 H800 0.950 . S
C808 C806 1.391 . S
C808 C809 1.400 . S
C809 C808 1.400 . S
C809 C810 1.398 . S
C809 C815 1.491 1_655 S
C810 H801 0.950 . S
C810 C809 1.398 . S
C810 C811 1.391 . S
C811 H799 0.950 . S
C811 C807 1.393 . S
C811 C810 1.391 . S
C812 H802 0.950 . S
C812 C813 1.386 . S
C812 C814 1.391 . S
C813 C812 1.386 . S
C813 C817 1.393 . S
C814 H803 0.950 . S
C814 C812 1.391 . S
C814 C815 1.400 . S
C815 C809 1.491 1_455 S
C815 C814 1.400 . S
C815 C816 1.398 . S
C816 H804 0.950 . S
C816 C815 1.398 . S
C816 C817 1.391 . S
C817 H805 0.950 . S
C817 C813 1.393 . S
C817 C816 1.391 . S
H818 C826 0.950 . S
H819 C831 0.950 . S
H820 C828 0.950 . S
H821 C830 0.950 . S
H822 C832 0.950 . S
H823 C834 0.950 . S
H824 C836 0.950 . S
H825 C837 0.950 . S
C826 H818 0.950 . S
C826 C827 1.386 . S
C826 C828 1.391 . S
C827 C826 1.386 . S
C827 C831 1.393 . S
C828 H820 0.950 . S
C828 C826 1.391 . S
C828 C829 1.400 . S
C829 C828 1.400 . S
C829 C830 1.398 . S
C829 C835 1.491 . S
C830 H821 0.950 . S
C830 C829 1.398 . S
C830 C831 1.391 . S
C831 H819 0.950 . S
C831 C827 1.393 . S
C831 C830 1.391 . S
C832 H822 0.950 . S
C832 C833 1.386 . S
C832 C834 1.391 . S
C833 C832 1.386 . S
C833 C837 1.393 . S
C834 H823 0.950 . S
C834 C832 1.391 . S
C834 C835 1.400 . S
C835 C829 1.491 . S
C835 C834 1.400 . S
C835 C836 1.398 . S
C836 H824 0.950 . S
C836 C835 1.398 . S
C836 C837 1.391 . S
C837 H825 0.950 . S
C837 C833 1.393 . S
C837 C836 1.391 . S
H838 C846 0.950 . S
H839 C851 0.950 . S
H840 C848 0.950 . S
H841 C850 0.950 . S
H842 C852 0.950 . S
H843 C854 0.950 1_545 S
H844 C856 0.950 . S
H845 C857 0.950 . S
C846 H838 0.950 . S
C846 C847 1.386 . S
C846 C848 1.391 . S
C847 C846 1.386 . S
C847 C851 1.393 . S
C848 H840 0.950 . S
C848 C846 1.391 . S
C848 C849 1.400 . S
C849 C848 1.400 . S
C849 C850 1.398 . S
C849 C855 1.491 . S
C850 H841 0.950 . S
C850 C849 1.398 . S
C850 C851 1.391 . S
C851 H839 0.950 . S
C851 C847 1.393 . S
C851 C850 1.391 . S
C852 H842 0.950 . S
C852 C853 1.386 . S
C852 C854 1.391 . S
C853 C852 1.386 . S
C853 C857 1.393 . S
C854 H843 0.950 1_565 S
C854 C852 1.391 . S
C854 C855 1.400 1_565 S
C855 C849 1.491 . S
C855 C854 1.400 1_545 S
C855 C856 1.398 1_545 S
C856 H844 0.950 . S
C856 C855 1.398 1_565 S
C856 C857 1.391 . S
C857 H845 0.950 . S
C857 C853 1.393 . S
C857 C856 1.391 . S
H858 C866 0.950 . S
H859 C871 0.950 . S
H860 C868 0.950 . S
H861 C870 0.950 . S
H862 C872 0.950 . S
H863 C874 0.950 . S
H864 C876 0.950 . S
H865 C877 0.950 . S
C866 H858 0.950 . S
C866 C867 1.386 . S
C866 C868 1.391 . S
C867 C866 1.386 . S
C867 C871 1.393 . S
C868 H860 0.950 . S
C868 C866 1.391 . S
C868 C869 1.400 . S
C869 C868 1.400 . S
C869 C870 1.398 . S
C869 C875 1.491 . S
C870 H861 0.950 . S
C870 C869 1.398 . S
C870 C871 1.391 . S
C871 H859 0.950 . S
C871 C867 1.393 . S
C871 C870 1.391 . S
C872 H862 0.950 . S
C872 C873 1.386 . S
C872 C874 1.391 . S
C873 C872 1.386 . S
C873 C877 1.393 . S
C874 H863 0.950 . S
C874 C872 1.391 . S
C874 C875 1.400 . S
C875 C869 1.491 . S
C875 C874 1.400 . S
C875 C876 1.398 . S
C876 H864 0.950 . S
C876 C875 1.398 . S
C876 C877 1.391 . S
C877 H865 0.950 . S
C877 C873 1.393 . S
C877 C876 1.391 . S
H878 C886 0.950 . S
H879 C891 0.950 . S
H880 C888 0.950 . S
H881 C890 0.950 . S
H882 C892 0.950 . S
H883 C894 0.950 . S
H884 C896 0.950 . S
H885 C897 0.950 . S
C886 H878 0.950 . S
C886 C887 1.386 . S
C886 C888 1.391 . S
C887 C886 1.386 . S
C887 C891 1.393 . S
C888 H880 0.950 . S
C888 C886 1.391 . S
C888 C889 1.400 . S
C889 C888 1.400 . S
C889 C890 1.398 . S
C889 C895 1.491 . S
C890 H881 0.950 . S
C890 C889 1.398 . S
C890 C891 1.391 . S
C891 H879 0.950 . S
C891 C887 1.393 . S
C891 C890 1.391 . S
C892 H882 0.950 . S
C892 C893 1.386 . S
C892 C894 1.391 . S
C893 C892 1.386 . S
C893 C897 1.393 . S
C894 H883 0.950 . S
C894 C892 1.391 . S
C894 C895 1.400 . S
C895 C889 1.491 . S
C895 C894 1.400 . S
C895 C896 1.398 . S
C896 H884 0.950 . S
C896 C895 1.398 . S
C896 C897 1.391 . S
C897 H885 0.950 . S
C897 C893 1.393 . S
C897 C896 1.391 . S
H898 C906 0.950 . S
H899 C911 0.950 . S
H900 C908 0.950 . S
H901 C910 0.950 . S
H902 C912 0.950 . S
H903 C914 0.950 . S
H904 C916 0.950 . S
H905 C917 0.950 . S
C906 H898 0.950 . S
C906 C907 1.386 . S
C906 C908 1.391 . S
C907 C906 1.386 . S
C907 C911 1.393 . S
C908 H900 0.950 . S
C908 C906 1.391 . S
C908 C909 1.400 . S
C909 C908 1.400 . S
C909 C910 1.398 . S
C909 C915 1.491 . S
C910 H901 0.950 . S
C910 C909 1.398 . S
C910 C911 1.391 . S
C911 H899 0.950 . S
C911 C907 1.393 . S
C911 C910 1.391 . S
C912 H902 0.950 . S
C912 C913 1.386 . S
C912 C914 1.391 . S
C913 C912 1.386 . S
C913 C917 1.393 . S
C914 H903 0.950 . S
C914 C912 1.391 . S
C914 C915 1.400 . S
C915 C909 1.491 . S
C915 C914 1.400 . S
C915 C916 1.398 . S
C916 H904 0.950 . S
C916 C915 1.398 . S
C916 C917 1.391 . S
C917 H905 0.950 . S
C917 C913 1.393 . S
C917 C916 1.391 . S
H918 C926 0.950 . S
H919 C931 0.950 . S
H920 C928 0.950 . S
H921 C930 0.950 . S
H922 C932 0.950 . S
H923 C934 0.950 . S
H924 C936 0.950 . S
H925 C937 0.950 . S
C926 H918 0.950 . S
C926 C927 1.386 . S
C926 C928 1.391 . S
C927 C926 1.386 . S
C927 C931 1.393 . S
C928 H920 0.950 . S
C928 C926 1.391 . S
C928 C929 1.400 . S
C929 C928 1.400 . S
C929 C930 1.398 . S
C929 C935 1.491 . S
C930 H921 0.950 . S
C930 C929 1.398 . S
C930 C931 1.391 . S
C931 H919 0.950 . S
C931 C927 1.393 . S
C931 C930 1.391 . S
C932 H922 0.950 . S
C932 C933 1.386 . S
C932 C934 1.391 . S
C933 C932 1.386 . S
C933 C937 1.393 . S
C934 H923 0.950 . S
C934 C932 1.391 . S
C934 C935 1.400 . S
C935 C929 1.491 . S
C935 C934 1.400 . S
C935 C936 1.398 . S
C936 H924 0.950 . S
C936 C935 1.398 . S
C936 C937 1.391 . S
C937 H925 0.950 . S
C937 C933 1.393 . S
C937 C936 1.391 . S
H938 C946 0.950 . S
H939 C951 0.950 . S
H940 C948 0.950 . S
H941 C950 0.950 . S
H942 C952 0.950 . S
H943 C954 0.950 . S
H944 C956 0.950 . S
H945 C957 0.950 . S
C946 H938 0.950 . S
C946 C947 1.386 . S
C946 C948 1.391 . S
C947 C946 1.386 . S
C947 C951 1.393 . S
C948 H940 0.950 . S
C948 C946 1.391 . S
C948 C949 1.400 . S
C949 C948 1.400 . S
C949 C950 1.398 . S
C949 C955 1.491 . S
C950 H941 0.950 . S
C950 C949 1.398 . S
C950 C951 1.391 . S
C951 H939 0.950 . S
C951 C947 1.393 . S
C951 C950 1.391 . S
C952 H942 0.950 . S
C952 C953 1.386 . S
C952 C954 1.391 . S
C953 C952 1.386 . S
C953 C957 1.393 . S
C954 H943 0.950 . S
C954 C952 1.391 . S
C954 C955 1.400 . S
C955 C949 1.491 . S
C955 C954 1.400 . S
C955 C956 1.398 . S
C956 H944 0.950 . S
C956 C955 1.398 . S
C956 C957 1.391 . S
C957 H945 0.950 . S
C957 C953 1.393 . S
C957 C956 1.391 . S
H958 C966 0.950 . S
H959 C971 0.950 . S
H960 C968 0.950 . S
H961 C970 0.950 . S
H962 C972 0.950 . S
H963 C974 0.950 . S
H964 C976 0.950 . S
H965 C977 0.950 . S
C966 H958 0.950 . S
C966 C967 1.386 . S
C966 C968 1.391 . S
C967 C966 1.386 . S
C967 C971 1.393 . S
C968 H960 0.950 . S
C968 C966 1.391 . S
C968 C969 1.400 . S
C969 C968 1.400 . S
C969 C970 1.398 . S
C969 C975 1.491 . S
C970 H961 0.950 . S
C970 C969 1.398 . S
C970 C971 1.391 . S
C971 H959 0.950 . S
C971 C967 1.393 . S
C971 C970 1.391 . S
C972 H962 0.950 . S
C972 C973 1.386 . S
C972 C974 1.391 . S
C973 C972 1.386 . S
C973 C977 1.393 . S
C974 H963 0.950 . S
C974 C972 1.391 . S
C974 C975 1.400 . S
C975 C969 1.491 . S
C975 C974 1.400 . S
C975 C976 1.398 . S
C976 H964 0.950 . S
C976 C975 1.398 . S
C976 C977 1.391 . S
C977 H965 0.950 . S
C977 C973 1.393 . S
C977 C976 1.391 . S
H978 C986 0.950 . S
H979 C991 0.950 . S
H980 C988 0.950 . S
H981 C990 0.950 . S
H982 C992 0.950 . S
H983 C994 0.950 . S
H984 C996 0.950 . S
H985 C997 0.950 . S
C986 H978 0.950 . S
C986 C987 1.386 . S
C986 C988 1.391 1_545 S
C987 C986 1.386 . S
C987 C991 1.393 . S
C988 H980 0.950 . S
C988 C986 1.391 1_565 S
C988 C989 1.400 . S
C989 C988 1.400 . S
C989 C990 1.398 . S
C989 C995 1.491 . S
C990 H981 0.950 . S
C990 C989 1.398 . S
C990 C991 1.391 1_565 S
C991 H979 0.950 . S
C991 C987 1.393 . S
C991 C990 1.391 1_545 S
C992 H982 0.950 . S
C992 C993 1.386 . S
C992 C994 1.391 . S
C993 C992 1.386 . S
C993 C997 1.393 . S
C994 H983 0.950 . S
C994 C992 1.391 . S
C994 C995 1.400 . S
C995 C989 1.491 . S
C995 C994 1.400 . S
C995 C996 1.398 . S
C996 H984 0.950 . S
C996 C995 1.398 . S
C996 C997 1.391 . S
C997 H985 0.950 . S
C997 C993 1.393 . S
C997 C996 1.391 . S
H998 C1006 0.950 . S
H999 C1011 0.950 . S
H1000 C1008 0.950 . S
H1001 C1010 0.950 . S
H1002 C1012 0.950 . S
H1003 C1014 0.950 . S
H1004 C1016 0.950 . S
H1005 C1017 0.950 . S
C1006 H998 0.950 . S
C1006 C1007 1.386 1_455 S
C1006 C1008 1.391 . S
C1007 C1006 1.386 1_655 S
C1007 C1011 1.393 . S
C1008 H1000 0.950 . S
C1008 C1006 1.391 . S
C1008 C1009 1.400 . S
C1009 C1008 1.400 . S
C1009 C1010 1.398 . S
C1009 C1015 1.491 . S
C1010 H1001 0.950 . S
C1010 C1009 1.398 . S
C1010 C1011 1.391 1_455 S
C1011 H999 0.950 . S
C1011 C1007 1.393 . S
C1011 C1010 1.391 1_655 S
C1012 H1002 0.950 . S
C1012 C1013 1.386 . S
C1012 C1014 1.391 . S
C1013 C1012 1.386 . S
C1013 C1017 1.393 . S
C1014 H1003 0.950 . S
C1014 C1012 1.391 . S
C1014 C1015 1.400 . S
C1015 C1009 1.491 . S
C1015 C1014 1.400 . S
C1015 C1016 1.398 . S
C1016 H1004 0.950 . S
C1016 C1015 1.398 . S
C1016 C1017 1.391 . S
C1017 H1005 0.950 . S
C1017 C1013 1.393 . S
C1017 C1016 1.391 . S
H1018 C1026 0.950 . S
H1019 C1031 0.950 . S
H1020 C1028 0.950 . S
H1021 C1030 0.950 . S
H1022 C1032 0.950 . S
H1023 C1034 0.950 . S
H1024 C1036 0.950 . S
H1025 C1037 0.950 . S
C1026 H1018 0.950 . S
C1026 C1027 1.386 . S
C1026 C1028 1.391 . S
C1027 C1026 1.386 . S
C1027 C1031 1.393 . S
C1028 H1020 0.950 . S
C1028 C1026 1.391 . S
C1028 C1029 1.400 . S
C1029 C1028 1.400 . S
C1029 C1030 1.398 . S
C1029 C1035 1.491 . S
C1030 H1021 0.950 . S
C1030 C1029 1.398 . S
C1030 C1031 1.391 . S
C1031 H1019 0.950 . S
C1031 C1027 1.393 . S
C1031 C1030 1.391 . S
C1032 H1022 0.950 . S
C1032 C1033 1.386 . S
C1032 C1034 1.391 . S
C1033 C1032 1.386 . S
C1033 C1037 1.393 . S
C1034 H1023 0.950 . S
C1034 C1032 1.391 . S
C1034 C1035 1.400 . S
C1035 C1029 1.491 . S
C1035 C1034 1.400 . S
C1035 C1036 1.398 . S
C1036 H1024 0.950 . S
C1036 C1035 1.398 . S
C1036 C1037 1.391 . S
C1037 H1025 0.950 . S
C1037 C1033 1.393 . S
C1037 C1036 1.391 . S
H1038 C1046 0.950 . S
H1039 C1051 0.950 . S
H1040 C1048 0.950 . S
H1041 C1050 0.950 . S
H1042 C1052 0.950 . S
H1043 C1054 0.950 . S
H1044 C1056 0.950 . S
H1045 C1057 0.950 . S
C1046 H1038 0.950 . S
C1046 C1047 1.386 . S
C1046 C1048 1.391 . S
C1047 C1046 1.386 . S
C1047 C1051 1.393 . S
C1048 H1040 0.950 . S
C1048 C1046 1.391 . S
C1048 C1049 1.400 . S
C1049 C1048 1.400 . S
C1049 C1050 1.398 . S
C1049 C1055 1.491 . S
C1050 H1041 0.950 . S
C1050 C1049 1.398 . S
C1050 C1051 1.391 . S
C1051 H1039 0.950 . S
C1051 C1047 1.393 . S
C1051 C1050 1.391 . S
C1052 H1042 0.950 . S
C1052 C1053 1.386 . S
C1052 C1054 1.391 . S
C1053 C1052 1.386 . S
C1053 C1057 1.393 . S
C1054 H1043 0.950 . S
C1054 C1052 1.391 . S
C1054 C1055 1.400 . S
C1055 C1049 1.491 . S
C1055 C1054 1.400 . S
C1055 C1056 1.398 . S
C1056 H1044 0.950 . S
C1056 C1055 1.398 . S
C1056 C1057 1.391 . S
C1057 H1045 0.950 . S
C1057 C1053 1.393 . S
C1057 C1056 1.391 . S
H1058 C1066 0.950 . S
H1059 C1071 0.950 . S
H1060 C1068 0.950 . S
H1061 C1070 0.950 . S
H1062 C1072 0.950 . S
H1063 C1074 0.950 . S
H1064 C1076 0.950 . S
H1065 C1077 0.950 . S
C1066 H1058 0.950 . S
C1066 C1067 1.386 . S
C1066 C1068 1.391 . S
C1067 C1066 1.386 . S
C1067 C1071 1.393 . S
C1068 H1060 0.950 . S
C1068 C1066 1.391 . S
C1068 C1069 1.400 . S
C1069 C1068 1.400 . S
C1069 C1070 1.398 . S
C1069 C1075 1.491 . S
C1070 H1061 0.950 . S
C1070 C1069 1.398 . S
C1070 C1071 1.391 . S
C1071 H1059 0.950 . S
C1071 C1067 1.393 . S
C1071 C1070 1.391 . S
C1072 H1062 0.950 . S
C1072 C1073 1.386 . S
C1072 C1074 1.391 . S
C1073 C1072 1.386 . S
C1073 C1077 1.393 . S
C1074 H1063 0.950 . S
C1074 C1072 1.391 . S
C1074 C1075 1.400 . S
C1075 C1069 1.491 . S
C1075 C1074 1.400 . S
C1075 C1076 1.398 . S
C1076 H1064 0.950 . S
C1076 C1075 1.398 . S
C1076 C1077 1.391 . S
C1077 H1065 0.950 . S
C1077 C1073 1.393 . S
C1077 C1076 1.391 . S
H1078 C1086 0.950 . S
H1079 C1091 0.950 . S
H1080 C1088 0.950 . S
H1081 C1090 0.950 . S
H1082 C1092 0.950 . S
H1083 C1094 0.950 . S
H1084 C1096 0.950 . S
H1085 C1097 0.950 . S
C1086 H1078 0.950 . S
C1086 C1087 1.386 . S
C1086 C1088 1.391 . S
C1087 C1086 1.386 . S
C1087 C1091 1.393 . S
C1088 H1080 0.950 . S
C1088 C1086 1.391 . S
C1088 C1089 1.400 . S
C1089 C1088 1.400 . S
C1089 C1090 1.398 . S
C1089 C1095 1.491 . S
C1090 H1081 0.950 . S
C1090 C1089 1.398 . S
C1090 C1091 1.391 . S
C1091 H1079 0.950 . S
C1091 C1087 1.393 . S
C1091 C1090 1.391 . S
C1092 H1082 0.950 . S
C1092 C1093 1.386 . S
C1092 C1094 1.391 . S
C1093 C1092 1.386 . S
C1093 C1097 1.393 . S
C1094 H1083 0.950 . S
C1094 C1092 1.391 . S
C1094 C1095 1.400 . S
C1095 C1089 1.491 . S
C1095 C1094 1.400 . S
C1095 C1096 1.398 . S
C1096 H1084 0.950 . S
C1096 C1095 1.398 . S
C1096 C1097 1.391 . S
C1097 H1085 0.950 . S
C1097 C1093 1.393 . S
C1097 C1096 1.391 . S
H1098 C1106 0.950 . S
H1099 C1111 0.950 . S
H1100 C1108 0.950 . S
H1101 C1110 0.950 . S
H1102 C1112 0.950 . S
H1103 C1114 0.950 . S
H1104 C1116 0.950 . S
H1105 C1117 0.950 . S
C1106 H1098 0.950 . S
C1106 C1107 1.386 . S
C1106 C1108 1.391 . S
C1107 C1106 1.386 . S
C1107 C1111 1.393 . S
C1108 H1100 0.950 . S
C1108 C1106 1.391 . S
C1108 C1109 1.400 . S
C1109 C1108 1.400 . S
C1109 C1110 1.398 . S
C1109 C1115 1.491 1_565 S
C1110 H1101 0.950 . S
C1110 C1109 1.398 . S
C1110 C1111 1.391 . S
C1111 H1099 0.950 . S
C1111 C1107 1.393 . S
C1111 C1110 1.391 . S
C1112 H1102 0.950 . S
C1112 C1113 1.386 . S
C1112 C1114 1.391 . S
C1113 C1112 1.386 . S
C1113 C1117 1.393 . S
C1114 H1103 0.950 . S
C1114 C1112 1.391 . S
C1114 C1115 1.400 . S
C1115 C1109 1.491 1_545 S
C1115 C1114 1.400 . S
C1115 C1116 1.398 . S
C1116 H1104 0.950 . S
C1116 C1115 1.398 . S
C1116 C1117 1.391 . S
C1117 H1105 0.950 . S
C1117 C1113 1.393 . S
C1117 C1116 1.391 . S
H1118 C1126 0.950 . S
H1119 C1131 0.950 . S
H1120 C1128 0.950 . S
H1121 C1130 0.950 1_655 S
H1122 C1132 0.950 . S
H1123 C1134 0.950 . S
H1124 C1136 0.950 1_455 S
H1125 C1137 0.950 . S
C1126 H1118 0.950 . S
C1126 C1127 1.386 . S
C1126 C1128 1.391 . S
C1127 C1126 1.386 . S
C1127 C1131 1.393 . S
C1128 H1120 0.950 . S
C1128 C1126 1.391 . S
C1128 C1129 1.400 . S
C1129 C1128 1.400 . S
C1129 C1130 1.398 . S
C1129 C1135 1.491 1_455 S
C1130 H1121 0.950 1_455 S
C1130 C1129 1.398 . S
C1130 C1131 1.391 . S
C1131 H1119 0.950 . S
C1131 C1127 1.393 . S
C1131 C1130 1.391 . S
C1132 H1122 0.950 . S
C1132 C1133 1.386 . S
C1132 C1134 1.391 . S
C1133 C1132 1.386 . S
C1133 C1137 1.393 . S
C1134 H1123 0.950 . S
C1134 C1132 1.391 . S
C1134 C1135 1.400 . S
C1135 C1129 1.491 1_655 S
C1135 C1134 1.400 . S
C1135 C1136 1.398 . S
C1136 H1124 0.950 1_655 S
C1136 C1135 1.398 . S
C1136 C1137 1.391 . S
C1137 H1125 0.950 . S
C1137 C1133 1.393 . S
C1137 C1136 1.391 . S
H1138 C1146 0.950 . S
H1139 C1151 0.950 . S
H1140 C1148 0.950 . S
H1141 C1150 0.950 . S
H1142 C1152 0.950 . S
H1143 C1154 0.950 . S
H1144 C1156 0.950 . S
H1145 C1157 0.950 . S
C1146 H1138 0.950 . S
C1146 C1147 1.386 . S
C1146 C1148 1.391 . S
C1147 C1146 1.386 . S
C1147 C1151 1.393 . S
C1148 H1140 0.950 . S
C1148 C1146 1.391 . S
C1148 C1149 1.400 . S
C1149 C1148 1.400 . S
C1149 C1150 1.398 . S
C1149 C1155 1.491 . S
C1150 H1141 0.950 . S
C1150 C1149 1.398 . S
C1150 C1151 1.391 . S
C1151 H1139 0.950 . S
C1151 C1147 1.393 . S
C1151 C1150 1.391 . S
C1152 H1142 0.950 . S
C1152 C1153 1.386 . S
C1152 C1154 1.391 . S
C1153 C1152 1.386 . S
C1153 C1157 1.393 . S
C1154 H1143 0.950 . S
C1154 C1152 1.391 . S
C1154 C1155 1.400 . S
C1155 C1149 1.491 . S
C1155 C1154 1.400 . S
C1155 C1156 1.398 . S
C1156 H1144 0.950 . S
C1156 C1155 1.398 . S
C1156 C1157 1.391 . S
C1157 H1145 0.950 . S
C1157 C1153 1.393 . S
C1157 C1156 1.391 . S
H1158 C1166 0.950 . S
H1159 C1171 0.950 . S
H1160 C1168 0.950 . S
H1161 C1170 0.950 . S
H1162 C1172 0.950 . S
H1163 C1174 0.950 . S
H1164 C1176 0.950 . S
H1165 C1177 0.950 . S
C1166 H1158 0.950 . S
C1166 C1167 1.386 . S
C1166 C1168 1.391 1_455 S
C1167 C1166 1.386 . S
C1167 C1171 1.393 . S
C1168 H1160 0.950 . S
C1168 C1166 1.391 1_655 S
C1168 C1169 1.400 . S
C1169 C1168 1.400 . S
C1169 C1170 1.398 . S
C1169 C1175 1.491 . S
C1170 H1161 0.950 . S
C1170 C1169 1.398 . S
C1170 C1171 1.391 1_655 S
C1171 H1159 0.950 . S
C1171 C1167 1.393 . S
C1171 C1170 1.391 1_455 S
C1172 H1162 0.950 . S
C1172 C1173 1.386 . S
C1172 C1174 1.391 . S
C1173 C1172 1.386 . S
C1173 C1177 1.393 . S
C1174 H1163 0.950 . S
C1174 C1172 1.391 . S
C1174 C1175 1.400 . S
C1175 C1169 1.491 . S
C1175 C1174 1.400 . S
C1175 C1176 1.398 . S
C1176 H1164 0.950 . S
C1176 C1175 1.398 . S
C1176 C1177 1.391 . S
C1177 H1165 0.950 . S
C1177 C1173 1.393 . S
C1177 C1176 1.391 . S
H1178 C1186 0.950 . S
H1179 C1191 0.950 . S
H1180 C1188 0.950 . S
H1181 C1190 0.950 . S
H1182 C1192 0.950 . S
H1183 C1194 0.950 . S
H1184 C1196 0.950 . S
H1185 C1197 0.950 . S
C1186 H1178 0.950 . S
C1186 C1187 1.386 . S
C1186 C1188 1.391 . S
C1187 C1186 1.386 . S
C1187 C1191 1.393 . S
C1188 H1180 0.950 . S
C1188 C1186 1.391 . S
C1188 C1189 1.400 . S
C1189 C1188 1.400 . S
C1189 C1190 1.398 . S
C1189 C1195 1.491 . S
C1190 H1181 0.950 . S
C1190 C1189 1.398 . S
C1190 C1191 1.391 . S
C1191 H1179 0.950 . S
C1191 C1187 1.393 . S
C1191 C1190 1.391 . S
C1192 H1182 0.950 . S
C1192 C1193 1.386 . S
C1192 C1194 1.391 . S
C1193 C1192 1.386 . S
C1193 C1197 1.393 . S
C1194 H1183 0.950 . S
C1194 C1192 1.391 . S
C1194 C1195 1.400 . S
C1195 C1189 1.491 . S
C1195 C1194 1.400 . S
C1195 C1196 1.398 . S
C1196 H1184 0.950 . S
C1196 C1195 1.398 . S
C1196 C1197 1.391 . S
C1197 H1185 0.950 . S
C1197 C1193 1.393 . S
C1197 C1196 1.391 . S
H1198 C1206 0.950 . S
H1199 C1211 0.950 . S
H1200 C1208 0.950 . S
H1201 C1210 0.950 . S
H1202 C1212 0.950 . S
H1203 C1214 0.950 . S
H1204 C1216 0.950 . S
H1205 C1217 0.950 . S
C1206 H1198 0.950 . S
C1206 C1207 1.386 . S
C1206 C1208 1.391 1_565 S
C1207 C1206 1.386 . S
C1207 C1211 1.393 . S
C1208 H1200 0.950 . S
C1208 C1206 1.391 1_545 S
C1208 C1209 1.400 . S
C1209 C1208 1.400 . S
C1209 C1210 1.398 . S
C1209 C1215 1.491 . S
C1210 H1201 0.950 . S
C1210 C1209 1.398 . S
C1210 C1211 1.391 1_545 S
C1211 H1199 0.950 . S
C1211 C1207 1.393 . S
C1211 C1210 1.391 1_565 S
C1212 H1202 0.950 . S
C1212 C1213 1.386 . S
C1212 C1214 1.391 . S
C1213 C1212 1.386 . S
C1213 C1217 1.393 . S
C1214 H1203 0.950 . S
C1214 C1212 1.391 . S
C1214 C1215 1.400 . S
C1215 C1209 1.491 . S
C1215 C1214 1.400 . S
C1215 C1216 1.398 . S
C1216 H1204 0.950 . S
C1216 C1215 1.398 . S
C1216 C1217 1.391 . S
C1217 H1205 0.950 . S
C1217 C1213 1.393 . S
C1217 C1216 1.391 . S
H1218 C1226 0.950 . S
H1219 C1231 0.950 . S
H1220 C1228 0.950 . S
H1221 C1230 0.950 . S
H1222 C1232 0.950 . S
H1223 C1234 0.950 . S
H1224 C1236 0.950 . S
H1225 C1237 0.950 . S
C1226 H1218 0.950 . S
C1226 C1227 1.386 . S
C1226 C1228 1.391 . S
C1227 C1226 1.386 . S
C1227 C1231 1.393 . S
C1228 H1220 0.950 . S
C1228 C1226 1.391 . S
C1228 C1229 1.400 . S
C1229 C1228 1.400 . S
C1229 C1230 1.398 . S
C1229 C1235 1.491 . S
C1230 H1221 0.950 . S
C1230 C1229 1.398 . S
C1230 C1231 1.391 . S
C1231 H1219 0.950 . S
C1231 C1227 1.393 . S
C1231 C1230 1.391 . S
C1232 H1222 0.950 . S
C1232 C1233 1.386 . S
C1232 C1234 1.391 . S
C1233 C1232 1.386 . S
C1233 C1237 1.393 . S
C1234 H1223 0.950 . S
C1234 C1232 1.391 . S
C1234 C1235 1.400 . S
C1235 C1229 1.491 . S
C1235 C1234 1.400 . S
C1235 C1236 1.398 . S
C1236 H1224 0.950 . S
C1236 C1235 1.398 . S
C1236 C1237 1.391 . S
C1237 H1225 0.950 . S
C1237 C1233 1.393 . S
C1237 C1236 1.391 . S
H1238 C1246 0.950 . S
H1239 C1251 0.950 . S
H1240 C1248 0.950 . S
H1241 C1250 0.950 . S
H1242 C1252 0.950 . S
H1243 C1254 0.950 . S
H1244 C1256 0.950 . S
H1245 C1257 0.950 . S
C1246 H1238 0.950 . S
C1246 C1247 1.386 . S
C1246 C1248 1.391 . S
C1247 C1246 1.386 . S
C1247 C1251 1.393 . S
C1248 H1240 0.950 . S
C1248 C1246 1.391 . S
C1248 C1249 1.400 . S
C1249 C1248 1.400 . S
C1249 C1250 1.398 . S
C1249 C1255 1.491 . S
C1250 H1241 0.950 . S
C1250 C1249 1.398 . S
C1250 C1251 1.391 . S
C1251 H1239 0.950 . S
C1251 C1247 1.393 . S
C1251 C1250 1.391 . S
C1252 H1242 0.950 . S
C1252 C1253 1.386 . S
C1252 C1254 1.391 . S
C1253 C1252 1.386 . S
C1253 C1257 1.393 . S
C1254 H1243 0.950 . S
C1254 C1252 1.391 . S
C1254 C1255 1.400 . S
C1255 C1249 1.491 . S
C1255 C1254 1.400 . S
C1255 C1256 1.398 . S
C1256 H1244 0.950 . S
C1256 C1255 1.398 . S
C1256 C1257 1.391 . S
C1257 H1245 0.950 . S
C1257 C1253 1.393 . S
C1257 C1256 1.391 . S
H1258 C1266 0.950 . S
H1259 C1271 0.950 . S
H1260 C1268 0.950 . S
H1261 C1270 0.950 . S
H1262 C1272 0.950 . S
H1263 C1274 0.950 . S
H1264 C1276 0.950 . S
H1265 C1277 0.950 . S
C1266 H1258 0.950 . S
C1266 C1267 1.386 . S
C1266 C1268 1.391 . S
C1267 C1266 1.386 . S
C1267 C1271 1.393 . S
C1268 H1260 0.950 . S
C1268 C1266 1.391 . S
C1268 C1269 1.400 . S
C1269 C1268 1.400 . S
C1269 C1270 1.398 . S
C1269 C1275 1.491 . S
C1270 H1261 0.950 . S
C1270 C1269 1.398 . S
C1270 C1271 1.391 . S
C1271 H1259 0.950 . S
C1271 C1267 1.393 . S
C1271 C1270 1.391 . S
C1272 H1262 0.950 . S
C1272 C1273 1.386 . S
C1272 C1274 1.391 . S
C1273 C1272 1.386 . S
C1273 C1277 1.393 . S
C1274 H1263 0.950 . S
C1274 C1272 1.391 . S
C1274 C1275 1.400 . S
C1275 C1269 1.491 . S
C1275 C1274 1.400 . S
C1275 C1276 1.398 . S
C1276 H1264 0.950 . S
C1276 C1275 1.398 . S
C1276 C1277 1.391 . S
C1277 H1265 0.950 . S
C1277 C1273 1.393 . S
C1277 C1276 1.391 . S
H1278 C1286 0.950 . S
H1279 C1291 0.950 . S
H1280 C1288 0.950 . S
H1281 C1290 0.950 . S
H1282 C1292 0.950 . S
H1283 C1294 0.950 . S
H1284 C1296 0.950 . S
H1285 C1297 0.950 . S
C1286 H1278 0.950 . S
C1286 C1287 1.386 . S
C1286 C1288 1.391 . S
C1287 C1286 1.386 . S
C1287 C1291 1.393 . S
C1288 H1280 0.950 . S
C1288 C1286 1.391 . S
C1288 C1289 1.400 . S
C1289 C1288 1.400 . S
C1289 C1290 1.398 . S
C1289 C1295 1.491 . S
C1290 H1281 0.950 . S
C1290 C1289 1.398 . S
C1290 C1291 1.391 . S
C1291 H1279 0.950 . S
C1291 C1287 1.393 . S
C1291 C1290 1.391 . S
C1292 H1282 0.950 . S
C1292 C1293 1.386 . S
C1292 C1294 1.391 . S
C1293 C1292 1.386 . S
C1293 C1297 1.393 . S
C1294 H1283 0.950 . S
C1294 C1292 1.391 . S
C1294 C1295 1.400 . S
C1295 C1289 1.491 . S
C1295 C1294 1.400 . S
C1295 C1296 1.398 . S
C1296 H1284 0.950 . S
C1296 C1295 1.398 . S
C1296 C1297 1.391 . S
C1297 H1285 0.950 . S
C1297 C1293 1.393 . S
C1297 C1296 1.391 . S
H1298 C1306 0.950 . S
H1299 C1311 0.950 . S
H1300 C1308 0.950 . S
H1301 C1310 0.950 . S
H1302 C1312 0.950 . S
H1303 C1314 0.950 . S
H1304 C1316 0.950 . S
H1305 C1317 0.950 . S
C1306 H1298 0.950 . S
C1306 C1307 1.386 . S
C1306 C1308 1.391 . S
C1307 C1306 1.386 . S
C1307 C1311 1.393 . S
C1308 H1300 0.950 . S
C1308 C1306 1.391 . S
C1308 C1309 1.400 . S
C1309 C1308 1.400 . S
C1309 C1310 1.398 . S
C1309 C1315 1.491 . S
C1310 H1301 0.950 . S
C1310 C1309 1.398 . S
C1310 C1311 1.391 . S
C1311 H1299 0.950 . S
C1311 C1307 1.393 . S
C1311 C1310 1.391 . S
C1312 H1302 0.950 . S
C1312 C1313 1.386 . S
C1312 C1314 1.391 . S
C1313 C1312 1.386 . S
C1313 C1317 1.393 . S
C1314 H1303 0.950 . S
C1314 C1312 1.391 . S
C1314 C1315 1.400 . S
C1315 C1309 1.491 . S
C1315 C1314 1.400 . S
C1315 C1316 1.398 . S
C1316 H1304 0.950 . S
C1316 C1315 1.398 . S
C1316 C1317 1.391 . S
C1317 H1305 0.950 . S
C1317 C1313 1.393 . S
C1317 C1316 1.391 . S
H1318 C1326 0.950 . S
H1319 C1331 0.950 . S
H1320 C1328 0.950 . S
H1321 C1330 0.950 . S
H1322 C1332 0.950 . S
H1323 C1334 0.950 . S
H1324 C1336 0.950 . S
H1325 C1337 0.950 . S
C1326 H1318 0.950 . S
C1326 C1327 1.386 . S
C1326 C1328 1.391 . S
C1327 C1326 1.386 . S
C1327 C1331 1.393 . S
C1328 H1320 0.950 . S
C1328 C1326 1.391 . S
C1328 C1329 1.400 . S
C1329 C1328 1.400 . S
C1329 C1330 1.398 . S
C1329 C1335 1.491 . S
C1330 H1321 0.950 . S
C1330 C1329 1.398 . S
C1330 C1331 1.391 . S
C1331 H1319 0.950 . S
C1331 C1327 1.393 . S
C1331 C1330 1.391 . S
C1332 H1322 0.950 . S
C1332 C1333 1.386 . S
C1332 C1334 1.391 . S
C1333 C1332 1.386 . S
C1333 C1337 1.393 . S
C1334 H1323 0.950 . S
C1334 C1332 1.391 . S
C1334 C1335 1.400 . S
C1335 C1329 1.491 . S
C1335 C1334 1.400 . S
C1335 C1336 1.398 . S
C1336 H1324 0.950 . S
C1336 C1335 1.398 . S
C1336 C1337 1.391 . S
C1337 H1325 0.950 . S
C1337 C1333 1.393 . S
C1337 C1336 1.391 . S
H1338 C1346 0.950 . S
H1339 C1351 0.950 . S
H1340 C1348 0.950 . S
H1341 C1350 0.950 . S
H1342 C1352 0.950 . S
H1343 C1354 0.950 . S
H1344 C1356 0.950 . S
H1345 C1357 0.950 . S
C1346 H1338 0.950 . S
C1346 C1347 1.386 . S
C1346 C1348 1.391 . S
C1347 C1346 1.386 . S
C1347 C1351 1.393 . S
C1348 H1340 0.950 . S
C1348 C1346 1.391 . S
C1348 C1349 1.400 . S
C1349 C1348 1.400 . S
C1349 C1350 1.398 . S
C1349 C1355 1.491 . S
C1350 H1341 0.950 . S
C1350 C1349 1.398 . S
C1350 C1351 1.391 . S
C1351 H1339 0.950 . S
C1351 C1347 1.393 . S
C1351 C1350 1.391 . S
C1352 H1342 0.950 . S
C1352 C1353 1.386 . S
C1352 C1354 1.391 . S
C1353 C1352 1.386 . S
C1353 C1357 1.393 . S
C1354 H1343 0.950 . S
C1354 C1352 1.391 . S
C1354 C1355 1.400 . S
C1355 C1349 1.491 . S
C1355 C1354 1.400 . S
C1355 C1356 1.398 . S
C1356 H1344 0.950 . S
C1356 C1355 1.398 . S
C1356 C1357 1.391 . S
C1357 H1345 0.950 . S
C1357 C1353 1.393 . S
C1357 C1356 1.391 . S
H1358 C1366 0.950 . S
H1359 C1371 0.950 . S
H1360 C1368 0.950 . S
H1361 C1370 0.950 . S
H1362 C1372 0.950 . S
H1363 C1374 0.950 . S
H1364 C1376 0.950 . S
H1365 C1377 0.950 . S
C1366 H1358 0.950 . S
C1366 C1367 1.386 . S
C1366 C1368 1.391 . S
C1367 C1366 1.386 . S
C1367 C1371 1.393 . S
C1368 H1360 0.950 . S
C1368 C1366 1.391 . S
C1368 C1369 1.400 . S
C1369 C1368 1.400 . S
C1369 C1370 1.398 . S
C1369 C1375 1.491 . S
C1370 H1361 0.950 . S
C1370 C1369 1.398 . S
C1370 C1371 1.391 . S
C1371 H1359 0.950 . S
C1371 C1367 1.393 . S
C1371 C1370 1.391 . S
C1372 H1362 0.950 . S
C1372 C1373 1.386 . S
C1372 C1374 1.391 . S
C1373 C1372 1.386 . S
C1373 C1377 1.393 . S
C1374 H1363 0.950 . S
C1374 C1372 1.391 . S
C1374 C1375 1.400 . S
C1375 C1369 1.491 . S
C1375 C1374 1.400 . S
C1375 C1376 1.398 . S
C1376 H1364 0.950 . S
C1376 C1375 1.398 . S
C1376 C1377 1.391 . S
C1377 H1365 0.950 . S
C1377 C1373 1.393 . S
C1377 C1376 1.391 . S
H1378 C1386 0.950 . S
H1379 C1391 0.950 . S
H1380 C1388 0.950 . S
H1381 C1390 0.950 . S
H1382 C1392 0.950 . S
H1383 C1394 0.950 . S
H1384 C1396 0.950 . S
H1385 C1397 0.950 . S
C1386 H1378 0.950 . S
C1386 C1387 1.386 . S
C1386 C1388 1.391 . S
C1387 C1386 1.386 . S
C1387 C1391 1.393 . S
C1388 H1380 0.950 . S
C1388 C1386 1.391 . S
C1388 C1389 1.400 . S
C1389 C1388 1.400 . S
C1389 C1390 1.398 . S
C1389 C1395 1.491 . S
C1390 H1381 0.950 . S
C1390 C1389 1.398 . S
C1390 C1391 1.391 . S
C1391 H1379 0.950 . S
C1391 C1387 1.393 . S
C1391 C1390 1.391 . S
C1392 H1382 0.950 . S
C1392 C1393 1.386 . S
C1392 C1394 1.391 . S
C1393 C1392 1.386 . S
C1393 C1397 1.393 . S
C1394 H1383 0.950 . S
C1394 C1392 1.391 . S
C1394 C1395 1.400 . S
C1395 C1389 1.491 . S
C1395 C1394 1.400 . S
C1395 C1396 1.398 . S
C1396 H1384 0.950 . S
C1396 C1395 1.398 . S
C1396 C1397 1.391 . S
C1397 H1385 0.950 . S
C1397 C1393 1.393 . S
C1397 C1396 1.391 . S
H1398 C1406 0.950 . S
H1399 C1411 0.950 . S
H1400 C1408 0.950 . S
H1401 C1410 0.950 . S
H1402 C1412 0.950 . S
H1403 C1414 0.950 . S
H1404 C1416 0.950 . S
H1405 C1417 0.950 . S
C1406 H1398 0.950 . S
C1406 C1407 1.386 . S
C1406 C1408 1.391 . S
C1407 C1406 1.386 . S
C1407 C1411 1.393 . S
C1408 H1400 0.950 . S
C1408 C1406 1.391 . S
C1408 C1409 1.400 . S
C1409 C1408 1.400 . S
C1409 C1410 1.398 . S
C1409 C1415 1.491 . S
C1410 H1401 0.950 . S
C1410 C1409 1.398 . S
C1410 C1411 1.391 . S
C1411 H1399 0.950 . S
C1411 C1407 1.393 . S
C1411 C1410 1.391 . S
C1412 H1402 0.950 . S
C1412 C1413 1.386 . S
C1412 C1414 1.391 . S
C1413 C1412 1.386 . S
C1413 C1417 1.393 . S
C1414 H1403 0.950 . S
C1414 C1412 1.391 . S
C1414 C1415 1.400 . S
C1415 C1409 1.491 . S
C1415 C1414 1.400 . S
C1415 C1416 1.398 . S
C1416 H1404 0.950 . S
C1416 C1415 1.398 . S
C1416 C1417 1.391 . S
C1417 H1405 0.950 . S
C1417 C1413 1.393 . S
C1417 C1416 1.391 . S
H1418 C1426 0.950 . S
H1419 C1431 0.950 . S
H1420 C1428 0.950 . S
H1421 C1430 0.950 . S
H1422 C1432 0.950 . S
H1423 C1434 0.950 . S
H1424 C1436 0.950 . S
H1425 C1437 0.950 . S
C1426 H1418 0.950 . S
C1426 C1427 1.386 . S
C1426 C1428 1.391 . S
C1427 C1426 1.386 . S
C1427 C1431 1.393 . S
C1428 H1420 0.950 . S
C1428 C1426 1.391 . S
C1428 C1429 1.400 . S
C1429 C1428 1.400 . S
C1429 C1430 1.398 . S
C1429 C1435 1.491 . S
C1430 H1421 0.950 . S
C1430 C1429 1.398 . S
C1430 C1431 1.391 . S
C1431 H1419 0.950 . S
C1431 C1427 1.393 . S
C1431 C1430 1.391 . S
C1432 H1422 0.950 . S
C1432 C1433 1.386 . S
C1432 C1434 1.391 . S
C1433 C1432 1.386 . S
C1433 C1437 1.393 . S
C1434 H1423 0.950 . S
C1434 C1432 1.391 . S
C1434 C1435 1.400 . S
C1435 C1429 1.491 . S
C1435 C1434 1.400 . S
C1435 C1436 1.398 . S
C1436 H1424 0.950 . S
C1436 C1435 1.398 . S
C1436 C1437 1.391 . S
C1437 H1425 0.950 . S
C1437 C1433 1.393 . S
C1437 C1436 1.391 . S
H1438 C1446 0.950 . S
H1439 C1451 0.950 . S
H1440 C1448 0.950 . S
H1441 C1450 0.950 . S
H1442 C1452 0.950 . S
H1443 C1454 0.950 . S
H1444 C1456 0.950 . S
H1445 C1457 0.950 . S
C1446 H1438 0.950 . S
C1446 C1447 1.386 . S
C1446 C1448 1.391 . S
C1447 C1446 1.386 . S
C1447 C1451 1.393 . S
C1448 H1440 0.950 . S
C1448 C1446 1.391 . S
C1448 C1449 1.400 . S
C1449 C1448 1.400 . S
C1449 C1450 1.398 . S
C1449 C1455 1.491 . S
C1450 H1441 0.950 . S
C1450 C1449 1.398 . S
C1450 C1451 1.391 . S
C1451 H1439 0.950 . S
C1451 C1447 1.393 . S
C1451 C1450 1.391 . S
C1452 H1442 0.950 . S
C1452 C1453 1.386 . S
C1452 C1454 1.391 . S
C1453 C1452 1.386 . S
C1453 C1457 1.393 . S
C1454 H1443 0.950 . S
C1454 C1452 1.391 . S
C1454 C1455 1.400 . S
C1455 C1449 1.491 . S
C1455 C1454 1.400 . S
C1455 C1456 1.398 . S
C1456 H1444 0.950 . S
C1456 C1455 1.398 . S
C1456 C1457 1.391 . S
C1457 H1445 0.950 . S
C1457 C1453 1.393 . S
C1457 C1456 1.391 . S
H1458 C1466 0.950 . S
H1459 C1471 0.950 . S
H1460 C1468 0.950 . S
H1461 C1470 0.950 . S
H1462 C1472 0.950 . S
H1463 C1474 0.950 . S
H1464 C1476 0.950 . S
H1465 C1477 0.950 . S
C1466 H1458 0.950 . S
C1466 C1467 1.386 . S
C1466 C1468 1.391 . S
C1467 C1466 1.386 . S
C1467 C1471 1.393 . S
C1468 H1460 0.950 . S
C1468 C1466 1.391 . S
C1468 C1469 1.400 . S
C1469 C1468 1.400 . S
C1469 C1470 1.398 . S
C1469 C1475 1.491 . S
C1470 H1461 0.950 . S
C1470 C1469 1.398 . S
C1470 C1471 1.391 . S
C1471 H1459 0.950 . S
C1471 C1467 1.393 . S
C1471 C1470 1.391 . S
C1472 H1462 0.950 . S
C1472 C1473 1.386 . S
C1472 C1474 1.391 . S
C1473 C1472 1.386 . S
C1473 C1477 1.393 . S
C1474 H1463 0.950 . S
C1474 C1472 1.391 . S
C1474 C1475 1.400 . S
C1475 C1469 1.491 . S
C1475 C1474 1.400 . S
C1475 C1476 1.398 . S
C1476 H1464 0.950 . S
C1476 C1475 1.398 . S
C1476 C1477 1.391 . S
C1477 H1465 0.950 . S
C1477 C1473 1.393 . S
C1477 C1476 1.391 . S
H1478 C1486 0.950 . S
H1479 C1491 0.950 . S
H1480 C1488 0.950 . S
H1481 C1490 0.950 . S
H1482 C1492 0.950 . S
H1483 C1494 0.950 . S
H1484 C1496 0.950 . S
H1485 C1497 0.950 . S
C1486 H1478 0.950 . S
C1486 C1487 1.386 . S
C1486 C1488 1.391 . S
C1487 C1486 1.386 . S
C1487 C1491 1.393 . S
C1488 H1480 0.950 . S
C1488 C1486 1.391 . S
C1488 C1489 1.400 . S
C1489 C1488 1.400 . S
C1489 C1490 1.398 . S
C1489 C1495 1.491 . S
C1490 H1481 0.950 . S
C1490 C1489 1.398 . S
C1490 C1491 1.391 . S
C1491 H1479 0.950 . S
C1491 C1487 1.393 . S
C1491 C1490 1.391 . S
C1492 H1482 0.950 . S
C1492 C1493 1.386 . S
C1492 C1494 1.391 . S
C1493 C1492 1.386 . S
C1493 C1497 1.393 . S
C1494 H1483 0.950 . S
C1494 C1492 1.391 . S
C1494 C1495 1.400 . S
C1495 C1489 1.491 . S
C1495 C1494 1.400 . S
C1495 C1496 1.398 . S
C1496 H1484 0.950 . S
C1496 C1495 1.398 . S
C1496 C1497 1.391 . S
C1497 H1485 0.950 . S
C1497 C1493 1.393 . S
C1497 C1496 1.391 . S
H1498 C1506 0.950 . S
H1499 C1511 0.950 . S
H1500 C1508 0.950 . S
H1501 C1510 0.950 . S
H1502 C1512 0.950 . S
H1503 C1514 0.950 . S
H1504 C1516 0.950 . S
H1505 C1517 0.950 . S
C1506 H1498 0.950 . S
C1506 C1507 1.386 . S
C1506 C1508 1.391 . S
C1507 C1506 1.386 . S
C1507 C1511 1.393 . S
C1508 H1500 0.950 . S
C1508 C1506 1.391 . S
C1508 C1509 1.400 . S
C1509 C1508 1.400 . S
C1509 C1510 1.398 . S
C1509 C1515 1.491 . S
C1510 H1501 0.950 . S
C1510 C1509 1.398 . S
C1510 C1511 1.391 . S
C1511 H1499 0.950 . S
C1511 C1507 1.393 . S
C1511 C1510 1.391 . S
C1512 H1502 0.950 . S
C1512 C1513 1.386 . S
C1512 C1514 1.391 . S
C1513 C1512 1.386 . S
C1513 C1517 1.393 . S
C1514 H1503 0.950 . S
C1514 C1512 1.391 . S
C1514 C1515 1.400 . S
C1515 C1509 1.491 . S
C1515 C1514 1.400 . S
C1515 C1516 1.398 . S
C1516 H1504 0.950 . S
C1516 C1515 1.398 . S
C1516 C1517 1.391 . S
C1517 H1505 0.950 . S
C1517 C1513 1.393 . S
C1517 C1516 1.391 . S
H1518 C1526 0.950 . S
H1519 C1531 0.950 . S
H1520 C1528 0.950 . S
H1521 C1530 0.950 . S
H1522 C1532 0.950 . S
H1523 C1534 0.950 . S
H1524 C1536 0.950 . S
H1525 C1537 0.950 . S
C1526 H1518 0.950 . S
C1526 C1527 1.386 . S
C1526 C1528 1.391 . S
C1527 C1526 1.386 . S
C1527 C1531 1.393 . S
C1528 H1520 0.950 . S
C1528 C1526 1.391 . S
C1528 C1529 1.400 . S
C1529 C1528 1.400 . S
C1529 C1530 1.398 . S
C1529 C1535 1.491 . S
C1530 H1521 0.950 . S
C1530 C1529 1.398 . S
C1530 C1531 1.391 . S
C1531 H1519 0.950 . S
C1531 C1527 1.393 . S
C1531 C1530 1.391 . S
C1532 H1522 0.950 . S
C1532 C1533 1.386 . S
C1532 C1534 1.391 . S
C1533 C1532 1.386 . S
C1533 C1537 1.393 . S
C1534 H1523 0.950 . S
C1534 C1532 1.391 . S
C1534 C1535 1.400 . S
C1535 C1529 1.491 . S
C1535 C1534 1.400 . S
C1535 C1536 1.398 . S
C1536 H1524 0.950 . S
C1536 C1535 1.398 . S
C1536 C1537 1.391 . S
C1537 H1525 0.950 . S
C1537 C1533 1.393 . S
C1537 C1536 1.391 . S
H1538 C1546 0.950 . S
H1539 C1551 0.950 . S
H1540 C1548 0.950 . S
H1541 C1550 0.950 . S
H1542 C1552 0.950 . S
H1543 C1554 0.950 . S
H1544 C1556 0.950 . S
H1545 C1557 0.950 . S
C1546 H1538 0.950 . S
C1546 C1547 1.386 . S
C1546 C1548 1.391 . S
C1547 C1546 1.386 . S
C1547 C1551 1.393 . S
C1548 H1540 0.950 . S
C1548 C1546 1.391 . S
C1548 C1549 1.400 . S
C1549 C1548 1.400 . S
C1549 C1550 1.398 . S
C1549 C1555 1.491 . S
C1550 H1541 0.950 . S
C1550 C1549 1.398 . S
C1550 C1551 1.391 . S
C1551 H1539 0.950 . S
C1551 C1547 1.393 . S
C1551 C1550 1.391 . S
C1552 H1542 0.950 . S
C1552 C1553 1.386 . S
C1552 C1554 1.391 . S
C1553 C1552 1.386 . S
C1553 C1557 1.393 . S
C1554 H1543 0.950 . S
C1554 C1552 1.391 . S
C1554 C1555 1.400 . S
C1555 C1549 1.491 . S
C1555 C1554 1.400 . S
C1555 C1556 1.398 . S
C1556 H1544 0.950 . S
C1556 C1555 1.398 . S
C1556 C1557 1.391 . S
C1557 H1545 0.950 . S
C1557 C1553 1.393 . S
C1557 C1556 1.391 . S
H1558 C1566 0.950 . S
H1559 C1571 0.950 . S
H1560 C1568 0.950 . S
H1561 C1570 0.950 . S
H1562 C1572 0.950 . S
H1563 C1574 0.950 . S
H1564 C1576 0.950 . S
H1565 C1577 0.950 . S
C1566 H1558 0.950 . S
C1566 C1567 1.386 . S
C1566 C1568 1.391 . S
C1567 C1566 1.386 . S
C1567 C1571 1.393 . S
C1568 H1560 0.950 . S
C1568 C1566 1.391 . S
C1568 C1569 1.400 . S
C1569 C1568 1.400 . S
C1569 C1570 1.398 . S
C1569 C1575 1.491 . S
C1570 H1561 0.950 . S
C1570 C1569 1.398 . S
C1570 C1571 1.391 . S
C1571 H1559 0.950 . S
C1571 C1567 1.393 . S
C1571 C1570 1.391 . S
C1572 H1562 0.950 . S
C1572 C1573 1.386 . S
C1572 C1574 1.391 . S
C1573 C1572 1.386 . S
C1573 C1577 1.393 . S
C1574 H1563 0.950 . S
C1574 C1572 1.391 . S
C1574 C1575 1.400 . S
C1575 C1569 1.491 . S
C1575 C1574 1.400 . S
C1575 C1576 1.398 . S
C1576 H1564 0.950 . S
C1576 C1575 1.398 . S
C1576 C1577 1.391 . S
C1577 H1565 0.950 . S
C1577 C1573 1.393 . S
C1577 C1576 1.391 . S
H1578 C1586 0.950 . S
H1579 C1591 0.950 . S
H1580 C1588 0.950 . S
H1581 C1590 0.950 . S
H1582 C1592 0.950 . S
H1583 C1594 0.950 . S
H1584 C1596 0.950 . S
H1585 C1597 0.950 . S
C1586 H1578 0.950 . S
C1586 C1587 1.386 . S
C1586 C1588 1.391 . S
C1587 C1586 1.386 . S
C1587 C1591 1.393 . S
C1588 H1580 0.950 . S
C1588 C1586 1.391 . S
C1588 C1589 1.400 . S
C1589 C1588 1.400 . S
C1589 C1590 1.398 . S
C1589 C1595 1.491 . S
C1590 H1581 0.950 . S
C1590 C1589 1.398 . S
C1590 C1591 1.391 . S
C1591 H1579 0.950 . S
C1591 C1587 1.393 . S
C1591 C1590 1.391 . S
C1592 H1582 0.950 . S
C1592 C1593 1.386 . S
C1592 C1594 1.391 . S
C1593 C1592 1.386 . S
C1593 C1597 1.393 . S
C1594 H1583 0.950 . S
C1594 C1592 1.391 . S
C1594 C1595 1.400 . S
C1595 C1589 1.491 . S
C1595 C1594 1.400 . S
C1595 C1596 1.398 . S
C1596 H1584 0.950 . S
C1596 C1595 1.398 . S
C1596 C1597 1.391 . S
C1597 H1585 0.950 . S
C1597 C1593 1.393 . S
C1597 C1596 1.391 . S
H1598 C1606 0.950 . S
H1599 C1611 0.950 . S
H1600 C1608 0.950 . S
H1601 C1610 0.950 . S
H1602 C1612 0.950 . S
H1603 C1614 0.950 . S
H1604 C1616 0.950 . S
H1605 C1617 0.950 . S
C1606 H1598 0.950 . S
C1606 C1607 1.386 . S
C1606 C1608 1.391 . S
C1607 C1606 1.386 . S
C1607 C1611 1.393 . S
C1608 H1600 0.950 . S
C1608 C1606 1.391 . S
C1608 C1609 1.400 . S
C1609 C1608 1.400 . S
C1609 C1610 1.398 . S
C1609 C1615 1.491 . S
C1610 H1601 0.950 . S
C1610 C1609 1.398 . S
C1610 C1611 1.391 . S
C1611 H1599 0.950 . S
C1611 C1607 1.393 . S
C1611 C1610 1.391 . S
C1612 H1602 0.950 . S
C1612 C1613 1.386 . S
C1612 C1614 1.391 . S
C1613 C1612 1.386 . S
C1613 C1617 1.393 . S
C1614 H1603 0.950 . S
C1614 C1612 1.391 . S
C1614 C1615 1.400 . S
C1615 C1609 1.491 . S
C1615 C1614 1.400 . S
C1615 C1616 1.398 . S
C1616 H1604 0.950 . S
C1616 C1615 1.398 . S
C1616 C1617 1.391 . S
C1617 H1605 0.950 . S
C1617 C1613 1.393 . S
C1617 C1616 1.391 . S
H1618 C1626 0.950 . S
H1619 C1631 0.950 . S
H1620 C1628 0.950 . S
H1621 C1630 0.950 . S
H1622 C1632 0.950 . S
H1623 C1634 0.950 . S
H1624 C1636 0.950 . S
H1625 C1637 0.950 . S
C1626 H1618 0.950 . S
C1626 C1627 1.386 . S
C1626 C1628 1.391 . S
C1627 C1626 1.386 . S
C1627 C1631 1.393 . S
C1628 H1620 0.950 . S
C1628 C1626 1.391 . S
C1628 C1629 1.400 . S
C1629 C1628 1.400 . S
C1629 C1630 1.398 . S
C1629 C1635 1.491 . S
C1630 H1621 0.950 . S
C1630 C1629 1.398 . S
C1630 C1631 1.391 . S
C1631 H1619 0.950 . S
C1631 C1627 1.393 . S
C1631 C1630 1.391 . S
C1632 H1622 0.950 . S
C1632 C1633 1.386 . S
C1632 C1634 1.391 . S
C1633 C1632 1.386 . S
C1633 C1637 1.393 . S
C1634 H1623 0.950 . S
C1634 C1632 1.391 . S
C1634 C1635 1.400 . S
C1635 C1629 1.491 . S
C1635 C1634 1.400 . S
C1635 C1636 1.398 . S
C1636 H1624 0.950 . S
C1636 C1635 1.398 . S
C1636 C1637 1.391 . S
C1637 H1625 0.950 . S
C1637 C1633 1.393 . S
C1637 C1636 1.391 . S
C567 C147 1.669 . S
C573 C201 1.680 . S
C587 C158 1.797 . S
C593 C241 1.794 . S
C607 C136 1.591 . S
C613 C293 1.580 . S
C627 C125 1.476 . S
C633 C253 1.464 1_556 S
C653 C281 1.505 . S
C647 C103 1.504 . S
C667 C114 1.352 . S
C673 C213 1.328 1_556 S
C693 C220 1.676 . S
C687 C131 1.657 . S
C713 C260 1.675 . S
C707 C109 1.664 . S
C727 C120 1.648 . S
C733 C280 1.671 . S
C747 C153 1.502 . S
C753 C240 1.514 . S
C767 C164 1.452 . S
C773 C300 1.458 . S
C793 C200 1.467 . S
C787 C142 1.450 . S
C813 C321 1.682 . S
C807 C15 1.677 . S
C827 C26 1.797 . S
C833 C361 1.794 . S
C847 C4 1.602 . S
C853 C413 1.597 . S
C867 C191 1.471 . S
C873 C373 1.451 . S
C887 C169 1.504 . S
C893 C401 1.500 . S
C907 C180 1.362 . S
C913 C333 1.359 . S
C927 C197 1.660 . S
C933 C340 1.677 . S
C947 C175 1.675 . S
C953 C380 1.682 . S
C973 C400 1.670 . S
C967 C186 1.646 . S
C987 C21 1.500 . S
C993 C360 1.504 . S
C1013 C420 1.465 . S
C1007 C32 1.462 . S
C1027 C10 1.441 . S
C1033 C320 1.466 . S
C1053 C441 1.681 . S
C1047 C81 1.676 . S
C1067 C92 1.801 . S
C1073 C481 1.797 . S
C1093 C533 1.587 . S
C1087 C70 1.603 . S
C1113 C493 1.450 . S
C1107 C59 1.476 . S
C1133 C521 1.501 . S
C1127 C37 1.505 . S
C1147 C48 1.348 . S
C1153 C453 1.350 . S
C1167 C65 1.660 . S
C1173 C460 1.677 . S
C1187 C43 1.674 . S
C1193 C500 1.683 . S
C1213 C520 1.685 . S
C1207 C54 1.660 . S
C1227 C87 1.508 . S
C1233 C480 1.511 . S
C1247 C98 1.456 . S
C1253 C540 1.462 . S
C1267 C76 1.458 . S
C1273 C440 1.475 . S
C1287 C170 1.481 . S
C1293 C224 1.453 . S
C1313 C264 1.918 . S
C1307 C181 1.950 . S
C1327 C192 1.566 . S
C1333 C287 1.576 . S
C1347 C71 1.776 . S
C1353 C247 1.778 . S
C1367 C82 1.685 . S
C1373 C304 1.670 . S
C1393 C207 1.306 . S
C1387 C93 1.305 . S
C1407 C38 1.492 . S
C1413 C344 1.472 . S
C1427 C49 1.945 . S
C1433 C384 1.912 . S
C1447 C60 1.560 . S
C1453 C407 1.578 . S
C1467 C137 1.789 . S
C1473 C367 1.788 . S
C1493 C424 1.668 . S
C1487 C148 1.684 . S
C1507 C159 1.302 . S
C1513 C327 1.304 . S
C1527 C104 1.486 . S
C1533 C464 1.459 . S
C1547 C115 1.942 . S
C1553 C504 1.907 . S
C1573 C527 1.577 . S
C1567 C126 1.566 . S
C1587 C5 1.784 . S
C1593 C487 1.779 . S
C1607 C16 1.679 . S
C1613 C544 1.661 . S
C1627 C27 1.303 . S
C1633 C447 1.307 . S
