# Generated by pormake.
# Topology zzz, (3,6)-cn, num edge types: 1
# Building blocks:
#     Node 0, Type 0, BuildingBlock: PAMTOO_clean_linker_0, # of connection points: 3
#     Node 1, Type 0, BuildingBlock: PAMTOO_clean_linker_0, # of connection points: 3
#     Node 2, Type 0, BuildingBlock: PAMTOO_clean_linker_0, # of connection points: 3
#     Node 3, Type 0, BuildingBlock: PAMTOO_clean_linker_0, # of connection points: 3
#     Node 4, Type 0, BuildingBlock: PAMTOO_clean_linker_0, # of connection points: 3
#     Node 5, Type 0, BuildingBlock: PAMTOO_clean_linker_0, # of connection points: 3
#     Node 6, Type 0, BuildingBlock: PAMTOO_clean_linker_0, # of connection points: 3
#     Node 7, Type 0, BuildingBlock: PAMTOO_clean_linker_0, # of connection points: 3
#     Node 8, Type 1, BuildingBlock: MIFKUJ_clean_sbu_0, # of connection points: 6
#     Node 9, Type 1, BuildingBlock: MIFKUJ_clean_sbu_0, # of connection points: 6
#     Node 10, Type 1, BuildingBlock: MIFKUJ_clean_sbu_0, # of connection points: 6
#     Node 11, Type 1, BuildingBlock: MIFKUJ_clean_sbu_0, # of connection points: 6
#     Edge 12, Type (0, 1), BuildingBlock: MIFKUJ_clean_linker_0, # of connection points: 2
#     Edge 13, Type (0, 1), BuildingBlock: MIFKUJ_clean_linker_0, # of connection points: 2
#     Edge 14, Type (0, 1), BuildingBlock: MIFKUJ_clean_linker_0, # of connection points: 2
#     Edge 15, Type (0, 1), BuildingBlock: MIFKUJ_clean_linker_0, # of connection points: 2
#     Edge 16, Type (0, 1), BuildingBlock: MIFKUJ_clean_linker_0, # of connection points: 2
#     Edge 17, Type (0, 1), BuildingBlock: MIFKUJ_clean_linker_0, # of connection points: 2
#     Edge 18, Type (0, 1), BuildingBlock: MIFKUJ_clean_linker_0, # of connection points: 2
#     Edge 19, Type (0, 1), BuildingBlock: MIFKUJ_clean_linker_0, # of connection points: 2
#     Edge 20, Type (0, 1), BuildingBlock: MIFKUJ_clean_linker_0, # of connection points: 2
#     Edge 21, Type (0, 1), BuildingBlock: MIFKUJ_clean_linker_0, # of connection points: 2
#     Edge 22, Type (0, 1), BuildingBlock: MIFKUJ_clean_linker_0, # of connection points: 2
#     Edge 23, Type (0, 1), BuildingBlock: MIFKUJ_clean_linker_0, # of connection points: 2
#     Edge 24, Type (0, 1), BuildingBlock: MIFKUJ_clean_linker_0, # of connection points: 2
#     Edge 25, Type (0, 1), BuildingBlock: MIFKUJ_clean_linker_0, # of connection points: 2
#     Edge 26, Type (0, 1), BuildingBlock: MIFKUJ_clean_linker_0, # of connection points: 2
#     Edge 27, Type (0, 1), BuildingBlock: MIFKUJ_clean_linker_0, # of connection points: 2
#     Edge 28, Type (0, 1), BuildingBlock: MIFKUJ_clean_linker_0, # of connection points: 2
#     Edge 29, Type (0, 1), BuildingBlock: MIFKUJ_clean_linker_0, # of connection points: 2
#     Edge 30, Type (0, 1), BuildingBlock: MIFKUJ_clean_linker_0, # of connection points: 2
#     Edge 31, Type (0, 1), BuildingBlock: MIFKUJ_clean_linker_0, # of connection points: 2
#     Edge 32, Type (0, 1), BuildingBlock: MIFKUJ_clean_linker_0, # of connection points: 2
#     Edge 33, Type (0, 1), BuildingBlock: MIFKUJ_clean_linker_0, # of connection points: 2
#     Edge 34, Type (0, 1), BuildingBlock: MIFKUJ_clean_linker_0, # of connection points: 2
#     Edge 35, Type (0, 1), BuildingBlock: MIFKUJ_clean_linker_0, # of connection points: 2
# Relax obj value: 0.112
# Max RMSD: 0.116
# Mean RMSD: 0.084
data_MOF--net-zzz--node1-MIFKUJ_clean_sbu_0--node2-PAMTOO_clean_linker_0--edge1-MIFKUJ_clean_linker_0
_symmetry_space_group_name_H-M    P1
_symmetry_Int_Tables_number       1
_symmetry_cell_setting            triclinic
loop_
_symmetry_equiv_pos_as_xyz
'x, y, z'
_cell_length_a     66.249863
_cell_length_b     65.466289
_cell_length_c     20.47224
_cell_angle_alpha  89.994607
_cell_angle_beta   90.271761
_cell_angle_gamma 90.002904
loop_
_atom_site_label
_atom_site_type_symbol
_atom_site_fract_x
_atom_site_fract_y
_atom_site_fract_z
_atom_type_partial_charge
H0 H 0.7943 0.47262 0.12146 0.0
H1 H 0.74079 0.47247 0.00141 0.0
H2 H 0.74099 0.50332 0.1873 0.0
H3 H 0.72567 0.51724 0.02276 0.0
C4 C 0.7131 0.51095 0.05272 0.0
O5 O 0.71888 0.49318 0.08408 0.0
H6 H 0.7094 0.52269 0.09004 0.0
C7 C 0.77857 0.47648 0.11393 0.0
C8 C 0.76888 0.4883 0.16115 0.0
C9 C 0.76882 0.47081 0.05575 0.0
C10 C 0.74861 0.47658 0.04613 0.0
C11 C 0.73846 0.48802 0.09386 0.0
C12 C 0.74868 0.4941 0.15121 0.0
H13 H 0.97 0.797 0.11175 0.0
H14 H 0.97562 0.73922 0.01364 0.0
H15 H 0.97543 0.74173 0.224 0.0
H16 H 0.99776 0.69998 0.16589 0.0
C17 C 0.99443 0.70669 0.11715 0.0
O18 O 0.97647 0.71737 0.12052 0.0
H19 H 0.00728 0.71702 0.10516 0.0
C20 C 0.97108 0.78046 0.11379 0.0
C21 C 0.9722 0.77081 0.17463 0.0
C22 C 0.97249 0.76931 0.05567 0.0
C23 C 0.97458 0.74803 0.05833 0.0
C24 C 0.97537 0.73802 0.1189 0.0
C25 C 0.97453 0.74945 0.17727 0.0
H26 H 0.71335 0.98069 0.12155 0.0
H27 H 0.76269 0.99171 0.99055 0.0
H28 H 0.77331 0.98873 0.19803 0.0
H29 H 0.8038 0.01776 0.12336 0.0
C30 C 0.79879 0.01207 0.07474 0.0
O31 O 0.79026 0.99298 0.08259 0.0
H32 H 0.78763 0.02311 0.05432 0.0
C33 C 0.72935 0.98291 0.11322 0.0
C34 C 0.74245 0.98392 0.16693 0.0
C35 C 0.73634 0.98597 0.04955 0.0
C36 C 0.75698 0.98944 0.03953 0.0
C37 C 0.77034 0.9902 0.09298 0.0
C38 C 0.76303 0.98778 0.15685 0.0
H39 H 0.5364 0.71198 0.05097 0.0
H40 H 0.53065 0.77363 0.98329 0.0
H41 H 0.51401 0.75869 0.18041 0.0
H42 H 0.49601 0.80647 0.12493 0.0
C43 C 0.50135 0.79834 0.08067 0.0
O44 O 0.51931 0.78856 0.09569 0.0
H45 H 0.48946 0.78703 0.06711 0.0
C46 C 0.53228 0.72769 0.06087 0.0
C47 C 0.52434 0.73304 0.12209 0.0
C48 C 0.53407 0.74198 0.01032 0.0
C49 C 0.52935 0.76245 0.02208 0.0
C50 C 0.52273 0.76851 0.08402 0.0
C51 C 0.51991 0.75383 0.13371 0.0
H52 H 0.21001 0.52544 0.10449 0.0
H53 H 0.2673 0.5225 0.20369 0.0
H54 H 0.26145 0.49984 0.00697 0.0
H55 H 0.29836 0.47781 0.09023 0.0
C56 C 0.29377 0.48786 0.13132 0.0
O57 O 0.28669 0.50611 0.10606 0.0
H58 H 0.28172 0.47956 0.1584 0.0
C59 C 0.22605 0.52202 0.104 0.0
C60 C 0.23435 0.51278 0.04877 0.0
C61 C 0.23769 0.5254 0.16023 0.0
C62 C 0.25819 0.52013 0.16026 0.0
C63 C 0.26686 0.51114 0.1049 0.0
C64 C 0.25487 0.50721 0.04918 0.0
H65 H 0.02868 0.2145 0.10495 0.0
H66 H 0.01868 0.27299 0.19366 0.0
H67 H 0.02088 0.26772 0.984 0.0
H68 H 0.03543 0.31336 0.03719 0.0
C69 C 0.03249 0.30765 0.08739 0.0
O70 O 0.01705 0.29341 0.08392 0.0
H71 H 0.04671 0.30058 0.10583 0.0
C72 C 0.02687 0.23093 0.1002 0.0
C73 C 0.02546 0.2396 0.03794 0.0
C74 C 0.02428 0.24283 0.15627 0.0
C75 C 0.02093 0.26383 0.1503 0.0
C76 C 0.02032 0.27301 0.08844 0.0
C77 C 0.02224 0.26081 0.03189 0.0
H78 H 0.28897 0.97508 0.11675 0.0
H79 H 0.23092 0.9814 0.20786 0.0
H80 H 0.23887 0.999 0.0072 0.0
H81 H 0.2021 0.02381 0.07583 0.0
C82 C 0.20698 0.0156 0.12072 0.0
O83 O 0.21298 0.9961 0.10385 0.0
H84 H 0.21967 0.02458 0.14229 0.0
C85 C 0.27295 0.97842 0.11338 0.0
C86 C 0.26523 0.98643 0.05507 0.0
C87 C 0.26085 0.9768 0.16912 0.0
C88 C 0.24043 0.98233 0.16506 0.0
C89 C 0.23245 0.99003 0.10644 0.0
C90 C 0.2449 0.99232 0.05161 0.0
H91 H 0.47324 0.29558 0.10878 0.0
H92 H 0.48612 0.23702 0.19437 0.0
H93 H 0.48605 0.24407 0.98539 0.0
H94 H 0.47759 0.19467 0.032 0.0
C95 C 0.47622 0.20238 0.08007 0.0
O96 O 0.49037 0.21793 0.08336 0.0
H97 H 0.4606 0.20867 0.08291 0.0
C98 C 0.47595 0.27932 0.10312 0.0
C99 C 0.47875 0.27132 0.04042 0.0
C100 C 0.47883 0.26719 0.15879 0.0
C101 C 0.48348 0.24644 0.15164 0.0
C102 C 0.48541 0.23792 0.0892 0.0
C103 C 0.48349 0.25045 0.03346 0.0
Zn104 Zn 0.99868 0.02793 0.5728 0.0
Zn105 Zn 0.00911 0.98238 0.63297 0.0
C106 C 0.9968 0.0558 0.67597 0.0
O107 O 0.97822 0.05521 0.6533 0.0
C108 C 0.01046 0.95172 0.53941 0.0
O109 O 0.02877 0.95232 0.56436 0.0
O110 O 0.99269 0.05154 0.51321 0.0
O111 O 0.01966 0.01163 0.5241 0.0
O112 O 0.03521 0.99578 0.60479 0.0
C113 C 0.00863 0.0617 0.50136 0.0
O114 O 0.02598 0.05481 0.52357 0.0
O115 O 0.00971 0.04345 0.65212 0.0
C116 C 0.99852 0.95085 0.71367 0.0
O117 O 0.98122 0.95836 0.69323 0.0
O118 O 0.01481 0.95964 0.69666 0.0
O119 O 0.98812 0.99945 0.67969 0.0
O120 O 0.97267 0.01407 0.59683 0.0
O121 O 0.99788 0.96538 0.55711 0.0
C122 C 0.03557 0.00384 0.54834 0.0
C123 C 0.97213 0.00655 0.65392 0.0
Zn124 Zn 0.47071 0.003 0.60745 0.0
Zn125 Zn 0.53219 0.00618 0.60342 0.0
C126 C 0.4526 0.0033 0.73547 0.0
O127 O 0.46127 0.98532 0.74034 0.0
C128 C 0.57048 0.01167 0.54598 0.0
O129 O 0.5676 0.02979 0.57193 0.0
O130 O 0.44698 0.99421 0.55286 0.0
O131 O 0.48402 0.02541 0.55472 0.0
O132 O 0.51741 0.0278 0.55078 0.0
C133 C 0.4332 0.00761 0.54665 0.0
O134 O 0.43613 0.02585 0.57171 0.0
O135 O 0.45666 0.01456 0.68666 0.0
C136 C 0.54826 0.00762 0.73411 0.0
O137 O 0.53754 0.99091 0.74147 0.0
O138 O 0.54563 0.01836 0.68304 0.0
O139 O 0.51894 0.97956 0.62955 0.0
O140 O 0.4856 0.97721 0.63266 0.0
O141 O 0.55649 0.99841 0.54992 0.0
C142 C 0.49995 0.03418 0.53453 0.0
C143 C 0.50298 0.96934 0.64026 0.0
Zn144 Zn 0.50662 0.48239 0.57026 0.0
Zn145 Zn 0.49716 0.5273 0.62951 0.0
C146 C 0.50965 0.45401 0.6726 0.0
O147 O 0.5281 0.45482 0.64946 0.0
C148 C 0.49567 0.55685 0.53384 0.0
O149 O 0.47855 0.55845 0.56555 0.0
O150 O 0.51302 0.45906 0.51007 0.0
O151 O 0.48467 0.4987 0.5243 0.0
O152 O 0.47002 0.51478 0.60587 0.0
C153 C 0.49873 0.45126 0.47679 0.0
O154 O 0.48093 0.46009 0.4766 0.0
O155 O 0.49647 0.46623 0.64915 0.0
C156 C 0.51143 0.56108 0.68986 0.0
O157 O 0.52708 0.55196 0.66359 0.0
O158 O 0.49439 0.55204 0.68814 0.0
O159 O 0.51819 0.51027 0.6779 0.0
O160 O 0.53295 0.49633 0.59337 0.0
O161 O 0.5074 0.54196 0.54741 0.0
C162 C 0.46907 0.50688 0.54914 0.0
C163 C 0.534 0.50332 0.65108 0.0
Zn164 Zn 0.02571 0.51306 0.5885 0.0
Zn165 Zn 0.97786 0.49551 0.62727 0.0
C166 C 0.04812 0.51243 0.70796 0.0
O167 O 0.0431 0.53182 0.70547 0.0
C168 C 0.95088 0.49044 0.52097 0.0
O169 O 0.95566 0.47141 0.53438 0.0
O170 O 0.04938 0.52383 0.53798 0.0
O171 O 0.01367 0.49242 0.526 0.0
O172 O 0.99681 0.47323 0.59504 0.0
C173 C 0.0623 0.50984 0.52759 0.0
O174 O 0.05825 0.49114 0.54685 0.0
O175 O 0.04051 0.5002 0.6661 0.0
C176 C 0.94202 0.49276 0.69611 0.0
O177 O 0.94195 0.51178 0.67547 0.0
O178 O 0.95731 0.48167 0.68418 0.0
O179 O 0.98724 0.52024 0.68046 0.0
O180 O 0.00902 0.537 0.6187 0.0
O181 O 0.96 0.5047 0.55147 0.0
C182 C 0.0063 0.47521 0.54161 0.0
C183 C 0.99687 0.53651 0.66657 0.0
H184 H 0.20959 0.01029 0.25307 0.0
H185 H 0.18189 0.00787 0.33204 0.0
H186 H 0.13868 0.0153 0.17547 0.0
H187 H 0.16634 0.01763 0.0966 0.0
H188 H 0.13067 0.0401 0.28108 0.0
H189 H 0.14679 0.96915 0.24115 0.0
H190 H 0.16954 0.93939 0.2366 0.0
H191 H 0.1823 0.94564 0.44146 0.0
H192 H 0.15982 0.97564 0.44703 0.0
H193 H 0.03891 0.01176 0.41849 0.0
H194 H 0.06941 0.01351 0.35326 0.0
H195 H 0.10536 0.99876 0.52311 0.0
H196 H 0.07455 0.9963 0.58886 0.0
H197 H 0.11934 0.97912 0.42014 0.0
H198 H 0.10212 0.04849 0.46349 0.0
H199 H 0.08061 0.07917 0.46959 0.0
H200 H 0.07115 0.07709 0.26209 0.0
H201 H 0.0924 0.04624 0.25478 0.0
C202 C 0.19415 0.0114 0.23579 0.0
C203 C 0.19001 0.0144 0.16911 0.0
C204 C 0.17838 0.00996 0.28074 0.0
C205 C 0.15824 0.01137 0.25955 0.0
C206 C 0.15412 0.01427 0.19284 0.0
C207 C 0.16987 0.01559 0.14791 0.0
C208 C 0.14136 0.01011 0.30675 0.0
C209 C 0.12805 0.02669 0.31105 0.0
C210 C 0.13844 0.99292 0.34755 0.0
C211 C 0.1518 0.97477 0.34435 0.0
C212 C 0.15457 0.96428 0.28512 0.0
C213 C 0.16739 0.94735 0.28237 0.0
C214 C 0.17741 0.94066 0.33866 0.0
C215 C 0.17456 0.95085 0.39787 0.0
C216 C 0.16177 0.96781 0.40086 0.0
C217 C 0.05327 0.00885 0.44221 0.0
C218 C 0.0543 0.00405 0.50911 0.0
C219 C 0.07075 0.00997 0.4048 0.0
C220 C 0.08976 0.00678 0.43353 0.0
C221 C 0.09087 1.00145 0.49998 0.0
C222 C 0.07327 1.00006 0.5375 0.0
C223 C 0.1083 0.00897 0.39352 0.0
C224 C 0.122 0.99261 0.39066 0.0
C225 C 0.11171 0.02648 0.35437 0.0
C226 C 0.09877 0.04497 0.35867 0.0
C227 C 0.09533 0.05448 0.41921 0.0
C228 C 0.08321 0.07192 0.42287 0.0
C229 C 0.07452 0.08006 0.36625 0.0
C230 C 0.0779 0.07077 0.30588 0.0
C231 C 0.09001 0.05332 0.30195 0.0
H232 H 0.06522 0.09361 0.36908 0.0
H233 H 0.18733 0.92755 0.33643 0.0
H234 H 0.51221 0.18766 0.13046 0.0
H235 H 0.51711 0.16036 0.21099 0.0
H236 H 0.45256 0.15313 0.22605 0.0
H237 H 0.44767 0.1808 0.14715 0.0
H238 H 0.46857 0.15034 0.34284 0.0
H239 H 0.48295 0.12016 0.13432 0.0
H240 H 0.50001 0.11688 0.02802 0.0
H241 H 0.55726 0.11108 0.12545 0.0
H242 H 0.54056 0.11459 0.23237 0.0
H243 H 0.46532 0.05147 0.48522 0.0
H244 H 0.46227 0.0807 0.41175 0.0
H245 H 0.52704 0.08718 0.40983 0.0
H246 H 0.53029 0.05771 0.48261 0.0
H247 H 0.51197 0.09099 0.28907 0.0
H248 H 0.49668 0.11993 0.49872 0.0
H249 H 0.47886 0.12231 0.60393 0.0
H250 H 0.42239 0.12958 0.50274 0.0
H251 H 0.43985 0.12698 0.39688 0.0
C252 C 0.49909 0.18047 0.15184 0.0
C253 C 0.47954 0.18668 0.13351 0.0
C254 C 0.50189 0.1647 0.19739 0.0
C255 C 0.48521 0.15445 0.22436 0.0
C256 C 0.4657 0.16079 0.20637 0.0
C257 C 0.4629 0.17663 0.16125 0.0
C258 C 0.48799 0.13693 0.27041 0.0
C259 C 0.4779 0.13728 0.33066 0.0
C260 C 0.50046 0.11998 0.25549 0.0
C261 C 0.51053 0.11786 0.19129 0.0
C262 C 0.4992 0.11834 0.13305 0.0
C263 C 0.5088 0.11642 0.0727 0.0
C264 C 0.52971 0.11384 0.06998 0.0
C265 C 0.54107 0.11312 0.12763 0.0
C266 C 0.53154 0.11506 0.18812 0.0
C267 C 0.47896 0.05911 0.46944 0.0
C268 C 0.49807 0.05219 0.49028 0.0
C269 C 0.47717 0.07592 0.42751 0.0
C270 C 0.4944 0.08639 0.40576 0.0
C271 C 0.5135 0.07943 0.42597 0.0
C272 C 0.51532 0.06257 0.46783 0.0
C273 C 0.49251 0.10438 0.36128 0.0
C274 C 0.50274 0.10411 0.30133 0.0
C275 C 0.48007 0.12134 0.37629 0.0
C276 C 0.46956 0.12309 0.43988 0.0
C277 C 0.48045 0.12191 0.49891 0.0
C278 C 0.47041 0.12332 0.55866 0.0
C279 C 0.4495 0.12605 0.56002 0.0
C280 C 0.43859 0.12745 0.50161 0.0
C281 C 0.44855 0.12603 0.44172 0.0
H282 H 0.44176 0.12713 0.60633 0.0
H283 H 0.53712 0.11234 0.02321 0.0
H284 H 0.29291 0.49869 0.26074 0.0
H285 H 0.32153 0.50354 0.33584 0.0
H286 H 0.36285 0.49083 0.17874 0.0
H287 H 0.33424 0.48591 0.10384 0.0
H288 H 0.37267 0.46951 0.28749 0.0
H289 H 0.35596 0.53935 0.23606 0.0
H290 H 0.33341 0.56919 0.22693 0.0
H291 H 0.32238 0.56703 0.43333 0.0
H292 H 0.34466 0.53698 0.44354 0.0
H293 H 0.46512 0.49978 0.41882 0.0
H294 H 0.43439 0.49828 0.35374 0.0
H295 H 0.39911 0.51313 0.52375 0.0
H296 H 0.4302 0.51515 0.58967 0.0
H297 H 0.38463 0.5326 0.41636 0.0
H298 H 0.40221 0.46391 0.46969 0.0
H299 H 0.42472 0.43408 0.48021 0.0
H300 H 0.43355 0.43353 0.27261 0.0
H301 H 0.41133 0.46357 0.26088 0.0
C302 C 0.30813 0.49706 0.24237 0.0
C303 C 0.3114 0.4917 0.17678 0.0
C304 C 0.32447 0.49988 0.28518 0.0
C305 C 0.34439 0.49759 0.26302 0.0
C306 C 0.34764 0.49259 0.19712 0.0
C307 C 0.33132 0.48982 0.15433 0.0
C308 C 0.36188 0.49981 0.30862 0.0
C309 C 0.37539 0.4834 0.31506 0.0
C310 C 0.36511 0.51766 0.34645 0.0
C311 C 0.35181 0.53579 0.34044 0.0
C312 C 0.3486 0.54514 0.27942 0.0
C313 C 0.33589 0.56211 0.27406 0.0
C314 C 0.32642 0.56997 0.32948 0.0
C315 C 0.3297 0.5609 0.39042 0.0
C316 C 0.34238 0.54391 0.39603 0.0
C317 C 0.45087 0.50279 0.4427 0.0
C318 C 0.45014 0.50732 0.50985 0.0
C319 C 0.43325 0.50187 0.40525 0.0
C320 C 0.41434 0.50511 0.434 0.0
C321 C 0.41352 0.51042 0.50054 0.0
C322 C 0.43128 0.51153 0.53819 0.0
C323 C 0.39559 0.50242 0.39427 0.0
C324 C 0.38183 0.51867 0.38907 0.0
C325 C 0.39203 0.48436 0.35778 0.0
C326 C 0.40519 0.46609 0.36447 0.0
C327 C 0.40904 0.4575 0.42629 0.0
C328 C 0.42174 0.44055 0.43247 0.0
C329 C 0.43056 0.43192 0.37711 0.0
C330 C 0.42669 0.44022 0.31544 0.0
C331 C 0.41403 0.4572 0.30899 0.0
H332 H 0.44035 0.41877 0.382 0.0
H333 H 0.31659 0.5831 0.32523 0.0
H334 H 0.0444 0.34743 0.07686 0.0
H335 H 0.03909 0.3756 0.15356 0.0
H336 H 0.00482 0.33559 0.27844 0.0
H337 H 0.00977 0.30754 0.20122 0.0
H338 H 0.98712 0.37265 0.27038 0.0
H339 H 0.0543 0.3476 0.31122 0.0
H340 H 0.08923 0.33806 0.28348 0.0
H341 H 0.10118 0.39952 0.22134 0.0
H342 H 0.06621 0.40935 0.24765 0.0
H343 H 0.99045 0.43651 0.55299 0.0
H344 H 0.99392 0.40797 0.47653 0.0
H345 H 0.03013 0.44566 0.35005 0.0
H346 H 0.02706 0.47405 0.42648 0.0
H347 H 0.04659 0.40922 0.36079 0.0
H348 H 0.98031 0.43436 0.31184 0.0
H349 H 0.94555 0.4452 0.33668 0.0
H350 H 0.9322 0.38542 0.41126 0.0
H351 H 0.96695 0.37423 0.38689 0.0
C352 C 0.03546 0.34474 0.12018 0.0
C353 C 0.02725 0.3253 0.13227 0.0
C354 C 0.03258 0.3608 0.16433 0.0
C355 C 0.02174 0.35771 0.22234 0.0
C356 C 0.01323 0.3384 0.23408 0.0
C357 C 0.01609 0.32232 0.18983 0.0
C358 C 0.01959 0.37449 0.27122 0.0
C359 C 1.00015 0.38044 0.2908 0.0
C360 C 0.03653 0.38508 0.29689 0.0
C361 C 0.05755 0.37915 0.28074 0.0
C362 C 0.06431 0.35903 0.29105 0.0
C363 C 0.08413 0.35358 0.27567 0.0
C364 C 0.0974 0.36816 0.25047 0.0
C365 C 0.09088 0.38823 0.24071 0.0
C366 C 0.07106 0.39375 0.25585 0.0
C367 C 0.99918 0.43872 0.50896 0.0
C368 C 0.00843 0.45764 0.49598 0.0
C369 C 0.00105 0.42241 0.46502 0.0
C370 C 0.01211 0.42468 0.40696 0.0
C371 C 0.02151 0.44348 0.39435 0.0
C372 C 0.01967 0.45976 0.43816 0.0
C373 C 0.01414 0.40746 0.35961 0.0
C374 C 0.03356 0.40141 0.34042 0.0
C375 C 0.9972 0.39694 0.33384 0.0
C376 C 0.97628 0.40353 0.34817 0.0
C377 C 0.97 0.42357 0.33392 0.0
C378 C 0.95029 0.42977 0.34784 0.0
C379 C 0.9367 0.41605 0.37591 0.0
C380 C 0.94276 0.39605 0.38967 0.0
C381 C 0.96244 0.38975 0.37565 0.0
H382 H 0.92147 0.4209 0.38679 0.0
H383 H 0.11274 0.36391 0.23866 0.0
H384 H 0.8356 0.03099 0.0845 0.0
H385 H 0.86367 0.02992 0.00691 0.0
H386 H 0.82911 0.99004 0.88139 0.0
H387 H 0.80096 0.99121 0.9586 0.0
H388 H 0.86871 0.97686 0.89885 0.0
H389 H 0.8333 0.0382 0.84013 0.0
H390 H 0.81745 0.07167 0.86037 0.0
H391 H 0.87429 0.09574 0.92627 0.0
H392 H 0.89043 0.06232 0.90729 0.0
H393 H 0.93497 0.02154 0.61777 0.0
H394 H 0.90408 0.02205 0.68327 0.0
H395 H 0.93615 0.99398 0.84365 0.0
H396 H 0.96682 0.99308 0.77869 0.0
H397 H 0.89539 0.04036 0.7987 0.0
H398 H 0.90546 0.96189 0.92362 0.0
H399 H 0.92175 0.92878 0.90072 0.0
H400 H 0.91423 0.93867 0.69473 0.0
H401 H 0.89765 0.9717 0.71638 0.0
C402 C 0.83408 0.02189 0.04056 0.0
C403 C 0.81631 0.01082 0.02819 0.0
C404 C 0.85005 0.02137 0.9962 0.0
C405 C 0.84845 0.00989 0.93845 0.0
C406 C 0.83069 0.99887 0.92588 0.0
C407 C 0.81466 0.99952 0.96999 0.0
C408 C 0.86529 0.00949 0.89101 0.0
C409 C 0.87451 0.99072 0.87679 0.0
C410 C 0.87268 0.02756 0.86164 0.0
C411 C 0.86303 0.0477 0.8728 0.0
C412 C 0.84239 0.05058 0.85941 0.0
C413 C 0.83335 0.06956 0.87058 0.0
C414 C 0.84484 0.08581 0.89473 0.0
C415 C 0.8654 0.08314 0.90762 0.0
C416 C 0.87451 0.06419 0.8966 0.0
C417 C 0.93541 0.01542 0.66691 0.0
C418 C 0.95334 0.00715 0.69279 0.0
C419 C 0.91778 0.01579 0.70431 0.0
C420 C 0.91777 0.00781 0.768 0.0
C421 C 0.93572 0.99988 0.79422 0.0
C422 C 0.95328 0.99945 0.75697 0.0
C423 C 0.89906 0.00779 0.8075 0.0
C424 C 0.8895 0.02647 0.82038 0.0
C425 C 0.89128 0.98961 0.83524 0.0
C426 C 0.90042 0.96934 0.82169 0.0
C427 C 0.90713 0.95692 0.87346 0.0
C428 C 0.91646 0.93819 0.86069 0.0
C429 C 0.91907 0.93165 0.79631 0.0
C430 C 0.91225 0.94378 0.74457 0.0
C431 C 0.90289 0.96251 0.75706 0.0
H432 H 0.92638 0.91719 0.78654 0.0
H433 H 0.83782 0.10049 0.90334 0.0
H434 H 0.473 0.81152 0.99344 0.0
H435 H 0.4758 0.83835 0.9109 0.0
H436 H 0.53823 0.84754 0.96419 0.0
H437 H 0.53523 0.82115 0.04848 0.0
H438 H 0.52135 0.88279 0.95002 0.0
H439 H 0.52367 0.82339 0.81809 0.0
H440 H 0.51322 0.78969 0.77624 0.0
H441 H 0.45689 0.81503 0.71059 0.0
H442 H 0.46686 0.84884 0.75302 0.0
H443 H 0.53732 0.9497 0.68217 0.0
H444 H 0.53955 0.91846 0.74716 0.0
H445 H 0.47497 0.91121 0.73491 0.0
H446 H 0.47253 0.94247 0.66991 0.0
H447 H 0.49622 0.87395 0.72303 0.0
H448 H 0.49485 0.93327 0.86613 0.0
H449 H 0.50757 0.9667 0.90377 0.0
H450 H 0.56569 0.94025 0.94292 0.0
H451 H 0.55337 0.90669 0.90471 0.0
C452 C 0.4874 0.81907 0.98683 0.0
C453 C 0.50402 0.81379 0.02622 0.0
C454 C 0.48902 0.83438 0.93946 0.0
C455 C 0.50737 0.84477 0.93003 0.0
C456 C 0.52396 0.83968 0.96992 0.0
C457 C 0.52228 0.82446 0.0178 0.0
C458 C 0.50887 0.86146 0.88044 0.0
C459 C 0.51618 0.88067 0.90013 0.0
C460 C 0.50202 0.85892 0.81518 0.0
C461 C 0.49596 0.83863 0.78926 0.0
C462 C 0.50899 0.82175 0.79517 0.0
C463 C 0.50316 0.80263 0.77128 0.0
C464 C 0.48439 0.80021 0.74089 0.0
C465 C 0.47142 0.81692 0.7342 0.0
C466 C 0.47716 0.83608 0.75811 0.0
C467 C 0.52358 0.94134 0.69229 0.0
C468 C 0.5047 0.94879 0.67111 0.0
C469 C 0.5249 0.92348 0.72971 0.0
C470 C 0.5074 0.91263 0.74667 0.0
C471 C 0.48867 0.91935 0.72255 0.0
C472 C 0.48731 0.93728 0.68544 0.0
C473 C 0.5084 0.89515 0.79314 0.0
C474 C 0.50155 0.87587 0.77284 0.0
C475 C 0.516 0.8975 0.85747 0.0
C476 C 0.52324 0.91753 0.88209 0.0
C477 C 0.51037 0.93461 0.88251 0.0
C478 C 0.5175 0.95357 0.90397 0.0
C479 C 0.53743 0.95559 0.92566 0.0
C480 C 0.55025 0.93865 0.92612 0.0
C481 C 0.5432 0.91965 0.90464 0.0
H482 H 0.54293 0.97029 0.94218 0.0
H483 H 0.4799 0.78539 0.72241 0.0
H484 H 0.71241 0.50116 0.92239 0.0
H485 H 0.68289 0.49701 0.85065 0.0
H486 H 0.64353 0.50737 0.01462 0.0
H487 H 0.67308 0.51141 0.08639 0.0
H488 H 0.62932 0.4767 0.9356 0.0
H489 H 0.65379 0.54569 0.90878 0.0
H490 H 0.67932 0.57202 0.88475 0.0
H491 H 0.68745 0.54701 0.69278 0.0
H492 H 0.66214 0.52035 0.71602 0.0
H493 H 0.5393 0.50958 0.78187 0.0
H494 H 0.57064 0.50801 0.8448 0.0
H495 H 0.60364 0.49364 0.66973 0.0
H496 H 0.57216 0.49497 0.60606 0.0
H497 H 0.62212 0.52423 0.74794 0.0
H498 H 0.59716 0.45658 0.77003 0.0
H499 H 0.57101 0.43058 0.78991 0.0
H500 H 0.56377 0.45251 0.98605 0.0
H501 H 0.58981 0.47881 0.96714 0.0
C502 C 0.69744 0.50247 0.94297 0.0
C503 C 0.69496 0.50705 0.00951 0.0
C504 C 0.68059 0.50013 0.90204 0.0
C505 C 0.66096 0.50222 0.92697 0.0
C506 C 0.6585 0.5058 0.99416 0.0
C507 C 0.67535 0.50818 0.03505 0.0
C508 C 0.64304 0.50152 0.88274 0.0
C509 C 0.62769 0.48721 0.89496 0.0
C510 C 0.64108 0.51485 0.82848 0.0
C511 C 0.65624 0.5309 0.8144 0.0
C512 C 0.66114 0.54571 0.86164 0.0
C513 C 0.67555 0.56071 0.84813 0.0
C514 C 0.68505 0.56115 0.78735 0.0
C515 C 0.68011 0.54662 0.73988 0.0
C516 C 0.66573 0.53157 0.75317 0.0
C517 C 0.55319 0.50605 0.75655 0.0
C518 C 0.55318 0.50235 0.68884 0.0
C519 C 0.5711 0.50511 0.79273 0.0
C520 C 0.58946 0.50058 0.76207 0.0
C521 C 0.58962 0.49713 0.69436 0.0
C522 C 0.57162 0.49783 0.65813 0.0
C523 C 0.6084 0.49958 0.80124 0.0
C524 C 0.62388 0.51359 0.78821 0.0
C525 C 0.61054 0.48591 0.85439 0.0
C526 C 0.59531 0.46978 0.86697 0.0
C527 C 0.58992 0.45593 0.81733 0.0
C528 C 0.57513 0.44114 0.8284 0.0
C529 C 0.56565 0.43996 0.88905 0.0
C530 C 0.57109 0.45347 0.93901 0.0
C531 C 0.58591 0.4683 0.9282 0.0
H532 H 0.55412 0.42857 0.89718 0.0
H533 H 0.69619 0.57278 0.77698 0.0
H534 H 0.01137 0.70484 0.99486 0.0
H535 H 0.01004 0.67665 0.91622 0.0
H536 H 0.97184 0.64261 0.04725 0.0
H537 H 0.97366 0.67067 0.12668 0.0
H538 H 1.00019 0.61857 0.00166 0.0
H539 H 0.95359 0.66565 0.9046 0.0
H540 H 0.94213 0.69885 0.86127 0.0
H541 H 0.98844 0.69699 0.71538 0.0
H542 H 1.00037 0.66391 0.75844 0.0
H543 H 0.97352 0.54078 0.77609 0.0
H544 H 0.97146 0.5702 0.84924 0.0
H545 H 0.01333 0.60315 0.72783 0.0
H546 H 0.01542 0.57383 0.65404 0.0
H547 H 0.98229 0.62764 0.76786 0.0
H548 H 0.02948 0.58123 0.86781 0.0
H549 H 0.04097 0.54808 0.91145 0.0
H550 H 0.99304 0.54875 0.05185 0.0
H551 H 0.98113 0.58184 0.0086 0.0
C552 C 0.00267 0.69134 0.00667 0.0
C553 C 0.99278 0.6898 0.06706 0.0
C554 C 0.00179 0.67528 0.96155 0.0
C555 C 0.9907 0.65747 0.97537 0.0
C556 C 0.98054 0.65611 0.03537 0.0
C557 C 0.98151 0.67214 0.08063 0.0
C558 C 0.99028 0.64002 0.92838 0.0
C559 C 0.99594 0.62055 0.9508 0.0
C560 C 0.98522 0.64255 0.86147 0.0
C561 C 0.97799 0.66238 0.83516 0.0
C562 C 0.96142 0.67239 0.86358 0.0
C563 C 0.95483 0.69118 0.83902 0.0
C564 C 0.96458 0.70005 0.78571 0.0
C565 C 0.98091 0.69011 0.75672 0.0
C566 C 0.98759 0.67133 0.78115 0.0
C567 C 0.98224 0.5543 0.7646 0.0
C568 C 0.99473 0.55483 0.70916 0.0
C569 C 0.98108 0.57111 0.8067 0.0
C570 C 0.99243 0.58884 0.79455 0.0
C571 C 0.00446 0.58965 0.73831 0.0
C572 C 0.00566 0.57282 0.69622 0.0
C573 C 0.99215 0.60629 0.84135 0.0
C574 C 0.98642 0.62572 0.81884 0.0
C575 C 0.9971 0.60374 0.90823 0.0
C576 C 0.0043 0.58391 0.93455 0.0
C577 C 0.0213 0.57424 0.90768 0.0
C578 C 0.02791 0.55548 0.93238 0.0
C579 C 0.0177 0.54628 0.98422 0.0
C580 C 0.00091 0.55588 0.01163 0.0
C581 C 0.99424 0.57465 0.9871 0.0
H582 H 0.02284 0.53175 0.00326 0.0
H583 H 0.95945 0.7146 0.76679 0.0
H584 H 0.99124 0.24069 0.23302 0.0
H585 H 0.98498 0.21474 0.31694 0.0
H586 H 0.04683 0.19469 0.30265 0.0
H587 H 0.05296 0.2203 0.21792 0.0
H588 H 0.99091 0.17415 0.27255 0.0
H589 H 0.05877 0.17168 0.45503 0.0
H590 H 0.07992 0.19559 0.51816 0.0
H591 H 0.03292 0.24067 0.5101 0.0
H592 H 0.01128 0.21691 0.44807 0.0
H593 H 0.04032 0.08538 0.46601 0.0
H594 H 0.03955 0.1199 0.42217 0.0
H595 H 0.97443 0.11908 0.42478 0.0
H596 H 0.97509 0.08409 0.46752 0.0
H597 H 0.02595 0.15346 0.47614 0.0
H598 H 0.95735 0.15121 0.29958 0.0
H599 H 0.93968 0.12741 0.22534 0.0
H600 H 0.99355 0.09138 0.20825 0.0
H601 H 0.0116 0.1151 0.28161 0.0
C602 C 0.00368 0.23133 0.25009 0.0
C603 C 0.02256 0.23236 0.21954 0.0
C604 C 1.00008 0.21651 0.29767 0.0
C605 C 0.01545 0.20289 0.31586 0.0
C606 C 0.03486 0.20526 0.28981 0.0
C607 C 0.03836 0.21983 0.24152 0.0
C608 C 0.0105 0.18385 0.35077 0.0
C609 C 0.99811 0.16974 0.3181 0.0
C610 C 0.0205 0.17805 0.40888 0.0
C611 C 0.03344 0.19253 0.44616 0.0
C612 C 0.05288 0.18666 0.46687 0.0
C613 C 0.06497 0.20019 0.50252 0.0
C614 C 0.0578 0.21966 0.51791 0.0
C615 C 0.03849 0.22562 0.49786 0.0
C616 C 0.02632 0.21212 0.46232 0.0
C617 C 0.02581 0.09239 0.45644 0.0
C618 C 0.00777 0.08197 0.46989 0.0
C619 C 0.0254 0.11219 0.43176 0.0
C620 C 0.00695 0.12208 0.4203 0.0
C621 C 0.98884 0.11165 0.43274 0.0
C622 C 0.98924 0.09168 0.45712 0.0
C623 C 0.00697 0.14346 0.3967 0.0
C624 C 0.01838 0.15796 0.43146 0.0
C625 C 0.99658 0.14948 0.33939 0.0
C626 C 0.98568 0.13472 0.29711 0.0
C627 C 0.96538 0.13814 0.28022 0.0
C628 C 0.95532 0.1247 0.23815 0.0
C629 C 0.96545 0.10783 0.21239 0.0
C630 C 0.98568 0.10438 0.22857 0.0
C631 C 0.99582 0.11779 0.27054 0.0
H632 H 0.95765 0.09747 0.17971 0.0
H633 H 0.06719 0.23012 0.5455 0.0
H634 H 0.28721 0.94626 0.20059 0.0
H635 H 0.31264 0.94802 0.28727 0.0
H636 H 0.28346 1.00149 0.36578 0.0
H637 H 0.25812 0.9999 0.27883 0.0
H638 H 0.32177 0.00851 0.31944 0.0
H639 H 0.28943 0.96046 0.46077 0.0
H640 H 0.27298 0.92793 0.4896 0.0
H641 H 0.32676 0.89513 0.43854 0.0
H642 H 0.34345 0.92743 0.40846 0.0
H643 H 0.39904 0.03068 0.5457 0.0
H644 H 0.36659 0.02251 0.49572 0.0
H645 H 0.39057 0.96522 0.4265 0.0
H646 H 0.42313 0.97312 0.47788 0.0
H647 H 0.3535 0.96004 0.4752 0.0
H648 H 0.38435 0.00541 0.32207 0.0
H649 H 0.40128 0.0366 0.2828 0.0
H650 H 0.35094 0.07285 0.34536 0.0
H651 H 0.33381 0.04189 0.38573 0.0
C652 C 0.28573 0.95783 0.23811 0.0
C653 C 0.2709 0.9731 0.23266 0.0
C654 C 0.30023 0.9588 0.28769 0.0
C655 C 0.30001 0.97501 0.33247 0.0
C656 C 0.28386 0.98888 0.33153 0.0
C657 C 0.2693 0.98787 0.28211 0.0
C658 C 0.31849 0.97987 0.37016 0.0
C659 C 0.32844 0.99815 0.35488 0.0
C660 C 0.32763 0.96585 0.41366 0.0
C661 C 0.31764 0.94639 0.43187 0.0
C662 C 0.2977 0.9463 0.45514 0.0
C663 C 0.28834 0.9279 0.47183 0.0
C664 C 0.2988 0.90947 0.46579 0.0
C665 C 0.31867 0.90941 0.44318 0.0
C666 C 0.32809 0.92777 0.42639 0.0
C667 C 0.39749 0.01638 0.51955 0.0
C668 C 0.41372 0.00262 0.51515 0.0
C669 C 0.37893 0.01175 0.49089 0.0
C670 C 0.37625 0.99339 0.45662 0.0
C671 C 0.39234 0.9795 0.45264 0.0
C672 C 0.41094 0.98406 0.48179 0.0
C673 C 0.35662 0.9888 0.42495 0.0
C674 C 0.3466 0.97055 0.44074 0.0
C675 C 0.34749 0.00267 0.38083 0.0
C676 C 0.35792 0.02136 0.35769 0.0
C677 C 0.37698 0.02006 0.32809 0.0
C678 C 0.38659 0.03769 0.30545 0.0
C679 C 0.37722 0.0567 0.31177 0.0
C680 C 0.3582 0.05812 0.34062 0.0
C681 C 0.34853 0.04054 0.36336 0.0
H682 H 0.38468 0.07033 0.29417 0.0
H683 H 0.29153 0.89524 0.47873 0.0
H684 H 0.51181 0.26922 0.23661 0.0
H685 H 0.5186 0.29612 0.31686 0.0
H686 H 0.4568 0.31626 0.30208 0.0
H687 H 0.45009 0.28971 0.22039 0.0
H688 H 0.50837 0.33727 0.25574 0.0
H689 H 0.45148 0.33968 0.46998 0.0
H690 H 0.43413 0.31577 0.54399 0.0
H691 H 0.48173 0.27201 0.51887 0.0
H692 H 0.49958 0.29579 0.44588 0.0
H693 H 0.47766 0.43515 0.37497 0.0
H694 H 0.47795 0.39958 0.33755 0.0
H695 H 0.52379 0.38516 0.48053 0.0
H696 H 0.5239 0.42082 0.51734 0.0
H697 H 0.48561 0.35893 0.47558 0.0
H698 H 0.54056 0.38528 0.34458 0.0
H699 H 0.55632 0.40944 0.26772 0.0
H700 H 0.51112 0.39536 0.12354 0.0
H701 H 0.49495 0.37135 0.19986 0.0
C702 C 0.49944 0.27872 0.25303 0.0
C703 C 0.48045 0.27752 0.22255 0.0
C704 C 0.50336 0.2941 0.29859 0.0
C705 C 0.48819 0.30809 0.31513 0.0
C706 C 0.4686 0.30542 0.29033 0.0
C707 C 0.46478 0.29029 0.24384 0.0
C708 C 0.49373 0.32787 0.34454 0.0
C709 C 0.50364 0.34194 0.30419 0.0
C710 C 0.48731 0.33385 0.40737 0.0
C711 C 0.47675 0.31946 0.45167 0.0
C712 C 0.45829 0.32499 0.48039 0.0
C713 C 0.44837 0.31145 0.52221 0.0
C714 C 0.45677 0.29234 0.53577 0.0
C715 C 0.47518 0.28677 0.50796 0.0
C716 C 0.48518 0.30027 0.46625 0.0
C717 C 0.48801 0.42445 0.39766 0.0
C718 C 0.50083 0.43069 0.44868 0.0
C719 C 0.48812 0.4042 0.37644 0.0
C720 C 0.50083 0.38987 0.40665 0.0
C721 C 0.51388 0.39609 0.45689 0.0
C722 C 0.51406 0.41645 0.4773 0.0
C723 C 0.50003 0.36829 0.38635 0.0
C724 C 0.49073 0.35406 0.42779 0.0
C725 C 0.50675 0.36214 0.32408 0.0
C726 C 0.51645 0.37664 0.27818 0.0
C727 C 0.53388 0.38748 0.29672 0.0
C728 C 0.54292 0.40112 0.25317 0.0
C729 C 0.53472 0.40397 0.19081 0.0
C730 C 0.51748 0.39316 0.17183 0.0
C731 C 0.50838 0.37952 0.2152 0.0
H732 H 0.54176 0.41452 0.1572 0.0
H733 H 0.44904 0.28183 0.56788 0.0
H734 H 0.21285 0.55802 0.17889 0.0
H735 H 0.18637 0.55999 0.26157 0.0
H736 H 0.21124 0.50699 0.35775 0.0
H737 H 0.2378 0.50504 0.27538 0.0
H738 H 0.17232 0.50224 0.29971 0.0
H739 H 0.20751 0.54812 0.44356 0.0
H740 H 0.22629 0.5794 0.47205 0.0
H741 H 0.17579 0.6161 0.41205 0.0
H742 H 0.1568 0.58503 0.38226 0.0
H743 H 0.09509 0.48507 0.52388 0.0
H744 H 0.12743 0.49155 0.47229 0.0
H745 H 0.10647 0.55081 0.40928 0.0
H746 H 0.07395 0.54458 0.46272 0.0
H747 H 0.14392 0.55357 0.45185 0.0
H748 H 0.10964 0.51032 0.30089 0.0
H749 H 0.09046 0.48056 0.2606 0.0
H750 H 0.13843 0.44061 0.32104 0.0
H751 H 0.15779 0.47011 0.36249 0.0
C752 C 0.2132 0.54743 0.21955 0.0
C753 C 0.22717 0.53128 0.22071 0.0
C754 C 0.19811 0.54857 0.2667 0.0
C755 C 0.19682 0.53352 0.31523 0.0
C756 C 0.21208 0.51875 0.32059 0.0
C757 C 0.22729 0.51772 0.27381 0.0
C758 C 0.17762 0.53059 0.35023 0.0
C759 C 0.16629 0.5132 0.33432 0.0
C760 C 0.16941 0.54553 0.39215 0.0
C761 C 0.18079 0.56423 0.41011 0.0
C762 C 0.20047 0.56286 0.43584 0.0
C763 C 0.21114 0.58056 0.45237 0.0
C764 C 0.20226 0.59973 0.44372 0.0
C765 C 0.18266 0.60124 0.41867 0.0
C766 C 0.17193 0.58359 0.40204 0.0
C767 C 0.09726 0.49946 0.49879 0.0
C768 C 0.08188 0.51423 0.49658 0.0
C769 C 0.11576 0.5031 0.46902 0.0
C770 C 0.1192 0.52146 0.43557 0.0
C771 C 0.10405 0.53647 0.43445 0.0
C772 C 0.08551 0.53289 0.46484 0.0
C773 C 0.13878 0.52488 0.40269 0.0
C774 C 0.15005 0.54244 0.41811 0.0
C775 C 0.14687 0.51028 0.35906 0.0
C776 C 0.13507 0.49242 0.3355 0.0
C777 C 0.11601 0.49517 0.30624 0.0
C778 C 0.10513 0.47835 0.28302 0.0
C779 C 0.1132 0.4587 0.28842 0.0
C780 C 0.13218 0.45583 0.317 0.0
C781 C 0.14312 0.4726 0.34035 0.0
H782 H 0.10476 0.44569 0.27034 0.0
H783 H 0.21055 0.61341 0.45655 0.0
H784 H 0.94542 0.79698 0.01056 0.0
H785 H 0.95178 0.82317 0.92867 0.0
H786 H 0.00844 0.79436 0.8809 0.0
H787 H 0.00215 0.76816 0.96418 0.0
H788 H 0.01372 0.83301 0.91766 0.0
H789 H 0.97183 0.79989 0.76301 0.0
H790 H 0.94196 0.78163 0.72075 0.0
H791 H 0.90462 0.83335 0.76504 0.0
H792 H 0.93418 0.85184 0.80849 0.0
H793 H 0.02899 0.92262 0.71905 0.0
H794 H 0.02667 0.88763 0.7607 0.0
H795 H 0.96576 0.89937 0.82484 0.0
H796 H 0.96786 0.93403 0.78205 0.0
H797 H 0.96672 0.8653 0.75942 0.0
H798 H 0.00759 0.8949 0.93275 0.0
H799 H 0.03723 0.91297 0.97776 0.0
H800 H 0.07646 0.86728 0.89754 0.0
H801 H 0.04704 0.84906 0.85145 0.0
C802 C 0.95885 0.79581 0.98074 0.0
C803 C 0.97335 0.78069 0.99358 0.0
C804 C 0.96247 0.81073 0.93378 0.0
C805 C 0.9806 0.81072 0.89858 0.0
C806 C 0.99434 0.7946 0.90748 0.0
C807 C 0.99068 0.77958 0.95455 0.0
C808 C 0.98636 0.82922 0.86147 0.0
C809 C 0.00376 0.83981 0.88147 0.0
C810 C 0.97316 0.83827 0.81542 0.0
C811 C 0.95526 0.82723 0.78931 0.0
C812 C 0.95723 0.80733 0.76419 0.0
C813 C 0.94035 0.79694 0.73993 0.0
C814 C 0.9214 0.80632 0.74026 0.0
C815 C 0.9193 0.82611 0.76477 0.0
C816 C 0.93613 0.83657 0.78912 0.0
C817 C 0.01529 0.91782 0.74327 0.0
C818 C 0.99862 0.931 0.74744 0.0
C819 C 0.01394 0.89782 0.76692 0.0
C820 C 0.99601 0.89085 0.79586 0.0
C821 C 0.97968 0.90433 0.80219 0.0
C822 C 0.98094 0.92417 0.77806 0.0
C823 C 0.9937 0.86933 0.81722 0.0
C824 C 0.97696 0.85825 0.79419 0.0
C825 C 0.00752 0.85982 0.86038 0.0
C826 C 0.02516 0.87077 0.88806 0.0
C827 C 0.02256 0.88881 0.92431 0.0
C828 C 0.03931 0.89905 0.95009 0.0
C829 C 0.05872 0.89131 0.94034 0.0
C830 C 0.06142 0.87327 0.90495 0.0
C831 C 0.04471 0.86298 0.87903 0.0
H832 H 0.07167 0.89927 0.96034 0.0
H833 H 0.90835 0.79825 0.72147 0.0
H834 H 0.70607 0.95914 0.02324 0.0
H835 H 0.67675 0.96504 0.95372 0.0
H836 H 0.70305 0.02142 0.88544 0.0
H837 H 0.73238 0.01575 0.95686 0.0
H838 H 0.66662 0.0283 0.92747 0.0
H839 H 0.69408 0.98107 0.77945 0.0
H840 H 0.71034 0.94973 0.73893 0.0
H841 H 0.6605 0.91392 0.80794 0.0
H842 H 0.64401 0.94503 0.84959 0.0
H843 H 0.57765 0.03675 0.71901 0.0
H844 H 0.61196 0.03555 0.76348 0.0
H845 H 0.59627 0.98255 0.87759 0.0
H846 H 0.56201 0.98358 0.83363 0.0
H847 H 0.62973 0.97698 0.79474 0.0
H848 H 0.60493 0.02629 0.95262 0.0
H849 H 0.58919 0.05884 0.98521 0.0
H850 H 0.63552 0.09214 0.88499 0.0
H851 H 0.6514 0.05975 0.85109 0.0
C852 C 0.70584 0.97252 0.9921 0.0
C853 C 0.72141 0.98704 0.99562 0.0
C854 C 0.68911 0.97585 0.95204 0.0
C855 C 0.68767 0.99368 0.91418 0.0
C856 C 0.70384 0.00757 0.91431 0.0
C857 C 0.72066 0.00423 0.95456 0.0
C858 C 0.66828 0.99872 0.88132 0.0
C859 C 0.65878 0.01726 0.89705 0.0
C860 C 0.6579 0.98428 0.84222 0.0
C861 C 0.66786 0.96542 0.81807 0.0
C862 C 0.68665 0.96651 0.78654 0.0
C863 C 0.69589 0.94878 0.7632 0.0
C864 C 0.68648 0.92984 0.77096 0.0
C865 C 0.66778 0.9286 0.80197 0.0
C866 C 0.65846 0.94629 0.82533 0.0
C867 C 0.58132 0.02517 0.75494 0.0
C868 C 0.56711 0.01014 0.77234 0.0
C869 C 0.60096 0.02448 0.78011 0.0
C870 C 0.60665 0.00883 0.82319 0.0
C871 C 0.59217 0.99465 0.84392 0.0
C872 C 0.57254 0.99536 0.81908 0.0
C873 C 0.628 0.00615 0.84283 0.0
C874 C 0.6378 0.98807 0.82433 0.0
C875 C 0.63875 0.02117 0.87821 0.0
C876 C 0.62921 0.04061 0.89871 0.0
C877 C 0.61166 0.04055 0.93704 0.0
C878 C 0.60273 0.05897 0.95586 0.0
C879 C 0.61131 0.07755 0.93701 0.0
C880 C 0.62887 0.07774 0.89946 0.0
C881 C 0.63784 0.05936 0.88048 0.0
H882 H 0.60438 0.09179 0.95164 0.0
H883 H 0.69366 0.91613 0.75286 0.0
H884 H 0.56721 0.7214 0.96915 0.0
H885 H 0.56616 0.69506 0.88474 0.0
H886 H 0.50803 0.71705 0.82066 0.0
H887 H 0.50902 0.74344 0.90537 0.0
H888 H 0.5301 0.67072 0.91568 0.0
H889 H 0.50642 0.69167 0.65027 0.0
H890 H 0.51348 0.71775 0.56652 0.0
H891 H 0.57068 0.73058 0.65693 0.0
H892 H 0.5642 0.7043 0.74037 0.0
H893 H 0.48469 0.58431 0.76085 0.0
H894 H 0.48917 0.62005 0.79516 0.0
H895 H 0.54693 0.62182 0.69898 0.0
H896 H 0.54274 0.58648 0.66529 0.0
H897 H 0.52462 0.65718 0.67798 0.0
H898 H 0.54585 0.61289 0.85523 0.0
H899 H 0.54136 0.58588 0.93791 0.0
H900 H 0.49297 0.61987 0.0247 0.0
H901 H 0.49696 0.64693 0.94178 0.0
C902 C 0.55481 0.7214 0.93441 0.0
C903 C 0.53807 0.73416 0.94407 0.0
C904 C 0.55418 0.70632 0.88639 0.0
C905 C 0.53688 0.70398 0.84732 0.0
C906 C 0.52153 0.7187 0.85025 0.0
C907 C 0.52215 0.73383 0.89849 0.0
C908 C 0.53246 0.6837 0.81923 0.0
C909 C 0.52888 0.66778 0.86361 0.0
C910 C 0.53072 0.68003 0.75148 0.0
C911 C 0.53464 0.69622 0.70236 0.0
C912 C 0.5205 0.70007 0.65238 0.0
C913 C 0.52442 0.71487 0.60484 0.0
C914 C 0.54246 0.72591 0.60665 0.0
C915 C 0.55665 0.72213 0.65588 0.0
C916 C 0.55283 0.70731 0.70345 0.0
C917 C 0.4983 0.59238 0.74711 0.0
C918 C 0.51349 0.5825 0.71137 0.0
C919 C 0.5008 0.61276 0.76636 0.0
C920 C 0.51839 0.6235 0.74948 0.0
C921 C 0.53322 0.61383 0.71217 0.0
C922 C 0.53086 0.59352 0.69369 0.0
C923 C 0.52231 0.64431 0.77454 0.0
C924 C 0.52565 0.66028 0.72994 0.0
C925 C 0.52401 0.64812 0.84223 0.0
C926 C 0.52151 0.63178 0.89175 0.0
C927 C 0.5341 0.61449 0.8915 0.0
C928 C 0.53168 0.5992 0.93848 0.0
C929 C 0.51684 0.60112 0.98637 0.0
C930 C 0.50441 0.61837 0.98745 0.0
C931 C 0.50674 0.63368 0.94046 0.0
H932 H 0.51501 0.58928 0.02276 0.0
H933 H 0.54548 0.73732 0.56971 0.0
H934 H 0.79578 0.43937 0.06647 0.0
H935 H 0.82472 0.4342 0.99473 0.0
H936 H 0.79841 0.47521 0.85337 0.0
H937 H 0.76999 0.48143 0.92657 0.0
H938 H 0.82288 0.44333 0.79805 0.0
H939 H 0.82103 0.49736 0.94152 0.0
H940 H 0.81317 0.5236 0.03742 0.0
H941 H 0.88058 0.4839 0.15763 0.0
H942 H 0.86995 0.4777 0.08045 0.0
H943 H 0.90706 0.51272 0.7231 0.0
H944 H 0.87696 0.49911 0.77547 0.0
H945 H 0.90558 0.44039 0.7954 0.0
H946 H 0.93607 0.45383 0.74268 0.0
H947 H 0.88143 0.4754 0.90995 0.0
H948 H 0.87921 0.42589 0.72697 0.0
H949 H 0.88023 0.41796 0.60935 0.0
H950 H 0.83031 0.45844 0.57507 0.0
H951 H 0.82951 0.4672 0.69221 0.0
C952 C 0.79585 0.4468 0.01917 0.0
C953 C 0.78104 0.4614 0.00315 0.0
C954 C 0.81238 0.4438 0.97827 0.0
C955 C 0.81398 0.45492 0.9201 0.0
C956 C 0.79755 0.46676 0.89879 0.0
C957 C 0.78124 0.47023 0.94056 0.0
C958 C 0.83376 0.4568 0.88743 0.0
C959 C 0.83577 0.4501 0.82272 0.0
C960 C 0.85043 0.46615 0.91924 0.0
C961 C 0.84866 0.47728 0.98193 0.0
C962 C 0.83027 0.49566 0.9847 0.0
C963 C 0.82538 0.51284 0.04422 0.0
C964 C 0.83949 0.51405 0.11369 0.0
C965 C 0.86835 0.48633 0.11374 0.0
C966 C 0.86685 0.4719 0.03872 0.0
C967 C 0.90699 0.49684 0.73792 0.0
C968 C 0.92395 0.48432 0.72845 0.0
C969 C 0.88966 0.48906 0.767 0.0
C970 C 0.88878 0.46858 0.78631 0.0
C971 C 0.90575 0.45605 0.77833 0.0
C972 C 0.92319 0.46381 0.74895 0.0
C973 C 0.87073 0.46146 0.82146 0.0
C974 C 0.86886 0.46761 0.88657 0.0
C975 C 0.85398 0.4527 0.78873 0.0
C976 C 0.85459 0.44751 0.71826 0.0
C977 C 0.86875 0.43344 0.69422 0.0
C978 C 0.86922 0.42872 0.62762 0.0
C979 C 0.8554 0.43775 0.58471 0.0
C980 C 0.84101 0.45144 0.60835 0.0
C981 C 0.84059 0.45635 0.67481 0.0
H982 H 0.8558 0.43409 0.53317 0.0
H983 H 0.83545 0.526 0.14844 0.0
H984 H 0.99248 0.22505 0.97521 0.0
H985 H 0.99075 0.19356 0.91048 0.0
H986 H 0.05566 0.18915 0.91479 0.0
H987 H 0.05735 0.22047 0.98091 0.0
H988 H 0.03642 0.17658 0.79097 0.0
H989 H 0.03385 0.16479 0.02159 0.0
H990 H 0.02163 0.16885 0.13441 0.0
H991 H 0.96294 0.14768 0.07603 0.0
H992 H 0.97462 0.14406 0.96236 0.0
H993 H 0.03491 0.07052 0.70415 0.0
H994 H 0.04328 0.10176 0.76513 0.0
H995 H 0.98018 0.11088 0.80708 0.0
H996 H 0.97182 0.07977 0.74763 0.0
H997 H 0.00242 0.12048 0.91087 0.0
H998 H 0.00421 0.1344 0.67953 0.0
H999 H 0.01643 0.12879 0.56761 0.0
H1000 H 0.07643 0.14556 0.62715 0.0
H1001 H 0.06465 0.15064 0.74019 0.0
C1002 C 0.00639 0.21784 0.95984 0.0
C1003 C 0.02507 0.22538 0.98175 0.0
C1004 C 0.00539 0.19973 0.92359 0.0
C1005 C 0.02307 0.1889 0.90836 0.0
C1006 C 0.04185 0.19728 0.92582 0.0
C1007 C 0.04283 0.21525 0.96302 0.0
C1008 C 0.02174 0.16795 0.88037 0.0
C1009 C 0.02924 0.16423 0.81745 0.0
C1010 C 0.01225 0.15185 0.91486 0.0
C1011 C 0.00506 0.15441 0.98309 0.0
C1012 C 0.01825 0.1613 0.03249 0.0
C1013 C 0.01143 0.16347 0.09668 0.0
C1014 C 0.99151 0.15856 0.11229 0.0
C1015 C 0.97835 0.15153 0.06377 0.0
C1016 C 0.98506 0.14945 0.99943 0.0
C1017 C 0.0229 0.07897 0.72756 0.0
C1018 C 0.00268 0.07269 0.7207 0.0
C1019 C 0.02767 0.09693 0.76194 0.0
C1020 C 0.01232 0.10892 0.78991 0.0
C1021 C 0.9923 0.10201 0.78589 0.0
C1022 C 0.98754 0.08419 0.75162 0.0
C1023 C 0.01665 0.12914 0.82071 0.0
C1024 C 0.00974 0.13277 0.88441 0.0
C1025 C 0.02662 0.14512 0.78685 0.0
C1026 C 0.0336 0.14262 0.71856 0.0
C1027 C 0.02004 0.13673 0.66892 0.0
C1028 C 0.0269 0.13362 0.60526 0.0
C1029 C 0.04723 0.13673 0.59027 0.0
C1030 C 0.06071 0.14307 0.6389 0.0
C1031 C 0.05396 0.14602 0.70283 0.0
H1032 H 0.05254 0.1343 0.54096 0.0
H1033 H 0.98627 0.16015 0.16197 0.0
H1034 H 0.28582 0.95915 0.98135 0.0
H1035 H 0.31664 0.96613 0.91943 0.0
H1036 H 0.30926 0.03064 0.95481 0.0
H1037 H 0.27819 0.02367 0.01584 0.0
H1038 H 0.32852 0.99047 0.81328 0.0
H1039 H 0.35792 0.04634 0.01197 0.0
H1040 H 0.35264 0.05389 0.1288 0.0
H1041 H 0.33245 0.9924 0.16082 0.0
H1042 H 0.33807 0.98434 0.04467 0.0
H1043 H 0.42185 0.02976 0.70724 0.0
H1044 H 0.38873 0.03095 0.75909 0.0
H1045 H 0.40889 0.98771 0.90425 0.0
H1046 H 0.44203 0.98613 0.85198 0.0
H1047 H 0.38296 0.01858 0.95461 0.0
H1048 H 0.38673 0.96919 0.78353 0.0
H1049 H 0.3932 0.95605 0.67282 0.0
H1050 H 0.3483 0.99658 0.59428 0.0
H1051 H 0.34192 0.01039 0.70455 0.0
C1052 C 0.29035 0.97485 0.97331 0.0
C1053 C 0.27963 0.99092 0.00237 0.0
C1054 C 0.30797 0.97883 0.93836 0.0
C1055 C 0.31531 0.99887 0.93335 0.0
C1056 C 0.30384 0.01507 0.95847 0.0
C1057 C 0.28604 0.01112 0.99263 0.0
C1058 C 0.33594 0.00243 0.90832 0.0
C1059 C 0.34035 0.99691 0.84379 0.0
C1060 C 0.3515 0.0102 0.9491 0.0
C1061 C 0.34811 0.01485 0.01925 0.0
C1062 C 0.35238 0.03442 0.04395 0.0
C1063 C 0.34937 0.03878 0.11011 0.0
C1064 C 0.34214 0.02366 0.15215 0.0
C1065 C 0.33798 0.00412 0.12816 0.0
C1066 C 0.34106 0.99966 0.06213 0.0
C1067 C 0.41947 0.02092 0.75125 0.0
C1068 C 0.43453 0.00771 0.77528 0.0
C1069 C 0.40048 0.02157 0.78062 0.0
C1070 C 0.39634 0.00925 0.83498 0.0
C1071 C 0.41182 0.99732 0.86227 0.0
C1072 C 0.43073 0.99641 0.83232 0.0
C1073 C 0.37539 0.00711 0.85904 0.0
C1074 C 0.37099 0.0127 0.92355 0.0
C1075 C 0.35994 0.99888 0.81887 0.0
C1076 C 0.36407 0.99104 0.75221 0.0
C1077 C 0.37846 0.97555 0.74257 0.0
C1078 C 0.38208 0.96795 0.67993 0.0
C1079 C 0.3712 0.97552 0.6266 0.0
C1080 C 0.35676 0.99079 0.63569 0.0
C1081 C 0.35316 0.99854 0.69824 0.0
H1082 H 0.37389 0.96941 0.57838 0.0
H1083 H 0.33984 0.02706 0.20333 0.0
H1084 H 0.44785 0.29439 0.99206 0.0
H1085 H 0.45096 0.32496 0.92314 0.0
H1086 H 0.51465 0.31341 0.90219 0.0
H1087 H 0.51145 0.28255 0.96961 0.0
H1088 H 0.50264 0.35312 0.9588 0.0
H1089 H 0.4889 0.30939 0.77293 0.0
H1090 H 0.46891 0.28451 0.70937 0.0
H1091 H 0.41859 0.32583 0.70677 0.0
H1092 H 0.4382 0.35087 0.77098 0.0
H1093 H 0.53531 0.42995 0.7424 0.0
H1094 H 0.52746 0.39923 0.80418 0.0
H1095 H 0.46396 0.40857 0.76713 0.0
H1096 H 0.47185 0.43944 0.70396 0.0
H1097 H 0.47318 0.37037 0.74262 0.0
H1098 H 0.48484 0.41459 0.92022 0.0
H1099 H 0.50143 0.43989 0.99157 0.0
H1100 H 0.5514 0.39913 0.02076 0.0
H1101 H 0.53537 0.37373 0.94827 0.0
C1102 C 0.46232 0.29794 0.97036 0.0
C1103 C 0.47935 0.28594 0.9851 0.0
C1104 C 0.46411 0.31546 0.93144 0.0
C1105 C 0.48305 0.32149 0.9077 0.0
C1106 C 0.49989 0.30898 0.91983 0.0
C1107 C 0.49802 0.29125 0.9577 0.0
C1108 C 0.48568 0.34186 0.87659 0.0
C1109 C 0.49652 0.35685 0.91101 0.0
C1110 C 0.47672 0.34699 0.81594 0.0
C1111 C 0.46493 0.33189 0.77754 0.0
C1112 C 0.4735 0.31308 0.75944 0.0
C1113 C 0.46226 0.29897 0.72313 0.0
C1114 C 0.44245 0.30354 0.70444 0.0
C1115 C 0.4339 0.32228 0.72153 0.0
C1116 C 0.44508 0.33645 0.7578 0.0
C1117 C 0.51962 0.42569 0.74812 0.0
C1118 C 0.50421 0.43719 0.71809 0.0
C1119 C 0.51513 0.40809 0.78383 0.0
C1120 C 0.49508 0.4015 0.7908 0.0
C1121 C 0.47956 0.41328 0.76249 0.0
C1122 C 0.48406 0.43103 0.72679 0.0
C1123 C 0.49065 0.38168 0.82409 0.0
C1124 C 0.47938 0.36678 0.7904 0.0
C1125 C 0.49885 0.37676 0.88627 0.0
C1126 C 0.50897 0.3923 0.92807 0.0
C1127 C 0.49951 0.41111 0.94102 0.0
C1128 C 0.50879 0.42545 0.98184 0.0
C1129 C 0.52746 0.42113 0.01059 0.0
C1130 C 0.53694 0.40246 0.99841 0.0
C1131 C 0.52777 0.38809 0.95735 0.0
H1132 H 0.53457 0.43222 0.04239 0.0
H1133 H 0.43374 0.29257 0.67657 0.0
H1134 H 0.21927 0.53906 0.95879 0.0
H1135 H 0.18831 0.53423 0.89471 0.0
H1136 H 0.18542 0.47147 0.95823 0.0
H1137 H 0.21648 0.47637 0.02236 0.0
H1138 H 0.17335 0.51049 0.79881 0.0
H1139 H 0.13462 0.46257 0.00239 0.0
H1140 H 0.1374 0.45696 0.12137 0.0
H1141 H 0.16537 0.51569 0.14443 0.0
H1142 H 0.16233 0.52186 0.02597 0.0
H1143 H 0.07612 0.48269 0.68283 0.0
H1144 H 0.1088 0.47807 0.73767 0.0
H1145 H 0.09295 0.52435 0.87821 0.0
H1146 H 0.06048 0.52934 0.82278 0.0
H1147 H 0.11436 0.49172 0.93484 0.0
H1148 H 0.11917 0.53924 0.7606 0.0
H1149 H 0.11574 0.55267 0.64865 0.0
H1150 H 0.15464 0.5053 0.57737 0.0
H1151 H 0.15804 0.49133 0.68906 0.0
C1152 C 0.2125 0.524 0.95653 0.0
C1153 C 0.22041 0.50797 0.99432 0.0
C1154 C 0.19472 0.52128 0.92039 0.0
C1155 C 0.18435 0.50257 0.92238 0.0
C1156 C 0.19305 0.48608 0.95639 0.0
C1157 C 0.21093 0.48879 0.99224 0.0
C1158 C 0.1636 0.50107 0.89436 0.0
C1159 C 0.16053 0.50603 0.82833 0.0
C1160 C 0.14667 0.49603 0.93349 0.0
C1161 C 0.14853 0.49251 0.005 0.0
C1162 C 0.14133 0.4743 0.03285 0.0
C1163 C 0.14292 0.47104 0.10024 0.0
C1164 C 0.15163 0.48592 0.14036 0.0
C1165 C 0.1587 0.50414 0.11325 0.0
C1166 C 0.15705 0.50751 0.04596 0.0
C1167 C 0.07936 0.49146 0.72651 0.0
C1168 C 0.06571 0.50636 0.74864 0.0
C1169 C 0.0981 0.4889 0.75755 0.0
C1170 C 0.10338 0.50096 0.81182 0.0
C1171 C 0.0892 0.51484 0.83658 0.0
C1172 C 0.07065 0.51768 0.80486 0.0
C1173 C 0.12427 0.50057 0.83896 0.0
C1174 C 0.1273 0.4955 0.90492 0.0
C1175 C 0.14109 0.50624 0.80056 0.0
C1176 C 0.13864 0.51408 0.73302 0.0
C1177 C 0.12676 0.5315 0.72095 0.0
C1178 C 0.12488 0.53925 0.65764 0.0
C1179 C 0.13498 0.52985 0.60607 0.0
C1180 C 0.14684 0.51255 0.61751 0.0
C1181 C 0.14874 0.5047 0.6808 0.0
H1182 H 0.13371 0.53608 0.5574 0.0
H1183 H 0.15286 0.48336 0.19246 0.0
H1184 H 0.94166 0.79506 0.21596 0.0
H1185 H 0.94481 0.82464 0.28846 0.0
H1186 H 0.00622 0.80748 0.33283 0.0
H1187 H 0.00291 0.77761 0.26097 0.0
H1188 H 0.98798 0.82528 0.43819 0.0
H1189 H 0.99636 0.83979 0.21009 0.0
H1190 H 0.9861 0.83943 0.09413 0.0
H1191 H 0.93401 0.87569 0.13942 0.0
H1192 H 0.94375 0.87593 0.25596 0.0
H1193 H 0.03411 0.91978 0.50284 0.0
H1194 H 0.02403 0.88821 0.44921 0.0
H1195 H 0.96299 0.91043 0.43242 0.0
H1196 H 0.97296 0.94237 0.4873 0.0
H1197 H 0.97787 0.89028 0.31736 0.0
H1198 H 0.97288 0.87844 0.54695 0.0
H1199 H 0.98444 0.87811 0.66122 0.0
H1200 H 0.03188 0.83625 0.61188 0.0
H1201 H 0.02104 0.8369 0.4965 0.0
C1202 C 0.95553 0.79716 0.2434 0.0
C1203 C 0.97201 0.78403 0.23334 0.0
C1204 C 0.95741 0.81418 0.2842 0.0
C1205 C 0.97591 0.81858 0.31486 0.0
C1206 C 0.99183 0.80446 0.30947 0.0
C1207 C 0.9899 0.78731 0.26886 0.0
C1208 C 0.97931 0.8388 0.34654 0.0
C1209 C 0.98591 0.83948 0.41168 0.0
C1210 C 0.9763 0.85739 0.31219 0.0
C1211 C 0.97067 0.8577 0.24189 0.0
C1212 C 0.98265 0.84759 0.1954 0.0
C1213 C 0.97694 0.8474 0.12956 0.0
C1214 C 0.9594 0.85749 0.10945 0.0
C1215 C 0.94758 0.86785 0.15511 0.0
C1216 C 0.95319 0.86802 0.22107 0.0
C1217 C 0.01854 0.91816 0.48742 0.0
C1218 C 0.00432 0.93367 0.4998 0.0
C1219 C 0.0128 0.89998 0.45687 0.0
C1220 C 0.99271 0.8968 0.43761 0.0
C1221 C 0.97857 0.91253 0.44719 0.0
C1222 C 0.98429 0.93078 0.47845 0.0
C1223 C 0.98667 0.87677 0.409 0.0
C1224 C 0.97969 0.87611 0.34421 0.0
C1225 C 0.98958 0.85819 0.44344 0.0
C1226 C 0.99623 0.85786 0.51283 0.0
C1227 C 0.98593 0.86934 0.56022 0.0
C1228 C 0.99234 0.86906 0.62533 0.0
C1229 C 0.00885 0.85709 0.64396 0.0
C1230 C 0.01907 0.84549 0.59739 0.0
C1231 C 0.01283 0.84585 0.53207 0.0
H1232 H 0.01374 0.85674 0.69442 0.0
H1233 H 0.95499 0.85731 0.05846 0.0
H1234 H 0.72345 0.95117 0.21859 0.0
H1235 H 0.69789 0.95253 0.30426 0.0
H1236 H 0.71407 0.01508 0.34486 0.0
H1237 H 0.73983 0.01366 0.25917 0.0
H1238 H 0.69894 0.99223 0.45778 0.0
H1239 H 0.68095 0.00991 0.23521 0.0
H1240 H 0.67917 0.00437 0.11608 0.0
H1241 H 0.64652 0.94854 0.14629 0.0
H1242 H 0.64824 0.95369 0.26569 0.0
H1243 H 0.6042 0.03554 0.54158 0.0
H1244 H 0.63691 0.02718 0.49436 0.0
H1245 H 0.61447 0.96789 0.43773 0.0
H1246 H 0.58152 0.97619 0.48457 0.0
H1247 H 0.63364 0.98687 0.33882 0.0
H1248 H 0.64784 0.97233 0.56364 0.0
H1249 H 0.64871 0.97961 0.68172 0.0
H1250 H 0.68794 0.03071 0.64826 0.0
H1251 H 0.68714 0.02387 0.52976 0.0
C1252 C 0.72223 0.96484 0.24816 0.0
C1253 C 0.73351 0.98232 0.23257 0.0
C1254 C 0.70758 0.96565 0.29675 0.0
C1255 C 0.70388 0.98402 0.32992 0.0
C1256 C 0.71673 1.00077 0.31976 0.0
C1257 C 0.73149 0.99993 0.27109 0.0
C1258 C 0.68457 0.98681 0.36489 0.0
C1259 C 0.68464 0.99117 0.43197 0.0
C1260 C 0.66594 0.98522 0.33106 0.0
C1261 C 0.66491 0.98207 0.25933 0.0
C1262 C 0.67352 0.99638 0.21644 0.0
C1263 C 0.67246 0.99335 0.1489 0.0
C1264 C 0.66278 0.97609 0.12367 0.0
C1265 C 0.65405 0.96188 0.16593 0.0
C1266 C 0.65503 0.96486 0.23352 0.0
C1267 C 0.60618 0.02069 0.51914 0.0
C1268 C 0.59021 0.00655 0.51657 0.0
C1269 C 0.62497 0.01588 0.49271 0.0
C1270 C 0.62822 0.99681 0.46337 0.0
C1271 C 0.61231 0.98265 0.46053 0.0
C1272 C 0.59349 0.98743 0.48717 0.0
C1273 C 0.64785 0.99218 0.43216 0.0
C1274 C 0.64786 0.98763 0.36527 0.0
C1275 C 0.66646 0.99375 0.46628 0.0
C1276 C 0.66728 0.99769 0.53768 0.0
C1277 C 0.65656 0.9852 0.58139 0.0
C1278 C 0.65705 0.98924 0.64844 0.0
C1279 C 0.66829 0.00568 0.67247 0.0
C1280 C 0.6792 0.01801 0.62955 0.0
C1281 C 0.67876 0.01404 0.56243 0.0
H1282 H 0.66859 0.00887 0.72433 0.0
H1283 H 0.66196 0.97377 0.0714 0.0
H1284 H 0.526 0.7345 0.25805 0.0
H1285 H 0.52094 0.70628 0.3347 0.0
H1286 H 0.51027 0.66538 0.1727 0.0
H1287 H 0.51232 0.6936 0.09793 0.0
H1288 H 0.48786 0.65367 0.25512 0.0
H1289 H 0.55895 0.67204 0.27467 0.0
H1290 H 0.58758 0.69497 0.2991 0.0
H1291 H 0.56557 0.7037 0.49409 0.0
H1292 H 0.53669 0.681 0.47058 0.0
H1293 H 0.50987 0.55813 0.40781 0.0
H1294 H 0.51617 0.58916 0.34248 0.0
H1295 H 0.50317 0.62658 0.51046 0.0
H1296 H 0.4964 0.59587 0.57476 0.0
H1297 H 0.53698 0.64056 0.43368 0.0
H1298 H 0.46707 0.62002 0.41114 0.0
H1299 H 0.4399 0.5955 0.38545 0.0
H1300 H 0.46229 0.58933 0.18994 0.0
H1301 H 0.4898 0.61358 0.21483 0.0
C1302 C 0.52218 0.71958 0.23887 0.0
C1303 C 0.52026 0.71644 0.17103 0.0
C1304 C 0.51968 0.70326 0.28288 0.0
C1305 C 0.51592 0.68327 0.25999 0.0
C1306 C 0.51335 0.6804 0.19252 0.0
C1307 C 0.515 0.69671 0.14915 0.0
C1308 C 0.51439 0.66517 0.30479 0.0
C1309 C 0.49893 0.6508 0.29322 0.0
C1310 C 0.52827 0.66135 0.35654 0.0
C1311 C 0.54558 0.67502 0.37061 0.0
C1312 C 0.56017 0.67896 0.3226 0.0
C1313 C 0.57644 0.6919 0.33631 0.0
C1314 C 0.57835 0.70084 0.39804 0.0
C1315 C 0.56403 0.69681 0.44626 0.0
C1316 C 0.54773 0.6839 0.43279 0.0
C1317 C 0.50876 0.57299 0.43077 0.0
C1318 C 0.50261 0.5747 0.496 0.0
C1319 C 0.51227 0.59067 0.39358 0.0
C1320 C 0.51002 0.61019 0.42162 0.0
C1321 C 0.50502 0.61174 0.48785 0.0
C1322 C 0.5011 0.59419 0.52441 0.0
C1323 C 0.51121 0.62902 0.38117 0.0
C1324 C 0.52627 0.64353 0.39456 0.0
C1325 C 0.49726 0.63283 0.33023 0.0
C1326 C 0.48061 0.61843 0.31507 0.0
C1327 C 0.46629 0.6133 0.36284 0.0
C1328 C 0.45082 0.59948 0.3484 0.0
C1329 C 0.4494 0.59082 0.28616 0.0
C1330 C 0.46343 0.59602 0.23817 0.0
C1331 C 0.47896 0.60981 0.2524 0.0
H1332 H 0.43741 0.58012 0.27507 0.0
H1333 H 0.59096 0.71084 0.40854 0.0
H1334 H 0.78783 0.52481 0.17638 0.0
H1335 H 0.81765 0.53088 0.24582 0.0
H1336 H 0.80923 0.47211 0.33637 0.0
H1337 H 0.7793 0.46619 0.26807 0.0
H1338 H 0.82497 0.50516 0.42076 0.0
H1339 H 0.82965 0.47303 0.20422 0.0
H1340 H 0.82628 0.4704 0.07235 0.0
H1341 H 0.88447 0.53292 0.07768 0.0
H1342 H 0.87897 0.5275 0.20673 0.0
H1343 H 0.93268 0.46463 0.43486 0.0
H1344 H 0.9006 0.46942 0.37757 0.0
H1345 H 0.89564 0.53007 0.45807 0.0
H1346 H 0.92802 0.52545 0.51514 0.0
H1347 H 0.8869 0.49887 0.28701 0.0
H1348 H 0.8415 0.53432 0.49583 0.0
H1349 H 0.84283 0.53799 0.6156 0.0
H1350 H 0.87684 0.48233 0.63062 0.0
H1351 H 0.87498 0.47787 0.5114 0.0
C1352 C 0.79181 0.51367 0.21338 0.0
C1353 C 0.78119 0.49513 0.21753 0.0
C1354 C 0.80905 0.51695 0.25198 0.0
C1355 C 0.81607 0.5016 0.29418 0.0
C1356 C 0.8042 0.48406 0.3035 0.0
C1357 C 0.78701 0.48075 0.26492 0.0
C1358 C 0.83666 0.50257 0.32326 0.0
C1359 C 0.83851 0.50404 0.3914 0.0
C1360 C 0.85441 0.50116 0.28482 0.0
C1361 C 0.85408 0.50072 0.21233 0.0
C1362 C 0.83836 0.48355 0.17515 0.0
C1363 C 0.83654 0.48184 0.09197 0.0
C1364 C 0.86073 0.50772 0.03627 0.0
C1365 C 0.87376 0.52151 0.09354 0.0
C1366 C 0.87013 0.51777 0.17489 0.0
C1367 C 0.92498 0.47915 0.43941 0.0
C1368 C 0.93294 0.49467 0.47942 0.0
C1369 C 0.90663 0.48186 0.40664 0.0
C1370 C 0.89562 0.50002 0.41402 0.0
C1371 C 0.90383 0.51588 0.45205 0.0
C1372 C 0.92239 0.51326 0.48428 0.0
C1373 C 0.87517 0.50173 0.38419 0.0
C1374 C 0.87334 0.50049 0.31606 0.0
C1375 C 0.85752 0.50389 0.42235 0.0
C1376 C 0.85836 0.50594 0.49445 0.0
C1377 C 0.84916 0.52279 0.52474 0.0
C1378 C 0.84994 0.52498 0.59257 0.0
C1379 C 0.85994 0.51044 0.63068 0.0
C1380 C 0.86914 0.49364 0.60109 0.0
C1381 C 0.86817 0.49123 0.53332 0.0
H1382 H 0.86043 0.51222 0.68311 0.0
H1383 H 0.86394 0.51101 0.98496 0.0
loop_
_geom_bond_atom_site_label_1
_geom_bond_atom_site_label_2
_geom_bond_distance
_geom_bond_site_symmetry_2
_ccdc_geom_bond_type
H0 C7 0.929 . S
H1 C10 0.930 . S
H2 C12 0.929 . S
H3 C4 0.969 . S
C4 H3 0.969 . S
C4 O5 1.550 1_556 S
C4 H6 0.973 . S
O5 C4 1.550 1_554 S
O5 C11 1.412 . S
H6 C4 0.973 . S
C7 H0 0.929 . S
C7 C8 1.400 . S
C7 C9 1.356 1_554 S
C8 C7 1.400 . S
C8 C12 1.377 . S
C9 C7 1.356 1_556 S
C9 C10 1.375 . S
C10 H1 0.930 . S
C10 C9 1.375 . S
C10 C11 1.383 1_556 S
C11 O5 1.412 . S
C11 C10 1.383 1_554 S
C11 C12 1.394 . S
C12 H2 0.929 . S
C12 C8 1.377 . S
C12 C11 1.394 . S
H13 C20 0.929 . S
H14 C23 0.930 . S
H15 C25 0.929 . S
H16 C17 0.969 . S
C17 H16 0.969 . S
C17 O18 1.550 1_556 S
C17 H19 0.973 . S
O18 C17 1.550 1_554 S
O18 C24 1.412 . S
H19 C17 0.973 . S
C20 H13 0.929 . S
C20 C21 1.400 . S
C20 C22 1.364 1_554 S
C21 C20 1.400 . S
C21 C25 1.377 . S
C22 C20 1.364 1_556 S
C22 C23 1.374 . S
C23 H14 0.930 . S
C23 C22 1.374 . S
C23 C24 1.383 1_556 S
C24 O18 1.412 . S
C24 C23 1.383 1_554 S
C24 C25 1.394 . S
C25 H15 0.929 . S
C25 C21 1.377 . S
C25 C24 1.394 . S
H26 C33 0.928 . S
H27 C36 0.930 . S
H28 C38 0.928 1_565 S
H29 C30 0.969 . S
C30 H29 0.969 . S
C30 O31 1.550 1_546 S
C30 H32 0.973 1_545 S
O31 C30 1.550 1_564 S
O31 C37 1.405 1_565 S
H32 C30 0.973 1_565 S
C33 H26 0.928 . S
C33 C34 1.400 1_565 S
C33 C35 1.364 1_564 S
C34 C33 1.400 1_545 S
C34 C38 1.377 . S
C35 C33 1.364 1_546 S
C35 C36 1.374 1_545 S
C36 H27 0.930 . S
C36 C35 1.374 1_565 S
C36 C37 1.382 1_566 S
C37 O31 1.405 1_545 S
C37 C36 1.382 1_544 S
C37 C38 1.394 . S
C38 H28 0.928 1_545 S
C38 C34 1.377 . S
C38 C37 1.394 . S
H39 C46 0.929 . S
H40 C49 0.930 . S
H41 C51 0.929 . S
H42 C43 0.969 . S
C43 H42 0.969 . S
C43 O44 1.550 1_556 S
C43 H45 0.973 . S
O44 C43 1.550 1_554 S
O44 C50 1.412 . S
H45 C43 0.973 . S
C46 H39 0.929 . S
C46 C47 1.400 . S
C46 C48 1.364 1_554 S
C47 C46 1.400 . S
C47 C51 1.377 . S
C48 C46 1.364 1_556 S
C48 C49 1.374 . S
C49 H40 0.930 . S
C49 C48 1.374 . S
C49 C50 1.383 1_556 S
C50 O44 1.412 . S
C50 C49 1.383 1_554 S
C50 C51 1.394 . S
C51 H41 0.929 . S
C51 C47 1.377 . S
C51 C50 1.394 . S
H52 C59 0.929 . S
H53 C62 0.930 . S
H54 C64 0.929 . S
H55 C56 0.969 . S
C56 H55 0.969 . S
C56 O57 1.550 . S
C56 H58 0.973 . S
O57 C56 1.550 . S
O57 C63 1.412 . S
H58 C56 0.973 . S
C59 H52 0.929 . S
C59 C60 1.400 . S
C59 C61 1.364 . S
C60 C59 1.400 . S
C60 C64 1.377 . S
C61 C59 1.364 . S
C61 C62 1.374 . S
C62 H53 0.930 . S
C62 C61 1.374 . S
C62 C63 1.383 . S
C63 O57 1.412 . S
C63 C62 1.383 . S
C63 C64 1.394 . S
C64 H54 0.929 . S
C64 C60 1.377 . S
C64 C63 1.394 . S
H65 C72 0.929 . S
H66 C75 0.930 . S
H67 C77 0.929 . S
H68 C69 0.969 . S
C69 H68 0.969 . S
C69 O70 1.550 . S
C69 H71 0.973 . S
O70 C69 1.550 . S
O70 C76 1.412 . S
H71 C69 0.973 . S
C72 H65 0.929 . S
C72 C73 1.400 . S
C72 C74 1.364 . S
C73 C72 1.400 . S
C73 C77 1.377 . S
C74 C72 1.364 . S
C74 C75 1.374 . S
C75 H66 0.930 . S
C75 C74 1.374 . S
C75 C76 1.383 . S
C76 O70 1.412 . S
C76 C75 1.383 . S
C76 C77 1.394 . S
C77 H67 0.929 . S
C77 C73 1.377 . S
C77 C76 1.394 . S
H78 C85 0.929 1_565 S
H79 C88 0.930 . S
H80 C90 0.928 1_565 S
H81 C82 0.969 . S
C82 H81 0.969 . S
C82 O83 1.550 1_545 S
C82 H84 0.973 1_545 S
O83 C82 1.550 1_565 S
O83 C89 1.402 1_565 S
H84 C82 0.973 1_565 S
C85 H78 0.929 1_545 S
C85 C86 1.400 . S
C85 C87 1.364 . S
C86 C85 1.400 . S
C86 C90 1.377 . S
C87 C85 1.364 . S
C87 C88 1.374 1_545 S
C88 H79 0.930 . S
C88 C87 1.374 1_565 S
C88 C89 1.382 1_565 S
C89 O83 1.402 1_545 S
C89 C88 1.382 1_545 S
C89 C90 1.394 . S
C90 H80 0.928 1_545 S
C90 C86 1.377 . S
C90 C89 1.394 . S
H91 C98 0.929 . S
H92 C101 0.930 . S
H93 C103 0.929 . S
H94 C95 0.969 . S
C95 H94 0.969 . S
C95 O96 1.550 . S
C95 H97 0.973 . S
O96 C95 1.550 . S
O96 C102 1.412 . S
H97 C95 0.973 . S
C98 H91 0.929 . S
C98 C99 1.400 . S
C98 C100 1.364 . S
C99 C98 1.400 . S
C99 C103 1.377 . S
C100 C98 1.364 . S
C100 C101 1.374 . S
C101 H92 0.930 . S
C101 C100 1.374 . S
C101 C102 1.383 . S
C102 O96 1.412 . S
C102 C101 1.383 . S
C102 C103 1.394 . S
C103 H93 0.929 . S
C103 C99 1.377 . S
C103 C102 1.394 . S
Zn104 O110 1.969 1_455 S
Zn104 O111 1.965 . S
Zn104 O115 2.024 . S
Zn104 O120 1.969 1_455 S
Zn105 O112 1.944 1_655 S
Zn105 O118 1.959 1_655 S
Zn105 O119 1.977 . S
Zn105 O121 2.040 . S
C106 O107 1.239 . S
C106 O115 1.058 . S
O107 C106 1.239 . S
C108 O109 1.229 1_655 S
C108 O121 1.058 . S
O109 C108 1.229 1_455 S
O110 Zn104 1.969 1_655 S
O110 C113 1.267 1_655 S
O111 Zn104 1.965 . S
O111 C122 1.260 1_545 S
O112 Zn105 1.944 1_455 S
O112 C122 1.258 . S
C113 O110 1.267 1_455 S
C113 O114 1.228 . S
O114 C113 1.228 . S
O115 Zn104 2.024 . S
O115 C106 1.058 . S
C116 O117 1.228 . S
C116 O118 1.267 1_655 S
O117 C116 1.228 . S
O118 Zn105 1.959 1_455 S
O118 C116 1.267 1_455 S
O119 Zn105 1.977 . S
O119 C123 1.260 1_565 S
O120 Zn104 1.969 1_655 S
O120 C123 1.258 . S
O121 Zn105 2.040 . S
O121 C108 1.058 . S
C122 O111 1.260 1_565 S
C122 O112 1.258 . S
C123 O119 1.260 1_545 S
C123 O120 1.258 . S
Zn124 O130 1.969 . S
Zn124 O131 1.965 1_565 S
Zn124 O135 2.024 1_565 S
Zn124 O140 1.969 . S
Zn125 O132 1.969 . S
Zn125 O138 1.969 . S
Zn125 O139 1.965 1_545 S
Zn125 O141 2.024 1_545 S
C126 O127 1.229 1_545 S
C126 O135 1.058 . S
O127 C126 1.229 1_565 S
C128 O129 1.229 1_565 S
C128 O141 1.058 . S
O129 C128 1.229 1_545 S
O130 Zn124 1.969 . S
O130 C133 1.267 . S
O131 Zn124 1.965 1_545 S
O131 C142 1.260 . S
O132 Zn125 1.969 . S
O132 C142 1.258 . S
C133 O130 1.267 . S
C133 O134 1.228 1_565 S
O134 C133 1.228 1_545 S
O135 Zn124 2.024 1_545 S
O135 C126 1.058 . S
C136 O137 1.228 1_545 S
C136 O138 1.267 . S
O137 C136 1.228 1_565 S
O138 Zn125 1.969 . S
O138 C136 1.267 . S
O139 Zn125 1.965 1_565 S
O139 C143 1.260 . S
O140 Zn124 1.969 . S
O140 C143 1.258 . S
O141 Zn125 2.024 1_565 S
O141 C128 1.058 . S
C142 O131 1.260 . S
C142 O132 1.258 . S
C143 O139 1.260 . S
C143 O140 1.258 . S
Zn144 O150 1.969 . S
Zn144 O151 1.965 . S
Zn144 O155 2.024 . S
Zn144 O160 1.969 . S
Zn145 O152 1.969 . S
Zn145 O158 1.969 . S
Zn145 O159 1.965 . S
Zn145 O161 2.024 . S
C146 O147 1.229 . S
C146 O155 1.058 . S
O147 C146 1.229 . S
C148 O149 1.229 . S
C148 O161 1.058 . S
O149 C148 1.229 . S
O150 Zn144 1.969 . S
O150 C153 1.267 . S
O151 Zn144 1.965 . S
O151 C162 1.260 . S
O152 Zn145 1.969 . S
O152 C162 1.258 . S
C153 O150 1.267 . S
C153 O154 1.228 . S
O154 C153 1.228 . S
O155 Zn144 2.024 . S
O155 C146 1.058 . S
C156 O157 1.228 . S
C156 O158 1.267 . S
O157 C156 1.228 . S
O158 Zn145 1.969 . S
O158 C156 1.267 . S
O159 Zn145 1.965 . S
O159 C163 1.260 . S
O160 Zn144 1.969 . S
O160 C163 1.258 . S
O161 Zn145 2.024 . S
O161 C148 1.058 . S
C162 O151 1.260 . S
C162 O152 1.258 . S
C163 O159 1.260 . S
C163 O160 1.258 . S
Zn164 O170 1.969 . S
Zn164 O171 1.965 . S
Zn164 O175 2.024 . S
Zn164 O180 1.969 . S
Zn165 O172 1.969 . S
Zn165 O178 1.969 . S
Zn165 O179 1.965 . S
Zn165 O181 2.024 . S
C166 O167 1.229 . S
C166 O175 1.058 . S
O167 C166 1.229 . S
C168 O169 1.229 . S
C168 O181 1.058 . S
O169 C168 1.229 . S
O170 Zn164 1.969 . S
O170 C173 1.267 . S
O171 Zn164 1.965 . S
O171 C182 1.260 . S
O172 Zn165 1.969 . S
O172 C182 1.258 1_655 S
C173 O170 1.267 . S
C173 O174 1.228 . S
O174 C173 1.228 . S
O175 Zn164 2.024 . S
O175 C166 1.058 . S
C176 O177 1.228 . S
C176 O178 1.267 . S
O177 C176 1.228 . S
O178 Zn165 1.969 . S
O178 C176 1.267 . S
O179 Zn165 1.965 . S
O179 C183 1.246 1_655 S
O180 Zn164 1.969 . S
O180 C183 1.281 . S
O181 Zn165 2.024 . S
O181 C168 1.058 . S
C182 O171 1.260 . S
C182 O172 1.258 1_455 S
C183 O179 1.246 1_455 S
C183 O180 1.281 . S
H184 C202 0.951 . S
H185 C204 0.951 . S
H186 C206 0.950 . S
H187 C207 0.950 . S
H188 C209 0.950 . S
H189 C212 0.950 . S
H190 C213 0.950 . S
H191 C215 0.950 . S
H192 C216 0.950 . S
H193 C217 0.951 . S
H194 C219 0.951 . S
H195 C221 0.950 . S
H196 C222 0.950 . S
H197 C224 0.950 . S
H198 C227 0.950 . S
H199 C228 0.950 . S
H200 C230 0.950 . S
H201 C231 0.950 . S
C202 H184 0.951 . S
C202 C203 1.366 . S
C202 C204 1.388 . S
C203 C202 1.366 . S
C203 C207 1.385 1_545 S
C204 H185 0.951 . S
C204 C202 1.388 . S
C204 C205 1.366 1_545 S
C205 C204 1.366 1_565 S
C205 C206 1.414 . S
C205 C208 1.499 . S
C206 H186 0.950 . S
C206 C205 1.414 . S
C206 C207 1.374 . S
C207 H187 0.950 . S
C207 C203 1.385 1_565 S
C207 C206 1.374 . S
C208 C205 1.499 . S
C208 C209 1.373 1_565 S
C208 C210 1.389 . S
C209 H188 0.950 . S
C209 C208 1.373 1_545 S
C209 C225 1.377 . S
C210 C208 1.389 . S
C210 C211 1.524 . S
C210 C224 1.377 . S
C211 C210 1.524 . S
C211 C212 1.397 . S
C211 C216 1.363 . S
C212 H189 0.950 . S
C212 C211 1.397 . S
C212 C213 1.334 . S
C213 H190 0.950 . S
C213 C212 1.334 . S
C213 C214 1.287 . S
C214 C213 1.287 . S
C214 C215 1.524 . S
C214 H233 0.913 . S
C215 H191 0.950 . S
C215 C214 1.524 . S
C215 C216 1.415 . S
C216 H192 0.950 . S
C216 C211 1.363 . S
C216 C215 1.415 . S
C217 H193 0.951 . S
C217 C218 1.366 . S
C217 C219 1.388 . S
C218 C217 1.366 . S
C218 C222 1.385 1_565 S
C219 H194 0.951 . S
C219 C217 1.388 . S
C219 C220 1.364 1_565 S
C220 C219 1.364 1_545 S
C220 C221 1.415 . S
C220 C223 1.498 . S
C221 H195 0.950 . S
C221 C220 1.415 . S
C221 C222 1.374 . S
C222 H196 0.950 . S
C222 C218 1.385 1_545 S
C222 C221 1.374 . S
C223 C220 1.498 . S
C223 C224 1.355 1_545 S
C223 C225 1.407 . S
C224 H197 0.950 . S
C224 C210 1.377 . S
C224 C223 1.355 1_565 S
C225 C209 1.377 . S
C225 C223 1.407 . S
C225 C226 1.524 . S
C226 C225 1.524 . S
C226 C227 1.397 . S
C226 C231 1.363 . S
C227 H198 0.950 . S
C227 C226 1.397 . S
C227 C228 1.334 . S
C228 H199 0.950 . S
C228 C227 1.334 . S
C228 C229 1.287 . S
C229 C228 1.287 . S
C229 C230 1.524 . S
C229 H232 0.999 . S
C230 H200 0.950 . S
C230 C229 1.524 . S
C230 C231 1.415 . S
C231 H201 0.950 . S
C231 C226 1.363 . S
C231 C230 1.415 . S
H232 C229 0.999 . S
H233 C214 0.913 . S
H234 C252 0.951 . S
H235 C254 0.951 . S
H236 C256 0.950 . S
H237 C257 0.950 . S
H238 C259 0.950 . S
H239 C262 0.950 . S
H240 C263 0.950 . S
H241 C265 0.950 . S
H242 C266 0.950 . S
H243 C267 0.951 . S
H244 C269 0.951 . S
H245 C271 0.950 . S
H246 C272 0.950 . S
H247 C274 0.950 . S
H248 C277 0.950 . S
H249 C278 0.950 . S
H250 C280 0.950 . S
H251 C281 0.950 . S
C252 H234 0.951 . S
C252 C253 1.366 . S
C252 C254 1.388 . S
C253 C252 1.366 . S
C253 C257 1.385 . S
C254 H235 0.951 . S
C254 C252 1.388 . S
C254 C255 1.366 . S
C255 C254 1.366 . S
C255 C256 1.414 . S
C255 C258 1.499 . S
C256 H236 0.950 . S
C256 C255 1.414 . S
C256 C257 1.374 . S
C257 H237 0.950 . S
C257 C253 1.385 . S
C257 C256 1.374 . S
C258 C255 1.499 . S
C258 C259 1.373 . S
C258 C260 1.389 . S
C259 H238 0.950 . S
C259 C258 1.373 . S
C259 C275 1.377 . S
C260 C258 1.389 . S
C260 C261 1.524 . S
C260 C274 1.377 . S
C261 C260 1.524 . S
C261 C262 1.397 . S
C261 C266 1.363 . S
C262 H239 0.950 . S
C262 C261 1.397 . S
C262 C263 1.334 . S
C263 H240 0.950 . S
C263 C262 1.334 . S
C263 C264 1.287 . S
C264 C263 1.287 . S
C264 C265 1.524 . S
C264 H283 0.913 . S
C265 H241 0.950 . S
C265 C264 1.524 . S
C265 C266 1.415 . S
C266 H242 0.950 . S
C266 C261 1.363 . S
C266 C265 1.415 . S
C267 H243 0.951 . S
C267 C268 1.366 . S
C267 C269 1.388 . S
C268 C267 1.366 . S
C268 C272 1.385 . S
C269 H244 0.951 . S
C269 C267 1.388 . S
C269 C270 1.366 . S
C270 C269 1.366 . S
C270 C271 1.414 . S
C270 C273 1.499 . S
C271 H245 0.950 . S
C271 C270 1.414 . S
C271 C272 1.374 . S
C272 H246 0.950 . S
C272 C268 1.385 . S
C272 C271 1.374 . S
C273 C270 1.499 . S
C273 C274 1.373 . S
C273 C275 1.389 . S
C274 H247 0.950 . S
C274 C260 1.377 . S
C274 C273 1.373 . S
C275 C259 1.377 . S
C275 C273 1.389 . S
C275 C276 1.524 . S
C276 C275 1.524 . S
C276 C277 1.397 . S
C276 C281 1.363 . S
C277 H248 0.950 . S
C277 C276 1.397 . S
C277 C278 1.334 . S
C278 H249 0.950 . S
C278 C277 1.334 . S
C278 C279 1.287 . S
C279 C278 1.287 . S
C279 C280 1.524 . S
C279 H282 0.999 . S
C280 H250 0.950 . S
C280 C279 1.524 . S
C280 C281 1.415 . S
C281 H251 0.950 . S
C281 C276 1.363 . S
C281 C280 1.415 . S
H282 C279 0.999 . S
H283 C264 0.913 . S
H284 C302 0.951 . S
H285 C304 0.951 . S
H286 C306 0.950 . S
H287 C307 0.950 . S
H288 C309 0.950 . S
H289 C312 0.950 . S
H290 C313 0.950 . S
H291 C315 0.950 . S
H292 C316 0.950 . S
H293 C317 0.951 . S
H294 C319 0.951 . S
H295 C321 0.950 . S
H296 C322 0.950 . S
H297 C324 0.950 . S
H298 C327 0.950 . S
H299 C328 0.950 . S
H300 C330 0.950 . S
H301 C331 0.950 . S
C302 H284 0.951 . S
C302 C303 1.366 . S
C302 C304 1.388 . S
C303 C302 1.366 . S
C303 C307 1.385 . S
C304 H285 0.951 . S
C304 C302 1.388 . S
C304 C305 1.366 . S
C305 C304 1.366 . S
C305 C306 1.414 . S
C305 C308 1.499 . S
C306 H286 0.950 . S
C306 C305 1.414 . S
C306 C307 1.374 . S
C307 H287 0.950 . S
C307 C303 1.385 . S
C307 C306 1.374 . S
C308 C305 1.499 . S
C308 C309 1.373 . S
C308 C310 1.389 . S
C309 H288 0.950 . S
C309 C308 1.373 . S
C309 C325 1.377 . S
C310 C308 1.389 . S
C310 C311 1.524 . S
C310 C324 1.377 . S
C311 C310 1.524 . S
C311 C312 1.397 . S
C311 C316 1.363 . S
C312 H289 0.950 . S
C312 C311 1.397 . S
C312 C313 1.334 . S
C313 H290 0.950 . S
C313 C312 1.334 . S
C313 C314 1.287 . S
C314 C313 1.287 . S
C314 C315 1.524 . S
C314 H333 0.913 . S
C315 H291 0.950 . S
C315 C314 1.524 . S
C315 C316 1.415 . S
C316 H292 0.950 . S
C316 C311 1.363 . S
C316 C315 1.415 . S
C317 H293 0.951 . S
C317 C318 1.366 . S
C317 C319 1.388 . S
C318 C317 1.366 . S
C318 C322 1.385 . S
C319 H294 0.951 . S
C319 C317 1.388 . S
C319 C320 1.366 . S
C320 C319 1.366 . S
C320 C321 1.414 . S
C320 C323 1.499 . S
C321 H295 0.950 . S
C321 C320 1.414 . S
C321 C322 1.374 . S
C322 H296 0.950 . S
C322 C318 1.385 . S
C322 C321 1.374 . S
C323 C320 1.499 . S
C323 C324 1.373 . S
C323 C325 1.389 . S
C324 H297 0.950 . S
C324 C310 1.377 . S
C324 C323 1.373 . S
C325 C309 1.377 . S
C325 C323 1.389 . S
C325 C326 1.524 . S
C326 C325 1.524 . S
C326 C327 1.397 . S
C326 C331 1.363 . S
C327 H298 0.950 . S
C327 C326 1.397 . S
C327 C328 1.334 . S
C328 H299 0.950 . S
C328 C327 1.334 . S
C328 C329 1.287 . S
C329 C328 1.287 . S
C329 C330 1.524 . S
C329 H332 0.999 . S
C330 H300 0.950 . S
C330 C329 1.524 . S
C330 C331 1.415 . S
C331 H301 0.950 . S
C331 C326 1.363 . S
C331 C330 1.415 . S
H332 C329 0.999 . S
H333 C314 0.913 . S
H334 C352 0.951 . S
H335 C354 0.951 . S
H336 C356 0.950 . S
H337 C357 0.950 . S
H338 C359 0.950 . S
H339 C362 0.950 . S
H340 C363 0.950 . S
H341 C365 0.950 . S
H342 C366 0.950 . S
H343 C367 0.951 . S
H344 C369 0.951 . S
H345 C371 0.950 . S
H346 C372 0.950 . S
H347 C374 0.950 . S
H348 C377 0.950 . S
H349 C378 0.950 . S
H350 C380 0.950 . S
H351 C381 0.950 . S
C352 H334 0.951 . S
C352 C353 1.366 . S
C352 C354 1.388 . S
C353 C352 1.366 . S
C353 C357 1.385 . S
C354 H335 0.951 . S
C354 C352 1.388 . S
C354 C355 1.366 . S
C355 C354 1.366 . S
C355 C356 1.414 . S
C355 C358 1.499 . S
C356 H336 0.950 . S
C356 C355 1.414 . S
C356 C357 1.374 . S
C357 H337 0.950 . S
C357 C353 1.385 . S
C357 C356 1.374 . S
C358 C355 1.499 . S
C358 C359 1.373 . S
C358 C360 1.389 . S
C359 H338 0.950 . S
C359 C358 1.373 . S
C359 C375 1.377 . S
C360 C358 1.389 . S
C360 C361 1.524 . S
C360 C374 1.377 . S
C361 C360 1.524 . S
C361 C362 1.397 . S
C361 C366 1.363 . S
C362 H339 0.950 . S
C362 C361 1.397 . S
C362 C363 1.334 . S
C363 H340 0.950 . S
C363 C362 1.334 . S
C363 C364 1.287 . S
C364 C363 1.287 . S
C364 C365 1.524 . S
C364 H383 0.913 . S
C365 H341 0.950 . S
C365 C364 1.524 . S
C365 C366 1.415 . S
C366 H342 0.950 . S
C366 C361 1.363 . S
C366 C365 1.415 . S
C367 H343 0.951 . S
C367 C368 1.366 . S
C367 C369 1.388 . S
C368 C367 1.366 . S
C368 C372 1.385 . S
C369 H344 0.951 . S
C369 C367 1.388 . S
C369 C370 1.366 . S
C370 C369 1.366 . S
C370 C371 1.414 . S
C370 C373 1.499 . S
C371 H345 0.950 . S
C371 C370 1.414 . S
C371 C372 1.374 . S
C372 H346 0.950 . S
C372 C368 1.385 . S
C372 C371 1.374 . S
C373 C370 1.499 . S
C373 C374 1.373 . S
C373 C375 1.389 . S
C374 H347 0.950 . S
C374 C360 1.377 . S
C374 C373 1.373 . S
C375 C359 1.377 . S
C375 C373 1.389 . S
C375 C376 1.524 1_455 S
C376 C375 1.524 1_655 S
C376 C377 1.397 . S
C376 C381 1.363 . S
C377 H348 0.950 . S
C377 C376 1.397 . S
C377 C378 1.334 . S
C378 H349 0.950 . S
C378 C377 1.334 . S
C378 C379 1.287 . S
C379 C378 1.287 . S
C379 C380 1.524 . S
C379 H382 0.999 . S
C380 H350 0.950 . S
C380 C379 1.524 . S
C380 C381 1.415 . S
C381 H351 0.950 . S
C381 C376 1.363 . S
C381 C380 1.415 . S
H382 C379 0.999 . S
H383 C364 0.913 . S
H384 C402 0.951 1_554 S
H385 C404 0.951 . S
H386 C406 0.950 . S
H387 C407 0.950 . S
H388 C409 0.950 . S
H389 C412 0.950 . S
H390 C413 0.950 . S
H391 C415 0.950 . S
H392 C416 0.950 . S
H393 C417 0.951 . S
H394 C419 0.951 . S
H395 C421 0.950 . S
H396 C422 0.950 . S
H397 C424 0.950 . S
H398 C427 0.950 . S
H399 C428 0.950 . S
H400 C430 0.950 . S
H401 C431 0.950 . S
C402 H384 0.951 1_556 S
C402 C403 1.367 . S
C402 C404 1.388 . S
C403 C402 1.367 . S
C403 C407 1.383 1_545 S
C404 H385 0.951 . S
C404 C402 1.388 . S
C404 C405 1.366 . S
C405 C404 1.366 . S
C405 C406 1.414 1_545 S
C405 C408 1.499 . S
C406 H386 0.950 . S
C406 C405 1.414 1_565 S
C406 C407 1.374 . S
C407 H387 0.950 . S
C407 C403 1.383 1_565 S
C407 C406 1.374 . S
C408 C405 1.499 . S
C408 C409 1.373 1_545 S
C408 C410 1.389 . S
C409 H388 0.950 . S
C409 C408 1.373 1_565 S
C409 C425 1.377 . S
C410 C408 1.389 . S
C410 C411 1.524 . S
C410 C424 1.377 . S
C411 C410 1.524 . S
C411 C412 1.397 . S
C411 C416 1.363 . S
C412 H389 0.950 . S
C412 C411 1.397 . S
C412 C413 1.334 . S
C413 H390 0.950 . S
C413 C412 1.334 . S
C413 C414 1.287 . S
C414 C413 1.287 . S
C414 C415 1.524 . S
C414 H433 0.913 . S
C415 H391 0.950 . S
C415 C414 1.524 . S
C415 C416 1.415 . S
C416 H392 0.950 . S
C416 C411 1.363 . S
C416 C415 1.415 . S
C417 H393 0.951 . S
C417 C418 1.366 1_565 S
C417 C419 1.388 . S
C418 C417 1.366 1_545 S
C418 C422 1.385 . S
C419 H394 0.951 . S
C419 C417 1.388 . S
C419 C420 1.362 1_565 S
C420 C419 1.362 1_545 S
C420 C421 1.417 . S
C420 C423 1.499 . S
C421 H395 0.950 . S
C421 C420 1.417 . S
C421 C422 1.374 . S
C422 H396 0.950 . S
C422 C418 1.385 . S
C422 C421 1.374 . S
C423 C420 1.499 . S
C423 C424 1.387 . S
C423 C425 1.376 1_545 S
C424 H397 0.950 . S
C424 C410 1.377 . S
C424 C423 1.387 . S
C425 C409 1.377 . S
C425 C423 1.376 1_565 S
C425 C426 1.524 . S
C426 C425 1.524 . S
C426 C427 1.397 . S
C426 C431 1.363 . S
C427 H398 0.950 . S
C427 C426 1.397 . S
C427 C428 1.334 . S
C428 H399 0.950 . S
C428 C427 1.334 . S
C428 C429 1.287 . S
C429 C428 1.287 . S
C429 C430 1.524 . S
C429 H432 0.999 . S
C430 H400 0.950 . S
C430 C429 1.524 . S
C430 C431 1.415 . S
C431 H401 0.950 . S
C431 C426 1.363 . S
C431 C430 1.415 . S
H432 C429 0.999 . S
H433 C414 0.913 . S
H434 C452 0.951 . S
H435 C454 0.951 . S
H436 C456 0.950 . S
H437 C457 0.950 . S
H438 C459 0.950 . S
H439 C462 0.950 . S
H440 C463 0.950 . S
H441 C465 0.950 . S
H442 C466 0.950 . S
H443 C467 0.951 . S
H444 C469 0.951 . S
H445 C471 0.950 . S
H446 C472 0.950 . S
H447 C474 0.950 . S
H448 C477 0.950 . S
H449 C478 0.950 . S
H450 C480 0.950 . S
H451 C481 0.950 . S
C452 H434 0.951 . S
C452 C453 1.366 . S
C452 C454 1.388 . S
C453 C452 1.366 . S
C453 C457 1.385 . S
C454 H435 0.951 . S
C454 C452 1.388 . S
C454 C455 1.366 . S
C455 C454 1.366 . S
C455 C456 1.414 . S
C455 C458 1.499 . S
C456 H436 0.950 . S
C456 C455 1.414 . S
C456 C457 1.374 . S
C457 H437 0.950 . S
C457 C453 1.385 . S
C457 C456 1.374 . S
C458 C455 1.499 . S
C458 C459 1.373 . S
C458 C460 1.389 . S
C459 H438 0.950 . S
C459 C458 1.373 . S
C459 C475 1.377 . S
C460 C458 1.389 . S
C460 C461 1.524 . S
C460 C474 1.377 . S
C461 C460 1.524 . S
C461 C462 1.397 . S
C461 C466 1.363 . S
C462 H439 0.950 . S
C462 C461 1.397 . S
C462 C463 1.334 . S
C463 H440 0.950 . S
C463 C462 1.334 . S
C463 C464 1.287 . S
C464 C463 1.287 . S
C464 C465 1.524 . S
C464 H483 0.913 . S
C465 H441 0.950 . S
C465 C464 1.524 . S
C465 C466 1.415 . S
C466 H442 0.950 . S
C466 C461 1.363 . S
C466 C465 1.415 . S
C467 H443 0.951 . S
C467 C468 1.366 . S
C467 C469 1.388 . S
C468 C467 1.366 . S
C468 C472 1.385 . S
C469 H444 0.951 . S
C469 C467 1.388 . S
C469 C470 1.366 . S
C470 C469 1.366 . S
C470 C471 1.414 . S
C470 C473 1.499 . S
C471 H445 0.950 . S
C471 C470 1.414 . S
C471 C472 1.374 . S
C472 H446 0.950 . S
C472 C468 1.385 . S
C472 C471 1.374 . S
C473 C470 1.499 . S
C473 C474 1.373 . S
C473 C475 1.389 . S
C474 H447 0.950 . S
C474 C460 1.377 . S
C474 C473 1.373 . S
C475 C459 1.377 . S
C475 C473 1.389 . S
C475 C476 1.524 . S
C476 C475 1.524 . S
C476 C477 1.397 . S
C476 C481 1.363 . S
C477 H448 0.950 . S
C477 C476 1.397 . S
C477 C478 1.334 . S
C478 H449 0.950 . S
C478 C477 1.334 . S
C478 C479 1.287 . S
C479 C478 1.287 . S
C479 C480 1.524 . S
C479 H482 0.999 . S
C480 H450 0.950 . S
C480 C479 1.524 . S
C480 C481 1.415 . S
C481 H451 0.950 . S
C481 C476 1.363 . S
C481 C480 1.415 . S
H482 C479 0.999 . S
H483 C464 0.913 . S
H484 C502 0.951 . S
H485 C504 0.951 . S
H486 C506 0.950 . S
H487 C507 0.950 . S
H488 C509 0.950 . S
H489 C512 0.950 . S
H490 C513 0.950 . S
H491 C515 0.950 . S
H492 C516 0.950 . S
H493 C517 0.951 . S
H494 C519 0.951 . S
H495 C521 0.950 . S
H496 C522 0.950 . S
H497 C524 0.950 . S
H498 C527 0.950 . S
H499 C528 0.950 . S
H500 C530 0.950 . S
H501 C531 0.950 . S
C502 H484 0.951 . S
C502 C503 1.366 . S
C502 C504 1.388 . S
C503 C502 1.366 . S
C503 C507 1.385 1_556 S
C504 H485 0.951 . S
C504 C502 1.388 . S
C504 C505 1.366 . S
C505 C504 1.366 . S
C505 C506 1.414 . S
C505 C508 1.499 . S
C506 H486 0.950 . S
C506 C505 1.414 . S
C506 C507 1.374 1_556 S
C507 H487 0.950 . S
C507 C503 1.385 1_554 S
C507 C506 1.374 1_554 S
C508 C505 1.499 . S
C508 C509 1.373 . S
C508 C510 1.389 . S
C509 H488 0.950 . S
C509 C508 1.373 . S
C509 C525 1.377 . S
C510 C508 1.389 . S
C510 C511 1.524 . S
C510 C524 1.377 . S
C511 C510 1.524 . S
C511 C512 1.397 . S
C511 C516 1.363 . S
C512 H489 0.950 . S
C512 C511 1.397 . S
C512 C513 1.334 . S
C513 H490 0.950 . S
C513 C512 1.334 . S
C513 C514 1.287 . S
C514 C513 1.287 . S
C514 C515 1.524 . S
C514 H533 0.913 . S
C515 H491 0.950 . S
C515 C514 1.524 . S
C515 C516 1.415 . S
C516 H492 0.950 . S
C516 C511 1.363 . S
C516 C515 1.415 . S
C517 H493 0.951 . S
C517 C518 1.366 . S
C517 C519 1.388 . S
C518 C517 1.366 . S
C518 C522 1.385 . S
C519 H494 0.951 . S
C519 C517 1.388 . S
C519 C520 1.366 . S
C520 C519 1.366 . S
C520 C521 1.414 . S
C520 C523 1.499 . S
C521 H495 0.950 . S
C521 C520 1.414 . S
C521 C522 1.374 . S
C522 H496 0.950 . S
C522 C518 1.385 . S
C522 C521 1.374 . S
C523 C520 1.499 . S
C523 C524 1.373 . S
C523 C525 1.389 . S
C524 H497 0.950 . S
C524 C510 1.377 . S
C524 C523 1.373 . S
C525 C509 1.377 . S
C525 C523 1.389 . S
C525 C526 1.524 . S
C526 C525 1.524 . S
C526 C527 1.397 . S
C526 C531 1.363 . S
C527 H498 0.950 . S
C527 C526 1.397 . S
C527 C528 1.334 . S
C528 H499 0.950 . S
C528 C527 1.334 . S
C528 C529 1.287 . S
C529 C528 1.287 . S
C529 C530 1.524 . S
C529 H532 0.999 . S
C530 H500 0.950 . S
C530 C529 1.524 . S
C530 C531 1.415 . S
C531 H501 0.950 . S
C531 C526 1.363 . S
C531 C530 1.415 . S
H532 C529 0.999 . S
H533 C514 0.913 . S
H534 C552 0.951 . S
H535 C554 0.951 . S
H536 C556 0.950 . S
H537 C557 0.950 1_554 S
H538 C559 0.950 . S
H539 C562 0.950 . S
H540 C563 0.950 . S
H541 C565 0.950 . S
H542 C566 0.950 . S
H543 C567 0.951 . S
H544 C569 0.951 . S
H545 C571 0.950 . S
H546 C572 0.950 . S
H547 C574 0.950 . S
H548 C577 0.950 . S
H549 C578 0.950 . S
H550 C580 0.950 1_554 S
H551 C581 0.950 . S
C552 H534 0.951 . S
C552 C553 1.366 . S
C552 C554 1.388 . S
C553 C552 1.366 . S
C553 C557 1.385 . S
C554 H535 0.951 . S
C554 C552 1.388 . S
C554 C555 1.366 . S
C555 C554 1.366 . S
C555 C556 1.414 . S
C555 C558 1.499 . S
C556 H536 0.950 . S
C556 C555 1.414 . S
C556 C557 1.374 . S
C557 H537 0.950 1_556 S
C557 C553 1.385 . S
C557 C556 1.374 . S
C558 C555 1.499 . S
C558 C559 1.373 . S
C558 C560 1.389 . S
C559 H538 0.950 . S
C559 C558 1.373 . S
C559 C575 1.377 . S
C560 C558 1.389 . S
C560 C561 1.524 . S
C560 C574 1.377 . S
C561 C560 1.524 . S
C561 C562 1.397 . S
C561 C566 1.363 . S
C562 H539 0.950 . S
C562 C561 1.397 . S
C562 C563 1.334 . S
C563 H540 0.950 . S
C563 C562 1.334 . S
C563 C564 1.287 . S
C564 C563 1.287 . S
C564 C565 1.524 . S
C564 H583 0.913 . S
C565 H541 0.950 . S
C565 C564 1.524 . S
C565 C566 1.415 . S
C566 H542 0.950 . S
C566 C561 1.363 . S
C566 C565 1.415 . S
C567 H543 0.951 . S
C567 C568 1.366 . S
C567 C569 1.388 . S
C568 C567 1.366 . S
C568 C572 1.385 1_655 S
C569 H544 0.951 . S
C569 C567 1.388 . S
C569 C570 1.366 . S
C570 C569 1.366 . S
C570 C571 1.414 1_655 S
C570 C573 1.499 . S
C571 H545 0.950 . S
C571 C570 1.414 1_455 S
C571 C572 1.374 . S
C572 H546 0.950 . S
C572 C568 1.385 1_455 S
C572 C571 1.374 . S
C573 C570 1.499 . S
C573 C574 1.373 . S
C573 C575 1.389 . S
C574 H547 0.950 . S
C574 C560 1.377 . S
C574 C573 1.373 . S
C575 C559 1.377 . S
C575 C573 1.389 . S
C575 C576 1.524 . S
C576 C575 1.524 . S
C576 C577 1.397 1_655 S
C576 C581 1.363 . S
C577 H548 0.950 . S
C577 C576 1.397 1_455 S
C577 C578 1.334 . S
C578 H549 0.950 . S
C578 C577 1.334 . S
C578 C579 1.287 1_455 S
C579 C578 1.287 1_655 S
C579 C580 1.524 . S
C579 H582 0.999 . S
C580 H550 0.950 1_556 S
C580 C579 1.524 . S
C580 C581 1.415 . S
C581 H551 0.950 . S
C581 C576 1.363 . S
C581 C580 1.415 . S
H582 C579 0.999 . S
H583 C564 0.913 . S
H584 C602 0.951 . S
H585 C604 0.951 . S
H586 C606 0.950 . S
H587 C607 0.950 . S
H588 C609 0.950 . S
H589 C612 0.950 . S
H590 C613 0.950 . S
H591 C615 0.950 . S
H592 C616 0.950 . S
H593 C617 0.951 . S
H594 C619 0.951 . S
H595 C621 0.950 . S
H596 C622 0.947 1_655 S
H597 C624 0.950 . S
H598 C627 0.950 . S
H599 C628 0.950 . S
H600 C630 0.950 . S
H601 C631 0.950 1_455 S
C602 H584 0.951 . S
C602 C603 1.366 . S
C602 C604 1.388 . S
C603 C602 1.366 . S
C603 C607 1.385 . S
C604 H585 0.951 . S
C604 C602 1.388 . S
C604 C605 1.366 . S
C605 C604 1.366 . S
C605 C606 1.414 . S
C605 C608 1.499 . S
C606 H586 0.950 . S
C606 C605 1.414 . S
C606 C607 1.374 . S
C607 H587 0.950 . S
C607 C603 1.385 . S
C607 C606 1.374 . S
C608 C605 1.499 . S
C608 C609 1.373 . S
C608 C610 1.389 . S
C609 H588 0.950 . S
C609 C608 1.373 . S
C609 C625 1.377 . S
C610 C608 1.389 . S
C610 C611 1.524 . S
C610 C624 1.377 . S
C611 C610 1.524 . S
C611 C612 1.397 . S
C611 C616 1.363 . S
C612 H589 0.950 . S
C612 C611 1.397 . S
C612 C613 1.334 . S
C613 H590 0.950 . S
C613 C612 1.334 . S
C613 C614 1.287 . S
C614 C613 1.287 . S
C614 C615 1.524 . S
C614 H633 0.913 . S
C615 H591 0.950 . S
C615 C614 1.524 . S
C615 C616 1.415 . S
C616 H592 0.950 . S
C616 C611 1.363 . S
C616 C615 1.415 . S
C617 H593 0.951 . S
C617 C618 1.366 . S
C617 C619 1.388 . S
C618 C617 1.366 . S
C618 C622 1.385 . S
C619 H594 0.951 . S
C619 C617 1.388 . S
C619 C620 1.366 . S
C620 C619 1.366 . S
C620 C621 1.414 . S
C620 C623 1.499 . S
C621 H595 0.950 . S
C621 C620 1.414 . S
C621 C622 1.374 . S
C622 H596 0.947 1_455 S
C622 C618 1.385 . S
C622 C621 1.374 . S
C623 C620 1.499 . S
C623 C624 1.373 . S
C623 C625 1.389 . S
C624 H597 0.950 . S
C624 C610 1.377 . S
C624 C623 1.373 . S
C625 C609 1.377 . S
C625 C623 1.389 . S
C625 C626 1.524 1_455 S
C626 C625 1.524 1_655 S
C626 C627 1.397 . S
C626 C631 1.363 . S
C627 H598 0.950 . S
C627 C626 1.397 . S
C627 C628 1.334 . S
C628 H599 0.950 . S
C628 C627 1.334 . S
C628 C629 1.287 . S
C629 C628 1.287 . S
C629 C630 1.524 . S
C629 H632 0.999 . S
C630 H600 0.950 . S
C630 C629 1.524 . S
C630 C631 1.415 . S
C631 H601 0.950 1_655 S
C631 C626 1.363 . S
C631 C630 1.415 . S
H632 C629 0.999 . S
H633 C614 0.913 . S
H634 C652 0.951 . S
H635 C654 0.951 . S
H636 C656 0.950 . S
H637 C657 0.950 . S
H638 C659 0.950 . S
H639 C662 0.950 . S
H640 C663 0.950 . S
H641 C665 0.950 . S
H642 C666 0.950 . S
H643 C667 0.951 . S
H644 C669 0.943 1_545 S
H645 C671 0.950 . S
H646 C672 0.950 . S
H647 C674 0.950 . S
H648 C677 0.950 . S
H649 C678 0.950 . S
H650 C680 0.950 . S
H651 C681 0.950 . S
C652 H634 0.951 . S
C652 C653 1.364 1_565 S
C652 C654 1.388 . S
C653 C652 1.364 1_545 S
C653 C657 1.386 . S
C654 H635 0.951 . S
C654 C652 1.388 . S
C654 C655 1.366 . S
C655 C654 1.366 . S
C655 C656 1.414 1_565 S
C655 C658 1.499 . S
C656 H636 0.950 . S
C656 C655 1.414 1_545 S
C656 C657 1.374 . S
C657 H637 0.950 . S
C657 C653 1.386 . S
C657 C656 1.374 . S
C658 C655 1.499 . S
C658 C659 1.373 1_565 S
C658 C660 1.389 . S
C659 H638 0.950 . S
C659 C658 1.373 1_545 S
C659 C675 1.377 . S
C660 C658 1.389 . S
C660 C661 1.524 . S
C660 C674 1.377 . S
C661 C660 1.524 . S
C661 C662 1.397 . S
C661 C666 1.363 . S
C662 H639 0.950 . S
C662 C661 1.397 . S
C662 C663 1.334 . S
C663 H640 0.950 . S
C663 C662 1.334 . S
C663 C664 1.287 . S
C664 C663 1.287 . S
C664 C665 1.524 . S
C664 H683 0.913 . S
C665 H641 0.950 . S
C665 C664 1.524 . S
C665 C666 1.415 . S
C666 H642 0.950 . S
C666 C661 1.363 . S
C666 C665 1.415 . S
C667 H643 0.951 . S
C667 C668 1.366 . S
C667 C669 1.388 . S
C668 C667 1.366 . S
C668 C672 1.385 . S
C669 H644 0.943 1_565 S
C669 C667 1.388 . S
C669 C670 1.366 . S
C670 C669 1.366 . S
C670 C671 1.414 . S
C670 C673 1.499 . S
C671 H645 0.950 . S
C671 C670 1.414 . S
C671 C672 1.374 . S
C672 H646 0.950 . S
C672 C668 1.385 . S
C672 C671 1.374 . S
C673 C670 1.499 . S
C673 C674 1.373 . S
C673 C675 1.389 1_565 S
C674 H647 0.950 . S
C674 C660 1.377 . S
C674 C673 1.373 . S
C675 C659 1.377 . S
C675 C673 1.389 1_545 S
C675 C676 1.524 . S
C676 C675 1.524 . S
C676 C677 1.397 . S
C676 C681 1.363 . S
C677 H648 0.950 . S
C677 C676 1.397 . S
C677 C678 1.334 . S
C678 H649 0.950 . S
C678 C677 1.334 . S
C678 C679 1.287 . S
C679 C678 1.287 . S
C679 C680 1.524 . S
C679 H682 0.999 . S
C680 H650 0.950 . S
C680 C679 1.524 . S
C680 C681 1.415 . S
C681 H651 0.950 . S
C681 C676 1.363 . S
C681 C680 1.415 . S
H682 C679 0.999 . S
H683 C664 0.913 . S
H684 C702 0.951 . S
H685 C704 0.951 . S
H686 C706 0.950 . S
H687 C707 0.950 . S
H688 C709 0.950 . S
H689 C712 0.950 . S
H690 C713 0.950 . S
H691 C715 0.950 . S
H692 C716 0.950 . S
H693 C717 0.951 . S
H694 C719 0.951 . S
H695 C721 0.950 . S
H696 C722 0.950 . S
H697 C724 0.950 . S
H698 C727 0.950 . S
H699 C728 0.950 . S
H700 C730 0.950 . S
H701 C731 0.950 . S
C702 H684 0.951 . S
C702 C703 1.366 . S
C702 C704 1.388 . S
C703 C702 1.366 . S
C703 C707 1.385 . S
C704 H685 0.951 . S
C704 C702 1.388 . S
C704 C705 1.366 . S
C705 C704 1.366 . S
C705 C706 1.414 . S
C705 C708 1.499 . S
C706 H686 0.950 . S
C706 C705 1.414 . S
C706 C707 1.374 . S
C707 H687 0.950 . S
C707 C703 1.385 . S
C707 C706 1.374 . S
C708 C705 1.499 . S
C708 C709 1.373 . S
C708 C710 1.389 . S
C709 H688 0.950 . S
C709 C708 1.373 . S
C709 C725 1.377 . S
C710 C708 1.389 . S
C710 C711 1.524 . S
C710 C724 1.377 . S
C711 C710 1.524 . S
C711 C712 1.397 . S
C711 C716 1.363 . S
C712 H689 0.950 . S
C712 C711 1.397 . S
C712 C713 1.334 . S
C713 H690 0.950 . S
C713 C712 1.334 . S
C713 C714 1.287 . S
C714 C713 1.287 . S
C714 C715 1.524 . S
C714 H733 0.913 . S
C715 H691 0.950 . S
C715 C714 1.524 . S
C715 C716 1.415 . S
C716 H692 0.950 . S
C716 C711 1.363 . S
C716 C715 1.415 . S
C717 H693 0.951 . S
C717 C718 1.366 . S
C717 C719 1.388 . S
C718 C717 1.366 . S
C718 C722 1.385 . S
C719 H694 0.951 . S
C719 C717 1.388 . S
C719 C720 1.366 . S
C720 C719 1.366 . S
C720 C721 1.414 . S
C720 C723 1.499 . S
C721 H695 0.950 . S
C721 C720 1.414 . S
C721 C722 1.374 . S
C722 H696 0.950 . S
C722 C718 1.385 . S
C722 C721 1.374 . S
C723 C720 1.499 . S
C723 C724 1.373 . S
C723 C725 1.389 . S
C724 H697 0.950 . S
C724 C710 1.377 . S
C724 C723 1.373 . S
C725 C709 1.377 . S
C725 C723 1.389 . S
C725 C726 1.524 . S
C726 C725 1.524 . S
C726 C727 1.397 . S
C726 C731 1.363 . S
C727 H698 0.950 . S
C727 C726 1.397 . S
C727 C728 1.334 . S
C728 H699 0.950 . S
C728 C727 1.334 . S
C728 C729 1.287 . S
C729 C728 1.287 . S
C729 C730 1.524 . S
C729 H732 0.999 . S
C730 H700 0.950 . S
C730 C729 1.524 . S
C730 C731 1.415 . S
C731 H701 0.950 . S
C731 C726 1.363 . S
C731 C730 1.415 . S
H732 C729 0.999 . S
H733 C714 0.913 . S
H734 C752 0.951 . S
H735 C754 0.951 . S
H736 C756 0.950 . S
H737 C757 0.950 . S
H738 C759 0.950 . S
H739 C762 0.950 . S
H740 C763 0.950 . S
H741 C765 0.950 . S
H742 C766 0.950 . S
H743 C767 0.951 . S
H744 C769 0.951 . S
H745 C771 0.950 . S
H746 C772 0.950 . S
H747 C774 0.950 . S
H748 C777 0.950 . S
H749 C778 0.950 . S
H750 C780 0.950 . S
H751 C781 0.950 . S
C752 H734 0.951 . S
C752 C753 1.366 . S
C752 C754 1.388 . S
C753 C752 1.366 . S
C753 C757 1.385 . S
C754 H735 0.951 . S
C754 C752 1.388 . S
C754 C755 1.366 . S
C755 C754 1.366 . S
C755 C756 1.414 . S
C755 C758 1.499 . S
C756 H736 0.950 . S
C756 C755 1.414 . S
C756 C757 1.374 . S
C757 H737 0.950 . S
C757 C753 1.385 . S
C757 C756 1.374 . S
C758 C755 1.499 . S
C758 C759 1.373 . S
C758 C760 1.389 . S
C759 H738 0.950 . S
C759 C758 1.373 . S
C759 C775 1.377 . S
C760 C758 1.389 . S
C760 C761 1.524 . S
C760 C774 1.377 . S
C761 C760 1.524 . S
C761 C762 1.397 . S
C761 C766 1.363 . S
C762 H739 0.950 . S
C762 C761 1.397 . S
C762 C763 1.334 . S
C763 H740 0.950 . S
C763 C762 1.334 . S
C763 C764 1.287 . S
C764 C763 1.287 . S
C764 C765 1.524 . S
C764 H783 0.913 . S
C765 H741 0.950 . S
C765 C764 1.524 . S
C765 C766 1.415 . S
C766 H742 0.950 . S
C766 C761 1.363 . S
C766 C765 1.415 . S
C767 H743 0.951 . S
C767 C768 1.366 . S
C767 C769 1.388 . S
C768 C767 1.366 . S
C768 C772 1.385 . S
C769 H744 0.951 . S
C769 C767 1.388 . S
C769 C770 1.366 . S
C770 C769 1.366 . S
C770 C771 1.414 . S
C770 C773 1.499 . S
C771 H745 0.950 . S
C771 C770 1.414 . S
C771 C772 1.374 . S
C772 H746 0.950 . S
C772 C768 1.385 . S
C772 C771 1.374 . S
C773 C770 1.499 . S
C773 C774 1.373 . S
C773 C775 1.389 . S
C774 H747 0.950 . S
C774 C760 1.377 . S
C774 C773 1.373 . S
C775 C759 1.377 . S
C775 C773 1.389 . S
C775 C776 1.524 . S
C776 C775 1.524 . S
C776 C777 1.397 . S
C776 C781 1.363 . S
C777 H748 0.950 . S
C777 C776 1.397 . S
C777 C778 1.334 . S
C778 H749 0.950 . S
C778 C777 1.334 . S
C778 C779 1.287 . S
C779 C778 1.287 . S
C779 C780 1.524 . S
C779 H782 0.999 . S
C780 H750 0.950 . S
C780 C779 1.524 . S
C780 C781 1.415 . S
C781 H751 0.950 . S
C781 C776 1.363 . S
C781 C780 1.415 . S
H782 C779 0.999 . S
H783 C764 0.913 . S
H784 C802 0.951 1_554 S
H785 C804 0.951 . S
H786 C806 0.950 . S
H787 C807 0.950 . S
H788 C809 0.950 1_455 S
H789 C812 0.950 . S
H790 C813 0.950 . S
H791 C815 0.950 . S
H792 C816 0.950 . S
H793 C817 0.951 . S
H794 C819 0.951 . S
H795 C821 0.950 . S
H796 C822 0.950 . S
H797 C824 0.950 . S
H798 C827 0.950 . S
H799 C828 0.950 . S
H800 C830 0.950 . S
H801 C831 0.950 . S
C802 H784 0.951 1_556 S
C802 C803 1.366 . S
C802 C804 1.388 . S
C803 C802 1.366 . S
C803 C807 1.385 . S
C804 H785 0.951 . S
C804 C802 1.388 . S
C804 C805 1.366 . S
C805 C804 1.366 . S
C805 C806 1.414 . S
C805 C808 1.499 . S
C806 H786 0.950 . S
C806 C805 1.414 . S
C806 C807 1.374 . S
C807 H787 0.950 . S
C807 C803 1.385 . S
C807 C806 1.374 . S
C808 C805 1.499 . S
C808 C809 1.373 . S
C808 C810 1.389 . S
C809 H788 0.950 1_655 S
C809 C808 1.373 . S
C809 C825 1.377 . S
C810 C808 1.389 . S
C810 C811 1.524 . S
C810 C824 1.377 . S
C811 C810 1.524 . S
C811 C812 1.397 . S
C811 C816 1.363 . S
C812 H789 0.950 . S
C812 C811 1.397 . S
C812 C813 1.334 . S
C813 H790 0.950 . S
C813 C812 1.334 . S
C813 C814 1.287 . S
C814 C813 1.287 . S
C814 C815 1.524 . S
C814 H833 0.913 . S
C815 H791 0.950 . S
C815 C814 1.524 . S
C815 C816 1.415 . S
C816 H792 0.950 . S
C816 C811 1.363 . S
C816 C815 1.415 . S
C817 H793 0.951 . S
C817 C818 1.353 1_455 S
C817 C819 1.388 . S
C818 C817 1.353 1_655 S
C818 C822 1.407 . S
C819 H794 0.951 . S
C819 C817 1.388 . S
C819 C820 1.366 1_455 S
C820 C819 1.366 1_655 S
C820 C821 1.414 . S
C820 C823 1.499 . S
C821 H795 0.950 . S
C821 C820 1.414 . S
C821 C822 1.374 . S
C822 H796 0.950 . S
C822 C818 1.407 . S
C822 C821 1.374 . S
C823 C820 1.499 . S
C823 C824 1.373 . S
C823 C825 1.389 . S
C824 H797 0.950 . S
C824 C810 1.377 . S
C824 C823 1.373 . S
C825 C809 1.377 . S
C825 C823 1.389 . S
C825 C826 1.524 1_655 S
C826 C825 1.524 1_455 S
C826 C827 1.397 . S
C826 C831 1.363 . S
C827 H798 0.950 . S
C827 C826 1.397 . S
C827 C828 1.334 . S
C828 H799 0.950 . S
C828 C827 1.334 . S
C828 C829 1.287 . S
C829 C828 1.287 . S
C829 C830 1.524 . S
C829 H832 0.999 . S
C830 H800 0.950 . S
C830 C829 1.524 . S
C830 C831 1.415 . S
C831 H801 0.950 . S
C831 C826 1.363 . S
C831 C830 1.415 . S
H832 C829 0.999 . S
H833 C814 0.913 . S
H834 C852 0.951 . S
H835 C854 0.951 . S
H836 C856 0.950 . S
H837 C857 0.950 . S
H838 C859 0.950 . S
H839 C862 0.950 . S
H840 C863 0.950 . S
H841 C865 0.950 1_554 S
H842 C866 0.950 . S
H843 C867 0.951 . S
H844 C869 0.951 . S
H845 C871 0.950 1_565 S
H846 C872 0.959 . S
H847 C874 0.950 . S
H848 C877 0.950 . S
H849 C878 0.950 . S
H850 C880 0.950 . S
H851 C881 0.950 . S
C852 H834 0.951 . S
C852 C853 1.366 1_564 S
C852 C854 1.388 1_554 S
C853 C852 1.366 1_546 S
C853 C857 1.384 . S
C854 H835 0.951 . S
C854 C852 1.388 1_556 S
C854 C855 1.366 1_565 S
C855 C854 1.366 1_545 S
C855 C856 1.414 . S
C855 C858 1.499 . S
C856 H836 0.950 . S
C856 C855 1.414 . S
C856 C857 1.374 . S
C857 H837 0.950 . S
C857 C853 1.384 . S
C857 C856 1.374 . S
C858 C855 1.499 . S
C858 C859 1.373 . S
C858 C860 1.389 1_545 S
C859 H838 0.950 . S
C859 C858 1.373 . S
C859 C875 1.377 . S
C860 C858 1.389 1_565 S
C860 C861 1.524 . S
C860 C874 1.377 . S
C861 C860 1.524 . S
C861 C862 1.397 . S
C861 C866 1.363 . S
C862 H839 0.950 . S
C862 C861 1.397 . S
C862 C863 1.334 . S
C863 H840 0.950 . S
C863 C862 1.334 . S
C863 C864 1.287 . S
C864 C863 1.287 . S
C864 C865 1.524 . S
C864 H883 0.913 . S
C865 H841 0.950 1_556 S
C865 C864 1.524 . S
C865 C866 1.415 . S
C866 H842 0.950 . S
C866 C861 1.363 . S
C866 C865 1.415 . S
C867 H843 0.951 . S
C867 C868 1.366 . S
C867 C869 1.388 . S
C868 C867 1.366 . S
C868 C872 1.385 . S
C869 H844 0.951 . S
C869 C867 1.388 . S
C869 C870 1.366 . S
C870 C869 1.366 . S
C870 C871 1.414 . S
C870 C873 1.499 . S
C871 H845 0.950 1_545 S
C871 C870 1.414 . S
C871 C872 1.374 . S
C872 H846 0.959 . S
C872 C868 1.385 . S
C872 C871 1.374 . S
C873 C870 1.499 . S
C873 C874 1.373 1_545 S
C873 C875 1.389 . S
C874 H847 0.950 . S
C874 C860 1.377 . S
C874 C873 1.373 1_565 S
C875 C859 1.377 . S
C875 C873 1.389 . S
C875 C876 1.524 . S
C876 C875 1.524 . S
C876 C877 1.397 . S
C876 C881 1.363 . S
C877 H848 0.950 . S
C877 C876 1.397 . S
C877 C878 1.334 . S
C878 H849 0.950 . S
C878 C877 1.334 . S
C878 C879 1.287 . S
C879 C878 1.287 . S
C879 C880 1.524 . S
C879 H882 0.999 . S
C880 H850 0.950 . S
C880 C879 1.524 . S
C880 C881 1.415 . S
C881 H851 0.950 . S
C881 C876 1.363 . S
C881 C880 1.415 . S
H882 C879 0.999 . S
H883 C864 0.913 . S
H884 C902 0.951 . S
H885 C904 0.951 . S
H886 C906 0.950 . S
H887 C907 0.950 1_554 S
H888 C909 0.950 . S
H889 C912 0.950 . S
H890 C913 0.950 . S
H891 C915 0.950 . S
H892 C916 0.950 . S
H893 C917 0.951 . S
H894 C919 0.951 . S
H895 C921 0.950 . S
H896 C922 0.950 . S
H897 C924 0.950 . S
H898 C927 0.950 . S
H899 C928 0.950 . S
H900 C930 0.950 . S
H901 C931 0.950 . S
C902 H884 0.951 . S
C902 C903 1.366 . S
C902 C904 1.388 . S
C903 C902 1.366 . S
C903 C907 1.385 . S
C904 H885 0.951 . S
C904 C902 1.388 . S
C904 C905 1.366 . S
C905 C904 1.366 . S
C905 C906 1.414 . S
C905 C908 1.499 . S
C906 H886 0.950 . S
C906 C905 1.414 . S
C906 C907 1.374 . S
C907 H887 0.950 1_556 S
C907 C903 1.385 . S
C907 C906 1.374 . S
C908 C905 1.499 . S
C908 C909 1.373 . S
C908 C910 1.389 . S
C909 H888 0.950 . S
C909 C908 1.373 . S
C909 C925 1.377 . S
C910 C908 1.389 . S
C910 C911 1.524 . S
C910 C924 1.377 . S
C911 C910 1.524 . S
C911 C912 1.397 . S
C911 C916 1.363 . S
C912 H889 0.950 . S
C912 C911 1.397 . S
C912 C913 1.334 . S
C913 H890 0.950 . S
C913 C912 1.334 . S
C913 C914 1.287 . S
C914 C913 1.287 . S
C914 C915 1.524 . S
C914 H933 0.913 . S
C915 H891 0.950 . S
C915 C914 1.524 . S
C915 C916 1.415 . S
C916 H892 0.950 . S
C916 C911 1.363 . S
C916 C915 1.415 . S
C917 H893 0.951 . S
C917 C918 1.366 . S
C917 C919 1.388 . S
C918 C917 1.366 . S
C918 C922 1.385 . S
C919 H894 0.951 . S
C919 C917 1.388 . S
C919 C920 1.366 . S
C920 C919 1.366 . S
C920 C921 1.414 . S
C920 C923 1.499 . S
C921 H895 0.950 . S
C921 C920 1.414 . S
C921 C922 1.374 . S
C922 H896 0.950 . S
C922 C918 1.385 . S
C922 C921 1.374 . S
C923 C920 1.499 . S
C923 C924 1.373 . S
C923 C925 1.389 . S
C924 H897 0.950 . S
C924 C910 1.377 . S
C924 C923 1.373 . S
C925 C909 1.377 . S
C925 C923 1.389 . S
C925 C926 1.524 . S
C926 C925 1.524 . S
C926 C927 1.397 . S
C926 C931 1.363 . S
C927 H898 0.950 . S
C927 C926 1.397 . S
C927 C928 1.334 . S
C928 H899 0.950 . S
C928 C927 1.334 . S
C928 C929 1.287 1_556 S
C929 C928 1.287 1_554 S
C929 C930 1.524 . S
C929 H932 0.999 . S
C930 H900 0.950 . S
C930 C929 1.524 . S
C930 C931 1.415 1_554 S
C931 H901 0.950 . S
C931 C926 1.363 . S
C931 C930 1.415 1_556 S
H932 C929 0.999 . S
H933 C914 0.913 . S
H934 C952 0.951 . S
H935 C954 0.951 . S
H936 C956 0.950 . S
H937 C957 0.950 . S
H938 C959 0.950 . S
H939 C962 0.950 . S
H940 C963 0.950 . S
H941 C965 0.950 . S
H942 C966 0.950 . S
H943 C967 0.951 . S
H944 C969 0.951 . S
H945 C971 0.950 . S
H946 C972 0.950 . S
H947 C974 0.950 . S
H948 C977 0.950 . S
H949 C978 0.950 . S
H950 C980 0.950 . S
H951 C981 0.950 . S
C952 H934 0.951 . S
C952 C953 1.366 1_554 S
C952 C954 1.388 1_554 S
C953 C952 1.366 1_556 S
C953 C957 1.385 . S
C954 H935 0.951 . S
C954 C952 1.388 1_556 S
C954 C955 1.366 . S
C955 C954 1.366 . S
C955 C956 1.414 . S
C955 C958 1.499 . S
C956 H936 0.950 . S
C956 C955 1.414 . S
C956 C957 1.374 . S
C957 H937 0.950 . S
C957 C953 1.385 . S
C957 C956 1.374 . S
C958 C955 1.499 . S
C958 C959 1.373 . S
C958 C960 1.389 . S
C959 H938 0.950 . S
C959 C958 1.373 . S
C959 C975 1.377 . S
C960 C958 1.389 . S
C960 C961 1.524 . S
C960 C974 1.377 . S
C961 C960 1.524 . S
C961 C962 1.397 . S
C961 C966 1.363 1_556 S
C962 H939 0.950 . S
C962 C961 1.397 . S
C962 C963 1.334 1_556 S
C963 H940 0.950 . S
C963 C962 1.334 1_554 S
C963 C964 1.287 . S
C964 C963 1.287 . S
C964 C965 1.524 . S
C964 H983 0.913 . S
C965 H941 0.950 . S
C965 C964 1.524 . S
C965 C966 1.415 . S
C966 H942 0.950 . S
C966 C961 1.363 1_554 S
C966 C965 1.415 . S
C967 H943 0.951 . S
C967 C968 1.366 . S
C967 C969 1.388 . S
C968 C967 1.366 . S
C968 C972 1.385 . S
C969 H944 0.951 . S
C969 C967 1.388 . S
C969 C970 1.366 . S
C970 C969 1.366 . S
C970 C971 1.414 . S
C970 C973 1.499 . S
C971 H945 0.950 . S
C971 C970 1.414 . S
C971 C972 1.374 . S
C972 H946 0.950 . S
C972 C968 1.385 . S
C972 C971 1.374 . S
C973 C970 1.499 . S
C973 C974 1.373 . S
C973 C975 1.389 . S
C974 H947 0.950 . S
C974 C960 1.377 . S
C974 C973 1.373 . S
C975 C959 1.377 . S
C975 C973 1.389 . S
C975 C976 1.524 . S
C976 C975 1.524 . S
C976 C977 1.397 . S
C976 C981 1.363 . S
C977 H948 0.950 . S
C977 C976 1.397 . S
C977 C978 1.334 . S
C978 H949 0.950 . S
C978 C977 1.334 . S
C978 C979 1.287 . S
C979 C978 1.287 . S
C979 C980 1.524 . S
C979 H982 0.999 . S
C980 H950 0.950 . S
C980 C979 1.524 . S
C980 C981 1.415 . S
C981 H951 0.950 . S
C981 C976 1.363 . S
C981 C980 1.415 . S
H982 C979 0.999 . S
H983 C964 0.913 . S
H984 C1002 0.951 . S
H985 C1004 0.951 . S
H986 C1006 0.950 . S
H987 C1007 0.950 . S
H988 C1009 0.950 . S
H989 C1012 0.950 . S
H990 C1013 0.950 . S
H991 C1015 0.950 1_655 S
H992 C1016 0.950 1_655 S
H993 C1017 0.951 . S
H994 C1019 0.951 . S
H995 C1021 0.950 1_655 S
H996 C1022 0.950 1_655 S
H997 C1024 0.950 . S
H998 C1027 0.950 . S
H999 C1028 0.950 . S
H1000 C1030 0.950 . S
H1001 C1031 0.950 . S
C1002 H984 0.951 . S
C1002 C1003 1.366 . S
C1002 C1004 1.388 . S
C1003 C1002 1.366 . S
C1003 C1007 1.385 . S
C1004 H985 0.951 . S
C1004 C1002 1.388 . S
C1004 C1005 1.366 1_554 S
C1005 C1004 1.366 1_556 S
C1005 C1006 1.414 . S
C1005 C1008 1.499 . S
C1006 H986 0.950 . S
C1006 C1005 1.414 . S
C1006 C1007 1.374 1_556 S
C1007 H987 0.950 . S
C1007 C1003 1.385 . S
C1007 C1006 1.374 1_554 S
C1008 C1005 1.499 . S
C1008 C1009 1.373 . S
C1008 C1010 1.389 . S
C1009 H988 0.950 . S
C1009 C1008 1.373 . S
C1009 C1025 1.377 . S
C1010 C1008 1.389 . S
C1010 C1011 1.524 1_556 S
C1010 C1024 1.377 . S
C1011 C1010 1.524 1_554 S
C1011 C1012 1.397 . S
C1011 C1016 1.363 . S
C1012 H989 0.950 . S
C1012 C1011 1.397 . S
C1012 C1013 1.334 . S
C1013 H990 0.950 . S
C1013 C1012 1.334 . S
C1013 C1014 1.287 . S
C1014 C1013 1.287 . S
C1014 C1015 1.524 . S
C1014 H1033 0.913 . S
C1015 H991 0.950 1_455 S
C1015 C1014 1.524 . S
C1015 C1016 1.415 . S
C1016 H992 0.950 1_455 S
C1016 C1011 1.363 . S
C1016 C1015 1.415 . S
C1017 H993 0.951 . S
C1017 C1018 1.366 . S
C1017 C1019 1.388 . S
C1018 C1017 1.366 . S
C1018 C1022 1.385 . S
C1019 H994 0.951 . S
C1019 C1017 1.388 . S
C1019 C1020 1.366 . S
C1020 C1019 1.366 . S
C1020 C1021 1.414 . S
C1020 C1023 1.499 . S
C1021 H995 0.950 1_455 S
C1021 C1020 1.414 . S
C1021 C1022 1.374 . S
C1022 H996 0.950 1_455 S
C1022 C1018 1.385 . S
C1022 C1021 1.374 . S
C1023 C1020 1.499 . S
C1023 C1024 1.373 . S
C1023 C1025 1.389 . S
C1024 H997 0.950 . S
C1024 C1010 1.377 . S
C1024 C1023 1.373 . S
C1025 C1009 1.377 . S
C1025 C1023 1.389 . S
C1025 C1026 1.524 . S
C1026 C1025 1.524 . S
C1026 C1027 1.397 . S
C1026 C1031 1.363 . S
C1027 H998 0.950 . S
C1027 C1026 1.397 . S
C1027 C1028 1.334 . S
C1028 H999 0.950 . S
C1028 C1027 1.334 . S
C1028 C1029 1.287 . S
C1029 C1028 1.287 . S
C1029 C1030 1.524 . S
C1029 H1032 0.999 . S
C1030 H1000 0.950 . S
C1030 C1029 1.524 . S
C1030 C1031 1.415 . S
C1031 H1001 0.950 . S
C1031 C1026 1.363 . S
C1031 C1030 1.415 . S
H1032 C1029 0.999 . S
H1033 C1014 0.913 . S
H1034 C1052 0.951 . S
H1035 C1054 0.951 . S
H1036 C1056 0.950 . S
H1037 C1057 0.950 . S
H1038 C1059 0.950 . S
H1039 C1062 0.950 . S
H1040 C1063 0.950 . S
H1041 C1065 0.950 . S
H1042 C1066 0.950 . S
H1043 C1067 0.949 1_565 S
H1044 C1069 0.942 1_565 S
H1045 C1071 0.950 . S
H1046 C1072 0.950 . S
H1047 C1074 0.950 . S
H1048 C1077 0.950 . S
H1049 C1078 0.950 . S
H1050 C1080 0.950 . S
H1051 C1081 0.950 . S
C1052 H1034 0.951 . S
C1052 C1053 1.372 . S
C1052 C1054 1.388 . S
C1053 C1052 1.372 . S
C1053 C1057 1.380 1_544 S
C1054 H1035 0.951 . S
C1054 C1052 1.388 . S
C1054 C1055 1.366 1_554 S
C1055 C1054 1.366 1_556 S
C1055 C1056 1.414 1_545 S
C1055 C1058 1.499 . S
C1056 H1036 0.950 . S
C1056 C1055 1.414 1_565 S
C1056 C1057 1.374 . S
C1057 H1037 0.950 . S
C1057 C1053 1.380 1_566 S
C1057 C1056 1.374 . S
C1058 C1055 1.499 . S
C1058 C1059 1.373 1_545 S
C1058 C1060 1.389 . S
C1059 H1038 0.950 . S
C1059 C1058 1.373 1_565 S
C1059 C1075 1.377 . S
C1060 C1058 1.389 . S
C1060 C1061 1.524 . S
C1060 C1074 1.377 . S
C1061 C1060 1.524 . S
C1061 C1062 1.397 . S
C1061 C1066 1.363 1_556 S
C1062 H1039 0.950 . S
C1062 C1061 1.397 . S
C1062 C1063 1.334 . S
C1063 H1040 0.950 . S
C1063 C1062 1.334 . S
C1063 C1064 1.287 1_556 S
C1064 C1063 1.287 1_554 S
C1064 C1065 1.524 . S
C1064 H1083 0.913 . S
C1065 H1041 0.950 . S
C1065 C1064 1.524 . S
C1065 C1066 1.415 . S
C1066 H1042 0.950 . S
C1066 C1061 1.363 1_554 S
C1066 C1065 1.415 . S
C1067 H1043 0.949 1_545 S
C1067 C1068 1.366 . S
C1067 C1069 1.391 . S
C1068 C1067 1.366 . S
C1068 C1072 1.385 . S
C1069 H1044 0.942 1_545 S
C1069 C1067 1.391 . S
C1069 C1070 1.374 . S
C1070 C1069 1.374 . S
C1070 C1071 1.414 . S
C1070 C1073 1.499 . S
C1071 H1045 0.950 . S
C1071 C1070 1.414 . S
C1071 C1072 1.374 . S
C1072 H1046 0.950 . S
C1072 C1068 1.385 . S
C1072 C1071 1.374 . S
C1073 C1070 1.499 . S
C1073 C1074 1.373 . S
C1073 C1075 1.389 1_545 S
C1074 H1047 0.950 . S
C1074 C1060 1.377 . S
C1074 C1073 1.373 . S
C1075 C1059 1.377 . S
C1075 C1073 1.389 1_565 S
C1075 C1076 1.524 . S
C1076 C1075 1.524 . S
C1076 C1077 1.397 . S
C1076 C1081 1.363 . S
C1077 H1048 0.950 . S
C1077 C1076 1.397 . S
C1077 C1078 1.334 . S
C1078 H1049 0.950 . S
C1078 C1077 1.334 . S
C1078 C1079 1.287 . S
C1079 C1078 1.287 . S
C1079 C1080 1.524 . S
C1079 H1082 0.999 . S
C1080 H1050 0.950 . S
C1080 C1079 1.524 . S
C1080 C1081 1.415 . S
C1081 H1051 0.950 . S
C1081 C1076 1.363 . S
C1081 C1080 1.415 . S
H1082 C1079 0.999 . S
H1083 C1064 0.913 . S
H1084 C1102 0.953 . S
H1085 C1104 0.951 . S
H1086 C1106 0.950 . S
H1087 C1107 0.950 . S
H1088 C1109 0.950 1_554 S
H1089 C1112 0.950 . S
H1090 C1113 0.950 . S
H1091 C1115 0.950 . S
H1092 C1116 0.950 . S
H1093 C1117 0.951 . S
H1094 C1119 0.951 . S
H1095 C1121 0.950 . S
H1096 C1122 0.950 . S
H1097 C1124 0.950 . S
H1098 C1127 0.950 . S
H1099 C1128 0.950 . S
H1100 C1130 0.950 . S
H1101 C1131 0.950 . S
C1102 H1084 0.953 . S
C1102 C1103 1.356 1_556 S
C1102 C1104 1.396 . S
C1103 C1102 1.356 1_554 S
C1103 C1107 1.385 . S
C1104 H1085 0.951 . S
C1104 C1102 1.396 . S
C1104 C1105 1.366 . S
C1105 C1104 1.366 . S
C1105 C1106 1.414 1_556 S
C1105 C1108 1.499 . S
C1106 H1086 0.950 . S
C1106 C1105 1.414 1_554 S
C1106 C1107 1.374 . S
C1107 H1087 0.950 . S
C1107 C1103 1.385 . S
C1107 C1106 1.374 . S
C1108 C1105 1.499 . S
C1108 C1109 1.373 . S
C1108 C1110 1.389 . S
C1109 H1088 0.950 1_556 S
C1109 C1108 1.373 . S
C1109 C1125 1.377 . S
C1110 C1108 1.389 . S
C1110 C1111 1.524 . S
C1110 C1124 1.377 . S
C1111 C1110 1.524 . S
C1111 C1112 1.397 . S
C1111 C1116 1.363 . S
C1112 H1089 0.950 . S
C1112 C1111 1.397 . S
C1112 C1113 1.334 . S
C1113 H1090 0.950 . S
C1113 C1112 1.334 . S
C1113 C1114 1.287 . S
C1114 C1113 1.287 . S
C1114 C1115 1.524 . S
C1114 H1133 0.913 . S
C1115 H1091 0.950 . S
C1115 C1114 1.524 . S
C1115 C1116 1.415 . S
C1116 H1092 0.950 . S
C1116 C1111 1.363 . S
C1116 C1115 1.415 . S
C1117 H1093 0.951 . S
C1117 C1118 1.366 . S
C1117 C1119 1.388 . S
C1118 C1117 1.366 . S
C1118 C1122 1.385 . S
C1119 H1094 0.951 . S
C1119 C1117 1.388 . S
C1119 C1120 1.366 . S
C1120 C1119 1.366 . S
C1120 C1121 1.414 . S
C1120 C1123 1.499 . S
C1121 H1095 0.950 . S
C1121 C1120 1.414 . S
C1121 C1122 1.374 . S
C1122 H1096 0.950 . S
C1122 C1118 1.385 . S
C1122 C1121 1.374 . S
C1123 C1120 1.499 . S
C1123 C1124 1.373 . S
C1123 C1125 1.389 . S
C1124 H1097 0.950 . S
C1124 C1110 1.377 . S
C1124 C1123 1.373 . S
C1125 C1109 1.377 . S
C1125 C1123 1.389 . S
C1125 C1126 1.524 . S
C1126 C1125 1.524 . S
C1126 C1127 1.397 . S
C1126 C1131 1.363 1_556 S
C1127 H1098 0.950 . S
C1127 C1126 1.397 . S
C1127 C1128 1.334 1_556 S
C1128 H1099 0.950 . S
C1128 C1127 1.334 1_554 S
C1128 C1129 1.287 . S
C1129 C1128 1.287 . S
C1129 C1130 1.524 . S
C1129 H1132 0.999 . S
C1130 H1100 0.950 . S
C1130 C1129 1.524 . S
C1130 C1131 1.415 . S
C1131 H1101 0.950 . S
C1131 C1126 1.363 1_554 S
C1131 C1130 1.415 . S
H1132 C1129 0.999 . S
H1133 C1114 0.913 . S
H1134 C1152 0.951 . S
H1135 C1154 0.951 . S
H1136 C1156 0.950 . S
H1137 C1157 0.950 . S
H1138 C1159 0.950 . S
H1139 C1162 0.950 1_556 S
H1140 C1163 0.950 . S
H1141 C1165 0.950 . S
H1142 C1166 0.950 . S
H1143 C1167 0.951 . S
H1144 C1169 0.951 . S
H1145 C1171 0.950 . S
H1146 C1172 0.950 . S
H1147 C1174 0.950 . S
H1148 C1177 0.950 . S
H1149 C1178 0.950 . S
H1150 C1180 0.950 . S
H1151 C1181 0.950 . S
C1152 H1134 0.951 . S
C1152 C1153 1.366 . S
C1152 C1154 1.388 . S
C1153 C1152 1.366 . S
C1153 C1157 1.385 1_554 S
C1154 H1135 0.951 . S
C1154 C1152 1.388 . S
C1154 C1155 1.366 1_554 S
C1155 C1154 1.366 1_556 S
C1155 C1156 1.414 . S
C1155 C1158 1.499 . S
C1156 H1136 0.950 . S
C1156 C1155 1.414 . S
C1156 C1157 1.374 . S
C1157 H1137 0.950 . S
C1157 C1153 1.385 1_556 S
C1157 C1156 1.374 . S
C1158 C1155 1.499 . S
C1158 C1159 1.373 . S
C1158 C1160 1.389 . S
C1159 H1138 0.950 . S
C1159 C1158 1.373 . S
C1159 C1175 1.377 . S
C1160 C1158 1.389 . S
C1160 C1161 1.524 1_556 S
C1160 C1174 1.377 . S
C1161 C1160 1.524 1_554 S
C1161 C1162 1.397 . S
C1161 C1166 1.363 . S
C1162 H1139 0.950 1_554 S
C1162 C1161 1.397 . S
C1162 C1163 1.334 . S
C1163 H1140 0.950 . S
C1163 C1162 1.334 . S
C1163 C1164 1.287 . S
C1164 C1163 1.287 . S
C1164 C1165 1.524 . S
C1164 H1183 0.913 . S
C1165 H1141 0.950 . S
C1165 C1164 1.524 . S
C1165 C1166 1.415 . S
C1166 H1142 0.950 . S
C1166 C1161 1.363 . S
C1166 C1165 1.415 . S
C1167 H1143 0.951 . S
C1167 C1168 1.366 . S
C1167 C1169 1.388 . S
C1168 C1167 1.366 . S
C1168 C1172 1.385 . S
C1169 H1144 0.951 . S
C1169 C1167 1.388 . S
C1169 C1170 1.366 . S
C1170 C1169 1.366 . S
C1170 C1171 1.414 . S
C1170 C1173 1.499 . S
C1171 H1145 0.950 . S
C1171 C1170 1.414 . S
C1171 C1172 1.374 . S
C1172 H1146 0.950 . S
C1172 C1168 1.385 . S
C1172 C1171 1.374 . S
C1173 C1170 1.499 . S
C1173 C1174 1.373 . S
C1173 C1175 1.389 . S
C1174 H1147 0.950 . S
C1174 C1160 1.377 . S
C1174 C1173 1.373 . S
C1175 C1159 1.377 . S
C1175 C1173 1.389 . S
C1175 C1176 1.524 . S
C1176 C1175 1.524 . S
C1176 C1177 1.397 . S
C1176 C1181 1.363 . S
C1177 H1148 0.950 . S
C1177 C1176 1.397 . S
C1177 C1178 1.334 . S
C1178 H1149 0.950 . S
C1178 C1177 1.334 . S
C1178 C1179 1.287 . S
C1179 C1178 1.287 . S
C1179 C1180 1.524 . S
C1179 H1182 0.999 . S
C1180 H1150 0.950 . S
C1180 C1179 1.524 . S
C1180 C1181 1.415 . S
C1181 H1151 0.950 . S
C1181 C1176 1.363 . S
C1181 C1180 1.415 . S
H1182 C1179 0.999 . S
H1183 C1164 0.913 . S
H1184 C1202 0.951 . S
H1185 C1204 0.951 . S
H1186 C1206 0.950 . S
H1187 C1207 0.950 . S
H1188 C1209 0.950 . S
H1189 C1212 0.950 . S
H1190 C1213 0.950 . S
H1191 C1215 0.950 . S
H1192 C1216 0.950 . S
H1193 C1217 0.951 1_455 S
H1194 C1219 0.951 1_455 S
H1195 C1221 0.950 . S
H1196 C1222 0.950 . S
H1197 C1224 0.950 . S
H1198 C1227 0.950 1_655 S
H1199 C1228 0.950 . S
H1200 C1230 0.950 . S
H1201 C1231 0.950 . S
C1202 H1184 0.951 . S
C1202 C1203 1.366 . S
C1202 C1204 1.388 . S
C1203 C1202 1.366 . S
C1203 C1207 1.385 . S
C1204 H1185 0.951 . S
C1204 C1202 1.388 . S
C1204 C1205 1.366 . S
C1205 C1204 1.366 . S
C1205 C1206 1.414 . S
C1205 C1208 1.499 . S
C1206 H1186 0.950 . S
C1206 C1205 1.414 . S
C1206 C1207 1.374 . S
C1207 H1187 0.950 . S
C1207 C1203 1.385 . S
C1207 C1206 1.374 . S
C1208 C1205 1.499 . S
C1208 C1209 1.373 . S
C1208 C1210 1.389 . S
C1209 H1188 0.950 . S
C1209 C1208 1.373 . S
C1209 C1225 1.377 . S
C1210 C1208 1.389 . S
C1210 C1211 1.524 . S
C1210 C1224 1.377 . S
C1211 C1210 1.524 . S
C1211 C1212 1.397 . S
C1211 C1216 1.363 . S
C1212 H1189 0.950 . S
C1212 C1211 1.397 . S
C1212 C1213 1.334 . S
C1213 H1190 0.950 . S
C1213 C1212 1.334 . S
C1213 C1214 1.287 . S
C1214 C1213 1.287 . S
C1214 C1215 1.524 . S
C1214 H1233 0.913 . S
C1215 H1191 0.950 . S
C1215 C1214 1.524 . S
C1215 C1216 1.415 . S
C1216 H1192 0.950 . S
C1216 C1211 1.363 . S
C1216 C1215 1.415 . S
C1217 H1193 0.951 1_655 S
C1217 C1218 1.366 . S
C1217 C1219 1.388 . S
C1218 C1217 1.366 . S
C1218 C1222 1.385 . S
C1219 H1194 0.951 1_655 S
C1219 C1217 1.388 . S
C1219 C1220 1.366 . S
C1220 C1219 1.366 . S
C1220 C1221 1.414 . S
C1220 C1223 1.499 . S
C1221 H1195 0.950 . S
C1221 C1220 1.414 . S
C1221 C1222 1.374 . S
C1222 H1196 0.950 . S
C1222 C1218 1.385 . S
C1222 C1221 1.374 . S
C1223 C1220 1.499 . S
C1223 C1224 1.373 . S
C1223 C1225 1.389 . S
C1224 H1197 0.950 . S
C1224 C1210 1.377 . S
C1224 C1223 1.373 . S
C1225 C1209 1.377 . S
C1225 C1223 1.389 . S
C1225 C1226 1.524 1_655 S
C1226 C1225 1.524 1_455 S
C1226 C1227 1.397 . S
C1226 C1231 1.363 . S
C1227 H1198 0.950 1_455 S
C1227 C1226 1.397 . S
C1227 C1228 1.334 . S
C1228 H1199 0.950 . S
C1228 C1227 1.334 . S
C1228 C1229 1.287 . S
C1229 C1228 1.287 . S
C1229 C1230 1.524 . S
C1229 H1232 0.999 . S
C1230 H1200 0.950 . S
C1230 C1229 1.524 . S
C1230 C1231 1.415 . S
C1231 H1201 0.950 . S
C1231 C1226 1.363 . S
C1231 C1230 1.415 . S
H1232 C1229 0.999 . S
H1233 C1214 0.913 . S
H1234 C1252 0.951 . S
H1235 C1254 0.951 . S
H1236 C1256 0.950 . S
H1237 C1257 0.950 . S
H1238 C1259 0.950 . S
H1239 C1262 0.950 . S
H1240 C1263 0.950 . S
H1241 C1265 0.950 . S
H1242 C1266 0.950 . S
H1243 C1267 0.951 . S
H1244 C1269 0.951 . S
H1245 C1271 0.950 . S
H1246 C1272 0.950 . S
H1247 C1274 0.950 . S
H1248 C1277 0.950 . S
H1249 C1278 0.950 . S
H1250 C1280 0.950 . S
H1251 C1281 0.950 . S
C1252 H1234 0.951 . S
C1252 C1253 1.378 . S
C1252 C1254 1.388 . S
C1253 C1252 1.378 . S
C1253 C1257 1.373 1_565 S
C1254 H1235 0.951 . S
C1254 C1252 1.388 . S
C1254 C1255 1.366 . S
C1255 C1254 1.366 . S
C1255 C1256 1.414 1_565 S
C1255 C1258 1.499 . S
C1256 H1236 0.950 . S
C1256 C1255 1.414 1_545 S
C1256 C1257 1.374 . S
C1257 H1237 0.950 . S
C1257 C1253 1.373 1_545 S
C1257 C1256 1.374 . S
C1258 C1255 1.499 . S
C1258 C1259 1.373 1_565 S
C1258 C1260 1.389 . S
C1259 H1238 0.950 . S
C1259 C1258 1.373 1_545 S
C1259 C1275 1.379 . S
C1260 C1258 1.389 . S
C1260 C1261 1.524 . S
C1260 C1274 1.377 . S
C1261 C1260 1.524 . S
C1261 C1262 1.397 1_565 S
C1261 C1266 1.363 . S
C1262 H1239 0.950 . S
C1262 C1261 1.397 1_545 S
C1262 C1263 1.334 . S
C1263 H1240 0.950 . S
C1263 C1262 1.334 . S
C1263 C1264 1.287 1_545 S
C1264 C1263 1.287 1_565 S
C1264 C1265 1.524 . S
C1264 H1283 0.915 . S
C1265 H1241 0.950 . S
C1265 C1264 1.524 . S
C1265 C1266 1.415 . S
C1266 H1242 0.950 . S
C1266 C1261 1.363 . S
C1266 C1265 1.415 . S
C1267 H1243 0.951 . S
C1267 C1268 1.366 1_545 S
C1267 C1269 1.388 . S
C1268 C1267 1.366 1_565 S
C1268 C1272 1.385 . S
C1269 H1244 0.951 . S
C1269 C1267 1.388 . S
C1269 C1270 1.366 1_545 S
C1270 C1269 1.366 1_565 S
C1270 C1271 1.414 . S
C1270 C1273 1.499 . S
C1271 H1245 0.950 . S
C1271 C1270 1.414 . S
C1271 C1272 1.374 . S
C1272 H1246 0.950 . S
C1272 C1268 1.385 . S
C1272 C1271 1.374 . S
C1273 C1270 1.499 . S
C1273 C1274 1.373 . S
C1273 C1275 1.383 1_565 S
C1274 H1247 0.950 . S
C1274 C1260 1.377 . S
C1274 C1273 1.373 . S
C1275 C1259 1.379 . S
C1275 C1273 1.383 1_545 S
C1275 C1276 1.528 . S
C1276 C1275 1.528 . S
C1276 C1277 1.397 1_545 S
C1276 C1281 1.363 . S
C1277 H1248 0.950 . S
C1277 C1276 1.397 1_565 S
C1277 C1278 1.334 . S
C1278 H1249 0.950 . S
C1278 C1277 1.334 . S
C1278 C1279 1.287 1_565 S
C1279 C1278 1.287 1_545 S
C1279 C1280 1.524 . S
C1279 H1282 0.999 . S
C1280 H1250 0.950 . S
C1280 C1279 1.524 . S
C1280 C1281 1.415 . S
C1281 H1251 0.950 . S
C1281 C1276 1.363 . S
C1281 C1280 1.415 . S
H1282 C1279 0.999 . S
H1283 C1264 0.915 . S
H1284 C1302 0.951 . S
H1285 C1304 0.951 . S
H1286 C1306 0.950 . S
H1287 C1307 0.950 . S
H1288 C1309 0.950 . S
H1289 C1312 0.950 . S
H1290 C1313 0.950 . S
H1291 C1315 0.950 . S
H1292 C1316 0.950 . S
H1293 C1317 0.951 . S
H1294 C1319 0.951 . S
H1295 C1321 0.950 . S
H1296 C1322 0.950 . S
H1297 C1324 0.950 . S
H1298 C1327 0.950 . S
H1299 C1328 0.950 . S
H1300 C1330 0.950 . S
H1301 C1331 0.950 . S
C1302 H1284 0.951 . S
C1302 C1303 1.366 . S
C1302 C1304 1.388 . S
C1303 C1302 1.366 . S
C1303 C1307 1.385 . S
C1304 H1285 0.951 . S
C1304 C1302 1.388 . S
C1304 C1305 1.366 . S
C1305 C1304 1.366 . S
C1305 C1306 1.414 . S
C1305 C1308 1.499 . S
C1306 H1286 0.950 . S
C1306 C1305 1.414 . S
C1306 C1307 1.374 . S
C1307 H1287 0.950 . S
C1307 C1303 1.385 . S
C1307 C1306 1.374 . S
C1308 C1305 1.499 . S
C1308 C1309 1.373 . S
C1308 C1310 1.389 . S
C1309 H1288 0.950 . S
C1309 C1308 1.373 . S
C1309 C1325 1.377 . S
C1310 C1308 1.389 . S
C1310 C1311 1.524 . S
C1310 C1324 1.377 . S
C1311 C1310 1.524 . S
C1311 C1312 1.397 . S
C1311 C1316 1.363 . S
C1312 H1289 0.950 . S
C1312 C1311 1.397 . S
C1312 C1313 1.334 . S
C1313 H1290 0.950 . S
C1313 C1312 1.334 . S
C1313 C1314 1.287 . S
C1314 C1313 1.287 . S
C1314 C1315 1.524 . S
C1314 H1333 0.913 . S
C1315 H1291 0.950 . S
C1315 C1314 1.524 . S
C1315 C1316 1.415 . S
C1316 H1292 0.950 . S
C1316 C1311 1.363 . S
C1316 C1315 1.415 . S
C1317 H1293 0.951 . S
C1317 C1318 1.366 . S
C1317 C1319 1.388 . S
C1318 C1317 1.366 . S
C1318 C1322 1.385 . S
C1319 H1294 0.951 . S
C1319 C1317 1.388 . S
C1319 C1320 1.366 . S
C1320 C1319 1.366 . S
C1320 C1321 1.414 . S
C1320 C1323 1.499 . S
C1321 H1295 0.950 . S
C1321 C1320 1.414 . S
C1321 C1322 1.374 . S
C1322 H1296 0.950 . S
C1322 C1318 1.385 . S
C1322 C1321 1.374 . S
C1323 C1320 1.499 . S
C1323 C1324 1.373 . S
C1323 C1325 1.389 . S
C1324 H1297 0.950 . S
C1324 C1310 1.377 . S
C1324 C1323 1.373 . S
C1325 C1309 1.377 . S
C1325 C1323 1.389 . S
C1325 C1326 1.524 . S
C1326 C1325 1.524 . S
C1326 C1327 1.397 . S
C1326 C1331 1.363 . S
C1327 H1298 0.950 . S
C1327 C1326 1.397 . S
C1327 C1328 1.334 . S
C1328 H1299 0.950 . S
C1328 C1327 1.334 . S
C1328 C1329 1.287 . S
C1329 C1328 1.287 . S
C1329 C1330 1.524 . S
C1329 H1332 0.999 . S
C1330 H1300 0.950 . S
C1330 C1329 1.524 . S
C1330 C1331 1.415 . S
C1331 H1301 0.950 . S
C1331 C1326 1.363 . S
C1331 C1330 1.415 . S
H1332 C1329 0.999 . S
H1333 C1314 0.913 . S
H1334 C1352 0.951 . S
H1335 C1354 0.951 . S
H1336 C1356 0.950 . S
H1337 C1357 0.950 . S
H1338 C1359 0.950 . S
H1339 C1362 0.950 . S
H1340 C1363 0.950 . S
H1341 C1365 0.950 . S
H1342 C1366 0.950 . S
H1343 C1367 0.951 . S
H1344 C1369 0.951 . S
H1345 C1371 0.950 . S
H1346 C1372 0.950 . S
H1347 C1374 0.950 . S
H1348 C1377 0.950 . S
H1349 C1378 0.950 . S
H1350 C1380 0.950 . S
H1351 C1381 0.950 . S
C1352 H1334 0.951 . S
C1352 C1353 1.366 . S
C1352 C1354 1.388 . S
C1353 C1352 1.366 . S
C1353 C1357 1.385 . S
C1354 H1335 0.951 . S
C1354 C1352 1.388 . S
C1354 C1355 1.366 . S
C1355 C1354 1.366 . S
C1355 C1356 1.414 . S
C1355 C1358 1.499 . S
C1356 H1336 0.950 . S
C1356 C1355 1.414 . S
C1356 C1357 1.374 . S
C1357 H1337 0.950 . S
C1357 C1353 1.385 . S
C1357 C1356 1.374 . S
C1358 C1355 1.499 . S
C1358 C1359 1.373 . S
C1358 C1360 1.389 . S
C1359 H1338 0.950 . S
C1359 C1358 1.373 . S
C1359 C1375 1.377 . S
C1360 C1358 1.389 . S
C1360 C1361 1.524 . S
C1360 C1374 1.377 . S
C1361 C1360 1.524 . S
C1361 C1362 1.397 . S
C1361 C1366 1.363 . S
C1362 H1339 0.950 . S
C1362 C1361 1.397 . S
C1362 C1363 1.334 . S
C1363 H1340 0.950 . S
C1363 C1362 1.334 . S
C1363 C1364 1.287 . S
C1364 C1363 1.287 . S
C1364 C1365 1.524 . S
C1364 H1383 0.913 . S
C1365 H1341 0.950 . S
C1365 C1364 1.524 . S
C1365 C1366 1.415 . S
C1366 H1342 0.950 . S
C1366 C1361 1.363 . S
C1366 C1365 1.415 . S
C1367 H1343 0.951 . S
C1367 C1368 1.366 . S
C1367 C1369 1.388 . S
C1368 C1367 1.366 . S
C1368 C1372 1.385 . S
C1369 H1344 0.951 . S
C1369 C1367 1.388 . S
C1369 C1370 1.366 . S
C1370 C1369 1.366 . S
C1370 C1371 1.414 . S
C1370 C1373 1.499 . S
C1371 H1345 0.950 . S
C1371 C1370 1.414 . S
C1371 C1372 1.374 . S
C1372 H1346 0.950 . S
C1372 C1368 1.385 . S
C1372 C1371 1.374 . S
C1373 C1370 1.499 . S
C1373 C1374 1.373 . S
C1373 C1375 1.389 . S
C1374 H1347 0.950 . S
C1374 C1360 1.377 . S
C1374 C1373 1.373 . S
C1375 C1359 1.377 . S
C1375 C1373 1.389 . S
C1375 C1376 1.524 . S
C1376 C1375 1.524 . S
C1376 C1377 1.397 . S
C1376 C1381 1.363 . S
C1377 H1348 0.950 . S
C1377 C1376 1.397 . S
C1377 C1378 1.334 . S
C1378 H1349 0.950 . S
C1378 C1377 1.334 . S
C1378 C1379 1.287 . S
C1379 C1378 1.287 . S
C1379 C1380 1.524 . S
C1379 H1382 0.999 . S
C1380 H1350 0.950 . S
C1380 C1379 1.524 . S
C1380 C1381 1.415 . S
C1381 H1351 0.950 . S
C1381 C1376 1.363 . S
C1381 C1380 1.415 . S
H1382 C1379 0.999 . S
H1383 C1364 0.913 . S
C203 C82 1.356 . S
C218 C122 1.439 . S
C268 C142 1.530 . S
C253 C95 1.449 . S
C318 C162 1.435 . S
C303 C56 1.352 . S
C368 C182 1.528 . S
C353 C69 1.455 . S
C418 C123 1.439 . S
C403 C30 1.353 . S
C453 C43 1.410 . S
C468 C143 1.537 . S
C503 C4 1.354 . S
C518 C163 1.436 . S
C553 C17 1.408 . S
C568 C183 1.522 1_655 S
C618 C113 0.694 . S
C603 C74 0.686 . S
C668 C133 0.686 . S
C653 C87 0.678 . S
C718 C153 0.702 . S
C703 C100 0.698 . S
C753 C61 0.684 . S
C768 C173 0.691 . S
C803 C22 0.690 . S
C818 C116 0.709 . S
C868 C136 0.683 . S
C853 C35 0.678 . S
C918 C156 0.703 . S
C903 C48 0.698 . S
C953 C9 0.692 . S
C968 C176 0.690 . S
C1003 C73 1.549 . S
C1018 C106 1.495 . S
C1053 C86 1.488 . S
C1068 C126 1.438 . S
C1118 C146 1.488 . S
C1103 C99 1.539 . S
C1168 C166 1.429 . S
C1153 C60 1.479 . S
C1203 C21 1.545 . S
C1218 C108 1.501 . S
C1268 C128 1.438 . S
C1253 C34 1.488 1_565 S
C1318 C148 1.489 . S
C1303 C47 1.536 . S
C1353 C8 1.480 . S
C1368 C168 1.429 . S
