# Generated by pormake.
# Topology zzz, (3,6)-cn, num edge types: 1
# Building blocks:
#     Node 0, Type 0, BuildingBlock: QEWDON_clean_linker_0, # of connection points: 3
#     Node 1, Type 0, BuildingBlock: QEWDON_clean_linker_0, # of connection points: 3
#     Node 2, Type 0, BuildingBlock: QEWDON_clean_linker_0, # of connection points: 3
#     Node 3, Type 0, BuildingBlock: QEWDON_clean_linker_0, # of connection points: 3
#     Node 4, Type 0, BuildingBlock: QEWDON_clean_linker_0, # of connection points: 3
#     Node 5, Type 0, BuildingBlock: QEWDON_clean_linker_0, # of connection points: 3
#     Node 6, Type 0, BuildingBlock: QEWDON_clean_linker_0, # of connection points: 3
#     Node 7, Type 0, BuildingBlock: QEWDON_clean_linker_0, # of connection points: 3
#     Node 8, Type 1, BuildingBlock: NUHQIS_clean_sbu_0, # of connection points: 6
#     Node 9, Type 1, BuildingBlock: NUHQIS_clean_sbu_0, # of connection points: 6
#     Node 10, Type 1, BuildingBlock: NUHQIS_clean_sbu_0, # of connection points: 6
#     Node 11, Type 1, BuildingBlock: NUHQIS_clean_sbu_0, # of connection points: 6
#     Edge 12, Type (0, 1), None
#     Edge 13, Type (0, 1), None
#     Edge 14, Type (0, 1), None
#     Edge 15, Type (0, 1), None
#     Edge 16, Type (0, 1), None
#     Edge 17, Type (0, 1), None
#     Edge 18, Type (0, 1), None
#     Edge 19, Type (0, 1), None
#     Edge 20, Type (0, 1), None
#     Edge 21, Type (0, 1), None
#     Edge 22, Type (0, 1), None
#     Edge 23, Type (0, 1), None
#     Edge 24, Type (0, 1), None
#     Edge 25, Type (0, 1), None
#     Edge 26, Type (0, 1), None
#     Edge 27, Type (0, 1), None
#     Edge 28, Type (0, 1), None
#     Edge 29, Type (0, 1), None
#     Edge 30, Type (0, 1), None
#     Edge 31, Type (0, 1), None
#     Edge 32, Type (0, 1), None
#     Edge 33, Type (0, 1), None
#     Edge 34, Type (0, 1), None
#     Edge 35, Type (0, 1), None
# Relax obj value: 0.421
# Max RMSD: 0.191
# Mean RMSD: 0.090
data_MOF--net-zzz--node1-NUHQIS_clean_sbu_0--node2-QEWDON_clean_linker_0--edge1-none
_symmetry_space_group_name_H-M    P1
_symmetry_Int_Tables_number       1
_symmetry_cell_setting            triclinic
loop_
_symmetry_equiv_pos_as_xyz
'x, y, z'
_cell_length_a     26.59003
_cell_length_b     26.559738
_cell_length_c     8.6311189
_cell_angle_alpha  89.922284
_cell_angle_beta   89.594242
_cell_angle_gamma 89.994034
loop_
_atom_site_label
_atom_site_type_symbol
_atom_site_fract_x
_atom_site_fract_y
_atom_site_fract_z
_atom_type_partial_charge
H0 H 0.73044 0.51997 0.52416 0.0
C1 C 0.76849 0.52471 0.5655 0.0
C2 C 0.80942 0.51008 0.47001 0.0
C3 C 0.77807 0.54607 0.71417 0.0
H4 H 0.89031 0.50607 0.45128 0.0
C5 C 0.85838 0.51766 0.52175 0.0
C6 C 0.86764 0.53674 0.66626 0.0
C7 C 0.82827 0.55005 0.7638 0.0
C8 C 0.73762 0.56417 0.82183 0.0
H9 H 0.83717 0.56297 0.87915 0.0
C10 C 0.69014 0.54095 0.82893 0.0
C11 C 0.65295 0.55837 -0.06649 0.0
C12 C 0.74722 0.60487 -0.07723 0.0
H13 H 0.7823 0.62547 0.91766 0.0
C14 C 0.71165 0.62009 0.03211 0.0
H15 H 0.68171 0.51028 0.75082 0.0
C16 C 0.66479 0.59703 0.03799 0.0
H17 H 0.63707 0.61107 0.11979 0.0
H18 H 0.71997 0.65091 0.1098 0.0
H19 H 0.04359 0.73512 0.54629 0.0
C20 C 0.03989 0.77296 0.59139 0.0
C21 C 0.05609 0.81418 0.50004 0.0
C22 C 1.01804 0.78194 0.74038 0.0
H23 H 0.06163 0.89512 0.48744 0.0
C24 C 0.04937 0.86296 0.55558 0.0
C25 C 1.0293 0.87185 0.69958 0.0
C26 C 1.01474 0.83203 0.7941 0.0
C27 C 0.99789 0.74081 0.84213 0.0
H28 H 1.00097 0.84046 0.90941 0.0
C29 C 1.01943 0.69237 0.84387 0.0
C30 C 0.99956 0.65429 -0.05895 0.0
C31 C 0.95646 0.7504 -0.05881 0.0
H32 H 0.9372 0.78629 -0.05991 0.0
C33 C 0.93853 0.71365 0.04267 0.0
H34 H 0.0508 0.68398 0.76757 0.0
C35 C 0.95987 0.66588 0.04299 0.0
H36 H 0.94399 0.63746 0.11906 0.0
H37 H 0.90705 0.7219 0.1187 0.0
H38 H 0.8264 1.03261 0.56377 0.0
C39 C 0.78872 1.02545 0.60662 0.0
C40 C 0.7471 0.03979 0.51583 0.0
C41 C 0.78056 1.00119 0.75203 0.0
H42 H 0.6665 0.04201 0.5006 0.0
C43 C 0.69849 1.03048 0.56988 0.0
C44 C 0.68993 1.00788 0.71187 0.0
C45 C 0.73047 0.99268 0.80178 0.0
C46 C 0.8227 0.98511 0.85603 0.0
H47 H 0.72247 0.97638 0.91422 0.0
C48 C 0.86885 1.01144 0.86201 0.0
C49 C 0.9073 0.99587 -0.03594 0.0
C50 C 0.81615 0.94309 -0.04534 0.0
H51 H 0.78263 0.92008 -0.0499 0.0
C52 C 0.8529 0.92945 0.06078 0.0
H53 H 0.87529 0.04319 0.78572 0.0
C54 C 0.89806 0.95566 0.06616 0.0
H55 H 0.92665 0.94298 0.14612 0.0
H56 H 0.84682 0.89751 0.1367 0.0
H57 H 0.53256 0.83145 0.54648 0.0
C58 C 0.54116 0.79366 0.58511 0.0
C59 C 0.52918 0.75243 0.48876 0.0
C60 C 0.5646 0.78492 0.73091 0.0
H61 H 0.52931 0.67183 0.46628 0.0
C62 C 0.53972 0.70365 0.53833 0.0
C63 C 0.56086 0.69458 0.68143 0.0
C64 C 0.5744 0.73468 0.77555 0.0
C65 C 0.57726 0.82628 0.84265 0.0
H66 H 0.5897 0.72604 0.88822 0.0
C67 C 0.5492 0.87134 0.85044 0.0
C68 C 0.56116 0.90901 -0.04009 0.0
C69 C 0.61732 0.81993 -0.05231 0.0
H70 H 0.64182 0.78746 -0.05767 0.0
C71 C 0.62695 0.85549 0.06202 0.0
H72 H 0.51904 0.87777 0.76924 0.0
C73 C 0.59901 0.89963 0.0689 0.0
H74 H 0.60892 0.9276 0.15472 0.0
H75 H 0.65729 0.84945 0.14292 0.0
H76 H 0.27477 0.61062 -0.04777 0.0
C77 C 0.24682 0.58151 -0.06567 0.0
C78 C 0.21162 0.5709 0.05006 0.0
C79 C 0.24392 0.55643 0.79203 0.0
H80 H 0.14663 0.52779 0.11558 0.0
C81 C 0.17484 0.53397 0.02617 0.0
C82 C 0.16642 0.51508 0.8787 0.0
C83 C 0.20302 0.52413 0.76237 0.0
C84 C 0.28187 0.56771 0.67232 0.0
H85 H 0.19824 0.50879 0.64718 0.0
C86 C 0.3284 0.5434 0.67788 0.0
C87 C 0.36826 0.55903 0.58141 0.0
C88 C 0.27507 0.60783 0.56916 0.0
H89 H 0.24059 0.62951 0.57166 0.0
C90 C 0.3129 0.62023 0.46232 0.0
H91 H 0.33464 0.51506 0.76633 0.0
C92 C 0.35944 0.59582 0.46794 0.0
H93 H 0.38953 0.60841 0.39229 0.0
H94 H 0.30694 0.65039 0.38003 0.0
H95 H 0.95079 0.28193 -0.00449 0.0
C96 C 0.97996 0.25404 -0.02362 0.0
C97 C 0.99063 0.21881 0.09152 0.0
C98 C 1.00474 0.25098 0.83271 0.0
H99 H 0.0341 0.15402 0.15497 0.0
C100 C 1.02755 0.18201 0.06575 0.0
C101 C 0.04543 0.17286 0.91694 0.0
C102 C 0.0364 0.20948 0.80112 0.0
C103 C 0.99222 0.28824 0.71214 0.0
H104 H 0.05114 0.20426 0.68496 0.0
C105 C 1.01746 0.3345 0.70789 0.0
C106 C 1.00061 0.37394 0.61146 0.0
C107 C 0.95022 0.28108 0.61781 0.0
H108 H 0.9286 0.24658 0.62556 0.0
C109 C 0.93581 0.31845 0.51299 0.0
H110 H 0.04794 0.34082 0.7884 0.0
C111 C 0.96079 0.36482 0.51008 0.0
H112 H 0.94707 0.39464 0.43686 0.0
H113 H 0.90384 0.31207 0.43879 0.0
H114 H 0.29253 0.94568 0.01548 0.0
C115 C 0.31848 0.97653 -0.00465 0.0
C116 C 0.35709 0.98586 0.10075 0.0
C117 C 0.3155 1.00544 0.85904 0.0
H118 H 0.42141 1.03085 0.15487 0.0
C119 C 0.39099 1.0253 0.07348 0.0
C120 C 0.39397 0.04805 -0.07155 0.0
C121 C 0.35451 0.03966 0.82272 0.0
C122 C 0.27588 0.99432 0.74485 0.0
H123 H 0.35592 0.05678 0.70867 0.0
C124 C 0.22873 1.01794 0.75462 0.0
C125 C 0.18983 1.00529 0.65057 0.0
C126 C 0.28417 0.95778 0.63104 0.0
H127 H 0.31949 0.93751 0.62655 0.0
C128 C 0.24705 0.94721 0.52218 0.0
H129 H 0.22196 0.04462 0.84738 0.0
C130 C 0.20009 0.97082 0.53178 0.0
H131 H 0.17107 0.96064 0.45114 0.0
H132 H 0.25446 0.91971 0.43261 0.0
H133 H 0.61718 0.30018 -0.02604 0.0
C134 C 0.58668 0.32654 -0.04481 0.0
C135 C 0.57784 0.36527 0.0613 0.0
C136 C 0.55735 0.3236 0.82074 0.0
H137 H 0.53407 0.43057 0.11699 0.0
C138 C 0.53886 0.39973 0.03585 0.0
C139 C 0.51446 0.40166 0.8938 0.0
C140 C 0.52239 0.36201 0.7878 0.0
C141 C 0.56709 0.28335 0.70723 0.0
H142 H 0.50416 0.36276 0.67585 0.0
C143 C 0.54352 0.23652 0.7239 0.0
C144 C 0.55468 0.19683 0.62108 0.0
C145 C 0.60225 0.29052 0.58785 0.0
H146 H 0.62298 0.32548 0.57959 0.0
C147 C 0.61095 0.25252 0.47904 0.0
H148 H 0.51835 0.23047 0.82157 0.0
C149 C 0.58714 0.20585 0.49496 0.0
H150 H 0.59639 0.17607 0.41421 0.0
H151 H 0.63742 0.25872 0.38511 0.0
Tb152 Tb 0.07546 1.00401 -0.03241 0.0
Eu153 Eu 1.01903 0.03544 0.64606 0.0
C154 C 0.1376 1.02236 0.68194 0.0
C155 C 0.05819 0.11984 0.87783 0.0
C156 C 0.11113 0.90192 0.20676 0.0
C157 C 0.13203 0.82594 0.34961 0.0
C158 C 0.1467 0.87219 0.28393 0.0
C159 C 0.06521 0.87942 0.16541 0.0
C160 C 0.05153 0.83252 0.22766 0.0
C161 C 0.08095 0.81164 0.34642 0.0
C162 C 0.12 0.95611 0.17399 0.0
O163 O 0.99617 0.98685 -0.0027 0.0
O164 O 0.96893 0.05149 0.85012 0.0
O165 O 0.9991 0.95473 0.68328 0.0
O166 O 0.07032 0.93971 0.81652 0.0
C167 C 0.95927 1.01535 -0.05138 0.0
O168 O 0.94634 0.04689 0.53622 0.0
O169 O 1.0149 0.0573 0.40311 0.0
O170 O 0.09921 1.00802 0.59593 0.0
O171 O 0.12868 0.0413 0.81852 0.0
O172 O 0.0617 0.08553 -0.00956 0.0
O173 O 0.0534 0.10702 0.732 0.0
C174 C 1.02938 0.92343 0.75179 0.0
O175 O 0.14034 0.96544 0.03927 0.0
O176 O 0.08244 0.98674 0.20445 0.0
C177 C 0.95003 0.11555 0.36859 0.0
C178 C 0.9545 0.20686 0.21507 0.0
C179 C 0.91835 0.17096 0.17055 0.0
C180 C 0.91837 0.12372 0.24238 0.0
C181 C 0.97352 0.15668 0.43937 0.0
C182 C 0.97562 0.20273 0.36254 0.0
C183 C 0.96628 0.06476 0.40981 0.0
H184 H 0.1573 0.80804 0.43076 0.0
H185 H 0.1841 0.88634 0.30467 0.0
H186 H 0.03798 0.90003 0.09782 0.0
H187 H 1.01302 0.82012 0.2132 0.0
H188 H 0.89991 0.17438 0.05942 0.0
H189 H 0.89835 0.0927 0.18963 0.0
H190 H 0.99639 0.1512 0.54066 0.0
H191 H 1.00347 0.22986 0.3995 0.0
Tb192 Tb 0.5626 0.07541 -0.06554 0.0
Eu193 Eu 0.52867 1.02773 0.64266 0.0
C194 C 0.54019 0.1449 0.66311 0.0
C195 C 0.44479 0.06385 0.87538 0.0
C196 C 0.67181 0.10459 0.17926 0.0
C197 C 0.73653 0.11782 0.37217 0.0
C198 C 0.6972 0.13662 0.2813 0.0
C199 C 0.69145 0.05645 0.15091 0.0
C200 C 0.7315 0.03814 0.23915 0.0
C201 C 0.74917 0.06635 0.36556 0.0
C202 C 0.62293 0.11945 0.11318 0.0
O203 O 0.56733 0.99753 0.00676 0.0
O204 O 0.51124 0.97069 0.82787 0.0
O205 O 0.60644 0.04036 0.73932 0.0
O206 O 0.60657 0.04134 0.74323 0.0
C207 C 0.54195 0.96096 -0.05808 0.0
O208 O 0.53624 0.95434 0.52945 0.0
O209 O 0.51248 1.01965 0.39732 0.0
O210 O 0.54973 0.10684 0.57038 0.0
O211 O 0.52791 0.13612 0.80764 0.0
O212 O 0.48126 0.06945 -0.02087 0.0
O213 O 0.45495 0.05683 0.72813 0.0
C214 C 0.63842 1.00435 0.77058 0.0
O215 O 0.62274 0.12562 -0.03693 0.0
O216 O 0.58365 0.09386 0.16175 0.0
C217 C 0.46461 0.94679 0.3713 0.0
C218 C 0.37341 0.94886 0.21685 0.0
C219 C 0.41184 0.91625 0.16509 0.0
C220 C 0.45849 0.9169 0.23961 0.0
C221 C 0.42163 0.96582 0.44658 0.0
C222 C 0.37594 0.96719 0.36853 0.0
C223 C 0.51333 0.97042 0.40561 0.0
H224 H 0.75008 0.14082 0.46671 0.0
H225 H 0.68383 0.17459 0.30094 0.0
H226 H 0.67268 1.03139 0.0715 0.0
H227 H 0.74093 0.99856 0.22961 0.0
H228 H 0.41009 0.90009 0.05001 0.0
H229 H 0.49057 0.89925 0.18495 0.0
H230 H 0.42512 0.98722 0.55229 0.0
H231 H 0.34733 0.99286 0.41035 0.0
Tb232 Tb 0.48773 0.57002 0.90124 0.0
Eu233 Eu 0.53658 0.5345 0.61084 0.0
C234 C 0.41998 0.54615 0.62599 0.0
C235 C 0.49727 0.45186 0.84121 0.0
C236 C 0.46087 0.67974 0.14974 0.0
C237 C 0.45032 0.74338 0.34943 0.0
C238 C 0.43001 0.70538 0.25586 0.0
C239 C 0.5095 0.69799 0.12089 0.0
C240 C 0.52924 0.73696 0.21108 0.0
C241 C 0.50199 0.75483 0.3402 0.0
C242 C 0.44453 0.63162 0.08049 0.0
O243 O 0.56507 0.57181 -0.02396 0.0
O244 O 0.58883 0.51238 0.80217 0.0
O245 O 0.5255 0.61249 0.70794 0.0
O246 O 0.52446 0.61259 0.71165 0.0
C247 C 0.60003 0.54315 0.91496 0.0
O248 O 0.61179 0.54014 0.50734 0.0
O249 O 0.54791 0.51939 0.36555 0.0
O250 O 0.45842 0.5553 0.53396 0.0
O251 O 0.42759 0.53567 0.7722 0.0
O252 O 0.49171 0.48854 -0.05476 0.0
O253 O 0.50456 0.46176 0.69377 0.0
C254 C 0.56251 0.64308 0.73958 0.0
O255 O 0.43958 0.63203 -0.07 0.0
O256 O 0.46818 0.59121 0.12845 0.0
C257 C 0.6194 0.4693 0.34466 0.0
C258 C 0.61416 0.37983 0.18048 0.0
C259 C 0.64887 0.41711 0.13407 0.0
C260 C 0.65028 0.46284 0.21453 0.0
C261 C 0.59763 0.42668 0.41438 0.0
C262 C 0.5946 0.3819 0.33122 0.0
C263 C 0.59691 0.51857 0.37983 0.0
H264 H 0.42808 0.75694 0.44644 0.0
H265 H 0.39172 0.69308 0.27631 0.0
H266 H 0.53374 0.67875 0.03936 0.0
H267 H 0.56903 0.74522 0.20013 0.0
H268 H 0.66584 0.41564 0.01962 0.0
H269 H 0.67033 0.49441 0.16534 0.0
H270 H 0.57534 0.43035 0.51895 0.0
H271 H 0.56724 0.35418 0.36864 0.0
Tb272 Tb 0.99775 0.48606 -0.06868 0.0
Eu273 Eu 1.03033 0.54454 0.61207 0.0
C274 C 1.01752 0.42595 0.64291 0.0
C275 C 0.11383 0.5018 0.83973 0.0
C276 C 0.89499 0.45141 0.17319 0.0
C277 C 0.81966 0.43312 0.32408 0.0
C278 C 0.86484 0.41688 0.25467 0.0
C279 C 0.87355 0.49789 0.13139 0.0
C280 C 0.82746 0.51304 0.19628 0.0
C281 C 0.80646 0.48452 0.31812 0.0
C282 C 0.94872 0.44109 0.13705 0.0
O283 O 0.98368 0.56577 -0.03415 0.0
O284 O 0.05003 0.59042 0.82035 0.0
O285 O 0.95063 0.56645 0.65492 0.0
O286 O 0.93465 0.49321 0.77795 0.0
C287 C 1.01469 0.60125 -0.07954 0.0
O288 O 0.04354 0.61827 0.50862 0.0
O289 O 0.05035 0.55112 0.36777 0.0
O290 O 1.00293 0.46481 0.55856 0.0
O291 O 0.03556 0.43394 0.78067 0.0
O292 O 0.07952 0.49751 -0.04721 0.0
O293 O 0.10115 0.50797 0.69425 0.0
C294 C 0.91892 0.53534 0.71852 0.0
O295 O 0.957 0.42188 0.00042 0.0
O296 O 0.98052 0.47747 0.16825 0.0
C297 C 0.11043 0.61426 0.33434 0.0
C298 C 0.20039 0.60667 0.17414 0.0
C299 C 0.16557 0.64413 0.13154 0.0
C300 C 0.11899 0.64594 0.20743 0.0
C301 C 0.1509 0.58882 0.40184 0.0
C302 C 0.19615 0.58495 0.32127 0.0
C303 C 0.05953 0.5994 0.37851 0.0
H304 H 0.80174 0.40861 0.40839 0.0
H305 H 0.87807 0.37906 0.27581 0.0
H306 H 0.89459 0.52441 0.06131 0.0
H307 H 0.81608 0.55189 0.1807 0.0
H308 H 0.169 0.66267 0.01999 0.0
H309 H 0.08849 0.66738 0.15725 0.0
H310 H 0.14514 0.56576 0.50336 0.0
H311 H 0.22227 0.55578 0.35592 0.0
loop_
_geom_bond_atom_site_label_1
_geom_bond_atom_site_label_2
_geom_bond_distance
_geom_bond_site_symmetry_2
_ccdc_geom_bond_type
H0 C1 0.949 . S
C1 H0 0.949 . S
C1 C2 1.395 . S
C1 C3 1.391 . S
C2 C1 1.395 . S
C2 C5 1.390 . S
C3 C1 1.391 . S
C3 C7 1.387 . S
C3 C8 1.491 . S
H4 C5 0.950 . S
C5 C2 1.390 . S
C5 H4 0.950 . S
C5 C6 1.378 . S
C6 C5 1.378 . S
C6 C7 1.409 . S
C7 C3 1.387 . S
C7 C6 1.409 . S
C7 H9 0.951 1_556 S
C8 C3 1.491 . S
C8 C10 1.382 . S
C8 C12 1.404 . S
H9 C7 0.951 1_554 S
C10 C8 1.382 . S
C10 C11 1.390 . S
C10 H15 0.949 . S
C11 C10 1.390 . S
C11 C16 1.399 . S
C12 C8 1.404 . S
C12 H13 0.950 . S
C12 C14 1.375 . S
H13 C12 0.950 . S
C14 C12 1.375 . S
C14 C16 1.382 . S
C14 H18 0.950 . S
H15 C10 0.949 . S
C16 C11 1.399 . S
C16 C14 1.382 . S
C16 H17 0.952 . S
H17 C16 0.952 . S
H18 C14 0.950 . S
H19 C20 0.949 . S
C20 H19 0.949 . S
C20 C21 1.395 . S
C20 C22 1.391 . S
C21 C20 1.395 . S
C21 C24 1.390 1_655 S
C22 C20 1.391 . S
C22 C26 1.387 . S
C22 C27 1.491 . S
H23 C24 0.950 . S
C24 C21 1.390 1_455 S
C24 H23 0.950 . S
C24 C25 1.377 1_455 S
C25 C24 1.377 1_655 S
C25 C26 1.413 . S
C26 C22 1.387 . S
C26 C25 1.413 . S
C26 H28 0.951 1_556 S
C27 C22 1.491 . S
C27 C29 1.382 . S
C27 C31 1.404 . S
H28 C26 0.951 1_554 S
C29 C27 1.382 . S
C29 C30 1.390 . S
C29 H34 0.949 1_655 S
C30 C29 1.390 . S
C30 C35 1.399 . S
C31 C27 1.404 . S
C31 H32 0.950 . S
C31 C33 1.375 . S
H32 C31 0.950 . S
C33 C31 1.375 . S
C33 C35 1.382 . S
C33 H37 0.950 . S
H34 C29 0.949 1_455 S
C35 C30 1.399 . S
C35 C33 1.382 . S
C35 H36 0.952 . S
H36 C35 0.952 . S
H37 C33 0.950 . S
H38 C39 0.949 . S
C39 H38 0.949 . S
C39 C40 1.395 . S
C39 C41 1.391 . S
C40 C39 1.395 . S
C40 C43 1.390 1_565 S
C41 C39 1.391 . S
C41 C45 1.387 . S
C41 C46 1.491 . S
H42 C43 0.950 . S
C43 C40 1.390 1_545 S
C43 H42 0.950 . S
C43 C44 1.377 1_545 S
C44 C43 1.377 1_565 S
C44 C45 1.413 . S
C45 C41 1.387 . S
C45 C44 1.413 . S
C45 H47 0.951 1_556 S
C46 C41 1.491 . S
C46 C48 1.382 . S
C46 C50 1.404 . S
H47 C45 0.951 1_554 S
C48 C46 1.382 . S
C48 C49 1.390 . S
C48 H53 0.949 1_565 S
C49 C48 1.390 . S
C49 C54 1.399 . S
C50 C46 1.404 . S
C50 H51 0.950 . S
C50 C52 1.375 . S
H51 C50 0.950 . S
C52 C50 1.375 . S
C52 C54 1.382 . S
C52 H56 0.950 . S
H53 C48 0.949 1_545 S
C54 C49 1.399 . S
C54 C52 1.382 . S
C54 H55 0.952 . S
H55 C54 0.952 . S
H56 C52 0.950 . S
H57 C58 0.949 . S
C58 H57 0.949 . S
C58 C59 1.395 . S
C58 C60 1.391 . S
C59 C58 1.395 . S
C59 C62 1.390 . S
C60 C58 1.391 . S
C60 C64 1.387 . S
C60 C65 1.491 . S
H61 C62 0.950 . S
C62 C59 1.390 . S
C62 H61 0.950 . S
C62 C63 1.378 . S
C63 C62 1.378 . S
C63 C64 1.409 . S
C64 C60 1.387 . S
C64 C63 1.409 . S
C64 H66 0.951 1_556 S
C65 C60 1.491 . S
C65 C67 1.382 . S
C65 C69 1.404 . S
H66 C64 0.951 1_554 S
C67 C65 1.382 . S
C67 C68 1.390 . S
C67 H72 0.949 . S
C68 C67 1.390 . S
C68 C73 1.399 . S
C69 C65 1.404 . S
C69 H70 0.950 . S
C69 C71 1.375 . S
H70 C69 0.950 . S
C71 C69 1.375 . S
C71 C73 1.382 . S
C71 H75 0.950 . S
H72 C67 0.949 . S
C73 C68 1.399 . S
C73 C71 1.382 . S
C73 H74 0.952 . S
H74 C73 0.952 . S
H75 C71 0.950 . S
H76 C77 0.949 . S
C77 H76 0.949 . S
C77 C78 1.395 . S
C77 C79 1.391 1_554 S
C78 C77 1.395 . S
C78 C81 1.390 1_554 S
C79 C77 1.391 1_556 S
C79 C83 1.387 . S
C79 C84 1.491 . S
H80 C81 0.950 . S
C81 C78 1.390 1_556 S
C81 H80 0.950 . S
C81 C82 1.378 . S
C82 C81 1.378 . S
C82 C83 1.409 . S
C83 C79 1.387 . S
C83 C82 1.409 . S
C83 H85 0.951 . S
C84 C79 1.491 . S
C84 C86 1.382 1_556 S
C84 C88 1.404 . S
H85 C83 0.951 . S
C86 C84 1.382 1_554 S
C86 C87 1.390 . S
C86 H91 0.949 . S
C87 C86 1.390 . S
C87 C92 1.399 . S
C88 C84 1.404 . S
C88 H89 0.950 . S
C88 C90 1.375 . S
H89 C88 0.950 . S
C90 C88 1.375 . S
C90 C92 1.382 1_556 S
C90 H94 0.950 . S
H91 C86 0.949 . S
C92 C87 1.399 . S
C92 C90 1.382 1_554 S
C92 H93 0.952 . S
H93 C92 0.952 . S
H94 C90 0.950 . S
H95 C96 0.949 . S
C96 H95 0.949 . S
C96 C97 1.395 . S
C96 C98 1.391 1_554 S
C97 C96 1.395 . S
C97 C100 1.390 1_654 S
C98 C96 1.391 1_556 S
C98 C102 1.387 . S
C98 C103 1.491 1_556 S
H99 C100 0.950 . S
C100 C97 1.390 1_456 S
C100 H99 0.950 . S
C100 C101 1.377 1_455 S
C101 C100 1.377 1_655 S
C101 C102 1.412 . S
C102 C98 1.387 . S
C102 C101 1.412 . S
C102 H104 0.951 . S
C103 C98 1.491 1_554 S
C103 C105 1.382 . S
C103 C107 1.404 1_554 S
H104 C102 0.951 . S
C105 C103 1.382 . S
C105 C106 1.390 . S
C105 H110 0.949 1_655 S
C106 C105 1.390 . S
C106 C111 1.399 . S
C107 C103 1.404 1_556 S
C107 H108 0.950 . S
C107 C109 1.375 . S
H108 C107 0.950 . S
C109 C107 1.375 . S
C109 C111 1.382 1_556 S
C109 H113 0.950 . S
H110 C105 0.949 1_455 S
C111 C106 1.399 . S
C111 C109 1.382 1_554 S
C111 H112 0.952 . S
H112 C111 0.952 . S
H113 C109 0.950 . S
H114 C115 0.949 . S
C115 H114 0.949 . S
C115 C116 1.395 . S
C115 C117 1.391 1_554 S
C116 C115 1.395 . S
C116 C119 1.390 1_564 S
C117 C115 1.391 1_556 S
C117 C121 1.387 . S
C117 C122 1.491 1_556 S
H118 C119 0.950 . S
C119 C116 1.390 1_546 S
C119 H118 0.950 . S
C119 C120 1.377 1_545 S
C120 C119 1.377 1_565 S
C120 C121 1.412 . S
C121 C117 1.387 . S
C121 C120 1.412 . S
C121 H123 0.951 . S
C122 C117 1.491 1_554 S
C122 C124 1.382 . S
C122 C126 1.404 1_554 S
H123 C121 0.951 . S
C124 C122 1.382 . S
C124 C125 1.390 . S
C124 H129 0.949 1_565 S
C125 C124 1.390 . S
C125 C130 1.399 . S
C126 C122 1.404 1_556 S
C126 H127 0.950 . S
C126 C128 1.375 . S
H127 C126 0.950 . S
C128 C126 1.375 . S
C128 C130 1.382 1_556 S
C128 H132 0.950 . S
H129 C124 0.949 1_545 S
C130 C125 1.399 . S
C130 C128 1.382 1_554 S
C130 H131 0.952 . S
H131 C130 0.952 . S
H132 C128 0.950 . S
H133 C134 0.949 . S
C134 H133 0.949 . S
C134 C135 1.395 . S
C134 C136 1.391 1_554 S
C135 C134 1.395 . S
C135 C138 1.390 1_554 S
C136 C134 1.391 1_556 S
C136 C140 1.387 . S
C136 C141 1.491 . S
H137 C138 0.950 . S
C138 C135 1.390 1_556 S
C138 H137 0.950 . S
C138 C139 1.378 . S
C139 C138 1.378 . S
C139 C140 1.409 . S
C140 C136 1.387 . S
C140 C139 1.409 . S
C140 H142 0.951 . S
C141 C136 1.491 . S
C141 C143 1.382 1_556 S
C141 C145 1.404 . S
H142 C140 0.951 . S
C143 C141 1.382 1_554 S
C143 C144 1.390 . S
C143 H148 0.949 . S
C144 C143 1.390 . S
C144 C149 1.399 . S
C145 C141 1.404 . S
C145 H146 0.950 . S
C145 C147 1.375 . S
H146 C145 0.950 . S
C147 C145 1.375 . S
C147 C149 1.382 1_556 S
C147 H151 0.950 . S
H148 C143 0.949 . S
C149 C144 1.399 . S
C149 C147 1.382 1_554 S
C149 H150 0.952 . S
H150 C149 0.952 . S
H151 C147 0.950 . S
Tb152 C162 2.825 . S
Tb152 O163 2.347 1_455 S
Tb152 O166 2.366 1_554 S
Tb152 O171 2.418 1_554 S
Tb152 O172 2.384 1_565 S
Tb152 O175 2.479 . S
Tb152 O176 2.471 . S
Eu153 O164 2.418 . S
Eu153 O165 2.384 1_545 S
Eu153 O168 2.479 . S
Eu153 O169 2.471 . S
Eu153 O170 2.347 1_655 S
Eu153 O173 2.366 . S
Eu153 C183 2.825 . S
C154 O170 1.259 1_565 S
C154 O171 1.265 . S
C155 O172 1.255 1_556 S
C155 O173 1.265 1_455 S
C156 C158 1.380 . S
C156 C159 1.374 . S
C156 C162 1.507 . S
C157 C158 1.384 . S
C157 C161 1.387 . S
C157 H184 0.930 . S
C158 C156 1.380 . S
C158 C157 1.384 . S
C158 H185 0.931 . S
C159 C156 1.374 . S
C159 C160 1.390 . S
C159 H186 0.930 1_455 S
C160 C159 1.390 . S
C160 C161 1.391 . S
C160 H187 0.930 1_455 S
C161 C157 1.387 . S
C161 C160 1.391 . S
C162 Tb152 2.825 . S
C162 C156 1.507 . S
C162 O175 1.238 . S
C162 O176 1.247 . S
O163 Tb152 2.347 1_655 S
O163 C167 1.259 1_565 S
O164 Eu153 2.418 . S
O164 C167 1.265 1_556 S
O165 Eu153 2.384 1_565 S
O165 C174 1.255 . S
O166 Tb152 2.366 1_556 S
O166 C174 1.265 1_455 S
C167 O163 1.259 1_545 S
C167 O164 1.265 1_554 S
O168 Eu153 2.479 . S
O168 C183 1.238 . S
O169 Eu153 2.471 . S
O169 C183 1.247 . S
O170 Eu153 2.347 1_455 S
O170 C154 1.259 1_545 S
O171 Tb152 2.418 1_556 S
O171 C154 1.265 . S
O172 Tb152 2.384 1_545 S
O172 C155 1.255 1_554 S
O173 Eu153 2.366 . S
O173 C155 1.265 1_655 S
C174 O165 1.255 . S
C174 O166 1.265 1_655 S
O175 Tb152 2.479 . S
O175 C162 1.238 . S
O176 Tb152 2.471 . S
O176 C162 1.247 . S
C177 C180 1.380 . S
C177 C181 1.374 . S
C177 C183 1.507 . S
C178 C179 1.387 . S
C178 C182 1.391 . S
C179 C178 1.387 . S
C179 C180 1.384 . S
C179 H188 0.930 . S
C180 C177 1.380 . S
C180 C179 1.384 . S
C180 H189 0.931 . S
C181 C177 1.374 . S
C181 C182 1.390 . S
C181 H190 0.930 1_655 S
C182 C178 1.391 . S
C182 C181 1.390 . S
C182 H191 0.930 1_655 S
C183 Eu153 2.825 . S
C183 O168 1.238 . S
C183 O169 1.247 . S
C183 C177 1.507 . S
H184 C157 0.930 . S
H185 C158 0.931 . S
H186 C159 0.930 1_655 S
H187 C160 0.930 1_655 S
H188 C179 0.930 . S
H189 C180 0.931 . S
H190 C181 0.930 1_455 S
H191 C182 0.930 1_455 S
Tb192 C202 2.825 . S
Tb192 O203 2.347 1_545 S
Tb192 O206 2.366 1_554 S
Tb192 O211 2.418 1_554 S
Tb192 O212 2.384 . S
Tb192 O215 2.479 . S
Tb192 O216 2.471 . S
Eu193 O204 2.418 . S
Eu193 O205 2.384 . S
Eu193 O208 2.479 . S
Eu193 O209 2.471 . S
Eu193 O210 2.347 1_565 S
Eu193 O213 2.366 . S
Eu193 C223 2.825 . S
C194 O210 1.259 . S
C194 O211 1.265 . S
C195 O212 1.255 1_556 S
C195 O213 1.265 1_545 S
C196 C198 1.380 . S
C196 C199 1.374 . S
C196 C202 1.507 . S
C197 C198 1.384 . S
C197 C201 1.387 . S
C197 H224 0.930 . S
C198 C196 1.380 . S
C198 C197 1.384 . S
C198 H225 0.931 . S
C199 C196 1.374 . S
C199 C200 1.390 . S
C199 H226 0.930 1_545 S
C200 C199 1.390 . S
C200 C201 1.391 . S
C200 H227 0.930 1_545 S
C201 C197 1.387 . S
C201 C200 1.391 . S
C202 Tb192 2.825 . S
C202 C196 1.507 . S
C202 O215 1.238 . S
C202 O216 1.247 . S
O203 Tb192 2.347 1_565 S
O203 C207 1.259 . S
O204 Eu193 2.418 . S
O204 C207 1.265 1_556 S
O205 Eu193 2.384 . S
O205 C214 1.255 . S
O206 Tb192 2.366 1_556 S
O206 C214 1.265 1_545 S
C207 O203 1.259 . S
C207 O204 1.265 1_554 S
O208 Eu193 2.479 . S
O208 C223 1.238 . S
O209 Eu193 2.471 . S
O209 C223 1.247 . S
O210 Eu193 2.347 1_545 S
O210 C194 1.259 . S
O211 Tb192 2.418 1_556 S
O211 C194 1.265 . S
O212 Tb192 2.384 . S
O212 C195 1.255 1_554 S
O213 Eu193 2.366 . S
O213 C195 1.265 1_565 S
C214 O205 1.255 . S
C214 O206 1.265 1_565 S
O215 Tb192 2.479 . S
O215 C202 1.238 . S
O216 Tb192 2.471 . S
O216 C202 1.247 . S
C217 C220 1.380 . S
C217 C221 1.374 . S
C217 C223 1.507 . S
C218 C219 1.387 . S
C218 C222 1.391 . S
C219 C218 1.387 . S
C219 C220 1.384 . S
C219 H228 0.930 . S
C220 C217 1.380 . S
C220 C219 1.384 . S
C220 H229 0.931 . S
C221 C217 1.374 . S
C221 C222 1.390 . S
C221 H230 0.930 1_565 S
C222 C218 1.391 . S
C222 C221 1.390 . S
C222 H231 0.930 1_565 S
C223 Eu193 2.825 . S
C223 O208 1.238 . S
C223 O209 1.247 . S
C223 C217 1.507 . S
H224 C197 0.930 . S
H225 C198 0.931 . S
H226 C199 0.930 1_565 S
H227 C200 0.930 1_565 S
H228 C219 0.930 . S
H229 C220 0.931 . S
H230 C221 0.930 1_545 S
H231 C222 0.930 1_545 S
Tb232 C242 2.825 . S
Tb232 O243 2.347 . S
Tb232 O246 2.366 1_554 S
Tb232 O251 2.418 1_554 S
Tb232 O252 2.384 . S
Tb232 O255 2.479 . S
Tb232 O256 2.471 . S
Eu233 O244 2.418 . S
Eu233 O245 2.384 . S
Eu233 O248 2.479 . S
Eu233 O249 2.471 . S
Eu233 O250 2.347 . S
Eu233 O253 2.366 . S
Eu233 C263 2.825 . S
C234 O250 1.259 . S
C234 O251 1.265 . S
C235 O252 1.255 1_556 S
C235 O253 1.265 . S
C236 C238 1.380 . S
C236 C239 1.374 . S
C236 C242 1.507 . S
C237 C238 1.384 . S
C237 C241 1.387 . S
C237 H264 0.930 . S
C238 C236 1.380 . S
C238 C237 1.384 . S
C238 H265 0.931 . S
C239 C236 1.374 . S
C239 C240 1.390 . S
C239 H266 0.930 . S
C240 C239 1.390 . S
C240 C241 1.391 . S
C240 H267 0.930 . S
C241 C237 1.387 . S
C241 C240 1.391 . S
C242 Tb232 2.825 . S
C242 C236 1.507 . S
C242 O255 1.238 . S
C242 O256 1.247 . S
O243 Tb232 2.347 . S
O243 C247 1.259 . S
O244 Eu233 2.418 . S
O244 C247 1.265 1_556 S
O245 Eu233 2.384 . S
O245 C254 1.255 . S
O246 Tb232 2.366 1_556 S
O246 C254 1.265 . S
C247 O243 1.259 . S
C247 O244 1.265 1_554 S
O248 Eu233 2.479 . S
O248 C263 1.238 . S
O249 Eu233 2.471 . S
O249 C263 1.247 . S
O250 Eu233 2.347 . S
O250 C234 1.259 . S
O251 Tb232 2.418 1_556 S
O251 C234 1.265 . S
O252 Tb232 2.384 . S
O252 C235 1.255 1_554 S
O253 Eu233 2.366 . S
O253 C235 1.265 . S
C254 O245 1.255 . S
C254 O246 1.265 . S
O255 Tb232 2.479 . S
O255 C242 1.238 . S
O256 Tb232 2.471 . S
O256 C242 1.247 . S
C257 C260 1.380 . S
C257 C261 1.374 . S
C257 C263 1.507 . S
C258 C259 1.387 . S
C258 C262 1.391 . S
C259 C258 1.387 . S
C259 C260 1.384 . S
C259 H268 0.930 . S
C260 C257 1.380 . S
C260 C259 1.384 . S
C260 H269 0.931 . S
C261 C257 1.374 . S
C261 C262 1.390 . S
C261 H270 0.930 . S
C262 C258 1.391 . S
C262 C261 1.390 . S
C262 H271 0.930 . S
C263 Eu233 2.825 . S
C263 O248 1.238 . S
C263 O249 1.247 . S
C263 C257 1.507 . S
H264 C237 0.930 . S
H265 C238 0.931 . S
H266 C239 0.930 . S
H267 C240 0.930 . S
H268 C259 0.930 . S
H269 C260 0.931 . S
H270 C261 0.930 . S
H271 C262 0.930 . S
Tb272 C282 2.825 . S
Tb272 O283 2.347 . S
Tb272 O286 2.366 1_554 S
Tb272 O291 2.418 1_554 S
Tb272 O292 2.384 1_655 S
Tb272 O295 2.479 . S
Tb272 O296 2.471 . S
Eu273 O284 2.418 . S
Eu273 O285 2.384 1_455 S
Eu273 O288 2.479 . S
Eu273 O289 2.471 . S
Eu273 O290 2.347 . S
Eu273 O293 2.366 . S
Eu273 C303 2.825 . S
C274 O290 1.259 1_655 S
C274 O291 1.265 . S
C275 O292 1.255 1_556 S
C275 O293 1.265 . S
C276 C278 1.380 . S
C276 C279 1.374 . S
C276 C282 1.507 . S
C277 C278 1.384 . S
C277 C281 1.387 . S
C277 H304 0.930 . S
C278 C276 1.380 . S
C278 C277 1.384 . S
C278 H305 0.931 . S
C279 C276 1.374 . S
C279 C280 1.390 . S
C279 H306 0.930 . S
C280 C279 1.390 . S
C280 C281 1.391 . S
C280 H307 0.930 . S
C281 C277 1.387 . S
C281 C280 1.391 . S
C282 Tb272 2.825 . S
C282 C276 1.507 . S
C282 O295 1.238 . S
C282 O296 1.247 . S
O283 Tb272 2.347 . S
O283 C287 1.259 1_655 S
O284 Eu273 2.418 . S
O284 C287 1.265 1_556 S
O285 Eu273 2.384 1_655 S
O285 C294 1.255 . S
O286 Tb272 2.366 1_556 S
O286 C294 1.265 . S
C287 O283 1.259 1_455 S
C287 O284 1.265 1_554 S
O288 Eu273 2.479 . S
O288 C303 1.238 . S
O289 Eu273 2.471 . S
O289 C303 1.247 . S
O290 Eu273 2.347 . S
O290 C274 1.259 1_455 S
O291 Tb272 2.418 1_556 S
O291 C274 1.265 . S
O292 Tb272 2.384 1_455 S
O292 C275 1.255 1_554 S
O293 Eu273 2.366 . S
O293 C275 1.265 . S
C294 O285 1.255 . S
C294 O286 1.265 . S
O295 Tb272 2.479 . S
O295 C282 1.238 . S
O296 Tb272 2.471 . S
O296 C282 1.247 . S
C297 C300 1.380 . S
C297 C301 1.374 . S
C297 C303 1.507 . S
C298 C299 1.387 . S
C298 C302 1.391 . S
C299 C298 1.387 . S
C299 C300 1.384 . S
C299 H308 0.930 . S
C300 C297 1.380 . S
C300 C299 1.384 . S
C300 H309 0.931 . S
C301 C297 1.374 . S
C301 C302 1.390 . S
C301 H310 0.930 . S
C302 C298 1.391 . S
C302 C301 1.390 . S
C302 H311 0.930 . S
C303 Eu273 2.825 . S
C303 O288 1.238 . S
C303 O289 1.247 . S
C303 C297 1.507 . S
H304 C277 0.930 . S
H305 C278 0.931 . S
H306 C279 0.930 . S
H307 C280 0.930 . S
H308 C299 0.930 . S
H309 C300 0.931 . S
H310 C301 0.930 . S
H311 C302 0.930 . S
C125 C154 3.333 1_554 S
C194 C144 3.372 1_556 S
C234 C87 3.382 1_556 S
C274 C106 3.328 1_556 S
C167 C49 3.367 1_544 S
C68 C207 3.307 1_556 S
C11 C247 3.300 1_556 S
C30 C287 3.342 1_656 S
C178 C97 1.992 . S
C218 C116 1.869 . S
C258 C135 1.727 . S
C78 C298 1.834 . S
C21 C161 2.003 1_655 S
C201 C40 1.880 1_545 S
C241 C59 1.740 . S
C2 C281 1.844 . S
C101 C155 3.905 1_655 S
C120 C195 3.835 1_565 S
C235 C139 3.845 . S
C275 C82 3.911 . S
C25 C174 3.908 . S
C214 C44 3.834 . S
C254 C63 3.834 . S
C6 C294 3.907 . S
