# Generated by pormake.
# Topology rtl, (3,6)-cn, num edge types: 1
# Building blocks:
#     Node 0, Type 0, BuildingBlock: MIDCAF_clean_linker_0, # of connection points: 3
#     Node 1, Type 0, BuildingBlock: MIDCAF_clean_linker_0, # of connection points: 3
#     Node 2, Type 0, BuildingBlock: MIDCAF_clean_linker_0, # of connection points: 3
#     Node 3, Type 0, BuildingBlock: MIDCAF_clean_linker_0, # of connection points: 3
#     Node 4, Type 1, BuildingBlock: KUMBOL_clean_sbu_1, # of connection points: 6
#     Node 5, Type 1, BuildingBlock: KUMBOL_clean_sbu_1, # of connection points: 6
#     Edge 6, Type (0, 1), BuildingBlock: AJUNOK_clean_linker_0, # of connection points: 2
#     Edge 7, Type (0, 1), BuildingBlock: AJUNOK_clean_linker_0, # of connection points: 2
#     Edge 8, Type (0, 1), BuildingBlock: AJUNOK_clean_linker_0, # of connection points: 2
#     Edge 9, Type (0, 1), BuildingBlock: AJUNOK_clean_linker_0, # of connection points: 2
#     Edge 10, Type (0, 1), BuildingBlock: AJUNOK_clean_linker_0, # of connection points: 2
#     Edge 11, Type (0, 1), BuildingBlock: AJUNOK_clean_linker_0, # of connection points: 2
#     Edge 12, Type (0, 1), BuildingBlock: AJUNOK_clean_linker_0, # of connection points: 2
#     Edge 13, Type (0, 1), BuildingBlock: AJUNOK_clean_linker_0, # of connection points: 2
#     Edge 14, Type (0, 1), BuildingBlock: AJUNOK_clean_linker_0, # of connection points: 2
#     Edge 15, Type (0, 1), BuildingBlock: AJUNOK_clean_linker_0, # of connection points: 2
#     Edge 16, Type (0, 1), BuildingBlock: AJUNOK_clean_linker_0, # of connection points: 2
#     Edge 17, Type (0, 1), BuildingBlock: AJUNOK_clean_linker_0, # of connection points: 2
# Relax obj value: 0.018
# Max RMSD: 0.112
# Mean RMSD: 0.067
data_MOF--net-rtl--node1-KUMBOL_clean_sbu_1--node2-MIDCAF_clean_linker_0--edge1-AJUNOK_clean_linker_0
_symmetry_space_group_name_H-M    P1
_symmetry_Int_Tables_number       1
_symmetry_cell_setting            triclinic
loop_
_symmetry_equiv_pos_as_xyz
'x, y, z'
_cell_length_a     31.134993
_cell_length_b     31.977006
_cell_length_c     28.321881
_cell_angle_alpha  77.047239
_cell_angle_beta   99.337291
_cell_angle_gamma 90.820162
loop_
_atom_site_label
_atom_site_type_symbol
_atom_site_fract_x
_atom_site_fract_y
_atom_site_fract_z
_atom_type_partial_charge
C0 C 0.14445 0.90367 0.1372 0.0
C1 C 0.14787 0.87439 0.18271 0.0
C2 C 0.17053 0.83524 0.18982 0.0
C3 C 0.18903 0.8253 0.15172 0.0
H4 H 0.29668 0.75842 0.1175 0.0
H5 H 0.35282 0.70298 0.12689 0.0
H6 H 0.31994 0.70375 0.97264 0.0
H7 H 0.2649 0.75936 0.96277 0.0
H8 H 0.22424 0.84682 0.89246 0.0
H9 H 0.18966 0.879 0.80864 0.0
H10 H 0.08995 0.93669 0.86451 0.0
H11 H 0.12423 0.9047 0.94852 0.0
H12 H 0.15843 0.91654 0.064 0.0
H13 H 0.12663 0.93382 0.13066 0.0
H14 H 0.17347 0.81216 0.22468 0.0
H15 H 0.20567 0.79455 0.15798 0.0
N16 N 0.2305 0.81004 0.07111 0.0
N17 N 0.22667 0.81974 0.98594 0.0
N18 N 0.18355 0.86287 0.01709 0.0
C19 C 0.24385 0.79871 0.03219 0.0
C20 C 0.19656 0.85178 0.97802 0.0
C21 C 0.20038 0.84229 0.06371 0.0
C22 C 0.27648 0.76364 0.03933 0.0
C23 C 0.30128 0.74659 0.08568 0.0
C24 C 0.33326 0.71472 0.09114 0.0
C25 C 0.3407 0.69919 0.05044 0.0
C26 C 0.31526 0.71556 1.00449 0.0
C27 C 0.28364 0.74742 0.99895 0.0
C28 C 0.17697 0.87311 0.92728 0.0
C29 C 0.19509 0.86655 0.88703 0.0
C30 C 0.17552 0.8851 0.83905 0.0
C31 C 0.13736 0.9103 0.83044 0.0
C32 C 0.11937 0.91723 0.87044 0.0
C33 C 0.13914 0.89905 0.91845 0.0
C34 C 0.18444 0.85405 0.10559 0.0
C35 C 0.1624 0.89356 0.09898 0.0
C36 C 0.6269 0.60114 0.50526 0.0
C37 C 0.65114 0.61137 0.46651 0.0
C38 C 0.68156 0.64422 0.46669 0.0
C39 C 0.68893 0.66509 0.50553 0.0
H40 H 0.7189 0.79072 0.54736 0.0
H41 H 0.77342 0.84602 0.53669 0.0
H42 H 0.84186 0.79099 0.68252 0.0
H43 H 0.78537 0.73756 0.69419 0.0
H44 H 0.67595 0.70823 0.75224 0.0
H45 H 0.6478 0.67717 0.82816 0.0
H46 H 0.61027 0.56426 0.77352 0.0
H47 H 0.63792 0.59501 0.69765 0.0
H48 H 0.61614 0.61235 0.57434 0.0
H49 H 0.6023 0.57685 0.50557 0.0
H50 H 0.70093 0.65282 0.43759 0.0
H51 H 0.71351 0.68943 0.50477 0.0
N52 N 0.70403 0.70731 0.58608 0.0
N53 N 0.70269 0.70699 0.66878 0.0
N54 N 0.66304 0.65636 0.63165 0.0
C55 C 0.7169 0.72431 0.62574 0.0
C56 C 0.67533 0.67313 0.67187 0.0
C57 C 0.67731 0.67328 0.5886 0.0
C58 C 0.74778 0.76006 0.62173 0.0
C59 C 0.74519 0.79103 0.57746 0.0
C60 C 0.77666 0.82251 0.57124 0.0
C61 C 0.81215 0.82327 0.60872 0.0
C62 C 0.81443 0.79239 0.65331 0.0
C63 C 0.7822 0.76153 0.65999 0.0
C64 C 0.65928 0.65418 0.71867 0.0
C65 C 0.66192 0.67668 0.75644 0.0
C66 C 0.64571 0.65903 0.79986 0.0
C67 C 0.62723 0.6182 0.80682 0.0
C68 C 0.62489 0.59555 0.76938 0.0
C69 C 0.64051 0.61338 0.72577 0.0
C70 C 0.6663 0.65346 0.54554 0.0
C71 C 0.63464 0.62171 0.54454 0.0
C72 C 0.89472 0.14186 0.94743 0.0
C73 C 0.86852 0.15402 0.90104 0.0
C74 C 0.82571 0.1688 0.89799 0.0
C75 C 0.80957 0.17202 0.94034 0.0
H76 H 0.73566 0.26232 0.98602 0.0
H77 H 0.6801 0.31687 0.98128 0.0
H78 H 0.66303 0.25971 0.13017 0.0
H79 H 0.71942 0.2061 0.13561 0.0
H80 H 0.82169 0.18118 0.201 0.0
H81 H 0.85655 0.14901 0.28445 0.0
H82 H 0.91136 0.04775 0.23304 0.0
H83 H 0.87683 0.08029 0.14854 0.0
H84 H 0.89953 0.13534 0.02514 0.0
H85 H 0.92788 0.13039 0.95071 0.0
H86 H 0.80501 0.1789 0.86264 0.0
H87 H 0.77657 0.18411 0.93645 0.0
N88 N 0.78412 0.19272 0.02629 0.0
N89 N 0.78941 0.17972 0.11169 0.0
N90 N 0.83919 0.1463 0.07722 0.0
C91 C 0.76903 0.19957 0.06636 0.0
C92 C 0.82436 0.15309 0.11762 0.0
C93 C 0.81906 0.16605 0.0313 0.0
C94 C 0.73224 0.23001 0.06129 0.0
C95 C 0.71965 0.26103 0.01752 0.0
C96 C 0.6876 0.29215 0.01468 0.0
C97 C 0.66702 0.29246 0.0553 0.0
C98 C 0.67857 0.26053 0.09842 0.0
C99 C 0.71086 0.22977 0.10145 0.0
C100 C 0.84641 0.13325 0.16801 0.0
C101 C 0.8411 0.15203 0.20722 0.0
C102 C 0.86113 0.13378 0.25503 0.0
C103 C 0.88636 0.09595 0.26496 0.0
C104 C 0.89173 0.07685 0.22611 0.0
C105 C 0.87222 0.09558 0.17788 0.0
C106 C 0.83577 0.16021 0.98687 0.0
C107 C 0.87839 0.14454 0.98999 0.0
C108 C 0.39981 0.38762 0.59249 0.0
C109 C 0.38503 0.36631 0.63571 0.0
C110 C 0.35507 0.33333 0.63357 0.0
C111 C 0.34037 0.32152 0.5894 0.0
H112 H 0.2228 0.28769 0.50708 0.0
H113 H 0.16754 0.23372 0.51967 0.0
H114 H 0.21807 0.16724 0.42266 0.0
H115 H 0.27279 0.22273 0.40851 0.0
H116 H 0.31776 0.31836 0.32218 0.0
H117 H 0.35149 0.34808 0.24977 0.0
H118 H 0.44687 0.41008 0.3378 0.0
H119 H 0.41411 0.38033 0.40985 0.0
H120 H 0.39723 0.3924 0.51523 0.0
H121 H 0.42263 0.41344 0.5932 0.0
H122 H 0.34231 0.31707 0.66608 0.0
H123 H 0.31721 0.29591 0.5895 0.0
N124 N 0.30467 0.30262 0.49738 0.0
N125 N 0.30833 0.30278 0.41524 0.0
N126 N 0.35725 0.34322 0.45865 0.0
C127 C 0.28921 0.28914 0.4559 0.0
C128 C 0.34237 0.33025 0.41637 0.0
C129 C 0.33867 0.32936 0.49937 0.0
C130 C 0.25227 0.25936 0.45692 0.0
C131 C 0.22174 0.26195 0.48774 0.0
C132 C 0.19018 0.23084 0.49522 0.0
C133 C 0.18849 0.1959 0.47257 0.0
C134 C 0.218 0.19407 0.44016 0.0
C135 C 0.24941 0.22576 0.43207 0.0
C136 C 0.36313 0.34674 0.37213 0.0
C137 C 0.34616 0.338 0.32623 0.0
C138 C 0.36537 0.3551 0.2847 0.0
C139 C 0.4022 0.38092 0.28825 0.0
C140 C 0.41919 0.38949 0.33406 0.0
C141 C 0.40002 0.37262 0.37537 0.0
C142 C 0.3552 0.34239 0.54599 0.0
C143 C 0.38529 0.37552 0.54801 0.0
C144 C 0.9167 0.11526 0.49177 0.0
C145 C 0.84418 0.08688 0.48 0.0
C146 C 0.88765 0.08307 0.50448 0.0
C147 C 0.83109 0.1225 0.44126 0.0
C148 C 0.90349 0.15166 0.4539 0.0
C149 C 0.86068 0.15482 0.42823 0.0
N150 N 0.95819 0.11072 0.51637 0.0
C151 C 0.98735 0.14261 0.5074 0.0
C152 C 0.93372 0.18383 0.44312 0.0
C153 C 0.9757 0.17947 0.47038 0.0
Gd154 Gd 0.04116 0.96017 0.52591 0.0
Gd155 Gd 0.97618 0.0466 0.57516 0.0
N156 N 0.90146 0.04891 0.54197 0.0
C157 C 0.81493 0.05528 0.49598 0.0
C158 C 0.87221 0.01996 0.56004 0.0
C159 C 0.82885 0.02212 0.53677 0.0
H160 H 0.88176 0.99568 0.59306 0.0
H161 H 0.80606 0.99851 0.55074 0.0
H162 H 0.14141 0.99758 0.53039 0.0
H163 H 0.01968 0.13955 0.52867 0.0
H164 H 0.21446 0.97918 0.58045 0.0
H165 H 0.78126 0.05702 0.47819 0.0
H166 H 0.79794 0.12573 0.42173 0.0
H167 H 0.98228 0.86974 0.55209 0.0
H168 H 0.92484 0.21232 0.41428 0.0
H169 H 0.99909 0.20445 0.46287 0.0
H170 H 0.1921 0.85057 0.69868 0.0
H171 H 0.84999 0.18235 0.39869 0.0
H172 H 0.05243 0.78595 0.67941 0.0
H173 H 0.9862 0.80356 0.61672 0.0
N174 N 0.04285 0.89289 0.58166 0.0
C175 C 0.08094 0.882 0.61317 0.0
C176 C 0.01013 0.86403 0.58091 0.0
C177 C 0.05027 0.81585 0.65199 0.0
C178 C 0.01277 0.82576 0.6168 0.0
C179 C 0.0855 0.84347 0.64958 0.0
H180 H 0.12935 0.8038 0.70974 0.0
N181 N 0.11113 0.94482 0.57127 0.0
C182 C 0.11642 0.90822 0.60706 0.0
C183 C 0.19266 0.92294 0.62742 0.0
C184 C 0.15715 0.89683 0.63697 0.0
C185 C 0.14583 0.96955 0.56038 0.0
C186 C 0.18709 0.95915 0.58852 0.0
O187 O 0.97953 0.05531 0.49439 0.0
O188 O 0.9759 0.98671 0.48355 0.0
O189 O 0.06603 0.97489 0.45674 0.0
O190 O 0.05495 0.90917 0.49108 0.0
O191 O 0.95693 0.97679 0.59554 0.0
O192 O 0.97022 0.94579 0.53271 0.0
O193 O 0.06851 0.98221 0.59496 0.0
O194 O 0.00635 0.98628 0.62563 0.0
O195 O 0.93869 0.06588 0.6254 0.0
O196 O 0.00664 0.08216 0.62823 0.0
O197 O 0.06081 0.02944 0.50371 0.0
O198 O 0.0461 0.06272 0.565 0.0
C199 C 0.96674 0.02781 0.46727 0.0
C200 C 0.94881 0.94778 0.56884 0.0
C201 C 0.04378 0.92773 0.4051 0.0
C202 C 0.04925 0.91157 0.32626 0.0
C203 C 0.97831 0.91804 0.34959 0.0
C204 C 0.99825 0.92656 0.39418 0.0
C205 C 1.00362 0.91038 0.31583 0.0
C206 C 0.06917 0.92042 0.37104 0.0
C207 C 0.06513 0.93522 0.45245 0.0
C208 C 0.16122 0.85957 0.6748 0.0
C209 C 0.12544 0.833 0.68118 0.0
H210 H 0.22456 0.91519 0.64945 0.0
C211 C 0.0481 0.97826 0.63249 0.0
C212 C 0.06662 0.06034 0.52815 0.0
C213 C 0.96147 0.12474 0.66021 0.0
C214 C 0.93619 0.15952 0.71953 0.0
C215 C 0.96104 0.20232 0.64694 0.0
C216 C 0.96941 0.16504 0.63163 0.0
C217 C 0.94475 0.19966 0.69073 0.0
C218 C 0.94475 0.12217 0.70395 0.0
C219 C 0.9712 0.08462 0.64652 0.0
H220 H 0.94321 0.91694 0.34134 0.0
H221 H 0.97833 0.93165 0.42043 0.0
H222 H 0.9876 0.90363 0.28151 0.0
H223 H 0.10439 0.92066 0.37985 0.0
H224 H 0.96733 0.23339 0.62488 0.0
H225 H 0.98232 0.16767 0.59787 0.0
H226 H 0.93844 0.22895 0.70188 0.0
H227 H 0.93914 0.09095 0.72636 0.0
C228 C 0.63598 0.57658 0.0413 0.0
C229 C 0.6151 0.65186 0.02278 0.0
C230 C 0.60751 0.60863 0.04387 0.0
C231 C 0.65018 0.66192 0.99694 0.0
C232 C 0.67222 0.58657 0.01717 0.0
C233 C 0.67869 0.62934 0.99416 0.0
N234 N 0.62807 0.53536 0.06247 0.0
C235 C 0.65696 0.50297 0.06484 0.0
C236 C 0.70103 0.55326 0.01732 0.0
C237 C 0.69371 0.51137 0.04193 0.0
Gd238 Gd 0.46401 0.49472 0.99787 0.0
Gd239 Gd 0.56451 0.52325 0.09729 0.0
N240 N 0.57377 0.59774 0.06901 0.0
C241 C 0.588 0.68378 0.02957 0.0
C242 C 0.55 0.62909 0.07956 0.0
C243 C 0.55593 0.67238 0.05899 0.0
H244 H 0.52675 0.62121 0.1044 0.0
H245 H 0.53615 0.69696 0.06641 0.0
H246 H 0.46786 0.38778 0.02421 0.0
H247 H 0.65082 0.47057 0.08331 0.0
H248 H 0.42271 0.32737 0.0579 0.0
H249 H 0.59272 0.71737 0.01398 0.0
H250 H 0.65615 0.6949 0.97999 0.0
H251 H 0.39767 0.58185 0.96492 0.0
H252 H 0.72928 0.55961 0.99917 0.0
H253 H 0.7161 0.48552 0.04282 0.0
H254 H 0.29453 0.39647 0.08219 0.0
H255 H 0.70605 0.63766 0.97487 0.0
H256 H 0.27984 0.54916 0.02301 0.0
H257 H 0.32563 0.60328 0.97889 0.0
N258 N 0.39442 0.51752 1.00506 0.0
C259 C 0.36871 0.48681 0.02651 0.0
C260 C 0.37855 0.5584 0.98575 0.0
C261 C 0.31178 0.53984 0.01787 0.0
C262 C 0.33751 0.57047 0.99293 0.0
C263 C 0.32676 0.49713 0.03381 0.0
H264 H 0.26851 0.47174 0.06155 0.0
N265 N 0.42338 0.43567 0.02943 0.0
C266 C 0.38338 0.44447 0.03846 0.0
C267 C 0.37138 0.36869 0.06558 0.0
C268 C 0.35652 0.41124 0.05757 0.0
C269 C 0.43692 0.39425 0.03408 0.0
C270 C 0.41147 0.36016 0.05305 0.0
O271 O 0.57168 0.52123 0.01919 0.0
O272 O 0.50701 0.55084 0.97711 0.0
O273 O 0.47821 0.46829 0.93736 0.0
O274 O 0.42043 0.5075 0.92804 0.0
O275 O 0.49865 0.55386 0.09347 0.0
O276 O 0.47265 0.56156 0.01148 0.0
O277 O 0.47079 0.4568 0.07723 0.0
O278 O 0.50297 0.50104 0.12684 0.0
O279 O 0.59455 0.54786 0.1608 0.0
O280 O 0.60395 0.48051 0.15914 0.0
O281 O 0.52502 0.45301 0.01244 0.0
O282 O 0.56091 0.4539 0.09109 0.0
C283 C 0.54882 0.5448 0.97946 0.0
C284 C 0.47077 0.57073 0.05396 0.0
C285 C 0.41554 0.45064 0.88733 0.0
C286 C 0.39929 0.41054 0.8231 0.0
C287 C 0.35819 0.39824 0.89064 0.0
C288 C 0.38217 0.42919 0.91034 0.0
C289 C 0.36675 0.38879 0.84736 0.0
C290 C 0.42371 0.44158 0.8432 0.0
C291 C 0.44165 0.48237 0.90921 0.0
C292 C 0.31546 0.4215 0.06693 0.0
C293 C 0.30067 0.46438 0.05522 0.0
H294 H 0.35169 0.34222 0.08018 0.0
C295 C 0.47789 0.46899 0.11918 0.0
C296 C 0.55307 0.43658 0.05242 0.0
C297 C 0.63943 0.50262 0.2322 0.0
C298 C 0.65793 0.51667 0.31444 0.0
C299 C 0.69877 0.46278 0.29032 0.0
C300 C 0.67263 0.47099 0.24423 0.0
C301 C 0.69166 0.48549 0.32514 0.0
C302 C 0.63233 0.52567 0.26732 0.0
C303 C 0.61192 0.51055 0.18343 0.0
H304 H 0.33264 0.3818 0.90876 0.0
H305 H 0.37426 0.43657 0.94329 0.0
H306 H 0.34735 0.36506 0.83219 0.0
H307 H 0.44895 0.4584 0.82473 0.0
H308 H 0.7247 0.43874 0.2991 0.0
H309 H 0.67865 0.4529 0.21778 0.0
H310 H 0.71286 0.47888 0.36041 0.0
H311 H 0.60632 0.54971 0.25846 0.0
C312 C 0.15256 0.14511 0.5349 0.0
C313 C 0.15752 0.16067 0.48541 0.0
C314 C 0.12302 0.11282 0.5484 0.0
C315 C 0.09768 0.0943 0.51306 0.0
H316 H 0.1719 0.15782 0.56366 0.0
H317 H 0.12044 0.10191 0.5869 0.0
S318 S 0.09596 0.12489 0.3784 0.0
N319 N 0.1327 0.1562 0.40077 0.0
N320 N 0.07807 0.09471 0.42631 0.0
C321 C 0.10219 0.10936 0.4635 0.0
C322 C 0.13192 0.14265 0.44965 0.0
C323 C 0.40443 0.67392 0.02026 0.0
C324 C 0.37572 0.66699 0.05476 0.0
C325 C 0.43591 0.64294 0.02094 0.0
C326 C 0.44008 0.60424 0.05648 0.0
H327 H 0.40221 0.70336 0.99213 0.0
H328 H 0.45686 0.64909 0.9932 0.0
S329 S 0.3725 0.56949 0.1538 0.0
N330 N 0.35298 0.61782 0.12466 0.0
N331 N 0.41322 0.56001 0.12657 0.0
C332 C 0.41246 0.59712 0.09184 0.0
C333 C 0.37996 0.62843 0.09083 0.0
C334 C 0.86218 0.86432 0.55437 0.0
C335 C 0.84736 0.85505 0.60001 0.0
C336 C 0.89485 0.89419 0.5447 0.0
C337 C 0.91465 0.91577 0.58044 0.0
H338 H 0.84864 0.84813 0.52577 0.0
H339 H 0.90455 0.90047 0.50877 0.0
S340 S 0.88805 0.90334 0.70604 0.0
N341 N 0.85449 0.87101 0.68093 0.0
N342 N 0.91761 0.9251 0.66388 0.0
C343 C 0.90062 0.90647 0.6265 0.0
C344 C 0.86673 0.87659 0.63604 0.0
C345 C 0.64047 0.34835 0.09353 0.0
C346 C 0.63585 0.32759 0.05422 0.0
C347 C 0.61293 0.38269 0.09302 0.0
C348 C 0.57963 0.39807 0.05299 0.0
H349 H 0.66631 0.33862 0.12462 0.0
H350 H 0.61854 0.39771 0.12409 0.0
S351 S 0.55175 0.35236 0.94236 0.0
N352 N 0.59378 0.32284 0.97555 0.0
N353 N 0.54237 0.38798 0.97379 0.0
C354 C 0.57399 0.37687 0.0138 0.0
C355 C 0.60204 0.34163 0.01454 0.0
C356 C 0.09441 0.8547 0.24036 0.0
C357 C 0.12517 0.88357 0.22143 0.0
C358 C 0.07 0.86404 0.27429 0.0
C359 C 0.07596 0.90229 0.29095 0.0
H360 H 0.08842 0.82516 0.22791 0.0
H361 H 0.0463 0.84116 0.28765 0.0
S362 S 0.15339 0.9878 0.25375 0.0
N363 N 0.16096 0.95147 0.22244 0.0
N364 N 0.11523 0.96892 0.28662 0.0
C365 C 0.10719 0.93105 0.27303 0.0
C366 C 0.13171 0.92175 0.23808 0.0
C367 C 0.57688 0.62238 0.86651 0.0
C368 C 0.60916 0.59964 0.85235 0.0
C369 C 0.55729 0.60429 0.90754 0.0
C370 C 0.5699 0.5632 0.9364 0.0
H371 H 0.56599 0.65398 0.84504 0.0
H372 H 0.53233 0.62274 0.91696 0.0
S373 S 0.65379 0.49103 0.91594 0.0
N374 N 0.65345 0.53424 0.87113 0.0
N375 N 0.61689 0.50045 0.94831 0.0
C376 C 0.60269 0.54049 0.92323 0.0
C377 C 0.62222 0.55865 0.88117 0.0
C378 C 0.93577 0.10198 0.34176 0.0
C379 C 0.90737 0.07716 0.31597 0.0
C380 C 0.95486 0.08567 0.39066 0.0
C381 C 0.94595 0.04406 0.4157 0.0
H382 H 0.94341 0.13422 0.32388 0.0
H383 H 0.977 0.10576 0.40883 0.0
S384 S 0.86998 0.96813 0.36605 0.0
N385 N 0.86921 0.01006 0.31959 0.0
N386 N 0.90428 0.97965 0.41208 0.0
C387 C 0.91693 0.01923 0.39059 0.0
C388 C 0.89782 0.03573 0.34057 0.0
C389 C 0.39162 0.4219 0.68619 0.0
C390 C 0.39845 0.37928 0.68295 0.0
C391 C 0.39524 0.43276 0.73206 0.0
C392 C 0.40577 0.4013 0.77587 0.0
H393 H 0.38064 0.44635 0.6533 0.0
H394 H 0.38697 0.46525 0.7333 0.0
S395 S 0.43423 0.28708 0.78698 0.0
N396 N 0.42203 0.30696 0.72723 0.0
N397 N 0.42823 0.32735 0.81325 0.0
C398 C 0.41597 0.35947 0.77297 0.0
C399 C 0.41249 0.34847 0.7265 0.0
C400 C 0.64615 0.60801 0.37784 0.0
C401 C 0.64707 0.58657 0.42727 0.0
C402 C 0.64774 0.58522 0.3411 0.0
C403 C 0.65051 0.54011 0.35241 0.0
H404 H 0.64518 0.64276 0.36761 0.0
H405 H 0.64857 0.60312 0.30396 0.0
S406 S 0.65012 0.46843 0.47513 0.0
N407 N 0.64879 0.51735 0.48488 0.0
N408 N 0.65025 0.47472 0.41569 0.0
C409 C 0.64928 0.51825 0.40117 0.0
C410 C 0.64786 0.54139 0.43859 0.0
C411 C 0.92429 0.1755 0.84602 0.0
C412 C 0.88625 0.15318 0.8556 0.0
C413 C 0.94015 0.17748 0.80192 0.0
C414 C 0.91893 0.15666 0.76611 0.0
H415 H 0.94138 0.19236 0.87237 0.0
H416 H 0.96936 0.19532 0.79585 0.0
S417 S 0.81886 0.09286 0.77415 0.0
N418 N 0.82828 0.1091 0.82621 0.0
N419 N 0.85818 0.1126 0.74349 0.0
C420 C 0.88129 0.13361 0.77564 0.0
C421 C 0.86489 0.13199 0.82029 0.0
C422 C 0.39552 0.4236 0.20127 0.0
C423 C 0.42192 0.40055 0.2441 0.0
C424 C 0.41378 0.44538 0.16066 0.0
C425 C 0.4589 0.44426 0.16105 0.0
H426 H 0.36064 0.42615 0.19977 0.0
H427 H 0.39256 0.46454 0.12963 0.0
S428 S 0.54223 0.38727 0.26275 0.0
N429 N 0.49567 0.37702 0.28351 0.0
N430 N 0.52958 0.41793 0.20696 0.0
C431 C 0.48561 0.421 0.20314 0.0
C432 C 0.46721 0.39901 0.24463 0.0
C433 C 0.07142 0.91942 0.76575 0.0
C434 C 0.11541 0.92823 0.77975 0.0
C435 C 0.04984 0.93592 0.71794 0.0
C436 C 0.07154 0.9618 0.68261 0.0
H437 H 0.05373 0.89924 0.79184 0.0
H438 H 0.01609 0.92788 0.70843 0.0
S439 S 0.18551 0.99761 0.70231 0.0
N440 N 0.17929 0.9662 0.75553 0.0
N441 N 0.13841 0.99793 0.66568 0.0
C442 C 0.11529 0.97146 0.69636 0.0
C443 C 0.13734 0.95445 0.74497 0.0
loop_
_geom_bond_atom_site_label_1
_geom_bond_atom_site_label_2
_geom_bond_distance
_geom_bond_site_symmetry_2
_ccdc_geom_bond_type
C0 C1 1.384 . S
C0 H13 0.947 . S
C0 C35 1.382 . S
C1 C0 1.384 . S
C1 C2 1.378 . S
C2 C1 1.378 . S
C2 C3 1.378 . S
C2 H14 0.952 . S
C3 C2 1.378 . S
C3 H15 0.950 . S
C3 C34 1.383 . S
H4 C23 0.947 . S
H5 C24 0.946 . S
H6 C26 0.953 . S
H7 C27 0.945 . S
H8 C29 0.952 . S
H9 C30 0.949 . S
H10 C32 0.950 . S
H11 C33 0.948 . S
H12 C35 0.951 . S
H13 C0 0.947 . S
H14 C2 0.952 . S
H15 C3 0.950 . S
N16 C19 1.382 . S
N16 C21 1.363 . S
N17 C19 1.371 1_556 S
N17 C20 1.372 . S
N18 C20 1.361 1_554 S
N18 C21 1.377 . S
C19 N16 1.382 . S
C19 N17 1.371 1_554 S
C19 C22 1.480 . S
C20 N17 1.372 . S
C20 N18 1.361 1_556 S
C20 C28 1.457 . S
C21 N16 1.363 . S
C21 N18 1.377 . S
C21 C34 1.479 . S
C22 C19 1.480 . S
C22 C23 1.383 . S
C22 C27 1.385 1_554 S
C23 H4 0.947 . S
C23 C22 1.383 . S
C23 C24 1.388 . S
C24 H5 0.946 . S
C24 C23 1.388 . S
C24 C25 1.384 . S
C25 C24 1.384 . S
C25 C26 1.377 1_554 S
C26 H6 0.953 . S
C26 C25 1.377 1_556 S
C26 C27 1.369 . S
C27 H7 0.945 . S
C27 C22 1.385 1_556 S
C27 C26 1.369 . S
C28 C20 1.457 . S
C28 C29 1.372 . S
C28 C33 1.364 . S
C29 H8 0.952 . S
C29 C28 1.372 . S
C29 C30 1.389 . S
C30 H9 0.949 . S
C30 C29 1.389 . S
C30 C31 1.387 . S
C31 C30 1.387 . S
C31 C32 1.372 . S
C32 H10 0.950 . S
C32 C31 1.372 . S
C32 C33 1.379 . S
C33 H11 0.948 . S
C33 C28 1.364 . S
C33 C32 1.379 . S
C34 C3 1.383 . S
C34 C21 1.479 . S
C34 C35 1.398 . S
C35 C0 1.382 . S
C35 H12 0.951 . S
C35 C34 1.398 . S
C36 C37 1.384 . S
C36 H49 0.947 . S
C36 C71 1.382 . S
C37 C36 1.384 . S
C37 C38 1.378 . S
C38 C37 1.378 . S
C38 C39 1.378 . S
C38 H50 0.952 . S
C39 C38 1.378 . S
C39 H51 0.950 . S
C39 C70 1.383 . S
H40 C59 0.947 . S
H41 C60 0.946 . S
H42 C62 0.953 . S
H43 C63 0.945 . S
H44 C65 0.952 . S
H45 C66 0.949 . S
H46 C68 0.950 . S
H47 C69 0.948 . S
H48 C71 0.951 . S
H49 C36 0.947 . S
H50 C38 0.952 . S
H51 C39 0.950 . S
N52 C55 1.382 . S
N52 C57 1.363 . S
N53 C55 1.371 . S
N53 C56 1.372 . S
N54 C56 1.361 . S
N54 C57 1.377 . S
C55 N52 1.382 . S
C55 N53 1.371 . S
C55 C58 1.480 . S
C56 N53 1.372 . S
C56 N54 1.361 . S
C56 C64 1.457 . S
C57 N52 1.363 . S
C57 N54 1.377 . S
C57 C70 1.479 . S
C58 C55 1.480 . S
C58 C59 1.383 . S
C58 C63 1.385 . S
C59 H40 0.947 . S
C59 C58 1.383 . S
C59 C60 1.388 . S
C60 H41 0.946 . S
C60 C59 1.388 . S
C60 C61 1.384 . S
C61 C60 1.384 . S
C61 C62 1.377 . S
C62 H42 0.953 . S
C62 C61 1.377 . S
C62 C63 1.369 . S
C63 H43 0.945 . S
C63 C58 1.385 . S
C63 C62 1.369 . S
C64 C56 1.457 . S
C64 C65 1.372 . S
C64 C69 1.364 . S
C65 H44 0.952 . S
C65 C64 1.372 . S
C65 C66 1.389 . S
C66 H45 0.949 . S
C66 C65 1.389 . S
C66 C67 1.387 . S
C67 C66 1.387 . S
C67 C68 1.372 . S
C68 H46 0.950 . S
C68 C67 1.372 . S
C68 C69 1.379 . S
C69 H47 0.948 . S
C69 C64 1.364 . S
C69 C68 1.379 . S
C70 C39 1.383 . S
C70 C57 1.479 . S
C70 C71 1.398 . S
C71 C36 1.382 . S
C71 H48 0.951 . S
C71 C70 1.398 . S
C72 C73 1.384 . S
C72 H85 0.947 . S
C72 C107 1.382 . S
C73 C72 1.384 . S
C73 C74 1.378 . S
C74 C73 1.378 . S
C74 C75 1.378 . S
C74 H86 0.952 . S
C75 C74 1.378 . S
C75 H87 0.950 . S
C75 C106 1.383 . S
H76 C95 0.947 1_556 S
H77 C96 0.946 1_556 S
H78 C98 0.953 . S
H79 C99 0.945 . S
H80 C101 0.952 . S
H81 C102 0.949 . S
H82 C104 0.950 . S
H83 C105 0.948 . S
H84 C107 0.951 1_554 S
H85 C72 0.947 . S
H86 C74 0.952 . S
H87 C75 0.950 . S
N88 C91 1.382 . S
N88 C93 1.363 . S
N89 C91 1.371 . S
N89 C92 1.372 . S
N90 C92 1.361 . S
N90 C93 1.377 . S
C91 N88 1.382 . S
C91 N89 1.371 . S
C91 C94 1.480 . S
C92 N89 1.372 . S
C92 N90 1.361 . S
C92 C100 1.457 . S
C93 N88 1.363 . S
C93 N90 1.377 . S
C93 C106 1.479 1_554 S
C94 C91 1.480 . S
C94 C95 1.383 . S
C94 C99 1.385 . S
C95 H76 0.947 1_554 S
C95 C94 1.383 . S
C95 C96 1.388 . S
C96 H77 0.946 1_554 S
C96 C95 1.388 . S
C96 C97 1.384 . S
C97 C96 1.384 . S
C97 C98 1.377 . S
C98 H78 0.953 . S
C98 C97 1.377 . S
C98 C99 1.369 . S
C99 H79 0.945 . S
C99 C94 1.385 . S
C99 C98 1.369 . S
C100 C92 1.457 . S
C100 C101 1.372 . S
C100 C105 1.364 . S
C101 H80 0.952 . S
C101 C100 1.372 . S
C101 C102 1.389 . S
C102 H81 0.949 . S
C102 C101 1.389 . S
C102 C103 1.387 . S
C103 C102 1.387 . S
C103 C104 1.372 . S
C104 H82 0.950 . S
C104 C103 1.372 . S
C104 C105 1.379 . S
C105 H83 0.948 . S
C105 C100 1.364 . S
C105 C104 1.379 . S
C106 C75 1.383 . S
C106 C93 1.479 1_556 S
C106 C107 1.398 . S
C107 C72 1.382 . S
C107 H84 0.951 1_556 S
C107 C106 1.398 . S
C108 C109 1.384 . S
C108 H121 0.947 . S
C108 C143 1.382 . S
C109 C108 1.384 . S
C109 C110 1.378 . S
C110 C109 1.378 . S
C110 C111 1.378 . S
C110 H122 0.952 . S
C111 C110 1.378 . S
C111 H123 0.950 . S
C111 C142 1.383 . S
H112 C131 0.947 . S
H113 C132 0.946 . S
H114 C134 0.953 . S
H115 C135 0.945 . S
H116 C137 0.952 . S
H117 C138 0.949 . S
H118 C140 0.950 . S
H119 C141 0.948 . S
H120 C143 0.951 . S
H121 C108 0.947 . S
H122 C110 0.952 . S
H123 C111 0.950 . S
N124 C127 1.382 . S
N124 C129 1.363 . S
N125 C127 1.371 . S
N125 C128 1.372 . S
N126 C128 1.361 . S
N126 C129 1.377 . S
C127 N124 1.382 . S
C127 N125 1.371 . S
C127 C130 1.480 . S
C128 N125 1.372 . S
C128 N126 1.361 . S
C128 C136 1.457 . S
C129 N124 1.363 . S
C129 N126 1.377 . S
C129 C142 1.479 . S
C130 C127 1.480 . S
C130 C131 1.383 . S
C130 C135 1.385 . S
C131 H112 0.947 . S
C131 C130 1.383 . S
C131 C132 1.388 . S
C132 H113 0.946 . S
C132 C131 1.388 . S
C132 C133 1.384 . S
C133 C132 1.384 . S
C133 C134 1.377 . S
C134 H114 0.953 . S
C134 C133 1.377 . S
C134 C135 1.369 . S
C135 H115 0.945 . S
C135 C130 1.385 . S
C135 C134 1.369 . S
C136 C128 1.457 . S
C136 C137 1.372 . S
C136 C141 1.364 . S
C137 H116 0.952 . S
C137 C136 1.372 . S
C137 C138 1.389 . S
C138 H117 0.949 . S
C138 C137 1.389 . S
C138 C139 1.387 . S
C139 C138 1.387 . S
C139 C140 1.372 . S
C140 H118 0.950 . S
C140 C139 1.372 . S
C140 C141 1.379 . S
C141 H119 0.948 . S
C141 C136 1.364 . S
C141 C140 1.379 . S
C142 C111 1.383 . S
C142 C129 1.479 . S
C142 C143 1.398 . S
C143 C108 1.382 . S
C143 H120 0.951 . S
C143 C142 1.398 . S
C144 C146 1.422 . S
C144 C148 1.415 . S
C144 N150 1.369 . S
C145 C146 1.421 . S
C145 C147 1.417 . S
C145 C157 1.422 . S
C146 C144 1.422 . S
C146 C145 1.421 . S
C146 N156 1.359 . S
C147 C145 1.417 . S
C147 C149 1.329 . S
C147 H166 0.930 . S
C148 C144 1.415 . S
C148 C149 1.437 . S
C148 C152 1.413 . S
C149 C147 1.329 . S
C149 C148 1.437 . S
C149 H171 0.929 . S
N150 C144 1.369 . S
N150 C151 1.338 . S
N150 Gd155 2.622 . S
C151 N150 1.338 . S
C151 C153 1.378 . S
C151 H163 0.929 1_655 S
C152 C148 1.413 . S
C152 C153 1.348 . S
C152 H168 0.931 . S
C153 C151 1.378 . S
C153 C152 1.348 . S
C153 H169 0.930 1_655 S
Gd154 N174 2.622 . S
Gd154 N181 2.570 . S
Gd154 O188 2.345 1_465 S
Gd154 O189 2.468 . S
Gd154 O190 2.427 . S
Gd154 O192 2.388 1_455 S
Gd154 O193 2.386 . S
Gd154 O197 2.307 1_565 S
Gd154 C207 2.805 . S
Gd155 N150 2.622 . S
Gd155 N156 2.570 . S
Gd155 O187 2.386 . S
Gd155 O191 2.307 1_545 S
Gd155 O194 2.353 1_655 S
Gd155 O195 2.468 . S
Gd155 O196 2.427 . S
Gd155 O198 2.388 1_655 S
Gd155 C219 2.805 . S
N156 C146 1.359 . S
N156 Gd155 2.570 . S
N156 C158 1.343 . S
C157 C145 1.422 . S
C157 C159 1.321 . S
C157 H165 0.931 . S
C158 N156 1.343 . S
C158 C159 1.390 . S
C158 H160 0.931 . S
C159 C157 1.321 . S
C159 C158 1.390 . S
C159 H161 0.930 . S
H160 C158 0.931 . S
H161 C159 0.930 . S
H162 C185 0.931 . S
H163 C151 0.929 1_455 S
H164 C186 0.930 . S
H165 C157 0.931 . S
H166 C147 0.930 . S
H167 C176 0.929 1_655 S
H168 C152 0.931 . S
H169 C153 0.930 1_455 S
H170 C208 0.930 . S
H171 C149 0.929 . S
H172 C177 0.931 . S
H173 C178 0.930 1_655 S
N174 Gd154 2.622 . S
N174 C175 1.369 . S
N174 C176 1.338 . S
C175 N174 1.369 . S
C175 C179 1.415 . S
C175 C182 1.422 . S
C176 H167 0.929 1_455 S
C176 N174 1.338 . S
C176 C178 1.378 . S
C177 H172 0.931 . S
C177 C178 1.348 . S
C177 C179 1.413 . S
C178 H173 0.930 1_455 S
C178 C176 1.378 . S
C178 C177 1.348 . S
C179 C175 1.415 . S
C179 C177 1.413 . S
C179 C209 1.437 . S
H180 C209 0.929 . S
N181 Gd154 2.570 . S
N181 C182 1.359 . S
N181 C185 1.343 . S
C182 C175 1.422 . S
C182 N181 1.359 . S
C182 C184 1.421 . S
C183 C184 1.422 . S
C183 C186 1.321 . S
C183 H210 0.931 . S
C184 C182 1.421 . S
C184 C183 1.422 . S
C184 C208 1.417 . S
C185 H162 0.931 . S
C185 N181 1.343 . S
C185 C186 1.390 . S
C186 H164 0.930 . S
C186 C183 1.321 . S
C186 C185 1.390 . S
O187 Gd155 2.386 . S
O187 C199 1.265 . S
O188 Gd154 2.345 1_645 S
O188 C199 1.255 . S
O189 Gd154 2.468 . S
O189 C207 1.263 . S
O190 Gd154 2.427 . S
O190 C207 1.252 . S
O191 Gd155 2.307 1_565 S
O191 C200 1.261 . S
O192 Gd154 2.388 1_655 S
O192 C200 1.252 . S
O193 Gd154 2.386 . S
O193 C211 1.265 . S
O194 Gd155 2.353 1_455 S
O194 C211 1.242 1_545 S
O195 Gd155 2.468 . S
O195 C219 1.263 . S
O196 Gd155 2.427 . S
O196 C219 1.252 . S
O197 Gd154 2.307 1_545 S
O197 C212 1.261 . S
O198 Gd155 2.388 1_455 S
O198 C212 1.252 . S
C199 O187 1.265 . S
C199 O188 1.255 . S
C200 O191 1.261 . S
C200 O192 1.252 . S
C201 C204 1.394 . S
C201 C206 1.370 . S
C201 C207 1.500 . S
C202 C205 1.383 . S
C202 C206 1.395 . S
C203 C204 1.396 . S
C203 C205 1.365 . S
C203 H220 0.929 . S
C204 C201 1.394 . S
C204 C203 1.396 . S
C204 H221 0.930 . S
C205 C202 1.383 . S
C205 C203 1.365 . S
C205 H222 0.931 . S
C206 C201 1.370 . S
C206 C202 1.395 . S
C206 H223 0.930 . S
C207 Gd154 2.805 . S
C207 O189 1.263 . S
C207 O190 1.252 . S
C207 C201 1.500 . S
C208 H170 0.930 . S
C208 C184 1.417 . S
C208 C209 1.329 . S
C209 C179 1.437 . S
C209 H180 0.929 . S
C209 C208 1.329 . S
H210 C183 0.931 . S
C211 O193 1.265 . S
C211 O194 1.242 1_565 S
C212 O197 1.261 . S
C212 O198 1.252 . S
C213 C216 1.394 . S
C213 C218 1.370 . S
C213 C219 1.500 . S
C214 C217 1.383 . S
C214 C218 1.395 . S
C215 C216 1.396 . S
C215 C217 1.365 . S
C215 H224 0.929 . S
C216 C213 1.394 . S
C216 C215 1.396 . S
C216 H225 0.930 . S
C217 C214 1.383 . S
C217 C215 1.365 . S
C217 H226 0.931 . S
C218 C213 1.370 . S
C218 C214 1.395 . S
C218 H227 0.930 . S
C219 Gd155 2.805 . S
C219 O195 1.263 . S
C219 O196 1.252 . S
C219 C213 1.500 . S
H220 C203 0.929 . S
H221 C204 0.930 . S
H222 C205 0.931 . S
H223 C206 0.930 . S
H224 C215 0.929 . S
H225 C216 0.930 . S
H226 C217 0.931 . S
H227 C218 0.930 . S
C228 C230 1.422 . S
C228 C232 1.415 . S
C228 N234 1.369 . S
C229 C230 1.421 . S
C229 C231 1.417 . S
C229 C241 1.422 . S
C230 C228 1.422 . S
C230 C229 1.421 . S
C230 N240 1.359 . S
C231 C229 1.417 . S
C231 C233 1.329 . S
C231 H250 0.930 . S
C232 C228 1.415 . S
C232 C233 1.437 . S
C232 C236 1.413 . S
C233 C231 1.329 . S
C233 C232 1.437 . S
C233 H255 0.929 . S
N234 C228 1.369 . S
N234 C235 1.338 . S
N234 Gd239 2.622 . S
C235 N234 1.338 . S
C235 C237 1.378 . S
C235 H247 0.929 . S
C236 C232 1.413 . S
C236 C237 1.348 . S
C236 H252 0.931 . S
C237 C235 1.378 . S
C237 C236 1.348 . S
C237 H253 0.930 . S
Gd238 N258 2.621 . S
Gd238 N265 2.570 1_556 S
Gd238 O272 2.353 . S
Gd238 O273 2.468 . S
Gd238 O274 2.427 . S
Gd238 O276 2.388 1_556 S
Gd238 O277 2.386 1_556 S
Gd238 O281 2.307 1_556 S
Gd238 C291 2.805 . S
Gd239 N234 2.622 . S
Gd239 N240 2.570 . S
Gd239 O271 2.386 . S
Gd239 O275 2.307 . S
Gd239 O278 2.353 . S
Gd239 O279 2.468 . S
Gd239 O280 2.427 . S
Gd239 O282 2.388 . S
Gd239 C303 2.805 . S
N240 C230 1.359 . S
N240 Gd239 2.570 . S
N240 C242 1.343 . S
C241 C229 1.422 . S
C241 C243 1.321 . S
C241 H249 0.931 . S
C242 N240 1.343 . S
C242 C243 1.390 . S
C242 H244 0.931 . S
C243 C241 1.321 . S
C243 C242 1.390 . S
C243 H245 0.930 . S
H244 C242 0.931 . S
H245 C243 0.930 . S
H246 C269 0.931 . S
H247 C235 0.929 . S
H248 C270 0.930 . S
H249 C241 0.931 . S
H250 C231 0.930 . S
H251 C260 0.929 . S
H252 C236 0.931 . S
H253 C237 0.930 . S
H254 C292 0.930 . S
H255 C233 0.929 . S
H256 C261 0.931 . S
H257 C262 0.930 . S
N258 Gd238 2.621 . S
N258 C259 1.370 1_556 S
N258 C260 1.338 . S
C259 N258 1.370 1_554 S
C259 C263 1.415 . S
C259 C266 1.422 . S
C260 H251 0.929 . S
C260 N258 1.338 . S
C260 C262 1.378 . S
C261 H256 0.931 . S
C261 C262 1.348 1_554 S
C261 C263 1.413 . S
C262 H257 0.930 . S
C262 C260 1.378 . S
C262 C261 1.348 1_556 S
C263 C259 1.415 . S
C263 C261 1.413 . S
C263 C293 1.437 . S
H264 C293 0.929 . S
N265 Gd238 2.570 1_554 S
N265 C266 1.359 . S
N265 C269 1.343 . S
C266 C259 1.422 . S
C266 N265 1.359 . S
C266 C268 1.421 . S
C267 C268 1.422 . S
C267 C270 1.321 . S
C267 H294 0.931 . S
C268 C266 1.421 . S
C268 C267 1.422 . S
C268 C292 1.417 . S
C269 H246 0.931 . S
C269 N265 1.343 . S
C269 C270 1.390 . S
C270 H248 0.930 . S
C270 C267 1.321 . S
C270 C269 1.390 . S
O271 Gd239 2.386 . S
O271 C283 1.265 1_554 S
O272 Gd238 2.353 . S
O272 C283 1.242 . S
O273 Gd238 2.468 . S
O273 C291 1.263 . S
O274 Gd238 2.427 . S
O274 C291 1.252 . S
O275 Gd239 2.307 . S
O275 C284 1.261 . S
O276 Gd238 2.388 1_554 S
O276 C284 1.252 . S
O277 Gd238 2.386 1_554 S
O277 C295 1.265 . S
O278 Gd239 2.353 . S
O278 C295 1.242 . S
O279 Gd239 2.468 . S
O279 C303 1.263 . S
O280 Gd239 2.427 . S
O280 C303 1.252 . S
O281 Gd238 2.307 1_554 S
O281 C296 1.261 . S
O282 Gd239 2.388 . S
O282 C296 1.252 . S
C283 O271 1.265 1_556 S
C283 O272 1.242 . S
C284 O275 1.261 . S
C284 O276 1.252 . S
C285 C288 1.394 . S
C285 C290 1.370 . S
C285 C291 1.500 . S
C286 C289 1.383 . S
C286 C290 1.395 . S
C287 C288 1.396 . S
C287 C289 1.365 . S
C287 H304 0.929 . S
C288 C285 1.394 . S
C288 C287 1.396 . S
C288 H305 0.930 . S
C289 C286 1.383 . S
C289 C287 1.365 . S
C289 H306 0.931 . S
C290 C285 1.370 . S
C290 C286 1.395 . S
C290 H307 0.930 . S
C291 Gd238 2.805 . S
C291 O273 1.263 . S
C291 O274 1.252 . S
C291 C285 1.500 . S
C292 H254 0.930 . S
C292 C268 1.417 . S
C292 C293 1.329 . S
C293 C263 1.437 . S
C293 H264 0.929 . S
C293 C292 1.329 . S
H294 C267 0.931 . S
C295 O277 1.265 . S
C295 O278 1.242 . S
C296 O281 1.261 . S
C296 O282 1.252 . S
C297 C300 1.394 . S
C297 C302 1.370 . S
C297 C303 1.500 . S
C298 C301 1.383 . S
C298 C302 1.395 . S
C299 C300 1.396 . S
C299 C301 1.365 . S
C299 H308 0.929 . S
C300 C297 1.394 . S
C300 C299 1.396 . S
C300 H309 0.930 . S
C301 C298 1.383 . S
C301 C299 1.365 . S
C301 H310 0.931 . S
C302 C297 1.370 . S
C302 C298 1.395 . S
C302 H311 0.930 . S
C303 Gd239 2.805 . S
C303 O279 1.263 . S
C303 O280 1.252 . S
C303 C297 1.500 . S
H304 C287 0.929 . S
H305 C288 0.930 . S
H306 C289 0.931 . S
H307 C290 0.930 . S
H308 C299 0.929 . S
H309 C300 0.930 . S
H310 C301 0.931 . S
H311 C302 0.930 . S
C312 C313 1.369 . S
C312 C314 1.419 . S
C312 H316 0.930 . S
C313 C312 1.369 . S
C313 C322 1.429 . S
C314 C312 1.419 . S
C314 C315 1.363 . S
C314 H317 0.929 . S
C315 C314 1.363 . S
C315 C321 1.428 . S
H316 C312 0.930 . S
H317 C314 0.929 . S
S318 N319 1.613 . S
S318 N320 1.610 . S
N319 S318 1.613 . S
N319 C322 1.350 . S
N320 S318 1.610 . S
N320 C321 1.351 . S
C321 C315 1.428 . S
C321 N320 1.351 . S
C321 C322 1.434 . S
C322 C313 1.429 . S
C322 N319 1.350 . S
C322 C321 1.434 . S
C323 C324 1.369 . S
C323 C325 1.419 . S
C323 H327 0.930 . S
C324 C323 1.369 . S
C324 C333 1.429 . S
C325 C323 1.419 . S
C325 C326 1.363 . S
C325 H328 0.929 . S
C326 C325 1.363 . S
C326 C332 1.428 . S
H327 C323 0.930 . S
H328 C325 0.929 . S
S329 N330 1.613 . S
S329 N331 1.610 . S
N330 S329 1.613 . S
N330 C333 1.350 . S
N331 S329 1.610 . S
N331 C332 1.351 . S
C332 C326 1.428 . S
C332 N331 1.351 . S
C332 C333 1.434 . S
C333 C324 1.429 . S
C333 N330 1.350 . S
C333 C332 1.434 . S
C334 C335 1.369 . S
C334 C336 1.419 . S
C334 H338 0.930 . S
C335 C334 1.369 . S
C335 C344 1.429 . S
C336 C334 1.419 . S
C336 C337 1.363 . S
C336 H339 0.929 . S
C337 C336 1.363 . S
C337 C343 1.428 . S
H338 C334 0.930 . S
H339 C336 0.929 . S
S340 N341 1.613 1_545 S
S340 N342 1.610 1_545 S
N341 S340 1.613 1_565 S
N341 C344 1.350 . S
N342 S340 1.610 1_565 S
N342 C343 1.351 . S
C343 C337 1.428 . S
C343 N342 1.351 . S
C343 C344 1.434 . S
C344 C335 1.429 . S
C344 N341 1.350 . S
C344 C343 1.434 . S
C345 C346 1.369 . S
C345 C347 1.419 . S
C345 H349 0.930 . S
C346 C345 1.369 . S
C346 C355 1.429 1_554 S
C347 C345 1.419 . S
C347 C348 1.363 . S
C347 H350 0.929 . S
C348 C347 1.363 . S
C348 C354 1.449 . S
H349 C345 0.930 . S
H350 C347 0.929 . S
S351 N352 1.613 . S
S351 N353 1.610 . S
N352 S351 1.613 . S
N352 C355 1.350 . S
N353 S351 1.610 . S
N353 C354 1.336 1_556 S
C354 C348 1.449 . S
C354 N353 1.336 1_554 S
C354 C355 1.426 1_554 S
C355 C346 1.429 1_556 S
C355 N352 1.350 . S
C355 C354 1.426 1_556 S
C356 C357 1.369 . S
C356 C358 1.419 . S
C356 H360 0.930 . S
C357 C356 1.369 . S
C357 C366 1.429 . S
C358 C356 1.419 . S
C358 C359 1.363 . S
C358 H361 0.929 . S
C359 C358 1.363 . S
C359 C365 1.428 . S
H360 C356 0.930 . S
H361 C358 0.929 . S
S362 N363 1.626 . S
S362 N364 1.610 . S
N363 S362 1.626 . S
N363 C366 1.340 1_545 S
N364 S362 1.610 . S
N364 C365 1.351 1_545 S
C365 C359 1.428 . S
C365 N364 1.351 1_565 S
C365 C366 1.434 . S
C366 C357 1.429 . S
C366 N363 1.340 1_565 S
C366 C365 1.434 . S
C367 C368 1.369 . S
C367 C369 1.419 . S
C367 H371 0.930 . S
C368 C367 1.369 . S
C368 C377 1.429 . S
C369 C367 1.419 . S
C369 C370 1.363 . S
C369 H372 0.929 . S
C370 C369 1.363 . S
C370 C376 1.428 . S
H371 C367 0.930 . S
H372 C369 0.929 . S
S373 N374 1.613 . S
S373 N375 1.610 . S
N374 S373 1.613 . S
N374 C377 1.350 . S
N375 S373 1.610 . S
N375 C376 1.351 . S
C376 C370 1.428 . S
C376 N375 1.351 . S
C376 C377 1.434 . S
C377 C368 1.429 . S
C377 N374 1.350 . S
C377 C376 1.434 . S
C378 C379 1.369 . S
C378 C380 1.419 . S
C378 H382 0.930 . S
C379 C378 1.369 . S
C379 C388 1.429 . S
C380 C378 1.419 . S
C380 C381 1.363 . S
C380 H383 0.929 . S
C381 C380 1.363 . S
C381 C387 1.428 . S
H382 C378 0.930 . S
H383 C380 0.929 . S
S384 N385 1.613 . S
S384 N386 1.610 . S
N385 S384 1.613 . S
N385 C388 1.350 1_565 S
N386 S384 1.610 . S
N386 C387 1.351 1_565 S
C387 C381 1.428 . S
C387 N386 1.351 1_545 S
C387 C388 1.434 . S
C388 C379 1.429 . S
C388 N385 1.350 1_545 S
C388 C387 1.434 . S
C389 C390 1.369 . S
C389 C391 1.419 . S
C389 H393 0.930 . S
C390 C389 1.369 . S
C390 C399 1.429 . S
C391 C389 1.419 . S
C391 C392 1.363 . S
C391 H394 0.929 . S
C392 C391 1.363 . S
C392 C398 1.428 . S
H393 C389 0.930 . S
H394 C391 0.929 . S
S395 N396 1.613 . S
S395 N397 1.610 . S
N396 S395 1.613 . S
N396 C399 1.350 . S
N397 S395 1.610 . S
N397 C398 1.351 . S
C398 C392 1.428 . S
C398 N397 1.351 . S
C398 C399 1.434 . S
C399 C390 1.429 . S
C399 N396 1.350 . S
C399 C398 1.434 . S
C400 C401 1.369 . S
C400 C402 1.419 . S
C400 H404 0.930 . S
C401 C400 1.369 . S
C401 C410 1.429 . S
C402 C400 1.419 . S
C402 C403 1.363 . S
C402 H405 0.929 . S
C403 C402 1.363 . S
C403 C409 1.428 . S
H404 C400 0.930 . S
H405 C402 0.929 . S
S406 N407 1.613 . S
S406 N408 1.610 . S
N407 S406 1.613 . S
N407 C410 1.350 . S
N408 S406 1.610 . S
N408 C409 1.351 . S
C409 C403 1.428 . S
C409 N408 1.351 . S
C409 C410 1.434 . S
C410 C401 1.429 . S
C410 N407 1.350 . S
C410 C409 1.434 . S
C411 C412 1.369 . S
C411 C413 1.419 . S
C411 H415 0.930 . S
C412 C411 1.369 . S
C412 C421 1.429 . S
C413 C411 1.419 . S
C413 C414 1.363 . S
C413 H416 0.929 . S
C414 C413 1.363 . S
C414 C420 1.428 . S
H415 C411 0.930 . S
H416 C413 0.929 . S
S417 N418 1.613 . S
S417 N419 1.610 . S
N418 S417 1.613 . S
N418 C421 1.350 . S
N419 S417 1.610 . S
N419 C420 1.351 . S
C420 C414 1.428 . S
C420 N419 1.351 . S
C420 C421 1.434 . S
C421 C412 1.429 . S
C421 N418 1.350 . S
C421 C420 1.434 . S
C422 C423 1.369 . S
C422 C424 1.419 . S
C422 H426 0.930 . S
C423 C422 1.369 . S
C423 C432 1.429 . S
C424 C422 1.419 . S
C424 C425 1.363 . S
C424 H427 0.929 . S
C425 C424 1.363 . S
C425 C431 1.428 . S
H426 C422 0.930 . S
H427 C424 0.929 . S
S428 N429 1.613 . S
S428 N430 1.610 . S
N429 S428 1.613 . S
N429 C432 1.350 . S
N430 S428 1.610 . S
N430 C431 1.351 . S
C431 C425 1.428 . S
C431 N430 1.351 . S
C431 C432 1.434 . S
C432 C423 1.429 . S
C432 N429 1.350 . S
C432 C431 1.434 . S
C433 C434 1.369 . S
C433 C435 1.419 . S
C433 H437 0.930 . S
C434 C433 1.369 . S
C434 C443 1.429 . S
C435 C433 1.419 . S
C435 C436 1.363 . S
C435 H438 0.929 . S
C436 C435 1.363 . S
C436 C442 1.428 . S
H437 C433 0.930 . S
H438 C435 0.929 . S
S439 N440 1.613 . S
S439 N441 1.610 . S
N440 S439 1.613 . S
N440 C443 1.350 . S
N441 S439 1.610 . S
N441 C442 1.351 . S
C442 C436 1.428 . S
C442 N441 1.351 . S
C442 C443 1.434 . S
C443 C434 1.429 . S
C443 N440 1.350 . S
C443 C442 1.434 . S
C315 C212 1.673 . S
C313 C133 1.667 . S
C324 C25 1.649 . S
C326 C284 1.660 . S
C335 C61 1.639 . S
C337 C200 1.671 . S
C346 C97 1.601 . S
C348 C296 1.659 . S
C359 C202 1.430 . S
C357 C1 1.558 . S
C370 C283 1.630 . S
C368 C67 1.581 . S
C379 C103 1.602 . S
C381 C199 1.663 . S
C390 C109 1.532 . S
C392 C286 1.413 . S
C403 C298 1.406 . S
C401 C37 1.523 . S
C414 C214 1.430 . S
C412 C73 1.540 . S
C425 C295 1.630 . S
C423 C139 1.610 . S
C434 C31 1.651 . S
C436 C211 1.663 . S
