# Generated by pormake.
# Topology sit, (3,6)-cn, num edge types: 1
# Building blocks:
#     Node 0, Type 0, BuildingBlock: BETDAH_clean_linker_0, # of connection points: 3
#     Node 1, Type 0, BuildingBlock: BETDAH_clean_linker_0, # of connection points: 3
#     Node 2, Type 0, BuildingBlock: BETDAH_clean_linker_0, # of connection points: 3
#     Node 3, Type 0, BuildingBlock: BETDAH_clean_linker_0, # of connection points: 3
#     Node 4, Type 1, BuildingBlock: MIDCAF_clean_sbu_0, # of connection points: 6
#     Node 5, Type 1, BuildingBlock: MIDCAF_clean_sbu_0, # of connection points: 6
#     Edge 6, Type (0, 1), BuildingBlock: MIFKUJ_clean_linker_0, # of connection points: 2
#     Edge 7, Type (0, 1), BuildingBlock: MIFKUJ_clean_linker_0, # of connection points: 2
#     Edge 8, Type (0, 1), BuildingBlock: MIFKUJ_clean_linker_0, # of connection points: 2
#     Edge 9, Type (0, 1), BuildingBlock: MIFKUJ_clean_linker_0, # of connection points: 2
#     Edge 10, Type (0, 1), BuildingBlock: MIFKUJ_clean_linker_0, # of connection points: 2
#     Edge 11, Type (0, 1), BuildingBlock: MIFKUJ_clean_linker_0, # of connection points: 2
#     Edge 12, Type (0, 1), BuildingBlock: MIFKUJ_clean_linker_0, # of connection points: 2
#     Edge 13, Type (0, 1), BuildingBlock: MIFKUJ_clean_linker_0, # of connection points: 2
#     Edge 14, Type (0, 1), BuildingBlock: MIFKUJ_clean_linker_0, # of connection points: 2
#     Edge 15, Type (0, 1), BuildingBlock: MIFKUJ_clean_linker_0, # of connection points: 2
#     Edge 16, Type (0, 1), BuildingBlock: MIFKUJ_clean_linker_0, # of connection points: 2
#     Edge 17, Type (0, 1), BuildingBlock: MIFKUJ_clean_linker_0, # of connection points: 2
# Relax obj value: 0.072
# Max RMSD: 0.181
# Mean RMSD: 0.111
data_MOF--net-sit--node1-MIDCAF_clean_sbu_0--node2-BETDAH_clean_linker_0--edge1-MIFKUJ_clean_linker_0
_symmetry_space_group_name_H-M    P1
_symmetry_Int_Tables_number       1
_symmetry_cell_setting            triclinic
loop_
_symmetry_equiv_pos_as_xyz
'x, y, z'
_cell_length_a     27.483025
_cell_length_b     43.132695
_cell_length_c     48.106088
_cell_angle_alpha  89.763146
_cell_angle_beta   86.69299
_cell_angle_gamma 83.803174
loop_
_atom_site_label
_atom_site_type_symbol
_atom_site_fract_x
_atom_site_fract_y
_atom_site_fract_z
_atom_type_partial_charge
H0 H 0.08825 0.36582 0.0177 0.0
H1 H 0.14612 0.27369 0.04218 0.0
H2 H -0.005 0.29213 0.02258 0.0
C3 C 0.08244 0.34207 0.0233 0.0
C4 C 0.0366 0.33184 0.01983 0.0
C5 C 0.12219 0.32135 0.03121 0.0
C6 C 0.11532 0.29 0.03681 0.0
C7 C 0.06894 0.27962 0.03401 0.0
C8 C 0.03023 0.30052 0.02527 0.0
N9 N 0.06033 0.248 0.03779 0.0
C10 C 0.08629 0.22671 0.05465 0.0
H11 H 0.01481 0.67205 0.01026 0.0
H12 H 0.06877 0.75968 0.02732 0.0
H13 H 0.91511 0.75572 0.01726 0.0
C14 C 0.00797 0.69672 0.0151 0.0
C15 C 0.96015 0.7115 0.01428 0.0
C16 C 0.04755 0.71379 0.01951 0.0
C17 C 0.03849 0.74617 0.02422 0.0
C18 C -0.00954 0.76124 0.02356 0.0
C19 C 0.95182 0.74387 0.01823 0.0
N20 N 0.98001 0.79403 0.02651 0.0
C21 C 0.00614 0.81225 0.04265 0.0
H22 H 0.58264 0.88304 0.51797 0.0
H23 H 0.66014 0.84952 0.58888 0.0
H24 H 0.5164 0.82308 0.57739 0.0
C25 C 0.58362 0.87013 0.53732 0.0
C26 C 0.54291 0.85495 0.54651 0.0
C27 C 0.62543 0.86934 0.55274 0.0
C28 C 0.62823 0.85054 0.57656 0.0
C29 C 0.59014 0.83267 0.58465 0.0
C30 C 0.54703 0.83523 0.56989 0.0
N31 N 0.59544 0.81383 0.60873 0.0
C32 C 0.5761 0.78556 0.6126 0.0
H33 H 0.55788 0.15368 0.50867 0.0
H34 H 0.5922 0.23924 0.54492 0.0
H35 H 0.44351 0.22769 0.52703 0.0
C36 C 0.54617 0.1766 0.51739 0.0
C37 C 0.49671 0.18826 0.51711 0.0
C38 C 0.58102 0.19468 0.52731 0.0
C39 C 0.56549 0.22484 0.53775 0.0
C40 C 0.5155 0.23657 0.53796 0.0
C41 C 0.4816 0.21819 0.52761 0.0
N42 N 0.49797 0.26727 0.54688 0.0
C43 C 0.52255 0.28593 0.56349 0.0
Zn44 Zn 0.09142 0.06327 0.3428 0.0
Zn45 Zn 0.06181 0.94606 0.34346 0.0
Zn46 Zn 0.07928 1.00441 0.34479 0.0
C47 C 0.08334 0.96141 0.2891 0.0
C48 C 0.98039 0.97728 0.3701 0.0
O49 O 0.14575 1.00989 0.36679 0.0
O50 O 0.15923 0.05815 0.35538 0.0
C51 C 0.08254 0.04736 0.28862 0.0
O52 O 0.08218 0.9884 0.3007 0.0
O53 O 0.07775 0.93753 0.30364 0.0
O54 O -0.00758 0.95133 0.3582 0.0
O55 O 0.00893 0.99908 0.36782 0.0
O56 O 0.08065 0.07179 0.30312 0.0
O57 O 0.08488 0.02035 0.30043 0.0
O58 O 0.0164 0.0308 0.36838 0.0
O59 O 0.03892 0.07836 0.37102 0.0
C60 C 0.00897 0.05902 0.37765 0.0
O61 O 0.13806 0.97763 0.36744 0.0
O62 O 0.11206 0.93086 0.36966 0.0
C63 C 0.17215 0.03275 0.36736 0.0
C64 C 0.14262 0.94913 0.37599 0.0
Zn65 Zn 0.54239 0.56981 0.84782 0.0
Zn66 Zn 0.56435 0.45208 0.8499 0.0
Zn67 Zn 0.55072 0.51117 0.8501 0.0
C68 C 0.57443 0.46819 0.79499 0.0
C69 C 0.47248 0.46657 0.87532 0.0
O70 O 0.61323 0.52934 0.86969 0.0
O71 O 0.60961 0.57829 0.85556 0.0
C72 C 0.52888 0.55304 0.79494 0.0
O73 O 0.55721 0.49464 0.80598 0.0
O74 O 0.5854 0.44502 0.81034 0.0
O75 O 0.49742 0.44385 0.86301 0.0
O76 O 0.48758 0.49386 0.87416 0.0
O77 O 0.52002 0.57704 0.81 0.0
O78 O 0.54423 0.52663 0.80577 0.0
O79 O 0.48315 0.52673 0.87596 0.0
O80 O 0.49317 0.57671 0.87927 0.0
C81 C 0.47015 0.55397 0.88653 0.0
O82 O 0.61922 0.49652 0.87116 0.0
O83 O 0.61543 0.446 0.87722 0.0
C84 C 0.6311 0.55579 0.86848 0.0
C85 C 0.63622 0.47011 0.88131 0.0
H86 H 0.10667 0.23144 0.10852 0.0
H87 H 0.1203 0.1881 0.14133 0.0
H88 H 0.11604 0.12237 0.07432 0.0
H89 H 0.10193 0.16585 0.04162 0.0
H90 H 0.05451 0.11021 0.11612 0.0
H91 H 0.2225 0.12661 0.10729 0.0
H92 H 0.29413 0.15655 0.10561 0.0
H93 H 0.25967 0.18579 0.19032 0.0
H94 H 0.18742 0.15641 0.19242 0.0
H95 H 0.15017 0.01974 0.25006 0.0
H96 H 0.16201 0.03591 0.20116 0.0
H97 H 0.0297 0.09947 0.21046 0.0
H98 H 0.01869 0.08401 0.25913 0.0
H99 H 0.17513 0.09851 0.18926 0.0
H100 H 0.97819 0.10756 0.15108 0.0
H101 H 0.90837 0.07617 0.15028 0.0
H102 H 0.00627 0.99212 0.15541 0.0
H103 H 0.07674 0.02297 0.15677 0.0
C104 C 0.11015 0.2077 0.10078 0.0
C105 C 0.10387 0.20172 0.0727 0.0
C106 C 0.11797 0.18295 0.11946 0.0
C107 C 0.11954 0.1519 0.11027 0.0
C108 C 0.11515 0.14607 0.08187 0.0
C109 C 0.10741 0.17084 0.06321 0.0
C110 C 0.12028 0.12601 0.1308 0.0
C111 C 0.08133 0.10737 0.13187 0.0
C112 C 0.1558 0.12174 0.15103 0.0
C113 C 0.19937 0.13937 0.14996 0.0
C114 C 0.23 0.13958 0.12552 0.0
C115 C 0.27076 0.15644 0.1245 0.0
C116 C 0.28142 0.17308 0.14783 0.0
C117 C 0.25138 0.17287 0.17226 0.0
C118 C 0.21057 0.15607 0.17339 0.0
C119 C 0.12294 0.03641 0.24126 0.0
C120 C 0.08352 0.0507 0.25815 0.0
C121 C 0.12977 0.04567 0.21345 0.0
C122 C 0.09663 0.06881 0.20216 0.0
C123 C 0.05536 0.0813 0.21858 0.0
C124 C 0.04914 0.07255 0.24639 0.0
C125 C 0.10827 0.08383 0.17515 0.0
C126 C 0.14926 0.1007 0.17298 0.0
C127 C 0.07493 0.0863 0.15377 0.0
C128 C 0.03267 0.06761 0.15413 0.0
C129 C 0.98482 0.08237 0.15215 0.0
C130 C 0.94514 0.06468 0.15172 0.0
C131 C 0.95292 0.03217 0.15299 0.0
C132 C 0.00036 0.01731 0.1548 0.0
C133 C 0.04014 0.03489 0.15556 0.0
H134 H 0.92221 0.01849 0.15246 0.0
H135 H 0.31298 0.18613 0.147 0.0
H136 H 0.98008 0.87364 0.04958 0.0
H137 H 0.00486 0.90671 0.08649 0.0
H138 H 0.10189 0.82924 0.11516 0.0
H139 H 0.0764 0.79612 0.07843 0.0
H140 H 0.04049 0.85316 0.15594 0.0
H141 H 0.14558 0.8947 0.08533 0.0
H142 H 0.16663 0.9192 0.04047 0.0
H143 H 0.06789 1.0004 0.06293 0.0
H144 H 0.04562 0.97616 0.10771 0.0
H145 H 0.14794 0.91944 0.26164 0.0
H146 H 0.14557 0.90277 0.21332 0.0
H147 H 0.02898 0.97575 0.20055 0.0
H148 H 0.03217 0.99305 0.2489 0.0
H149 H 0.0994 0.95799 0.1506 0.0
H150 H -0.00945 0.91528 0.21927 0.0
H151 H 0.97042 0.89165 0.26468 0.0
H152 H 0.07575 0.81275 0.24499 0.0
H153 H 0.09715 0.83623 0.19964 0.0
C154 C 0.00757 0.86404 0.06343 0.0
C155 C 0.02665 0.8326 0.06138 0.0
C156 C 0.02184 0.88292 0.08439 0.0
C157 C 0.05546 0.87053 0.10351 0.0
C158 C 0.07601 0.83931 0.10059 0.0
C159 C 0.06164 0.82044 0.07965 0.0
C160 C 0.06464 0.88875 0.12844 0.0
C161 C 0.05412 0.87585 0.15463 0.0
C162 C 0.08053 0.91895 0.12684 0.0
C163 C 0.09357 0.93347 0.0998 0.0
C164 C 0.12797 0.91765 0.0806 0.0
C165 C 0.1402 0.93152 0.05519 0.0
C166 C 0.11852 0.96131 0.04882 0.0
C167 C 0.08462 0.97731 0.06787 0.0
C168 C 0.07221 0.96352 0.09328 0.0
C169 C 0.12318 0.93267 0.24815 0.0
C170 C 0.09019 0.95743 0.25879 0.0
C171 C 0.12191 0.9232 0.22059 0.0
C172 C 0.08688 0.93791 0.20343 0.0
C173 C 0.0567 0.96439 0.2133 0.0
C174 C 0.05839 0.97417 0.24093 0.0
C175 C 0.07623 0.9219 0.17768 0.0
C176 C 0.08594 0.93525 0.1516 0.0
C177 C 0.0592 0.89212 0.17917 0.0
C178 C 0.04577 0.87765 0.2062 0.0
C179 C 0.00969 0.893 0.22472 0.0
C180 C -0.00198 0.87963 0.25043 0.0
C181 C 0.02188 0.85075 0.25775 0.0
C182 C 0.05735 0.83514 0.23931 0.0
C183 C 0.06924 0.84846 0.2136 0.0
H184 H 0.0128 0.84043 0.27767 0.0
H185 H 0.12807 0.97201 0.02915 0.0
H186 H 0.63924 0.73504 0.62005 0.0
H187 H 0.6205 0.68509 0.63982 0.0
H188 H 0.46594 0.71721 0.64228 0.0
H189 H 0.48517 0.7677 0.62301 0.0
H190 H 0.49034 0.6961 0.69079 0.0
H191 H 0.51861 0.65516 0.59892 0.0
H192 H 0.56234 0.64531 0.55308 0.0
H193 H 0.68504 0.59727 0.59238 0.0
H194 H 0.64238 0.6072 0.63849 0.0
H195 H 0.44724 0.56645 0.76649 0.0
H196 H 0.44443 0.59461 0.72224 0.0
H197 H 0.60241 0.58183 0.71306 0.0
H198 H 0.6049 0.55227 0.75662 0.0
H199 H 0.56328 0.58989 0.66233 0.0
H200 H 0.54394 0.64168 0.75258 0.0
H201 H 0.50364 0.65174 0.79932 0.0
H202 H 0.36712 0.68049 0.76278 0.0
H203 H 0.40656 0.67018 0.71581 0.0
C204 C 0.60124 0.73105 0.62422 0.0
C205 C 0.56354 0.75486 0.62002 0.0
C206 C 0.59048 0.70245 0.63534 0.0
C207 C 0.5417 0.69709 0.64225 0.0
C208 C 0.50381 0.72068 0.63698 0.0
C209 C 0.51469 0.74942 0.62595 0.0
C210 C 0.53116 0.66866 0.65819 0.0
C211 C 0.50512 0.67281 0.68409 0.0
C212 C 0.55155 0.63824 0.64994 0.0
C213 C 0.57733 0.63208 0.62221 0.0
C214 C 0.55505 0.64267 0.59782 0.0
C215 C 0.57964 0.63704 0.57177 0.0
C216 C 0.62646 0.62071 0.56982 0.0
C217 C 0.64876 0.60991 0.59392 0.0
C218 C 0.62435 0.61549 0.62002 0.0
C219 C 0.48109 0.5681 0.75414 0.0
C220 C 0.52627 0.55732 0.76477 0.0
C221 C 0.47956 0.58444 0.729 0.0
C222 C 0.52329 0.59125 0.71484 0.0
C223 C 0.5682 0.57707 0.72371 0.0
C224 C 0.56965 0.56009 0.74856 0.0
C225 C 0.52292 0.61762 0.69478 0.0
C226 C 0.54729 0.61313 0.66843 0.0
C227 C 0.50143 0.64792 0.7026 0.0
C228 C 0.47802 0.65487 0.73075 0.0
C229 C 0.50529 0.65005 0.75454 0.0
C230 C 0.48261 0.65578 0.78106 0.0
C231 C 0.43282 0.66666 0.78402 0.0
C232 C 0.40566 0.67199 0.76045 0.0
C233 C 0.42815 0.66623 0.73388 0.0
H234 H 0.41529 0.67102 0.80457 0.0
H235 H 0.64544 0.61639 0.54964 0.0
H236 H 0.53996 0.34516 0.55239 0.0
H237 H 0.55531 0.38466 0.5866 0.0
H238 H 0.55598 0.31511 0.6514 0.0
H239 H 0.54033 0.27582 0.61723 0.0
H240 H 0.49469 0.36641 0.66541 0.0
H241 H 0.66118 0.34337 0.6275 0.0
H242 H 0.72691 0.33825 0.59016 0.0
H243 H 0.69601 0.43526 0.57026 0.0
H244 H 0.62962 0.44086 0.60727 0.0
H245 H 0.64707 0.43316 0.76582 0.0
H246 H 0.6441 0.41274 0.71883 0.0
H247 H 0.5078 0.47027 0.70883 0.0
H248 H 0.51071 0.49084 0.75618 0.0
H249 H 0.63355 0.43115 0.66366 0.0
H250 H 0.43019 0.42003 0.6855 0.0
H251 H 0.36851 0.42222 0.72508 0.0
H252 H 0.48001 0.3878 0.77982 0.0
H253 H 0.54208 0.38499 0.7405 0.0
C254 C 0.54459 0.33832 0.57386 0.0
C255 C 0.53956 0.30765 0.58238 0.0
C256 C 0.55321 0.36083 0.59335 0.0
C257 C 0.55675 0.35283 0.62155 0.0
C258 C 0.55324 0.3218 0.62976 0.0
C259 C 0.5447 0.29935 0.61029 0.0
C260 C 0.56101 0.37696 0.64292 0.0
C261 C 0.52487 0.38073 0.66482 0.0
C262 C 0.60019 0.3958 0.64216 0.0
C263 C 0.64007 0.39244 0.61993 0.0
C264 C 0.66811 0.36354 0.615 0.0
C265 C 0.70555 0.36057 0.59393 0.0
C266 C 0.71553 0.38639 0.57779 0.0
C267 C 0.68817 0.41526 0.58274 0.0
C268 C 0.65066 0.41836 0.60377 0.0
C269 C 0.61735 0.44227 0.75323 0.0
C270 C 0.57889 0.46333 0.76461 0.0
C271 C 0.61584 0.43072 0.72632 0.0
C272 C 0.57543 0.43965 0.7105 0.0
C273 C 0.53923 0.463 0.72079 0.0
C274 C 0.54101 0.47486 0.74776 0.0
C275 C 0.56743 0.42033 0.68609 0.0
C276 C 0.60276 0.41738 0.66372 0.0
C277 C 0.5279 0.40183 0.68653 0.0
C278 C 0.49074 0.40269 0.71017 0.0
C279 C 0.44142 0.41284 0.70598 0.0
C280 C 0.40643 0.41418 0.72835 0.0
C281 C 0.42037 0.40526 0.75496 0.0
C282 C 0.46928 0.3948 0.75922 0.0
C283 C 0.50437 0.39333 0.73691 0.0
H284 H 0.39325 0.40639 0.77226 0.0
H285 H 0.74453 0.38404 0.56149 0.0
H286 H 0.15127 0.37294 0.05504 0.0
H287 H 0.218 0.4016 0.03643 0.0
H288 H 0.26901 0.32455 0.98164 0.0
H289 H 0.20223 0.29586 0.00016 0.0
H290 H 0.3452 0.35795 0.99735 0.0
H291 H 0.18649 0.37569 0.95941 0.0
H292 H 0.09661 0.38809 0.96251 0.0
H293 H 0.11194 0.47821 0.99643 0.0
H294 H 0.202 0.46606 0.99404 0.0
H295 H 0.41301 0.42155 0.86791 0.0
H296 H 0.35529 0.40204 0.90249 0.0
H297 H 0.37813 0.47598 0.95869 0.0
H298 H 0.43796 0.49488 0.92453 0.0
H299 H 0.26708 0.4496 0.94738 0.0
H300 H 0.43281 0.42851 0.98189 0.0
H301 H 0.52132 0.4123 0.97366 0.0
H302 H 0.48987 0.32485 0.94045 0.0
H303 H 0.4011 0.34082 0.94806 0.0
C304 C 0.17811 0.36159 0.03995 0.0
C305 C 0.17137 0.33239 0.02876 0.0
C306 C 0.21599 0.37803 0.02923 0.0
C307 C 0.24756 0.36548 0.00719 0.0
C308 C 0.2448 0.33469 0.99856 0.0
C309 C 0.20682 0.31821 0.00928 0.0
C310 C 0.27736 0.38593 0.99015 0.0
C311 C 0.32817 0.37816 0.9867 0.0
C312 C 0.255 0.41216 0.97597 0.0
C313 C 0.20094 0.41982 0.97688 0.0
C314 C 0.17068 0.39807 0.96771 0.0
C315 C 0.11972 0.40506 0.9693 0.0
C316 C 0.09857 0.43389 0.97971 0.0
C317 C 0.12838 0.45585 0.98843 0.0
C318 C 0.17939 0.44893 0.98697 0.0
C319 C 0.40489 0.43415 0.88736 0.0
C320 C 0.42959 0.45998 0.89341 0.0
C321 C 0.3719 0.42299 0.90704 0.0
C322 C 0.36277 0.43754 0.93306 0.0
C323 C 0.38464 0.46461 0.93858 0.0
C324 C 0.41831 0.47561 0.91894 0.0
C325 C 0.33485 0.42196 0.95515 0.0
C326 C 0.28422 0.43018 0.95899 0.0
C327 C 0.35717 0.39588 0.96933 0.0
C328 C 0.41042 0.38597 0.9653 0.0
C329 C 0.4448 0.40594 0.97262 0.0
C330 C 0.49499 0.39678 0.96811 0.0
C331 C 0.51121 0.36759 0.95648 0.0
C332 C 0.47726 0.34746 0.94943 0.0
C333 C 0.42702 0.35655 0.95386 0.0
H334 H 0.55008 0.36054 0.95299 0.0
H335 H 0.0591 0.43923 0.98097 0.0
H336 H 0.8917 0.72678 0.97633 0.0
H337 H 0.83356 0.69374 0.95892 0.0
H338 H 0.88098 0.62149 0.01679 0.0
H339 H 0.93975 0.65454 0.03419 0.0
H340 H 0.88056 0.59779 0.9668 0.0
H341 H 0.76504 0.66055 0.02426 0.0
H342 H 0.72219 0.70858 0.04553 0.0
H343 H 0.67486 0.73953 0.96556 0.0
H344 H 0.71803 0.69191 0.94371 0.0
H345 H 0.65285 0.53271 0.91965 0.0
H346 H 0.71251 0.55067 0.95025 0.0
H347 H 0.75935 0.61237 0.88586 0.0
H348 H 0.70078 0.59407 0.85492 0.0
H349 H 0.70806 0.63361 0.94797 0.0
H350 H 0.83855 0.57147 0.8915 0.0
H351 H 0.88499 0.52315 0.87305 0.0
H352 H 0.90263 0.48913 0.95626 0.0
H353 H 0.85511 0.53694 0.97518 0.0
C354 C 0.88886 0.7042 0.98586 0.0
C355 C 0.92022 0.69324 0.00662 0.0
C356 C 0.85561 0.68529 0.97589 0.0
C357 C 0.85261 0.65521 0.98671 0.0
C358 C 0.88271 0.6446 0.00813 0.0
C359 C 0.91619 0.66348 0.01803 0.0
C360 C 0.82089 0.63418 0.97391 0.0
C361 C 0.84249 0.60534 0.96323 0.0
C362 C 0.77121 0.64394 0.96932 0.0
C363 C 0.74504 0.67268 0.98232 0.0
C364 C 0.74579 0.67769 0.01116 0.0
C365 C 0.72139 0.70484 0.02333 0.0
C366 C 0.69588 0.72711 0.0069 0.0
C367 C 0.69464 0.72225 0.97826 0.0
C368 C 0.71901 0.69515 0.96598 0.0
C369 C 0.67743 0.54906 0.91162 0.0
C370 C 0.67293 0.56163 0.88477 0.0
C371 C 0.71133 0.5593 0.92914 0.0
C372 C 0.74073 0.58235 0.92006 0.0
C373 C 0.73748 0.59411 0.89296 0.0
C374 C 0.70399 0.58374 0.87539 0.0
C375 C 0.76852 0.59817 0.93997 0.0
C376 C 0.74584 0.6259 0.95213 0.0
C377 C 0.81686 0.58714 0.94626 0.0
C378 C 0.84237 0.55754 0.93473 0.0
C379 C 0.85125 0.5534 0.90585 0.0
C380 C 0.87813 0.52618 0.89531 0.0
C381 C 0.8967 0.50306 0.91346 0.0
C382 C 0.88814 0.50701 0.9422 0.0
C383 C 0.86115 0.53413 0.95284 0.0
H384 H 0.91781 0.48213 0.90526 0.0
H385 H 0.67701 0.74811 0.01636 0.0
H386 H 0.97613 0.31925 0.97929 0.0
H387 H 0.91483 0.35524 0.95775 0.0
H388 H 0.9482 0.4295 0.01091 0.0
H389 H 0.00901 0.39326 0.03317 0.0
H390 H 0.85087 0.42987 0.00748 0.0
H391 H 0.98637 0.43233 0.94471 0.0
H392 H 0.05952 0.41256 0.91536 0.0
H393 H 0.97056 0.36244 0.8648 0.0
H394 H 0.89687 0.38164 0.89404 0.0
H395 H 0.72162 0.49694 0.87244 0.0
H396 H 0.79522 0.48791 0.89931 0.0
H397 H 0.7215 0.42595 0.95387 0.0
H398 H 0.64805 0.4357 0.92778 0.0
H399 H 0.85081 0.43572 0.90443 0.0
H400 H 0.76032 0.42281 0.01653 0.0
H401 H 0.69284 0.44952 0.04642 0.0
H402 H 0.70144 0.53368 0.99933 0.0
H403 H 0.76914 0.50749 0.96916 0.0
C404 C 0.96994 0.34309 0.98674 0.0
C405 C -0.00279 0.35335 0.00805 0.0
C406 C 0.93539 0.36376 0.97413 0.0
C407 C 0.92754 0.39514 0.98246 0.0
C408 C 0.95394 0.40541 0.00409 0.0
C409 C 0.98869 0.38471 0.01671 0.0
C410 C 0.8907 0.41669 0.96875 0.0
C411 C 0.85099 0.43151 0.98497 0.0
C412 C 0.89206 0.41997 0.93947 0.0
C413 C 0.93611 0.40828 0.92169 0.0
C414 C 0.98244 0.4169 0.92746 0.0
C415 C 0.024 0.40583 0.91082 0.0
C416 C 0.01971 0.38618 0.88828 0.0
C417 C 0.97381 0.37765 0.88228 0.0
C418 C 0.9321 0.38868 0.89884 0.0
C419 C 0.72098 0.4821 0.89065 0.0
C420 C 0.6792 0.46732 0.89835 0.0
C421 C 0.76298 0.47684 0.90588 0.0
C422 C 0.76368 0.45664 0.9289 0.0
C423 C 0.72154 0.44227 0.93669 0.0
C424 C 0.67975 0.44757 0.92159 0.0
C425 C 0.80951 0.4475 0.94309 0.0
C426 C 0.85097 0.43478 0.92695 0.0
C427 C 0.81056 0.44732 0.97249 0.0
C428 C 0.76973 0.46315 0.99052 0.0
C429 C 0.74798 0.44705 0.0126 0.0
C430 C 0.70959 0.46207 0.02954 0.0
C431 C 0.69279 0.49325 0.0247 0.0
C432 C 0.71434 0.50948 0.00292 0.0
C433 C 0.75263 0.49454 0.98585 0.0
H434 H 0.66311 0.50485 0.03787 0.0
H435 H 0.05194 0.37761 0.87543 0.0
H436 H 0.08342 0.65676 0.03923 0.0
H437 H 0.15841 0.62521 0.02244 0.0
H438 H 0.201 0.70285 0.97337 0.0
H439 H 0.12504 0.7341 0.98922 0.0
H440 H 0.20408 0.65322 0.94192 0.0
H441 H 0.26364 0.675 0.03057 0.0
H442 H 0.26235 0.67789 0.08179 0.0
H443 H 0.25924 0.57872 0.08708 0.0
H444 H 0.25984 0.57528 0.03588 0.0
H445 H 0.46942 0.58791 0.93324 0.0
H446 H 0.39815 0.60857 0.96256 0.0
H447 H 0.30626 0.55521 0.91605 0.0
H448 H 0.3782 0.53471 0.88615 0.0
H449 H 0.32636 0.58968 0.99629 0.0
H450 H 0.20319 0.60411 0.90373 0.0
H451 H 0.21058 0.60588 0.85236 0.0
H452 H 0.3503 0.64139 0.85529 0.0
H453 H 0.34338 0.64019 0.90664 0.0
C454 C 0.10926 0.66729 0.02528 0.0
C455 C 0.09809 0.69782 0.01533 0.0
C456 C 0.15225 0.64927 0.01579 0.0
C457 C 0.18524 0.66157 0.99649 0.0
C458 C 0.17587 0.6928 0.98811 0.0
C459 C 0.13273 0.71079 0.99747 0.0
C460 C 0.22696 0.64117 0.98309 0.0
C461 C 0.23072 0.63933 0.95389 0.0
C462 C 0.26173 0.62293 0.9986 0.0
C463 C 0.26125 0.62493 0.0294 0.0
C464 C 0.26224 0.65384 0.04266 0.0
C465 C 0.26173 0.65557 0.07169 0.0
C466 C 0.26057 0.62852 0.08768 0.0
C467 C 0.26005 0.59966 0.07467 0.0
C468 C 0.26052 0.5978 0.04564 0.0
C469 C 0.43418 0.57998 0.92972 0.0
C470 C 0.42902 0.55992 0.90742 0.0
C471 C 0.39353 0.59166 0.94658 0.0
C472 C 0.34681 0.58379 0.94127 0.0
C473 C 0.34203 0.5618 0.92031 0.0
C474 C 0.383 0.54999 0.90337 0.0
C475 C 0.30335 0.60191 0.95525 0.0
C476 C 0.29919 0.60329 0.98447 0.0
C477 C 0.26882 0.62039 0.9398 0.0
C478 C 0.27299 0.62169 0.90897 0.0
C479 C 0.23539 0.61237 0.89338 0.0
C480 C 0.2395 0.61327 0.86429 0.0
C481 C 0.28096 0.62362 0.85057 0.0
C482 C 0.31829 0.63326 0.86593 0.0
C483 C 0.3143 0.63246 0.89502 0.0
H484 H 0.28411 0.62426 0.82805 0.0
H485 H 0.2602 0.6299 0.11016 0.0
H486 H 0.72509 0.85384 0.55409 0.0
H487 H 0.78978 0.88205 0.53255 0.0
H488 H 0.68081 0.95444 0.50669 0.0
H489 H 0.61681 0.92795 0.53028 0.0
H490 H 0.80387 0.88857 0.48182 0.0
H491 H 0.72535 0.02027 0.48701 0.0
H492 H 0.68187 0.05745 0.5211 0.0
H493 H 0.73731 1.00078 0.58824 0.0
H494 H 0.78142 0.9633 0.55457 0.0
H495 H 0.89175 0.95662 0.36412 0.0
H496 H 0.83047 0.94854 0.40164 0.0
H497 H 0.91428 0.99356 0.45966 0.0
H498 H 0.97503 1.00236 0.42198 0.0
H499 H 0.81591 1.00233 0.47464 0.0
H500 H 0.9377 0.91771 0.45164 0.0
H501 H 0.98814 0.88058 0.42014 0.0
H502 H 0.85867 0.84254 0.39611 0.0
H503 H 0.80736 0.87982 0.42714 0.0
C504 C 0.71505 0.87631 0.54473 0.0
C505 C 0.66559 0.88823 0.54341 0.0
C506 C 0.7521 0.89236 0.5322 0.0
C507 C 0.74041 0.92043 0.51783 0.0
C508 C 0.69124 0.9332 0.51796 0.0
C509 C 0.65441 0.91757 0.53099 0.0
C510 C 0.7781 0.93378 0.49934 0.0
C511 C 0.80668 0.91343 0.48065 0.0
C512 C 0.78257 0.96624 0.49776 0.0
C513 C 0.75642 0.9888 0.51821 0.0
C514 C 0.72846 0.01577 0.50904 0.0
C515 C 0.70362 0.03689 0.5283 0.0
C516 C 0.70673 0.03145 0.55682 0.0
C517 C 0.73472 1.00488 0.56614 0.0
C518 C 0.75957 0.98364 0.54697 0.0
C519 C 0.89606 0.96576 0.38468 0.0
C520 C 0.93792 0.98002 0.39027 0.0
C521 C 0.86123 0.96109 0.40608 0.0
C522 C 0.86859 0.96976 0.43352 0.0
C523 C 0.90807 0.98657 0.43866 0.0
C524 C 0.94267 0.99162 0.41713 0.0
C525 C 0.83957 0.95711 0.45697 0.0
C526 C 0.81306 0.9775 0.47637 0.0
C527 C 0.83791 0.92459 0.45988 0.0
C528 C 0.86868 0.9017 0.44158 0.0
C529 C 0.91997 0.90153 0.43953 0.0
C530 C 0.94871 0.88046 0.42176 0.0
C531 C 0.92661 0.85925 0.4061 0.0
C532 C 0.87573 0.859 0.40824 0.0
C533 C 0.8468 0.88008 0.42594 0.0
H534 H 0.94892 0.84297 0.39234 0.0
H535 H 0.68762 0.0479 0.57169 0.0
H536 H 0.40543 0.17618 0.53741 0.0
H537 H 0.34936 0.14427 0.51541 0.0
H538 H 0.45404 0.127 0.44541 0.0
H539 H 0.50954 0.15902 0.46695 0.0
H540 H 0.35738 0.14495 0.43083 0.0
H541 H 0.44448 0.06869 0.49332 0.0
H542 H 0.46969 0.05492 0.54065 0.0
H543 H 0.31913 0.0668 0.57168 0.0
H544 H 0.29314 0.08058 0.52448 0.0
H545 H 0.26774 0.03697 0.35254 0.0
H546 H 0.32754 0.05473 0.38295 0.0
H547 H 0.22455 0.05016 0.45369 0.0
H548 H 0.16617 0.03023 0.42346 0.0
H549 H 0.31391 0.04491 0.47168 0.0
H550 H 0.22192 0.11555 0.41391 0.0
H551 H 0.18754 0.136 0.37043 0.0
H552 H 0.33257 0.14483 0.33524 0.0
H553 H 0.36789 0.12389 0.37838 0.0
C554 C 0.41618 0.16566 0.51727 0.0
C555 C 0.4619 0.16979 0.50396 0.0
C556 C 0.38441 0.14732 0.50486 0.0
C557 C 0.39795 0.13306 0.47897 0.0
C558 C 0.44313 0.13769 0.46548 0.0
C559 C 0.47486 0.15581 0.47787 0.0
C560 C 0.36523 0.11347 0.46545 0.0
C561 C 0.34831 0.1229 0.43954 0.0
C562 C 0.35156 0.08556 0.47756 0.0
C563 C 0.36693 0.07558 0.50547 0.0
C564 C 0.41682 0.06822 0.51025 0.0
C565 C 0.43123 0.06049 0.53704 0.0
C566 C 0.39604 0.06008 0.55917 0.0
C567 C 0.34634 0.06721 0.55453 0.0
C568 C 0.33173 0.07482 0.52775 0.0
C569 C 0.25907 0.03826 0.3748 0.0
C570 C 0.21267 0.03247 0.38581 0.0
C571 C 0.29292 0.04865 0.39214 0.0
C572 C 0.27967 0.05496 0.42039 0.0
C573 C 0.23537 0.04579 0.43193 0.0
C574 C 0.20208 0.0344 0.41468 0.0
C575 C 0.30773 0.07573 0.43627 0.0
C576 C 0.32315 0.06681 0.46276 0.0
C577 C 0.3186 0.10489 0.42516 0.0
C578 C 0.29757 0.11787 0.39927 0.0
C579 C 0.2465 0.12168 0.39684 0.0
C580 C 0.22684 0.13335 0.37226 0.0
C581 C 0.25786 0.14164 0.35006 0.0
C582 C 0.3086 0.13835 0.35244 0.0
C583 C 0.32846 0.12658 0.37695 0.0
H584 H 0.24257 0.15069 0.33105 0.0
H585 H 0.40727 0.05411 0.57989 0.0
H586 H 0.50786 0.91007 0.52307 0.0
H587 H 0.43741 0.92099 0.49591 0.0
H588 H 0.39537 0.82897 0.51313 0.0
H589 H 0.47069 0.81615 0.53779 0.0
H590 H 0.37836 0.84206 0.46244 0.0
H591 H 0.33308 0.90038 0.54619 0.0
H592 H 0.34544 0.93601 0.58458 0.0
H593 H 0.36557 1.00921 0.52566 0.0
H594 H 0.35298 0.97437 0.48718 0.0
H595 H 0.14344 0.89923 0.41078 0.0
H596 H 0.20743 0.87945 0.44148 0.0
H597 H 0.29461 0.9521 0.41346 0.0
H598 H 0.23181 0.97087 0.3814 0.0
H599 H 0.27934 0.94494 0.47376 0.0
H600 H 0.32864 0.88392 0.39038 0.0
H601 H 0.31474 0.84789 0.35269 0.0
H602 H 0.28279 0.77814 0.41299 0.0
H603 H 0.29583 0.81396 0.45107 0.0
C604 C 0.48463 0.89163 0.52071 0.0
C605 C 0.49609 0.86184 0.53224 0.0
C606 C 0.4432 0.89833 0.50566 0.0
C607 C 0.40992 0.87623 0.50307 0.0
C608 C 0.42027 0.84658 0.51502 0.0
C609 C 0.46311 0.83938 0.52939 0.0
C610 C 0.36571 0.88428 0.4869 0.0
C611 C 0.35605 0.86424 0.46541 0.0
C612 C 0.3365 0.91335 0.49043 0.0
C613 C 0.34213 0.93473 0.51381 0.0
C614 C 0.33998 0.92416 0.5415 0.0
C615 C 0.34695 0.94427 0.5633 0.0
C616 C 0.35609 0.97498 0.55764 0.0
C617 C 0.35803 0.98564 0.53018 0.0
C618 C 0.35077 0.96576 0.50836 0.0
C619 C 0.17637 0.91093 0.41097 0.0
C620 C 0.18203 0.9373 0.39421 0.0
C621 C 0.21282 0.89956 0.42854 0.0
C622 C 0.25549 0.9144 0.42977 0.0
C623 C 0.26157 0.94054 0.41295 0.0
C624 C 0.2254 0.95161 0.39501 0.0
C625 C 0.29328 0.90313 0.44914 0.0
C626 C 0.30129 0.92254 0.47126 0.0
C627 C 0.32013 0.87333 0.44647 0.0
C628 C 0.31267 0.85174 0.42357 0.0
C629 C 0.31822 0.86101 0.39561 0.0
C630 C 0.31059 0.8406 0.37417 0.0
C631 C 0.29775 0.81078 0.38044 0.0
C632 C 0.29267 0.80127 0.40816 0.0
C633 C 0.30021 0.8216 0.42968 0.0
H634 H 0.29185 0.79501 0.36381 0.0
H635 H 0.36176 0.9905 0.5745 0.0
H636 H 0.62434 0.13647 0.53911 0.0
H637 H 0.70299 0.11232 0.51935 0.0
H638 H 0.73553 0.20121 0.48589 0.0
H639 H 0.65574 0.22523 0.50464 0.0
H640 H 0.74314 0.15992 0.44623 0.0
H641 H 0.80041 0.16074 0.53873 0.0
H642 H 0.79921 0.15009 0.58913 0.0
H643 H 0.80881 0.05173 0.57302 0.0
H644 H 0.8089 0.06177 0.52253 0.0
H645 H 0.01045 0.09435 0.42366 0.0
H646 H 0.94103 0.11475 0.45482 0.0
H647 H 0.84371 0.06722 0.40686 0.0
H648 H 0.91351 0.04681 0.37539 0.0
H649 H 0.87064 0.08706 0.48815 0.0
H650 H 0.74052 0.12035 0.40145 0.0
H651 H 0.7439 0.13202 0.35113 0.0
H652 H 0.88445 0.16557 0.35722 0.0
H653 H 0.88156 0.15449 0.4076 0.0
C654 C 0.64883 0.15103 0.52813 0.0
C655 C 0.63362 0.18267 0.5231 0.0
C656 C 0.69393 0.13719 0.51693 0.0
C657 C 0.72512 0.15484 0.50092 0.0
C658 C 0.71188 0.18706 0.49801 0.0
C659 C 0.66652 0.20089 0.50903 0.0
C660 C 0.76822 0.13917 0.48446 0.0
C661 C 0.77106 0.14413 0.45555 0.0
C662 C 0.80442 0.11814 0.49641 0.0
C663 C 0.80413 0.11207 0.52681 0.0
C664 C 0.80172 0.13685 0.54592 0.0
C665 C 0.80127 0.13091 0.57452 0.0
C666 C 0.80369 0.10026 0.58427 0.0
C667 C 0.8067 0.07547 0.56544 0.0
C668 C 0.80695 0.08127 0.53683 0.0
C669 C 0.97427 0.08804 0.41994 0.0
C670 C 0.96713 0.069 0.39725 0.0
C671 C 0.93479 0.09949 0.43785 0.0
C672 C 0.88732 0.09255 0.4331 0.0
C673 C 0.88015 0.07287 0.41081 0.0
C674 C 0.91988 0.06117 0.39295 0.0
C675 C 0.84524 0.10807 0.45025 0.0
C676 C 0.84249 0.10288 0.47908 0.0
C677 C 0.80919 0.12905 0.43837 0.0
C678 C 0.81103 0.13626 0.40819 0.0
C679 C 0.77205 0.13031 0.39204 0.0
C680 C 0.77389 0.13681 0.36352 0.0
C681 C 0.81445 0.14942 0.35097 0.0
C682 C 0.85316 0.15568 0.36694 0.0
C683 C 0.85145 0.14927 0.39547 0.0
H684 H 0.81583 0.15441 0.32889 0.0
H685 H 0.8034 0.09571 0.60642 0.0
loop_
_geom_bond_atom_site_label_1
_geom_bond_atom_site_label_2
_geom_bond_distance
_geom_bond_site_symmetry_2
_ccdc_geom_bond_type
H0 C3 0.929 . S
H1 C6 0.929 . S
H2 C8 0.930 . S
C3 H0 0.929 . S
C3 C4 1.398 1_556 S
C3 C5 1.396 1_556 S
C4 C3 1.398 1_554 S
C4 C8 1.407 . S
C5 C3 1.396 1_554 S
C5 C6 1.394 . S
C6 H1 0.929 . S
C6 C5 1.394 . S
C6 C7 1.382 . S
C7 C6 1.382 . S
C7 C8 1.392 . S
C7 N9 1.420 . S
C8 H2 0.930 . S
C8 C4 1.407 . S
C8 C7 1.392 . S
N9 C7 1.420 . S
N9 C10 1.244 . S
C10 N9 1.244 . S
H11 C14 0.913 1_556 S
H12 C17 0.929 . S
H13 C19 0.930 . S
C14 H11 0.913 1_554 S
C14 C15 1.405 1_455 S
C14 C16 1.407 . S
C15 C14 1.405 1_655 S
C15 C19 1.407 . S
C16 C14 1.407 . S
C16 C17 1.394 . S
C17 H12 0.929 . S
C17 C16 1.394 . S
C17 C18 1.382 1_455 S
C18 C17 1.382 1_655 S
C18 C19 1.392 . S
C18 N20 1.420 . S
C19 H13 0.930 . S
C19 C15 1.407 . S
C19 C18 1.392 . S
N20 C18 1.420 . S
N20 C21 1.244 1_655 S
C21 N20 1.244 1_455 S
H22 C25 0.929 . S
H23 C28 0.929 . S
H24 C30 0.930 . S
C25 H22 0.929 . S
C25 C26 1.398 . S
C25 C27 1.396 . S
C26 C25 1.398 . S
C26 C30 1.407 . S
C27 C25 1.396 . S
C27 C28 1.394 . S
C28 H23 0.929 . S
C28 C27 1.394 . S
C28 C29 1.382 . S
C29 C28 1.382 . S
C29 C30 1.392 . S
C29 N31 1.420 . S
C30 H24 0.930 . S
C30 C26 1.407 . S
C30 C29 1.392 . S
N31 C29 1.420 . S
N31 C32 1.244 . S
C32 N31 1.244 . S
H33 C36 0.929 . S
H34 C39 0.929 . S
H35 C41 0.930 . S
C36 H33 0.929 . S
C36 C37 1.398 . S
C36 C38 1.396 . S
C37 C36 1.398 . S
C37 C41 1.407 . S
C38 C36 1.396 . S
C38 C39 1.394 . S
C39 H34 0.929 . S
C39 C38 1.394 . S
C39 C40 1.382 . S
C40 C39 1.382 . S
C40 C41 1.392 . S
C40 N42 1.420 . S
C41 H35 0.930 . S
C41 C37 1.407 . S
C41 C40 1.392 . S
N42 C40 1.420 . S
N42 C43 1.244 . S
C43 N42 1.244 . S
Zn44 O50 1.920 . S
Zn44 O56 1.898 . S
Zn44 O59 1.895 1_455 S
Zn45 O53 1.905 . S
Zn45 O54 1.898 . S
Zn45 O62 1.920 . S
Zn46 O49 2.080 . S
Zn46 O52 2.114 1_545 S
Zn46 O55 2.120 1_545 S
Zn46 O57 2.120 . S
Zn46 O58 2.114 . S
Zn46 O61 2.080 1_545 S
C47 O52 1.166 . S
C47 O53 1.182 . S
C48 O54 1.167 . S
C48 O55 1.299 . S
O49 Zn46 2.080 . S
O49 C63 1.305 . S
O50 Zn44 1.920 . S
O50 C63 1.234 . S
C51 O56 1.167 . S
C51 O57 1.299 . S
O52 Zn46 2.114 1_565 S
O52 C47 1.166 . S
O53 Zn45 1.905 . S
O53 C47 1.182 . S
O54 Zn45 1.898 . S
O54 C48 1.167 . S
O55 Zn46 2.120 1_565 S
O55 C48 1.299 . S
O56 Zn44 1.898 . S
O56 C51 1.167 . S
O57 Zn46 2.120 . S
O57 C51 1.299 . S
O58 Zn46 2.114 . S
O58 C60 1.166 1_455 S
O59 Zn44 1.895 1_655 S
O59 C60 1.186 . S
C60 O58 1.166 1_655 S
C60 O59 1.186 . S
O61 Zn46 2.080 1_565 S
O61 C64 1.305 . S
O62 Zn45 1.920 . S
O62 C64 1.234 . S
C63 O49 1.305 . S
C63 O50 1.234 . S
C64 O61 1.305 . S
C64 O62 1.234 . S
Zn65 O71 1.920 . S
Zn65 O77 1.898 . S
Zn65 O80 1.905 . S
Zn66 O74 1.905 . S
Zn66 O75 1.898 . S
Zn66 O83 1.920 . S
Zn67 O70 2.080 . S
Zn67 O73 2.114 . S
Zn67 O76 2.120 . S
Zn67 O78 2.120 . S
Zn67 O79 2.114 . S
Zn67 O82 2.080 . S
C68 O73 1.166 . S
C68 O74 1.182 . S
C69 O75 1.167 . S
C69 O76 1.299 . S
O70 Zn67 2.080 . S
O70 C84 1.305 . S
O71 Zn65 1.920 . S
O71 C84 1.234 . S
C72 O77 1.167 . S
C72 O78 1.299 . S
O73 Zn67 2.114 . S
O73 C68 1.166 . S
O74 Zn66 1.905 . S
O74 C68 1.182 . S
O75 Zn66 1.898 . S
O75 C69 1.167 . S
O76 Zn67 2.120 . S
O76 C69 1.299 . S
O77 Zn65 1.898 . S
O77 C72 1.167 . S
O78 Zn67 2.120 . S
O78 C72 1.299 . S
O79 Zn67 2.114 . S
O79 C81 1.166 . S
O80 Zn65 1.905 . S
O80 C81 1.182 . S
C81 O79 1.166 . S
C81 O80 1.182 . S
O82 Zn67 2.080 . S
O82 C85 1.305 . S
O83 Zn66 1.920 . S
O83 C85 1.234 . S
C84 O70 1.305 . S
C84 O71 1.234 . S
C85 O82 1.305 . S
C85 O83 1.234 . S
H86 C104 0.951 . S
H87 C106 0.951 . S
H88 C108 0.950 . S
H89 C109 0.950 . S
H90 C111 0.950 . S
H91 C114 0.950 . S
H92 C115 0.950 . S
H93 C117 0.950 . S
H94 C118 0.950 . S
H95 C119 0.951 . S
H96 C121 0.951 . S
H97 C123 0.950 . S
H98 C124 0.950 . S
H99 C126 0.950 . S
H100 C129 0.950 . S
H101 C130 0.950 . S
H102 C132 0.950 . S
H103 C133 0.950 . S
C104 H86 0.951 . S
C104 C105 1.366 . S
C104 C106 1.388 . S
C105 C104 1.366 . S
C105 C109 1.385 . S
C106 H87 0.951 . S
C106 C104 1.388 . S
C106 C107 1.366 . S
C107 C106 1.366 . S
C107 C108 1.414 . S
C107 C110 1.499 . S
C108 H88 0.950 . S
C108 C107 1.414 . S
C108 C109 1.374 . S
C109 H89 0.950 . S
C109 C105 1.385 . S
C109 C108 1.374 . S
C110 C107 1.499 . S
C110 C111 1.373 . S
C110 C112 1.389 . S
C111 H90 0.950 . S
C111 C110 1.373 . S
C111 C127 1.377 . S
C112 C110 1.389 . S
C112 C113 1.524 . S
C112 C126 1.377 . S
C113 C112 1.524 . S
C113 C114 1.397 . S
C113 C118 1.363 . S
C114 H91 0.950 . S
C114 C113 1.397 . S
C114 C115 1.334 . S
C115 H92 0.950 . S
C115 C114 1.334 . S
C115 C116 1.287 . S
C116 C115 1.287 . S
C116 C117 1.524 . S
C116 H135 0.913 . S
C117 H93 0.950 . S
C117 C116 1.524 . S
C117 C118 1.415 . S
C118 H94 0.950 . S
C118 C113 1.363 . S
C118 C117 1.415 . S
C119 H95 0.951 . S
C119 C120 1.366 . S
C119 C121 1.388 . S
C120 C119 1.366 . S
C120 C124 1.385 . S
C121 H96 0.951 . S
C121 C119 1.388 . S
C121 C122 1.366 . S
C122 C121 1.366 . S
C122 C123 1.414 . S
C122 C125 1.499 . S
C123 H97 0.950 . S
C123 C122 1.414 . S
C123 C124 1.374 . S
C124 H98 0.950 . S
C124 C120 1.385 . S
C124 C123 1.374 . S
C125 C122 1.499 . S
C125 C126 1.373 . S
C125 C127 1.389 . S
C126 H99 0.950 . S
C126 C112 1.377 . S
C126 C125 1.373 . S
C127 C111 1.377 . S
C127 C125 1.389 . S
C127 C128 1.524 . S
C128 C127 1.524 . S
C128 C129 1.397 . S
C128 C133 1.363 . S
C129 H100 0.950 . S
C129 C128 1.397 . S
C129 C130 1.334 1_455 S
C130 H101 0.950 . S
C130 C129 1.334 1_655 S
C130 C131 1.287 . S
C131 C130 1.287 . S
C131 C132 1.524 . S
C131 H134 0.999 . S
C132 H102 0.950 . S
C132 C131 1.524 . S
C132 C133 1.415 1_655 S
C133 H103 0.950 . S
C133 C128 1.363 . S
C133 C132 1.415 1_455 S
H134 C131 0.999 . S
H135 C116 0.913 . S
H136 C154 0.951 . S
H137 C156 0.951 . S
H138 C158 0.950 . S
H139 C159 0.950 . S
H140 C161 0.950 . S
H141 C164 0.950 . S
H142 C165 0.950 . S
H143 C167 0.950 . S
H144 C168 0.950 . S
H145 C169 0.951 . S
H146 C171 0.951 . S
H147 C173 0.950 . S
H148 C174 0.950 . S
H149 C176 0.950 . S
H150 C179 0.950 . S
H151 C180 0.950 . S
H152 C182 0.950 . S
H153 C183 0.950 . S
C154 H136 0.951 . S
C154 C155 1.366 . S
C154 C156 1.388 . S
C155 C154 1.366 . S
C155 C159 1.385 . S
C156 H137 0.951 . S
C156 C154 1.388 . S
C156 C157 1.366 . S
C157 C156 1.366 . S
C157 C158 1.414 . S
C157 C160 1.499 . S
C158 H138 0.950 . S
C158 C157 1.414 . S
C158 C159 1.374 . S
C159 H139 0.950 . S
C159 C155 1.385 . S
C159 C158 1.374 . S
C160 C157 1.499 . S
C160 C161 1.373 1_455 S
C160 C162 1.389 . S
C161 H140 0.950 . S
C161 C160 1.373 1_655 S
C161 C177 1.377 . S
C162 C160 1.389 . S
C162 C163 1.524 . S
C162 C176 1.377 . S
C163 C162 1.524 . S
C163 C164 1.397 . S
C163 C168 1.363 . S
C164 H141 0.950 . S
C164 C163 1.397 . S
C164 C165 1.334 . S
C165 H142 0.950 . S
C165 C164 1.334 . S
C165 C166 1.287 . S
C166 C165 1.287 . S
C166 C167 1.524 . S
C166 H185 0.913 . S
C167 H143 0.950 . S
C167 C166 1.524 . S
C167 C168 1.415 . S
C168 H144 0.950 . S
C168 C163 1.363 . S
C168 C167 1.415 . S
C169 H145 0.951 . S
C169 C170 1.366 . S
C169 C171 1.388 . S
C170 C169 1.366 . S
C170 C174 1.385 . S
C171 H146 0.951 . S
C171 C169 1.388 . S
C171 C172 1.366 . S
C172 C171 1.366 . S
C172 C173 1.414 . S
C172 C175 1.499 . S
C173 H147 0.950 . S
C173 C172 1.414 . S
C173 C174 1.374 . S
C174 H148 0.950 . S
C174 C170 1.385 . S
C174 C173 1.374 . S
C175 C172 1.499 . S
C175 C176 1.373 . S
C175 C177 1.389 1_455 S
C176 H149 0.950 . S
C176 C162 1.377 . S
C176 C175 1.373 . S
C177 C161 1.377 . S
C177 C175 1.389 1_655 S
C177 C178 1.524 . S
C178 C177 1.524 . S
C178 C179 1.397 . S
C178 C183 1.363 . S
C179 H150 0.950 . S
C179 C178 1.397 . S
C179 C180 1.334 . S
C180 H151 0.950 . S
C180 C179 1.334 . S
C180 C181 1.287 . S
C181 C180 1.287 . S
C181 C182 1.524 . S
C181 H184 0.999 . S
C182 H152 0.950 . S
C182 C181 1.524 . S
C182 C183 1.415 . S
C183 H153 0.950 . S
C183 C178 1.363 . S
C183 C182 1.415 . S
H184 C181 0.999 . S
H185 C166 0.913 . S
H186 C204 0.951 . S
H187 C206 0.951 . S
H188 C208 0.950 . S
H189 C209 0.950 . S
H190 C211 0.950 . S
H191 C214 0.950 . S
H192 C215 0.950 . S
H193 C217 0.950 . S
H194 C218 0.950 . S
H195 C219 0.951 . S
H196 C221 0.951 . S
H197 C223 0.950 . S
H198 C224 0.950 . S
H199 C226 0.950 . S
H200 C229 0.950 . S
H201 C230 0.950 . S
H202 C232 0.950 . S
H203 C233 0.950 . S
C204 H186 0.951 . S
C204 C205 1.366 . S
C204 C206 1.388 . S
C205 C204 1.366 . S
C205 C209 1.385 . S
C206 H187 0.951 . S
C206 C204 1.388 . S
C206 C207 1.366 . S
C207 C206 1.366 . S
C207 C208 1.414 . S
C207 C210 1.499 . S
C208 H188 0.950 . S
C208 C207 1.414 . S
C208 C209 1.374 . S
C209 H189 0.950 . S
C209 C205 1.385 . S
C209 C208 1.374 . S
C210 C207 1.499 . S
C210 C211 1.373 . S
C210 C212 1.389 . S
C211 H190 0.950 . S
C211 C210 1.373 . S
C211 C227 1.377 . S
C212 C210 1.389 . S
C212 C213 1.524 . S
C212 C226 1.377 . S
C213 C212 1.524 . S
C213 C214 1.397 . S
C213 C218 1.363 . S
C214 H191 0.950 . S
C214 C213 1.397 . S
C214 C215 1.334 . S
C215 H192 0.950 . S
C215 C214 1.334 . S
C215 C216 1.287 . S
C216 C215 1.287 . S
C216 C217 1.524 . S
C216 H235 0.913 . S
C217 H193 0.950 . S
C217 C216 1.524 . S
C217 C218 1.415 . S
C218 H194 0.950 . S
C218 C213 1.363 . S
C218 C217 1.415 . S
C219 H195 0.951 . S
C219 C220 1.366 . S
C219 C221 1.388 . S
C220 C219 1.366 . S
C220 C224 1.385 . S
C221 H196 0.951 . S
C221 C219 1.388 . S
C221 C222 1.366 . S
C222 C221 1.366 . S
C222 C223 1.414 . S
C222 C225 1.499 . S
C223 H197 0.950 . S
C223 C222 1.414 . S
C223 C224 1.374 . S
C224 H198 0.950 . S
C224 C220 1.385 . S
C224 C223 1.374 . S
C225 C222 1.499 . S
C225 C226 1.373 . S
C225 C227 1.389 . S
C226 H199 0.950 . S
C226 C212 1.377 . S
C226 C225 1.373 . S
C227 C211 1.377 . S
C227 C225 1.389 . S
C227 C228 1.524 . S
C228 C227 1.524 . S
C228 C229 1.397 . S
C228 C233 1.363 . S
C229 H200 0.950 . S
C229 C228 1.397 . S
C229 C230 1.334 . S
C230 H201 0.950 . S
C230 C229 1.334 . S
C230 C231 1.287 . S
C231 C230 1.287 . S
C231 C232 1.524 . S
C231 H234 0.999 . S
C232 H202 0.950 . S
C232 C231 1.524 . S
C232 C233 1.415 . S
C233 H203 0.950 . S
C233 C228 1.363 . S
C233 C232 1.415 . S
H234 C231 0.999 . S
H235 C216 0.913 . S
H236 C254 0.951 . S
H237 C256 0.951 . S
H238 C258 0.950 . S
H239 C259 0.950 . S
H240 C261 0.950 . S
H241 C264 0.950 . S
H242 C265 0.950 . S
H243 C267 0.950 . S
H244 C268 0.950 . S
H245 C269 0.951 . S
H246 C271 0.951 . S
H247 C273 0.950 . S
H248 C274 0.950 . S
H249 C276 0.950 . S
H250 C279 0.950 . S
H251 C280 0.950 . S
H252 C282 0.950 . S
H253 C283 0.950 . S
C254 H236 0.951 . S
C254 C255 1.366 . S
C254 C256 1.388 . S
C255 C254 1.366 . S
C255 C259 1.385 . S
C256 H237 0.951 . S
C256 C254 1.388 . S
C256 C257 1.366 . S
C257 C256 1.366 . S
C257 C258 1.414 . S
C257 C260 1.499 . S
C258 H238 0.950 . S
C258 C257 1.414 . S
C258 C259 1.374 . S
C259 H239 0.950 . S
C259 C255 1.385 . S
C259 C258 1.374 . S
C260 C257 1.499 . S
C260 C261 1.373 . S
C260 C262 1.389 . S
C261 H240 0.950 . S
C261 C260 1.373 . S
C261 C277 1.377 . S
C262 C260 1.389 . S
C262 C263 1.524 . S
C262 C276 1.377 . S
C263 C262 1.524 . S
C263 C264 1.397 . S
C263 C268 1.363 . S
C264 H241 0.950 . S
C264 C263 1.397 . S
C264 C265 1.334 . S
C265 H242 0.950 . S
C265 C264 1.334 . S
C265 C266 1.287 . S
C266 C265 1.287 . S
C266 C267 1.524 . S
C266 H285 0.913 . S
C267 H243 0.950 . S
C267 C266 1.524 . S
C267 C268 1.415 . S
C268 H244 0.950 . S
C268 C263 1.363 . S
C268 C267 1.415 . S
C269 H245 0.951 . S
C269 C270 1.366 . S
C269 C271 1.388 . S
C270 C269 1.366 . S
C270 C274 1.385 . S
C271 H246 0.951 . S
C271 C269 1.388 . S
C271 C272 1.366 . S
C272 C271 1.366 . S
C272 C273 1.414 . S
C272 C275 1.499 . S
C273 H247 0.950 . S
C273 C272 1.414 . S
C273 C274 1.374 . S
C274 H248 0.950 . S
C274 C270 1.385 . S
C274 C273 1.374 . S
C275 C272 1.499 . S
C275 C276 1.373 . S
C275 C277 1.389 . S
C276 H249 0.950 . S
C276 C262 1.377 . S
C276 C275 1.373 . S
C277 C261 1.377 . S
C277 C275 1.389 . S
C277 C278 1.524 . S
C278 C277 1.524 . S
C278 C279 1.397 . S
C278 C283 1.363 . S
C279 H250 0.950 . S
C279 C278 1.397 . S
C279 C280 1.334 . S
C280 H251 0.950 . S
C280 C279 1.334 . S
C280 C281 1.287 . S
C281 C280 1.287 . S
C281 C282 1.524 . S
C281 H284 0.999 . S
C282 H252 0.950 . S
C282 C281 1.524 . S
C282 C283 1.415 . S
C283 H253 0.950 . S
C283 C278 1.363 . S
C283 C282 1.415 . S
H284 C281 0.999 . S
H285 C266 0.913 . S
H286 C304 0.951 . S
H287 C306 0.951 . S
H288 C308 0.950 . S
H289 C309 0.950 . S
H290 C311 0.950 . S
H291 C314 0.950 . S
H292 C315 0.950 . S
H293 C317 0.950 . S
H294 C318 0.950 . S
H295 C319 0.951 . S
H296 C321 0.951 . S
H297 C323 0.950 . S
H298 C324 0.950 . S
H299 C326 0.950 . S
H300 C329 0.950 . S
H301 C330 0.950 1_554 S
H302 C332 0.950 . S
H303 C333 0.950 . S
C304 H286 0.951 . S
C304 C305 1.366 1_554 S
C304 C306 1.388 1_554 S
C305 C304 1.366 1_556 S
C305 C309 1.385 . S
C306 H287 0.951 . S
C306 C304 1.388 1_556 S
C306 C307 1.366 . S
C307 C306 1.366 . S
C307 C308 1.414 . S
C307 C310 1.499 . S
C308 H288 0.950 . S
C308 C307 1.414 . S
C308 C309 1.374 . S
C309 H289 0.950 . S
C309 C305 1.385 . S
C309 C308 1.374 . S
C310 C307 1.499 . S
C310 C311 1.373 . S
C310 C312 1.389 . S
C311 H290 0.950 . S
C311 C310 1.373 . S
C311 C327 1.377 . S
C312 C310 1.389 . S
C312 C313 1.524 . S
C312 C326 1.377 . S
C313 C312 1.524 . S
C313 C314 1.397 . S
C313 C318 1.363 . S
C314 H291 0.950 . S
C314 C313 1.397 . S
C314 C315 1.334 . S
C315 H292 0.950 . S
C315 C314 1.334 . S
C315 C316 1.287 . S
C316 C315 1.287 . S
C316 C317 1.524 . S
C316 H335 0.913 . S
C317 H293 0.950 . S
C317 C316 1.524 . S
C317 C318 1.415 . S
C318 H294 0.950 . S
C318 C313 1.363 . S
C318 C317 1.415 . S
C319 H295 0.951 . S
C319 C320 1.366 . S
C319 C321 1.388 . S
C320 C319 1.366 . S
C320 C324 1.385 . S
C321 H296 0.951 . S
C321 C319 1.388 . S
C321 C322 1.366 . S
C322 C321 1.366 . S
C322 C323 1.414 . S
C322 C325 1.499 . S
C323 H297 0.950 . S
C323 C322 1.414 . S
C323 C324 1.374 . S
C324 H298 0.950 . S
C324 C320 1.385 . S
C324 C323 1.374 . S
C325 C322 1.499 . S
C325 C326 1.373 . S
C325 C327 1.389 . S
C326 H299 0.950 . S
C326 C312 1.377 . S
C326 C325 1.373 . S
C327 C311 1.377 . S
C327 C325 1.389 . S
C327 C328 1.524 . S
C328 C327 1.524 . S
C328 C329 1.397 . S
C328 C333 1.363 . S
C329 H300 0.950 . S
C329 C328 1.397 . S
C329 C330 1.334 . S
C330 H301 0.950 1_556 S
C330 C329 1.334 . S
C330 C331 1.287 . S
C331 C330 1.287 . S
C331 C332 1.524 . S
C331 H334 0.999 . S
C332 H302 0.950 . S
C332 C331 1.524 . S
C332 C333 1.415 . S
C333 H303 0.950 . S
C333 C328 1.363 . S
C333 C332 1.415 . S
H334 C331 0.999 . S
H335 C316 0.913 . S
H336 C354 0.951 . S
H337 C356 0.951 . S
H338 C358 0.950 . S
H339 C359 0.937 1_554 S
H340 C361 0.950 . S
H341 C364 0.950 . S
H342 C365 0.950 . S
H343 C367 0.950 . S
H344 C368 0.950 . S
H345 C369 0.951 . S
H346 C371 0.951 . S
H347 C373 0.950 . S
H348 C374 0.950 . S
H349 C376 0.950 . S
H350 C379 0.950 . S
H351 C380 0.950 . S
H352 C382 0.950 . S
H353 C383 0.950 . S
C354 H336 0.951 . S
C354 C355 1.366 . S
C354 C356 1.388 . S
C355 C354 1.366 . S
C355 C359 1.385 . S
C356 H337 0.951 . S
C356 C354 1.388 . S
C356 C357 1.366 . S
C357 C356 1.366 . S
C357 C358 1.414 . S
C357 C360 1.499 . S
C358 H338 0.950 . S
C358 C357 1.414 . S
C358 C359 1.388 . S
C359 H339 0.937 1_556 S
C359 C355 1.385 . S
C359 C358 1.388 . S
C360 C357 1.499 . S
C360 C361 1.373 . S
C360 C362 1.389 . S
C361 H340 0.950 . S
C361 C360 1.373 . S
C361 C377 1.377 . S
C362 C360 1.389 . S
C362 C363 1.496 1_556 S
C362 C376 1.377 . S
C363 C362 1.496 1_554 S
C363 C364 1.432 . S
C363 C368 1.357 1_554 S
C364 H341 0.950 . S
C364 C363 1.432 . S
C364 C365 1.334 . S
C365 H342 0.950 . S
C365 C364 1.334 . S
C365 C366 1.287 . S
C366 C365 1.287 . S
C366 C367 1.524 . S
C366 H385 0.913 . S
C367 H343 0.950 . S
C367 C366 1.524 . S
C367 C368 1.415 1_554 S
C368 H344 0.950 . S
C368 C363 1.357 1_556 S
C368 C367 1.415 1_556 S
C369 H345 0.951 . S
C369 C370 1.366 . S
C369 C371 1.388 . S
C370 C369 1.366 . S
C370 C374 1.385 . S
C371 H346 0.951 . S
C371 C369 1.388 . S
C371 C372 1.366 . S
C372 C371 1.366 . S
C372 C373 1.414 . S
C372 C375 1.499 . S
C373 H347 0.950 . S
C373 C372 1.414 . S
C373 C374 1.374 . S
C374 H348 0.950 . S
C374 C370 1.385 . S
C374 C373 1.374 . S
C375 C372 1.499 . S
C375 C376 1.373 . S
C375 C377 1.389 . S
C376 H349 0.950 . S
C376 C362 1.377 . S
C376 C375 1.373 . S
C377 C361 1.377 . S
C377 C375 1.389 . S
C377 C378 1.524 . S
C378 C377 1.524 . S
C378 C379 1.397 . S
C378 C383 1.363 . S
C379 H350 0.950 . S
C379 C378 1.397 . S
C379 C380 1.334 . S
C380 H351 0.950 . S
C380 C379 1.334 . S
C380 C381 1.287 . S
C381 C380 1.287 . S
C381 C382 1.524 . S
C381 H384 0.999 . S
C382 H352 0.950 . S
C382 C381 1.524 . S
C382 C383 1.415 . S
C383 H353 0.950 . S
C383 C378 1.363 . S
C383 C382 1.415 . S
H384 C381 0.999 . S
H385 C366 0.913 . S
H386 C404 0.951 . S
H387 C406 0.951 . S
H388 C408 0.950 . S
H389 C409 0.950 . S
H390 C411 0.950 . S
H391 C414 0.950 . S
H392 C415 0.950 1_455 S
H393 C417 0.950 . S
H394 C418 0.950 . S
H395 C419 0.951 . S
H396 C421 0.951 . S
H397 C423 0.950 . S
H398 C424 0.950 . S
H399 C426 0.950 . S
H400 C429 0.950 . S
H401 C430 0.950 . S
H402 C432 0.957 . S
H403 C433 0.950 . S
C404 H386 0.951 . S
C404 C405 1.366 . S
C404 C406 1.388 1_455 S
C405 C404 1.366 . S
C405 C409 1.385 . S
C406 H387 0.951 . S
C406 C404 1.388 1_655 S
C406 C407 1.366 . S
C407 C406 1.366 . S
C407 C408 1.414 1_655 S
C407 C410 1.499 . S
C408 H388 0.950 . S
C408 C407 1.414 1_455 S
C408 C409 1.374 . S
C409 H389 0.950 . S
C409 C405 1.385 . S
C409 C408 1.374 . S
C410 C407 1.499 . S
C410 C411 1.373 . S
C410 C412 1.389 . S
C411 H390 0.950 . S
C411 C410 1.373 . S
C411 C427 1.377 . S
C412 C410 1.389 . S
C412 C413 1.524 . S
C412 C426 1.377 . S
C413 C412 1.524 . S
C413 C414 1.397 . S
C413 C418 1.363 . S
C414 H391 0.950 . S
C414 C413 1.397 . S
C414 C415 1.334 . S
C415 H392 0.950 1_655 S
C415 C414 1.334 . S
C415 C416 1.287 . S
C416 C415 1.287 . S
C416 C417 1.524 . S
C416 H435 0.913 . S
C417 H393 0.950 . S
C417 C416 1.524 . S
C417 C418 1.415 . S
C418 H394 0.950 . S
C418 C413 1.363 . S
C418 C417 1.415 . S
C419 H395 0.951 . S
C419 C420 1.366 . S
C419 C421 1.388 . S
C420 C419 1.366 . S
C420 C424 1.385 . S
C421 H396 0.951 . S
C421 C419 1.388 . S
C421 C422 1.366 . S
C422 C421 1.366 . S
C422 C423 1.414 . S
C422 C425 1.499 . S
C423 H397 0.950 . S
C423 C422 1.414 . S
C423 C424 1.374 . S
C424 H398 0.950 . S
C424 C420 1.385 . S
C424 C423 1.374 . S
C425 C422 1.499 . S
C425 C426 1.373 . S
C425 C427 1.389 . S
C426 H399 0.950 . S
C426 C412 1.377 . S
C426 C425 1.373 . S
C427 C411 1.377 . S
C427 C425 1.389 . S
C427 C428 1.524 . S
C428 C427 1.524 . S
C428 C429 1.397 . S
C428 C433 1.363 . S
C429 H400 0.950 . S
C429 C428 1.397 . S
C429 C430 1.334 . S
C430 H401 0.950 . S
C430 C429 1.334 . S
C430 C431 1.276 1_556 S
C431 C430 1.276 1_554 S
C431 C432 1.518 1_554 S
C431 H434 1.016 . S
C432 H402 0.957 . S
C432 C431 1.518 1_556 S
C432 C433 1.415 . S
C433 H403 0.950 . S
C433 C428 1.363 . S
C433 C432 1.415 . S
H434 C431 1.016 . S
H435 C416 0.913 . S
H436 C454 0.951 . S
H437 C456 0.951 . S
H438 C458 0.950 . S
H439 C459 0.950 . S
H440 C461 0.950 . S
H441 C464 0.950 . S
H442 C465 0.950 . S
H443 C467 0.950 . S
H444 C468 0.950 . S
H445 C469 0.951 . S
H446 C471 0.951 . S
H447 C473 0.950 . S
H448 C474 0.950 . S
H449 C476 0.950 . S
H450 C479 0.950 . S
H451 C480 0.950 . S
H452 C482 0.950 . S
H453 C483 0.950 . S
C454 H436 0.951 . S
C454 C455 1.366 . S
C454 C456 1.388 . S
C455 C454 1.366 . S
C455 C459 1.385 . S
C456 H437 0.951 . S
C456 C454 1.388 . S
C456 C457 1.366 . S
C457 C456 1.366 . S
C457 C458 1.414 . S
C457 C460 1.499 . S
C458 H438 0.950 . S
C458 C457 1.414 . S
C458 C459 1.374 . S
C459 H439 0.950 . S
C459 C455 1.385 . S
C459 C458 1.374 . S
C460 C457 1.499 . S
C460 C461 1.373 . S
C460 C462 1.389 . S
C461 H440 0.950 . S
C461 C460 1.373 . S
C461 C477 1.377 . S
C462 C460 1.389 . S
C462 C463 1.524 . S
C462 C476 1.377 . S
C463 C462 1.524 . S
C463 C464 1.397 1_556 S
C463 C468 1.363 . S
C464 H441 0.950 . S
C464 C463 1.397 1_554 S
C464 C465 1.334 . S
C465 H442 0.950 . S
C465 C464 1.334 . S
C465 C466 1.287 . S
C466 C465 1.287 . S
C466 C467 1.524 . S
C466 H485 0.913 . S
C467 H443 0.950 . S
C467 C466 1.524 . S
C467 C468 1.415 1_554 S
C468 H444 0.950 . S
C468 C463 1.363 . S
C468 C467 1.415 1_556 S
C469 H445 0.951 . S
C469 C470 1.366 . S
C469 C471 1.388 . S
C470 C469 1.366 . S
C470 C474 1.385 . S
C471 H446 0.951 . S
C471 C469 1.388 . S
C471 C472 1.366 . S
C472 C471 1.366 . S
C472 C473 1.414 . S
C472 C475 1.499 . S
C473 H447 0.950 . S
C473 C472 1.414 . S
C473 C474 1.374 . S
C474 H448 0.950 . S
C474 C470 1.385 . S
C474 C473 1.374 . S
C475 C472 1.499 . S
C475 C476 1.373 . S
C475 C477 1.389 . S
C476 H449 0.950 . S
C476 C462 1.377 . S
C476 C475 1.373 . S
C477 C461 1.377 . S
C477 C475 1.389 . S
C477 C478 1.524 . S
C478 C477 1.524 . S
C478 C479 1.397 . S
C478 C483 1.363 . S
C479 H450 0.950 . S
C479 C478 1.397 . S
C479 C480 1.334 . S
C480 H451 0.950 . S
C480 C479 1.334 . S
C480 C481 1.287 . S
C481 C480 1.287 . S
C481 C482 1.524 . S
C481 H484 0.999 . S
C482 H452 0.950 . S
C482 C481 1.524 . S
C482 C483 1.415 . S
C483 H453 0.950 . S
C483 C478 1.363 . S
C483 C482 1.415 . S
H484 C481 0.999 . S
H485 C466 0.913 . S
H486 C504 0.951 . S
H487 C506 0.951 . S
H488 C508 0.950 . S
H489 C509 0.950 . S
H490 C511 0.950 . S
H491 C514 0.950 . S
H492 C515 0.950 . S
H493 C517 0.950 . S
H494 C518 0.950 . S
H495 C519 0.951 . S
H496 C521 0.951 . S
H497 C523 0.950 . S
H498 C524 0.950 . S
H499 C526 0.950 . S
H500 C529 0.950 . S
H501 C530 0.950 . S
H502 C532 0.950 . S
H503 C533 0.950 . S
C504 H486 0.951 . S
C504 C505 1.366 . S
C504 C506 1.388 . S
C505 C504 1.366 . S
C505 C509 1.385 . S
C506 H487 0.951 . S
C506 C504 1.388 . S
C506 C507 1.366 . S
C507 C506 1.366 . S
C507 C508 1.414 . S
C507 C510 1.499 . S
C508 H488 0.950 . S
C508 C507 1.414 . S
C508 C509 1.374 . S
C509 H489 0.950 . S
C509 C505 1.385 . S
C509 C508 1.374 . S
C510 C507 1.499 . S
C510 C511 1.373 . S
C510 C512 1.389 . S
C511 H490 0.950 . S
C511 C510 1.373 . S
C511 C527 1.377 . S
C512 C510 1.389 . S
C512 C513 1.524 . S
C512 C526 1.377 . S
C513 C512 1.524 . S
C513 C514 1.397 . S
C513 C518 1.363 . S
C514 H491 0.950 . S
C514 C513 1.397 . S
C514 C515 1.334 . S
C515 H492 0.950 . S
C515 C514 1.334 . S
C515 C516 1.287 . S
C516 C515 1.287 . S
C516 C517 1.524 . S
C516 H535 0.913 . S
C517 H493 0.950 . S
C517 C516 1.524 . S
C517 C518 1.415 . S
C518 H494 0.950 . S
C518 C513 1.363 . S
C518 C517 1.415 . S
C519 H495 0.951 . S
C519 C520 1.366 . S
C519 C521 1.388 . S
C520 C519 1.366 . S
C520 C524 1.385 1_655 S
C521 H496 0.951 . S
C521 C519 1.388 . S
C521 C522 1.366 . S
C522 C521 1.366 . S
C522 C523 1.414 . S
C522 C525 1.499 . S
C523 H497 0.950 . S
C523 C522 1.414 . S
C523 C524 1.374 1_655 S
C524 H498 0.950 . S
C524 C520 1.385 1_455 S
C524 C523 1.374 1_455 S
C525 C522 1.499 . S
C525 C526 1.373 . S
C525 C527 1.389 . S
C526 H499 0.950 . S
C526 C512 1.377 . S
C526 C525 1.373 . S
C527 C511 1.377 . S
C527 C525 1.389 . S
C527 C528 1.524 . S
C528 C527 1.524 . S
C528 C529 1.397 . S
C528 C533 1.363 . S
C529 H500 0.950 . S
C529 C528 1.397 . S
C529 C530 1.334 . S
C530 H501 0.950 . S
C530 C529 1.334 . S
C530 C531 1.287 . S
C531 C530 1.287 . S
C531 C532 1.524 . S
C531 H534 0.999 . S
C532 H502 0.950 . S
C532 C531 1.524 . S
C532 C533 1.415 . S
C533 H503 0.950 . S
C533 C528 1.363 . S
C533 C532 1.415 . S
H534 C531 0.999 . S
H535 C516 0.913 . S
H536 C554 0.951 . S
H537 C556 0.951 . S
H538 C558 0.950 . S
H539 C559 0.950 . S
H540 C561 0.950 . S
H541 C564 0.950 . S
H542 C565 0.950 . S
H543 C567 0.950 . S
H544 C568 0.950 . S
H545 C569 0.951 . S
H546 C571 0.951 . S
H547 C573 0.950 . S
H548 C574 0.950 . S
H549 C576 0.950 . S
H550 C579 0.950 . S
H551 C580 0.950 . S
H552 C582 0.950 . S
H553 C583 0.950 . S
C554 H536 0.951 . S
C554 C555 1.366 . S
C554 C556 1.388 . S
C555 C554 1.366 . S
C555 C559 1.385 . S
C556 H537 0.951 . S
C556 C554 1.388 . S
C556 C557 1.366 . S
C557 C556 1.366 . S
C557 C558 1.414 . S
C557 C560 1.499 . S
C558 H538 0.950 . S
C558 C557 1.414 . S
C558 C559 1.374 . S
C559 H539 0.950 . S
C559 C555 1.385 . S
C559 C558 1.374 . S
C560 C557 1.499 . S
C560 C561 1.373 . S
C560 C562 1.389 . S
C561 H540 0.950 . S
C561 C560 1.373 . S
C561 C577 1.377 . S
C562 C560 1.389 . S
C562 C563 1.524 . S
C562 C576 1.377 . S
C563 C562 1.524 . S
C563 C564 1.397 . S
C563 C568 1.363 . S
C564 H541 0.950 . S
C564 C563 1.397 . S
C564 C565 1.334 . S
C565 H542 0.950 . S
C565 C564 1.334 . S
C565 C566 1.287 . S
C566 C565 1.287 . S
C566 C567 1.524 . S
C566 H585 0.913 . S
C567 H543 0.950 . S
C567 C566 1.524 . S
C567 C568 1.415 . S
C568 H544 0.950 . S
C568 C563 1.363 . S
C568 C567 1.415 . S
C569 H545 0.951 . S
C569 C570 1.366 . S
C569 C571 1.388 . S
C570 C569 1.366 . S
C570 C574 1.385 . S
C571 H546 0.951 . S
C571 C569 1.388 . S
C571 C572 1.366 . S
C572 C571 1.366 . S
C572 C573 1.414 . S
C572 C575 1.499 . S
C573 H547 0.950 . S
C573 C572 1.414 . S
C573 C574 1.374 . S
C574 H548 0.950 . S
C574 C570 1.385 . S
C574 C573 1.374 . S
C575 C572 1.499 . S
C575 C576 1.373 . S
C575 C577 1.389 . S
C576 H549 0.950 . S
C576 C562 1.377 . S
C576 C575 1.373 . S
C577 C561 1.377 . S
C577 C575 1.389 . S
C577 C578 1.524 . S
C578 C577 1.524 . S
C578 C579 1.397 . S
C578 C583 1.363 . S
C579 H550 0.950 . S
C579 C578 1.397 . S
C579 C580 1.334 . S
C580 H551 0.950 . S
C580 C579 1.334 . S
C580 C581 1.287 . S
C581 C580 1.287 . S
C581 C582 1.524 . S
C581 H584 0.999 . S
C582 H552 0.950 . S
C582 C581 1.524 . S
C582 C583 1.415 . S
C583 H553 0.950 . S
C583 C578 1.363 . S
C583 C582 1.415 . S
H584 C581 0.999 . S
H585 C566 0.913 . S
H586 C604 0.951 . S
H587 C606 0.951 . S
H588 C608 0.950 . S
H589 C609 0.950 . S
H590 C611 0.950 . S
H591 C614 0.950 . S
H592 C615 0.950 . S
H593 C617 0.950 . S
H594 C618 0.950 . S
H595 C619 0.951 . S
H596 C621 0.951 . S
H597 C623 0.950 . S
H598 C624 0.950 . S
H599 C626 0.950 . S
H600 C629 0.950 . S
H601 C630 0.950 . S
H602 C632 0.950 . S
H603 C633 0.950 . S
C604 H586 0.951 . S
C604 C605 1.366 . S
C604 C606 1.388 . S
C605 C604 1.366 . S
C605 C609 1.385 . S
C606 H587 0.951 . S
C606 C604 1.388 . S
C606 C607 1.366 . S
C607 C606 1.366 . S
C607 C608 1.414 . S
C607 C610 1.499 . S
C608 H588 0.950 . S
C608 C607 1.414 . S
C608 C609 1.374 . S
C609 H589 0.950 . S
C609 C605 1.385 . S
C609 C608 1.374 . S
C610 C607 1.499 . S
C610 C611 1.373 . S
C610 C612 1.389 . S
C611 H590 0.950 . S
C611 C610 1.373 . S
C611 C627 1.377 . S
C612 C610 1.389 . S
C612 C613 1.524 . S
C612 C626 1.377 . S
C613 C612 1.524 . S
C613 C614 1.397 . S
C613 C618 1.363 . S
C614 H591 0.950 . S
C614 C613 1.397 . S
C614 C615 1.334 . S
C615 H592 0.950 . S
C615 C614 1.334 . S
C615 C616 1.287 . S
C616 C615 1.287 . S
C616 C617 1.524 . S
C616 H635 0.913 . S
C617 H593 0.950 . S
C617 C616 1.524 . S
C617 C618 1.415 . S
C618 H594 0.950 . S
C618 C613 1.363 . S
C618 C617 1.415 . S
C619 H595 0.951 . S
C619 C620 1.366 . S
C619 C621 1.388 . S
C620 C619 1.366 . S
C620 C624 1.385 . S
C621 H596 0.951 . S
C621 C619 1.388 . S
C621 C622 1.366 . S
C622 C621 1.366 . S
C622 C623 1.414 . S
C622 C625 1.499 . S
C623 H597 0.950 . S
C623 C622 1.414 . S
C623 C624 1.374 . S
C624 H598 0.950 . S
C624 C620 1.385 . S
C624 C623 1.374 . S
C625 C622 1.499 . S
C625 C626 1.373 . S
C625 C627 1.389 . S
C626 H599 0.950 . S
C626 C612 1.377 . S
C626 C625 1.373 . S
C627 C611 1.377 . S
C627 C625 1.389 . S
C627 C628 1.524 . S
C628 C627 1.524 . S
C628 C629 1.397 . S
C628 C633 1.363 . S
C629 H600 0.950 . S
C629 C628 1.397 . S
C629 C630 1.334 . S
C630 H601 0.950 . S
C630 C629 1.334 . S
C630 C631 1.287 . S
C631 C630 1.287 . S
C631 C632 1.524 . S
C631 H634 0.999 . S
C632 H602 0.950 . S
C632 C631 1.524 . S
C632 C633 1.415 . S
C633 H603 0.950 . S
C633 C628 1.363 . S
C633 C632 1.415 . S
H634 C631 0.999 . S
H635 C616 0.913 . S
H636 C654 0.951 . S
H637 C656 0.951 . S
H638 C658 0.950 . S
H639 C659 0.950 . S
H640 C661 0.950 . S
H641 C664 0.950 . S
H642 C665 0.950 . S
H643 C667 0.950 . S
H644 C668 0.950 . S
H645 C669 0.951 . S
H646 C671 0.951 . S
H647 C673 0.950 . S
H648 C674 0.950 . S
H649 C676 0.950 . S
H650 C679 0.950 . S
H651 C680 0.950 . S
H652 C682 0.950 . S
H653 C683 0.950 . S
C654 H636 0.951 . S
C654 C655 1.366 . S
C654 C656 1.388 . S
C655 C654 1.366 . S
C655 C659 1.385 . S
C656 H637 0.951 . S
C656 C654 1.388 . S
C656 C657 1.366 . S
C657 C656 1.366 . S
C657 C658 1.414 . S
C657 C660 1.499 . S
C658 H638 0.950 . S
C658 C657 1.414 . S
C658 C659 1.374 . S
C659 H639 0.950 . S
C659 C655 1.385 . S
C659 C658 1.374 . S
C660 C657 1.499 . S
C660 C661 1.373 . S
C660 C662 1.389 . S
C661 H640 0.950 . S
C661 C660 1.373 . S
C661 C677 1.377 . S
C662 C660 1.389 . S
C662 C663 1.524 . S
C662 C676 1.377 . S
C663 C662 1.524 . S
C663 C664 1.397 . S
C663 C668 1.363 . S
C664 H641 0.950 . S
C664 C663 1.397 . S
C664 C665 1.334 . S
C665 H642 0.950 . S
C665 C664 1.334 . S
C665 C666 1.287 . S
C666 C665 1.287 . S
C666 C667 1.524 . S
C666 H685 0.913 . S
C667 H643 0.950 . S
C667 C666 1.524 . S
C667 C668 1.415 . S
C668 H644 0.950 . S
C668 C663 1.363 . S
C668 C667 1.415 . S
C669 H645 0.951 . S
C669 C670 1.366 . S
C669 C671 1.388 . S
C670 C669 1.366 . S
C670 C674 1.385 . S
C671 H646 0.951 . S
C671 C669 1.388 . S
C671 C672 1.366 . S
C672 C671 1.366 . S
C672 C673 1.414 . S
C672 C675 1.499 . S
C673 H647 0.950 . S
C673 C672 1.414 . S
C673 C674 1.374 . S
C674 H648 0.950 . S
C674 C670 1.385 . S
C674 C673 1.374 . S
C675 C672 1.499 . S
C675 C676 1.373 . S
C675 C677 1.389 . S
C676 H649 0.950 . S
C676 C662 1.377 . S
C676 C675 1.373 . S
C677 C661 1.377 . S
C677 C675 1.389 . S
C677 C678 1.524 . S
C678 C677 1.524 . S
C678 C679 1.397 . S
C678 C683 1.363 . S
C679 H650 0.950 . S
C679 C678 1.397 . S
C679 C680 1.334 . S
C680 H651 0.950 . S
C680 C679 1.334 . S
C680 C681 1.287 . S
C681 C680 1.287 . S
C681 C682 1.524 . S
C681 H684 0.999 . S
C682 H652 0.950 . S
C682 C681 1.524 . S
C682 C683 1.415 . S
C683 H653 0.950 . S
C683 C678 1.363 . S
C683 C682 1.415 . S
H684 C681 0.999 . S
H685 C666 0.913 . S
C120 C51 1.401 . S
C105 C10 1.529 . S
C170 C47 1.396 . S
C155 C21 1.502 . S
C220 C72 1.401 . S
C205 C32 1.529 . S
C255 C43 1.502 . S
C270 C68 1.397 . S
C305 C5 1.157 1_556 S
C320 C69 1.054 . S
C370 C84 1.063 . S
C355 C15 1.175 1_556 S
C405 C4 1.779 1_556 S
C420 C85 1.635 . S
C470 C81 1.673 . S
C455 C16 1.804 1_556 S
C520 C48 1.055 1_655 S
C505 C27 1.156 . S
C555 C37 1.175 . S
C570 C63 1.064 . S
C620 C64 1.636 . S
C605 C26 1.779 . S
C670 C60 1.674 . S
C655 C38 1.804 . S
