# Generated by pormake.
# Topology pth, (4,4)-cn, num edge types: 1
# Building blocks:
#     Node 0, Type 0, BuildingBlock: TATPOV_clean_sbu_0, # of connection points: 4
#     Node 1, Type 0, BuildingBlock: TATPOV_clean_sbu_0, # of connection points: 4
#     Node 2, Type 0, BuildingBlock: TATPOV_clean_sbu_0, # of connection points: 4
#     Node 3, Type 1, BuildingBlock: NAHDIM_clean_linker_0, # of connection points: 4
#     Node 4, Type 1, BuildingBlock: NAHDIM_clean_linker_0, # of connection points: 4
#     Node 5, Type 1, BuildingBlock: NAHDIM_clean_linker_0, # of connection points: 4
#     Edge 6, Type (0, 1), BuildingBlock: EZIPEK_clean_linker_0, # of connection points: 2
#     Edge 7, Type (0, 1), BuildingBlock: EZIPEK_clean_linker_0, # of connection points: 2
#     Edge 8, Type (0, 1), BuildingBlock: EZIPEK_clean_linker_0, # of connection points: 2
#     Edge 9, Type (0, 1), BuildingBlock: EZIPEK_clean_linker_0, # of connection points: 2
#     Edge 10, Type (0, 1), BuildingBlock: EZIPEK_clean_linker_0, # of connection points: 2
#     Edge 11, Type (0, 1), BuildingBlock: EZIPEK_clean_linker_0, # of connection points: 2
#     Edge 12, Type (0, 1), BuildingBlock: EZIPEK_clean_linker_0, # of connection points: 2
#     Edge 13, Type (0, 1), BuildingBlock: EZIPEK_clean_linker_0, # of connection points: 2
#     Edge 14, Type (0, 1), BuildingBlock: EZIPEK_clean_linker_0, # of connection points: 2
#     Edge 15, Type (0, 1), BuildingBlock: EZIPEK_clean_linker_0, # of connection points: 2
#     Edge 16, Type (0, 1), BuildingBlock: EZIPEK_clean_linker_0, # of connection points: 2
#     Edge 17, Type (0, 1), BuildingBlock: EZIPEK_clean_linker_0, # of connection points: 2
# Relax obj value: 0.054
# Max RMSD: 0.174
# Mean RMSD: 0.111
data_MOF--net-pth--node1-TATPOV_clean_sbu_0--node2-NAHDIM_clean_linker_0--edge1-EZIPEK_clean_linker_0
_symmetry_space_group_name_H-M    P1
_symmetry_Int_Tables_number       1
_symmetry_cell_setting            triclinic
loop_
_symmetry_equiv_pos_as_xyz
'x, y, z'
_cell_length_a     25.83283
_cell_length_b     25.509831
_cell_length_c     63.759435
_cell_angle_alpha  92.078007
_cell_angle_beta   92.72389
_cell_angle_gamma 121.2989
loop_
_atom_site_label
_atom_site_type_symbol
_atom_site_fract_x
_atom_site_fract_y
_atom_site_fract_z
_atom_type_partial_charge
Zn0 Zn 0.15376 0.04927 0.05894 0.0
Zn1 Zn 0.09713 0.10812 0.07289 0.0
O2 O 0.10288 0.06245 0.09743 0.0
O3 O 0.14957 0.01486 0.08764 0.0
O4 O 0.07328 0.16286 0.08714 0.0
O5 O 0.22556 0.12978 0.05042 0.0
O6 O 0.17273 0.17123 0.05955 0.0
C7 C 0.12291 0.02739 0.10133 0.0
C8 C 0.03199 0.01026 0.03812 0.0
O9 O 0.03054 0.04907 0.05086 0.0
O10 O 0.07755 0.00376 0.03858 0.0
C11 C 0.02368 0.16195 0.08646 0.0
O12 O 0.97644 0.12028 0.07429 0.0
C13 C 0.21874 0.17548 0.05154 0.0
Zn14 Zn 0.15285 0.11009 0.36189 0.0
Zn15 Zn 0.06241 0.09351 0.38696 0.0
O16 O 0.12944 0.10104 0.40689 0.0
O17 O 0.2076 0.12403 0.38839 0.0
O18 O 0.00071 0.08975 0.40586 0.0
O19 O 0.15008 0.18083 0.34902 0.0
O20 O 0.08081 0.16679 0.37027 0.0
C21 C 0.18329 0.11257 0.40576 0.0
C22 C 0.03999 0.98831 0.35724 0.0
O23 O 0.02033 0.01081 0.37054 0.0
O24 O 0.09321 0.02026 0.35122 0.0
C25 C 0.99534 0.07165 0.42437 0.0
O26 O 0.02956 0.05154 0.4319 0.0
C27 C 0.11328 0.19541 0.35548 0.0
Zn28 Zn 0.05425 0.91156 0.75644 0.0
Zn29 Zn 0.99107 0.9593 0.74252 0.0
O30 O 0.04068 0.96379 0.71739 0.0
O31 O 0.09943 0.93201 0.73028 0.0
O32 O 0.93057 0.97866 0.72992 0.0
O33 O 0.98058 0.82793 0.75936 0.0
O34 O 0.93043 0.87422 0.75287 0.0
C35 C 0.08418 0.95437 0.71554 0.0
C36 C 0.07933 0.02275 0.78043 0.0
O37 O 0.04456 0.02551 0.76623 0.0
O38 O 0.08699 0.97759 0.78026 0.0
C39 C 0.93665 0.02477 0.72086 0.0
O40 O 0.99072 0.0739 0.71985 0.0
C41 C 0.93102 0.82682 0.75811 0.0
C42 C 0.82291 0.71185 0.35146 0.0
C43 C 0.88338 0.72281 0.34422 0.0
C44 C 0.9085 0.67188 0.31684 0.0
C45 C 0.97167 0.71056 0.31646 0.0
C46 C 0.00647 0.68932 0.30739 0.0
C47 C 0.97713 0.62871 0.29796 0.0
C48 C 0.91336 0.58979 0.29813 0.0
C49 C 0.87983 0.61215 0.30746 0.0
C50 C 0.07426 0.73224 0.30719 0.0
C51 C 0.88052 0.52503 0.28805 0.0
C52 C 0.23034 0.46664 0.37317 0.0
C53 C 0.17797 0.44512 0.35617 0.0
C54 C 0.16565 0.4962 0.32617 0.0
C55 C 0.10375 0.45512 0.32026 0.0
C56 C 0.0708 0.47264 0.3072 0.0
C57 C 0.10076 0.53207 0.29967 0.0
C58 C 0.16374 0.57267 0.30493 0.0
C59 C 0.19544 0.55387 0.31799 0.0
C60 C 0.00408 0.42779 0.30145 0.0
C61 C 0.19738 0.63634 0.29705 0.0
C62 C 0.10764 0.43709 0.16169 0.0
C63 C 0.04878 0.4156 0.16776 0.0
C64 C 0.03571 0.45443 0.17944 0.0
C65 C 0.08247 0.51606 0.18507 0.0
C66 C 0.14137 0.53838 0.17839 0.0
C67 C 0.153 0.49858 0.16659 0.0
C68 C 0.97192 0.42957 0.1858 0.0
C69 C 0.19206 0.60396 0.18391 0.0
C70 C 0.01826 0.90283 0.19208 0.0
C71 C 0.05197 0.88759 0.17611 0.0
C72 C 0.02515 0.77919 0.17471 0.0
C73 C 0.97377 0.71987 0.17382 0.0
C74 C 0.9777 0.67019 0.18056 0.0
C75 C 0.03457 0.68054 0.18844 0.0
C76 C 0.08741 0.73959 0.18802 0.0
C77 C 0.0823 0.78815 0.18087 0.0
C78 C 0.92086 0.60735 0.18013 0.0
C79 C 0.14918 0.75178 0.19567 0.0
C80 C 0.012 0.60726 0.28641 0.0
C81 C 0.03749 0.57854 0.29735 0.0
C82 C 0.06649 0.55306 0.2868 0.0
C83 C 0.06656 0.55251 0.26462 0.0
C84 C 0.08914 0.52137 0.25323 0.0
C85 C 0.08888 0.52138 0.23136 0.0
C86 C 0.0687 0.55493 0.22022 0.0
C87 C 0.06939 0.55664 0.19807 0.0
C88 C 0.05587 0.59622 0.18786 0.0
C89 C 0.03864 0.63202 0.19913 0.0
C90 C 0.03086 0.62542 0.22086 0.0
C91 C 0.00769 0.65597 0.23227 0.0
C92 C -0.00018 0.64872 0.2536 0.0
C93 C 0.01826 0.61367 0.26461 0.0
C94 C 0.04393 0.58454 0.25359 0.0
C95 C 0.04757 0.58805 0.23152 0.0
C96 C 0.14449 0.32184 0.15316 0.0
C97 C 0.09454 0.33717 0.15136 0.0
O98 O 0.87344 0.69189 0.32474 0.0
O99 O 0.01744 0.82575 0.16912 0.0
O100 O 0.12221 0.40031 0.15085 0.0
O101 O 0.19853 0.48168 0.33931 0.0
H102 H 0.89579 0.69969 0.35603 0.0
H103 H 0.79062 0.66177 0.35242 0.0
H104 H 0.80125 0.72905 0.34057 0.0
H105 H 0.83028 0.73502 0.36736 0.0
H106 H 0.99388 0.75793 0.32249 0.0
H107 H 0.83087 0.58306 0.30744 0.0
H108 H 0.09823 0.7104 0.31401 0.0
H109 H 0.09068 0.77688 0.31621 0.0
H110 H 0.08652 0.74121 0.2907 0.0
H111 H 0.8313 0.49942 0.29061 0.0
H112 H 0.90109 0.49952 0.2945 0.0
H113 H 0.88559 0.5264 0.27085 0.0
H114 H 0.14687 0.45551 0.36404 0.0
H115 H 0.21341 0.43952 0.38718 0.0
H116 H 0.24941 0.51588 0.37817 0.0
H117 H 0.26771 0.46178 0.36759 0.0
H118 H 0.08125 0.40909 0.3254 0.0
H119 H 0.24353 0.58478 0.3223 0.0
H120 H 0.97723 0.44643 0.30791 0.0
H121 H 0.98816 0.38205 0.3076 0.0
H122 H 0.99491 0.42191 0.28406 0.0
H123 H 0.2458 0.66318 0.30329 0.0
H124 H 0.17518 0.66193 0.30169 0.0
H125 H 0.19548 0.63285 0.2796 0.0
H126 H 0.07148 0.32267 0.16615 0.0
H127 H 0.01285 0.36884 0.16322 0.0
H128 H 0.19805 0.51497 0.1615 0.0
H129 H 0.97199 0.42922 0.20321 0.0
H130 H 0.93973 0.38208 0.17886 0.0
H131 H 0.9553 0.45988 0.18082 0.0
H132 H 0.2364 0.61286 0.17892 0.0
H133 H 0.19648 0.61493 0.20116 0.0
H134 H 0.18107 0.63554 0.17608 0.0
H135 H 0.0941 0.89646 0.18475 0.0
H136 H 0.04729 0.95112 0.19874 0.0
H137 H 0.00709 0.87221 0.20524 0.0
H138 H 0.97548 0.89701 0.18494 0.0
H139 H 0.93009 0.71297 0.16843 0.0
H140 H 0.12317 0.83265 0.18016 0.0
H141 H 0.90858 0.5957 0.19649 0.0
H142 H 0.92898 0.57204 0.17308 0.0
H143 H 0.88183 0.60509 0.17109 0.0
H144 H 0.18593 0.8002 0.1942 0.0
H145 H 0.15955 0.72098 0.1865 0.0
H146 H 0.14909 0.74144 0.21244 0.0
H147 H 0.03542 0.57669 0.31428 0.0
H148 H 0.10618 0.49577 0.26108 0.0
H149 H 0.10599 0.49598 0.22333 0.0
H150 H 0.05954 0.5998 0.17102 0.0
H151 H 0.99418 0.68487 0.22477 0.0
H152 H 0.9806 0.67231 0.26145 0.0
H153 H 0.17212 0.33654 0.13931 0.0
H154 H 0.12434 0.27158 0.15423 0.0
H155 H 0.17506 0.34608 0.16759 0.0
C156 C 0.32326 0.038 0.68368 0.0
C157 C 0.28523 0.04522 0.66595 0.0
C158 C 0.34255 0.03931 0.63742 0.0
C159 C 0.39257 0.10001 0.63942 0.0
C160 C 0.44647 0.11554 0.63007 0.0
C161 C 0.45057 0.06931 0.61871 0.0
C162 C 0.40015 0.00806 0.61673 0.0
C163 C 0.34641 0.99426 0.62578 0.0
C164 C 0.49879 0.18143 0.63209 0.0
C165 C 0.40275 0.95703 0.60504 0.0
C166 C 0.83576 0.03356 0.67817 0.0
C167 C 0.78278 0.02523 0.6648 0.0
C168 C 0.74207 0.08222 0.64817 0.0
C169 C 0.68704 0.02915 0.64041 0.0
C170 C 0.64265 0.03352 0.62846 0.0
C171 C 0.65266 0.09213 0.62447 0.0
C172 C 0.7071 0.14572 0.6327 0.0
C173 C 0.75134 0.14001 0.64435 0.0
C174 C 0.58509 0.97525 0.61997 0.0
C175 C 0.71866 0.20885 0.62899 0.0
C176 C 0.74209 0.08059 0.48822 0.0
C177 C 0.69668 0.02937 0.49732 0.0
C178 C 0.65322 0.03292 0.5086 0.0
C179 C 0.65603 0.08971 0.51112 0.0
C180 C 0.70279 0.14227 0.50242 0.0
C181 C 0.7455 0.13728 0.49107 0.0
C182 C 0.60389 0.97573 0.5176 0.0
C183 C 0.7073 0.20357 0.50504 0.0
C184 C 0.19378 0.00574 0.49568 0.0
C185 C 0.25101 0.04639 0.4843 0.0
C186 C 0.33914 0.03389 0.48793 0.0
C187 C 0.35213 0.98846 0.4921 0.0
C188 C 0.40898 0.00387 0.50137 0.0
C189 C 0.45407 0.06652 0.50623 0.0
C190 C 0.44293 0.11293 0.50037 0.0
C191 C 0.38545 0.09613 0.49117 0.0
C192 C 0.42 0.95316 0.50675 0.0
C193 C 0.49083 0.1801 0.50471 0.0
C194 C 0.50667 0.08497 0.60828 0.0
C195 C 0.55553 0.08946 0.62043 0.0
C196 C 0.60658 0.09658 0.6111 0.0
C197 C 0.60943 0.09989 0.58903 0.0
C198 C 0.65927 0.1054 0.57902 0.0
C199 C 0.65995 0.1049 0.5572 0.0
C200 C 0.61056 0.09826 0.54453 0.0
C201 C 0.60877 0.09332 0.52229 0.0
C202 C 0.55858 0.08596 0.51016 0.0
C203 C 0.50947 0.08264 0.51966 0.0
C204 C 0.51052 0.08783 0.54185 0.0
C205 C 0.46159 0.08438 0.55187 0.0
C206 C 0.46117 0.0855 0.57365 0.0
C207 C 0.50924 0.08922 0.58627 0.0
C208 C 0.5603 0.09564 0.57658 0.0
C209 C 0.5609 0.09486 0.55432 0.0
C210 C 0.7877 0.11748 0.44346 0.0
C211 C 0.82122 0.11186 0.46312 0.0
O212 O 0.2901 0.02232 0.64658 0.0
O213 O 0.2814 0.01558 0.48093 0.0
O214 O 0.78095 0.07263 0.47683 0.0
O215 O 0.78681 0.07929 0.6593 0.0
H216 H 0.3051 0.09547 0.66558 0.0
H217 H 0.37249 0.06809 0.68165 0.0
H218 H 0.31279 0.99003 0.68393 0.0
H219 H 0.3147 0.05204 0.69922 0.0
H220 H 0.38956 0.13553 0.64804 0.0
H221 H 0.30746 0.94765 0.62425 0.0
H222 H 0.53828 0.18445 0.64105 0.0
H223 H 0.48711 0.2127 0.64027 0.0
H224 H 0.51296 0.19756 0.61624 0.0
H225 H 0.36429 0.91085 0.60817 0.0
H226 H 0.44604 0.95945 0.60951 0.0
H227 H 0.40078 0.96218 0.58787 0.0
H228 H 0.7689 0.99134 0.65097 0.0
H229 H 0.79867 0.99767 0.70585 0.0
H230 H 0.87342 0.08284 0.67733 0.0
H231 H 0.85709 0.01369 0.66819 0.0
H232 H 0.67832 0.98392 0.64343 0.0
H233 H 0.79351 0.18076 0.6505 0.0
H234 H 0.57779 0.97591 0.6027 0.0
H235 H 0.54564 0.97242 0.62728 0.0
H236 H 0.58608 0.93327 0.6232 0.0
H237 H 0.76127 0.24594 0.63765 0.0
H238 H 0.68002 0.21265 0.63395 0.0
H239 H 0.72181 0.21594 0.61191 0.0
H240 H 0.84813 0.15922 0.47061 0.0
H241 H 0.69472 0.98601 0.49517 0.0
H242 H 0.78107 0.17778 0.48451 0.0
H243 H 0.60845 0.98231 0.53503 0.0
H244 H 0.60577 0.93434 0.51303 0.0
H245 H 0.55857 0.96728 0.51214 0.0
H246 H 0.74868 0.24107 0.49859 0.0
H247 H 0.70775 0.21577 0.52197 0.0
H248 H 0.66675 0.2003 0.49682 0.0
H249 H 0.28057 0.08719 0.49521 0.0
H250 H 0.17084 0.03106 0.49966 0.0
H251 H 0.20642 0.99237 0.51057 0.0
H252 H 0.1607 0.96326 0.48594 0.0
H253 H 0.31651 0.9406 0.48893 0.0
H254 H 0.37674 0.13163 0.4868 0.0
H255 H 0.43055 0.95586 0.52399 0.0
H256 H 0.4599 0.95906 0.49885 0.0
H257 H 0.38024 0.90674 0.50184 0.0
H258 H 0.47789 0.21041 0.49696 0.0
H259 H 0.53478 0.18939 0.49919 0.0
H260 H 0.49783 0.19197 0.52195 0.0
H261 H 0.5526 0.08453 0.63723 0.0
H262 H 0.69805 0.10942 0.58793 0.0
H263 H 0.69923 0.10873 0.55035 0.0
H264 H 0.55664 0.08029 0.49314 0.0
H265 H 0.42259 0.08 0.54301 0.0
H266 H 0.42206 0.08222 0.58044 0.0
H267 H 0.75084 0.07223 0.4363 0.0
H268 H 0.82027 0.14207 0.43145 0.0
H269 H 0.76669 0.14453 0.44762 0.0
C270 C 0.7159 0.54661 0.75966 0.0
C271 C 0.71252 0.5937 0.77421 0.0
C272 C 0.66948 0.57232 0.80884 0.0
C273 C 0.63882 0.6044 0.80766 0.0
C274 C 0.59713 0.59687 0.82245 0.0
C275 C 0.58627 0.55677 0.8387 0.0
C276 C 0.61809 0.52539 0.84007 0.0
C277 C 0.65981 0.53431 0.82526 0.0
C278 C 0.56471 0.63169 0.82079 0.0
C279 C 0.60758 0.48177 0.85703 0.0
C280 C 0.14916 0.16039 0.82184 0.0
C281 C 0.19269 0.20843 0.83833 0.0
C282 C 0.26306 0.31963 0.84278 0.0
C283 C 0.30298 0.31626 0.8577 0.0
C284 C 0.35972 0.36816 0.86423 0.0
C285 C 0.37541 0.42606 0.85691 0.0
C286 C 0.33397 0.43036 0.84279 0.0
C287 C 0.27863 0.37686 0.83569 0.0
C288 C 0.40302 0.36001 0.87856 0.0
C289 C 0.34854 0.4912 0.83484 0.0
C290 C 0.39711 0.4793 0.99854 0.0
C291 C 0.42613 0.45288 0.98869 0.0
C292 C 0.46286 0.48103 0.97217 0.0
C293 C 0.47111 0.53725 0.96565 0.0
C294 C 0.44277 0.56466 0.97597 0.0
C295 C 0.40616 0.53531 0.99243 0.0
C296 C 0.49321 0.45094 0.96181 0.0
C297 C 0.45105 0.6247 0.96954 0.0
C298 C 0.96245 0.8743 0.96328 0.0
C299 C 0.89814 0.85738 0.96792 0.0
C300 C 0.80279 0.75818 0.96018 0.0
C301 C 0.77887 0.69518 0.95651 0.0
C302 C 0.71754 0.65506 0.94973 0.0
C303 C 0.67927 0.67888 0.94657 0.0
C304 C 0.70287 0.74252 0.95058 0.0
C305 C 0.76442 0.78161 0.95748 0.0
C306 C 0.69359 0.58719 0.94605 0.0
C307 C 0.66289 0.76904 0.94765 0.0
C308 C 0.54089 0.54614 0.8541 0.0
C309 C 0.48016 0.501 0.84849 0.0
C310 C 0.43638 0.48103 0.86324 0.0
C311 C 0.45347 0.50726 0.88422 0.0
C312 C 0.411 0.48792 0.89957 0.0
C313 C 0.42957 0.50849 0.92065 0.0
C314 C 0.49105 0.55051 0.92705 0.0
C315 C 0.51126 0.56813 0.94857 0.0
C316 C 0.57235 0.61155 0.95432 0.0
C317 C 0.61449 0.63692 0.93917 0.0
C318 C 0.5956 0.61839 0.91762 0.0
C319 C 0.63728 0.64142 0.90204 0.0
C320 C 0.61915 0.61903 0.8811 0.0
C321 C 0.55858 0.57323 0.87494 0.0
C322 C 0.51503 0.5525 0.89016 0.0
C323 C 0.53372 0.57457 0.91158 0.0
C324 C 0.25515 0.40756 0.01877 0.0
C325 C 0.30483 0.39726 0.0111 0.0
O326 O 0.70924 0.57689 0.79476 0.0
O327 O 0.8623 0.79396 0.96723 0.0
O328 O 0.36082 0.45146 0.0142 0.0
O329 O 0.21112 0.26851 0.83416 0.0
H330 H 0.66873 0.58842 0.76903 0.0
H331 H 0.67669 0.49972 0.76156 0.0
H332 H 0.75837 0.54656 0.76307 0.0
H333 H 0.71386 0.55709 0.74298 0.0
H334 H 0.64769 0.6357 0.79542 0.0
H335 H 0.68433 0.51044 0.82616 0.0
H336 H 0.51515 0.59863 0.81757 0.0
H337 H 0.58086 0.66404 0.80809 0.0
H338 H 0.57148 0.65797 0.83599 0.0
H339 H 0.63152 0.45656 0.85465 0.0
H340 H 0.55826 0.44776 0.85741 0.0
H341 H 0.62406 0.50793 0.87262 0.0
H342 H 0.17981 0.19895 0.85484 0.0
H343 H 0.19785 0.12284 0.81065 0.0
H344 H 0.13134 0.18333 0.81148 0.0
H345 H 0.10578 0.13259 0.82973 0.0
H346 H 0.29114 0.27284 0.86394 0.0
H347 H 0.24762 0.37936 0.8243 0.0
H348 H 0.39994 0.37263 0.89509 0.0
H349 H 0.45076 0.3897 0.87459 0.0
H350 H 0.39163 0.31153 0.87769 0.0
H351 H 0.30798 0.48859 0.82688 0.0
H352 H 0.3838 0.50543 0.8234 0.0
H353 H 0.3671 0.52734 0.84804 0.0
H354 H 0.29173 0.38565 0.99396 0.0
H355 H 0.42047 0.41061 0.99412 0.0
H356 H 0.38385 0.5555 0.00042 0.0
H357 H 0.47714 0.43921 0.94487 0.0
H358 H 0.48363 0.40829 0.96918 0.0
H359 H 0.54312 0.48347 0.96279 0.0
H360 H 0.42346 0.63845 0.9784 0.0
H361 H 0.43814 0.62091 0.95244 0.0
H362 H 0.49969 0.66155 0.9723 0.0
H363 H 0.88242 0.874 0.95468 0.0
H364 H 0.99256 0.92491 0.96277 0.0
H365 H 0.96131 0.85238 0.94774 0.0
H366 H 0.98198 0.85814 0.97552 0.0
H367 H 0.80865 0.67749 0.95902 0.0
H368 H 0.78191 0.82999 0.96102 0.0
H369 H 0.67664 0.57205 0.9293 0.0
H370 H 0.65474 0.56066 0.95576 0.0
H371 H 0.72883 0.5758 0.94998 0.0
H372 H 0.68853 0.81983 0.95077 0.0
H373 H 0.62582 0.74832 0.95844 0.0
H374 H 0.6414 0.75726 0.9313 0.0
H375 H 0.46749 0.47855 0.83273 0.0
H376 H 0.36317 0.45519 0.89554 0.0
H377 H 0.3953 0.49055 0.93192 0.0
H378 H 0.58773 0.62419 0.97088 0.0
H379 H 0.6847 0.67595 0.90593 0.0
H380 H 0.6534 0.63733 0.86983 0.0
H381 H 0.26378 0.42441 0.03557 0.0
H382 H 0.21018 0.36403 0.01653 0.0
H383 H 0.25293 0.4424 0.00944 0.0
C384 C 0.05922 0.27197 0.09561 0.0
C385 C 0.02116 0.2093 0.09968 0.0
C386 C 0.0028 0.24038 0.13395 0.0
C387 C 0.05125 0.30131 0.13176 0.0
N388 N 0.09713 0.37846 0.10672 0.0
N389 N 0.95212 0.13255 0.12177 0.0
C390 C 0.07085 0.31847 0.11134 0.0
C391 C 0.99 0.19312 0.11831 0.0
N392 N 0.08617 0.28669 0.07702 0.0
N393 N 0.96869 0.22837 0.15084 0.0
H394 H 0.94063 0.09692 0.11045 0.0
H395 H 0.93428 0.11724 0.13614 0.0
H396 H 0.97481 0.26313 0.16164 0.0
H397 H 0.93 0.18594 0.15277 0.0
H398 H 0.12086 0.33076 0.07416 0.0
H399 H 0.0753 0.25379 0.06467 0.0
H400 H 0.10957 0.39353 0.0918 0.0
H401 H 0.09789 0.41172 0.11688 0.0
C402 C 0.96923 0.1159 0.45486 0.0
C403 C 0.94991 0.07294 0.43721 0.0
C404 C 0.84376 0.03807 0.4426 0.0
C405 C 0.86395 0.0896 0.45726 0.0
N406 N 0.9448 0.15911 0.48362 0.0
N407 N 0.86896 0.99048 0.41451 0.0
C408 C 0.92585 0.12256 0.46538 0.0
C409 C 0.88712 0.03279 0.43127 0.0
N410 N 0.02947 0.15204 0.46148 0.0
N411 N 0.78385 0.9924 0.44048 0.0
H412 H 0.89905 0.9824 0.40673 0.0
H413 H 0.8246 0.96565 0.40764 0.0
H414 H 0.75164 0.99219 0.44975 0.0
H415 H 0.76727 0.9512 0.43146 0.0
H416 H 0.04513 0.18486 0.4742 0.0
H417 H 0.06362 0.14982 0.45417 0.0
H418 H 0.91569 0.16241 0.49365 0.0
H419 H 0.91569 0.16241 0.49365 0.0
C420 C 0.87484 0.73905 0.78096 0.0
C421 C 0.87407 0.77071 0.76329 0.0
C422 C 0.7645 0.69765 0.7572 0.0
C423 C 0.76785 0.65854 0.77207 0.0
N424 N 0.83605 0.63959 0.79411 0.0
N425 N 0.819 0.77046 0.73151 0.0
C426 C 0.82574 0.67836 0.78285 0.0
C427 C 0.81916 0.74744 0.75052 0.0
N428 N 0.92163 0.76706 0.79629 0.0
N429 N 0.71011 0.68929 0.74962 0.0
H430 H 0.85826 0.8045 0.72532 0.0
H431 H 0.78082 0.75055 0.7208 0.0
H432 H 0.66819 0.65747 0.75474 0.0
H433 H 0.70734 0.72038 0.74016 0.0
H434 H 0.92113 0.74717 0.81035 0.0
H435 H 0.95692 0.81278 0.79616 0.0
H436 H 0.87934 0.65213 0.80034 0.0
H437 H 0.8046 0.59323 0.79528 0.0
C438 C 0.04247 0.9472 0.12176 0.0
C439 C 0.10463 0.99271 0.12043 0.0
C440 C 0.12733 0.98089 0.157 0.0
C441 C 0.06753 0.92837 0.15743 0.0
N442 N 0.96543 0.8651 0.14038 0.0
N443 N 0.20778 0.04912 0.1357 0.0
C444 C 0.02412 0.91294 0.13993 0.0
C445 C 0.14754 0.00821 0.1377 0.0
N446 N 0.00055 0.93728 0.1057 0.0
N447 N 0.16379 0.00725 0.17523 0.0
H448 H 0.22398 0.07186 0.12205 0.0
H449 H 0.24203 0.05669 0.14693 0.0
H450 H 0.14956 0.99285 0.19008 0.0
H451 H 0.20544 0.04859 0.176 0.0
H452 H 0.95379 0.91194 0.10684 0.0
H453 H 0.01217 0.95719 0.09135 0.0
H454 H 0.9355 0.84442 0.12701 0.0
H455 H 0.94597 0.84441 0.15396 0.0
C456 C 0.21765 0.05101 0.42483 0.0
C457 C 0.21291 0.10386 0.42459 0.0
C458 C 0.2325 0.11987 0.46294 0.0
C459 C 0.23489 0.06508 0.4635 0.0
N460 N 0.20547 0.96752 0.44471 0.0
N461 N 0.21905 0.19106 0.44309 0.0
C462 C 0.2211 0.02763 0.44437 0.0
C463 C 0.22158 0.13888 0.44352 0.0
N464 N 0.21788 0.02207 0.40638 0.0
N465 N 0.23691 0.15388 0.48068 0.0
H466 H 0.21343 0.20815 0.42908 0.0
H467 H 0.22435 0.21805 0.45667 0.0
H468 H 0.2403 0.14294 0.49607 0.0
H469 H 0.2403 0.14294 0.49607 0.0
H470 H 0.22899 0.98821 0.40581 0.0
H471 H 0.21305 0.03555 0.39158 0.0
H472 H 0.18869 0.93697 0.43137 0.0
H473 H 0.20084 0.94488 0.45836 0.0
C474 C 0.1717 0.14832 0.78597 0.0
C475 C 0.11786 0.07453 0.79579 0.0
C476 C 0.18958 0.1115 0.84042 0.0
C477 C 0.23272 0.19055 0.83146 0.0
N478 N 0.27821 0.2613 0.79652 0.0
N479 N 0.08915 0.9984 0.82834 0.0
C480 C 0.23512 0.20706 0.80316 0.0
C481 C 0.12756 0.05543 0.82232 0.0
N482 N 0.16702 0.1578 0.76544 0.0
N483 N 0.19884 0.09967 0.86025 0.0
H484 H 0.05247 0.96579 0.81826 0.0
H485 H 0.09435 0.98612 0.84335 0.0
H486 H 0.2332 0.13475 0.87044 0.0
H487 H 0.1726 0.05595 0.86563 0.0
H488 H 0.19818 0.19923 0.75945 0.0
H489 H 0.13214 0.12405 0.75508 0.0
H490 H 0.27802 0.27107 0.7808 0.0
H491 H 0.31314 0.29402 0.80714 0.0
C492 C 0.86631 0.08035 0.71403 0.0
C493 C 0.88261 0.01937 0.70991 0.0
C494 C 0.75767 0.93404 0.68321 0.0
C495 C 0.75131 0.00323 0.68302 0.0
N496 N 0.78129 0.11431 0.70506 0.0
N497 N 0.84102 0.90135 0.69317 0.0
C498 C 0.79633 0.07135 0.70225 0.0
C499 C 0.8283 0.94632 0.69536 0.0
N500 N 0.90511 0.13119 0.72655 0.0
N501 N 0.71634 0.88123 0.67211 0.0
H502 H 0.88253 0.90788 0.69891 0.0
H503 H 0.81036 0.85946 0.68494 0.0
H504 H 0.67824 0.87791 0.66427 0.0
H505 H 0.72129 0.84321 0.67125 0.0
H506 H 0.89631 0.16626 0.72927 0.0
H507 H 0.94456 0.13629 0.73387 0.0
H508 H 0.808 0.15363 0.71512 0.0
H509 H 0.74201 0.10819 0.69715 0.0
C510 C 0.96261 0.99341 0.00623 0.0
C511 C 0.97911 0.96919 0.02321 0.0
C512 C 0.90651 0.86443 0.00832 0.0
C513 C 0.90092 0.88904 0.98932 0.0
N514 N 0.89542 0.97184 0.97491 0.0
N515 N 0.96293 0.88196 0.04191 0.0
C516 C 0.9197 0.95212 0.98987 0.0
C517 C 0.94922 0.90468 0.02483 0.0
N518 N 0.99134 0.05561 0.00486 0.0
N519 N 0.86746 0.80383 0.01124 0.0
H520 H 0.99022 0.90987 0.05508 0.0
H521 H 0.94951 0.83594 0.04268 0.0
H522 H 0.82912 0.77603 0.00108 0.0
H523 H 0.86681 0.78364 0.0252 0.0
H524 H 0.98689 0.07595 0.99159 0.0
H525 H 0.02279 0.08735 0.01655 0.0
H526 H 0.90374 0.0164 0.97511 0.0
H527 H 0.86066 0.94136 0.96379 0.0
C528 C 0.95546 0.8962 0.33605 0.0
C529 C 0.00449 0.92147 0.35169 0.0
C530 C 0.98456 0.81874 0.35813 0.0
C531 C 0.93064 0.79213 0.34426 0.0
N532 N 0.87738 0.80669 0.31477 0.0
N533 N 0.06221 0.90818 0.37957 0.0
C534 C 0.91973 0.83119 0.33163 0.0
C535 C 0.01836 0.88318 0.36313 0.0
N536 N 0.94139 0.93441 0.32614 0.0
N537 N 0.00641 0.78344 0.36535 0.0
H538 H 0.08937 0.95535 0.38353 0.0
H539 H 0.06839 0.88201 0.39043 0.0
H540 H 0.98789 0.73735 0.3605 0.0
H541 H 0.04844 0.80164 0.37374 0.0
H542 H 0.90144 0.91923 0.31675 0.0
H543 H 0.96818 0.98225 0.32838 0.0
H544 H 0.87244 0.83283 0.30361 0.0
H545 H 0.85016 0.75992 0.31053 0.0
C546 C 0.13337 0.92918 0.68744 0.0
C547 C 0.12007 0.97173 0.69675 0.0
C548 C 0.19326 0.05055 0.67521 0.0
C549 C 0.21841 0.01368 0.67105 0.0
N550 N 0.19811 0.90877 0.66806 0.0
N551 N 0.13928 0.07564 0.69951 0.0
C552 C 0.18405 0.95039 0.67528 0.0
C553 C 0.14931 0.03285 0.69027 0.0
N554 N 0.09841 0.86807 0.69067 0.0
N555 N 0.21004 0.10144 0.66433 0.0
H556 H 0.10854 0.06608 0.71088 0.0
H557 H 0.16531 0.12228 0.697 0.0
H558 H 0.23791 0.11217 0.65188 0.0
H559 H 0.18966 0.12743 0.66564 0.0
H560 H 0.10746 0.83544 0.68448 0.0
H561 H 0.05895 0.85006 0.69867 0.0
H562 H 0.23303 0.91865 0.65839 0.0
H563 H 0.23303 0.91865 0.65839 0.0
C564 C 0.25751 0.23211 0.01912 0.0
C565 C 0.25962 0.23244 0.04137 0.0
C566 C 0.31223 0.34498 0.04426 0.0
C567 C 0.30475 0.34414 0.02185 0.0
N568 N 0.29877 0.29035 0.98887 0.0
N569 N 0.30482 0.28761 0.07488 0.0
C570 C 0.28684 0.28885 0.00956 0.0
C571 C 0.29253 0.28863 0.05385 0.0
N572 N 0.22417 0.17796 0.00701 0.0
N573 N 0.33588 0.39881 0.05642 0.0
H574 H 0.29089 0.24661 0.08203 0.0
H575 H 0.33314 0.32673 0.08479 0.0
H576 H 0.35585 0.44177 0.05032 0.0
H577 H 0.33421 0.40112 0.07268 0.0
H578 H 0.21452 0.17593 0.99084 0.0
H579 H 0.20247 0.135 0.01321 0.0
H580 H 0.29119 0.25181 0.97982 0.0
H581 H 0.32356 0.33104 0.98148 0.0
C582 C 0.15955 0.29119 0.33545 0.0
C583 C 0.11371 0.25092 0.34804 0.0
C584 C 0.09115 0.33172 0.35596 0.0
C585 C 0.14969 0.37638 0.34953 0.0
N586 N 0.23828 0.3953 0.33119 0.0
N587 N 0.02056 0.22557 0.36317 0.0
C588 C 0.18308 0.35523 0.33837 0.0
C589 C 0.07451 0.26894 0.35606 0.0
N590 N 0.17823 0.26804 0.3199 0.0
N591 N 0.05035 0.34822 0.36104 0.0
H592 H 0.00082 0.17878 0.35894 0.0
H593 H 0.99491 0.23552 0.37279 0.0
H594 H 0.05688 0.39161 0.3595 0.0
H595 H 0.00606 0.31728 0.36454 0.0
H596 H 0.20824 0.29521 0.30906 0.0
H597 H 0.15648 0.22093 0.31587 0.0
H598 H 0.26676 0.38115 0.32567 0.0
H599 H 0.2583 0.44273 0.33186 0.0
loop_
_geom_bond_atom_site_label_1
_geom_bond_atom_site_label_2
_geom_bond_distance
_geom_bond_site_symmetry_2
_ccdc_geom_bond_type
Zn0 O3 2.031 1_545 S
Zn0 O5 2.049 . S
Zn0 O10 2.067 1_545 S
Zn1 O2 1.962 . S
Zn1 O4 1.986 . S
Zn1 O6 1.996 . S
Zn1 O9 1.951 . S
O2 Zn1 1.962 . S
O2 C7 1.254 1_545 S
O3 Zn0 2.031 1_565 S
O3 C7 1.269 . S
O4 Zn1 1.986 . S
O4 C11 1.262 . S
O5 Zn0 2.049 . S
O5 C13 1.260 . S
O6 Zn1 1.996 . S
O6 C13 1.257 . S
C7 O2 1.254 1_565 S
C7 O3 1.269 . S
C8 O9 1.252 1_665 S
C8 O10 1.270 1_655 S
O9 Zn1 1.951 . S
O9 C8 1.252 1_445 S
O10 Zn0 2.067 1_565 S
O10 C8 1.270 1_455 S
C11 O4 1.262 . S
C11 O12 1.232 . S
O12 C11 1.232 . S
C13 O5 1.260 . S
C13 O6 1.257 . S
Zn14 O17 2.031 . S
Zn14 O19 2.049 . S
Zn14 O24 2.067 . S
Zn15 O16 1.962 . S
Zn15 O18 1.986 1_455 S
Zn15 O20 1.996 . S
Zn15 O23 1.943 1_455 S
O16 Zn15 1.962 . S
O16 C21 1.254 . S
O17 Zn14 2.031 . S
O17 C21 1.269 . S
O18 Zn15 1.986 1_655 S
O18 C25 1.262 . S
O19 Zn14 2.049 . S
O19 C27 1.260 . S
O20 Zn15 1.996 . S
O20 C27 1.257 . S
C21 O16 1.254 . S
C21 O17 1.269 . S
C22 O23 1.249 1_455 S
C22 O24 1.270 . S
O23 Zn15 1.943 1_655 S
O23 C22 1.249 1_655 S
O24 Zn14 2.067 . S
O24 C22 1.270 . S
C25 O18 1.262 . S
C25 O26 1.232 . S
O26 C25 1.232 . S
C27 O19 1.260 . S
C27 O20 1.257 . S
Zn28 O31 2.031 1_565 S
Zn28 O33 2.049 . S
Zn28 O38 2.067 1_565 S
Zn29 O30 1.956 1_545 S
Zn29 O32 1.986 1_455 S
Zn29 O34 1.996 1_445 S
Zn29 O37 1.943 . S
O30 Zn29 1.956 1_565 S
O30 C35 1.258 1_565 S
O31 Zn28 2.031 1_545 S
O31 C35 1.269 . S
O32 Zn29 1.986 1_655 S
O32 C39 1.262 . S
O33 Zn28 2.049 . S
O33 C41 1.260 1_455 S
O34 Zn29 1.996 1_665 S
O34 C41 1.257 . S
C35 O30 1.258 1_545 S
C35 O31 1.269 . S
C36 O37 1.249 . S
C36 O38 1.270 . S
O37 Zn29 1.943 . S
O37 C36 1.249 . S
O38 Zn28 2.067 1_545 S
O38 C36 1.270 . S
C39 O32 1.262 . S
C39 O40 1.232 . S
O40 C39 1.232 . S
C41 O33 1.260 1_655 S
C41 O34 1.257 . S
C42 C43 1.560 . S
C42 H103 0.959 . S
C42 H104 0.959 . S
C42 H105 0.960 . S
C43 C42 1.560 . S
C43 O98 1.426 . S
C43 H102 0.980 1_655 S
C44 C45 1.407 1_655 S
C44 C49 1.418 . S
C44 O98 1.334 . S
C45 C44 1.407 1_455 S
C45 C46 1.360 . S
C45 H106 0.929 . S
C46 C45 1.360 . S
C46 C47 1.401 . S
C46 C50 1.527 . S
C47 C46 1.401 . S
C47 C48 1.405 1_455 S
C47 C80 1.587 . S
C48 C47 1.405 1_655 S
C48 C49 1.332 . S
C48 C51 1.496 . S
C49 C44 1.418 . S
C49 C48 1.332 . S
C49 H107 0.929 . S
C50 C46 1.527 . S
C50 H108 0.959 . S
C50 H109 0.961 . S
C50 H110 0.961 . S
C51 C48 1.496 . S
C51 H111 0.960 . S
C51 H112 0.960 . S
C51 H113 0.961 . S
C52 C53 1.517 . S
C52 H115 0.961 . S
C52 H116 0.960 . S
C52 H117 0.959 . S
C53 C52 1.517 . S
C53 O101 1.468 . S
C53 H114 0.980 . S
C54 C55 1.349 . S
C54 C59 1.367 . S
C54 O101 1.408 . S
C55 C54 1.349 . S
C55 C56 1.407 . S
C55 H118 0.930 . S
C56 C55 1.407 . S
C56 C57 1.449 . S
C56 C60 1.535 1_455 S
C57 C56 1.449 . S
C57 C58 1.384 . S
C57 C82 1.553 . S
C58 C57 1.384 . S
C58 C59 1.364 . S
C58 C61 1.450 . S
C59 C54 1.367 . S
C59 C58 1.364 . S
C59 H119 0.931 . S
C60 C56 1.535 1_655 S
C60 H120 0.959 . S
C60 H121 0.961 . S
C60 H122 0.959 . S
C61 C58 1.450 . S
C61 H123 0.960 . S
C61 H124 0.960 . S
C61 H125 0.960 . S
C62 C63 1.309 . S
C62 C67 1.304 . S
C62 O100 1.435 . S
C63 C62 1.309 . S
C63 C64 1.476 . S
C63 H127 0.930 . S
C64 C63 1.476 . S
C64 C65 1.400 . S
C64 C68 1.567 1_455 S
C65 C64 1.400 . S
C65 C66 1.373 . S
C65 C87 1.432 . S
C66 C65 1.373 . S
C66 C67 1.339 . S
C66 C69 1.530 . S
C67 C62 1.304 . S
C67 C66 1.339 . S
C67 H128 0.930 . S
C68 C64 1.567 1_655 S
C68 H129 0.961 . S
C68 H130 0.960 . S
C68 H131 0.958 . S
C69 C66 1.530 . S
C69 H132 0.961 . S
C69 H133 0.960 . S
C69 H134 0.960 . S
C70 C71 1.530 1_655 S
C70 H136 0.961 1_655 S
C70 H137 0.961 . S
C70 H138 0.959 . S
C71 C70 1.530 1_455 S
C71 O99 1.412 1_455 S
C71 H135 0.980 . S
C72 C73 1.288 1_455 S
C72 C77 1.377 . S
C72 O99 1.393 1_455 S
C73 C72 1.288 1_655 S
C73 C74 1.369 . S
C73 H139 0.932 . S
C74 C73 1.369 . S
C74 C75 1.398 1_655 S
C74 C78 1.527 . S
C75 C74 1.398 1_455 S
C75 C76 1.380 . S
C75 C89 1.497 . S
C76 C75 1.380 . S
C76 C77 1.383 . S
C76 C79 1.603 . S
C77 C72 1.377 . S
C77 C76 1.383 . S
C77 H140 0.929 . S
C78 C74 1.527 . S
C78 H141 0.961 . S
C78 H142 0.959 . S
C78 H143 0.959 . S
C79 C76 1.603 . S
C79 H144 0.960 . S
C79 H145 0.962 . S
C79 H146 0.961 . S
C80 C47 1.587 . S
C80 C81 1.360 . S
C80 C93 1.412 . S
C81 C80 1.360 . S
C81 C82 1.365 . S
C81 H147 0.929 . S
C82 C57 1.553 . S
C82 C81 1.365 . S
C82 C83 1.404 . S
C83 C82 1.404 . S
C83 C84 1.395 . S
C83 C94 1.451 . S
C84 C83 1.395 . S
C84 C85 1.322 . S
C84 H148 0.930 . S
C85 C84 1.322 . S
C85 C86 1.459 . S
C85 H149 0.929 . S
C86 C85 1.459 . S
C86 C87 1.445 . S
C86 C95 1.395 . S
C87 C65 1.432 . S
C87 C86 1.445 . S
C87 C88 1.370 . S
C88 C87 1.370 . S
C88 C89 1.438 . S
C88 H150 0.930 . S
C89 C75 1.497 . S
C89 C88 1.438 . S
C89 C90 1.360 . S
C90 C89 1.360 . S
C90 C91 1.401 . S
C90 C95 1.446 . S
C91 C90 1.401 . S
C91 C92 1.347 . S
C91 H151 0.929 . S
C92 C91 1.347 . S
C92 C93 1.455 . S
C92 H152 0.930 . S
C93 C80 1.412 . S
C93 C92 1.455 . S
C93 C94 1.331 . S
C94 C83 1.451 . S
C94 C93 1.331 . S
C94 C95 1.497 . S
C95 C86 1.395 . S
C95 C90 1.446 . S
C95 C94 1.497 . S
C96 C97 1.582 . S
C96 H153 0.962 . S
C96 H154 0.959 . S
C96 H155 0.958 . S
C97 C96 1.582 . S
C97 O100 1.458 . S
C97 H126 0.980 . S
O98 C43 1.426 . S
O98 C44 1.334 . S
O99 C71 1.412 1_655 S
O99 C72 1.393 1_655 S
O100 C62 1.435 . S
O100 C97 1.458 . S
O101 C53 1.468 . S
O101 C54 1.408 . S
H102 C43 0.980 1_455 S
H103 C42 0.959 . S
H104 C42 0.959 . S
H105 C42 0.960 . S
H106 C45 0.929 . S
H107 C49 0.929 . S
H108 C50 0.959 . S
H109 C50 0.961 . S
H110 C50 0.961 . S
H111 C51 0.960 . S
H112 C51 0.960 . S
H113 C51 0.961 . S
H114 C53 0.980 . S
H115 C52 0.961 . S
H116 C52 0.960 . S
H117 C52 0.959 . S
H118 C55 0.930 . S
H119 C59 0.931 . S
H120 C60 0.959 . S
H121 C60 0.961 . S
H122 C60 0.959 . S
H123 C61 0.960 . S
H124 C61 0.960 . S
H125 C61 0.960 . S
H126 C97 0.980 . S
H127 C63 0.930 . S
H128 C67 0.930 . S
H129 C68 0.961 . S
H130 C68 0.960 . S
H131 C68 0.958 . S
H132 C69 0.961 . S
H133 C69 0.960 . S
H134 C69 0.960 . S
H135 C71 0.980 . S
H136 C70 0.961 1_455 S
H137 C70 0.961 . S
H138 C70 0.959 . S
H139 C73 0.932 . S
H140 C77 0.929 . S
H141 C78 0.961 . S
H142 C78 0.959 . S
H143 C78 0.959 . S
H144 C79 0.960 . S
H145 C79 0.962 . S
H146 C79 0.961 . S
H147 C81 0.929 . S
H148 C84 0.930 . S
H149 C85 0.929 . S
H150 C88 0.930 . S
H151 C91 0.929 . S
H152 C92 0.930 . S
H153 C96 0.962 . S
H154 C96 0.959 . S
H155 C96 0.958 . S
C156 C157 1.560 1_565 S
C156 H217 0.959 . S
C156 H218 0.959 . S
C156 H219 0.960 . S
C157 C156 1.560 1_545 S
C157 O212 1.426 1_545 S
C157 H216 0.980 . S
C158 C159 1.407 . S
C158 C163 1.418 1_545 S
C158 O212 1.334 1_545 S
C159 C158 1.407 . S
C159 C160 1.360 . S
C159 H220 0.929 . S
C160 C159 1.360 . S
C160 C161 1.401 . S
C160 C164 1.527 . S
C161 C160 1.401 . S
C161 C162 1.405 1_545 S
C161 C194 1.587 . S
C162 C161 1.405 1_565 S
C162 C163 1.332 . S
C162 C165 1.496 . S
C163 C158 1.418 1_565 S
C163 C162 1.332 . S
C163 H221 0.929 . S
C164 C160 1.527 . S
C164 H222 0.959 . S
C164 H223 0.961 . S
C164 H224 0.961 . S
C165 C162 1.496 . S
C165 H225 0.960 . S
C165 H226 0.960 . S
C165 H227 0.961 . S
C166 C167 1.517 . S
C166 H229 0.961 . S
C166 H230 0.960 . S
C166 H231 0.959 . S
C167 C166 1.517 . S
C167 O215 1.468 . S
C167 H228 0.980 . S
C168 C169 1.349 . S
C168 C173 1.367 . S
C168 O215 1.408 . S
C169 C168 1.349 . S
C169 C170 1.407 . S
C169 H232 0.930 . S
C170 C169 1.407 . S
C170 C171 1.449 . S
C170 C174 1.535 1_545 S
C171 C170 1.449 . S
C171 C172 1.384 . S
C171 C196 1.553 . S
C172 C171 1.384 . S
C172 C173 1.364 . S
C172 C175 1.450 . S
C173 C168 1.367 . S
C173 C172 1.364 . S
C173 H233 0.931 . S
C174 C170 1.535 1_565 S
C174 H234 0.959 . S
C174 H235 0.961 . S
C174 H236 0.959 . S
C175 C172 1.450 . S
C175 H237 0.960 . S
C175 H238 0.960 . S
C175 H239 0.960 . S
C176 C177 1.309 . S
C176 C181 1.304 . S
C176 O214 1.435 . S
C177 C176 1.309 . S
C177 C178 1.476 . S
C177 H241 0.930 . S
C178 C177 1.476 . S
C178 C179 1.400 . S
C178 C182 1.567 1_545 S
C179 C178 1.400 . S
C179 C180 1.373 . S
C179 C201 1.432 . S
C180 C179 1.373 . S
C180 C181 1.339 . S
C180 C183 1.530 . S
C181 C176 1.304 . S
C181 C180 1.339 . S
C181 H242 0.930 . S
C182 C178 1.567 1_565 S
C182 H243 0.961 . S
C182 H244 0.960 . S
C182 H245 0.958 . S
C183 C180 1.530 . S
C183 H246 0.961 . S
C183 H247 0.960 . S
C183 H248 0.960 . S
C184 C185 1.530 . S
C184 H250 0.961 . S
C184 H251 0.961 1_545 S
C184 H252 0.959 . S
C185 C184 1.530 . S
C185 O213 1.412 . S
C185 H249 0.980 . S
C186 C187 1.288 1_545 S
C186 C191 1.377 . S
C186 O213 1.393 . S
C187 C186 1.288 1_565 S
C187 C188 1.369 1_565 S
C187 H253 0.932 . S
C188 C187 1.369 1_545 S
C188 C189 1.398 . S
C188 C192 1.527 1_545 S
C189 C188 1.398 . S
C189 C190 1.380 . S
C189 C203 1.497 . S
C190 C189 1.380 . S
C190 C191 1.383 . S
C190 C193 1.603 . S
C191 C186 1.377 . S
C191 C190 1.383 . S
C191 H254 0.929 . S
C192 C188 1.527 1_565 S
C192 H255 0.961 . S
C192 H256 0.959 . S
C192 H257 0.959 . S
C193 C190 1.603 . S
C193 H258 0.960 . S
C193 H259 0.962 . S
C193 H260 0.961 . S
C194 C161 1.587 . S
C194 C195 1.360 . S
C194 C207 1.412 . S
C195 C194 1.360 . S
C195 C196 1.365 . S
C195 H261 0.929 . S
C196 C171 1.553 . S
C196 C195 1.365 . S
C196 C197 1.404 . S
C197 C196 1.404 . S
C197 C198 1.395 . S
C197 C208 1.451 . S
C198 C197 1.395 . S
C198 C199 1.322 . S
C198 H262 0.930 . S
C199 C198 1.322 . S
C199 C200 1.459 . S
C199 H263 0.929 . S
C200 C199 1.459 . S
C200 C201 1.445 . S
C200 C209 1.395 . S
C201 C179 1.432 . S
C201 C200 1.445 . S
C201 C202 1.370 . S
C202 C201 1.370 . S
C202 C203 1.438 . S
C202 H264 0.930 . S
C203 C189 1.497 . S
C203 C202 1.438 . S
C203 C204 1.360 . S
C204 C203 1.360 . S
C204 C205 1.401 . S
C204 C209 1.446 . S
C205 C204 1.401 . S
C205 C206 1.347 . S
C205 H265 0.929 . S
C206 C205 1.347 . S
C206 C207 1.455 . S
C206 H266 0.930 . S
C207 C194 1.412 . S
C207 C206 1.455 . S
C207 C208 1.331 . S
C208 C197 1.451 . S
C208 C207 1.331 . S
C208 C209 1.497 . S
C209 C200 1.395 . S
C209 C204 1.446 . S
C209 C208 1.497 . S
C210 C211 1.582 . S
C210 H267 0.962 . S
C210 H268 0.959 . S
C210 H269 0.958 . S
C211 C210 1.582 . S
C211 O214 1.458 . S
C211 H240 0.980 . S
O212 C157 1.426 1_565 S
O212 C158 1.334 1_565 S
O213 C185 1.412 . S
O213 C186 1.393 . S
O214 C176 1.435 . S
O214 C211 1.458 . S
O215 C167 1.468 . S
O215 C168 1.408 . S
H216 C157 0.980 . S
H217 C156 0.959 . S
H218 C156 0.959 . S
H219 C156 0.960 . S
H220 C159 0.929 . S
H221 C163 0.929 . S
H222 C164 0.959 . S
H223 C164 0.961 . S
H224 C164 0.961 . S
H225 C165 0.960 . S
H226 C165 0.960 . S
H227 C165 0.961 . S
H228 C167 0.980 . S
H229 C166 0.961 . S
H230 C166 0.960 . S
H231 C166 0.959 . S
H232 C169 0.930 . S
H233 C173 0.931 . S
H234 C174 0.959 . S
H235 C174 0.961 . S
H236 C174 0.959 . S
H237 C175 0.960 . S
H238 C175 0.960 . S
H239 C175 0.960 . S
H240 C211 0.980 . S
H241 C177 0.930 . S
H242 C181 0.930 . S
H243 C182 0.961 . S
H244 C182 0.960 . S
H245 C182 0.958 . S
H246 C183 0.961 . S
H247 C183 0.960 . S
H248 C183 0.960 . S
H249 C185 0.980 . S
H250 C184 0.961 . S
H251 C184 0.961 1_565 S
H252 C184 0.959 . S
H253 C187 0.932 . S
H254 C191 0.929 . S
H255 C192 0.961 . S
H256 C192 0.959 . S
H257 C192 0.959 . S
H258 C193 0.960 . S
H259 C193 0.962 . S
H260 C193 0.961 . S
H261 C195 0.929 . S
H262 C198 0.930 . S
H263 C199 0.929 . S
H264 C202 0.930 . S
H265 C205 0.929 . S
H266 C206 0.930 . S
H267 C210 0.962 . S
H268 C210 0.959 . S
H269 C210 0.958 . S
C270 C271 1.560 . S
C270 H331 0.959 . S
C270 H332 0.959 . S
C270 H333 0.960 . S
C271 C270 1.560 . S
C271 O326 1.426 . S
C271 H330 0.980 . S
C272 C273 1.407 . S
C272 C277 1.418 . S
C272 O326 1.334 . S
C273 C272 1.407 . S
C273 C274 1.360 . S
C273 H334 0.929 . S
C274 C273 1.360 . S
C274 C275 1.401 . S
C274 C278 1.527 . S
C275 C274 1.401 . S
C275 C276 1.405 . S
C275 C308 1.587 . S
C276 C275 1.405 . S
C276 C277 1.332 . S
C276 C279 1.496 . S
C277 C272 1.418 . S
C277 C276 1.332 . S
C277 H335 0.929 . S
C278 C274 1.527 . S
C278 H336 0.959 . S
C278 H337 0.961 . S
C278 H338 0.961 . S
C279 C276 1.496 . S
C279 H339 0.960 . S
C279 H340 0.960 . S
C279 H341 0.961 . S
C280 C281 1.517 . S
C280 H343 0.961 . S
C280 H344 0.960 . S
C280 H345 0.959 . S
C281 C280 1.517 . S
C281 O329 1.468 . S
C281 H342 0.980 . S
C282 C283 1.349 . S
C282 C287 1.367 . S
C282 O329 1.408 . S
C283 C282 1.349 . S
C283 C284 1.407 . S
C283 H346 0.930 . S
C284 C283 1.407 . S
C284 C285 1.449 . S
C284 C288 1.535 . S
C285 C284 1.449 . S
C285 C286 1.384 . S
C285 C310 1.553 . S
C286 C285 1.384 . S
C286 C287 1.364 . S
C286 C289 1.450 . S
C287 C282 1.367 . S
C287 C286 1.364 . S
C287 H347 0.931 . S
C288 C284 1.535 . S
C288 H348 0.959 . S
C288 H349 0.961 . S
C288 H350 0.959 . S
C289 C286 1.450 . S
C289 H351 0.960 . S
C289 H352 0.960 . S
C289 H353 0.960 . S
C290 C291 1.309 . S
C290 C295 1.304 . S
C290 O328 1.435 . S
C291 C290 1.309 . S
C291 C292 1.476 . S
C291 H355 0.930 . S
C292 C291 1.476 . S
C292 C293 1.400 . S
C292 C296 1.567 . S
C293 C292 1.400 . S
C293 C294 1.373 . S
C293 C315 1.432 . S
C294 C293 1.373 . S
C294 C295 1.339 . S
C294 C297 1.530 . S
C295 C290 1.304 . S
C295 C294 1.339 . S
C295 H356 0.930 . S
C296 C292 1.567 . S
C296 H357 0.961 . S
C296 H358 0.960 . S
C296 H359 0.958 . S
C297 C294 1.530 . S
C297 H360 0.961 . S
C297 H361 0.960 . S
C297 H362 0.960 . S
C298 C299 1.530 1_554 S
C298 H364 0.961 . S
C298 H365 0.961 1_554 S
C298 H366 0.959 . S
C299 C298 1.530 1_556 S
C299 O327 1.412 . S
C299 H363 0.980 . S
C300 C301 1.288 . S
C300 C305 1.377 . S
C300 O327 1.393 . S
C301 C300 1.288 . S
C301 C302 1.369 . S
C301 H367 0.932 . S
C302 C301 1.369 . S
C302 C303 1.398 . S
C302 C306 1.527 . S
C303 C302 1.398 . S
C303 C304 1.380 . S
C303 C317 1.497 . S
C304 C303 1.380 . S
C304 C305 1.383 . S
C304 C307 1.603 . S
C305 C300 1.377 . S
C305 C304 1.383 . S
C305 H368 0.929 . S
C306 C302 1.527 . S
C306 H369 0.961 . S
C306 H370 0.959 . S
C306 H371 0.959 . S
C307 C304 1.603 . S
C307 H372 0.960 . S
C307 H373 0.962 . S
C307 H374 0.961 . S
C308 C275 1.587 . S
C308 C309 1.360 . S
C308 C321 1.412 . S
C309 C308 1.360 . S
C309 C310 1.365 . S
C309 H375 0.929 . S
C310 C285 1.553 . S
C310 C309 1.365 . S
C310 C311 1.404 . S
C311 C310 1.404 . S
C311 C312 1.395 . S
C311 C322 1.451 . S
C312 C311 1.395 . S
C312 C313 1.322 . S
C312 H376 0.930 . S
C313 C312 1.322 . S
C313 C314 1.459 . S
C313 H377 0.929 . S
C314 C313 1.459 . S
C314 C315 1.445 . S
C314 C323 1.395 . S
C315 C293 1.432 . S
C315 C314 1.445 . S
C315 C316 1.370 . S
C316 C315 1.370 . S
C316 C317 1.438 . S
C316 H378 0.930 . S
C317 C303 1.497 . S
C317 C316 1.438 . S
C317 C318 1.360 . S
C318 C317 1.360 . S
C318 C319 1.401 . S
C318 C323 1.446 . S
C319 C318 1.401 . S
C319 C320 1.347 . S
C319 H379 0.929 . S
C320 C319 1.347 . S
C320 C321 1.455 . S
C320 H380 0.930 . S
C321 C308 1.412 . S
C321 C320 1.455 . S
C321 C322 1.331 . S
C322 C311 1.451 . S
C322 C321 1.331 . S
C322 C323 1.497 . S
C323 C314 1.395 . S
C323 C318 1.446 . S
C323 C322 1.497 . S
C324 C325 1.555 1_554 S
C324 H381 0.998 . S
C324 H382 0.932 1_554 S
C324 H383 0.979 . S
C325 C324 1.555 1_556 S
C325 O328 1.458 . S
C325 H354 0.980 . S
O326 C271 1.426 . S
O326 C272 1.334 . S
O327 C299 1.412 . S
O327 C300 1.393 . S
O328 C290 1.435 . S
O328 C325 1.458 . S
O329 C281 1.468 . S
O329 C282 1.408 . S
H330 C271 0.980 . S
H331 C270 0.959 . S
H332 C270 0.959 . S
H333 C270 0.960 . S
H334 C273 0.929 . S
H335 C277 0.929 . S
H336 C278 0.959 . S
H337 C278 0.961 . S
H338 C278 0.961 . S
H339 C279 0.960 . S
H340 C279 0.960 . S
H341 C279 0.961 . S
H342 C281 0.980 . S
H343 C280 0.961 . S
H344 C280 0.960 . S
H345 C280 0.959 . S
H346 C283 0.930 . S
H347 C287 0.931 . S
H348 C288 0.959 . S
H349 C288 0.961 . S
H350 C288 0.959 . S
H351 C289 0.960 . S
H352 C289 0.960 . S
H353 C289 0.960 . S
H354 C325 0.980 . S
H355 C291 0.930 . S
H356 C295 0.930 . S
H357 C296 0.961 . S
H358 C296 0.960 . S
H359 C296 0.958 . S
H360 C297 0.961 . S
H361 C297 0.960 . S
H362 C297 0.960 . S
H363 C299 0.980 . S
H364 C298 0.961 . S
H365 C298 0.961 1_556 S
H366 C298 0.959 . S
H367 C301 0.932 . S
H368 C305 0.929 . S
H369 C306 0.961 . S
H370 C306 0.959 . S
H371 C306 0.959 . S
H372 C307 0.960 . S
H373 C307 0.962 . S
H374 C307 0.961 . S
H375 C309 0.929 . S
H376 C312 0.930 . S
H377 C313 0.929 . S
H378 C316 0.930 . S
H379 C319 0.929 . S
H380 C320 0.930 . S
H381 C324 0.998 . S
H382 C324 0.932 1_556 S
H383 C324 0.979 . S
C384 C385 1.363 . S
C384 C390 1.379 . S
C384 N392 1.356 . S
C385 C384 1.363 . S
C385 C391 1.363 . S
C386 C387 1.363 . S
C386 C391 1.379 . S
C386 N393 1.356 . S
C387 C386 1.363 . S
C387 C390 1.363 . S
N388 C390 1.356 . S
N388 H400 0.984 . S
N388 H401 0.985 . S
N389 C391 1.356 . S
N389 H394 0.984 . S
N389 H395 0.985 1_455 S
C390 C384 1.379 . S
C390 C387 1.363 . S
C390 N388 1.356 . S
C391 C385 1.363 . S
C391 C386 1.379 . S
C391 N389 1.356 . S
N392 C384 1.356 . S
N392 H398 0.984 . S
N392 H399 0.984 . S
N393 C386 1.356 . S
N393 H396 0.984 . S
N393 H397 0.985 1_455 S
H394 N389 0.984 . S
H395 N389 0.985 1_655 S
H396 N393 0.984 . S
H397 N393 0.985 1_655 S
H398 N392 0.984 . S
H399 N392 0.984 . S
H400 N388 0.984 . S
H401 N388 0.985 . S
C402 C403 1.363 . S
C402 C408 1.379 . S
C402 N410 1.356 . S
C403 C402 1.363 . S
C403 C409 1.363 . S
C404 C405 1.363 . S
C404 C409 1.379 . S
C404 N411 1.356 1_545 S
C405 C404 1.363 . S
C405 C408 1.363 . S
N406 C408 1.356 . S
N406 H418 0.984 . S
N406 H419 0.985 . S
N407 C409 1.356 1_565 S
N407 H412 0.984 . S
N407 H413 0.985 . S
C408 C402 1.379 . S
C408 C405 1.363 . S
C408 N406 1.356 . S
C409 C403 1.363 . S
C409 C404 1.379 . S
C409 N407 1.356 1_545 S
N410 C402 1.356 . S
N410 H416 0.984 . S
N410 H417 0.984 . S
N411 C404 1.356 1_565 S
N411 H414 0.984 . S
N411 H415 0.985 . S
H412 N407 0.984 . S
H413 N407 0.985 . S
H414 N411 0.984 . S
H415 N411 0.985 . S
H416 N410 0.984 . S
H417 N410 0.984 . S
H418 N406 0.984 . S
H419 N406 0.985 . S
C420 C421 1.363 . S
C420 C426 1.379 . S
C420 N428 1.356 . S
C421 C420 1.363 . S
C421 C427 1.363 . S
C422 C423 1.363 . S
C422 C427 1.379 . S
C422 N429 1.356 . S
C423 C422 1.363 . S
C423 C426 1.363 . S
N424 C426 1.356 . S
N424 H436 0.984 . S
N424 H437 0.985 . S
N425 C427 1.356 . S
N425 H430 0.984 . S
N425 H431 0.985 . S
C426 C420 1.379 . S
C426 C423 1.363 . S
C426 N424 1.356 . S
C427 C421 1.363 . S
C427 C422 1.379 . S
C427 N425 1.356 . S
N428 C420 1.356 . S
N428 H434 0.984 1_655 S
N428 H435 0.984 1_655 S
N429 C422 1.356 . S
N429 H432 0.984 . S
N429 H433 0.985 . S
H430 N425 0.984 . S
H431 N425 0.985 . S
H432 N429 0.984 . S
H433 N429 0.985 . S
H434 N428 0.984 1_455 S
H435 N428 0.984 1_455 S
H436 N424 0.984 . S
H437 N424 0.985 . S
C438 C439 1.363 . S
C438 C444 1.379 . S
C438 N446 1.356 . S
C439 C438 1.363 . S
C439 C445 1.363 . S
C440 C441 1.363 . S
C440 C445 1.379 . S
C440 N447 1.356 . S
C441 C440 1.363 . S
C441 C444 1.363 . S
N442 C444 1.357 . S
N442 H454 0.978 1_455 S
N442 H455 0.991 . S
N443 C445 1.356 1_545 S
N443 H448 0.984 . S
N443 H449 0.985 . S
C444 C438 1.379 . S
C444 C441 1.363 . S
C444 N442 1.357 . S
C445 C439 1.363 . S
C445 C440 1.379 . S
C445 N443 1.356 1_565 S
N446 C438 1.356 . S
N446 H452 0.984 1_455 S
N446 H453 0.984 . S
N447 C440 1.356 . S
N447 H450 0.984 . S
N447 H451 0.985 . S
H448 N443 0.984 . S
H449 N443 0.985 . S
H450 N447 0.984 . S
H451 N447 0.985 . S
H452 N446 0.984 1_655 S
H453 N446 0.984 . S
H454 N442 0.978 1_655 S
H455 N442 0.991 . S
C456 C457 1.363 . S
C456 C462 1.379 . S
C456 N464 1.356 . S
C457 C456 1.363 . S
C457 C463 1.363 . S
C458 C459 1.363 . S
C458 C463 1.379 . S
C458 N465 1.356 . S
C459 C458 1.363 . S
C459 C462 1.363 . S
N460 C462 1.356 . S
N460 H472 0.984 . S
N460 H473 0.985 . S
N461 C463 1.356 . S
N461 H466 0.984 . S
N461 H467 0.985 1_545 S
C462 C456 1.379 . S
C462 C459 1.363 . S
C462 N460 1.356 . S
C463 C457 1.363 . S
C463 C458 1.379 . S
C463 N461 1.356 . S
N464 C456 1.356 . S
N464 H470 0.984 . S
N464 H471 0.984 . S
N465 C458 1.356 . S
N465 H468 0.984 . S
N465 H469 0.985 1_545 S
H466 N461 0.984 . S
H467 N461 0.985 1_565 S
H468 N465 0.984 . S
H469 N465 0.985 1_565 S
H470 N464 0.984 . S
H471 N464 0.984 . S
H472 N460 0.984 . S
H473 N460 0.985 . S
C474 C475 1.363 . S
C474 C480 1.379 . S
C474 N482 1.356 . S
C475 C474 1.363 . S
C475 C481 1.363 . S
C476 C477 1.363 . S
C476 C481 1.379 . S
C476 N483 1.356 . S
C477 C476 1.363 . S
C477 C480 1.363 . S
N478 C480 1.356 . S
N478 H490 0.984 . S
N478 H491 0.985 . S
N479 C481 1.356 . S
N479 H484 0.984 . S
N479 H485 0.985 . S
C480 C474 1.379 . S
C480 C477 1.363 . S
C480 N478 1.356 . S
C481 C475 1.363 . S
C481 C476 1.379 . S
C481 N479 1.356 . S
N482 C474 1.356 . S
N482 H488 0.984 . S
N482 H489 0.984 . S
N483 C476 1.356 . S
N483 H486 0.984 . S
N483 H487 0.985 . S
H484 N479 0.984 . S
H485 N479 0.985 . S
H486 N483 0.984 . S
H487 N483 0.985 . S
H488 N482 0.984 . S
H489 N482 0.984 . S
H490 N478 0.984 . S
H491 N478 0.985 . S
C492 C493 1.363 . S
C492 C498 1.379 . S
C492 N500 1.356 . S
C493 C492 1.363 . S
C493 C499 1.363 . S
C494 C495 1.363 . S
C494 C499 1.379 . S
C494 N501 1.356 1_545 S
C495 C494 1.363 . S
C495 C498 1.363 . S
N496 C498 1.356 . S
N496 H508 0.984 . S
N496 H509 0.985 . S
N497 C499 1.356 1_565 S
N497 H502 0.984 . S
N497 H503 0.985 . S
C498 C492 1.379 . S
C498 C495 1.363 . S
C498 N496 1.356 . S
C499 C493 1.363 . S
C499 C494 1.379 . S
C499 N497 1.356 1_545 S
N500 C492 1.356 . S
N500 H506 0.984 . S
N500 H507 0.984 . S
N501 C494 1.356 1_565 S
N501 H504 0.984 . S
N501 H505 0.985 . S
H502 N497 0.984 . S
H503 N497 0.985 . S
H504 N501 0.984 . S
H505 N501 0.985 . S
H506 N500 0.984 . S
H507 N500 0.984 . S
H508 N496 0.984 . S
H509 N496 0.985 . S
C510 C511 1.363 . S
C510 C516 1.379 . S
C510 N518 1.356 . S
C511 C510 1.363 . S
C511 C517 1.363 . S
C512 C513 1.363 . S
C512 C517 1.379 . S
C512 N519 1.356 . S
C513 C512 1.363 . S
C513 C516 1.363 . S
N514 C516 1.356 1_556 S
N514 H526 0.984 . S
N514 H527 0.985 . S
N515 C517 1.356 . S
N515 H520 0.984 . S
N515 H521 0.985 . S
C516 C510 1.379 . S
C516 C513 1.363 . S
C516 N514 1.356 1_554 S
C517 C511 1.363 . S
C517 C512 1.379 . S
C517 N515 1.356 . S
N518 C510 1.356 . S
N518 H524 0.984 1_565 S
N518 H525 0.984 1_565 S
N519 C512 1.356 . S
N519 H522 0.984 . S
N519 H523 0.985 . S
H520 N515 0.984 . S
H521 N515 0.985 . S
H522 N519 0.984 . S
H523 N519 0.985 . S
H524 N518 0.984 1_545 S
H525 N518 0.984 1_545 S
H526 N514 0.984 . S
H527 N514 0.985 . S
C528 C529 1.363 . S
C528 C534 1.379 . S
C528 N536 1.356 1_465 S
C529 C528 1.363 . S
C529 C535 1.363 . S
C530 C531 1.363 . S
C530 C535 1.379 . S
C530 N537 1.356 . S
C531 C530 1.363 . S
C531 C534 1.363 . S
N532 C534 1.357 1_655 S
N532 H544 0.986 . S
N532 H545 0.982 1_655 S
N533 C535 1.356 . S
N533 H538 0.984 . S
N533 H539 0.985 . S
C534 C528 1.379 . S
C534 C531 1.363 . S
C534 N532 1.357 1_455 S
C535 C529 1.363 . S
C535 C530 1.379 . S
C535 N533 1.356 . S
N536 C528 1.356 1_645 S
N536 H542 0.984 . S
N536 H543 0.984 . S
N537 C530 1.356 . S
N537 H540 0.984 . S
N537 H541 0.985 . S
H538 N533 0.984 . S
H539 N533 0.985 . S
H540 N537 0.984 . S
H541 N537 0.985 . S
H542 N536 0.984 . S
H543 N536 0.984 . S
H544 N532 0.986 . S
H545 N532 0.982 1_455 S
C546 C547 1.363 1_565 S
C546 C552 1.379 . S
C546 N554 1.356 . S
C547 C546 1.363 1_545 S
C547 C553 1.363 . S
C548 C549 1.363 . S
C548 C553 1.379 . S
C548 N555 1.356 . S
C549 C548 1.363 . S
C549 C552 1.363 1_545 S
N550 C552 1.356 . S
N550 H562 0.984 . S
N550 H563 0.985 . S
N551 C553 1.356 . S
N551 H556 0.984 . S
N551 H557 0.985 . S
C552 C546 1.379 . S
C552 C549 1.363 1_565 S
C552 N550 1.356 . S
C553 C547 1.363 . S
C553 C548 1.379 . S
C553 N551 1.356 . S
N554 C546 1.356 . S
N554 H560 0.984 . S
N554 H561 0.984 . S
N555 C548 1.356 . S
N555 H558 0.984 . S
N555 H559 0.985 . S
H556 N551 0.984 . S
H557 N551 0.985 . S
H558 N555 0.984 . S
H559 N555 0.985 . S
H560 N554 0.984 . S
H561 N554 0.984 . S
H562 N550 0.984 . S
H563 N550 0.985 . S
C564 C565 1.363 . S
C564 C570 1.379 1_554 S
C564 N572 1.356 . S
C565 C564 1.363 . S
C565 C571 1.363 . S
C566 C567 1.363 . S
C566 C571 1.379 . S
C566 N573 1.356 . S
C567 C566 1.363 . S
C567 C570 1.363 1_554 S
N568 C570 1.356 . S
N568 H580 0.984 . S
N568 H581 0.985 . S
N569 C571 1.356 . S
N569 H574 0.984 . S
N569 H575 0.985 . S
C570 C564 1.379 1_556 S
C570 C567 1.363 1_556 S
C570 N568 1.356 . S
C571 C565 1.363 . S
C571 C566 1.379 . S
C571 N569 1.356 . S
N572 C564 1.356 . S
N572 H578 1.015 . S
N572 H579 0.984 . S
N573 C566 1.356 . S
N573 H576 0.984 . S
N573 H577 0.985 . S
H574 N569 0.984 . S
H575 N569 0.985 . S
H576 N573 0.984 . S
H577 N573 0.985 . S
H578 N572 1.015 . S
H579 N572 0.984 . S
H580 N568 0.984 . S
H581 N568 0.985 . S
C582 C583 1.363 . S
C582 C588 1.379 . S
C582 N590 1.356 . S
C583 C582 1.363 . S
C583 C589 1.363 . S
C584 C585 1.363 . S
C584 C589 1.379 . S
C584 N591 1.356 . S
C585 C584 1.363 . S
C585 C588 1.363 . S
N586 C588 1.356 . S
N586 H598 0.984 . S
N586 H599 0.985 . S
N587 C589 1.356 . S
N587 H592 0.984 . S
N587 H593 0.985 . S
C588 C582 1.379 . S
C588 C585 1.363 . S
C588 N586 1.356 . S
C589 C583 1.363 . S
C589 C584 1.379 . S
C589 N587 1.356 . S
N590 C582 1.356 . S
N590 H596 0.984 . S
N590 H597 0.984 . S
N591 C584 1.356 . S
N591 H594 0.984 . S
N591 H595 0.985 . S
H592 N587 0.984 . S
H593 N587 0.985 . S
H594 N591 0.984 . S
H595 N591 0.985 . S
H596 N590 0.984 . S
H597 N590 0.984 . S
H598 N586 0.984 . S
H599 N586 0.985 . S
C387 C97 1.061 . S
C385 C11 1.396 . S
C403 C25 1.464 . S
C405 C211 1.120 . S
C421 C41 1.259 . S
C423 C271 1.098 . S
C439 C7 1.332 . S
C441 C71 1.086 . S
C459 C185 1.122 . S
C457 C21 1.396 . S
C475 C36 1.385 . S
C477 C281 0.792 . S
C495 C167 0.824 . S
C493 C39 1.372 . S
C511 C8 1.380 . S
C513 C299 1.198 1_554 S
C531 C43 1.108 1_455 S
C529 C22 1.340 1_565 S
C549 C157 1.037 . S
C547 C35 1.310 . S
C567 C325 1.068 1_554 S
C565 C13 1.430 . S
C583 C27 1.408 . S
C585 C53 0.861 . S
