# Generated by pormake.
# Topology the, (3,8)-cn, num edge types: 1
# Building blocks:
#     Node 0, Type 0, BuildingBlock: CUQRIR_clean_linker_1, # of connection points: 3
#     Node 1, Type 0, BuildingBlock: CUQRIR_clean_linker_1, # of connection points: 3
#     Node 2, Type 0, BuildingBlock: CUQRIR_clean_linker_1, # of connection points: 3
#     Node 3, Type 0, BuildingBlock: CUQRIR_clean_linker_1, # of connection points: 3
#     Node 4, Type 0, BuildingBlock: CUQRIR_clean_linker_1, # of connection points: 3
#     Node 5, Type 0, BuildingBlock: CUQRIR_clean_linker_1, # of connection points: 3
#     Node 6, Type 0, BuildingBlock: CUQRIR_clean_linker_1, # of connection points: 3
#     Node 7, Type 0, BuildingBlock: CUQRIR_clean_linker_1, # of connection points: 3
#     Node 8, Type 1, BuildingBlock: GIZVER_clean_sbu_0, # of connection points: 8
#     Node 9, Type 1, BuildingBlock: GIZVER_clean_sbu_0, # of connection points: 8
#     Node 10, Type 1, BuildingBlock: GIZVER_clean_sbu_0, # of connection points: 8
#     Edge 11, Type (0, 1), BuildingBlock: TEMPAE_clean_linker_10, # of connection points: 2
#     Edge 12, Type (0, 1), BuildingBlock: TEMPAE_clean_linker_10, # of connection points: 2
#     Edge 13, Type (0, 1), BuildingBlock: TEMPAE_clean_linker_10, # of connection points: 2
#     Edge 14, Type (0, 1), BuildingBlock: TEMPAE_clean_linker_10, # of connection points: 2
#     Edge 15, Type (0, 1), BuildingBlock: TEMPAE_clean_linker_10, # of connection points: 2
#     Edge 16, Type (0, 1), BuildingBlock: TEMPAE_clean_linker_10, # of connection points: 2
#     Edge 17, Type (0, 1), BuildingBlock: TEMPAE_clean_linker_10, # of connection points: 2
#     Edge 18, Type (0, 1), BuildingBlock: TEMPAE_clean_linker_10, # of connection points: 2
#     Edge 19, Type (0, 1), BuildingBlock: TEMPAE_clean_linker_10, # of connection points: 2
#     Edge 20, Type (0, 1), BuildingBlock: TEMPAE_clean_linker_10, # of connection points: 2
#     Edge 21, Type (0, 1), BuildingBlock: TEMPAE_clean_linker_10, # of connection points: 2
#     Edge 22, Type (0, 1), BuildingBlock: TEMPAE_clean_linker_10, # of connection points: 2
#     Edge 23, Type (0, 1), BuildingBlock: TEMPAE_clean_linker_10, # of connection points: 2
#     Edge 24, Type (0, 1), BuildingBlock: TEMPAE_clean_linker_10, # of connection points: 2
#     Edge 25, Type (0, 1), BuildingBlock: TEMPAE_clean_linker_10, # of connection points: 2
#     Edge 26, Type (0, 1), BuildingBlock: TEMPAE_clean_linker_10, # of connection points: 2
#     Edge 27, Type (0, 1), BuildingBlock: TEMPAE_clean_linker_10, # of connection points: 2
#     Edge 28, Type (0, 1), BuildingBlock: TEMPAE_clean_linker_10, # of connection points: 2
#     Edge 29, Type (0, 1), BuildingBlock: TEMPAE_clean_linker_10, # of connection points: 2
#     Edge 30, Type (0, 1), BuildingBlock: TEMPAE_clean_linker_10, # of connection points: 2
#     Edge 31, Type (0, 1), BuildingBlock: TEMPAE_clean_linker_10, # of connection points: 2
#     Edge 32, Type (0, 1), BuildingBlock: TEMPAE_clean_linker_10, # of connection points: 2
#     Edge 33, Type (0, 1), BuildingBlock: TEMPAE_clean_linker_10, # of connection points: 2
#     Edge 34, Type (0, 1), BuildingBlock: TEMPAE_clean_linker_10, # of connection points: 2
# Relax obj value: 0.077
# Max RMSD: 0.231
# Mean RMSD: 0.153
data_MOF--net-the--node1-GIZVER_clean_sbu_0--node2-CUQRIR_clean_linker_1--edge1-TEMPAE_clean_linker_10
_symmetry_space_group_name_H-M    P1
_symmetry_Int_Tables_number       1
_symmetry_cell_setting            triclinic
loop_
_symmetry_equiv_pos_as_xyz
'x, y, z'
_cell_length_a     38.847477
_cell_length_b     36.69576
_cell_length_c     33.114615
_cell_angle_alpha  84.381543
_cell_angle_beta   97.356473
_cell_angle_gamma 107.39147
loop_
_atom_site_label
_atom_site_type_symbol
_atom_site_fract_x
_atom_site_fract_y
_atom_site_fract_z
_atom_type_partial_charge
C0 C 0.3872 0.34139 0.44332 0.0
N1 N 0.40778 0.33655 0.41516 0.0
N2 N 0.36479 0.36231 0.42652 0.0
C3 C 0.38837 0.32495 0.48683 0.0
C4 C 0.37222 0.3694 0.38714 0.0
N5 N 0.3982 0.35396 0.38038 0.0
C6 C 0.35275 0.38942 0.35403 0.0
H7 H 0.37162 0.29458 0.48777 0.0
H8 H 0.37796 0.34095 0.50673 0.0
H9 H 0.4163 0.32583 0.4996 0.0
H10 H 0.36686 0.42057 0.35293 0.0
H11 H 0.32415 0.38465 0.35967 0.0
H12 H 0.35302 0.37906 0.32374 0.0
C13 C 0.71217 0.30805 0.26495 0.0
N14 N 0.7371 0.3025 0.29555 0.0
N15 N 0.7227 0.34412 0.24781 0.0
C16 C 0.676 0.2793 0.25421 0.0
C17 C 0.7548 0.36048 0.26942 0.0
N18 N 0.76345 0.33529 0.29891 0.0
C19 C 0.77859 0.40025 0.25979 0.0
H20 H 0.67892 0.26153 0.23034 0.0
H21 H 0.6551 0.29372 0.24216 0.0
H22 H 0.66651 0.26003 0.28103 0.0
H23 H 0.77228 0.42058 0.27831 0.0
H24 H 0.77357 0.40914 0.22709 0.0
H25 H 0.80768 0.40187 0.26709 0.0
C26 C 0.78923 0.73986 0.36181 0.0
N27 N 0.78851 0.71102 0.33878 0.0
N28 N 0.76669 0.76002 0.3438 0.0
C29 C 0.81282 0.74922 0.40135 0.0
C30 C 0.75238 0.74249 0.30876 0.0
N31 N 0.76585 0.71294 0.30551 0.0
C32 C 0.72297 0.75241 0.2795 0.0
H33 H 0.79855 0.73195 0.42691 0.0
H34 H 0.81873 0.77996 0.4068 0.0
H35 H 0.83868 0.74223 0.40108 0.0
H36 H 0.73459 0.78038 0.26308 0.0
H37 H 0.70127 0.75534 0.29662 0.0
H38 H 0.71093 0.73091 0.25649 0.0
C39 C 0.34961 0.65682 0.32521 0.0
N40 N 0.38192 0.68359 0.32077 0.0
N41 N 0.32773 0.67097 0.34371 0.0
C42 C 0.33833 0.61747 0.30921 0.0
C43 C 0.3476 0.70746 0.35015 0.0
N44 N 0.38046 0.71548 0.33576 0.0
C45 C 0.33599 0.73425 0.37343 0.0
H46 H 0.34987 0.61799 0.28012 0.0
H47 H 0.30837 0.60604 0.30416 0.0
H48 H 0.34862 0.59786 0.33189 0.0
H49 H 0.35923 0.751 0.39356 0.0
H50 H 0.31383 0.71852 0.3922 0.0
H51 H 0.32611 0.75463 0.35142 0.0
C52 C 0.36091 0.68275 0.74535 0.0
N53 N 0.39328 0.71004 0.74923 0.0
N54 N 0.33786 0.69363 0.71568 0.0
C55 C 0.35148 0.64607 0.77172 0.0
C56 C 0.35752 0.72877 0.70181 0.0
N57 N 0.39105 0.73895 0.72256 0.0
C58 C 0.34548 0.7513 0.66508 0.0
H59 H 0.36077 0.62439 0.75862 0.0
H60 H 0.32178 0.63492 0.77335 0.0
H61 H 0.36548 0.65056 0.80301 0.0
H62 H 0.32665 0.73204 0.64288 0.0
H63 H 0.36895 0.76944 0.6495 0.0
H64 H 0.33115 0.77026 0.67518 0.0
C65 C 0.36582 0.2887 0.67805 0.0
N66 N 0.36456 0.31763 0.69977 0.0
N67 N 0.39664 0.27864 0.68939 0.0
C68 C 0.33734 0.27105 0.64467 0.0
C69 C 0.41428 0.30271 0.71892 0.0
N70 N 0.39497 0.32675 0.72505 0.0
C71 C 0.45149 0.30445 0.73983 0.0
H72 H 0.33722 0.24129 0.64092 0.0
H73 H 0.3433 0.28817 0.61552 0.0
H74 H 0.3101 0.27115 0.65136 0.0
H75 H 0.47215 0.32336 0.72085 0.0
H76 H 0.45599 0.27589 0.74356 0.0
H77 H 0.45554 0.31606 0.77034 0.0
C78 C 0.73144 0.31037 0.73582 0.0
N79 N 0.75096 0.30411 0.70747 0.0
N80 N 0.74254 0.3476 0.74514 0.0
C81 C 0.7033 0.27908 0.75645 0.0
C82 C 0.76996 0.36368 0.72144 0.0
N83 N 0.77506 0.33731 0.69874 0.0
C84 C 0.79106 0.40549 0.71907 0.0
H85 H 0.67628 0.27596 0.73916 0.0
H86 H 0.70222 0.28575 0.78814 0.0
H87 H 0.70941 0.25134 0.75698 0.0
H88 H 0.77394 0.42362 0.72419 0.0
H89 H 0.80159 0.41461 0.68903 0.0
H90 H 0.81461 0.41043 0.74278 0.0
C91 C 0.76816 0.70443 0.6631 0.0
N92 N 0.78123 0.67392 0.66759 0.0
N93 N 0.76577 0.71752 0.62355 0.0
C94 C 0.75695 0.72103 0.69744 0.0
C95 C 0.77843 0.69422 0.604 0.0
N96 N 0.78723 0.66715 0.63086 0.0
C97 C 0.78394 0.69976 0.55932 0.0
H98 H 0.72911 0.70395 0.70351 0.0
H99 H 0.75736 0.75124 0.68972 0.0
H100 H 0.77527 0.72003 0.72577 0.0
H101 H 0.81017 0.72183 0.55545 0.0
H102 H 0.76212 0.71012 0.54151 0.0
H103 H 0.78472 0.67348 0.54633 0.0
Co104 Co 0.12993 0.46057 0.55451 0.0
Co105 Co 0.09542 0.43882 0.48291 0.0
Co106 Co 0.0535 0.48623 0.51996 0.0
O107 O 0.07937 0.44591 0.53178 0.0
H108 H 0.06477 0.42226 0.54397 0.0
O109 O 0.02862 0.52689 0.50835 0.0
Co110 Co 0.97866 0.51555 0.487 0.0
Co111 Co 0.01463 0.53526 0.55739 0.0
H112 H 0.0437 0.55034 0.49632 0.0
O113 O 0.11284 0.39809 0.47542 0.0
O114 O 0.14462 0.45414 0.50144 0.0
O115 O 0.08962 0.47361 0.43649 0.0
O116 O 0.08701 0.51607 0.47808 0.0
O117 O 0.0192 0.45463 0.47683 0.0
O118 O 0.93309 0.51001 0.46483 0.0
O119 O 0.97956 0.56407 0.47029 0.0
O120 O 0.97158 0.4629 0.50049 0.0
O121 O 0.01963 0.45673 0.56143 0.0
O122 O 0.02033 0.50017 0.60342 0.0
O123 O 0.96521 0.52171 0.54119 0.0
O124 O 1.00035 0.57792 0.56481 0.0
C125 C 0.16556 0.43323 0.586 0.0
C126 C 0.12079 0.52965 0.56052 0.0
C127 C 0.09605 0.5081 0.44495 0.0
C128 C 0.14371 0.42186 0.48774 0.0
C129 C 0.94584 0.54686 0.45769 0.0
C130 C 0.98499 0.44456 0.47931 0.0
C131 C 1.01097 0.46554 0.59434 0.0
C132 C 0.96852 0.55452 0.55528 0.0
O133 O 0.17524 0.46996 0.57743 0.0
O134 O 0.13263 0.41292 0.57363 0.0
O135 O 0.08681 0.51798 0.56332 0.0
O136 O 0.13474 0.51232 0.53896 0.0
Co137 Co 0.60905 0.94707 0.48543 0.0
Co138 Co 0.62841 0.97418 0.55795 0.0
Co139 Co 0.57471 0.01621 0.50902 0.0
O140 O 0.6162 0.99531 0.50709 0.0
H141 H 0.63722 0.01451 0.49787 0.0
O142 O 0.5341 0.03905 0.51052 0.0
Co143 Co 0.54439 0.08963 0.53039 0.0
Co144 Co 0.52268 0.06087 0.45865 0.0
H145 H 0.51292 0.02088 0.52069 0.0
O146 O 0.67287 0.96481 0.57253 0.0
O147 O 0.62267 0.92601 0.54039 0.0
O148 O 0.59541 0.96787 0.59837 0.0
O149 O 0.551 0.97627 0.55228 0.0
O150 O 0.6054 0.05018 0.55221 0.0
O151 O 0.54936 0.13452 0.5502 0.0
O152 O 0.49888 0.08479 0.5429 0.0
O153 O 0.59371 0.1017 0.52133 0.0
O154 O 0.5986 0.05571 0.46634 0.0
O155 O 0.55619 0.06572 0.41861 0.0
O156 O 0.53353 0.11048 0.47477 0.0
O157 O 0.48013 0.07613 0.44471 0.0
C158 C 0.6401 0.92182 0.4586 0.0
C159 C 0.53915 0.94521 0.47027 0.0
C160 C 0.56198 0.96315 0.58732 0.0
C161 C 0.65561 0.93192 0.55796 0.0
C162 C 0.51519 0.11921 0.55495 0.0
C163 C 0.61417 0.08642 0.5456 0.0
C164 C 0.58931 0.07 0.4314 0.0
C165 C 0.50124 0.1084 0.45741 0.0
O166 O 0.60636 0.90399 0.46345 0.0
O167 O 0.65469 0.95601 0.47186 0.0
O168 O 0.54439 0.98143 0.46565 0.0
O169 O 0.56019 0.93181 0.49574 0.0
Co170 Co 0.53544 0.56005 0.09636 0.0
Co171 Co 0.50415 0.49489 0.06406 0.0
Co172 Co 0.56501 0.54478 1.00868 0.0
O173 O 0.52437 0.54407 0.04088 0.0
H174 H 0.50611 0.55404 0.02507 0.0
O175 O 0.60631 0.5444 0.97931 0.0
Co176 Co 0.59921 0.52185 0.92857 0.0
Co177 Co 0.62719 0.5905 0.95286 0.0
H178 H 0.62499 0.5372 0.99759 0.0
O179 O 0.46038 0.47896 0.08816 0.0
O180 O 0.51617 0.50684 0.11829 0.0
O181 O 0.52911 0.45733 0.0591 0.0
O182 O 0.5791 0.50283 0.0447 0.0
O183 O 0.53025 0.50626 0.97184 0.0
O184 O 0.59655 0.49934 0.88229 0.0
O185 O 0.63943 0.50615 0.93608 0.0
O186 O 0.55469 0.53377 0.91567 0.0
O187 O 0.55085 0.58696 0.97177 0.0
O188 O 0.5992 0.62611 0.94437 0.0
O189 O 0.62602 0.57164 0.9028 0.0
O190 O 0.67529 0.60393 0.94264 0.0
C191 C 0.51005 0.582 0.13508 0.0
C192 C 0.60631 0.57544 0.08212 0.0
C193 C 0.56321 0.46891 0.05806 0.0
C194 C 0.48267 0.48706 0.12091 0.0
C195 C 0.62625 0.49308 0.90035 0.0
C196 C 0.52807 0.51142 0.93286 0.0
C197 C 0.56603 0.61739 0.95049 0.0
C198 C 0.66081 0.58788 0.90887 0.0
O199 O 0.5418 0.57711 0.14622 0.0
O200 O 0.49305 0.57062 0.09974 0.0
O201 O 0.60051 0.58355 0.0441 0.0
O202 O 0.58158 0.55208 0.10085 0.0
C203 C 0.33449 0.41055 0.43544 0.0
C204 C 0.33815 0.37375 0.44474 0.0
C205 C 0.30395 0.41968 0.44444 0.0
C206 C 0.27865 0.39281 0.46795 0.0
C207 C 0.28498 0.35738 0.48224 0.0
C208 C 0.31358 0.34755 0.46868 0.0
C209 C 0.29871 0.45757 0.42711 0.0
C210 C 0.26133 0.32886 0.51067 0.0
C211 C 0.21069 0.43554 0.50336 0.0
C212 C 0.178 0.41365 0.48376 0.0
C213 C 0.24356 0.4285 0.49975 0.0
C214 C 0.24407 0.40004 0.47397 0.0
C215 C 0.2112 0.37911 0.45242 0.0
C216 C 0.17847 0.38532 0.45867 0.0
C217 C 0.27717 0.45284 0.52303 0.0
C218 C 0.21023 0.35072 0.42184 0.0
H219 H 0.35444 0.43152 0.41865 0.0
H220 H 0.31596 0.31894 0.476 0.0
H221 H 0.26968 0.45654 0.42124 0.0
H222 H 0.31247 0.47981 0.44894 0.0
H223 H 0.31122 0.46679 0.39805 0.0
H224 H 0.2787 0.31932 0.53631 0.0
H225 H 0.24212 0.34045 0.52362 0.0
H226 H 0.24588 0.30304 0.49424 0.0
H227 H 0.21087 0.45845 0.52168 0.0
H228 H 0.15337 0.36888 0.44262 0.0
H229 H 0.28293 0.48282 0.50993 0.0
H230 H 0.30149 0.44313 0.52254 0.0
H231 H 0.27215 0.45333 0.55522 0.0
H232 H 0.23497 0.35948 0.40555 0.0
H233 H 0.18622 0.3473 0.39879 0.0
H234 H 0.20822 0.32234 0.43794 0.0
C235 C 0.73181 0.23452 0.30901 0.0
C236 C 0.73191 0.26917 0.32331 0.0
C237 C 0.71468 0.19948 0.32901 0.0
C238 C 0.69674 0.19933 0.36368 0.0
C239 C 0.69983 0.23446 0.38038 0.0
C240 C 0.71755 0.26908 0.35993 0.0
C241 C 0.71276 0.16279 0.31065 0.0
C242 C 0.68116 0.23574 0.41727 0.0
C243 C 0.60801 0.12185 0.37652 0.0
C244 C 0.61777 0.09905 0.40993 0.0
C245 C 0.63371 0.15397 0.36069 0.0
C246 C 0.67025 0.16344 0.37837 0.0
C247 C 0.68071 0.13955 0.41074 0.0
C248 C 0.65437 0.10768 0.42617 0.0
C249 C 0.62135 0.17878 0.32617 0.0
C250 C 0.71938 0.14851 0.43017 0.0
H251 H 0.74259 0.23494 0.2803 0.0
H252 H 0.71719 0.29605 0.37034 0.0
H253 H 0.71687 0.14086 0.3348 0.0
H254 H 0.68546 0.15128 0.29412 0.0
H255 H 0.7333 0.16734 0.28876 0.0
H256 H 0.69146 0.2641 0.43062 0.0
H257 H 0.65162 0.23 0.40819 0.0
H258 H 0.68481 0.2134 0.44111 0.0
H259 H 0.5799 0.11565 0.36379 0.0
H260 H 0.66231 0.09038 0.45204 0.0
H261 H 0.63772 0.18199 0.30024 0.0
H262 H 0.62554 0.20781 0.3365 0.0
H263 H 0.59225 0.16686 0.31502 0.0
H264 H 0.73826 0.15301 0.40647 0.0
H265 H 0.72377 0.12538 0.45267 0.0
H266 H 0.7265 0.17545 0.44603 0.0
C267 C 0.80107 0.66099 0.38826 0.0
C268 C 0.80599 0.68146 0.35045 0.0
C269 C 0.82251 0.63707 0.40378 0.0
C270 C 0.84893 0.63274 0.38038 0.0
C271 C 0.85236 0.65149 0.34092 0.0
C272 C 0.83098 0.67594 0.32654 0.0
C273 C 0.81798 0.61786 0.44599 0.0
C274 C 0.87973 0.64712 0.3147 0.0
C275 C 0.93106 0.60875 0.43914 0.0
C276 C 0.92168 0.569 0.43673 0.0
C277 C 0.9077 0.62979 0.42075 0.0
C278 C 0.87452 0.61078 0.39851 0.0
C279 C 0.86529 0.57075 0.3952 0.0
C280 C 0.88879 0.5503 0.41469 0.0
C281 C 0.9182 0.67229 0.42584 0.0
C282 C 0.83048 0.54947 0.37133 0.0
H283 H 0.78129 0.66498 0.40637 0.0
H284 H 0.83496 0.6921 0.2975 0.0
H285 H 0.81022 0.58635 0.44442 0.0
H286 H 0.84411 0.62636 0.46557 0.0
H287 H 0.79707 0.62526 0.46079 0.0
H288 H 0.87618 0.65996 0.28321 0.0
H289 H 0.90752 0.6613 0.32853 0.0
H290 H 0.87749 0.61642 0.3131 0.0
H291 H 0.95635 0.62339 0.45619 0.0
H292 H 0.88144 0.51959 0.41244 0.0
H293 H 0.91955 0.68815 0.39552 0.0
H294 H 0.94481 0.68272 0.44423 0.0
H295 H 0.89725 0.67919 0.44101 0.0
H296 H 0.80692 0.55112 0.38601 0.0
H297 H 0.82847 0.51884 0.36933 0.0
H298 H 0.82844 0.56296 0.33997 0.0
C299 C 0.40379 0.78556 0.32774 0.0
C300 C 0.40961 0.75037 0.34181 0.0
C301 C 0.42622 0.8201 0.3432 0.0
C302 C 0.4554 0.81951 0.37344 0.0
C303 C 0.46319 0.78429 0.38516 0.0
C304 C 0.44012 0.75011 0.36924 0.0
C305 C 0.41693 0.85677 0.32946 0.0
C306 C 0.4943 0.78227 0.41676 0.0
C307 C 0.52609 0.9126 0.40512 0.0
C308 C 0.51422 0.9185 0.44152 0.0
C309 C 0.50694 0.88104 0.38209 0.0
C310 C 0.47513 0.85471 0.39584 0.0
C311 C 0.4625 0.86141 0.43201 0.0
C312 C 0.48242 0.89294 0.4546 0.0
C313 C 0.52178 0.87484 0.34422 0.0
C314 C 0.42866 0.83439 0.4478 0.0
H315 H 0.38004 0.78563 0.30667 0.0
H316 H 0.44431 0.72286 0.38051 0.0
H317 H 0.40605 0.86623 0.35468 0.0
H318 H 0.44156 0.87982 0.32185 0.0
H319 H 0.39633 0.85325 0.30245 0.0
H320 H 0.49956 0.75397 0.41876 0.0
H321 H 0.51942 0.80485 0.40969 0.0
H322 H 0.48799 0.78737 0.44709 0.0
H323 H 0.55144 0.9316 0.39579 0.0
H324 H 0.47388 0.89685 0.48341 0.0
H325 H 0.50013 0.86923 0.31835 0.0
H326 H 0.53184 0.84931 0.34975 0.0
H327 H 0.54447 0.89979 0.33528 0.0
H328 H 0.40545 0.83081 0.42372 0.0
H329 H 0.42147 0.84461 0.47518 0.0
H330 H 0.43267 0.80577 0.45588 0.0
C331 C 0.27358 0.68679 0.69107 0.0
C332 C 0.30268 0.67105 0.69882 0.0
C333 C 0.24021 0.66631 0.67113 0.0
C334 C 0.23567 0.62885 0.6596 0.0
C335 C 0.26447 0.61217 0.66922 0.0
C336 C 0.29777 0.63371 0.68809 0.0
C337 C 0.2105 0.68541 0.66065 0.0
C338 C 0.26065 0.57208 0.65809 0.0
C339 C 0.14371 0.55966 0.62702 0.0
C340 C 0.14545 0.56021 0.58498 0.0
C341 C 0.17221 0.5832 0.65185 0.0
C342 C 0.20246 0.60836 0.63386 0.0
C343 C 0.20275 0.61099 0.59096 0.0
C344 C 0.17456 0.5864 0.56716 0.0
C345 C 0.17123 0.57898 0.6975 0.0
C346 C 0.23398 0.63803 0.57036 0.0
H347 H 0.27734 0.71555 0.69973 0.0
H348 H 0.3204 0.62176 0.69338 0.0
H349 H 0.20615 0.69048 0.62704 0.0
H350 H 0.18457 0.66657 0.67077 0.0
H351 H 0.21714 0.71326 0.67476 0.0
H352 H 0.28392 0.56176 0.67192 0.0
H353 H 0.23529 0.5519 0.66821 0.0
H354 H 0.25893 0.5714 0.62446 0.0
H355 H 0.12143 0.53893 0.64082 0.0
H356 H 0.17595 0.58663 0.53464 0.0
H357 H 0.17903 0.60741 0.71047 0.0
H358 H 0.19119 0.56401 0.71153 0.0
H359 H 0.144 0.5623 0.70625 0.0
H360 H 0.24157 0.66681 0.58253 0.0
H361 H 0.22744 0.64099 0.53681 0.0
H362 H 0.25801 0.62716 0.57662 0.0
C363 C 0.41986 0.22274 0.69025 0.0
C364 C 0.41058 0.25388 0.66893 0.0
C365 C 0.43514 0.19966 0.67095 0.0
C366 C 0.4403 0.20729 0.62896 0.0
C367 C 0.42949 0.23792 0.60696 0.0
C368 C 0.41518 0.26102 0.62736 0.0
C369 C 0.4468 0.16786 0.69582 0.0
C370 C 0.43389 0.24781 0.56226 0.0
C371 C 0.51474 0.17645 0.59007 0.0
C372 C 0.49541 0.14157 0.57315 0.0
C373 C 0.4971 0.19804 0.60804 0.0
C374 C 0.45905 0.18474 0.60904 0.0
C375 C 0.43919 0.15008 0.59109 0.0
C376 C 0.45761 0.12872 0.57368 0.0
C377 C 0.51925 0.23525 0.62589 0.0
C378 C 0.39842 0.13592 0.5898 0.0
H379 H 0.41555 0.2168 0.72221 0.0
H380 H 0.40807 0.2852 0.61085 0.0
H381 H 0.43341 0.14019 0.68183 0.0
H382 H 0.47651 0.17334 0.69599 0.0
H383 H 0.44025 0.16511 0.72787 0.0
H384 H 0.40897 0.2535 0.54608 0.0
H385 H 0.45638 0.27459 0.55908 0.0
H386 H 0.43975 0.22512 0.547 0.0
H387 H 0.54391 0.18689 0.58964 0.0
H388 H 0.44235 0.10213 0.56019 0.0
H389 H 0.51432 0.235 0.65822 0.0
H390 H 0.51073 0.25928 0.60896 0.0
H391 H 0.5488 0.24076 0.62445 0.0
H392 H 0.39038 0.12994 0.62128 0.0
H393 H 0.38671 0.10951 0.57296 0.0
H394 H 0.38646 0.15844 0.5749 0.0
C395 C 0.81051 0.36368 0.64067 0.0
C396 C 0.80667 0.34234 0.67804 0.0
C397 C 0.84466 0.37803 0.62581 0.0
C398 C 0.87545 0.37048 0.64892 0.0
C399 C 0.87088 0.34611 0.68494 0.0
C400 C 0.83652 0.33256 0.6992 0.0
C401 C 0.84829 0.40366 0.58708 0.0
C402 C 0.90273 0.3369 0.71026 0.0
C403 C 0.96391 0.4015 0.59937 0.0
C404 C 0.98031 0.43802 0.6141 0.0
C405 C 0.93028 0.37855 0.6113 0.0
C406 C 0.91262 0.39239 0.6386 0.0
C407 C 0.92985 0.42835 0.6551 0.0
C408 C 0.96351 0.45051 0.64295 0.0
C409 C 0.91307 0.3401 0.59362 0.0
C410 C 0.91188 0.44434 0.68416 0.0
H411 H 0.78728 0.37139 0.62472 0.0
H412 H 0.83333 0.3164 0.72837 0.0
H413 H 0.8652 0.43298 0.59414 0.0
H414 H 0.86225 0.39316 0.56551 0.0
H415 H 0.82158 0.40527 0.57174 0.0
H416 H 0.8939 0.31265 0.73312 0.0
H417 H 0.92053 0.32973 0.69056 0.0
H418 H 0.91918 0.36235 0.72672 0.0
H419 H 0.97654 0.39148 0.57707 0.0
H420 H 0.97572 0.47862 0.65453 0.0
H421 H 0.88616 0.33915 0.57708 0.0
H422 H 0.90852 0.31725 0.61858 0.0
H423 H 0.93004 0.33365 0.57229 0.0
H424 H 0.92882 0.47279 0.69417 0.0
H425 H 0.90622 0.4244 0.71153 0.0
H426 H 0.88548 0.44723 0.66928 0.0
C427 C 0.71449 0.74411 0.61708 0.0
C428 C 0.74868 0.74605 0.60638 0.0
C429 C 0.69979 0.77459 0.60708 0.0
C430 C 0.71833 0.80642 0.58248 0.0
C431 C 0.75165 0.80703 0.56865 0.0
C432 C 0.76686 0.77715 0.5817 0.0
C433 C 0.66504 0.77283 0.62425 0.0
C434 C 0.77236 0.83933 0.54131 0.0
C435 C 0.65631 0.8671 0.54232 0.0
C436 C 0.6727 0.90067 0.56267 0.0
C437 C 0.67185 0.837 0.54655 0.0
C438 C 0.70371 0.83965 0.57368 0.0
C439 C 0.71991 0.87318 0.59524 0.0
C440 C 0.70476 0.9037 0.58852 0.0
C441 C 0.65279 0.80244 0.52241 0.0
C442 C 0.75258 0.87673 0.62638 0.0
H443 H 0.70006 0.71936 0.63519 0.0
H444 H 0.79337 0.77863 0.57348 0.0
H445 H 0.66498 0.80136 0.63263 0.0
H446 H 0.64175 0.76238 0.60104 0.0
H447 H 0.66064 0.75273 0.65174 0.0
H448 H 0.78098 0.82752 0.51597 0.0
H449 H 0.75654 0.85907 0.52813 0.0
H450 H 0.79751 0.85587 0.55891 0.0
H451 H 0.63105 0.86398 0.52304 0.0
H452 H 0.71737 0.92942 0.60475 0.0
H453 H 0.62534 0.78909 0.53239 0.0
H454 H 0.66745 0.78051 0.52539 0.0
H455 H 0.64873 0.8117 0.48965 0.0
H456 H 0.7512 0.84924 0.64434 0.0
H457 H 0.75524 0.89904 0.64792 0.0
H458 H 0.77747 0.88507 0.61047 0.0
C459 C 0.45555 0.30807 0.4477 0.0
C460 C 0.42656 0.30787 0.41781 0.0
C461 C 0.46998 0.27686 0.4541 0.0
C462 C 0.45613 0.24577 0.42858 0.0
C463 C 0.429 0.24721 0.39609 0.0
C464 C 0.41391 0.27775 0.39185 0.0
C465 C 0.49952 0.27696 0.48851 0.0
C466 C 0.41521 0.21613 0.36633 0.0
C467 C 0.51201 0.17616 0.43167 0.0
C468 C 0.48969 0.14329 0.45038 0.0
C469 C 0.50126 0.20962 0.42364 0.0
C470 C 0.46836 0.21078 0.43696 0.0
C471 C 0.44635 0.17775 0.45725 0.0
C472 C 0.45688 0.14406 0.46269 0.0
C473 C 0.52531 0.24309 0.40051 0.0
C474 C 0.41129 0.17719 0.47281 0.0
H475 H 0.46622 0.33216 0.46672 0.0
H476 H 0.39129 0.27749 0.36899 0.0
H477 H 0.49393 0.24884 0.50613 0.0
H478 H 0.52569 0.28215 0.47572 0.0
H479 H 0.50269 0.2997 0.50966 0.0
H480 H 0.40048 0.22563 0.33821 0.0
H481 H 0.43795 0.20711 0.35759 0.0
H482 H 0.39627 0.1908 0.38078 0.0
H483 H 0.53745 0.17534 0.42212 0.0
H484 H 0.43984 0.11856 0.47748 0.0
H485 H 0.54776 0.25909 0.42204 0.0
H486 H 0.51056 0.26306 0.38503 0.0
H487 H 0.53786 0.23292 0.37718 0.0
H488 H 0.41053 0.20605 0.47909 0.0
H489 H 0.40677 0.15832 0.50114 0.0
H490 H 0.38836 0.16522 0.4497 0.0
C491 C 0.80441 0.37586 0.35053 0.0
C492 C 0.79484 0.34282 0.32877 0.0
C493 C 0.83738 0.38683 0.37537 0.0
C494 C 0.861 0.36347 0.37963 0.0
C495 C 0.85045 0.3288 0.35962 0.0
C496 C 0.81755 0.31903 0.33409 0.0
C497 C 0.84736 0.42404 0.3961 0.0
C498 C 0.87427 0.30255 0.36446 0.0
C499 C 0.95843 0.41972 0.41139 0.0
C500 C 0.9591 0.41556 0.4539 0.0
C501 C 0.9274 0.40056 0.38643 0.0
C502 C 0.8968 0.37622 0.40461 0.0
C503 C 0.89902 0.36908 0.44752 0.0
C504 C 0.92992 0.38931 0.47165 0.0
C505 C 0.92607 0.40937 0.34088 0.0
C506 C 0.86759 0.3428 0.46835 0.0
H507 H 0.78635 0.39369 0.34717 0.0
H508 H 0.81011 0.29348 0.31722 0.0
H509 H 0.85142 0.41856 0.42965 0.0
H510 H 0.87331 0.44328 0.38637 0.0
H511 H 0.82624 0.43919 0.38902 0.0
H512 H 0.86087 0.27523 0.34967 0.0
H513 H 0.89989 0.31694 0.35074 0.0
H514 H 0.88162 0.29602 0.3973 0.0
H515 H 0.98073 0.44054 0.39771 0.0
H516 H 0.93035 0.38635 0.50462 0.0
H517 H 0.90787 0.42764 0.33151 0.0
H518 H 0.9148 0.38272 0.3245 0.0
H519 H 0.95329 0.42465 0.33114 0.0
H520 H 0.84772 0.35849 0.47119 0.0
H521 H 0.87664 0.3327 0.49948 0.0
H522 H 0.85346 0.31756 0.45046 0.0
C523 C 0.74123 0.77832 0.40025 0.0
C524 C 0.75417 0.78727 0.3619 0.0
C525 C 0.72591 0.80271 0.417 0.0
C526 C 0.72247 0.83648 0.39433 0.0
C527 C 0.73636 0.84614 0.35592 0.0
C528 C 0.75237 0.82154 0.34032 0.0
C529 C 0.71177 0.79095 0.45804 0.0
C530 C 0.73294 0.8816 0.33057 0.0
C531 C 0.64418 0.87092 0.41638 0.0
C532 C 0.66181 0.90188 0.44042 0.0
C533 C 0.66373 0.85005 0.40053 0.0
C534 C 0.7019 0.85993 0.40942 0.0
C535 C 0.71992 0.89119 0.43372 0.0
C536 C 0.69968 0.9121 0.44856 0.0
C537 C 0.64338 0.81699 0.37477 0.0
C538 C 0.7605 0.90241 0.44437 0.0
H539 H 0.74194 0.75145 0.41659 0.0
H540 H 0.76282 0.82861 0.31087 0.0
H541 H 0.71459 0.81617 0.47541 0.0
H542 H 0.68258 0.7749 0.45341 0.0
H543 H 0.72611 0.77196 0.47661 0.0
H544 H 0.74626 0.88578 0.30202 0.0
H545 H 0.70384 0.87957 0.32242 0.0
H546 H 0.74518 0.90723 0.34843 0.0
H547 H 0.6149 0.86287 0.40995 0.0
H548 H 0.71341 0.93575 0.46749 0.0
H549 H 0.64606 0.78981 0.39077 0.0
H550 H 0.65518 0.82016 0.34536 0.0
H551 H 0.61407 0.81474 0.36827 0.0
H552 H 0.76995 0.87677 0.45324 0.0
H553 H 0.76937 0.92204 0.46965 0.0
H554 H 0.774 0.91709 0.41723 0.0
C555 C 0.26194 0.66209 0.33969 0.0
C556 C 0.29245 0.65076 0.35612 0.0
C557 C 0.22719 0.64167 0.35058 0.0
C558 C 0.22312 0.60959 0.37907 0.0
C559 C 0.25416 0.59848 0.39612 0.0
C560 C 0.28839 0.61906 0.38414 0.0
C561 C 0.19481 0.654 0.33116 0.0
C562 C 0.25122 0.56484 0.42703 0.0
C563 C 0.14196 0.57268 0.44048 0.0
C564 C 0.12337 0.538 0.42272 0.0
C565 C 0.17356 0.59723 0.42539 0.0
C566 C 0.1866 0.58732 0.39123 0.0
C567 C 0.16632 0.55401 0.37115 0.0
C568 C 0.1351 0.52967 0.38723 0.0
C569 C 0.19439 0.63239 0.44778 0.0
C570 C 0.17882 0.5428 0.33413 0.0
H571 H 0.26536 0.68655 0.3178 0.0
H572 H 0.31222 0.61062 0.39678 0.0
H573 H 0.17548 0.63034 0.31418 0.0
H574 H 0.18026 0.66044 0.35501 0.0
H575 H 0.20259 0.67968 0.30978 0.0
H576 H 0.27805 0.56053 0.43806 0.0
H577 H 0.23849 0.56917 0.45363 0.0
H578 H 0.23355 0.5383 0.4134 0.0
H579 H 0.13319 0.57958 0.4678 0.0
H580 H 0.12086 0.50315 0.37304 0.0
H581 H 0.20077 0.65797 0.42616 0.0
H582 H 0.22058 0.62873 0.46244 0.0
H583 H 0.17921 0.63784 0.47167 0.0
H584 H 0.18621 0.56767 0.31173 0.0
H585 H 0.15772 0.51914 0.31889 0.0
H586 H 0.20343 0.53334 0.3434 0.0
C587 C 0.41561 0.80887 0.71715 0.0
C588 C 0.41994 0.77283 0.71365 0.0
C589 C 0.43935 0.84222 0.70055 0.0
C590 C 0.46782 0.83929 0.67945 0.0
C591 C 0.47329 0.80296 0.67763 0.0
C592 C 0.44928 0.77012 0.69493 0.0
C593 C 0.43281 0.8803 0.7038 0.0
C594 C 0.5032 0.79848 0.65536 0.0
C595 C 0.50179 0.9143 0.59433 0.0
C596 C 0.53555 0.93552 0.61252 0.0
C597 C 0.47924 0.88334 0.61599 0.0
C598 C 0.49039 0.87372 0.6571 0.0
C599 C 0.52358 0.89624 0.67623 0.0
C600 C 0.54586 0.92664 0.65366 0.0
C601 C 0.44419 0.8599 0.59428 0.0
C602 C 0.53618 0.88741 0.72015 0.0
H603 H 0.39255 0.8106 0.73134 0.0
H604 H 0.45205 0.74205 0.69173 0.0
H605 H 0.45837 0.90166 0.7148 0.0
H606 H 0.42349 0.89119 0.6732 0.0
H607 H 0.41204 0.87821 0.72474 0.0
H608 H 0.50536 0.76879 0.65911 0.0
H609 H 0.49797 0.80604 0.62234 0.0
H610 H 0.52963 0.81831 0.66654 0.0
H611 H 0.49375 0.92061 0.56246 0.0
H612 H 0.57187 0.94291 0.668 0.0
H613 H 0.42108 0.85859 0.61144 0.0
H614 H 0.4451 0.83011 0.59293 0.0
H615 H 0.43892 0.87172 0.56267 0.0
H616 H 0.51461 0.88542 0.73993 0.0
H617 H 0.5612 0.9094 0.73149 0.0
H618 H 0.54169 0.85924 0.72323 0.0
C619 C 0.31012 0.33432 0.71262 0.0
C620 C 0.33922 0.33968 0.68957 0.0
C621 C 0.28144 0.34999 0.69853 0.0
C622 C 0.28128 0.37017 0.65974 0.0
C623 C 0.31089 0.37562 0.63658 0.0
C624 C 0.33969 0.36088 0.6521 0.0
C625 C 0.25082 0.34395 0.72456 0.0
C626 C 0.31196 0.39621 0.59491 0.0
C627 C 0.1913 0.37741 0.60242 0.0
C628 C 0.19318 0.41547 0.60743 0.0
C629 C 0.2196 0.36214 0.61955 0.0
C630 C 0.25011 0.38521 0.64302 0.0
C631 C 0.25156 0.42333 0.64897 0.0
C632 C 0.22334 0.43802 0.63087 0.0
C633 C 0.21719 0.32155 0.61187 0.0
C634 C 0.28329 0.44891 0.67386 0.0
H635 H 0.3091 0.3166 0.74083 0.0
H636 H 0.36192 0.36413 0.63402 0.0
H637 H 0.24589 0.37166 0.72819 0.0
H638 H 0.22551 0.32521 0.70934 0.0
H639 H 0.25648 0.33057 0.7553 0.0
H640 H 0.33294 0.39161 0.57778 0.0
H641 H 0.28526 0.38659 0.5766 0.0
H642 H 0.3182 0.42733 0.59838 0.0
H643 H 0.16835 0.35999 0.58392 0.0
H644 H 0.22505 0.4675 0.63493 0.0
H645 H 0.21347 0.3035 0.64077 0.0
H646 H 0.24273 0.32031 0.6012 0.0
H647 H 0.19424 0.30909 0.58887 0.0
H648 H 0.28814 0.43453 0.70422 0.0
H649 H 0.27899 0.4768 0.67832 0.0
H650 H 0.3082 0.45452 0.65834 0.0
C651 C 0.70341 0.26378 0.6617 0.0
C652 C 0.73873 0.27247 0.6814 0.0
C653 C 0.68882 0.23121 0.63938 0.0
C654 C 0.7105 0.20705 0.63557 0.0
C655 C 0.74691 0.21665 0.65379 0.0
C656 C 0.76056 0.2492 0.67694 0.0
C657 C 0.64985 0.22229 0.62065 0.0
C658 C 0.77115 0.19226 0.64938 0.0
C659 C 0.65092 0.10773 0.61105 0.0
C660 C 0.64581 0.11196 0.56846 0.0
C661 C 0.67459 0.13747 0.63365 0.0
C662 C 0.69407 0.17167 0.61294 0.0
C663 C 0.69182 0.17409 0.56978 0.0
C664 C 0.66721 0.14447 0.54805 0.0
C665 C 0.67577 0.13382 0.67955 0.0
C666 C 0.7128 0.20935 0.54631 0.0
H667 H 0.68688 0.28232 0.66464 0.0
H668 H 0.78784 0.25591 0.69226 0.0
H669 H 0.64861 0.22178 0.58705 0.0
H670 H 0.63409 0.19353 0.63228 0.0
H671 H 0.63648 0.24354 0.62743 0.0
H672 H 0.79967 0.20565 0.66176 0.0
H673 H 0.76105 0.16395 0.66582 0.0
H674 H 0.77059 0.18716 0.61679 0.0
H675 H 0.63416 0.08267 0.62678 0.0
H676 H 0.66339 0.14758 0.51499 0.0
H677 H 0.66045 0.15199 0.68933 0.0
H678 H 0.70407 0.14403 0.69389 0.0
H679 H 0.66359 0.10384 0.69117 0.0
H680 H 0.74027 0.22158 0.56212 0.0
H681 H 0.69827 0.23144 0.54384 0.0
H682 H 0.71552 0.20302 0.51494 0.0
C683 C 0.84013 0.64334 0.64639 0.0
C684 C 0.80675 0.64116 0.62374 0.0
C685 C 0.86237 0.62254 0.63635 0.0
C686 C 0.85122 0.59997 0.60211 0.0
C687 C 0.81619 0.59533 0.58113 0.0
C688 C 0.7939 0.61535 0.59302 0.0
C689 C 0.89869 0.62656 0.66091 0.0
C690 C 0.80272 0.57039 0.5454 0.0
C691 C 0.93241 0.60035 0.55041 0.0
C692 C 0.93612 0.56416 0.56296 0.0
C693 C 0.90311 0.61114 0.5605 0.0
C694 C 0.87812 0.58574 0.58551 0.0
C695 C 0.88119 0.54859 0.59719 0.0
C696 C 0.91001 0.538 0.58514 0.0
C697 C 0.89985 0.65038 0.54584 0.0
C698 C 0.85592 0.52099 0.62476 0.0
H699 H 0.84952 0.66275 0.67078 0.0
H700 H 0.76711 0.61227 0.57713 0.0
H701 H 0.90342 0.59813 0.66787 0.0
H702 H 0.92059 0.64447 0.64289 0.0
H703 H 0.90076 0.64013 0.69003 0.0
H704 H 0.79493 0.53991 0.55682 0.0
H705 H 0.77864 0.57631 0.52727 0.0
H706 H 0.82426 0.57444 0.52498 0.0
H707 H 0.95264 0.62031 0.53299 0.0
H708 H 0.91327 0.51004 0.59504 0.0
H709 H 0.90809 0.66937 0.57163 0.0
H710 H 0.87135 0.64886 0.53448 0.0
H711 H 0.91734 0.66362 0.52113 0.0
H712 H 0.86578 0.52766 0.65693 0.0
H713 H 0.85515 0.49094 0.62137 0.0
H714 H 0.82793 0.52338 0.61875 0.0
C715 C 0.40888 0.34673 0.31054 0.0
C716 C 0.41941 0.36604 0.34649 0.0
C717 C 0.42232 0.36407 0.27378 0.0
C718 C 0.44562 0.40206 0.27301 0.0
C719 C 0.45772 0.42082 0.30981 0.0
C720 C 0.44474 0.40227 0.34622 0.0
C721 C 0.40965 0.34271 0.23539 0.0
C722 C 0.48187 0.46159 0.31026 0.0
C723 C 0.49642 0.44686 0.1816 0.0
C724 C 0.47291 0.46604 0.15984 0.0
C725 C 0.48747 0.42504 0.21794 0.0
C726 C 0.45478 0.42347 0.23349 0.0
C727 C 0.43114 0.44328 0.21179 0.0
C728 C 0.44022 0.46382 0.17467 0.0
C729 C 0.5128 0.4034 0.23943 0.0
C730 C 0.39652 0.44317 0.22805 0.0
H731 H 0.38838 0.31924 0.31066 0.0
H732 H 0.45191 0.41728 0.3741 0.0
H733 H 0.38978 0.35487 0.21601 0.0
H734 H 0.43275 0.3459 0.21746 0.0
H735 H 0.3965 0.31175 0.24216 0.0
H736 H 0.49106 0.47091 0.34176 0.0
H737 H 0.50607 0.46498 0.29414 0.0
H738 H 0.46684 0.48096 0.29386 0.0
H739 H 0.52149 0.44815 0.16958 0.0
H740 H 0.42219 0.47875 0.15766 0.0
H741 H 0.49804 0.3725 0.24311 0.0
H742 H 0.52266 0.41358 0.27045 0.0
H743 H 0.53663 0.40674 0.22257 0.0
H744 H 0.37838 0.41349 0.23089 0.0
H745 H 0.38173 0.46094 0.20811 0.0
H746 H 0.40271 0.45418 0.25901 0.0
C747 C 0.43609 0.7276 0.81056 0.0
C748 C 0.42474 0.70673 0.77569 0.0
C749 C 0.46139 0.71847 0.84124 0.0
C750 C 0.47553 0.68784 0.8366 0.0
C751 C 0.4655 0.66823 0.80015 0.0
C752 C 0.44014 0.67788 0.77024 0.0
C753 C 0.47134 0.74008 0.87954 0.0
C754 C 0.48006 0.63565 0.79362 0.0
C755 C 0.55876 0.67134 0.90044 0.0
C756 C 0.54315 0.63993 0.9268 0.0
C757 C 0.53713 0.68862 0.87234 0.0
C758 C 0.4989 0.67435 0.87055 0.0
C759 C 0.48299 0.6443 0.89877 0.0
C760 C 0.50526 0.62746 0.9265 0.0
C761 C 0.55522 0.72055 0.84286 0.0
C762 C 0.44232 0.62838 0.8981 0.0
H763 H 0.42361 0.74953 0.81475 0.0
H764 H 0.43092 0.66173 0.74323 0.0
H765 H 0.45941 0.72098 0.90544 0.0
H766 H 0.50118 0.74928 0.88726 0.0
H767 H 0.46132 0.76568 0.87654 0.0
H768 H 0.47175 0.62538 0.76239 0.0
H769 H 0.51011 0.64466 0.79883 0.0
H770 H 0.46997 0.61134 0.81593 0.0
H771 H 0.58798 0.68144 0.90037 0.0
H772 H 0.4928 0.60333 0.94666 0.0
H773 H 0.54326 0.74463 0.8414 0.0
H774 H 0.55062 0.70995 0.81179 0.0
H775 H 0.58493 0.73152 0.85136 0.0
H776 H 0.42978 0.65188 0.89797 0.0
H777 H 0.43425 0.60796 0.92466 0.0
H778 H 0.4311 0.61325 0.86976 0.0
C779 C 0.44085 0.38549 0.74808 0.0
C780 C 0.40696 0.35843 0.75132 0.0
C781 C 0.45676 0.41154 0.77834 0.0
C782 C 0.43766 0.41172 0.81202 0.0
C783 C 0.40211 0.38646 0.81368 0.0
C784 C 0.38747 0.35964 0.7837 0.0
C785 C 0.49495 0.43722 0.77549 0.0
C786 C 0.38016 0.38656 0.84807 0.0
C787 C 0.49697 0.44583 0.91001 0.0
C788 C 0.49969 0.4849 0.90679 0.0
C789 C 0.47591 0.42143 0.88005 0.0
C790 C 0.4562 0.43624 0.8467 0.0
C791 C 0.45711 0.47529 0.84489 0.0
C792 C 0.47951 0.49933 0.87444 0.0
C793 C 0.47671 0.38038 0.8827 0.0
C794 C 0.4356 0.49208 0.81087 0.0
H795 H 0.45575 0.38477 0.7228 0.0
H796 H 0.3616 0.33839 0.78674 0.0
H797 H 0.4959 0.46757 0.77686 0.0
H798 H 0.51311 0.43023 0.80186 0.0
H799 H 0.50578 0.43417 0.74694 0.0
H800 H 0.35123 0.37004 0.84143 0.0
H801 H 0.39142 0.37365 0.87644 0.0
H802 H 0.38167 0.4163 0.85391 0.0
H803 H 0.51321 0.43488 0.93454 0.0
H804 H 0.48192 0.52967 0.87177 0.0
H805 H 0.48934 0.37542 0.85631 0.0
H806 H 0.44874 0.36069 0.88117 0.0
H807 H 0.49223 0.37291 0.91125 0.0
H808 H 0.44794 0.49441 0.78197 0.0
H809 H 0.43485 0.52101 0.81716 0.0
H810 H 0.40738 0.47312 0.80616 0.0
C811 C 0.74884 0.39409 0.79708 0.0
C812 C 0.72677 0.36624 0.77134 0.0
C813 C 0.73383 0.41509 0.81948 0.0
C814 C 0.69563 0.4062 0.8183 0.0
C815 C 0.67321 0.37607 0.79479 0.0
C816 C 0.68899 0.35763 0.77038 0.0
C817 C 0.7592 0.44814 0.84212 0.0
C818 C 0.63244 0.36396 0.79447 0.0
C819 C 0.65858 0.44352 0.90172 0.0
C820 C 0.64514 0.47188 0.87988 0.0
C821 C 0.67466 0.42154 0.882 0.0
C822 C 0.67884 0.42936 0.83983 0.0
C823 C 0.66598 0.45869 0.8179 0.0
C824 C 0.64886 0.47926 0.83812 0.0
C825 C 0.6864 0.38938 0.906 0.0
C826 C 0.67086 0.46901 0.77329 0.0
H827 H 0.77801 0.40025 0.79893 0.0
H828 H 0.6716 0.33688 0.74997 0.0
H829 H 0.76285 0.4745 0.82161 0.0
H830 H 0.74849 0.45299 0.86993 0.0
H831 H 0.78633 0.44377 0.85088 0.0
H832 H 0.61952 0.33633 0.78013 0.0
H833 H 0.62477 0.36107 0.82605 0.0
H834 H 0.62124 0.38605 0.77719 0.0
H835 H 0.65536 0.43765 0.93398 0.0
H836 H 0.6389 0.50164 0.82141 0.0
H837 H 0.71618 0.39518 0.90683 0.0
H838 H 0.67348 0.3622 0.89084 0.0
H839 H 0.67919 0.38545 0.93787 0.0
H840 H 0.69951 0.48567 0.77039 0.0
H841 H 0.65296 0.48632 0.75898 0.0
H842 H 0.66507 0.44331 0.75571 0.0
C843 C 0.79583 0.65652 0.7396 0.0
C844 C 0.77607 0.64658 0.70196 0.0
C845 C 0.78152 0.63968 0.77606 0.0
C846 C 0.74693 0.61221 0.77425 0.0
C847 C 0.7298 0.59808 0.73618 0.0
C848 C 0.74475 0.61549 0.70034 0.0
C849 C 0.80099 0.65519 0.81594 0.0
C850 C 0.69319 0.56857 0.73231 0.0
C851 C 0.70492 0.56987 0.87244 0.0
C852 C 0.68291 0.59336 0.87501 0.0
C853 C 0.72576 0.5751 0.83949 0.0
C854 C 0.72532 0.60539 0.80961 0.0
C855 C 0.70319 0.62933 0.81268 0.0
C856 C 0.68196 0.62272 0.84521 0.0
C857 C 0.74799 0.54826 0.83667 0.0
C858 C 0.70188 0.66203 0.78164 0.0
H859 H 0.82024 0.68053 0.74042 0.0
H860 H 0.72967 0.60793 0.67098 0.0
H861 H 0.78782 0.67542 0.82566 0.0
H862 H 0.79931 0.63183 0.84019 0.0
H863 H 0.82998 0.67069 0.81313 0.0
H864 H 0.69206 0.54855 0.70875 0.0
H865 H 0.68664 0.55196 0.7615 0.0
H866 H 0.67204 0.58318 0.72223 0.0
H867 H 0.70549 0.54719 0.89588 0.0
H868 H 0.66482 0.64078 0.84765 0.0
H869 H 0.77703 0.56303 0.84521 0.0
H870 H 0.74532 0.53959 0.80498 0.0
H871 H 0.73976 0.52216 0.85738 0.0
H872 H 0.72953 0.68203 0.78009 0.0
H873 H 0.68378 0.67831 0.78899 0.0
H874 H 0.69207 0.65092 0.75099 0.0
C875 C 0.71825 0.65806 0.27867 0.0
C876 C 0.75227 0.68468 0.27575 0.0
C877 C 0.6992 0.63784 0.24492 0.0
C878 C 0.71508 0.64387 0.20767 0.0
C879 C 0.75094 0.6682 0.20588 0.0
C880 C 0.76889 0.68893 0.23983 0.0
C881 C 0.6609 0.61261 0.24818 0.0
C882 C 0.76939 0.67426 0.16735 0.0
C883 C 0.66104 0.57404 0.1291 0.0
C884 C 0.63979 0.59534 0.10657 0.0
C885 C 0.68791 0.59039 0.16009 0.0
C886 C 0.69242 0.6284 0.16981 0.0
C887 C 0.67201 0.65048 0.14575 0.0
C888 C 0.6462 0.63375 0.11402 0.0
C889 C 0.70968 0.56609 0.18398 0.0
C890 C 0.67529 0.69079 0.15558 0.0
H891 H 0.70542 0.65555 0.30642 0.0
H892 H 0.795 0.71008 0.23761 0.0
H893 H 0.64165 0.62527 0.22823 0.0
H894 H 0.65751 0.5839 0.23756 0.0
H895 H 0.6534 0.60915 0.2799 0.0
H896 H 0.79898 0.68848 0.17299 0.0
H897 H 0.76515 0.64653 0.15385 0.0
H898 H 0.75741 0.69247 0.14455 0.0
H899 H 0.65561 0.54408 0.12356 0.0
H900 H 0.62909 0.64981 0.09712 0.0
H901 H 0.69758 0.55426 0.21277 0.0
H902 H 0.73813 0.58329 0.19207 0.0
H903 H 0.70975 0.5417 0.16659 0.0
H904 H 0.66578 0.69028 0.18591 0.0
H905 H 0.65908 0.7048 0.13259 0.0
H906 H 0.70403 0.70849 0.15729 0.0
C907 C 0.42359 0.64688 0.31174 0.0
C908 C 0.41052 0.67847 0.30002 0.0
C909 C 0.4423 0.6336 0.28554 0.0
C910 C 0.4491 0.65307 0.24696 0.0
C911 C 0.43886 0.68714 0.23659 0.0
C912 C 0.4194 0.69927 0.26316 0.0
C913 C 0.45234 0.59708 0.29798 0.0
C914 C 0.44648 0.70947 0.19638 0.0
C915 C 0.5169 0.62612 0.19059 0.0
C916 C 0.49406 0.60074 0.16265 0.0
C917 C 0.50276 0.64431 0.21718 0.0
C918 C 0.46473 0.63627 0.21672 0.0
C919 C 0.4415 0.61061 0.18857 0.0
C920 C 0.45644 0.59357 0.16153 0.0
C921 C 0.52856 0.67198 0.24595 0.0
C922 C 0.4008 0.6005 0.18764 0.0
H923 H 0.41668 0.63089 0.34032 0.0
H924 H 0.40901 0.72347 0.25395 0.0
H925 H 0.43619 0.57442 0.27756 0.0
H926 H 0.48135 0.60131 0.29468 0.0
H927 H 0.44729 0.58678 0.32997 0.0
H928 H 0.44135 0.73777 0.19527 0.0
H929 H 0.47504 0.71392 0.19073 0.0
H930 H 0.42887 0.69301 0.17126 0.0
H931 H 0.54604 0.63215 0.19139 0.0
H932 H 0.43865 0.57387 0.1402 0.0
H933 H 0.52514 0.66075 0.27797 0.0
H934 H 0.52232 0.6998 0.2423 0.0
H935 H 0.55735 0.67705 0.24074 0.0
H936 H 0.39239 0.58744 0.21784 0.0
H937 H 0.38646 0.58017 0.164 0.0
H938 H 0.39193 0.62676 0.18159 0.0
C939 C 0.69355 0.39475 0.22569 0.0
C940 C 0.70209 0.36201 0.21727 0.0
C941 C 0.67121 0.41092 0.19747 0.0
C942 C 0.65696 0.3937 0.16006 0.0
C943 C 0.66608 0.36096 0.15118 0.0
C944 C 0.68861 0.34553 0.17995 0.0
C945 C 0.66223 0.44593 0.20806 0.0
C946 C 0.65162 0.34196 0.11157 0.0
C947 C 0.57167 0.41541 0.1078 0.0
C948 C 0.58605 0.44565 0.07971 0.0
C949 C 0.59434 0.39747 0.13339 0.0
C950 C 0.63222 0.40984 0.13056 0.0
C951 C 0.64665 0.43912 0.101 0.0
C952 C 0.62343 0.45669 0.07599 0.0
C953 C 0.57795 0.36647 0.16471 0.0
C954 C 0.68686 0.45318 0.09704 0.0
H955 H 0.70363 0.40704 0.25487 0.0
H956 H 0.69546 0.32025 0.17363 0.0
H957 H 0.66929 0.46913 0.18377 0.0
H958 H 0.63263 0.439 0.20999 0.0
H959 H 0.67682 0.45681 0.23756 0.0
H960 H 0.66194 0.31721 0.10896 0.0
H961 H 0.62156 0.33182 0.10912 0.0
H962 H 0.65933 0.36291 0.08538 0.0
H963 H 0.54291 0.40689 0.11119 0.0
H964 H 0.6348 0.48 0.05436 0.0
H965 H 0.58816 0.37627 0.19582 0.0
H966 H 0.58625 0.34046 0.16202 0.0
H967 H 0.54785 0.35866 0.16147 0.0
H968 H 0.70129 0.46779 0.1248 0.0
H969 H 0.69332 0.47357 0.07007 0.0
H970 H 0.69759 0.42875 0.09454 0.0
loop_
_geom_bond_atom_site_label_1
_geom_bond_atom_site_label_2
_geom_bond_distance
_geom_bond_site_symmetry_2
_ccdc_geom_bond_type
C0 N1 1.317 . S
C0 N2 1.348 . S
C0 C3 1.485 . S
N1 C0 1.317 . S
N1 N5 1.370 . S
N2 C0 1.348 . S
N2 C4 1.346 . S
C3 C0 1.485 . S
C3 H7 0.960 . S
C3 H8 0.961 . S
C3 H9 0.960 . S
C4 N2 1.346 . S
C4 N5 1.307 . S
C4 C6 1.486 . S
N5 N1 1.370 . S
N5 C4 1.307 . S
C6 C4 1.486 . S
C6 H10 0.960 . S
C6 H11 0.960 . S
C6 H12 0.959 . S
H7 C3 0.960 . S
H8 C3 0.961 . S
H9 C3 0.960 . S
H10 C6 0.960 . S
H11 C6 0.960 . S
H12 C6 0.959 . S
C13 N14 1.317 . S
C13 N15 1.348 . S
C13 C16 1.485 . S
N14 C13 1.317 . S
N14 N18 1.370 . S
N15 C13 1.348 . S
N15 C17 1.346 . S
C16 C13 1.485 . S
C16 H20 0.960 . S
C16 H21 0.961 . S
C16 H22 0.960 . S
C17 N15 1.346 . S
C17 N18 1.307 . S
C17 C19 1.486 . S
N18 N14 1.370 . S
N18 C17 1.307 . S
C19 C17 1.486 . S
C19 H23 0.960 . S
C19 H24 0.960 . S
C19 H25 0.959 . S
H20 C16 0.960 . S
H21 C16 0.961 . S
H22 C16 0.960 . S
H23 C19 0.960 . S
H24 C19 0.960 . S
H25 C19 0.959 . S
C26 N27 1.317 . S
C26 N28 1.348 . S
C26 C29 1.485 . S
N27 C26 1.317 . S
N27 N31 1.370 . S
N28 C26 1.348 . S
N28 C30 1.346 . S
C29 C26 1.485 . S
C29 H33 0.960 . S
C29 H34 0.961 . S
C29 H35 0.960 . S
C30 N28 1.346 . S
C30 N31 1.307 . S
C30 C32 1.486 . S
N31 N27 1.370 . S
N31 C30 1.307 . S
C32 C30 1.486 . S
C32 H36 0.960 . S
C32 H37 0.960 . S
C32 H38 0.959 . S
H33 C29 0.960 . S
H34 C29 0.961 . S
H35 C29 0.960 . S
H36 C32 0.960 . S
H37 C32 0.960 . S
H38 C32 0.959 . S
C39 N40 1.317 . S
C39 N41 1.348 . S
C39 C42 1.485 . S
N40 C39 1.317 . S
N40 N44 1.370 . S
N41 C39 1.348 . S
N41 C43 1.346 . S
C42 C39 1.485 . S
C42 H46 0.960 . S
C42 H47 0.961 . S
C42 H48 0.960 . S
C43 N41 1.346 . S
C43 N44 1.307 . S
C43 C45 1.486 . S
N44 N40 1.370 . S
N44 C43 1.307 . S
C45 C43 1.486 . S
C45 H49 0.960 . S
C45 H50 0.960 . S
C45 H51 0.959 . S
H46 C42 0.960 . S
H47 C42 0.961 . S
H48 C42 0.960 . S
H49 C45 0.960 . S
H50 C45 0.960 . S
H51 C45 0.959 . S
C52 N53 1.317 . S
C52 N54 1.348 . S
C52 C55 1.485 . S
N53 C52 1.317 . S
N53 N57 1.370 . S
N54 C52 1.348 . S
N54 C56 1.346 . S
C55 C52 1.485 . S
C55 H59 0.960 . S
C55 H60 0.961 . S
C55 H61 0.960 . S
C56 N54 1.346 . S
C56 N57 1.307 . S
C56 C58 1.486 . S
N57 N53 1.370 . S
N57 C56 1.307 . S
C58 C56 1.486 . S
C58 H62 0.960 . S
C58 H63 0.960 . S
C58 H64 0.959 . S
H59 C55 0.960 . S
H60 C55 0.961 . S
H61 C55 0.960 . S
H62 C58 0.960 . S
H63 C58 0.960 . S
H64 C58 0.959 . S
C65 N66 1.317 . S
C65 N67 1.348 . S
C65 C68 1.485 . S
N66 C65 1.317 . S
N66 N70 1.370 . S
N67 C65 1.348 . S
N67 C69 1.346 . S
C68 C65 1.485 . S
C68 H72 0.960 . S
C68 H73 0.961 . S
C68 H74 0.960 . S
C69 N67 1.346 . S
C69 N70 1.307 . S
C69 C71 1.486 . S
N70 N66 1.370 . S
N70 C69 1.307 . S
C71 C69 1.486 . S
C71 H75 0.960 . S
C71 H76 0.960 . S
C71 H77 0.959 . S
H72 C68 0.960 . S
H73 C68 0.961 . S
H74 C68 0.960 . S
H75 C71 0.960 . S
H76 C71 0.960 . S
H77 C71 0.959 . S
C78 N79 1.317 . S
C78 N80 1.348 . S
C78 C81 1.485 . S
N79 C78 1.317 . S
N79 N83 1.370 . S
N80 C78 1.348 . S
N80 C82 1.346 . S
C81 C78 1.485 . S
C81 H85 0.960 . S
C81 H86 0.961 . S
C81 H87 0.960 . S
C82 N80 1.346 . S
C82 N83 1.307 . S
C82 C84 1.486 . S
N83 N79 1.370 . S
N83 C82 1.307 . S
C84 C82 1.486 . S
C84 H88 0.960 . S
C84 H89 0.960 . S
C84 H90 0.959 . S
H85 C81 0.960 . S
H86 C81 0.961 . S
H87 C81 0.960 . S
H88 C84 0.960 . S
H89 C84 0.960 . S
H90 C84 0.959 . S
C91 N92 1.317 . S
C91 N93 1.348 . S
C91 C94 1.485 . S
N92 C91 1.317 . S
N92 N96 1.370 . S
N93 C91 1.348 . S
N93 C95 1.346 . S
C94 C91 1.485 . S
C94 H98 0.960 . S
C94 H99 0.961 . S
C94 H100 0.960 . S
C95 N93 1.346 . S
C95 N96 1.307 . S
C95 C97 1.486 . S
N96 N92 1.370 . S
N96 C95 1.307 . S
C97 C95 1.486 . S
C97 H101 0.960 . S
C97 H102 0.960 . S
C97 H103 0.959 . S
H98 C94 0.960 . S
H99 C94 0.961 . S
H100 C94 0.960 . S
H101 C97 0.960 . S
H102 C97 0.960 . S
H103 C97 0.959 . S
Co104 O107 2.042 . S
Co104 O114 2.264 . S
Co104 O133 2.286 . S
Co104 O134 2.069 . S
Co104 O136 2.015 . S
Co105 O107 2.122 . S
Co105 O113 2.073 . S
Co105 O114 2.327 . S
Co105 O115 1.976 . S
Co106 O107 2.087 . S
Co106 O109 2.087 . S
Co106 O116 2.111 . S
Co106 O117 2.143 1_455 S
Co106 O121 2.111 . S
Co106 O135 2.143 . S
O107 Co104 2.042 . S
O107 Co105 2.122 . S
O107 Co106 2.087 . S
O107 H108 0.980 . S
H108 O107 0.980 . S
O109 Co106 2.087 . S
O109 Co110 2.042 1_455 S
O109 Co111 2.122 1_455 S
O109 H112 0.980 . S
Co110 O109 2.042 1_655 S
Co110 O118 2.286 . S
Co110 O119 2.069 . S
Co110 O120 2.015 . S
Co110 O123 2.264 . S
Co111 O109 2.122 1_655 S
Co111 O122 1.976 . S
Co111 O123 2.327 . S
Co111 O124 2.073 . S
H112 O109 0.980 . S
O113 Co105 2.073 . S
O113 C128 1.245 . S
O114 Co104 2.264 . S
O114 Co105 2.327 . S
O114 C128 1.257 . S
O115 Co105 1.976 . S
O115 C127 1.251 . S
O116 Co106 2.111 . S
O116 C127 1.274 . S
O117 Co106 2.143 1_655 S
O117 C130 1.246 . S
O118 Co110 2.286 . S
O118 C129 1.259 . S
O119 Co110 2.069 . S
O119 C129 1.289 . S
O120 Co110 2.015 . S
O120 C130 1.257 . S
O121 Co106 2.111 . S
O121 C131 1.274 1_455 S
O122 Co111 1.976 . S
O122 C131 1.251 . S
O123 Co110 2.264 . S
O123 Co111 2.327 . S
O123 C132 1.257 . S
O124 Co111 2.073 . S
O124 C132 1.245 . S
C125 O133 1.259 . S
C125 O134 1.289 . S
C126 O135 1.246 . S
C126 O136 1.257 . S
C127 O115 1.251 . S
C127 O116 1.274 . S
C128 O113 1.245 . S
C128 O114 1.257 . S
C129 O118 1.259 . S
C129 O119 1.289 . S
C130 O117 1.246 . S
C130 O120 1.257 . S
C131 O121 1.274 1_655 S
C131 O122 1.251 . S
C132 O123 1.257 . S
C132 O124 1.245 . S
O133 Co104 2.286 . S
O133 C125 1.259 . S
O134 Co104 2.069 . S
O134 C125 1.289 . S
O135 Co106 2.143 . S
O135 C126 1.246 . S
O136 Co104 2.015 . S
O136 C126 1.257 . S
Co137 O140 2.042 . S
Co137 O147 2.264 . S
Co137 O166 2.286 . S
Co137 O167 2.069 . S
Co137 O169 2.015 . S
Co138 O140 2.122 . S
Co138 O146 2.073 . S
Co138 O147 2.327 . S
Co138 O148 1.976 . S
Co139 O140 2.087 1_545 S
Co139 O142 2.087 . S
Co139 O149 2.111 1_545 S
Co139 O150 2.143 . S
Co139 O154 2.111 . S
Co139 O168 2.143 1_545 S
O140 Co137 2.042 . S
O140 Co138 2.122 . S
O140 Co139 2.087 1_565 S
O140 H141 0.980 1_565 S
H141 O140 0.980 1_545 S
O142 Co139 2.087 . S
O142 Co143 2.042 . S
O142 Co144 2.122 . S
O142 H145 0.980 . S
Co143 O142 2.042 . S
Co143 O151 2.286 . S
Co143 O152 2.069 . S
Co143 O153 2.015 . S
Co143 O156 2.264 . S
Co144 O142 2.122 . S
Co144 O155 1.976 . S
Co144 O156 2.327 . S
Co144 O157 2.073 . S
H145 O142 0.980 . S
O146 Co138 2.073 . S
O146 C161 1.245 . S
O147 Co137 2.264 . S
O147 Co138 2.327 . S
O147 C161 1.257 . S
O148 Co138 1.976 . S
O148 C160 1.251 . S
O149 Co139 2.111 1_565 S
O149 C160 1.274 . S
O150 Co139 2.143 . S
O150 C163 1.246 . S
O151 Co143 2.286 . S
O151 C162 1.259 . S
O152 Co143 2.069 . S
O152 C162 1.289 . S
O153 Co143 2.015 . S
O153 C163 1.257 . S
O154 Co139 2.111 . S
O154 C164 1.274 . S
O155 Co144 1.976 . S
O155 C164 1.251 . S
O156 Co143 2.264 . S
O156 Co144 2.327 . S
O156 C165 1.257 . S
O157 Co144 2.073 . S
O157 C165 1.245 . S
C158 O166 1.259 . S
C158 O167 1.289 . S
C159 O168 1.246 . S
C159 O169 1.257 . S
C160 O148 1.251 . S
C160 O149 1.274 . S
C161 O146 1.245 . S
C161 O147 1.257 . S
C162 O151 1.259 . S
C162 O152 1.289 . S
C163 O150 1.246 . S
C163 O153 1.257 . S
C164 O154 1.274 . S
C164 O155 1.251 . S
C165 O156 1.257 . S
C165 O157 1.245 . S
O166 Co137 2.286 . S
O166 C158 1.259 . S
O167 Co137 2.069 . S
O167 C158 1.289 . S
O168 Co139 2.143 1_565 S
O168 C159 1.246 . S
O169 Co137 2.015 . S
O169 C159 1.257 . S
Co170 O173 2.042 . S
Co170 O180 2.264 . S
Co170 O199 2.286 . S
Co170 O200 2.069 . S
Co170 O202 2.015 . S
Co171 O173 2.122 . S
Co171 O179 2.073 . S
Co171 O180 2.327 . S
Co171 O181 1.976 . S
Co172 O173 2.087 . S
Co172 O175 2.087 1_554 S
Co172 O182 2.111 . S
Co172 O183 2.143 1_554 S
Co172 O187 2.111 1_554 S
Co172 O201 2.143 . S
O173 Co170 2.042 . S
O173 Co171 2.122 . S
O173 Co172 2.087 . S
O173 H174 0.980 . S
H174 O173 0.980 . S
O175 Co172 2.087 1_556 S
O175 Co176 2.042 . S
O175 Co177 2.122 . S
O175 H178 0.980 . S
Co176 O175 2.042 . S
Co176 O184 2.286 . S
Co176 O185 2.069 . S
Co176 O186 2.015 . S
Co176 O189 2.264 . S
Co177 O175 2.122 . S
Co177 O188 1.976 . S
Co177 O189 2.327 . S
Co177 O190 2.073 . S
H178 O175 0.980 . S
O179 Co171 2.073 . S
O179 C194 1.245 . S
O180 Co170 2.264 . S
O180 Co171 2.327 . S
O180 C194 1.257 . S
O181 Co171 1.976 . S
O181 C193 1.251 . S
O182 Co172 2.111 . S
O182 C193 1.274 . S
O183 Co172 2.143 1_556 S
O183 C196 1.246 . S
O184 Co176 2.286 . S
O184 C195 1.259 . S
O185 Co176 2.069 . S
O185 C195 1.289 . S
O186 Co176 2.015 . S
O186 C196 1.257 . S
O187 Co172 2.111 1_556 S
O187 C197 1.274 . S
O188 Co177 1.976 . S
O188 C197 1.251 . S
O189 Co176 2.264 . S
O189 Co177 2.327 . S
O189 C198 1.257 . S
O190 Co177 2.073 . S
O190 C198 1.245 . S
C191 O199 1.259 . S
C191 O200 1.289 . S
C192 O201 1.246 . S
C192 O202 1.257 . S
C193 O181 1.251 . S
C193 O182 1.274 . S
C194 O179 1.245 . S
C194 O180 1.257 . S
C195 O184 1.259 . S
C195 O185 1.289 . S
C196 O183 1.246 . S
C196 O186 1.257 . S
C197 O187 1.274 . S
C197 O188 1.251 . S
C198 O189 1.257 . S
C198 O190 1.245 . S
O199 Co170 2.286 . S
O199 C191 1.259 . S
O200 Co170 2.069 . S
O200 C191 1.289 . S
O201 Co172 2.143 . S
O201 C192 1.246 . S
O202 Co170 2.015 . S
O202 C192 1.257 . S
C203 C204 1.391 . S
C203 C205 1.394 . S
C203 H219 0.931 . S
C204 C203 1.391 . S
C204 C208 1.376 . S
C205 C203 1.394 . S
C205 C206 1.369 . S
C205 C209 1.531 . S
C206 C205 1.369 . S
C206 C207 1.410 . S
C206 C214 1.503 . S
C207 C206 1.410 . S
C207 C208 1.392 . S
C207 C210 1.511 . S
C208 C204 1.376 . S
C208 C207 1.392 . S
C208 H220 0.929 . S
C209 C205 1.531 . S
C209 H221 0.960 . S
C209 H222 0.962 . S
C209 H223 0.960 . S
C210 C207 1.511 . S
C210 H224 0.961 . S
C210 H225 0.961 . S
C210 H226 0.961 . S
C211 C212 1.370 . S
C211 C213 1.363 . S
C211 H227 0.931 . S
C212 C211 1.370 . S
C212 C216 1.408 . S
C213 C211 1.363 . S
C213 C214 1.370 . S
C213 C217 1.524 . S
C214 C206 1.503 . S
C214 C213 1.370 . S
C214 C215 1.403 . S
C215 C214 1.403 . S
C215 C216 1.404 . S
C215 C218 1.539 . S
C216 C212 1.408 . S
C216 C215 1.404 . S
C216 H228 0.930 . S
C217 C213 1.524 . S
C217 H229 0.956 . S
C217 H230 0.961 . S
C217 H231 0.961 . S
C218 C215 1.539 . S
C218 H232 0.958 . S
C218 H233 0.961 . S
C218 H234 0.960 . S
H219 C203 0.931 . S
H220 C208 0.929 . S
H221 C209 0.960 . S
H222 C209 0.962 . S
H223 C209 0.960 . S
H224 C210 0.961 . S
H225 C210 0.961 . S
H226 C210 0.961 . S
H227 C211 0.931 . S
H228 C216 0.930 . S
H229 C217 0.956 . S
H230 C217 0.961 . S
H231 C217 0.961 . S
H232 C218 0.958 . S
H233 C218 0.961 . S
H234 C218 0.960 . S
C235 C236 1.391 . S
C235 C237 1.394 . S
C235 H251 0.931 . S
C236 C235 1.391 . S
C236 C240 1.376 . S
C237 C235 1.394 . S
C237 C238 1.369 . S
C237 C241 1.531 . S
C238 C237 1.369 . S
C238 C239 1.410 . S
C238 C246 1.503 . S
C239 C238 1.410 . S
C239 C240 1.392 . S
C239 C242 1.511 . S
C240 C236 1.376 . S
C240 C239 1.392 . S
C240 H252 0.929 . S
C241 C237 1.531 . S
C241 H253 0.960 . S
C241 H254 0.962 . S
C241 H255 0.960 . S
C242 C239 1.511 . S
C242 H256 0.961 . S
C242 H257 0.961 . S
C242 H258 0.961 . S
C243 C244 1.370 . S
C243 C245 1.363 . S
C243 H259 0.931 . S
C244 C243 1.370 . S
C244 C248 1.408 . S
C245 C243 1.363 . S
C245 C246 1.370 . S
C245 C249 1.524 . S
C246 C238 1.503 . S
C246 C245 1.370 . S
C246 C247 1.403 . S
C247 C246 1.403 . S
C247 C248 1.404 . S
C247 C250 1.539 . S
C248 C244 1.408 . S
C248 C247 1.404 . S
C248 H260 0.930 . S
C249 C245 1.524 . S
C249 H261 0.956 . S
C249 H262 0.961 . S
C249 H263 0.961 . S
C250 C247 1.539 . S
C250 H264 0.958 . S
C250 H265 0.961 . S
C250 H266 0.960 . S
H251 C235 0.931 . S
H252 C240 0.929 . S
H253 C241 0.960 . S
H254 C241 0.962 . S
H255 C241 0.960 . S
H256 C242 0.961 . S
H257 C242 0.961 . S
H258 C242 0.961 . S
H259 C243 0.931 . S
H260 C248 0.930 . S
H261 C249 0.956 . S
H262 C249 0.961 . S
H263 C249 0.961 . S
H264 C250 0.958 . S
H265 C250 0.961 . S
H266 C250 0.960 . S
C267 C268 1.391 . S
C267 C269 1.394 . S
C267 H283 0.931 . S
C268 C267 1.391 . S
C268 C272 1.376 . S
C269 C267 1.394 . S
C269 C270 1.369 . S
C269 C273 1.531 . S
C270 C269 1.369 . S
C270 C271 1.410 . S
C270 C278 1.503 . S
C271 C270 1.410 . S
C271 C272 1.392 . S
C271 C274 1.511 . S
C272 C268 1.376 . S
C272 C271 1.392 . S
C272 H284 0.929 . S
C273 C269 1.531 . S
C273 H285 0.960 . S
C273 H286 0.962 . S
C273 H287 0.960 . S
C274 C271 1.511 . S
C274 H288 0.961 . S
C274 H289 0.961 . S
C274 H290 0.961 . S
C275 C276 1.370 . S
C275 C277 1.363 . S
C275 H291 0.931 . S
C276 C275 1.370 . S
C276 C280 1.408 . S
C277 C275 1.363 . S
C277 C278 1.370 . S
C277 C281 1.524 . S
C278 C270 1.503 . S
C278 C277 1.370 . S
C278 C279 1.403 . S
C279 C278 1.403 . S
C279 C280 1.404 . S
C279 C282 1.539 . S
C280 C276 1.408 . S
C280 C279 1.404 . S
C280 H292 0.930 . S
C281 C277 1.524 . S
C281 H293 0.956 . S
C281 H294 0.961 . S
C281 H295 0.961 . S
C282 C279 1.539 . S
C282 H296 0.958 . S
C282 H297 0.961 . S
C282 H298 0.960 . S
H283 C267 0.931 . S
H284 C272 0.929 . S
H285 C273 0.960 . S
H286 C273 0.962 . S
H287 C273 0.960 . S
H288 C274 0.961 . S
H289 C274 0.961 . S
H290 C274 0.961 . S
H291 C275 0.931 . S
H292 C280 0.930 . S
H293 C281 0.956 . S
H294 C281 0.961 . S
H295 C281 0.961 . S
H296 C282 0.958 . S
H297 C282 0.961 . S
H298 C282 0.960 . S
C299 C300 1.391 . S
C299 C301 1.394 . S
C299 H315 0.931 . S
C300 C299 1.391 . S
C300 C304 1.376 . S
C301 C299 1.394 . S
C301 C302 1.369 . S
C301 C305 1.531 . S
C302 C301 1.369 . S
C302 C303 1.410 . S
C302 C310 1.503 . S
C303 C302 1.410 . S
C303 C304 1.392 . S
C303 C306 1.511 . S
C304 C300 1.376 . S
C304 C303 1.392 . S
C304 H316 0.929 . S
C305 C301 1.531 . S
C305 H317 0.960 . S
C305 H318 0.962 . S
C305 H319 0.960 . S
C306 C303 1.511 . S
C306 H320 0.961 . S
C306 H321 0.961 . S
C306 H322 0.961 . S
C307 C308 1.370 . S
C307 C309 1.363 . S
C307 H323 0.931 . S
C308 C307 1.370 . S
C308 C312 1.408 . S
C309 C307 1.363 . S
C309 C310 1.370 . S
C309 C313 1.524 . S
C310 C302 1.503 . S
C310 C309 1.370 . S
C310 C311 1.403 . S
C311 C310 1.403 . S
C311 C312 1.404 . S
C311 C314 1.539 . S
C312 C308 1.408 . S
C312 C311 1.404 . S
C312 H324 0.930 . S
C313 C309 1.524 . S
C313 H325 0.956 . S
C313 H326 0.961 . S
C313 H327 0.961 . S
C314 C311 1.539 . S
C314 H328 0.958 . S
C314 H329 0.961 . S
C314 H330 0.960 . S
H315 C299 0.931 . S
H316 C304 0.929 . S
H317 C305 0.960 . S
H318 C305 0.962 . S
H319 C305 0.960 . S
H320 C306 0.961 . S
H321 C306 0.961 . S
H322 C306 0.961 . S
H323 C307 0.931 . S
H324 C312 0.930 . S
H325 C313 0.956 . S
H326 C313 0.961 . S
H327 C313 0.961 . S
H328 C314 0.958 . S
H329 C314 0.961 . S
H330 C314 0.960 . S
C331 C332 1.391 . S
C331 C333 1.394 . S
C331 H347 0.931 . S
C332 C331 1.391 . S
C332 C336 1.376 . S
C333 C331 1.394 . S
C333 C334 1.369 . S
C333 C337 1.531 . S
C334 C333 1.369 . S
C334 C335 1.410 . S
C334 C342 1.503 . S
C335 C334 1.410 . S
C335 C336 1.392 . S
C335 C338 1.511 . S
C336 C332 1.376 . S
C336 C335 1.392 . S
C336 H348 0.929 . S
C337 C333 1.531 . S
C337 H349 0.960 . S
C337 H350 0.962 . S
C337 H351 0.960 . S
C338 C335 1.511 . S
C338 H352 0.961 . S
C338 H353 0.961 . S
C338 H354 0.961 . S
C339 C340 1.370 . S
C339 C341 1.363 . S
C339 H355 0.931 . S
C340 C339 1.370 . S
C340 C344 1.408 . S
C341 C339 1.363 . S
C341 C342 1.370 . S
C341 C345 1.524 . S
C342 C334 1.503 . S
C342 C341 1.370 . S
C342 C343 1.403 . S
C343 C342 1.403 . S
C343 C344 1.404 . S
C343 C346 1.539 . S
C344 C340 1.408 . S
C344 C343 1.404 . S
C344 H356 0.930 . S
C345 C341 1.524 . S
C345 H357 0.956 . S
C345 H358 0.961 . S
C345 H359 0.961 . S
C346 C343 1.539 . S
C346 H360 0.958 . S
C346 H361 0.961 . S
C346 H362 0.960 . S
H347 C331 0.931 . S
H348 C336 0.929 . S
H349 C337 0.960 . S
H350 C337 0.962 . S
H351 C337 0.960 . S
H352 C338 0.961 . S
H353 C338 0.961 . S
H354 C338 0.961 . S
H355 C339 0.931 . S
H356 C344 0.930 . S
H357 C345 0.956 . S
H358 C345 0.961 . S
H359 C345 0.961 . S
H360 C346 0.958 . S
H361 C346 0.961 . S
H362 C346 0.960 . S
C363 C364 1.391 . S
C363 C365 1.394 . S
C363 H379 0.931 . S
C364 C363 1.391 . S
C364 C368 1.376 . S
C365 C363 1.394 . S
C365 C366 1.369 . S
C365 C369 1.531 . S
C366 C365 1.369 . S
C366 C367 1.410 . S
C366 C374 1.503 . S
C367 C366 1.410 . S
C367 C368 1.392 . S
C367 C370 1.511 . S
C368 C364 1.376 . S
C368 C367 1.392 . S
C368 H380 0.929 . S
C369 C365 1.531 . S
C369 H381 0.960 . S
C369 H382 0.962 . S
C369 H383 0.960 . S
C370 C367 1.511 . S
C370 H384 0.961 . S
C370 H385 0.961 . S
C370 H386 0.961 . S
C371 C372 1.370 . S
C371 C373 1.363 . S
C371 H387 0.931 . S
C372 C371 1.370 . S
C372 C376 1.408 . S
C373 C371 1.363 . S
C373 C374 1.370 . S
C373 C377 1.524 . S
C374 C366 1.503 . S
C374 C373 1.370 . S
C374 C375 1.403 . S
C375 C374 1.403 . S
C375 C376 1.404 . S
C375 C378 1.539 . S
C376 C372 1.408 . S
C376 C375 1.404 . S
C376 H388 0.930 . S
C377 C373 1.524 . S
C377 H389 0.956 . S
C377 H390 0.961 . S
C377 H391 0.961 . S
C378 C375 1.539 . S
C378 H392 0.958 . S
C378 H393 0.961 . S
C378 H394 0.960 . S
H379 C363 0.931 . S
H380 C368 0.929 . S
H381 C369 0.960 . S
H382 C369 0.962 . S
H383 C369 0.960 . S
H384 C370 0.961 . S
H385 C370 0.961 . S
H386 C370 0.961 . S
H387 C371 0.931 . S
H388 C376 0.930 . S
H389 C377 0.956 . S
H390 C377 0.961 . S
H391 C377 0.961 . S
H392 C378 0.958 . S
H393 C378 0.961 . S
H394 C378 0.960 . S
C395 C396 1.391 . S
C395 C397 1.394 . S
C395 H411 0.931 . S
C396 C395 1.391 . S
C396 C400 1.376 . S
C397 C395 1.394 . S
C397 C398 1.369 . S
C397 C401 1.531 . S
C398 C397 1.369 . S
C398 C399 1.410 . S
C398 C406 1.503 . S
C399 C398 1.410 . S
C399 C400 1.392 . S
C399 C402 1.511 . S
C400 C396 1.376 . S
C400 C399 1.392 . S
C400 H412 0.929 . S
C401 C397 1.531 . S
C401 H413 0.960 . S
C401 H414 0.962 . S
C401 H415 0.960 . S
C402 C399 1.511 . S
C402 H416 0.961 . S
C402 H417 0.961 . S
C402 H418 0.961 . S
C403 C404 1.370 . S
C403 C405 1.363 . S
C403 H419 0.931 . S
C404 C403 1.370 . S
C404 C408 1.408 . S
C405 C403 1.363 . S
C405 C406 1.370 . S
C405 C409 1.524 . S
C406 C398 1.503 . S
C406 C405 1.370 . S
C406 C407 1.403 . S
C407 C406 1.403 . S
C407 C408 1.404 . S
C407 C410 1.539 . S
C408 C404 1.408 . S
C408 C407 1.404 . S
C408 H420 0.930 . S
C409 C405 1.524 . S
C409 H421 0.956 . S
C409 H422 0.961 . S
C409 H423 0.961 . S
C410 C407 1.539 . S
C410 H424 0.958 . S
C410 H425 0.961 . S
C410 H426 0.960 . S
H411 C395 0.931 . S
H412 C400 0.929 . S
H413 C401 0.960 . S
H414 C401 0.962 . S
H415 C401 0.960 . S
H416 C402 0.961 . S
H417 C402 0.961 . S
H418 C402 0.961 . S
H419 C403 0.931 . S
H420 C408 0.930 . S
H421 C409 0.956 . S
H422 C409 0.961 . S
H423 C409 0.961 . S
H424 C410 0.958 . S
H425 C410 0.961 . S
H426 C410 0.960 . S
C427 C428 1.391 . S
C427 C429 1.394 . S
C427 H443 0.931 . S
C428 C427 1.391 . S
C428 C432 1.376 . S
C429 C427 1.394 . S
C429 C430 1.369 . S
C429 C433 1.531 . S
C430 C429 1.369 . S
C430 C431 1.410 . S
C430 C438 1.503 . S
C431 C430 1.410 . S
C431 C432 1.392 . S
C431 C434 1.511 . S
C432 C428 1.376 . S
C432 C431 1.392 . S
C432 H444 0.929 . S
C433 C429 1.531 . S
C433 H445 0.960 . S
C433 H446 0.962 . S
C433 H447 0.960 . S
C434 C431 1.511 . S
C434 H448 0.961 . S
C434 H449 0.961 . S
C434 H450 0.961 . S
C435 C436 1.370 . S
C435 C437 1.363 . S
C435 H451 0.931 . S
C436 C435 1.370 . S
C436 C440 1.408 . S
C437 C435 1.363 . S
C437 C438 1.370 . S
C437 C441 1.524 . S
C438 C430 1.503 . S
C438 C437 1.370 . S
C438 C439 1.403 . S
C439 C438 1.403 . S
C439 C440 1.404 . S
C439 C442 1.539 . S
C440 C436 1.408 . S
C440 C439 1.404 . S
C440 H452 0.930 . S
C441 C437 1.524 . S
C441 H453 0.956 . S
C441 H454 0.961 . S
C441 H455 0.961 . S
C442 C439 1.539 . S
C442 H456 0.958 . S
C442 H457 0.961 . S
C442 H458 0.960 . S
H443 C427 0.931 . S
H444 C432 0.929 . S
H445 C433 0.960 . S
H446 C433 0.962 . S
H447 C433 0.960 . S
H448 C434 0.961 . S
H449 C434 0.961 . S
H450 C434 0.961 . S
H451 C435 0.931 . S
H452 C440 0.930 . S
H453 C441 0.956 . S
H454 C441 0.961 . S
H455 C441 0.961 . S
H456 C442 0.958 . S
H457 C442 0.961 . S
H458 C442 0.960 . S
C459 C460 1.391 . S
C459 C461 1.394 . S
C459 H475 0.931 . S
C460 C459 1.391 . S
C460 C464 1.376 . S
C461 C459 1.394 . S
C461 C462 1.369 . S
C461 C465 1.531 . S
C462 C461 1.369 . S
C462 C463 1.410 . S
C462 C470 1.503 . S
C463 C462 1.410 . S
C463 C464 1.392 . S
C463 C466 1.511 . S
C464 C460 1.376 . S
C464 C463 1.392 . S
C464 H476 0.929 . S
C465 C461 1.531 . S
C465 H477 0.960 . S
C465 H478 0.962 . S
C465 H479 0.960 . S
C466 C463 1.511 . S
C466 H480 0.961 . S
C466 H481 0.961 . S
C466 H482 0.961 . S
C467 C468 1.370 . S
C467 C469 1.363 . S
C467 H483 0.931 . S
C468 C467 1.370 . S
C468 C472 1.408 . S
C469 C467 1.363 . S
C469 C470 1.370 . S
C469 C473 1.524 . S
C470 C462 1.503 . S
C470 C469 1.370 . S
C470 C471 1.403 . S
C471 C470 1.403 . S
C471 C472 1.404 . S
C471 C474 1.539 . S
C472 C468 1.408 . S
C472 C471 1.404 . S
C472 H484 0.930 . S
C473 C469 1.524 . S
C473 H485 0.956 . S
C473 H486 0.961 . S
C473 H487 0.961 . S
C474 C471 1.539 . S
C474 H488 0.958 . S
C474 H489 0.961 . S
C474 H490 0.960 . S
H475 C459 0.931 . S
H476 C464 0.929 . S
H477 C465 0.960 . S
H478 C465 0.962 . S
H479 C465 0.960 . S
H480 C466 0.961 . S
H481 C466 0.961 . S
H482 C466 0.961 . S
H483 C467 0.931 . S
H484 C472 0.930 . S
H485 C473 0.956 . S
H486 C473 0.961 . S
H487 C473 0.961 . S
H488 C474 0.958 . S
H489 C474 0.961 . S
H490 C474 0.960 . S
C491 C492 1.391 . S
C491 C493 1.394 . S
C491 H507 0.931 . S
C492 C491 1.391 . S
C492 C496 1.376 . S
C493 C491 1.394 . S
C493 C494 1.369 . S
C493 C497 1.531 . S
C494 C493 1.369 . S
C494 C495 1.410 . S
C494 C502 1.503 . S
C495 C494 1.410 . S
C495 C496 1.392 . S
C495 C498 1.511 . S
C496 C492 1.376 . S
C496 C495 1.392 . S
C496 H508 0.929 . S
C497 C493 1.531 . S
C497 H509 0.960 . S
C497 H510 0.962 . S
C497 H511 0.960 . S
C498 C495 1.511 . S
C498 H512 0.961 . S
C498 H513 0.961 . S
C498 H514 0.961 . S
C499 C500 1.370 . S
C499 C501 1.363 . S
C499 H515 0.931 . S
C500 C499 1.370 . S
C500 C504 1.408 . S
C501 C499 1.363 . S
C501 C502 1.370 . S
C501 C505 1.524 . S
C502 C494 1.503 . S
C502 C501 1.370 . S
C502 C503 1.403 . S
C503 C502 1.403 . S
C503 C504 1.404 . S
C503 C506 1.539 . S
C504 C500 1.408 . S
C504 C503 1.404 . S
C504 H516 0.930 . S
C505 C501 1.524 . S
C505 H517 0.956 . S
C505 H518 0.961 . S
C505 H519 0.961 . S
C506 C503 1.539 . S
C506 H520 0.958 . S
C506 H521 0.961 . S
C506 H522 0.960 . S
H507 C491 0.931 . S
H508 C496 0.929 . S
H509 C497 0.960 . S
H510 C497 0.962 . S
H511 C497 0.960 . S
H512 C498 0.961 . S
H513 C498 0.961 . S
H514 C498 0.961 . S
H515 C499 0.931 . S
H516 C504 0.930 . S
H517 C505 0.956 . S
H518 C505 0.961 . S
H519 C505 0.961 . S
H520 C506 0.958 . S
H521 C506 0.961 . S
H522 C506 0.960 . S
C523 C524 1.391 . S
C523 C525 1.394 . S
C523 H539 0.931 . S
C524 C523 1.391 . S
C524 C528 1.376 . S
C525 C523 1.394 . S
C525 C526 1.369 . S
C525 C529 1.531 . S
C526 C525 1.369 . S
C526 C527 1.410 . S
C526 C534 1.503 . S
C527 C526 1.410 . S
C527 C528 1.392 . S
C527 C530 1.511 . S
C528 C524 1.376 . S
C528 C527 1.392 . S
C528 H540 0.929 . S
C529 C525 1.531 . S
C529 H541 0.960 . S
C529 H542 0.962 . S
C529 H543 0.960 . S
C530 C527 1.511 . S
C530 H544 0.961 . S
C530 H545 0.961 . S
C530 H546 0.961 . S
C531 C532 1.370 . S
C531 C533 1.363 . S
C531 H547 0.931 . S
C532 C531 1.370 . S
C532 C536 1.408 . S
C533 C531 1.363 . S
C533 C534 1.370 . S
C533 C537 1.524 . S
C534 C526 1.503 . S
C534 C533 1.370 . S
C534 C535 1.403 . S
C535 C534 1.403 . S
C535 C536 1.404 . S
C535 C538 1.539 . S
C536 C532 1.408 . S
C536 C535 1.404 . S
C536 H548 0.930 . S
C537 C533 1.524 . S
C537 H549 0.956 . S
C537 H550 0.961 . S
C537 H551 0.961 . S
C538 C535 1.539 . S
C538 H552 0.958 . S
C538 H553 0.961 . S
C538 H554 0.960 . S
H539 C523 0.931 . S
H540 C528 0.929 . S
H541 C529 0.960 . S
H542 C529 0.962 . S
H543 C529 0.960 . S
H544 C530 0.961 . S
H545 C530 0.961 . S
H546 C530 0.961 . S
H547 C531 0.931 . S
H548 C536 0.930 . S
H549 C537 0.956 . S
H550 C537 0.961 . S
H551 C537 0.961 . S
H552 C538 0.958 . S
H553 C538 0.961 . S
H554 C538 0.960 . S
C555 C556 1.391 . S
C555 C557 1.394 . S
C555 H571 0.931 . S
C556 C555 1.391 . S
C556 C560 1.376 . S
C557 C555 1.394 . S
C557 C558 1.369 . S
C557 C561 1.531 . S
C558 C557 1.369 . S
C558 C559 1.410 . S
C558 C566 1.503 . S
C559 C558 1.410 . S
C559 C560 1.392 . S
C559 C562 1.511 . S
C560 C556 1.376 . S
C560 C559 1.392 . S
C560 H572 0.929 . S
C561 C557 1.531 . S
C561 H573 0.960 . S
C561 H574 0.962 . S
C561 H575 0.960 . S
C562 C559 1.511 . S
C562 H576 0.961 . S
C562 H577 0.961 . S
C562 H578 0.961 . S
C563 C564 1.370 . S
C563 C565 1.363 . S
C563 H579 0.931 . S
C564 C563 1.370 . S
C564 C568 1.408 . S
C565 C563 1.363 . S
C565 C566 1.370 . S
C565 C569 1.524 . S
C566 C558 1.503 . S
C566 C565 1.370 . S
C566 C567 1.403 . S
C567 C566 1.403 . S
C567 C568 1.404 . S
C567 C570 1.539 . S
C568 C564 1.408 . S
C568 C567 1.404 . S
C568 H580 0.930 . S
C569 C565 1.524 . S
C569 H581 0.956 . S
C569 H582 0.961 . S
C569 H583 0.961 . S
C570 C567 1.539 . S
C570 H584 0.958 . S
C570 H585 0.961 . S
C570 H586 0.960 . S
H571 C555 0.931 . S
H572 C560 0.929 . S
H573 C561 0.960 . S
H574 C561 0.962 . S
H575 C561 0.960 . S
H576 C562 0.961 . S
H577 C562 0.961 . S
H578 C562 0.961 . S
H579 C563 0.931 . S
H580 C568 0.930 . S
H581 C569 0.956 . S
H582 C569 0.961 . S
H583 C569 0.961 . S
H584 C570 0.958 . S
H585 C570 0.961 . S
H586 C570 0.960 . S
C587 C588 1.391 . S
C587 C589 1.394 . S
C587 H603 0.931 . S
C588 C587 1.391 . S
C588 C592 1.376 . S
C589 C587 1.394 . S
C589 C590 1.369 . S
C589 C593 1.531 . S
C590 C589 1.369 . S
C590 C591 1.410 . S
C590 C598 1.503 . S
C591 C590 1.410 . S
C591 C592 1.392 . S
C591 C594 1.511 . S
C592 C588 1.376 . S
C592 C591 1.392 . S
C592 H604 0.929 . S
C593 C589 1.531 . S
C593 H605 0.960 . S
C593 H606 0.962 . S
C593 H607 0.960 . S
C594 C591 1.511 . S
C594 H608 0.961 . S
C594 H609 0.961 . S
C594 H610 0.961 . S
C595 C596 1.370 . S
C595 C597 1.363 . S
C595 H611 0.931 . S
C596 C595 1.370 . S
C596 C600 1.408 . S
C597 C595 1.363 . S
C597 C598 1.370 . S
C597 C601 1.524 . S
C598 C590 1.503 . S
C598 C597 1.370 . S
C598 C599 1.403 . S
C599 C598 1.403 . S
C599 C600 1.404 . S
C599 C602 1.539 . S
C600 C596 1.408 . S
C600 C599 1.404 . S
C600 H612 0.930 . S
C601 C597 1.524 . S
C601 H613 0.956 . S
C601 H614 0.961 . S
C601 H615 0.961 . S
C602 C599 1.539 . S
C602 H616 0.958 . S
C602 H617 0.961 . S
C602 H618 0.960 . S
H603 C587 0.931 . S
H604 C592 0.929 . S
H605 C593 0.960 . S
H606 C593 0.962 . S
H607 C593 0.960 . S
H608 C594 0.961 . S
H609 C594 0.961 . S
H610 C594 0.961 . S
H611 C595 0.931 . S
H612 C600 0.930 . S
H613 C601 0.956 . S
H614 C601 0.961 . S
H615 C601 0.961 . S
H616 C602 0.958 . S
H617 C602 0.961 . S
H618 C602 0.960 . S
C619 C620 1.391 . S
C619 C621 1.394 . S
C619 H635 0.931 . S
C620 C619 1.391 . S
C620 C624 1.376 . S
C621 C619 1.394 . S
C621 C622 1.369 . S
C621 C625 1.531 . S
C622 C621 1.369 . S
C622 C623 1.410 . S
C622 C630 1.503 . S
C623 C622 1.410 . S
C623 C624 1.392 . S
C623 C626 1.511 . S
C624 C620 1.376 . S
C624 C623 1.392 . S
C624 H636 0.929 . S
C625 C621 1.531 . S
C625 H637 0.960 . S
C625 H638 0.962 . S
C625 H639 0.960 . S
C626 C623 1.511 . S
C626 H640 0.961 . S
C626 H641 0.961 . S
C626 H642 0.961 . S
C627 C628 1.370 . S
C627 C629 1.363 . S
C627 H643 0.931 . S
C628 C627 1.370 . S
C628 C632 1.408 . S
C629 C627 1.363 . S
C629 C630 1.370 . S
C629 C633 1.524 . S
C630 C622 1.503 . S
C630 C629 1.370 . S
C630 C631 1.403 . S
C631 C630 1.403 . S
C631 C632 1.404 . S
C631 C634 1.539 . S
C632 C628 1.408 . S
C632 C631 1.404 . S
C632 H644 0.930 . S
C633 C629 1.524 . S
C633 H645 0.956 . S
C633 H646 0.961 . S
C633 H647 0.961 . S
C634 C631 1.539 . S
C634 H648 0.958 . S
C634 H649 0.961 . S
C634 H650 0.960 . S
H635 C619 0.931 . S
H636 C624 0.929 . S
H637 C625 0.960 . S
H638 C625 0.962 . S
H639 C625 0.960 . S
H640 C626 0.961 . S
H641 C626 0.961 . S
H642 C626 0.961 . S
H643 C627 0.931 . S
H644 C632 0.930 . S
H645 C633 0.956 . S
H646 C633 0.961 . S
H647 C633 0.961 . S
H648 C634 0.958 . S
H649 C634 0.961 . S
H650 C634 0.960 . S
C651 C652 1.391 . S
C651 C653 1.394 . S
C651 H667 0.931 . S
C652 C651 1.391 . S
C652 C656 1.376 . S
C653 C651 1.394 . S
C653 C654 1.369 . S
C653 C657 1.531 . S
C654 C653 1.369 . S
C654 C655 1.410 . S
C654 C662 1.503 . S
C655 C654 1.410 . S
C655 C656 1.392 . S
C655 C658 1.511 . S
C656 C652 1.376 . S
C656 C655 1.392 . S
C656 H668 0.929 . S
C657 C653 1.531 . S
C657 H669 0.960 . S
C657 H670 0.962 . S
C657 H671 0.960 . S
C658 C655 1.511 . S
C658 H672 0.961 . S
C658 H673 0.961 . S
C658 H674 0.961 . S
C659 C660 1.370 . S
C659 C661 1.363 . S
C659 H675 0.931 . S
C660 C659 1.370 . S
C660 C664 1.408 . S
C661 C659 1.363 . S
C661 C662 1.370 . S
C661 C665 1.524 . S
C662 C654 1.503 . S
C662 C661 1.370 . S
C662 C663 1.403 . S
C663 C662 1.403 . S
C663 C664 1.404 . S
C663 C666 1.539 . S
C664 C660 1.408 . S
C664 C663 1.404 . S
C664 H676 0.930 . S
C665 C661 1.524 . S
C665 H677 0.956 . S
C665 H678 0.961 . S
C665 H679 0.961 . S
C666 C663 1.539 . S
C666 H680 0.958 . S
C666 H681 0.961 . S
C666 H682 0.960 . S
H667 C651 0.931 . S
H668 C656 0.929 . S
H669 C657 0.960 . S
H670 C657 0.962 . S
H671 C657 0.960 . S
H672 C658 0.961 . S
H673 C658 0.961 . S
H674 C658 0.961 . S
H675 C659 0.931 . S
H676 C664 0.930 . S
H677 C665 0.956 . S
H678 C665 0.961 . S
H679 C665 0.961 . S
H680 C666 0.958 . S
H681 C666 0.961 . S
H682 C666 0.960 . S
C683 C684 1.391 . S
C683 C685 1.394 . S
C683 H699 0.931 . S
C684 C683 1.391 . S
C684 C688 1.376 . S
C685 C683 1.394 . S
C685 C686 1.369 . S
C685 C689 1.531 . S
C686 C685 1.369 . S
C686 C687 1.410 . S
C686 C694 1.503 . S
C687 C686 1.410 . S
C687 C688 1.392 . S
C687 C690 1.511 . S
C688 C684 1.376 . S
C688 C687 1.392 . S
C688 H700 0.929 . S
C689 C685 1.531 . S
C689 H701 0.960 . S
C689 H702 0.962 . S
C689 H703 0.960 . S
C690 C687 1.511 . S
C690 H704 0.961 . S
C690 H705 0.961 . S
C690 H706 0.961 . S
C691 C692 1.370 . S
C691 C693 1.363 . S
C691 H707 0.931 . S
C692 C691 1.370 . S
C692 C696 1.408 . S
C693 C691 1.363 . S
C693 C694 1.370 . S
C693 C697 1.524 . S
C694 C686 1.503 . S
C694 C693 1.370 . S
C694 C695 1.403 . S
C695 C694 1.403 . S
C695 C696 1.404 . S
C695 C698 1.539 . S
C696 C692 1.408 . S
C696 C695 1.404 . S
C696 H708 0.930 . S
C697 C693 1.524 . S
C697 H709 0.956 . S
C697 H710 0.961 . S
C697 H711 0.961 . S
C698 C695 1.539 . S
C698 H712 0.958 . S
C698 H713 0.961 . S
C698 H714 0.960 . S
H699 C683 0.931 . S
H700 C688 0.929 . S
H701 C689 0.960 . S
H702 C689 0.962 . S
H703 C689 0.960 . S
H704 C690 0.961 . S
H705 C690 0.961 . S
H706 C690 0.961 . S
H707 C691 0.931 . S
H708 C696 0.930 . S
H709 C697 0.956 . S
H710 C697 0.961 . S
H711 C697 0.961 . S
H712 C698 0.958 . S
H713 C698 0.961 . S
H714 C698 0.960 . S
C715 C716 1.391 . S
C715 C717 1.394 . S
C715 H731 0.931 . S
C716 C715 1.391 . S
C716 C720 1.376 . S
C717 C715 1.394 . S
C717 C718 1.369 . S
C717 C721 1.531 . S
C718 C717 1.369 . S
C718 C719 1.410 . S
C718 C726 1.503 . S
C719 C718 1.410 . S
C719 C720 1.392 . S
C719 C722 1.511 . S
C720 C716 1.376 . S
C720 C719 1.392 . S
C720 H732 0.929 . S
C721 C717 1.531 . S
C721 H733 0.960 . S
C721 H734 0.962 . S
C721 H735 0.960 . S
C722 C719 1.511 . S
C722 H736 0.961 . S
C722 H737 0.961 . S
C722 H738 0.961 . S
C723 C724 1.370 . S
C723 C725 1.363 . S
C723 H739 0.931 . S
C724 C723 1.370 . S
C724 C728 1.408 . S
C725 C723 1.363 . S
C725 C726 1.370 . S
C725 C729 1.524 . S
C726 C718 1.503 . S
C726 C725 1.370 . S
C726 C727 1.403 . S
C727 C726 1.403 . S
C727 C728 1.404 . S
C727 C730 1.539 . S
C728 C724 1.408 . S
C728 C727 1.404 . S
C728 H740 0.930 . S
C729 C725 1.524 . S
C729 H741 0.956 . S
C729 H742 0.961 . S
C729 H743 0.961 . S
C730 C727 1.539 . S
C730 H744 0.958 . S
C730 H745 0.961 . S
C730 H746 0.960 . S
H731 C715 0.931 . S
H732 C720 0.929 . S
H733 C721 0.960 . S
H734 C721 0.962 . S
H735 C721 0.960 . S
H736 C722 0.961 . S
H737 C722 0.961 . S
H738 C722 0.961 . S
H739 C723 0.931 . S
H740 C728 0.930 . S
H741 C729 0.956 . S
H742 C729 0.961 . S
H743 C729 0.961 . S
H744 C730 0.958 . S
H745 C730 0.961 . S
H746 C730 0.960 . S
C747 C748 1.391 . S
C747 C749 1.394 . S
C747 H763 0.931 . S
C748 C747 1.391 . S
C748 C752 1.376 . S
C749 C747 1.394 . S
C749 C750 1.369 . S
C749 C753 1.531 . S
C750 C749 1.369 . S
C750 C751 1.410 . S
C750 C758 1.503 . S
C751 C750 1.410 . S
C751 C752 1.392 . S
C751 C754 1.511 . S
C752 C748 1.376 . S
C752 C751 1.392 . S
C752 H764 0.929 . S
C753 C749 1.531 . S
C753 H765 0.960 . S
C753 H766 0.962 . S
C753 H767 0.960 . S
C754 C751 1.511 . S
C754 H768 0.961 . S
C754 H769 0.961 . S
C754 H770 0.961 . S
C755 C756 1.370 . S
C755 C757 1.363 . S
C755 H771 0.931 . S
C756 C755 1.370 . S
C756 C760 1.408 . S
C757 C755 1.363 . S
C757 C758 1.370 . S
C757 C761 1.524 . S
C758 C750 1.503 . S
C758 C757 1.370 . S
C758 C759 1.403 . S
C759 C758 1.403 . S
C759 C760 1.404 . S
C759 C762 1.539 . S
C760 C756 1.408 . S
C760 C759 1.404 . S
C760 H772 0.930 . S
C761 C757 1.524 . S
C761 H773 0.956 . S
C761 H774 0.961 . S
C761 H775 0.961 . S
C762 C759 1.539 . S
C762 H776 0.958 . S
C762 H777 0.961 . S
C762 H778 0.960 . S
H763 C747 0.931 . S
H764 C752 0.929 . S
H765 C753 0.960 . S
H766 C753 0.962 . S
H767 C753 0.960 . S
H768 C754 0.961 . S
H769 C754 0.961 . S
H770 C754 0.961 . S
H771 C755 0.931 . S
H772 C760 0.930 . S
H773 C761 0.956 . S
H774 C761 0.961 . S
H775 C761 0.961 . S
H776 C762 0.958 . S
H777 C762 0.961 . S
H778 C762 0.960 . S
C779 C780 1.391 . S
C779 C781 1.394 . S
C779 H795 0.931 . S
C780 C779 1.391 . S
C780 C784 1.376 . S
C781 C779 1.394 . S
C781 C782 1.369 . S
C781 C785 1.531 . S
C782 C781 1.369 . S
C782 C783 1.410 . S
C782 C790 1.503 . S
C783 C782 1.410 . S
C783 C784 1.392 . S
C783 C786 1.511 . S
C784 C780 1.376 . S
C784 C783 1.392 . S
C784 H796 0.929 . S
C785 C781 1.531 . S
C785 H797 0.960 . S
C785 H798 0.962 . S
C785 H799 0.960 . S
C786 C783 1.511 . S
C786 H800 0.961 . S
C786 H801 0.961 . S
C786 H802 0.961 . S
C787 C788 1.370 . S
C787 C789 1.363 . S
C787 H803 0.931 . S
C788 C787 1.370 . S
C788 C792 1.408 . S
C789 C787 1.363 . S
C789 C790 1.370 . S
C789 C793 1.524 . S
C790 C782 1.503 . S
C790 C789 1.370 . S
C790 C791 1.403 . S
C791 C790 1.403 . S
C791 C792 1.404 . S
C791 C794 1.539 . S
C792 C788 1.408 . S
C792 C791 1.404 . S
C792 H804 0.930 . S
C793 C789 1.524 . S
C793 H805 0.956 . S
C793 H806 0.961 . S
C793 H807 0.961 . S
C794 C791 1.539 . S
C794 H808 0.958 . S
C794 H809 0.961 . S
C794 H810 0.960 . S
H795 C779 0.931 . S
H796 C784 0.929 . S
H797 C785 0.960 . S
H798 C785 0.962 . S
H799 C785 0.960 . S
H800 C786 0.961 . S
H801 C786 0.961 . S
H802 C786 0.961 . S
H803 C787 0.931 . S
H804 C792 0.930 . S
H805 C793 0.956 . S
H806 C793 0.961 . S
H807 C793 0.961 . S
H808 C794 0.958 . S
H809 C794 0.961 . S
H810 C794 0.960 . S
C811 C812 1.391 . S
C811 C813 1.394 . S
C811 H827 0.931 . S
C812 C811 1.391 . S
C812 C816 1.376 . S
C813 C811 1.394 . S
C813 C814 1.369 . S
C813 C817 1.531 . S
C814 C813 1.369 . S
C814 C815 1.410 . S
C814 C822 1.503 . S
C815 C814 1.410 . S
C815 C816 1.392 . S
C815 C818 1.511 . S
C816 C812 1.376 . S
C816 C815 1.392 . S
C816 H828 0.929 . S
C817 C813 1.531 . S
C817 H829 0.960 . S
C817 H830 0.962 . S
C817 H831 0.960 . S
C818 C815 1.511 . S
C818 H832 0.961 . S
C818 H833 0.961 . S
C818 H834 0.961 . S
C819 C820 1.370 . S
C819 C821 1.363 . S
C819 H835 0.931 . S
C820 C819 1.370 . S
C820 C824 1.408 . S
C821 C819 1.363 . S
C821 C822 1.370 . S
C821 C825 1.524 . S
C822 C814 1.503 . S
C822 C821 1.370 . S
C822 C823 1.403 . S
C823 C822 1.403 . S
C823 C824 1.404 . S
C823 C826 1.539 . S
C824 C820 1.408 . S
C824 C823 1.404 . S
C824 H836 0.930 . S
C825 C821 1.524 . S
C825 H837 0.956 . S
C825 H838 0.961 . S
C825 H839 0.961 . S
C826 C823 1.539 . S
C826 H840 0.958 . S
C826 H841 0.961 . S
C826 H842 0.960 . S
H827 C811 0.931 . S
H828 C816 0.929 . S
H829 C817 0.960 . S
H830 C817 0.962 . S
H831 C817 0.960 . S
H832 C818 0.961 . S
H833 C818 0.961 . S
H834 C818 0.961 . S
H835 C819 0.931 . S
H836 C824 0.930 . S
H837 C825 0.956 . S
H838 C825 0.961 . S
H839 C825 0.961 . S
H840 C826 0.958 . S
H841 C826 0.961 . S
H842 C826 0.960 . S
C843 C844 1.391 . S
C843 C845 1.394 . S
C843 H859 0.931 . S
C844 C843 1.391 . S
C844 C848 1.376 . S
C845 C843 1.394 . S
C845 C846 1.369 . S
C845 C849 1.531 . S
C846 C845 1.369 . S
C846 C847 1.410 . S
C846 C854 1.503 . S
C847 C846 1.410 . S
C847 C848 1.392 . S
C847 C850 1.511 . S
C848 C844 1.376 . S
C848 C847 1.392 . S
C848 H860 0.929 . S
C849 C845 1.531 . S
C849 H861 0.960 . S
C849 H862 0.962 . S
C849 H863 0.960 . S
C850 C847 1.511 . S
C850 H864 0.961 . S
C850 H865 0.961 . S
C850 H866 0.961 . S
C851 C852 1.370 . S
C851 C853 1.363 . S
C851 H867 0.931 . S
C852 C851 1.370 . S
C852 C856 1.408 . S
C853 C851 1.363 . S
C853 C854 1.370 . S
C853 C857 1.524 . S
C854 C846 1.503 . S
C854 C853 1.370 . S
C854 C855 1.403 . S
C855 C854 1.403 . S
C855 C856 1.404 . S
C855 C858 1.539 . S
C856 C852 1.408 . S
C856 C855 1.404 . S
C856 H868 0.930 . S
C857 C853 1.524 . S
C857 H869 0.956 . S
C857 H870 0.961 . S
C857 H871 0.961 . S
C858 C855 1.539 . S
C858 H872 0.958 . S
C858 H873 0.961 . S
C858 H874 0.960 . S
H859 C843 0.931 . S
H860 C848 0.929 . S
H861 C849 0.960 . S
H862 C849 0.962 . S
H863 C849 0.960 . S
H864 C850 0.961 . S
H865 C850 0.961 . S
H866 C850 0.961 . S
H867 C851 0.931 . S
H868 C856 0.930 . S
H869 C857 0.956 . S
H870 C857 0.961 . S
H871 C857 0.961 . S
H872 C858 0.958 . S
H873 C858 0.961 . S
H874 C858 0.960 . S
C875 C876 1.391 . S
C875 C877 1.394 . S
C875 H891 0.931 . S
C876 C875 1.391 . S
C876 C880 1.376 . S
C877 C875 1.394 . S
C877 C878 1.369 . S
C877 C881 1.531 . S
C878 C877 1.369 . S
C878 C879 1.410 . S
C878 C886 1.503 . S
C879 C878 1.410 . S
C879 C880 1.392 . S
C879 C882 1.511 . S
C880 C876 1.376 . S
C880 C879 1.392 . S
C880 H892 0.929 . S
C881 C877 1.531 . S
C881 H893 0.960 . S
C881 H894 0.962 . S
C881 H895 0.960 . S
C882 C879 1.511 . S
C882 H896 0.961 . S
C882 H897 0.961 . S
C882 H898 0.961 . S
C883 C884 1.370 . S
C883 C885 1.363 . S
C883 H899 0.931 . S
C884 C883 1.370 . S
C884 C888 1.408 . S
C885 C883 1.363 . S
C885 C886 1.370 . S
C885 C889 1.524 . S
C886 C878 1.503 . S
C886 C885 1.370 . S
C886 C887 1.403 . S
C887 C886 1.403 . S
C887 C888 1.404 . S
C887 C890 1.539 . S
C888 C884 1.408 . S
C888 C887 1.404 . S
C888 H900 0.930 . S
C889 C885 1.524 . S
C889 H901 0.956 . S
C889 H902 0.961 . S
C889 H903 0.961 . S
C890 C887 1.539 . S
C890 H904 0.958 . S
C890 H905 0.961 . S
C890 H906 0.960 . S
H891 C875 0.931 . S
H892 C880 0.929 . S
H893 C881 0.960 . S
H894 C881 0.962 . S
H895 C881 0.960 . S
H896 C882 0.961 . S
H897 C882 0.961 . S
H898 C882 0.961 . S
H899 C883 0.931 . S
H900 C888 0.930 . S
H901 C889 0.956 . S
H902 C889 0.961 . S
H903 C889 0.961 . S
H904 C890 0.958 . S
H905 C890 0.961 . S
H906 C890 0.960 . S
C907 C908 1.391 . S
C907 C909 1.394 . S
C907 H923 0.931 . S
C908 C907 1.391 . S
C908 C912 1.376 . S
C909 C907 1.394 . S
C909 C910 1.369 . S
C909 C913 1.531 . S
C910 C909 1.369 . S
C910 C911 1.410 . S
C910 C918 1.503 . S
C911 C910 1.410 . S
C911 C912 1.392 . S
C911 C914 1.511 . S
C912 C908 1.376 . S
C912 C911 1.392 . S
C912 H924 0.929 . S
C913 C909 1.531 . S
C913 H925 0.960 . S
C913 H926 0.962 . S
C913 H927 0.960 . S
C914 C911 1.511 . S
C914 H928 0.961 . S
C914 H929 0.961 . S
C914 H930 0.961 . S
C915 C916 1.370 . S
C915 C917 1.363 . S
C915 H931 0.931 . S
C916 C915 1.370 . S
C916 C920 1.408 . S
C917 C915 1.363 . S
C917 C918 1.370 . S
C917 C921 1.524 . S
C918 C910 1.503 . S
C918 C917 1.370 . S
C918 C919 1.403 . S
C919 C918 1.403 . S
C919 C920 1.404 . S
C919 C922 1.539 . S
C920 C916 1.408 . S
C920 C919 1.404 . S
C920 H932 0.930 . S
C921 C917 1.524 . S
C921 H933 0.956 . S
C921 H934 0.961 . S
C921 H935 0.961 . S
C922 C919 1.539 . S
C922 H936 0.958 . S
C922 H937 0.961 . S
C922 H938 0.960 . S
H923 C907 0.931 . S
H924 C912 0.929 . S
H925 C913 0.960 . S
H926 C913 0.962 . S
H927 C913 0.960 . S
H928 C914 0.961 . S
H929 C914 0.961 . S
H930 C914 0.961 . S
H931 C915 0.931 . S
H932 C920 0.930 . S
H933 C921 0.956 . S
H934 C921 0.961 . S
H935 C921 0.961 . S
H936 C922 0.958 . S
H937 C922 0.961 . S
H938 C922 0.960 . S
C939 C940 1.391 . S
C939 C941 1.394 . S
C939 H955 0.931 . S
C940 C939 1.391 . S
C940 C944 1.376 . S
C941 C939 1.394 . S
C941 C942 1.369 . S
C941 C945 1.531 . S
C942 C941 1.369 . S
C942 C943 1.410 . S
C942 C950 1.503 . S
C943 C942 1.410 . S
C943 C944 1.392 . S
C943 C946 1.511 . S
C944 C940 1.376 . S
C944 C943 1.392 . S
C944 H956 0.929 . S
C945 C941 1.531 . S
C945 H957 0.960 . S
C945 H958 0.962 . S
C945 H959 0.960 . S
C946 C943 1.511 . S
C946 H960 0.961 . S
C946 H961 0.961 . S
C946 H962 0.961 . S
C947 C948 1.370 . S
C947 C949 1.363 . S
C947 H963 0.931 . S
C948 C947 1.370 . S
C948 C952 1.408 . S
C949 C947 1.363 . S
C949 C950 1.370 . S
C949 C953 1.524 . S
C950 C942 1.503 . S
C950 C949 1.370 . S
C950 C951 1.403 . S
C951 C950 1.403 . S
C951 C952 1.404 . S
C951 C954 1.539 . S
C952 C948 1.408 . S
C952 C951 1.404 . S
C952 H964 0.930 . S
C953 C949 1.524 . S
C953 H965 0.956 . S
C953 H966 0.961 . S
C953 H967 0.961 . S
C954 C951 1.539 . S
C954 H968 0.958 . S
C954 H969 0.961 . S
C954 H970 0.960 . S
H955 C939 0.931 . S
H956 C944 0.929 . S
H957 C945 0.960 . S
H958 C945 0.962 . S
H959 C945 0.960 . S
H960 C946 0.961 . S
H961 C946 0.961 . S
H962 C946 0.961 . S
H963 C947 0.931 . S
H964 C952 0.930 . S
H965 C953 0.956 . S
H966 C953 0.961 . S
H967 C953 0.961 . S
H968 C954 0.958 . S
H969 C954 0.961 . S
H970 C954 0.960 . S
C212 C128 1.253 . S
C204 N2 1.350 . S
C244 C164 1.232 . S
C236 N14 1.300 . S
C276 C129 1.559 . S
C268 N27 1.567 . S
C308 C159 1.740 . S
C300 N44 1.766 . S
C340 C126 1.135 . S
C332 N54 1.169 . S
C364 N67 1.592 . S
C372 C162 1.607 . S
C396 N83 0.872 . S
C404 C131 0.831 . S
C436 C161 1.200 . S
C428 N93 1.235 . S
C468 C165 1.674 . S
C460 N1 1.697 . S
C500 C130 1.108 . S
C492 N18 1.161 . S
C532 C158 1.325 . S
C524 N28 1.332 . S
C564 C127 1.217 . S
C556 N41 1.311 . S
C596 C160 1.768 . S
C588 N57 1.888 . S
C620 N66 1.534 . S
C628 C125 1.514 . S
C652 N79 1.488 . S
C660 C163 1.440 . S
C692 C132 1.432 . S
C684 N96 1.493 . S
C724 C194 1.831 . S
C716 N5 1.929 . S
C748 N53 1.911 . S
C756 C197 1.816 . S
C788 C196 1.888 . S
C780 N70 1.918 . S
C812 N80 1.676 . S
C820 C195 1.665 . S
C852 C198 1.723 . S
C844 N92 1.779 . S
C876 N31 1.664 . S
C884 C192 1.627 . S
C916 C191 2.188 . S
C908 N40 2.137 . S
C940 N15 1.288 . S
C948 C193 1.174 . S
