# Generated by pormake.
# Topology llj, (12,3)-cn, num edge types: 1
# Building blocks:
#     Node 0, Type 0, BuildingBlock: QEWDON_clean_sbu_0, # of connection points: 12
#     Node 1, Type 0, BuildingBlock: QEWDON_clean_sbu_0, # of connection points: 12
#     Node 2, Type 1, BuildingBlock: PAMTOO_clean_linker_0, # of connection points: 3
#     Node 3, Type 1, BuildingBlock: PAMTOO_clean_linker_0, # of connection points: 3
#     Node 4, Type 1, BuildingBlock: PAMTOO_clean_linker_0, # of connection points: 3
#     Node 5, Type 1, BuildingBlock: PAMTOO_clean_linker_0, # of connection points: 3
#     Node 6, Type 1, BuildingBlock: PAMTOO_clean_linker_0, # of connection points: 3
#     Node 7, Type 1, BuildingBlock: PAMTOO_clean_linker_0, # of connection points: 3
#     Node 8, Type 1, BuildingBlock: PAMTOO_clean_linker_0, # of connection points: 3
#     Node 9, Type 1, BuildingBlock: PAMTOO_clean_linker_0, # of connection points: 3
#     Edge 10, Type (0, 1), BuildingBlock: XIVTED_clean_linker_0, # of connection points: 2
#     Edge 11, Type (0, 1), BuildingBlock: XIVTED_clean_linker_0, # of connection points: 2
#     Edge 12, Type (0, 1), BuildingBlock: XIVTED_clean_linker_0, # of connection points: 2
#     Edge 13, Type (0, 1), BuildingBlock: XIVTED_clean_linker_0, # of connection points: 2
#     Edge 14, Type (0, 1), BuildingBlock: XIVTED_clean_linker_0, # of connection points: 2
#     Edge 15, Type (0, 1), BuildingBlock: XIVTED_clean_linker_0, # of connection points: 2
#     Edge 16, Type (0, 1), BuildingBlock: XIVTED_clean_linker_0, # of connection points: 2
#     Edge 17, Type (0, 1), BuildingBlock: XIVTED_clean_linker_0, # of connection points: 2
#     Edge 18, Type (0, 1), BuildingBlock: XIVTED_clean_linker_0, # of connection points: 2
#     Edge 19, Type (0, 1), BuildingBlock: XIVTED_clean_linker_0, # of connection points: 2
#     Edge 20, Type (0, 1), BuildingBlock: XIVTED_clean_linker_0, # of connection points: 2
#     Edge 21, Type (0, 1), BuildingBlock: XIVTED_clean_linker_0, # of connection points: 2
#     Edge 22, Type (0, 1), BuildingBlock: XIVTED_clean_linker_0, # of connection points: 2
#     Edge 23, Type (0, 1), BuildingBlock: XIVTED_clean_linker_0, # of connection points: 2
#     Edge 24, Type (0, 1), BuildingBlock: XIVTED_clean_linker_0, # of connection points: 2
#     Edge 25, Type (0, 1), BuildingBlock: XIVTED_clean_linker_0, # of connection points: 2
#     Edge 26, Type (0, 1), BuildingBlock: XIVTED_clean_linker_0, # of connection points: 2
#     Edge 27, Type (0, 1), BuildingBlock: XIVTED_clean_linker_0, # of connection points: 2
#     Edge 28, Type (0, 1), BuildingBlock: XIVTED_clean_linker_0, # of connection points: 2
#     Edge 29, Type (0, 1), BuildingBlock: XIVTED_clean_linker_0, # of connection points: 2
#     Edge 30, Type (0, 1), BuildingBlock: XIVTED_clean_linker_0, # of connection points: 2
#     Edge 31, Type (0, 1), BuildingBlock: XIVTED_clean_linker_0, # of connection points: 2
#     Edge 32, Type (0, 1), BuildingBlock: XIVTED_clean_linker_0, # of connection points: 2
#     Edge 33, Type (0, 1), BuildingBlock: XIVTED_clean_linker_0, # of connection points: 2
# Relax obj value: 0.010
# Max RMSD: 0.102
# Mean RMSD: 0.087
data_MOF--net-llj--node1-QEWDON_clean_sbu_0--node2-PAMTOO_clean_linker_0--edge1-XIVTED_clean_linker_0
_symmetry_space_group_name_H-M    P1
_symmetry_Int_Tables_number       1
_symmetry_cell_setting            triclinic
loop_
_symmetry_equiv_pos_as_xyz
'x, y, z'
_cell_length_a     39.541781
_cell_length_b     39.562778
_cell_length_c     24.634142
_cell_angle_alpha  91.264618
_cell_angle_beta   90.314437
_cell_angle_gamma 90.186099
loop_
_atom_site_label
_atom_site_type_symbol
_atom_site_fract_x
_atom_site_fract_y
_atom_site_fract_z
_atom_type_partial_charge
Zn0 Zn 0.93453 0.0682 0.93847 0.0
Zn1 Zn 0.93765 0.06801 0.06657 0.0
O2 O 0.96717 0.06722 0.00151 0.0
H3 H 0.99052 0.0603 -0.00065 0.0
C4 C 0.91463 0.99679 0.88389 0.0
O5 O 0.89854 0.00306 0.92953 0.0
Zn6 Zn 0.05979 0.92372 0.07269 0.0
Zn7 Zn 0.05603 0.89986 0.94739 0.0
O8 O 0.03066 0.92468 0.00634 0.0
H9 H 0.01203 0.93982 0.00011 0.0
Zn10 Zn 0.9431 0.94673 0.95285 0.0
O11 O 0.95717 0.9754 0.01789 0.0
Zn12 Zn 0.94632 0.94779 0.08246 0.0
H13 H 0.97293 0.99406 0.01674 0.0
Zn14 Zn 0.06035 0.04604 0.95385 0.0
O15 O 0.04712 0.01859 0.01819 0.0
H16 H 0.03285 0.99877 0.01614 0.0
Zn17 Zn 0.05391 0.04874 0.08286 0.0
C18 C 0.08544 0.98814 0.89122 0.0
O19 O 0.07911 0.97256 0.93662 0.0
O20 O 0.88834 0.08782 0.95987 0.0
O21 O 0.89226 0.08957 0.05 0.0
O22 O 0.10295 0.8827 0.96902 0.0
O23 O 0.10536 0.9004 0.05539 0.0
O24 O 0.90746 0.91119 0.9724 0.0
O25 O 0.90885 0.91392 0.06283 0.0
C26 C 0.99333 0.08784 0.13265 0.0
O27 O 0.08489 0.09021 0.97448 0.0
O28 O 0.08466 0.08888 0.06472 0.0
O29 O 0.03046 0.8802 0.88034 0.0
C30 C 0.87596 0.09517 0.00625 0.0
O31 O 0.95545 0.08406 0.86709 0.0
C32 C 0.0026 0.90433 0.13359 0.0
O33 O 0.93584 0.97276 0.88195 0.0
C34 C 0.11868 0.88549 0.01418 0.0
O35 O 0.07924 0.0195 0.88811 0.0
C36 C 0.9291 0.00989 0.13631 0.0
O37 O 0.96195 0.09351 0.1265 0.0
O38 O 0.00714 0.06643 0.1005 0.0
C39 C 0.89658 0.90185 0.01834 0.0
O40 O 0.034 0.898 0.12997 0.0
O41 O 0.99029 0.92524 0.10048 0.0
C42 C 0.07624 0.98854 0.14043 0.0
O43 O 0.93278 0.97867 0.14553 0.0
O44 O 0.93224 0.01995 0.08813 0.0
C45 C 0.09344 0.10278 0.02059 0.0
O46 O 0.07385 0.02066 0.14333 0.0
O47 O 0.0656 0.97312 0.0976 0.0
C48 C 0.99836 0.8787 0.88078 0.0
O49 O 0.9821 0.8893 0.92425 0.0
C50 C 0.9851 0.07421 0.85549 0.0
O51 O 0.0006 0.05333 0.88798 0.0
Zn52 Zn 0.43921 0.57156 0.44186 0.0
Zn53 Zn 0.44076 0.56928 0.57215 0.0
O54 O 0.46909 0.56258 0.50607 0.0
H55 H 0.48963 0.54954 0.50325 0.0
C56 C 0.41039 0.50292 0.39713 0.0
O57 O 0.39181 0.50666 0.44091 0.0
Zn58 Zn 0.55371 0.42011 0.58172 0.0
Zn59 Zn 0.55438 0.41614 0.45308 0.0
O60 O 0.52332 0.42191 0.51706 0.0
H61 H 0.49926 0.41777 0.51521 0.0
Zn62 Zn 0.43905 0.45135 0.46424 0.0
O63 O 0.45665 0.47682 0.53034 0.0
Zn64 Zn 0.44296 0.45004 0.59408 0.0
H65 H 0.47584 0.49194 0.53008 0.0
Zn66 Zn 0.5588 0.54331 0.45364 0.0
O67 O 0.55023 0.51398 0.518 0.0
H68 H 0.53698 0.49344 0.51609 0.0
Zn69 Zn 0.5565 0.54442 0.58266 0.0
C70 C 0.59038 0.48959 0.39207 0.0
O71 O 0.59046 0.47633 0.44048 0.0
O72 O 0.39375 0.59235 0.4633 0.0
O73 O 0.39669 0.59349 0.55371 0.0
O74 O 0.59748 0.38958 0.47163 0.0
O75 O 0.59633 0.39303 0.56185 0.0
O76 O 0.40269 0.41602 0.48259 0.0
O77 O 0.40513 0.41693 0.57301 0.0
C78 C 0.49932 0.58424 0.63226 0.0
O79 O 0.58283 0.58767 0.47447 0.0
O80 O 0.58615 0.58549 0.56454 0.0
O81 O 0.5292 0.40558 0.38123 0.0
C82 C 0.38115 0.59989 0.50947 0.0
O83 O 0.46299 0.58871 0.37331 0.0
C84 C 0.49723 0.40492 0.64662 0.0
O85 O 0.4328 0.47999 0.3957 0.0
C86 C 0.61024 0.38286 0.51774 0.0
O87 O 0.57756 0.51865 0.38588 0.0
C88 C 0.42753 0.51298 0.64694 0.0
O89 O 0.46883 0.59411 0.62909 0.0
O90 O 0.50929 0.56098 0.59985 0.0
C91 C 0.39226 0.40582 0.52834 0.0
O92 O 0.52819 0.39699 0.64213 0.0
O93 O 0.48571 0.42626 0.61365 0.0
C94 C 0.57826 0.4851 0.64218 0.0
O95 O 0.42938 0.48159 0.65615 0.0
O96 O 0.43198 0.52271 0.59877 0.0
C97 C 0.59294 0.59997 0.51994 0.0
O98 O 0.57826 0.51731 0.64251 0.0
O99 O 0.56377 0.46933 0.60279 0.0
C100 C 0.50698 0.38238 0.38314 0.0
O101 O 0.50295 0.36613 0.42861 0.0
C102 C 0.49424 0.59595 0.37697 0.0
O103 O 0.50984 0.59257 0.42371 0.0
H104 H 0.4029 0.34354 0.00703 0.0
H105 H 0.31947 0.30286 0.09664 0.0
H106 H 0.31738 0.29972 0.92241 0.0
H107 H 0.25092 0.31579 0.97948 0.0
C108 C 0.25467 0.29918 0.01488 0.0
O109 O 0.28536 0.28295 0.01082 0.0
H110 H 0.25404 0.31526 0.05251 0.0
C111 C 0.37822 0.33154 0.00791 0.0
C112 C 0.36207 0.32261 0.95878 0.0
C113 C 0.36311 0.32489 0.05799 0.0
C114 C 0.33154 0.30855 0.05852 0.0
C115 C 0.31507 0.29978 0.00972 0.0
C116 C 0.33013 0.30705 0.95992 0.0
H117 H 0.6581 0.4092 0.01473 0.0
H118 H 0.69759 0.32318 0.09799 0.0
H119 H 0.69229 0.3216 0.92428 0.0
H120 H 0.66964 0.25805 0.97713 0.0
C121 C 0.68686 0.25932 0.01302 0.0
O122 O 0.70778 0.28713 0.00996 0.0
H123 H 0.6711 0.26113 0.05029 0.0
C124 C 0.66982 0.38448 0.01366 0.0
C125 C 0.67507 0.36797 0.96342 0.0
C126 C 0.67785 0.36875 0.06259 0.0
C127 C 0.69108 0.33588 0.06086 0.0
C128 C 0.69572 0.31894 0.01107 0.0
C129 C 0.68806 0.33497 0.96249 0.0
H130 H 0.58831 0.64674 -0.0043 0.0
H131 H 0.66299 0.70976 0.92132 0.0
H132 H 0.65164 0.71246 0.09446 0.0
H133 H 0.66435 0.77773 0.04998 0.0
C134 C 0.67942 0.77044 0.01355 0.0
O135 O 0.68547 0.73618 0.01307 0.0
H136 H 0.66466 0.77735 0.97681 0.0
C137 C 0.60839 0.66539 -0.00055 0.0
C138 C 0.61764 0.67831 0.05093 0.0
C139 C 0.62452 0.67655 0.95252 0.0
C140 C 0.65033 0.70082 0.95721 0.0
C141 C 0.66022 0.71333 0.00851 0.0
C142 C 0.64405 0.70204 0.05519 0.0
H143 H 0.39788 0.61358 0.02573 0.0
H144 H 0.34348 0.69055 0.11494 0.0
H145 H 0.35152 0.69619 0.94218 0.0
H146 H 0.35453 0.76202 0.00348 0.0
C147 C 0.33613 0.75604 0.03596 0.0
O148 O 0.32472 0.72325 0.02934 0.0
H149 H 0.34917 0.75923 0.07591 0.0
C150 C 0.3844 0.63737 0.02667 0.0
C151 C 0.37719 0.65355 0.97765 0.0
C152 C 0.37263 0.65042 0.07663 0.0
C153 C 0.35313 0.68006 0.07712 0.0
C154 C 0.34557 0.69629 0.02868 0.0
C155 C 0.35771 0.68325 0.97922 0.0
H156 H 0.91094 0.83124 0.49567 0.0
H157 H 0.82772 0.78478 0.57819 0.0
H158 H 0.82534 0.79259 0.40481 0.0
H159 H 0.75747 0.80491 0.46318 0.0
C160 C 0.76267 0.78848 0.49832 0.0
O161 O 0.79274 0.77159 0.49032 0.0
H162 H 0.76426 0.80492 0.53554 0.0
C163 C 0.88668 0.8184 0.49446 0.0
C164 C 0.87047 0.81261 0.44422 0.0
C165 C 0.87154 0.80873 0.5432 0.0
C166 C 0.83966 0.79303 0.54125 0.0
C167 C 0.82299 0.78756 0.49153 0.0
C168 C 0.83825 0.79747 0.44311 0.0
H169 H 0.14425 0.90302 0.51431 0.0
H170 H 0.18873 0.81848 0.5948 0.0
H171 H 0.18353 0.81871 0.42105 0.0
H172 H 0.16629 0.7519 0.47263 0.0
C173 C 0.18304 0.75489 0.50889 0.0
O174 O 0.2015 0.78437 0.50568 0.0
H175 H 0.16688 0.75557 0.54578 0.0
C176 C 0.15717 0.87892 0.51231 0.0
C177 C 0.16341 0.86345 0.46153 0.0
C178 C 0.16629 0.86314 0.56067 0.0
C179 C 0.1813 0.83109 0.55802 0.0
C180 C 0.18692 0.81508 0.50773 0.0
C181 C 0.17826 0.83122 0.45962 0.0
H182 H 0.07491 0.15908 0.49369 0.0
H183 H 0.15472 0.21843 0.42527 0.0
H184 H 0.15005 0.2059 0.59788 0.0
H185 H 0.16575 0.27358 0.56823 0.0
C186 C 0.17845 0.26912 0.52851 0.0
O187 O 0.18248 0.23489 0.51919 0.0
H188 H 0.16214 0.28 0.49634 0.0
C189 C 0.09722 0.17484 0.49905 0.0
C190 C 0.11034 0.18089 0.55131 0.0
C191 C 0.11301 0.18811 0.45339 0.0
C192 C 0.14245 0.20766 0.46013 0.0
C193 C 0.15549 0.21425 0.51235 0.0
C194 C 0.13981 0.20046 0.55773 0.0
H195 H 0.91004 0.11492 0.50694 0.0
H196 H 0.84933 0.19154 0.4329 0.0
H197 H 0.84085 0.17478 0.60313 0.0
H198 H 0.77809 0.18428 0.55124 0.0
C199 C 0.7853 0.20098 0.51738 0.0
O200 O 0.81893 0.20997 0.52245 0.0
H201 H 0.78108 0.1865 0.47863 0.0
C202 C 0.89177 0.13513 0.51052 0.0
C203 C 0.87724 0.14269 0.56136 0.0
C204 C 0.88158 0.15202 0.46356 0.0
C205 C 0.85774 0.17817 0.46841 0.0
C206 C 0.84358 0.18646 0.51888 0.0
C207 C 0.85333 0.16889 0.56509 0.0
H208 H 0.12068 0.1364 0.10982 0.0
H209 H 0.21894 0.27118 0.92964 0.0
H210 H 0.11446 0.14 0.9349 0.0
H211 H 0.22977 0.26665 0.10344 0.0
H212 H 0.17744 0.22523 0.93202 0.0
H213 H 0.15761 0.18627 0.1098 0.0
C214 C 0.12695 0.14769 0.07147 0.0
C215 C 0.11461 0.13377 0.02226 0.0
C216 C 0.18859 0.23443 0.96979 0.0
C217 C 0.15678 0.1908 0.022 0.0
C218 C 0.21213 0.26071 0.96837 0.0
C219 C 0.22716 0.27298 0.0165 0.0
C220 C 0.18035 0.22 0.01971 0.0
C221 C 0.21819 0.25814 0.0656 0.0
C222 C 0.14804 0.17615 0.0715 0.0
C223 C 0.12348 0.14961 0.97385 0.0
N224 N 0.19534 0.23238 0.06599 0.0
N225 N 0.14405 0.17713 0.97498 0.0
H226 H 0.83271 0.10822 0.92231 0.0
H227 H 0.716 0.23067 0.10172 0.0
H228 H 0.84403 0.12199 0.09595 0.0
H229 H 0.7083 0.2196 0.92771 0.0
H230 H 0.7577 0.18497 0.1024 0.0
H231 H 0.7818 0.14266 0.92554 0.0
C232 C 0.82436 0.11825 0.96125 0.0
C233 C 0.843 0.11262 0.00885 0.0
C234 C 0.74651 0.19212 0.06413 0.0
C235 C 0.7847 0.15229 0.0127 0.0
C236 C 0.72267 0.21803 0.06384 0.0
C237 C 0.70851 0.22837 0.01468 0.0
C238 C 0.75653 0.17686 0.01477 0.0
C239 C 0.71839 0.21191 0.96646 0.0
C240 C 0.79524 0.13794 0.96303 0.0
C241 C 0.83066 0.12594 0.05816 0.0
N242 N 0.74194 0.18705 0.96766 0.0
N243 N 0.80246 0.14548 0.05871 0.0
H244 H 0.86184 0.87984 0.10726 0.0
H245 H 0.71927 0.78573 0.92724 0.0
H246 H 0.86452 0.87054 0.93225 0.0
H247 H 0.71538 0.79481 0.1017 0.0
H248 H 0.77427 0.81439 0.92889 0.0
H249 H 0.81019 0.8457 0.10698 0.0
C250 C 0.85178 0.8704 0.06882 0.0
C251 C 0.8674 0.87838 0.01966 0.0
C252 C 0.76141 0.81024 0.96687 0.0
C253 C 0.8082 0.83949 0.01909 0.0
C254 C 0.73003 0.79408 0.96582 0.0
C255 C 0.71263 0.78881 0.01426 0.0
C256 C 0.77557 0.82095 0.01684 0.0
C257 C 0.72784 0.79915 0.06344 0.0
C258 C 0.82222 0.85098 0.0687 0.0
C259 C 0.85324 0.86532 0.97114 0.0
N260 N 0.7584 0.81495 0.06349 0.0
N261 N 0.82436 0.84673 0.97209 0.0
H262 H 0.15691 0.876 0.10633 0.0
H263 H 0.30513 0.77973 0.94506 0.0
H264 H 0.15806 0.85983 0.93239 0.0
H265 H 0.29876 0.78367 0.11961 0.0
H266 H 0.25391 0.81418 0.93982 0.0
H267 H 0.21164 0.84738 0.11234 0.0
C268 C 0.16872 0.86665 0.0694 0.0
C269 C 0.15269 0.87013 0.01882 0.0
C270 C 0.26382 0.80781 0.97935 0.0
C271 C 0.21527 0.8374 0.02543 0.0
C272 C 0.29308 0.78832 0.98225 0.0
C273 C 0.30634 0.77945 0.03279 0.0
C274 C 0.2475 0.81828 0.0274 0.0
C275 C 0.28951 0.79049 0.0799 0.0
C276 C 0.19992 0.85024 0.07288 0.0
C277 C 0.16925 0.85752 0.97234 0.0
N278 N 0.26093 0.80936 0.0761 0.0
N279 N 0.19951 0.84169 0.97681 0.0
H280 H 0.6055 0.6407 0.43436 0.0
H281 H 0.74407 0.75514 0.59001 0.0
H282 H 0.62947 0.62961 0.60429 0.0
H283 H 0.71915 0.76323 0.42034 0.0
H284 H 0.70021 0.71144 0.59835 0.0
H285 H 0.64435 0.68824 0.43102 0.0
C286 C 0.61882 0.64833 0.47118 0.0
C287 C 0.61438 0.6308 0.51962 0.0
C288 C 0.70412 0.72297 0.55942 0.0
C289 C 0.65937 0.68553 0.51586 0.0
C290 C 0.72903 0.74789 0.55473 0.0
C291 C 0.7347 0.76305 0.50464 0.0
C292 C 0.68502 0.71299 0.51349 0.0
C293 C 0.71516 0.75244 0.45981 0.0
C294 C 0.6411 0.67558 0.46917 0.0
C295 C 0.63219 0.64224 0.56602 0.0
N296 N 0.6912 0.72809 0.4653 0.0
N297 N 0.65412 0.66876 0.56289 0.0
H298 H 0.33862 0.61212 0.42446 0.0
H299 H 0.21472 0.73037 0.59873 0.0
H300 H 0.34861 0.6279 0.59792 0.0
H301 H 0.20776 0.71584 0.42518 0.0
H302 H 0.25992 0.68811 0.60129 0.0
H303 H 0.28681 0.64506 0.42597 0.0
C304 C 0.32986 0.62238 0.463 0.0
C305 C 0.34828 0.61757 0.51109 0.0
C306 C 0.24818 0.69376 0.56274 0.0
C307 C 0.28879 0.65553 0.51297 0.0
C308 C 0.22235 0.71769 0.56137 0.0
C309 C 0.20731 0.72599 0.5118 0.0
C310 C 0.25924 0.67845 0.51403 0.0
C311 C 0.21847 0.70964 0.46425 0.0
C312 C 0.30018 0.6412 0.4638 0.0
C313 C 0.33538 0.63118 0.55982 0.0
N314 N 0.24387 0.6867 0.4665 0.0
N315 N 0.30655 0.64981 0.55944 0.0
H316 H 0.36095 0.37952 0.61737 0.0
H317 H 0.21608 0.28653 0.44073 0.0
H318 H 0.35794 0.37722 0.44198 0.0
H319 H 0.21776 0.28948 0.61567 0.0
H320 H 0.27051 0.31633 0.44048 0.0
H321 H 0.31094 0.34308 0.61787 0.0
C322 C 0.34994 0.37122 0.57895 0.0
C323 C 0.36354 0.38175 0.52955 0.0
C324 C 0.25906 0.31046 0.47899 0.0
C325 C 0.30623 0.34007 0.52991 0.0
C326 C 0.22806 0.29354 0.47904 0.0
C327 C 0.21233 0.2863 0.52824 0.0
C328 C 0.27445 0.32004 0.52858 0.0
C329 C 0.22895 0.29521 0.57691 0.0
C330 C 0.32135 0.35041 0.5793 0.0
C331 C 0.34825 0.36999 0.48108 0.0
N332 N 0.25904 0.31187 0.57589 0.0
N333 N 0.32033 0.34998 0.48252 0.0
H334 H 0.64135 0.35681 0.60761 0.0
H335 H 0.76684 0.24007 0.43183 0.0
H336 H 0.64821 0.35874 0.43276 0.0
H337 H 0.75537 0.23263 0.60496 0.0
H338 H 0.72821 0.28841 0.4328 0.0
H339 H 0.68781 0.31618 0.60893 0.0
C340 C 0.65279 0.34897 0.56953 0.0
C341 C 0.64054 0.36096 0.51994 0.0
C342 C 0.73419 0.27633 0.47067 0.0
C343 C 0.6937 0.31435 0.52121 0.0
C344 C 0.75618 0.2488 0.47004 0.0
C345 C 0.76352 0.23205 0.51818 0.0
C346 C 0.71962 0.28728 0.51992 0.0
C347 C 0.74974 0.2446 0.56688 0.0
C348 C 0.67929 0.3257 0.57032 0.0
C349 C 0.65653 0.34996 0.47194 0.0
N350 N 0.72816 0.27129 0.56648 0.0
N351 N 0.68207 0.32714 0.47377 0.0
H352 H 0.96887 0.13482 0.20456 0.0
H353 H 0.14426 0.16141 0.36341 0.0
H354 H 0.06106 0.08363 0.15967 0.0
H355 H 0.04797 0.19756 0.42141 0.0
H356 H 0.11642 0.14067 0.27965 0.0
H357 H -0.00052 0.16484 0.27673 0.0
C358 C 0.99566 0.13004 0.20939 0.0
C359 C 0.01246 0.10666 0.17542 0.0
C360 C 0.1015 0.15351 0.31048 0.0
C361 C 0.04776 0.14117 0.25834 0.0
C362 C 0.11741 0.16556 0.3579 0.0
C363 C 0.09822 0.18085 0.39925 0.0
C364 C 0.06631 0.15705 0.30462 0.0
C365 C 0.0635 0.18551 0.39057 0.0
C366 C 0.01314 0.14727 0.25071 0.0
C367 C 0.04712 0.1015 0.18415 0.0
N368 N 0.0486 0.17342 0.3444 0.0
N369 N 0.06365 0.11856 0.22482 0.0
H370 H 0.88248 0.05996 0.14199 0.0
H371 H 0.94466 0.12936 0.43307 0.0
H372 H 0.96396 0.01513 0.23183 0.0
H373 H 0.84374 0.14461 0.37048 0.0
H374 H 0.95881 0.09819 0.34934 0.0
H375 H 0.87448 0.10131 0.2164 0.0
C376 C 0.89885 0.05914 0.17727 0.0
C377 C 0.92388 0.03435 0.18111 0.0
C378 C 0.93371 0.10872 0.35389 0.0
C379 C 0.91501 0.08122 0.26598 0.0
C380 C 0.92558 0.12649 0.40159 0.0
C381 C 0.89274 0.13917 0.40937 0.0
C382 C 0.90893 0.10382 0.3135 0.0
C383 C 0.86938 0.13546 0.36644 0.0
C384 C 0.89424 0.08256 0.21968 0.0
C385 C 0.94417 0.03378 0.22785 0.0
N386 N 0.87783 0.11784 0.32059 0.0
N387 N 0.93935 0.05698 0.26857 0.0
H388 H 0.02322 0.85825 0.20755 0.0
H389 H 0.84418 0.84631 0.35718 0.0
H390 H 0.93501 0.9135 0.15736 0.0
H391 H 0.93619 0.80137 0.41618 0.0
H392 H 0.87513 0.86635 0.27791 0.0
H393 H 0.99 0.83289 0.27913 0.0
C394 C 0.99679 0.865 0.21127 0.0
C395 C 0.98194 0.88817 0.17602 0.0
C396 C 0.88847 0.85196 0.30812 0.0
C397 C 0.94359 0.85908 0.25834 0.0
C398 C 0.87078 0.84035 0.35312 0.0
C399 C 0.88774 0.82245 0.39354 0.0
C400 C 0.92328 0.84541 0.30344 0.0
C401 C 0.92226 0.81557 0.38643 0.0
C402 C 0.97781 0.85047 0.25227 0.0
C403 C 0.94756 0.8958 0.18309 0.0
N404 N 0.93887 0.82715 0.34247 0.0
N405 N 0.92957 0.88138 0.22346 0.0
H406 H 0.093 0.0143 0.241 0.0
H407 H 0.13561 0.83611 0.36785 0.0
H408 H 0.09329 0.92129 0.14676 0.0
H409 H 0.16889 0.93097 0.44046 0.0
H410 H 0.1161 0.86653 0.2883 0.0
H411 H 0.11652 0.98395 0.31772 0.0
C412 C 0.09783 0.98747 0.23623 0.0
C413 C 0.0905 0.97019 0.18709 0.0
C414 C 0.12785 0.8806 0.32161 0.0
C415 C 0.11737 0.93534 0.27491 0.0
C416 C 0.13918 0.86324 0.36689 0.0
C417 C 0.15366 0.88101 0.41119 0.0
C418 C 0.13074 0.91598 0.32087 0.0
C419 C 0.15718 0.91627 0.40784 0.0
C420 C 0.11135 0.9702 0.28006 0.0
C421 C 0.09756 0.93552 0.18359 0.0
N422 N 0.14555 0.93262 0.3637 0.0
N423 N 0.11038 0.91917 0.22689 0.0
H424 H 0.1082 0.01425 0.79644 0.0
H425 H 0.141 0.83518 0.65304 0.0
H426 H 0.09594 0.92002 0.87927 0.0
H427 H 0.17518 0.92983 0.58835 0.0
H428 H 0.1242 0.86517 0.73649 0.0
H429 H 0.13168 0.98329 0.71888 0.0
C430 C 0.11047 0.98702 0.79837 0.0
C431 C 0.09998 0.96963 0.84436 0.0
C432 C 0.13564 0.87929 0.70416 0.0
C433 C 0.1268 0.93403 0.75564 0.0
C434 C 0.1454 0.86217 0.65669 0.0
C435 C 0.15914 0.88012 0.61349 0.0
C436 C 0.13951 0.91456 0.70818 0.0
C437 C 0.16399 0.91512 0.6202 0.0
C438 C 0.12401 0.96937 0.75414 0.0
C439 C 0.10364 0.93438 0.84464 0.0
N440 N 0.15391 0.93123 0.66643 0.0
N441 N 0.11657 0.91766 0.80076 0.0
H442 H 0.95845 0.11152 0.7737 0.0
H443 H 0.13797 0.14796 0.63757 0.0
H444 H 0.05237 0.0698 0.83156 0.0
H445 H 0.04267 0.18136 0.57193 0.0
H446 H 0.10746 0.12109 0.71152 0.0
H447 H 0.98912 0.13813 0.70026 0.0
C448 C 0.98552 0.10781 0.77078 0.0
C449 C 0.00292 0.08843 0.8088 0.0
C450 C 0.09325 0.13434 0.68094 0.0
C451 C 0.03826 0.11914 0.72528 0.0
C452 C 0.11067 0.14989 0.63908 0.0
C453 C 0.09276 0.16669 0.59854 0.0
C454 C 0.05775 0.13584 0.68229 0.0
C455 C 0.05739 0.16822 0.60202 0.0
C456 C 0.00304 0.12306 0.72891 0.0
C457 C 0.03796 0.0844 0.80301 0.0
N458 N 0.04104 0.15295 0.64309 0.0
N459 N 0.05453 0.09979 0.76218 0.0
H460 H 0.87211 0.05085 0.87549 0.0
H461 H 0.89147 0.07453 0.56251 0.0
H462 H 0.94414 0.99143 0.78361 0.0
H463 H 0.8799 0.1616 0.67006 0.0
H464 H 0.90274 0.03992 0.64085 0.0
H465 H 0.86556 0.088 0.79805 0.0
C466 C 0.88667 0.04569 0.83923 0.0
C467 C 0.90911 0.01829 0.83636 0.0
C468 C 0.89795 0.06668 0.64704 0.0
C469 C 0.90084 0.05998 0.74734 0.0
C470 C 0.89179 0.08669 0.60228 0.0
C471 C 0.885 0.12143 0.60915 0.0
C472 C 0.89634 0.0811 0.69931 0.0
C473 C 0.88449 0.13498 0.66244 0.0
C474 C 0.88289 0.06689 0.79516 0.0
C475 C 0.92668 0.01233 0.78772 0.0
N476 N 0.88974 0.11471 0.70554 0.0
N477 N 0.92198 0.0329 0.7449 0.0
H478 H 0.02426 0.85215 0.78645 0.0
H479 H 0.84431 0.8322 0.63909 0.0
H480 H 0.9297 0.87609 0.8651 0.0
H481 H 0.93874 0.80094 0.567 0.0
H482 H 0.87459 0.84682 0.7233 0.0
H483 H 0.99295 0.83234 0.7063 0.0
C484 C 0.99689 0.85316 0.78694 0.0
C485 C 0.97958 0.86586 0.83254 0.0
C486 C 0.88864 0.83661 0.68912 0.0
C487 C 0.94351 0.84325 0.74069 0.0
C488 C 0.87134 0.82807 0.64115 0.0
C489 C 0.88905 0.81557 0.59577 0.0
C490 C 0.92391 0.83266 0.6917 0.0
C491 C 0.92414 0.81109 0.6006 0.0
C492 C 0.979 0.84179 0.74114 0.0
C493 C 0.94409 0.86651 0.83083 0.0
N494 N 0.94041 0.81977 0.64755 0.0
N495 N 0.92722 0.85549 0.78555 0.0
H496 H 0.5097 0.65114 0.65707 0.0
H497 H 0.61833 0.61063 0.9207 0.0
H498 H 0.53914 0.55087 0.70193 0.0
H499 H 0.60465 0.71197 0.86383 0.0
H500 H 0.59226 0.58845 0.83718 0.0
H501 H 0.54614 0.6746 0.72988 0.0
C502 C 0.52434 0.63418 0.6818 0.0
C503 C 0.5224 0.59915 0.67295 0.0
C504 C 0.59527 0.61554 0.84249 0.0
C505 C 0.56342 0.62541 0.75618 0.0
C506 C 0.61012 0.62814 0.89013 0.0
C507 C 0.61335 0.66309 0.89902 0.0
C508 C 0.58305 0.63809 0.80379 0.0
C509 C 0.60261 0.68482 0.85821 0.0
C510 C 0.54515 0.64748 0.72308 0.0
C511 C 0.5413 0.57804 0.70617 0.0
N512 N 0.58746 0.67197 0.81252 0.0
N513 N 0.56089 0.59147 0.74657 0.0
H514 H 0.38814 0.56945 0.64916 0.0
H515 H 0.437 0.62104 0.95515 0.0
H516 H 0.45604 0.51148 0.74757 0.0
H517 H 0.3429 0.65031 0.87999 0.0
H518 H 0.45184 0.58978 0.8721 0.0
H519 H 0.37893 0.60837 0.72663 0.0
C520 C 0.40151 0.56532 0.68683 0.0
C521 C 0.42296 0.53746 0.69214 0.0
C522 C 0.42806 0.60326 0.87379 0.0
C523 C 0.41252 0.58146 0.78061 0.0
C524 C 0.41946 0.62102 0.92124 0.0
C525 C 0.38835 0.63798 0.92512 0.0
C526 C 0.40563 0.60272 0.82949 0.0
C527 C 0.3672 0.63783 0.87903 0.0
C528 C 0.39606 0.58729 0.73105 0.0
C529 C 0.43915 0.53264 0.7421 0.0
N530 N 0.37615 0.6203 0.83324 0.0
N531 N 0.43366 0.55448 0.78445 0.0
H532 H 0.51611 0.3583 0.72081 0.0
H533 H 0.33631 0.35335 0.86886 0.0
H534 H 0.42994 0.41622 0.66928 0.0
H535 H 0.42707 0.30782 0.93138 0.0
H536 H 0.36783 0.37041 0.78825 0.0
H537 H 0.48167 0.334 0.79191 0.0
C538 C 0.48988 0.36587 0.72418 0.0
C539 C 0.47596 0.38952 0.68884 0.0
C540 C 0.38075 0.35646 0.81946 0.0
C541 C 0.43626 0.36165 0.7704 0.0
C542 C 0.36273 0.34655 0.86517 0.0
C543 C 0.37926 0.32952 0.90694 0.0
C544 C 0.41542 0.34904 0.81557 0.0
C545 C 0.41354 0.32141 0.90042 0.0
C546 C 0.47021 0.35193 0.76484 0.0
C547 C 0.4418 0.39818 0.69528 0.0
N548 N 0.4305 0.3314 0.85581 0.0
N549 N 0.42313 0.38435 0.73535 0.0
H550 H 0.5888 0.41682 0.65299 0.0
H551 H 0.68414 0.43444 0.9378 0.0
H552 H 0.60604 0.5126 0.7352 0.0
H553 H 0.64346 0.34027 0.87351 0.0
H554 H 0.66248 0.46315 0.8581 0.0
H555 H 0.61508 0.38816 0.72785 0.0
C556 C 0.59781 0.43191 0.68663 0.0
C557 C 0.59458 0.46715 0.6875 0.0
C558 C 0.65845 0.43618 0.86138 0.0
C559 C 0.62559 0.43445 0.77401 0.0
C560 C 0.67073 0.41977 0.90686 0.0
C561 C 0.66529 0.38493 0.91263 0.0
C562 C 0.64081 0.4176 0.82115 0.0
C563 C 0.64845 0.36708 0.87066 0.0
C564 C 0.61308 0.41546 0.72961 0.0
C565 C 0.60773 0.4853 0.7326 0.0
N566 N 0.63665 0.38367 0.8268 0.0
N567 N 0.62263 0.46874 0.7741 0.0
H568 H 0.60808 0.42303 0.38533 0.0
H569 H 0.68685 0.43577 0.08937 0.0
H570 H 0.60792 0.51466 0.29359 0.0
H571 H 0.65185 0.34167 0.15516 0.0
H572 H 0.66793 0.46532 0.17172 0.0
H573 H 0.63353 0.39304 0.30808 0.0
C574 C 0.61347 0.43683 0.34903 0.0
C575 C 0.60573 0.47128 0.34576 0.0
C576 C 0.66459 0.43818 0.16815 0.0
C577 C 0.63512 0.43736 0.25764 0.0
C578 C 0.6753 0.42129 0.12119 0.0
C579 C 0.67048 0.38623 0.115 0.0
C580 C 0.64928 0.41986 0.20948 0.0
C581 C 0.65622 0.36866 0.15822 0.0
C582 C 0.62794 0.41972 0.30498 0.0
C583 C 0.61326 0.48801 0.29768 0.0
N584 N 0.64594 0.38572 0.2036 0.0
N585 N 0.62764 0.47088 0.25547 0.0
H586 H 0.5619 0.60916 0.36931 0.0
H587 H 0.54948 0.66947 0.06217 0.0
H588 H 0.46892 0.61076 0.27664 0.0
H589 H 0.64363 0.66233 0.15064 0.0
H590 H 0.51943 0.64939 0.14141 0.0
H591 H 0.59218 0.63001 0.29068 0.0
C592 C 0.54784 0.61392 0.33244 0.0
C593 C 0.51282 0.60825 0.32954 0.0
C594 C 0.54666 0.6522 0.14358 0.0
C595 C 0.54732 0.63208 0.23939 0.0
C596 C 0.56386 0.66351 0.09825 0.0
C597 C 0.59916 0.66732 0.09967 0.0
C598 C 0.56484 0.64468 0.19086 0.0
C599 C 0.61639 0.65996 0.14791 0.0
C600 C 0.56516 0.62579 0.28754 0.0
C601 C 0.49593 0.6147 0.28065 0.0
N602 N 0.59906 0.64889 0.19158 0.0
N603 N 0.51335 0.62631 0.23751 0.0
H604 H 0.45028 0.50846 0.3072 0.0
H605 H 0.32949 0.64021 0.16185 0.0
H606 H 0.36029 0.54936 0.38189 0.0
H607 H 0.43078 0.61796 0.10729 0.0
H608 H 0.33962 0.60625 0.24181 0.0
H609 H 0.44248 0.54673 0.23165 0.0
C610 C 0.42882 0.52541 0.30764 0.0
C611 C 0.40583 0.52564 0.35085 0.0
C612 C 0.3597 0.60898 0.21249 0.0
C613 C 0.39677 0.56949 0.26452 0.0
C614 C 0.35402 0.62858 0.16694 0.0
C615 C 0.37925 0.63187 0.12747 0.0
C616 C 0.39072 0.59226 0.21851 0.0
C617 C 0.41034 0.61565 0.13604 0.0
C618 C 0.42448 0.54737 0.26463 0.0
C619 C 0.37864 0.54833 0.34945 0.0
N620 N 0.4151 0.59637 0.18038 0.0
N621 N 0.37478 0.56924 0.30687 0.0
H622 H 0.50298 0.41623 0.28764 0.0
H623 H 0.36904 0.28837 0.1511 0.0
H624 H 0.46063 0.33126 0.3712 0.0
H625 H 0.39806 0.38326 0.08139 0.0
H626 H 0.40254 0.30311 0.23203 0.0
H627 H 0.46567 0.40352 0.21054 0.0
C628 C 0.4859 0.39484 0.28972 0.0
C629 C 0.485 0.37469 0.33582 0.0
C630 C 0.40141 0.32077 0.1991 0.0
C631 C 0.44218 0.36003 0.24777 0.0
C632 C 0.38213 0.31246 0.15305 0.0
C633 C 0.38099 0.33447 0.10918 0.0
C634 C 0.41979 0.35123 0.20116 0.0
C635 C 0.39877 0.3652 0.11374 0.0
C636 C 0.46448 0.38769 0.24578 0.0
C637 C 0.46221 0.34743 0.33641 0.0
N638 N 0.41759 0.37255 0.1587 0.0
N639 N 0.44177 0.34081 0.29294 0.0
loop_
_geom_bond_atom_site_label_1
_geom_bond_atom_site_label_2
_geom_bond_distance
_geom_bond_site_symmetry_2
_ccdc_geom_bond_type
Zn0 O2 1.933 1_556 S
Zn0 O20 1.985 . S
Zn0 O31 1.955 . S
Zn1 O2 1.911 . S
Zn1 O21 1.970 . S
Zn1 O37 1.945 . S
Zn1 O44 1.981 . S
O2 Zn0 1.933 1_554 S
O2 Zn1 1.911 . S
O2 H3 0.841 1_655 S
H3 O2 0.841 1_455 S
C4 O5 1.246 . S
C4 O33 1.276 1_545 S
O5 C4 1.246 . S
Zn6 O8 1.911 . S
Zn6 O23 1.970 . S
Zn6 O40 1.945 . S
Zn6 O47 1.981 . S
Zn7 O8 1.933 1_556 S
Zn7 O22 1.985 . S
Zn7 O29 1.955 . S
O8 Zn6 1.911 . S
O8 Zn7 1.933 1_554 S
O8 H9 0.841 1_455 S
H9 O8 0.841 1_655 S
Zn10 O11 1.933 1_556 S
Zn10 O24 1.985 . S
Zn10 O33 1.955 . S
O11 Zn10 1.933 1_554 S
O11 Zn12 1.911 . S
O11 H13 0.841 1_565 S
Zn12 O11 1.911 . S
Zn12 O25 1.970 . S
Zn12 O41 1.981 . S
Zn12 O43 1.945 . S
H13 O11 0.841 1_545 S
Zn14 O15 1.933 1_556 S
Zn14 O27 1.985 . S
Zn14 O35 1.955 . S
O15 Zn14 1.933 1_554 S
O15 H16 0.841 1_545 S
O15 Zn17 1.911 . S
H16 O15 0.841 1_565 S
Zn17 O15 1.911 . S
Zn17 O28 1.970 . S
Zn17 O38 1.981 . S
Zn17 O46 1.945 . S
C18 O19 1.246 . S
C18 O35 1.276 1_565 S
O19 C18 1.246 . S
O20 Zn0 1.985 . S
O20 C30 1.245 1_556 S
O21 Zn1 1.970 . S
O21 C30 1.263 . S
O22 Zn7 1.985 . S
O22 C34 1.245 1_556 S
O23 Zn6 1.970 . S
O23 C34 1.263 . S
O24 Zn10 1.985 . S
O24 C39 1.245 1_556 S
O25 Zn12 1.970 . S
O25 C39 1.263 . S
C26 O37 1.262 1_455 S
C26 O38 1.245 . S
O27 Zn14 1.985 . S
O27 C45 1.245 1_556 S
O28 Zn17 1.970 . S
O28 C45 1.263 . S
O29 Zn7 1.955 . S
O29 C48 1.276 1_455 S
C30 O20 1.245 1_554 S
C30 O21 1.263 . S
O31 Zn0 1.955 . S
O31 C50 1.276 1_655 S
C32 O40 1.262 1_655 S
C32 O41 1.245 . S
O33 C4 1.276 1_565 S
O33 Zn10 1.955 . S
C34 O22 1.245 1_554 S
C34 O23 1.263 . S
O35 Zn14 1.955 . S
O35 C18 1.276 1_545 S
C36 O43 1.262 1_545 S
C36 O44 1.245 . S
O37 Zn1 1.945 . S
O37 C26 1.262 1_655 S
O38 Zn17 1.981 . S
O38 C26 1.245 . S
C39 O24 1.245 1_554 S
C39 O25 1.263 . S
O40 Zn6 1.945 . S
O40 C32 1.262 1_455 S
O41 Zn12 1.981 . S
O41 C32 1.245 . S
C42 O46 1.262 1_565 S
C42 O47 1.245 . S
O43 Zn12 1.945 . S
O43 C36 1.262 1_565 S
O44 Zn1 1.981 . S
O44 C36 1.245 . S
C45 O27 1.245 1_554 S
C45 O28 1.263 . S
O46 Zn17 1.945 . S
O46 C42 1.262 1_545 S
O47 Zn6 1.981 . S
O47 C42 1.245 . S
C48 O29 1.276 1_655 S
C48 O49 1.246 . S
O49 C48 1.246 . S
C50 O31 1.276 1_455 S
C50 O51 1.246 . S
O51 C50 1.246 . S
Zn52 O54 1.933 . S
Zn52 O72 1.985 . S
Zn52 O83 1.955 . S
Zn53 O54 1.911 . S
Zn53 O73 1.970 . S
Zn53 O89 1.945 . S
Zn53 O96 1.981 . S
O54 Zn52 1.933 . S
O54 Zn53 1.911 . S
O54 H55 0.841 . S
H55 O54 0.841 . S
C56 O57 1.246 . S
C56 O85 1.276 . S
O57 C56 1.246 . S
Zn58 O60 1.911 . S
Zn58 O75 1.970 . S
Zn58 O92 1.945 . S
Zn58 O99 1.981 . S
Zn59 O60 1.933 . S
Zn59 O74 1.985 . S
Zn59 O81 1.955 . S
O60 Zn58 1.911 . S
O60 Zn59 1.933 . S
O60 H61 0.841 . S
H61 O60 0.841 . S
Zn62 O63 1.933 . S
Zn62 O76 1.985 . S
Zn62 O85 1.955 . S
O63 Zn62 1.933 . S
O63 Zn64 1.911 . S
O63 H65 0.841 . S
Zn64 O63 1.911 . S
Zn64 O77 1.970 . S
Zn64 O93 1.981 . S
Zn64 O95 1.945 . S
H65 O63 0.841 . S
Zn66 O67 1.933 . S
Zn66 O79 1.985 . S
Zn66 O87 1.955 . S
O67 Zn66 1.933 . S
O67 H68 0.841 . S
O67 Zn69 1.911 . S
H68 O67 0.841 . S
Zn69 O67 1.911 . S
Zn69 O80 1.970 . S
Zn69 O90 1.981 . S
Zn69 O98 1.945 . S
C70 O71 1.246 . S
C70 O87 1.276 . S
O71 C70 1.246 . S
O72 Zn52 1.985 . S
O72 C82 1.245 . S
O73 Zn53 1.970 . S
O73 C82 1.263 . S
O74 Zn59 1.985 . S
O74 C86 1.245 . S
O75 Zn58 1.970 . S
O75 C86 1.263 . S
O76 Zn62 1.985 . S
O76 C91 1.245 . S
O77 Zn64 1.970 . S
O77 C91 1.263 . S
C78 O89 1.262 . S
C78 O90 1.245 . S
O79 Zn66 1.985 . S
O79 C97 1.245 . S
O80 Zn69 1.970 . S
O80 C97 1.263 . S
O81 Zn59 1.955 . S
O81 C100 1.276 . S
C82 O72 1.245 . S
C82 O73 1.263 . S
O83 Zn52 1.955 . S
O83 C102 1.276 . S
C84 O92 1.262 . S
C84 O93 1.245 . S
O85 C56 1.276 . S
O85 Zn62 1.955 . S
C86 O74 1.245 . S
C86 O75 1.263 . S
O87 Zn66 1.955 . S
O87 C70 1.276 . S
C88 O95 1.262 . S
C88 O96 1.245 . S
O89 Zn53 1.945 . S
O89 C78 1.262 . S
O90 Zn69 1.981 . S
O90 C78 1.245 . S
C91 O76 1.245 . S
C91 O77 1.263 . S
O92 Zn58 1.945 . S
O92 C84 1.262 . S
O93 Zn64 1.981 . S
O93 C84 1.245 . S
C94 O98 1.262 . S
C94 O99 1.245 . S
O95 Zn64 1.945 . S
O95 C88 1.262 . S
O96 Zn53 1.981 . S
O96 C88 1.245 . S
C97 O79 1.245 . S
C97 O80 1.263 . S
O98 Zn69 1.945 . S
O98 C94 1.262 . S
O99 Zn58 1.981 . S
O99 C94 1.245 . S
C100 O81 1.276 . S
C100 O101 1.246 . S
O101 C100 1.246 . S
C102 O83 1.276 . S
C102 O103 1.246 . S
O103 C102 1.246 . S
H104 C111 0.929 . S
H105 C114 0.930 . S
H106 C116 0.929 . S
H107 C108 0.969 . S
C108 H107 0.969 . S
C108 O109 1.550 1_554 S
C108 H110 0.973 . S
O109 C108 1.550 1_556 S
O109 C115 1.414 . S
H110 C108 0.973 . S
C111 H104 0.929 . S
C111 C112 1.400 1_554 S
C111 C113 1.364 . S
C112 C111 1.400 1_556 S
C112 C116 1.377 . S
C113 C111 1.364 . S
C113 C114 1.374 . S
C114 H105 0.930 . S
C114 C113 1.374 . S
C114 C115 1.376 1_554 S
C115 O109 1.414 . S
C115 C114 1.376 1_556 S
C115 C116 1.401 . S
C116 H106 0.929 . S
C116 C112 1.377 . S
C116 C115 1.401 . S
H117 C124 0.929 . S
H118 C127 0.930 . S
H119 C129 0.929 . S
H120 C121 0.969 . S
C121 H120 0.969 . S
C121 O122 1.550 1_554 S
C121 H123 0.973 . S
O122 C121 1.550 1_556 S
O122 C128 1.412 1_556 S
H123 C121 0.973 . S
C124 H117 0.929 . S
C124 C125 1.400 1_554 S
C124 C126 1.364 . S
C125 C124 1.400 1_556 S
C125 C129 1.377 . S
C126 C124 1.364 . S
C126 C127 1.374 . S
C127 H118 0.930 . S
C127 C126 1.374 . S
C127 C128 1.383 . S
C128 O122 1.412 1_554 S
C128 C127 1.383 . S
C128 C129 1.394 1_554 S
C129 H119 0.929 . S
C129 C125 1.377 . S
C129 C128 1.394 1_556 S
H130 C137 0.929 . S
H131 C140 0.930 . S
H132 C142 0.929 . S
H133 C134 0.969 . S
C134 H133 0.969 . S
C134 O135 1.550 1_556 S
C134 H136 0.973 . S
O135 C134 1.550 1_554 S
O135 C141 1.412 . S
H136 C134 0.973 . S
C137 H130 0.929 . S
C137 C138 1.400 . S
C137 C139 1.364 1_554 S
C138 C137 1.400 . S
C138 C142 1.377 . S
C139 C137 1.364 1_556 S
C139 C140 1.374 . S
C140 H131 0.930 . S
C140 C139 1.374 . S
C140 C141 1.383 1_556 S
C141 O135 1.412 . S
C141 C140 1.383 1_554 S
C141 C142 1.394 . S
C142 H132 0.929 . S
C142 C138 1.377 . S
C142 C141 1.394 . S
H143 C150 0.929 . S
H144 C153 0.930 . S
H145 C155 0.929 . S
H146 C147 0.969 . S
C147 H146 0.969 . S
C147 O148 1.550 1_554 S
C147 H149 0.973 . S
O148 C147 1.550 1_556 S
O148 C154 1.412 1_556 S
H149 C147 0.973 . S
C150 H143 0.929 . S
C150 C151 1.400 1_554 S
C150 C152 1.364 . S
C151 C150 1.400 1_556 S
C151 C155 1.377 . S
C152 C150 1.364 . S
C152 C153 1.374 . S
C153 H144 0.930 . S
C153 C152 1.374 . S
C153 C154 1.383 . S
C154 O148 1.412 1_554 S
C154 C153 1.383 . S
C154 C155 1.394 1_554 S
C155 H145 0.929 . S
C155 C151 1.377 . S
C155 C154 1.394 1_556 S
H156 C163 0.929 . S
H157 C166 0.930 . S
H158 C168 0.929 . S
H159 C160 0.969 . S
C160 H159 0.969 . S
C160 O161 1.550 . S
C160 H162 0.973 . S
O161 C160 1.550 . S
O161 C167 1.412 . S
H162 C160 0.973 . S
C163 H156 0.929 . S
C163 C164 1.400 . S
C163 C165 1.364 . S
C164 C163 1.400 . S
C164 C168 1.377 . S
C165 C163 1.364 . S
C165 C166 1.374 . S
C166 H157 0.930 . S
C166 C165 1.374 . S
C166 C167 1.383 . S
C167 O161 1.412 . S
C167 C166 1.383 . S
C167 C168 1.394 . S
C168 H158 0.929 . S
C168 C164 1.377 . S
C168 C167 1.394 . S
H169 C176 0.929 . S
H170 C179 0.930 . S
H171 C181 0.929 . S
H172 C173 0.969 . S
C173 H172 0.969 . S
C173 O174 1.550 . S
C173 H175 0.973 . S
O174 C173 1.550 . S
O174 C180 1.412 . S
H175 C173 0.973 . S
C176 H169 0.929 . S
C176 C177 1.400 . S
C176 C178 1.364 . S
C177 C176 1.400 . S
C177 C181 1.377 . S
C178 C176 1.364 . S
C178 C179 1.374 . S
C179 H170 0.930 . S
C179 C178 1.374 . S
C179 C180 1.383 . S
C180 O174 1.412 . S
C180 C179 1.383 . S
C180 C181 1.394 . S
C181 H171 0.929 . S
C181 C177 1.377 . S
C181 C180 1.394 . S
H182 C189 0.929 . S
H183 C192 0.930 . S
H184 C194 0.929 . S
H185 C186 0.969 . S
C186 H185 0.969 . S
C186 O187 1.550 . S
C186 H188 0.973 . S
O187 C186 1.550 . S
O187 C193 1.412 . S
H188 C186 0.973 . S
C189 H182 0.929 . S
C189 C190 1.400 . S
C189 C191 1.364 . S
C190 C189 1.400 . S
C190 C194 1.377 . S
C191 C189 1.364 . S
C191 C192 1.374 . S
C192 H183 0.930 . S
C192 C191 1.374 . S
C192 C193 1.383 . S
C193 O187 1.412 . S
C193 C192 1.383 . S
C193 C194 1.394 . S
C194 H184 0.929 . S
C194 C190 1.377 . S
C194 C193 1.394 . S
H195 C202 0.929 . S
H196 C205 0.930 . S
H197 C207 0.929 . S
H198 C199 0.969 . S
C199 H198 0.969 . S
C199 O200 1.550 . S
C199 H201 0.973 . S
O200 C199 1.550 . S
O200 C206 1.412 . S
H201 C199 0.973 . S
C202 H195 0.929 . S
C202 C203 1.400 . S
C202 C204 1.364 . S
C203 C202 1.400 . S
C203 C207 1.377 . S
C204 C202 1.364 . S
C204 C205 1.374 . S
C205 H196 0.930 . S
C205 C204 1.374 . S
C205 C206 1.383 . S
C206 O200 1.412 . S
C206 C205 1.383 . S
C206 C207 1.394 . S
C207 H197 0.929 . S
C207 C203 1.377 . S
C207 C206 1.394 . S
H208 C214 0.930 . S
H209 C218 0.930 . S
H210 C223 0.929 . S
H211 C221 0.929 . S
H212 C216 0.929 . S
H213 C222 0.929 . S
C214 H208 0.930 . S
C214 C215 1.367 . S
C214 C222 1.378 . S
C215 C214 1.367 . S
C215 C223 1.433 1_554 S
C216 H212 0.929 . S
C216 C218 1.378 . S
C216 C220 1.350 1_556 S
C217 C220 1.463 . S
C217 C222 1.350 . S
C217 N225 1.427 1_554 S
C218 H209 0.930 . S
C218 C216 1.378 . S
C218 C219 1.367 1_556 S
C219 C218 1.367 1_554 S
C219 C221 1.433 . S
C220 C216 1.350 1_554 S
C220 C217 1.463 . S
C220 N224 1.427 . S
C221 H211 0.929 . S
C221 C219 1.433 . S
C221 N224 1.384 . S
C222 H213 0.929 . S
C222 C214 1.378 . S
C222 C217 1.350 . S
C223 H210 0.929 . S
C223 C215 1.433 1_556 S
C223 N225 1.384 . S
N224 C220 1.427 . S
N224 C221 1.384 . S
N225 C217 1.427 1_556 S
N225 C223 1.384 . S
H226 C232 0.930 . S
H227 C236 0.930 . S
H228 C241 0.929 . S
H229 C239 0.929 . S
H230 C234 0.929 . S
H231 C240 0.929 . S
C232 H226 0.930 . S
C232 C233 1.367 1_556 S
C232 C240 1.378 . S
C233 C232 1.367 1_554 S
C233 C241 1.433 . S
C234 H230 0.929 . S
C234 C236 1.378 . S
C234 C238 1.350 . S
C235 C238 1.463 . S
C235 C240 1.350 1_554 S
C235 N243 1.427 . S
C236 H227 0.930 . S
C236 C234 1.378 . S
C236 C237 1.367 . S
C237 C236 1.367 . S
C237 C239 1.433 1_554 S
C238 C234 1.350 . S
C238 C235 1.463 . S
C238 N242 1.427 1_554 S
C239 H229 0.929 . S
C239 C237 1.433 1_556 S
C239 N242 1.384 . S
C240 H231 0.929 . S
C240 C232 1.378 . S
C240 C235 1.350 1_556 S
C241 H228 0.929 . S
C241 C233 1.433 . S
C241 N243 1.384 . S
N242 C238 1.427 1_556 S
N242 C239 1.384 . S
N243 C235 1.427 . S
N243 C241 1.384 . S
H244 C250 0.930 . S
H245 C254 0.930 . S
H246 C259 0.929 . S
H247 C257 0.929 . S
H248 C252 0.929 . S
H249 C258 0.929 . S
C250 H244 0.930 . S
C250 C251 1.367 . S
C250 C258 1.378 . S
C251 C250 1.367 . S
C251 C259 1.433 1_554 S
C252 H248 0.929 . S
C252 C254 1.378 . S
C252 C256 1.350 1_556 S
C253 C256 1.463 . S
C253 C258 1.350 . S
C253 N261 1.427 1_554 S
C254 H245 0.930 . S
C254 C252 1.378 . S
C254 C255 1.367 1_556 S
C255 C254 1.367 1_554 S
C255 C257 1.433 . S
C256 C252 1.350 1_554 S
C256 C253 1.463 . S
C256 N260 1.427 . S
C257 H247 0.929 . S
C257 C255 1.433 . S
C257 N260 1.384 . S
C258 H249 0.929 . S
C258 C250 1.378 . S
C258 C253 1.350 . S
C259 H246 0.929 . S
C259 C251 1.433 1_556 S
C259 N261 1.384 . S
N260 C256 1.427 . S
N260 C257 1.384 . S
N261 C253 1.427 1_556 S
N261 C259 1.384 . S
H262 C268 0.930 . S
H263 C272 0.930 . S
H264 C277 0.929 . S
H265 C275 0.929 . S
H266 C270 0.929 . S
H267 C276 0.929 . S
C268 H262 0.930 . S
C268 C269 1.367 . S
C268 C276 1.378 . S
C269 C268 1.367 . S
C269 C277 1.433 1_554 S
C270 H266 0.929 . S
C270 C272 1.378 . S
C270 C274 1.350 1_556 S
C271 C274 1.463 . S
C271 C276 1.350 . S
C271 N279 1.427 1_554 S
C272 H263 0.930 . S
C272 C270 1.378 . S
C272 C273 1.367 1_556 S
C273 C272 1.367 1_554 S
C273 C275 1.433 . S
C274 C270 1.350 1_554 S
C274 C271 1.463 . S
C274 N278 1.427 . S
C275 H265 0.929 . S
C275 C273 1.433 . S
C275 N278 1.384 . S
C276 H267 0.929 . S
C276 C268 1.378 . S
C276 C271 1.350 . S
C277 H264 0.929 . S
C277 C269 1.433 1_556 S
C277 N279 1.384 . S
N278 C274 1.427 . S
N278 C275 1.384 . S
N279 C271 1.427 1_556 S
N279 C277 1.384 . S
H280 C286 0.930 . S
H281 C290 0.930 . S
H282 C295 0.929 . S
H283 C293 0.929 . S
H284 C288 0.929 . S
H285 C294 0.929 . S
C286 H280 0.930 . S
C286 C287 1.367 . S
C286 C294 1.378 . S
C287 C286 1.367 . S
C287 C295 1.433 . S
C288 H284 0.929 . S
C288 C290 1.378 . S
C288 C292 1.350 . S
C289 C292 1.463 . S
C289 C294 1.350 . S
C289 N297 1.427 . S
C290 H281 0.930 . S
C290 C288 1.378 . S
C290 C291 1.367 . S
C291 C290 1.367 . S
C291 C293 1.433 . S
C292 C288 1.350 . S
C292 C289 1.463 . S
C292 N296 1.427 . S
C293 H283 0.929 . S
C293 C291 1.433 . S
C293 N296 1.384 . S
C294 H285 0.929 . S
C294 C286 1.378 . S
C294 C289 1.350 . S
C295 H282 0.929 . S
C295 C287 1.433 . S
C295 N297 1.384 . S
N296 C292 1.427 . S
N296 C293 1.384 . S
N297 C289 1.427 . S
N297 C295 1.384 . S
H298 C304 0.930 . S
H299 C308 0.930 . S
H300 C313 0.929 . S
H301 C311 0.929 . S
H302 C306 0.929 . S
H303 C312 0.929 . S
C304 H298 0.930 . S
C304 C305 1.367 . S
C304 C312 1.378 . S
C305 C304 1.367 . S
C305 C313 1.433 . S
C306 H302 0.929 . S
C306 C308 1.378 . S
C306 C310 1.350 . S
C307 C310 1.463 . S
C307 C312 1.350 . S
C307 N315 1.427 . S
C308 H299 0.930 . S
C308 C306 1.378 . S
C308 C309 1.367 . S
C309 C308 1.367 . S
C309 C311 1.433 . S
C310 C306 1.350 . S
C310 C307 1.463 . S
C310 N314 1.427 . S
C311 H301 0.929 . S
C311 C309 1.433 . S
C311 N314 1.384 . S
C312 H303 0.929 . S
C312 C304 1.378 . S
C312 C307 1.350 . S
C313 H300 0.929 . S
C313 C305 1.433 . S
C313 N315 1.384 . S
N314 C310 1.427 . S
N314 C311 1.384 . S
N315 C307 1.427 . S
N315 C313 1.384 . S
H316 C322 0.930 . S
H317 C326 0.930 . S
H318 C331 0.929 . S
H319 C329 0.929 . S
H320 C324 0.929 . S
H321 C330 0.929 . S
C322 H316 0.930 . S
C322 C323 1.367 . S
C322 C330 1.378 . S
C323 C322 1.367 . S
C323 C331 1.433 . S
C324 H320 0.929 . S
C324 C326 1.378 . S
C324 C328 1.350 . S
C325 C328 1.463 . S
C325 C330 1.350 . S
C325 N333 1.427 . S
C326 H317 0.930 . S
C326 C324 1.378 . S
C326 C327 1.367 . S
C327 C326 1.367 . S
C327 C329 1.433 . S
C328 C324 1.350 . S
C328 C325 1.463 . S
C328 N332 1.427 . S
C329 H319 0.929 . S
C329 C327 1.433 . S
C329 N332 1.384 . S
C330 H321 0.929 . S
C330 C322 1.378 . S
C330 C325 1.350 . S
C331 H318 0.929 . S
C331 C323 1.433 . S
C331 N333 1.384 . S
N332 C328 1.427 . S
N332 C329 1.384 . S
N333 C325 1.427 . S
N333 C331 1.384 . S
H334 C340 0.930 . S
H335 C344 0.930 . S
H336 C349 0.929 . S
H337 C347 0.929 . S
H338 C342 0.929 . S
H339 C348 0.929 . S
C340 H334 0.930 . S
C340 C341 1.367 . S
C340 C348 1.378 . S
C341 C340 1.367 . S
C341 C349 1.433 . S
C342 H338 0.929 . S
C342 C344 1.378 . S
C342 C346 1.350 . S
C343 C346 1.463 . S
C343 C348 1.350 . S
C343 N351 1.427 . S
C344 H335 0.930 . S
C344 C342 1.378 . S
C344 C345 1.367 . S
C345 C344 1.367 . S
C345 C347 1.433 . S
C346 C342 1.350 . S
C346 C343 1.463 . S
C346 N350 1.427 . S
C347 H337 0.929 . S
C347 C345 1.433 . S
C347 N350 1.384 . S
C348 H339 0.929 . S
C348 C340 1.378 . S
C348 C343 1.350 . S
C349 H336 0.929 . S
C349 C341 1.433 . S
C349 N351 1.384 . S
N350 C346 1.427 . S
N350 C347 1.384 . S
N351 C343 1.427 . S
N351 C349 1.384 . S
H352 C358 0.930 . S
H353 C362 0.930 . S
H354 C367 0.929 . S
H355 C365 0.929 . S
H356 C360 0.929 . S
H357 C366 0.929 . S
C358 H352 0.930 . S
C358 C359 1.367 . S
C358 C366 1.378 . S
C359 C358 1.367 . S
C359 C367 1.433 . S
C360 H356 0.929 . S
C360 C362 1.378 . S
C360 C364 1.350 . S
C361 C364 1.463 . S
C361 C366 1.350 . S
C361 N369 1.427 . S
C362 H353 0.930 . S
C362 C360 1.378 . S
C362 C363 1.367 . S
C363 C362 1.367 . S
C363 C365 1.433 . S
C364 C360 1.350 . S
C364 C361 1.463 . S
C364 N368 1.427 . S
C365 H355 0.929 . S
C365 C363 1.433 . S
C365 N368 1.384 . S
C366 H357 0.929 . S
C366 C358 1.378 . S
C366 C361 1.350 . S
C367 H354 0.929 . S
C367 C359 1.433 . S
C367 N369 1.384 . S
N368 C364 1.427 . S
N368 C365 1.384 . S
N369 C361 1.427 . S
N369 C367 1.384 . S
H370 C376 0.930 . S
H371 C380 0.930 . S
H372 C385 0.929 . S
H373 C383 0.929 . S
H374 C378 0.929 . S
H375 C384 0.929 . S
C376 H370 0.930 . S
C376 C377 1.367 . S
C376 C384 1.378 . S
C377 C376 1.367 . S
C377 C385 1.433 . S
C378 H374 0.929 . S
C378 C380 1.378 . S
C378 C382 1.350 . S
C379 C382 1.463 . S
C379 C384 1.350 . S
C379 N387 1.427 . S
C380 H371 0.930 . S
C380 C378 1.378 . S
C380 C381 1.367 . S
C381 C380 1.367 . S
C381 C383 1.433 . S
C382 C378 1.350 . S
C382 C379 1.463 . S
C382 N386 1.427 . S
C383 H373 0.929 . S
C383 C381 1.433 . S
C383 N386 1.384 . S
C384 H375 0.929 . S
C384 C376 1.378 . S
C384 C379 1.350 . S
C385 H372 0.929 . S
C385 C377 1.433 . S
C385 N387 1.384 . S
N386 C382 1.427 . S
N386 C383 1.384 . S
N387 C379 1.427 . S
N387 C385 1.384 . S
H388 C394 0.930 . S
H389 C398 0.930 . S
H390 C403 0.929 . S
H391 C401 0.929 . S
H392 C396 0.929 . S
H393 C402 0.929 . S
C394 H388 0.930 . S
C394 C395 1.367 . S
C394 C402 1.378 . S
C395 C394 1.367 . S
C395 C403 1.433 . S
C396 H392 0.929 . S
C396 C398 1.378 . S
C396 C400 1.350 . S
C397 C400 1.463 . S
C397 C402 1.350 . S
C397 N405 1.427 . S
C398 H389 0.930 . S
C398 C396 1.378 . S
C398 C399 1.367 . S
C399 C398 1.367 . S
C399 C401 1.433 . S
C400 C396 1.350 . S
C400 C397 1.463 . S
C400 N404 1.427 . S
C401 H391 0.929 . S
C401 C399 1.433 . S
C401 N404 1.384 . S
C402 H393 0.929 . S
C402 C394 1.378 . S
C402 C397 1.350 . S
C403 H390 0.929 . S
C403 C395 1.433 . S
C403 N405 1.384 . S
N404 C400 1.427 . S
N404 C401 1.384 . S
N405 C397 1.427 . S
N405 C403 1.384 . S
H406 C412 0.930 1_545 S
H407 C416 0.930 . S
H408 C421 0.929 . S
H409 C419 0.929 . S
H410 C414 0.929 . S
H411 C420 0.929 . S
C412 H406 0.930 1_565 S
C412 C413 1.367 . S
C412 C420 1.378 . S
C413 C412 1.367 . S
C413 C421 1.433 . S
C414 H410 0.929 . S
C414 C416 1.378 . S
C414 C418 1.350 . S
C415 C418 1.463 . S
C415 C420 1.350 . S
C415 N423 1.427 . S
C416 H407 0.930 . S
C416 C414 1.378 . S
C416 C417 1.367 . S
C417 C416 1.367 . S
C417 C419 1.433 . S
C418 C414 1.350 . S
C418 C415 1.463 . S
C418 N422 1.427 . S
C419 H409 0.929 . S
C419 C417 1.433 . S
C419 N422 1.384 . S
C420 H411 0.929 . S
C420 C412 1.378 . S
C420 C415 1.350 . S
C421 H408 0.929 . S
C421 C413 1.433 . S
C421 N423 1.384 . S
N422 C418 1.427 . S
N422 C419 1.384 . S
N423 C415 1.427 . S
N423 C421 1.384 . S
H424 C430 0.930 . S
H425 C434 0.930 . S
H426 C439 0.929 . S
H427 C437 0.929 . S
H428 C432 0.929 . S
H429 C438 0.929 . S
C430 H424 0.930 . S
C430 C431 1.367 . S
C430 C438 1.378 . S
C431 C430 1.367 . S
C431 C439 1.433 . S
C432 H428 0.929 . S
C432 C434 1.378 . S
C432 C436 1.350 . S
C433 C436 1.463 . S
C433 C438 1.350 . S
C433 N441 1.427 . S
C434 H425 0.930 . S
C434 C432 1.378 . S
C434 C435 1.367 . S
C435 C434 1.367 . S
C435 C437 1.433 . S
C436 C432 1.350 . S
C436 C433 1.463 . S
C436 N440 1.427 . S
C437 H427 0.929 . S
C437 C435 1.433 . S
C437 N440 1.384 . S
C438 H429 0.929 . S
C438 C430 1.378 . S
C438 C433 1.350 . S
C439 H426 0.929 . S
C439 C431 1.433 . S
C439 N441 1.384 . S
N440 C436 1.427 . S
N440 C437 1.384 . S
N441 C433 1.427 . S
N441 C439 1.384 . S
H442 C448 0.930 1_655 S
H443 C452 0.930 . S
H444 C457 0.929 . S
H445 C455 0.929 . S
H446 C450 0.929 . S
H447 C456 0.929 . S
C448 H442 0.930 1_455 S
C448 C449 1.367 . S
C448 C456 1.378 . S
C449 C448 1.367 . S
C449 C457 1.433 . S
C450 H446 0.929 . S
C450 C452 1.378 . S
C450 C454 1.350 . S
C451 C454 1.463 . S
C451 C456 1.350 . S
C451 N459 1.427 . S
C452 H443 0.930 . S
C452 C450 1.378 . S
C452 C453 1.367 . S
C453 C452 1.367 . S
C453 C455 1.433 . S
C454 C450 1.350 . S
C454 C451 1.463 . S
C454 N458 1.427 . S
C455 H445 0.929 . S
C455 C453 1.433 . S
C455 N458 1.384 . S
C456 H447 0.929 . S
C456 C448 1.378 . S
C456 C451 1.350 . S
C457 H444 0.929 . S
C457 C449 1.433 . S
C457 N459 1.384 . S
N458 C454 1.427 . S
N458 C455 1.384 . S
N459 C451 1.427 . S
N459 C457 1.384 . S
H460 C466 0.930 . S
H461 C470 0.930 . S
H462 C475 0.929 1_565 S
H463 C473 0.929 . S
H464 C468 0.929 . S
H465 C474 0.929 . S
C466 H460 0.930 . S
C466 C467 1.367 . S
C466 C474 1.378 . S
C467 C466 1.367 . S
C467 C475 1.433 . S
C468 H464 0.929 . S
C468 C470 1.378 . S
C468 C472 1.350 . S
C469 C472 1.463 . S
C469 C474 1.350 . S
C469 N477 1.427 . S
C470 H461 0.930 . S
C470 C468 1.378 . S
C470 C471 1.367 . S
C471 C470 1.367 . S
C471 C473 1.433 . S
C472 C468 1.350 . S
C472 C469 1.463 . S
C472 N476 1.427 . S
C473 H463 0.929 . S
C473 C471 1.433 . S
C473 N476 1.384 . S
C474 H465 0.929 . S
C474 C466 1.378 . S
C474 C469 1.350 . S
C475 H462 0.929 1_545 S
C475 C467 1.433 . S
C475 N477 1.384 . S
N476 C472 1.427 . S
N476 C473 1.384 . S
N477 C469 1.427 . S
N477 C475 1.384 . S
H478 C484 0.930 . S
H479 C488 0.930 . S
H480 C493 0.929 . S
H481 C491 0.929 . S
H482 C486 0.929 . S
H483 C492 0.929 . S
C484 H478 0.930 . S
C484 C485 1.367 . S
C484 C492 1.378 . S
C485 C484 1.367 . S
C485 C493 1.433 . S
C486 H482 0.929 . S
C486 C488 1.378 . S
C486 C490 1.350 . S
C487 C490 1.463 . S
C487 C492 1.350 . S
C487 N495 1.427 . S
C488 H479 0.930 . S
C488 C486 1.378 . S
C488 C489 1.367 . S
C489 C488 1.367 . S
C489 C491 1.433 . S
C490 C486 1.350 . S
C490 C487 1.463 . S
C490 N494 1.427 . S
C491 H481 0.929 . S
C491 C489 1.433 . S
C491 N494 1.384 . S
C492 H483 0.929 . S
C492 C484 1.378 . S
C492 C487 1.350 . S
C493 H480 0.929 . S
C493 C485 1.433 . S
C493 N495 1.384 . S
N494 C490 1.427 . S
N494 C491 1.384 . S
N495 C487 1.427 . S
N495 C493 1.384 . S
H496 C502 0.930 . S
H497 C506 0.930 . S
H498 C511 0.929 . S
H499 C509 0.929 . S
H500 C504 0.929 . S
H501 C510 0.929 . S
C502 H496 0.930 . S
C502 C503 1.367 . S
C502 C510 1.378 . S
C503 C502 1.367 . S
C503 C511 1.433 . S
C504 H500 0.929 . S
C504 C506 1.378 . S
C504 C508 1.350 . S
C505 C508 1.463 . S
C505 C510 1.350 . S
C505 N513 1.427 . S
C506 H497 0.930 . S
C506 C504 1.378 . S
C506 C507 1.367 . S
C507 C506 1.367 . S
C507 C509 1.433 . S
C508 C504 1.350 . S
C508 C505 1.463 . S
C508 N512 1.427 . S
C509 H499 0.929 . S
C509 C507 1.433 . S
C509 N512 1.384 . S
C510 H501 0.929 . S
C510 C502 1.378 . S
C510 C505 1.350 . S
C511 H498 0.929 . S
C511 C503 1.433 . S
C511 N513 1.384 . S
N512 C508 1.427 . S
N512 C509 1.384 . S
N513 C505 1.427 . S
N513 C511 1.384 . S
H514 C520 0.930 . S
H515 C524 0.930 . S
H516 C529 0.929 . S
H517 C527 0.929 . S
H518 C522 0.929 . S
H519 C528 0.929 . S
C520 H514 0.930 . S
C520 C521 1.367 . S
C520 C528 1.378 . S
C521 C520 1.367 . S
C521 C529 1.433 . S
C522 H518 0.929 . S
C522 C524 1.378 . S
C522 C526 1.350 . S
C523 C526 1.463 . S
C523 C528 1.350 . S
C523 N531 1.427 . S
C524 H515 0.930 . S
C524 C522 1.378 . S
C524 C525 1.367 . S
C525 C524 1.367 . S
C525 C527 1.433 . S
C526 C522 1.350 . S
C526 C523 1.463 . S
C526 N530 1.427 . S
C527 H517 0.929 . S
C527 C525 1.433 . S
C527 N530 1.384 . S
C528 H519 0.929 . S
C528 C520 1.378 . S
C528 C523 1.350 . S
C529 H516 0.929 . S
C529 C521 1.433 . S
C529 N531 1.384 . S
N530 C526 1.427 . S
N530 C527 1.384 . S
N531 C523 1.427 . S
N531 C529 1.384 . S
H532 C538 0.930 . S
H533 C542 0.930 . S
H534 C547 0.929 . S
H535 C545 0.929 . S
H536 C540 0.929 . S
H537 C546 0.929 . S
C538 H532 0.930 . S
C538 C539 1.367 . S
C538 C546 1.378 . S
C539 C538 1.367 . S
C539 C547 1.433 . S
C540 H536 0.929 . S
C540 C542 1.378 . S
C540 C544 1.350 . S
C541 C544 1.463 . S
C541 C546 1.350 . S
C541 N549 1.427 . S
C542 H533 0.930 . S
C542 C540 1.378 . S
C542 C543 1.367 . S
C543 C542 1.367 . S
C543 C545 1.433 . S
C544 C540 1.350 . S
C544 C541 1.463 . S
C544 N548 1.427 . S
C545 H535 0.929 . S
C545 C543 1.433 . S
C545 N548 1.384 . S
C546 H537 0.929 . S
C546 C538 1.378 . S
C546 C541 1.350 . S
C547 H534 0.929 . S
C547 C539 1.433 . S
C547 N549 1.384 . S
N548 C544 1.427 . S
N548 C545 1.384 . S
N549 C541 1.427 . S
N549 C547 1.384 . S
H550 C556 0.930 . S
H551 C560 0.930 . S
H552 C565 0.929 . S
H553 C563 0.929 . S
H554 C558 0.929 . S
H555 C564 0.929 . S
C556 H550 0.930 . S
C556 C557 1.367 . S
C556 C564 1.378 . S
C557 C556 1.367 . S
C557 C565 1.433 . S
C558 H554 0.929 . S
C558 C560 1.378 . S
C558 C562 1.350 . S
C559 C562 1.463 . S
C559 C564 1.350 . S
C559 N567 1.427 . S
C560 H551 0.930 . S
C560 C558 1.378 . S
C560 C561 1.367 . S
C561 C560 1.367 . S
C561 C563 1.433 . S
C562 C558 1.350 . S
C562 C559 1.463 . S
C562 N566 1.427 . S
C563 H553 0.929 . S
C563 C561 1.433 . S
C563 N566 1.384 . S
C564 H555 0.929 . S
C564 C556 1.378 . S
C564 C559 1.350 . S
C565 H552 0.929 . S
C565 C557 1.433 . S
C565 N567 1.384 . S
N566 C562 1.427 . S
N566 C563 1.384 . S
N567 C559 1.427 . S
N567 C565 1.384 . S
H568 C574 0.930 . S
H569 C578 0.930 . S
H570 C583 0.929 . S
H571 C581 0.929 . S
H572 C576 0.929 . S
H573 C582 0.929 . S
C574 H568 0.930 . S
C574 C575 1.367 . S
C574 C582 1.378 . S
C575 C574 1.367 . S
C575 C583 1.433 . S
C576 H572 0.929 . S
C576 C578 1.378 . S
C576 C580 1.350 . S
C577 C580 1.463 . S
C577 C582 1.350 . S
C577 N585 1.427 . S
C578 H569 0.930 . S
C578 C576 1.378 . S
C578 C579 1.367 . S
C579 C578 1.367 . S
C579 C581 1.433 . S
C580 C576 1.350 . S
C580 C577 1.463 . S
C580 N584 1.427 . S
C581 H571 0.929 . S
C581 C579 1.433 . S
C581 N584 1.384 . S
C582 H573 0.929 . S
C582 C574 1.378 . S
C582 C577 1.350 . S
C583 H570 0.929 . S
C583 C575 1.433 . S
C583 N585 1.384 . S
N584 C580 1.427 . S
N584 C581 1.384 . S
N585 C577 1.427 . S
N585 C583 1.384 . S
H586 C592 0.930 . S
H587 C596 0.930 . S
H588 C601 0.929 . S
H589 C599 0.929 . S
H590 C594 0.929 . S
H591 C600 0.929 . S
C592 H586 0.930 . S
C592 C593 1.367 . S
C592 C600 1.378 . S
C593 C592 1.367 . S
C593 C601 1.433 . S
C594 H590 0.929 . S
C594 C596 1.378 . S
C594 C598 1.350 . S
C595 C598 1.463 . S
C595 C600 1.350 . S
C595 N603 1.427 . S
C596 H587 0.930 . S
C596 C594 1.378 . S
C596 C597 1.367 . S
C597 C596 1.367 . S
C597 C599 1.433 . S
C598 C594 1.350 . S
C598 C595 1.463 . S
C598 N602 1.427 . S
C599 H589 0.929 . S
C599 C597 1.433 . S
C599 N602 1.384 . S
C600 H591 0.929 . S
C600 C592 1.378 . S
C600 C595 1.350 . S
C601 H588 0.929 . S
C601 C593 1.433 . S
C601 N603 1.384 . S
N602 C598 1.427 . S
N602 C599 1.384 . S
N603 C595 1.427 . S
N603 C601 1.384 . S
H604 C610 0.930 . S
H605 C614 0.930 . S
H606 C619 0.929 . S
H607 C617 0.929 . S
H608 C612 0.929 . S
H609 C618 0.929 . S
C610 H604 0.930 . S
C610 C611 1.367 . S
C610 C618 1.378 . S
C611 C610 1.367 . S
C611 C619 1.433 . S
C612 H608 0.929 . S
C612 C614 1.378 . S
C612 C616 1.350 . S
C613 C616 1.463 . S
C613 C618 1.350 . S
C613 N621 1.427 . S
C614 H605 0.930 . S
C614 C612 1.378 . S
C614 C615 1.367 . S
C615 C614 1.367 . S
C615 C617 1.433 . S
C616 C612 1.350 . S
C616 C613 1.463 . S
C616 N620 1.427 . S
C617 H607 0.929 . S
C617 C615 1.433 . S
C617 N620 1.384 . S
C618 H609 0.929 . S
C618 C610 1.378 . S
C618 C613 1.350 . S
C619 H606 0.929 . S
C619 C611 1.433 . S
C619 N621 1.384 . S
N620 C616 1.427 . S
N620 C617 1.384 . S
N621 C613 1.427 . S
N621 C619 1.384 . S
H622 C628 0.930 . S
H623 C632 0.930 . S
H624 C637 0.929 . S
H625 C635 0.929 . S
H626 C630 0.929 . S
H627 C636 0.929 . S
C628 H622 0.930 . S
C628 C629 1.367 . S
C628 C636 1.378 . S
C629 C628 1.367 . S
C629 C637 1.433 . S
C630 H626 0.929 . S
C630 C632 1.378 . S
C630 C634 1.350 . S
C631 C634 1.463 . S
C631 C636 1.350 . S
C631 N639 1.427 . S
C632 H623 0.930 . S
C632 C630 1.378 . S
C632 C633 1.367 . S
C633 C632 1.367 . S
C633 C635 1.433 . S
C634 C630 1.350 . S
C634 C631 1.463 . S
C634 N638 1.427 . S
C635 H625 0.929 . S
C635 C633 1.433 . S
C635 N638 1.384 . S
C636 H627 0.929 . S
C636 C628 1.378 . S
C636 C631 1.350 . S
C637 H624 0.929 . S
C637 C629 1.433 . S
C637 N639 1.384 . S
N638 C634 1.427 . S
N638 C635 1.384 . S
N639 C631 1.427 . S
N639 C637 1.384 . S
C215 C45 1.561 . S
C219 C108 1.491 . S
C233 C30 1.564 . S
C237 C121 1.488 . S
C251 C39 1.560 . S
C255 C134 1.550 1_554 S
C273 C147 1.506 . S
C269 C34 1.565 . S
C287 C97 1.564 . S
C291 C160 1.490 . S
C309 C173 1.492 . S
C305 C82 1.565 . S
C327 C186 1.545 . S
C323 C91 1.565 . S
C345 C199 1.549 . S
C341 C86 1.560 . S
C363 C191 1.528 . S
C359 C26 1.489 . S
C381 C204 1.552 . S
C377 C36 1.513 . S
C399 C164 1.518 . S
C395 C32 1.470 . S
C417 C177 1.498 . S
C413 C42 1.459 . S
C431 C18 1.599 . S
C435 C178 1.654 . S
C453 C190 1.629 . S
C449 C50 1.559 . S
C467 C4 1.547 . S
C471 C203 1.608 . S
C485 C48 1.588 . S
C489 C165 1.635 . S
C507 C139 1.550 . S
C503 C78 1.512 . S
C521 C88 1.415 . S
C525 C151 1.461 . S
C543 C112 1.549 . S
C539 C84 1.502 . S
C561 C125 1.513 . S
C557 C94 1.474 . S
C579 C126 1.645 . S
C575 C70 1.596 . S
C597 C138 1.610 . S
C593 C102 1.545 . S
C611 C56 1.651 . S
C615 C152 1.696 . S
C629 C100 1.560 . S
C633 C113 1.606 . S
