# Generated by pormake.
# Topology anh, (6,3)-cn, num edge types: 1
# Building blocks:
#     Node 0, Type 0, BuildingBlock: VOLQOD_clean_sbu_1, # of connection points: 6
#     Node 1, Type 0, BuildingBlock: VOLQOD_clean_sbu_1, # of connection points: 6
#     Node 2, Type 0, BuildingBlock: VOLQOD_clean_sbu_1, # of connection points: 6
#     Node 3, Type 1, BuildingBlock: QEWDON_clean_linker_0, # of connection points: 3
#     Node 4, Type 1, BuildingBlock: QEWDON_clean_linker_0, # of connection points: 3
#     Node 5, Type 1, BuildingBlock: QEWDON_clean_linker_0, # of connection points: 3
#     Node 6, Type 1, BuildingBlock: QEWDON_clean_linker_0, # of connection points: 3
#     Node 7, Type 1, BuildingBlock: QEWDON_clean_linker_0, # of connection points: 3
#     Node 8, Type 1, BuildingBlock: QEWDON_clean_linker_0, # of connection points: 3
#     Edge 9, Type (0, 1), BuildingBlock: TEMPAE_clean_linker_10, # of connection points: 2
#     Edge 10, Type (0, 1), BuildingBlock: TEMPAE_clean_linker_10, # of connection points: 2
#     Edge 11, Type (0, 1), BuildingBlock: TEMPAE_clean_linker_10, # of connection points: 2
#     Edge 12, Type (0, 1), BuildingBlock: TEMPAE_clean_linker_10, # of connection points: 2
#     Edge 13, Type (0, 1), BuildingBlock: TEMPAE_clean_linker_10, # of connection points: 2
#     Edge 14, Type (0, 1), BuildingBlock: TEMPAE_clean_linker_10, # of connection points: 2
#     Edge 15, Type (0, 1), BuildingBlock: TEMPAE_clean_linker_10, # of connection points: 2
#     Edge 16, Type (0, 1), BuildingBlock: TEMPAE_clean_linker_10, # of connection points: 2
#     Edge 17, Type (0, 1), BuildingBlock: TEMPAE_clean_linker_10, # of connection points: 2
#     Edge 18, Type (0, 1), BuildingBlock: TEMPAE_clean_linker_10, # of connection points: 2
#     Edge 19, Type (0, 1), BuildingBlock: TEMPAE_clean_linker_10, # of connection points: 2
#     Edge 20, Type (0, 1), BuildingBlock: TEMPAE_clean_linker_10, # of connection points: 2
#     Edge 21, Type (0, 1), BuildingBlock: TEMPAE_clean_linker_10, # of connection points: 2
#     Edge 22, Type (0, 1), BuildingBlock: TEMPAE_clean_linker_10, # of connection points: 2
#     Edge 23, Type (0, 1), BuildingBlock: TEMPAE_clean_linker_10, # of connection points: 2
#     Edge 24, Type (0, 1), BuildingBlock: TEMPAE_clean_linker_10, # of connection points: 2
#     Edge 25, Type (0, 1), BuildingBlock: TEMPAE_clean_linker_10, # of connection points: 2
#     Edge 26, Type (0, 1), BuildingBlock: TEMPAE_clean_linker_10, # of connection points: 2
# Relax obj value: 0.173
# Max RMSD: 0.224
# Mean RMSD: 0.177
data_MOF--net-anh--node1-VOLQOD_clean_sbu_1--node2-QEWDON_clean_linker_0--edge1-TEMPAE_clean_linker_10
_symmetry_space_group_name_H-M    P1
_symmetry_Int_Tables_number       1
_symmetry_cell_setting            triclinic
loop_
_symmetry_equiv_pos_as_xyz
'x, y, z'
_cell_length_a     31.32264
_cell_length_b     31.173312
_cell_length_c     56.502888
_cell_angle_alpha  94.321726
_cell_angle_beta   94.217182
_cell_angle_gamma 120.41739
loop_
_atom_site_label
_atom_site_type_symbol
_atom_site_fract_x
_atom_site_fract_y
_atom_site_fract_z
_atom_type_partial_charge
O0 O 0.06938 0.56892 0.20455 0.0
Zn1 Zn 0.07314 0.58379 0.17056 0.0
O2 O 0.07121 0.52983 0.14955 0.0
Zn3 Zn 0.01247 0.49862 0.12547 0.0
Zn4 Zn 0.0705 0.47956 0.16879 0.0
Zn5 Zn 0.1293 0.55806 0.13268 0.0
O6 O 0.02936 0.50445 0.09145 0.0
O7 O 0.11164 0.55427 0.0975 0.0
O8 O 0.01611 0.59374 0.16033 0.0
O9 O 0.97458 0.53393 0.12951 0.0
O10 O 0.96496 0.4273 0.13047 0.0
O11 O 0.00438 0.41449 0.16091 0.0
O12 O 0.12888 0.46962 0.16404 0.0
O13 O 0.13784 0.64884 0.17123 0.0
O14 O 0.16536 0.52158 0.13738 0.0
O15 O 0.17787 0.63048 0.14532 0.0
C16 C 0.07163 0.53564 0.2154 0.0
C17 C 0.07082 0.53055 0.08344 0.0
C18 C 0.96601 0.39947 0.14563 0.0
C19 C 0.97963 0.57043 0.14363 0.0
C20 C 0.16275 0.48892 0.15037 0.0
C21 C 0.17607 0.6616 0.16051 0.0
O22 O 0.07422 0.50026 0.20409 0.0
O23 O 0.55781 0.07769 0.45199 0.0
Zn24 Zn 0.53988 0.07125 0.48552 0.0
O25 O 0.58738 0.06217 0.50559 0.0
Zn26 Zn 0.6282 0.12034 0.52951 0.0
Zn27 Zn 0.62905 0.04938 0.4854 0.0
Zn28 Zn 0.55104 0.00645 0.52283 0.0
O29 O 0.62352 0.10381 0.56377 0.0
O30 O 0.55602 0.02768 0.55754 0.0
O31 O 0.5394 0.13327 0.49854 0.0
O32 O 0.60297 0.16767 0.52779 0.0
O33 O 0.6987 0.15811 0.52185 0.0
O34 O 0.69896 0.11074 0.49047 0.0
O35 O 0.62938 0.98585 0.49232 0.0
O36 O 0.47019 0.01005 0.48266 0.0
O37 O 0.57902 0.96209 0.52057 0.0
O38 O 0.47911 0.965 0.509 0.0
C39 C 0.58086 0.06131 0.44012 0.0
C40 C 0.58883 0.06599 0.57173 0.0
C41 C 0.7209 0.15084 0.50537 0.0
C42 C 0.56793 0.1685 0.5153 0.0
C43 C 0.60809 0.95661 0.50781 0.0
C44 C 0.45214 0.97079 0.49312 0.0
O45 O 0.60531 0.04369 0.45029 0.0
O46 O 0.47977 0.51799 0.79147 0.0
Zn47 Zn 0.46499 0.49944 0.82455 0.0
O48 O 0.51923 0.54788 0.84892 0.0
Zn49 Zn 0.49514 0.58019 0.87013 0.0
Zn50 Zn 0.57225 0.59795 0.83283 0.0
Zn51 Zn 0.5442 0.51476 0.86858 0.0
O52 O 0.51186 0.57866 0.9049 0.0
O53 O 0.5357 0.52273 0.90358 0.0
O54 O 0.39983 0.49526 0.82941 0.0
O55 O 0.42125 0.54698 0.86312 0.0
O56 O 0.521 0.6509 0.86382 0.0
O57 O 0.57282 0.66309 0.83687 0.0
O58 O 0.63925 0.6087 0.84556 0.0
O59 O 0.45821 0.43172 0.82472 0.0
O60 O 0.61783 0.54695 0.86795 0.0
O61 O 0.51252 0.44192 0.85546 0.0
C62 C 0.51992 0.54724 0.78319 0.0
C63 C 0.52531 0.55195 0.91545 0.0
C64 C 0.55032 0.67844 0.84979 0.0
C65 C 0.38853 0.51589 0.84616 0.0
C66 C 0.65086 0.58401 0.85892 0.0
C67 C 0.47952 0.41451 0.83775 0.0
O68 O 0.56011 0.57718 0.79704 0.0
H69 H 0.57952 0.12653 0.25825 0.0
C70 C 0.5527 0.09004 0.24847 0.0
C71 C 0.52963 0.04767 0.26062 0.0
C72 C 0.53918 0.08605 0.22381 0.0
H73 H 0.47582 0.96828 0.25664 0.0
C74 C 0.49383 0.00115 0.24749 0.0
C75 C 0.47966 0.99683 0.22285 0.0
C76 C 0.50272 0.03964 0.21113 0.0
C77 C 0.56023 0.13101 0.21146 0.0
H78 H 0.49224 0.03709 0.19213 0.0
C79 C 0.60884 0.15258 0.20525 0.0
C80 C 0.62813 0.19476 0.19285 0.0
C81 C 0.53084 0.15159 0.20527 0.0
H82 H 0.49316 0.13508 0.20983 0.0
C83 C 0.54994 0.19366 0.19318 0.0
H84 H 0.63143 0.13651 0.21002 0.0
C85 C 0.59826 0.21519 0.18699 0.0
H86 H 0.61201 0.24738 0.17728 0.0
H87 H 0.52713 0.20944 0.18846 0.0
H88 H 0.48057 0.5492 0.59407 0.0
C89 C 0.49029 0.52217 0.58739 0.0
C90 C 0.50608 0.49891 0.60345 0.0
C91 C 0.48424 0.50849 0.56255 0.0
H92 H 0.53137 0.44625 0.60604 0.0
C93 C 0.51728 0.46312 0.59407 0.0
C94 C 0.51046 0.44858 0.56932 0.0
C95 C 0.49405 0.47158 0.55369 0.0
C96 C 0.46485 0.5302 0.54554 0.0
H97 H 0.48796 0.46012 0.53455 0.0
C98 C 0.49213 0.58165 0.54334 0.0
C99 C 0.47506 0.6013 0.52581 0.0
C100 C 0.42007 0.49854 0.53037 0.0
H101 H 0.3987 0.45875 0.53175 0.0
C102 C 0.40264 0.5179 0.51324 0.0
H103 H 0.52676 0.60605 0.55503 0.0
C104 C 0.42995 0.56884 0.51087 0.0
H105 H 0.41613 0.58268 0.49706 0.0
H106 H 0.36812 0.49323 0.50157 0.0
H107 H 0.11899 0.64182 0.90749 0.0
C108 C 0.08523 0.6429 0.90337 0.0
C109 C 0.05225 0.63247 0.92059 0.0
C110 C 0.07517 0.65564 0.88109 0.0
H111 H 0.98259 0.62508 0.92827 0.0
C112 C 0.00898 0.63469 0.91536 0.0
C113 C -0.0019 0.64649 0.89312 0.0
C114 C 0.0314 0.65713 0.87616 0.0
C115 C 0.1092 0.66594 0.86255 0.0
H116 H 0.02264 0.6657 0.85887 0.0
C117 C 0.13032 0.63609 0.85827 0.0
C118 C 0.16144 0.64472 0.84029 0.0
C119 C 0.11972 0.70483 0.84858 0.0
H120 H 0.10452 0.72889 0.85163 0.0
C121 C 0.15034 0.71336 0.83061 0.0
H122 H 0.12267 0.60621 0.86901 0.0
C123 C 0.1711 0.68353 0.82643 0.0
H124 H 0.19468 0.69079 0.81236 0.0
H125 H 0.15812 0.74332 0.81993 0.0
H126 H 0.00848 0.52936 0.40029 0.0
C127 C 0.04205 0.56415 0.40788 0.0
C128 C 0.08058 0.58938 0.39381 0.0
C129 C 0.04599 0.5846 0.43155 0.0
H130 H 0.1524 0.6557 0.39293 0.0
C131 C 0.12344 0.63493 0.40389 0.0
C132 C 0.12836 0.65531 0.42764 0.0
C133 C 0.08938 0.62985 0.44132 0.0
C134 C 0.00371 0.56084 0.44573 0.0
H135 H 0.09282 0.64511 0.45971 0.0
C136 C 0.98017 0.50943 0.44823 0.0
C137 C 0.94017 0.48777 0.4619 0.0
C138 C 0.98681 0.59025 0.45695 0.0
H139 H 0.00405 0.62978 0.45513 0.0
C140 C 0.94717 0.5689 0.47039 0.0
H141 H 0.99302 0.48648 0.43968 0.0
C142 C 0.92398 0.51809 0.4729 0.0
H143 H 0.89372 0.50258 0.48374 0.0
H144 H 0.93444 0.59188 0.47897 0.0
H145 H 0.48094 0.99154 0.74025 0.0
C146 C 0.48142 0.02378 0.74926 0.0
C147 C 0.50251 0.0691 0.73932 0.0
C148 C 0.45801 0.01894 0.76996 0.0
H149 H 0.51676 0.14467 0.74293 0.0
C150 C 0.50113 0.10994 0.75075 0.0
C151 C 0.4787 0.10589 0.77177 0.0
C152 C 0.45728 0.06013 0.78123 0.0
C153 C 0.43174 0.97019 0.77927 0.0
H154 H 0.44009 0.05639 0.79751 0.0
C155 C 0.45679 0.94496 0.78518 0.0
C156 C 0.43194 0.8994 0.79484 0.0
C157 C 0.38142 0.9493 0.78276 0.0
H158 H 0.36143 0.96814 0.77824 0.0
C159 C 0.35641 0.90379 0.79197 0.0
H160 H 0.49565 0.96109 0.78253 0.0
C161 C 0.38144 0.87898 0.79805 0.0
H162 H 0.36152 0.84428 0.80571 0.0
H163 H 0.31764 0.88791 0.79461 0.0
H164 H 0.56462 0.62004 0.10824 0.0
C165 C 0.59946 0.621 0.11235 0.0
C166 C 0.62493 0.61717 0.09357 0.0
C167 C 0.6197 0.6276 0.13638 0.0
H168 H 0.68955 0.61487 0.08463 0.0
C169 C 0.67054 0.61946 0.09902 0.0
C170 C 0.69075 0.62529 0.12281 0.0
C171 C 0.6652 0.62936 0.14136 0.0
C172 C 0.59386 0.63274 0.15646 0.0
H173 H 0.68071 0.63352 0.15975 0.0
C174 C 0.5418 0.60205 0.15565 0.0
C175 C 0.51757 0.60681 0.17479 0.0
C176 C 0.62143 0.66817 0.17678 0.0
H177 H 0.66146 0.69285 0.17783 0.0
C178 C 0.59758 0.67261 0.1959 0.0
H179 H 0.52007 0.57477 0.14006 0.0
C180 C 0.54596 0.64221 0.19495 0.0
H181 H 0.52817 0.64644 0.20995 0.0
H182 H 0.61916 0.69997 0.21144 0.0
C183 C 0.2349 0.49198 0.13343 0.0
C184 C 0.20505 0.48034 0.152 0.0
C185 C 0.28344 0.50067 0.13719 0.0
C186 C 0.30232 0.49734 0.16006 0.0
C187 C 0.27007 0.47901 0.17784 0.0
C188 C 0.22153 0.47072 0.1736 0.0
C189 C 0.31626 0.51938 0.11759 0.0
C190 C 0.28842 0.47339 0.20218 0.0
C191 C 0.43585 0.52528 0.16529 0.0
C192 C 0.46244 0.57701 0.17313 0.0
C193 C 0.38339 0.49778 0.16222 0.0
C194 C 0.35724 0.52299 0.16663 0.0
C195 C 0.38407 0.57494 0.17527 0.0
C196 C 0.43629 0.60119 0.17851 0.0
C197 C 0.35617 0.44234 0.15343 0.0
C198 C 0.3577 0.60347 0.18004 0.0
H199 H 0.22184 0.4984 0.1165 0.0
H200 H 0.19842 0.46124 0.18796 0.0
H201 H 0.34282 0.56036 0.12207 0.0
H202 H 0.33851 0.501 0.11598 0.0
H203 H 0.29417 0.51259 0.09996 0.0
H204 H 0.25694 0.44856 0.21177 0.0
H205 H 0.31337 0.45799 0.20067 0.0
H206 H 0.31025 0.5108 0.21312 0.0
H207 H 0.45611 0.50642 0.16139 0.0
H208 H 0.45676 0.64125 0.18435 0.0
H209 H 0.34275 0.43603 0.13406 0.0
H210 H 0.32306 0.4214 0.16283 0.0
H211 H 0.38079 0.42658 0.15597 0.0
H212 H 0.33695 0.60285 0.1631 0.0
H213 H 0.38402 0.64321 0.18769 0.0
H214 H 0.33011 0.58534 0.19264 0.0
C215 C 0.7936 0.23798 0.51708 0.0
C216 C 0.76868 0.19413 0.50055 0.0
C217 C 0.82953 0.28377 0.51033 0.0
C218 C 0.84081 0.28578 0.48648 0.0
C219 C 0.81991 0.24076 0.47052 0.0
C220 C 0.78414 0.19535 0.47777 0.0
C221 C 0.85157 0.33075 0.52808 0.0
C222 C 0.83148 0.24112 0.44505 0.0
C223 C 0.86306 0.40506 0.46294 0.0
C224 C 0.91528 0.43394 0.46525 0.0
C225 C 0.83854 0.35607 0.46886 0.0
C226 C 0.86691 0.33527 0.47735 0.0
C227 C 0.91961 0.36328 0.47859 0.0
C228 C 0.94325 0.41242 0.47249 0.0
C229 C 0.78221 0.32736 0.46697 0.0
C230 C 0.95111 0.34235 0.4874 0.0
H231 H 0.78252 0.23733 0.53484 0.0
H232 H 0.76545 0.16169 0.46487 0.0
H233 H 0.89231 0.35467 0.52758 0.0
H234 H 0.83419 0.35285 0.52325 0.0
H235 H 0.84513 0.3221 0.54666 0.0
H236 H 0.82056 0.20305 0.43656 0.0
H237 H 0.81055 0.25469 0.43441 0.0
H238 H 0.87181 0.26695 0.44425 0.0
H239 H 0.84133 0.42132 0.45697 0.0
H240 H 0.98367 0.43474 0.4744 0.0
H241 H 0.7706 0.32049 0.48507 0.0
H242 H 0.76647 0.29027 0.45607 0.0
H243 H 0.76564 0.34782 0.45879 0.0
H244 H 0.95096 0.34137 0.50698 0.0
H245 H 0.99042 0.36539 0.48386 0.0
H246 H 0.93549 0.30328 0.47882 0.0
C247 C 0.56836 0.74726 0.82482 0.0
C248 C 0.55071 0.72487 0.84539 0.0
C249 C 0.55721 0.78262 0.81705 0.0
C250 C 0.52803 0.79594 0.83026 0.0
C251 C 0.51432 0.77714 0.85223 0.0
C252 C 0.5259 0.74186 0.85955 0.0
C253 C 0.57294 0.80227 0.79365 0.0
C254 C 0.48353 0.79074 0.86695 0.0
C255 C 0.50629 0.9009 0.81565 0.0
C256 C 0.45868 0.8737 0.8023 0.0
C257 C 0.53019 0.87635 0.82438 0.0
C258 C 0.50579 0.82347 0.81961 0.0
C259 C 0.45837 0.79601 0.80555 0.0
C260 C 0.43546 0.82149 0.79704 0.0
C261 C 0.58063 0.90675 0.83937 0.0
C262 C 0.43124 0.73952 0.79996 0.0
H263 H 0.58783 0.73465 0.81381 0.0
H264 H 0.51266 0.72527 0.87565 0.0
H265 H 0.54005 0.78343 0.77962 0.0
H266 H 0.58735 0.84315 0.79517 0.0
H267 H 0.6021 0.79518 0.78769 0.0
H268 H 0.48235 0.77904 0.88511 0.0
H269 H 0.49858 0.83175 0.86882 0.0
H270 H 0.4447 0.77184 0.85775 0.0
H271 H 0.52416 0.94124 0.81996 0.0
H272 H 0.39902 0.80044 0.78642 0.0
H273 H 0.60722 0.89677 0.83254 0.0
H274 H 0.57716 0.89795 0.85805 0.0
H275 H 0.59656 0.94776 0.83959 0.0
H276 H 0.45465 0.72822 0.79061 0.0
H277 H 0.39483 0.72389 0.78857 0.0
H278 H 0.42437 0.72232 0.81681 0.0
C279 C 0.94474 0.62419 0.1562 0.0
C280 C 0.9412 0.58462 0.14088 0.0
C281 C 0.90704 0.63604 0.15432 0.0
C282 C 0.8649 0.6075 0.13677 0.0
C283 C 0.86162 0.56825 0.12096 0.0
C284 C 0.89981 0.55737 0.12317 0.0
C285 C 0.91179 0.67836 0.17136 0.0
C286 C 0.81716 0.53694 0.10201 0.0
C287 C 0.74011 0.59444 0.14456 0.0
C288 C 0.73747 0.62481 0.12815 0.0
C289 C 0.78242 0.59015 0.14831 0.0
C290 C 0.823 0.61699 0.13536 0.0
C291 C 0.82141 0.64935 0.11951 0.0
C292 C 0.7785 0.65275 0.11603 0.0
C293 C 0.7827 0.55506 0.16528 0.0
C294 C 0.86416 0.67882 0.10554 0.0
H295 H 0.97666 0.64556 0.16988 0.0
H296 H 0.89672 0.52682 0.11119 0.0
H297 H 0.90772 0.70549 0.16122 0.0
H298 H 0.88138 0.66332 0.18283 0.0
H299 H 0.94818 0.69872 0.18309 0.0
H300 H 0.82105 0.50869 0.0907 0.0
H301 H 0.7827 0.51702 0.11062 0.0
H302 H 0.81217 0.56143 0.09026 0.0
H303 H 0.70824 0.57244 0.15378 0.0
H304 H 0.77672 0.67678 0.10357 0.0
H305 H 0.8173 0.5746 0.17825 0.0
H306 H 0.78223 0.52299 0.15504 0.0
H307 H 0.75 0.54011 0.17537 0.0
H308 H 0.89992 0.69973 0.11768 0.0
H309 H 0.85909 0.70586 0.09575 0.0
H310 H 0.86736 0.65267 0.09236 0.0
C311 C 0.37355 0.92762 0.464 0.0
C312 C 0.4002 0.92896 0.4854 0.0
C313 C 0.32704 0.88507 0.45498 0.0
C314 C 0.30663 0.84309 0.46776 0.0
C315 C 0.33214 0.84523 0.48995 0.0
C316 C 0.37863 0.88805 0.49847 0.0
C317 C 0.30093 0.88412 0.43123 0.0
C318 C 0.31138 0.80143 0.50423 0.0
C319 C 0.17022 0.74028 0.45215 0.0
C320 C 0.17388 0.70368 0.4379 0.0
C321 C 0.21304 0.78607 0.46187 0.0
C322 C 0.26059 0.79552 0.45713 0.0
C323 C 0.2645 0.75888 0.44264 0.0
C324 C 0.22116 0.71339 0.43329 0.0
C325 C 0.20746 0.8242 0.47729 0.0
C326 C 0.31457 0.76754 0.43719 0.0
H327 H 0.3899 0.95899 0.45377 0.0
H328 H 0.3987 0.88885 0.51513 0.0
H329 H 0.30054 0.85609 0.41774 0.0
H330 H 0.26151 0.87248 0.43275 0.0
H331 H 0.3195 0.92121 0.42455 0.0
H332 H 0.33365 0.81067 0.52206 0.0
H333 H 0.27223 0.78913 0.50681 0.0
H334 H 0.31107 0.76921 0.49425 0.0
H335 H 0.13377 0.73336 0.45551 0.0
H336 H 0.22435 0.68506 0.42256 0.0
H337 H 0.22395 0.86006 0.46954 0.0
H338 H 0.22814 0.83216 0.49541 0.0
H339 H 0.16779 0.81126 0.47909 0.0
H340 H 0.33447 0.80237 0.42876 0.0
H341 H 0.31105 0.73587 0.42505 0.0
H342 H 0.3381 0.77268 0.45406 0.0
C343 C 0.44948 0.34028 0.80688 0.0
C344 C 0.47037 0.36367 0.8304 0.0
C345 C 0.44787 0.29603 0.79834 0.0
C346 C 0.46677 0.27417 0.81382 0.0
C347 C 0.48514 0.29587 0.83797 0.0
C348 C 0.48712 0.34067 0.84594 0.0
C349 C 0.42848 0.27426 0.77238 0.0
C350 C 0.50459 0.27295 0.85512 0.0
C351 C 0.43308 0.14091 0.793 0.0
C352 C 0.47627 0.14888 0.78341 0.0
C353 C 0.42994 0.18122 0.8036 0.0
C354 C 0.47055 0.23073 0.80419 0.0
C355 C 0.51436 0.23908 0.79472 0.0
C356 C 0.51685 0.19804 0.78464 0.0
C357 C 0.3829 0.17088 0.81381 0.0
C358 C 0.55833 0.29145 0.79486 0.0
H359 H 0.43666 0.35788 0.79471 0.0
H360 H 0.50299 0.35834 0.86418 0.0
H361 H 0.45941 0.27698 0.76291 0.0
H362 H 0.39949 0.23392 0.7709 0.0
H363 H 0.41234 0.294 0.7631 0.0
H364 H 0.51256 0.29129 0.87385 0.0
H365 H 0.4772 0.2323 0.85451 0.0
H366 H 0.53953 0.27661 0.84974 0.0
H367 H 0.40121 0.10318 0.79183 0.0
H368 H 0.55069 0.20451 0.7777 0.0
H369 H 0.36416 0.1869 0.8034 0.0
H370 H 0.39217 0.18934 0.83256 0.0
H371 H 0.35617 0.1301 0.81349 0.0
H372 H 0.54657 0.31362 0.78467 0.0
H373 H 0.5897 0.29147 0.78686 0.0
H374 H 0.5721 0.31084 0.81346 0.0
C375 C 0.61164 0.89621 0.5326 0.0
C376 C 0.61178 0.91176 0.50996 0.0
C377 C 0.5991 0.84695 0.53501 0.0
C378 C 0.58578 0.8123 0.51421 0.0
C379 C 0.59095 0.82925 0.49141 0.0
C380 C 0.60418 0.87913 0.48954 0.0
C381 C 0.59486 0.83082 0.55969 0.0
C382 C 0.57746 0.79356 0.46883 0.0
C383 C 0.55608 0.68049 0.52308 0.0
C384 C 0.50405 0.65537 0.52284 0.0
C385 C 0.58337 0.73139 0.51976 0.0
C386 C 0.55798 0.75765 0.5162 0.0
C387 C 0.50546 0.73233 0.51584 0.0
C388 C 0.47924 0.68165 0.5192 0.0
C389 C 0.63927 0.75715 0.52022 0.0
C390 C 0.47687 0.759 0.51227 0.0
H391 H 0.61782 0.92165 0.54841 0.0
H392 H 0.60395 0.89106 0.47202 0.0
H393 H 0.55488 0.8091 0.56229 0.0
H394 H 0.61041 0.80611 0.5618 0.0
H395 H 0.61449 0.86347 0.57397 0.0
H396 H 0.59254 0.81387 0.45331 0.0
H397 H 0.59161 0.76774 0.47114 0.0
H398 H 0.5362 0.77033 0.46467 0.0
H399 H 0.57538 0.66018 0.52557 0.0
H400 H 0.43917 0.66266 0.51931 0.0
H401 H 0.65804 0.78819 0.53526 0.0
H402 H 0.65032 0.77402 0.50348 0.0
H403 H 0.65316 0.73099 0.52228 0.0
H404 H 0.48952 0.78987 0.52713 0.0
H405 H 0.43593 0.73342 0.51158 0.0
H406 H 0.48431 0.77604 0.49538 0.0
C407 C 0.71583 0.56781 0.87672 0.0
C408 C 0.70365 0.59794 0.86399 0.0
C409 C 0.7653 0.57944 0.88131 0.0
C410 C 0.80365 0.62243 0.87309 0.0
C411 C 0.7919 0.6535 0.86055 0.0
C412 C 0.74192 0.64079 0.85606 0.0
C413 C 0.7764 0.54524 0.89465 0.0
C414 C 0.83205 0.6998 0.85168 0.0
C415 C 0.93366 0.66703 0.90346 0.0
C416 C 0.95035 0.64454 0.8871 0.0
C417 C 0.8867 0.66207 0.89865 0.0
C418 C 0.85576 0.63358 0.87709 0.0
C419 C 0.87313 0.61216 0.86019 0.0
C420 C 0.92032 0.61798 0.86539 0.0
C421 C 0.8695 0.68576 0.917 0.0
C422 C 0.84098 0.58115 0.8371 0.0
H423 H 0.68659 0.53461 0.88292 0.0
H424 H 0.73288 0.66439 0.84631 0.0
H425 H 0.79374 0.52942 0.8832 0.0
H426 H 0.80354 0.56682 0.9109 0.0
H427 H 0.74233 0.51371 0.90015 0.0
H428 H 0.81695 0.72104 0.84301 0.0
H429 H 0.86101 0.72495 0.86678 0.0
H430 H 0.85077 0.68904 0.83857 0.0
H431 H 0.95715 0.68803 0.92014 0.0
H432 H 0.93295 0.60009 0.85285 0.0
H433 H 0.83786 0.65598 0.92477 0.0
H434 H 0.85581 0.70818 0.90842 0.0
H435 H 0.89971 0.71043 0.93177 0.0
H436 H 0.80788 0.54648 0.84111 0.0
H437 H 0.86145 0.57029 0.8251 0.0
H438 H 0.82708 0.60222 0.8274 0.0
C439 C 0.22419 0.74294 0.18754 0.0
C440 C 0.22031 0.7127 0.16685 0.0
C441 C 0.26739 0.78987 0.19485 0.0
C442 C 0.30745 0.8073 0.18097 0.0
C443 C 0.30325 0.77772 0.15967 0.0
C444 C 0.25982 0.73057 0.15294 0.0
C445 C 0.27068 0.82017 0.21781 0.0
C446 C 0.34495 0.7955 0.14425 0.0
C447 C 0.40126 0.94697 0.19386 0.0
C448 C 0.43843 0.94826 0.2099 0.0
C449 C 0.35943 0.9012 0.18339 0.0
C450 C 0.35434 0.85572 0.18938 0.0
C451 C 0.39257 0.85668 0.20483 0.0
C452 C 0.43431 0.90294 0.21477 0.0
C453 C 0.31969 0.90161 0.16674 0.0
C454 C 0.38841 0.80892 0.21168 0.0
H455 H 0.19396 0.72938 0.19845 0.0
H456 H 0.25701 0.70755 0.13685 0.0
H457 H 0.30206 0.82578 0.23074 0.0
H458 H 0.27849 0.85785 0.2143 0.0
H459 H 0.23582 0.80171 0.22627 0.0
H460 H 0.3346 0.76943 0.12749 0.0
H461 H 0.35533 0.83318 0.1395 0.0
H462 H 0.37859 0.79912 0.15436 0.0
H463 H 0.40382 0.98176 0.19017 0.0
H464 H 0.46334 0.90363 0.22678 0.0
H465 H 0.28531 0.88843 0.17544 0.0
H466 H 0.30986 0.87551 0.15008 0.0
H467 H 0.33173 0.93965 0.1619 0.0
H468 H 0.35621 0.7897 0.22186 0.0
H469 H 0.4226 0.81602 0.22286 0.0
H470 H 0.38137 0.78284 0.19542 0.0
C471 C 0.51792 0.2104 0.51019 0.0
C472 C 0.56005 0.21097 0.52097 0.0
C473 C 0.50917 0.24947 0.51654 0.0
C474 C 0.54345 0.29002 0.53399 0.0
C475 C 0.58665 0.29145 0.54445 0.0
C476 C 0.59438 0.25194 0.53785 0.0
C477 C 0.46268 0.24678 0.50504 0.0
C478 C 0.62419 0.33419 0.56306 0.0
C479 C 0.54397 0.41243 0.54 0.0
C480 C 0.51839 0.40779 0.5599 0.0
C481 C 0.55165 0.37397 0.53104 0.0
C482 C 0.53321 0.3299 0.54226 0.0
C483 C 0.50678 0.32475 0.56215 0.0
C484 C 0.49971 0.36377 0.57072 0.0
C485 C 0.58023 0.38084 0.50988 0.0
C486 C 0.48644 0.27824 0.57454 0.0
H487 H 0.49124 0.17898 0.49712 0.0
H488 H 0.62726 0.253 0.54617 0.0
H489 H 0.43827 0.24397 0.51884 0.0
H490 H 0.47267 0.28155 0.49701 0.0
H491 H 0.44109 0.21407 0.4909 0.0
H492 H 0.65706 0.33086 0.5686 0.0
H493 H 0.63743 0.37055 0.55603 0.0
H494 H 0.60624 0.3351 0.57915 0.0
H495 H 0.55872 0.44655 0.53168 0.0
H496 H 0.47914 0.35966 0.58585 0.0
H497 H 0.55782 0.34903 0.49544 0.0
H498 H 0.61508 0.38096 0.51526 0.0
H499 H 0.59018 0.41638 0.50255 0.0
H500 H 0.46142 0.24445 0.56147 0.0
H501 H 0.46532 0.27946 0.58928 0.0
H502 H 0.51757 0.27391 0.58207 0.0
C503 C 0.3127 0.503 0.82138 0.0
C504 C 0.33921 0.51149 0.84403 0.0
C505 C 0.27476 0.51434 0.81848 0.0
C506 C 0.26324 0.53423 0.83873 0.0
C507 C 0.28577 0.53702 0.86188 0.0
C508 C 0.32358 0.52563 0.86425 0.0
C509 C 0.25082 0.50992 0.79355 0.0
C510 C 0.2739 0.55719 0.884 0.0
C511 C 0.2366 0.63894 0.83441 0.0
C512 C 0.18572 0.6148 0.83692 0.0
C513 C 0.26163 0.61238 0.83375 0.0
C514 C 0.23506 0.56034 0.83567 0.0
C515 C 0.18315 0.53519 0.83699 0.0
C516 C 0.15906 0.5628 0.83765 0.0
C517 C 0.3171 0.64064 0.83222 0.0
C518 C 0.15356 0.47971 0.83879 0.0
H519 H 0.32445 0.4918 0.80568 0.0
H520 H 0.34345 0.53139 0.88184 0.0
H521 H 0.21044 0.49613 0.79327 0.0
H522 H 0.26862 0.54751 0.78743 0.0
H523 H 0.25543 0.48431 0.78064 0.0
H524 H 0.28902 0.5501 0.90069 0.0
H525 H 0.29049 0.59832 0.88449 0.0
H526 H 0.233 0.54009 0.88366 0.0
H527 H 0.25747 0.67915 0.83405 0.0
H528 H 0.11948 0.54384 0.83918 0.0
H529 H 0.32574 0.62206 0.81738 0.0
H530 H 0.33758 0.64044 0.84906 0.0
H531 H 0.33143 0.68027 0.8293 0.0
H532 H 0.16326 0.45862 0.82574 0.0
H533 H 0.11267 0.4644 0.83566 0.0
H534 H 0.16291 0.47299 0.85693 0.0
C535 C 0.87535 0.33757 0.13256 0.0
C536 C 0.91851 0.35372 0.14867 0.0
C537 C 0.82785 0.30394 0.13845 0.0
C538 C 0.82345 0.28619 0.161 0.0
C539 C 0.86699 0.29837 0.17628 0.0
C540 C 0.91407 0.33182 0.16988 0.0
C541 C 0.78235 0.29115 0.12144 0.0
C542 C 0.86395 0.28 0.20042 0.0
C543 C 0.71116 0.26961 0.1896 0.0
C544 C 0.67907 0.21744 0.18577 0.0
C545 C 0.75849 0.29215 0.18196 0.0
C546 C 0.77409 0.26179 0.17005 0.0
C547 C 0.74221 0.20898 0.16646 0.0
C548 C 0.69504 0.18737 0.17446 0.0
C549 C 0.79156 0.34863 0.18638 0.0
C550 C 0.75743 0.1755 0.1537 0.0
H551 H 0.87834 0.35372 0.11599 0.0
H552 H 0.94711 0.34368 0.18242 0.0
H553 H 0.75402 0.25058 0.11993 0.0
H554 H 0.76509 0.31219 0.12847 0.0
H555 H 0.79181 0.30101 0.10329 0.0
H556 H 0.9003 0.28574 0.20833 0.0
H557 H 0.85284 0.30083 0.21285 0.0
H558 H 0.83522 0.23959 0.19907 0.0
H559 H 0.69915 0.29287 0.19861 0.0
H560 H 0.67009 0.14702 0.17128 0.0
H561 H 0.79926 0.36388 0.16906 0.0
H562 H 0.82796 0.35936 0.19657 0.0
H563 H 0.7744 0.36664 0.19652 0.0
H564 H 0.76183 0.18337 0.13492 0.0
H565 H 0.72959 0.13506 0.15356 0.0
H566 H 0.79409 0.18344 0.16234 0.0
C567 C 0.02682 0.5147 0.04194 0.0
C568 C 0.07138 0.53793 0.05778 0.0
C569 C 0.02614 0.52707 0.01857 0.0
C570 C 0.07102 0.56373 0.01091 0.0
C571 C 0.1165 0.58526 0.02634 0.0
C572 C 0.11616 0.57199 0.04953 0.0
C573 C 0.97695 0.5028 0.00252 0.0
C574 C 0.16513 0.62452 0.01887 0.0
C575 C 0.07193 0.5789 0.94469 0.0
C576 C 0.06148 0.61754 0.94384 0.0
C577 C 0.07579 0.56123 0.96644 0.0
C578 C 0.06953 0.58315 0.98779 0.0
C579 C 0.06064 0.62332 0.98708 0.0
C580 C 0.05651 0.63985 0.9651 0.0
C581 C 0.08504 0.51819 0.96648 0.0
C582 C 0.05451 0.64827 0.00948 0.0
H583 H 0.99208 0.48811 0.04804 0.0
H584 H 0.15091 0.59003 0.06153 0.0
H585 H 0.96618 0.53114 0.99986 0.0
H586 H 0.98046 0.48847 0.98463 0.0
H587 H 0.9465 0.47131 0.01013 0.0
H588 H 0.19783 0.63364 0.03189 0.0
H589 H 0.17027 0.61169 0.00103 0.0
H590 H 0.16435 0.65941 0.01734 0.0
H591 H 0.07532 0.56131 0.92821 0.0
H592 H 0.0489 0.67005 0.96448 0.0
H593 H 0.05225 0.48519 0.97191 0.0
H594 H 0.11766 0.52834 0.97975 0.0
H595 H 0.09184 0.50717 0.94863 0.0
H596 H 0.02144 0.62056 0.01727 0.0
H597 H 0.04972 0.68028 0.00598 0.0
H598 H 0.08757 0.66216 0.02311 0.0
C599 C 0.56706 0.09568 0.40367 0.0
C600 C 0.57868 0.06263 0.41393 0.0
C601 C 0.56302 0.0963 0.37883 0.0
C602 C 0.56979 0.06235 0.36381 0.0
C603 C 0.58241 0.0295 0.37406 0.0
C604 C 0.58719 0.03037 0.39904 0.0
C605 C 0.55042 0.13255 0.36862 0.0
C606 C 0.58905 0.99216 0.35861 0.0
C607 C 0.50176 0.02454 0.30064 0.0
C608 C 0.54052 0.05202 0.28711 0.0
C609 C 0.51104 0.02704 0.32549 0.0
C610 C 0.56013 0.05881 0.33734 0.0
C611 C 0.59938 0.08743 0.32398 0.0
C612 C 0.58919 0.08341 0.29899 0.0
C613 C 0.46815 0.99565 0.33906 0.0
C614 C 0.65206 0.12236 0.33608 0.0
H615 H 0.56104 0.12115 0.4151 0.0
H616 H 0.59608 0.00468 0.40685 0.0
H617 H 0.57758 0.15424 0.3564 0.0
H618 H 0.51294 0.11147 0.35792 0.0
H619 H 0.55046 0.15927 0.38279 0.0
H620 H 0.60121 0.97095 0.36938 0.0
H621 H 0.55325 0.96504 0.34733 0.0
H622 H 0.61701 0.01161 0.34634 0.0
H623 H 0.46379 0.00125 0.29183 0.0
H624 H 0.61947 0.10451 0.28873 0.0
H625 H 0.46267 0.02038 0.35206 0.0
H626 H 0.47678 0.97151 0.34943 0.0
H627 H 0.43257 0.97131 0.32703 0.0
H628 H 0.65275 0.15024 0.34977 0.0
H629 H 0.67819 0.14275 0.3232 0.0
H630 H 0.66578 0.10086 0.34552 0.0
C631 C 0.56314 0.55798 0.74664 0.0
C632 C 0.51968 0.54592 0.75695 0.0
C633 C 0.5624 0.55372 0.72165 0.0
C634 C 0.51745 0.53833 0.70668 0.0
C635 C 0.47402 0.5282 0.71707 0.0
C636 C 0.47549 0.53143 0.74206 0.0
C637 C 0.60916 0.56365 0.71127 0.0
C638 C 0.42568 0.51287 0.70178 0.0
C639 C 0.52413 0.55807 0.64098 0.0
C640 C 0.5088 0.50971 0.62992 0.0
C641 C 0.52668 0.56798 0.66592 0.0
C642 C 0.51471 0.52891 0.68022 0.0
C643 C 0.49942 0.48019 0.66922 0.0
C644 C 0.49583 0.47104 0.64429 0.0
C645 C 0.54204 0.62016 0.67698 0.0
C646 C 0.48686 0.43755 0.68381 0.0
H647 H 0.59733 0.56901 0.75809 0.0
H648 H 0.44194 0.52268 0.74997 0.0
H649 H 0.60263 0.52853 0.7011 0.0
H650 H 0.61867 0.59158 0.69852 0.0
H651 H 0.64164 0.57763 0.72531 0.0
H652 H 0.3968 0.51114 0.71263 0.0
H653 H 0.43221 0.53969 0.68867 0.0
H654 H 0.41088 0.47539 0.69143 0.0
H655 H 0.53463 0.58838 0.6302 0.0
H656 H 0.48242 0.43317 0.63604 0.0
H657 H 0.57674 0.63596 0.6897 0.0
H658 H 0.51269 0.61872 0.68734 0.0
H659 H 0.54857 0.64598 0.66333 0.0
H660 H 0.51868 0.4481 0.6977 0.0
H661 H 0.47797 0.40248 0.67262 0.0
H662 H 0.4543 0.42979 0.69321 0.0
C663 C 0.54398 0.02615 0.6059 0.0
C664 C 0.58418 0.067 0.5977 0.0
C665 C 0.53556 0.02773 0.62986 0.0
C666 C 0.56837 0.07106 0.6462 0.0
C667 C 0.61034 0.11157 0.63838 0.0
C668 C 0.61768 0.10917 0.61416 0.0
C669 C 0.4902 0.9838 0.63742 0.0
C670 C 0.64645 0.15812 0.6554 0.0
C671 C 0.50863 0.09324 0.698 0.0
C672 C 0.52269 0.07276 0.71611 0.0
C673 C 0.52481 0.09456 0.67544 0.0
C674 C 0.55603 0.0751 0.67089 0.0
C675 C 0.57165 0.05578 0.68933 0.0
C676 C 0.55451 0.05453 0.71171 0.0
C677 C 0.50677 0.11492 0.65619 0.0
C678 C 0.60533 0.03519 0.6852 0.0
H679 H 0.51796 0.99321 0.59342 0.0
H680 H 0.64898 0.1408 0.60806 0.0
H681 H 0.50123 0.97056 0.65311 0.0
H682 H 0.46409 0.99574 0.64291 0.0
H683 H 0.46995 0.9518 0.62284 0.0
H684 H 0.67988 0.18394 0.64718 0.0
H685 H 0.62755 0.1785 0.66097 0.0
H686 H 0.65879 0.14785 0.67183 0.0
H687 H 0.48351 0.10677 0.7012 0.0
H688 H 0.56582 0.03912 0.72576 0.0
H689 H 0.48271 0.08434 0.64144 0.0
H690 H 0.5389 0.14417 0.64846 0.0
H691 H 0.48508 0.13134 0.66304 0.0
H692 H 0.58527 0.00067 0.67205 0.0
H693 H 0.61783 0.02592 0.70195 0.0
H694 H 0.63869 0.06271 0.67752 0.0
C695 C 0.52113 0.58997 0.9553 0.0
C696 C 0.53161 0.5572 0.94202 0.0
C697 C 0.53109 0.59883 0.98039 0.0
C698 C 0.55208 0.5744 0.99253 0.0
C699 C 0.56085 0.53977 0.97934 0.0
C700 C 0.55051 0.53157 0.95426 0.0
C701 C 0.52105 0.63589 0.99382 0.0
C702 C 0.58306 0.51284 0.99165 0.0
C703 C 0.63529 0.63747 0.05169 0.0
C704 C 0.60412 0.60961 0.06812 0.0
C705 C 0.61826 0.62724 0.02714 0.0
C706 C 0.5688 0.5881 0.01875 0.0
C707 C 0.53649 0.56106 0.03534 0.0
C708 C 0.55454 0.57224 0.05989 0.0
C709 C 0.65378 0.65735 0.01009 0.0
C710 C 0.48351 0.51914 0.02707 0.0
H711 H 0.50623 0.60977 0.94608 0.0
H712 H 0.55854 0.50602 0.94423 0.0
H713 H 0.49912 0.61921 0.00862 0.0
H714 H 0.55695 0.66946 0.00196 0.0
H715 H 0.50047 0.64821 0.98201 0.0
H716 H 0.58407 0.48432 0.97906 0.0
H717 H 0.62176 0.54042 1.00003 0.0
H718 H 0.5613 0.49404 0.00616 0.0
H719 H 0.67346 0.66685 0.05806 0.0
H720 H 0.53046 0.5504 0.07253 0.0
H721 H 0.63705 0.67394 0.99871 0.0
H722 H 0.66065 0.63235 0.99801 0.0
H723 H 0.69023 0.68806 0.0196 0.0
H724 H 0.46386 0.53223 0.0152 0.0
H725 H 0.46202 0.50448 0.04229 0.0
H726 H 0.48377 0.48784 0.01648 0.0
C727 C 0.05969 0.49652 0.25347 0.0
C728 C 0.07115 0.53842 0.24168 0.0
C729 C 0.05843 0.49888 0.27834 0.0
C730 C 0.06967 0.54441 0.29174 0.0
C731 C 0.08152 0.58685 0.27993 0.0
C732 C 0.08176 0.58323 0.25507 0.0
C733 C 0.04493 0.45268 0.29027 0.0
C734 C 0.09439 0.63632 0.29361 0.0
C735 C 0.03039 0.55239 0.35313 0.0
C736 C 0.07543 0.57062 0.36811 0.0
C737 C 0.02717 0.54097 0.32829 0.0
C738 C 0.07013 0.54851 0.31818 0.0
C739 C 0.11496 0.56448 0.33332 0.0
C740 C 0.11694 0.57495 0.35809 0.0
C741 C 0.97849 0.52336 0.31277 0.0
C742 C 0.16166 0.57314 0.32326 0.0
H743 H 0.05108 0.46165 0.24322 0.0
H744 H 0.09089 0.61586 0.24614 0.0
H745 H 0.07627 0.46026 0.30379 0.0
H746 H 0.01215 0.44284 0.29988 0.0
H747 H 0.03607 0.41986 0.27725 0.0
H748 H 0.10304 0.66582 0.28176 0.0
H749 H 0.06281 0.63144 0.30315 0.0
H750 H 0.12718 0.64962 0.30733 0.0
H751 H -0.00178 0.54926 0.36064 0.0
H752 H 0.15158 0.58801 0.3696 0.0
H753 H 0.96885 0.49016 0.29986 0.0
H754 H 0.98235 0.55346 0.30221 0.0
H755 H 0.94717 0.51346 0.3235 0.0
H756 H 0.15368 0.53966 0.31106 0.0
H757 H 0.19229 0.58179 0.33753 0.0
H758 H 0.17484 0.605 0.3126 0.0
loop_
_geom_bond_atom_site_label_1
_geom_bond_atom_site_label_2
_geom_bond_distance
_geom_bond_site_symmetry_2
_ccdc_geom_bond_type
O0 Zn1 1.953 . S
O0 C16 1.225 . S
Zn1 O0 1.953 . S
Zn1 O2 1.949 . S
Zn1 O8 1.919 1_455 S
Zn1 O13 1.924 . S
O2 Zn1 1.949 . S
O2 Zn3 1.923 1_455 S
O2 Zn4 1.950 . S
O2 Zn5 1.945 . S
Zn3 O2 1.923 1_655 S
Zn3 O6 1.933 1_655 S
Zn3 O9 1.941 . S
Zn3 O10 1.965 . S
Zn4 O2 1.950 . S
Zn4 O11 1.938 . S
Zn4 O12 1.906 . S
Zn4 O22 1.953 . S
Zn5 O2 1.945 . S
Zn5 O7 1.932 . S
Zn5 O14 1.977 . S
Zn5 O15 1.910 . S
O6 Zn3 1.933 1_455 S
O6 C17 1.226 . S
O7 Zn5 1.932 . S
O7 C17 1.307 . S
O8 Zn1 1.919 1_655 S
O8 C19 1.253 . S
O9 Zn3 1.941 . S
O9 C19 1.283 . S
O10 Zn3 1.965 . S
O10 C18 1.303 . S
O11 Zn4 1.938 . S
O11 C18 1.247 1_455 S
O12 Zn4 1.906 . S
O12 C20 1.304 . S
O13 Zn1 1.924 . S
O13 C21 1.311 . S
O14 Zn5 1.977 . S
O14 C20 1.272 . S
O15 Zn5 1.910 . S
O15 C21 1.231 . S
C16 O0 1.225 . S
C16 O22 1.298 . S
C17 O6 1.226 . S
C17 O7 1.307 . S
C18 O10 1.303 . S
C18 O11 1.247 1_655 S
C19 O8 1.253 . S
C19 O9 1.283 . S
C20 O12 1.304 . S
C20 O14 1.272 . S
C21 O13 1.311 . S
C21 O15 1.231 . S
O22 Zn4 1.953 . S
O22 C16 1.298 . S
O23 Zn24 1.953 . S
O23 C39 1.225 . S
Zn24 O23 1.953 . S
Zn24 O25 1.949 . S
Zn24 O31 1.919 . S
Zn24 O36 1.924 . S
O25 Zn24 1.949 . S
O25 Zn26 1.923 . S
O25 Zn27 1.950 . S
O25 Zn28 1.945 . S
Zn26 O25 1.923 . S
Zn26 O29 1.933 . S
Zn26 O32 1.941 . S
Zn26 O33 1.965 . S
Zn27 O25 1.950 . S
Zn27 O34 1.938 . S
Zn27 O35 1.902 1_545 S
Zn27 O45 1.953 . S
Zn28 O25 1.945 . S
Zn28 O30 1.932 . S
Zn28 O37 1.977 1_545 S
Zn28 O38 1.910 1_545 S
O29 Zn26 1.933 . S
O29 C40 1.226 . S
O30 Zn28 1.932 . S
O30 C40 1.307 . S
O31 Zn24 1.919 . S
O31 C42 1.253 . S
O32 Zn26 1.941 . S
O32 C42 1.283 . S
O33 Zn26 1.965 . S
O33 C41 1.303 . S
O34 Zn27 1.938 . S
O34 C41 1.247 . S
O35 Zn27 1.902 1_565 S
O35 C43 1.306 . S
O36 Zn24 1.924 . S
O36 C44 1.311 1_545 S
O37 Zn28 1.977 1_565 S
O37 C43 1.272 . S
O38 Zn28 1.910 1_565 S
O38 C44 1.231 . S
C39 O23 1.225 . S
C39 O45 1.298 . S
C40 O29 1.226 . S
C40 O30 1.307 . S
C41 O33 1.303 . S
C41 O34 1.247 . S
C42 O31 1.253 . S
C42 O32 1.283 . S
C43 O35 1.306 . S
C43 O37 1.272 . S
C44 O36 1.311 1_565 S
C44 O38 1.231 . S
O45 Zn27 1.953 . S
O45 C39 1.298 . S
O46 Zn47 1.953 . S
O46 C62 1.225 . S
Zn47 O46 1.953 . S
Zn47 O48 1.949 . S
Zn47 O54 1.919 . S
Zn47 O59 1.924 . S
O48 Zn47 1.949 . S
O48 Zn49 1.923 . S
O48 Zn50 1.950 . S
O48 Zn51 1.945 . S
Zn49 O48 1.923 . S
Zn49 O52 1.933 . S
Zn49 O55 1.941 . S
Zn49 O56 1.965 . S
Zn50 O48 1.950 . S
Zn50 O57 1.938 . S
Zn50 O58 1.906 . S
Zn50 O68 1.953 . S
Zn51 O48 1.945 . S
Zn51 O53 1.932 . S
Zn51 O60 1.977 . S
Zn51 O61 1.910 . S
O52 Zn49 1.933 . S
O52 C63 1.226 . S
O53 Zn51 1.932 . S
O53 C63 1.307 . S
O54 Zn47 1.919 . S
O54 C65 1.253 . S
O55 Zn49 1.941 . S
O55 C65 1.283 . S
O56 Zn49 1.965 . S
O56 C64 1.303 . S
O57 Zn50 1.938 . S
O57 C64 1.247 . S
O58 Zn50 1.906 . S
O58 C66 1.304 . S
O59 Zn47 1.924 . S
O59 C67 1.311 . S
O60 Zn51 1.977 . S
O60 C66 1.272 . S
O61 Zn51 1.910 . S
O61 C67 1.231 . S
C62 O46 1.225 . S
C62 O68 1.298 . S
C63 O52 1.226 . S
C63 O53 1.307 . S
C64 O56 1.303 . S
C64 O57 1.247 . S
C65 O54 1.253 . S
C65 O55 1.283 . S
C66 O58 1.304 . S
C66 O60 1.272 . S
C67 O59 1.311 . S
C67 O61 1.231 . S
O68 Zn50 1.953 . S
O68 C62 1.298 . S
H69 C70 0.949 . S
C70 H69 0.949 . S
C70 C71 1.395 . S
C70 C72 1.391 . S
C71 C70 1.395 . S
C71 C74 1.390 . S
C72 C70 1.391 . S
C72 C76 1.387 . S
C72 C77 1.491 . S
H73 C74 0.950 1_565 S
C74 C71 1.390 . S
C74 H73 0.950 1_545 S
C74 C75 1.378 . S
C75 C74 1.378 . S
C75 C76 1.409 . S
C76 C72 1.387 . S
C76 C75 1.409 . S
C76 H78 0.951 . S
C77 C72 1.491 . S
C77 C79 1.382 . S
C77 C81 1.404 . S
H78 C76 0.951 . S
C79 C77 1.382 . S
C79 C80 1.390 . S
C79 H84 0.949 . S
C80 C79 1.390 . S
C80 C85 1.399 . S
C81 C77 1.404 . S
C81 H82 0.950 . S
C81 C83 1.375 . S
H82 C81 0.950 . S
C83 C81 1.375 . S
C83 C85 1.382 . S
C83 H87 0.950 . S
H84 C79 0.949 . S
C85 C80 1.399 . S
C85 C83 1.382 . S
C85 H86 0.952 . S
H86 C85 0.952 . S
H87 C83 0.950 . S
H88 C89 0.949 . S
C89 H88 0.949 . S
C89 C90 1.395 . S
C89 C91 1.391 . S
C90 C89 1.395 . S
C90 C93 1.390 . S
C91 C89 1.391 . S
C91 C95 1.387 . S
C91 C96 1.491 . S
H92 C93 0.950 . S
C93 C90 1.390 . S
C93 H92 0.950 . S
C93 C94 1.378 . S
C94 C93 1.378 . S
C94 C95 1.409 . S
C95 C91 1.387 . S
C95 C94 1.409 . S
C95 H97 0.951 . S
C96 C91 1.491 . S
C96 C98 1.382 . S
C96 C100 1.404 . S
H97 C95 0.951 . S
C98 C96 1.382 . S
C98 C99 1.390 . S
C98 H103 0.949 . S
C99 C98 1.390 . S
C99 C104 1.399 . S
C100 C96 1.404 . S
C100 H101 0.950 . S
C100 C102 1.375 . S
H101 C100 0.950 . S
C102 C100 1.375 . S
C102 C104 1.382 . S
C102 H106 0.950 . S
H103 C98 0.949 . S
C104 C99 1.399 . S
C104 C102 1.382 . S
C104 H105 0.952 . S
H105 C104 0.952 . S
H106 C102 0.950 . S
H107 C108 0.949 . S
C108 H107 0.949 . S
C108 C109 1.395 . S
C108 C110 1.391 . S
C109 C108 1.395 . S
C109 C112 1.390 . S
C110 C108 1.391 . S
C110 C114 1.387 . S
C110 C115 1.491 . S
H111 C112 0.950 1_655 S
C112 C109 1.390 . S
C112 H111 0.950 1_455 S
C112 C113 1.378 . S
C113 C112 1.378 . S
C113 C114 1.409 . S
C114 C110 1.387 . S
C114 C113 1.409 . S
C114 H116 0.951 . S
C115 C110 1.491 . S
C115 C117 1.382 . S
C115 C119 1.404 . S
H116 C114 0.951 . S
C117 C115 1.382 . S
C117 C118 1.390 . S
C117 H122 0.949 . S
C118 C117 1.390 . S
C118 C123 1.399 . S
C119 C115 1.404 . S
C119 H120 0.950 . S
C119 C121 1.375 . S
H120 C119 0.950 . S
C121 C119 1.375 . S
C121 C123 1.382 . S
C121 H125 0.950 . S
H122 C117 0.949 . S
C123 C118 1.399 . S
C123 C121 1.382 . S
C123 H124 0.952 . S
H124 C123 0.952 . S
H125 C121 0.950 . S
H126 C127 0.949 1_655 S
C127 H126 0.949 1_455 S
C127 C128 1.395 . S
C127 C129 1.391 . S
C128 C127 1.395 . S
C128 C131 1.390 . S
C129 C127 1.391 . S
C129 C133 1.387 . S
C129 C134 1.491 1_455 S
H130 C131 0.950 . S
C131 C128 1.390 . S
C131 H130 0.950 . S
C131 C132 1.378 . S
C132 C131 1.378 . S
C132 C133 1.409 . S
C133 C129 1.387 . S
C133 C132 1.409 . S
C133 H135 0.951 . S
C134 C129 1.491 1_655 S
C134 C136 1.382 . S
C134 C138 1.404 . S
H135 C133 0.951 . S
C136 C134 1.382 . S
C136 C137 1.390 . S
C136 H141 0.949 . S
C137 C136 1.390 . S
C137 C142 1.399 . S
C138 C134 1.404 . S
C138 H139 0.950 . S
C138 C140 1.375 . S
H139 C138 0.950 . S
C140 C138 1.375 . S
C140 C142 1.382 . S
C140 H144 0.950 . S
H141 C136 0.949 . S
C142 C137 1.399 . S
C142 C140 1.382 . S
C142 H143 0.952 . S
H143 C142 0.952 . S
H144 C140 0.950 . S
H145 C146 0.949 1_565 S
C146 H145 0.949 1_545 S
C146 C147 1.395 . S
C146 C148 1.391 . S
C147 C146 1.395 . S
C147 C150 1.390 . S
C148 C146 1.391 . S
C148 C152 1.387 . S
C148 C153 1.491 1_545 S
H149 C150 0.950 . S
C150 C147 1.390 . S
C150 H149 0.950 . S
C150 C151 1.378 . S
C151 C150 1.378 . S
C151 C152 1.409 . S
C152 C148 1.387 . S
C152 C151 1.409 . S
C152 H154 0.951 . S
C153 C148 1.491 1_565 S
C153 C155 1.382 . S
C153 C157 1.404 . S
H154 C152 0.951 . S
C155 C153 1.382 . S
C155 C156 1.390 . S
C155 H160 0.949 . S
C156 C155 1.390 . S
C156 C161 1.399 . S
C157 C153 1.404 . S
C157 H158 0.950 1_565 S
C157 C159 1.375 . S
H158 C157 0.950 1_545 S
C159 C157 1.375 . S
C159 C161 1.382 . S
C159 H163 0.950 . S
H160 C155 0.949 . S
C161 C156 1.399 . S
C161 C159 1.382 . S
C161 H162 0.952 . S
H162 C161 0.952 . S
H163 C159 0.950 . S
H164 C165 0.949 . S
C165 H164 0.949 . S
C165 C166 1.395 . S
C165 C167 1.391 . S
C166 C165 1.395 . S
C166 C169 1.390 . S
C167 C165 1.391 . S
C167 C171 1.387 . S
C167 C172 1.491 . S
H168 C169 0.950 . S
C169 C166 1.390 . S
C169 H168 0.950 . S
C169 C170 1.378 . S
C170 C169 1.378 . S
C170 C171 1.409 . S
C171 C167 1.387 . S
C171 C170 1.409 . S
C171 H173 0.951 . S
C172 C167 1.491 . S
C172 C174 1.382 . S
C172 C176 1.404 . S
H173 C171 0.951 . S
C174 C172 1.382 . S
C174 C175 1.390 . S
C174 H179 0.949 . S
C175 C174 1.390 . S
C175 C180 1.399 . S
C176 C172 1.404 . S
C176 H177 0.950 . S
C176 C178 1.375 . S
H177 C176 0.950 . S
C178 C176 1.375 . S
C178 C180 1.382 . S
C178 H182 0.950 . S
H179 C174 0.949 . S
C180 C175 1.399 . S
C180 C178 1.382 . S
C180 H181 0.952 . S
H181 C180 0.952 . S
H182 C178 0.950 . S
C183 C184 1.391 . S
C183 C185 1.394 . S
C183 H199 0.931 . S
C184 C183 1.391 . S
C184 C188 1.376 . S
C185 C183 1.394 . S
C185 C186 1.369 . S
C185 C189 1.531 . S
C186 C185 1.369 . S
C186 C187 1.410 . S
C186 C194 1.503 . S
C187 C186 1.410 . S
C187 C188 1.392 . S
C187 C190 1.511 . S
C188 C184 1.376 . S
C188 C187 1.392 . S
C188 H200 0.929 . S
C189 C185 1.531 . S
C189 H201 0.960 . S
C189 H202 0.962 . S
C189 H203 0.960 . S
C190 C187 1.511 . S
C190 H204 0.961 . S
C190 H205 0.961 . S
C190 H206 0.961 . S
C191 C192 1.370 . S
C191 C193 1.363 . S
C191 H207 0.931 . S
C192 C191 1.370 . S
C192 C196 1.408 . S
C193 C191 1.363 . S
C193 C194 1.370 . S
C193 C197 1.524 . S
C194 C186 1.503 . S
C194 C193 1.370 . S
C194 C195 1.403 . S
C195 C194 1.403 . S
C195 C196 1.404 . S
C195 C198 1.539 . S
C196 C192 1.408 . S
C196 C195 1.404 . S
C196 H208 0.930 . S
C197 C193 1.524 . S
C197 H209 0.956 . S
C197 H210 0.961 . S
C197 H211 0.961 . S
C198 C195 1.539 . S
C198 H212 0.958 . S
C198 H213 0.961 . S
C198 H214 0.960 . S
H199 C183 0.931 . S
H200 C188 0.929 . S
H201 C189 0.960 . S
H202 C189 0.962 . S
H203 C189 0.960 . S
H204 C190 0.961 . S
H205 C190 0.961 . S
H206 C190 0.961 . S
H207 C191 0.931 . S
H208 C196 0.930 . S
H209 C197 0.956 . S
H210 C197 0.961 . S
H211 C197 0.961 . S
H212 C198 0.958 . S
H213 C198 0.961 . S
H214 C198 0.960 . S
C215 C216 1.391 . S
C215 C217 1.394 . S
C215 H231 0.931 . S
C216 C215 1.391 . S
C216 C220 1.376 . S
C217 C215 1.394 . S
C217 C218 1.369 . S
C217 C221 1.531 . S
C218 C217 1.369 . S
C218 C219 1.410 . S
C218 C226 1.503 . S
C219 C218 1.410 . S
C219 C220 1.392 . S
C219 C222 1.511 . S
C220 C216 1.376 . S
C220 C219 1.392 . S
C220 H232 0.929 . S
C221 C217 1.531 . S
C221 H233 0.960 . S
C221 H234 0.962 . S
C221 H235 0.960 . S
C222 C219 1.511 . S
C222 H236 0.961 . S
C222 H237 0.961 . S
C222 H238 0.961 . S
C223 C224 1.370 . S
C223 C225 1.363 . S
C223 H239 0.931 . S
C224 C223 1.370 . S
C224 C228 1.408 . S
C225 C223 1.363 . S
C225 C226 1.370 . S
C225 C229 1.524 . S
C226 C218 1.503 . S
C226 C225 1.370 . S
C226 C227 1.403 . S
C227 C226 1.403 . S
C227 C228 1.404 . S
C227 C230 1.539 . S
C228 C224 1.408 . S
C228 C227 1.404 . S
C228 H240 0.930 . S
C229 C225 1.524 . S
C229 H241 0.956 . S
C229 H242 0.961 . S
C229 H243 0.961 . S
C230 C227 1.539 . S
C230 H244 0.958 . S
C230 H245 0.961 . S
C230 H246 0.960 . S
H231 C215 0.931 . S
H232 C220 0.929 . S
H233 C221 0.960 . S
H234 C221 0.962 . S
H235 C221 0.960 . S
H236 C222 0.961 . S
H237 C222 0.961 . S
H238 C222 0.961 . S
H239 C223 0.931 . S
H240 C228 0.930 . S
H241 C229 0.956 . S
H242 C229 0.961 . S
H243 C229 0.961 . S
H244 C230 0.958 . S
H245 C230 0.961 . S
H246 C230 0.960 . S
C247 C248 1.391 . S
C247 C249 1.394 . S
C247 H263 0.931 . S
C248 C247 1.391 . S
C248 C252 1.376 . S
C249 C247 1.394 . S
C249 C250 1.369 . S
C249 C253 1.531 . S
C250 C249 1.369 . S
C250 C251 1.410 . S
C250 C258 1.503 . S
C251 C250 1.410 . S
C251 C252 1.392 . S
C251 C254 1.511 . S
C252 C248 1.376 . S
C252 C251 1.392 . S
C252 H264 0.929 . S
C253 C249 1.531 . S
C253 H265 0.960 . S
C253 H266 0.962 . S
C253 H267 0.960 . S
C254 C251 1.511 . S
C254 H268 0.961 . S
C254 H269 0.961 . S
C254 H270 0.961 . S
C255 C256 1.370 . S
C255 C257 1.363 . S
C255 H271 0.931 . S
C256 C255 1.370 . S
C256 C260 1.408 . S
C257 C255 1.363 . S
C257 C258 1.370 . S
C257 C261 1.524 . S
C258 C250 1.503 . S
C258 C257 1.370 . S
C258 C259 1.403 . S
C259 C258 1.403 . S
C259 C260 1.404 . S
C259 C262 1.539 . S
C260 C256 1.408 . S
C260 C259 1.404 . S
C260 H272 0.930 . S
C261 C257 1.524 . S
C261 H273 0.956 . S
C261 H274 0.961 . S
C261 H275 0.961 . S
C262 C259 1.539 . S
C262 H276 0.958 . S
C262 H277 0.961 . S
C262 H278 0.960 . S
H263 C247 0.931 . S
H264 C252 0.929 . S
H265 C253 0.960 . S
H266 C253 0.962 . S
H267 C253 0.960 . S
H268 C254 0.961 . S
H269 C254 0.961 . S
H270 C254 0.961 . S
H271 C255 0.931 . S
H272 C260 0.930 . S
H273 C261 0.956 . S
H274 C261 0.961 . S
H275 C261 0.961 . S
H276 C262 0.958 . S
H277 C262 0.961 . S
H278 C262 0.960 . S
C279 C280 1.391 . S
C279 C281 1.394 . S
C279 H295 0.931 . S
C280 C279 1.391 . S
C280 C284 1.376 . S
C281 C279 1.394 . S
C281 C282 1.369 . S
C281 C285 1.531 . S
C282 C281 1.369 . S
C282 C283 1.410 . S
C282 C290 1.503 . S
C283 C282 1.410 . S
C283 C284 1.392 . S
C283 C286 1.511 . S
C284 C280 1.376 . S
C284 C283 1.392 . S
C284 H296 0.929 . S
C285 C281 1.531 . S
C285 H297 0.960 . S
C285 H298 0.962 . S
C285 H299 0.960 . S
C286 C283 1.511 . S
C286 H300 0.961 . S
C286 H301 0.961 . S
C286 H302 0.961 . S
C287 C288 1.370 . S
C287 C289 1.363 . S
C287 H303 0.931 . S
C288 C287 1.370 . S
C288 C292 1.408 . S
C289 C287 1.363 . S
C289 C290 1.370 . S
C289 C293 1.524 . S
C290 C282 1.503 . S
C290 C289 1.370 . S
C290 C291 1.403 . S
C291 C290 1.403 . S
C291 C292 1.404 . S
C291 C294 1.539 . S
C292 C288 1.408 . S
C292 C291 1.404 . S
C292 H304 0.930 . S
C293 C289 1.524 . S
C293 H305 0.956 . S
C293 H306 0.961 . S
C293 H307 0.961 . S
C294 C291 1.539 . S
C294 H308 0.958 . S
C294 H309 0.961 . S
C294 H310 0.960 . S
H295 C279 0.931 . S
H296 C284 0.929 . S
H297 C285 0.960 . S
H298 C285 0.962 . S
H299 C285 0.960 . S
H300 C286 0.961 . S
H301 C286 0.961 . S
H302 C286 0.961 . S
H303 C287 0.931 . S
H304 C292 0.930 . S
H305 C293 0.956 . S
H306 C293 0.961 . S
H307 C293 0.961 . S
H308 C294 0.958 . S
H309 C294 0.961 . S
H310 C294 0.960 . S
C311 C312 1.391 . S
C311 C313 1.394 . S
C311 H327 0.931 . S
C312 C311 1.391 . S
C312 C316 1.376 . S
C313 C311 1.394 . S
C313 C314 1.369 . S
C313 C317 1.531 . S
C314 C313 1.369 . S
C314 C315 1.410 . S
C314 C322 1.503 . S
C315 C314 1.410 . S
C315 C316 1.392 . S
C315 C318 1.511 . S
C316 C312 1.376 . S
C316 C315 1.392 . S
C316 H328 0.929 . S
C317 C313 1.531 . S
C317 H329 0.960 . S
C317 H330 0.962 . S
C317 H331 0.960 . S
C318 C315 1.511 . S
C318 H332 0.961 . S
C318 H333 0.961 . S
C318 H334 0.961 . S
C319 C320 1.370 . S
C319 C321 1.363 . S
C319 H335 0.931 . S
C320 C319 1.370 . S
C320 C324 1.408 . S
C321 C319 1.363 . S
C321 C322 1.370 . S
C321 C325 1.524 . S
C322 C314 1.503 . S
C322 C321 1.370 . S
C322 C323 1.403 . S
C323 C322 1.403 . S
C323 C324 1.404 . S
C323 C326 1.539 . S
C324 C320 1.408 . S
C324 C323 1.404 . S
C324 H336 0.930 . S
C325 C321 1.524 . S
C325 H337 0.956 . S
C325 H338 0.961 . S
C325 H339 0.961 . S
C326 C323 1.539 . S
C326 H340 0.958 . S
C326 H341 0.961 . S
C326 H342 0.960 . S
H327 C311 0.931 . S
H328 C316 0.929 . S
H329 C317 0.960 . S
H330 C317 0.962 . S
H331 C317 0.960 . S
H332 C318 0.961 . S
H333 C318 0.961 . S
H334 C318 0.961 . S
H335 C319 0.931 . S
H336 C324 0.930 . S
H337 C325 0.956 . S
H338 C325 0.961 . S
H339 C325 0.961 . S
H340 C326 0.958 . S
H341 C326 0.961 . S
H342 C326 0.960 . S
C343 C344 1.391 . S
C343 C345 1.394 . S
C343 H359 0.931 . S
C344 C343 1.391 . S
C344 C348 1.376 . S
C345 C343 1.394 . S
C345 C346 1.369 . S
C345 C349 1.531 . S
C346 C345 1.369 . S
C346 C347 1.410 . S
C346 C354 1.503 . S
C347 C346 1.410 . S
C347 C348 1.392 . S
C347 C350 1.511 . S
C348 C344 1.376 . S
C348 C347 1.392 . S
C348 H360 0.929 . S
C349 C345 1.531 . S
C349 H361 0.960 . S
C349 H362 0.962 . S
C349 H363 0.960 . S
C350 C347 1.511 . S
C350 H364 0.961 . S
C350 H365 0.961 . S
C350 H366 0.961 . S
C351 C352 1.370 . S
C351 C353 1.363 . S
C351 H367 0.931 . S
C352 C351 1.370 . S
C352 C356 1.408 . S
C353 C351 1.363 . S
C353 C354 1.370 . S
C353 C357 1.524 . S
C354 C346 1.503 . S
C354 C353 1.370 . S
C354 C355 1.403 . S
C355 C354 1.403 . S
C355 C356 1.404 . S
C355 C358 1.539 . S
C356 C352 1.408 . S
C356 C355 1.404 . S
C356 H368 0.930 . S
C357 C353 1.524 . S
C357 H369 0.956 . S
C357 H370 0.961 . S
C357 H371 0.961 . S
C358 C355 1.539 . S
C358 H372 0.958 . S
C358 H373 0.961 . S
C358 H374 0.960 . S
H359 C343 0.931 . S
H360 C348 0.929 . S
H361 C349 0.960 . S
H362 C349 0.962 . S
H363 C349 0.960 . S
H364 C350 0.961 . S
H365 C350 0.961 . S
H366 C350 0.961 . S
H367 C351 0.931 . S
H368 C356 0.930 . S
H369 C357 0.956 . S
H370 C357 0.961 . S
H371 C357 0.961 . S
H372 C358 0.958 . S
H373 C358 0.961 . S
H374 C358 0.960 . S
C375 C376 1.391 . S
C375 C377 1.394 . S
C375 H391 0.931 . S
C376 C375 1.391 . S
C376 C380 1.376 . S
C377 C375 1.394 . S
C377 C378 1.369 . S
C377 C381 1.531 . S
C378 C377 1.369 . S
C378 C379 1.410 . S
C378 C386 1.503 . S
C379 C378 1.410 . S
C379 C380 1.392 . S
C379 C382 1.511 . S
C380 C376 1.376 . S
C380 C379 1.392 . S
C380 H392 0.929 . S
C381 C377 1.531 . S
C381 H393 0.960 . S
C381 H394 0.962 . S
C381 H395 0.960 . S
C382 C379 1.511 . S
C382 H396 0.961 . S
C382 H397 0.961 . S
C382 H398 0.961 . S
C383 C384 1.370 . S
C383 C385 1.363 . S
C383 H399 0.931 . S
C384 C383 1.370 . S
C384 C388 1.408 . S
C385 C383 1.363 . S
C385 C386 1.370 . S
C385 C389 1.524 . S
C386 C378 1.503 . S
C386 C385 1.370 . S
C386 C387 1.403 . S
C387 C386 1.403 . S
C387 C388 1.404 . S
C387 C390 1.539 . S
C388 C384 1.408 . S
C388 C387 1.404 . S
C388 H400 0.930 . S
C389 C385 1.524 . S
C389 H401 0.956 . S
C389 H402 0.961 . S
C389 H403 0.961 . S
C390 C387 1.539 . S
C390 H404 0.958 . S
C390 H405 0.961 . S
C390 H406 0.960 . S
H391 C375 0.931 . S
H392 C380 0.929 . S
H393 C381 0.960 . S
H394 C381 0.962 . S
H395 C381 0.960 . S
H396 C382 0.961 . S
H397 C382 0.961 . S
H398 C382 0.961 . S
H399 C383 0.931 . S
H400 C388 0.930 . S
H401 C389 0.956 . S
H402 C389 0.961 . S
H403 C389 0.961 . S
H404 C390 0.958 . S
H405 C390 0.961 . S
H406 C390 0.960 . S
C407 C408 1.391 . S
C407 C409 1.394 . S
C407 H423 0.931 . S
C408 C407 1.391 . S
C408 C412 1.376 . S
C409 C407 1.394 . S
C409 C410 1.369 . S
C409 C413 1.531 . S
C410 C409 1.369 . S
C410 C411 1.410 . S
C410 C418 1.503 . S
C411 C410 1.410 . S
C411 C412 1.392 . S
C411 C414 1.511 . S
C412 C408 1.376 . S
C412 C411 1.392 . S
C412 H424 0.929 . S
C413 C409 1.531 . S
C413 H425 0.960 . S
C413 H426 0.962 . S
C413 H427 0.960 . S
C414 C411 1.511 . S
C414 H428 0.961 . S
C414 H429 0.961 . S
C414 H430 0.961 . S
C415 C416 1.370 . S
C415 C417 1.363 . S
C415 H431 0.931 . S
C416 C415 1.370 . S
C416 C420 1.408 . S
C417 C415 1.363 . S
C417 C418 1.370 . S
C417 C421 1.524 . S
C418 C410 1.503 . S
C418 C417 1.370 . S
C418 C419 1.403 . S
C419 C418 1.403 . S
C419 C420 1.404 . S
C419 C422 1.539 . S
C420 C416 1.408 . S
C420 C419 1.404 . S
C420 H432 0.930 . S
C421 C417 1.524 . S
C421 H433 0.956 . S
C421 H434 0.961 . S
C421 H435 0.961 . S
C422 C419 1.539 . S
C422 H436 0.958 . S
C422 H437 0.961 . S
C422 H438 0.960 . S
H423 C407 0.931 . S
H424 C412 0.929 . S
H425 C413 0.960 . S
H426 C413 0.962 . S
H427 C413 0.960 . S
H428 C414 0.961 . S
H429 C414 0.961 . S
H430 C414 0.961 . S
H431 C415 0.931 . S
H432 C420 0.930 . S
H433 C421 0.956 . S
H434 C421 0.961 . S
H435 C421 0.961 . S
H436 C422 0.958 . S
H437 C422 0.961 . S
H438 C422 0.960 . S
C439 C440 1.391 . S
C439 C441 1.394 . S
C439 H455 0.931 . S
C440 C439 1.391 . S
C440 C444 1.376 . S
C441 C439 1.394 . S
C441 C442 1.369 . S
C441 C445 1.531 . S
C442 C441 1.369 . S
C442 C443 1.410 . S
C442 C450 1.503 . S
C443 C442 1.410 . S
C443 C444 1.392 . S
C443 C446 1.511 . S
C444 C440 1.376 . S
C444 C443 1.392 . S
C444 H456 0.929 . S
C445 C441 1.531 . S
C445 H457 0.960 . S
C445 H458 0.962 . S
C445 H459 0.960 . S
C446 C443 1.511 . S
C446 H460 0.961 . S
C446 H461 0.961 . S
C446 H462 0.961 . S
C447 C448 1.370 . S
C447 C449 1.363 . S
C447 H463 0.931 1_565 S
C448 C447 1.370 . S
C448 C452 1.408 . S
C449 C447 1.363 . S
C449 C450 1.370 . S
C449 C453 1.524 . S
C450 C442 1.503 . S
C450 C449 1.370 . S
C450 C451 1.403 . S
C451 C450 1.403 . S
C451 C452 1.404 . S
C451 C454 1.539 . S
C452 C448 1.408 . S
C452 C451 1.404 . S
C452 H464 0.930 . S
C453 C449 1.524 . S
C453 H465 0.956 . S
C453 H466 0.961 . S
C453 H467 0.961 . S
C454 C451 1.539 . S
C454 H468 0.958 . S
C454 H469 0.961 . S
C454 H470 0.960 . S
H455 C439 0.931 . S
H456 C444 0.929 . S
H457 C445 0.960 . S
H458 C445 0.962 . S
H459 C445 0.960 . S
H460 C446 0.961 . S
H461 C446 0.961 . S
H462 C446 0.961 . S
H463 C447 0.931 1_545 S
H464 C452 0.930 . S
H465 C453 0.956 . S
H466 C453 0.961 . S
H467 C453 0.961 . S
H468 C454 0.958 . S
H469 C454 0.961 . S
H470 C454 0.960 . S
C471 C472 1.391 . S
C471 C473 1.394 . S
C471 H487 0.931 . S
C472 C471 1.391 . S
C472 C476 1.376 . S
C473 C471 1.394 . S
C473 C474 1.369 . S
C473 C477 1.531 . S
C474 C473 1.369 . S
C474 C475 1.410 . S
C474 C482 1.503 . S
C475 C474 1.410 . S
C475 C476 1.392 . S
C475 C478 1.511 . S
C476 C472 1.376 . S
C476 C475 1.392 . S
C476 H488 0.929 . S
C477 C473 1.531 . S
C477 H489 0.960 . S
C477 H490 0.962 . S
C477 H491 0.960 . S
C478 C475 1.511 . S
C478 H492 0.961 . S
C478 H493 0.961 . S
C478 H494 0.961 . S
C479 C480 1.370 . S
C479 C481 1.363 . S
C479 H495 0.931 . S
C480 C479 1.370 . S
C480 C484 1.408 . S
C481 C479 1.363 . S
C481 C482 1.370 . S
C481 C485 1.524 . S
C482 C474 1.503 . S
C482 C481 1.370 . S
C482 C483 1.403 . S
C483 C482 1.403 . S
C483 C484 1.404 . S
C483 C486 1.539 . S
C484 C480 1.408 . S
C484 C483 1.404 . S
C484 H496 0.930 . S
C485 C481 1.524 . S
C485 H497 0.956 . S
C485 H498 0.961 . S
C485 H499 0.961 . S
C486 C483 1.539 . S
C486 H500 0.958 . S
C486 H501 0.961 . S
C486 H502 0.960 . S
H487 C471 0.931 . S
H488 C476 0.929 . S
H489 C477 0.960 . S
H490 C477 0.962 . S
H491 C477 0.960 . S
H492 C478 0.961 . S
H493 C478 0.961 . S
H494 C478 0.961 . S
H495 C479 0.931 . S
H496 C484 0.930 . S
H497 C485 0.956 . S
H498 C485 0.961 . S
H499 C485 0.961 . S
H500 C486 0.958 . S
H501 C486 0.961 . S
H502 C486 0.960 . S
C503 C504 1.391 . S
C503 C505 1.394 . S
C503 H519 0.931 . S
C504 C503 1.391 . S
C504 C508 1.376 . S
C505 C503 1.394 . S
C505 C506 1.369 . S
C505 C509 1.531 . S
C506 C505 1.369 . S
C506 C507 1.410 . S
C506 C514 1.503 . S
C507 C506 1.410 . S
C507 C508 1.392 . S
C507 C510 1.511 . S
C508 C504 1.376 . S
C508 C507 1.392 . S
C508 H520 0.929 . S
C509 C505 1.531 . S
C509 H521 0.960 . S
C509 H522 0.962 . S
C509 H523 0.960 . S
C510 C507 1.511 . S
C510 H524 0.961 . S
C510 H525 0.961 . S
C510 H526 0.961 . S
C511 C512 1.370 . S
C511 C513 1.363 . S
C511 H527 0.931 . S
C512 C511 1.370 . S
C512 C516 1.408 . S
C513 C511 1.363 . S
C513 C514 1.370 . S
C513 C517 1.524 . S
C514 C506 1.503 . S
C514 C513 1.370 . S
C514 C515 1.403 . S
C515 C514 1.403 . S
C515 C516 1.404 . S
C515 C518 1.539 . S
C516 C512 1.408 . S
C516 C515 1.404 . S
C516 H528 0.930 . S
C517 C513 1.524 . S
C517 H529 0.956 . S
C517 H530 0.961 . S
C517 H531 0.961 . S
C518 C515 1.539 . S
C518 H532 0.958 . S
C518 H533 0.961 . S
C518 H534 0.960 . S
H519 C503 0.931 . S
H520 C508 0.929 . S
H521 C509 0.960 . S
H522 C509 0.962 . S
H523 C509 0.960 . S
H524 C510 0.961 . S
H525 C510 0.961 . S
H526 C510 0.961 . S
H527 C511 0.931 . S
H528 C516 0.930 . S
H529 C517 0.956 . S
H530 C517 0.961 . S
H531 C517 0.961 . S
H532 C518 0.958 . S
H533 C518 0.961 . S
H534 C518 0.960 . S
C535 C536 1.391 . S
C535 C537 1.394 . S
C535 H551 0.931 . S
C536 C535 1.391 . S
C536 C540 1.376 . S
C537 C535 1.394 . S
C537 C538 1.369 . S
C537 C541 1.531 . S
C538 C537 1.369 . S
C538 C539 1.410 . S
C538 C546 1.503 . S
C539 C538 1.410 . S
C539 C540 1.392 . S
C539 C542 1.511 . S
C540 C536 1.376 . S
C540 C539 1.392 . S
C540 H552 0.929 . S
C541 C537 1.531 . S
C541 H553 0.960 . S
C541 H554 0.962 . S
C541 H555 0.960 . S
C542 C539 1.511 . S
C542 H556 0.961 . S
C542 H557 0.961 . S
C542 H558 0.961 . S
C543 C544 1.370 . S
C543 C545 1.363 . S
C543 H559 0.931 . S
C544 C543 1.370 . S
C544 C548 1.408 . S
C545 C543 1.363 . S
C545 C546 1.370 . S
C545 C549 1.524 . S
C546 C538 1.503 . S
C546 C545 1.370 . S
C546 C547 1.403 . S
C547 C546 1.403 . S
C547 C548 1.404 . S
C547 C550 1.539 . S
C548 C544 1.408 . S
C548 C547 1.404 . S
C548 H560 0.930 . S
C549 C545 1.524 . S
C549 H561 0.956 . S
C549 H562 0.961 . S
C549 H563 0.961 . S
C550 C547 1.539 . S
C550 H564 0.958 . S
C550 H565 0.961 . S
C550 H566 0.960 . S
H551 C535 0.931 . S
H552 C540 0.929 . S
H553 C541 0.960 . S
H554 C541 0.962 . S
H555 C541 0.960 . S
H556 C542 0.961 . S
H557 C542 0.961 . S
H558 C542 0.961 . S
H559 C543 0.931 . S
H560 C548 0.930 . S
H561 C549 0.956 . S
H562 C549 0.961 . S
H563 C549 0.961 . S
H564 C550 0.958 . S
H565 C550 0.961 . S
H566 C550 0.960 . S
C567 C568 1.391 . S
C567 C569 1.394 . S
C567 H583 0.931 . S
C568 C567 1.391 . S
C568 C572 1.376 . S
C569 C567 1.394 . S
C569 C570 1.369 . S
C569 C573 1.535 . S
C570 C569 1.369 . S
C570 C571 1.410 . S
C570 C578 1.503 . S
C571 C570 1.410 . S
C571 C572 1.392 . S
C571 C574 1.511 . S
C572 C568 1.376 . S
C572 C571 1.392 . S
C572 H584 0.929 . S
C573 C569 1.535 . S
C573 H585 0.997 . S
C573 H586 0.958 1_455 S
C573 H587 0.956 1_455 S
C574 C571 1.511 . S
C574 H588 0.961 . S
C574 H589 0.961 . S
C574 H590 0.961 . S
C575 C576 1.370 . S
C575 C577 1.363 . S
C575 H591 0.926 1_455 S
C576 C575 1.370 . S
C576 C580 1.408 . S
C577 C575 1.363 . S
C577 C578 1.370 1_556 S
C577 C581 1.524 1_456 S
C578 C570 1.503 . S
C578 C577 1.370 1_554 S
C578 C579 1.403 1_554 S
C579 C578 1.403 1_556 S
C579 C580 1.404 . S
C579 C582 1.539 1_556 S
C580 C576 1.408 . S
C580 C579 1.404 . S
C580 H592 0.930 . S
C581 C577 1.524 1_654 S
C581 H593 0.956 . S
C581 H594 0.960 1_655 S
C581 H595 0.961 1_554 S
C582 C579 1.539 1_554 S
C582 H596 0.958 1_554 S
C582 H597 0.961 1_554 S
C582 H598 0.960 . S
H583 C567 0.931 . S
H584 C572 0.929 . S
H585 C573 0.997 . S
H586 C573 0.958 1_655 S
H587 C573 0.956 1_655 S
H588 C574 0.961 . S
H589 C574 0.961 . S
H590 C574 0.961 . S
H591 C575 0.926 1_655 S
H592 C580 0.930 . S
H593 C581 0.956 . S
H594 C581 0.960 1_455 S
H595 C581 0.961 1_556 S
H596 C582 0.958 1_556 S
H597 C582 0.961 1_556 S
H598 C582 0.960 . S
C599 C600 1.391 . S
C599 C601 1.394 . S
C599 H615 0.931 . S
C600 C599 1.391 . S
C600 C604 1.376 . S
C601 C599 1.394 . S
C601 C602 1.369 . S
C601 C605 1.531 . S
C602 C601 1.369 . S
C602 C603 1.410 . S
C602 C610 1.503 . S
C603 C602 1.410 . S
C603 C604 1.392 . S
C603 C606 1.511 . S
C604 C600 1.376 . S
C604 C603 1.392 . S
C604 H616 0.929 . S
C605 C601 1.531 . S
C605 H617 0.960 . S
C605 H618 0.962 . S
C605 H619 0.960 . S
C606 C603 1.511 . S
C606 H620 0.961 1_545 S
C606 H621 0.961 . S
C606 H622 0.961 . S
C607 C608 1.370 . S
C607 C609 1.363 . S
C607 H623 0.931 . S
C608 C607 1.370 . S
C608 C612 1.408 . S
C609 C607 1.363 . S
C609 C610 1.370 . S
C609 C613 1.524 1_545 S
C610 C602 1.503 . S
C610 C609 1.370 . S
C610 C611 1.403 . S
C611 C610 1.403 . S
C611 C612 1.404 . S
C611 C614 1.539 . S
C612 C608 1.408 . S
C612 C611 1.404 . S
C612 H624 0.930 . S
C613 C609 1.524 1_565 S
C613 H625 0.956 1_565 S
C613 H626 0.961 . S
C613 H627 0.961 . S
C614 C611 1.539 . S
C614 H628 0.958 . S
C614 H629 0.961 . S
C614 H630 0.960 . S
H615 C599 0.931 . S
H616 C604 0.929 . S
H617 C605 0.960 . S
H618 C605 0.962 . S
H619 C605 0.960 . S
H620 C606 0.961 1_565 S
H621 C606 0.961 . S
H622 C606 0.961 . S
H623 C607 0.931 . S
H624 C612 0.930 . S
H625 C613 0.956 1_545 S
H626 C613 0.961 . S
H627 C613 0.961 . S
H628 C614 0.958 . S
H629 C614 0.961 . S
H630 C614 0.960 . S
C631 C632 1.391 . S
C631 C633 1.394 . S
C631 H647 0.931 . S
C632 C631 1.391 . S
C632 C636 1.376 . S
C633 C631 1.394 . S
C633 C634 1.369 . S
C633 C637 1.531 . S
C634 C633 1.369 . S
C634 C635 1.410 . S
C634 C642 1.503 . S
C635 C634 1.410 . S
C635 C636 1.392 . S
C635 C638 1.511 . S
C636 C632 1.376 . S
C636 C635 1.392 . S
C636 H648 0.929 . S
C637 C633 1.531 . S
C637 H649 0.960 . S
C637 H650 0.962 . S
C637 H651 0.960 . S
C638 C635 1.511 . S
C638 H652 0.961 . S
C638 H653 0.961 . S
C638 H654 0.961 . S
C639 C640 1.370 . S
C639 C641 1.363 . S
C639 H655 0.931 . S
C640 C639 1.370 . S
C640 C644 1.408 . S
C641 C639 1.363 . S
C641 C642 1.370 . S
C641 C645 1.524 . S
C642 C634 1.503 . S
C642 C641 1.370 . S
C642 C643 1.403 . S
C643 C642 1.403 . S
C643 C644 1.404 . S
C643 C646 1.539 . S
C644 C640 1.408 . S
C644 C643 1.404 . S
C644 H656 0.930 . S
C645 C641 1.524 . S
C645 H657 0.956 . S
C645 H658 0.961 . S
C645 H659 0.961 . S
C646 C643 1.539 . S
C646 H660 0.958 . S
C646 H661 0.961 . S
C646 H662 0.960 . S
H647 C631 0.931 . S
H648 C636 0.929 . S
H649 C637 0.960 . S
H650 C637 0.962 . S
H651 C637 0.960 . S
H652 C638 0.961 . S
H653 C638 0.961 . S
H654 C638 0.961 . S
H655 C639 0.931 . S
H656 C644 0.930 . S
H657 C645 0.956 . S
H658 C645 0.961 . S
H659 C645 0.961 . S
H660 C646 0.958 . S
H661 C646 0.961 . S
H662 C646 0.960 . S
C663 C664 1.391 . S
C663 C665 1.394 . S
C663 H679 0.931 . S
C664 C663 1.391 . S
C664 C668 1.376 . S
C665 C663 1.394 . S
C665 C666 1.369 . S
C665 C669 1.531 1_545 S
C666 C665 1.369 . S
C666 C667 1.410 . S
C666 C674 1.503 . S
C667 C666 1.410 . S
C667 C668 1.392 . S
C667 C670 1.511 . S
C668 C664 1.376 . S
C668 C667 1.392 . S
C668 H680 0.929 . S
C669 C665 1.531 1_565 S
C669 H681 0.960 . S
C669 H682 0.962 . S
C669 H683 0.960 . S
C670 C667 1.511 . S
C670 H684 0.961 . S
C670 H685 0.961 . S
C670 H686 0.961 . S
C671 C672 1.370 . S
C671 C673 1.363 . S
C671 H687 0.931 . S
C672 C671 1.370 . S
C672 C676 1.408 . S
C673 C671 1.363 . S
C673 C674 1.370 . S
C673 C677 1.524 . S
C674 C666 1.503 . S
C674 C673 1.370 . S
C674 C675 1.403 . S
C675 C674 1.403 . S
C675 C676 1.404 . S
C675 C678 1.539 . S
C676 C672 1.408 . S
C676 C675 1.404 . S
C676 H688 0.930 . S
C677 C673 1.524 . S
C677 H689 0.956 . S
C677 H690 0.961 . S
C677 H691 0.961 . S
C678 C675 1.539 . S
C678 H692 0.958 1_545 S
C678 H693 0.961 . S
C678 H694 0.960 . S
H679 C663 0.931 . S
H680 C668 0.929 . S
H681 C669 0.960 . S
H682 C669 0.962 . S
H683 C669 0.960 . S
H684 C670 0.961 . S
H685 C670 0.961 . S
H686 C670 0.961 . S
H687 C671 0.931 . S
H688 C676 0.930 . S
H689 C677 0.956 . S
H690 C677 0.961 . S
H691 C677 0.961 . S
H692 C678 0.958 1_565 S
H693 C678 0.961 . S
H694 C678 0.960 . S
C695 C696 1.391 . S
C695 C697 1.394 . S
C695 H711 0.931 . S
C696 C695 1.391 . S
C696 C700 1.376 . S
C697 C695 1.394 . S
C697 C698 1.369 . S
C697 C701 1.531 . S
C698 C697 1.369 . S
C698 C699 1.410 . S
C698 C706 1.503 . S
C699 C698 1.410 . S
C699 C700 1.392 . S
C699 C702 1.511 . S
C700 C696 1.376 . S
C700 C699 1.392 . S
C700 H712 0.929 . S
C701 C697 1.531 . S
C701 H713 0.960 . S
C701 H714 0.962 . S
C701 H715 0.960 . S
C702 C699 1.511 . S
C702 H716 0.961 . S
C702 H717 0.961 . S
C702 H718 0.961 . S
C703 C704 1.370 . S
C703 C705 1.363 . S
C703 H719 0.931 . S
C704 C703 1.370 . S
C704 C708 1.408 . S
C705 C703 1.363 . S
C705 C706 1.370 1_554 S
C705 C709 1.524 1_554 S
C706 C698 1.503 . S
C706 C705 1.370 1_556 S
C706 C707 1.403 1_556 S
C707 C706 1.403 1_554 S
C707 C708 1.404 . S
C707 C710 1.539 . S
C708 C704 1.408 . S
C708 C707 1.404 . S
C708 H720 0.930 . S
C709 C705 1.524 1_556 S
C709 H721 0.956 . S
C709 H722 0.961 . S
C709 H723 0.961 . S
C710 C707 1.539 . S
C710 H724 0.958 . S
C710 H725 0.961 . S
C710 H726 0.960 1_554 S
H711 C695 0.931 . S
H712 C700 0.929 . S
H713 C701 0.960 . S
H714 C701 0.962 . S
H715 C701 0.960 . S
H716 C702 0.961 . S
H717 C702 0.961 . S
H718 C702 0.961 . S
H719 C703 0.931 . S
H720 C708 0.930 . S
H721 C709 0.956 . S
H722 C709 0.961 . S
H723 C709 0.961 . S
H724 C710 0.958 . S
H725 C710 0.961 . S
H726 C710 0.960 1_556 S
C727 C728 1.391 . S
C727 C729 1.394 . S
C727 H743 0.931 1_455 S
C728 C727 1.391 . S
C728 C732 1.376 . S
C729 C727 1.394 . S
C729 C730 1.369 . S
C729 C733 1.531 1_455 S
C730 C729 1.369 . S
C730 C731 1.410 . S
C730 C738 1.503 . S
C731 C730 1.410 . S
C731 C732 1.392 . S
C731 C734 1.511 . S
C732 C728 1.376 . S
C732 C731 1.392 . S
C732 H744 0.929 . S
C733 C729 1.531 1_655 S
C733 H745 0.960 . S
C733 H746 0.962 . S
C733 H747 0.960 . S
C734 C731 1.511 . S
C734 H748 0.961 . S
C734 H749 0.961 . S
C734 H750 0.961 . S
C735 C736 1.370 . S
C735 C737 1.363 . S
C735 H751 0.931 . S
C736 C735 1.370 . S
C736 C740 1.408 . S
C737 C735 1.363 . S
C737 C738 1.370 . S
C737 C741 1.524 . S
C738 C730 1.503 . S
C738 C737 1.370 . S
C738 C739 1.403 . S
C739 C738 1.403 . S
C739 C740 1.404 . S
C739 C742 1.539 . S
C740 C736 1.408 . S
C740 C739 1.404 . S
C740 H752 0.930 . S
C741 C737 1.524 . S
C741 H753 0.956 . S
C741 H754 0.961 . S
C741 H755 0.961 . S
C742 C739 1.539 . S
C742 H756 0.958 . S
C742 H757 0.961 . S
C742 H758 0.960 . S
H743 C727 0.931 1_655 S
H744 C732 0.929 . S
H745 C733 0.960 . S
H746 C733 0.962 . S
H747 C733 0.960 . S
H748 C734 0.961 . S
H749 C734 0.961 . S
H750 C734 0.961 . S
H751 C735 0.931 . S
H752 C740 0.930 . S
H753 C741 0.956 . S
H754 C741 0.961 . S
H755 C741 0.961 . S
H756 C742 0.958 . S
H757 C742 0.961 . S
H758 C742 0.960 . S
C184 C20 1.272 . S
C192 C175 1.236 . S
C216 C41 1.308 . S
C224 C137 1.250 . S
C248 C64 1.344 . S
C256 C156 1.287 . S
C280 C19 1.320 . S
C288 C170 1.338 . S
C320 C132 1.300 . S
C312 C44 1.292 . S
C352 C151 1.252 . S
C344 C67 1.224 . S
C376 C43 1.264 . S
C384 C99 1.234 . S
C408 C66 1.142 . S
C416 C113 1.235 1_655 S
C440 C21 1.258 . S
C448 C75 1.309 1_565 S
C480 C94 1.323 . S
C472 C42 1.287 . S
C512 C118 1.299 . S
C504 C65 1.325 . S
C536 C18 1.308 . S
C544 C80 1.256 . S
C576 C109 1.579 . S
C568 C17 1.583 . S
C600 C39 1.577 . S
C608 C71 1.585 . S
C632 C62 1.590 . S
C640 C90 1.562 . S
C672 C147 1.578 . S
C664 C40 1.554 . S
C704 C166 1.550 . S
C696 C63 1.579 . S
C728 C16 1.573 . S
C736 C128 1.577 . S
