# Generated by pormake.
# Topology nom, (4,4)-cn, num edge types: 1
# Building blocks:
#     Node 0, Type 0, BuildingBlock: MUDLON_clean_linker_0, # of connection points: 4
#     Node 1, Type 0, BuildingBlock: MUDLON_clean_linker_0, # of connection points: 4
#     Node 2, Type 0, BuildingBlock: MUDLON_clean_linker_0, # of connection points: 4
#     Node 3, Type 0, BuildingBlock: MUDLON_clean_linker_0, # of connection points: 4
#     Node 4, Type 0, BuildingBlock: MUDLON_clean_linker_0, # of connection points: 4
#     Node 5, Type 0, BuildingBlock: MUDLON_clean_linker_0, # of connection points: 4
#     Node 6, Type 1, BuildingBlock: GALJAG_clean_sbu_0, # of connection points: 4
#     Node 7, Type 1, BuildingBlock: GALJAG_clean_sbu_0, # of connection points: 4
#     Node 8, Type 1, BuildingBlock: GALJAG_clean_sbu_0, # of connection points: 4
#     Node 9, Type 1, BuildingBlock: GALJAG_clean_sbu_0, # of connection points: 4
#     Node 10, Type 1, BuildingBlock: GALJAG_clean_sbu_0, # of connection points: 4
#     Node 11, Type 1, BuildingBlock: GALJAG_clean_sbu_0, # of connection points: 4
#     Edge 12, Type (0, 1), BuildingBlock: XUDNAN_clean_linker_2, # of connection points: 2
#     Edge 13, Type (0, 1), BuildingBlock: XUDNAN_clean_linker_2, # of connection points: 2
#     Edge 14, Type (0, 1), BuildingBlock: XUDNAN_clean_linker_2, # of connection points: 2
#     Edge 15, Type (0, 1), BuildingBlock: XUDNAN_clean_linker_2, # of connection points: 2
#     Edge 16, Type (0, 1), BuildingBlock: XUDNAN_clean_linker_2, # of connection points: 2
#     Edge 17, Type (0, 1), BuildingBlock: XUDNAN_clean_linker_2, # of connection points: 2
#     Edge 18, Type (0, 1), BuildingBlock: XUDNAN_clean_linker_2, # of connection points: 2
#     Edge 19, Type (0, 1), BuildingBlock: XUDNAN_clean_linker_2, # of connection points: 2
#     Edge 20, Type (0, 1), BuildingBlock: XUDNAN_clean_linker_2, # of connection points: 2
#     Edge 21, Type (0, 1), BuildingBlock: XUDNAN_clean_linker_2, # of connection points: 2
#     Edge 22, Type (0, 1), BuildingBlock: XUDNAN_clean_linker_2, # of connection points: 2
#     Edge 23, Type (0, 1), BuildingBlock: XUDNAN_clean_linker_2, # of connection points: 2
#     Edge 24, Type (0, 1), BuildingBlock: XUDNAN_clean_linker_2, # of connection points: 2
#     Edge 25, Type (0, 1), BuildingBlock: XUDNAN_clean_linker_2, # of connection points: 2
#     Edge 26, Type (0, 1), BuildingBlock: XUDNAN_clean_linker_2, # of connection points: 2
#     Edge 27, Type (0, 1), BuildingBlock: XUDNAN_clean_linker_2, # of connection points: 2
#     Edge 28, Type (0, 1), BuildingBlock: XUDNAN_clean_linker_2, # of connection points: 2
#     Edge 29, Type (0, 1), BuildingBlock: XUDNAN_clean_linker_2, # of connection points: 2
#     Edge 30, Type (0, 1), BuildingBlock: XUDNAN_clean_linker_2, # of connection points: 2
#     Edge 31, Type (0, 1), BuildingBlock: XUDNAN_clean_linker_2, # of connection points: 2
#     Edge 32, Type (0, 1), BuildingBlock: XUDNAN_clean_linker_2, # of connection points: 2
#     Edge 33, Type (0, 1), BuildingBlock: XUDNAN_clean_linker_2, # of connection points: 2
#     Edge 34, Type (0, 1), BuildingBlock: XUDNAN_clean_linker_2, # of connection points: 2
#     Edge 35, Type (0, 1), BuildingBlock: XUDNAN_clean_linker_2, # of connection points: 2
# Relax obj value: 0.015
# Max RMSD: 0.120
# Mean RMSD: 0.084
data_MOF--net-nom--node1-GALJAG_clean_sbu_0--node2-MUDLON_clean_linker_0--edge1-XUDNAN_clean_linker_2
_symmetry_space_group_name_H-M    P1
_symmetry_Int_Tables_number       1
_symmetry_cell_setting            triclinic
loop_
_symmetry_equiv_pos_as_xyz
'x, y, z'
_cell_length_a     59.891475
_cell_length_b     60.864077
_cell_length_c     62.50494
_cell_angle_alpha  90.400292
_cell_angle_beta   89.785499
_cell_angle_gamma 120.55561
loop_
_atom_site_label
_atom_site_type_symbol
_atom_site_fract_x
_atom_site_fract_y
_atom_site_fract_z
_atom_type_partial_charge
H0 H 0.12773 0.6205 0.33756 0.0
N1 N 0.10518 0.5685 0.33581 0.0
H2 H 0.16321 0.65148 0.315 0.0
H3 H 0.12797 0.55883 0.30343 0.0
H4 H 0.1643 0.58991 0.28133 0.0
H5 H 0.0867 0.58693 0.3675 0.0
H6 H 0.10078 0.59534 0.40441 0.0
H7 H 0.14043 0.56102 0.35471 0.0
H8 H 0.1566 0.57178 0.39123 0.0
H9 H 0.06475 0.52115 0.3371 0.0
H10 H 0.08504 0.59859 0.32381 0.0
H11 H 0.019 0.50689 0.33076 0.0
H12 H 0.04012 0.58452 0.31652 0.0
H13 H 0.88981 0.46846 0.28786 0.0
H14 H 0.87323 0.45663 0.25174 0.0
H15 H 0.92136 0.53529 0.23221 0.0
H16 H 0.9359 0.54723 0.26911 0.0
H17 H 0.88616 0.53043 0.313 0.0
H18 H 0.84678 0.5064 0.33428 0.0
H19 H 0.86998 0.45175 0.34981 0.0
H20 H 0.9089 0.47555 0.32792 0.0
H21 H 0.94323 0.48817 0.29592 0.0
H22 H 0.98803 0.50028 0.30387 0.0
H23 H 1.00016 0.56974 0.33393 0.0
N24 N 0.92096 0.51728 0.3033 0.0
H25 H 0.95576 0.55795 0.32491 0.0
C26 C 0.12483 0.58724 0.32185 0.0
C27 C 0.1351 0.61361 0.32496 0.0
C28 C 0.15542 0.6313 0.31214 0.0
C29 C 0.16635 0.62301 0.29643 0.0
C30 C 0.15614 0.59672 0.29334 0.0
C31 C 0.1354 0.57902 0.30583 0.0
C32 C 0.11227 0.57292 0.35821 0.0
C33 C 0.10155 0.58299 0.37256 0.0
C34 C 0.11002 0.58823 0.39379 0.0
C35 C 0.13013 0.58453 0.40107 0.0
C36 C 0.14075 0.57444 0.38661 0.0
C37 C 0.13169 0.56846 0.36557 0.0
C38 C 0.07859 0.56083 0.33075 0.0
C39 C 0.05942 0.53501 0.33253 0.0
C40 C 0.03329 0.5269 0.32882 0.0
C41 C 0.02574 0.54453 0.32317 0.0
C42 C 0.04504 0.5704 0.32121 0.0
C43 C 0.07106 0.5785 0.32511 0.0
C44 C 0.91353 0.50902 0.2814 0.0
C45 C 0.89668 0.48325 0.2759 0.0
C46 C 0.88745 0.4764 0.25497 0.0
C47 C 0.89547 0.495 0.23886 0.0
C48 C 0.91388 0.52048 0.2442 0.0
C49 C 0.92253 0.52738 0.26525 0.0
C50 C 0.90045 0.50489 0.31887 0.0
C51 C 0.88296 0.51357 0.3214 0.0
C52 C 0.86051 0.49983 0.33365 0.0
C53 C 0.85509 0.47702 0.34369 0.0
C54 C 0.87337 0.46904 0.34205 0.0
C55 C 0.89581 0.48278 0.32971 0.0
C56 C 0.94635 0.52246 0.30956 0.0
C57 C 0.95557 0.50598 0.30423 0.0
C58 C 0.98118 0.51288 0.30894 0.0
C59 C 0.99795 0.53621 0.3193 0.0
C60 C 0.98813 0.55199 0.32543 0.0
C61 C 0.96268 0.5452 0.32051 0.0
H62 H 0.45589 0.90064 0.498 0.0
N63 N 0.44789 0.92598 0.46724 0.0
H64 H 0.42371 0.85941 0.51343 0.0
H65 H 0.39503 0.9031 0.46343 0.0
H66 H 0.36318 0.8621 0.47846 0.0
H67 H 0.42012 0.93407 0.43687 0.0
H68 H 0.41357 0.91922 0.39983 0.0
H69 H 0.47192 0.90548 0.44672 0.0
H70 H 0.46675 0.89179 0.40928 0.0
H71 H 0.4933 0.96813 0.46141 0.0
H72 H 0.41618 0.94213 0.48533 0.0
H73 H 0.5054 0.01208 0.46937 0.0
H74 H 0.42853 0.98552 0.49459 0.0
H75 H 0.54867 0.13209 0.51335 0.0
H76 H 0.57301 0.14901 0.54643 0.0
H77 H 0.50134 0.11263 0.58233 0.0
H78 H 0.47702 0.09652 0.54884 0.0
H79 H 0.48222 0.13959 0.50885 0.0
H80 H 0.49808 0.17639 0.48501 0.0
H81 H 0.54259 0.15044 0.44983 0.0
H82 H 0.52725 0.11404 0.47402 0.0
H83 H 0.52786 0.0843 0.50714 0.0
H84 H 0.51555 0.04106 0.49697 0.0
H85 H 0.43826 0.02524 0.48194 0.0
N86 N 0.4958 0.10438 0.50919 0.0
H87 H 0.45044 0.0683 0.49372 0.0
C88 C 0.42807 0.90491 0.47941 0.0
C89 C 0.43557 0.89268 0.49423 0.0
C90 C 0.41721 0.86921 0.50303 0.0
C91 C 0.39106 0.85753 0.49692 0.0
C92 C 0.38328 0.87062 0.48326 0.0
C93 C 0.40154 0.8941 0.47463 0.0
C94 C 0.44638 0.92064 0.44459 0.0
C95 C 0.43043 0.92495 0.43092 0.0
C96 C 0.42688 0.9166 0.40964 0.0
C97 C 0.43946 0.90407 0.4015 0.0
C98 C 0.45627 0.90082 0.41505 0.0
C99 C 0.45954 0.90889 0.43638 0.0
C100 C 0.45397 0.95158 0.4728 0.0
C101 C 0.47906 0.97186 0.46859 0.0
C102 C 0.48598 0.99701 0.47333 0.0
C103 C 0.46805 0.00256 0.48282 0.0
C104 C 0.44282 0.98219 0.48699 0.0
C105 C 0.43575 0.95705 0.48186 0.0
C106 C 0.51089 0.1132 0.52863 0.0
C107 C 0.53816 0.12772 0.52831 0.0
C108 C 0.5521 0.13721 0.54732 0.0
C109 C 0.53916 0.13226 0.5671 0.0
C110 C 0.51192 0.11717 0.56738 0.0
C111 C 0.49799 0.10779 0.54832 0.0
C112 C 0.50325 0.12392 0.49318 0.0
C113 C 0.4951 0.14166 0.49581 0.0
C114 C 0.50426 0.16267 0.4823 0.0
C115 C 0.52155 0.16619 0.46565 0.0
C116 C 0.52909 0.14799 0.46246 0.0
C117 C 0.52026 0.12716 0.47626 0.0
C118 C 0.48984 0.07947 0.50163 0.0
C119 C 0.50821 0.07156 0.50185 0.0
C120 C 0.50115 0.04673 0.49571 0.0
C121 C 0.47577 0.02935 0.4887 0.0
C122 C 0.45778 0.03773 0.48774 0.0
C123 C 0.46474 0.06244 0.49425 0.0
H124 H 0.44899 0.56215 0.66641 0.0
N125 N 0.41933 0.51156 0.67683 0.0
H126 H 0.43524 0.58681 0.64591 0.0
H127 H 0.375 0.49413 0.65574 0.0
H128 H 0.35997 0.51914 0.63672 0.0
H129 H 0.3807 0.48902 0.70458 0.0
H130 H 0.37966 0.50162 0.7417 0.0
H131 H 0.45994 0.55015 0.69876 0.0
H132 H 0.45893 0.56333 0.73585 0.0
H133 H 0.46441 0.53767 0.65282 0.0
H134 H 0.41579 0.46767 0.68681 0.0
H135 H 0.49384 0.52294 0.64347 0.0
H136 H 0.44615 0.45327 0.67849 0.0
H137 H 0.58704 0.45734 0.62151 0.0
H138 H 0.59259 0.44653 0.58504 0.0
H139 H 0.51621 0.43254 0.56905 0.0
H140 H 0.51007 0.44135 0.60556 0.0
H141 H 0.5183 0.40188 0.6336 0.0
H142 H 0.52268 0.37098 0.65543 0.0
H143 H 0.57392 0.43154 0.69837 0.0
H144 H 0.57008 0.46253 0.67611 0.0
H145 H 0.55581 0.50114 0.64742 0.0
H146 H 0.52572 0.51562 0.65689 0.0
H147 H 0.46171 0.43792 0.65157 0.0
N148 N 0.54486 0.4538 0.63919 0.0
H149 H 0.49219 0.42368 0.64329 0.0
C150 C 0.41319 0.52601 0.66223 0.0
C151 C 0.42992 0.55233 0.65927 0.0
C152 C 0.42173 0.5666 0.64784 0.0
C153 C 0.39624 0.5552 0.63986 0.0
C154 C 0.37984 0.52868 0.64228 0.0
C155 C 0.38834 0.51428 0.65323 0.0
C156 C 0.42024 0.51868 0.69896 0.0
C157 C 0.3979 0.50507 0.71142 0.0
C158 C 0.39739 0.51228 0.73257 0.0
C159 C 0.41922 0.53348 0.74163 0.0
C160 C 0.44177 0.54706 0.72918 0.0
C161 C 0.44237 0.53957 0.70804 0.0
C162 C 0.43746 0.50366 0.6705 0.0
C163 C 0.45994 0.51917 0.65845 0.0
C164 C 0.47711 0.51074 0.65321 0.0
C165 C 0.47256 0.48685 0.66021 0.0
C166 C 0.45017 0.47153 0.6724 0.0
C167 C 0.43283 0.4798 0.67733 0.0
C168 C 0.54819 0.4501 0.61668 0.0
C169 C 0.57155 0.45204 0.61007 0.0
C170 C 0.57474 0.44599 0.58909 0.0
C171 C 0.55477 0.43837 0.57393 0.0
C172 C 0.5318 0.43757 0.58031 0.0
C173 C 0.52836 0.44298 0.60142 0.0
C174 C 0.54428 0.43465 0.6531 0.0
C175 C 0.53031 0.4085 0.6478 0.0
C176 C 0.53282 0.39087 0.66024 0.0
C177 C 0.54875 0.39895 0.67848 0.0
C178 C 0.56143 0.42482 0.68444 0.0
C179 C 0.55932 0.4425 0.67176 0.0
C180 C 0.52632 0.46146 0.6446 0.0
C181 C 0.53527 0.48732 0.6484 0.0
C182 C 0.51795 0.49553 0.65362 0.0
C183 C 0.49111 0.47802 0.6549 0.0
C184 C 0.4822 0.45199 0.65111 0.0
C185 C 0.49961 0.44376 0.64623 0.0
H186 H 0.14241 0.605 0.81851 0.0
N187 N 0.10465 0.56031 0.80428 0.0
H188 H 0.17891 0.61325 0.8416 0.0
H189 H 0.11143 0.52403 0.82488 0.0
H190 H 0.14748 0.53213 0.84777 0.0
H191 H 0.12094 0.5304 0.78483 0.0
H192 H 0.13654 0.53426 0.74819 0.0
H193 H 0.10716 0.59248 0.77454 0.0
H194 H 0.12286 0.59653 0.73762 0.0
H195 H 0.06907 0.57064 0.81836 0.0
H196 H 0.07942 0.5081 0.79981 0.0
H197 H 0.0234 0.54067 0.82597 0.0
H198 H 0.03505 0.47801 0.80935 0.0
H199 H 0.88638 0.44253 0.8595 0.0
H200 H 0.87024 0.43731 0.89584 0.0
H201 H 0.92765 0.4186 0.91608 0.0
H202 H 0.94166 0.42119 0.87907 0.0
H203 H 0.88863 0.38103 0.83755 0.0
H204 H 0.8502 0.36208 0.81451 0.0
H205 H 0.86904 0.43735 0.79444 0.0
H206 H 0.90734 0.45621 0.81787 0.0
H207 H 0.95006 0.47982 0.85912 0.0
H208 H 0.99407 0.51127 0.84892 0.0
H209 H 0.99277 0.45915 0.80075 0.0
N210 N 0.92189 0.43021 0.84445 0.0
H211 H 0.94978 0.42692 0.81272 0.0
C212 C 0.12393 0.56401 0.81997 0.0
C213 C 0.14321 0.58903 0.82516 0.0
C214 C 0.1641 0.59369 0.8382 0.0
C215 C 0.16606 0.57332 0.84646 0.0
C216 C 0.14634 0.54822 0.84186 0.0
C217 C 0.12558 0.54357 0.82865 0.0
C218 C 0.11263 0.56108 0.78238 0.0
C219 C 0.12087 0.54462 0.77461 0.0
C220 C 0.12983 0.54687 0.75361 0.0
C221 C 0.13092 0.5657 0.74 0.0
C222 C 0.12248 0.58199 0.74778 0.0
C223 C 0.11335 0.57961 0.76875 0.0
C224 C 0.07793 0.54178 0.80896 0.0
C225 C 0.06157 0.55039 0.81631 0.0
C226 C 0.03546 0.53312 0.82082 0.0
C227 C 0.02517 0.50662 0.81849 0.0
C228 C 0.04177 0.49812 0.81103 0.0
C229 C 0.06761 0.51546 0.80593 0.0
C230 C 0.91471 0.43132 0.86639 0.0
C231 C 0.89539 0.43712 0.8717 0.0
C232 C 0.88637 0.43446 0.89274 0.0
C233 C 0.8971 0.42689 0.90913 0.0
C234 C 0.91801 0.42335 0.90393 0.0
C235 C 0.92638 0.42516 0.88279 0.0
C236 C 0.90084 0.41988 0.82927 0.0
C237 C 0.88457 0.39337 0.82799 0.0
C238 C 0.86262 0.38265 0.81496 0.0
C239 C 0.85664 0.39829 0.80278 0.0
C240 C 0.87334 0.42489 0.80357 0.0
C241 C 0.89519 0.43566 0.81688 0.0
C242 C 0.94667 0.45063 0.83696 0.0
C243 C 0.95927 0.47505 0.84646 0.0
C244 C 0.98454 0.49328 0.84035 0.0
C245 C 0.99753 0.48788 0.82413 0.0
C246 C 0.98409 0.46393 0.81382 0.0
C247 C 0.95923 0.44549 0.82041 0.0
H248 H 0.56164 0.13859 0.98237 0.0
N249 N 0.57193 0.10484 0.965 0.0
H250 H 0.58951 0.17466 0.00588 0.0
H251 H 0.61924 0.11606 0.98151 0.0
H252 H 0.64696 0.15179 0.00485 0.0
H253 H 0.61664 0.11985 0.9424 0.0
H254 H 0.62491 0.13427 0.90535 0.0
H255 H 0.53907 0.10691 0.93787 0.0
H256 H 0.54716 0.12132 0.9006 0.0
H257 H 0.52603 0.06971 0.97991 0.0
H258 H 0.60006 0.0808 0.96027 0.0
H259 H 0.51115 0.0252 0.98819 0.0
H260 H 0.58646 0.03735 0.9702 0.0
H261 H 0.47111 0.9043 0.02144 0.0
H262 H 0.45578 0.8899 0.0579 0.0
H263 H 0.53461 0.91652 0.07775 0.0
H264 H 0.54967 0.93129 0.04137 0.0
H265 H 0.53565 0.89222 0.00169 0.0
H266 H 0.51522 0.85397 0.97893 0.0
H267 H 0.46057 0.87482 0.95622 0.0
H268 H 0.48063 0.91278 0.97963 0.0
H269 H 0.5018 0.95608 0.02332 0.0
H270 H 0.51412 0.99869 0.01238 0.0
H271 H 0.56181 0.99483 0.96204 0.0
N272 N 0.52114 0.92638 0.00726 0.0
H273 H 0.55096 0.95263 0.97429 0.0
C274 C 0.58805 0.12441 0.98026 0.0
C275 C 0.58011 0.14123 0.98746 0.0
C276 C 0.59612 0.16187 1.00075 0.0
C277 C 0.62045 0.16606 0.0072 0.0
C278 C 0.62819 0.14888 1.00038 0.0
C279 C 0.61225 0.12835 0.98693 0.0
C280 C 0.57708 0.11212 0.94285 0.0
C281 C 0.60124 0.11974 0.93336 0.0
C282 C 0.60594 0.12799 0.91212 0.0
C283 C 0.58668 0.12895 0.90003 0.0
C284 C 0.56247 0.12105 0.90955 0.0
C285 C 0.55775 0.11268 0.93074 0.0
C286 C 0.56426 0.07882 0.96992 0.0
C287 C 0.53921 0.06261 0.97773 0.0
C288 C 0.53084 0.03719 0.98261 0.0
C289 C 0.5476 0.02743 0.98014 0.0
C290 C 0.57274 0.04381 0.9721 0.0
C291 C 0.58083 0.06905 0.96676 0.0
C292 C 0.5116 0.91892 0.02879 0.0
C293 C 0.48503 0.90711 0.03371 0.0
C294 C 0.47631 0.89879 0.05453 0.0
C295 C 0.49395 0.90204 0.07079 0.0
C296 C 0.52052 0.91408 0.06576 0.0
C297 C 0.5292 0.92245 0.04498 0.0
C298 C 0.50987 0.9054 0.99221 0.0
C299 C 0.51942 0.88863 0.99166 0.0
C300 C 0.50771 0.86683 0.97877 0.0
C301 C 0.48639 0.86157 0.96589 0.0
C302 C 0.47712 0.87865 0.96594 0.0
C303 C 0.48856 0.90028 0.97924 0.0
C304 C 0.52555 0.95077 0.99971 0.0
C305 C 0.51488 0.9641 0.0099 0.0
C306 C 0.52183 0.98873 0.00343 0.0
C307 C 0.53917 1.00059 0.98632 0.0
C308 C 0.54896 0.9868 0.97563 0.0
C309 C 0.54248 0.96242 0.98242 0.0
H310 H 0.57293 0.4664 0.16371 0.0
N311 N 0.60381 0.51702 0.17403 0.0
H312 H 0.58578 0.44043 0.14357 0.0
H313 H 0.64786 0.53297 0.15277 0.0
H314 H 0.66188 0.5067 0.13402 0.0
H315 H 0.64293 0.53883 0.20143 0.0
H316 H 0.64397 0.52636 0.23842 0.0
H317 H 0.56279 0.47953 0.19622 0.0
H318 H 0.56375 0.46652 0.23319 0.0
H319 H 0.56 0.49231 0.14821 0.0
H320 H 0.60649 0.56013 0.1861 0.0
H321 H 0.5309 0.50743 0.13929 0.0
H322 H 0.57645 0.57487 0.17807 0.0
H323 H 0.43601 0.56812 0.11944 0.0
H324 H 0.43032 0.57922 0.08329 0.0
H325 H 0.51025 0.60317 0.06912 0.0
H326 H 0.51622 0.59392 0.10549 0.0
H327 H 0.50587 0.62821 0.13335 0.0
H328 H 0.50021 0.65852 0.15534 0.0
H329 H 0.44806 0.59716 0.19678 0.0
H330 H 0.45314 0.56672 0.17431 0.0
H331 H 0.46838 0.52856 0.14394 0.0
H332 H 0.4982 0.51373 0.15296 0.0
H333 H 0.56217 0.59169 0.15152 0.0
N334 N 0.47946 0.5762 0.13784 0.0
H335 H 0.53191 0.60624 0.14365 0.0
C336 C 0.6093 0.50189 0.15941 0.0
C337 C 0.59203 0.4756 0.1566 0.0
C338 C 0.59966 0.4606 0.14535 0.0
C339 C 0.6251 0.47123 0.13739 0.0
C340 C 0.64204 0.49774 0.13958 0.0
C341 C 0.63411 0.51285 0.15037 0.0
C342 C 0.60293 0.51009 0.19613 0.0
C343 C 0.62553 0.52323 0.20839 0.0
C344 C 0.62604 0.51609 0.22947 0.0
C345 C 0.60393 0.49544 0.23866 0.0
C346 C 0.58113 0.48235 0.22642 0.0
C347 C 0.58055 0.48976 0.20535 0.0
C348 C 0.58581 0.52512 0.16794 0.0
C349 C 0.56404 0.51036 0.15485 0.0
C350 C 0.54707 0.51903 0.14981 0.0
C351 C 0.55112 0.54241 0.15797 0.0
C352 C 0.57283 0.55702 0.17112 0.0
C353 C 0.58997 0.54852 0.17589 0.0
C354 C 0.47638 0.57999 0.11543 0.0
C355 C 0.45221 0.57556 0.10842 0.0
C356 C 0.44898 0.58181 0.08764 0.0
C357 C 0.46985 0.59227 0.07311 0.0
C358 C 0.49384 0.59576 0.0799 0.0
C359 C 0.49721 0.59006 0.10085 0.0
C360 C 0.47952 0.59505 0.15205 0.0
C361 C 0.49339 0.62128 0.14725 0.0
C362 C 0.49014 0.63858 0.15978 0.0
C363 C 0.47357 0.6301 0.17763 0.0
C364 C 0.46101 0.60418 0.18314 0.0
C365 C 0.46386 0.58681 0.17036 0.0
C366 C 0.49785 0.56838 0.14307 0.0
C367 C 0.48885 0.54237 0.14567 0.0
C368 C 0.50601 0.53396 0.15064 0.0
C369 C 0.53276 0.55145 0.15288 0.0
C370 C 0.54173 0.57763 0.15028 0.0
C371 C 0.52446 0.58603 0.14562 0.0
In372 In 0.62704 0.39 0.40081 0.0
O373 O 0.6711 0.41388 0.40675 0.0
O374 O 0.65692 0.38294 0.38475 0.0
C375 C 0.60602 0.39992 0.43506 0.0
C376 C 0.62022 0.41663 0.36955 0.0
C377 C 0.60288 0.33926 0.40705 0.0
O378 O 0.62997 0.40754 0.43402 0.0
O379 O 0.59305 0.38782 0.41879 0.0
O380 O 0.60066 0.34866 0.38973 0.0
O381 O 0.61733 0.35542 0.42091 0.0
C382 C 0.67634 0.40107 0.39385 0.0
O383 O 0.60959 0.39263 0.36877 0.0
O384 O 0.63404 0.42684 0.38587 0.0
In385 In 0.25769 0.63681 0.56982 0.0
O386 O 0.27802 0.61332 0.56769 0.0
O387 O 0.29309 0.64531 0.58884 0.0
C388 C 0.22202 0.6224 0.53873 0.0
C389 C 0.22577 0.61669 0.60361 0.0
C390 C 0.2869 0.68329 0.55274 0.0
O391 O 0.23667 0.61303 0.54002 0.0
O392 O 0.22495 0.63798 0.55345 0.0
O393 O 0.27709 0.68052 0.57124 0.0
O394 O 0.28262 0.66295 0.5436 0.0
C395 C 0.295 0.62698 0.58148 0.0
O396 O 0.23979 0.6406 0.60117 0.0
O397 O 0.22799 0.60341 0.58908 0.0
In398 In 0.63212 0.25801 0.73461 0.0
O399 O 0.67355 0.28735 0.72401 0.0
O400 O 0.66541 0.28316 0.75721 0.0
C401 C 0.61713 0.22693 0.70007 0.0
C402 C 0.61952 0.22241 0.7652 0.0
C403 C 0.60928 0.28628 0.72966 0.0
O404 O 0.64045 0.23963 0.70615 0.0
O405 O 0.60132 0.22972 0.71152 0.0
O406 O 0.60781 0.27497 0.74692 0.0
O407 O 0.62223 0.28339 0.71515 0.0
C408 C 0.68205 0.29426 0.74275 0.0
O409 O 0.60953 0.23636 0.76454 0.0
O410 O 0.63533 0.22618 0.75032 0.0
In411 In 0.39023 0.63691 0.90378 0.0
O412 O 0.34778 0.61418 0.91466 0.0
O413 O 0.35629 0.63465 0.88554 0.0
C414 C 0.41431 0.62962 0.93696 0.0
C415 C 0.39935 0.61109 0.87285 0.0
C416 C 0.40928 0.6874 0.90922 0.0
O417 O 0.38988 0.61848 0.9356 0.0
O418 O 0.42645 0.64415 0.92152 0.0
O419 O 0.41163 0.67822 0.89172 0.0
O420 O 0.39728 0.67118 0.92365 0.0
C421 C 0.33919 0.62024 0.89873 0.0
O422 O 0.4087 0.63493 0.87196 0.0
O423 O 0.38569 0.60064 0.88916 0.0
In424 In 0.76466 0.38718 0.07525 0.0
O425 O 0.78625 0.39168 0.10679 0.0
O426 O 0.79195 0.42506 0.09103 0.0
C427 C 0.73496 0.33674 0.06785 0.0
C428 C 0.72632 0.39652 0.0845 0.0
C429 C 0.79798 0.39684 0.04272 0.0
O430 O 0.75017 0.34554 0.08374 0.0
O431 O 0.73477 0.35339 0.05601 0.0
O432 O 0.7822 0.40491 0.04251 0.0
O433 O 0.79704 0.38469 0.05928 0.0
C434 C 0.7972 0.41577 0.10688 0.0
O435 O 0.74183 0.40763 0.06912 0.0
O436 O 0.7302 0.38093 0.09466 0.0
In437 In 0.39094 0.7725 0.23463 0.0
O438 O 0.41381 0.75421 0.24664 0.0
O439 O 0.39978 0.74637 0.21467 0.0
C440 C 0.40031 0.80468 0.26788 0.0
C441 C 0.41603 0.80566 0.20264 0.0
C442 C 0.33902 0.74065 0.23884 0.0
O443 O 0.40646 0.78767 0.26834 0.0
O444 O 0.38936 0.8052 0.25087 0.0
O445 O 0.34859 0.7599 0.22684 0.0
O446 O 0.35554 0.73721 0.24825 0.0
C447 C 0.4122 0.74288 0.2292 0.0
O448 O 0.39341 0.78667 0.2003 0.0
O449 O 0.4258 0.80767 0.22091 0.0
H450 H 0.21328 0.62613 0.29299 0.0
H451 H 0.17096 0.66266 0.27269 0.0
H452 H 0.20986 0.69524 0.25326 0.0
H453 H 0.27216 0.68347 0.30355 0.0
H454 H 0.29268 0.67147 0.29473 0.0
H455 H 0.26088 0.64985 0.30516 0.0
H456 H 0.24925 0.62292 0.27031 0.0
H457 H 0.28105 0.6445 0.25975 0.0
H458 H 0.2526 0.63811 0.24488 0.0
H459 H 0.25394 0.72443 0.23691 0.0
H460 H 0.30041 0.74976 0.22724 0.0
H461 H 0.31421 0.6951 0.25991 0.0
C462 C 0.21214 0.64076 0.28412 0.0
C463 C 0.18914 0.64181 0.28402 0.0
C464 C 0.18845 0.66156 0.27279 0.0
C465 C 0.21037 0.68002 0.26168 0.0
C466 C 0.23287 0.67857 0.26219 0.0
C467 C 0.23395 0.65954 0.27327 0.0
C468 C 0.26095 0.6633 0.27269 0.0
C469 C 0.27233 0.66727 0.29538 0.0
C470 C 0.26095 0.64087 0.26122 0.0
C471 C 0.27497 0.6875 0.25966 0.0
C472 C 0.25839 0.69584 0.2535 0.0
C473 C 0.26708 0.71803 0.2416 0.0
C474 C 0.29347 0.73226 0.23615 0.0
C475 C 0.31088 0.72439 0.24283 0.0
C476 C 0.30135 0.70157 0.25454 0.0
H477 H 0.54557 0.21537 0.47981 0.0
H478 H 0.52288 0.16954 0.42188 0.0
H479 H 0.54087 0.20891 0.40011 0.0
H480 H 0.53202 0.26323 0.46219 0.0
H481 H 0.5598 0.28902 0.47538 0.0
H482 H 0.5448 0.25725 0.4861 0.0
H483 H 0.58888 0.25889 0.48448 0.0
H484 H 0.60403 0.29068 0.47379 0.0
H485 H 0.60625 0.26605 0.45948 0.0
H486 H 0.55999 0.25377 0.38496 0.0
H487 H 0.58167 0.30016 0.37766 0.0
H488 H 0.5937 0.31593 0.44574 0.0
C489 C 0.54429 0.21366 0.46253 0.0
C490 C 0.53266 0.18952 0.45244 0.0
C491 C 0.53173 0.18794 0.42983 0.0
C492 C 0.54181 0.21015 0.4174 0.0
C493 C 0.55303 0.23372 0.42788 0.0
C494 C 0.55458 0.23557 0.44995 0.0
C495 C 0.56825 0.26308 0.45737 0.0
C496 C 0.55013 0.26845 0.47106 0.0
C497 C 0.59334 0.27008 0.46949 0.0
C498 C 0.574 0.2765 0.43606 0.0
C499 C 0.5649 0.25931 0.41921 0.0
C500 C 0.56737 0.26738 0.39804 0.0
C501 C 0.57962 0.29371 0.39404 0.0
C502 C 0.5895 0.31155 0.41112 0.0
C503 C 0.58659 0.30273 0.43234 0.0
H504 H 0.35945 0.54293 0.60791 0.0
H505 H 0.4093 0.60368 0.65214 0.0
H506 H 0.3917 0.62965 0.63907 0.0
H507 H 0.36009 0.58346 0.56442 0.0
H508 H 0.32624 0.56271 0.55828 0.0
H509 H 0.34487 0.54965 0.56909 0.0
H510 H 0.31184 0.52926 0.60007 0.0
H511 H 0.29311 0.54222 0.58936 0.0
H512 H 0.30449 0.54917 0.6166 0.0
H513 H 0.36708 0.64811 0.62361 0.0
H514 H 0.33551 0.65747 0.60735 0.0
H515 H 0.29943 0.58448 0.57414 0.0
C516 C 0.36682 0.56174 0.6148 0.0
C517 C 0.38626 0.57127 0.63086 0.0
C518 C 0.39517 0.59606 0.63935 0.0
C519 C 0.38511 0.611 0.63215 0.0
C520 C 0.36592 0.60093 0.61653 0.0
C521 C 0.35673 0.57687 0.60798 0.0
C522 C 0.33461 0.57001 0.5925 0.0
C523 C 0.3419 0.56624 0.56972 0.0
C524 C 0.30953 0.54626 0.60009 0.0
C525 C 0.33256 0.59382 0.59405 0.0
C526 C 0.35107 0.61147 0.60785 0.0
C527 C 0.35261 0.63455 0.61264 0.0
C528 C 0.33454 0.63966 0.60334 0.0
C529 C 0.31505 0.62174 0.58944 0.0
C530 C 0.31429 0.59864 0.58452 0.0
H531 H 0.80798 0.36308 0.81599 0.0
H532 H 0.85092 0.40742 0.76082 0.0
H533 H 0.81055 0.38641 0.73925 0.0
H534 H 0.76641 0.3052 0.78847 0.0
H535 H 0.73848 0.29727 0.80482 0.0
H536 H 0.77056 0.31632 0.81578 0.0
H537 H 0.76051 0.35178 0.82592 0.0
H538 H 0.72835 0.33281 0.81501 0.0
H539 H 0.7494 0.36483 0.80556 0.0
H540 H 0.7656 0.35827 0.72335 0.0
H541 H 0.71951 0.32741 0.71504 0.0
H542 H 0.70637 0.30322 0.78129 0.0
C543 C 0.80886 0.36836 0.79936 0.0
C544 C 0.8325 0.38671 0.78996 0.0
C545 C 0.83291 0.39344 0.76827 0.0
C546 C 0.81014 0.38156 0.75593 0.0
C547 C 0.78715 0.3633 0.76565 0.0
C548 C 0.78635 0.35696 0.78695 0.0
C549 C 0.7593 0.33683 0.79368 0.0
C550 C 0.75866 0.31247 0.80112 0.0
C551 C 0.74877 0.34719 0.81107 0.0
C552 C 0.74499 0.33251 0.77278 0.0
C553 C 0.76134 0.34785 0.75675 0.0
C554 C 0.75258 0.34638 0.73584 0.0
C555 C 0.72644 0.32879 0.73126 0.0
C556 C 0.7094 0.31313 0.74756 0.0
C557 C 0.71887 0.31519 0.76856 0.0
H558 H 0.46615 0.81321 0.98061 0.0
H559 H 0.47772 0.85637 0.92265 0.0
H560 H 0.45866 0.81627 0.90131 0.0
H561 H 0.48126 0.7682 0.95952 0.0
H562 H 0.45664 0.7417 0.97453 0.0
H563 H 0.47061 0.77365 0.98498 0.0
H564 H 0.42482 0.76803 0.98821 0.0
H565 H 0.41068 0.73599 0.97787 0.0
H566 H 0.40409 0.75851 0.96501 0.0
H567 H 0.4412 0.77128 0.88634 0.0
H568 H 0.42304 0.72507 0.87939 0.0
H569 H 0.42066 0.71189 0.94766 0.0
C570 C 0.46451 0.81413 0.96342 0.0
C571 C 0.47345 0.83772 0.95315 0.0
C572 C 0.47086 0.83835 0.93071 0.0
C573 C 0.46017 0.81574 0.91852 0.0
C574 C 0.45183 0.79274 0.92914 0.0
C575 C 0.45353 0.7918 0.95113 0.0
C576 C 0.44298 0.76477 0.95879 0.0
C577 C 0.46414 0.76193 0.97012 0.0
C578 C 0.41923 0.75633 0.97332 0.0
C579 C 0.43541 0.7506 0.93766 0.0
C580 C 0.44082 0.767 0.92068 0.0
C581 C 0.43657 0.75825 0.89955 0.0
C582 C 0.42636 0.73205 0.89574 0.0
C583 C 0.42024 0.71498 0.913 0.0
C584 C 0.42481 0.72447 0.93417 0.0
H585 H 0.66163 0.48162 0.1055 0.0
H586 H 0.61109 0.42299 0.15054 0.0
H587 H 0.62822 0.39606 0.13848 0.0
H588 H 0.6607 0.43872 0.06308 0.0
H589 H 0.69463 0.45904 0.05701 0.0
H590 H 0.67605 0.47275 0.06693 0.0
H591 H 0.70887 0.49446 0.09791 0.0
H592 H 0.72753 0.48086 0.08809 0.0
H593 H 0.71592 0.47524 0.11529 0.0
H594 H 0.65308 0.37692 0.12458 0.0
H595 H 0.68522 0.36705 0.10998 0.0
H596 H 0.72143 0.43806 0.07459 0.0
C597 C 0.65396 0.46304 0.11273 0.0
C598 C 0.63453 0.45442 0.12877 0.0
C599 C 0.62524 0.42991 0.13776 0.0
C600 C 0.63502 0.41443 0.13113 0.0
C601 C 0.65426 0.42364 0.11554 0.0
C602 C 0.66373 0.44736 0.10645 0.0
C603 C 0.68596 0.45338 0.09125 0.0
C604 C 0.6789 0.45613 0.06819 0.0
C605 C 0.71105 0.47741 0.09858 0.0
C606 C 0.68783 0.42957 0.09367 0.0
C607 C 0.66911 0.4126 0.10761 0.0
C608 C 0.66764 0.38989 0.11345 0.0
C609 C 0.68604 0.38449 0.1051 0.0
C610 C 0.70571 0.40172 0.09107 0.0
C611 C 0.70634 0.42437 0.085 0.0
H612 H 0.37954 0.8343 0.53656 0.0
H613 H 0.36172 0.81972 0.4689 0.0
H614 H 0.33277 0.774 0.47626 0.0
H615 H 0.38007 0.77716 0.54804 0.0
H616 H 0.36453 0.77196 0.57377 0.0
H617 H 0.38362 0.80387 0.5635 0.0
H618 H 0.34438 0.81048 0.56769 0.0
H619 H 0.32519 0.77862 0.57806 0.0
H620 H 0.31395 0.7882 0.55522 0.0
H621 H 0.30868 0.73012 0.49004 0.0
H622 H 0.28696 0.68989 0.51015 0.0
H623 H 0.3171 0.73187 0.56963 0.0
C624 C 0.36934 0.82142 0.52339 0.0
C625 C 0.37268 0.83048 0.50216 0.0
C626 C 0.35911 0.81317 0.48528 0.0
C627 C 0.34275 0.78718 0.48929 0.0
C628 C 0.3399 0.7788 0.51031 0.0
C629 C 0.35247 0.79532 0.52717 0.0
C630 C 0.34561 0.78104 0.54825 0.0
C631 C 0.36991 0.78367 0.55902 0.0
C632 C 0.33143 0.79013 0.56318 0.0
C633 C 0.32759 0.75392 0.54048 0.0
C634 C 0.32485 0.7532 0.51849 0.0
C635 C 0.31038 0.73041 0.50729 0.0
C636 C 0.29823 0.70768 0.51884 0.0
C637 C 0.30028 0.70786 0.5414 0.0
C638 C 0.31501 0.7313 0.5524 0.0
H639 H 0.56446 0.36749 0.66196 0.0
H640 H 0.54531 0.39057 0.72173 0.0
H641 H 0.55648 0.36229 0.74153 0.0
H642 H 0.54173 0.30119 0.67598 0.0
H643 H 0.56821 0.301 0.66236 0.0
H644 H 0.55648 0.32124 0.65301 0.0
H645 H 0.60283 0.36058 0.65619 0.0
H646 H 0.61468 0.34051 0.66563 0.0
H647 H 0.61969 0.36754 0.68141 0.0
H648 H 0.57093 0.33205 0.7547 0.0
H649 H 0.58969 0.30442 0.76027 0.0
H650 H 0.60132 0.3033 0.69182 0.0
C651 C 0.56213 0.36616 0.67918 0.0
C652 C 0.5537 0.38086 0.69035 0.0
C653 C 0.55161 0.37929 0.71293 0.0
C654 C 0.55784 0.36326 0.72426 0.0
C655 C 0.56636 0.34917 0.71275 0.0
C656 C 0.56862 0.3506 0.69071 0.0
C657 C 0.57988 0.33493 0.68221 0.0
C658 C 0.56041 0.31331 0.66753 0.0
C659 C 0.60581 0.35191 0.67069 0.0
C660 C 0.58379 0.32458 0.7029 0.0
C661 C 0.57559 0.3327 0.72034 0.0
C662 C 0.5774 0.32557 0.74114 0.0
C663 C 0.58804 0.30988 0.74416 0.0
C664 C 0.59704 0.30185 0.7265 0.0
C665 C 0.59472 0.30925 0.70565 0.0
H666 H 0.21686 0.60695 0.83689 0.0
H667 H 0.16775 0.55014 0.88346 0.0
H668 H 0.20676 0.55686 0.9028 0.0
H669 H 0.26484 0.58944 0.83427 0.0
H670 H 0.29157 0.62163 0.83139 0.0
H671 H 0.25983 0.61333 0.82203 0.0
H672 H 0.26116 0.64921 0.84557 0.0
H673 H 0.29297 0.65769 0.85496 0.0
H674 H 0.26725 0.64994 0.87387 0.0
H675 H 0.25149 0.5693 0.91652 0.0
H676 H 0.29813 0.58567 0.92295 0.0
H677 H 0.31742 0.63375 0.86694 0.0
C678 C 0.2143 0.59625 0.85138 0.0
C679 C 0.18929 0.57817 0.85879 0.0
C680 C 0.18675 0.56405 0.87749 0.0
C681 C 0.20877 0.56781 0.88861 0.0
C682 C 0.23316 0.58568 0.88076 0.0
C683 C 0.23601 0.59964 0.86255 0.0
C684 C 0.2643 0.6169 0.8569 0.0
C685 C 0.27049 0.60989 0.83484 0.0
C686 C 0.27186 0.64511 0.8579 0.0
C687 C 0.27697 0.61041 0.87471 0.0
C688 C 0.25874 0.59249 0.88841 0.0
C689 C 0.26592 0.58339 0.90592 0.0
C690 C 0.29243 0.59278 0.90945 0.0
C691 C 0.31135 0.61095 0.89545 0.0
C692 C 0.30341 0.61987 0.87794 0.0
H693 H 0.63172 0.2152 0.00147 0.0
H694 H 0.64954 0.16857 0.042 0.0
H695 H 0.68005 0.20699 0.06282 0.0
H696 H 0.69574 0.26855 0.9991 0.0
H697 H 0.68567 0.29187 0.99946 0.0
H698 H 0.66453 0.26056 0.98848 0.0
H699 H 0.62804 0.25455 0.01449 0.0
H700 H 0.64907 0.28588 0.02552 0.0
H701 H 0.63433 0.25852 0.04285 0.0
H702 H 0.70914 0.25103 0.07893 0.0
H703 H 0.73524 0.297 0.08814 0.0
H704 H 0.69838 0.31423 0.03655 0.0
C705 C 0.64174 0.213 0.01493 0.0
C706 C 0.63814 0.18888 0.02022 0.0
C707 C 0.6521 0.1869 0.03763 0.0
C708 C 0.66936 0.20858 0.04959 0.0
C709 C 0.67251 0.2321 0.04388 0.0
C710 C 0.65911 0.23441 0.02691 0.0
C711 C 0.66658 0.2619 0.02352 0.0
C712 C 0.67886 0.27126 1.00133 0.0
C713 C 0.64311 0.26541 0.0268 0.0
C714 C 0.68635 0.27477 0.04118 0.0
C715 C 0.68943 0.2573 0.05286 0.0
C716 C 0.70684 0.26486 0.0699 0.0
C717 C 0.72155 0.29098 0.07503 0.0
C718 C 0.71884 0.30916 0.06306 0.0
C719 C 0.70091 0.30081 0.046 0.0
H720 H 0.45751 0.6611 0.16117 0.0
H721 H 0.47588 0.63818 0.22095 0.0
H722 H 0.46389 0.66609 0.24085 0.0
H723 H 0.47947 0.7271 0.17576 0.0
H724 H 0.45315 0.72721 0.16196 0.0
H725 H 0.4651 0.70702 0.15257 0.0
H726 H 0.41875 0.66762 0.15521 0.0
H727 H 0.40669 0.68764 0.16469 0.0
H728 H 0.40151 0.66063 0.18027 0.0
H729 H 0.44916 0.69619 0.25407 0.0
H730 H 0.43076 0.72416 0.25972 0.0
H731 H 0.41997 0.72527 0.19122 0.0
C732 C 0.45944 0.66235 0.17842 0.0
C733 C 0.46793 0.64783 0.18957 0.0
C734 C 0.46953 0.64932 0.21217 0.0
C735 C 0.46283 0.66513 0.22356 0.0
C736 C 0.4543 0.67906 0.21208 0.0
C737 C 0.45246 0.67768 0.19001 0.0
C738 C 0.44127 0.69331 0.18153 0.0
C739 C 0.46092 0.71494 0.16711 0.0
C740 C 0.41553 0.67628 0.16974 0.0
C741 C 0.43701 0.70365 0.20226 0.0
C742 C 0.4449 0.69547 0.2197 0.0
C743 C 0.4429 0.70268 0.24053 0.0
C744 C 0.43245 0.71856 0.24358 0.0
C745 C 0.42385 0.72675 0.22593 0.0
C746 C 0.42625 0.71919 0.20504 0.0
H747 H 0.82661 0.49167 0.36861 0.0
H748 H 0.82484 0.42503 0.34123 0.0
H749 H 0.78034 0.39788 0.35458 0.0
H750 H 0.7861 0.45954 0.41624 0.0
H751 H 0.76987 0.47761 0.415 0.0
H752 H 0.80284 0.49151 0.40575 0.0
H753 H 0.78938 0.50038 0.36892 0.0
H754 H 0.75642 0.48646 0.37801 0.0
H755 H 0.76356 0.4744 0.35414 0.0
H756 H 0.73456 0.37876 0.36651 0.0
H757 H 0.69081 0.36861 0.37779 0.0
H758 H 0.72167 0.44714 0.39805 0.0
C759 C 0.81701 0.47132 0.36569 0.0
C760 C 0.82942 0.46051 0.354 0.0
C761 C 0.81608 0.43376 0.35052 0.0
C762 C 0.79069 0.41816 0.35795 0.0
C763 C 0.77886 0.4295 0.36896 0.0
C764 C 0.79161 0.45542 0.37302 0.0
C765 C 0.77385 0.46297 0.38402 0.0
C766 C 0.78376 0.47353 0.4066 0.0
C767 C 0.77061 0.48218 0.37046 0.0
C768 C 0.74891 0.43734 0.38491 0.0
C769 C 0.75232 0.41829 0.37622 0.0
C770 C 0.73174 0.3934 0.37372 0.0
C771 C 0.70696 0.38783 0.38009 0.0
C772 C 0.70298 0.40702 0.38899 0.0
C773 C 0.72431 0.432 0.39172 0.0
H774 H 0.152 0.56337 0.42687 0.0
H775 H 0.13321 0.62367 0.42581 0.0
H776 H 0.15099 0.63671 0.46197 0.0
H777 H 0.14145 0.5486 0.4834 0.0
H778 H 0.16916 0.54465 0.48603 0.0
H779 H 0.15229 0.53784 0.46084 0.0
H780 H 0.1952 0.56956 0.4418 0.0
H781 H 0.21221 0.57637 0.46688 0.0
H782 H 0.21376 0.60199 0.4514 0.0
H783 H 0.17172 0.64433 0.49769 0.0
H784 H 0.19769 0.64854 0.52952 0.0
H785 H 0.20731 0.58639 0.50644 0.0
C786 C 0.15161 0.57939 0.43408 0.0
C787 C 0.14061 0.59209 0.4233 0.0
C788 C 0.14056 0.61288 0.43372 0.0
C789 C 0.15086 0.62065 0.4543 0.0
C790 C 0.16158 0.60779 0.46428 0.0
C791 C 0.16236 0.58782 0.45447 0.0
C792 C 0.17683 0.57857 0.46812 0.0
C793 C 0.15885 0.55076 0.475 0.0
C794 C 0.20093 0.58183 0.45634 0.0
C795 C 0.18429 0.5967 0.48703 0.0
C796 C 0.17486 0.61307 0.48459 0.0
C797 C 0.17921 0.63162 0.4998 0.0
C798 C 0.19395 0.6338 0.51786 0.0
C799 C 0.20453 0.61779 0.52046 0.0
C800 C 0.19943 0.59884 0.50489 0.0
H801 H 0.52602 0.1525 0.60098 0.0
H802 H 0.58608 0.13795 0.57865 0.0
H803 H 0.612 0.15939 0.61085 0.0
H804 H 0.56722 0.21363 0.62252 0.0
H805 H 0.54701 0.20961 0.64533 0.0
H806 H 0.53266 0.19217 0.62099 0.0
H807 H 0.51177 0.14959 0.64184 0.0
H808 H 0.52595 0.16692 0.66629 0.0
H809 H 0.532 0.14205 0.65778 0.0
H810 H 0.63256 0.18479 0.64439 0.0
H811 H 0.6454 0.21079 0.67754 0.0
H812 H 0.57099 0.20682 0.67871 0.0
C813 C 0.54437 0.15331 0.60302 0.0
C814 C 0.554 0.14355 0.58719 0.0
C815 C 0.57842 0.14558 0.59036 0.0
C816 C 0.59322 0.15758 0.60868 0.0
C817 C 0.58326 0.16725 0.6238 0.0
C818 C 0.5593 0.16506 0.62126 0.0
C819 C 0.55329 0.17759 0.63962 0.0
C820 C 0.54985 0.19955 0.63163 0.0
C821 C 0.52933 0.15786 0.65212 0.0
C822 C 0.57777 0.18748 0.65276 0.0
C823 C 0.59483 0.18135 0.64335 0.0
C824 C 0.61924 0.18945 0.65203 0.0
C825 C 0.62638 0.20425 0.67081 0.0
C826 C 0.60911 0.21063 0.68073 0.0
C827 C 0.58445 0.20195 0.67162 0.0
H828 H 0.43389 0.58159 0.75638 0.0
H829 H 0.4011 0.50317 0.77687 0.0
H830 H 0.39523 0.51536 0.81331 0.0
H831 H 0.46764 0.61199 0.80701 0.0
H832 H 0.4603 0.63719 0.80509 0.0
H833 H 0.4642 0.62283 0.78113 0.0
H834 H 0.41872 0.61229 0.76825 0.0
H835 H 0.41461 0.62646 0.79218 0.0
H836 H 0.39099 0.59397 0.78524 0.0
H837 H 0.38988 0.53504 0.84646 0.0
H838 H 0.38554 0.56112 0.87467 0.0
H839 H 0.42178 0.62716 0.83311 0.0
C840 C 0.42603 0.56715 0.7687 0.0
C841 C 0.41803 0.54145 0.76388 0.0
C842 C 0.40725 0.52293 0.78025 0.0
C843 C 0.40396 0.52969 0.80099 0.0
C844 C 0.41156 0.55507 0.80512 0.0
C845 C 0.42246 0.57357 0.7895 0.0
C846 C 0.42748 0.59914 0.79791 0.0
C847 C 0.45664 0.61896 0.79778 0.0
C848 C 0.41202 0.6085 0.78513 0.0
C849 C 0.41727 0.59199 0.82056 0.0
C850 C 0.40836 0.5665 0.82438 0.0
C851 C 0.39702 0.55508 0.84376 0.0
C852 C 0.39458 0.57005 0.85966 0.0
C853 C 0.4034 0.59618 0.85611 0.0
C854 C 0.41511 0.60731 0.83635 0.0
H855 H 0.87185 0.44821 0.9309 0.0
H856 H 0.89468 0.39113 0.93722 0.0
H857 H 0.87456 0.38004 0.97264 0.0
H858 H 0.87779 0.46717 0.98672 0.0
H859 H 0.84896 0.46948 0.98653 0.0
H860 H 0.86762 0.47526 0.96237 0.0
H861 H 0.82669 0.44066 0.94259 0.0
H862 H 0.80791 0.43478 0.96666 0.0
H863 H 0.80888 0.40888 0.9534 0.0
H864 H 0.85128 0.37392 0.0068 0.0
H865 H 0.82355 0.37118 0.03699 0.0
H866 H 0.81152 0.42888 0.00777 0.0
C867 C 0.87268 0.43334 0.9396 0.0
C868 C 0.88552 0.42101 0.93109 0.0
C869 C 0.88599 0.40171 0.94339 0.0
C870 C 0.87432 0.395 0.96356 0.0
C871 C 0.86176 0.40737 0.97126 0.0
C872 C 0.86059 0.42595 0.95965 0.0
C873 C 0.84426 0.43496 0.97114 0.0
C874 C 0.86064 0.46341 0.97704 0.0
C875 C 0.82053 0.42949 0.95764 0.0
C876 C 0.83632 0.41835 0.99093 0.0
C877 C 0.84702 0.40288 0.99072 0.0
C878 C 0.84276 0.38591 0.00717 0.0
C879 C 0.827 0.38454 0.02427 0.0
C880 C 0.81534 0.39978 0.02472 0.0
C881 C 0.82012 0.41696 0.00781 0.0
H882 H 0.45041 0.85713 0.08276 0.0
H883 H 0.51684 0.92532 0.10875 0.0
H884 H 0.50338 0.90843 0.14522 0.0
H885 H 0.40526 0.84982 0.12565 0.0
H886 H 0.38917 0.81548 0.12516 0.0
H887 H 0.40354 0.83332 0.10109 0.0
H888 H 0.43081 0.81142 0.09704 0.0
H889 H 0.41665 0.79363 0.12115 0.0
H890 H 0.45138 0.81317 0.11876 0.0
H891 H 0.48432 0.88329 0.17856 0.0
H892 H 0.45975 0.85219 0.20693 0.0
H893 H 0.40453 0.80099 0.15968 0.0
C894 C 0.46189 0.86875 0.09612 0.0
C895 C 0.4848 0.89254 0.09283 0.0
C896 C 0.49947 0.90688 0.1108 0.0
C897 C 0.49189 0.89753 0.1316 0.0
C898 C 0.46946 0.87388 0.13423 0.0
C899 C 0.45452 0.85976 0.11703 0.0
C900 C 0.43154 0.83466 0.12428 0.0
C901 C 0.40586 0.83325 0.11872 0.0
C902 C 0.43268 0.81188 0.11474 0.0
C903 C 0.4361 0.83677 0.14823 0.0
C904 C 0.4581 0.85956 0.15359 0.0
C905 C 0.46692 0.8655 0.1746 0.0
C906 C 0.45288 0.84768 0.19058 0.0
C907 C 0.43019 0.82427 0.18551 0.0
C908 C 0.42166 0.81886 0.16405 0.0
H909 H 0.58736 0.44707 0.25335 0.0
H910 H 0.62379 0.52614 0.27383 0.0
H911 H 0.62944 0.5139 0.31011 0.0
H912 H 0.55364 0.41855 0.30419 0.0
H913 H 0.55928 0.39221 0.3021 0.0
H914 H 0.55602 0.4068 0.27823 0.0
H915 H 0.60059 0.41489 0.26492 0.0
H916 H 0.60405 0.40048 0.28877 0.0
H917 H 0.62875 0.43244 0.28169 0.0
H918 H 0.63401 0.49393 0.34309 0.0
H919 H 0.63686 0.46732 0.37123 0.0
H920 H 0.59736 0.40078 0.32985 0.0
C921 C 0.59599 0.46168 0.26563 0.0
C922 C 0.60509 0.48756 0.26084 0.0
C923 C 0.61682 0.50625 0.27717 0.0
C924 C 0.62001 0.49946 0.29782 0.0
C925 C 0.61131 0.47389 0.30191 0.0
C926 C 0.59945 0.45523 0.28635 0.0
C927 C 0.59321 0.42937 0.29472 0.0
C928 C 0.56379 0.41062 0.29482 0.0
C929 C 0.60751 0.41868 0.28175 0.0
C930 C 0.60381 0.43651 0.31729 0.0
C931 C 0.61401 0.46227 0.32109 0.0
C932 C 0.62586 0.47369 0.3404 0.0
C933 C 0.62745 0.4584 0.35626 0.0
C934 C 0.61726 0.43197 0.35276 0.0
C935 C 0.6051 0.42088 0.33305 0.0
H936 H 0.43565 0.85938 0.38708 0.0
H937 H 0.43148 0.92488 0.3654 0.0
H938 H 0.42078 0.90638 0.32906 0.0
H939 H 0.46642 0.8532 0.33902 0.0
H940 H 0.44907 0.81884 0.34004 0.0
H941 H 0.45622 0.83719 0.36441 0.0
H942 H 0.40739 0.81279 0.37419 0.0
H943 H 0.40006 0.79447 0.34981 0.0
H944 H 0.38423 0.81232 0.35558 0.0
H945 H 0.40893 0.88002 0.29541 0.0
H946 H 0.39926 0.84885 0.26627 0.0
H947 H 0.41391 0.80191 0.30928 0.0
C948 C 0.43296 0.87014 0.37468 0.0
C949 C 0.43434 0.89362 0.37926 0.0
C950 C 0.4301 0.90667 0.3625 0.0
C951 C 0.42417 0.8964 0.34173 0.0
C952 C 0.4228 0.87317 0.33789 0.0
C953 C 0.42732 0.86032 0.35383 0.0
C954 C 0.42479 0.83573 0.34545 0.0
C955 C 0.45067 0.83629 0.34734 0.0
C956 C 0.40281 0.81246 0.35694 0.0
C957 C 0.41797 0.83667 0.3223 0.0
C958 C 0.41677 0.85836 0.31832 0.0
C959 C 0.41003 0.86309 0.29829 0.0
C960 C 0.4045 0.84523 0.28187 0.0
C961 C 0.40597 0.82306 0.28551 0.0
C962 C 0.41286 0.81881 0.306 0.0
H963 H 0.59922 0.45643 0.54917 0.0
H964 H 0.51646 0.40128 0.5486 0.0
H965 H 0.52054 0.38755 0.5125 0.0
H966 H 0.60667 0.47271 0.49322 0.0
H967 H 0.63741 0.47421 0.49075 0.0
H968 H 0.6279 0.48133 0.51604 0.0
H969 H 0.63423 0.44684 0.5344 0.0
H970 H 0.64383 0.43966 0.50919 0.0
H971 H 0.61739 0.41464 0.52408 0.0
H972 H 0.53329 0.37929 0.47663 0.0
H973 H 0.55449 0.3751 0.44423 0.0
H974 H 0.62948 0.43274 0.46905 0.0
C975 C 0.5819 0.44137 0.54161 0.0
C976 C 0.55741 0.43032 0.55186 0.0
C977 C 0.53534 0.41075 0.54105 0.0
C978 C 0.53746 0.40259 0.52053 0.0
C979 C 0.56183 0.41386 0.51102 0.0
C980 C 0.58371 0.43264 0.52124 0.0
C981 C 0.6078 0.44064 0.50785 0.0
C982 C 0.6207 0.4689 0.5016 0.0
C983 C 0.62694 0.43511 0.51958 0.0
C984 C 0.596 0.42332 0.48855 0.0
C985 C 0.5694 0.40827 0.49063 0.0
C986 C 0.55411 0.39092 0.47483 0.0
C987 C 0.56633 0.38872 0.45647 0.0
C988 C 0.59361 0.40354 0.45417 0.0
C989 C 0.6086 0.4211 0.47043 0.0
H990 H 0.1649 0.61004 0.71922 0.0
H991 H 0.12053 0.52777 0.71102 0.0
H992 H 0.13905 0.5322 0.67486 0.0
H993 H 0.15918 0.62613 0.66417 0.0
H994 H 0.19173 0.65316 0.66345 0.0
H995 H 0.17424 0.64362 0.68839 0.0
H996 H 0.21159 0.63998 0.70544 0.0
H997 H 0.22916 0.64944 0.68056 0.0
H998 H 0.22197 0.61988 0.69294 0.0
H999 H 0.16324 0.54528 0.64032 0.0
H1000 H 0.19172 0.56609 0.60937 0.0
H1001 H 0.22039 0.64012 0.63957 0.0
C1002 C 0.15879 0.59299 0.70968 0.0
C1003 C 0.14124 0.56854 0.71792 0.0
C1004 C 0.13411 0.54666 0.70511 0.0
C1005 C 0.14441 0.549 0.68452 0.0
C1006 C 0.16181 0.57334 0.67696 0.0
C1007 C 0.16895 0.59497 0.6891 0.0
C1008 C 0.18865 0.61882 0.6774 0.0
C1009 C 0.17779 0.63647 0.6731 0.0
C1010 C 0.21436 0.63285 0.68983 0.0
C1011 C 0.19158 0.60719 0.65684 0.0
C1012 C 0.17585 0.58093 0.65694 0.0
C1013 C 0.17554 0.56583 0.64 0.0
C1014 C 0.19183 0.57785 0.62251 0.0
C1015 C 0.20823 0.60472 0.62204 0.0
C1016 C 0.20795 0.61956 0.63942 0.0
H1017 H 0.57412 0.16196 0.88136 0.0
H1018 H 0.61173 0.11828 0.86848 0.0
H1019 H 0.62221 0.13582 0.83189 0.0
H1020 H 0.54634 0.15542 0.8281 0.0
H1021 H 0.55191 0.18744 0.82821 0.0
H1022 H 0.54627 0.17048 0.85301 0.0
H1023 H 0.5895 0.20741 0.86809 0.0
H1024 H 0.59528 0.22446 0.84335 0.0
H1025 H 0.61917 0.21753 0.85349 0.0
H1026 H 0.63019 0.15943 0.79737 0.0
H1027 H 0.63573 0.18796 0.76739 0.0
H1028 H 0.59246 0.21597 0.8025 0.0
C1029 C 0.58417 0.15574 0.87072 0.0
C1030 C 0.59206 0.13868 0.87775 0.0
C1031 C 0.60569 0.13148 0.86349 0.0
C1032 C 0.61158 0.14121 0.84265 0.0
C1033 C 0.60367 0.15811 0.83629 0.0
C1034 C 0.59025 0.16532 0.84989 0.0
C1035 C 0.58492 0.18457 0.83939 0.0
C1036 C 0.55562 0.17383 0.83704 0.0
C1037 C 0.59801 0.20999 0.85182 0.0
C1038 C 0.59767 0.18725 0.81782 0.0
C1039 C 0.60825 0.17172 0.81635 0.0
C1040 C 0.62182 0.17152 0.79827 0.0
C1041 C 0.62487 0.18781 0.78134 0.0
C1042 C 0.61442 0.20408 0.78258 0.0
C1043 C 0.60042 0.20354 0.801 0.0
H1044 H 0.42642 0.57079 0.04703 0.0
H1045 H 0.50642 0.63319 0.04989 0.0
H1046 H 0.5015 0.64761 0.01453 0.0
H1047 H 0.42314 0.55864 0.9901 0.0
H1048 H 0.39065 0.55297 0.98756 0.0
H1049 H 0.40099 0.54602 0.01235 0.0
H1050 H 0.38832 0.5753 0.03277 0.0
H1051 H 0.37791 0.5823 0.00807 0.0
H1052 H 0.4018 0.60794 0.02445 0.0
H1053 H 0.4878 0.65608 0.97919 0.0
H1054 H 0.46544 0.65931 0.9473 0.0
H1055 H 0.39351 0.59367 0.96867 0.0
C1056 C 0.44296 0.58755 0.04036 0.0
C1057 C 0.46695 0.60056 0.05136 0.0
C1058 C 0.48803 0.62231 0.04171 0.0
C1059 C 0.48539 0.63084 0.02163 0.0
C1060 C 0.46147 0.61766 0.0114 0.0
C1061 C 0.44056 0.59661 0.02048 0.0
C1062 C 0.41655 0.58674 0.00666 0.0
C1063 C 0.4073 0.55948 0.9987 0.0
C1064 C 0.39487 0.58817 0.01871 0.0
C1065 C 0.42722 0.60569 0.98847 0.0
C1066 C 0.45326 0.62317 0.9914 0.0
C1067 C 0.46741 0.64251 0.97672 0.0
C1068 C 0.45456 0.64417 0.95865 0.0
C1069 C 0.42776 0.62678 0.95556 0.0
C1070 C 0.414 0.60726 0.97066 0.0
H1071 H 0.87705 0.44943 0.21636 0.0
H1072 H 0.88568 0.52468 0.21191 0.0
H1073 H 0.8645 0.51327 0.17681 0.0
H1074 H 0.88461 0.44008 0.15991 0.0
H1075 H 0.85969 0.40684 0.16007 0.0
H1076 H 0.87815 0.42164 0.18398 0.0
H1077 H 0.83561 0.40758 0.20494 0.0
H1078 H 0.81703 0.39275 0.18112 0.0
H1079 H 0.81299 0.41644 0.1952 0.0
H1080 H 0.84102 0.49366 0.14291 0.0
H1081 H 0.81464 0.46618 0.11306 0.0
H1082 H 0.81754 0.40232 0.14046 0.0
C1083 C 0.87454 0.46361 0.20812 0.0
C1084 C 0.88359 0.48821 0.21705 0.0
C1085 C 0.87986 0.50603 0.20537 0.0
C1086 C 0.86757 0.49965 0.1854 0.0
C1087 C 0.85872 0.47525 0.17729 0.0
C1088 C 0.86184 0.45742 0.1883 0.0
C1089 C 0.84895 0.43198 0.17658 0.0
C1090 C 0.86905 0.42472 0.16973 0.0
C1091 C 0.82736 0.41095 0.19028 0.0
C1092 C 0.83787 0.4383 0.15738 0.0
C1093 C 0.84409 0.46349 0.15802 0.0
C1094 C 0.83605 0.47391 0.14219 0.0
C1095 C 0.82108 0.45813 0.1253 0.0
C1096 C 0.81401 0.43211 0.12446 0.0
C1097 C 0.82263 0.42212 0.1407 0.0
loop_
_geom_bond_atom_site_label_1
_geom_bond_atom_site_label_2
_geom_bond_distance
_geom_bond_site_symmetry_2
_ccdc_geom_bond_type
H0 C27 0.929 . S
N1 C26 1.433 . S
N1 C32 1.435 . S
N1 C38 1.423 . S
H2 C28 0.930 . S
H3 C31 0.931 . S
H4 C30 0.929 . S
H5 C33 0.930 . S
H6 C34 0.932 . S
H7 C37 0.929 . S
H8 C36 0.931 . S
H9 C39 0.929 . S
H10 C43 0.932 . S
H11 C40 0.931 . S
H12 C42 0.929 . S
H13 C45 0.929 . S
H14 C46 0.930 . S
H15 C48 0.929 . S
H16 C49 0.931 . S
H17 C51 0.930 . S
H18 C52 0.932 . S
H19 C54 0.931 . S
H20 C55 0.929 . S
H21 C57 0.929 . S
H22 C58 0.931 . S
H23 C60 0.929 . S
N24 C44 1.433 . S
N24 C50 1.435 . S
N24 C56 1.423 . S
H25 C61 0.932 . S
C26 N1 1.433 . S
C26 C27 1.363 . S
C26 C31 1.370 . S
C27 H0 0.929 . S
C27 C26 1.363 . S
C27 C28 1.385 . S
C28 H2 0.930 . S
C28 C27 1.385 . S
C28 C29 1.357 . S
C29 C28 1.357 . S
C29 C30 1.406 . S
C30 H4 0.929 . S
C30 C29 1.406 . S
C30 C31 1.391 . S
C31 H3 0.931 . S
C31 C26 1.370 . S
C31 C30 1.391 . S
C32 N1 1.435 . S
C32 C33 1.358 . S
C32 C37 1.371 . S
C33 H5 0.930 . S
C33 C32 1.358 . S
C33 C34 1.405 . S
C34 H6 0.932 . S
C34 C33 1.405 . S
C34 C35 1.383 . S
C35 C34 1.383 . S
C35 C36 1.393 . S
C36 H8 0.931 . S
C36 C35 1.393 . S
C36 C37 1.382 . S
C37 H7 0.929 . S
C37 C32 1.371 . S
C37 C36 1.382 . S
C38 N1 1.423 . S
C38 C39 1.362 . S
C38 C43 1.388 . S
C39 H9 0.929 . S
C39 C38 1.362 . S
C39 C40 1.376 . S
C40 H11 0.931 . S
C40 C39 1.376 . S
C40 C41 1.396 . S
C41 C40 1.396 . S
C41 C42 1.348 . S
C41 C59 1.472 1_455 S
C42 H12 0.929 . S
C42 C41 1.348 . S
C42 C43 1.443 . S
C43 H10 0.932 . S
C43 C38 1.388 . S
C43 C42 1.443 . S
C44 N24 1.433 . S
C44 C45 1.363 . S
C44 C49 1.370 . S
C45 H13 0.929 . S
C45 C44 1.363 . S
C45 C46 1.385 . S
C46 H14 0.930 . S
C46 C45 1.385 . S
C46 C47 1.357 . S
C47 C46 1.357 . S
C47 C48 1.406 . S
C48 H15 0.929 . S
C48 C47 1.406 . S
C48 C49 1.391 . S
C49 H16 0.931 . S
C49 C44 1.370 . S
C49 C48 1.391 . S
C50 N24 1.435 . S
C50 C51 1.358 . S
C50 C55 1.371 . S
C51 H17 0.930 . S
C51 C50 1.358 . S
C51 C52 1.405 . S
C52 H18 0.932 . S
C52 C51 1.405 . S
C52 C53 1.383 . S
C53 C52 1.383 . S
C53 C54 1.393 . S
C54 H19 0.931 . S
C54 C53 1.393 . S
C54 C55 1.382 . S
C55 H20 0.929 . S
C55 C50 1.371 . S
C55 C54 1.382 . S
C56 N24 1.423 . S
C56 C57 1.362 . S
C56 C61 1.388 . S
C57 H21 0.929 . S
C57 C56 1.362 . S
C57 C58 1.376 . S
C58 H22 0.931 . S
C58 C57 1.376 . S
C58 C59 1.396 . S
C59 C41 1.472 1_655 S
C59 C58 1.396 . S
C59 C60 1.348 . S
C60 H23 0.929 . S
C60 C59 1.348 . S
C60 C61 1.443 . S
C61 H25 0.932 . S
C61 C56 1.388 . S
C61 C60 1.443 . S
H62 C89 0.929 . S
N63 C88 1.433 . S
N63 C94 1.435 . S
N63 C100 1.423 . S
H64 C90 0.930 . S
H65 C93 0.931 . S
H66 C92 0.929 . S
H67 C95 0.930 . S
H68 C96 0.932 . S
H69 C99 0.929 . S
H70 C98 0.931 . S
H71 C101 0.929 . S
H72 C105 0.932 . S
H73 C102 0.931 . S
H74 C104 0.929 1_545 S
H75 C107 0.929 . S
H76 C108 0.930 . S
H77 C110 0.929 . S
H78 C111 0.931 . S
H79 C113 0.930 . S
H80 C114 0.932 . S
H81 C116 0.931 . S
H82 C117 0.929 . S
H83 C119 0.929 . S
H84 C120 0.931 . S
H85 C122 0.929 . S
N86 C106 1.433 . S
N86 C112 1.435 . S
N86 C118 1.423 . S
H87 C123 0.932 . S
C88 N63 1.433 . S
C88 C89 1.363 . S
C88 C93 1.370 . S
C89 H62 0.929 . S
C89 C88 1.363 . S
C89 C90 1.385 . S
C90 H64 0.930 . S
C90 C89 1.385 . S
C90 C91 1.357 . S
C91 C90 1.357 . S
C91 C92 1.406 . S
C92 H66 0.929 . S
C92 C91 1.406 . S
C92 C93 1.391 . S
C93 H65 0.931 . S
C93 C88 1.370 . S
C93 C92 1.391 . S
C94 N63 1.435 . S
C94 C95 1.358 . S
C94 C99 1.371 . S
C95 H67 0.930 . S
C95 C94 1.358 . S
C95 C96 1.405 . S
C96 H68 0.932 . S
C96 C95 1.405 . S
C96 C97 1.383 . S
C97 C96 1.383 . S
C97 C98 1.393 . S
C98 H70 0.931 . S
C98 C97 1.393 . S
C98 C99 1.382 . S
C99 H69 0.929 . S
C99 C94 1.371 . S
C99 C98 1.382 . S
C100 N63 1.423 . S
C100 C101 1.362 . S
C100 C105 1.388 . S
C101 H71 0.929 . S
C101 C100 1.362 . S
C101 C102 1.376 . S
C102 H73 0.931 . S
C102 C101 1.376 . S
C102 C103 1.396 1_565 S
C103 C102 1.396 1_545 S
C103 C104 1.348 1_545 S
C103 C121 1.472 . S
C104 H74 0.929 1_565 S
C104 C103 1.348 1_565 S
C104 C105 1.443 . S
C105 H72 0.932 . S
C105 C100 1.388 . S
C105 C104 1.443 . S
C106 N86 1.433 . S
C106 C107 1.363 . S
C106 C111 1.370 . S
C107 H75 0.929 . S
C107 C106 1.363 . S
C107 C108 1.385 . S
C108 H76 0.930 . S
C108 C107 1.385 . S
C108 C109 1.357 . S
C109 C108 1.357 . S
C109 C110 1.406 . S
C110 H77 0.929 . S
C110 C109 1.406 . S
C110 C111 1.391 . S
C111 H78 0.931 . S
C111 C106 1.370 . S
C111 C110 1.391 . S
C112 N86 1.435 . S
C112 C113 1.358 . S
C112 C117 1.371 . S
C113 H79 0.930 . S
C113 C112 1.358 . S
C113 C114 1.405 . S
C114 H80 0.932 . S
C114 C113 1.405 . S
C114 C115 1.383 . S
C115 C114 1.383 . S
C115 C116 1.393 . S
C116 H81 0.931 . S
C116 C115 1.393 . S
C116 C117 1.382 . S
C117 H82 0.929 . S
C117 C112 1.371 . S
C117 C116 1.382 . S
C118 N86 1.423 . S
C118 C119 1.362 . S
C118 C123 1.388 . S
C119 H83 0.929 . S
C119 C118 1.362 . S
C119 C120 1.376 . S
C120 H84 0.931 . S
C120 C119 1.376 . S
C120 C121 1.396 . S
C121 C103 1.472 . S
C121 C120 1.396 . S
C121 C122 1.348 . S
C122 H85 0.929 . S
C122 C121 1.348 . S
C122 C123 1.443 . S
C123 H87 0.932 . S
C123 C118 1.388 . S
C123 C122 1.443 . S
H124 C151 0.929 . S
N125 C150 1.433 . S
N125 C156 1.435 . S
N125 C162 1.423 . S
H126 C152 0.930 . S
H127 C155 0.931 . S
H128 C154 0.929 . S
H129 C157 0.930 . S
H130 C158 0.932 . S
H131 C161 0.929 . S
H132 C160 0.931 . S
H133 C163 0.929 . S
H134 C167 0.932 . S
H135 C164 0.931 . S
H136 C166 0.929 . S
H137 C169 0.929 . S
H138 C170 0.930 . S
H139 C172 0.929 . S
H140 C173 0.931 . S
H141 C175 0.930 . S
H142 C176 0.932 . S
H143 C178 0.931 . S
H144 C179 0.929 . S
H145 C181 0.929 . S
H146 C182 0.931 . S
H147 C184 0.929 . S
N148 C168 1.433 . S
N148 C174 1.435 . S
N148 C180 1.423 . S
H149 C185 0.932 . S
C150 N125 1.433 . S
C150 C151 1.363 . S
C150 C155 1.370 . S
C151 H124 0.929 . S
C151 C150 1.363 . S
C151 C152 1.385 . S
C152 H126 0.930 . S
C152 C151 1.385 . S
C152 C153 1.357 . S
C153 C152 1.357 . S
C153 C154 1.406 . S
C154 H128 0.929 . S
C154 C153 1.406 . S
C154 C155 1.391 . S
C155 H127 0.931 . S
C155 C150 1.370 . S
C155 C154 1.391 . S
C156 N125 1.435 . S
C156 C157 1.358 . S
C156 C161 1.371 . S
C157 H129 0.930 . S
C157 C156 1.358 . S
C157 C158 1.405 . S
C158 H130 0.932 . S
C158 C157 1.405 . S
C158 C159 1.383 . S
C159 C158 1.383 . S
C159 C160 1.393 . S
C160 H132 0.931 . S
C160 C159 1.393 . S
C160 C161 1.382 . S
C161 H131 0.929 . S
C161 C156 1.371 . S
C161 C160 1.382 . S
C162 N125 1.423 . S
C162 C163 1.362 . S
C162 C167 1.388 . S
C163 H133 0.929 . S
C163 C162 1.362 . S
C163 C164 1.376 . S
C164 H135 0.931 . S
C164 C163 1.376 . S
C164 C165 1.396 . S
C165 C164 1.396 . S
C165 C166 1.348 . S
C165 C183 1.472 . S
C166 H136 0.929 . S
C166 C165 1.348 . S
C166 C167 1.443 . S
C167 H134 0.932 . S
C167 C162 1.388 . S
C167 C166 1.443 . S
C168 N148 1.433 . S
C168 C169 1.363 . S
C168 C173 1.370 . S
C169 H137 0.929 . S
C169 C168 1.363 . S
C169 C170 1.385 . S
C170 H138 0.930 . S
C170 C169 1.385 . S
C170 C171 1.357 . S
C171 C170 1.357 . S
C171 C172 1.406 . S
C172 H139 0.929 . S
C172 C171 1.406 . S
C172 C173 1.391 . S
C173 H140 0.931 . S
C173 C168 1.370 . S
C173 C172 1.391 . S
C174 N148 1.435 . S
C174 C175 1.358 . S
C174 C179 1.371 . S
C175 H141 0.930 . S
C175 C174 1.358 . S
C175 C176 1.405 . S
C176 H142 0.932 . S
C176 C175 1.405 . S
C176 C177 1.383 . S
C177 C176 1.383 . S
C177 C178 1.393 . S
C178 H143 0.931 . S
C178 C177 1.393 . S
C178 C179 1.382 . S
C179 H144 0.929 . S
C179 C174 1.371 . S
C179 C178 1.382 . S
C180 N148 1.423 . S
C180 C181 1.362 . S
C180 C185 1.388 . S
C181 H145 0.929 . S
C181 C180 1.362 . S
C181 C182 1.376 . S
C182 H146 0.931 . S
C182 C181 1.376 . S
C182 C183 1.396 . S
C183 C165 1.472 . S
C183 C182 1.396 . S
C183 C184 1.348 . S
C184 H147 0.929 . S
C184 C183 1.348 . S
C184 C185 1.443 . S
C185 H149 0.932 . S
C185 C180 1.388 . S
C185 C184 1.443 . S
H186 C213 0.929 . S
N187 C212 1.433 . S
N187 C218 1.435 . S
N187 C224 1.423 . S
H188 C214 0.930 . S
H189 C217 0.931 . S
H190 C216 0.929 . S
H191 C219 0.930 . S
H192 C220 0.932 . S
H193 C223 0.929 . S
H194 C222 0.931 . S
H195 C225 0.929 . S
H196 C229 0.932 . S
H197 C226 0.931 . S
H198 C228 0.929 . S
H199 C231 0.929 . S
H200 C232 0.930 . S
H201 C234 0.929 . S
H202 C235 0.931 . S
H203 C237 0.930 . S
H204 C238 0.932 . S
H205 C240 0.931 . S
H206 C241 0.929 . S
H207 C243 0.929 . S
H208 C244 0.931 . S
H209 C246 0.929 . S
N210 C230 1.433 . S
N210 C236 1.435 . S
N210 C242 1.423 . S
H211 C247 0.932 . S
C212 N187 1.433 . S
C212 C213 1.363 . S
C212 C217 1.370 . S
C213 H186 0.929 . S
C213 C212 1.363 . S
C213 C214 1.385 . S
C214 H188 0.930 . S
C214 C213 1.385 . S
C214 C215 1.357 . S
C215 C214 1.357 . S
C215 C216 1.406 . S
C216 H190 0.929 . S
C216 C215 1.406 . S
C216 C217 1.391 . S
C217 H189 0.931 . S
C217 C212 1.370 . S
C217 C216 1.391 . S
C218 N187 1.435 . S
C218 C219 1.358 . S
C218 C223 1.371 . S
C219 H191 0.930 . S
C219 C218 1.358 . S
C219 C220 1.405 . S
C220 H192 0.932 . S
C220 C219 1.405 . S
C220 C221 1.383 . S
C221 C220 1.383 . S
C221 C222 1.393 . S
C222 H194 0.931 . S
C222 C221 1.393 . S
C222 C223 1.382 . S
C223 H193 0.929 . S
C223 C218 1.371 . S
C223 C222 1.382 . S
C224 N187 1.423 . S
C224 C225 1.362 . S
C224 C229 1.388 . S
C225 H195 0.929 . S
C225 C224 1.362 . S
C225 C226 1.376 . S
C226 H197 0.931 . S
C226 C225 1.376 . S
C226 C227 1.396 . S
C227 C226 1.396 . S
C227 C228 1.348 . S
C227 C245 1.472 1_455 S
C228 H198 0.929 . S
C228 C227 1.348 . S
C228 C229 1.443 . S
C229 H196 0.932 . S
C229 C224 1.388 . S
C229 C228 1.443 . S
C230 N210 1.433 . S
C230 C231 1.363 . S
C230 C235 1.370 . S
C231 H199 0.929 . S
C231 C230 1.363 . S
C231 C232 1.385 . S
C232 H200 0.930 . S
C232 C231 1.385 . S
C232 C233 1.357 . S
C233 C232 1.357 . S
C233 C234 1.406 . S
C234 H201 0.929 . S
C234 C233 1.406 . S
C234 C235 1.391 . S
C235 H202 0.931 . S
C235 C230 1.370 . S
C235 C234 1.391 . S
C236 N210 1.435 . S
C236 C237 1.358 . S
C236 C241 1.371 . S
C237 H203 0.930 . S
C237 C236 1.358 . S
C237 C238 1.405 . S
C238 H204 0.932 . S
C238 C237 1.405 . S
C238 C239 1.383 . S
C239 C238 1.383 . S
C239 C240 1.393 . S
C240 H205 0.931 . S
C240 C239 1.393 . S
C240 C241 1.382 . S
C241 H206 0.929 . S
C241 C236 1.371 . S
C241 C240 1.382 . S
C242 N210 1.423 . S
C242 C243 1.362 . S
C242 C247 1.388 . S
C243 H207 0.929 . S
C243 C242 1.362 . S
C243 C244 1.376 . S
C244 H208 0.931 . S
C244 C243 1.376 . S
C244 C245 1.396 . S
C245 C227 1.472 1_655 S
C245 C244 1.396 . S
C245 C246 1.348 . S
C246 H209 0.929 . S
C246 C245 1.348 . S
C246 C247 1.443 . S
C247 H211 0.932 . S
C247 C242 1.388 . S
C247 C246 1.443 . S
H248 C275 0.929 . S
N249 C274 1.433 . S
N249 C280 1.435 . S
N249 C286 1.423 . S
H250 C276 0.930 . S
H251 C279 0.931 . S
H252 C278 0.929 . S
H253 C281 0.930 . S
H254 C282 0.932 . S
H255 C285 0.929 . S
H256 C284 0.931 . S
H257 C287 0.929 . S
H258 C291 0.932 . S
H259 C288 0.931 . S
H260 C290 0.929 . S
H261 C293 0.929 . S
H262 C294 0.930 . S
H263 C296 0.929 . S
H264 C297 0.931 . S
H265 C299 0.930 . S
H266 C300 0.932 . S
H267 C302 0.931 . S
H268 C303 0.929 . S
H269 C305 0.929 . S
H270 C306 0.931 . S
H271 C308 0.929 . S
N272 C292 1.433 . S
N272 C298 1.435 1_554 S
N272 C304 1.445 . S
H273 C309 0.932 . S
C274 N249 1.433 . S
C274 C275 1.363 . S
C274 C279 1.370 . S
C275 H248 0.929 . S
C275 C274 1.363 . S
C275 C276 1.385 . S
C276 H250 0.930 . S
C276 C275 1.385 . S
C276 C277 1.357 1_556 S
C277 C276 1.357 1_554 S
C277 C278 1.406 . S
C278 H252 0.929 . S
C278 C277 1.406 . S
C278 C279 1.391 1_554 S
C279 H251 0.931 . S
C279 C274 1.370 . S
C279 C278 1.391 1_556 S
C280 N249 1.435 . S
C280 C281 1.358 . S
C280 C285 1.371 . S
C281 H253 0.930 . S
C281 C280 1.358 . S
C281 C282 1.405 . S
C282 H254 0.932 . S
C282 C281 1.405 . S
C282 C283 1.383 . S
C283 C282 1.383 . S
C283 C284 1.393 . S
C284 H256 0.931 . S
C284 C283 1.393 . S
C284 C285 1.382 . S
C285 H255 0.929 . S
C285 C280 1.371 . S
C285 C284 1.382 . S
C286 N249 1.423 . S
C286 C287 1.362 . S
C286 C291 1.388 . S
C287 H257 0.929 . S
C287 C286 1.362 . S
C287 C288 1.376 . S
C288 H259 0.931 . S
C288 C287 1.376 . S
C288 C289 1.396 . S
C289 C288 1.396 . S
C289 C290 1.348 . S
C289 C307 1.472 1_545 S
C290 H260 0.929 . S
C290 C289 1.348 . S
C290 C291 1.443 . S
C291 H258 0.932 . S
C291 C286 1.388 . S
C291 C290 1.443 . S
C292 N272 1.433 . S
C292 C293 1.363 . S
C292 C297 1.370 . S
C293 H261 0.929 . S
C293 C292 1.363 . S
C293 C294 1.385 . S
C294 H262 0.930 . S
C294 C293 1.385 . S
C294 C295 1.357 . S
C295 C294 1.357 . S
C295 C296 1.406 . S
C296 H263 0.929 . S
C296 C295 1.406 . S
C296 C297 1.391 . S
C297 H264 0.931 . S
C297 C292 1.370 . S
C297 C296 1.391 . S
C298 N272 1.435 1_556 S
C298 C299 1.358 1_556 S
C298 C303 1.371 . S
C299 H265 0.930 . S
C299 C298 1.358 1_554 S
C299 C300 1.405 1_554 S
C300 H266 0.932 . S
C300 C299 1.405 1_556 S
C300 C301 1.383 . S
C301 C300 1.383 . S
C301 C302 1.393 . S
C302 H267 0.931 . S
C302 C301 1.393 . S
C302 C303 1.382 . S
C303 H268 0.929 . S
C303 C298 1.371 . S
C303 C302 1.382 . S
C304 N272 1.445 . S
C304 C305 1.384 . S
C304 C309 1.347 1_554 S
C305 H269 0.929 . S
C305 C304 1.384 . S
C305 C306 1.376 . S
C306 H270 0.931 . S
C306 C305 1.376 . S
C306 C307 1.396 1_554 S
C307 C289 1.472 1_565 S
C307 C306 1.396 1_556 S
C307 C308 1.348 . S
C308 H271 0.929 . S
C308 C307 1.348 . S
C308 C309 1.443 . S
C309 H273 0.932 . S
C309 C304 1.347 1_556 S
C309 C308 1.443 . S
H310 C337 0.929 . S
N311 C336 1.433 . S
N311 C342 1.435 . S
N311 C348 1.423 . S
H312 C338 0.930 . S
H313 C341 0.931 . S
H314 C340 0.929 . S
H315 C343 0.930 . S
H316 C344 0.932 . S
H317 C347 0.929 . S
H318 C346 0.931 . S
H319 C349 0.929 . S
H320 C353 0.932 . S
H321 C350 0.931 . S
H322 C352 0.929 . S
H323 C355 0.929 . S
H324 C356 0.930 . S
H325 C358 0.929 . S
H326 C359 0.931 . S
H327 C361 0.930 . S
H328 C362 0.932 . S
H329 C364 0.931 . S
H330 C365 0.929 . S
H331 C367 0.929 . S
H332 C368 0.931 . S
H333 C370 0.929 . S
N334 C354 1.433 . S
N334 C360 1.435 . S
N334 C366 1.423 . S
H335 C371 0.932 . S
C336 N311 1.433 . S
C336 C337 1.363 . S
C336 C341 1.370 . S
C337 H310 0.929 . S
C337 C336 1.363 . S
C337 C338 1.385 . S
C338 H312 0.930 . S
C338 C337 1.385 . S
C338 C339 1.357 . S
C339 C338 1.357 . S
C339 C340 1.406 . S
C340 H314 0.929 . S
C340 C339 1.406 . S
C340 C341 1.391 . S
C341 H313 0.931 . S
C341 C336 1.370 . S
C341 C340 1.391 . S
C342 N311 1.435 . S
C342 C343 1.358 . S
C342 C347 1.371 . S
C343 H315 0.930 . S
C343 C342 1.358 . S
C343 C344 1.405 . S
C344 H316 0.932 . S
C344 C343 1.405 . S
C344 C345 1.383 . S
C345 C344 1.383 . S
C345 C346 1.393 . S
C346 H318 0.931 . S
C346 C345 1.393 . S
C346 C347 1.382 . S
C347 H317 0.929 . S
C347 C342 1.371 . S
C347 C346 1.382 . S
C348 N311 1.423 . S
C348 C349 1.362 . S
C348 C353 1.388 . S
C349 H319 0.929 . S
C349 C348 1.362 . S
C349 C350 1.376 . S
C350 H321 0.931 . S
C350 C349 1.376 . S
C350 C351 1.396 . S
C351 C350 1.396 . S
C351 C352 1.348 . S
C351 C369 1.472 . S
C352 H322 0.929 . S
C352 C351 1.348 . S
C352 C353 1.443 . S
C353 H320 0.932 . S
C353 C348 1.388 . S
C353 C352 1.443 . S
C354 N334 1.433 . S
C354 C355 1.363 . S
C354 C359 1.370 . S
C355 H323 0.929 . S
C355 C354 1.363 . S
C355 C356 1.385 . S
C356 H324 0.930 . S
C356 C355 1.385 . S
C356 C357 1.357 . S
C357 C356 1.357 . S
C357 C358 1.406 . S
C358 H325 0.929 . S
C358 C357 1.406 . S
C358 C359 1.391 . S
C359 H326 0.931 . S
C359 C354 1.370 . S
C359 C358 1.391 . S
C360 N334 1.435 . S
C360 C361 1.358 . S
C360 C365 1.371 . S
C361 H327 0.930 . S
C361 C360 1.358 . S
C361 C362 1.405 . S
C362 H328 0.932 . S
C362 C361 1.405 . S
C362 C363 1.383 . S
C363 C362 1.383 . S
C363 C364 1.393 . S
C364 H329 0.931 . S
C364 C363 1.393 . S
C364 C365 1.382 . S
C365 H330 0.929 . S
C365 C360 1.371 . S
C365 C364 1.382 . S
C366 N334 1.423 . S
C366 C367 1.362 . S
C366 C371 1.388 . S
C367 H331 0.929 . S
C367 C366 1.362 . S
C367 C368 1.376 . S
C368 H332 0.931 . S
C368 C367 1.376 . S
C368 C369 1.396 . S
C369 C351 1.472 . S
C369 C368 1.396 . S
C369 C370 1.348 . S
C370 H333 0.929 . S
C370 C369 1.348 . S
C370 C371 1.443 . S
C371 H335 0.932 . S
C371 C366 1.388 . S
C371 C370 1.443 . S
In372 O373 2.294 . S
In372 O374 2.326 . S
In372 O378 2.266 . S
In372 O379 2.326 . S
In372 O380 2.266 . S
In372 O381 2.326 . S
In372 O383 2.294 . S
In372 O384 2.326 . S
O373 In372 2.294 . S
O373 C382 1.240 . S
O374 In372 2.326 . S
O374 C382 1.252 . S
C375 O378 1.252 . S
C375 O379 1.260 . S
C376 O383 1.240 . S
C376 O384 1.252 . S
C377 O380 1.252 . S
C377 O381 1.260 . S
O378 In372 2.266 . S
O378 C375 1.252 . S
O379 In372 2.326 . S
O379 C375 1.260 . S
O380 In372 2.266 . S
O380 C377 1.252 . S
O381 In372 2.326 . S
O381 C377 1.260 . S
C382 O373 1.240 . S
C382 O374 1.252 . S
O383 In372 2.294 . S
O383 C376 1.240 . S
O384 In372 2.326 . S
O384 C376 1.252 . S
In385 O386 2.294 . S
In385 O387 2.326 . S
In385 O391 2.266 . S
In385 O392 2.326 . S
In385 O393 2.266 . S
In385 O394 2.326 . S
In385 O396 2.294 . S
In385 O397 2.326 . S
O386 In385 2.294 . S
O386 C395 1.240 . S
O387 In385 2.326 . S
O387 C395 1.252 . S
C388 O391 1.252 . S
C388 O392 1.260 . S
C389 O396 1.240 . S
C389 O397 1.252 . S
C390 O393 1.252 . S
C390 O394 1.260 . S
O391 In385 2.266 . S
O391 C388 1.252 . S
O392 In385 2.326 . S
O392 C388 1.260 . S
O393 In385 2.266 . S
O393 C390 1.252 . S
O394 In385 2.326 . S
O394 C390 1.260 . S
C395 O386 1.240 . S
C395 O387 1.252 . S
O396 In385 2.294 . S
O396 C389 1.240 . S
O397 In385 2.326 . S
O397 C389 1.252 . S
In398 O399 2.294 . S
In398 O400 2.326 . S
In398 O404 2.266 . S
In398 O405 2.326 . S
In398 O406 2.266 . S
In398 O407 2.326 . S
In398 O409 2.294 . S
In398 O410 2.326 . S
O399 In398 2.294 . S
O399 C408 1.240 . S
O400 In398 2.326 . S
O400 C408 1.252 . S
C401 O404 1.252 . S
C401 O405 1.260 . S
C402 O409 1.240 . S
C402 O410 1.252 . S
C403 O406 1.252 . S
C403 O407 1.260 . S
O404 In398 2.266 . S
O404 C401 1.252 . S
O405 In398 2.326 . S
O405 C401 1.260 . S
O406 In398 2.266 . S
O406 C403 1.252 . S
O407 In398 2.326 . S
O407 C403 1.260 . S
C408 O399 1.240 . S
C408 O400 1.252 . S
O409 In398 2.294 . S
O409 C402 1.240 . S
O410 In398 2.326 . S
O410 C402 1.252 . S
In411 O412 2.294 . S
In411 O413 2.326 . S
In411 O417 2.266 . S
In411 O418 2.326 . S
In411 O419 2.266 . S
In411 O420 2.326 . S
In411 O422 2.294 . S
In411 O423 2.326 . S
O412 In411 2.294 . S
O412 C421 1.240 . S
O413 In411 2.326 . S
O413 C421 1.252 . S
C414 O417 1.252 . S
C414 O418 1.260 . S
C415 O422 1.240 . S
C415 O423 1.252 . S
C416 O419 1.252 . S
C416 O420 1.260 . S
O417 In411 2.266 . S
O417 C414 1.252 . S
O418 In411 2.326 . S
O418 C414 1.260 . S
O419 In411 2.266 . S
O419 C416 1.252 . S
O420 In411 2.326 . S
O420 C416 1.260 . S
C421 O412 1.240 . S
C421 O413 1.252 . S
O422 In411 2.294 . S
O422 C415 1.240 . S
O423 In411 2.326 . S
O423 C415 1.252 . S
In424 O425 2.294 . S
In424 O426 2.326 . S
In424 O430 2.266 . S
In424 O431 2.326 . S
In424 O432 2.266 . S
In424 O433 2.326 . S
In424 O435 2.294 . S
In424 O436 2.326 . S
O425 In424 2.294 . S
O425 C434 1.240 . S
O426 In424 2.326 . S
O426 C434 1.252 . S
C427 O430 1.252 . S
C427 O431 1.260 . S
C428 O435 1.240 . S
C428 O436 1.252 . S
C429 O432 1.252 . S
C429 O433 1.260 . S
O430 In424 2.266 . S
O430 C427 1.252 . S
O431 In424 2.326 . S
O431 C427 1.260 . S
O432 In424 2.266 . S
O432 C429 1.252 . S
O433 In424 2.326 . S
O433 C429 1.260 . S
C434 O425 1.240 . S
C434 O426 1.252 . S
O435 In424 2.294 . S
O435 C428 1.240 . S
O436 In424 2.326 . S
O436 C428 1.252 . S
In437 O438 2.294 . S
In437 O439 2.326 . S
In437 O443 2.266 . S
In437 O444 2.326 . S
In437 O445 2.266 . S
In437 O446 2.326 . S
In437 O448 2.294 . S
In437 O449 2.326 . S
O438 In437 2.294 . S
O438 C447 1.240 . S
O439 In437 2.326 . S
O439 C447 1.252 . S
C440 O443 1.252 . S
C440 O444 1.260 . S
C441 O448 1.240 . S
C441 O449 1.252 . S
C442 O445 1.252 . S
C442 O446 1.260 . S
O443 In437 2.266 . S
O443 C440 1.252 . S
O444 In437 2.326 . S
O444 C440 1.260 . S
O445 In437 2.266 . S
O445 C442 1.252 . S
O446 In437 2.326 . S
O446 C442 1.260 . S
C447 O438 1.240 . S
C447 O439 1.252 . S
O448 In437 2.294 . S
O448 C441 1.240 . S
O449 In437 2.326 . S
O449 C441 1.252 . S
H450 C462 0.930 . S
H451 C464 0.930 . S
H452 C465 0.930 . S
H453 C469 0.959 . S
H454 C469 0.959 . S
H455 C469 0.961 . S
H456 C470 0.960 . S
H457 C470 0.961 . S
H458 C470 0.959 . S
H459 C473 0.929 . S
H460 C474 0.931 . S
H461 C476 0.930 . S
C462 H450 0.930 . S
C462 C463 1.399 . S
C462 C467 1.399 . S
C463 C462 1.399 . S
C463 C464 1.376 . S
C464 H451 0.930 . S
C464 C463 1.376 . S
C464 C465 1.388 . S
C465 H452 0.930 . S
C465 C464 1.388 . S
C465 C466 1.390 . S
C466 C465 1.390 . S
C466 C467 1.394 . S
C466 C472 1.465 . S
C467 C462 1.399 . S
C467 C466 1.394 . S
C467 C468 1.516 . S
C468 C467 1.516 . S
C468 C469 1.502 . S
C468 C470 1.561 . S
C468 C471 1.526 . S
C469 H453 0.959 . S
C469 H454 0.959 . S
C469 H455 0.961 . S
C469 C468 1.502 . S
C470 H456 0.960 . S
C470 H457 0.961 . S
C470 H458 0.959 . S
C470 C468 1.561 . S
C471 C468 1.526 . S
C471 C472 1.396 . S
C471 C476 1.390 . S
C472 C466 1.465 . S
C472 C471 1.396 . S
C472 C473 1.399 . S
C473 H459 0.929 . S
C473 C472 1.399 . S
C473 C474 1.385 . S
C474 H460 0.931 . S
C474 C473 1.385 . S
C474 C475 1.389 . S
C475 C474 1.389 . S
C475 C476 1.387 . S
C476 H461 0.930 . S
C476 C471 1.390 . S
C476 C475 1.387 . S
H477 C489 0.930 . S
H478 C491 0.930 . S
H479 C492 0.930 . S
H480 C496 0.959 . S
H481 C496 0.959 . S
H482 C496 0.961 . S
H483 C497 0.960 . S
H484 C497 0.961 . S
H485 C497 0.959 . S
H486 C500 0.929 . S
H487 C501 0.931 . S
H488 C503 0.930 . S
C489 H477 0.930 . S
C489 C490 1.399 . S
C489 C494 1.399 . S
C490 C489 1.399 . S
C490 C491 1.376 . S
C491 H478 0.930 . S
C491 C490 1.376 . S
C491 C492 1.388 . S
C492 H479 0.930 . S
C492 C491 1.388 . S
C492 C493 1.390 . S
C493 C492 1.390 . S
C493 C494 1.394 . S
C493 C499 1.465 . S
C494 C489 1.399 . S
C494 C493 1.394 . S
C494 C495 1.516 . S
C495 C494 1.516 . S
C495 C496 1.502 . S
C495 C497 1.561 . S
C495 C498 1.526 . S
C496 H480 0.959 . S
C496 H481 0.959 . S
C496 H482 0.961 . S
C496 C495 1.502 . S
C497 H483 0.960 . S
C497 H484 0.961 . S
C497 H485 0.959 . S
C497 C495 1.561 . S
C498 C495 1.526 . S
C498 C499 1.396 . S
C498 C503 1.390 . S
C499 C493 1.465 . S
C499 C498 1.396 . S
C499 C500 1.399 . S
C500 H486 0.929 . S
C500 C499 1.399 . S
C500 C501 1.385 . S
C501 H487 0.931 . S
C501 C500 1.385 . S
C501 C502 1.389 . S
C502 C501 1.389 . S
C502 C503 1.387 . S
C503 H488 0.930 . S
C503 C498 1.390 . S
C503 C502 1.387 . S
H504 C516 0.930 . S
H505 C518 0.930 . S
H506 C519 0.930 . S
H507 C523 0.959 . S
H508 C523 0.959 . S
H509 C523 0.961 . S
H510 C524 0.960 . S
H511 C524 0.961 . S
H512 C524 0.959 . S
H513 C527 0.929 . S
H514 C528 0.931 . S
H515 C530 0.930 . S
C516 H504 0.930 . S
C516 C517 1.399 . S
C516 C521 1.399 . S
C517 C516 1.399 . S
C517 C518 1.376 . S
C518 H505 0.930 . S
C518 C517 1.376 . S
C518 C519 1.388 . S
C519 H506 0.930 . S
C519 C518 1.388 . S
C519 C520 1.390 . S
C520 C519 1.390 . S
C520 C521 1.394 . S
C520 C526 1.465 . S
C521 C516 1.399 . S
C521 C520 1.394 . S
C521 C522 1.516 . S
C522 C521 1.516 . S
C522 C523 1.502 . S
C522 C524 1.561 . S
C522 C525 1.526 . S
C523 H507 0.959 . S
C523 H508 0.959 . S
C523 H509 0.961 . S
C523 C522 1.502 . S
C524 H510 0.960 . S
C524 H511 0.961 . S
C524 H512 0.959 . S
C524 C522 1.561 . S
C525 C522 1.526 . S
C525 C526 1.396 . S
C525 C530 1.390 . S
C526 C520 1.465 . S
C526 C525 1.396 . S
C526 C527 1.399 . S
C527 H513 0.929 . S
C527 C526 1.399 . S
C527 C528 1.385 . S
C528 H514 0.931 . S
C528 C527 1.385 . S
C528 C529 1.389 . S
C529 C528 1.389 . S
C529 C530 1.387 . S
C530 H515 0.930 . S
C530 C525 1.390 . S
C530 C529 1.387 . S
H531 C543 0.930 . S
H532 C545 0.930 . S
H533 C546 0.930 . S
H534 C550 0.959 . S
H535 C550 0.959 . S
H536 C550 0.961 . S
H537 C551 0.960 . S
H538 C551 0.961 . S
H539 C551 0.959 . S
H540 C554 0.929 . S
H541 C555 0.931 . S
H542 C557 0.930 . S
C543 H531 0.930 . S
C543 C544 1.399 . S
C543 C548 1.399 . S
C544 C543 1.399 . S
C544 C545 1.376 . S
C545 H532 0.930 . S
C545 C544 1.376 . S
C545 C546 1.388 . S
C546 H533 0.930 . S
C546 C545 1.388 . S
C546 C547 1.390 . S
C547 C546 1.390 . S
C547 C548 1.394 . S
C547 C553 1.465 . S
C548 C543 1.399 . S
C548 C547 1.394 . S
C548 C549 1.516 . S
C549 C548 1.516 . S
C549 C550 1.502 . S
C549 C551 1.561 . S
C549 C552 1.526 . S
C550 H534 0.959 . S
C550 H535 0.959 . S
C550 H536 0.961 . S
C550 C549 1.502 . S
C551 H537 0.960 . S
C551 H538 0.961 . S
C551 H539 0.959 . S
C551 C549 1.561 . S
C552 C549 1.526 . S
C552 C553 1.396 . S
C552 C557 1.390 . S
C553 C547 1.465 . S
C553 C552 1.396 . S
C553 C554 1.399 . S
C554 H540 0.929 . S
C554 C553 1.399 . S
C554 C555 1.385 . S
C555 H541 0.931 . S
C555 C554 1.385 . S
C555 C556 1.389 . S
C556 C555 1.389 . S
C556 C557 1.387 . S
C557 H542 0.930 . S
C557 C552 1.390 . S
C557 C556 1.387 . S
H558 C570 0.930 . S
H559 C572 0.930 . S
H560 C573 0.930 . S
H561 C577 0.959 . S
H562 C577 0.959 . S
H563 C577 0.961 . S
H564 C578 0.949 1_554 S
H565 C578 0.961 . S
H566 C578 0.959 . S
H567 C581 0.929 . S
H568 C582 0.931 . S
H569 C584 0.930 . S
C570 H558 0.930 . S
C570 C571 1.399 . S
C570 C575 1.399 . S
C571 C570 1.399 . S
C571 C572 1.376 . S
C572 H559 0.930 . S
C572 C571 1.376 . S
C572 C573 1.388 . S
C573 H560 0.930 . S
C573 C572 1.388 . S
C573 C574 1.390 . S
C574 C573 1.390 . S
C574 C575 1.394 . S
C574 C580 1.465 . S
C575 C570 1.399 . S
C575 C574 1.394 . S
C575 C576 1.516 . S
C576 C575 1.516 . S
C576 C577 1.502 . S
C576 C578 1.561 . S
C576 C579 1.526 . S
C577 H561 0.959 . S
C577 H562 0.959 . S
C577 H563 0.961 . S
C577 C576 1.502 . S
C578 H564 0.949 1_556 S
C578 H565 0.961 . S
C578 H566 0.959 . S
C578 C576 1.561 . S
C579 C576 1.526 . S
C579 C580 1.396 . S
C579 C584 1.390 . S
C580 C574 1.465 . S
C580 C579 1.396 . S
C580 C581 1.399 . S
C581 H567 0.929 . S
C581 C580 1.399 . S
C581 C582 1.385 . S
C582 H568 0.931 . S
C582 C581 1.385 . S
C582 C583 1.389 . S
C583 C582 1.389 . S
C583 C584 1.387 . S
C584 H569 0.930 . S
C584 C579 1.390 . S
C584 C583 1.387 . S
H585 C597 0.930 . S
H586 C599 0.930 . S
H587 C600 0.930 . S
H588 C604 0.959 . S
H589 C604 0.959 . S
H590 C604 0.961 . S
H591 C605 0.960 . S
H592 C605 0.961 . S
H593 C605 0.959 . S
H594 C608 0.929 . S
H595 C609 0.931 . S
H596 C611 0.930 . S
C597 H585 0.930 . S
C597 C598 1.399 . S
C597 C602 1.399 . S
C598 C597 1.399 . S
C598 C599 1.376 . S
C599 H586 0.930 . S
C599 C598 1.376 . S
C599 C600 1.388 . S
C600 H587 0.930 . S
C600 C599 1.388 . S
C600 C601 1.390 . S
C601 C600 1.390 . S
C601 C602 1.394 . S
C601 C607 1.465 . S
C602 C597 1.399 . S
C602 C601 1.394 . S
C602 C603 1.516 . S
C603 C602 1.516 . S
C603 C604 1.502 . S
C603 C605 1.561 . S
C603 C606 1.526 . S
C604 H588 0.959 . S
C604 H589 0.959 . S
C604 H590 0.961 . S
C604 C603 1.502 . S
C605 H591 0.960 . S
C605 H592 0.961 . S
C605 H593 0.959 . S
C605 C603 1.561 . S
C606 C603 1.526 . S
C606 C607 1.396 . S
C606 C611 1.390 . S
C607 C601 1.465 . S
C607 C606 1.396 . S
C607 C608 1.399 . S
C608 H594 0.929 . S
C608 C607 1.399 . S
C608 C609 1.385 . S
C609 H595 0.931 . S
C609 C608 1.385 . S
C609 C610 1.389 . S
C610 C609 1.389 . S
C610 C611 1.387 . S
C611 H596 0.930 . S
C611 C606 1.390 . S
C611 C610 1.387 . S
H612 C624 0.930 . S
H613 C626 0.930 . S
H614 C627 0.930 . S
H615 C631 0.959 . S
H616 C631 0.959 . S
H617 C631 0.961 . S
H618 C632 0.960 . S
H619 C632 0.961 . S
H620 C632 0.959 . S
H621 C635 0.929 . S
H622 C636 0.931 . S
H623 C638 0.930 . S
C624 H612 0.930 . S
C624 C625 1.399 . S
C624 C629 1.399 . S
C625 C624 1.399 . S
C625 C626 1.376 . S
C626 H613 0.930 . S
C626 C625 1.376 . S
C626 C627 1.388 . S
C627 H614 0.930 . S
C627 C626 1.388 . S
C627 C628 1.390 . S
C628 C627 1.390 . S
C628 C629 1.394 . S
C628 C634 1.465 . S
C629 C624 1.399 . S
C629 C628 1.394 . S
C629 C630 1.516 . S
C630 C629 1.516 . S
C630 C631 1.502 . S
C630 C632 1.561 . S
C630 C633 1.526 . S
C631 H615 0.959 . S
C631 H616 0.959 . S
C631 H617 0.961 . S
C631 C630 1.502 . S
C632 H618 0.960 . S
C632 H619 0.961 . S
C632 H620 0.959 . S
C632 C630 1.561 . S
C633 C630 1.526 . S
C633 C634 1.396 . S
C633 C638 1.390 . S
C634 C628 1.465 . S
C634 C633 1.396 . S
C634 C635 1.399 . S
C635 H621 0.929 . S
C635 C634 1.399 . S
C635 C636 1.385 . S
C636 H622 0.931 . S
C636 C635 1.385 . S
C636 C637 1.389 . S
C637 C636 1.389 . S
C637 C638 1.387 . S
C638 H623 0.930 . S
C638 C633 1.390 . S
C638 C637 1.387 . S
H639 C651 0.930 . S
H640 C653 0.930 . S
H641 C654 0.930 . S
H642 C658 0.959 . S
H643 C658 0.959 . S
H644 C658 0.961 . S
H645 C659 0.960 . S
H646 C659 0.961 . S
H647 C659 0.959 . S
H648 C662 0.929 . S
H649 C663 0.931 . S
H650 C665 0.930 . S
C651 H639 0.930 . S
C651 C652 1.399 . S
C651 C656 1.399 . S
C652 C651 1.399 . S
C652 C653 1.376 . S
C653 H640 0.930 . S
C653 C652 1.376 . S
C653 C654 1.388 . S
C654 H641 0.930 . S
C654 C653 1.388 . S
C654 C655 1.390 . S
C655 C654 1.390 . S
C655 C656 1.394 . S
C655 C661 1.465 . S
C656 C651 1.399 . S
C656 C655 1.394 . S
C656 C657 1.516 . S
C657 C656 1.516 . S
C657 C658 1.502 . S
C657 C659 1.561 . S
C657 C660 1.526 . S
C658 H642 0.959 . S
C658 H643 0.959 . S
C658 H644 0.961 . S
C658 C657 1.502 . S
C659 H645 0.960 . S
C659 H646 0.961 . S
C659 H647 0.959 . S
C659 C657 1.561 . S
C660 C657 1.526 . S
C660 C661 1.396 . S
C660 C665 1.390 . S
C661 C655 1.465 . S
C661 C660 1.396 . S
C661 C662 1.399 . S
C662 H648 0.929 . S
C662 C661 1.399 . S
C662 C663 1.385 . S
C663 H649 0.931 . S
C663 C662 1.385 . S
C663 C664 1.389 . S
C664 C663 1.389 . S
C664 C665 1.387 . S
C665 H650 0.930 . S
C665 C660 1.390 . S
C665 C664 1.387 . S
H666 C678 0.930 . S
H667 C680 0.930 . S
H668 C681 0.930 . S
H669 C685 0.959 . S
H670 C685 0.959 . S
H671 C685 0.961 . S
H672 C686 0.960 . S
H673 C686 0.961 . S
H674 C686 0.959 . S
H675 C689 0.929 . S
H676 C690 0.931 . S
H677 C692 0.930 . S
C678 H666 0.930 . S
C678 C679 1.399 . S
C678 C683 1.399 . S
C679 C678 1.399 . S
C679 C680 1.376 . S
C680 H667 0.930 . S
C680 C679 1.376 . S
C680 C681 1.388 . S
C681 H668 0.930 . S
C681 C680 1.388 . S
C681 C682 1.390 . S
C682 C681 1.390 . S
C682 C683 1.394 . S
C682 C688 1.465 . S
C683 C678 1.399 . S
C683 C682 1.394 . S
C683 C684 1.516 . S
C684 C683 1.516 . S
C684 C685 1.502 . S
C684 C686 1.561 . S
C684 C687 1.526 . S
C685 H669 0.959 . S
C685 H670 0.959 . S
C685 H671 0.961 . S
C685 C684 1.502 . S
C686 H672 0.960 . S
C686 H673 0.961 . S
C686 H674 0.959 . S
C686 C684 1.561 . S
C687 C684 1.526 . S
C687 C688 1.396 . S
C687 C692 1.390 . S
C688 C682 1.465 . S
C688 C687 1.396 . S
C688 C689 1.399 . S
C689 H675 0.929 . S
C689 C688 1.399 . S
C689 C690 1.385 . S
C690 H676 0.931 . S
C690 C689 1.385 . S
C690 C691 1.389 . S
C691 C690 1.389 . S
C691 C692 1.387 . S
C692 H677 0.930 . S
C692 C687 1.390 . S
C692 C691 1.387 . S
H693 C705 0.926 . S
H694 C707 0.930 . S
H695 C708 0.930 . S
H696 C712 0.959 1_554 S
H697 C712 0.959 . S
H698 C712 0.961 . S
H699 C713 0.997 . S
H700 C713 0.986 . S
H701 C713 0.929 1_554 S
H702 C716 0.929 . S
H703 C717 0.931 . S
H704 C719 0.930 . S
C705 H693 0.926 . S
C705 C706 1.399 . S
C705 C710 1.399 . S
C706 C705 1.399 . S
C706 C707 1.376 . S
C707 H694 0.930 . S
C707 C706 1.376 . S
C707 C708 1.388 . S
C708 H695 0.930 . S
C708 C707 1.388 . S
C708 C709 1.390 . S
C709 C708 1.390 . S
C709 C710 1.394 . S
C709 C715 1.465 . S
C710 C705 1.399 . S
C710 C709 1.394 . S
C710 C711 1.516 . S
C711 C710 1.516 . S
C711 C712 1.502 1_554 S
C711 C713 1.532 1_554 S
C711 C714 1.526 . S
C712 H696 0.959 1_556 S
C712 H697 0.959 . S
C712 H698 0.961 . S
C712 C711 1.502 1_556 S
C713 H699 0.997 . S
C713 H700 0.986 . S
C713 H701 0.929 1_556 S
C713 C711 1.532 1_556 S
C714 C711 1.526 . S
C714 C715 1.396 . S
C714 C719 1.390 . S
C715 C709 1.465 . S
C715 C714 1.396 . S
C715 C716 1.399 . S
C716 H702 0.929 . S
C716 C715 1.399 . S
C716 C717 1.385 . S
C717 H703 0.931 . S
C717 C716 1.385 . S
C717 C718 1.389 . S
C718 C717 1.389 . S
C718 C719 1.387 . S
C719 H704 0.930 . S
C719 C714 1.390 . S
C719 C718 1.387 . S
H720 C732 0.930 . S
H721 C734 0.930 . S
H722 C735 0.930 . S
H723 C739 0.959 . S
H724 C739 0.959 . S
H725 C739 0.961 . S
H726 C740 0.960 . S
H727 C740 0.961 . S
H728 C740 0.959 . S
H729 C743 0.929 . S
H730 C744 0.931 . S
H731 C746 0.930 . S
C732 H720 0.930 . S
C732 C733 1.399 . S
C732 C737 1.399 . S
C733 C732 1.399 . S
C733 C734 1.376 . S
C734 H721 0.930 . S
C734 C733 1.376 . S
C734 C735 1.388 . S
C735 H722 0.930 . S
C735 C734 1.388 . S
C735 C736 1.390 . S
C736 C735 1.390 . S
C736 C737 1.394 . S
C736 C742 1.465 . S
C737 C732 1.399 . S
C737 C736 1.394 . S
C737 C738 1.516 . S
C738 C737 1.516 . S
C738 C739 1.502 . S
C738 C740 1.561 . S
C738 C741 1.526 . S
C739 H723 0.959 . S
C739 H724 0.959 . S
C739 H725 0.961 . S
C739 C738 1.502 . S
C740 H726 0.960 . S
C740 H727 0.961 . S
C740 H728 0.959 . S
C740 C738 1.561 . S
C741 C738 1.526 . S
C741 C742 1.396 . S
C741 C746 1.390 . S
C742 C736 1.465 . S
C742 C741 1.396 . S
C742 C743 1.399 . S
C743 H729 0.929 . S
C743 C742 1.399 . S
C743 C744 1.385 . S
C744 H730 0.931 . S
C744 C743 1.385 . S
C744 C745 1.389 . S
C745 C744 1.389 . S
C745 C746 1.387 . S
C746 H731 0.930 . S
C746 C741 1.390 . S
C746 C745 1.387 . S
H747 C759 0.930 . S
H748 C761 0.930 . S
H749 C762 0.930 . S
H750 C766 0.959 . S
H751 C766 0.959 . S
H752 C766 0.961 . S
H753 C767 0.960 . S
H754 C767 0.961 . S
H755 C767 0.959 . S
H756 C770 0.929 . S
H757 C771 0.931 . S
H758 C773 0.930 . S
C759 H747 0.930 . S
C759 C760 1.399 . S
C759 C764 1.399 . S
C760 C759 1.399 . S
C760 C761 1.376 . S
C761 H748 0.930 . S
C761 C760 1.376 . S
C761 C762 1.388 . S
C762 H749 0.930 . S
C762 C761 1.388 . S
C762 C763 1.390 . S
C763 C762 1.390 . S
C763 C764 1.394 . S
C763 C769 1.465 . S
C764 C759 1.399 . S
C764 C763 1.394 . S
C764 C765 1.516 . S
C765 C764 1.516 . S
C765 C766 1.502 . S
C765 C767 1.561 . S
C765 C768 1.526 . S
C766 H750 0.959 . S
C766 H751 0.959 . S
C766 H752 0.961 . S
C766 C765 1.502 . S
C767 H753 0.960 . S
C767 H754 0.961 . S
C767 H755 0.959 . S
C767 C765 1.561 . S
C768 C765 1.526 . S
C768 C769 1.396 . S
C768 C773 1.390 . S
C769 C763 1.465 . S
C769 C768 1.396 . S
C769 C770 1.399 . S
C770 H756 0.929 . S
C770 C769 1.399 . S
C770 C771 1.385 . S
C771 H757 0.931 . S
C771 C770 1.385 . S
C771 C772 1.389 . S
C772 C771 1.389 . S
C772 C773 1.387 . S
C773 H758 0.930 . S
C773 C768 1.390 . S
C773 C772 1.387 . S
H774 C786 0.930 . S
H775 C788 0.930 . S
H776 C789 0.930 . S
H777 C793 0.959 . S
H778 C793 0.959 . S
H779 C793 0.961 . S
H780 C794 0.960 . S
H781 C794 0.961 . S
H782 C794 0.959 . S
H783 C797 0.929 . S
H784 C798 0.931 . S
H785 C800 0.930 . S
C786 H774 0.930 . S
C786 C787 1.399 . S
C786 C791 1.399 . S
C787 C786 1.399 . S
C787 C788 1.376 . S
C788 H775 0.930 . S
C788 C787 1.376 . S
C788 C789 1.388 . S
C789 H776 0.930 . S
C789 C788 1.388 . S
C789 C790 1.390 . S
C790 C789 1.390 . S
C790 C791 1.394 . S
C790 C796 1.465 . S
C791 C786 1.399 . S
C791 C790 1.394 . S
C791 C792 1.516 . S
C792 C791 1.516 . S
C792 C793 1.502 . S
C792 C794 1.561 . S
C792 C795 1.526 . S
C793 H777 0.959 . S
C793 H778 0.959 . S
C793 H779 0.961 . S
C793 C792 1.502 . S
C794 H780 0.960 . S
C794 H781 0.961 . S
C794 H782 0.959 . S
C794 C792 1.561 . S
C795 C792 1.526 . S
C795 C796 1.396 . S
C795 C800 1.390 . S
C796 C790 1.465 . S
C796 C795 1.396 . S
C796 C797 1.399 . S
C797 H783 0.929 . S
C797 C796 1.399 . S
C797 C798 1.385 . S
C798 H784 0.931 . S
C798 C797 1.385 . S
C798 C799 1.389 . S
C799 C798 1.389 . S
C799 C800 1.387 . S
C800 H785 0.930 . S
C800 C795 1.390 . S
C800 C799 1.387 . S
H801 C813 0.930 . S
H802 C815 0.930 . S
H803 C816 0.930 . S
H804 C820 0.959 . S
H805 C820 0.959 . S
H806 C820 0.961 . S
H807 C821 0.960 . S
H808 C821 0.961 . S
H809 C821 0.959 . S
H810 C824 0.929 . S
H811 C825 0.931 . S
H812 C827 0.930 . S
C813 H801 0.930 . S
C813 C814 1.399 . S
C813 C818 1.399 . S
C814 C813 1.399 . S
C814 C815 1.376 . S
C815 H802 0.930 . S
C815 C814 1.376 . S
C815 C816 1.388 . S
C816 H803 0.930 . S
C816 C815 1.388 . S
C816 C817 1.390 . S
C817 C816 1.390 . S
C817 C818 1.394 . S
C817 C823 1.465 . S
C818 C813 1.399 . S
C818 C817 1.394 . S
C818 C819 1.516 . S
C819 C818 1.516 . S
C819 C820 1.502 . S
C819 C821 1.561 . S
C819 C822 1.526 . S
C820 H804 0.959 . S
C820 H805 0.959 . S
C820 H806 0.961 . S
C820 C819 1.502 . S
C821 H807 0.960 . S
C821 H808 0.961 . S
C821 H809 0.959 . S
C821 C819 1.561 . S
C822 C819 1.526 . S
C822 C823 1.396 . S
C822 C827 1.390 . S
C823 C817 1.465 . S
C823 C822 1.396 . S
C823 C824 1.399 . S
C824 H810 0.929 . S
C824 C823 1.399 . S
C824 C825 1.385 . S
C825 H811 0.931 . S
C825 C824 1.385 . S
C825 C826 1.389 . S
C826 C825 1.389 . S
C826 C827 1.387 . S
C827 H812 0.930 . S
C827 C822 1.390 . S
C827 C826 1.387 . S
H828 C840 0.930 . S
H829 C842 0.930 . S
H830 C843 0.930 . S
H831 C847 0.959 . S
H832 C847 0.959 . S
H833 C847 0.961 . S
H834 C848 0.960 . S
H835 C848 0.961 . S
H836 C848 0.959 . S
H837 C851 0.929 . S
H838 C852 0.931 . S
H839 C854 0.930 . S
C840 H828 0.930 . S
C840 C841 1.399 . S
C840 C845 1.399 . S
C841 C840 1.399 . S
C841 C842 1.376 . S
C842 H829 0.930 . S
C842 C841 1.376 . S
C842 C843 1.388 . S
C843 H830 0.930 . S
C843 C842 1.388 . S
C843 C844 1.390 . S
C844 C843 1.390 . S
C844 C845 1.394 . S
C844 C850 1.465 . S
C845 C840 1.399 . S
C845 C844 1.394 . S
C845 C846 1.516 . S
C846 C845 1.516 . S
C846 C847 1.502 . S
C846 C848 1.561 . S
C846 C849 1.526 . S
C847 H831 0.959 . S
C847 H832 0.959 . S
C847 H833 0.961 . S
C847 C846 1.502 . S
C848 H834 0.960 . S
C848 H835 0.961 . S
C848 H836 0.959 . S
C848 C846 1.561 . S
C849 C846 1.526 . S
C849 C850 1.396 . S
C849 C854 1.390 . S
C850 C844 1.465 . S
C850 C849 1.396 . S
C850 C851 1.399 . S
C851 H837 0.929 . S
C851 C850 1.399 . S
C851 C852 1.385 . S
C852 H838 0.931 . S
C852 C851 1.385 . S
C852 C853 1.389 . S
C853 C852 1.389 . S
C853 C854 1.387 . S
C854 H839 0.930 . S
C854 C849 1.390 . S
C854 C853 1.387 . S
H855 C867 0.930 . S
H856 C869 0.930 . S
H857 C870 0.930 . S
H858 C874 0.959 . S
H859 C874 0.959 . S
H860 C874 0.961 . S
H861 C875 0.960 . S
H862 C875 0.961 . S
H863 C875 0.959 . S
H864 C878 0.929 . S
H865 C879 0.931 . S
H866 C881 0.930 . S
C867 H855 0.930 . S
C867 C868 1.399 . S
C867 C872 1.399 . S
C868 C867 1.399 . S
C868 C869 1.376 . S
C869 H856 0.930 . S
C869 C868 1.376 . S
C869 C870 1.388 . S
C870 H857 0.930 . S
C870 C869 1.388 . S
C870 C871 1.390 . S
C871 C870 1.390 . S
C871 C872 1.394 . S
C871 C877 1.465 . S
C872 C867 1.399 . S
C872 C871 1.394 . S
C872 C873 1.516 . S
C873 C872 1.516 . S
C873 C874 1.502 . S
C873 C875 1.561 . S
C873 C876 1.526 . S
C874 H858 0.959 . S
C874 H859 0.959 . S
C874 H860 0.961 . S
C874 C873 1.502 . S
C875 H861 0.960 . S
C875 H862 0.961 . S
C875 H863 0.959 . S
C875 C873 1.561 . S
C876 C873 1.526 . S
C876 C877 1.396 . S
C876 C881 1.390 1_556 S
C877 C871 1.465 . S
C877 C876 1.396 . S
C877 C878 1.399 . S
C878 H864 0.929 . S
C878 C877 1.399 . S
C878 C879 1.385 1_556 S
C879 H865 0.931 . S
C879 C878 1.385 1_554 S
C879 C880 1.389 . S
C880 C879 1.389 . S
C880 C881 1.387 . S
C881 H866 0.930 . S
C881 C876 1.390 1_554 S
C881 C880 1.387 . S
H882 C894 0.930 . S
H883 C896 0.930 . S
H884 C897 0.930 . S
H885 C901 0.959 . S
H886 C901 0.959 . S
H887 C901 0.961 . S
H888 C902 0.960 . S
H889 C902 0.961 . S
H890 C902 0.959 . S
H891 C905 0.929 . S
H892 C906 0.931 . S
H893 C908 0.930 . S
C894 H882 0.930 . S
C894 C895 1.399 . S
C894 C899 1.399 . S
C895 C894 1.399 . S
C895 C896 1.376 . S
C896 H883 0.930 . S
C896 C895 1.376 . S
C896 C897 1.388 . S
C897 H884 0.930 . S
C897 C896 1.388 . S
C897 C898 1.390 . S
C898 C897 1.390 . S
C898 C899 1.394 . S
C898 C904 1.465 . S
C899 C894 1.399 . S
C899 C898 1.394 . S
C899 C900 1.516 . S
C900 C899 1.516 . S
C900 C901 1.502 . S
C900 C902 1.561 . S
C900 C903 1.526 . S
C901 H885 0.959 . S
C901 H886 0.959 . S
C901 H887 0.961 . S
C901 C900 1.502 . S
C902 H888 0.960 . S
C902 H889 0.961 . S
C902 H890 0.959 . S
C902 C900 1.561 . S
C903 C900 1.526 . S
C903 C904 1.396 . S
C903 C908 1.390 . S
C904 C898 1.465 . S
C904 C903 1.396 . S
C904 C905 1.399 . S
C905 H891 0.929 . S
C905 C904 1.399 . S
C905 C906 1.385 . S
C906 H892 0.931 . S
C906 C905 1.385 . S
C906 C907 1.389 . S
C907 C906 1.389 . S
C907 C908 1.387 . S
C908 H893 0.930 . S
C908 C903 1.390 . S
C908 C907 1.387 . S
H909 C921 0.930 . S
H910 C923 0.930 . S
H911 C924 0.930 . S
H912 C928 0.959 . S
H913 C928 0.959 . S
H914 C928 0.961 . S
H915 C929 0.960 . S
H916 C929 0.961 . S
H917 C929 0.959 . S
H918 C932 0.929 . S
H919 C933 0.931 . S
H920 C935 0.930 . S
C921 H909 0.930 . S
C921 C922 1.399 . S
C921 C926 1.399 . S
C922 C921 1.399 . S
C922 C923 1.376 . S
C923 H910 0.930 . S
C923 C922 1.376 . S
C923 C924 1.388 . S
C924 H911 0.930 . S
C924 C923 1.388 . S
C924 C925 1.390 . S
C925 C924 1.390 . S
C925 C926 1.394 . S
C925 C931 1.465 . S
C926 C921 1.399 . S
C926 C925 1.394 . S
C926 C927 1.516 . S
C927 C926 1.516 . S
C927 C928 1.502 . S
C927 C929 1.561 . S
C927 C930 1.526 . S
C928 H912 0.959 . S
C928 H913 0.959 . S
C928 H914 0.961 . S
C928 C927 1.502 . S
C929 H915 0.960 . S
C929 H916 0.961 . S
C929 H917 0.959 . S
C929 C927 1.561 . S
C930 C927 1.526 . S
C930 C931 1.396 . S
C930 C935 1.390 . S
C931 C925 1.465 . S
C931 C930 1.396 . S
C931 C932 1.399 . S
C932 H918 0.929 . S
C932 C931 1.399 . S
C932 C933 1.385 . S
C933 H919 0.931 . S
C933 C932 1.385 . S
C933 C934 1.389 . S
C934 C933 1.389 . S
C934 C935 1.387 . S
C935 H920 0.930 . S
C935 C930 1.390 . S
C935 C934 1.387 . S
H936 C948 0.930 . S
H937 C950 0.930 . S
H938 C951 0.930 . S
H939 C955 0.959 . S
H940 C955 0.959 . S
H941 C955 0.961 . S
H942 C956 0.960 . S
H943 C956 0.961 . S
H944 C956 0.959 . S
H945 C959 0.929 . S
H946 C960 0.931 . S
H947 C962 0.930 . S
C948 H936 0.930 . S
C948 C949 1.399 . S
C948 C953 1.399 . S
C949 C948 1.399 . S
C949 C950 1.376 . S
C950 H937 0.930 . S
C950 C949 1.376 . S
C950 C951 1.388 . S
C951 H938 0.930 . S
C951 C950 1.388 . S
C951 C952 1.390 . S
C952 C951 1.390 . S
C952 C953 1.394 . S
C952 C958 1.465 . S
C953 C948 1.399 . S
C953 C952 1.394 . S
C953 C954 1.516 . S
C954 C953 1.516 . S
C954 C955 1.502 . S
C954 C956 1.561 . S
C954 C957 1.526 . S
C955 H939 0.959 . S
C955 H940 0.959 . S
C955 H941 0.961 . S
C955 C954 1.502 . S
C956 H942 0.960 . S
C956 H943 0.961 . S
C956 H944 0.959 . S
C956 C954 1.561 . S
C957 C954 1.526 . S
C957 C958 1.396 . S
C957 C962 1.390 . S
C958 C952 1.465 . S
C958 C957 1.396 . S
C958 C959 1.399 . S
C959 H945 0.929 . S
C959 C958 1.399 . S
C959 C960 1.385 . S
C960 H946 0.931 . S
C960 C959 1.385 . S
C960 C961 1.389 . S
C961 C960 1.389 . S
C961 C962 1.387 . S
C962 H947 0.930 . S
C962 C957 1.390 . S
C962 C961 1.387 . S
H963 C975 0.930 . S
H964 C977 0.930 . S
H965 C978 0.930 . S
H966 C982 0.959 . S
H967 C982 0.959 . S
H968 C982 0.961 . S
H969 C983 0.960 . S
H970 C983 0.961 . S
H971 C983 0.959 . S
H972 C986 0.929 . S
H973 C987 0.931 . S
H974 C989 0.930 . S
C975 H963 0.930 . S
C975 C976 1.399 . S
C975 C980 1.399 . S
C976 C975 1.399 . S
C976 C977 1.376 . S
C977 H964 0.930 . S
C977 C976 1.376 . S
C977 C978 1.388 . S
C978 H965 0.930 . S
C978 C977 1.388 . S
C978 C979 1.390 . S
C979 C978 1.390 . S
C979 C980 1.394 . S
C979 C985 1.465 . S
C980 C975 1.399 . S
C980 C979 1.394 . S
C980 C981 1.516 . S
C981 C980 1.516 . S
C981 C982 1.502 . S
C981 C983 1.561 . S
C981 C984 1.526 . S
C982 H966 0.959 . S
C982 H967 0.959 . S
C982 H968 0.961 . S
C982 C981 1.502 . S
C983 H969 0.960 . S
C983 H970 0.961 . S
C983 H971 0.959 . S
C983 C981 1.561 . S
C984 C981 1.526 . S
C984 C985 1.396 . S
C984 C989 1.390 . S
C985 C979 1.465 . S
C985 C984 1.396 . S
C985 C986 1.399 . S
C986 H972 0.929 . S
C986 C985 1.399 . S
C986 C987 1.385 . S
C987 H973 0.931 . S
C987 C986 1.385 . S
C987 C988 1.389 . S
C988 C987 1.389 . S
C988 C989 1.387 . S
C989 H974 0.930 . S
C989 C984 1.390 . S
C989 C988 1.387 . S
H990 C1002 0.930 . S
H991 C1004 0.930 . S
H992 C1005 0.930 . S
H993 C1009 0.959 . S
H994 C1009 0.959 . S
H995 C1009 0.961 . S
H996 C1010 0.960 . S
H997 C1010 0.961 . S
H998 C1010 0.959 . S
H999 C1013 0.929 . S
H1000 C1014 0.931 . S
H1001 C1016 0.930 . S
C1002 H990 0.930 . S
C1002 C1003 1.399 . S
C1002 C1007 1.399 . S
C1003 C1002 1.399 . S
C1003 C1004 1.376 . S
C1004 H991 0.930 . S
C1004 C1003 1.376 . S
C1004 C1005 1.388 . S
C1005 H992 0.930 . S
C1005 C1004 1.388 . S
C1005 C1006 1.390 . S
C1006 C1005 1.390 . S
C1006 C1007 1.394 . S
C1006 C1012 1.465 . S
C1007 C1002 1.399 . S
C1007 C1006 1.394 . S
C1007 C1008 1.516 . S
C1008 C1007 1.516 . S
C1008 C1009 1.502 . S
C1008 C1010 1.561 . S
C1008 C1011 1.526 . S
C1009 H993 0.959 . S
C1009 H994 0.959 . S
C1009 H995 0.961 . S
C1009 C1008 1.502 . S
C1010 H996 0.960 . S
C1010 H997 0.961 . S
C1010 H998 0.959 . S
C1010 C1008 1.561 . S
C1011 C1008 1.526 . S
C1011 C1012 1.396 . S
C1011 C1016 1.390 . S
C1012 C1006 1.465 . S
C1012 C1011 1.396 . S
C1012 C1013 1.399 . S
C1013 H999 0.929 . S
C1013 C1012 1.399 . S
C1013 C1014 1.385 . S
C1014 H1000 0.931 . S
C1014 C1013 1.385 . S
C1014 C1015 1.389 . S
C1015 C1014 1.389 . S
C1015 C1016 1.387 . S
C1016 H1001 0.930 . S
C1016 C1011 1.390 . S
C1016 C1015 1.387 . S
H1017 C1029 0.930 . S
H1018 C1031 0.930 . S
H1019 C1032 0.930 . S
H1020 C1036 0.959 . S
H1021 C1036 0.959 . S
H1022 C1036 0.961 . S
H1023 C1037 0.960 . S
H1024 C1037 0.961 . S
H1025 C1037 0.959 . S
H1026 C1040 0.929 . S
H1027 C1041 0.931 . S
H1028 C1043 0.930 . S
C1029 H1017 0.930 . S
C1029 C1030 1.399 . S
C1029 C1034 1.399 . S
C1030 C1029 1.399 . S
C1030 C1031 1.376 . S
C1031 H1018 0.930 . S
C1031 C1030 1.376 . S
C1031 C1032 1.388 . S
C1032 H1019 0.930 . S
C1032 C1031 1.388 . S
C1032 C1033 1.390 . S
C1033 C1032 1.390 . S
C1033 C1034 1.394 . S
C1033 C1039 1.465 . S
C1034 C1029 1.399 . S
C1034 C1033 1.394 . S
C1034 C1035 1.516 . S
C1035 C1034 1.516 . S
C1035 C1036 1.502 . S
C1035 C1037 1.561 . S
C1035 C1038 1.526 . S
C1036 H1020 0.959 . S
C1036 H1021 0.959 . S
C1036 H1022 0.961 . S
C1036 C1035 1.502 . S
C1037 H1023 0.960 . S
C1037 H1024 0.961 . S
C1037 H1025 0.959 . S
C1037 C1035 1.561 . S
C1038 C1035 1.526 . S
C1038 C1039 1.396 . S
C1038 C1043 1.390 . S
C1039 C1033 1.465 . S
C1039 C1038 1.396 . S
C1039 C1040 1.399 . S
C1040 H1026 0.929 . S
C1040 C1039 1.399 . S
C1040 C1041 1.385 . S
C1041 H1027 0.931 . S
C1041 C1040 1.385 . S
C1041 C1042 1.389 . S
C1042 C1041 1.389 . S
C1042 C1043 1.387 . S
C1043 H1028 0.930 . S
C1043 C1038 1.390 . S
C1043 C1042 1.387 . S
H1044 C1056 0.930 . S
H1045 C1058 0.930 . S
H1046 C1059 0.930 . S
H1047 C1063 0.959 . S
H1048 C1063 0.959 . S
H1049 C1063 0.961 . S
H1050 C1064 0.960 . S
H1051 C1064 0.961 . S
H1052 C1064 0.952 1_554 S
H1053 C1067 0.929 1_554 S
H1054 C1068 0.931 . S
H1055 C1070 0.930 . S
C1056 H1044 0.930 . S
C1056 C1057 1.399 . S
C1056 C1061 1.399 . S
C1057 C1056 1.399 . S
C1057 C1058 1.376 . S
C1058 H1045 0.930 . S
C1058 C1057 1.376 . S
C1058 C1059 1.388 . S
C1059 H1046 0.930 . S
C1059 C1058 1.388 . S
C1059 C1060 1.390 . S
C1060 C1059 1.390 . S
C1060 C1061 1.394 . S
C1060 C1066 1.474 . S
C1061 C1056 1.399 . S
C1061 C1060 1.394 . S
C1061 C1062 1.516 1_554 S
C1062 C1061 1.516 1_556 S
C1062 C1063 1.502 . S
C1062 C1064 1.561 . S
C1062 C1065 1.526 . S
C1063 H1047 0.959 . S
C1063 H1048 0.959 . S
C1063 H1049 0.961 . S
C1063 C1062 1.502 . S
C1064 H1050 0.960 . S
C1064 H1051 0.961 . S
C1064 H1052 0.952 1_556 S
C1064 C1062 1.561 . S
C1065 C1062 1.526 . S
C1065 C1066 1.387 1_556 S
C1065 C1070 1.390 . S
C1066 C1060 1.474 . S
C1066 C1065 1.387 1_554 S
C1066 C1067 1.398 1_554 S
C1067 H1053 0.929 1_556 S
C1067 C1066 1.398 1_556 S
C1067 C1068 1.386 . S
C1068 H1054 0.931 . S
C1068 C1067 1.386 . S
C1068 C1069 1.389 . S
C1069 C1068 1.389 . S
C1069 C1070 1.387 . S
C1070 H1055 0.930 . S
C1070 C1065 1.390 . S
C1070 C1069 1.387 . S
H1071 C1083 0.930 . S
H1072 C1085 0.930 . S
H1073 C1086 0.930 . S
H1074 C1090 0.959 . S
H1075 C1090 0.959 . S
H1076 C1090 0.961 . S
H1077 C1091 0.960 . S
H1078 C1091 0.961 . S
H1079 C1091 0.959 . S
H1080 C1094 0.929 . S
H1081 C1095 0.931 . S
H1082 C1097 0.930 . S
C1083 H1071 0.930 . S
C1083 C1084 1.399 . S
C1083 C1088 1.399 . S
C1084 C1083 1.399 . S
C1084 C1085 1.376 . S
C1085 H1072 0.930 . S
C1085 C1084 1.376 . S
C1085 C1086 1.388 . S
C1086 H1073 0.930 . S
C1086 C1085 1.388 . S
C1086 C1087 1.390 . S
C1087 C1086 1.390 . S
C1087 C1088 1.394 . S
C1087 C1093 1.465 . S
C1088 C1083 1.399 . S
C1088 C1087 1.394 . S
C1088 C1089 1.516 . S
C1089 C1088 1.516 . S
C1089 C1090 1.502 . S
C1089 C1091 1.561 . S
C1089 C1092 1.526 . S
C1090 H1074 0.959 . S
C1090 H1075 0.959 . S
C1090 H1076 0.961 . S
C1090 C1089 1.502 . S
C1091 H1077 0.960 . S
C1091 H1078 0.961 . S
C1091 H1079 0.959 . S
C1091 C1089 1.561 . S
C1092 C1089 1.526 . S
C1092 C1093 1.396 . S
C1092 C1097 1.390 . S
C1093 C1087 1.465 . S
C1093 C1092 1.396 . S
C1093 C1094 1.399 . S
C1094 H1080 0.929 . S
C1094 C1093 1.399 . S
C1094 C1095 1.385 . S
C1095 H1081 0.931 . S
C1095 C1094 1.385 . S
C1095 C1096 1.389 . S
C1096 C1095 1.389 . S
C1096 C1097 1.387 . S
C1097 H1082 0.930 . S
C1097 C1092 1.390 . S
C1097 C1096 1.387 . S
C475 C442 1.633 . S
C463 C29 1.557 . S
C490 C115 1.543 . S
C502 C377 1.554 . S
C517 C153 1.523 . S
C529 C395 1.659 . S
C544 C239 1.539 . S
C556 C408 1.543 . S
C583 C416 1.595 . S
C571 C301 1.583 . S
C598 C339 1.732 . S
C610 C428 1.891 . S
C625 C91 1.543 . S
C637 C390 1.663 . S
C652 C177 1.551 . S
C664 C403 1.551 . S
C679 C215 1.577 . S
C691 C421 1.634 . S
C718 C427 1.894 . S
C706 C277 1.808 . S
C745 C447 1.579 . S
C733 C363 1.581 . S
C772 C382 1.539 . S
C760 C53 1.510 . S
C787 C35 1.666 . S
C799 C388 1.716 . S
C814 C109 1.500 . S
C826 C401 1.652 . S
C853 C415 1.576 . S
C841 C159 1.558 . S
C868 C233 1.693 . S
C880 C429 1.847 . S
C907 C441 1.679 . S
C895 C295 1.569 . S
C934 C376 1.568 . S
C922 C345 1.567 . S
C961 C440 1.587 . S
C949 C97 1.580 . S
C976 C171 1.481 . S
C988 C375 1.640 . S
C1015 C389 1.710 . S
C1003 C221 1.674 . S
C1030 C283 1.553 . S
C1042 C402 1.558 . S
C1057 C357 1.480 . S
C1069 C414 1.695 . S
C1084 C47 1.734 . S
C1096 C434 1.838 . S
