# Generated by pormake.
# Topology zzz, (3,6)-cn, num edge types: 1
# Building blocks:
#     Node 0, Type 0, BuildingBlock: BETDAH_clean_linker_0, # of connection points: 3
#     Node 1, Type 0, BuildingBlock: BETDAH_clean_linker_0, # of connection points: 3
#     Node 2, Type 0, BuildingBlock: BETDAH_clean_linker_0, # of connection points: 3
#     Node 3, Type 0, BuildingBlock: BETDAH_clean_linker_0, # of connection points: 3
#     Node 4, Type 0, BuildingBlock: BETDAH_clean_linker_0, # of connection points: 3
#     Node 5, Type 0, BuildingBlock: BETDAH_clean_linker_0, # of connection points: 3
#     Node 6, Type 0, BuildingBlock: BETDAH_clean_linker_0, # of connection points: 3
#     Node 7, Type 0, BuildingBlock: BETDAH_clean_linker_0, # of connection points: 3
#     Node 8, Type 1, BuildingBlock: NUHQIS_clean_sbu_0, # of connection points: 6
#     Node 9, Type 1, BuildingBlock: NUHQIS_clean_sbu_0, # of connection points: 6
#     Node 10, Type 1, BuildingBlock: NUHQIS_clean_sbu_0, # of connection points: 6
#     Node 11, Type 1, BuildingBlock: NUHQIS_clean_sbu_0, # of connection points: 6
#     Edge 12, Type (0, 1), BuildingBlock: XIVTED_clean_linker_0, # of connection points: 2
#     Edge 13, Type (0, 1), BuildingBlock: XIVTED_clean_linker_0, # of connection points: 2
#     Edge 14, Type (0, 1), BuildingBlock: XIVTED_clean_linker_0, # of connection points: 2
#     Edge 15, Type (0, 1), BuildingBlock: XIVTED_clean_linker_0, # of connection points: 2
#     Edge 16, Type (0, 1), BuildingBlock: XIVTED_clean_linker_0, # of connection points: 2
#     Edge 17, Type (0, 1), BuildingBlock: XIVTED_clean_linker_0, # of connection points: 2
#     Edge 18, Type (0, 1), BuildingBlock: XIVTED_clean_linker_0, # of connection points: 2
#     Edge 19, Type (0, 1), BuildingBlock: XIVTED_clean_linker_0, # of connection points: 2
#     Edge 20, Type (0, 1), BuildingBlock: XIVTED_clean_linker_0, # of connection points: 2
#     Edge 21, Type (0, 1), BuildingBlock: XIVTED_clean_linker_0, # of connection points: 2
#     Edge 22, Type (0, 1), BuildingBlock: XIVTED_clean_linker_0, # of connection points: 2
#     Edge 23, Type (0, 1), BuildingBlock: XIVTED_clean_linker_0, # of connection points: 2
#     Edge 24, Type (0, 1), BuildingBlock: XIVTED_clean_linker_0, # of connection points: 2
#     Edge 25, Type (0, 1), BuildingBlock: XIVTED_clean_linker_0, # of connection points: 2
#     Edge 26, Type (0, 1), BuildingBlock: XIVTED_clean_linker_0, # of connection points: 2
#     Edge 27, Type (0, 1), BuildingBlock: XIVTED_clean_linker_0, # of connection points: 2
#     Edge 28, Type (0, 1), BuildingBlock: XIVTED_clean_linker_0, # of connection points: 2
#     Edge 29, Type (0, 1), BuildingBlock: XIVTED_clean_linker_0, # of connection points: 2
#     Edge 30, Type (0, 1), BuildingBlock: XIVTED_clean_linker_0, # of connection points: 2
#     Edge 31, Type (0, 1), BuildingBlock: XIVTED_clean_linker_0, # of connection points: 2
#     Edge 32, Type (0, 1), BuildingBlock: XIVTED_clean_linker_0, # of connection points: 2
#     Edge 33, Type (0, 1), BuildingBlock: XIVTED_clean_linker_0, # of connection points: 2
#     Edge 34, Type (0, 1), BuildingBlock: XIVTED_clean_linker_0, # of connection points: 2
#     Edge 35, Type (0, 1), BuildingBlock: XIVTED_clean_linker_0, # of connection points: 2
# Relax obj value: 0.254
# Max RMSD: 0.157
# Mean RMSD: 0.138
data_MOF--net-zzz--node1-NUHQIS_clean_sbu_0--node2-BETDAH_clean_linker_0--edge1-XIVTED_clean_linker_0
_symmetry_space_group_name_H-M    P1
_symmetry_Int_Tables_number       1
_symmetry_cell_setting            triclinic
loop_
_symmetry_equiv_pos_as_xyz
'x, y, z'
_cell_length_a     52.672216
_cell_length_b     52.919231
_cell_length_c     14.165024
_cell_angle_alpha  89.825082
_cell_angle_beta   90.125895
_cell_angle_gamma 90.086949
loop_
_atom_site_label
_atom_site_type_symbol
_atom_site_fract_x
_atom_site_fract_y
_atom_site_fract_z
_atom_type_partial_charge
H0 H 0.81069 0.54116 0.3383 0.0
H1 H 0.73234 0.53261 0.26442 0.0
H2 H 0.76115 0.50005 0.52374 0.0
C3 C 0.79169 0.53493 0.35695 0.0
C4 C 0.78843 0.52057 0.43897 0.0
C5 C 0.77165 0.53912 0.29369 0.0
C6 C 0.74748 0.52978 0.31497 0.0
C7 C 0.74328 0.51606 0.39903 0.0
C8 C 0.76394 0.51151 0.46112 0.0
N9 N 0.71894 0.50555 0.41974 0.0
C10 C 0.69815 0.50667 0.35811 0.0
H11 H 0.04768 0.80034 0.36087 0.0
H12 H 0.03089 0.73009 0.22353 0.0
H13 H 0.98142 0.75835 0.44176 0.0
C14 C 0.03622 0.78335 0.35559 0.0
C15 C 0.01437 0.78131 0.41112 0.0
C16 C 0.04215 0.76516 0.28728 0.0
C17 C 0.02644 0.74392 0.27716 0.0
C18 C 1.00468 0.74106 0.33409 0.0
C19 C 0.99852 0.76009 0.39979 0.0
N20 N 0.98835 0.71972 0.32493 0.0
C21 C 0.99279 0.69956 0.26382 0.0
H22 H 0.7196 0.04009 0.38813 0.0
H23 H 0.79032 0.02281 0.25352 0.0
H24 H 0.76168 0.97476 0.47638 0.0
C25 C 0.73666 0.02867 0.38423 0.0
C26 C 0.73861 1.00727 0.44185 0.0
C27 C 0.75501 0.03421 0.31563 0.0
C28 C 0.77639 0.01862 0.30739 0.0
C29 C 0.77928 0.99736 0.36672 0.0
C30 C 0.76001 0.99151 0.43266 0.0
N31 N 0.80086 0.9812 0.3599 0.0
C32 C 0.82119 0.98497 0.29806 0.0
H33 H 0.47499 0.71249 0.3958 0.0
H34 H 0.48958 0.78358 0.25849 0.0
H35 H 0.54006 0.75618 0.47647 0.0
C36 C 0.48594 0.72982 0.3902 0.0
C37 C 0.50779 0.73238 0.44544 0.0
C38 C 0.47938 0.74797 0.32195 0.0
C39 C 0.49448 0.76973 0.31188 0.0
C40 C 0.51618 0.77313 0.3691 0.0
C41 C 0.52296 0.7541 0.43454 0.0
N42 N 0.53195 0.79495 0.36096 0.0
C43 C 0.52759 0.81534 0.30013 0.0
H44 H 0.21727 0.54291 0.14871 0.0
H45 H 0.28858 0.52672 0.28323 0.0
H46 H 0.26066 0.47875 0.05954 0.0
C47 C 0.23448 0.53172 0.15312 0.0
C48 C 0.23687 0.51057 0.09493 0.0
C49 C 0.25285 0.53752 0.22164 0.0
C50 C 0.27456 0.52231 0.22978 0.0
C51 C 0.27779 0.50126 0.17022 0.0
C52 C 0.25859 0.49523 0.10403 0.0
N53 N 0.29977 0.4856 0.17631 0.0
C54 C 0.32049 0.48987 0.23617 0.0
H55 H 0.97116 0.20668 0.13378 0.0
H56 H 0.99056 0.27611 0.27316 0.0
H57 H 0.03704 0.24813 0.04573 0.0
C58 C 0.98289 0.2235 0.13853 0.0
C59 C 1.00415 0.22554 0.08008 0.0
C60 C 0.97804 0.24142 0.20907 0.0
C61 C 0.99414 0.26246 0.21795 0.0
C62 C 0.0152 0.26532 0.1575 0.0
C63 C 0.02036 0.24649 0.09003 0.0
N64 N 0.032 0.28634 0.1647 0.0
C65 C 0.0286 0.3068 0.22527 0.0
H66 H 0.30892 0.97085 0.14165 0.0
H67 H 0.23566 0.98504 0.26295 0.0
H68 H 0.26357 0.03193 0.03539 0.0
C69 C 0.29115 0.98121 0.14147 0.0
C70 C 0.28837 1.00168 0.0799 0.0
C71 C 0.27239 0.97525 0.20806 0.0
C72 C 0.24994 0.98949 0.21056 0.0
C73 C 0.24632 0.00967 0.14661 0.0
C74 C 0.26587 0.01595 0.08259 0.0
N75 N 0.22364 0.02433 0.1463 0.0
C76 C 0.20283 0.02005 0.20521 0.0
H77 H 0.54465 0.30394 0.14077 0.0
H78 H 0.52966 0.23232 0.27255 0.0
H79 H 0.47843 0.26179 0.0605 0.0
C80 C 0.53333 0.28683 0.14565 0.0
C81 C 0.51115 0.285 0.09182 0.0
C82 C 0.54 0.2681 0.2113 0.0
C83 C 0.52463 0.24656 0.22076 0.0
C84 C 0.50261 0.24384 0.1648 0.0
C85 C 0.49571 0.26342 0.10173 0.0
N86 N 0.4868 0.22202 0.1717 0.0
C87 C 0.49173 0.20123 0.2299 0.0
Tb88 Tb 0.02933 0.99638 0.81719 0.0
Eu89 Eu 0.9888 0.01235 0.6527 0.0
C90 C 0.04769 0.01011 0.61544 0.0
C91 C 0.01367 0.05374 0.7955 0.0
C92 C 0.07052 0.95446 0.95211 0.0
C93 C 0.10365 0.92432 0.99155 0.0
C94 C 0.09548 0.94933 0.98073 0.0
C95 C 0.05386 0.93439 0.9337 0.0
C96 C 0.06194 0.9095 0.9445 0.0
C97 C 0.08696 0.9041 0.97327 0.0
C98 C 0.06264 0.98042 0.93079 0.0
O99 O 0.99174 0.98623 0.87216 0.0
O100 O 0.96908 0.01618 0.79237 0.0
O101 O 0.98618 0.96981 0.65918 0.0
O102 O 0.02445 0.96242 0.73195 0.0
C103 C 0.97117 1.00013 0.86254 0.0
O104 O 0.95024 0.01275 0.59601 0.0
O105 O 0.98053 0.03162 0.52003 0.0
O106 O 0.02581 1.00259 0.58122 0.0
O107 O 0.04951 0.01615 0.70488 0.0
O108 O 0.02133 0.03559 0.85262 0.0
O109 O 1.00423 0.04903 0.71119 0.0
C110 C 1.00442 0.95436 0.68525 0.0
O111 O 0.06741 0.98749 0.8447 0.0
O112 O 0.03974 0.98676 0.95627 0.0
C113 C 0.94144 0.05222 0.52614 0.0
C114 C 0.92284 0.10203 0.51563 0.0
C115 C 0.92384 0.08673 0.43439 0.0
C116 C 0.93313 0.06204 0.43969 0.0
C117 C 0.93888 0.06673 0.60841 0.0
C118 C 0.92954 0.09138 0.60328 0.0
C119 C 0.95604 0.02863 0.52872 0.0
H120 H 0.12304 0.92082 0.01346 0.0
H121 H 0.10872 0.96464 0.99335 0.0
H122 H 0.03461 0.93795 0.91007 0.0
H123 H 0.04835 0.8945 0.93192 0.0
H124 H 0.91924 0.09438 0.36547 0.0
H125 H 0.9352 0.05117 0.37546 0.0
H126 H 0.94538 0.05949 0.67589 0.0
H127 H 0.92878 0.10253 0.66722 0.0
Tb128 Tb 0.52039 0.02446 0.82914 0.0
Eu129 Eu 0.50377 0.98561 0.66167 0.0
C130 C 0.50726 0.04441 0.62801 0.0
C131 C 0.46229 0.0105 0.80373 0.0
C132 C 0.56359 0.06287 0.96935 0.0
C133 C 0.59497 0.09432 0.01423 0.0
C134 C 0.56959 0.08716 1.00174 0.0
C135 C 0.58319 0.04586 0.94898 0.0
C136 C 0.60846 0.05295 0.96136 0.0
C137 C 0.61471 0.07729 0.99379 0.0
C138 C 0.53727 0.05617 0.94629 0.0
O139 O 0.52923 0.9864 0.88165 0.0
O140 O 0.49839 0.96553 0.80005 0.0
O141 O 0.54638 0.98177 0.67002 0.0
O142 O 0.55468 0.01931 0.74466 0.0
C143 C 0.51444 0.96654 0.87063 0.0
O144 O 0.50257 0.94751 0.60321 0.0
O145 O 0.4845 0.9784 0.52815 0.0
O146 O 0.51432 0.02267 0.59258 0.0
O147 O 0.50152 0.046 0.71786 0.0
O148 O 0.48049 0.01747 0.86223 0.0
O149 O 0.46718 1.00156 0.71909 0.0
C150 C 0.56237 0.99938 0.69741 0.0
O151 O 0.53065 0.06182 0.86037 0.0
O152 O 0.52991 0.03345 0.96952 0.0
C153 C 0.46266 0.94005 0.53377 0.0
C154 C 0.41225 0.92247 0.52332 0.0
C155 C 0.42786 0.92267 0.44258 0.0
C156 C 0.45285 0.93147 0.44782 0.0
C157 C 0.44776 0.93837 0.61566 0.0
C158 C 0.4228 0.92956 0.61057 0.0
C159 C 0.48678 0.95393 0.53616 0.0
H160 H 0.59915 0.11322 0.03896 0.0
H161 H 0.55467 0.10069 0.01597 0.0
H162 H 0.57896 0.02712 0.92254 0.0
H163 H 0.62308 0.03912 0.94696 0.0
H164 H 0.42027 0.91775 0.37393 0.0
H165 H 0.46403 0.93287 0.38386 0.0
H166 H 0.455 0.9451 0.68273 0.0
H167 H 0.41139 0.92945 0.6741 0.0
Tb168 Tb 0.49468 0.51739 0.85169 0.0
Eu169 Eu 0.53528 0.5004 0.68938 0.0
C170 C 0.47598 0.50462 0.64731 0.0
C171 C 0.5076 0.45937 0.82477 0.0
C172 C 0.45333 0.56023 0.98101 0.0
C173 C 0.41848 0.58862 0.01825 0.0
C174 C 0.42808 0.56403 0.00891 0.0
C175 C 0.46861 0.58126 0.96047 0.0
C176 C 0.45908 0.60564 0.96912 0.0
C177 C 0.43398 0.60972 0.9989 0.0
C178 C 0.46384 0.53457 0.97127 0.0
O179 O 0.52948 0.5061 0.92496 0.0
O180 O 0.55666 0.51849 0.80957 0.0
O181 O 0.52734 0.54108 0.65498 0.0
O182 O 0.51144 0.55286 0.7996 0.0
C183 C 0.55237 0.51282 0.8982 0.0
O184 O 0.57429 0.48977 0.65798 0.0
O185 O 0.54638 0.49017 0.5459 0.0
O186 O 0.49608 0.49036 0.63479 0.0
O187 O 0.47538 0.52115 0.71614 0.0
O188 O 0.49026 0.47615 0.84838 0.0
O189 O 0.52813 0.46582 0.77802 0.0
C190 C 0.52024 0.55858 0.71495 0.0
O191 O 0.45681 0.52216 0.89634 0.0
O192 O 0.4882 0.5326 0.98589 0.0
C193 C 0.57604 0.4569 0.54963 0.0
C194 C 0.59052 0.40617 0.52339 0.0
C195 C 0.60709 0.42599 0.49835 0.0
C196 C 0.59992 0.45121 0.51177 0.0
C197 C 0.55952 0.43723 0.57466 0.0
C198 C 0.56664 0.41216 0.56154 0.0
C199 C 0.56909 0.48303 0.57179 0.0
H200 H 0.39907 0.59112 0.04146 0.0
H201 H 0.41591 0.54802 0.02441 0.0
H202 H 0.4882 0.5789 0.93947 0.0
H203 H 0.47185 0.62132 0.95609 0.0
H204 H 0.62562 0.42201 0.46897 0.0
H205 H 0.61305 0.46621 0.49348 0.0
H206 H 0.54109 0.44128 0.60485 0.0
H207 H 0.55311 0.39748 0.57948 0.0
Tb208 Tb 1.00766 0.49128 0.81461 0.0
Eu209 Eu 0.02599 0.52535 0.63598 0.0
C210 C 0.02154 0.4641 0.61953 0.0
C211 C 0.06566 0.50137 0.78847 0.0
C212 C 0.96194 0.48285 0.9895 0.0
C213 C 0.91614 0.48099 0.00719 0.0
C214 C 0.93956 0.46873 0.99917 0.0
C215 C 0.96063 0.50936 0.99318 0.0
C216 C 0.93733 0.52157 0.99977 0.0
C217 C 0.9147 0.50759 0.00425 0.0
C218 C 0.98475 0.47109 0.94917 0.0
O219 O 0.01755 0.52803 0.87339 0.0
O220 O 1.01012 0.5524 0.74357 0.0
O221 O 0.98616 0.51293 0.60095 0.0
O222 O 0.97478 0.51117 0.75519 0.0
C223 C 0.01275 0.5501 0.83518 0.0
O224 O 0.02461 0.56099 0.55757 0.0
O225 O 0.05022 0.53137 0.51374 0.0
O226 O 0.02887 0.48558 0.58149 0.0
O227 O 0.01236 0.46261 0.70572 0.0
O228 O 0.04854 0.48457 0.81457 0.0
O229 O 0.05955 0.5208 0.73475 0.0
C230 C 0.96845 0.51168 0.66558 0.0
O231 O 0.98166 0.46395 0.86197 0.0
O232 O 1.00605 0.48339 0.9604 0.0
C233 C 0.06549 0.57255 0.50496 0.0
C234 C 0.11396 0.59505 0.50512 0.0
C235 C 0.10128 0.59029 0.59068 0.0
C236 C 0.07728 0.579 0.59058 0.0
C237 C 0.07699 0.57926 0.41965 0.0
C238 C 0.101 0.59048 0.4196 0.0
C239 C 0.04389 0.55504 0.50454 0.0
H240 H 0.89913 0.46959 0.01318 0.0
H241 H 0.94003 0.4483 0.99468 0.0
H242 H 0.97745 0.52086 0.98399 0.0
H243 H 0.9371 0.54201 0.99636 0.0
H244 H 0.11054 0.59384 0.65768 0.0
H245 H 0.06867 0.57381 0.65731 0.0
H246 H 0.06824 0.5742 0.35301 0.0
H247 H 0.11021 0.59353 0.35224 0.0
H248 H 0.15598 1.00478 0.15042 0.0
H249 H 0.09579 0.02467 0.66549 0.0
H250 H 0.19892 0.02931 0.39246 0.0
H251 H 0.0521 0.99921 0.42576 0.0
H252 H 0.13354 0.02636 0.56626 0.0
H253 H 0.11776 1.00211 0.24938 0.0
C254 C 0.15731 1.00945 0.2247 0.0
C255 C 0.18048 0.01719 0.26387 0.0
C256 C 0.11573 0.02042 0.53511 0.0
C257 C 0.13699 0.01443 0.37729 0.0
C258 C 0.09405 0.0195 0.59183 0.0
C259 C 0.07058 0.01184 0.55412 0.0
C260 C 0.11411 0.01364 0.43947 0.0
C261 C 0.06971 1.00529 0.45804 0.0
C262 C 0.13553 1.008 0.28109 0.0
C263 C 0.18133 0.02319 0.36 0.0
N264 N 0.09112 1.00634 0.40415 0.0
N265 N 0.1599 0.02172 0.41343 0.0
H266 H 0.48634 0.19785 0.41948 0.0
H267 H 0.51599 0.04879 0.43677 0.0
H268 H 0.50494 0.1542 0.17321 0.0
H269 H 0.49436 0.09257 0.68014 0.0
H270 H 0.51314 0.08708 0.33951 0.0
H271 H 0.49054 0.1596 0.51693 0.0
C272 C 0.49145 0.18016 0.38625 0.0
C273 C 0.49536 0.17902 0.28868 0.0
C274 C 0.509 0.0883 0.4142 0.0
C275 C 0.50007 0.13517 0.39896 0.0
C276 C 0.51061 0.0664 0.46985 0.0
C277 C 0.50534 0.06733 0.56699 0.0
C278 C 0.50214 0.1114 0.4558 0.0
C279 C 0.49852 0.09081 0.60566 0.0
C280 C 0.49379 0.15832 0.44166 0.0
C281 C 0.50185 0.15575 0.24852 0.0
N282 N 0.49714 0.11181 0.55014 0.0
N283 N 0.50397 0.13471 0.30375 0.0
H284 H 0.32685 0.52089 0.38716 0.0
H285 H 0.46925 0.47332 0.49348 0.0
H286 H 0.36506 0.46502 0.21914 0.0
H287 H 0.43118 0.53091 0.65507 0.0
H288 H 0.43158 0.46992 0.39211 0.0
H289 H 0.36501 0.5248 0.48609 0.0
C290 C 0.34334 0.5095 0.37114 0.0
C291 C 0.34294 0.49265 0.29512 0.0
C292 C 0.4315 0.48333 0.44968 0.0
C293 C 0.38667 0.49687 0.40784 0.0
C294 C 0.45305 0.48529 0.50767 0.0
C295 C 0.45353 0.50244 0.58323 0.0
C296 C 0.41016 0.49857 0.46721 0.0
C297 C 0.43183 0.51741 0.59786 0.0
C298 C 0.36513 0.51169 0.42756 0.0
C299 C 0.36472 0.47824 0.2773 0.0
N300 N 0.41114 0.5151 0.54072 0.0
N301 N 0.38569 0.48064 0.33321 0.0
H302 H 1.01078 0.30998 0.40479 0.0
H303 H 0.03931 0.45894 0.4384 0.0
H304 H 0.04267 0.35414 0.17833 0.0
H305 H 1.00726 0.41562 0.66793 0.0
H306 H 0.04076 0.42065 0.34316 0.0
H307 H 1.00913 0.34824 0.50303 0.0
C308 C 0.01735 0.32781 0.37594 0.0
C309 C 0.02681 0.32913 0.28377 0.0
C310 C 0.03343 0.41947 0.41439 0.0
C311 C 0.02515 0.37279 0.39496 0.0
C312 C 0.03262 0.4414 0.4691 0.0
C313 C 0.02314 0.44066 0.56175 0.0
C314 C 0.0247 0.39645 0.45209 0.0
C315 C 0.01474 0.41721 0.59706 0.0
C316 C 0.01646 0.34961 0.43184 0.0
C317 C 0.03519 0.35249 0.24925 0.0
N318 N 0.0157 0.39611 0.54227 0.0
N319 N 0.03418 0.3734 0.3048 0.0
H320 H 0.8248 0.01401 0.14031 0.0
H321 H 0.96724 0.96965 0.02078 0.0
H322 H 0.86681 0.96181 0.31415 0.0
H323 H 0.92559 0.02496 0.85835 0.0
H324 H 0.93093 0.96602 0.12842 0.0
H325 H 0.86164 0.01787 0.03551 0.0
C326 C 0.84186 1.00343 0.1564 0.0
C327 C 0.84291 0.98765 0.23579 0.0
C328 C 0.92978 0.97897 0.06923 0.0
C329 C 0.88515 0.99177 0.11621 0.0
C330 C 0.95053 0.98104 0.00766 0.0
C331 C 0.94959 0.99763 0.93005 0.0
C332 C 0.90783 0.99353 0.05314 0.0
C333 C 0.92733 0.01191 0.91697 0.0
C334 C 0.8629 1.00558 0.0966 0.0
C335 C 0.86536 0.97422 0.25344 0.0
N336 N 0.90744 1.00949 0.97752 0.0
N337 N 0.8856 0.97654 0.19412 0.0
H338 H 0.55347 0.85918 0.31719 0.0
H339 H 0.48671 0.92276 0.86515 0.0
H340 H 0.49672 0.82199 0.14784 0.0
H341 H 0.54549 0.95981 0.02649 0.0
H342 H 0.48948 0.88639 0.97053 0.0
H343 H 0.55022 0.89662 0.21485 0.0
C344 C 0.54027 0.859 0.25839 0.0
C345 C 0.52531 0.83762 0.24062 0.0
C346 C 0.50178 0.90244 0.98317 0.0
C347 C 0.52147 0.88025 0.12314 0.0
C348 C 0.50022 0.92334 0.92286 0.0
C349 C 0.51593 0.94454 0.93653 0.0
C350 C 0.51919 0.90252 0.05841 0.0
C351 C 0.53301 0.94396 0.01293 0.0
C352 C 0.53843 0.88033 0.19998 0.0
C353 C 0.50855 0.83818 0.16378 0.0
N354 N 0.53419 0.92332 0.07082 0.0
N355 N 0.50709 0.85915 0.10784 0.0
H356 H 0.64824 0.50103 0.40063 0.0
H357 H 0.60273 0.52253 0.86421 0.0
H358 H 0.69936 0.51416 0.16866 0.0
H359 H 0.55123 0.50286 0.0894 0.0
H360 H 0.63797 0.52114 0.97635 0.0
H361 H 0.61222 0.50284 0.28991 0.0
C362 C 0.65181 0.50436 0.32632 0.0
C363 C 0.67669 0.50762 0.29352 0.0
C364 C 0.61898 0.51715 1.00147 0.0
C365 C 0.63574 0.50979 0.16651 0.0
C366 C 0.59876 0.518 0.93733 0.0
C367 C 0.57384 0.51281 0.96706 0.0
C368 C 0.61443 0.51112 0.09667 0.0
C369 C 0.57006 0.507 0.06299 0.0
C370 C 0.63129 0.50539 0.26315 0.0
C371 C 0.68042 0.51177 0.1968 0.0
N372 N 0.59008 0.50631 0.1242 0.0
N373 N 0.6602 0.51279 0.1368 0.0
H374 H 1.00347 0.65157 0.3157 0.0
H375 H 1.00368 0.59944 0.78325 0.0
H376 H 0.99079 0.69896 0.07256 0.0
H377 H 0.01622 0.55241 0.02841 0.0
H378 H 0.99944 0.63613 0.88687 0.0
H379 H 1.00889 0.6151 0.21099 0.0
C380 C 1.00191 0.65422 0.24002 0.0
C381 C 0.9967 0.67811 0.20221 0.0
C382 C 1.00314 0.61778 0.91799 0.0
C383 C 1.00274 0.63664 0.08187 0.0
C384 C 1.00557 0.59678 0.85878 0.0
C385 C 1.01032 0.5727 0.89689 0.0
C386 C 1.00546 0.61477 0.01629 0.0
C387 C 0.01257 0.57053 0.99551 0.0
C388 C 1.00497 0.63344 0.18024 0.0
C389 C 0.99481 0.68071 0.10402 0.0
N390 N 1.01011 0.59123 0.05155 0.0
N391 N 0.99779 0.66021 0.04711 0.0
H392 H 0.98415 0.24079 0.40031 0.0
H393 H 0.88913 0.1275 0.40073 0.0
H394 H 0.92876 0.2264 0.18256 0.0
H395 H 0.94835 0.13996 0.60666 0.0
H396 H 0.89236 0.17183 0.35336 0.0
H397 H 0.95983 0.21417 0.50828 0.0
C398 C 0.96628 0.23291 0.3764 0.0
C399 C 0.95884 0.23508 0.28164 0.0
C400 C 0.90416 0.16502 0.41071 0.0
C401 C 0.93145 0.2039 0.40339 0.0
C402 C 0.9024 0.13967 0.43749 0.0
C403 C 0.91905 0.12974 0.50565 0.0
C404 C 0.92293 0.18045 0.45158 0.0
C405 C 0.9353 0.14659 0.55294 0.0
C406 C 0.9525 0.21745 0.43781 0.0
C407 C 0.93547 0.22455 0.25457 0.0
N408 N 0.93726 0.17094 0.52342 0.0
N409 N 0.92297 0.20876 0.31427 0.0
H410 H 0.27233 0.98227 0.39846 0.0
H411 H 0.38662 0.88809 0.41271 0.0
H412 H 0.2884 0.92659 0.18564 0.0
H413 H 0.37421 0.94907 0.60896 0.0
H414 H 0.34219 0.89102 0.36394 0.0
H415 H 0.29918 0.959 0.50946 0.0
C416 C 0.2806 0.96451 0.37644 0.0
C417 C 0.27878 0.95662 0.28232 0.0
C418 C 0.34902 0.90331 0.41949 0.0
C419 C 0.31014 0.93045 0.40729 0.0
C420 C 0.37443 0.90171 0.44706 0.0
C421 C 0.38439 0.91887 0.51286 0.0
C422 C 0.33359 0.92242 0.45713 0.0
C423 C 0.36753 0.93561 0.55713 0.0
C424 C 0.29618 0.95135 0.43949 0.0
C425 C 0.28986 0.93352 0.2573 0.0
N426 N 0.34313 0.93737 0.52682 0.0
N427 N 0.30568 0.92159 0.31861 0.0
H428 H 0.58868 0.28243 0.1715 0.0
H429 H 0.58061 0.36413 0.6319 0.0
H430 H 0.53773 0.26841 0.4034 0.0
H431 H 0.61469 0.38692 0.36812 0.0
H432 H 0.58046 0.32036 0.57733 0.0
H433 H 0.61411 0.30982 0.27331 0.0
C434 C 0.58352 0.28424 0.24518 0.0
C435 C 0.56069 0.27387 0.27858 0.0
C436 C 0.58861 0.33487 0.53256 0.0
C437 C 0.58916 0.30556 0.3942 0.0
C438 C 0.58854 0.35989 0.56326 0.0
C439 C 0.59678 0.37937 0.50297 0.0
C440 C 0.59695 0.32933 0.44093 0.0
C441 C 0.60776 0.37264 0.41647 0.0
C442 C 0.59791 0.30002 0.30304 0.0
C443 C 0.55498 0.27646 0.37462 0.0
N444 N 0.60699 0.34824 0.38715 0.0
N445 N 0.56868 0.29274 0.42855 0.0
H446 H 0.25467 0.53401 0.41403 0.0
H447 H 0.15047 0.57526 0.62213 0.0
H448 H 0.23662 0.58586 0.1888 0.0
H449 H 0.14135 0.62553 0.3841 0.0
H450 H 0.19511 0.57196 0.58786 0.0
H451 H 0.22964 0.55929 0.52164 0.0
C452 C 0.24606 0.55126 0.38802 0.0
C453 C 0.24684 0.55734 0.29172 0.0
C454 C 0.18376 0.58409 0.54327 0.0
C455 C 0.21676 0.58586 0.41318 0.0
C456 C 0.15798 0.58627 0.56398 0.0
C457 C 0.14179 0.5999 0.50355 0.0
C458 C 0.19334 0.59517 0.46018 0.0
C459 C 0.1529 0.6139 0.43019 0.0
C460 C 0.23125 0.56564 0.44941 0.0
C461 C 0.23571 0.58008 0.26211 0.0
N462 N 0.17781 0.61061 0.40904 0.0
N463 N 0.22052 0.5931 0.3219 0.0
H464 H 0.03864 0.76382 0.09511 0.0
H465 H 0.11653 0.88552 0.11731 0.0
H466 H 0.09069 0.78162 0.32054 0.0
H467 H 0.07477 0.86177 0.87042 0.0
H468 H 0.11908 0.84171 0.16848 0.0
H469 H 0.06299 0.79091 0.98944 0.0
C470 C 0.05586 0.77256 0.12137 0.0
C471 C 0.06213 0.77134 0.21752 0.0
C472 C 0.10986 0.84592 0.10188 0.0
C473 C 0.08945 0.80317 0.09833 0.0
C474 C 0.10849 0.87105 0.07233 0.0
C475 C 0.09451 0.87748 0.99134 0.0
C476 C 0.09667 0.82721 0.05125 0.0
C477 C 0.08472 0.85778 0.93573 0.0
C478 C 0.06969 0.78829 0.06114 0.0
C479 C 0.08477 0.78284 0.24742 0.0
N480 N 0.08536 0.83361 0.96803 0.0
N481 N 0.09715 0.79901 0.1889 0.0
H482 H 0.73994 0.08306 0.34379 0.0
H483 H 0.65678 0.06534 0.88839 0.0
H484 H 0.75436 0.02873 0.12444 0.0
H485 H 0.63432 0.10418 0.14235 0.0
H486 H 0.7009 0.0667 0.94206 0.0
H487 H 0.71182 0.10604 0.23641 0.0
C488 C 0.73804 0.07661 0.27158 0.0
C489 C 0.74872 0.05354 0.24368 0.0
C490 C 0.68638 0.07552 0.98474 0.0
C491 C 0.71623 0.07924 0.1218 0.0
C492 C 0.66116 0.07457 0.95462 0.0
C493 C 0.64169 0.08381 0.0127 0.0
C494 C 0.69212 0.08571 0.07362 0.0
C495 C 0.64859 0.09645 0.09585 0.0
C496 C 0.72185 0.08961 0.21055 0.0
C497 C 0.74605 0.04619 0.1492 0.0
N498 N 0.67318 0.09652 0.12483 0.0
N499 N 0.72938 0.05857 0.09229 0.0
H500 H 0.48219 0.74931 0.12954 0.0
H501 H 0.40589 0.62636 0.14922 0.0
H502 H 0.43141 0.73028 0.35712 0.0
H503 H 0.44322 0.65307 0.897 0.0
H504 H 0.40392 0.66961 0.20642 0.0
H505 H 0.45776 0.72202 0.02477 0.0
C506 C 0.46522 0.74025 0.15649 0.0
C507 C 0.4593 0.74131 0.25283 0.0
C508 C 0.41197 0.66619 0.13737 0.0
C509 C 0.43186 0.70926 0.13459 0.0
C510 C 0.41296 0.64139 0.10432 0.0
C511 C 0.42561 0.63593 0.01976 0.0
C512 C 0.42419 0.68554 0.08641 0.0
C513 C 0.43424 0.65631 0.96457 0.0
C514 C 0.45136 0.7244 0.09679 0.0
C515 C 0.43703 0.72928 0.28374 0.0
N516 N 0.43406 0.68012 1.00005 0.0
N517 N 0.42459 0.71307 0.22565 0.0
H518 H 0.76491 0.51401 0.12878 0.0
H519 H 0.90275 0.55285 0.08771 0.0
H520 H 0.79515 0.58321 0.24206 0.0
H521 H 0.86973 0.49296 0.92089 0.0
H522 H 0.86117 0.57179 0.1031 0.0
H523 H 0.79729 0.51486 0.00652 0.0
C524 C 0.77748 0.53021 0.12464 0.0
C525 C 0.77829 0.54792 0.19794 0.0
C526 C 0.86297 0.55474 0.06158 0.0
C527 C 0.81598 0.54841 0.06174 0.0
C528 C 0.88686 0.54382 0.05278 0.0
C529 C 0.88977 0.52073 0.00547 0.0
C530 C 0.84157 0.54215 0.02539 0.0
C531 C 0.86828 0.51013 0.96182 0.0
C532 C 0.7963 0.5305 0.0555 0.0
C533 C 0.79462 0.5687 0.18834 0.0
N534 N 0.845 0.52058 0.97477 0.0
N535 N 0.81361 0.56785 0.12394 0.0
H536 H 0.97557 0.20776 0.93392 0.0
H537 H 0.04179 0.07311 0.94193 0.0
H538 H 0.04475 0.19353 0.08758 0.0
H539 H 0.98917 0.09531 0.72299 0.0
H540 H 0.04287 0.11686 0.99752 0.0
H541 H 0.98029 0.16697 0.8542 0.0
C542 C 0.99212 0.19627 0.94886 0.0
C543 C 1.00997 0.20409 0.01644 0.0
C544 C 0.03126 0.1122 0.93681 0.0
C545 C 0.01502 0.15697 0.92847 0.0
C546 C 0.03052 0.08717 0.9053 0.0
C547 C 0.0153 0.08042 0.82777 0.0
C548 C 0.01637 0.13065 0.89157 0.0
C549 C 1.00122 0.09958 0.7829 0.0
C550 C 0.99474 0.17294 0.90391 0.0
C551 C 0.03081 0.18833 0.03481 0.0
N552 N 1.00189 0.12371 0.81601 0.0
N553 N 0.03256 0.16534 0.99218 0.0
H554 H 0.32111 0.04123 0.10176 0.0
H555 H 0.42062 0.98803 0.72297 0.0
H556 H 0.30672 0.97617 0.92784 0.0
H557 H 0.4422 0.03637 0.95469 0.0
H558 H 0.37664 0.98931 0.77752 0.0
H559 H 0.36298 0.04598 0.027 0.0
C560 C 0.32647 0.02848 0.04555 0.0
C561 C 0.31035 1.00854 0.01963 0.0
C562 C 0.39096 0.99976 0.81613 0.0
C563 C 0.35832 0.01341 0.93554 0.0
C564 C 0.41613 0.9991 0.78493 0.0
C565 C 0.43529 0.01205 0.83446 0.0
C566 C 0.38467 0.01369 0.89701 0.0
C567 C 0.42817 0.02596 0.91454 0.0
C568 C 0.35046 0.03096 0.00387 0.0
C569 C 0.31848 0.99202 0.94858 0.0
N570 N 0.40347 0.02642 0.94324 0.0
N571 N 0.34188 0.99477 0.90921 0.0
H572 H 0.47061 0.31723 0.10815 0.0
H573 H 0.53683 0.41942 0.76982 0.0
H574 H 0.53766 0.30363 0.94271 0.0
H575 H 0.47172 0.43712 0.94181 0.0
H576 H 0.53368 0.37555 0.81896 0.0
H577 H 0.46656 0.35915 0.03339 0.0
C578 C 0.48395 0.32275 0.05377 0.0
C579 C 0.50435 0.30689 0.03076 0.0
C580 C 0.51995 0.38891 0.8459 0.0
C581 C 0.50033 0.35494 0.94701 0.0
C582 C 0.52175 0.41414 0.81784 0.0
C583 C 0.50463 0.43226 0.85214 0.0
C584 C 0.50097 0.38141 0.90966 0.0
C585 C 0.48542 0.42392 0.91376 0.0
C586 C 0.48185 0.34678 0.01201 0.0
C587 C 0.52153 0.3152 0.96177 0.0
N588 N 0.48423 0.39916 0.94113 0.0
N589 N 0.51925 0.33863 0.92305 0.0
H590 H 0.21924 0.53963 0.95049 0.0
H591 H 0.08671 0.46585 0.90922 0.0
H592 H 0.20488 0.46944 0.09542 0.0
H593 H 0.10584 0.5326 0.74837 0.0
H594 H 0.1303 0.4649 0.97118 0.0
H595 H 0.17887 0.53512 0.86667 0.0
C596 C 0.2078 0.52291 0.96278 0.0
C597 C 0.21555 0.50475 0.02916 0.0
C598 C 0.12497 0.47963 0.92179 0.0
C599 C 0.16863 0.49979 0.93576 0.0
C600 C 0.10003 0.48021 0.88639 0.0
C601 C 0.09237 0.49942 0.8237 0.0
C602 C 0.14244 0.49843 0.89463 0.0
C603 C 0.11064 0.51747 0.7968 0.0
C604 C 0.18461 0.52042 0.91553 0.0
C605 C 0.19978 0.48367 0.04371 0.0
N606 N 0.13462 0.51658 0.83267 0.0
N607 N 0.17693 0.48191 0.99833 0.0
H608 H 0.97143 0.81071 0.41093 0.0
H609 H 0.03772 0.91661 0.73244 0.0
H610 H 0.04374 0.80182 0.54968 0.0
H611 H 0.96846 0.92979 0.57645 0.0
H612 H 0.03692 0.87265 0.68245 0.0
H613 H 0.96639 0.85191 0.4888 0.0
C614 C 0.98586 0.8171 0.45999 0.0
C615 C 1.008 0.80283 0.47417 0.0
C616 C 0.0218 0.88506 0.65933 0.0
C617 C 1.0027 0.8501 0.56169 0.0
C618 C 0.02224 0.9103 0.6879 0.0
C619 C 1.00323 0.92717 0.65814 0.0
C620 C 1.00225 0.87637 0.59997 0.0
C621 C 0.98362 0.9176 0.60083 0.0
C622 C 0.98314 0.84074 0.50352 0.0
C623 C 0.02637 0.81222 0.53694 0.0
N624 N 0.98373 0.89292 0.57314 0.0
N625 N 0.02341 0.83526 0.57761 0.0
H626 H 0.7194 0.0361 0.58345 0.0
H627 H 0.58628 0.96267 0.59179 0.0
H628 H 0.70692 0.96605 0.43652 0.0
H629 H 0.60127 0.0317 0.74377 0.0
H630 H 0.63108 0.96121 0.54534 0.0
H631 H 0.67763 0.03193 0.65697 0.0
C632 C 0.70809 0.01944 0.56884 0.0
C633 C 0.71674 1.00127 0.50453 0.0
C634 C 0.62458 0.97657 0.58939 0.0
C635 C 0.66829 0.99675 0.5858 0.0
C636 C 0.59894 0.97747 0.61587 0.0
C637 C 0.58977 0.99745 0.67137 0.0
C638 C 0.64129 0.99581 0.61845 0.0
C639 C 0.60726 0.01598 0.70054 0.0
C640 C 0.6841 0.01717 0.61005 0.0
C641 C 0.70112 0.98028 0.48677 0.0
N642 N 0.63201 0.01476 0.67341 0.0
N643 N 0.67752 0.97875 0.52613 0.0
H644 H 0.48269 0.7145 0.59982 0.0
H645 H 0.54785 0.57917 0.56922 0.0
H646 H 0.54779 0.70002 0.42503 0.0
H647 H 0.49652 0.59982 0.7927 0.0
H648 H 0.54872 0.62332 0.51712 0.0
H649 H 0.4885 0.67323 0.67587 0.0
C650 C 0.49868 0.70287 0.57956 0.0
C651 C 0.51503 0.7108 0.50719 0.0
C652 C 0.53747 0.61825 0.57821 0.0
C653 C 0.52123 0.66303 0.59093 0.0
C654 C 0.53686 0.59297 0.60784 0.0
C655 C 0.52207 0.58563 0.68576 0.0
C656 C 0.52288 0.6364 0.62581 0.0
C657 C 0.50833 0.6045 0.73293 0.0
C658 C 0.50188 0.67922 0.62233 0.0
C659 C 0.53507 0.69477 0.48176 0.0
N660 N 0.50887 0.62888 0.70175 0.0
N661 N 0.53739 0.67151 0.52257 0.0
H662 H 0.80415 0.53379 0.61896 0.0
H663 H 0.94814 0.50343 0.49027 0.0
H664 H 0.82695 0.49202 0.37293 0.0
H665 H 0.92621 0.51895 0.77762 0.0
H666 H 0.90336 0.50192 0.44573 0.0
H667 H 0.84782 0.52988 0.68158 0.0
C668 C 0.81811 0.52315 0.57965 0.0
C669 C 0.8119 0.51306 0.49096 0.0
C670 C 0.90828 0.5056 0.51868 0.0
C671 C 0.86193 0.50942 0.55976 0.0
C672 C 0.93393 0.50665 0.54405 0.0
C673 C 0.94109 0.51144 0.63777 0.0
C674 C 0.88939 0.50972 0.587 0.0
C675 C 0.92163 0.51525 0.70441 0.0
C676 C 0.84307 0.52116 0.61476 0.0
C677 C 0.8309 0.49996 0.44181 0.0
N678 N 0.8967 0.51451 0.67767 0.0
N679 N 0.85499 0.49885 0.47604 0.0
loop_
_geom_bond_atom_site_label_1
_geom_bond_atom_site_label_2
_geom_bond_distance
_geom_bond_site_symmetry_2
_ccdc_geom_bond_type
H0 C3 0.929 . S
H1 C6 0.929 . S
H2 C8 0.930 . S
C3 H0 0.929 . S
C3 C4 1.398 . S
C3 C5 1.396 . S
C4 C3 1.398 . S
C4 C8 1.407 . S
C5 C3 1.396 . S
C5 C6 1.394 . S
C6 H1 0.929 . S
C6 C5 1.394 . S
C6 C7 1.382 . S
C7 C6 1.382 . S
C7 C8 1.392 . S
C7 N9 1.420 . S
C8 H2 0.930 . S
C8 C4 1.407 . S
C8 C7 1.392 . S
N9 C7 1.420 . S
N9 C10 1.244 . S
C10 N9 1.244 . S
H11 C14 0.929 . S
H12 C17 0.929 . S
H13 C19 0.930 . S
C14 H11 0.929 . S
C14 C15 1.395 1_655 S
C14 C16 1.395 1_655 S
C15 C14 1.395 1_455 S
C15 C19 1.413 . S
C16 C14 1.395 1_455 S
C16 C17 1.397 . S
C17 H12 0.929 . S
C17 C16 1.397 . S
C17 C18 1.382 . S
C18 C17 1.382 . S
C18 C19 1.392 . S
C18 N20 1.420 . S
C19 H13 0.930 . S
C19 C15 1.413 . S
C19 C18 1.392 . S
N20 C18 1.420 . S
N20 C21 1.232 1_455 S
C21 N20 1.232 1_655 S
H22 C25 0.929 . S
H23 C28 0.929 . S
H24 C30 0.930 . S
C25 H22 0.929 . S
C25 C26 1.395 1_565 S
C25 C27 1.395 1_565 S
C26 C25 1.395 1_545 S
C26 C30 1.413 . S
C27 C25 1.395 1_545 S
C27 C28 1.397 . S
C28 H23 0.929 . S
C28 C27 1.397 . S
C28 C29 1.382 . S
C29 C28 1.382 . S
C29 C30 1.392 . S
C29 N31 1.420 . S
C30 H24 0.930 . S
C30 C26 1.413 . S
C30 C29 1.392 . S
N31 C29 1.420 . S
N31 C32 1.232 1_545 S
C32 N31 1.232 1_565 S
H33 C36 0.929 . S
H34 C39 0.929 . S
H35 C41 0.930 . S
C36 H33 0.929 . S
C36 C37 1.398 . S
C36 C38 1.396 . S
C37 C36 1.398 . S
C37 C41 1.407 . S
C38 C36 1.396 . S
C38 C39 1.394 . S
C39 H34 0.929 . S
C39 C38 1.394 . S
C39 C40 1.382 . S
C40 C39 1.382 . S
C40 C41 1.392 . S
C40 N42 1.420 . S
C41 H35 0.930 . S
C41 C37 1.407 . S
C41 C40 1.392 . S
N42 C40 1.420 . S
N42 C43 1.244 . S
C43 N42 1.244 . S
H44 C47 0.929 . S
H45 C50 0.929 . S
H46 C52 0.930 . S
C47 H44 0.929 . S
C47 C48 1.398 1_554 S
C47 C49 1.396 . S
C48 C47 1.398 1_556 S
C48 C52 1.407 . S
C49 C47 1.396 . S
C49 C50 1.394 . S
C50 H45 0.929 . S
C50 C49 1.394 . S
C50 C51 1.382 . S
C51 C50 1.382 . S
C51 C52 1.392 1_554 S
C51 N53 1.420 . S
C52 H46 0.930 . S
C52 C48 1.407 . S
C52 C51 1.392 1_556 S
N53 C51 1.420 . S
N53 C54 1.244 . S
C54 N53 1.244 . S
H55 C58 0.929 . S
H56 C61 0.929 . S
H57 C63 0.930 . S
C58 H55 0.929 . S
C58 C59 1.395 1_654 S
C58 C60 1.394 1_655 S
C59 C58 1.395 1_456 S
C59 C63 1.416 . S
C60 C58 1.394 1_455 S
C60 C61 1.398 . S
C61 H56 0.929 . S
C61 C60 1.398 . S
C61 C62 1.382 . S
C62 C61 1.382 . S
C62 C63 1.392 1_554 S
C62 N64 1.420 . S
C63 H57 0.930 . S
C63 C59 1.416 . S
C63 C62 1.392 1_556 S
N64 C62 1.420 . S
N64 C65 1.236 1_455 S
C65 N64 1.236 1_655 S
H66 C69 0.929 . S
H67 C72 0.929 . S
H68 C74 0.930 . S
C69 H66 0.929 . S
C69 C70 1.395 1_564 S
C69 C71 1.394 1_565 S
C70 C69 1.395 1_546 S
C70 C74 1.416 . S
C71 C69 1.394 1_545 S
C71 C72 1.398 . S
C72 H67 0.929 . S
C72 C71 1.398 . S
C72 C73 1.382 . S
C73 C72 1.382 . S
C73 C74 1.392 1_554 S
C73 N75 1.420 . S
C74 H68 0.930 . S
C74 C70 1.416 . S
C74 C73 1.392 1_556 S
N75 C73 1.420 . S
N75 C76 1.237 1_545 S
C76 N75 1.237 1_565 S
H77 C80 0.929 . S
H78 C83 0.929 . S
H79 C85 0.930 . S
C80 H77 0.929 . S
C80 C81 1.398 1_554 S
C80 C82 1.396 . S
C81 C80 1.398 1_556 S
C81 C85 1.407 . S
C82 C80 1.396 . S
C82 C83 1.394 . S
C83 H78 0.929 . S
C83 C82 1.394 . S
C83 C84 1.382 . S
C84 C83 1.382 . S
C84 C85 1.392 1_554 S
C84 N86 1.420 . S
C85 H79 0.930 . S
C85 C81 1.407 . S
C85 C84 1.392 1_556 S
N86 C84 1.420 . S
N86 C87 1.244 . S
C87 N86 1.244 . S
Tb88 C98 2.825 . S
Tb88 O99 2.347 1_455 S
Tb88 O102 2.366 . S
Tb88 O107 2.418 . S
Tb88 O108 2.384 1_565 S
Tb88 O111 2.479 . S
Tb88 O112 2.471 . S
Eu89 O100 2.418 . S
Eu89 O101 2.384 1_545 S
Eu89 O104 2.479 . S
Eu89 O105 2.471 . S
Eu89 O106 2.347 1_655 S
Eu89 O109 2.366 . S
Eu89 C119 2.825 . S
C90 O106 1.259 1_565 S
C90 O107 1.265 . S
C91 O108 1.255 . S
C91 O109 1.265 1_455 S
C92 C94 1.380 . S
C92 C95 1.374 . S
C92 C98 1.507 1_554 S
C93 C94 1.384 . S
C93 C97 1.387 . S
C93 H120 0.930 . S
C94 C92 1.380 . S
C94 C93 1.384 . S
C94 H121 0.931 . S
C95 C92 1.374 . S
C95 C96 1.390 . S
C95 H122 0.930 1_455 S
C96 C95 1.390 . S
C96 C97 1.391 . S
C96 H123 0.930 1_455 S
C97 C93 1.387 . S
C97 C96 1.391 . S
C98 Tb88 2.825 . S
C98 C92 1.507 1_556 S
C98 O111 1.238 . S
C98 O112 1.247 . S
O99 Tb88 2.347 1_655 S
O99 C103 1.259 1_565 S
O100 Eu89 2.418 . S
O100 C103 1.265 . S
O101 Eu89 2.384 1_565 S
O101 C110 1.255 . S
O102 Tb88 2.366 . S
O102 C110 1.265 1_455 S
C103 O99 1.259 1_545 S
C103 O100 1.265 . S
O104 Eu89 2.479 . S
O104 C119 1.238 . S
O105 Eu89 2.471 . S
O105 C119 1.247 . S
O106 Eu89 2.347 1_455 S
O106 C90 1.259 1_545 S
O107 Tb88 2.418 . S
O107 C90 1.265 . S
O108 Tb88 2.384 1_545 S
O108 C91 1.255 . S
O109 Eu89 2.366 . S
O109 C91 1.265 1_655 S
C110 O101 1.255 . S
C110 O102 1.265 1_655 S
O111 Tb88 2.479 . S
O111 C98 1.238 . S
O112 Tb88 2.471 . S
O112 C98 1.247 . S
C113 C116 1.380 . S
C113 C117 1.374 . S
C113 C119 1.507 . S
C114 C115 1.387 . S
C114 C118 1.391 . S
C115 C114 1.387 . S
C115 C116 1.384 . S
C115 H124 0.930 . S
C116 C113 1.380 . S
C116 C115 1.384 . S
C116 H125 0.931 . S
C117 C113 1.374 . S
C117 C118 1.390 . S
C117 H126 0.930 1_655 S
C118 C114 1.391 . S
C118 C117 1.390 . S
C118 H127 0.930 1_655 S
C119 Eu89 2.825 . S
C119 O104 1.238 . S
C119 O105 1.247 . S
C119 C113 1.507 . S
H120 C93 0.930 . S
H121 C94 0.931 . S
H122 C95 0.930 1_655 S
H123 C96 0.930 1_655 S
H124 C115 0.930 . S
H125 C116 0.931 . S
H126 C117 0.930 1_455 S
H127 C118 0.930 1_455 S
Tb128 C138 2.825 . S
Tb128 O139 2.347 1_545 S
Tb128 O142 2.366 . S
Tb128 O147 2.418 . S
Tb128 O148 2.384 . S
Tb128 O151 2.479 . S
Tb128 O152 2.471 . S
Eu129 O140 2.418 . S
Eu129 O141 2.384 . S
Eu129 O144 2.479 . S
Eu129 O145 2.471 . S
Eu129 O146 2.347 1_565 S
Eu129 O149 2.366 . S
Eu129 C159 2.825 . S
C130 O146 1.259 . S
C130 O147 1.265 . S
C131 O148 1.255 . S
C131 O149 1.265 1_545 S
C132 C134 1.380 . S
C132 C135 1.374 . S
C132 C138 1.507 1_554 S
C133 C134 1.384 . S
C133 C137 1.387 . S
C133 H160 0.930 . S
C134 C132 1.380 . S
C134 C133 1.384 . S
C134 H161 0.931 . S
C135 C132 1.374 . S
C135 C136 1.390 . S
C135 H162 0.930 1_545 S
C136 C135 1.390 . S
C136 C137 1.391 . S
C136 H163 0.930 1_545 S
C137 C133 1.387 . S
C137 C136 1.391 . S
C138 Tb128 2.825 . S
C138 C132 1.507 1_556 S
C138 O151 1.238 . S
C138 O152 1.247 . S
O139 Tb128 2.347 1_565 S
O139 C143 1.259 . S
O140 Eu129 2.418 . S
O140 C143 1.265 . S
O141 Eu129 2.384 . S
O141 C150 1.255 . S
O142 Tb128 2.366 . S
O142 C150 1.265 1_545 S
C143 O139 1.259 . S
C143 O140 1.265 . S
O144 Eu129 2.479 . S
O144 C159 1.238 . S
O145 Eu129 2.471 . S
O145 C159 1.247 . S
O146 Eu129 2.347 1_545 S
O146 C130 1.259 . S
O147 Tb128 2.418 . S
O147 C130 1.265 . S
O148 Tb128 2.384 . S
O148 C131 1.255 . S
O149 Eu129 2.366 . S
O149 C131 1.265 1_565 S
C150 O141 1.255 . S
C150 O142 1.265 1_565 S
O151 Tb128 2.479 . S
O151 C138 1.238 . S
O152 Tb128 2.471 . S
O152 C138 1.247 . S
C153 C156 1.380 . S
C153 C157 1.374 . S
C153 C159 1.507 . S
C154 C155 1.387 . S
C154 C158 1.391 . S
C155 C154 1.387 . S
C155 C156 1.384 . S
C155 H164 0.930 . S
C156 C153 1.380 . S
C156 C155 1.384 . S
C156 H165 0.931 . S
C157 C153 1.374 . S
C157 C158 1.390 . S
C157 H166 0.930 1_565 S
C158 C154 1.391 . S
C158 C157 1.390 . S
C158 H167 0.930 1_565 S
C159 Eu129 2.825 . S
C159 O144 1.238 . S
C159 O145 1.247 . S
C159 C153 1.507 . S
H160 C133 0.930 . S
H161 C134 0.931 . S
H162 C135 0.930 1_565 S
H163 C136 0.930 1_565 S
H164 C155 0.930 . S
H165 C156 0.931 . S
H166 C157 0.930 1_545 S
H167 C158 0.930 1_545 S
Tb168 C178 2.825 . S
Tb168 O179 2.347 . S
Tb168 O182 2.366 . S
Tb168 O187 2.418 . S
Tb168 O188 2.384 . S
Tb168 O191 2.479 . S
Tb168 O192 2.471 . S
Eu169 O180 2.418 . S
Eu169 O181 2.384 . S
Eu169 O184 2.479 . S
Eu169 O185 2.471 . S
Eu169 O186 2.347 . S
Eu169 O189 2.366 . S
Eu169 C199 2.825 . S
C170 O186 1.259 . S
C170 O187 1.265 . S
C171 O188 1.255 . S
C171 O189 1.265 . S
C172 C174 1.380 . S
C172 C175 1.374 . S
C172 C178 1.507 1_554 S
C173 C174 1.384 . S
C173 C177 1.387 . S
C173 H200 0.930 . S
C174 C172 1.380 . S
C174 C173 1.384 . S
C174 H201 0.931 . S
C175 C172 1.374 . S
C175 C176 1.390 . S
C175 H202 0.930 . S
C176 C175 1.390 . S
C176 C177 1.391 . S
C176 H203 0.930 . S
C177 C173 1.387 . S
C177 C176 1.391 . S
C178 Tb168 2.825 . S
C178 C172 1.507 1_556 S
C178 O191 1.238 . S
C178 O192 1.247 . S
O179 Tb168 2.347 . S
O179 C183 1.259 . S
O180 Eu169 2.418 . S
O180 C183 1.265 . S
O181 Eu169 2.384 . S
O181 C190 1.255 . S
O182 Tb168 2.366 . S
O182 C190 1.265 . S
C183 O179 1.259 . S
C183 O180 1.265 . S
O184 Eu169 2.479 . S
O184 C199 1.238 . S
O185 Eu169 2.471 . S
O185 C199 1.247 . S
O186 Eu169 2.347 . S
O186 C170 1.259 . S
O187 Tb168 2.418 . S
O187 C170 1.265 . S
O188 Tb168 2.384 . S
O188 C171 1.255 . S
O189 Eu169 2.366 . S
O189 C171 1.265 . S
C190 O181 1.255 . S
C190 O182 1.265 . S
O191 Tb168 2.479 . S
O191 C178 1.238 . S
O192 Tb168 2.471 . S
O192 C178 1.247 . S
C193 C196 1.380 . S
C193 C197 1.374 . S
C193 C199 1.507 . S
C194 C195 1.387 . S
C194 C198 1.391 . S
C195 C194 1.387 . S
C195 C196 1.384 . S
C195 H204 0.930 . S
C196 C193 1.380 . S
C196 C195 1.384 . S
C196 H205 0.931 . S
C197 C193 1.374 . S
C197 C198 1.390 . S
C197 H206 0.930 . S
C198 C194 1.391 . S
C198 C197 1.390 . S
C198 H207 0.930 . S
C199 Eu169 2.825 . S
C199 O184 1.238 . S
C199 O185 1.247 . S
C199 C193 1.507 . S
H200 C173 0.930 . S
H201 C174 0.931 . S
H202 C175 0.930 . S
H203 C176 0.930 . S
H204 C195 0.930 . S
H205 C196 0.931 . S
H206 C197 0.930 . S
H207 C198 0.930 . S
Tb208 C218 2.825 . S
Tb208 O219 2.347 . S
Tb208 O222 2.366 . S
Tb208 O227 2.418 . S
Tb208 O228 2.384 1_655 S
Tb208 O231 2.479 . S
Tb208 O232 2.471 . S
Eu209 O220 2.418 . S
Eu209 O221 2.384 1_455 S
Eu209 O224 2.479 . S
Eu209 O225 2.471 . S
Eu209 O226 2.347 . S
Eu209 O229 2.366 . S
Eu209 C239 2.825 . S
C210 O226 1.259 1_655 S
C210 O227 1.265 . S
C211 O228 1.255 . S
C211 O229 1.265 . S
C212 C214 1.380 . S
C212 C215 1.374 . S
C212 C218 1.507 1_554 S
C213 C214 1.384 . S
C213 C217 1.387 . S
C213 H240 0.930 . S
C214 C212 1.380 . S
C214 C213 1.384 . S
C214 H241 0.931 . S
C215 C212 1.374 . S
C215 C216 1.390 . S
C215 H242 0.930 . S
C216 C215 1.390 . S
C216 C217 1.391 . S
C216 H243 0.930 . S
C217 C213 1.387 . S
C217 C216 1.391 . S
C218 Tb208 2.825 . S
C218 C212 1.507 1_556 S
C218 O231 1.238 . S
C218 O232 1.247 . S
O219 Tb208 2.347 . S
O219 C223 1.259 1_655 S
O220 Eu209 2.418 . S
O220 C223 1.265 . S
O221 Eu209 2.384 1_655 S
O221 C230 1.255 . S
O222 Tb208 2.366 . S
O222 C230 1.265 . S
C223 O219 1.259 1_455 S
C223 O220 1.265 . S
O224 Eu209 2.479 . S
O224 C239 1.238 . S
O225 Eu209 2.471 . S
O225 C239 1.247 . S
O226 Eu209 2.347 . S
O226 C210 1.259 1_455 S
O227 Tb208 2.418 . S
O227 C210 1.265 . S
O228 Tb208 2.384 1_455 S
O228 C211 1.255 . S
O229 Eu209 2.366 . S
O229 C211 1.265 . S
C230 O221 1.255 . S
C230 O222 1.265 . S
O231 Tb208 2.479 . S
O231 C218 1.238 . S
O232 Tb208 2.471 . S
O232 C218 1.247 . S
C233 C236 1.380 . S
C233 C237 1.374 . S
C233 C239 1.507 . S
C234 C235 1.387 . S
C234 C238 1.391 . S
C235 C234 1.387 . S
C235 C236 1.384 . S
C235 H244 0.930 . S
C236 C233 1.380 . S
C236 C235 1.384 . S
C236 H245 0.931 . S
C237 C233 1.374 . S
C237 C238 1.390 . S
C237 H246 0.930 . S
C238 C234 1.391 . S
C238 C237 1.390 . S
C238 H247 0.930 . S
C239 Eu209 2.825 . S
C239 O224 1.238 . S
C239 O225 1.247 . S
C239 C233 1.507 . S
H240 C213 0.930 . S
H241 C214 0.931 . S
H242 C215 0.930 . S
H243 C216 0.930 . S
H244 C235 0.930 . S
H245 C236 0.931 . S
H246 C237 0.930 . S
H247 C238 0.930 . S
H248 C254 0.930 . S
H249 C258 0.930 . S
H250 C263 0.929 . S
H251 C261 0.929 . S
H252 C256 0.929 . S
H253 C262 0.929 . S
C254 H248 0.930 . S
C254 C255 1.375 . S
C254 C262 1.378 . S
C255 C254 1.375 . S
C255 C263 1.425 1_545 S
C256 H252 0.929 . S
C256 C258 1.378 . S
C256 C260 1.352 . S
C257 C260 1.462 1_545 S
C257 C262 1.364 . S
C257 N265 1.414 1_545 S
C258 H249 0.930 . S
C258 C256 1.378 . S
C258 C259 1.368 1_565 S
C259 C258 1.368 1_545 S
C259 C261 1.432 . S
C260 C256 1.352 . S
C260 C257 1.462 1_565 S
C260 N264 1.425 1_565 S
C261 H251 0.929 . S
C261 C259 1.432 . S
C261 N264 1.384 . S
C262 H253 0.929 . S
C262 C254 1.378 . S
C262 C257 1.364 . S
C263 H250 0.929 . S
C263 C255 1.425 1_565 S
C263 N265 1.384 . S
N264 C260 1.425 1_545 S
N264 C261 1.384 . S
N265 C257 1.414 1_565 S
N265 C263 1.384 . S
H266 C272 0.930 . S
H267 C276 0.930 . S
H268 C281 0.929 . S
H269 C279 0.929 . S
H270 C274 0.929 . S
H271 C280 0.929 . S
C272 H266 0.930 . S
C272 C273 1.367 . S
C272 C280 1.378 . S
C273 C272 1.367 . S
C273 C281 1.433 . S
C274 H270 0.929 . S
C274 C276 1.378 . S
C274 C278 1.350 . S
C275 C278 1.463 . S
C275 C280 1.350 . S
C275 N283 1.427 . S
C276 H267 0.930 . S
C276 C274 1.378 . S
C276 C277 1.367 . S
C277 C276 1.367 . S
C277 C279 1.433 . S
C278 C274 1.350 . S
C278 C275 1.463 . S
C278 N282 1.427 . S
C279 H269 0.929 . S
C279 C277 1.433 . S
C279 N282 1.384 . S
C280 H271 0.929 . S
C280 C272 1.378 . S
C280 C275 1.350 . S
C281 H268 0.929 . S
C281 C273 1.433 . S
C281 N283 1.384 . S
N282 C278 1.427 . S
N282 C279 1.384 . S
N283 C275 1.427 . S
N283 C281 1.384 . S
H284 C290 0.930 . S
H285 C294 0.930 . S
H286 C299 0.929 . S
H287 C297 0.929 . S
H288 C292 0.929 . S
H289 C298 0.929 . S
C290 H284 0.930 . S
C290 C291 1.367 . S
C290 C298 1.378 . S
C291 C290 1.367 . S
C291 C299 1.433 . S
C292 H288 0.929 . S
C292 C294 1.378 . S
C292 C296 1.350 . S
C293 C296 1.463 . S
C293 C298 1.350 . S
C293 N301 1.427 . S
C294 H285 0.930 . S
C294 C292 1.378 . S
C294 C295 1.367 . S
C295 C294 1.367 . S
C295 C297 1.433 . S
C296 C292 1.350 . S
C296 C293 1.463 . S
C296 N300 1.427 . S
C297 H287 0.929 . S
C297 C295 1.433 . S
C297 N300 1.384 . S
C298 H289 0.929 . S
C298 C290 1.378 . S
C298 C293 1.350 . S
C299 H286 0.929 . S
C299 C291 1.433 . S
C299 N301 1.384 . S
N300 C296 1.427 . S
N300 C297 1.384 . S
N301 C293 1.427 . S
N301 C299 1.384 . S
H302 C308 0.930 . S
H303 C312 0.930 . S
H304 C317 0.929 . S
H305 C315 0.929 . S
H306 C310 0.929 . S
H307 C316 0.929 . S
C308 H302 0.930 . S
C308 C309 1.375 . S
C308 C316 1.378 . S
C309 C308 1.375 . S
C309 C317 1.425 1_455 S
C310 H306 0.929 . S
C310 C312 1.378 . S
C310 C314 1.346 1_655 S
C311 C314 1.462 . S
C311 C316 1.367 . S
C311 N319 1.411 1_455 S
C312 H303 0.930 . S
C312 C310 1.378 . S
C312 C313 1.354 1_655 S
C313 C312 1.354 1_455 S
C313 C315 1.447 . S
C314 C310 1.346 1_455 S
C314 C311 1.462 . S
C314 N318 1.432 . S
C315 H305 0.929 . S
C315 C313 1.447 . S
C315 N318 1.384 . S
C316 H307 0.929 . S
C316 C308 1.378 . S
C316 C311 1.367 . S
C317 H304 0.929 . S
C317 C309 1.425 1_655 S
C317 N319 1.384 . S
N318 C314 1.432 . S
N318 C315 1.384 . S
N319 C311 1.411 1_655 S
N319 C317 1.384 . S
H320 C326 0.930 . S
H321 C330 0.930 . S
H322 C335 0.929 . S
H323 C333 0.929 . S
H324 C328 0.929 . S
H325 C334 0.929 . S
C326 H320 0.930 . S
C326 C327 1.389 . S
C326 C334 1.378 . S
C327 C326 1.389 . S
C327 C335 1.410 1_545 S
C328 H324 0.929 . S
C328 C330 1.378 1_554 S
C328 C332 1.383 . S
C329 C332 1.460 1_545 S
C329 C334 1.380 . S
C329 N337 1.397 1_545 S
C330 H321 0.930 . S
C330 C328 1.378 1_556 S
C330 C331 1.392 . S
C331 C330 1.392 . S
C331 C333 1.408 1_565 S
C332 C328 1.383 . S
C332 C329 1.460 1_565 S
C332 N336 1.394 1_565 S
C333 H323 0.929 . S
C333 C331 1.408 1_545 S
C333 N336 1.384 1_556 S
C334 H325 0.929 . S
C334 C326 1.378 . S
C334 C329 1.380 . S
C335 H322 0.929 . S
C335 C327 1.410 1_565 S
C335 N337 1.384 . S
N336 C332 1.394 1_545 S
N336 C333 1.384 1_554 S
N337 C329 1.397 1_565 S
N337 C335 1.384 . S
H338 C344 0.930 . S
H339 C348 0.930 . S
H340 C353 0.929 . S
H341 C351 0.929 . S
H342 C346 0.929 . S
H343 C352 0.929 . S
C344 H338 0.930 . S
C344 C345 1.367 . S
C344 C352 1.378 . S
C345 C344 1.367 . S
C345 C353 1.433 . S
C346 H342 0.929 . S
C346 C348 1.378 1_554 S
C346 C350 1.350 . S
C347 C350 1.463 . S
C347 C352 1.350 . S
C347 N355 1.427 . S
C348 H339 0.930 . S
C348 C346 1.378 1_556 S
C348 C349 1.367 . S
C349 C348 1.367 . S
C349 C351 1.433 1_556 S
C350 C346 1.350 . S
C350 C347 1.463 . S
C350 N354 1.427 . S
C351 H341 0.929 . S
C351 C349 1.433 1_554 S
C351 N354 1.384 . S
C352 H343 0.929 . S
C352 C344 1.378 . S
C352 C347 1.350 . S
C353 H340 0.929 . S
C353 C345 1.433 . S
C353 N355 1.384 . S
N354 C350 1.427 . S
N354 C351 1.384 . S
N355 C347 1.427 . S
N355 C353 1.384 . S
H356 C362 0.930 . S
H357 C366 0.930 . S
H358 C371 0.929 . S
H359 C369 0.929 . S
H360 C364 0.929 . S
H361 C370 0.929 . S
C362 H356 0.930 . S
C362 C363 1.367 . S
C362 C370 1.378 . S
C363 C362 1.367 . S
C363 C371 1.433 . S
C364 H360 0.929 . S
C364 C366 1.378 1_554 S
C364 C368 1.350 . S
C365 C368 1.463 . S
C365 C370 1.350 . S
C365 N373 1.427 . S
C366 H357 0.930 . S
C366 C364 1.378 1_556 S
C366 C367 1.367 . S
C367 C366 1.367 . S
C367 C369 1.433 . S
C368 C364 1.350 . S
C368 C365 1.463 . S
C368 N372 1.427 . S
C369 H359 0.929 . S
C369 C367 1.433 . S
C369 N372 1.384 1_556 S
C370 H361 0.929 . S
C370 C362 1.378 . S
C370 C365 1.350 . S
C371 H358 0.929 . S
C371 C363 1.433 . S
C371 N373 1.384 . S
N372 C368 1.427 . S
N372 C369 1.384 1_554 S
N373 C365 1.427 . S
N373 C371 1.384 . S
H374 C380 0.930 . S
H375 C384 0.930 . S
H376 C389 0.929 . S
H377 C387 0.929 . S
H378 C382 0.929 . S
H379 C388 0.929 . S
C380 H374 0.930 . S
C380 C381 1.380 . S
C380 C388 1.378 . S
C381 C380 1.380 . S
C381 C389 1.420 1_655 S
C382 H378 0.929 . S
C382 C384 1.378 1_554 S
C382 C386 1.348 1_455 S
C383 C386 1.462 . S
C383 C388 1.376 . S
C383 N391 1.402 1_655 S
C384 H375 0.930 . S
C384 C382 1.378 1_556 S
C384 C385 1.352 1_455 S
C385 C384 1.352 1_655 S
C385 C387 1.448 1_556 S
C386 C382 1.348 1_655 S
C386 C383 1.462 . S
C386 N390 1.430 . S
C387 H377 0.929 . S
C387 C385 1.448 1_554 S
C387 N390 1.384 . S
C388 H379 0.929 . S
C388 C380 1.378 . S
C388 C383 1.376 . S
C389 H376 0.929 . S
C389 C381 1.420 1_455 S
C389 N391 1.384 . S
N390 C386 1.430 . S
N390 C387 1.384 . S
N391 C383 1.402 1_455 S
N391 C389 1.384 . S
H392 C398 0.930 . S
H393 C402 0.930 . S
H394 C407 0.929 . S
H395 C405 0.929 . S
H396 C400 0.929 . S
H397 C406 0.929 . S
C398 H392 0.930 . S
C398 C399 1.367 . S
C398 C406 1.378 . S
C399 C398 1.367 . S
C399 C407 1.433 1_455 S
C400 H396 0.929 . S
C400 C402 1.378 . S
C400 C404 1.350 . S
C401 C404 1.463 . S
C401 C406 1.350 1_655 S
C401 N409 1.427 . S
C402 H393 0.930 . S
C402 C400 1.378 . S
C402 C403 1.367 . S
C403 C402 1.367 . S
C403 C405 1.433 . S
C404 C400 1.350 . S
C404 C401 1.463 . S
C404 N408 1.427 . S
C405 H395 0.929 . S
C405 C403 1.433 . S
C405 N408 1.384 . S
C406 H397 0.929 . S
C406 C398 1.378 . S
C406 C401 1.350 1_455 S
C407 H394 0.929 . S
C407 C399 1.433 1_655 S
C407 N409 1.384 . S
N408 C404 1.427 . S
N408 C405 1.384 . S
N409 C401 1.427 . S
N409 C407 1.384 . S
H410 C416 0.930 . S
H411 C420 0.930 . S
H412 C425 0.929 . S
H413 C423 0.929 1_545 S
H414 C418 0.929 . S
H415 C424 0.929 . S
C416 H410 0.930 . S
C416 C417 1.367 . S
C416 C424 1.378 . S
C417 C416 1.367 . S
C417 C425 1.433 1_545 S
C418 H414 0.929 . S
C418 C420 1.378 . S
C418 C422 1.350 . S
C419 C422 1.463 . S
C419 C424 1.350 1_565 S
C419 N427 1.427 . S
C420 H411 0.930 . S
C420 C418 1.378 . S
C420 C421 1.367 . S
C421 C420 1.367 . S
C421 C423 1.433 . S
C422 C418 1.350 . S
C422 C419 1.463 . S
C422 N426 1.414 1_565 S
C423 H413 0.929 1_565 S
C423 C421 1.433 . S
C423 N426 1.379 1_565 S
C424 H415 0.929 . S
C424 C416 1.378 . S
C424 C419 1.350 1_545 S
C425 H412 0.929 . S
C425 C417 1.433 1_565 S
C425 N427 1.384 . S
N426 C422 1.414 1_545 S
N426 C423 1.379 1_545 S
N427 C419 1.427 . S
N427 C425 1.384 . S
H428 C434 0.930 . S
H429 C438 0.930 . S
H430 C443 0.929 . S
H431 C441 0.929 . S
H432 C436 0.929 . S
H433 C442 0.929 . S
C434 H428 0.930 . S
C434 C435 1.367 . S
C434 C442 1.378 . S
C435 C434 1.367 . S
C435 C443 1.433 . S
C436 H432 0.929 . S
C436 C438 1.378 . S
C436 C440 1.350 . S
C437 C440 1.463 . S
C437 C442 1.350 . S
C437 N445 1.427 . S
C438 H429 0.930 . S
C438 C436 1.378 . S
C438 C439 1.367 . S
C439 C438 1.367 . S
C439 C441 1.433 . S
C440 C436 1.350 . S
C440 C437 1.463 . S
C440 N444 1.427 . S
C441 H431 0.929 . S
C441 C439 1.433 . S
C441 N444 1.384 . S
C442 H433 0.929 . S
C442 C434 1.378 . S
C442 C437 1.350 . S
C443 H430 0.929 . S
C443 C435 1.433 . S
C443 N445 1.384 . S
N444 C440 1.427 . S
N444 C441 1.384 . S
N445 C437 1.427 . S
N445 C443 1.384 . S
H446 C452 0.930 . S
H447 C456 0.930 . S
H448 C461 0.929 . S
H449 C459 0.929 . S
H450 C454 0.929 . S
H451 C460 0.929 . S
C452 H446 0.930 . S
C452 C453 1.367 . S
C452 C460 1.378 . S
C453 C452 1.367 . S
C453 C461 1.433 . S
C454 H450 0.929 . S
C454 C456 1.378 . S
C454 C458 1.350 . S
C455 C458 1.463 . S
C455 C460 1.350 . S
C455 N463 1.427 . S
C456 H447 0.930 . S
C456 C454 1.378 . S
C456 C457 1.367 . S
C457 C456 1.367 . S
C457 C459 1.433 . S
C458 C454 1.350 . S
C458 C455 1.463 . S
C458 N462 1.427 . S
C459 H449 0.929 . S
C459 C457 1.433 . S
C459 N462 1.384 . S
C460 H451 0.929 . S
C460 C452 1.378 . S
C460 C455 1.350 . S
C461 H448 0.929 . S
C461 C453 1.433 . S
C461 N463 1.384 . S
N462 C458 1.427 . S
N462 C459 1.384 . S
N463 C455 1.427 . S
N463 C461 1.384 . S
H464 C470 0.930 . S
H465 C474 0.930 . S
H466 C479 0.929 . S
H467 C477 0.929 1_556 S
H468 C472 0.929 . S
H469 C478 0.929 . S
C470 H464 0.930 . S
C470 C471 1.367 . S
C470 C478 1.378 1_655 S
C471 C470 1.367 . S
C471 C479 1.433 1_655 S
C472 H468 0.929 . S
C472 C474 1.378 . S
C472 C476 1.350 . S
C473 C476 1.463 . S
C473 C478 1.350 . S
C473 N481 1.427 . S
C474 H465 0.930 . S
C474 C472 1.378 . S
C474 C475 1.367 . S
C475 C474 1.367 . S
C475 C477 1.433 . S
C476 C472 1.350 . S
C476 C473 1.463 . S
C476 N480 1.427 . S
C477 H467 0.929 1_554 S
C477 C475 1.433 . S
C477 N480 1.384 . S
C478 H469 0.929 . S
C478 C470 1.378 1_455 S
C478 C473 1.350 . S
C479 H466 0.929 . S
C479 C471 1.433 1_455 S
C479 N481 1.384 . S
N480 C476 1.427 . S
N480 C477 1.384 . S
N481 C473 1.427 . S
N481 C479 1.384 . S
H482 C488 0.930 . S
H483 C492 0.930 . S
H484 C497 0.929 . S
H485 C495 0.929 . S
H486 C490 0.929 1_565 S
H487 C496 0.929 . S
C488 H482 0.930 . S
C488 C489 1.336 1_545 S
C488 C496 1.378 . S
C489 C488 1.336 1_565 S
C489 C497 1.456 . S
C490 H486 0.929 1_545 S
C490 C492 1.378 . S
C490 C494 1.350 . S
C491 C494 1.463 . S
C491 C496 1.350 . S
C491 N499 1.427 1_545 S
C492 H483 0.930 . S
C492 C490 1.378 . S
C492 C493 1.367 . S
C493 C492 1.367 . S
C493 C495 1.433 . S
C494 C490 1.350 . S
C494 C491 1.463 . S
C494 N498 1.427 . S
C495 H485 0.929 . S
C495 C493 1.433 . S
C495 N498 1.384 . S
C496 H487 0.929 . S
C496 C488 1.378 . S
C496 C491 1.350 . S
C497 H484 0.929 . S
C497 C489 1.456 . S
C497 N499 1.384 . S
N498 C494 1.427 . S
N498 C495 1.384 . S
N499 C491 1.427 1_565 S
N499 C497 1.384 . S
H500 C506 0.930 . S
H501 C510 0.930 . S
H502 C515 0.929 . S
H503 C513 0.929 . S
H504 C508 0.929 . S
H505 C514 0.929 . S
C506 H500 0.930 . S
C506 C507 1.367 . S
C506 C514 1.378 . S
C507 C506 1.367 . S
C507 C515 1.433 . S
C508 H504 0.929 . S
C508 C510 1.378 . S
C508 C512 1.350 . S
C509 C512 1.463 . S
C509 C514 1.350 . S
C509 N517 1.427 . S
C510 H501 0.930 . S
C510 C508 1.378 . S
C510 C511 1.367 . S
C511 C510 1.367 . S
C511 C513 1.433 . S
C512 C508 1.350 . S
C512 C509 1.463 . S
C512 N516 1.427 . S
C513 H503 0.929 . S
C513 C511 1.433 . S
C513 N516 1.384 . S
C514 H505 0.929 . S
C514 C506 1.378 . S
C514 C509 1.350 . S
C515 H502 0.929 . S
C515 C507 1.433 . S
C515 N517 1.384 . S
N516 C512 1.427 . S
N516 C513 1.384 . S
N517 C509 1.427 . S
N517 C515 1.384 . S
H518 C524 0.930 . S
H519 C528 0.930 . S
H520 C533 0.929 . S
H521 C531 0.929 . S
H522 C526 0.929 . S
H523 C532 0.929 . S
C524 H518 0.930 . S
C524 C525 1.367 . S
C524 C532 1.378 . S
C525 C524 1.367 . S
C525 C533 1.433 . S
C526 H522 0.929 . S
C526 C528 1.378 . S
C526 C530 1.350 . S
C527 C530 1.463 . S
C527 C532 1.350 . S
C527 N535 1.427 . S
C528 H519 0.930 . S
C528 C526 1.378 . S
C528 C529 1.367 . S
C529 C528 1.367 . S
C529 C531 1.433 . S
C530 C526 1.350 . S
C530 C527 1.463 . S
C530 N534 1.427 . S
C531 H521 0.929 . S
C531 C529 1.433 . S
C531 N534 1.384 . S
C532 H523 0.929 . S
C532 C524 1.378 . S
C532 C527 1.350 . S
C533 H520 0.929 . S
C533 C525 1.433 . S
C533 N535 1.384 . S
N534 C530 1.427 . S
N534 C531 1.384 . S
N535 C527 1.427 . S
N535 C533 1.384 . S
H536 C542 0.930 . S
H537 C546 0.930 . S
H538 C551 0.929 1_554 S
H539 C549 0.931 . S
H540 C544 0.929 . S
H541 C550 0.929 . S
C542 H536 0.930 . S
C542 C543 1.367 1_655 S
C542 C550 1.378 . S
C543 C542 1.367 1_455 S
C543 C551 1.433 . S
C544 H540 0.929 . S
C544 C546 1.378 . S
C544 C548 1.350 . S
C545 C548 1.463 . S
C545 C550 1.350 1_455 S
C545 N553 1.427 . S
C546 H537 0.930 . S
C546 C544 1.378 . S
C546 C547 1.367 . S
C547 C546 1.367 . S
C547 C549 1.431 1_455 S
C548 C544 1.350 . S
C548 C545 1.463 . S
C548 N552 1.427 1_455 S
C549 H539 0.931 . S
C549 C547 1.431 1_655 S
C549 N552 1.384 . S
C550 H541 0.929 . S
C550 C542 1.378 . S
C550 C545 1.350 1_655 S
C551 H538 0.929 1_556 S
C551 C543 1.433 . S
C551 N553 1.384 . S
N552 C548 1.427 1_655 S
N552 C549 1.384 . S
N553 C545 1.427 . S
N553 C551 1.384 . S
H554 C560 0.930 . S
H555 C564 0.930 . S
H556 C569 0.929 . S
H557 C567 0.929 . S
H558 C562 0.929 . S
H559 C568 0.929 . S
C560 H554 0.930 . S
C560 C561 1.367 . S
C560 C568 1.378 . S
C561 C560 1.367 . S
C561 C569 1.433 1_545 S
C562 H558 0.929 . S
C562 C564 1.378 . S
C562 C566 1.350 1_565 S
C563 C566 1.463 . S
C563 C568 1.350 . S
C563 N571 1.427 1_545 S
C564 H555 0.930 . S
C564 C562 1.378 . S
C564 C565 1.367 1_565 S
C565 C564 1.367 1_545 S
C565 C567 1.433 . S
C566 C562 1.350 1_545 S
C566 C563 1.463 . S
C566 N570 1.427 . S
C567 H557 0.929 . S
C567 C565 1.433 . S
C567 N570 1.384 . S
C568 H559 0.929 . S
C568 C560 1.378 . S
C568 C563 1.350 . S
C569 H556 0.929 . S
C569 C561 1.433 1_565 S
C569 N571 1.384 . S
N570 C566 1.427 . S
N570 C567 1.384 . S
N571 C563 1.427 1_565 S
N571 C569 1.384 . S
H572 C578 0.930 1_554 S
H573 C582 0.930 . S
H574 C587 0.929 . S
H575 C585 0.929 . S
H576 C580 0.929 . S
H577 C586 0.929 1_554 S
C578 H572 0.930 1_556 S
C578 C579 1.367 . S
C578 C586 1.378 . S
C579 C578 1.367 . S
C579 C587 1.433 . S
C580 H576 0.929 . S
C580 C582 1.378 . S
C580 C584 1.350 . S
C581 C584 1.463 . S
C581 C586 1.350 . S
C581 N589 1.427 . S
C582 H573 0.930 . S
C582 C580 1.378 . S
C582 C583 1.367 . S
C583 C582 1.367 . S
C583 C585 1.433 . S
C584 C580 1.350 . S
C584 C581 1.463 . S
C584 N588 1.427 . S
C585 H575 0.929 . S
C585 C583 1.433 . S
C585 N588 1.384 . S
C586 H577 0.929 1_556 S
C586 C578 1.378 . S
C586 C581 1.350 . S
C587 H574 0.929 . S
C587 C579 1.433 . S
C587 N589 1.384 . S
N588 C584 1.427 . S
N588 C585 1.384 . S
N589 C581 1.427 . S
N589 C587 1.384 . S
H590 C596 0.930 . S
H591 C600 0.930 . S
H592 C605 0.929 . S
H593 C603 0.929 . S
H594 C598 0.929 . S
H595 C604 0.929 . S
C596 H590 0.930 . S
C596 C597 1.367 . S
C596 C604 1.378 . S
C597 C596 1.367 . S
C597 C605 1.433 . S
C598 H594 0.929 . S
C598 C600 1.378 . S
C598 C602 1.350 . S
C599 C602 1.463 . S
C599 C604 1.350 . S
C599 N607 1.427 . S
C600 H591 0.930 . S
C600 C598 1.378 . S
C600 C601 1.367 . S
C601 C600 1.367 . S
C601 C603 1.433 . S
C602 C598 1.350 . S
C602 C599 1.463 . S
C602 N606 1.427 . S
C603 H593 0.929 . S
C603 C601 1.433 . S
C603 N606 1.384 . S
C604 H595 0.929 . S
C604 C596 1.378 . S
C604 C599 1.350 . S
C605 H592 0.929 . S
C605 C597 1.433 . S
C605 N607 1.384 . S
N606 C602 1.427 . S
N606 C603 1.384 . S
N607 C599 1.427 . S
N607 C605 1.384 . S
H608 C614 0.930 . S
H609 C618 0.930 . S
H610 C623 0.929 . S
H611 C621 0.929 . S
H612 C616 0.929 . S
H613 C622 0.929 . S
C614 H608 0.930 . S
C614 C615 1.367 . S
C614 C622 1.378 . S
C615 C614 1.367 . S
C615 C623 1.433 1_655 S
C616 H612 0.929 . S
C616 C618 1.378 . S
C616 C620 1.350 1_455 S
C617 C620 1.463 . S
C617 C622 1.350 . S
C617 N625 1.427 1_655 S
C618 H609 0.930 . S
C618 C616 1.378 . S
C618 C619 1.367 1_455 S
C619 C618 1.367 1_655 S
C619 C621 1.433 . S
C620 C616 1.350 1_655 S
C620 C617 1.463 . S
C620 N624 1.427 . S
C621 H611 0.929 . S
C621 C619 1.433 . S
C621 N624 1.384 . S
C622 H613 0.929 . S
C622 C614 1.378 . S
C622 C617 1.350 . S
C623 H610 0.929 . S
C623 C615 1.433 1_455 S
C623 N625 1.384 . S
N624 C620 1.427 . S
N624 C621 1.384 . S
N625 C617 1.427 1_455 S
N625 C623 1.384 . S
H626 C632 0.930 . S
H627 C636 0.930 . S
H628 C641 0.929 . S
H629 C639 0.929 . S
H630 C634 0.929 . S
H631 C640 0.929 . S
C632 H626 0.930 . S
C632 C633 1.367 1_545 S
C632 C640 1.378 . S
C633 C632 1.367 1_565 S
C633 C641 1.433 . S
C634 H630 0.929 . S
C634 C636 1.378 . S
C634 C638 1.350 . S
C635 C638 1.463 . S
C635 C640 1.350 1_565 S
C635 N643 1.427 . S
C636 H627 0.930 . S
C636 C634 1.378 . S
C636 C637 1.367 . S
C637 C636 1.367 . S
C637 C639 1.433 1_565 S
C638 C634 1.350 . S
C638 C635 1.463 . S
C638 N642 1.427 1_565 S
C639 H629 0.929 . S
C639 C637 1.433 1_545 S
C639 N642 1.384 . S
C640 H631 0.929 . S
C640 C632 1.378 . S
C640 C635 1.350 1_545 S
C641 H628 0.929 . S
C641 C633 1.433 . S
C641 N643 1.384 . S
N642 C638 1.427 1_545 S
N642 C639 1.384 . S
N643 C635 1.427 . S
N643 C641 1.384 . S
H644 C650 0.930 . S
H645 C654 0.930 . S
H646 C659 0.929 . S
H647 C657 0.929 . S
H648 C652 0.929 . S
H649 C658 0.929 . S
C650 H644 0.930 . S
C650 C651 1.367 . S
C650 C658 1.378 . S
C651 C650 1.367 . S
C651 C659 1.433 . S
C652 H648 0.929 . S
C652 C654 1.378 . S
C652 C656 1.350 . S
C653 C656 1.463 . S
C653 C658 1.350 . S
C653 N661 1.427 . S
C654 H645 0.930 . S
C654 C652 1.378 . S
C654 C655 1.367 . S
C655 C654 1.367 . S
C655 C657 1.433 . S
C656 C652 1.350 . S
C656 C653 1.463 . S
C656 N660 1.427 . S
C657 H647 0.929 . S
C657 C655 1.433 . S
C657 N660 1.384 . S
C658 H649 0.929 . S
C658 C650 1.378 . S
C658 C653 1.350 . S
C659 H646 0.929 . S
C659 C651 1.433 . S
C659 N661 1.384 . S
N660 C656 1.427 . S
N660 C657 1.384 . S
N661 C653 1.427 . S
N661 C659 1.384 . S
H662 C668 0.930 . S
H663 C672 0.930 . S
H664 C677 0.929 . S
H665 C675 0.929 . S
H666 C670 0.929 . S
H667 C676 0.929 . S
C668 H662 0.930 . S
C668 C669 1.367 . S
C668 C676 1.378 . S
C669 C668 1.367 . S
C669 C677 1.433 . S
C670 H666 0.929 . S
C670 C672 1.378 . S
C670 C674 1.350 . S
C671 C674 1.463 . S
C671 C676 1.350 . S
C671 N679 1.427 . S
C672 H663 0.930 . S
C672 C670 1.378 . S
C672 C673 1.367 . S
C673 C672 1.367 . S
C673 C675 1.433 . S
C674 C670 1.350 . S
C674 C671 1.463 . S
C674 N678 1.427 . S
C675 H665 0.929 . S
C675 C673 1.433 . S
C675 N678 1.384 . S
C676 H667 0.929 . S
C676 C668 1.378 . S
C676 C671 1.350 . S
C677 H664 0.929 . S
C677 C669 1.433 . S
C677 N679 1.384 . S
N678 C674 1.427 . S
N678 C675 1.384 . S
N679 C671 1.427 . S
N679 C677 1.384 . S
C255 C76 1.842 1_545 S
C259 C90 1.971 1_545 S
C277 C130 1.986 . S
C273 C87 1.837 . S
C295 C170 1.994 . S
C291 C54 1.851 . S
C313 C210 1.979 1_455 S
C309 C65 1.835 1_455 S
C331 C103 1.977 1_565 S
C327 C32 1.840 1_545 S
C345 C43 1.850 . S
C349 C143 1.988 . S
C363 C10 1.856 . S
C367 C183 1.994 . S
C381 C21 1.850 . S
C385 C223 1.981 1_655 S
C403 C114 0.477 . S
C399 C60 0.489 . S
C421 C154 0.490 . S
C417 C71 0.513 . S
C439 C194 0.481 . S
C435 C82 0.494 . S
C453 C49 0.485 . S
C457 C234 0.474 . S
C471 C16 0.518 1_655 S
C475 C97 0.467 . S
C493 C137 0.470 . S
C489 C27 0.487 1_565 S
C511 C177 0.491 . S
C507 C38 0.535 . S
C525 C5 0.497 . S
C529 C217 0.464 . S
C543 C59 2.055 . S
C547 C91 2.301 . S
C561 C70 2.020 . S
C565 C131 2.276 . S
C583 C171 2.263 . S
C579 C81 1.995 . S
C601 C211 2.294 . S
C597 C48 2.034 . S
C615 C15 2.056 1_655 S
C619 C110 2.311 . S
C637 C150 2.279 . S
C633 C26 2.024 1_565 S
C655 C190 2.265 . S
C651 C37 2.012 . S
C669 C4 2.045 . S
C673 C230 2.298 . S
