# Generated by pormake.
# Topology pts, (4,4)-cn, num edge types: 1
# Building blocks:
#     Node 0, Type 0, BuildingBlock: MUDLON_clean_linker_0, # of connection points: 4
#     Node 1, Type 0, BuildingBlock: MUDLON_clean_linker_0, # of connection points: 4
#     Node 2, Type 1, BuildingBlock: QUQFOY_clean_sbu_1, # of connection points: 4
#     Node 3, Type 1, BuildingBlock: QUQFOY_clean_sbu_1, # of connection points: 4
#     Edge 4, Type (0, 1), BuildingBlock: CIFDUS_clean_linker_0, # of connection points: 2
#     Edge 5, Type (0, 1), BuildingBlock: CIFDUS_clean_linker_0, # of connection points: 2
#     Edge 6, Type (0, 1), BuildingBlock: CIFDUS_clean_linker_0, # of connection points: 2
#     Edge 7, Type (0, 1), BuildingBlock: CIFDUS_clean_linker_0, # of connection points: 2
#     Edge 8, Type (0, 1), BuildingBlock: CIFDUS_clean_linker_0, # of connection points: 2
#     Edge 9, Type (0, 1), BuildingBlock: CIFDUS_clean_linker_0, # of connection points: 2
#     Edge 10, Type (0, 1), BuildingBlock: CIFDUS_clean_linker_0, # of connection points: 2
#     Edge 11, Type (0, 1), BuildingBlock: CIFDUS_clean_linker_0, # of connection points: 2
# Relax obj value: 0.109
# Max RMSD: 0.273
# Mean RMSD: 0.180
data_MOF--net-pts--node1-QUQFOY_clean_sbu_1--node2-MUDLON_clean_linker_0--edge1-CIFDUS_clean_linker_0
_symmetry_space_group_name_H-M    P1
_symmetry_Int_Tables_number       1
_symmetry_cell_setting            triclinic
loop_
_symmetry_equiv_pos_as_xyz
'x, y, z'
_cell_length_a     29.609565
_cell_length_b     32.021223
_cell_length_c     42.757336
_cell_angle_alpha  89.948695
_cell_angle_beta   90.134309
_cell_angle_gamma 89.485507
loop_
_atom_site_label
_atom_site_type_symbol
_atom_site_fract_x
_atom_site_fract_y
_atom_site_fract_z
_atom_type_partial_charge
H0 H 0.71022 0.09524 0.03083 0.0
N1 N 0.65832 0.0436 0.99873 0.0
H2 H 0.75551 0.07976 0.07743 0.0
H3 H 0.66184 0.96861 0.03045 0.0
H4 H 0.70591 0.95325 0.0772 0.0
H5 H 0.70491 0.97318 0.98045 0.0
H6 H 0.74717 0.96421 0.93217 0.0
H7 H 0.66473 0.09712 0.95165 0.0
H8 H 0.70536 0.08774 0.90234 0.0
H9 H 0.59046 0.09513 0.01175 0.0
H10 H 0.62005 0.96869 0.98355 0.0
H11 H 0.50963 0.08022 0.01047 0.0
H12 H 0.53993 0.9526 0.98407 0.0
H13 H 0.29761 0.04607 0.02582 0.0
H14 H 0.25424 0.05114 0.07363 0.0
H15 H 0.2519 0.91613 0.0796 0.0
H16 H 0.29914 0.91194 0.03302 0.0
H17 H 0.30083 0.91734 0.95776 0.0
H18 H 0.26 0.9284 0.9089 0.0
H19 H 0.25966 0.06171 0.92601 0.0
H20 H 0.30486 0.05008 0.97301 0.0
H21 H 0.37401 0.02844 0.03816 0.0
H22 H 0.45323 0.04413 0.03762 0.0
H23 H 0.4717 0.96384 0.95737 0.0
N24 N 0.32884 0.97432 0.99798 0.0
H25 H 0.39196 0.9462 0.95891 0.0
C26 C 0.68253 0.03342 0.02709 0.0
C27 C 0.70895 0.0643 0.04104 0.0
C28 C 0.73451 0.05543 0.06775 0.0
C29 C 0.73416 0.01527 0.08111 0.0
C30 C 0.70719 0.98439 0.06735 0.0
C31 C 0.68165 0.9933 0.0406 0.0
C32 C 0.68232 0.03634 0.96993 0.0
C33 C 0.70494 0.99846 0.96369 0.0
C34 C 0.72872 0.99315 0.93577 0.0
C35 C 0.7299 0.02533 0.91335 0.0
C36 C 0.70594 0.06261 0.91931 0.0
C37 C 0.68257 0.06801 0.94735 0.0
C38 C 0.61118 0.0331 0.99811 0.0
C39 C 0.57939 0.06403 0.00565 0.0
C40 C 0.53331 0.0553 0.0051 0.0
C41 C 0.51811 0.01509 0.99733 0.0
C42 C 0.55022 0.98406 0.98972 0.0
C43 C 0.59625 0.99307 0.98981 0.0
C44 C 0.30246 0.97849 0.02615 0.0
C45 C 0.28811 0.01756 0.03752 0.0
C46 C 0.26275 0.02035 0.06493 0.0
C47 C 0.24921 0.98406 0.08091 0.0
C48 C 0.26255 0.94494 0.06875 0.0
C49 C 0.28922 0.94233 0.04189 0.0
C50 C 0.30461 0.98264 0.9694 0.0
C51 C 0.29199 0.94889 0.95074 0.0
C52 C 0.26824 0.9554 0.92294 0.0
C53 C 0.25528 0.99599 0.91358 0.0
C54 C 0.26901 0.03 0.93215 0.0
C55 C 0.29409 0.02342 0.95953 0.0
C56 C 0.37592 0.98619 0.99813 0.0
C57 C 0.39424 0.01414 0.02014 0.0
C58 C 0.44021 0.02343 0.01981 0.0
C59 C 0.46906 1.00547 0.99738 0.0
C60 C 0.45075 0.97784 0.97531 0.0
C61 C 0.40495 0.96806 0.97594 0.0
H62 H 0.94709 0.70988 0.51816 0.0
N63 N 0.02457 0.66864 0.5 0.0
H64 H 0.93874 0.75537 0.56349 0.0
H65 H 0.08316 0.67888 0.54668 0.0
H66 H 0.07412 0.72348 0.5931 0.0
H67 H 0.08657 0.71205 0.4696 0.0
H68 H 0.0743 0.76146 0.42637 0.0
H69 H 0.94553 0.68013 0.46766 0.0
H70 H 0.93263 0.73111 0.42544 0.0
H71 H 0.95382 0.63004 0.53026 0.0
H72 H 0.06432 0.60911 0.46647 0.0
H73 H 0.93758 0.55601 0.53019 0.0
H74 H 0.04597 0.53516 0.46413 0.0
H75 H 0.89581 0.30824 0.52396 0.0
H76 H 0.9096 0.26159 0.56853 0.0
H77 H 0.04092 0.31643 0.58171 0.0
H78 H 0.02732 0.36242 0.53724 0.0
H79 H 0.02989 0.31985 0.48356 0.0
H80 H 0.04089 0.27501 0.43775 0.0
H81 H 0.90816 0.30969 0.40408 0.0
H82 H 0.89699 0.3538 0.45032 0.0
H83 H 0.89384 0.42491 0.50606 0.0
H84 H 0.90857 0.49975 0.50427 0.0
H85 H 0.05079 0.47316 0.49061 0.0
N86 N 0.95229 0.36246 0.49877 0.0
H87 H 0.03468 0.39877 0.4898 0.0
C88 C 0.01631 0.69141 0.52863 0.0
C89 C 0.97518 0.71261 0.53415 0.0
C90 C 0.9703 0.73859 0.56015 0.0
C91 C 0.00594 0.74317 0.58151 0.0
C92 C 0.04616 0.72041 0.57691 0.0
C93 C 0.05134 0.69498 0.55053 0.0
C94 C 0.01702 0.6929 0.47201 0.0
C95 C 0.05313 0.7154 0.45955 0.0
C96 C 0.04607 0.74356 0.43503 0.0
C97 C 0.00249 0.75019 0.42296 0.0
C98 C 0.96645 0.72665 0.43464 0.0
C99 C 0.97378 0.69765 0.45868 0.0
C100 C 0.01102 0.62538 0.49865 0.0
C101 C 0.9744 0.60973 0.51588 0.0
C102 C 0.96475 0.56701 0.51553 0.0
C103 C 0.99058 0.53895 0.49733 0.0
C104 C 0.026 0.55517 0.47919 0.0
C105 C 0.03627 0.59767 0.48015 0.0
C106 C 0.96002 0.33925 0.5273 0.0
C107 C 0.92728 0.31056 0.53678 0.0
C108 C 0.93537 0.28373 0.562 0.0
C109 C 0.97642 0.2853 0.57848 0.0
C110 C 0.00883 0.31478 0.56958 0.0
C111 C 0.00093 0.34129 0.54408 0.0
C112 C 0.96224 0.33985 0.47045 0.0
C113 C 0.00329 0.31807 0.46625 0.0
C114 C 0.0095 0.29234 0.44015 0.0
C115 C 0.97526 0.28871 0.41752 0.0
C116 C 0.93519 0.31207 0.42108 0.0
C117 C 0.92874 0.33721 0.4474 0.0
C118 C 0.96308 0.40629 0.49863 0.0
C119 C 0.92813 0.43548 0.50267 0.0
C120 C 0.93681 0.47832 0.50188 0.0
C121 C 0.98105 0.49307 0.49753 0.0
C122 C 0.01614 0.46346 0.4935 0.0
C123 C 0.00716 0.42061 0.49357 0.0
O124 O 0.93271 0.97905 0.22336 0.0
Cd125 Cd 0.99302 0.96996 0.24702 0.0
Cd126 Cd 0.98876 0.05546 0.25247 0.0
O127 O 0.92614 0.04657 0.23281 0.0
O128 O -0.00111 0.90867 0.25426 0.0
O129 O 0.99313 0.95456 0.29276 0.0
C130 C -0.0024 0.91621 0.28383 0.0
C131 C 0.9931 0.10169 0.29467 0.0
C132 C 0.91066 0.01319 0.22104 0.0
C133 C 0.06402 0.01953 0.2138 0.0
O134 O 0.04292 0.05233 0.22226 0.0
O135 O 0.05118 0.98379 0.22288 0.0
O136 O 0.98683 0.11474 0.26648 0.0
O137 O -0.00272 0.0619 0.29905 0.0
O138 O 0.94344 0.05973 0.77405 0.0
Cd139 Cd 0.00117 0.05764 0.74719 0.0
Cd140 Cd 0.98143 0.97619 0.74566 0.0
O141 O 0.92288 0.99419 0.76809 0.0
O142 O 0.00994 0.11532 0.73089 0.0
O143 O -0.0048 0.06113 0.70052 0.0
C144 C 0.0021 0.10077 0.70329 0.0
C145 C 0.97922 0.93029 0.70337 0.0
C146 C 0.91563 0.03048 0.77914 0.0
C147 C 0.06622 1.00213 0.77993 0.0
O148 O 0.03848 0.97345 0.77318 0.0
O149 O 0.05969 0.03909 0.76991 0.0
O150 O 0.97353 0.91734 0.73162 0.0
O151 O 0.98495 0.9698 0.69894 0.0
H152 H 0.18573 0.04381 0.09554 0.0
H153 H 0.24806 0.93097 0.13169 0.0
H154 H 0.1973 0.93264 0.17632 0.0
H155 H 0.13288 0.96442 0.20407 0.0
H156 H 0.07602 0.08063 0.17043 0.0
H157 H 0.12864 0.08022 0.12657 0.0
C158 C 0.18933 0.02001 0.11341 0.0
C159 C 0.22057 0.98692 0.1096 0.0
C160 C 0.16116 0.02189 0.13973 0.0
C161 C 0.22355 0.95617 0.13314 0.0
C162 C 0.19482 0.95729 0.159 0.0
C163 C 0.13246 0.9899 0.18734 0.0
C164 C 0.1004 0.02231 0.19033 0.0
C165 C 0.16307 0.98968 0.1623 0.0
C166 C 0.10048 0.05538 0.16871 0.0
C167 C 0.13033 0.05501 0.14348 0.0
H168 H 0.96388 0.20137 0.57874 0.0
H169 H 0.01026 0.3029 0.63634 0.0
H170 H 0.02423 0.25442 0.67961 0.0
H171 H 0.0208 0.18367 0.70156 0.0
H172 H 0.97509 0.08185 0.64382 0.0
H173 H 0.96348 0.12994 0.60007 0.0
C174 C 0.97686 0.21284 0.60084 0.0
C175 C 0.98569 0.25567 0.60447 0.0
C176 C 0.98501 0.18476 0.62552 0.0
C177 C 0.00333 0.27005 0.63298 0.0
C178 C 0.01119 0.24237 0.65773 0.0
C179 C 0.00856 0.1719 0.67936 0.0
C180 C -0.00136 0.12922 0.67604 0.0
C181 C 0.00188 0.19972 0.65432 0.0
C182 C 0.98302 0.11452 0.64703 0.0
C183 C 0.97621 0.14203 0.62202 0.0
H184 H 0.74918 0.06313 0.1326 0.0
H185 H 0.78536 0.94493 0.09075 0.0
H186 H 0.83908 0.93128 0.13298 0.0
H187 H 0.88135 0.95614 0.17865 0.0
H188 H 0.8481 0.07621 0.21874 0.0
H189 H 0.78769 0.08577 0.18044 0.0
C190 C 0.76879 0.03436 0.13275 0.0
C191 C 0.76352 1.00532 0.10839 0.0
C192 C 0.80031 0.02708 0.15674 0.0
C193 C 0.78848 0.96775 0.10929 0.0
C194 C 0.81946 0.96001 0.13334 0.0
C195 C 0.86035 0.98406 0.1794 0.0
C196 C 0.86951 0.01555 0.20138 0.0
C197 C 0.82638 0.98987 0.1568 0.0
C198 C 0.84203 0.0516 0.20192 0.0
C199 C 0.80754 0.05718 0.17996 0.0
H200 H 0.98304 0.82506 0.57845 0.0
H201 H 0.01984 0.72747 0.64341 0.0
H202 H 0.01291 0.77658 0.6871 0.0
H203 H -0.00269 0.84738 0.70655 0.0
H204 H 0.96539 0.9462 0.64128 0.0
H205 H 0.96927 0.89651 0.59787 0.0
C206 C 0.98925 0.81463 0.60224 0.0
C207 C 0.00162 0.7728 0.60789 0.0
C208 C 0.98609 0.84321 0.62705 0.0
C209 C 0.01035 0.75961 0.63864 0.0
C210 C 0.00629 0.78762 0.66354 0.0
C211 C 0.99092 0.85799 0.68284 0.0
C212 C 0.98073 0.90031 0.67712 0.0
C213 C 0.99428 0.82949 0.658 0.0
C214 C 0.97325 0.91376 0.64625 0.0
C215 C 0.97545 0.88537 0.62145 0.0
H216 H 0.19004 0.94431 0.89119 0.0
H217 H 0.25406 0.06238 0.87217 0.0
H218 H 0.20233 0.07433 0.82852 0.0
H219 H 0.13675 0.05223 0.79687 0.0
H220 H 0.07799 0.9314 0.8143 0.0
H221 H 0.13143 0.91899 0.85654 0.0
C222 C 0.19385 0.97224 0.87715 0.0
C223 C 0.22607 1.00241 0.8854 0.0
C224 C 0.165 0.97841 0.85153 0.0
C225 C 0.22907 0.03888 0.86707 0.0
C226 C 0.19971 0.04563 0.84182 0.0
C227 C 0.13603 0.02299 0.80966 0.0
C228 C 0.10304 0.99302 0.80251 0.0
C229 C 0.16716 0.01579 0.83404 0.0
C230 C 0.10285 0.95514 0.81922 0.0
C231 C 0.1333 0.94802 0.84356 0.0
H232 H 0.00118 0.20714 0.41958 0.0
H233 H 0.95958 0.30472 0.35589 0.0
H234 H 0.96292 0.25563 0.31217 0.0
H235 H 0.9751 0.18475 0.29243 0.0
H236 H 0.01405 0.08606 0.35608 0.0
H237 H 0.01451 0.13585 0.39948 0.0
C238 C 0.99343 0.21767 0.39604 0.0
C239 C 0.98026 0.25946 0.39088 0.0
C240 C -0.00531 0.18908 0.37111 0.0
C241 C 0.96958 0.27264 0.36039 0.0
C242 C 0.97152 0.24462 0.33543 0.0
C243 C 0.98391 0.17407 0.31575 0.0
C244 C 0.99452 0.13171 0.32099 0.0
C245 C 0.98357 0.2027 0.34057 0.0
C246 C 0.00565 0.11846 0.35141 0.0
C247 C 0.00595 0.14693 0.37623 0.0
H248 H 0.78135 0.08457 0.88547 0.0
H249 H 0.74169 0.95567 0.87678 0.0
H250 H 0.79336 0.94665 0.83282 0.0
H251 H 0.85344 0.97417 0.79924 0.0
H252 H 0.89188 0.10349 0.80789 0.0
H253 H 0.83586 0.11373 0.84884 0.0
C254 C 0.78315 0.05471 0.87359 0.0
C255 C 0.75788 0.02078 0.88468 0.0
C256 C 0.81272 0.04977 0.84826 0.0
C257 C 0.76137 0.98214 0.86918 0.0
C258 C 0.79072 0.977 0.8439 0.0
C259 C 0.84918 1.00476 0.80976 0.0
C260 C 0.87724 0.03786 0.80066 0.0
C261 C 0.81718 0.0104 0.83362 0.0
C262 C 0.87102 0.07732 0.8145 0.0
C263 C 0.83905 0.08323 0.83804 0.0
H264 H 0.03912 0.75586 0.36523 0.0
H265 H 0.94864 0.81876 0.42871 0.0
H266 H 0.93994 0.87686 0.39172 0.0
H267 H 0.95963 0.91036 0.34154 0.0
H268 H 0.04553 0.84447 0.27654 0.0
H269 H 0.05467 0.78703 0.31375 0.0
C270 C 0.01732 0.78225 0.37073 0.0
C271 C -0.00541 0.78334 0.39948 0.0
C272 C 0.01193 0.81503 0.34917 0.0
C273 C 0.96618 0.81737 0.40652 0.0
C274 C 0.96142 0.8506 0.38548 0.0
C275 C 0.98037 0.88341 0.33565 0.0
C276 C 0.00222 0.88171 0.30654 0.0
C277 C 0.98441 0.84992 0.35682 0.0
C278 C 0.02841 0.8464 0.29886 0.0
C279 C 0.03368 0.81359 0.32011 0.0
loop_
_geom_bond_atom_site_label_1
_geom_bond_atom_site_label_2
_geom_bond_distance
_geom_bond_site_symmetry_2
_ccdc_geom_bond_type
H0 C27 0.929 . S
N1 C26 1.433 1_556 S
N1 C32 1.435 . S
N1 C38 1.423 . S
H2 C28 0.930 . S
H3 C31 0.931 . S
H4 C30 0.929 . S
H5 C33 0.930 . S
H6 C34 0.932 . S
H7 C37 0.929 . S
H8 C36 0.931 . S
H9 C39 0.929 . S
H10 C43 0.932 1_565 S
H11 C40 0.931 . S
H12 C42 0.929 1_565 S
H13 C45 0.929 . S
H14 C46 0.930 . S
H15 C48 0.929 . S
H16 C49 0.931 . S
H17 C51 0.930 . S
H18 C52 0.932 . S
H19 C54 0.931 . S
H20 C55 0.929 . S
H21 C57 0.929 . S
H22 C58 0.931 . S
H23 C60 0.929 1_565 S
N24 C44 1.433 1_556 S
N24 C50 1.435 . S
N24 C56 1.423 . S
H25 C61 0.932 1_565 S
C26 N1 1.433 1_554 S
C26 C27 1.363 . S
C26 C31 1.370 1_545 S
C27 H0 0.929 . S
C27 C26 1.363 . S
C27 C28 1.385 . S
C28 H2 0.930 . S
C28 C27 1.385 . S
C28 C29 1.357 . S
C29 C28 1.357 . S
C29 C30 1.406 1_545 S
C30 H4 0.929 . S
C30 C29 1.406 1_565 S
C30 C31 1.391 . S
C31 H3 0.931 . S
C31 C26 1.370 1_565 S
C31 C30 1.391 . S
C32 N1 1.435 . S
C32 C33 1.358 1_545 S
C32 C37 1.371 . S
C33 H5 0.930 . S
C33 C32 1.358 1_565 S
C33 C34 1.405 . S
C34 H6 0.932 . S
C34 C33 1.405 . S
C34 C35 1.383 1_565 S
C35 C34 1.383 1_545 S
C35 C36 1.393 . S
C36 H8 0.931 . S
C36 C35 1.393 . S
C36 C37 1.382 . S
C37 H7 0.929 . S
C37 C32 1.371 . S
C37 C36 1.382 . S
C38 N1 1.423 . S
C38 C39 1.362 1_556 S
C38 C43 1.388 . S
C39 H9 0.929 . S
C39 C38 1.362 1_554 S
C39 C40 1.376 . S
C40 H11 0.931 . S
C40 C39 1.376 . S
C40 C41 1.396 1_554 S
C41 C40 1.396 1_556 S
C41 C42 1.348 . S
C41 C59 1.472 . S
C42 H12 0.929 1_545 S
C42 C41 1.348 . S
C42 C43 1.443 . S
C43 H10 0.932 1_545 S
C43 C38 1.388 . S
C43 C42 1.443 . S
C44 N24 1.433 1_554 S
C44 C45 1.363 . S
C44 C49 1.370 1_545 S
C45 H13 0.929 . S
C45 C44 1.363 . S
C45 C46 1.385 . S
C46 H14 0.930 . S
C46 C45 1.385 . S
C46 C47 1.357 . S
C47 C46 1.357 . S
C47 C48 1.406 1_545 S
C48 H15 0.929 . S
C48 C47 1.406 1_565 S
C48 C49 1.391 . S
C49 H16 0.931 . S
C49 C44 1.370 1_565 S
C49 C48 1.391 . S
C50 N24 1.435 . S
C50 C51 1.358 1_545 S
C50 C55 1.371 . S
C51 H17 0.930 . S
C51 C50 1.358 1_565 S
C51 C52 1.405 . S
C52 H18 0.932 . S
C52 C51 1.405 . S
C52 C53 1.383 1_565 S
C53 C52 1.383 1_545 S
C53 C54 1.393 . S
C54 H19 0.931 . S
C54 C53 1.393 . S
C54 C55 1.382 . S
C55 H20 0.929 . S
C55 C50 1.371 . S
C55 C54 1.382 . S
C56 N24 1.423 . S
C56 C57 1.362 1_556 S
C56 C61 1.388 . S
C57 H21 0.929 . S
C57 C56 1.362 1_554 S
C57 C58 1.376 . S
C58 H22 0.931 . S
C58 C57 1.376 . S
C58 C59 1.396 1_554 S
C59 C41 1.472 . S
C59 C58 1.396 1_556 S
C59 C60 1.348 . S
C60 H23 0.929 1_545 S
C60 C59 1.348 . S
C60 C61 1.443 . S
C61 H25 0.932 1_545 S
C61 C56 1.388 . S
C61 C60 1.443 . S
H62 C89 0.929 . S
N63 C88 1.433 . S
N63 C94 1.435 . S
N63 C100 1.423 . S
H64 C90 0.930 . S
H65 C93 0.931 . S
H66 C92 0.929 . S
H67 C95 0.930 . S
H68 C96 0.932 . S
H69 C99 0.929 . S
H70 C98 0.931 . S
H71 C101 0.929 . S
H72 C105 0.932 1_455 S
H73 C102 0.931 . S
H74 C104 0.929 1_455 S
H75 C107 0.929 . S
H76 C108 0.930 . S
H77 C110 0.929 . S
H78 C111 0.931 . S
H79 C113 0.930 . S
H80 C114 0.932 . S
H81 C116 0.931 . S
H82 C117 0.929 . S
H83 C119 0.929 . S
H84 C120 0.931 . S
H85 C122 0.929 1_455 S
N86 C106 1.433 . S
N86 C112 1.435 . S
N86 C118 1.423 . S
H87 C123 0.932 1_455 S
C88 N63 1.433 . S
C88 C89 1.363 . S
C88 C93 1.370 1_655 S
C89 H62 0.929 . S
C89 C88 1.363 . S
C89 C90 1.385 . S
C90 H64 0.930 . S
C90 C89 1.385 . S
C90 C91 1.357 . S
C91 C90 1.357 . S
C91 C92 1.406 1_655 S
C92 H66 0.929 . S
C92 C91 1.406 1_455 S
C92 C93 1.391 . S
C93 H65 0.931 . S
C93 C88 1.370 1_455 S
C93 C92 1.391 . S
C94 N63 1.435 . S
C94 C95 1.358 1_655 S
C94 C99 1.371 . S
C95 H67 0.930 . S
C95 C94 1.358 1_455 S
C95 C96 1.405 . S
C96 H68 0.932 . S
C96 C95 1.405 . S
C96 C97 1.383 1_455 S
C97 C96 1.383 1_655 S
C97 C98 1.393 . S
C98 H70 0.931 . S
C98 C97 1.393 . S
C98 C99 1.382 . S
C99 H69 0.929 . S
C99 C94 1.371 . S
C99 C98 1.382 . S
C100 N63 1.423 . S
C100 C101 1.362 . S
C100 C105 1.388 . S
C101 H71 0.929 . S
C101 C100 1.362 . S
C101 C102 1.376 . S
C102 H73 0.931 . S
C102 C101 1.376 . S
C102 C103 1.396 . S
C103 C102 1.396 . S
C103 C104 1.348 . S
C103 C121 1.472 . S
C104 H74 0.929 1_655 S
C104 C103 1.348 . S
C104 C105 1.443 . S
C105 H72 0.932 1_655 S
C105 C100 1.388 . S
C105 C104 1.443 . S
C106 N86 1.433 . S
C106 C107 1.363 . S
C106 C111 1.370 1_655 S
C107 H75 0.929 . S
C107 C106 1.363 . S
C107 C108 1.385 . S
C108 H76 0.930 . S
C108 C107 1.385 . S
C108 C109 1.357 . S
C109 C108 1.357 . S
C109 C110 1.406 1_655 S
C110 H77 0.929 . S
C110 C109 1.406 1_455 S
C110 C111 1.391 . S
C111 H78 0.931 . S
C111 C106 1.370 1_455 S
C111 C110 1.391 . S
C112 N86 1.435 . S
C112 C113 1.358 1_655 S
C112 C117 1.371 . S
C113 H79 0.930 . S
C113 C112 1.358 1_455 S
C113 C114 1.405 . S
C114 H80 0.932 . S
C114 C113 1.405 . S
C114 C115 1.383 1_455 S
C115 C114 1.383 1_655 S
C115 C116 1.393 . S
C116 H81 0.931 . S
C116 C115 1.393 . S
C116 C117 1.382 . S
C117 H82 0.929 . S
C117 C112 1.371 . S
C117 C116 1.382 . S
C118 N86 1.423 . S
C118 C119 1.362 . S
C118 C123 1.388 . S
C119 H83 0.929 . S
C119 C118 1.362 . S
C119 C120 1.376 . S
C120 H84 0.931 . S
C120 C119 1.376 . S
C120 C121 1.396 . S
C121 C103 1.472 . S
C121 C120 1.396 . S
C121 C122 1.348 . S
C122 H85 0.929 1_655 S
C122 C121 1.348 . S
C122 C123 1.443 . S
C123 H87 0.932 1_655 S
C123 C118 1.388 . S
C123 C122 1.443 . S
O124 Cd125 2.223 1_655 S
O124 C132 1.315 . S
Cd125 O124 2.223 1_455 S
Cd125 O128 2.297 1_455 S
Cd125 O129 2.439 1_455 S
Cd125 O135 2.240 1_565 S
Cd126 O127 2.240 1_545 S
Cd126 O134 2.223 1_655 S
Cd126 O136 2.297 1_655 S
Cd126 O137 2.439 1_655 S
O127 Cd126 2.240 1_565 S
O127 C132 1.279 . S
O128 Cd125 2.297 1_655 S
O128 C130 1.247 . S
O129 Cd125 2.439 1_655 S
O129 C130 1.208 . S
C130 O128 1.247 . S
C130 O129 1.208 . S
C131 O136 1.247 . S
C131 O137 1.208 . S
C132 O124 1.315 . S
C132 O127 1.279 . S
C133 O134 1.315 . S
C133 O135 1.279 . S
O134 Cd126 2.223 1_455 S
O134 C133 1.315 . S
O135 Cd125 2.240 1_545 S
O135 C133 1.279 . S
O136 Cd126 2.297 1_455 S
O136 C131 1.247 . S
O137 Cd126 2.439 1_455 S
O137 C131 1.208 . S
O138 Cd139 2.223 1_655 S
O138 C146 1.315 . S
Cd139 O138 2.223 1_455 S
Cd139 O142 2.297 1_455 S
Cd139 O143 2.439 1_455 S
Cd139 O149 2.240 1_545 S
Cd140 O141 2.240 1_565 S
Cd140 O148 2.223 1_655 S
Cd140 O150 2.297 1_655 S
Cd140 O151 2.439 1_655 S
O141 Cd140 2.240 1_545 S
O141 C146 1.279 . S
O142 Cd139 2.297 1_655 S
O142 C144 1.247 . S
O143 Cd139 2.439 1_655 S
O143 C144 1.208 . S
C144 O142 1.247 . S
C144 O143 1.208 . S
C145 O150 1.247 . S
C145 O151 1.208 . S
C146 O138 1.315 . S
C146 O141 1.279 . S
C147 O148 1.315 . S
C147 O149 1.279 . S
O148 Cd140 2.223 1_455 S
O148 C147 1.315 . S
O149 Cd139 2.240 1_565 S
O149 C147 1.279 . S
O150 Cd140 2.297 1_455 S
O150 C145 1.247 . S
O151 Cd140 2.439 1_455 S
O151 C145 1.208 . S
H152 C158 0.930 . S
H153 C161 0.930 . S
H154 C162 0.930 . S
H155 C163 0.930 . S
H156 C166 0.930 . S
H157 C167 0.930 . S
C158 H152 0.930 . S
C158 C159 1.355 . S
C158 C160 1.415 . S
C159 C158 1.355 . S
C159 C161 1.419 . S
C160 C158 1.415 . S
C160 C165 1.425 . S
C160 C167 1.409 . S
C161 H153 0.930 . S
C161 C159 1.419 . S
C161 C162 1.362 . S
C162 H154 0.930 . S
C162 C161 1.362 . S
C162 C165 1.409 . S
C163 H155 0.930 . S
C163 C164 1.355 . S
C163 C165 1.415 . S
C164 C163 1.355 . S
C164 C166 1.419 . S
C165 C160 1.425 . S
C165 C162 1.409 . S
C165 C163 1.415 . S
C166 H156 0.930 . S
C166 C164 1.419 . S
C166 C167 1.362 . S
C167 H157 0.930 . S
C167 C160 1.409 . S
C167 C166 1.362 . S
H168 C174 0.930 . S
H169 C177 0.930 . S
H170 C178 0.930 . S
H171 C179 0.930 . S
H172 C182 0.930 . S
H173 C183 0.930 . S
C174 H168 0.930 . S
C174 C175 1.355 1_455 S
C174 C176 1.415 1_455 S
C175 C174 1.355 1_655 S
C175 C177 1.419 . S
C176 C174 1.415 1_655 S
C176 C181 1.425 . S
C176 C183 1.409 1_655 S
C177 H169 0.930 . S
C177 C175 1.419 . S
C177 C178 1.362 . S
C178 H170 0.930 . S
C178 C177 1.362 . S
C178 C181 1.409 . S
C179 H171 0.930 . S
C179 C180 1.355 . S
C179 C181 1.415 . S
C180 C179 1.355 . S
C180 C182 1.419 1_655 S
C181 C176 1.425 . S
C181 C178 1.409 . S
C181 C179 1.415 . S
C182 H172 0.930 . S
C182 C180 1.419 1_455 S
C182 C183 1.362 . S
C183 H173 0.930 . S
C183 C176 1.409 1_455 S
C183 C182 1.362 . S
H184 C190 0.930 . S
H185 C193 0.930 . S
H186 C194 0.930 . S
H187 C195 0.930 . S
H188 C198 0.930 . S
H189 C199 0.930 . S
C190 H184 0.930 . S
C190 C191 1.355 1_545 S
C190 C192 1.415 . S
C191 C190 1.355 1_565 S
C191 C193 1.419 . S
C192 C190 1.415 . S
C192 C197 1.425 1_545 S
C192 C199 1.409 . S
C193 H185 0.930 . S
C193 C191 1.419 . S
C193 C194 1.362 . S
C194 H186 0.930 . S
C194 C193 1.362 . S
C194 C197 1.409 . S
C195 H187 0.930 . S
C195 C196 1.355 . S
C195 C197 1.415 . S
C196 C195 1.355 . S
C196 C198 1.419 1_565 S
C197 C192 1.425 1_565 S
C197 C194 1.409 . S
C197 C195 1.415 . S
C198 H188 0.930 . S
C198 C196 1.419 1_545 S
C198 C199 1.362 . S
C199 H189 0.930 . S
C199 C192 1.409 . S
C199 C198 1.362 . S
H200 C206 0.930 . S
H201 C209 0.930 . S
H202 C210 0.930 . S
H203 C211 0.930 . S
H204 C214 0.930 . S
H205 C215 0.930 . S
C206 H200 0.930 . S
C206 C207 1.355 1_655 S
C206 C208 1.415 . S
C207 C206 1.355 1_455 S
C207 C209 1.419 . S
C208 C206 1.415 . S
C208 C213 1.425 1_655 S
C208 C215 1.409 . S
C209 H201 0.930 . S
C209 C207 1.419 . S
C209 C210 1.362 . S
C210 H202 0.930 . S
C210 C209 1.362 . S
C210 C213 1.409 . S
C211 H203 0.930 . S
C211 C212 1.355 . S
C211 C213 1.415 . S
C212 C211 1.355 . S
C212 C214 1.419 1_455 S
C213 C208 1.425 1_455 S
C213 C210 1.409 . S
C213 C211 1.415 . S
C214 H204 0.930 . S
C214 C212 1.419 1_655 S
C214 C215 1.362 . S
C215 H205 0.930 . S
C215 C208 1.409 . S
C215 C214 1.362 . S
H216 C222 0.930 . S
H217 C225 0.933 . S
H218 C226 0.932 . S
H219 C227 0.930 . S
H220 C230 0.930 . S
H221 C231 0.930 . S
C222 H216 0.930 . S
C222 C223 1.355 . S
C222 C224 1.415 . S
C223 C222 1.355 . S
C223 C225 1.418 1_565 S
C224 C222 1.415 . S
C224 C229 1.425 . S
C224 C231 1.409 . S
C225 H217 0.933 . S
C225 C223 1.418 1_545 S
C225 C226 1.361 1_545 S
C226 H218 0.932 . S
C226 C225 1.361 1_565 S
C226 C229 1.409 . S
C227 H219 0.930 . S
C227 C228 1.355 . S
C227 C229 1.415 . S
C228 C227 1.355 . S
C228 C230 1.419 . S
C229 C224 1.425 . S
C229 C226 1.409 . S
C229 C227 1.415 . S
C230 H220 0.930 . S
C230 C228 1.419 . S
C230 C231 1.362 . S
C231 H221 0.930 . S
C231 C224 1.409 . S
C231 C230 1.362 . S
H232 C238 0.930 . S
H233 C241 0.930 . S
H234 C242 0.930 . S
H235 C243 0.930 1_655 S
H236 C246 0.930 . S
H237 C247 0.930 . S
C238 H232 0.930 . S
C238 C239 1.355 . S
C238 C240 1.415 . S
C239 C238 1.355 . S
C239 C241 1.419 1_455 S
C240 C238 1.415 . S
C240 C245 1.425 . S
C240 C247 1.409 . S
C241 H233 0.930 . S
C241 C239 1.419 1_655 S
C241 C242 1.362 . S
C242 H234 0.930 . S
C242 C241 1.362 . S
C242 C245 1.409 1_655 S
C243 H235 0.930 1_455 S
C243 C244 1.355 . S
C243 C245 1.415 . S
C244 C243 1.355 . S
C244 C246 1.419 . S
C245 C240 1.425 . S
C245 C242 1.409 1_455 S
C245 C243 1.415 . S
C246 H236 0.930 . S
C246 C244 1.419 . S
C246 C247 1.362 . S
C247 H237 0.930 . S
C247 C240 1.409 . S
C247 C246 1.362 . S
H248 C254 0.930 . S
H249 C257 0.930 . S
H250 C258 0.930 . S
H251 C259 0.931 1_565 S
H252 C262 0.930 . S
H253 C263 0.930 . S
C254 H248 0.930 . S
C254 C255 1.355 . S
C254 C256 1.415 . S
C255 C254 1.355 . S
C255 C257 1.419 1_545 S
C256 C254 1.415 . S
C256 C261 1.431 . S
C256 C263 1.409 . S
C257 H249 0.930 . S
C257 C255 1.419 1_565 S
C257 C258 1.362 . S
C258 H250 0.930 . S
C258 C257 1.362 . S
C258 C261 1.404 1_565 S
C259 H251 0.931 1_545 S
C259 C260 1.354 . S
C259 C261 1.415 . S
C260 C259 1.354 . S
C260 C262 1.419 . S
C261 C256 1.431 . S
C261 C258 1.404 1_545 S
C261 C259 1.415 . S
C262 H252 0.930 . S
C262 C260 1.419 . S
C262 C263 1.362 . S
C263 H253 0.930 . S
C263 C256 1.409 . S
C263 C262 1.362 . S
H264 C270 0.930 . S
H265 C273 0.930 . S
H266 C274 0.930 . S
H267 C275 0.930 . S
H268 C278 0.930 1_455 S
H269 C279 0.930 . S
C270 H264 0.930 . S
C270 C271 1.355 1_455 S
C270 C272 1.415 1_455 S
C271 C270 1.355 1_655 S
C271 C273 1.419 . S
C272 C270 1.415 1_655 S
C272 C277 1.425 . S
C272 C279 1.409 1_655 S
C273 H265 0.930 . S
C273 C271 1.419 . S
C273 C274 1.362 . S
C274 H266 0.930 . S
C274 C273 1.362 . S
C274 C277 1.409 . S
C275 H267 0.930 . S
C275 C276 1.355 . S
C275 C277 1.415 . S
C276 C275 1.355 . S
C276 C278 1.419 . S
C277 C272 1.425 . S
C277 C274 1.409 . S
C277 C275 1.415 . S
C278 H268 0.930 1_655 S
C278 C276 1.419 . S
C278 C279 1.362 1_655 S
C279 H269 0.930 . S
C279 C272 1.409 1_455 S
C279 C278 1.362 1_455 S
C164 C133 1.836 . S
C159 C47 1.748 . S
C180 C144 1.739 . S
C175 C109 1.715 . S
C196 C132 1.818 . S
C191 C29 1.704 1_565 S
C212 C145 1.726 . S
C207 C91 1.744 1_455 S
C228 C147 1.588 . S
C223 C53 1.594 1_565 S
C244 C131 1.464 . S
C239 C115 1.502 1_455 S
C260 C146 1.588 . S
C255 C35 1.593 . S
C271 C97 1.458 . S
C276 C130 1.412 . S
