# Generated by pormake.
# Topology nom, (4,4)-cn, num edge types: 1
# Building blocks:
#     Node 0, Type 0, BuildingBlock: NAWXER_clean_linker_0, # of connection points: 4
#     Node 1, Type 0, BuildingBlock: NAWXER_clean_linker_0, # of connection points: 4
#     Node 2, Type 0, BuildingBlock: NAWXER_clean_linker_0, # of connection points: 4
#     Node 3, Type 0, BuildingBlock: NAWXER_clean_linker_0, # of connection points: 4
#     Node 4, Type 0, BuildingBlock: NAWXER_clean_linker_0, # of connection points: 4
#     Node 5, Type 0, BuildingBlock: NAWXER_clean_linker_0, # of connection points: 4
#     Node 6, Type 1, BuildingBlock: QUQFOY_clean_sbu_3, # of connection points: 4
#     Node 7, Type 1, BuildingBlock: QUQFOY_clean_sbu_3, # of connection points: 4
#     Node 8, Type 1, BuildingBlock: QUQFOY_clean_sbu_3, # of connection points: 4
#     Node 9, Type 1, BuildingBlock: QUQFOY_clean_sbu_3, # of connection points: 4
#     Node 10, Type 1, BuildingBlock: QUQFOY_clean_sbu_3, # of connection points: 4
#     Node 11, Type 1, BuildingBlock: QUQFOY_clean_sbu_3, # of connection points: 4
#     Edge 12, Type (0, 1), BuildingBlock: CIFDUS_clean_linker_0, # of connection points: 2
#     Edge 13, Type (0, 1), BuildingBlock: CIFDUS_clean_linker_0, # of connection points: 2
#     Edge 14, Type (0, 1), BuildingBlock: CIFDUS_clean_linker_0, # of connection points: 2
#     Edge 15, Type (0, 1), BuildingBlock: CIFDUS_clean_linker_0, # of connection points: 2
#     Edge 16, Type (0, 1), BuildingBlock: CIFDUS_clean_linker_0, # of connection points: 2
#     Edge 17, Type (0, 1), BuildingBlock: CIFDUS_clean_linker_0, # of connection points: 2
#     Edge 18, Type (0, 1), BuildingBlock: CIFDUS_clean_linker_0, # of connection points: 2
#     Edge 19, Type (0, 1), BuildingBlock: CIFDUS_clean_linker_0, # of connection points: 2
#     Edge 20, Type (0, 1), BuildingBlock: CIFDUS_clean_linker_0, # of connection points: 2
#     Edge 21, Type (0, 1), BuildingBlock: CIFDUS_clean_linker_0, # of connection points: 2
#     Edge 22, Type (0, 1), BuildingBlock: CIFDUS_clean_linker_0, # of connection points: 2
#     Edge 23, Type (0, 1), BuildingBlock: CIFDUS_clean_linker_0, # of connection points: 2
#     Edge 24, Type (0, 1), BuildingBlock: CIFDUS_clean_linker_0, # of connection points: 2
#     Edge 25, Type (0, 1), BuildingBlock: CIFDUS_clean_linker_0, # of connection points: 2
#     Edge 26, Type (0, 1), BuildingBlock: CIFDUS_clean_linker_0, # of connection points: 2
#     Edge 27, Type (0, 1), BuildingBlock: CIFDUS_clean_linker_0, # of connection points: 2
#     Edge 28, Type (0, 1), BuildingBlock: CIFDUS_clean_linker_0, # of connection points: 2
#     Edge 29, Type (0, 1), BuildingBlock: CIFDUS_clean_linker_0, # of connection points: 2
#     Edge 30, Type (0, 1), BuildingBlock: CIFDUS_clean_linker_0, # of connection points: 2
#     Edge 31, Type (0, 1), BuildingBlock: CIFDUS_clean_linker_0, # of connection points: 2
#     Edge 32, Type (0, 1), BuildingBlock: CIFDUS_clean_linker_0, # of connection points: 2
#     Edge 33, Type (0, 1), BuildingBlock: CIFDUS_clean_linker_0, # of connection points: 2
#     Edge 34, Type (0, 1), BuildingBlock: CIFDUS_clean_linker_0, # of connection points: 2
#     Edge 35, Type (0, 1), BuildingBlock: CIFDUS_clean_linker_0, # of connection points: 2
# Relax obj value: 0.007
# Max RMSD: 0.110
# Mean RMSD: 0.075
data_MOF--net-nom--node1-QUQFOY_clean_sbu_3--node2-NAWXER_clean_linker_0--edge1-CIFDUS_clean_linker_0
_symmetry_space_group_name_H-M    P1
_symmetry_Int_Tables_number       1
_symmetry_cell_setting            triclinic
loop_
_symmetry_equiv_pos_as_xyz
'x, y, z'
_cell_length_a     47.118765
_cell_length_b     48.379277
_cell_length_c     52.280299
_cell_angle_alpha  89.90184
_cell_angle_beta   90.159379
_cell_angle_gamma 120.08908
loop_
_atom_site_label
_atom_site_type_symbol
_atom_site_fract_x
_atom_site_fract_y
_atom_site_fract_z
_atom_type_partial_charge
C0 C 0.88828 0.49571 0.31913 0.0
C1 C 0.87719 0.4746 0.33999 0.0
C2 C 0.91732 0.50295 0.30674 0.0
C3 C 0.93574 0.48893 0.31473 0.0
C4 C 0.89481 0.45953 0.34739 0.0
C5 C 0.92406 0.46689 0.33499 0.0
C6 C 0.96938 0.50141 0.30488 0.0
C7 C 0.90653 0.45278 0.23605 0.0
C8 C 0.90853 0.47366 0.21644 0.0
C9 C 0.92837 0.46413 0.25671 0.0
C10 C 0.95266 0.49652 0.25808 0.0
C11 C 0.93245 0.50622 0.2183 0.0
C12 C 0.95447 0.51743 0.23874 0.0
C13 C 0.9774 0.50852 0.27879 0.0
C14 C 0.12513 0.57961 0.2762 0.0
C15 C 0.13041 0.60763 0.26368 0.0
C16 C 0.09383 0.55712 0.28489 0.0
C17 C 0.06732 0.56217 0.28099 0.0
C18 C 0.1036 0.61242 0.25997 0.0
C19 C 0.07238 0.58976 0.26826 0.0
C20 C 0.03401 0.53903 0.28979 0.0
C21 C 0.09253 0.58611 0.36139 0.0
C22 C 0.09392 0.56445 0.37858 0.0
C23 C 0.07114 0.57503 0.34048 0.0
C24 C 0.05092 0.54209 0.33633 0.0
C25 C 0.0738 0.53149 0.37424 0.0
C26 C 0.05233 0.52044 0.3534 0.0
C27 C 0.02625 0.53004 0.31562 0.0
H28 H 0.87504 0.50749 0.31294 0.0
H29 H 0.92623 0.52092 0.29184 0.0
H30 H 0.88686 0.44333 0.36355 0.0
H31 H 0.93816 0.45623 0.34176 0.0
H32 H 0.88873 0.42752 0.23509 0.0
H33 H 0.92688 0.44745 0.27122 0.0
H34 H 0.93425 0.52316 0.20391 0.0
H35 H 0.97293 0.54254 0.23948 0.0
H36 H 0.14505 0.57486 0.27905 0.0
H37 H 0.09026 0.53571 0.29443 0.0
H38 H 0.10672 0.63395 0.25099 0.0
H39 H 0.05219 0.59411 0.2652 0.0
H40 H 0.1078 0.61163 0.36422 0.0
H41 H 0.06982 0.5922 0.32795 0.0
H42 H 0.07395 0.51423 0.38738 0.0
H43 H 0.03655 0.49494 0.35074 0.0
N44 N 0.99417 0.51183 0.32223 0.0
N45 N 0.00935 0.52761 0.27232 0.0
C46 C 0.39839 0.88008 0.50785 0.0
C47 C 0.41388 0.86579 0.52086 0.0
C48 C 0.41568 0.91261 0.50203 0.0
C49 C 0.44869 0.93137 0.50923 0.0
C50 C 0.44689 0.88465 0.52816 0.0
C51 C 0.46407 0.91733 0.52265 0.0
C52 C 0.467 0.96575 0.50323 0.0
C53 C 0.4514 0.91287 0.42892 0.0
C54 C 0.43678 0.92144 0.40926 0.0
C55 C 0.46246 0.93097 0.45132 0.0
C56 C 0.45817 0.95741 0.45494 0.0
C57 C 0.43308 0.94827 0.41281 0.0
C58 C 0.44353 0.96593 0.43539 0.0
C59 C 0.47058 0.97778 0.47807 0.0
C60 C 0.56278 0.11853 0.49148 0.0
C61 C 0.54647 0.13108 0.47714 0.0
C62 C 0.54726 0.08592 0.4971 0.0
C63 C 0.51527 0.06527 0.48835 0.0
C64 C 0.51451 0.11007 0.46821 0.0
C65 C 0.49926 0.07746 0.47349 0.0
C66 C 0.49825 0.03089 0.49445 0.0
C67 C 0.50373 0.08342 0.56593 0.0
C68 C 0.51919 0.07797 0.58667 0.0
C69 C 0.49502 0.06397 0.54432 0.0
C70 C 0.50282 0.03951 0.54263 0.0
C71 C 0.52571 0.0527 0.58559 0.0
C72 C 0.51767 0.03366 0.56368 0.0
C73 C 0.49392 0.01889 0.51966 0.0
H74 H 0.37299 0.86599 0.50192 0.0
H75 H 0.4033 0.92315 0.49196 0.0
H76 H 0.45924 0.87419 0.53839 0.0
H77 H 0.48948 0.93157 0.52852 0.0
H78 H 0.45446 0.89224 0.42703 0.0
H79 H 0.47485 0.92452 0.46554 0.0
H80 H 0.42272 0.95615 0.39793 0.0
H81 H 0.44036 0.9865 0.43749 0.0
H82 H 0.5876 0.13383 0.49826 0.0
H83 H 0.56022 0.0768 0.50823 0.0
H84 H 0.50087 0.11882 0.45756 0.0
H85 H 0.47455 0.06184 0.46658 0.0
H86 H 0.49798 0.10246 0.56663 0.0
H87 H 0.48193 0.06796 0.52906 0.0
H88 H 0.53755 0.04809 0.6015 0.0
H89 H 0.52335 0.01457 0.56306 0.0
N90 N 0.47882 0.98673 0.52305 0.0
N91 N 0.48612 0.00992 0.47473 0.0
C92 C 0.55476 0.46236 0.60912 0.0
C93 C 0.5322 0.44522 0.58951 0.0
C94 C 0.54637 0.47636 0.62883 0.0
C95 C 0.51489 0.47277 0.62981 0.0
C96 C 0.50086 0.44203 0.59038 0.0
C97 C 0.49232 0.45561 0.61031 0.0
C98 C 0.50576 0.48824 0.65012 0.0
C99 C 0.52431 0.41815 0.69128 0.0
C100 C 0.55379 0.43232 0.70523 0.0
C101 C 0.51155 0.4367 0.68192 0.0
C102 C 0.52803 0.46976 0.68632 0.0
C103 C 0.56997 0.46536 0.71004 0.0
C104 C 0.55695 0.4839 0.70089 0.0
C105 C 0.51442 0.48917 0.67611 0.0
C106 C 0.4358 0.53204 0.73335 0.0
C107 C 0.45968 0.55692 0.74842 0.0
C108 C 0.44506 0.52046 0.71242 0.0
C109 C 0.47834 0.53354 0.70632 0.0
C110 C 0.49293 0.57042 0.74191 0.0
C111 C 0.50219 0.55855 0.72118 0.0
C112 C 0.48855 0.51941 0.68594 0.0
C113 C 0.43778 0.56699 0.64777 0.0
C114 C 0.41215 0.54676 0.63115 0.0
C115 C 0.45968 0.55781 0.65727 0.0
C116 C 0.45593 0.52798 0.65069 0.0
C117 C 0.40929 0.51747 0.62401 0.0
C118 C 0.43077 0.50819 0.63372 0.0
C119 C 0.4783 0.51701 0.66021 0.0
H120 H 0.57902 0.46511 0.60925 0.0
H121 H 0.56475 0.49042 0.64303 0.0
H122 H 0.48306 0.42961 0.57538 0.0
H123 H 0.46802 0.4528 0.6104 0.0
H124 H 0.51147 0.3928 0.68711 0.0
H125 H 0.48884 0.42522 0.67113 0.0
H126 H 0.59263 0.47679 0.72089 0.0
H127 H 0.56976 0.50933 0.70472 0.0
H128 H 0.41 0.52129 0.73798 0.0
H129 H 0.42634 0.50076 0.70142 0.0
H130 H 0.51181 0.58935 0.7534 0.0
H131 H 0.52801 0.56865 0.71689 0.0
H132 H 0.44077 0.58976 0.65361 0.0
H133 H 0.47958 0.57414 0.66956 0.0
H134 H 0.39054 0.50166 0.61067 0.0
H135 H 0.42753 0.48525 0.62801 0.0
N136 N 0.4877 0.50183 0.64333 0.0
N137 N 0.50605 0.50523 0.69294 0.0
C138 C 0.90688 0.4009 0.79593 0.0
C139 C 0.88882 0.40935 0.77956 0.0
C140 C 0.93746 0.42407 0.80498 0.0
C141 C 0.95062 0.4562 0.7979 0.0
C142 C 0.90178 0.44155 0.77259 0.0
C143 C 0.93273 0.46481 0.78148 0.0
C144 C 0.98399 0.47989 0.80643 0.0
C145 C 0.92307 0.46385 0.87622 0.0
C146 C 0.92503 0.44312 0.89417 0.0
C147 C 0.94495 0.47595 0.85582 0.0
C148 C 0.96964 0.46809 0.85315 0.0
C149 C 0.94966 0.43499 0.89115 0.0
C150 C 0.97204 0.44773 0.871 0.0
C151 C 0.99358 0.48214 0.83219 0.0
C152 C 0.138 0.57274 0.83689 0.0
C153 C 0.14724 0.55231 0.84885 0.0
C154 C 0.10637 0.56043 0.8267 0.0
C155 C 0.08374 0.52762 0.82846 0.0
C156 C 0.12461 0.51936 0.84967 0.0
C157 C 0.09314 0.50726 0.83988 0.0
C158 C 0.04949 0.51385 0.82005 0.0
C159 C 0.11005 0.53819 0.7477 0.0
C160 C 0.10194 0.55375 0.72884 0.0
C161 C 0.09045 0.52566 0.76942 0.0
C162 C 0.06303 0.52946 0.77303 0.0
C163 C 0.07465 0.55762 0.73239 0.0
C164 C 0.05547 0.5457 0.75435 0.0
C165 C 0.03983 0.51367 0.79438 0.0
H166 H 0.89735 0.37629 0.8017 0.0
H167 H 0.95118 0.41673 0.81712 0.0
H168 H 0.88832 0.44855 0.75984 0.0
H169 H 0.94271 0.48943 0.77556 0.0
H170 H 0.90515 0.47146 0.87819 0.0
H171 H 0.9431 0.49211 0.84244 0.0
H172 H 0.95168 0.41873 0.90428 0.0
H173 H 0.99098 0.44141 0.86918 0.0
H174 H 0.15483 0.59825 0.83602 0.0
H175 H 0.09934 0.5765 0.81809 0.0
H176 H 0.13114 0.50277 0.85799 0.0
H177 H 0.076 0.48182 0.84124 0.0
H178 H 0.13062 0.53436 0.74503 0.0
H179 H 0.09603 0.51186 0.78269 0.0
H180 H 0.06791 0.56943 0.71799 0.0
H181 H 0.03421 0.54856 0.75648 0.0
N182 N 0.00732 0.49626 0.78852 0.0
N183 N 0.02594 0.49842 0.83802 0.0
C184 C 0.51544 0.90159 0.96323 0.0
C185 C 0.48826 0.88666 0.94678 0.0
C186 C 0.52466 0.93136 0.97379 0.0
C187 C 0.50694 0.94681 0.96802 0.0
C188 C 0.47073 0.90228 0.94076 0.0
C189 C 0.48027 0.93236 0.95108 0.0
C190 C 0.5172 0.97851 0.97904 0.0
C191 C 0.46693 0.91189 0.04482 0.0
C192 C 0.4886 0.91209 0.06352 0.0
C193 C 0.47824 0.93485 0.02546 0.0
C194 C 0.51135 0.95877 0.02457 0.0
C195 C 0.52202 0.9357 0.06205 0.0
C196 C 0.53316 0.95909 0.04297 0.0
C197 C 0.52252 0.98459 0.00545 0.0
C198 C 0.55993 0.12216 0.01632 0.0
C199 C 0.58991 0.13441 0.02962 0.0
C200 C 0.54472 0.09137 0.00599 0.0
C201 C 0.55909 0.07225 0.00898 0.0
C202 C 0.60362 0.11466 0.03308 0.0
C203 C 0.58815 0.08379 0.02309 0.0
C204 C 0.54405 0.04005 -0.00225 0.0
C205 C 0.58357 0.10932 0.93129 0.0
C206 C 0.56119 0.10287 0.91128 0.0
C207 C 0.57591 0.08733 0.95118 0.0
C208 C 0.54528 0.05898 0.95179 0.0
C209 C 0.5306 0.07466 0.9119 0.0
C210 C 0.5227 0.05299 0.93199 0.0
C211 C 0.53748 0.03387 0.9713 0.0
H212 H 0.52919 0.88993 0.96835 0.0
H213 H 0.54576 0.94242 0.98641 0.0
H214 H 0.44975 0.89125 0.92803 0.0
H215 H 0.46655 0.94412 0.9462 0.0
H216 H 0.44095 0.89467 0.04552 0.0
H217 H 0.46088 0.93457 0.01168 0.0
H218 H 0.53963 0.93633 0.07572 0.0
H219 H 0.55883 0.97742 0.04255 0.0
H220 H 0.54828 0.13639 0.01374 0.0
H221 H 0.52187 0.08254 0.99559 0.0
H222 H 0.62689 0.12333 0.04278 0.0
H223 H 0.59948 0.06924 0.02569 0.0
H224 H 0.60756 0.13067 0.93094 0.0
H225 H 0.59445 0.09203 0.96547 0.0
H226 H 0.51298 0.06918 0.89662 0.0
H227 H 0.49908 0.0312 0.93182 0.0
N228 N 0.52444 0.00324 0.96297 0.0
N229 N 0.53617 0.01516 0.01382 0.0
C230 C 0.48307 0.59457 0.19451 0.0
C231 C 0.45266 0.58052 0.207 0.0
C232 C 0.49576 0.57582 0.18585 0.0
C233 C 0.47831 0.54264 0.1895 0.0
C234 C 0.43519 0.54726 0.21082 0.0
C235 C 0.44819 0.52843 0.20237 0.0
C236 C 0.49255 0.52357 0.18013 0.0
C237 C 0.44645 0.54036 0.1113 0.0
C238 C 0.46931 0.56453 0.0951 0.0
C239 C 0.45693 0.5277 0.13072 0.0
C240 C 0.49042 0.53861 0.13415 0.0
C241 C 0.50295 0.57559 0.09886 0.0
C242 C 0.51334 0.56246 0.118 0.0
C243 C 0.50149 0.52475 0.15431 0.0
C244 C 0.56905 0.44864 0.14731 0.0
C245 C 0.59802 0.47117 0.13485 0.0
C246 C 0.54795 0.45792 0.15804 0.0
C247 C 0.55533 0.48975 0.15619 0.0
C248 C 0.6057 0.50326 0.13397 0.0
C249 C 0.58434 0.51232 0.1442 0.0
C250 C 0.53225 0.4997 0.16514 0.0
C251 C 0.58154 0.4929 0.23711 0.0
C252 C 0.56008 0.47128 0.25542 0.0
C253 C 0.56926 0.5003 0.21546 0.0
C254 C 0.53528 0.48604 0.21161 0.0
C255 C 0.52609 0.45627 0.25117 0.0
C256 C 0.5138 0.46383 0.22954 0.0
C257 C 0.52222 0.49727 0.19086 0.0
H258 H 0.49684 0.62008 0.19104 0.0
H259 H 0.5193 0.58725 0.17625 0.0
H260 H 0.41169 0.53595 0.22045 0.0
H261 H 0.43459 0.50285 0.20549 0.0
H262 H 0.42035 0.53066 0.10871 0.0
H263 H 0.43882 0.50893 0.14278 0.0
H264 H 0.52134 0.59454 0.08713 0.0
H265 H 0.53933 0.57126 0.12045 0.0
H266 H 0.56216 0.42368 0.14813 0.0
H267 H 0.52542 0.44014 0.16704 0.0
H268 H 0.62818 0.52148 0.12525 0.0
H269 H 0.59048 0.53706 0.14276 0.0
H270 H 0.60785 0.50472 0.23986 0.0
H271 H 0.58636 0.51825 0.20235 0.0
H272 H 0.509 0.43978 0.26511 0.0
H273 H 0.4875 0.45294 0.22711 0.0
N274 N 0.50289 0.50958 0.19748 0.0
N275 N 0.52136 0.51317 0.14778 0.0
C276 C 0.7103 0.42688 0.41275 0.0
O277 O 0.7101 0.45174 0.42028 0.0
Cd278 Cd 0.66296 0.45249 0.43629 0.0
O279 O 0.68443 0.39953 0.41405 0.0
Cd280 Cd 0.62684 0.37613 0.42852 0.0
C281 C 0.61248 0.41925 0.38415 0.0
O282 O 0.63818 0.40946 0.46616 0.0
O283 O 0.58697 0.3787 0.45702 0.0
O284 O 0.62892 0.33102 0.44698 0.0
C285 C 0.60844 0.39891 0.4721 0.0
O286 O 0.62963 0.44362 0.39813 0.0
C287 C 0.60572 0.30999 0.43348 0.0
O288 O 0.60833 0.39198 0.3903 0.0
O289 O 0.59245 0.31978 0.4174 0.0
C290 C 0.26527 0.56128 0.56863 0.0
O291 O 0.23836 0.53833 0.56036 0.0
Cd292 Cd 0.19589 0.54297 0.53891 0.0
O293 O 0.27163 0.59007 0.56637 0.0
Cd294 Cd 0.24122 0.61606 0.55003 0.0
C295 C 0.1762 0.57331 0.58938 0.0
O296 O 0.22302 0.58671 0.50969 0.0
O297 O 0.20251 0.6165 0.51867 0.0
O298 O 0.29359 0.66405 0.53997 0.0
C299 C 0.20589 0.59881 0.50259 0.0
O300 O 0.16541 0.55077 0.57308 0.0
C301 C 0.28606 0.68313 0.55057 0.0
O302 O 0.20414 0.59821 0.58655 0.0
O303 O 0.25825 0.67079 0.56137 0.0
C304 C 0.70388 0.28352 0.74235 0.0
O305 O 0.70209 0.25892 0.73211 0.0
Cd306 Cd 0.6515 0.21346 0.71927 0.0
O307 O 0.67801 0.28503 0.74616 0.0
Cd308 Cd 0.61828 0.25168 0.73833 0.0
C309 C 0.61116 0.19303 0.77693 0.0
O310 O 0.62223 0.23365 0.69576 0.0
O311 O 0.57478 0.20729 0.71359 0.0
O312 O 0.62231 0.30234 0.7277 0.0
C313 C 0.5922 0.21275 0.69375 0.0
O314 O 0.62291 0.18522 0.7582 0.0
C315 C 0.59675 0.29733 0.73961 0.0
O316 O 0.60929 0.21839 0.77615 0.0
O317 O 0.58108 0.27094 0.75149 0.0
C318 C 0.30851 0.58076 0.92109 0.0
O319 O 0.31054 0.55945 0.93382 0.0
Cd320 Cd 0.3623 0.5641 0.94328 0.0
O321 O 0.33422 0.60687 0.91527 0.0
Cd322 Cd 0.39409 0.63548 0.92375 0.0
C323 C 0.39803 0.58401 0.88311 0.0
O324 O 0.39309 0.61345 0.96575 0.0
O325 O 0.44016 0.63692 0.947 0.0
O326 O 0.38505 0.67881 0.93535 0.0
C327 C 0.4236 0.62351 0.9669 0.0
O328 O 0.38503 0.56375 0.90116 0.0
C329 C 0.40954 0.70044 0.9234 0.0
O330 O 0.40343 0.61242 0.88563 0.0
O331 O 0.42713 0.69187 0.91114 0.0
C332 C 0.72584 0.44508 0.05366 0.0
O333 O 0.74919 0.46577 0.04012 0.0
Cd334 Cd 0.79272 0.4575 0.02586 0.0
O335 O 0.72323 0.41802 0.05801 0.0
Cd336 Cd 0.75002 0.38753 0.0457 0.0
C337 C 0.81349 0.43578 0.08289 0.0
O338 O 0.76958 0.40825 0.00298 0.0
O339 O 0.79304 0.38505 0.02168 0.0
O340 O 0.69769 0.34491 0.03105 0.0
C341 C 0.78894 0.39726 0.00152 0.0
O342 O 0.82124 0.45559 0.0645 0.0
C343 C 0.69775 0.32308 0.04446 0.0
O344 O 0.7869 0.40898 0.08232 0.0
O345 O 0.722 0.33137 0.05947 0.0
C346 C 0.31707 0.74068 0.23909 0.0
O347 O 0.31881 0.76432 0.22713 0.0
Cd348 Cd 0.37088 0.81077 0.21945 0.0
O349 O 0.34296 0.7399 0.2447 0.0
Cd350 Cd 0.40275 0.77116 0.23633 0.0
C351 C 0.40736 0.82456 0.27899 0.0
O352 O 0.40235 0.79373 0.19464 0.0
O353 O 0.44891 0.81573 0.21439 0.0
O354 O 0.39651 0.72022 0.2237 0.0
C355 C 0.43294 0.81335 0.19417 0.0
O356 O 0.39335 0.83256 0.26203 0.0
C357 C 0.42015 0.72272 0.23713 0.0
O358 O 0.41321 0.80199 0.27497 0.0
O359 O 0.43607 0.74808 0.25023 0.0
H360 H 0.18942 0.62637 0.28684 0.0
H361 H 0.14637 0.644 0.22017 0.0
H362 H 0.20002 0.68714 0.20722 0.0
H363 H 0.25903 0.72067 0.21512 0.0
H364 H 0.30299 0.70039 0.27959 0.0
H365 H 0.24914 0.65699 0.29279 0.0
C366 C 0.19175 0.6392 0.26923 0.0
C367 C 0.16364 0.63212 0.25478 0.0
C368 C 0.22286 0.66356 0.26148 0.0
C369 C 0.16733 0.64939 0.23212 0.0
C370 C 0.19808 0.67397 0.22455 0.0
C371 C 0.25677 0.70673 0.23206 0.0
C372 C 0.28477 0.71384 0.24652 0.0
C373 C 0.22593 0.68149 0.23922 0.0
C374 C 0.28169 0.69531 0.26817 0.0
C375 C 0.25094 0.67056 0.27575 0.0
H376 H 0.54186 0.1603 0.43389 0.0
H377 H 0.58659 0.1806 0.50888 0.0
H378 H 0.61075 0.23768 0.5011 0.0
H379 H 0.61683 0.28178 0.47402 0.0
H380 H 0.56818 0.2613 0.40069 0.0
H381 H 0.54729 0.20423 0.40708 0.0
C382 C 0.55659 0.17711 0.44869 0.0
C383 C 0.56227 0.16596 0.47197 0.0
C384 C 0.56954 0.2099 0.44446 0.0
C385 C 0.58215 0.18833 0.49061 0.0
C386 C 0.59577 0.22105 0.48629 0.0
C387 C 0.60183 0.26483 0.45937 0.0
C388 C 0.59407 0.27568 0.43691 0.0
C389 C 0.58935 0.23207 0.46341 0.0
C390 C 0.57438 0.25347 0.41819 0.0
C391 C 0.56248 0.22088 0.42181 0.0
H392 H 0.34672 0.50792 0.62397 0.0
H393 H 0.42402 0.60596 0.61555 0.0
H394 H 0.3851 0.61952 0.59649 0.0
H395 H 0.32955 0.60277 0.58022 0.0
H396 H 0.25381 0.5037 0.58637 0.0
H397 H 0.29202 0.49123 0.60769 0.0
C398 C 0.35526 0.53223 0.61773 0.0
C399 C 0.38838 0.55578 0.621 0.0
C400 C 0.33307 0.53963 0.60612 0.0
C401 C 0.39864 0.58735 0.61349 0.0
C402 C 0.37645 0.59508 0.60237 0.0
C403 C 0.32141 0.57848 0.58627 0.0
C404 C 0.28888 0.55421 0.58158 0.0
C405 C 0.34367 0.5713 0.5983 0.0
C406 C 0.27875 0.52283 0.58952 0.0
C407 C 0.30055 0.51565 0.60181 0.0
H408 H 0.83084 0.40872 0.77994 0.0
H409 H 0.87541 0.35355 0.75716 0.0
H410 H 0.82216 0.30995 0.74325 0.0
H411 H 0.76298 0.28692 0.73883 0.0
H412 H 0.7176 0.34124 0.76234 0.0
H413 H 0.77113 0.38578 0.77467 0.0
C414 C 0.82882 0.38727 0.77164 0.0
C415 C 0.85683 0.38421 0.76959 0.0
C416 C 0.79804 0.36211 0.764 0.0
C417 C 0.85402 0.35623 0.75909 0.0
C418 C 0.82365 0.33135 0.75113 0.0
C419 C 0.76472 0.3085 0.7466 0.0
C420 C 0.73627 0.31065 0.74971 0.0
C421 C 0.79546 0.3339 0.75376 0.0
C422 C 0.73908 0.33886 0.75981 0.0
C423 C 0.76969 0.36438 0.76684 0.0
H424 H 0.42709 0.8353 0.94825 0.0
H425 H 0.52578 0.8654 0.92404 0.0
H426 H 0.50934 0.81042 0.91228 0.0
H427 H 0.46787 0.75325 0.91219 0.0
H428 H 0.36997 0.7231 0.93879 0.0
H429 H 0.38496 0.77862 0.94598 0.0
C430 C 0.44479 0.82984 0.93996 0.0
C431 C 0.47754 0.8542 0.93702 0.0
C432 C 0.43535 0.79816 0.93382 0.0
C433 C 0.50045 0.84687 0.92662 0.0
C434 C 0.49107 0.8155 0.9199 0.0
C435 C 0.44973 0.7589 0.91922 0.0
C436 C 0.41794 0.73415 0.92507 0.0
C437 C 0.45874 0.79085 0.92392 0.0
C438 C 0.3947 0.74176 0.93431 0.0
C439 C 0.40323 0.77349 0.93844 0.0
H440 H 0.63159 0.49395 0.09028 0.0
H441 H 0.61352 0.42619 0.15081 0.0
H442 H 0.64989 0.41083 0.13006 0.0
H443 H 0.68843 0.41814 0.09565 0.0
H444 H 0.71 0.48923 0.03735 0.0
H445 H 0.67113 0.50239 0.05676 0.0
C446 C 0.63592 0.47617 0.09924 0.0
C447 C 0.61987 0.46141 0.1222 0.0
C448 C 0.65761 0.46817 0.08767 0.0
C449 C 0.62516 0.43772 0.133 0.0
C450 C 0.64617 0.42908 0.12126 0.0
C451 C 0.68447 0.43638 0.08712 0.0
C452 C 0.70193 0.45263 0.06506 0.0
C453 C 0.66266 0.44429 0.09868 0.0
C454 C 0.69689 0.47648 0.05438 0.0
C455 C 0.67466 0.48396 0.06543 0.0
H456 H 0.35458 0.83302 0.54357 0.0
H457 H 0.43212 0.82147 0.51138 0.0
H458 H 0.40002 0.76374 0.51879 0.0
H459 H 0.3486 0.71635 0.53247 0.0
H460 H 0.27163 0.72859 0.56532 0.0
H461 H 0.30485 0.78625 0.55969 0.0
C462 C 0.36439 0.81779 0.53822 0.0
C463 C 0.39543 0.83126 0.52676 0.0
C464 C 0.3459 0.7848 0.54262 0.0
C465 C 0.40824 0.81151 0.52029 0.0
C466 C 0.38987 0.77855 0.52442 0.0
C467 C 0.33922 0.73167 0.53855 0.0
C468 C 0.30761 0.71816 0.54911 0.0
C469 C 0.35849 0.76489 0.5353 0.0
C470 C 0.29587 0.73834 0.55709 0.0
C471 C 0.31479 0.77133 0.55382 0.0
H472 H 0.52275 0.37504 0.72959 0.0
H473 H 0.61677 0.44551 0.69951 0.0
H474 H 0.63907 0.41063 0.70914 0.0
H475 H 0.63056 0.35857 0.72301 0.0
H476 H 0.53661 0.28795 0.75325 0.0
H477 H 0.51553 0.32448 0.74674 0.0
C478 C 0.54816 0.38276 0.7253 0.0
C479 C 0.56805 0.41264 0.71369 0.0
C480 C 0.56073 0.36253 0.73078 0.0
C481 C 0.60107 0.42267 0.70857 0.0
C482 C 0.61375 0.40267 0.71392 0.0
C483 C 0.60554 0.35126 0.72837 0.0
C484 C 0.58506 0.32049 0.73833 0.0
C485 C 0.59362 0.37232 0.72456 0.0
C486 C 0.55284 0.31149 0.74548 0.0
C487 C 0.54074 0.33231 0.74168 0.0
H488 H 0.16125 0.53312 0.89349 0.0
H489 H 0.20698 0.59973 0.83131 0.0
H490 H 0.26109 0.61654 0.8496 0.0
H491 H 0.29538 0.60901 0.88139 0.0
H492 H 0.24894 0.53882 0.94118 0.0
H493 H 0.19502 0.52624 0.92534 0.0
C494 C 0.18302 0.55114 0.88376 0.0
C495 C 0.18004 0.56478 0.86084 0.0
C496 C 0.21392 0.55983 0.89384 0.0
C497 C 0.20852 0.58889 0.84901 0.0
C498 C 0.23948 0.59833 0.85935 0.0
C499 C 0.27344 0.59119 0.89108 0.0
C500 C 0.2761 0.57477 0.91236 0.0
C501 C 0.24247 0.58351 0.88149 0.0
C502 C 0.24751 0.5516 0.92464 0.0
C503 C 0.21669 0.54443 0.91563 0.0
H504 H 0.5941 0.18635 0.00574 0.0
H505 H 0.62676 0.15874 0.07334 0.0
H506 H 0.66209 0.21482 0.08464 0.0
H507 H 0.68661 0.27182 0.07362 0.0
H508 H 0.65146 0.29865 0.00707 0.0
H509 H 0.61346 0.24265 -0.00242 0.0
C510 C 0.60822 0.1924 0.02332 0.0
C511 C 0.60801 0.16821 0.03842 0.0
C512 C 0.62816 0.22463 0.02991 0.0
C513 C 0.62699 0.17681 0.06095 0.0
C514 C 0.6471 0.2089 0.06754 0.0
C515 C 0.67036 0.26538 0.05722 0.0
C516 C 0.67214 0.28933 0.04093 0.0
C517 C 0.64842 0.23304 0.05185 0.0
C518 C 0.6507 0.28068 0.01989 0.0
C519 C 0.629 0.24864 0.01437 0.0
H520 H 0.48381 0.63545 0.23402 0.0
H521 H 0.39162 0.57134 0.19756 0.0
H522 H 0.37245 0.60921 0.20516 0.0
H523 H 0.38409 0.66253 0.21862 0.0
H524 H 0.47653 0.72671 0.25494 0.0
H525 H 0.49354 0.6868 0.25091 0.0
C526 C 0.45941 0.62972 0.22799 0.0
C527 C 0.43921 0.60091 0.21506 0.0
C528 C 0.44881 0.6517 0.23214 0.0
C529 C 0.40748 0.59337 0.20764 0.0
C530 C 0.39666 0.6151 0.21179 0.0
C531 C 0.40787 0.66769 0.2258 0.0
C532 C 0.42923 0.69765 0.23674 0.0
C533 C 0.41745 0.64466 0.22344 0.0
C534 C 0.45975 0.70387 0.24632 0.0
C535 C 0.4695 0.6811 0.24399 0.0
H536 H 0.82461 0.41897 0.35643 0.0
H537 H 0.86653 0.52132 0.3575 0.0
H538 H 0.81938 0.51557 0.38118 0.0
H539 H 0.76568 0.48171 0.40025 0.0
H540 H 0.72229 0.37914 0.39858 0.0
H541 H 0.77072 0.38475 0.37673 0.0
C542 C 0.82341 0.43994 0.36205 0.0
C543 C 0.84877 0.47047 0.35504 0.0
C544 C 0.79604 0.43645 0.37554 0.0
C545 C 0.84699 0.49752 0.36231 0.0
C546 C 0.82015 0.49428 0.37596 0.0
C547 C 0.76684 0.46053 0.39532 0.0
C548 C 0.74035 0.43007 0.40103 0.0
C549 C 0.79442 0.46388 0.38245 0.0
C550 C 0.7423 0.40291 0.39436 0.0
C551 C 0.76997 0.40607 0.38184 0.0
H552 H 0.13336 0.54323 0.39754 0.0
H553 H 0.10187 0.61164 0.41138 0.0
H554 H 0.13455 0.62902 0.45057 0.0
H555 H 0.17035 0.62333 0.48176 0.0
H556 H 0.2017 0.55476 0.468 0.0
H557 H 0.17063 0.53877 0.42803 0.0
C558 C 0.13363 0.5619 0.40919 0.0
C559 C 0.11517 0.57606 0.40162 0.0
C560 C 0.15231 0.57165 0.43176 0.0
C561 C 0.11613 0.60057 0.41666 0.0
C562 C 0.13463 0.61038 0.43916 0.0
C563 C 0.17044 0.60494 0.46999 0.0
C564 C 0.18814 0.59013 0.47792 0.0
C565 C 0.15257 0.59589 0.44701 0.0
C566 C 0.18822 0.56651 0.46235 0.0
C567 C 0.17043 0.55731 0.4395 0.0
H568 H 0.5602 0.14161 0.58771 0.0
H569 H 0.49967 0.06094 0.63589 0.0
H570 H 0.51511 0.09609 0.67334 0.0
H571 H 0.54682 0.14975 0.69232 0.0
H572 H 0.61113 0.22954 0.64458 0.0
H573 H 0.59312 0.19494 0.60685 0.0
C574 C 0.5504 0.1319 0.60646 0.0
C575 C 0.52881 0.09898 0.60925 0.0
C576 C 0.55998 0.15209 0.62783 0.0
C577 C 0.51643 0.08631 0.63351 0.0
C578 C 0.52516 0.10637 0.65481 0.0
C579 C 0.55657 0.15953 0.67358 0.0
C580 C 0.57994 0.19209 0.67104 0.0
C581 C 0.54698 0.13929 0.6522 0.0
C582 C 0.593 0.20449 0.64685 0.0
C583 C 0.58277 0.18475 0.62534 0.0
H584 H 0.41985 0.51947 0.78613 0.0
H585 H 0.47887 0.61794 0.76321 0.0
H586 H 0.4646 0.63519 0.80278 0.0
H587 H 0.43592 0.62208 0.84416 0.0
H588 H 0.37855 0.52334 0.86743 0.0
H589 H 0.39155 0.5064 0.82743 0.0
C590 C 0.42926 0.54468 0.78972 0.0
C591 C 0.45013 0.56742 0.7718 0.0
C592 C 0.42139 0.55435 0.81259 0.0
C593 C 0.46276 0.60005 0.77682 0.0
C594 C 0.4546 0.60988 0.79939 0.0
C595 C 0.4262 0.59685 0.84045 0.0
C596 C 0.40628 0.57405 0.8588 0.0
C597 C 0.43405 0.58723 0.81748 0.0
C598 C 0.39407 0.54145 0.85374 0.0
C599 C 0.4014 0.53169 0.83082 0.0
H600 H 0.86067 0.42729 0.89534 0.0
H601 H 0.93787 0.43187 0.9432 0.0
H602 H 0.90136 0.41493 0.97995 0.0
H603 H 0.84886 0.40257 -0.00071 0.0
H604 H 0.77418 0.40427 0.95254 0.0
H605 H 0.80869 0.41578 0.91466 0.0
C606 C 0.86978 0.425 0.91382 0.0
C607 C 0.90217 0.43105 0.91633 0.0
C608 C 0.84915 0.41661 0.93517 0.0
C609 C 0.91299 0.42694 0.94042 0.0
C610 C 0.89221 0.41755 0.96159 0.0
C611 C 0.84008 0.40518 0.98075 0.0
C612 C 0.8091 0.40255 0.97859 0.0
C613 C 0.86043 0.41278 0.95926 0.0
C614 C 0.79806 0.40634 0.95459 0.0
C615 C 0.81774 0.41288 0.93297 0.0
H616 H 0.5099 0.92177 0.11315 0.0
H617 H 0.43873 0.84947 0.06262 0.0
H618 H 0.41492 0.81297 0.0986 0.0
H619 H 0.41334 0.80191 0.14469 0.0
H620 H 0.48753 0.87234 0.19432 0.0
H621 H 0.51168 0.90895 0.1582 0.0
C622 C 0.48967 0.89783 0.10975 0.0
C623 C 0.47601 0.88873 0.08508 0.0
C624 C 0.47659 0.87657 0.13041 0.0
C625 C 0.44935 0.85762 0.08141 0.0
C626 C 0.4358 0.83655 0.10197 0.0
C627 C 0.43485 0.82526 0.14752 0.0
C628 C 0.44849 0.8346 0.17209 0.0
C629 C 0.44897 0.84591 0.1266 0.0
C630 C 0.47663 0.86467 0.17553 0.0
C631 C 0.49038 0.88562 0.15492 0.0
H632 H 0.5427 0.41487 0.27941 0.0
H633 H 0.60648 0.51682 0.28611 0.0
H634 H 0.62771 0.50965 0.32665 0.0
H635 H 0.6282 0.47473 0.36013 0.0
H636 H 0.56563 0.37255 0.35358 0.0
H637 H 0.54366 0.37952 0.31315 0.0
C638 C 0.56118 0.43545 0.28983 0.0
C639 C 0.57314 0.4663 0.27974 0.0
C640 C 0.57338 0.43115 0.31316 0.0
C641 C 0.59725 0.4928 0.2933 0.0
C642 C 0.60924 0.48875 0.31656 0.0
C643 C 0.60962 0.45393 0.34997 0.0
C644 C 0.59847 0.42318 0.35995 0.0
C645 C 0.59748 0.45807 0.32665 0.0
C646 C 0.57465 0.39651 0.34634 0.0
C647 C 0.56208 0.40047 0.32321 0.0
H648 H 0.46639 0.89337 0.38392 0.0
H649 H 0.38341 0.90824 0.37941 0.0
H650 H 0.36806 0.88105 0.33825 0.0
H651 H 0.37802 0.85289 0.30346 0.0
H652 H 0.45791 0.83383 0.3099 0.0
H653 H 0.4742 0.86225 0.35071 0.0
C654 C 0.44458 0.89022 0.37427 0.0
C655 C 0.42632 0.90318 0.38483 0.0
C656 C 0.4353 0.87378 0.3509 0.0
C657 C 0.39846 0.89922 0.37159 0.0
C658 C 0.38946 0.88344 0.34808 0.0
C659 C 0.39904 0.85508 0.3138 0.0
C660 C 0.41691 0.84156 0.30367 0.0
C661 C 0.4078 0.87079 0.3375 0.0
C662 C 0.44378 0.84406 0.31738 0.0
C663 C 0.45312 0.86033 0.34067 0.0
H664 H 0.59148 0.47109 0.56564 0.0
H665 H 0.494 0.38853 0.56442 0.0
H666 H 0.50871 0.36738 0.52766 0.0
H667 H 0.54926 0.37234 0.49572 0.0
H668 H 0.64759 0.4532 0.49888 0.0
H669 H 0.63268 0.47461 0.53543 0.0
C670 C 0.57354 0.44819 0.55769 0.0
C671 C 0.54161 0.43158 0.56783 0.0
C672 C 0.58233 0.4358 0.53689 0.0
C673 C 0.51859 0.40221 0.5568 0.0
C674 C 0.52704 0.38994 0.53585 0.0
C675 C 0.56739 0.39464 0.50444 0.0
C676 C 0.5994 0.41125 0.49457 0.0
C677 C 0.55878 0.40661 0.52567 0.0
C678 C 0.62278 0.43995 0.50617 0.0
C679 C 0.61426 0.45224 0.52703 0.0
H680 H 0.07736 0.53522 0.68136 0.0
H681 H 0.16759 0.59334 0.7224 0.0
H682 H 0.1984 0.60687 0.6822 0.0
H683 H 0.19975 0.59964 0.63581 0.0
H684 H 0.10991 0.53773 0.59538 0.0
H685 H 0.07866 0.52832 0.63489 0.0
C686 C 0.10373 0.55117 0.68135 0.0
C687 C 0.12032 0.56352 0.70458 0.0
C688 C 0.12123 0.558 0.65836 0.0
C689 C 0.15448 0.58366 0.70461 0.0
C690 C 0.17201 0.59135 0.6817 0.0
C691 C 0.17328 0.58442 0.63561 0.0
C692 C 0.15709 0.56949 0.61275 0.0
C693 C 0.15567 0.57833 0.65851 0.0
C694 C 0.12287 0.54941 0.61279 0.0
C695 C 0.10503 0.54403 0.63535 0.0
H696 H 0.56007 0.08636 0.86199 0.0
H697 H 0.58399 0.1671 0.91048 0.0
H698 H 0.60026 0.20227 0.87293 0.0
H699 H 0.60852 0.2099 0.82621 0.0
H700 H 0.5879 0.12916 0.77855 0.0
H701 H 0.56933 0.09406 0.8158 0.0
C702 C 0.56861 0.11164 0.86424 0.0
C703 C 0.5706 0.12421 0.88878 0.0
C704 C 0.57854 0.13164 0.84273 0.0
C705 C 0.58228 0.15703 0.89166 0.0
C706 C 0.59151 0.17705 0.87024 0.0
C707 C 0.59978 0.18459 0.82403 0.0
C708 C 0.59948 0.17211 0.79968 0.0
C709 C 0.58985 0.16462 0.84566 0.0
C710 C 0.5885 0.13935 0.79711 0.0
C711 C 0.57782 0.11925 0.81838 0.0
H712 H 0.49588 0.58352 0.04745 0.0
H713 H 0.41716 0.57496 0.09523 0.0
H714 H 0.39624 0.59242 0.05983 0.0
H715 H 0.39933 0.60874 0.01495 0.0
H716 H 0.4802 0.62112 0.96821 0.0
H717 H 0.50179 0.60442 0.00389 0.0
C718 C 0.47454 0.58605 0.0504 0.0
C719 C 0.45798 0.57747 0.07402 0.0
C720 C 0.46303 0.59687 0.03014 0.0
C721 C 0.43001 0.58054 0.07714 0.0
C722 C 0.41813 0.5908 0.05695 0.0
C723 C 0.42177 0.60792 0.01265 0.0
C724 C 0.438 0.61586 0.98898 0.0
C725 C 0.43422 0.59868 0.0333 0.0
C726 C 0.46727 0.61511 0.98628 0.0
C727 C 0.47955 0.60546 0.00664 0.0
H728 H 0.92416 0.49215 0.16694 0.0
H729 H 0.84322 0.42775 0.21486 0.0
H730 H 0.80714 0.40876 0.1775 0.0
H731 H 0.79808 0.41213 0.13138 0.0
H732 H 0.87859 0.47947 0.08452 0.0
H733 H 0.91517 0.496 0.12145 0.0
C734 C 0.89853 0.47426 0.16936 0.0
C735 C 0.88646 0.46161 0.19377 0.0
C736 C 0.87779 0.46403 0.14796 0.0
C737 C 0.85333 0.43775 0.1963 0.0
C738 C 0.8326 0.42701 0.17495 0.0
C739 C 0.82369 0.43026 0.12925 0.0
C740 C 0.8356 0.44457 0.10525 0.0
C741 C 0.84451 0.44015 0.15071 0.0
C742 C 0.86876 0.46822 0.10281 0.0
C743 C 0.88972 0.47767 0.12391 0.0
loop_
_geom_bond_atom_site_label_1
_geom_bond_atom_site_label_2
_geom_bond_distance
_geom_bond_site_symmetry_2
_ccdc_geom_bond_type
C0 C1 1.384 . S
C0 C2 1.384 . S
C0 H28 0.931 . S
C1 C0 1.384 . S
C1 C4 1.382 . S
C2 C0 1.384 . S
C2 C3 1.381 . S
C2 H29 0.930 . S
C3 C2 1.381 . S
C3 C5 1.381 . S
C3 C6 1.487 . S
C4 C1 1.382 . S
C4 C5 1.387 . S
C4 H30 0.930 . S
C5 C3 1.381 . S
C5 C4 1.387 . S
C5 H31 0.931 . S
C6 C3 1.487 . S
C6 C13 1.399 . S
C6 N44 1.343 1_655 S
C7 C8 1.384 . S
C7 C9 1.384 . S
C7 H32 0.931 . S
C8 C7 1.384 . S
C8 C11 1.382 . S
C9 C7 1.384 . S
C9 C10 1.381 . S
C9 H33 0.930 . S
C10 C9 1.381 . S
C10 C12 1.381 . S
C10 C13 1.487 . S
C11 C8 1.382 . S
C11 C12 1.387 . S
C11 H34 0.930 . S
C12 C10 1.381 . S
C12 C11 1.387 . S
C12 H35 0.931 . S
C13 C6 1.399 . S
C13 C10 1.487 . S
C13 N45 1.343 1_655 S
C14 C15 1.384 . S
C14 C16 1.384 . S
C14 H36 0.931 . S
C15 C14 1.384 . S
C15 C18 1.382 . S
C16 C14 1.384 . S
C16 C17 1.381 . S
C16 H37 0.930 . S
C17 C16 1.381 . S
C17 C19 1.381 . S
C17 C20 1.487 . S
C18 C15 1.382 . S
C18 C19 1.387 . S
C18 H38 0.930 . S
C19 C17 1.381 . S
C19 C18 1.387 . S
C19 H39 0.931 . S
C20 C17 1.487 . S
C20 C27 1.399 . S
C20 N45 1.343 . S
C21 C22 1.384 . S
C21 C23 1.384 . S
C21 H40 0.931 . S
C22 C21 1.384 . S
C22 C25 1.382 . S
C23 C21 1.384 . S
C23 C24 1.381 . S
C23 H41 0.930 . S
C24 C23 1.381 . S
C24 C26 1.381 . S
C24 C27 1.487 . S
C25 C22 1.382 . S
C25 C26 1.387 . S
C25 H42 0.930 . S
C26 C24 1.381 . S
C26 C25 1.387 . S
C26 H43 0.931 . S
C27 C20 1.399 . S
C27 C24 1.487 . S
C27 N44 1.343 . S
H28 C0 0.931 . S
H29 C2 0.930 . S
H30 C4 0.930 . S
H31 C5 0.931 . S
H32 C7 0.931 . S
H33 C9 0.930 . S
H34 C11 0.930 . S
H35 C12 0.931 . S
H36 C14 0.931 . S
H37 C16 0.930 . S
H38 C18 0.930 . S
H39 C19 0.931 . S
H40 C21 0.931 . S
H41 C23 0.930 . S
H42 C25 0.930 . S
H43 C26 0.931 . S
N44 C6 1.343 1_455 S
N44 C27 1.343 . S
N45 C13 1.343 1_455 S
N45 C20 1.343 . S
C46 C47 1.384 . S
C46 C48 1.384 . S
C46 H74 0.931 . S
C47 C46 1.384 . S
C47 C50 1.382 . S
C48 C46 1.384 . S
C48 C49 1.381 . S
C48 H75 0.930 . S
C49 C48 1.381 . S
C49 C51 1.381 . S
C49 C52 1.487 . S
C50 C47 1.382 . S
C50 C51 1.387 . S
C50 H76 0.930 . S
C51 C49 1.381 . S
C51 C50 1.387 . S
C51 H77 0.931 . S
C52 C49 1.487 . S
C52 C59 1.399 . S
C52 N90 1.343 1_565 S
C53 C54 1.384 . S
C53 C55 1.384 . S
C53 H78 0.931 . S
C54 C53 1.384 . S
C54 C57 1.382 . S
C55 C53 1.384 . S
C55 C56 1.381 . S
C55 H79 0.930 . S
C56 C55 1.381 . S
C56 C58 1.381 . S
C56 C59 1.487 . S
C57 C54 1.382 . S
C57 C58 1.387 . S
C57 H80 0.930 . S
C58 C56 1.381 . S
C58 C57 1.387 . S
C58 H81 0.931 . S
C59 C52 1.399 . S
C59 C56 1.487 . S
C59 N91 1.343 1_565 S
C60 C61 1.384 . S
C60 C62 1.384 . S
C60 H82 0.931 . S
C61 C60 1.384 . S
C61 C64 1.382 . S
C62 C60 1.384 . S
C62 C63 1.381 . S
C62 H83 0.930 . S
C63 C62 1.381 . S
C63 C65 1.381 . S
C63 C66 1.487 . S
C64 C61 1.382 . S
C64 C65 1.387 . S
C64 H84 0.930 . S
C65 C63 1.381 . S
C65 C64 1.387 . S
C65 H85 0.931 . S
C66 C63 1.487 . S
C66 C73 1.399 . S
C66 N91 1.343 . S
C67 C68 1.384 . S
C67 C69 1.384 . S
C67 H86 0.931 . S
C68 C67 1.384 . S
C68 C71 1.382 . S
C69 C67 1.384 . S
C69 C70 1.381 . S
C69 H87 0.930 . S
C70 C69 1.381 . S
C70 C72 1.381 . S
C70 C73 1.487 . S
C71 C68 1.382 . S
C71 C72 1.387 . S
C71 H88 0.930 . S
C72 C70 1.381 . S
C72 C71 1.387 . S
C72 H89 0.931 . S
C73 C66 1.399 . S
C73 C70 1.487 . S
C73 N90 1.343 . S
H74 C46 0.931 . S
H75 C48 0.930 . S
H76 C50 0.930 . S
H77 C51 0.931 . S
H78 C53 0.931 . S
H79 C55 0.930 . S
H80 C57 0.930 . S
H81 C58 0.931 . S
H82 C60 0.931 . S
H83 C62 0.930 . S
H84 C64 0.930 . S
H85 C65 0.931 . S
H86 C67 0.931 . S
H87 C69 0.930 . S
H88 C71 0.930 . S
H89 C72 0.931 . S
N90 C52 1.343 1_545 S
N90 C73 1.343 . S
N91 C59 1.343 1_545 S
N91 C66 1.343 . S
C92 C93 1.384 . S
C92 C94 1.384 . S
C92 H120 0.931 . S
C93 C92 1.384 . S
C93 C96 1.382 . S
C94 C92 1.384 . S
C94 C95 1.381 . S
C94 H121 0.930 . S
C95 C94 1.381 . S
C95 C97 1.381 . S
C95 C98 1.487 . S
C96 C93 1.382 . S
C96 C97 1.387 . S
C96 H122 0.930 . S
C97 C95 1.381 . S
C97 C96 1.387 . S
C97 H123 0.931 . S
C98 C95 1.487 . S
C98 C105 1.399 . S
C98 N136 1.343 . S
C99 C100 1.384 . S
C99 C101 1.384 . S
C99 H124 0.931 . S
C100 C99 1.384 . S
C100 C103 1.382 . S
C101 C99 1.384 . S
C101 C102 1.381 . S
C101 H125 0.930 . S
C102 C101 1.381 . S
C102 C104 1.381 . S
C102 C105 1.487 . S
C103 C100 1.382 . S
C103 C104 1.387 . S
C103 H126 0.930 . S
C104 C102 1.381 . S
C104 C103 1.387 . S
C104 H127 0.931 . S
C105 C98 1.399 . S
C105 C102 1.487 . S
C105 N137 1.343 . S
C106 C107 1.384 . S
C106 C108 1.384 . S
C106 H128 0.931 . S
C107 C106 1.384 . S
C107 C110 1.382 . S
C108 C106 1.384 . S
C108 C109 1.381 . S
C108 H129 0.930 . S
C109 C108 1.381 . S
C109 C111 1.381 . S
C109 C112 1.487 . S
C110 C107 1.382 . S
C110 C111 1.387 . S
C110 H130 0.930 . S
C111 C109 1.381 . S
C111 C110 1.387 . S
C111 H131 0.931 . S
C112 C109 1.487 . S
C112 C119 1.399 . S
C112 N137 1.343 . S
C113 C114 1.384 . S
C113 C115 1.384 . S
C113 H132 0.931 . S
C114 C113 1.384 . S
C114 C117 1.382 . S
C115 C113 1.384 . S
C115 C116 1.381 . S
C115 H133 0.930 . S
C116 C115 1.381 . S
C116 C118 1.381 . S
C116 C119 1.487 . S
C117 C114 1.382 . S
C117 C118 1.387 . S
C117 H134 0.930 . S
C118 C116 1.381 . S
C118 C117 1.387 . S
C118 H135 0.931 . S
C119 C112 1.399 . S
C119 C116 1.487 . S
C119 N136 1.343 . S
H120 C92 0.931 . S
H121 C94 0.930 . S
H122 C96 0.930 . S
H123 C97 0.931 . S
H124 C99 0.931 . S
H125 C101 0.930 . S
H126 C103 0.930 . S
H127 C104 0.931 . S
H128 C106 0.931 . S
H129 C108 0.930 . S
H130 C110 0.930 . S
H131 C111 0.931 . S
H132 C113 0.931 . S
H133 C115 0.930 . S
H134 C117 0.930 . S
H135 C118 0.931 . S
N136 C98 1.343 . S
N136 C119 1.343 . S
N137 C105 1.343 . S
N137 C112 1.343 . S
C138 C139 1.384 . S
C138 C140 1.384 . S
C138 H166 0.931 . S
C139 C138 1.384 . S
C139 C142 1.382 . S
C140 C138 1.384 . S
C140 C141 1.381 . S
C140 H167 0.930 . S
C141 C140 1.381 . S
C141 C143 1.381 . S
C141 C144 1.487 . S
C142 C139 1.382 . S
C142 C143 1.387 . S
C142 H168 0.930 . S
C143 C141 1.381 . S
C143 C142 1.387 . S
C143 H169 0.931 . S
C144 C141 1.487 . S
C144 C151 1.399 . S
C144 N182 1.343 . S
C145 C146 1.384 . S
C145 C147 1.384 . S
C145 H170 0.931 . S
C146 C145 1.384 . S
C146 C149 1.382 . S
C147 C145 1.384 . S
C147 C148 1.381 . S
C147 H171 0.930 . S
C148 C147 1.381 . S
C148 C150 1.381 . S
C148 C151 1.487 . S
C149 C146 1.382 . S
C149 C150 1.387 . S
C149 H172 0.930 . S
C150 C148 1.381 . S
C150 C149 1.387 . S
C150 H173 0.931 . S
C151 C144 1.399 . S
C151 C148 1.487 . S
C151 N183 1.343 1_655 S
C152 C153 1.384 . S
C152 C154 1.384 . S
C152 H174 0.931 . S
C153 C152 1.384 . S
C153 C156 1.382 . S
C154 C152 1.384 . S
C154 C155 1.381 . S
C154 H175 0.930 . S
C155 C154 1.381 . S
C155 C157 1.381 . S
C155 C158 1.487 . S
C156 C153 1.382 . S
C156 C157 1.387 . S
C156 H176 0.930 . S
C157 C155 1.381 . S
C157 C156 1.387 . S
C157 H177 0.931 . S
C158 C155 1.487 . S
C158 C165 1.399 . S
C158 N183 1.343 . S
C159 C160 1.384 . S
C159 C161 1.384 . S
C159 H178 0.931 . S
C160 C159 1.384 . S
C160 C163 1.382 . S
C161 C159 1.384 . S
C161 C162 1.381 . S
C161 H179 0.930 . S
C162 C161 1.381 . S
C162 C164 1.381 . S
C162 C165 1.487 . S
C163 C160 1.382 . S
C163 C164 1.387 . S
C163 H180 0.930 . S
C164 C162 1.381 . S
C164 C163 1.387 . S
C164 H181 0.931 . S
C165 C158 1.399 . S
C165 C162 1.487 . S
C165 N182 1.343 1_455 S
H166 C138 0.931 . S
H167 C140 0.930 . S
H168 C142 0.930 . S
H169 C143 0.931 . S
H170 C145 0.931 . S
H171 C147 0.930 . S
H172 C149 0.930 . S
H173 C150 0.931 . S
H174 C152 0.931 . S
H175 C154 0.930 . S
H176 C156 0.930 . S
H177 C157 0.931 . S
H178 C159 0.931 . S
H179 C161 0.930 . S
H180 C163 0.930 . S
H181 C164 0.931 . S
N182 C144 1.343 . S
N182 C165 1.343 1_655 S
N183 C151 1.343 1_455 S
N183 C158 1.343 . S
C184 C185 1.384 . S
C184 C186 1.384 . S
C184 H212 0.931 . S
C185 C184 1.384 . S
C185 C188 1.382 . S
C186 C184 1.384 . S
C186 C187 1.381 . S
C186 H213 0.930 1_556 S
C187 C186 1.381 . S
C187 C189 1.381 . S
C187 C190 1.487 . S
C188 C185 1.382 . S
C188 C189 1.387 . S
C188 H214 0.930 . S
C189 C187 1.381 . S
C189 C188 1.387 . S
C189 H215 0.931 . S
C190 C187 1.487 . S
C190 C197 1.399 1_556 S
C190 N228 1.343 . S
C191 C192 1.384 . S
C191 C193 1.384 . S
C191 H216 0.931 . S
C192 C191 1.384 . S
C192 C195 1.382 . S
C193 C191 1.384 . S
C193 C194 1.381 . S
C193 H217 0.930 . S
C194 C193 1.381 . S
C194 C196 1.381 . S
C194 C197 1.487 . S
C195 C192 1.382 . S
C195 C196 1.387 . S
C195 H218 0.930 . S
C196 C194 1.381 . S
C196 C195 1.387 . S
C196 H219 0.931 . S
C197 C190 1.399 1_554 S
C197 C194 1.487 . S
C197 N229 1.343 1_565 S
C198 C199 1.384 . S
C198 C200 1.384 1_554 S
C198 H220 0.931 . S
C199 C198 1.384 . S
C199 C202 1.382 . S
C200 C198 1.384 1_556 S
C200 C201 1.381 1_556 S
C200 H221 0.930 . S
C201 C200 1.381 1_554 S
C201 C203 1.381 . S
C201 C204 1.488 . S
C202 C199 1.382 . S
C202 C203 1.387 . S
C202 H222 0.930 . S
C203 C201 1.381 . S
C203 C202 1.387 . S
C203 H223 0.931 . S
C204 C201 1.488 . S
C204 C211 1.394 1_554 S
C204 N229 1.347 . S
C205 C206 1.384 . S
C205 C207 1.384 . S
C205 H224 0.931 . S
C206 C205 1.384 . S
C206 C209 1.382 . S
C207 C205 1.384 . S
C207 C208 1.381 . S
C207 H225 0.930 . S
C208 C207 1.381 . S
C208 C210 1.381 . S
C208 C211 1.487 . S
C209 C206 1.382 . S
C209 C210 1.387 . S
C209 H226 0.930 . S
C210 C208 1.381 . S
C210 C209 1.387 . S
C210 H227 0.931 . S
C211 C204 1.394 1_556 S
C211 C208 1.487 . S
C211 N228 1.343 1_545 S
H212 C184 0.931 . S
H213 C186 0.930 1_554 S
H214 C188 0.930 . S
H215 C189 0.931 . S
H216 C191 0.931 . S
H217 C193 0.930 . S
H218 C195 0.930 . S
H219 C196 0.931 . S
H220 C198 0.931 . S
H221 C200 0.930 . S
H222 C202 0.930 . S
H223 C203 0.931 . S
H224 C205 0.931 . S
H225 C207 0.930 . S
H226 C209 0.930 . S
H227 C210 0.931 . S
N228 C190 1.343 . S
N228 C211 1.343 1_565 S
N229 C197 1.343 1_545 S
N229 C204 1.347 . S
C230 C231 1.384 . S
C230 C232 1.384 . S
C230 H258 0.931 . S
C231 C230 1.384 . S
C231 C234 1.382 . S
C232 C230 1.384 . S
C232 C233 1.381 . S
C232 H259 0.930 . S
C233 C232 1.381 . S
C233 C235 1.381 . S
C233 C236 1.487 . S
C234 C231 1.382 . S
C234 C235 1.387 . S
C234 H260 0.930 . S
C235 C233 1.381 . S
C235 C234 1.387 . S
C235 H261 0.931 . S
C236 C233 1.487 . S
C236 C243 1.399 . S
C236 N274 1.343 . S
C237 C238 1.384 . S
C237 C239 1.384 . S
C237 H262 0.931 . S
C238 C237 1.384 . S
C238 C241 1.382 . S
C239 C237 1.384 . S
C239 C240 1.381 . S
C239 H263 0.930 . S
C240 C239 1.381 . S
C240 C242 1.381 . S
C240 C243 1.487 . S
C241 C238 1.382 . S
C241 C242 1.387 . S
C241 H264 0.930 . S
C242 C240 1.381 . S
C242 C241 1.387 . S
C242 H265 0.931 . S
C243 C236 1.399 . S
C243 C240 1.487 . S
C243 N275 1.343 . S
C244 C245 1.384 . S
C244 C246 1.384 . S
C244 H266 0.931 . S
C245 C244 1.384 . S
C245 C248 1.382 . S
C246 C244 1.384 . S
C246 C247 1.381 . S
C246 H267 0.930 . S
C247 C246 1.381 . S
C247 C249 1.381 . S
C247 C250 1.487 . S
C248 C245 1.382 . S
C248 C249 1.387 . S
C248 H268 0.930 . S
C249 C247 1.381 . S
C249 C248 1.387 . S
C249 H269 0.931 . S
C250 C247 1.487 . S
C250 C257 1.399 . S
C250 N275 1.343 . S
C251 C252 1.384 . S
C251 C253 1.384 . S
C251 H270 0.931 . S
C252 C251 1.384 . S
C252 C255 1.382 . S
C253 C251 1.384 . S
C253 C254 1.381 . S
C253 H271 0.930 . S
C254 C253 1.381 . S
C254 C256 1.381 . S
C254 C257 1.487 . S
C255 C252 1.382 . S
C255 C256 1.387 . S
C255 H272 0.930 . S
C256 C254 1.381 . S
C256 C255 1.387 . S
C256 H273 0.931 . S
C257 C250 1.399 . S
C257 C254 1.487 . S
C257 N274 1.343 . S
H258 C230 0.931 . S
H259 C232 0.930 . S
H260 C234 0.930 . S
H261 C235 0.931 . S
H262 C237 0.931 . S
H263 C239 0.930 . S
H264 C241 0.930 . S
H265 C242 0.931 . S
H266 C244 0.931 . S
H267 C246 0.930 . S
H268 C248 0.930 . S
H269 C249 0.931 . S
H270 C251 0.931 . S
H271 C253 0.930 . S
H272 C255 0.930 . S
H273 C256 0.931 . S
N274 C236 1.343 . S
N274 C257 1.343 . S
N275 C243 1.343 . S
N275 C250 1.343 . S
C276 O277 1.306 . S
C276 O279 1.160 . S
O277 C276 1.306 . S
O277 Cd278 2.228 . S
Cd278 O277 2.228 . S
Cd278 O282 2.273 . S
Cd278 O286 2.277 . S
O279 C276 1.160 . S
O279 Cd280 2.203 . S
Cd280 O279 2.203 . S
Cd280 O282 2.411 . S
Cd280 O283 2.333 . S
Cd280 O284 2.352 . S
Cd280 O288 2.277 . S
Cd280 O289 2.356 . S
C281 O286 1.209 . S
C281 O288 1.226 . S
O282 Cd278 2.273 . S
O282 Cd280 2.411 . S
O282 C285 1.320 . S
O283 Cd280 2.333 . S
O283 C285 1.214 . S
O284 Cd280 2.352 . S
O284 C287 1.258 . S
C285 O282 1.320 . S
C285 O283 1.214 . S
O286 Cd278 2.277 . S
O286 C281 1.209 . S
C287 O284 1.258 . S
C287 O289 1.282 . S
O288 Cd280 2.277 . S
O288 C281 1.226 . S
O289 Cd280 2.356 . S
O289 C287 1.282 . S
C290 O291 1.306 . S
C290 O293 1.160 . S
O291 C290 1.306 . S
O291 Cd292 2.228 . S
Cd292 O291 2.228 . S
Cd292 O296 2.273 . S
Cd292 O300 2.277 . S
O293 C290 1.160 . S
O293 Cd294 2.203 . S
Cd294 O293 2.203 . S
Cd294 O296 2.411 . S
Cd294 O297 2.333 . S
Cd294 O298 2.352 . S
Cd294 O302 2.277 . S
Cd294 O303 2.356 . S
C295 O300 1.209 . S
C295 O302 1.226 . S
O296 Cd292 2.273 . S
O296 Cd294 2.411 . S
O296 C299 1.320 . S
O297 Cd294 2.333 . S
O297 C299 1.214 . S
O298 Cd294 2.352 . S
O298 C301 1.258 . S
C299 O296 1.320 . S
C299 O297 1.214 . S
O300 Cd292 2.277 . S
O300 C295 1.209 . S
C301 O298 1.258 . S
C301 O303 1.282 . S
O302 Cd294 2.277 . S
O302 C295 1.226 . S
O303 Cd294 2.356 . S
O303 C301 1.282 . S
C304 O305 1.306 . S
C304 O307 1.160 . S
O305 C304 1.306 . S
O305 Cd306 2.228 . S
Cd306 O305 2.228 . S
Cd306 O310 2.273 . S
Cd306 O314 2.277 . S
O307 C304 1.160 . S
O307 Cd308 2.203 . S
Cd308 O307 2.203 . S
Cd308 O310 2.411 . S
Cd308 O311 2.333 . S
Cd308 O312 2.352 . S
Cd308 O316 2.277 . S
Cd308 O317 2.356 . S
C309 O314 1.209 . S
C309 O316 1.226 . S
O310 Cd306 2.273 . S
O310 Cd308 2.411 . S
O310 C313 1.320 . S
O311 Cd308 2.333 . S
O311 C313 1.214 . S
O312 Cd308 2.352 . S
O312 C315 1.258 . S
C313 O310 1.320 . S
C313 O311 1.214 . S
O314 Cd306 2.277 . S
O314 C309 1.209 . S
C315 O312 1.258 . S
C315 O317 1.282 . S
O316 Cd308 2.277 . S
O316 C309 1.226 . S
O317 Cd308 2.356 . S
O317 C315 1.282 . S
C318 O319 1.306 . S
C318 O321 1.160 . S
O319 C318 1.306 . S
O319 Cd320 2.228 . S
Cd320 O319 2.228 . S
Cd320 O324 2.273 . S
Cd320 O328 2.277 . S
O321 C318 1.160 . S
O321 Cd322 2.203 . S
Cd322 O321 2.203 . S
Cd322 O324 2.411 . S
Cd322 O325 2.333 . S
Cd322 O326 2.352 . S
Cd322 O330 2.277 . S
Cd322 O331 2.356 . S
C323 O328 1.209 . S
C323 O330 1.226 . S
O324 Cd320 2.273 . S
O324 Cd322 2.411 . S
O324 C327 1.320 . S
O325 Cd322 2.333 . S
O325 C327 1.214 . S
O326 Cd322 2.352 . S
O326 C329 1.258 . S
C327 O324 1.320 . S
C327 O325 1.214 . S
O328 Cd320 2.277 . S
O328 C323 1.209 . S
C329 O326 1.258 . S
C329 O331 1.282 . S
O330 Cd322 2.277 . S
O330 C323 1.226 . S
O331 Cd322 2.356 . S
O331 C329 1.282 . S
C332 O333 1.306 . S
C332 O335 1.160 . S
O333 C332 1.306 . S
O333 Cd334 2.228 . S
Cd334 O333 2.228 . S
Cd334 O338 2.273 . S
Cd334 O342 2.277 . S
O335 C332 1.160 . S
O335 Cd336 2.203 . S
Cd336 O335 2.203 . S
Cd336 O338 2.411 . S
Cd336 O339 2.333 . S
Cd336 O340 2.352 . S
Cd336 O344 2.277 . S
Cd336 O345 2.356 . S
C337 O342 1.209 . S
C337 O344 1.226 . S
O338 Cd334 2.273 . S
O338 Cd336 2.411 . S
O338 C341 1.320 . S
O339 Cd336 2.333 . S
O339 C341 1.214 . S
O340 Cd336 2.352 . S
O340 C343 1.258 . S
C341 O338 1.320 . S
C341 O339 1.214 . S
O342 Cd334 2.277 . S
O342 C337 1.209 . S
C343 O340 1.258 . S
C343 O345 1.282 . S
O344 Cd336 2.277 . S
O344 C337 1.226 . S
O345 Cd336 2.356 . S
O345 C343 1.282 . S
C346 O347 1.306 . S
C346 O349 1.160 . S
O347 C346 1.306 . S
O347 Cd348 2.228 . S
Cd348 O347 2.228 . S
Cd348 O352 2.273 . S
Cd348 O356 2.277 . S
O349 C346 1.160 . S
O349 Cd350 2.203 . S
Cd350 O349 2.203 . S
Cd350 O352 2.411 . S
Cd350 O353 2.333 . S
Cd350 O354 2.352 . S
Cd350 O358 2.277 . S
Cd350 O359 2.356 . S
C351 O356 1.209 . S
C351 O358 1.226 . S
O352 Cd348 2.273 . S
O352 Cd350 2.411 . S
O352 C355 1.320 . S
O353 Cd350 2.333 . S
O353 C355 1.214 . S
O354 Cd350 2.352 . S
O354 C357 1.258 . S
C355 O352 1.320 . S
C355 O353 1.214 . S
O356 Cd348 2.277 . S
O356 C351 1.209 . S
C357 O354 1.258 . S
C357 O359 1.282 . S
O358 Cd350 2.277 . S
O358 C351 1.226 . S
O359 Cd350 2.356 . S
O359 C357 1.282 . S
H360 C366 0.930 . S
H361 C369 0.930 . S
H362 C370 0.930 . S
H363 C371 0.930 . S
H364 C374 0.930 . S
H365 C375 0.930 . S
C366 H360 0.930 . S
C366 C367 1.355 . S
C366 C368 1.415 . S
C367 C366 1.355 . S
C367 C369 1.419 . S
C368 C366 1.415 . S
C368 C373 1.425 . S
C368 C375 1.409 . S
C369 H361 0.930 . S
C369 C367 1.419 . S
C369 C370 1.362 . S
C370 H362 0.930 . S
C370 C369 1.362 . S
C370 C373 1.409 . S
C371 H363 0.930 . S
C371 C372 1.355 . S
C371 C373 1.415 . S
C372 C371 1.355 . S
C372 C374 1.419 . S
C373 C368 1.425 . S
C373 C370 1.409 . S
C373 C371 1.415 . S
C374 H364 0.930 . S
C374 C372 1.419 . S
C374 C375 1.362 . S
C375 H365 0.930 . S
C375 C368 1.409 . S
C375 C374 1.362 . S
H376 C382 0.930 . S
H377 C385 0.930 . S
H378 C386 0.930 . S
H379 C387 0.930 . S
H380 C390 0.930 . S
H381 C391 0.930 . S
C382 H376 0.930 . S
C382 C383 1.355 . S
C382 C384 1.415 . S
C383 C382 1.355 . S
C383 C385 1.419 . S
C384 C382 1.415 . S
C384 C389 1.425 . S
C384 C391 1.409 . S
C385 H377 0.930 . S
C385 C383 1.419 . S
C385 C386 1.362 . S
C386 H378 0.930 . S
C386 C385 1.362 . S
C386 C389 1.409 . S
C387 H379 0.930 . S
C387 C388 1.355 . S
C387 C389 1.415 . S
C388 C387 1.355 . S
C388 C390 1.419 . S
C389 C384 1.425 . S
C389 C386 1.409 . S
C389 C387 1.415 . S
C390 H380 0.930 . S
C390 C388 1.419 . S
C390 C391 1.362 . S
C391 H381 0.930 . S
C391 C384 1.409 . S
C391 C390 1.362 . S
H392 C398 0.930 . S
H393 C401 0.930 . S
H394 C402 0.930 . S
H395 C403 0.930 . S
H396 C406 0.930 . S
H397 C407 0.930 . S
C398 H392 0.930 . S
C398 C399 1.355 . S
C398 C400 1.415 . S
C399 C398 1.355 . S
C399 C401 1.419 . S
C400 C398 1.415 . S
C400 C405 1.425 . S
C400 C407 1.409 . S
C401 H393 0.930 . S
C401 C399 1.419 . S
C401 C402 1.362 . S
C402 H394 0.930 . S
C402 C401 1.362 . S
C402 C405 1.409 . S
C403 H395 0.930 . S
C403 C404 1.355 . S
C403 C405 1.415 . S
C404 C403 1.355 . S
C404 C406 1.419 . S
C405 C400 1.425 . S
C405 C402 1.409 . S
C405 C403 1.415 . S
C406 H396 0.930 . S
C406 C404 1.419 . S
C406 C407 1.362 . S
C407 H397 0.930 . S
C407 C400 1.409 . S
C407 C406 1.362 . S
H408 C414 0.930 . S
H409 C417 0.930 . S
H410 C418 0.930 . S
H411 C419 0.930 . S
H412 C422 0.930 . S
H413 C423 0.930 . S
C414 H408 0.930 . S
C414 C415 1.355 . S
C414 C416 1.415 . S
C415 C414 1.355 . S
C415 C417 1.419 . S
C416 C414 1.415 . S
C416 C421 1.425 . S
C416 C423 1.409 . S
C417 H409 0.930 . S
C417 C415 1.419 . S
C417 C418 1.362 . S
C418 H410 0.930 . S
C418 C417 1.362 . S
C418 C421 1.409 . S
C419 H411 0.930 . S
C419 C420 1.355 . S
C419 C421 1.415 . S
C420 C419 1.355 . S
C420 C422 1.419 . S
C421 C416 1.425 . S
C421 C418 1.409 . S
C421 C419 1.415 . S
C422 H412 0.930 . S
C422 C420 1.419 . S
C422 C423 1.362 . S
C423 H413 0.930 . S
C423 C416 1.409 . S
C423 C422 1.362 . S
H424 C430 0.930 . S
H425 C433 0.930 . S
H426 C434 0.930 . S
H427 C435 0.930 . S
H428 C438 0.930 . S
H429 C439 0.930 . S
C430 H424 0.930 . S
C430 C431 1.355 . S
C430 C432 1.415 . S
C431 C430 1.355 . S
C431 C433 1.419 . S
C432 C430 1.415 . S
C432 C437 1.425 . S
C432 C439 1.409 . S
C433 H425 0.930 . S
C433 C431 1.419 . S
C433 C434 1.362 . S
C434 H426 0.930 . S
C434 C433 1.362 . S
C434 C437 1.409 . S
C435 H427 0.930 . S
C435 C436 1.355 . S
C435 C437 1.415 . S
C436 C435 1.355 . S
C436 C438 1.419 . S
C437 C432 1.425 . S
C437 C434 1.409 . S
C437 C435 1.415 . S
C438 H428 0.930 . S
C438 C436 1.419 . S
C438 C439 1.362 . S
C439 H429 0.930 . S
C439 C432 1.409 . S
C439 C438 1.362 . S
H440 C446 0.930 . S
H441 C449 0.930 . S
H442 C450 0.930 . S
H443 C451 0.930 . S
H444 C454 0.930 . S
H445 C455 0.930 . S
C446 H440 0.930 . S
C446 C447 1.355 . S
C446 C448 1.415 . S
C447 C446 1.355 . S
C447 C449 1.419 . S
C448 C446 1.415 . S
C448 C453 1.425 . S
C448 C455 1.409 . S
C449 H441 0.930 . S
C449 C447 1.419 . S
C449 C450 1.362 . S
C450 H442 0.930 . S
C450 C449 1.362 . S
C450 C453 1.409 . S
C451 H443 0.930 . S
C451 C452 1.355 . S
C451 C453 1.415 . S
C452 C451 1.355 . S
C452 C454 1.419 . S
C453 C448 1.425 . S
C453 C450 1.409 . S
C453 C451 1.415 . S
C454 H444 0.930 . S
C454 C452 1.419 . S
C454 C455 1.362 . S
C455 H445 0.930 . S
C455 C448 1.409 . S
C455 C454 1.362 . S
H456 C462 0.930 . S
H457 C465 0.930 . S
H458 C466 0.930 . S
H459 C467 0.930 . S
H460 C470 0.930 . S
H461 C471 0.930 . S
C462 H456 0.930 . S
C462 C463 1.355 . S
C462 C464 1.415 . S
C463 C462 1.355 . S
C463 C465 1.419 . S
C464 C462 1.415 . S
C464 C469 1.425 . S
C464 C471 1.409 . S
C465 H457 0.930 . S
C465 C463 1.419 . S
C465 C466 1.362 . S
C466 H458 0.930 . S
C466 C465 1.362 . S
C466 C469 1.409 . S
C467 H459 0.930 . S
C467 C468 1.355 . S
C467 C469 1.415 . S
C468 C467 1.355 . S
C468 C470 1.419 . S
C469 C464 1.425 . S
C469 C466 1.409 . S
C469 C467 1.415 . S
C470 H460 0.930 . S
C470 C468 1.419 . S
C470 C471 1.362 . S
C471 H461 0.930 . S
C471 C464 1.409 . S
C471 C470 1.362 . S
H472 C478 0.930 . S
H473 C481 0.930 . S
H474 C482 0.930 . S
H475 C483 0.930 . S
H476 C486 0.930 . S
H477 C487 0.930 . S
C478 H472 0.930 . S
C478 C479 1.355 . S
C478 C480 1.415 . S
C479 C478 1.355 . S
C479 C481 1.419 . S
C480 C478 1.415 . S
C480 C485 1.425 . S
C480 C487 1.409 . S
C481 H473 0.930 . S
C481 C479 1.419 . S
C481 C482 1.362 . S
C482 H474 0.930 . S
C482 C481 1.362 . S
C482 C485 1.409 . S
C483 H475 0.930 . S
C483 C484 1.355 . S
C483 C485 1.415 . S
C484 C483 1.355 . S
C484 C486 1.419 . S
C485 C480 1.425 . S
C485 C482 1.409 . S
C485 C483 1.415 . S
C486 H476 0.930 . S
C486 C484 1.419 . S
C486 C487 1.362 . S
C487 H477 0.930 . S
C487 C480 1.409 . S
C487 C486 1.362 . S
H488 C494 0.930 . S
H489 C497 0.930 . S
H490 C498 0.930 . S
H491 C499 0.930 . S
H492 C502 0.930 . S
H493 C503 0.930 . S
C494 H488 0.930 . S
C494 C495 1.355 . S
C494 C496 1.415 . S
C495 C494 1.355 . S
C495 C497 1.419 . S
C496 C494 1.415 . S
C496 C501 1.425 . S
C496 C503 1.409 . S
C497 H489 0.930 . S
C497 C495 1.419 . S
C497 C498 1.362 . S
C498 H490 0.930 . S
C498 C497 1.362 . S
C498 C501 1.409 . S
C499 H491 0.930 . S
C499 C500 1.355 . S
C499 C501 1.415 . S
C500 C499 1.355 . S
C500 C502 1.419 . S
C501 C496 1.425 . S
C501 C498 1.409 . S
C501 C499 1.415 . S
C502 H492 0.930 . S
C502 C500 1.419 . S
C502 C503 1.362 . S
C503 H493 0.930 . S
C503 C496 1.409 . S
C503 C502 1.362 . S
H504 C510 0.930 . S
H505 C513 0.930 . S
H506 C514 0.930 . S
H507 C515 0.930 . S
H508 C518 0.930 . S
H509 C519 0.955 . S
C510 H504 0.930 . S
C510 C511 1.355 . S
C510 C512 1.415 . S
C511 C510 1.355 . S
C511 C513 1.419 . S
C512 C510 1.415 . S
C512 C517 1.425 . S
C512 C519 1.409 . S
C513 H505 0.930 . S
C513 C511 1.419 . S
C513 C514 1.362 . S
C514 H506 0.930 . S
C514 C513 1.362 . S
C514 C517 1.409 . S
C515 H507 0.930 . S
C515 C516 1.355 . S
C515 C517 1.415 . S
C516 C515 1.355 . S
C516 C518 1.419 . S
C517 C512 1.425 . S
C517 C514 1.409 . S
C517 C515 1.415 . S
C518 H508 0.930 . S
C518 C516 1.419 . S
C518 C519 1.362 . S
C519 H509 0.955 . S
C519 C512 1.409 . S
C519 C518 1.362 . S
H520 C526 0.930 . S
H521 C529 0.930 . S
H522 C530 0.930 . S
H523 C531 0.930 . S
H524 C534 0.930 . S
H525 C535 0.930 . S
C526 H520 0.930 . S
C526 C527 1.355 . S
C526 C528 1.415 . S
C527 C526 1.355 . S
C527 C529 1.419 . S
C528 C526 1.415 . S
C528 C533 1.425 . S
C528 C535 1.409 . S
C529 H521 0.930 . S
C529 C527 1.419 . S
C529 C530 1.362 . S
C530 H522 0.930 . S
C530 C529 1.362 . S
C530 C533 1.409 . S
C531 H523 0.930 . S
C531 C532 1.355 . S
C531 C533 1.415 . S
C532 C531 1.355 . S
C532 C534 1.419 . S
C533 C528 1.425 . S
C533 C530 1.409 . S
C533 C531 1.415 . S
C534 H524 0.930 . S
C534 C532 1.419 . S
C534 C535 1.362 . S
C535 H525 0.930 . S
C535 C528 1.409 . S
C535 C534 1.362 . S
H536 C542 0.930 . S
H537 C545 0.930 . S
H538 C546 0.930 . S
H539 C547 0.930 . S
H540 C550 0.930 . S
H541 C551 0.930 . S
C542 H536 0.930 . S
C542 C543 1.355 . S
C542 C544 1.415 . S
C543 C542 1.355 . S
C543 C545 1.419 . S
C544 C542 1.415 . S
C544 C549 1.425 . S
C544 C551 1.409 . S
C545 H537 0.930 . S
C545 C543 1.419 . S
C545 C546 1.362 . S
C546 H538 0.930 . S
C546 C545 1.362 . S
C546 C549 1.409 . S
C547 H539 0.930 . S
C547 C548 1.355 . S
C547 C549 1.415 . S
C548 C547 1.355 . S
C548 C550 1.419 . S
C549 C544 1.425 . S
C549 C546 1.409 . S
C549 C547 1.415 . S
C550 H540 0.930 . S
C550 C548 1.419 . S
C550 C551 1.362 . S
C551 H541 0.930 . S
C551 C544 1.409 . S
C551 C550 1.362 . S
H552 C558 0.930 . S
H553 C561 0.930 . S
H554 C562 0.930 . S
H555 C563 0.930 . S
H556 C566 0.930 . S
H557 C567 0.930 . S
C558 H552 0.930 . S
C558 C559 1.355 . S
C558 C560 1.415 . S
C559 C558 1.355 . S
C559 C561 1.419 . S
C560 C558 1.415 . S
C560 C565 1.425 . S
C560 C567 1.409 . S
C561 H553 0.930 . S
C561 C559 1.419 . S
C561 C562 1.362 . S
C562 H554 0.930 . S
C562 C561 1.362 . S
C562 C565 1.409 . S
C563 H555 0.930 . S
C563 C564 1.355 . S
C563 C565 1.415 . S
C564 C563 1.355 . S
C564 C566 1.419 . S
C565 C560 1.425 . S
C565 C562 1.409 . S
C565 C563 1.415 . S
C566 H556 0.930 . S
C566 C564 1.419 . S
C566 C567 1.362 . S
C567 H557 0.930 . S
C567 C560 1.409 . S
C567 C566 1.362 . S
H568 C574 0.930 . S
H569 C577 0.930 . S
H570 C578 0.930 . S
H571 C579 0.930 . S
H572 C582 0.930 . S
H573 C583 0.930 . S
C574 H568 0.930 . S
C574 C575 1.355 . S
C574 C576 1.415 . S
C575 C574 1.355 . S
C575 C577 1.419 . S
C576 C574 1.415 . S
C576 C581 1.425 . S
C576 C583 1.409 . S
C577 H569 0.930 . S
C577 C575 1.419 . S
C577 C578 1.362 . S
C578 H570 0.930 . S
C578 C577 1.362 . S
C578 C581 1.409 . S
C579 H571 0.930 . S
C579 C580 1.355 . S
C579 C581 1.415 . S
C580 C579 1.355 . S
C580 C582 1.419 . S
C581 C576 1.425 . S
C581 C578 1.409 . S
C581 C579 1.415 . S
C582 H572 0.930 . S
C582 C580 1.419 . S
C582 C583 1.362 . S
C583 H573 0.930 . S
C583 C576 1.409 . S
C583 C582 1.362 . S
H584 C590 0.930 . S
H585 C593 0.930 . S
H586 C594 0.930 . S
H587 C595 0.930 . S
H588 C598 0.930 . S
H589 C599 0.930 . S
C590 H584 0.930 . S
C590 C591 1.355 . S
C590 C592 1.415 . S
C591 C590 1.355 . S
C591 C593 1.419 . S
C592 C590 1.415 . S
C592 C597 1.425 . S
C592 C599 1.409 . S
C593 H585 0.930 . S
C593 C591 1.419 . S
C593 C594 1.362 . S
C594 H586 0.930 . S
C594 C593 1.362 . S
C594 C597 1.409 . S
C595 H587 0.930 . S
C595 C596 1.355 . S
C595 C597 1.415 . S
C596 C595 1.355 . S
C596 C598 1.419 . S
C597 C592 1.425 . S
C597 C594 1.409 . S
C597 C595 1.415 . S
C598 H588 0.930 . S
C598 C596 1.419 . S
C598 C599 1.362 . S
C599 H589 0.930 . S
C599 C592 1.409 . S
C599 C598 1.362 . S
H600 C606 0.930 . S
H601 C609 0.930 . S
H602 C610 0.940 . S
H603 C611 0.930 . S
H604 C614 0.930 . S
H605 C615 0.930 . S
C606 H600 0.930 . S
C606 C607 1.355 . S
C606 C608 1.415 . S
C607 C606 1.355 . S
C607 C609 1.419 . S
C608 C606 1.415 . S
C608 C613 1.425 . S
C608 C615 1.409 . S
C609 H601 0.930 . S
C609 C607 1.419 . S
C609 C610 1.362 . S
C610 H602 0.940 . S
C610 C609 1.362 . S
C610 C613 1.409 . S
C611 H603 0.930 . S
C611 C612 1.355 . S
C611 C613 1.415 1_554 S
C612 C611 1.355 . S
C612 C614 1.419 1_554 S
C613 C608 1.425 . S
C613 C610 1.409 . S
C613 C611 1.415 1_556 S
C614 H604 0.930 . S
C614 C612 1.419 1_556 S
C614 C615 1.362 . S
C615 H605 0.930 . S
C615 C608 1.409 . S
C615 C614 1.362 . S
H616 C622 0.930 . S
H617 C625 0.930 . S
H618 C626 0.930 . S
H619 C627 0.930 . S
H620 C630 0.930 . S
H621 C631 0.930 . S
C622 H616 0.930 . S
C622 C623 1.355 . S
C622 C624 1.415 . S
C623 C622 1.355 . S
C623 C625 1.419 . S
C624 C622 1.415 . S
C624 C629 1.425 . S
C624 C631 1.409 . S
C625 H617 0.930 . S
C625 C623 1.419 . S
C625 C626 1.362 . S
C626 H618 0.930 . S
C626 C625 1.362 . S
C626 C629 1.409 . S
C627 H619 0.930 . S
C627 C628 1.355 . S
C627 C629 1.415 . S
C628 C627 1.355 . S
C628 C630 1.419 . S
C629 C624 1.425 . S
C629 C626 1.409 . S
C629 C627 1.415 . S
C630 H620 0.930 . S
C630 C628 1.419 . S
C630 C631 1.362 . S
C631 H621 0.930 . S
C631 C624 1.409 . S
C631 C630 1.362 . S
H632 C638 0.930 . S
H633 C641 0.930 . S
H634 C642 0.930 . S
H635 C643 0.930 . S
H636 C646 0.930 . S
H637 C647 0.930 . S
C638 H632 0.930 . S
C638 C639 1.355 . S
C638 C640 1.415 . S
C639 C638 1.355 . S
C639 C641 1.419 . S
C640 C638 1.415 . S
C640 C645 1.425 . S
C640 C647 1.409 . S
C641 H633 0.930 . S
C641 C639 1.419 . S
C641 C642 1.362 . S
C642 H634 0.930 . S
C642 C641 1.362 . S
C642 C645 1.409 . S
C643 H635 0.930 . S
C643 C644 1.355 . S
C643 C645 1.415 . S
C644 C643 1.355 . S
C644 C646 1.419 . S
C645 C640 1.425 . S
C645 C642 1.409 . S
C645 C643 1.415 . S
C646 H636 0.930 . S
C646 C644 1.419 . S
C646 C647 1.362 . S
C647 H637 0.930 . S
C647 C640 1.409 . S
C647 C646 1.362 . S
H648 C654 0.930 . S
H649 C657 0.930 . S
H650 C658 0.930 . S
H651 C659 0.930 . S
H652 C662 0.930 . S
H653 C663 0.930 . S
C654 H648 0.930 . S
C654 C655 1.355 . S
C654 C656 1.415 . S
C655 C654 1.355 . S
C655 C657 1.419 . S
C656 C654 1.415 . S
C656 C661 1.425 . S
C656 C663 1.409 . S
C657 H649 0.930 . S
C657 C655 1.419 . S
C657 C658 1.362 . S
C658 H650 0.930 . S
C658 C657 1.362 . S
C658 C661 1.409 . S
C659 H651 0.930 . S
C659 C660 1.355 . S
C659 C661 1.415 . S
C660 C659 1.355 . S
C660 C662 1.419 . S
C661 C656 1.425 . S
C661 C658 1.409 . S
C661 C659 1.415 . S
C662 H652 0.930 . S
C662 C660 1.419 . S
C662 C663 1.362 . S
C663 H653 0.930 . S
C663 C656 1.409 . S
C663 C662 1.362 . S
H664 C670 0.930 . S
H665 C673 0.930 . S
H666 C674 0.930 . S
H667 C675 0.930 . S
H668 C678 0.930 . S
H669 C679 0.930 . S
C670 H664 0.930 . S
C670 C671 1.355 . S
C670 C672 1.415 . S
C671 C670 1.355 . S
C671 C673 1.419 . S
C672 C670 1.415 . S
C672 C677 1.425 . S
C672 C679 1.409 . S
C673 H665 0.930 . S
C673 C671 1.419 . S
C673 C674 1.362 . S
C674 H666 0.930 . S
C674 C673 1.362 . S
C674 C677 1.409 . S
C675 H667 0.930 . S
C675 C676 1.355 . S
C675 C677 1.415 . S
C676 C675 1.355 . S
C676 C678 1.419 . S
C677 C672 1.425 . S
C677 C674 1.409 . S
C677 C675 1.415 . S
C678 H668 0.930 . S
C678 C676 1.419 . S
C678 C679 1.362 . S
C679 H669 0.930 . S
C679 C672 1.409 . S
C679 C678 1.362 . S
H680 C686 0.930 . S
H681 C689 0.930 . S
H682 C690 0.930 . S
H683 C691 0.930 . S
H684 C694 0.930 . S
H685 C695 0.930 . S
C686 H680 0.930 . S
C686 C687 1.355 . S
C686 C688 1.415 . S
C687 C686 1.355 . S
C687 C689 1.419 . S
C688 C686 1.415 . S
C688 C693 1.425 . S
C688 C695 1.409 . S
C689 H681 0.930 . S
C689 C687 1.419 . S
C689 C690 1.362 . S
C690 H682 0.930 . S
C690 C689 1.362 . S
C690 C693 1.409 . S
C691 H683 0.930 . S
C691 C692 1.355 . S
C691 C693 1.415 . S
C692 C691 1.355 . S
C692 C694 1.419 . S
C693 C688 1.425 . S
C693 C690 1.409 . S
C693 C691 1.415 . S
C694 H684 0.930 . S
C694 C692 1.419 . S
C694 C695 1.362 . S
C695 H685 0.930 . S
C695 C688 1.409 . S
C695 C694 1.362 . S
H696 C702 0.930 . S
H697 C705 0.930 . S
H698 C706 0.930 . S
H699 C707 0.930 . S
H700 C710 0.930 . S
H701 C711 0.930 . S
C702 H696 0.930 . S
C702 C703 1.355 . S
C702 C704 1.415 . S
C703 C702 1.355 . S
C703 C705 1.419 . S
C704 C702 1.415 . S
C704 C709 1.425 . S
C704 C711 1.409 . S
C705 H697 0.930 . S
C705 C703 1.419 . S
C705 C706 1.362 . S
C706 H698 0.930 . S
C706 C705 1.362 . S
C706 C709 1.409 . S
C707 H699 0.930 . S
C707 C708 1.355 . S
C707 C709 1.415 . S
C708 C707 1.355 . S
C708 C710 1.419 . S
C709 C704 1.425 . S
C709 C706 1.409 . S
C709 C707 1.415 . S
C710 H700 0.930 . S
C710 C708 1.419 . S
C710 C711 1.362 . S
C711 H701 0.930 . S
C711 C704 1.409 . S
C711 C710 1.362 . S
H712 C718 0.930 . S
H713 C721 0.930 . S
H714 C722 0.930 . S
H715 C723 0.930 . S
H716 C726 0.930 . S
H717 C727 0.930 . S
C718 H712 0.930 . S
C718 C719 1.355 . S
C718 C720 1.415 . S
C719 C718 1.355 . S
C719 C721 1.419 . S
C720 C718 1.415 . S
C720 C725 1.425 . S
C720 C727 1.409 1_554 S
C721 H713 0.930 . S
C721 C719 1.419 . S
C721 C722 1.362 . S
C722 H714 0.930 . S
C722 C721 1.362 . S
C722 C725 1.409 . S
C723 H715 0.930 . S
C723 C724 1.355 . S
C723 C725 1.415 1_556 S
C724 C723 1.355 . S
C724 C726 1.419 . S
C725 C720 1.425 . S
C725 C722 1.409 . S
C725 C723 1.415 1_554 S
C726 H716 0.930 . S
C726 C724 1.419 . S
C726 C727 1.362 . S
C727 H717 0.930 . S
C727 C720 1.409 1_556 S
C727 C726 1.362 . S
H728 C734 0.930 . S
H729 C737 0.930 . S
H730 C738 0.930 . S
H731 C739 0.930 . S
H732 C742 0.930 . S
H733 C743 0.930 . S
C734 H728 0.930 . S
C734 C735 1.355 . S
C734 C736 1.415 . S
C735 C734 1.355 . S
C735 C737 1.419 . S
C736 C734 1.415 . S
C736 C741 1.425 . S
C736 C743 1.409 . S
C737 H729 0.930 . S
C737 C735 1.419 . S
C737 C738 1.362 . S
C738 H730 0.930 . S
C738 C737 1.362 . S
C738 C741 1.409 . S
C739 H731 0.930 . S
C739 C740 1.355 . S
C739 C741 1.415 . S
C740 C739 1.355 . S
C740 C742 1.419 . S
C741 C736 1.425 . S
C741 C738 1.409 . S
C741 C739 1.415 . S
C742 H732 0.930 . S
C742 C740 1.419 . S
C742 C743 1.362 . S
C743 H733 0.930 . S
C743 C736 1.409 . S
C743 C742 1.362 . S
C372 C346 1.614 . S
C367 C15 1.590 . S
C383 C61 1.599 . S
C388 C287 1.620 . S
C399 C114 1.588 . S
C404 C290 1.599 . S
C415 C139 1.577 . S
C420 C304 1.612 . S
C436 C329 1.614 . S
C431 C185 1.579 . S
C447 C245 1.563 . S
C452 C332 1.598 . S
C463 C47 1.560 . S
C468 C301 1.582 . S
C479 C100 1.596 . S
C484 C315 1.598 . S
C495 C153 1.534 . S
C500 C318 1.573 . S
C516 C343 1.594 . S
C511 C199 1.567 . S
C532 C357 1.600 . S
C527 C231 1.597 . S
C548 C276 1.576 . S
C543 C1 1.539 . S
C559 C22 1.476 . S
C564 C299 1.461 . S
C575 C68 1.481 . S
C580 C313 1.464 . S
C596 C323 1.480 . S
C591 C107 1.472 . S
C607 C146 1.474 . S
C612 C341 1.451 . S
C628 C355 1.488 . S
C623 C192 1.474 . S
C644 C281 1.478 . S
C639 C252 1.481 . S
C660 C351 1.506 . S
C655 C54 1.502 . S
C671 C93 1.493 . S
C676 C285 1.489 . S
C692 C295 1.498 . S
C687 C160 1.488 . S
C703 C206 1.503 . S
C708 C309 1.507 . S
C719 C238 1.480 . S
C724 C327 1.487 . S
C735 C8 1.486 . S
C740 C337 1.496 . S
