# Generated by pormake.
# Topology pyr, (3,6)-cn, num edge types: 1
# Building blocks:
#     Node 0, Type 0, BuildingBlock: VETTIZ_charged_linker_0, # of connection points: 3
#     Node 1, Type 0, BuildingBlock: VETTIZ_charged_linker_0, # of connection points: 3
#     Node 2, Type 0, BuildingBlock: VETTIZ_charged_linker_0, # of connection points: 3
#     Node 3, Type 0, BuildingBlock: VETTIZ_charged_linker_0, # of connection points: 3
#     Node 4, Type 0, BuildingBlock: VETTIZ_charged_linker_0, # of connection points: 3
#     Node 5, Type 0, BuildingBlock: VETTIZ_charged_linker_0, # of connection points: 3
#     Node 6, Type 0, BuildingBlock: VETTIZ_charged_linker_0, # of connection points: 3
#     Node 7, Type 0, BuildingBlock: VETTIZ_charged_linker_0, # of connection points: 3
#     Node 8, Type 1, BuildingBlock: LEVNOQ01_clean_sbu_1, # of connection points: 6
#     Node 9, Type 1, BuildingBlock: LEVNOQ01_clean_sbu_1, # of connection points: 6
#     Node 10, Type 1, BuildingBlock: LEVNOQ01_clean_sbu_1, # of connection points: 6
#     Node 11, Type 1, BuildingBlock: LEVNOQ01_clean_sbu_1, # of connection points: 6
#     Edge 12, Type (0, 1), BuildingBlock: MIFKUJ_clean_linker_0, # of connection points: 2
#     Edge 13, Type (0, 1), BuildingBlock: MIFKUJ_clean_linker_0, # of connection points: 2
#     Edge 14, Type (0, 1), BuildingBlock: MIFKUJ_clean_linker_0, # of connection points: 2
#     Edge 15, Type (0, 1), BuildingBlock: MIFKUJ_clean_linker_0, # of connection points: 2
#     Edge 16, Type (0, 1), BuildingBlock: MIFKUJ_clean_linker_0, # of connection points: 2
#     Edge 17, Type (0, 1), BuildingBlock: MIFKUJ_clean_linker_0, # of connection points: 2
#     Edge 18, Type (0, 1), BuildingBlock: MIFKUJ_clean_linker_0, # of connection points: 2
#     Edge 19, Type (0, 1), BuildingBlock: MIFKUJ_clean_linker_0, # of connection points: 2
#     Edge 20, Type (0, 1), BuildingBlock: MIFKUJ_clean_linker_0, # of connection points: 2
#     Edge 21, Type (0, 1), BuildingBlock: MIFKUJ_clean_linker_0, # of connection points: 2
#     Edge 22, Type (0, 1), BuildingBlock: MIFKUJ_clean_linker_0, # of connection points: 2
#     Edge 23, Type (0, 1), BuildingBlock: MIFKUJ_clean_linker_0, # of connection points: 2
#     Edge 24, Type (0, 1), BuildingBlock: MIFKUJ_clean_linker_0, # of connection points: 2
#     Edge 25, Type (0, 1), BuildingBlock: MIFKUJ_clean_linker_0, # of connection points: 2
#     Edge 26, Type (0, 1), BuildingBlock: MIFKUJ_clean_linker_0, # of connection points: 2
#     Edge 27, Type (0, 1), BuildingBlock: MIFKUJ_clean_linker_0, # of connection points: 2
#     Edge 28, Type (0, 1), BuildingBlock: MIFKUJ_clean_linker_0, # of connection points: 2
#     Edge 29, Type (0, 1), BuildingBlock: MIFKUJ_clean_linker_0, # of connection points: 2
#     Edge 30, Type (0, 1), BuildingBlock: MIFKUJ_clean_linker_0, # of connection points: 2
#     Edge 31, Type (0, 1), BuildingBlock: MIFKUJ_clean_linker_0, # of connection points: 2
#     Edge 32, Type (0, 1), BuildingBlock: MIFKUJ_clean_linker_0, # of connection points: 2
#     Edge 33, Type (0, 1), BuildingBlock: MIFKUJ_clean_linker_0, # of connection points: 2
#     Edge 34, Type (0, 1), BuildingBlock: MIFKUJ_clean_linker_0, # of connection points: 2
#     Edge 35, Type (0, 1), BuildingBlock: MIFKUJ_clean_linker_0, # of connection points: 2
# Relax obj value: 0.035
# Max RMSD: 0.111
# Mean RMSD: 0.047
data_MOF--net-pry--node1-LEVNOQ01_clean_sbu_1--node2-VETTIZ_charged_linker_0--edge1-MIFKUJ_clean_linker_0
_symmetry_space_group_name_H-M    P1
_symmetry_Int_Tables_number       1
_symmetry_cell_setting            triclinic
loop_
_symmetry_equiv_pos_as_xyz
'x, y, z'
_cell_length_a     56.601631
_cell_length_b     54.628806
_cell_length_c     54.757016
_cell_angle_alpha  92.089592
_cell_angle_beta   91.32473
_cell_angle_gamma 94.134732
loop_
_atom_site_label
_atom_site_type_symbol
_atom_site_fract_x
_atom_site_fract_y
_atom_site_fract_z
_atom_type_partial_charge
C0 C 0.12348 0.10139 0.20494 0.0
C1 C 0.10326 0.10892 0.21671 0.0
C2 C 0.08995 0.12662 0.20576 0.0
C3 C 0.11795 0.13034 0.1729 0.0
C4 C 0.13034 0.11213 0.18305 0.0
C5 C 0.15125 0.10604 0.1681 0.0
H6 H 0.22387 0.13109 0.07425 0.0
C7 C 0.13071 0.13884 0.15104 0.0
C8 C 0.15016 0.12453 0.14808 0.0
H9 H 0.22621 0.07254 0.12517 0.0
H10 H 0.19145 0.0859 0.14454 0.0
H11 H 0.21153 0.17272 0.11367 0.0
H12 H 0.16554 0.12576 0.06524 0.0
H13 H 0.15729 0.15619 0.06382 0.0
H14 H 0.18638 0.14907 0.0545 0.0
H15 H 0.20912 0.17786 0.08154 0.0
H16 H 0.18888 0.19021 0.10297 0.0
C17 C 0.17392 0.11082 0.18448 0.0
C18 C 0.14678 0.07921 0.15784 0.0
C19 C 0.10358 0.21233 0.10595 0.0
C20 C 0.11329 0.22649 0.08704 0.0
C21 C 0.13448 0.21932 0.07657 0.0
C22 C 0.14554 0.19869 0.08453 0.0
C23 C 0.13567 0.18499 0.10349 0.0
C24 C 0.11512 0.19203 0.114 0.0
C25 C 0.1079 0.17622 0.13494 0.0
C26 C 0.1273 0.15837 0.13508 0.0
C27 C 0.14345 0.16341 0.11644 0.0
C28 C 0.10869 0.19287 0.15852 0.0
C29 C 0.08331 0.16299 0.12854 0.0
C30 C 0.2169 0.12122 0.08962 0.0
C31 C 0.22787 0.10059 0.09806 0.0
C32 C 0.21802 0.08819 0.118 0.0
C33 C 0.19783 0.09608 0.12935 0.0
C34 C 0.18715 0.11668 0.12082 0.0
C35 C 0.19653 0.12879 0.10114 0.0
C36 C 0.18243 0.15013 0.09447 0.0
C37 C 0.16293 0.14855 0.11319 0.0
C38 C 0.16603 0.12906 0.12874 0.0
C39 C 0.19873 0.17406 0.09812 0.0
C40 C 0.17241 0.14528 0.06807 0.0
H41 H 0.0865 0.15101 0.17679 0.0
H42 H 0.13378 0.08746 0.21264 0.0
H43 H 0.12749 0.07379 0.15559 0.0
H44 H 0.15381 0.07659 0.13931 0.0
H45 H 0.15447 0.06605 0.17022 0.0
H46 H 0.17313 0.12802 0.19586 0.0
H47 H 0.17592 0.09554 0.19705 0.0
H48 H 0.19024 0.11348 0.17398 0.0
H49 H 0.0873 0.21682 0.11445 0.0
H50 H 0.14294 0.22992 0.06247 0.0
H51 H 0.16157 0.19439 0.07578 0.0
H52 H 0.12374 0.20714 0.15832 0.0
H53 H 0.09213 0.20246 0.16028 0.0
H54 H 0.11171 0.18284 0.17529 0.0
H55 H 0.08175 0.15767 0.10872 0.0
H56 H 0.08017 0.14561 0.13804 0.0
H57 H 0.06885 0.17507 0.13277 0.0
H58 H 0.07427 0.13268 0.21445 0.0
C59 C 0.09718 0.13737 0.18398 0.0
C60 C 0.29344 0.89377 0.58096 0.0
C61 C 0.28178 0.91383 0.5901 0.0
C62 C 0.29234 0.92869 0.60952 0.0
C63 C 0.32522 0.9027 0.61122 0.0
C64 C 0.31518 0.88873 0.59158 0.0
C65 C 0.33017 0.86844 0.58366 0.0
H66 H 0.42366 0.80181 0.60503 0.0
C67 C 0.34748 0.89205 0.61845 0.0
C68 C 0.35062 0.87219 0.60216 0.0
H69 H 0.3716 0.79273 0.54564 0.0
H70 H 0.35339 0.82866 0.56025 0.0
H71 H 0.4337 0.85896 0.60056 0.0
H72 H 0.38737 0.81729 0.64744 0.0
H73 H 0.40356 0.84058 0.66521 0.0
H74 H 0.41913 0.81765 0.64921 0.0
H75 H 0.44464 0.84609 0.62791 0.0
H76 H 0.43325 0.87616 0.62824 0.0
C77 C 0.33825 0.87312 0.55723 0.0
C78 C 0.31549 0.8437 0.58658 0.0
C79 C 0.39264 0.9239 0.69584 0.0
C80 C 0.41359 0.91735 0.70732 0.0
C81 C 0.42649 0.89902 0.69626 0.0
C82 C 0.41824 0.88684 0.6744 0.0
C83 C 0.39694 0.89317 0.6634 0.0
C84 C 0.3848 0.91179 0.67384 0.0
C85 C 0.36311 0.9168 0.65896 0.0
C86 C 0.36388 0.89765 0.63825 0.0
C87 C 0.38358 0.88369 0.64112 0.0
C88 C 0.36645 0.9433 0.64975 0.0
C89 C 0.34121 0.91202 0.675 0.0
C90 C 0.4085 0.80773 0.59501 0.0
C91 C 0.39887 0.79417 0.57433 0.0
C92 C 0.37906 0.80249 0.56192 0.0
C93 C 0.36856 0.82348 0.57037 0.0
C94 C 0.37791 0.83636 0.59148 0.0
C95 C 0.39781 0.82873 0.60318 0.0
C96 C 0.40556 0.84513 0.62502 0.0
C97 C 0.38681 0.86366 0.62458 0.0
C98 C 0.37054 0.85817 0.60509 0.0
C99 C 0.43064 0.85716 0.62044 0.0
C100 C 0.40401 0.82948 0.64803 0.0
H101 H 0.32102 0.93494 0.63512 0.0
H102 H 0.28588 0.88239 0.56571 0.0
H103 H 0.30539 0.84408 0.60377 0.0
H104 H 0.32645 0.82791 0.588 0.0
H105 H 0.3025 0.83992 0.57114 0.0
H106 H 0.33922 0.89304 0.55342 0.0
H107 H 0.32576 0.86353 0.54348 0.0
H108 H 0.35636 0.86755 0.55399 0.0
H109 H 0.38264 0.93824 0.70379 0.0
H110 H 0.44269 0.89374 0.70487 0.0
H111 H 0.42864 0.8728 0.66705 0.0
H112 H 0.38552 0.94906 0.64756 0.0
H113 H 0.35915 0.95671 0.66275 0.0
H114 H 0.35829 0.94505 0.6314 0.0
H115 H 0.3426 0.89492 0.68521 0.0
H116 H 0.32442 0.90925 0.66433 0.0
H117 H 0.33974 0.9274 0.6886 0.0
H118 H 0.28359 0.9443 0.61673 0.0
C119 C 0.31398 0.92318 0.62018 0.0
C120 C 0.6001 0.31123 0.90128 0.0
C121 C 0.57978 0.29854 0.89048 0.0
C122 C 0.56653 0.3102 0.87278 0.0
C123 C 0.59537 0.34521 0.87481 0.0
C124 C 0.60748 0.33445 0.89326 0.0
C125 C 0.62947 0.34969 0.90183 0.0
H126 H 0.71066 0.44266 0.88227 0.0
C127 C 0.60904 0.36818 0.86902 0.0
C128 C 0.6288 0.37116 0.88508 0.0
H129 H 0.71034 0.39027 0.93966 0.0
H130 H 0.67158 0.3735 0.92615 0.0
H131 H 0.65958 0.45745 0.88925 0.0
H132 H 0.6863 0.40443 0.83904 0.0
H133 H 0.6681 0.42365 0.82301 0.0
H134 H 0.69398 0.43694 0.83928 0.0
H135 H 0.67095 0.46629 0.86033 0.0
H136 H 0.64016 0.45596 0.86364 0.0
C137 C 0.62661 0.35773 0.929 0.0
C138 C 0.65102 0.33434 0.89704 0.0
C139 C 0.58911 0.41125 0.79154 0.0
C140 C 0.60019 0.43151 0.78013 0.0
C141 C 0.61842 0.44601 0.7929 0.0
C142 C 0.62672 0.43933 0.81579 0.0
C143 C 0.61679 0.41789 0.82598 0.0
C144 C 0.59761 0.40486 0.81446 0.0
C145 C 0.58882 0.38306 0.82854 0.0
C146 C 0.60651 0.38473 0.84993 0.0
C147 C 0.62315 0.40486 0.84798 0.0
C148 C 0.5633 0.38699 0.83681 0.0
C149 C 0.59088 0.35965 0.81209 0.0
C150 C 0.70216 0.42768 0.89201 0.0
C151 C 0.7138 0.41745 0.91175 0.0
C152 C 0.70205 0.39804 0.92399 0.0
C153 C 0.67946 0.38842 0.91623 0.0
C154 C 0.66848 0.39813 0.89587 0.0
C155 C 0.67954 0.4178 0.88446 0.0
C156 C 0.6648 0.42609 0.86353 0.0
C157 C 0.64319 0.4079 0.86417 0.0
C158 C 0.64574 0.39132 0.88284 0.0
C159 C 0.6586 0.45286 0.86926 0.0
C160 C 0.67892 0.42278 0.83988 0.0
H161 H 0.56366 0.34122 0.85106 0.0
H162 H 0.61078 0.30281 0.91484 0.0
H163 H 0.6489 0.32423 0.87901 0.0
H164 H 0.66794 0.34553 0.89617 0.0
H165 H 0.65282 0.32057 0.91128 0.0
H166 H 0.60762 0.35845 0.93361 0.0
H167 H 0.63448 0.34478 0.94149 0.0
H168 H 0.63454 0.37655 0.93333 0.0
H169 H 0.57498 0.39979 0.78233 0.0
H170 H 0.62673 0.46219 0.78488 0.0
H171 H 0.64104 0.45068 0.82431 0.0
H172 H 0.56007 0.40683 0.83828 0.0
H173 H 0.54985 0.37799 0.82366 0.0
H174 H 0.55992 0.38017 0.85529 0.0
H175 H 0.60818 0.36045 0.80282 0.0
H176 H 0.59017 0.3426 0.82226 0.0
H177 H 0.57661 0.35779 0.79772 0.0
H178 H 0.55049 0.30107 0.8646 0.0
C179 C 0.57416 0.33352 0.86498 0.0
C180 C 0.91749 0.68141 0.41722 0.0
C181 C 0.91083 0.69296 0.43923 0.0
C182 C 0.89374 0.68049 0.45356 0.0
C183 C 0.88853 0.64727 0.42304 0.0
C184 C 0.90634 0.65851 0.4097 0.0
C185 C 0.91136 0.64348 0.38703 0.0
H186 H 0.88027 0.54595 0.31018 0.0
C187 C 0.87953 0.62446 0.40964 0.0
C188 C 0.89317 0.62173 0.3888 0.0
H189 H 0.93668 0.60287 0.3029 0.0
H190 H 0.92831 0.62027 0.34241 0.0
H191 H 0.88939 0.53701 0.36818 0.0
H192 H 0.84318 0.58232 0.32927 0.0
H193 H 0.82686 0.5685 0.35259 0.0
H194 H 0.83854 0.54946 0.32893 0.0
H195 H 0.86354 0.52437 0.35124 0.0
H196 H 0.86195 0.53523 0.38266 0.0
C197 C 0.93709 0.63569 0.38929 0.0
C198 C 0.90647 0.65895 0.36455 0.0
C199 C 0.80292 0.5804 0.43548 0.0
C200 C 0.78926 0.55969 0.42601 0.0
C201 C 0.79783 0.54551 0.40665 0.0
C202 C 0.81951 0.55266 0.3961 0.0
C203 C 0.83256 0.57419 0.40506 0.0
C204 C 0.8245 0.58722 0.4249 0.0
C205 C 0.84094 0.60905 0.43267 0.0
C206 C 0.8598 0.60765 0.41354 0.0
C207 C 0.85465 0.58742 0.39723 0.0
C208 C 0.85086 0.60504 0.45878 0.0
C209 C 0.82714 0.63239 0.4305 0.0
C210 C 0.89084 0.56215 0.31707 0.0
C211 C 0.90914 0.57299 0.30324 0.0
C212 C 0.92268 0.59386 0.31319 0.0
C213 C 0.91764 0.60417 0.33609 0.0
C214 C 0.89864 0.59375 0.34915 0.0
C215 C 0.88583 0.57288 0.33979 0.0
C216 C 0.8658 0.56479 0.35588 0.0
C217 C 0.86877 0.58424 0.37645 0.0
C218 C 0.88798 0.60124 0.37233 0.0
C219 C 0.87015 0.53892 0.36492 0.0
C220 C 0.84228 0.56611 0.34104 0.0
H221 H 0.8694 0.64967 0.45707 0.0
H222 H 0.93061 0.69019 0.4057 0.0
H223 H 0.89032 0.66911 0.36717 0.0
H224 H 0.90293 0.64775 0.34753 0.0
H225 H 0.92151 0.67267 0.36166 0.0
H226 H 0.9423 0.63321 0.40871 0.0
H227 H 0.94991 0.64977 0.38197 0.0
H228 H 0.93936 0.61772 0.38002 0.0
H229 H 0.79668 0.59131 0.45062 0.0
H230 H 0.78741 0.52942 0.39925 0.0
H231 H 0.82501 0.54148 0.38105 0.0
H232 H 0.84893 0.58538 0.46355 0.0
H233 H 0.8415 0.61559 0.47281 0.0
H234 H 0.87015 0.61016 0.4606 0.0
H235 H 0.81727 0.63201 0.41266 0.0
H236 H 0.83866 0.64954 0.43125 0.0
H237 H 0.81409 0.63361 0.44526 0.0
H238 H 0.88883 0.68826 0.47102 0.0
C239 C 0.88255 0.65787 0.44555 0.0
C240 C 0.88576 0.8017 0.91918 0.0
C241 C 0.90674 0.79112 0.91249 0.0
C242 C 0.92071 0.80199 0.89431 0.0
C243 C 0.8924 0.83284 0.88886 0.0
C244 C 0.87914 0.82274 0.9074 0.0
C245 C 0.85795 0.8371 0.91285 0.0
H246 H 0.79211 0.93277 0.88736 0.0
C247 C 0.8803 0.85405 0.87974 0.0
C248 C 0.86021 0.85685 0.89395 0.0
H249 H 0.7801 0.87886 0.94265 0.0
H250 H 0.8148 0.85922 0.93037 0.0
H251 H 0.80099 0.89472 0.8466 0.0
H252 H 0.85055 0.93964 0.89262 0.0
H253 H 0.8595 0.9413 0.86201 0.0
H254 H 0.83106 0.95133 0.87021 0.0
H255 H 0.80993 0.92568 0.8393 0.0
H256 H 0.82619 0.90013 0.82902 0.0
C257 C 0.83528 0.81977 0.9084 0.0
C258 C 0.86113 0.84813 0.93927 0.0
C259 C 0.9101 0.8966 0.8038 0.0
C260 C 0.90109 0.91486 0.78932 0.0
C261 C 0.88087 0.92622 0.79745 0.0
C262 C 0.86978 0.91942 0.8191 0.0
C263 C 0.87861 0.90071 0.83284 0.0
C264 C 0.89849 0.88967 0.82516 0.0
C265 C 0.90477 0.8694 0.84154 0.0
C266 C 0.88507 0.86974 0.85996 0.0
C267 C 0.86997 0.88833 0.85493 0.0
C268 C 0.90345 0.8451 0.8259 0.0
C269 C 0.92938 0.87667 0.8537 0.0
C270 C 0.79675 0.91668 0.89684 0.0
C271 C 0.78316 0.90777 0.91634 0.0
C272 C 0.79032 0.88675 0.92804 0.0
C273 C 0.81049 0.87512 0.92074 0.0
C274 C 0.82376 0.88428 0.90126 0.0
C275 C 0.81669 0.90464 0.88956 0.0
C276 C 0.83214 0.91105 0.86836 0.0
C277 C 0.85012 0.89174 0.86981 0.0
C278 C 0.84519 0.87609 0.88917 0.0
C279 C 0.81665 0.90795 0.84453 0.0
C280 C 0.84392 0.93727 0.87333 0.0
H281 H 0.92492 0.8299 0.86852 0.0
H282 H 0.87493 0.79391 0.93341 0.0
H283 H 0.88001 0.8543 0.94339 0.0
H284 H 0.85134 0.86467 0.94237 0.0
H285 H 0.8556 0.83434 0.95283 0.0
H286 H 0.83716 0.80722 0.8922 0.0
H287 H 0.83173 0.80824 0.92439 0.0
H288 H 0.81944 0.82968 0.90423 0.0
H289 H 0.92576 0.88763 0.7986 0.0
H290 H 0.87305 0.93997 0.78675 0.0
H291 H 0.85447 0.92875 0.82407 0.0
H292 H 0.88795 0.84409 0.81294 0.0
H293 H 0.91963 0.84373 0.81497 0.0
H294 H 0.90094 0.82859 0.8368 0.0
H295 H 0.93214 0.89693 0.85686 0.0
H296 H 0.93137 0.86912 0.87203 0.0
H297 H 0.94388 0.87077 0.84202 0.0
H298 H 0.93698 0.79417 0.88903 0.0
C299 C 0.91363 0.82268 0.88241 0.0
C300 C 0.71618 0.12489 0.42854 0.0
C301 C 0.72892 0.10633 0.41793 0.0
C302 C 0.71988 0.09345 0.39662 0.0
C303 C 0.68598 0.118 0.39627 0.0
C304 C 0.69488 0.13058 0.41726 0.0
C305 C 0.67984 0.15096 0.42499 0.0
H306 H 0.58311 0.21428 0.40519 0.0
C307 C 0.66391 0.12879 0.38876 0.0
C308 C 0.66018 0.1481 0.40548 0.0
H309 H 0.63842 0.22878 0.46053 0.0
H310 H 0.65804 0.19344 0.4458 0.0
H311 H 0.57753 0.15603 0.40786 0.0
H312 H 0.61969 0.2032 0.36183 0.0
H313 H 0.60612 0.17889 0.34341 0.0
H314 H 0.58793 0.19952 0.35947 0.0
H315 H 0.56476 0.17069 0.38243 0.0
H316 H 0.57724 0.14131 0.37879 0.0
C317 C 0.67046 0.14554 0.45072 0.0
C318 C 0.69495 0.17571 0.42356 0.0
C319 C 0.61908 0.09581 0.31176 0.0
C320 C 0.59815 0.10204 0.30001 0.0
C321 C 0.58484 0.12009 0.31098 0.0
C322 C 0.59272 0.13233 0.33297 0.0
C323 C 0.61411 0.12642 0.34412 0.0
C324 C 0.62663 0.10809 0.33373 0.0
C325 C 0.64869 0.10385 0.3483 0.0
C326 C 0.64764 0.12302 0.36891 0.0
C327 C 0.62747 0.13629 0.36629 0.0
C328 C 0.64607 0.07738 0.35768 0.0
C329 C 0.67033 0.1092 0.33195 0.0
C330 C 0.59931 0.20954 0.4142 0.0
C331 C 0.60925 0.22391 0.43411 0.0
C332 C 0.63056 0.21773 0.44519 0.0
C333 C 0.64188 0.19729 0.43658 0.0
C334 C 0.63197 0.18319 0.41639 0.0
C335 C 0.6111 0.18947 0.40547 0.0
C336 C 0.60389 0.17321 0.38341 0.0
C337 C 0.6237 0.15592 0.38312 0.0
C338 C 0.64004 0.16184 0.40251 0.0
C339 C 0.57952 0.15964 0.38812 0.0
C340 C 0.60421 0.18939 0.36074 0.0
H341 H 0.69249 0.08865 0.36956 0.0
H342 H 0.72305 0.13528 0.44472 0.0
H343 H 0.70874 0.17463 0.40948 0.0
H344 H 0.68442 0.19088 0.41786 0.0
H345 H 0.70417 0.18098 0.44131 0.0
H346 H 0.66483 0.12569 0.45197 0.0
H347 H 0.68442 0.15028 0.46505 0.0
H348 H 0.65465 0.15534 0.4552 0.0
H349 H 0.62949 0.08176 0.30392 0.0
H350 H 0.56868 0.12522 0.30218 0.0
H351 H 0.58203 0.14617 0.34024 0.0
H352 H 0.62734 0.0721 0.36211 0.0
H353 H 0.65155 0.06385 0.34367 0.0
H354 H 0.65619 0.07531 0.37487 0.0
H355 H 0.66718 0.12427 0.3194 0.0
H356 H 0.68658 0.1157 0.34249 0.0
H357 H 0.67394 0.09274 0.32052 0.0
H358 H 0.72959 0.07908 0.38826 0.0
C359 C 0.6984 0.09905 0.38583 0.0
C360 C 0.41092 0.62347 0.22214 0.0
C361 C 0.40122 0.60226 0.23289 0.0
C362 C 0.38301 0.58747 0.22055 0.0
C363 C 0.38307 0.61603 0.18792 0.0
C364 C 0.40178 0.62982 0.19951 0.0
C365 C 0.40969 0.65197 0.18555 0.0
H366 H 0.39029 0.72585 0.09225 0.0
C367 C 0.37677 0.62832 0.16551 0.0
C368 C 0.39257 0.64913 0.16372 0.0
H369 H 0.4419 0.73748 0.15162 0.0
H370 H 0.43035 0.69733 0.16649 0.0
H371 H 0.34816 0.70298 0.12649 0.0
H372 H 0.39782 0.67153 0.07849 0.0
H373 H 0.37309 0.65008 0.07823 0.0
H374 H 0.3699 0.68044 0.06709 0.0
H375 H 0.34921 0.70712 0.09412 0.0
H376 H 0.33297 0.6812 0.10613 0.0
C377 C 0.40611 0.67527 0.20176 0.0
C378 C 0.43559 0.64934 0.17789 0.0
C379 C 0.30038 0.60143 0.11847 0.0
C380 C 0.29019 0.60947 0.09675 0.0
C381 C 0.30355 0.62639 0.08274 0.0
C382 C 0.32578 0.63651 0.09108 0.0
C383 C 0.33482 0.62973 0.11368 0.0
C384 C 0.32281 0.61158 0.12638 0.0
C385 C 0.33658 0.6049 0.14871 0.0
C386 C 0.35801 0.62334 0.14803 0.0
C387 C 0.35644 0.63823 0.12783 0.0
C388 C 0.32144 0.60943 0.1714 0.0
C389 C 0.34335 0.57799 0.14514 0.0
C390 C 0.39926 0.71951 0.10827 0.0
C391 C 0.41689 0.73464 0.12091 0.0
C392 C 0.42808 0.72607 0.14182 0.0
C393 C 0.42136 0.70281 0.15036 0.0
C394 C 0.40294 0.68826 0.13811 0.0
C395 C 0.39238 0.69658 0.1173 0.0
C396 C 0.37227 0.67932 0.10741 0.0
C397 C 0.37245 0.65923 0.12583 0.0
C398 C 0.39039 0.66464 0.14374 0.0
C399 C 0.34937 0.69322 0.10842 0.0
C400 C 0.37839 0.66989 0.08141 0.0
H401 H 0.35955 0.58272 0.18983 0.0
H402 H 0.42506 0.635 0.23131 0.0
H403 H 0.4382 0.63001 0.17207 0.0
H404 H 0.44057 0.66033 0.16202 0.0
H405 H 0.44823 0.65456 0.19334 0.0
H406 H 0.39158 0.67188 0.21484 0.0
H407 H 0.42244 0.68128 0.21266 0.0
H408 H 0.4006 0.69078 0.19111 0.0
H409 H 0.29093 0.58809 0.12947 0.0
H410 H 0.29674 0.63206 0.06535 0.0
H411 H 0.33489 0.64959 0.07984 0.0
H412 H 0.31432 0.62788 0.171 0.0
H413 H 0.30617 0.5955 0.17187 0.0
H414 H 0.33156 0.609 0.1888 0.0
H415 H 0.34169 0.57141 0.12566 0.0
H416 H 0.36212 0.57596 0.15041 0.0
H417 H 0.33179 0.56522 0.15576 0.0
H418 H 0.37529 0.57109 0.22875 0.0
C419 C 0.37384 0.59428 0.19809 0.0
C420 C 0.07229 0.3245 0.59179 0.0
C421 C 0.07995 0.31177 0.57101 0.0
C422 C 0.09886 0.32245 0.55777 0.0
C423 C 0.10352 0.35675 0.58732 0.0
C424 C 0.08428 0.34679 0.59959 0.0
C425 C 0.07928 0.36168 0.62223 0.0
H426 H 0.11371 0.45233 0.70507 0.0
C427 C 0.11316 0.37903 0.60141 0.0
C428 C 0.09889 0.38212 0.62173 0.0
H429 H 0.05382 0.3988 0.70689 0.0
H430 H 0.06205 0.3837 0.66633 0.0
H431 H 0.10631 0.46527 0.64488 0.0
H432 H 0.14867 0.41704 0.68489 0.0
H433 H 0.16618 0.42915 0.6616 0.0
H434 H 0.15585 0.44958 0.68497 0.0
H435 H 0.13056 0.4763 0.665 0.0
H436 H 0.13521 0.46748 0.63351 0.0
C437 C 0.05441 0.37148 0.61898 0.0
C438 C 0.08204 0.3452 0.64448 0.0
C439 C 0.19054 0.42285 0.57661 0.0
C440 C 0.20522 0.4421 0.58762 0.0
C441 C 0.19773 0.45453 0.60869 0.0
C442 C 0.17589 0.44757 0.61896 0.0
C443 C 0.16171 0.42758 0.60833 0.0
C444 C 0.16903 0.41577 0.58735 0.0
C445 C 0.15231 0.39427 0.57917 0.0
C446 C 0.13359 0.39523 0.59848 0.0
C447 C 0.13927 0.41463 0.61567 0.0
C448 C 0.14222 0.39912 0.55339 0.0
C449 C 0.16594 0.37071 0.58054 0.0
C450 C 0.10221 0.43765 0.69641 0.0
C451 C 0.08322 0.42652 0.70906 0.0
C452 C 0.06869 0.40737 0.69747 0.0
C453 C 0.07355 0.39862 0.67396 0.0
C454 C 0.09344 0.40881 0.66207 0.0
C455 C 0.1071 0.42838 0.67298 0.0
C456 C 0.12799 0.43621 0.65778 0.0
C457 C 0.12474 0.41782 0.63622 0.0
C458 C 0.10451 0.40182 0.63897 0.0
C459 C 0.12512 0.46277 0.64991 0.0
C460 C 0.15096 0.43307 0.67298 0.0
H461 H 0.12526 0.35178 0.55526 0.0
H462 H 0.0576 0.31695 0.60217 0.0
H463 H 0.09639 0.33257 0.64159 0.0
H464 H 0.08736 0.35564 0.66159 0.0
H465 H 0.06543 0.33371 0.64748 0.0
H466 H 0.05044 0.37496 0.59946 0.0
H467 H 0.04031 0.35808 0.62517 0.0
H468 H 0.05291 0.38939 0.62868 0.0
H469 H 0.19619 0.41284 0.56059 0.0
H470 H 0.209 0.46937 0.6174 0.0
H471 H 0.17117 0.4576 0.63512 0.0
H472 H 0.14066 0.41909 0.55104 0.0
H473 H 0.15385 0.3925 0.53888 0.0
H474 H 0.12404 0.39063 0.55011 0.0
H475 H 0.17788 0.37162 0.59705 0.0
H476 H 0.15426 0.35386 0.58231 0.0
H477 H 0.17706 0.36841 0.56428 0.0
H478 H 0.10518 0.31295 0.54176 0.0
C479 C 0.11064 0.34489 0.56578 0.0
O480 O 0.01735 0.99124 0.56149 0.0
Mg481 Mg 0.0305 0.01754 0.53666 0.0
O482 O 0.98617 0.98656 0.53698 0.0
Mg483 Mg 0.00303 0.00205 0.50106 0.0
O484 O 0.0116 0.0425 0.51878 0.0
O485 O 0.03097 0.04989 0.55496 0.0
O486 O 0.01969 0.01937 0.46453 0.0
O487 O 0.96646 0.01817 0.49393 0.0
Mg488 Mg 0.98219 0.98089 0.45477 0.0
O489 O 0.99124 0.96247 0.48489 0.0
O490 O 0.00968 0.99351 0.43357 0.0
O491 O 0.95362 0.00305 0.45761 0.0
O492 O 0.97425 0.94459 0.45042 0.0
C493 C 0.06111 0.99333 0.51164 0.0
C494 C 0.99627 0.9828 0.55739 0.0
C495 C 0.0191 0.05756 0.53679 0.0
C496 C 0.02119 0.0127 0.44194 0.0
C497 C 0.95125 0.01682 0.47631 0.0
C498 C 0.98328 0.94288 0.4721 0.0
O499 O 0.06348 0.01418 0.52221 0.0
O500 O 0.04025 0.98376 0.50641 0.0
O501 O 0.47379 0.06022 0.03283 0.0
Mg502 Mg 0.50985 0.0591 0.0271 0.0
O503 O 0.46816 0.02362 0.01473 0.0
Mg504 Mg 0.50699 0.01338 0.00241 0.0
O505 O 0.52146 0.05336 0.99248 0.0
O506 O 0.52277 0.09003 0.01297 0.0
O507 O 0.54758 0.00621 0.98982 0.0
O508 O 0.49091 0.01171 0.96288 0.0
Mg509 Mg 0.51664 0.97379 0.98609 0.0
O510 O 0.49015 0.97328 0.01093 0.0
O511 O 0.55 0.96865 0.0011 0.0
O512 O 0.51436 0.98459 0.94922 0.0
O513 O 0.49749 0.94153 0.98571 0.0
C514 C 0.53264 0.02845 0.05867 0.0
C515 C 0.45987 0.04221 0.02559 0.0
C516 C 0.5272 0.07691 0.99379 0.0
C517 C 0.5603 0.98841 0.9946 0.0
C518 C 0.49929 -9e-05 0.94506 0.0
C519 C 0.48605 0.95039 0.00363 0.0
O520 O 0.53211 0.05106 0.05538 0.0
O521 O 0.52279 0.01273 0.04311 0.0
O522 O 0.48736 0.55613 0.55004 0.0
Mg523 Mg 0.48209 0.51899 0.55855 0.0
O524 O 0.48879 0.54663 0.51035 0.0
Mg525 Mg 0.49855 0.50625 0.50329 0.0
O526 O 0.50738 0.50012 0.54268 0.0
O527 O 0.5043 0.50328 0.5829 0.0
O528 O 0.50873 0.46618 0.49426 0.0
O529 O 0.53873 0.52106 0.50192 0.0
Mg530 Mg 0.52139 0.50575 0.45201 0.0
O531 O 0.48886 0.51252 0.46374 0.0
O532 O 0.52669 0.46889 0.45864 0.0
O533 O 0.54698 0.5328 0.46475 0.0
O534 O 0.49883 0.51375 0.42459 0.0
C535 C 0.44444 0.49034 0.52517 0.0
C536 C 0.48716 0.56229 0.52798 0.0
C537 C 0.51458 0.49452 0.56407 0.0
C538 C 0.51973 0.45647 0.47662 0.0
C539 C 0.55266 0.53199 0.48712 0.0
C540 C 0.48328 0.5161 0.44123 0.0
O541 O 0.45011 0.49957 0.54633 0.0
O542 O 0.45879 0.49138 0.50741 0.0
O543 O 0.03437 0.47105 0.04479 0.0
Mg544 Mg 0.02434 0.50712 0.04716 0.0
O545 O 0.01166 0.4665 0.01172 0.0
Mg546 Mg 0.00105 0.50798 0.00752 0.0
O547 O 0.98972 0.51508 0.04963 0.0
O548 O 0.01467 0.51016 0.08141 0.0
O549 O 0.98838 0.55024 0.00798 0.0
O550 O 0.96242 0.49203 0.00279 0.0
Mg551 Mg 0.99157 0.52708 0.97237 0.0
O552 O 0.01137 0.49846 0.96502 0.0
O553 O 0.00884 0.56269 0.97745 0.0
O554 O 0.95456 0.52166 0.97877 0.0
O555 O 0.99399 0.52052 0.9367 0.0
C556 C 0.05471 0.53628 0.02317 0.0
C557 C 0.02503 0.45739 0.02765 0.0
C558 C 0.99441 0.51577 0.07312 0.0
C559 C 0.99663 0.56801 0.99545 0.0
C560 C 0.94739 0.50368 0.99123 0.0
C561 C 0.00794 0.50389 0.94224 0.0
O562 O 0.04933 0.53649 0.04523 0.0
O563 O 0.04101 0.52421 0.00764 0.0
H564 H 0.05965 0.09026 0.23059 0.0
H565 H 0.04831 0.07622 0.27091 0.0
H566 H 0.12022 0.09245 0.29779 0.0
H567 H 0.13177 0.10551 0.25716 0.0
H568 H 0.10297 0.05168 0.31649 0.0
H569 H 0.07317 0.13227 0.30797 0.0
H570 H 0.05011 0.16236 0.2871 0.0
H571 H 0.98651 0.11549 0.29359 0.0
H572 H 0.00923 0.08499 0.3142 0.0
H573 H 0.06667 0.03544 0.44023 0.0
H574 H 0.08394 0.05613 0.40465 0.0
H575 H 0.01615 0.04584 0.36646 0.0
H576 H 0.99913 0.02611 0.40159 0.0
H577 H 0.03495 0.0878 0.35609 0.0
H578 H 0.06175 0.00608 0.35877 0.0
H579 H 0.08219 0.97242 0.37681 0.0
H580 H 0.14793 0.01697 0.3787 0.0
H581 H 0.12778 0.05105 0.36097 0.0
C582 C 0.07302 0.09073 0.2451 0.0
C583 C 0.09654 0.09915 0.24079 0.0
C584 C 0.06653 0.08282 0.26821 0.0
C585 C 0.08326 0.08386 0.28771 0.0
C586 C 0.10693 0.09158 0.28318 0.0
C587 C 0.11352 0.09904 0.25994 0.0
C588 C 0.07605 0.07736 0.31288 0.0
C589 C 0.08835 0.05991 0.32531 0.0
C590 C 0.05665 0.08764 0.32434 0.0
C591 C 0.04293 0.10632 0.31254 0.0
C592 C 0.05428 0.12837 0.3049 0.0
C593 C 0.04127 0.14549 0.29309 0.0
C594 C 0.01687 0.14083 0.289 0.0
C595 C 0.0054 0.11908 0.29677 0.0
C596 C 0.01833 0.1019 0.30855 0.0
C597 C 0.05548 0.03828 0.42442 0.0
C598 C 0.03163 0.02915 0.42356 0.0
C599 C 0.06535 0.04981 0.40401 0.0
C600 C 0.05143 0.05225 0.38261 0.0
C601 C 0.02734 0.04428 0.38257 0.0
C602 C 0.01762 0.03291 0.40271 0.0
C603 C 0.06157 0.06178 0.35955 0.0
C604 C 0.04984 0.07985 0.34748 0.0
C605 C 0.08109 0.05164 0.34821 0.0
C606 C 0.09321 0.03122 0.35888 0.0
C607 C 0.08052 0.00877 0.36323 0.0
C608 C 0.09206 0.9896 0.37336 0.0
C609 C 0.11633 0.99259 0.37898 0.0
C610 C 0.12912 0.01472 0.37441 0.0
C611 C 0.11765 0.03397 0.36433 0.0
H612 H 0.12523 0.97772 0.38681 0.0
H613 H 0.00684 0.15408 0.27983 0.0
H614 H 0.45701 0.94001 0.71929 0.0
H615 H 0.47055 0.95873 0.75896 0.0
H616 H 0.40213 0.93881 0.78872 0.0
H617 H 0.38831 0.92112 0.74872 0.0
H618 H 0.41641 0.98198 0.80573 0.0
H619 H 0.45246 0.90548 0.79886 0.0
H620 H 0.4761 0.87407 0.77986 0.0
H621 H 0.53749 0.9252 0.78263 0.0
H622 H 0.51411 0.95702 0.80135 0.0
H623 H 0.45313 0.99096 0.93179 0.0
H624 H 0.43728 0.98081 0.8905 0.0
H625 H 0.50627 0.99941 0.86132 0.0
H626 H 0.52242 0.00761 0.90293 0.0
H627 H 0.49117 0.95775 0.84368 0.0
H628 H 0.45269 0.03418 0.8535 0.0
H629 H 0.42749 0.06252 0.87506 0.0
H630 H 0.36879 0.00808 0.86934 0.0
H631 H 0.39371 0.97933 0.84803 0.0
C632 C 0.44492 0.93974 0.73434 0.0
C633 C 0.42169 0.92911 0.73108 0.0
C634 C 0.45265 0.95032 0.75701 0.0
C635 C 0.43751 0.94979 0.77702 0.0
C636 C 0.41415 0.93947 0.77361 0.0
C637 C 0.40627 0.92934 0.7508 0.0
C638 C 0.44607 0.95971 0.80155 0.0
C639 C 0.43269 0.97656 0.81411 0.0
C640 C 0.46738 0.95283 0.81248 0.0
C641 C 0.48147 0.9337 0.80126 0.0
C642 C 0.47095 0.91007 0.79525 0.0
C643 C 0.48431 0.89219 0.78455 0.0
C644 C 0.50826 0.89766 0.77998 0.0
C645 C 0.51892 0.921 0.78615 0.0
C646 C 0.50563 0.93896 0.79681 0.0
C647 C 0.46466 0.99359 0.91643 0.0
C648 C 0.48887 0.00032 0.92032 0.0
C649 C 0.4556 0.98784 0.89279 0.0
C650 C 0.47046 0.98961 0.87258 0.0
C651 C 0.49442 0.99783 0.87653 0.0
C652 C 0.50362 0.00276 0.90022 0.0
C653 C 0.46181 0.9805 0.84776 0.0
C654 C 0.47508 0.96354 0.8352 0.0
C655 C 0.44021 0.98699 0.83707 0.0
C656 C 0.42511 0.00457 0.8493 0.0
C657 C 0.43443 0.02824 0.85691 0.0
C658 C 0.42019 0.04437 0.86909 0.0
C659 C 0.39657 0.03709 0.8736 0.0
C660 C 0.38709 0.01371 0.86584 0.0
C661 C 0.40125 0.9975 0.85368 0.0
H662 H 0.3856 0.04959 0.88309 0.0
H663 H 0.51858 0.88379 0.7717 0.0
H664 H 0.55642 0.42782 0.75686 0.0
H665 H 0.54787 0.43245 0.71324 0.0
H666 H 0.62209 0.4503 0.70151 0.0
H667 H 0.63095 0.44498 0.74467 0.0
H668 H 0.5882 0.48325 0.68153 0.0
H669 H 0.59951 0.39409 0.6865 0.0
H670 H 0.58751 0.35372 0.70297 0.0
H671 H 0.51643 0.35889 0.67553 0.0
H672 H 0.52794 0.39935 0.65916 0.0
H673 H 0.56269 0.50189 0.56333 0.0
H674 H 0.58761 0.48233 0.59293 0.0
H675 H 0.52867 0.43031 0.60691 0.0
H676 H 0.50521 0.44811 0.57579 0.0
H677 H 0.56097 0.41299 0.62548 0.0
H678 H 0.5368 0.49514 0.63132 0.0
H679 H 0.53449 0.53868 0.62168 0.0
H680 H 0.6093 0.55206 0.63608 0.0
H681 H 0.6121 0.50846 0.64538 0.0
C682 C 0.57092 0.43261 0.74497 0.0
C683 C 0.59436 0.43613 0.75426 0.0
C684 C 0.56601 0.43524 0.72012 0.0
C685 C 0.58444 0.44144 0.7043 0.0
C686 C 0.6077 0.44546 0.71355 0.0
C687 C 0.61265 0.44266 0.73826 0.0
C688 C 0.5796 0.44433 0.67809 0.0
C689 C 0.58259 0.46792 0.66905 0.0
C690 C 0.5711 0.42442 0.66238 0.0
C691 C 0.5646 0.39975 0.67166 0.0
C692 C 0.58133 0.38662 0.68404 0.0
C693 C 0.5746 0.36373 0.69336 0.0
C694 C 0.55123 0.35375 0.6903 0.0
C695 C 0.53453 0.36661 0.67786 0.0
C696 C 0.54117 0.38949 0.66852 0.0
C697 C 0.55589 0.48507 0.57139 0.0
C698 C 0.53202 0.47668 0.56797 0.0
C699 C 0.56989 0.47421 0.58874 0.0
C700 C 0.55949 0.45599 0.60347 0.0
C701 C 0.53713 0.44475 0.59643 0.0
C702 C 0.52361 0.45488 0.57844 0.0
C703 C 0.5689 0.45227 0.62855 0.0
C704 C 0.56695 0.42847 0.63759 0.0
C705 C 0.57621 0.47241 0.64488 0.0
C706 C 0.57474 0.49845 0.63854 0.0
C707 C 0.55279 0.50732 0.63216 0.0
C708 C 0.55139 0.53201 0.62679 0.0
C709 C 0.57176 0.5481 0.62814 0.0
C710 C 0.59357 0.53954 0.63489 0.0
C711 C 0.59509 0.51483 0.64014 0.0
H712 H 0.57063 0.56723 0.62407 0.0
H713 H 0.54605 0.33605 0.69757 0.0
H714 H 0.87579 0.55543 0.26852 0.0
H715 H 0.88218 0.54473 0.22554 0.0
H716 H 0.95743 0.56023 0.23719 0.0
H717 H 0.95144 0.5699 0.28039 0.0
H718 H 0.93504 0.58696 0.19905 0.0
H719 H 0.94059 0.50494 0.22825 0.0
H720 H 0.9263 0.46729 0.24848 0.0
H721 H 0.86694 0.45766 0.19792 0.0
H722 H 0.88074 0.49548 0.17757 0.0
H723 H 0.00727 0.54276 0.11343 0.0
H724 H 0.98316 0.55373 0.14729 0.0
H725 H 0.92055 0.52172 0.10837 0.0
H726 H 0.94534 0.50986 0.07383 0.0
H727 H 0.92457 0.50566 0.15523 0.0
H728 H 0.92658 0.58447 0.12051 0.0
H729 H 0.94471 0.62063 0.10043 0.0
H730 H 0.99278 0.63577 0.1618 0.0
H731 H 0.97517 0.59959 0.18215 0.0
C732 C 0.89378 0.55592 0.26216 0.0
C733 C 0.91311 0.56378 0.27791 0.0
C734 C 0.89733 0.54993 0.23755 0.0
C735 C 0.92021 0.55192 0.22829 0.0
C736 C 0.9396 0.55882 0.24407 0.0
C737 C 0.93612 0.56448 0.2687 0.0
C738 C 0.92402 0.54868 0.20185 0.0
C739 C 0.93269 0.56923 0.18937 0.0
C740 C 0.92001 0.52571 0.18918 0.0
C741 C 0.91147 0.50326 0.20167 0.0
C742 C 0.92431 0.49499 0.22166 0.0
C743 C 0.91635 0.47356 0.23309 0.0
C744 C 0.89566 0.46015 0.22457 0.0
C745 C 0.88292 0.46811 0.20456 0.0
C746 C 0.8908 0.48954 0.19307 0.0
C747 C 0.98831 0.53826 0.1118 0.0
C748 C 0.97815 0.52524 0.09113 0.0
C749 C 0.97448 0.54483 0.13114 0.0
C750 C 0.94999 0.53894 0.13024 0.0
C751 C 0.93944 0.52663 0.10925 0.0
C752 C 0.9535 0.51999 0.08958 0.0
C753 C 0.93658 0.5438 0.15258 0.0
C754 C 0.92605 0.52362 0.1645 0.0
C755 C 0.93906 0.56715 0.16487 0.0
C756 C 0.94945 0.5893 0.15289 0.0
C757 C 0.94104 0.59548 0.12972 0.0
C758 C 0.95124 0.61599 0.11828 0.0
C759 C 0.96986 0.6305 0.12984 0.0
C760 C 0.9783 0.62456 0.15289 0.0
C761 C 0.96815 0.6041 0.16443 0.0
H762 H 0.97776 0.64634 0.12093 0.0
H763 H 0.88955 0.44355 0.23341 0.0
H764 H 0.23847 0.05329 0.08712 0.0
H765 H 0.27537 0.03916 0.07131 0.0
H766 H 0.30381 0.11431 0.0676 0.0
H767 H 0.26683 0.12856 0.08326 0.0
H768 H 0.31594 0.08914 0.02864 0.0
H769 H 0.31877 0.07695 0.11488 0.0
H770 H 0.30448 0.0613 0.15397 0.0
H771 H 0.30569 0.98718 0.12534 0.0
H772 H 0.31969 0.00242 0.08593 0.0
H773 H 0.43818 0.08326 0.03815 0.0
H774 H 0.39682 0.08765 0.04643 0.0
H775 H 0.38086 0.01018 0.03123 0.0
H776 H 0.42303 0.00545 0.0227 0.0
H777 H 0.36029 0.03078 0.07597 0.0
H778 H 0.36304 0.0458 0.99023 0.0
H779 H 0.38035 0.06435 0.95371 0.0
H780 H 0.37128 0.13644 0.98435 0.0
H781 H 0.35418 0.11832 0.0212 0.0
C782 C 0.25259 0.06684 0.08297 0.0
C783 C 0.24972 0.09209 0.08668 0.0
C784 C 0.27372 0.05871 0.07393 0.0
C785 C 0.29264 0.0756 0.06861 0.0
C786 C 0.28954 0.10085 0.07156 0.0
C787 C 0.26833 0.10901 0.08047 0.0
C788 C 0.31579 0.06706 0.06044 0.0
C789 C 0.3256 0.07644 0.03908 0.0
C790 C 0.32835 0.05006 0.07369 0.0
C791 C 0.31999 0.04083 0.09736 0.0
C792 C 0.3158 0.05732 0.11686 0.0
C793 C 0.30779 0.04852 0.13908 0.0
C794 C 0.3041 0.02326 0.14211 0.0
C795 C 0.3085 0.00674 0.12294 0.0
C796 C 0.31648 0.01545 0.10066 0.0
C797 C 0.42604 0.06699 0.03647 0.0
C798 C 0.43408 0.04394 0.0297 0.0
C799 C 0.40227 0.06962 0.04118 0.0
C800 C 0.38567 0.04934 0.03928 0.0
C801 C 0.39341 0.02612 0.03272 0.0
C802 C 0.41745 0.02346 0.02774 0.0
C803 C 0.3604 0.05308 0.04439 0.0
C804 C 0.35028 0.04298 0.06526 0.0
C805 C 0.34769 0.06972 0.03093 0.0
C806 C 0.3574 0.08069 0.00852 0.0
C807 C 0.36482 0.06561 0.98922 0.0
C808 C 0.37459 0.07605 0.96846 0.0
C809 C 0.37694 0.10156 0.96673 0.0
C810 C 0.36943 0.11668 0.98571 0.0
C811 C 0.35965 0.10633 0.00652 0.0
H812 H 0.38456 0.1096 0.95066 0.0
H813 H 0.2979 0.01649 0.15933 0.0
H814 H 0.24223 0.88259 0.58421 0.0
H815 H 0.20333 0.89175 0.56785 0.0
H816 H 0.2307 0.96589 0.55494 0.0
H817 H 0.26923 0.95699 0.57234 0.0
H818 H 0.19029 0.96698 0.57508 0.0
H819 H 0.21918 0.91813 0.50778 0.0
H820 H 0.23462 0.88109 0.48877 0.0
H821 H 0.17254 0.83774 0.50963 0.0
H822 H 0.15686 0.87449 0.52899 0.0
H823 H 0.10514 0.01096 0.50084 0.0
H824 H 0.1419 0.99226 0.51051 0.0
H825 H 0.10192 0.92611 0.53055 0.0
H826 H 0.06482 0.94475 0.52041 0.0
H827 H 0.14593 0.91759 0.50883 0.0
H828 H 0.11616 0.96653 0.57394 0.0
H829 H 0.10053 0.00325 0.59334 0.0
H830 H 0.16451 0.04612 0.57736 0.0
H831 H 0.18037 0.00974 0.55749 0.0
C832 C 0.23986 0.90078 0.57774 0.0
C833 C 0.25858 0.91914 0.5795 0.0
C834 C 0.21771 0.90596 0.56826 0.0
C835 C 0.21413 0.92941 0.5598 0.0
C836 C 0.233 0.94766 0.56137 0.0
C837 C 0.25497 0.94262 0.57128 0.0
C838 C 0.19056 0.93547 0.55028 0.0
C839 C 0.18082 0.95634 0.56035 0.0
C840 C 0.17761 0.92101 0.53178 0.0
C841 C 0.18698 0.89899 0.52002 0.0
C842 C 0.20891 0.90066 0.50844 0.0
C843 C 0.21768 0.87973 0.49758 0.0
C844 C 0.2046 0.85706 0.49805 0.0
C845 C 0.18267 0.8553 0.5093 0.0
C846 C 0.17382 0.87617 0.5202 0.0
C847 C 0.10422 0.9921 0.50647 0.0
C848 C 0.08225 0.97931 0.51008 0.0
C849 C 0.12519 0.98151 0.51213 0.0
C850 C 0.12453 0.9581 0.52185 0.0
C851 C 0.10271 0.94429 0.52321 0.0
C852 C 0.08159 0.95486 0.51729 0.0
C853 C 0.14635 0.94954 0.53301 0.0
C854 C 0.15555 0.92816 0.52351 0.0
C855 C 0.15887 0.96349 0.55209 0.0
C856 C 0.14934 0.98545 0.564 0.0
C857 C 0.1268 0.98384 0.57435 0.0
C858 C 0.11792 0.00459 0.58547 0.0
C859 C 0.13149 0.02702 0.58652 0.0
C860 C 0.154 0.02874 0.5765 0.0
C861 C 0.16295 0.00806 0.56531 0.0
H862 H 0.12458 0.04307 0.59515 0.0
H863 H 0.21144 0.84088 0.48964 0.0
H864 H 0.75037 0.39045 0.92512 0.0
H865 H 0.78977 0.40557 0.94057 0.0
H866 H 0.77222 0.48013 0.93062 0.0
H867 H 0.73245 0.46521 0.91567 0.0
H868 H 0.81869 0.4688 0.91462 0.0
H869 H 0.76894 0.46123 0.98489 0.0
H870 H 0.74012 0.43852 0.01033 0.0
H871 H 0.78958 0.38385 0.02213 0.0
H872 H 0.81859 0.40607 0.99643 0.0
H873 H 0.91071 0.53123 0.98119 0.0
H874 H 0.86979 0.51646 0.97138 0.0
H875 H 0.8859 0.44282 0.98814 0.0
H876 H 0.92698 0.45766 0.99857 0.0
H877 H 0.84014 0.45294 0.00083 0.0
H878 H 0.88952 0.4585 0.93124 0.0
H879 H 0.91886 0.479 0.90475 0.0
H880 H 0.87105 0.53457 0.89017 0.0
H881 H 0.84153 0.51457 0.9169 0.0
C882 C 0.75481 0.41008 0.92636 0.0
C883 C 0.73818 0.42666 0.91954 0.0
C884 C 0.77736 0.41865 0.93501 0.0
C885 C 0.78369 0.44393 0.93693 0.0
C886 C 0.76755 0.46054 0.92923 0.0
C887 C 0.7449 0.45198 0.92068 0.0
C888 C 0.80682 0.45298 0.94803 0.0
C889 C 0.82329 0.46567 0.93354 0.0
C890 C 0.81293 0.44817 0.9725 0.0
C891 C 0.79586 0.43522 0.98861 0.0
C892 C 0.77362 0.44431 0.99283 0.0
C893 C 0.75726 0.43153 0.00729 0.0
C894 C 0.763 0.40973 0.0178 0.0
C895 C 0.78516 0.40073 0.01396 0.0
C896 C 0.80158 0.41343 0.99948 0.0
C897 C 0.90542 0.51198 0.98329 0.0
C898 C 0.92204 0.49547 0.99019 0.0
C899 C 0.88207 0.50358 0.97769 0.0
C900 C 0.87506 0.47849 0.97847 0.0
C901 C 0.89108 0.46225 0.9873 0.0
C902 C 0.9145 0.47072 0.99322 0.0
C903 C 0.85194 0.46905 0.9675 0.0
C904 C 0.83552 0.45618 0.98194 0.0
C905 C 0.84596 0.4734 0.94284 0.0
C906 C 0.86339 0.48515 0.92623 0.0
C907 C 0.8853 0.47516 0.92248 0.0
C908 C 0.90197 0.48668 0.90742 0.0
C909 C 0.89684 0.5081 0.89582 0.0
C910 C 0.875 0.51798 0.89918 0.0
C911 C 0.85828 0.50655 0.91427 0.0
H912 H 0.90978 0.51702 0.88419 0.0
H913 H 0.75029 0.39983 0.02896 0.0
H914 H 0.7737 0.52089 0.45284 0.0
H915 H 0.73515 0.51516 0.47252 0.0
H916 H 0.71316 0.58079 0.43961 0.0
H917 H 0.75182 0.58688 0.42087 0.0
H918 H 0.70276 0.58206 0.48531 0.0
H919 H 0.69247 0.52153 0.41899 0.0
H920 H 0.70213 0.48533 0.39396 0.0
H921 H 0.69521 0.44041 0.45651 0.0
H922 H 0.68576 0.47646 0.48199 0.0
H923 H 0.57966 0.5703 0.47049 0.0
H924 H 0.62274 0.57465 0.47099 0.0
H925 H 0.6252 0.51362 0.51863 0.0
H926 H 0.58169 0.50914 0.51808 0.0
H927 H 0.64853 0.50671 0.47564 0.0
H928 H 0.64983 0.57027 0.53862 0.0
H929 H 0.63598 0.60782 0.55822 0.0
H930 H 0.65615 0.64882 0.49563 0.0
H931 H 0.66992 0.6115 0.47557 0.0
C932 C 0.76041 0.53381 0.44969 0.0
C933 C 0.76544 0.55426 0.43544 0.0
C934 C 0.73847 0.53058 0.46089 0.0
C935 C 0.72126 0.54757 0.45755 0.0
C936 C 0.72622 0.56759 0.44265 0.0
C937 C 0.74816 0.57098 0.43182 0.0
C938 C 0.69819 0.5451 0.46986 0.0
C939 C 0.6909 0.56556 0.48319 0.0
C940 C 0.68296 0.52338 0.46769 0.0
C941 C 0.68878 0.50174 0.45247 0.0
C942 C 0.69324 0.50398 0.42746 0.0
C943 C 0.69862 0.48349 0.41318 0.0
C944 C 0.69939 0.46061 0.42366 0.0
C945 C 0.69468 0.45816 0.44843 0.0
C946 C 0.68931 0.47861 0.4628 0.0
C947 C 0.58937 0.55846 0.48189 0.0
C948 C 0.57743 0.53941 0.49422 0.0
C949 C 0.61402 0.56096 0.48219 0.0
C950 C 0.62719 0.54447 0.49488 0.0
C951 C 0.61532 0.52658 0.50882 0.0
C952 C 0.59051 0.52421 0.5087 0.0
C953 C 0.65284 0.54395 0.49031 0.0
C954 C 0.66068 0.52292 0.47844 0.0
C955 C 0.66834 0.56537 0.4932 0.0
C956 C 0.66091 0.58807 0.50561 0.0
C957 C 0.6513 0.5873 0.52904 0.0
C958 C 0.64346 0.60854 0.54023 0.0
C959 C 0.64518 0.63069 0.52818 0.0
C960 C 0.65488 0.63167 0.50497 0.0
C961 C 0.66278 0.61049 0.49372 0.0
H962 H 0.63901 0.64709 0.53683 0.0
H963 H 0.70355 0.44476 0.41257 0.0
H964 H 0.11288 0.24566 0.04094 0.0
H965 H 0.096 0.2831 0.02803 0.0
H966 H 0.06927 0.2951 0.10014 0.0
H967 H 0.08736 0.25861 0.11386 0.0
H968 H 0.03551 0.30116 0.05982 0.0
H969 H 0.11335 0.32863 0.08904 0.0
H970 H 0.15685 0.32877 0.09245 0.0
H971 H 0.16215 0.3436 0.01623 0.0
H972 H 0.11858 0.34314 0.01227 0.0
H973 H 0.01631 0.4284 0.06549 0.0
H974 H 0.02806 0.38674 0.07092 0.0
H975 H 0.05515 0.38511 0.99796 0.0
H976 H 0.04281 0.42705 0.99229 0.0
H977 H 0.08794 0.37231 0.03522 0.0
H978 H 0.0083 0.34883 0.0083 0.0
H979 H 0.96483 0.34995 0.00755 0.0
H980 H 0.96286 0.32906 0.08235 0.0
H981 H 0.00637 0.32817 0.08368 0.0
C982 C 0.10379 0.25633 0.05432 0.0
C983 C 0.10181 0.24885 0.07864 0.0
C984 C 0.09391 0.27769 0.04675 0.0
C985 C 0.08138 0.29193 0.0631 0.0
C986 C 0.07874 0.28431 0.08714 0.0
C987 C 0.08903 0.26322 0.0949 0.0
C988 C 0.0716 0.31512 0.05527 0.0
C989 C 0.04696 0.31678 0.05458 0.0
C990 C 0.08651 0.33537 0.04806 0.0
C991 C 0.11268 0.33547 0.05027 0.0
C992 C 0.12376 0.33161 0.07293 0.0
C993 C 0.14844 0.33182 0.07498 0.0
C994 C 0.16225 0.33609 0.05455 0.0
C995 C 0.15141 0.34022 0.03203 0.0
C996 C 0.12673 0.33999 0.02986 0.0
C997 C 0.0242 0.4189 0.05035 0.0
C998 C 0.02839 0.43079 0.02836 0.0
C999 C 0.03095 0.3951 0.05349 0.0
C1000 C 0.04243 0.38269 0.03485 0.0
C1001 C 0.04621 0.39429 0.01256 0.0
C1002 C 0.03899 0.41811 0.00923 0.0
C1003 C 0.05178 0.3584 0.03964 0.0
C1004 C 0.07642 0.35656 0.03999 0.0
C1005 C 0.03685 0.33811 0.04684 0.0
C1006 C 0.01065 0.33863 0.04614 0.0
C1007 C 0.99863 0.34468 0.02466 0.0
C1008 C 0.97397 0.34523 0.02412 0.0
C1009 C 0.9611 0.33963 0.0449 0.0
C1010 C 0.97286 0.33341 0.06626 0.0
C1011 C 0.99752 0.33285 0.06691 0.0
H1012 H 0.942 0.34006 0.04444 0.0
H1013 H 0.18136 0.33628 0.05618 0.0
H1014 H 0.58196 0.27762 0.93513 0.0
H1015 H 0.57651 0.23395 0.94351 0.0
H1016 H 0.55818 0.21712 0.8676 0.0
H1017 H 0.56435 0.26064 0.85878 0.0
H1018 H 0.52711 0.19441 0.90494 0.0
H1019 H 0.6113 0.2079 0.88528 0.0
H1020 H 0.65084 0.22952 0.89206 0.0
H1021 H 0.6515 0.20856 0.96687 0.0
H1022 H 0.61185 0.18721 0.96068 0.0
H1023 H 0.51684 0.0737 0.94445 0.0
H1024 H 0.53025 0.10472 0.91526 0.0
H1025 H 0.57726 0.14016 0.97131 0.0
H1026 H 0.56475 0.10908 0.99951 0.0
H1027 H 0.59551 0.14955 0.93226 0.0
H1028 H 0.51685 0.15191 0.96295 0.0
H1029 H 0.47517 0.13777 0.96934 0.0
H1030 H 0.46097 0.13696 0.89193 0.0
H1031 H 0.50275 0.15071 0.88506 0.0
C1032 C 0.57683 0.26465 0.92019 0.0
C1033 C 0.57371 0.27259 0.89626 0.0
C1034 C 0.5737 0.23976 0.92502 0.0
C1035 C 0.56731 0.22247 0.90605 0.0
C1036 C 0.56323 0.23032 0.88238 0.0
C1037 C 0.56655 0.25519 0.87747 0.0
C1038 C 0.56486 0.19613 0.91107 0.0
C1039 C 0.54206 0.18429 0.91039 0.0
C1040 C 0.58438 0.18355 0.91909 0.0
C1041 C 0.60854 0.19597 0.92248 0.0
C1042 C 0.61983 0.20799 0.90319 0.0
C1043 C 0.64227 0.2202 0.90695 0.0
C1044 C 0.65367 0.22041 0.92988 0.0
C1045 C 0.64267 0.20837 0.94911 0.0
C1046 C 0.62023 0.19618 0.94547 0.0
C1047 C 0.53081 0.08754 0.94995 0.0
C1048 C 0.53956 0.08948 0.97416 0.0
C1049 C 0.53829 0.10536 0.93343 0.0
C1050 C 0.55425 0.12522 0.94129 0.0
C1051 C 0.56487 0.12521 0.9647 0.0
C1052 C 0.55761 0.10749 0.98093 0.0
C1053 C 0.5575 0.14793 0.92737 0.0
C1054 C 0.58052 0.15922 0.92607 0.0
C1055 C 0.53796 0.16077 0.91948 0.0
C1056 C 0.51302 0.15182 0.92345 0.0
C1057 C 0.50491 0.14841 0.94727 0.0
C1058 C 0.48126 0.14052 0.95098 0.0
C1059 C 0.46546 0.13634 0.93104 0.0
C1060 C 0.47328 0.14007 0.90734 0.0
C1061 C 0.49695 0.14785 0.90352 0.0
H1062 H 0.44713 0.13031 0.93395 0.0
H1063 H 0.67103 0.2299 0.93275 0.0
H1064 H 0.95585 0.71432 0.43244 0.0
H1065 H 0.97104 0.75625 0.44369 0.0
H1066 H 0.90432 0.77016 0.47613 0.0
H1067 H 0.88834 0.72927 0.46308 0.0
H1068 H 0.91741 0.80662 0.45124 0.0
H1069 H 0.95845 0.76 0.51022 0.0
H1070 H 0.98416 0.728 0.52318 0.0
H1071 H 0.04157 0.76118 0.48307 0.0
H1072 H 0.01611 0.79318 0.46962 0.0
H1073 H 0.95237 0.92174 0.50333 0.0
H1074 H 0.94315 0.8773 0.5055 0.0
H1075 H 0.0039 0.86418 0.46201 0.0
H1076 H 0.013 0.90851 0.45985 0.0
H1077 H 0.99437 0.82738 0.49503 0.0
H1078 H 0.95385 0.87132 0.43393 0.0
H1079 H 0.92894 0.90306 0.41885 0.0
H1080 H 0.87101 0.87423 0.46103 0.0
H1081 H 0.89576 0.84259 0.47675 0.0
C1082 C 0.94428 0.72634 0.44174 0.0
C1083 C 0.92084 0.71815 0.44695 0.0
C1084 C 0.95317 0.75025 0.44856 0.0
C1085 C 0.93903 0.76629 0.46127 0.0
C1086 C 0.9157 0.75813 0.46653 0.0
C1087 C 0.90666 0.73449 0.4593 0.0
C1088 C 0.94791 0.79199 0.46809 0.0
C1089 C 0.93401 0.81102 0.46128 0.0
C1090 C 0.96996 0.79796 0.48048 0.0
C1091 C 0.98531 0.77885 0.48876 0.0
C1092 C 0.97651 0.76038 0.50406 0.0
C1093 C 0.99105 0.74225 0.5115 0.0
C1094 C 0.01447 0.74253 0.50391 0.0
C1095 C 0.02343 0.76097 0.48892 0.0
C1096 C 0.00896 0.77912 0.48141 0.0
C1097 C 0.96441 0.90929 0.49541 0.0
C1098 C 0.98352 0.9183 0.48169 0.0
C1099 C 0.95901 0.88397 0.4964 0.0
C1100 C 0.97262 0.86752 0.48353 0.0
C1101 C 0.99319 0.87656 0.47206 0.0
C1102 C 0.99848 0.90184 0.47095 0.0
C1103 C 0.96357 0.84165 0.47866 0.0
C1104 C 0.97754 0.82274 0.48548 0.0
C1105 C 0.94163 0.83571 0.46614 0.0
C1106 C 0.92677 0.85482 0.45681 0.0
C1107 C 0.93589 0.87192 0.44021 0.0
C1108 C 0.92179 0.88987 0.43151 0.0
C1109 C 0.89843 0.89072 0.43905 0.0
C1110 C 0.88913 0.8736 0.45527 0.0
C1111 C 0.90319 0.85567 0.4641 0.0
H1112 H 0.88753 0.9046 0.43226 0.0
H1113 H 0.02568 0.72847 0.50968 0.0
H1114 H 0.3747 0.75147 0.5579 0.0
H1115 H 0.39097 0.71317 0.54485 0.0
H1116 H 0.46178 0.74557 0.56027 0.0
H1117 H 0.44565 0.78447 0.57228 0.0
H1118 H 0.46063 0.71896 0.5188 0.0
H1119 H 0.43504 0.70671 0.5997 0.0
H1120 H 0.4081 0.70603 0.63444 0.0
H1121 H 0.36039 0.65303 0.59522 0.0
H1122 H 0.38691 0.65366 0.56006 0.0
H1123 H 0.51253 0.60429 0.54272 0.0
H1124 H 0.49827 0.64569 0.54353 0.0
H1125 H 0.43377 0.61739 0.50574 0.0
H1126 H 0.44846 0.57613 0.504 0.0
H1127 H 0.43161 0.6416 0.55657 0.0
H1128 H 0.46126 0.65438 0.47559 0.0
H1129 H 0.4922 0.65409 0.44463 0.0
H1130 H 0.53687 0.70539 0.48938 0.0
H1131 H 0.50625 0.70579 0.52073 0.0
C1132 C 0.39376 0.75062 0.55816 0.0
C1133 C 0.40889 0.77103 0.56612 0.0
C1134 C 0.40301 0.72861 0.55096 0.0
C1135 C 0.42755 0.72645 0.55191 0.0
C1136 C 0.44277 0.74686 0.55948 0.0
C1137 C 0.43352 0.76898 0.56655 0.0
C1138 C 0.43722 0.70274 0.54527 0.0
C1139 C 0.4544 0.70209 0.52721 0.0
C1140 C 0.42901 0.6807 0.55615 0.0
C1141 C 0.41283 0.68047 0.57712 0.0
C1142 C 0.41868 0.69511 0.59837 0.0
C1143 C 0.40352 0.69469 0.61816 0.0
C1144 C 0.38251 0.67956 0.617 0.0
C1145 C 0.37665 0.66478 0.59606 0.0
C1146 C 0.39175 0.66516 0.5762 0.0
C1147 C 0.49576 0.60721 0.53375 0.0
C1148 C 0.48162 0.58737 0.52307 0.0
C1149 C 0.48762 0.63071 0.53427 0.0
C1150 C 0.46502 0.6344 0.52471 0.0
C1151 C 0.45134 0.61479 0.51301 0.0
C1152 C 0.45976 0.59139 0.51189 0.0
C1153 C 0.45462 0.65789 0.52994 0.0
C1154 C 0.43749 0.65848 0.54796 0.0
C1155 C 0.4633 0.67987 0.5195 0.0
C1156 C 0.48155 0.67998 0.50055 0.0
C1157 C 0.47775 0.66548 0.47889 0.0
C1158 C 0.4952 0.66532 0.46125 0.0
C1159 C 0.51651 0.67967 0.46506 0.0
C1160 C 0.52036 0.69428 0.48646 0.0
C1161 C 0.50294 0.69453 0.50414 0.0
H1162 H 0.53003 0.6795 0.4514 0.0
H1163 H 0.3708 0.67924 0.63236 0.0
H1164 H 0.90392 0.9597 0.7673 0.0
H1165 H 0.91885 0.96915 0.72697 0.0
H1166 H 0.93932 0.89512 0.71706 0.0
H1167 H 0.92307 0.88483 0.75661 0.0
H1168 H 0.97511 0.93897 0.70547 0.0
H1169 H 0.8948 0.90228 0.68887 0.0
H1170 H 0.85173 0.89973 0.6953 0.0
H1171 H 0.84851 0.97425 0.67378 0.0
H1172 H 0.89166 0.97735 0.66759 0.0
H1173 H 0.00747 0.94332 0.58292 0.0
H1174 H 0.98989 0.92915 0.6208 0.0
H1175 H 0.93996 0.98517 0.61707 0.0
H1176 H 0.95635 0.99782 0.57808 0.0
H1177 H 0.91879 0.95019 0.63666 0.0
H1178 H 0.99553 0.99013 0.65357 0.0
H1179 H 0.03872 0.99816 0.64985 0.0
H1180 H 0.04959 0.92579 0.6739 0.0
H1181 H 0.00643 0.9172 0.67746 0.0
C1182 C 0.91127 0.94522 0.75654 0.0
C1183 C 0.91198 0.92135 0.76544 0.0
C1184 C 0.92002 0.95079 0.73352 0.0
C1185 C 0.93011 0.93281 0.71903 0.0
C1186 C 0.93166 0.90928 0.72804 0.0
C1187 C 0.92248 0.90351 0.75084 0.0
C1188 C 0.93847 0.93841 0.69418 0.0
C1189 C 0.96288 0.94111 0.69027 0.0
C1190 C 0.92246 0.94214 0.6747 0.0
C1191 C 0.89648 0.94011 0.678 0.0
C1192 C 0.88494 0.91818 0.68571 0.0
C1193 C 0.86051 0.91663 0.68927 0.0
C1194 C 0.8474 0.93684 0.68501 0.0
C1195 C 0.85869 0.95862 0.6771 0.0
C1196 C 0.88313 0.96027 0.67354 0.0
C1197 C 0.99231 0.95208 0.58992 0.0
C1198 C 0.98312 0.97151 0.57759 0.0
C1199 C 0.98248 0.94428 0.6118 0.0
C1200 C 0.96407 0.95661 0.6225 0.0
C1201 C 0.9542 0.97534 0.60947 0.0
C1202 C 0.96351 0.98255 0.58711 0.0
C1203 C 0.95573 0.95068 0.64755 0.0
C1204 C 0.93124 0.94801 0.65165 0.0
C1205 C 0.97174 0.94777 0.66746 0.0
C1206 C 0.99773 0.95294 0.66553 0.0
C1207 C 0.00712 0.97588 0.65793 0.0
C1208 C 0.0316 0.98053 0.65586 0.0
C1209 C 0.04688 0.96247 0.66157 0.0
C1210 C 0.03772 0.93975 0.66945 0.0
C1211 C 0.01326 0.93498 0.67151 0.0
H1212 H 0.06582 0.96611 0.65993 0.0
H1213 H 0.82849 0.9356 0.6878 0.0
H1214 H 0.55422 0.08213 0.28475 0.0
H1215 H 0.54274 0.06351 0.24426 0.0
H1216 H 0.61432 0.07792 0.22041 0.0
H1217 H 0.62587 0.09639 0.26066 0.0
H1218 H 0.578 0.09361 0.18853 0.0
H1219 H 0.59734 0.02184 0.23323 0.0
H1220 H 0.59273 0.99342 0.26705 0.0
H1221 H 0.51917 0.97809 0.24718 0.0
H1222 H 0.52329 0.00668 0.21341 0.0
H1223 H 0.57768 0.03679 0.07532 0.0
H1224 H 0.58935 0.04284 0.11847 0.0
H1225 H 0.51974 0.01434 0.13876 0.0
H1226 H 0.50837 0.0075 0.09543 0.0
H1227 H 0.55201 0.00551 0.17343 0.0
H1228 H 0.53004 0.07404 0.12984 0.0
H1229 H 0.53014 0.10409 0.09734 0.0
H1230 H 0.60221 0.1285 0.11647 0.0
H1231 H 0.60273 0.09821 0.14876 0.0
C1232 C 0.56745 0.08128 0.27083 0.0
C1233 C 0.59095 0.09056 0.27582 0.0
C1234 C 0.56092 0.07055 0.24783 0.0
C1235 C 0.57776 0.06922 0.2295 0.0
C1236 C 0.60113 0.07868 0.2344 0.0
C1237 C 0.60772 0.0891 0.2574 0.0
C1238 C 0.57104 0.0587 0.20485 0.0
C1239 C 0.57263 0.07429 0.18513 0.0
C1240 C 0.56299 0.03375 0.20072 0.0
C1241 C 0.56057 0.01657 0.22097 0.0
C1242 C 0.58014 0.01257 0.23621 0.0
C1243 C 0.57763 0.99639 0.25534 0.0
C1244 C 0.55566 0.98401 0.2593 0.0
C1245 C 0.53617 0.98772 0.24411 0.0
C1246 C 0.53859 0.00388 0.22496 0.0
C1247 C 0.56538 0.03051 0.08903 0.0
C1248 C 0.54223 0.02155 0.08225 0.0
C1249 C 0.5719 0.03432 0.11365 0.0
C1250 C 0.55514 0.02982 0.13175 0.0
C1251 C 0.53288 0.01814 0.12506 0.0
C1252 C 0.52646 0.01398 0.10034 0.0
C1253 C 0.55977 0.04026 0.1569 0.0
C1254 C 0.55751 0.0248 0.17674 0.0
C1255 C 0.5666 0.06557 0.16126 0.0
C1256 C 0.56652 0.08358 0.14154 0.0
C1257 C 0.54601 0.08559 0.12694 0.0
C1258 C 0.54594 0.10271 0.10857 0.0
C1259 C 0.56619 0.11815 0.10479 0.0
C1260 C 0.58656 0.11649 0.11937 0.0
C1261 C 0.58676 0.09932 0.1377 0.0
H1262 H 0.56608 0.13144 0.09062 0.0
H1263 H 0.55375 0.97149 0.27412 0.0
H1264 H 0.4009 0.63156 0.27386 0.0
H1265 H 0.40726 0.61957 0.31606 0.0
H1266 H 0.42469 0.54779 0.28962 0.0
H1267 H 0.41752 0.55952 0.24751 0.0
H1268 H 0.39182 0.54439 0.3231 0.0
H1269 H 0.46677 0.59213 0.31455 0.0
H1270 H 0.49166 0.62968 0.30615 0.0
H1271 H 0.4595 0.66865 0.36464 0.0
H1272 H 0.4342 0.63141 0.37319 0.0
H1273 H 0.4556 0.48885 0.40987 0.0
H1274 H 0.43168 0.50659 0.37979 0.0
H1275 H 0.43178 0.57354 0.42463 0.0
H1276 H 0.45941 0.55636 0.45341 0.0
H1277 H 0.44713 0.5855 0.38574 0.0
H1278 H 0.37652 0.53214 0.39799 0.0
H1279 H 0.35626 0.49184 0.40622 0.0
H1280 H 0.38316 0.46099 0.34014 0.0
H1281 H 0.40357 0.50096 0.33152 0.0
C1282 C 0.40654 0.61341 0.27717 0.0
C1283 C 0.40867 0.59634 0.2577 0.0
C1284 C 0.41015 0.60659 0.30119 0.0
C1285 C 0.41637 0.58279 0.30591 0.0
C1286 C 0.41967 0.56617 0.28632 0.0
C1287 C 0.41569 0.57285 0.26236 0.0
C1288 C 0.41787 0.57444 0.33117 0.0
C1289 C 0.40388 0.55331 0.33692 0.0
C1290 C 0.4329 0.58675 0.34932 0.0
C1291 C 0.44835 0.60906 0.3443 0.0
C1292 C 0.46486 0.60876 0.32549 0.0
C1293 C 0.47908 0.62998 0.32073 0.0
C1294 C 0.47709 0.65157 0.33479 0.0
C1295 C 0.46098 0.65194 0.35372 0.0
C1296 C 0.44671 0.63078 0.35854 0.0
C1297 C 0.44947 0.50688 0.41393 0.0
C1298 C 0.45954 0.52146 0.43345 0.0
C1299 C 0.43531 0.5171 0.3967 0.0
C1300 C 0.42944 0.54159 0.39966 0.0
C1301 C 0.43619 0.5547 0.42169 0.0
C1302 C 0.45159 0.54478 0.43842 0.0
C1303 C 0.42161 0.5546 0.37782 0.0
C1304 C 0.43434 0.57683 0.3725 0.0
C1305 C 0.40551 0.54314 0.35992 0.0
C1306 C 0.39144 0.51967 0.36405 0.0
C1307 C 0.37792 0.51682 0.38511 0.0
C1308 C 0.36647 0.494 0.38987 0.0
C1309 C 0.36839 0.47389 0.3737 0.0
C1310 C 0.38155 0.4766 0.35258 0.0
C1311 C 0.39292 0.49939 0.34766 0.0
H1312 H 0.35972 0.45619 0.37756 0.0
H1313 H 0.48808 0.66798 0.33105 0.0
H1314 H 0.07614 0.47186 0.72901 0.0
H1315 H 0.06853 0.48229 0.77194 0.0
H1316 H 0.07548 0.40682 0.7901 0.0
H1317 H 0.08193 0.39627 0.74709 0.0
H1318 H 0.03891 0.42262 0.81125 0.0
H1319 H 0.11995 0.45589 0.80376 0.0
H1320 H 0.1518 0.48147 0.78497 0.0
H1321 H 0.11541 0.54617 0.80125 0.0
H1322 H 0.08318 0.52097 0.81979 0.0
H1323 H 0.02599 0.45812 0.93789 0.0
H1324 H 0.04561 0.44128 0.90178 0.0
H1325 H 0.03993 0.50987 0.86612 0.0
H1326 H 0.0208 0.52647 0.90144 0.0
H1327 H 0.08154 0.49274 0.85751 0.0
H1328 H 0.99898 0.46253 0.85606 0.0
H1329 H 0.96358 0.44003 0.8719 0.0
H1330 H 0.99926 0.37325 0.86975 0.0
H1331 H 0.03504 0.39549 0.85425 0.0
C1332 C 0.07612 0.45763 0.74229 0.0
C1333 C 0.07954 0.43332 0.73492 0.0
C1334 C 0.07195 0.46357 0.76679 0.0
C1335 C 0.07188 0.4454 0.78438 0.0
C1336 C 0.0755 0.42114 0.77692 0.0
C1337 C 0.07918 0.41514 0.75241 0.0
C1338 C 0.06705 0.45137 0.81037 0.0
C1339 C 0.04863 0.43761 0.82153 0.0
C1340 C 0.07935 0.47127 0.82366 0.0
C1341 C 0.09909 0.48649 0.81307 0.0
C1342 C 0.11871 0.47556 0.80326 0.0
C1343 C 0.13682 0.49 0.79264 0.0
C1344 C 0.13561 0.51542 0.79189 0.0
C1345 C 0.11633 0.52648 0.80184 0.0
C1346 C 0.09816 0.51213 0.81244 0.0
C1347 C 0.02924 0.46954 0.92239 0.0
C1348 C 0.02149 0.49338 0.92224 0.0
C1349 C 0.04039 0.45997 0.90184 0.0
C1350 C 0.04407 0.47433 0.88122 0.0
C1351 C 0.03734 0.49847 0.88177 0.0
C1352 C 0.02614 0.50783 0.90194 0.0
C1353 C 0.05318 0.46428 0.85808 0.0
C1354 C 0.07236 0.47728 0.84741 0.0
C1355 C 0.04124 0.44409 0.845 0.0
C1356 C 0.0198 0.43074 0.8544 0.0
C1357 C 0.99936 0.4431 0.85922 0.0
C1358 C 0.97921 0.4304 0.86809 0.0
C1359 C 0.97921 0.40525 0.87193 0.0
C1360 C 0.99933 0.39275 0.86685 0.0
C1361 C 0.01955 0.4054 0.85805 0.0
H1362 H 0.96358 0.39543 0.87877 0.0
H1363 H 0.14963 0.52655 0.78362 0.0
H1364 H 0.75136 0.93146 0.88805 0.0
H1365 H 0.71555 0.9502 0.90102 0.0
H1366 H 0.72871 0.92938 0.97493 0.0
H1367 H 0.76526 0.91191 0.96264 0.0
H1368 H 0.68137 0.91473 0.95332 0.0
H1369 H 0.73766 0.98575 0.96527 0.0
H1370 H 0.76818 0.01653 0.95185 0.0
H1371 H 0.71985 0.03953 0.89711 0.0
H1372 H 0.68913 0.00864 0.90999 0.0
H1373 H 0.59423 0.96676 0.01977 0.0
H1374 H 0.6334 0.95768 0.00585 0.0
H1375 H 0.62254 0.99862 0.94114 0.0
H1376 H 0.58339 0.00857 0.95564 0.0
H1377 H 0.66807 0.00356 0.95434 0.0
H1378 H 0.61201 0.93564 0.94018 0.0
H1379 H 0.58044 0.90401 0.94914 0.0
H1380 H 0.62637 0.87349 0.00165 0.0
H1381 H 0.65812 0.90518 0.99328 0.0
C1382 C 0.74707 0.93128 0.9072 0.0
C1383 C 0.76144 0.91991 0.9242 0.0
C1384 C 0.72641 0.94192 0.91453 0.0
C1385 C 0.71945 0.94117 0.93893 0.0
C1386 C 0.7337 0.93007 0.95597 0.0
C1387 C 0.75455 0.91983 0.94879 0.0
C1388 C 0.69675 0.9509 0.94659 0.0
C1389 C 0.67855 0.93417 0.95387 0.0
C1390 C 0.6927 0.97616 0.94617 0.0
C1391 C 0.71118 0.99469 0.93842 0.0
C1392 C 0.73361 0.9972 0.95021 0.0
C1393 C 0.75093 0.01471 0.94274 0.0
C1394 C 0.74598 0.02993 0.92359 0.0
C1395 C 0.72367 0.02771 0.91191 0.0
C1396 C 0.7063 0.01021 0.91931 0.0
C1397 C 0.60046 0.97442 0.0029 0.0
C1398 C 0.58575 0.98835 0.98878 0.0
C1399 C 0.62278 0.96898 0.9948 0.0
C1400 C 0.63072 0.97676 0.97203 0.0
C1401 C 0.61678 0.9922 0.95867 0.0
C1402 C 0.59446 0.99802 0.96702 0.0
C1403 C 0.6528 0.96741 0.96182 0.0
C1404 C 0.6708 0.9841 0.95384 0.0
C1405 C 0.65651 0.94196 0.96096 0.0
C1406 C 0.63739 0.92297 0.96626 0.0
C1407 C 0.61532 0.92233 0.9538 0.0
C1408 C 0.59739 0.90436 0.95875 0.0
C1409 C 0.60137 0.88678 0.976 0.0
C1410 C 0.6233 0.88713 0.98832 0.0
C1411 C 0.64127 0.90509 0.98347 0.0
H1412 H 0.58749 0.87287 0.97978 0.0
H1413 H 0.7594 0.04348 0.91785 0.0
H1414 H 0.73903 0.08924 0.4629 0.0
H1415 H 0.77749 0.07687 0.47792 0.0
H1416 H 0.80942 0.10018 0.41092 0.0
H1417 H 0.7709 0.11137 0.39562 0.0
H1418 H 0.82093 0.05666 0.42006 0.0
H1419 H 0.81866 0.13225 0.46905 0.0
H1420 H 0.80136 0.16019 0.499 0.0
H1421 H 0.80364 0.10563 0.55335 0.0
H1422 H 0.82068 0.07726 0.52362 0.0
H1423 H 0.93995 0.04843 0.44229 0.0
H1424 H 0.90273 0.06802 0.43782 0.0
H1425 H 0.87894 0.03744 0.50537 0.0
H1426 H 0.91699 0.01878 0.51047 0.0
H1427 H 0.86189 0.08202 0.49901 0.0
H1428 H 0.86496 0.00711 0.45091 0.0
H1429 H 0.8821 0.97867 0.42134 0.0
H1430 H 0.87735 0.03131 0.3654 0.0
H1431 H 0.86052 0.06021 0.39473 0.0
C1432 C 0.75442 0.09188 0.45162 0.0
C1433 C 0.75221 0.10106 0.42814 0.0
C1434 C 0.77635 0.08498 0.46022 0.0
C1435 C 0.79641 0.08776 0.44562 0.0
C1436 C 0.7942 0.09776 0.42247 0.0
C1437 C 0.77227 0.10417 0.41374 0.0
C1438 C 0.8194 0.07868 0.45337 0.0
C1439 C 0.82999 0.06253 0.43719 0.0
C1440 C 0.8308 0.08543 0.47618 0.0
C1441 C 0.8207 0.10256 0.49405 0.0
C1442 C 0.81531 0.12616 0.48734 0.0
C1443 C 0.80558 0.14208 0.50428 0.0
C1444 C 0.80134 0.13466 0.52804 0.0
C1445 C 0.8069 0.11134 0.53493 0.0
C1446 C 0.81661 0.09534 0.51805 0.0
C1447 C 0.92699 0.04649 0.45648 0.0
C1448 C 0.93102 0.03206 0.4766 0.0
C1449 C 0.90573 0.05753 0.45388 0.0
C1450 C 0.88781 0.05352 0.47088 0.0
C1451 C 0.89249 0.04056 0.49196 0.0
C1452 C 0.91413 0.02995 0.49488 0.0
C1453 C 0.86367 0.06087 0.46524 0.0
C1454 C 0.85277 0.0763 0.48188 0.0
C1455 C 0.85183 0.05342 0.44284 0.0
C1456 C 0.86164 0.03589 0.42508 0.0
C1457 C 0.86769 0.01267 0.43234 0.0
C1458 C 0.87735 0.99646 0.41562 0.0
C1459 C 0.88086 0.0032 0.39152 0.0
C1460 C 0.87465 0.02612 0.38407 0.0
C1461 C 0.86503 0.04241 0.40073 0.0
H1462 H 0.88835 0.99063 0.37861 0.0
H1463 H 0.79379 0.14701 0.54113 0.0
H1464 H 0.26694 0.56381 0.10149 0.0
H1465 H 0.2266 0.55036 0.0877 0.0
H1466 H 0.21791 0.62192 0.05933 0.0
H1467 H 0.25723 0.63613 0.07486 0.0
H1468 H 0.1789 0.60527 0.08007 0.0
H1469 H 0.23475 0.56866 0.02307 0.0
H1470 H 0.26743 0.54206 0.01523 0.0
H1471 H 0.22701 0.48111 0.04502 0.0
H1472 H 0.19422 0.50742 0.05321 0.0
H1473 H 0.07642 0.57992 0.01016 0.0
H1474 H 0.11886 0.59165 0.01688 0.0
H1475 H 0.13012 0.51723 0.03602 0.0
H1476 H 0.08849 0.50535 0.02725 0.0
H1477 H 0.16811 0.53439 0.02061 0.0
H1478 H 0.1145 0.5642 0.07903 0.0
H1479 H 0.08064 0.58643 0.0932 0.0
H1480 H 0.11435 0.65423 0.06979 0.0
H1481 H 0.14828 0.63233 0.05518 0.0
C1482 C 0.25633 0.57683 0.0927 0.0
C1483 C 0.26559 0.60096 0.08887 0.0
C1484 C 0.23335 0.569 0.08455 0.0
C1485 C 0.2195 0.58494 0.07187 0.0
C1486 C 0.22838 0.60921 0.06881 0.0
C1487 C 0.25107 0.61719 0.07737 0.0
C1488 C 0.196 0.5765 0.06104 0.0
C1489 C 0.17657 0.58995 0.06685 0.0
C1490 C 0.19274 0.55587 0.04462 0.0
C1491 C 0.21213 0.54 0.03881 0.0
C1492 C 0.23287 0.54958 0.02791 0.0
C1493 C 0.2514 0.53457 0.02345 0.0
C1494 C 0.24931 0.50992 0.02965 0.0
C1495 C 0.22862 0.5002 0.04022 0.0
C1496 C 0.21005 0.51513 0.04473 0.0
C1497 C 0.08836 0.56596 0.01446 0.0
C1498 C 0.07958 0.54181 0.0181 0.0
C1499 C 0.11244 0.57267 0.01874 0.0
C1500 C 0.12749 0.55553 0.02794 0.0
C1501 C 0.11895 0.53086 0.02913 0.0
C1502 C 0.09518 0.52403 0.02403 0.0
C1503 C 0.15099 0.5635 0.03918 0.0
C1504 C 0.17039 0.54987 0.03364 0.0
C1505 C 0.15399 0.58333 0.05668 0.0
C1506 C 0.13379 0.5966 0.06579 0.0
C1507 C 0.11463 0.58384 0.07682 0.0
C1508 C 0.09543 0.59637 0.08491 0.0
C1509 C 0.09531 0.62172 0.08234 0.0
C1510 C 0.11444 0.63459 0.07173 0.0
C1511 C 0.13366 0.62214 0.06355 0.0
H1512 H 0.08042 0.63139 0.0886 0.0
H1513 H 0.2637 0.49835 0.02623 0.0
H1514 H 0.24645 0.43097 0.60862 0.0
H1515 H 0.28631 0.43751 0.59266 0.0
H1516 H 0.25771 0.47232 0.53004 0.0
H1517 H 0.21752 0.46447 0.54557 0.0
H1518 H 0.29041 0.44449 0.51544 0.0
H1519 H 0.2876 0.50613 0.5791 0.0
H1520 H 0.28023 0.52297 0.6204 0.0
H1521 H 0.33189 0.4782 0.65098 0.0
H1522 H 0.33936 0.46086 0.60989 0.0
H1523 H 0.40948 0.50016 0.49227 0.0
H1524 H 0.36685 0.4895 0.49702 0.0
H1525 H 0.38296 0.44393 0.55704 0.0
H1526 H 0.42516 0.45482 0.55258 0.0
H1527 H 0.35562 0.48114 0.57014 0.0
H1528 H 0.35645 0.41841 0.50509 0.0
H1529 H 0.36409 0.40364 0.4631 0.0
H1530 H 0.31682 0.45416 0.43434 0.0
H1531 H 0.30902 0.46933 0.47619 0.0
C1532 C 0.24879 0.44016 0.59154 0.0
C1533 C 0.22919 0.44756 0.57841 0.0
C1534 C 0.27153 0.44397 0.58244 0.0
C1535 C 0.27515 0.45592 0.56037 0.0
C1536 C 0.25541 0.46317 0.54713 0.0
C1537 C 0.23255 0.45888 0.55604 0.0
C1538 C 0.29955 0.46066 0.55127 0.0
C1539 C 0.3046 0.45285 0.5273 0.0
C1540 C 0.31817 0.47149 0.56668 0.0
C1541 C 0.3139 0.48206 0.59142 0.0
C1542 C 0.29729 0.49977 0.59465 0.0
C1543 C 0.29311 0.50942 0.61802 0.0
C1544 C 0.30554 0.50162 0.63831 0.0
C1545 C 0.32226 0.48422 0.63525 0.0
C1546 C 0.3265 0.4745 0.61192 0.0
C1547 C 0.40384 0.48707 0.50574 0.0
C1548 C 0.42043 0.4783 0.52211 0.0
C1549 C 0.37954 0.48108 0.50853 0.0
C1550 C 0.37176 0.46614 0.52759 0.0
C1551 C 0.38856 0.45562 0.54236 0.0
C1552 C 0.41265 0.46172 0.53971 0.0
C1553 C 0.34658 0.46421 0.5347 0.0
C1554 C 0.34139 0.47284 0.55828 0.0
C1555 C 0.32792 0.45449 0.51883 0.0
C1556 C 0.33236 0.44517 0.49373 0.0
C1557 C 0.34781 0.42647 0.4898 0.0
C1558 C 0.35212 0.41799 0.46603 0.0
C1559 C 0.341 0.42801 0.44606 0.0
C1560 C 0.32543 0.44643 0.44983 0.0
C1561 C 0.32103 0.45494 0.47356 0.0
H1562 H 0.3444 0.42146 0.42767 0.0
H1563 H 0.30226 0.5091 0.65639 0.0
H1564 H 0.88541 0.74478 0.90806 0.0
H1565 H 0.89949 0.70713 0.92448 0.0
H1566 H 0.95875 0.74952 0.95998 0.0
H1567 H 0.94533 0.78689 0.94225 0.0
H1568 H 0.97392 0.71044 0.94065 0.0
H1569 H 0.90528 0.72348 0.99082 0.0
H1570 H 0.8629 0.72948 0.99628 0.0
H1571 H 0.84385 0.66084 0.9576 0.0
H1572 H 0.88611 0.65454 0.95173 0.0
H1573 H 0.01585 0.61437 0.00792 0.0
H1574 H 0.99899 0.65315 0.99826 0.0
H1575 H 0.93608 0.61253 0.96807 0.0
H1576 H 0.95217 0.5742 0.97966 0.0
H1577 H 0.9223 0.65107 0.98531 0.0
H1578 H 0.98673 0.63709 0.93242 0.0
H1579 H 0.02777 0.6293 0.92198 0.0
H1580 H 0.05326 0.69682 0.95946 0.0
H1581 H 0.01238 0.70488 0.97031 0.0
C1582 C 0.90131 0.74598 0.91958 0.0
C1583 C 0.91419 0.76869 0.92413 0.0
C1584 C 0.90932 0.72447 0.9291 0.0
C1585 C 0.93 0.72533 0.94403 0.0
C1586 C 0.94274 0.7482 0.94865 0.0
C1587 C 0.93502 0.76959 0.93865 0.0
C1588 C 0.93889 0.70248 0.95421 0.0
C1589 C 0.96269 0.6977 0.95079 0.0
C1590 C 0.92416 0.68512 0.96658 0.0
C1591 C 0.89883 0.68862 0.97075 0.0
C1592 C 0.89204 0.7097 0.98346 0.0
C1593 C 0.86805 0.71315 0.98661 0.0
C1594 C 0.8507 0.69557 0.97726 0.0
C1595 C 0.8573 0.67444 0.96484 0.0
C1596 C 0.88127 0.67089 0.96164 0.0
C1597 C 0.99809 0.61393 5e-05 0.0
C1598 C 0.9851 0.5914 0.99498 0.0
C1599 C 0.98859 0.63606 0.99403 0.0
C1600 C 0.96644 0.63599 0.98164 0.0
C1601 C 0.95314 0.61338 0.97756 0.0
C1602 C 0.9623 0.59139 0.98431 0.0
C1603 C 0.95746 0.6591 0.97201 0.0
C1604 C 0.93363 0.66389 0.97539 0.0
C1605 C 0.972 0.67616 0.95901 0.0
C1606 C 0.99655 0.67145 0.95238 0.0
C1607 C 0.00112 0.6502 0.93853 0.0
C1608 C 0.02433 0.64575 0.93253 0.0
C1609 C 0.04311 0.66252 0.94011 0.0
C1610 C 0.0387 0.68383 0.95363 0.0
C1611 C 0.01551 0.68837 0.95969 0.0
H1612 H 0.06108 0.65903 0.93547 0.0
H1613 H 0.83213 0.69831 0.97966 0.0
H1614 H 0.42831 0.74805 0.07522 0.0
H1615 H 0.43656 0.78977 0.06119 0.0
H1616 H 0.42609 0.81929 0.13396 0.0
H1617 H 0.41802 0.77739 0.14821 0.0
H1618 H 0.40213 0.84292 0.09102 0.0
H1619 H 0.47744 0.82134 0.12258 0.0
H1620 H 0.50946 0.79357 0.128 0.0
H1621 H 0.52117 0.7925 0.05078 0.0
H1622 H 0.48891 0.81991 0.04483 0.0
H1623 H 0.46905 0.95707 0.04984 0.0
H1624 H 0.45212 0.92448 0.07543 0.0
H1625 H 0.45255 0.87248 0.01433 0.0
H1626 H 0.4689 0.90459 0.98869 0.0
H1627 H 0.48235 0.86508 0.06022 0.0
H1628 H 0.40424 0.87969 0.02761 0.0
H1629 H 0.37117 0.90561 0.01985 0.0
H1630 H 0.36453 0.91899 0.09707 0.0
H1631 H 0.39785 0.8934 0.10526 0.0
C1632 C 0.4278 0.76346 0.08819 0.0
C1633 C 0.42275 0.75967 0.11277 0.0
C1634 C 0.43243 0.78717 0.08019 0.0
C1635 C 0.43185 0.80742 0.09661 0.0
C1636 C 0.42651 0.80378 0.12112 0.0
C1637 C 0.42219 0.77996 0.12923 0.0
C1638 C 0.4379 0.8322 0.08797 0.0
C1639 C 0.41979 0.84814 0.08482 0.0
C1640 C 0.46087 0.83864 0.0797 0.0
C1641 C 0.48065 0.82258 0.08325 0.0
C1642 C 0.48673 0.81506 0.10673 0.0
C1643 C 0.50494 0.79939 0.1099 0.0
C1644 C 0.51732 0.79125 0.08974 0.0
C1645 C 0.51156 0.79882 0.06638 0.0
C1646 C 0.49333 0.81445 0.0631 0.0
C1647 C 0.46479 0.93887 0.0417 0.0
C1648 C 0.4707 0.93323 0.01743 0.0
C1649 C 0.45521 0.92033 0.05632 0.0
C1650 C 0.45146 0.8962 0.04669 0.0
C1651 C 0.45551 0.89106 0.022 0.0
C1652 C 0.46488 0.90944 0.00743 0.0
C1653 C 0.44647 0.8755 0.06265 0.0
C1654 C 0.46487 0.86028 0.06712 0.0
C1655 C 0.42379 0.86971 0.07191 0.0
C1656 C 0.40375 0.88498 0.06703 0.0
C1657 C 0.39592 0.88841 0.04292 0.0
C1658 C 0.37708 0.90297 0.03844 0.0
C1659 C 0.36582 0.91403 0.05795 0.0
C1660 C 0.37332 0.91047 0.08197 0.0
C1661 C 0.39217 0.89593 0.08655 0.0
H1662 H 0.35124 0.9253 0.05445 0.0
H1663 H 0.5314 0.7791 0.09223 0.0
H1664 H 0.06693 0.29195 0.52542 0.0
H1665 H 0.05191 0.24945 0.51496 0.0
H1666 H 0.05475 0.2326 0.59127 0.0
H1667 H 0.06994 0.27467 0.60178 0.0
H1668 H 0.07663 0.19969 0.56201 0.0
H1669 H 0.00269 0.23818 0.56423 0.0
H1670 H 0.97442 0.26821 0.5524 0.0
H1671 H 0.97502 0.24117 0.4778 0.0
H1672 H 0.00356 0.21117 0.48916 0.0
H1673 H 0.01596 0.08874 0.57578 0.0
H1674 H 0.02107 0.13339 0.57619 0.0
H1675 H 0.02126 0.13132 0.49739 0.0
H1676 H 0.01591 0.08617 0.49682 0.0
H1677 H 0.9989 0.17371 0.52173 0.0
H1678 H 0.07128 0.13272 0.52114 0.0
H1679 H 0.09824 0.10207 0.53459 0.0
H1680 H 0.10027 0.13414 0.60744 0.0
H1681 H 0.07295 0.16471 0.59453 0.0
C1682 C 0.06425 0.27916 0.53993 0.0
C1683 C 0.06953 0.28665 0.56442 0.0
C1684 C 0.05554 0.25499 0.53395 0.0
C1685 C 0.05215 0.23797 0.55237 0.0
C1686 C 0.0572 0.24549 0.57681 0.0
C1687 C 0.06571 0.26959 0.58279 0.0
C1688 C 0.04448 0.21193 0.54636 0.0
C1689 C 0.0596 0.19404 0.55329 0.0
C1690 C 0.02255 0.20462 0.53436 0.0
C1691 C 0.00549 0.22268 0.52748 0.0
C1692 C 0.99698 0.23882 0.54526 0.0
C1693 C 0.98086 0.25578 0.53866 0.0
C1694 C 0.97299 0.25666 0.51435 0.0
C1695 C 0.98117 0.24051 0.49661 0.0
C1696 C 0.99731 0.22351 0.50313 0.0
C1697 C 0.01644 0.09778 0.55848 0.0
C1698 C 0.01595 0.08406 0.53626 0.0
C1699 C 0.01932 0.12328 0.55876 0.0
C1700 C 0.02202 0.13551 0.53685 0.0
C1701 C 0.01929 0.12209 0.51447 0.0
C1702 C 0.01622 0.09637 0.51417 0.0
C1703 C 0.03086 0.16165 0.53792 0.0
C1704 C 0.01608 0.17947 0.53006 0.0
C1705 C 0.05315 0.16901 0.54913 0.0
C1706 C 0.06989 0.15088 0.5569 0.0
C1707 C 0.07732 0.13312 0.54007 0.0
C1708 C 0.09269 0.11577 0.5476 0.0
C1709 C 0.10092 0.11612 0.57187 0.0
C1710 C 0.09386 0.13387 0.58865 0.0
C1711 C 0.07844 0.15123 0.58123 0.0
H1712 H 0.11281 0.10267 0.57766 0.0
H1713 H 0.9605 0.2698 0.50927 0.0
H1714 H 0.56566 0.2263 0.45349 0.0
H1715 H 0.54689 0.26334 0.46717 0.0
H1716 H 0.60852 0.30804 0.4457 0.0
H1717 H 0.62766 0.27093 0.43349 0.0
H1718 H 0.59532 0.32626 0.48524 0.0
H1719 H 0.55436 0.2993 0.41047 0.0
H1720 H 0.5311 0.27078 0.38163 0.0
H1721 H 0.47409 0.26557 0.432 0.0
H1722 H 0.49715 0.29387 0.46128 0.0
H1723 H 0.55054 0.43456 0.44736 0.0
H1724 H 0.56105 0.39232 0.4469 0.0
H1725 H 0.51275 0.3766 0.50495 0.0
H1726 H 0.50203 0.41961 0.50587 0.0
H1727 H 0.51473 0.34181 0.45478 0.0
H1728 H 0.55964 0.37823 0.52608 0.0
H1729 H 0.58479 0.41228 0.54612 0.0
H1730 H 0.6374 0.40439 0.49168 0.0
H1731 H 0.61239 0.37057 0.47109 0.0
C1732 C 0.57511 0.24411 0.45192 0.0
C1733 C 0.598 0.246 0.44257 0.0
C1734 C 0.56439 0.26523 0.45956 0.0
C1735 C 0.57614 0.28856 0.45719 0.0
C1736 C 0.59912 0.29029 0.44788 0.0
C1737 C 0.61003 0.26917 0.44082 0.0
C1738 C 0.56461 0.31129 0.46411 0.0
C1739 C 0.57765 0.32951 0.47862 0.0
C1740 C 0.54145 0.31563 0.45567 0.0
C1741 C 0.52762 0.29843 0.43821 0.0
C1742 C 0.53695 0.29189 0.41549 0.0
C1743 C 0.52379 0.27581 0.39905 0.0
C1744 C 0.50117 0.26629 0.40503 0.0
C1745 C 0.49164 0.2729 0.42743 0.0
C1746 C 0.50475 0.28897 0.44396 0.0
C1747 C 0.54196 0.42226 0.46006 0.0
C1748 C 0.52544 0.4305 0.47674 0.0
C1749 C 0.54803 0.3981 0.4597 0.0
C1750 C 0.53768 0.38154 0.47588 0.0
C1751 C 0.52084 0.38931 0.49233 0.0
C1752 C 0.51487 0.4138 0.49291 0.0
C1753 C 0.54556 0.35644 0.47559 0.0
C1754 C 0.532 0.33797 0.46209 0.0
C1755 C 0.5686 0.3522 0.48406 0.0
C1756 C 0.58409 0.37188 0.49702 0.0
C1757 C 0.57653 0.38381 0.51834 0.0
C1758 C 0.59077 0.40307 0.52979 0.0
C1759 C 0.61268 0.41049 0.52018 0.0
C1760 C 0.62044 0.3986 0.49913 0.0
C1761 C 0.60626 0.37935 0.48759 0.0
H1762 H 0.62364 0.42544 0.52903 0.0
H1763 H 0.49099 0.25386 0.39226 0.0
loop_
_geom_bond_atom_site_label_1
_geom_bond_atom_site_label_2
_geom_bond_distance
_geom_bond_site_symmetry_2
_ccdc_geom_bond_type
C0 C1 1.391 . S
C0 C4 1.391 . S
C0 H42 0.948 . S
C1 C0 1.391 . S
C1 C2 1.391 . S
C2 C1 1.391 . S
C2 H58 0.947 . S
C2 C59 1.392 . S
C3 C4 1.391 . S
C3 C7 1.397 . S
C3 C59 1.419 . S
C4 C0 1.391 . S
C4 C3 1.391 . S
C4 C5 1.399 . S
C5 C4 1.399 . S
C5 C8 1.396 . S
C5 C17 1.453 . S
C5 C18 1.684 . S
H6 C30 0.948 . S
C7 C3 1.397 . S
C7 C8 1.394 . S
C7 C26 1.723 . S
C8 C5 1.396 . S
C8 C7 1.394 . S
C8 C38 1.723 . S
H9 C32 0.947 . S
H10 C33 0.948 . S
H11 C39 0.982 . S
H12 C40 0.979 . S
H13 C40 0.980 . S
H14 C40 0.983 . S
H15 C39 0.979 . S
H16 C39 0.977 . S
C17 C5 1.453 . S
C17 H46 0.982 . S
C17 H47 0.979 . S
C17 H48 0.977 . S
C18 C5 1.684 . S
C18 H43 0.979 . S
C18 H44 0.980 . S
C18 H45 0.983 . S
C19 C20 1.391 . S
C19 C24 1.391 . S
C19 H49 0.948 . S
C20 C19 1.391 . S
C20 C21 1.391 . S
C21 C20 1.391 . S
C21 C22 1.392 . S
C21 H50 0.947 . S
C22 C21 1.392 . S
C22 C23 1.419 . S
C22 H51 0.948 . S
C23 C22 1.419 . S
C23 C24 1.391 . S
C23 C27 1.397 . S
C24 C19 1.391 . S
C24 C23 1.391 . S
C24 C25 1.399 . S
C25 C24 1.399 . S
C25 C26 1.396 . S
C25 C28 1.453 . S
C25 C29 1.684 . S
C26 C7 1.723 . S
C26 C25 1.396 . S
C26 C27 1.394 . S
C27 C23 1.397 . S
C27 C26 1.394 . S
C27 C37 1.723 . S
C28 C25 1.453 . S
C28 H52 0.982 . S
C28 H53 0.979 . S
C28 H54 0.977 . S
C29 C25 1.684 . S
C29 H55 0.979 . S
C29 H56 0.980 . S
C29 H57 0.983 . S
C30 H6 0.948 . S
C30 C31 1.391 . S
C30 C35 1.391 . S
C31 C30 1.391 . S
C31 C32 1.391 . S
C32 H9 0.947 . S
C32 C31 1.391 . S
C32 C33 1.392 . S
C33 H10 0.948 . S
C33 C32 1.392 . S
C33 C34 1.419 . S
C34 C33 1.419 . S
C34 C35 1.391 . S
C34 C38 1.397 . S
C35 C30 1.391 . S
C35 C34 1.391 . S
C35 C36 1.399 . S
C36 C35 1.399 . S
C36 C37 1.396 . S
C36 C39 1.453 . S
C36 C40 1.684 . S
C37 C27 1.723 . S
C37 C36 1.396 . S
C37 C38 1.394 . S
C38 C8 1.723 . S
C38 C34 1.397 . S
C38 C37 1.394 . S
C39 H11 0.982 . S
C39 H15 0.979 . S
C39 H16 0.977 . S
C39 C36 1.453 . S
C40 H12 0.979 . S
C40 H13 0.980 . S
C40 H14 0.983 . S
C40 C36 1.684 . S
H41 C59 0.948 . S
H42 C0 0.948 . S
H43 C18 0.979 . S
H44 C18 0.980 . S
H45 C18 0.983 . S
H46 C17 0.982 . S
H47 C17 0.979 . S
H48 C17 0.977 . S
H49 C19 0.948 . S
H50 C21 0.947 . S
H51 C22 0.948 . S
H52 C28 0.982 . S
H53 C28 0.979 . S
H54 C28 0.977 . S
H55 C29 0.979 . S
H56 C29 0.980 . S
H57 C29 0.983 . S
H58 C2 0.947 . S
C59 C2 1.392 . S
C59 C3 1.419 . S
C59 H41 0.948 . S
C60 C61 1.391 . S
C60 C64 1.391 . S
C60 H102 0.948 . S
C61 C60 1.391 . S
C61 C62 1.391 . S
C62 C61 1.391 . S
C62 H118 0.947 . S
C62 C119 1.392 . S
C63 C64 1.391 . S
C63 C67 1.397 . S
C63 C119 1.419 . S
C64 C60 1.391 . S
C64 C63 1.391 . S
C64 C65 1.399 . S
C65 C64 1.399 . S
C65 C68 1.396 . S
C65 C77 1.453 . S
C65 C78 1.684 . S
H66 C90 0.948 . S
C67 C63 1.397 . S
C67 C68 1.394 . S
C67 C86 1.723 . S
C68 C65 1.396 . S
C68 C67 1.394 . S
C68 C98 1.723 . S
H69 C92 0.947 . S
H70 C93 0.948 . S
H71 C99 0.982 . S
H72 C100 0.979 . S
H73 C100 0.980 . S
H74 C100 0.983 . S
H75 C99 0.979 . S
H76 C99 0.977 . S
C77 C65 1.453 . S
C77 H106 0.982 . S
C77 H107 0.979 . S
C77 H108 0.977 . S
C78 C65 1.684 . S
C78 H103 0.979 . S
C78 H104 0.980 . S
C78 H105 0.983 . S
C79 C80 1.391 . S
C79 C84 1.391 . S
C79 H109 0.948 . S
C80 C79 1.391 . S
C80 C81 1.391 . S
C81 C80 1.391 . S
C81 C82 1.392 . S
C81 H110 0.947 . S
C82 C81 1.392 . S
C82 C83 1.419 . S
C82 H111 0.948 . S
C83 C82 1.419 . S
C83 C84 1.391 . S
C83 C87 1.397 . S
C84 C79 1.391 . S
C84 C83 1.391 . S
C84 C85 1.399 . S
C85 C84 1.399 . S
C85 C86 1.396 . S
C85 C88 1.453 . S
C85 C89 1.684 . S
C86 C67 1.723 . S
C86 C85 1.396 . S
C86 C87 1.394 . S
C87 C83 1.397 . S
C87 C86 1.394 . S
C87 C97 1.723 . S
C88 C85 1.453 . S
C88 H112 0.982 . S
C88 H113 0.979 . S
C88 H114 0.977 . S
C89 C85 1.684 . S
C89 H115 0.979 . S
C89 H116 0.980 . S
C89 H117 0.983 . S
C90 H66 0.948 . S
C90 C91 1.391 . S
C90 C95 1.391 . S
C91 C90 1.391 . S
C91 C92 1.391 . S
C92 H69 0.947 . S
C92 C91 1.391 . S
C92 C93 1.392 . S
C93 H70 0.948 . S
C93 C92 1.392 . S
C93 C94 1.419 . S
C94 C93 1.419 . S
C94 C95 1.391 . S
C94 C98 1.397 . S
C95 C90 1.391 . S
C95 C94 1.391 . S
C95 C96 1.399 . S
C96 C95 1.399 . S
C96 C97 1.396 . S
C96 C99 1.453 . S
C96 C100 1.684 . S
C97 C87 1.723 . S
C97 C96 1.396 . S
C97 C98 1.394 . S
C98 C68 1.723 . S
C98 C94 1.397 . S
C98 C97 1.394 . S
C99 H71 0.982 . S
C99 H75 0.979 . S
C99 H76 0.977 . S
C99 C96 1.453 . S
C100 H72 0.979 . S
C100 H73 0.980 . S
C100 H74 0.983 . S
C100 C96 1.684 . S
H101 C119 0.948 . S
H102 C60 0.948 . S
H103 C78 0.979 . S
H104 C78 0.980 . S
H105 C78 0.983 . S
H106 C77 0.982 . S
H107 C77 0.979 . S
H108 C77 0.977 . S
H109 C79 0.948 . S
H110 C81 0.947 . S
H111 C82 0.948 . S
H112 C88 0.982 . S
H113 C88 0.979 . S
H114 C88 0.977 . S
H115 C89 0.979 . S
H116 C89 0.980 . S
H117 C89 0.983 . S
H118 C62 0.947 . S
C119 C62 1.392 . S
C119 C63 1.419 . S
C119 H101 0.948 . S
C120 C121 1.391 . S
C120 C124 1.391 . S
C120 H162 0.948 . S
C121 C120 1.391 . S
C121 C122 1.391 . S
C122 C121 1.391 . S
C122 H178 0.947 . S
C122 C179 1.392 . S
C123 C124 1.391 . S
C123 C127 1.397 . S
C123 C179 1.419 . S
C124 C120 1.391 . S
C124 C123 1.391 . S
C124 C125 1.399 . S
C125 C124 1.399 . S
C125 C128 1.396 . S
C125 C137 1.453 . S
C125 C138 1.684 . S
H126 C150 0.948 . S
C127 C123 1.397 . S
C127 C128 1.394 . S
C127 C146 1.723 . S
C128 C125 1.396 . S
C128 C127 1.394 . S
C128 C158 1.723 . S
H129 C152 0.947 . S
H130 C153 0.948 . S
H131 C159 0.982 . S
H132 C160 0.979 . S
H133 C160 0.980 . S
H134 C160 0.983 . S
H135 C159 0.979 . S
H136 C159 0.977 . S
C137 C125 1.453 . S
C137 H166 0.982 . S
C137 H167 0.979 . S
C137 H168 0.977 . S
C138 C125 1.684 . S
C138 H163 0.979 . S
C138 H164 0.980 . S
C138 H165 0.983 . S
C139 C140 1.391 . S
C139 C144 1.391 . S
C139 H169 0.948 . S
C140 C139 1.391 . S
C140 C141 1.391 . S
C141 C140 1.391 . S
C141 C142 1.392 . S
C141 H170 0.947 . S
C142 C141 1.392 . S
C142 C143 1.419 . S
C142 H171 0.948 . S
C143 C142 1.419 . S
C143 C144 1.391 . S
C143 C147 1.397 . S
C144 C139 1.391 . S
C144 C143 1.391 . S
C144 C145 1.399 . S
C145 C144 1.399 . S
C145 C146 1.396 . S
C145 C148 1.453 . S
C145 C149 1.684 . S
C146 C127 1.723 . S
C146 C145 1.396 . S
C146 C147 1.394 . S
C147 C143 1.397 . S
C147 C146 1.394 . S
C147 C157 1.723 . S
C148 C145 1.453 . S
C148 H172 0.982 . S
C148 H173 0.979 . S
C148 H174 0.977 . S
C149 C145 1.684 . S
C149 H175 0.979 . S
C149 H176 0.980 . S
C149 H177 0.983 . S
C150 H126 0.948 . S
C150 C151 1.391 . S
C150 C155 1.391 . S
C151 C150 1.391 . S
C151 C152 1.391 . S
C152 H129 0.947 . S
C152 C151 1.391 . S
C152 C153 1.392 . S
C153 H130 0.948 . S
C153 C152 1.392 . S
C153 C154 1.419 . S
C154 C153 1.419 . S
C154 C155 1.391 . S
C154 C158 1.397 . S
C155 C150 1.391 . S
C155 C154 1.391 . S
C155 C156 1.399 . S
C156 C155 1.399 . S
C156 C157 1.396 . S
C156 C159 1.453 . S
C156 C160 1.684 . S
C157 C147 1.723 . S
C157 C156 1.396 . S
C157 C158 1.394 . S
C158 C128 1.723 . S
C158 C154 1.397 . S
C158 C157 1.394 . S
C159 H131 0.982 . S
C159 H135 0.979 . S
C159 H136 0.977 . S
C159 C156 1.453 . S
C160 H132 0.979 . S
C160 H133 0.980 . S
C160 H134 0.983 . S
C160 C156 1.684 . S
H161 C179 0.948 . S
H162 C120 0.948 . S
H163 C138 0.979 . S
H164 C138 0.980 . S
H165 C138 0.983 . S
H166 C137 0.982 . S
H167 C137 0.979 . S
H168 C137 0.977 . S
H169 C139 0.948 . S
H170 C141 0.947 . S
H171 C142 0.948 . S
H172 C148 0.982 . S
H173 C148 0.979 . S
H174 C148 0.977 . S
H175 C149 0.979 . S
H176 C149 0.980 . S
H177 C149 0.983 . S
H178 C122 0.947 . S
C179 C122 1.392 . S
C179 C123 1.419 . S
C179 H161 0.948 . S
C180 C181 1.391 . S
C180 C184 1.391 . S
C180 H222 0.948 . S
C181 C180 1.391 . S
C181 C182 1.391 . S
C182 C181 1.391 . S
C182 H238 0.947 . S
C182 C239 1.392 . S
C183 C184 1.391 . S
C183 C187 1.397 . S
C183 C239 1.419 . S
C184 C180 1.391 . S
C184 C183 1.391 . S
C184 C185 1.399 . S
C185 C184 1.399 . S
C185 C188 1.396 . S
C185 C197 1.453 . S
C185 C198 1.684 . S
H186 C210 0.948 . S
C187 C183 1.397 . S
C187 C188 1.394 . S
C187 C206 1.723 . S
C188 C185 1.396 . S
C188 C187 1.394 . S
C188 C218 1.723 . S
H189 C212 0.947 . S
H190 C213 0.948 . S
H191 C219 0.982 . S
H192 C220 0.979 . S
H193 C220 0.980 . S
H194 C220 0.983 . S
H195 C219 0.979 . S
H196 C219 0.977 . S
C197 C185 1.453 . S
C197 H226 0.982 . S
C197 H227 0.979 . S
C197 H228 0.977 . S
C198 C185 1.684 . S
C198 H223 0.979 . S
C198 H224 0.980 . S
C198 H225 0.983 . S
C199 C200 1.391 . S
C199 C204 1.391 . S
C199 H229 0.948 . S
C200 C199 1.391 . S
C200 C201 1.391 . S
C201 C200 1.391 . S
C201 C202 1.392 . S
C201 H230 0.947 . S
C202 C201 1.392 . S
C202 C203 1.419 . S
C202 H231 0.948 . S
C203 C202 1.419 . S
C203 C204 1.391 . S
C203 C207 1.397 . S
C204 C199 1.391 . S
C204 C203 1.391 . S
C204 C205 1.399 . S
C205 C204 1.399 . S
C205 C206 1.396 . S
C205 C208 1.453 . S
C205 C209 1.684 . S
C206 C187 1.723 . S
C206 C205 1.396 . S
C206 C207 1.394 . S
C207 C203 1.397 . S
C207 C206 1.394 . S
C207 C217 1.723 . S
C208 C205 1.453 . S
C208 H232 0.982 . S
C208 H233 0.979 . S
C208 H234 0.977 . S
C209 C205 1.684 . S
C209 H235 0.979 . S
C209 H236 0.980 . S
C209 H237 0.983 . S
C210 H186 0.948 . S
C210 C211 1.391 . S
C210 C215 1.391 . S
C211 C210 1.391 . S
C211 C212 1.391 . S
C212 H189 0.947 . S
C212 C211 1.391 . S
C212 C213 1.392 . S
C213 H190 0.948 . S
C213 C212 1.392 . S
C213 C214 1.419 . S
C214 C213 1.419 . S
C214 C215 1.391 . S
C214 C218 1.397 . S
C215 C210 1.391 . S
C215 C214 1.391 . S
C215 C216 1.399 . S
C216 C215 1.399 . S
C216 C217 1.396 . S
C216 C219 1.453 . S
C216 C220 1.684 . S
C217 C207 1.723 . S
C217 C216 1.396 . S
C217 C218 1.394 . S
C218 C188 1.723 . S
C218 C214 1.397 . S
C218 C217 1.394 . S
C219 H191 0.982 . S
C219 H195 0.979 . S
C219 H196 0.977 . S
C219 C216 1.453 . S
C220 H192 0.979 . S
C220 H193 0.980 . S
C220 H194 0.983 . S
C220 C216 1.684 . S
H221 C239 0.948 . S
H222 C180 0.948 . S
H223 C198 0.979 . S
H224 C198 0.980 . S
H225 C198 0.983 . S
H226 C197 0.982 . S
H227 C197 0.979 . S
H228 C197 0.977 . S
H229 C199 0.948 . S
H230 C201 0.947 . S
H231 C202 0.948 . S
H232 C208 0.982 . S
H233 C208 0.979 . S
H234 C208 0.977 . S
H235 C209 0.979 . S
H236 C209 0.980 . S
H237 C209 0.983 . S
H238 C182 0.947 . S
C239 C182 1.392 . S
C239 C183 1.419 . S
C239 H221 0.948 . S
C240 C241 1.391 . S
C240 C244 1.391 . S
C240 H282 0.948 . S
C241 C240 1.391 . S
C241 C242 1.391 . S
C242 C241 1.391 . S
C242 H298 0.947 . S
C242 C299 1.392 . S
C243 C244 1.391 . S
C243 C247 1.397 . S
C243 C299 1.419 . S
C244 C240 1.391 . S
C244 C243 1.391 . S
C244 C245 1.399 . S
C245 C244 1.399 . S
C245 C248 1.396 . S
C245 C257 1.453 . S
C245 C258 1.684 . S
H246 C270 0.948 . S
C247 C243 1.397 . S
C247 C248 1.394 . S
C247 C266 1.723 . S
C248 C245 1.396 . S
C248 C247 1.394 . S
C248 C278 1.723 . S
H249 C272 0.947 . S
H250 C273 0.948 . S
H251 C279 0.982 . S
H252 C280 0.979 . S
H253 C280 0.980 . S
H254 C280 0.983 . S
H255 C279 0.979 . S
H256 C279 0.977 . S
C257 C245 1.453 . S
C257 H286 0.982 . S
C257 H287 0.979 . S
C257 H288 0.977 . S
C258 C245 1.684 . S
C258 H283 0.979 . S
C258 H284 0.980 . S
C258 H285 0.983 . S
C259 C260 1.391 . S
C259 C264 1.391 . S
C259 H289 0.948 . S
C260 C259 1.391 . S
C260 C261 1.391 . S
C261 C260 1.391 . S
C261 C262 1.392 . S
C261 H290 0.947 . S
C262 C261 1.392 . S
C262 C263 1.419 . S
C262 H291 0.948 . S
C263 C262 1.419 . S
C263 C264 1.391 . S
C263 C267 1.397 . S
C264 C259 1.391 . S
C264 C263 1.391 . S
C264 C265 1.399 . S
C265 C264 1.399 . S
C265 C266 1.396 . S
C265 C268 1.453 . S
C265 C269 1.684 . S
C266 C247 1.723 . S
C266 C265 1.396 . S
C266 C267 1.394 . S
C267 C263 1.397 . S
C267 C266 1.394 . S
C267 C277 1.723 . S
C268 C265 1.453 . S
C268 H292 0.982 . S
C268 H293 0.979 . S
C268 H294 0.977 . S
C269 C265 1.684 . S
C269 H295 0.979 . S
C269 H296 0.980 . S
C269 H297 0.983 . S
C270 H246 0.948 . S
C270 C271 1.391 . S
C270 C275 1.391 . S
C271 C270 1.391 . S
C271 C272 1.391 . S
C272 H249 0.947 . S
C272 C271 1.391 . S
C272 C273 1.392 . S
C273 H250 0.948 . S
C273 C272 1.392 . S
C273 C274 1.419 . S
C274 C273 1.419 . S
C274 C275 1.391 . S
C274 C278 1.397 . S
C275 C270 1.391 . S
C275 C274 1.391 . S
C275 C276 1.399 . S
C276 C275 1.399 . S
C276 C277 1.396 . S
C276 C279 1.453 . S
C276 C280 1.684 . S
C277 C267 1.723 . S
C277 C276 1.396 . S
C277 C278 1.394 . S
C278 C248 1.723 . S
C278 C274 1.397 . S
C278 C277 1.394 . S
C279 H251 0.982 . S
C279 H255 0.979 . S
C279 H256 0.977 . S
C279 C276 1.453 . S
C280 H252 0.979 . S
C280 H253 0.980 . S
C280 H254 0.983 . S
C280 C276 1.684 . S
H281 C299 0.948 . S
H282 C240 0.948 . S
H283 C258 0.979 . S
H284 C258 0.980 . S
H285 C258 0.983 . S
H286 C257 0.982 . S
H287 C257 0.979 . S
H288 C257 0.977 . S
H289 C259 0.948 . S
H290 C261 0.947 . S
H291 C262 0.948 . S
H292 C268 0.982 . S
H293 C268 0.979 . S
H294 C268 0.977 . S
H295 C269 0.979 . S
H296 C269 0.980 . S
H297 C269 0.983 . S
H298 C242 0.947 . S
C299 C242 1.392 . S
C299 C243 1.419 . S
C299 H281 0.948 . S
C300 C301 1.391 . S
C300 C304 1.391 . S
C300 H342 0.948 . S
C301 C300 1.391 . S
C301 C302 1.391 . S
C302 C301 1.391 . S
C302 H358 0.947 . S
C302 C359 1.392 . S
C303 C304 1.391 . S
C303 C307 1.397 . S
C303 C359 1.419 . S
C304 C300 1.391 . S
C304 C303 1.391 . S
C304 C305 1.399 . S
C305 C304 1.399 . S
C305 C308 1.396 . S
C305 C317 1.453 . S
C305 C318 1.684 . S
H306 C330 0.948 . S
C307 C303 1.397 . S
C307 C308 1.394 . S
C307 C326 1.723 . S
C308 C305 1.396 . S
C308 C307 1.394 . S
C308 C338 1.723 . S
H309 C332 0.947 . S
H310 C333 0.948 . S
H311 C339 0.982 . S
H312 C340 0.979 . S
H313 C340 0.980 . S
H314 C340 0.983 . S
H315 C339 0.979 . S
H316 C339 0.977 . S
C317 C305 1.453 . S
C317 H346 0.982 . S
C317 H347 0.979 . S
C317 H348 0.977 . S
C318 C305 1.684 . S
C318 H343 0.979 . S
C318 H344 0.980 . S
C318 H345 0.983 . S
C319 C320 1.391 . S
C319 C324 1.391 . S
C319 H349 0.948 . S
C320 C319 1.391 . S
C320 C321 1.391 . S
C321 C320 1.391 . S
C321 C322 1.392 . S
C321 H350 0.947 . S
C322 C321 1.392 . S
C322 C323 1.419 . S
C322 H351 0.948 . S
C323 C322 1.419 . S
C323 C324 1.391 . S
C323 C327 1.397 . S
C324 C319 1.391 . S
C324 C323 1.391 . S
C324 C325 1.399 . S
C325 C324 1.399 . S
C325 C326 1.396 . S
C325 C328 1.453 . S
C325 C329 1.684 . S
C326 C307 1.723 . S
C326 C325 1.396 . S
C326 C327 1.394 . S
C327 C323 1.397 . S
C327 C326 1.394 . S
C327 C337 1.723 . S
C328 C325 1.453 . S
C328 H352 0.982 . S
C328 H353 0.979 . S
C328 H354 0.977 . S
C329 C325 1.684 . S
C329 H355 0.979 . S
C329 H356 0.980 . S
C329 H357 0.983 . S
C330 H306 0.948 . S
C330 C331 1.391 . S
C330 C335 1.391 . S
C331 C330 1.391 . S
C331 C332 1.391 . S
C332 H309 0.947 . S
C332 C331 1.391 . S
C332 C333 1.392 . S
C333 H310 0.948 . S
C333 C332 1.392 . S
C333 C334 1.419 . S
C334 C333 1.419 . S
C334 C335 1.391 . S
C334 C338 1.397 . S
C335 C330 1.391 . S
C335 C334 1.391 . S
C335 C336 1.399 . S
C336 C335 1.399 . S
C336 C337 1.396 . S
C336 C339 1.453 . S
C336 C340 1.684 . S
C337 C327 1.723 . S
C337 C336 1.396 . S
C337 C338 1.394 . S
C338 C308 1.723 . S
C338 C334 1.397 . S
C338 C337 1.394 . S
C339 H311 0.982 . S
C339 H315 0.979 . S
C339 H316 0.977 . S
C339 C336 1.453 . S
C340 H312 0.979 . S
C340 H313 0.980 . S
C340 H314 0.983 . S
C340 C336 1.684 . S
H341 C359 0.948 . S
H342 C300 0.948 . S
H343 C318 0.979 . S
H344 C318 0.980 . S
H345 C318 0.983 . S
H346 C317 0.982 . S
H347 C317 0.979 . S
H348 C317 0.977 . S
H349 C319 0.948 . S
H350 C321 0.947 . S
H351 C322 0.948 . S
H352 C328 0.982 . S
H353 C328 0.979 . S
H354 C328 0.977 . S
H355 C329 0.979 . S
H356 C329 0.980 . S
H357 C329 0.983 . S
H358 C302 0.947 . S
C359 C302 1.392 . S
C359 C303 1.419 . S
C359 H341 0.948 . S
C360 C361 1.391 . S
C360 C364 1.391 . S
C360 H402 0.948 . S
C361 C360 1.391 . S
C361 C362 1.391 . S
C362 C361 1.391 . S
C362 H418 0.947 . S
C362 C419 1.392 . S
C363 C364 1.391 . S
C363 C367 1.397 . S
C363 C419 1.419 . S
C364 C360 1.391 . S
C364 C363 1.391 . S
C364 C365 1.399 . S
C365 C364 1.399 . S
C365 C368 1.396 . S
C365 C377 1.453 . S
C365 C378 1.684 . S
H366 C390 0.948 . S
C367 C363 1.397 . S
C367 C368 1.394 . S
C367 C386 1.723 . S
C368 C365 1.396 . S
C368 C367 1.394 . S
C368 C398 1.723 . S
H369 C392 0.947 . S
H370 C393 0.948 . S
H371 C399 0.982 . S
H372 C400 0.979 . S
H373 C400 0.980 . S
H374 C400 0.983 . S
H375 C399 0.979 . S
H376 C399 0.977 . S
C377 C365 1.453 . S
C377 H406 0.982 . S
C377 H407 0.979 . S
C377 H408 0.977 . S
C378 C365 1.684 . S
C378 H403 0.979 . S
C378 H404 0.980 . S
C378 H405 0.983 . S
C379 C380 1.391 . S
C379 C384 1.391 . S
C379 H409 0.948 . S
C380 C379 1.391 . S
C380 C381 1.391 . S
C381 C380 1.391 . S
C381 C382 1.392 . S
C381 H410 0.947 . S
C382 C381 1.392 . S
C382 C383 1.419 . S
C382 H411 0.948 . S
C383 C382 1.419 . S
C383 C384 1.391 . S
C383 C387 1.397 . S
C384 C379 1.391 . S
C384 C383 1.391 . S
C384 C385 1.399 . S
C385 C384 1.399 . S
C385 C386 1.396 . S
C385 C388 1.453 . S
C385 C389 1.684 . S
C386 C367 1.723 . S
C386 C385 1.396 . S
C386 C387 1.394 . S
C387 C383 1.397 . S
C387 C386 1.394 . S
C387 C397 1.723 . S
C388 C385 1.453 . S
C388 H412 0.982 . S
C388 H413 0.979 . S
C388 H414 0.977 . S
C389 C385 1.684 . S
C389 H415 0.979 . S
C389 H416 0.980 . S
C389 H417 0.983 . S
C390 H366 0.948 . S
C390 C391 1.391 . S
C390 C395 1.391 . S
C391 C390 1.391 . S
C391 C392 1.391 . S
C392 H369 0.947 . S
C392 C391 1.391 . S
C392 C393 1.392 . S
C393 H370 0.948 . S
C393 C392 1.392 . S
C393 C394 1.419 . S
C394 C393 1.419 . S
C394 C395 1.391 . S
C394 C398 1.397 . S
C395 C390 1.391 . S
C395 C394 1.391 . S
C395 C396 1.399 . S
C396 C395 1.399 . S
C396 C397 1.396 . S
C396 C399 1.453 . S
C396 C400 1.684 . S
C397 C387 1.723 . S
C397 C396 1.396 . S
C397 C398 1.394 . S
C398 C368 1.723 . S
C398 C394 1.397 . S
C398 C397 1.394 . S
C399 H371 0.982 . S
C399 H375 0.979 . S
C399 H376 0.977 . S
C399 C396 1.453 . S
C400 H372 0.979 . S
C400 H373 0.980 . S
C400 H374 0.983 . S
C400 C396 1.684 . S
H401 C419 0.948 . S
H402 C360 0.948 . S
H403 C378 0.979 . S
H404 C378 0.980 . S
H405 C378 0.983 . S
H406 C377 0.982 . S
H407 C377 0.979 . S
H408 C377 0.977 . S
H409 C379 0.948 . S
H410 C381 0.947 . S
H411 C382 0.948 . S
H412 C388 0.982 . S
H413 C388 0.979 . S
H414 C388 0.977 . S
H415 C389 0.979 . S
H416 C389 0.980 . S
H417 C389 0.983 . S
H418 C362 0.947 . S
C419 C362 1.392 . S
C419 C363 1.419 . S
C419 H401 0.948 . S
C420 C421 1.391 . S
C420 C424 1.391 . S
C420 H462 0.948 . S
C421 C420 1.391 . S
C421 C422 1.391 . S
C422 C421 1.391 . S
C422 H478 0.947 . S
C422 C479 1.392 . S
C423 C424 1.391 . S
C423 C427 1.397 . S
C423 C479 1.419 . S
C424 C420 1.391 . S
C424 C423 1.391 . S
C424 C425 1.399 . S
C425 C424 1.399 . S
C425 C428 1.396 . S
C425 C437 1.453 . S
C425 C438 1.684 . S
H426 C450 0.948 . S
C427 C423 1.397 . S
C427 C428 1.394 . S
C427 C446 1.723 . S
C428 C425 1.396 . S
C428 C427 1.394 . S
C428 C458 1.723 . S
H429 C452 0.947 . S
H430 C453 0.948 . S
H431 C459 0.982 . S
H432 C460 0.979 . S
H433 C460 0.980 . S
H434 C460 0.983 . S
H435 C459 0.979 . S
H436 C459 0.977 . S
C437 C425 1.453 . S
C437 H466 0.982 . S
C437 H467 0.979 . S
C437 H468 0.977 . S
C438 C425 1.684 . S
C438 H463 0.979 . S
C438 H464 0.980 . S
C438 H465 0.983 . S
C439 C440 1.391 . S
C439 C444 1.391 . S
C439 H469 0.948 . S
C440 C439 1.391 . S
C440 C441 1.391 . S
C441 C440 1.391 . S
C441 C442 1.392 . S
C441 H470 0.947 . S
C442 C441 1.392 . S
C442 C443 1.419 . S
C442 H471 0.948 . S
C443 C442 1.419 . S
C443 C444 1.391 . S
C443 C447 1.397 . S
C444 C439 1.391 . S
C444 C443 1.391 . S
C444 C445 1.399 . S
C445 C444 1.399 . S
C445 C446 1.396 . S
C445 C448 1.453 . S
C445 C449 1.684 . S
C446 C427 1.723 . S
C446 C445 1.396 . S
C446 C447 1.394 . S
C447 C443 1.397 . S
C447 C446 1.394 . S
C447 C457 1.723 . S
C448 C445 1.453 . S
C448 H472 0.982 . S
C448 H473 0.979 . S
C448 H474 0.977 . S
C449 C445 1.684 . S
C449 H475 0.979 . S
C449 H476 0.980 . S
C449 H477 0.983 . S
C450 H426 0.948 . S
C450 C451 1.391 . S
C450 C455 1.391 . S
C451 C450 1.391 . S
C451 C452 1.391 . S
C452 H429 0.947 . S
C452 C451 1.391 . S
C452 C453 1.392 . S
C453 H430 0.948 . S
C453 C452 1.392 . S
C453 C454 1.419 . S
C454 C453 1.419 . S
C454 C455 1.391 . S
C454 C458 1.397 . S
C455 C450 1.391 . S
C455 C454 1.391 . S
C455 C456 1.399 . S
C456 C455 1.399 . S
C456 C457 1.396 . S
C456 C459 1.453 . S
C456 C460 1.684 . S
C457 C447 1.723 . S
C457 C456 1.396 . S
C457 C458 1.394 . S
C458 C428 1.723 . S
C458 C454 1.397 . S
C458 C457 1.394 . S
C459 H431 0.982 . S
C459 H435 0.979 . S
C459 H436 0.977 . S
C459 C456 1.453 . S
C460 H432 0.979 . S
C460 H433 0.980 . S
C460 H434 0.983 . S
C460 C456 1.684 . S
H461 C479 0.948 . S
H462 C420 0.948 . S
H463 C438 0.979 . S
H464 C438 0.980 . S
H465 C438 0.983 . S
H466 C437 0.982 . S
H467 C437 0.979 . S
H468 C437 0.977 . S
H469 C439 0.948 . S
H470 C441 0.947 . S
H471 C442 0.948 . S
H472 C448 0.982 . S
H473 C448 0.979 . S
H474 C448 0.977 . S
H475 C449 0.979 . S
H476 C449 0.980 . S
H477 C449 0.983 . S
H478 C422 0.947 . S
C479 C422 1.392 . S
C479 C423 1.419 . S
C479 H461 0.948 . S
O480 Mg481 1.990 . S
O480 C494 1.253 1_445 S
Mg481 O480 1.990 . S
Mg481 O484 2.180 . S
Mg481 O485 2.117 . S
Mg481 O499 2.030 1_545 S
O482 Mg483 2.072 1_665 S
O482 C494 1.260 . S
Mg483 O482 2.072 1_445 S
Mg483 O484 2.099 . S
Mg483 O486 2.079 . S
Mg483 O487 2.072 1_455 S
Mg483 O489 2.099 1_445 S
Mg483 O500 2.079 1_545 S
O484 Mg481 2.180 . S
O484 Mg483 2.099 . S
O484 C495 1.279 . S
O485 Mg481 2.117 . S
O485 C495 1.250 . S
O486 Mg483 2.079 . S
O486 C496 1.264 . S
O487 Mg483 2.072 1_655 S
O487 C497 1.260 . S
Mg488 O489 2.180 . S
Mg488 O490 2.030 1_565 S
Mg488 O491 1.990 1_565 S
Mg488 O492 2.117 . S
O489 Mg483 2.099 1_665 S
O489 Mg488 2.180 . S
O489 C498 1.279 . S
O490 Mg488 2.030 1_545 S
O490 C496 1.248 1_655 S
O491 Mg488 1.990 1_545 S
O491 C497 1.253 . S
O492 Mg488 2.117 . S
O492 C498 1.250 . S
C493 O499 1.248 . S
C493 O500 1.264 . S
C494 O480 1.253 1_665 S
C494 O482 1.260 . S
C495 O484 1.279 . S
C495 O485 1.250 . S
C496 O486 1.264 . S
C496 O490 1.248 1_455 S
C497 O487 1.260 . S
C497 O491 1.253 . S
C498 O489 1.279 . S
C498 O492 1.250 . S
O499 Mg481 2.030 1_565 S
O499 C493 1.248 . S
O500 Mg483 2.079 1_565 S
O500 C493 1.264 . S
O501 Mg502 1.990 . S
O501 C515 1.253 . S
Mg502 O501 1.990 . S
Mg502 O505 2.183 . S
Mg502 O506 2.117 1_554 S
Mg502 O520 2.030 . S
O503 Mg504 2.072 . S
O503 C515 1.260 . S
Mg504 O503 2.072 . S
Mg504 O505 2.099 . S
Mg504 O507 2.079 1_554 S
Mg504 O508 2.072 1_554 S
Mg504 O510 2.099 1_545 S
Mg504 O521 2.079 . S
O505 Mg502 2.183 . S
O505 Mg504 2.099 . S
O505 C516 1.276 1_554 S
O506 Mg502 2.117 1_556 S
O506 C516 1.250 . S
O507 Mg504 2.079 1_556 S
O507 C517 1.264 1_545 S
O508 Mg504 2.072 1_556 S
O508 C518 1.260 1_545 S
Mg509 O510 2.180 1_556 S
Mg509 O511 2.030 . S
Mg509 O512 1.990 . S
Mg509 O513 2.117 1_556 S
O510 Mg504 2.099 1_565 S
O510 Mg509 2.180 1_554 S
O510 C519 1.279 . S
O511 Mg509 2.030 . S
O511 C517 1.248 . S
O512 Mg509 1.990 . S
O512 C518 1.253 . S
O513 Mg509 2.117 1_554 S
O513 C519 1.250 . S
C514 O520 1.248 . S
C514 O521 1.264 . S
C515 O501 1.253 . S
C515 O503 1.260 . S
C516 O505 1.276 1_556 S
C516 O506 1.250 . S
C517 O507 1.264 1_565 S
C517 O511 1.248 . S
C518 O508 1.260 1_565 S
C518 O512 1.253 . S
C519 O510 1.279 . S
C519 O513 1.250 . S
O520 Mg502 2.030 . S
O520 C514 1.248 . S
O521 Mg504 2.079 . S
O521 C514 1.264 . S
O522 Mg523 1.990 . S
O522 C536 1.253 . S
Mg523 O522 1.990 . S
Mg523 O526 2.180 . S
Mg523 O527 2.117 . S
Mg523 O541 2.030 . S
O524 Mg525 2.072 . S
O524 C536 1.260 . S
Mg525 O524 2.072 . S
Mg525 O526 2.099 . S
Mg525 O528 2.079 . S
Mg525 O529 2.072 . S
Mg525 O531 2.099 . S
Mg525 O542 2.079 . S
O526 Mg523 2.180 . S
O526 Mg525 2.099 . S
O526 C537 1.279 . S
O527 Mg523 2.117 . S
O527 C537 1.250 . S
O528 Mg525 2.079 . S
O528 C538 1.264 . S
O529 Mg525 2.072 . S
O529 C539 1.260 . S
Mg530 O531 2.180 . S
Mg530 O532 2.030 . S
Mg530 O533 1.990 . S
Mg530 O534 2.117 . S
O531 Mg525 2.099 . S
O531 Mg530 2.180 . S
O531 C540 1.279 . S
O532 Mg530 2.030 . S
O532 C538 1.248 . S
O533 Mg530 1.990 . S
O533 C539 1.253 . S
O534 Mg530 2.117 . S
O534 C540 1.250 . S
C535 O541 1.248 . S
C535 O542 1.264 . S
C536 O522 1.253 . S
C536 O524 1.260 . S
C537 O526 1.279 . S
C537 O527 1.250 . S
C538 O528 1.264 . S
C538 O532 1.248 . S
C539 O529 1.260 . S
C539 O533 1.253 . S
C540 O531 1.279 . S
C540 O534 1.250 . S
O541 Mg523 2.030 . S
O541 C535 1.248 . S
O542 Mg525 2.079 . S
O542 C535 1.264 . S
O543 Mg544 1.990 . S
O543 C557 1.253 . S
Mg544 O543 1.990 . S
Mg544 O547 2.180 1_455 S
Mg544 O548 2.117 1_455 S
Mg544 O562 2.030 . S
O545 Mg546 2.072 . S
O545 C557 1.260 . S
Mg546 O545 2.072 . S
Mg546 O547 2.099 1_455 S
Mg546 O549 2.079 1_454 S
Mg546 O550 2.072 1_455 S
Mg546 O552 2.099 1_554 S
Mg546 O563 2.079 . S
O547 Mg544 2.180 1_655 S
O547 Mg546 2.099 1_655 S
O547 C558 1.279 . S
O548 Mg544 2.117 1_655 S
O548 C558 1.250 . S
O549 Mg546 2.079 1_656 S
O549 C559 1.264 . S
O550 Mg546 2.072 1_655 S
O550 C560 1.260 1_554 S
Mg551 O552 2.180 1_655 S
Mg551 O553 2.030 . S
Mg551 O554 1.990 . S
Mg551 O555 2.125 . S
O552 Mg546 2.099 1_556 S
O552 Mg551 2.180 1_455 S
O552 C561 1.279 . S
O553 Mg551 2.030 . S
O553 C559 1.248 . S
O554 Mg551 1.990 . S
O554 C560 1.253 . S
O555 Mg551 2.125 . S
O555 C561 1.243 1_655 S
C556 O562 1.248 . S
C556 O563 1.264 . S
C557 O543 1.253 . S
C557 O545 1.260 . S
C558 O547 1.279 . S
C558 O548 1.250 . S
C559 O549 1.264 . S
C559 O553 1.248 . S
C560 O550 1.260 1_556 S
C560 O554 1.253 . S
C561 O552 1.279 . S
C561 O555 1.243 1_455 S
O562 Mg544 2.030 . S
O562 C556 1.248 . S
O563 Mg546 2.079 . S
O563 C556 1.264 . S
H564 C582 0.951 . S
H565 C584 0.951 . S
H566 C586 0.950 . S
H567 C587 0.950 . S
H568 C589 0.950 . S
H569 C592 0.950 . S
H570 C593 0.950 . S
H571 C595 0.950 . S
H572 C596 0.950 . S
H573 C597 0.951 . S
H574 C599 0.951 . S
H575 C601 0.950 . S
H576 C602 0.950 1_655 S
H577 C604 0.950 . S
H578 C607 0.950 . S
H579 C608 0.950 . S
H580 C610 0.950 . S
H581 C611 0.950 . S
C582 H564 0.951 . S
C582 C583 1.366 . S
C582 C584 1.388 . S
C583 C582 1.366 . S
C583 C587 1.385 . S
C584 H565 0.951 . S
C584 C582 1.388 . S
C584 C585 1.366 . S
C585 C584 1.366 . S
C585 C586 1.414 . S
C585 C588 1.499 . S
C586 H566 0.950 . S
C586 C585 1.414 . S
C586 C587 1.374 . S
C587 H567 0.950 . S
C587 C583 1.385 . S
C587 C586 1.374 . S
C588 C585 1.499 . S
C588 C589 1.373 . S
C588 C590 1.389 . S
C589 H568 0.950 . S
C589 C588 1.373 . S
C589 C605 1.377 . S
C590 C588 1.389 . S
C590 C591 1.524 . S
C590 C604 1.377 . S
C591 C590 1.524 . S
C591 C592 1.397 . S
C591 C596 1.363 . S
C592 H569 0.950 . S
C592 C591 1.397 . S
C592 C593 1.334 . S
C593 H570 0.950 . S
C593 C592 1.334 . S
C593 C594 1.287 . S
C594 C593 1.287 . S
C594 C595 1.524 1_455 S
C594 H613 0.913 . S
C595 H571 0.950 . S
C595 C594 1.524 1_655 S
C595 C596 1.415 1_655 S
C596 H572 0.950 . S
C596 C591 1.363 . S
C596 C595 1.415 1_455 S
C597 H573 0.951 . S
C597 C598 1.366 . S
C597 C599 1.388 . S
C598 C597 1.366 . S
C598 C602 1.385 . S
C599 H574 0.951 . S
C599 C597 1.388 . S
C599 C600 1.366 . S
C600 C599 1.366 . S
C600 C601 1.414 . S
C600 C603 1.499 . S
C601 H575 0.950 . S
C601 C600 1.414 . S
C601 C602 1.374 . S
C602 H576 0.950 1_455 S
C602 C598 1.385 . S
C602 C601 1.374 . S
C603 C600 1.499 . S
C603 C604 1.373 . S
C603 C605 1.389 . S
C604 H577 0.950 . S
C604 C590 1.377 . S
C604 C603 1.373 . S
C605 C589 1.377 . S
C605 C603 1.389 . S
C605 C606 1.524 . S
C606 C605 1.524 . S
C606 C607 1.397 . S
C606 C611 1.363 . S
C607 H578 0.950 . S
C607 C606 1.397 . S
C607 C608 1.334 1_545 S
C608 H579 0.950 . S
C608 C607 1.334 1_565 S
C608 C609 1.287 . S
C609 C608 1.287 . S
C609 C610 1.524 1_565 S
C609 H612 0.999 . S
C610 H580 0.950 . S
C610 C609 1.524 1_545 S
C610 C611 1.415 . S
C611 H581 0.950 . S
C611 C606 1.363 . S
C611 C610 1.415 . S
H612 C609 0.999 . S
H613 C594 0.913 . S
H614 C632 0.951 . S
H615 C634 0.951 . S
H616 C636 0.950 . S
H617 C637 0.950 . S
H618 C639 0.950 . S
H619 C642 0.950 . S
H620 C643 0.950 . S
H621 C645 0.950 . S
H622 C646 0.950 . S
H623 C647 0.951 . S
H624 C649 0.951 . S
H625 C651 0.950 . S
H626 C652 0.950 1_545 S
H627 C654 0.950 . S
H628 C657 0.950 . S
H629 C658 0.950 . S
H630 C660 0.950 . S
H631 C661 0.950 . S
C632 H614 0.951 . S
C632 C633 1.366 . S
C632 C634 1.388 . S
C633 C632 1.366 . S
C633 C637 1.385 . S
C634 H615 0.951 . S
C634 C632 1.388 . S
C634 C635 1.366 . S
C635 C634 1.366 . S
C635 C636 1.414 . S
C635 C638 1.499 . S
C636 H616 0.950 . S
C636 C635 1.414 . S
C636 C637 1.374 . S
C637 H617 0.950 . S
C637 C633 1.385 . S
C637 C636 1.374 . S
C638 C635 1.499 . S
C638 C639 1.373 . S
C638 C640 1.389 . S
C639 H618 0.950 . S
C639 C638 1.373 . S
C639 C655 1.377 . S
C640 C638 1.389 . S
C640 C641 1.524 . S
C640 C654 1.377 . S
C641 C640 1.524 . S
C641 C642 1.397 . S
C641 C646 1.363 . S
C642 H619 0.950 . S
C642 C641 1.397 . S
C642 C643 1.334 . S
C643 H620 0.950 . S
C643 C642 1.334 . S
C643 C644 1.287 . S
C644 C643 1.287 . S
C644 C645 1.524 . S
C644 H663 0.913 . S
C645 H621 0.950 . S
C645 C644 1.524 . S
C645 C646 1.415 . S
C646 H622 0.950 . S
C646 C641 1.363 . S
C646 C645 1.415 . S
C647 H623 0.951 . S
C647 C648 1.366 . S
C647 C649 1.388 . S
C648 C647 1.366 . S
C648 C652 1.385 . S
C649 H624 0.951 . S
C649 C647 1.388 . S
C649 C650 1.366 . S
C650 C649 1.366 . S
C650 C651 1.414 . S
C650 C653 1.499 . S
C651 H625 0.950 . S
C651 C650 1.414 . S
C651 C652 1.374 . S
C652 H626 0.950 1_565 S
C652 C648 1.385 . S
C652 C651 1.374 . S
C653 C650 1.499 . S
C653 C654 1.373 . S
C653 C655 1.389 . S
C654 H627 0.950 . S
C654 C640 1.377 . S
C654 C653 1.373 . S
C655 C639 1.377 . S
C655 C653 1.389 . S
C655 C656 1.524 . S
C656 C655 1.524 . S
C656 C657 1.397 1_565 S
C656 C661 1.363 . S
C657 H628 0.950 . S
C657 C656 1.397 1_545 S
C657 C658 1.334 . S
C658 H629 0.950 . S
C658 C657 1.334 . S
C658 C659 1.287 . S
C659 C658 1.287 . S
C659 C660 1.524 1_545 S
C659 H662 0.999 . S
C660 H630 0.950 . S
C660 C659 1.524 1_565 S
C660 C661 1.415 . S
C661 H631 0.950 . S
C661 C656 1.363 . S
C661 C660 1.415 . S
H662 C659 0.999 . S
H663 C644 0.913 . S
H664 C682 0.951 . S
H665 C684 0.951 . S
H666 C686 0.950 . S
H667 C687 0.950 . S
H668 C689 0.950 . S
H669 C692 0.950 . S
H670 C693 0.950 . S
H671 C695 0.950 . S
H672 C696 0.950 . S
H673 C697 0.951 . S
H674 C699 0.951 . S
H675 C701 0.950 . S
H676 C702 0.950 . S
H677 C704 0.950 . S
H678 C707 0.950 . S
H679 C708 0.950 . S
H680 C710 0.950 . S
H681 C711 0.950 . S
C682 H664 0.951 . S
C682 C683 1.366 . S
C682 C684 1.388 . S
C683 C682 1.366 . S
C683 C687 1.385 . S
C684 H665 0.951 . S
C684 C682 1.388 . S
C684 C685 1.366 . S
C685 C684 1.366 . S
C685 C686 1.414 . S
C685 C688 1.499 . S
C686 H666 0.950 . S
C686 C685 1.414 . S
C686 C687 1.374 . S
C687 H667 0.950 . S
C687 C683 1.385 . S
C687 C686 1.374 . S
C688 C685 1.499 . S
C688 C689 1.373 . S
C688 C690 1.389 . S
C689 H668 0.950 . S
C689 C688 1.373 . S
C689 C705 1.377 . S
C690 C688 1.389 . S
C690 C691 1.524 . S
C690 C704 1.377 . S
C691 C690 1.524 . S
C691 C692 1.397 . S
C691 C696 1.363 . S
C692 H669 0.950 . S
C692 C691 1.397 . S
C692 C693 1.334 . S
C693 H670 0.950 . S
C693 C692 1.334 . S
C693 C694 1.287 . S
C694 C693 1.287 . S
C694 C695 1.524 . S
C694 H713 0.913 . S
C695 H671 0.950 . S
C695 C694 1.524 . S
C695 C696 1.415 . S
C696 H672 0.950 . S
C696 C691 1.363 . S
C696 C695 1.415 . S
C697 H673 0.951 . S
C697 C698 1.366 . S
C697 C699 1.388 . S
C698 C697 1.366 . S
C698 C702 1.385 . S
C699 H674 0.951 . S
C699 C697 1.388 . S
C699 C700 1.366 . S
C700 C699 1.366 . S
C700 C701 1.414 . S
C700 C703 1.499 . S
C701 H675 0.950 . S
C701 C700 1.414 . S
C701 C702 1.374 . S
C702 H676 0.950 . S
C702 C698 1.385 . S
C702 C701 1.374 . S
C703 C700 1.499 . S
C703 C704 1.373 . S
C703 C705 1.389 . S
C704 H677 0.950 . S
C704 C690 1.377 . S
C704 C703 1.373 . S
C705 C689 1.377 . S
C705 C703 1.389 . S
C705 C706 1.524 . S
C706 C705 1.524 . S
C706 C707 1.397 . S
C706 C711 1.363 . S
C707 H678 0.950 . S
C707 C706 1.397 . S
C707 C708 1.334 . S
C708 H679 0.950 . S
C708 C707 1.334 . S
C708 C709 1.287 . S
C709 C708 1.287 . S
C709 C710 1.524 . S
C709 H712 0.999 . S
C710 H680 0.950 . S
C710 C709 1.524 . S
C710 C711 1.415 . S
C711 H681 0.950 . S
C711 C706 1.363 . S
C711 C710 1.415 . S
H712 C709 0.999 . S
H713 C694 0.913 . S
H714 C732 0.951 . S
H715 C734 0.951 . S
H716 C736 0.950 . S
H717 C737 0.950 . S
H718 C739 0.950 . S
H719 C742 0.950 . S
H720 C743 0.950 . S
H721 C745 0.950 . S
H722 C746 0.950 . S
H723 C747 0.933 1_455 S
H724 C749 0.951 . S
H725 C751 0.950 . S
H726 C752 0.950 . S
H727 C754 0.950 . S
H728 C757 0.950 . S
H729 C758 0.950 . S
H730 C760 0.950 1_455 S
H731 C761 0.950 . S
C732 H714 0.951 . S
C732 C733 1.366 . S
C732 C734 1.388 . S
C733 C732 1.366 . S
C733 C737 1.385 . S
C734 H715 0.951 . S
C734 C732 1.388 . S
C734 C735 1.366 . S
C735 C734 1.366 . S
C735 C736 1.414 . S
C735 C738 1.499 . S
C736 H716 0.950 . S
C736 C735 1.414 . S
C736 C737 1.374 . S
C737 H717 0.950 . S
C737 C733 1.385 . S
C737 C736 1.374 . S
C738 C735 1.499 . S
C738 C739 1.373 . S
C738 C740 1.389 . S
C739 H718 0.950 . S
C739 C738 1.373 . S
C739 C755 1.377 . S
C740 C738 1.389 . S
C740 C741 1.524 . S
C740 C754 1.377 . S
C741 C740 1.524 . S
C741 C742 1.397 . S
C741 C746 1.363 . S
C742 H719 0.950 . S
C742 C741 1.397 . S
C742 C743 1.334 . S
C743 H720 0.950 . S
C743 C742 1.334 . S
C743 C744 1.287 . S
C744 C743 1.287 . S
C744 C745 1.524 . S
C744 H763 0.913 . S
C745 H721 0.950 . S
C745 C744 1.524 . S
C745 C746 1.415 . S
C746 H722 0.950 . S
C746 C741 1.363 . S
C746 C745 1.415 . S
C747 H723 0.933 1_655 S
C747 C748 1.366 . S
C747 C749 1.388 . S
C748 C747 1.366 . S
C748 C752 1.385 . S
C749 H724 0.951 . S
C749 C747 1.388 . S
C749 C750 1.366 . S
C750 C749 1.366 . S
C750 C751 1.414 . S
C750 C753 1.499 . S
C751 H725 0.950 . S
C751 C750 1.414 . S
C751 C752 1.374 . S
C752 H726 0.950 . S
C752 C748 1.385 . S
C752 C751 1.374 . S
C753 C750 1.499 . S
C753 C754 1.373 . S
C753 C755 1.389 . S
C754 H727 0.950 . S
C754 C740 1.377 . S
C754 C753 1.373 . S
C755 C739 1.377 . S
C755 C753 1.389 . S
C755 C756 1.524 . S
C756 C755 1.524 . S
C756 C757 1.397 . S
C756 C761 1.363 . S
C757 H728 0.950 . S
C757 C756 1.397 . S
C757 C758 1.334 . S
C758 H729 0.950 . S
C758 C757 1.334 . S
C758 C759 1.287 . S
C759 C758 1.287 . S
C759 C760 1.524 . S
C759 H762 0.999 . S
C760 H730 0.950 1_655 S
C760 C759 1.524 . S
C760 C761 1.415 . S
C761 H731 0.950 . S
C761 C756 1.363 . S
C761 C760 1.415 . S
H762 C759 0.999 . S
H763 C744 0.913 . S
H764 C782 0.951 . S
H765 C784 0.951 . S
H766 C786 0.950 . S
H767 C787 0.950 . S
H768 C789 0.950 . S
H769 C792 0.950 . S
H770 C793 0.950 . S
H771 C795 0.950 1_565 S
H772 C796 0.950 . S
H773 C797 0.951 . S
H774 C799 0.951 . S
H775 C801 0.950 . S
H776 C802 0.950 . S
H777 C804 0.950 . S
H778 C807 0.950 . S
H779 C808 0.950 . S
H780 C810 0.950 . S
H781 C811 0.950 . S
C782 H764 0.951 . S
C782 C783 1.366 . S
C782 C784 1.388 . S
C783 C782 1.366 . S
C783 C787 1.385 . S
C784 H765 0.951 . S
C784 C782 1.388 . S
C784 C785 1.366 . S
C785 C784 1.366 . S
C785 C786 1.414 . S
C785 C788 1.499 . S
C786 H766 0.950 . S
C786 C785 1.414 . S
C786 C787 1.374 . S
C787 H767 0.950 . S
C787 C783 1.385 . S
C787 C786 1.374 . S
C788 C785 1.499 . S
C788 C789 1.373 . S
C788 C790 1.389 . S
C789 H768 0.950 . S
C789 C788 1.373 . S
C789 C805 1.377 . S
C790 C788 1.389 . S
C790 C791 1.524 . S
C790 C804 1.377 . S
C791 C790 1.524 . S
C791 C792 1.397 . S
C791 C796 1.363 . S
C792 H769 0.950 . S
C792 C791 1.397 . S
C792 C793 1.334 . S
C793 H770 0.950 . S
C793 C792 1.334 . S
C793 C794 1.287 . S
C794 C793 1.287 . S
C794 C795 1.524 . S
C794 H813 0.913 . S
C795 H771 0.950 1_545 S
C795 C794 1.524 . S
C795 C796 1.415 . S
C796 H772 0.950 . S
C796 C791 1.363 . S
C796 C795 1.415 . S
C797 H773 0.951 . S
C797 C798 1.366 . S
C797 C799 1.388 . S
C798 C797 1.366 . S
C798 C802 1.385 . S
C799 H774 0.951 . S
C799 C797 1.388 . S
C799 C800 1.366 . S
C800 C799 1.366 . S
C800 C801 1.414 . S
C800 C803 1.499 . S
C801 H775 0.950 . S
C801 C800 1.414 . S
C801 C802 1.374 . S
C802 H776 0.950 . S
C802 C798 1.385 . S
C802 C801 1.374 . S
C803 C800 1.499 . S
C803 C804 1.373 . S
C803 C805 1.389 . S
C804 H777 0.950 . S
C804 C790 1.377 . S
C804 C803 1.373 . S
C805 C789 1.377 . S
C805 C803 1.389 . S
C805 C806 1.524 . S
C806 C805 1.524 . S
C806 C807 1.397 1_554 S
C806 C811 1.363 . S
C807 H778 0.950 . S
C807 C806 1.397 1_556 S
C807 C808 1.334 . S
C808 H779 0.950 . S
C808 C807 1.334 . S
C808 C809 1.287 . S
C809 C808 1.287 . S
C809 C810 1.524 . S
C809 H812 0.999 . S
C810 H780 0.950 . S
C810 C809 1.524 . S
C810 C811 1.415 1_556 S
C811 H781 0.950 . S
C811 C806 1.363 . S
C811 C810 1.415 1_554 S
H812 C809 0.999 . S
H813 C794 0.913 . S
H814 C832 0.951 . S
H815 C834 0.951 . S
H816 C836 0.950 . S
H817 C837 0.950 . S
H818 C839 0.950 . S
H819 C842 0.950 . S
H820 C843 0.950 . S
H821 C845 0.950 . S
H822 C846 0.950 . S
H823 C847 0.951 1_545 S
H824 C849 0.951 . S
H825 C851 0.950 . S
H826 C852 0.950 . S
H827 C854 0.950 . S
H828 C857 0.950 . S
H829 C858 0.950 . S
H830 C860 0.950 . S
H831 C861 0.950 . S
C832 H814 0.951 . S
C832 C833 1.366 . S
C832 C834 1.388 . S
C833 C832 1.366 . S
C833 C837 1.385 . S
C834 H815 0.951 . S
C834 C832 1.388 . S
C834 C835 1.366 . S
C835 C834 1.366 . S
C835 C836 1.414 . S
C835 C838 1.499 . S
C836 H816 0.950 . S
C836 C835 1.414 . S
C836 C837 1.374 . S
C837 H817 0.950 . S
C837 C833 1.385 . S
C837 C836 1.374 . S
C838 C835 1.499 . S
C838 C839 1.373 . S
C838 C840 1.389 . S
C839 H818 0.950 . S
C839 C838 1.373 . S
C839 C855 1.377 . S
C840 C838 1.389 . S
C840 C841 1.524 . S
C840 C854 1.377 . S
C841 C840 1.524 . S
C841 C842 1.397 . S
C841 C846 1.363 . S
C842 H819 0.950 . S
C842 C841 1.397 . S
C842 C843 1.334 . S
C843 H820 0.950 . S
C843 C842 1.334 . S
C843 C844 1.287 . S
C844 C843 1.287 . S
C844 C845 1.524 . S
C844 H863 0.913 . S
C845 H821 0.950 . S
C845 C844 1.524 . S
C845 C846 1.415 . S
C846 H822 0.950 . S
C846 C841 1.363 . S
C846 C845 1.415 . S
C847 H823 0.951 1_565 S
C847 C848 1.366 . S
C847 C849 1.388 . S
C848 C847 1.366 . S
C848 C852 1.385 . S
C849 H824 0.951 . S
C849 C847 1.388 . S
C849 C850 1.366 . S
C850 C849 1.366 . S
C850 C851 1.414 . S
C850 C853 1.499 . S
C851 H825 0.950 . S
C851 C850 1.414 . S
C851 C852 1.374 . S
C852 H826 0.950 . S
C852 C848 1.385 . S
C852 C851 1.374 . S
C853 C850 1.499 . S
C853 C854 1.373 . S
C853 C855 1.389 . S
C854 H827 0.950 . S
C854 C840 1.377 . S
C854 C853 1.373 . S
C855 C839 1.377 . S
C855 C853 1.389 . S
C855 C856 1.524 . S
C856 C855 1.524 . S
C856 C857 1.397 . S
C856 C861 1.363 1_565 S
C857 H828 0.950 . S
C857 C856 1.397 . S
C857 C858 1.334 1_565 S
C858 H829 0.950 . S
C858 C857 1.334 1_545 S
C858 C859 1.287 . S
C859 C858 1.287 . S
C859 C860 1.524 . S
C859 H862 0.999 . S
C860 H830 0.950 . S
C860 C859 1.524 . S
C860 C861 1.415 . S
C861 H831 0.950 . S
C861 C856 1.363 1_545 S
C861 C860 1.415 . S
H862 C859 0.999 . S
H863 C844 0.913 . S
H864 C882 0.951 . S
H865 C884 0.951 . S
H866 C886 0.950 . S
H867 C887 0.950 . S
H868 C889 0.950 . S
H869 C892 0.950 . S
H870 C893 0.950 . S
H871 C895 0.950 . S
H872 C896 0.950 . S
H873 C897 0.951 . S
H874 C899 0.951 . S
H875 C901 0.950 . S
H876 C902 0.950 . S
H877 C904 0.950 . S
H878 C907 0.950 . S
H879 C908 0.950 . S
H880 C910 0.950 . S
H881 C911 0.950 . S
C882 H864 0.951 . S
C882 C883 1.366 . S
C882 C884 1.388 . S
C883 C882 1.366 . S
C883 C887 1.385 . S
C884 H865 0.951 . S
C884 C882 1.388 . S
C884 C885 1.366 . S
C885 C884 1.366 . S
C885 C886 1.414 . S
C885 C888 1.499 . S
C886 H866 0.950 . S
C886 C885 1.414 . S
C886 C887 1.374 . S
C887 H867 0.950 . S
C887 C883 1.385 . S
C887 C886 1.374 . S
C888 C885 1.499 . S
C888 C889 1.373 . S
C888 C890 1.389 . S
C889 H868 0.950 . S
C889 C888 1.373 . S
C889 C905 1.377 . S
C890 C888 1.389 . S
C890 C891 1.524 . S
C890 C904 1.377 . S
C891 C890 1.524 . S
C891 C892 1.397 . S
C891 C896 1.363 . S
C892 H869 0.950 . S
C892 C891 1.397 . S
C892 C893 1.334 1_556 S
C893 H870 0.950 . S
C893 C892 1.334 1_554 S
C893 C894 1.287 . S
C894 C893 1.287 . S
C894 C895 1.524 . S
C894 H913 0.913 . S
C895 H871 0.950 . S
C895 C894 1.524 . S
C895 C896 1.415 1_554 S
C896 H872 0.950 . S
C896 C891 1.363 . S
C896 C895 1.415 1_556 S
C897 H873 0.951 . S
C897 C898 1.366 . S
C897 C899 1.388 . S
C898 C897 1.366 . S
C898 C902 1.385 . S
C899 H874 0.951 . S
C899 C897 1.388 . S
C899 C900 1.366 . S
C900 C899 1.366 . S
C900 C901 1.414 . S
C900 C903 1.499 . S
C901 H875 0.950 . S
C901 C900 1.414 . S
C901 C902 1.374 . S
C902 H876 0.950 . S
C902 C898 1.385 . S
C902 C901 1.374 . S
C903 C900 1.499 . S
C903 C904 1.373 . S
C903 C905 1.389 . S
C904 H877 0.950 . S
C904 C890 1.377 . S
C904 C903 1.373 . S
C905 C889 1.377 . S
C905 C903 1.389 . S
C905 C906 1.524 . S
C906 C905 1.524 . S
C906 C907 1.397 . S
C906 C911 1.363 . S
C907 H878 0.950 . S
C907 C906 1.397 . S
C907 C908 1.334 . S
C908 H879 0.950 . S
C908 C907 1.334 . S
C908 C909 1.287 . S
C909 C908 1.287 . S
C909 C910 1.524 . S
C909 H912 0.999 . S
C910 H880 0.950 . S
C910 C909 1.524 . S
C910 C911 1.415 . S
C911 H881 0.950 . S
C911 C906 1.363 . S
C911 C910 1.415 . S
H912 C909 0.999 . S
H913 C894 0.913 . S
H914 C932 0.951 . S
H915 C934 0.951 . S
H916 C936 0.950 . S
H917 C937 0.950 . S
H918 C939 0.950 . S
H919 C942 0.950 . S
H920 C943 0.950 . S
H921 C945 0.950 . S
H922 C946 0.950 . S
H923 C947 0.951 . S
H924 C949 0.951 . S
H925 C951 0.950 . S
H926 C952 0.950 . S
H927 C954 0.950 . S
H928 C957 0.950 . S
H929 C958 0.950 . S
H930 C960 0.950 . S
H931 C961 0.950 . S
C932 H914 0.951 . S
C932 C933 1.366 . S
C932 C934 1.388 . S
C933 C932 1.366 . S
C933 C937 1.385 . S
C934 H915 0.951 . S
C934 C932 1.388 . S
C934 C935 1.366 . S
C935 C934 1.366 . S
C935 C936 1.414 . S
C935 C938 1.499 . S
C936 H916 0.950 . S
C936 C935 1.414 . S
C936 C937 1.374 . S
C937 H917 0.950 . S
C937 C933 1.385 . S
C937 C936 1.374 . S
C938 C935 1.499 . S
C938 C939 1.373 . S
C938 C940 1.389 . S
C939 H918 0.950 . S
C939 C938 1.373 . S
C939 C955 1.377 . S
C940 C938 1.389 . S
C940 C941 1.524 . S
C940 C954 1.377 . S
C941 C940 1.524 . S
C941 C942 1.397 . S
C941 C946 1.363 . S
C942 H919 0.950 . S
C942 C941 1.397 . S
C942 C943 1.334 . S
C943 H920 0.950 . S
C943 C942 1.334 . S
C943 C944 1.287 . S
C944 C943 1.287 . S
C944 C945 1.524 . S
C944 H963 0.913 . S
C945 H921 0.950 . S
C945 C944 1.524 . S
C945 C946 1.415 . S
C946 H922 0.950 . S
C946 C941 1.363 . S
C946 C945 1.415 . S
C947 H923 0.951 . S
C947 C948 1.366 . S
C947 C949 1.388 . S
C948 C947 1.366 . S
C948 C952 1.385 . S
C949 H924 0.951 . S
C949 C947 1.388 . S
C949 C950 1.366 . S
C950 C949 1.366 . S
C950 C951 1.414 . S
C950 C953 1.499 . S
C951 H925 0.950 . S
C951 C950 1.414 . S
C951 C952 1.374 . S
C952 H926 0.950 . S
C952 C948 1.385 . S
C952 C951 1.374 . S
C953 C950 1.499 . S
C953 C954 1.373 . S
C953 C955 1.389 . S
C954 H927 0.950 . S
C954 C940 1.377 . S
C954 C953 1.373 . S
C955 C939 1.377 . S
C955 C953 1.389 . S
C955 C956 1.524 . S
C956 C955 1.524 . S
C956 C957 1.397 . S
C956 C961 1.363 . S
C957 H928 0.950 . S
C957 C956 1.397 . S
C957 C958 1.334 . S
C958 H929 0.950 . S
C958 C957 1.334 . S
C958 C959 1.287 . S
C959 C958 1.287 . S
C959 C960 1.524 . S
C959 H962 0.999 . S
C960 H930 0.950 . S
C960 C959 1.524 . S
C960 C961 1.415 . S
C961 H931 0.950 . S
C961 C956 1.363 . S
C961 C960 1.415 . S
H962 C959 0.999 . S
H963 C944 0.913 . S
H964 C982 0.951 . S
H965 C984 0.951 . S
H966 C986 0.950 . S
H967 C987 0.950 . S
H968 C989 0.950 . S
H969 C992 0.950 . S
H970 C993 0.950 . S
H971 C995 0.950 . S
H972 C996 0.950 . S
H973 C997 0.951 . S
H974 C999 0.951 . S
H975 C1001 0.950 . S
H976 C1002 0.950 1_556 S
H977 C1004 0.950 . S
H978 C1007 0.950 . S
H979 C1008 0.950 . S
H980 C1010 0.950 . S
H981 C1011 0.950 1_455 S
C982 H964 0.951 . S
C982 C983 1.366 . S
C982 C984 1.388 . S
C983 C982 1.366 . S
C983 C987 1.385 . S
C984 H965 0.951 . S
C984 C982 1.388 . S
C984 C985 1.366 . S
C985 C984 1.366 . S
C985 C986 1.414 . S
C985 C988 1.499 . S
C986 H966 0.950 . S
C986 C985 1.414 . S
C986 C987 1.374 . S
C987 H967 0.950 . S
C987 C983 1.385 . S
C987 C986 1.374 . S
C988 C985 1.499 . S
C988 C989 1.373 . S
C988 C990 1.389 . S
C989 H968 0.950 . S
C989 C988 1.373 . S
C989 C1005 1.377 . S
C990 C988 1.389 . S
C990 C991 1.524 . S
C990 C1004 1.377 . S
C991 C990 1.524 . S
C991 C992 1.397 . S
C991 C996 1.363 . S
C992 H969 0.950 . S
C992 C991 1.397 . S
C992 C993 1.334 . S
C993 H970 0.950 . S
C993 C992 1.334 . S
C993 C994 1.287 . S
C994 C993 1.287 . S
C994 C995 1.524 . S
C994 H1013 0.913 . S
C995 H971 0.950 . S
C995 C994 1.524 . S
C995 C996 1.415 . S
C996 H972 0.950 . S
C996 C991 1.363 . S
C996 C995 1.415 . S
C997 H973 0.951 . S
C997 C998 1.366 . S
C997 C999 1.388 . S
C998 C997 1.366 . S
C998 C1002 1.385 . S
C999 H974 0.951 . S
C999 C997 1.388 . S
C999 C1000 1.366 . S
C1000 C999 1.366 . S
C1000 C1001 1.414 . S
C1000 C1003 1.499 . S
C1001 H975 0.950 . S
C1001 C1000 1.414 . S
C1001 C1002 1.374 . S
C1002 H976 0.950 1_554 S
C1002 C998 1.385 . S
C1002 C1001 1.374 . S
C1003 C1000 1.499 . S
C1003 C1004 1.373 . S
C1003 C1005 1.389 . S
C1004 H977 0.950 . S
C1004 C990 1.377 . S
C1004 C1003 1.373 . S
C1005 C989 1.377 . S
C1005 C1003 1.389 . S
C1005 C1006 1.524 . S
C1006 C1005 1.524 . S
C1006 C1007 1.397 . S
C1006 C1011 1.363 1_455 S
C1007 H978 0.950 . S
C1007 C1006 1.397 . S
C1007 C1008 1.334 1_455 S
C1008 H979 0.950 . S
C1008 C1007 1.334 1_655 S
C1008 C1009 1.287 . S
C1009 C1008 1.287 . S
C1009 C1010 1.524 . S
C1009 H1012 0.999 . S
C1010 H980 0.950 . S
C1010 C1009 1.524 . S
C1010 C1011 1.415 . S
C1011 H981 0.950 1_655 S
C1011 C1006 1.363 1_655 S
C1011 C1010 1.415 . S
H1012 C1009 0.999 . S
H1013 C994 0.913 . S
H1014 C1032 0.951 . S
H1015 C1034 0.951 . S
H1016 C1036 0.950 . S
H1017 C1037 0.950 . S
H1018 C1039 0.950 . S
H1019 C1042 0.950 . S
H1020 C1043 0.950 . S
H1021 C1045 0.950 . S
H1022 C1046 0.950 . S
H1023 C1047 0.951 . S
H1024 C1049 0.951 . S
H1025 C1051 0.950 . S
H1026 C1052 0.950 1_554 S
H1027 C1054 0.950 . S
H1028 C1057 0.950 . S
H1029 C1058 0.950 . S
H1030 C1060 0.950 . S
H1031 C1061 0.950 . S
C1032 H1014 0.951 . S
C1032 C1033 1.366 . S
C1032 C1034 1.388 . S
C1033 C1032 1.366 . S
C1033 C1037 1.385 . S
C1034 H1015 0.951 . S
C1034 C1032 1.388 . S
C1034 C1035 1.366 . S
C1035 C1034 1.366 . S
C1035 C1036 1.414 . S
C1035 C1038 1.499 . S
C1036 H1016 0.950 . S
C1036 C1035 1.414 . S
C1036 C1037 1.374 . S
C1037 H1017 0.950 . S
C1037 C1033 1.385 . S
C1037 C1036 1.374 . S
C1038 C1035 1.499 . S
C1038 C1039 1.373 . S
C1038 C1040 1.389 . S
C1039 H1018 0.950 . S
C1039 C1038 1.373 . S
C1039 C1055 1.377 . S
C1040 C1038 1.389 . S
C1040 C1041 1.524 . S
C1040 C1054 1.377 . S
C1041 C1040 1.524 . S
C1041 C1042 1.397 . S
C1041 C1046 1.363 . S
C1042 H1019 0.950 . S
C1042 C1041 1.397 . S
C1042 C1043 1.334 . S
C1043 H1020 0.950 . S
C1043 C1042 1.334 . S
C1043 C1044 1.287 . S
C1044 C1043 1.287 . S
C1044 C1045 1.524 . S
C1044 H1063 0.913 . S
C1045 H1021 0.950 . S
C1045 C1044 1.524 . S
C1045 C1046 1.415 . S
C1046 H1022 0.950 . S
C1046 C1041 1.363 . S
C1046 C1045 1.415 . S
C1047 H1023 0.951 . S
C1047 C1048 1.366 . S
C1047 C1049 1.388 . S
C1048 C1047 1.366 . S
C1048 C1052 1.385 . S
C1049 H1024 0.951 . S
C1049 C1047 1.388 . S
C1049 C1050 1.366 . S
C1050 C1049 1.366 . S
C1050 C1051 1.414 . S
C1050 C1053 1.499 . S
C1051 H1025 0.950 . S
C1051 C1050 1.414 . S
C1051 C1052 1.374 . S
C1052 H1026 0.950 1_556 S
C1052 C1048 1.385 . S
C1052 C1051 1.374 . S
C1053 C1050 1.499 . S
C1053 C1054 1.373 . S
C1053 C1055 1.389 . S
C1054 H1027 0.950 . S
C1054 C1040 1.377 . S
C1054 C1053 1.373 . S
C1055 C1039 1.377 . S
C1055 C1053 1.389 . S
C1055 C1056 1.524 . S
C1056 C1055 1.524 . S
C1056 C1057 1.397 . S
C1056 C1061 1.363 . S
C1057 H1028 0.950 . S
C1057 C1056 1.397 . S
C1057 C1058 1.334 . S
C1058 H1029 0.950 . S
C1058 C1057 1.334 . S
C1058 C1059 1.287 . S
C1059 C1058 1.287 . S
C1059 C1060 1.524 . S
C1059 H1062 0.999 . S
C1060 H1030 0.950 . S
C1060 C1059 1.524 . S
C1060 C1061 1.415 . S
C1061 H1031 0.950 . S
C1061 C1056 1.363 . S
C1061 C1060 1.415 . S
H1062 C1059 0.999 . S
H1063 C1044 0.913 . S
H1064 C1082 0.951 . S
H1065 C1084 0.951 . S
H1066 C1086 0.950 . S
H1067 C1087 0.950 . S
H1068 C1089 0.950 . S
H1069 C1092 0.950 . S
H1070 C1093 0.950 . S
H1071 C1095 0.950 . S
H1072 C1096 0.950 . S
H1073 C1097 0.951 . S
H1074 C1099 0.951 . S
H1075 C1101 0.950 . S
H1076 C1102 0.950 1_455 S
H1077 C1104 0.950 . S
H1078 C1107 0.950 . S
H1079 C1108 0.950 . S
H1080 C1110 0.950 . S
H1081 C1111 0.950 . S
C1082 H1064 0.951 . S
C1082 C1083 1.366 . S
C1082 C1084 1.388 . S
C1083 C1082 1.366 . S
C1083 C1087 1.385 . S
C1084 H1065 0.951 . S
C1084 C1082 1.388 . S
C1084 C1085 1.366 . S
C1085 C1084 1.366 . S
C1085 C1086 1.414 . S
C1085 C1088 1.499 . S
C1086 H1066 0.950 . S
C1086 C1085 1.414 . S
C1086 C1087 1.374 . S
C1087 H1067 0.950 . S
C1087 C1083 1.385 . S
C1087 C1086 1.374 . S
C1088 C1085 1.499 . S
C1088 C1089 1.373 . S
C1088 C1090 1.389 . S
C1089 H1068 0.950 . S
C1089 C1088 1.373 . S
C1089 C1105 1.377 . S
C1090 C1088 1.389 . S
C1090 C1091 1.524 . S
C1090 C1104 1.377 . S
C1091 C1090 1.524 . S
C1091 C1092 1.397 . S
C1091 C1096 1.363 1_655 S
C1092 H1069 0.950 . S
C1092 C1091 1.397 . S
C1092 C1093 1.334 . S
C1093 H1070 0.950 . S
C1093 C1092 1.334 . S
C1093 C1094 1.287 1_655 S
C1094 C1093 1.287 1_455 S
C1094 C1095 1.524 . S
C1094 H1113 0.913 . S
C1095 H1071 0.950 . S
C1095 C1094 1.524 . S
C1095 C1096 1.415 . S
C1096 H1072 0.950 . S
C1096 C1091 1.363 1_455 S
C1096 C1095 1.415 . S
C1097 H1073 0.951 . S
C1097 C1098 1.366 . S
C1097 C1099 1.388 . S
C1098 C1097 1.366 . S
C1098 C1102 1.385 . S
C1099 H1074 0.951 . S
C1099 C1097 1.388 . S
C1099 C1100 1.366 . S
C1100 C1099 1.366 . S
C1100 C1101 1.414 . S
C1100 C1103 1.499 . S
C1101 H1075 0.950 . S
C1101 C1100 1.414 . S
C1101 C1102 1.374 . S
C1102 H1076 0.950 1_655 S
C1102 C1098 1.385 . S
C1102 C1101 1.374 . S
C1103 C1100 1.499 . S
C1103 C1104 1.373 . S
C1103 C1105 1.389 . S
C1104 H1077 0.950 . S
C1104 C1090 1.377 . S
C1104 C1103 1.373 . S
C1105 C1089 1.377 . S
C1105 C1103 1.389 . S
C1105 C1106 1.524 . S
C1106 C1105 1.524 . S
C1106 C1107 1.397 . S
C1106 C1111 1.363 . S
C1107 H1078 0.950 . S
C1107 C1106 1.397 . S
C1107 C1108 1.334 . S
C1108 H1079 0.950 . S
C1108 C1107 1.334 . S
C1108 C1109 1.287 . S
C1109 C1108 1.287 . S
C1109 C1110 1.524 . S
C1109 H1112 0.999 . S
C1110 H1080 0.950 . S
C1110 C1109 1.524 . S
C1110 C1111 1.415 . S
C1111 H1081 0.950 . S
C1111 C1106 1.363 . S
C1111 C1110 1.415 . S
H1112 C1109 0.999 . S
H1113 C1094 0.913 . S
H1114 C1132 0.951 . S
H1115 C1134 0.951 . S
H1116 C1136 0.950 . S
H1117 C1137 0.950 . S
H1118 C1139 0.950 . S
H1119 C1142 0.950 . S
H1120 C1143 0.950 . S
H1121 C1145 0.950 . S
H1122 C1146 0.950 . S
H1123 C1147 0.951 . S
H1124 C1149 0.951 . S
H1125 C1151 0.950 . S
H1126 C1152 0.950 . S
H1127 C1154 0.950 . S
H1128 C1157 0.950 . S
H1129 C1158 0.950 . S
H1130 C1160 0.950 . S
H1131 C1161 0.950 . S
C1132 H1114 0.951 . S
C1132 C1133 1.366 . S
C1132 C1134 1.388 . S
C1133 C1132 1.366 . S
C1133 C1137 1.385 . S
C1134 H1115 0.951 . S
C1134 C1132 1.388 . S
C1134 C1135 1.366 . S
C1135 C1134 1.366 . S
C1135 C1136 1.414 . S
C1135 C1138 1.499 . S
C1136 H1116 0.950 . S
C1136 C1135 1.414 . S
C1136 C1137 1.374 . S
C1137 H1117 0.950 . S
C1137 C1133 1.385 . S
C1137 C1136 1.374 . S
C1138 C1135 1.499 . S
C1138 C1139 1.373 . S
C1138 C1140 1.389 . S
C1139 H1118 0.950 . S
C1139 C1138 1.373 . S
C1139 C1155 1.377 . S
C1140 C1138 1.389 . S
C1140 C1141 1.524 . S
C1140 C1154 1.377 . S
C1141 C1140 1.524 . S
C1141 C1142 1.397 . S
C1141 C1146 1.363 . S
C1142 H1119 0.950 . S
C1142 C1141 1.397 . S
C1142 C1143 1.334 . S
C1143 H1120 0.950 . S
C1143 C1142 1.334 . S
C1143 C1144 1.287 . S
C1144 C1143 1.287 . S
C1144 C1145 1.524 . S
C1144 H1163 0.913 . S
C1145 H1121 0.950 . S
C1145 C1144 1.524 . S
C1145 C1146 1.415 . S
C1146 H1122 0.950 . S
C1146 C1141 1.363 . S
C1146 C1145 1.415 . S
C1147 H1123 0.951 . S
C1147 C1148 1.366 . S
C1147 C1149 1.388 . S
C1148 C1147 1.366 . S
C1148 C1152 1.385 . S
C1149 H1124 0.951 . S
C1149 C1147 1.388 . S
C1149 C1150 1.366 . S
C1150 C1149 1.366 . S
C1150 C1151 1.414 . S
C1150 C1153 1.499 . S
C1151 H1125 0.950 . S
C1151 C1150 1.414 . S
C1151 C1152 1.374 . S
C1152 H1126 0.950 . S
C1152 C1148 1.385 . S
C1152 C1151 1.374 . S
C1153 C1150 1.499 . S
C1153 C1154 1.373 . S
C1153 C1155 1.389 . S
C1154 H1127 0.950 . S
C1154 C1140 1.377 . S
C1154 C1153 1.373 . S
C1155 C1139 1.377 . S
C1155 C1153 1.389 . S
C1155 C1156 1.524 . S
C1156 C1155 1.524 . S
C1156 C1157 1.397 . S
C1156 C1161 1.363 . S
C1157 H1128 0.950 . S
C1157 C1156 1.397 . S
C1157 C1158 1.334 . S
C1158 H1129 0.950 . S
C1158 C1157 1.334 . S
C1158 C1159 1.287 . S
C1159 C1158 1.287 . S
C1159 C1160 1.524 . S
C1159 H1162 0.999 . S
C1160 H1130 0.950 . S
C1160 C1159 1.524 . S
C1160 C1161 1.415 . S
C1161 H1131 0.950 . S
C1161 C1156 1.363 . S
C1161 C1160 1.415 . S
H1162 C1159 0.999 . S
H1163 C1144 0.913 . S
H1164 C1182 0.951 . S
H1165 C1184 0.951 . S
H1166 C1186 0.950 . S
H1167 C1187 0.950 . S
H1168 C1189 0.950 . S
H1169 C1192 0.950 . S
H1170 C1193 0.950 . S
H1171 C1195 0.950 . S
H1172 C1196 0.950 . S
H1173 C1197 0.964 . S
H1174 C1199 0.951 . S
H1175 C1201 0.950 . S
H1176 C1202 0.950 1_545 S
H1177 C1204 0.950 . S
H1178 C1207 0.950 . S
H1179 C1208 0.950 . S
H1180 C1210 0.950 . S
H1181 C1211 0.950 . S
C1182 H1164 0.951 . S
C1182 C1183 1.366 . S
C1182 C1184 1.388 . S
C1183 C1182 1.366 . S
C1183 C1187 1.385 . S
C1184 H1165 0.951 . S
C1184 C1182 1.388 . S
C1184 C1185 1.366 . S
C1185 C1184 1.366 . S
C1185 C1186 1.414 . S
C1185 C1188 1.499 . S
C1186 H1166 0.950 . S
C1186 C1185 1.414 . S
C1186 C1187 1.374 . S
C1187 H1167 0.950 . S
C1187 C1183 1.385 . S
C1187 C1186 1.374 . S
C1188 C1185 1.499 . S
C1188 C1189 1.373 . S
C1188 C1190 1.389 . S
C1189 H1168 0.950 . S
C1189 C1188 1.373 . S
C1189 C1205 1.377 . S
C1190 C1188 1.389 . S
C1190 C1191 1.524 . S
C1190 C1204 1.377 . S
C1191 C1190 1.524 . S
C1191 C1192 1.397 . S
C1191 C1196 1.363 . S
C1192 H1169 0.950 . S
C1192 C1191 1.397 . S
C1192 C1193 1.334 . S
C1193 H1170 0.950 . S
C1193 C1192 1.334 . S
C1193 C1194 1.287 . S
C1194 C1193 1.287 . S
C1194 C1195 1.524 . S
C1194 H1213 0.913 . S
C1195 H1171 0.950 . S
C1195 C1194 1.524 . S
C1195 C1196 1.415 . S
C1196 H1172 0.950 . S
C1196 C1191 1.363 . S
C1196 C1195 1.415 . S
C1197 H1173 0.964 . S
C1197 C1198 1.366 . S
C1197 C1199 1.388 . S
C1198 C1197 1.366 . S
C1198 C1202 1.385 . S
C1199 H1174 0.951 . S
C1199 C1197 1.388 . S
C1199 C1200 1.366 . S
C1200 C1199 1.366 . S
C1200 C1201 1.414 . S
C1200 C1203 1.499 . S
C1201 H1175 0.950 . S
C1201 C1200 1.414 . S
C1201 C1202 1.374 . S
C1202 H1176 0.950 1_565 S
C1202 C1198 1.385 . S
C1202 C1201 1.374 . S
C1203 C1200 1.499 . S
C1203 C1204 1.373 . S
C1203 C1205 1.389 . S
C1204 H1177 0.950 . S
C1204 C1190 1.377 . S
C1204 C1203 1.373 . S
C1205 C1189 1.377 . S
C1205 C1203 1.389 . S
C1205 C1206 1.524 1_655 S
C1206 C1205 1.524 1_455 S
C1206 C1207 1.397 . S
C1206 C1211 1.363 . S
C1207 H1178 0.950 . S
C1207 C1206 1.397 . S
C1207 C1208 1.334 . S
C1208 H1179 0.950 . S
C1208 C1207 1.334 . S
C1208 C1209 1.287 . S
C1209 C1208 1.287 . S
C1209 C1210 1.524 . S
C1209 H1212 0.999 . S
C1210 H1180 0.950 . S
C1210 C1209 1.524 . S
C1210 C1211 1.415 . S
C1211 H1181 0.950 . S
C1211 C1206 1.363 . S
C1211 C1210 1.415 . S
H1212 C1209 0.999 . S
H1213 C1194 0.913 . S
H1214 C1232 0.951 . S
H1215 C1234 0.951 . S
H1216 C1236 0.950 . S
H1217 C1237 0.950 . S
H1218 C1239 0.950 . S
H1219 C1242 0.950 . S
H1220 C1243 0.950 1_565 S
H1221 C1245 0.950 . S
H1222 C1246 0.950 . S
H1223 C1247 0.951 . S
H1224 C1249 0.951 . S
H1225 C1251 0.950 . S
H1226 C1252 0.950 . S
H1227 C1254 0.950 . S
H1228 C1257 0.950 . S
H1229 C1258 0.950 . S
H1230 C1260 0.950 . S
H1231 C1261 0.950 . S
C1232 H1214 0.951 . S
C1232 C1233 1.366 . S
C1232 C1234 1.388 . S
C1233 C1232 1.366 . S
C1233 C1237 1.385 . S
C1234 H1215 0.951 . S
C1234 C1232 1.388 . S
C1234 C1235 1.366 . S
C1235 C1234 1.366 . S
C1235 C1236 1.414 . S
C1235 C1238 1.499 . S
C1236 H1216 0.950 . S
C1236 C1235 1.414 . S
C1236 C1237 1.374 . S
C1237 H1217 0.950 . S
C1237 C1233 1.385 . S
C1237 C1236 1.374 . S
C1238 C1235 1.499 . S
C1238 C1239 1.373 . S
C1238 C1240 1.389 . S
C1239 H1218 0.950 . S
C1239 C1238 1.373 . S
C1239 C1255 1.377 . S
C1240 C1238 1.389 . S
C1240 C1241 1.524 . S
C1240 C1254 1.377 . S
C1241 C1240 1.524 . S
C1241 C1242 1.397 . S
C1241 C1246 1.363 . S
C1242 H1219 0.950 . S
C1242 C1241 1.397 . S
C1242 C1243 1.334 . S
C1243 H1220 0.950 1_545 S
C1243 C1242 1.334 . S
C1243 C1244 1.287 1_545 S
C1244 C1243 1.287 1_565 S
C1244 C1245 1.524 . S
C1244 H1263 0.913 . S
C1245 H1221 0.950 . S
C1245 C1244 1.524 . S
C1245 C1246 1.415 1_565 S
C1246 H1222 0.950 . S
C1246 C1241 1.363 . S
C1246 C1245 1.415 1_545 S
C1247 H1223 0.951 . S
C1247 C1248 1.366 . S
C1247 C1249 1.388 . S
C1248 C1247 1.366 . S
C1248 C1252 1.385 . S
C1249 H1224 0.951 . S
C1249 C1247 1.388 . S
C1249 C1250 1.366 . S
C1250 C1249 1.366 . S
C1250 C1251 1.414 . S
C1250 C1253 1.499 . S
C1251 H1225 0.950 . S
C1251 C1250 1.414 . S
C1251 C1252 1.374 . S
C1252 H1226 0.950 . S
C1252 C1248 1.385 . S
C1252 C1251 1.374 . S
C1253 C1250 1.499 . S
C1253 C1254 1.373 . S
C1253 C1255 1.389 . S
C1254 H1227 0.950 . S
C1254 C1240 1.377 . S
C1254 C1253 1.373 . S
C1255 C1239 1.377 . S
C1255 C1253 1.389 . S
C1255 C1256 1.524 . S
C1256 C1255 1.524 . S
C1256 C1257 1.397 . S
C1256 C1261 1.363 . S
C1257 H1228 0.950 . S
C1257 C1256 1.397 . S
C1257 C1258 1.334 . S
C1258 H1229 0.950 . S
C1258 C1257 1.334 . S
C1258 C1259 1.287 . S
C1259 C1258 1.287 . S
C1259 C1260 1.524 . S
C1259 H1262 0.999 . S
C1260 H1230 0.950 . S
C1260 C1259 1.524 . S
C1260 C1261 1.415 . S
C1261 H1231 0.950 . S
C1261 C1256 1.363 . S
C1261 C1260 1.415 . S
H1262 C1259 0.999 . S
H1263 C1244 0.913 . S
H1264 C1282 0.951 . S
H1265 C1284 0.951 . S
H1266 C1286 0.950 . S
H1267 C1287 0.950 . S
H1268 C1289 0.950 . S
H1269 C1292 0.950 . S
H1270 C1293 0.950 . S
H1271 C1295 0.950 . S
H1272 C1296 0.950 . S
H1273 C1297 0.951 . S
H1274 C1299 0.951 . S
H1275 C1301 0.950 . S
H1276 C1302 0.950 . S
H1277 C1304 0.950 . S
H1278 C1307 0.950 . S
H1279 C1308 0.950 . S
H1280 C1310 0.950 . S
H1281 C1311 0.950 . S
C1282 H1264 0.951 . S
C1282 C1283 1.366 . S
C1282 C1284 1.388 . S
C1283 C1282 1.366 . S
C1283 C1287 1.385 . S
C1284 H1265 0.951 . S
C1284 C1282 1.388 . S
C1284 C1285 1.366 . S
C1285 C1284 1.366 . S
C1285 C1286 1.414 . S
C1285 C1288 1.499 . S
C1286 H1266 0.950 . S
C1286 C1285 1.414 . S
C1286 C1287 1.374 . S
C1287 H1267 0.950 . S
C1287 C1283 1.385 . S
C1287 C1286 1.374 . S
C1288 C1285 1.499 . S
C1288 C1289 1.373 . S
C1288 C1290 1.389 . S
C1289 H1268 0.950 . S
C1289 C1288 1.373 . S
C1289 C1305 1.377 . S
C1290 C1288 1.389 . S
C1290 C1291 1.524 . S
C1290 C1304 1.377 . S
C1291 C1290 1.524 . S
C1291 C1292 1.397 . S
C1291 C1296 1.363 . S
C1292 H1269 0.950 . S
C1292 C1291 1.397 . S
C1292 C1293 1.334 . S
C1293 H1270 0.950 . S
C1293 C1292 1.334 . S
C1293 C1294 1.287 . S
C1294 C1293 1.287 . S
C1294 C1295 1.524 . S
C1294 H1313 0.913 . S
C1295 H1271 0.950 . S
C1295 C1294 1.524 . S
C1295 C1296 1.415 . S
C1296 H1272 0.950 . S
C1296 C1291 1.363 . S
C1296 C1295 1.415 . S
C1297 H1273 0.951 . S
C1297 C1298 1.366 . S
C1297 C1299 1.388 . S
C1298 C1297 1.366 . S
C1298 C1302 1.385 . S
C1299 H1274 0.951 . S
C1299 C1297 1.388 . S
C1299 C1300 1.366 . S
C1300 C1299 1.366 . S
C1300 C1301 1.414 . S
C1300 C1303 1.499 . S
C1301 H1275 0.950 . S
C1301 C1300 1.414 . S
C1301 C1302 1.374 . S
C1302 H1276 0.950 . S
C1302 C1298 1.385 . S
C1302 C1301 1.374 . S
C1303 C1300 1.499 . S
C1303 C1304 1.373 . S
C1303 C1305 1.389 . S
C1304 H1277 0.950 . S
C1304 C1290 1.377 . S
C1304 C1303 1.373 . S
C1305 C1289 1.377 . S
C1305 C1303 1.389 . S
C1305 C1306 1.524 . S
C1306 C1305 1.524 . S
C1306 C1307 1.397 . S
C1306 C1311 1.363 . S
C1307 H1278 0.950 . S
C1307 C1306 1.397 . S
C1307 C1308 1.334 . S
C1308 H1279 0.950 . S
C1308 C1307 1.334 . S
C1308 C1309 1.287 . S
C1309 C1308 1.287 . S
C1309 C1310 1.524 . S
C1309 H1312 0.999 . S
C1310 H1280 0.950 . S
C1310 C1309 1.524 . S
C1310 C1311 1.415 . S
C1311 H1281 0.950 . S
C1311 C1306 1.363 . S
C1311 C1310 1.415 . S
H1312 C1309 0.999 . S
H1313 C1294 0.913 . S
H1314 C1332 0.951 . S
H1315 C1334 0.951 . S
H1316 C1336 0.950 . S
H1317 C1337 0.950 . S
H1318 C1339 0.950 . S
H1319 C1342 0.950 . S
H1320 C1343 0.950 . S
H1321 C1345 0.950 . S
H1322 C1346 0.950 . S
H1323 C1347 0.951 . S
H1324 C1349 0.951 . S
H1325 C1351 0.950 . S
H1326 C1352 0.950 . S
H1327 C1354 0.950 . S
H1328 C1357 0.950 . S
H1329 C1358 0.950 . S
H1330 C1360 0.950 . S
H1331 C1361 0.950 . S
C1332 H1314 0.951 . S
C1332 C1333 1.366 . S
C1332 C1334 1.388 . S
C1333 C1332 1.366 . S
C1333 C1337 1.385 . S
C1334 H1315 0.951 . S
C1334 C1332 1.388 . S
C1334 C1335 1.366 . S
C1335 C1334 1.366 . S
C1335 C1336 1.414 . S
C1335 C1338 1.499 . S
C1336 H1316 0.950 . S
C1336 C1335 1.414 . S
C1336 C1337 1.374 . S
C1337 H1317 0.950 . S
C1337 C1333 1.385 . S
C1337 C1336 1.374 . S
C1338 C1335 1.499 . S
C1338 C1339 1.373 . S
C1338 C1340 1.389 . S
C1339 H1318 0.950 . S
C1339 C1338 1.373 . S
C1339 C1355 1.377 . S
C1340 C1338 1.389 . S
C1340 C1341 1.524 . S
C1340 C1354 1.377 . S
C1341 C1340 1.524 . S
C1341 C1342 1.397 . S
C1341 C1346 1.363 . S
C1342 H1319 0.950 . S
C1342 C1341 1.397 . S
C1342 C1343 1.334 . S
C1343 H1320 0.950 . S
C1343 C1342 1.334 . S
C1343 C1344 1.287 . S
C1344 C1343 1.287 . S
C1344 C1345 1.524 . S
C1344 H1363 0.913 . S
C1345 H1321 0.950 . S
C1345 C1344 1.524 . S
C1345 C1346 1.415 . S
C1346 H1322 0.950 . S
C1346 C1341 1.363 . S
C1346 C1345 1.415 . S
C1347 H1323 0.951 . S
C1347 C1348 1.366 . S
C1347 C1349 1.388 . S
C1348 C1347 1.366 . S
C1348 C1352 1.385 . S
C1349 H1324 0.951 . S
C1349 C1347 1.388 . S
C1349 C1350 1.366 . S
C1350 C1349 1.366 . S
C1350 C1351 1.414 . S
C1350 C1353 1.499 . S
C1351 H1325 0.950 . S
C1351 C1350 1.414 . S
C1351 C1352 1.374 . S
C1352 H1326 0.950 . S
C1352 C1348 1.385 . S
C1352 C1351 1.374 . S
C1353 C1350 1.499 . S
C1353 C1354 1.373 . S
C1353 C1355 1.389 . S
C1354 H1327 0.950 . S
C1354 C1340 1.377 . S
C1354 C1353 1.373 . S
C1355 C1339 1.377 . S
C1355 C1353 1.389 . S
C1355 C1356 1.524 . S
C1356 C1355 1.524 . S
C1356 C1357 1.397 1_455 S
C1356 C1361 1.363 . S
C1357 H1328 0.950 . S
C1357 C1356 1.397 1_655 S
C1357 C1358 1.334 . S
C1358 H1329 0.950 . S
C1358 C1357 1.334 . S
C1358 C1359 1.287 . S
C1359 C1358 1.287 . S
C1359 C1360 1.524 . S
C1359 H1362 0.999 . S
C1360 H1330 0.950 . S
C1360 C1359 1.524 . S
C1360 C1361 1.415 1_655 S
C1361 H1331 0.950 . S
C1361 C1356 1.363 . S
C1361 C1360 1.415 1_455 S
H1362 C1359 0.999 . S
H1363 C1344 0.913 . S
H1364 C1382 0.951 . S
H1365 C1384 0.951 . S
H1366 C1386 0.950 . S
H1367 C1387 0.950 . S
H1368 C1389 0.950 . S
H1369 C1392 0.950 . S
H1370 C1393 0.950 . S
H1371 C1395 0.950 . S
H1372 C1396 0.950 . S
H1373 C1397 0.951 1_554 S
H1374 C1399 0.951 . S
H1375 C1401 0.950 . S
H1376 C1402 0.963 . S
H1377 C1404 0.950 . S
H1378 C1407 0.950 . S
H1379 C1408 0.950 . S
H1380 C1410 0.950 . S
H1381 C1411 0.950 . S
C1382 H1364 0.951 . S
C1382 C1383 1.366 . S
C1382 C1384 1.388 . S
C1383 C1382 1.366 . S
C1383 C1387 1.385 . S
C1384 H1365 0.951 . S
C1384 C1382 1.388 . S
C1384 C1385 1.366 . S
C1385 C1384 1.366 . S
C1385 C1386 1.414 . S
C1385 C1388 1.499 . S
C1386 H1366 0.950 . S
C1386 C1385 1.414 . S
C1386 C1387 1.374 . S
C1387 H1367 0.950 . S
C1387 C1383 1.385 . S
C1387 C1386 1.374 . S
C1388 C1385 1.499 . S
C1388 C1389 1.373 . S
C1388 C1390 1.389 . S
C1389 H1368 0.950 . S
C1389 C1388 1.373 . S
C1389 C1405 1.377 . S
C1390 C1388 1.389 . S
C1390 C1391 1.524 . S
C1390 C1404 1.377 . S
C1391 C1390 1.524 . S
C1391 C1392 1.397 . S
C1391 C1396 1.363 1_565 S
C1392 H1369 0.950 . S
C1392 C1391 1.397 . S
C1392 C1393 1.334 1_565 S
C1393 H1370 0.950 . S
C1393 C1392 1.334 1_545 S
C1393 C1394 1.287 . S
C1394 C1393 1.287 . S
C1394 C1395 1.524 . S
C1394 H1413 0.913 . S
C1395 H1371 0.950 . S
C1395 C1394 1.524 . S
C1395 C1396 1.415 . S
C1396 H1372 0.950 . S
C1396 C1391 1.363 1_545 S
C1396 C1395 1.415 . S
C1397 H1373 0.951 1_556 S
C1397 C1398 1.366 . S
C1397 C1399 1.388 . S
C1398 C1397 1.366 . S
C1398 C1402 1.385 . S
C1399 H1374 0.951 . S
C1399 C1397 1.388 . S
C1399 C1400 1.366 . S
C1400 C1399 1.366 . S
C1400 C1401 1.414 . S
C1400 C1403 1.499 . S
C1401 H1375 0.950 . S
C1401 C1400 1.414 . S
C1401 C1402 1.374 . S
C1402 H1376 0.963 . S
C1402 C1398 1.385 . S
C1402 C1401 1.374 . S
C1403 C1400 1.499 . S
C1403 C1404 1.373 . S
C1403 C1405 1.389 . S
C1404 H1377 0.950 . S
C1404 C1390 1.377 . S
C1404 C1403 1.373 . S
C1405 C1389 1.377 . S
C1405 C1403 1.389 . S
C1405 C1406 1.524 . S
C1406 C1405 1.524 . S
C1406 C1407 1.397 . S
C1406 C1411 1.363 . S
C1407 H1378 0.950 . S
C1407 C1406 1.397 . S
C1407 C1408 1.334 . S
C1408 H1379 0.950 . S
C1408 C1407 1.334 . S
C1408 C1409 1.287 . S
C1409 C1408 1.287 . S
C1409 C1410 1.524 . S
C1409 H1412 0.999 . S
C1410 H1380 0.950 . S
C1410 C1409 1.524 . S
C1410 C1411 1.415 . S
C1411 H1381 0.950 . S
C1411 C1406 1.363 . S
C1411 C1410 1.415 . S
H1412 C1409 0.999 . S
H1413 C1394 0.913 . S
H1414 C1432 0.951 . S
H1415 C1434 0.951 . S
H1416 C1436 0.950 . S
H1417 C1437 0.950 . S
H1418 C1439 0.950 . S
H1419 C1442 0.950 . S
H1420 C1443 0.950 . S
H1421 C1445 0.950 . S
H1422 C1446 0.950 . S
H1423 C1447 0.951 . S
H1424 C1449 0.951 . S
H1425 C1451 0.950 . S
H1426 C1452 0.950 . S
H1427 C1454 0.950 . S
H1428 C1457 0.950 . S
H1429 C1458 0.950 . S
H1430 C1460 0.950 . S
H1431 C1461 0.950 . S
C1432 H1414 0.951 . S
C1432 C1433 1.366 . S
C1432 C1434 1.388 . S
C1433 C1432 1.366 . S
C1433 C1437 1.385 . S
C1434 H1415 0.951 . S
C1434 C1432 1.388 . S
C1434 C1435 1.366 . S
C1435 C1434 1.366 . S
C1435 C1436 1.414 . S
C1435 C1438 1.499 . S
C1436 H1416 0.950 . S
C1436 C1435 1.414 . S
C1436 C1437 1.374 . S
C1437 H1417 0.950 . S
C1437 C1433 1.385 . S
C1437 C1436 1.374 . S
C1438 C1435 1.499 . S
C1438 C1439 1.373 . S
C1438 C1440 1.389 . S
C1439 H1418 0.950 . S
C1439 C1438 1.373 . S
C1439 C1455 1.377 . S
C1440 C1438 1.389 . S
C1440 C1441 1.524 . S
C1440 C1454 1.377 . S
C1441 C1440 1.524 . S
C1441 C1442 1.397 . S
C1441 C1446 1.363 . S
C1442 H1419 0.950 . S
C1442 C1441 1.397 . S
C1442 C1443 1.334 . S
C1443 H1420 0.950 . S
C1443 C1442 1.334 . S
C1443 C1444 1.287 . S
C1444 C1443 1.287 . S
C1444 C1445 1.524 . S
C1444 H1463 0.913 . S
C1445 H1421 0.950 . S
C1445 C1444 1.524 . S
C1445 C1446 1.415 . S
C1446 H1422 0.950 . S
C1446 C1441 1.363 . S
C1446 C1445 1.415 . S
C1447 H1423 0.951 . S
C1447 C1448 1.366 . S
C1447 C1449 1.388 . S
C1448 C1447 1.366 . S
C1448 C1452 1.385 . S
C1449 H1424 0.951 . S
C1449 C1447 1.388 . S
C1449 C1450 1.366 . S
C1450 C1449 1.366 . S
C1450 C1451 1.414 . S
C1450 C1453 1.499 . S
C1451 H1425 0.950 . S
C1451 C1450 1.414 . S
C1451 C1452 1.374 . S
C1452 H1426 0.950 . S
C1452 C1448 1.385 . S
C1452 C1451 1.374 . S
C1453 C1450 1.499 . S
C1453 C1454 1.373 . S
C1453 C1455 1.389 . S
C1454 H1427 0.950 . S
C1454 C1440 1.377 . S
C1454 C1453 1.373 . S
C1455 C1439 1.377 . S
C1455 C1453 1.389 . S
C1455 C1456 1.524 . S
C1456 C1455 1.524 . S
C1456 C1457 1.397 . S
C1456 C1461 1.363 . S
C1457 H1428 0.950 . S
C1457 C1456 1.397 . S
C1457 C1458 1.334 1_545 S
C1458 H1429 0.950 . S
C1458 C1457 1.334 1_565 S
C1458 C1459 1.287 1_565 S
C1459 C1458 1.287 1_545 S
C1459 C1460 1.524 . S
C1459 H1462 0.999 1_545 S
C1460 H1430 0.950 . S
C1460 C1459 1.524 . S
C1460 C1461 1.415 . S
C1461 H1431 0.950 . S
C1461 C1456 1.363 . S
C1461 C1460 1.415 . S
H1462 C1459 0.999 1_565 S
H1463 C1444 0.913 . S
H1464 C1482 0.951 . S
H1465 C1484 0.951 . S
H1466 C1486 0.950 . S
H1467 C1487 0.950 . S
H1468 C1489 0.950 . S
H1469 C1492 0.950 . S
H1470 C1493 0.950 . S
H1471 C1495 0.950 . S
H1472 C1496 0.950 . S
H1473 C1497 0.951 . S
H1474 C1499 0.951 . S
H1475 C1501 0.950 . S
H1476 C1502 0.950 . S
H1477 C1504 0.950 . S
H1478 C1507 0.950 . S
H1479 C1508 0.950 . S
H1480 C1510 0.950 . S
H1481 C1511 0.950 . S
C1482 H1464 0.951 . S
C1482 C1483 1.366 . S
C1482 C1484 1.388 . S
C1483 C1482 1.366 . S
C1483 C1487 1.385 . S
C1484 H1465 0.951 . S
C1484 C1482 1.388 . S
C1484 C1485 1.366 . S
C1485 C1484 1.366 . S
C1485 C1486 1.414 . S
C1485 C1488 1.499 . S
C1486 H1466 0.950 . S
C1486 C1485 1.414 . S
C1486 C1487 1.374 . S
C1487 H1467 0.950 . S
C1487 C1483 1.385 . S
C1487 C1486 1.374 . S
C1488 C1485 1.499 . S
C1488 C1489 1.373 . S
C1488 C1490 1.389 . S
C1489 H1468 0.950 . S
C1489 C1488 1.373 . S
C1489 C1505 1.377 . S
C1490 C1488 1.389 . S
C1490 C1491 1.524 . S
C1490 C1504 1.377 . S
C1491 C1490 1.524 . S
C1491 C1492 1.397 . S
C1491 C1496 1.363 . S
C1492 H1469 0.950 . S
C1492 C1491 1.397 . S
C1492 C1493 1.334 . S
C1493 H1470 0.950 . S
C1493 C1492 1.334 . S
C1493 C1494 1.287 . S
C1494 C1493 1.287 . S
C1494 C1495 1.524 . S
C1494 H1513 0.913 . S
C1495 H1471 0.950 . S
C1495 C1494 1.524 . S
C1495 C1496 1.415 . S
C1496 H1472 0.950 . S
C1496 C1491 1.363 . S
C1496 C1495 1.415 . S
C1497 H1473 0.951 . S
C1497 C1498 1.366 . S
C1497 C1499 1.388 . S
C1498 C1497 1.366 . S
C1498 C1502 1.385 . S
C1499 H1474 0.951 . S
C1499 C1497 1.388 . S
C1499 C1500 1.366 . S
C1500 C1499 1.366 . S
C1500 C1501 1.414 . S
C1500 C1503 1.499 . S
C1501 H1475 0.950 . S
C1501 C1500 1.414 . S
C1501 C1502 1.374 . S
C1502 H1476 0.950 . S
C1502 C1498 1.385 . S
C1502 C1501 1.374 . S
C1503 C1500 1.499 . S
C1503 C1504 1.373 . S
C1503 C1505 1.389 . S
C1504 H1477 0.950 . S
C1504 C1490 1.377 . S
C1504 C1503 1.373 . S
C1505 C1489 1.377 . S
C1505 C1503 1.389 . S
C1505 C1506 1.524 . S
C1506 C1505 1.524 . S
C1506 C1507 1.397 . S
C1506 C1511 1.363 . S
C1507 H1478 0.950 . S
C1507 C1506 1.397 . S
C1507 C1508 1.334 . S
C1508 H1479 0.950 . S
C1508 C1507 1.334 . S
C1508 C1509 1.287 . S
C1509 C1508 1.287 . S
C1509 C1510 1.524 . S
C1509 H1512 0.999 . S
C1510 H1480 0.950 . S
C1510 C1509 1.524 . S
C1510 C1511 1.415 . S
C1511 H1481 0.950 . S
C1511 C1506 1.363 . S
C1511 C1510 1.415 . S
H1512 C1509 0.999 . S
H1513 C1494 0.913 . S
H1514 C1532 0.951 . S
H1515 C1534 0.951 . S
H1516 C1536 0.950 . S
H1517 C1537 0.950 . S
H1518 C1539 0.950 . S
H1519 C1542 0.950 . S
H1520 C1543 0.950 . S
H1521 C1545 0.950 . S
H1522 C1546 0.950 . S
H1523 C1547 0.951 . S
H1524 C1549 0.951 . S
H1525 C1551 0.950 . S
H1526 C1552 0.950 . S
H1527 C1554 0.950 . S
H1528 C1557 0.950 . S
H1529 C1558 0.950 . S
H1530 C1560 0.950 . S
H1531 C1561 0.950 . S
C1532 H1514 0.951 . S
C1532 C1533 1.366 . S
C1532 C1534 1.388 . S
C1533 C1532 1.366 . S
C1533 C1537 1.385 . S
C1534 H1515 0.951 . S
C1534 C1532 1.388 . S
C1534 C1535 1.366 . S
C1535 C1534 1.366 . S
C1535 C1536 1.414 . S
C1535 C1538 1.499 . S
C1536 H1516 0.950 . S
C1536 C1535 1.414 . S
C1536 C1537 1.374 . S
C1537 H1517 0.950 . S
C1537 C1533 1.385 . S
C1537 C1536 1.374 . S
C1538 C1535 1.499 . S
C1538 C1539 1.373 . S
C1538 C1540 1.389 . S
C1539 H1518 0.950 . S
C1539 C1538 1.373 . S
C1539 C1555 1.377 . S
C1540 C1538 1.389 . S
C1540 C1541 1.524 . S
C1540 C1554 1.377 . S
C1541 C1540 1.524 . S
C1541 C1542 1.397 . S
C1541 C1546 1.363 . S
C1542 H1519 0.950 . S
C1542 C1541 1.397 . S
C1542 C1543 1.334 . S
C1543 H1520 0.950 . S
C1543 C1542 1.334 . S
C1543 C1544 1.287 . S
C1544 C1543 1.287 . S
C1544 C1545 1.524 . S
C1544 H1563 0.913 . S
C1545 H1521 0.950 . S
C1545 C1544 1.524 . S
C1545 C1546 1.415 . S
C1546 H1522 0.950 . S
C1546 C1541 1.363 . S
C1546 C1545 1.415 . S
C1547 H1523 0.951 . S
C1547 C1548 1.366 . S
C1547 C1549 1.388 . S
C1548 C1547 1.366 . S
C1548 C1552 1.385 . S
C1549 H1524 0.951 . S
C1549 C1547 1.388 . S
C1549 C1550 1.366 . S
C1550 C1549 1.366 . S
C1550 C1551 1.414 . S
C1550 C1553 1.499 . S
C1551 H1525 0.950 . S
C1551 C1550 1.414 . S
C1551 C1552 1.374 . S
C1552 H1526 0.950 . S
C1552 C1548 1.385 . S
C1552 C1551 1.374 . S
C1553 C1550 1.499 . S
C1553 C1554 1.373 . S
C1553 C1555 1.389 . S
C1554 H1527 0.950 . S
C1554 C1540 1.377 . S
C1554 C1553 1.373 . S
C1555 C1539 1.377 . S
C1555 C1553 1.389 . S
C1555 C1556 1.524 . S
C1556 C1555 1.524 . S
C1556 C1557 1.397 . S
C1556 C1561 1.363 . S
C1557 H1528 0.950 . S
C1557 C1556 1.397 . S
C1557 C1558 1.334 . S
C1558 H1529 0.950 . S
C1558 C1557 1.334 . S
C1558 C1559 1.287 . S
C1559 C1558 1.287 . S
C1559 C1560 1.524 . S
C1559 H1562 0.999 . S
C1560 H1530 0.950 . S
C1560 C1559 1.524 . S
C1560 C1561 1.415 . S
C1561 H1531 0.950 . S
C1561 C1556 1.363 . S
C1561 C1560 1.415 . S
H1562 C1559 0.999 . S
H1563 C1544 0.913 . S
H1564 C1582 0.951 . S
H1565 C1584 0.951 . S
H1566 C1586 0.950 . S
H1567 C1587 0.950 . S
H1568 C1589 0.950 . S
H1569 C1592 0.950 . S
H1570 C1593 0.950 . S
H1571 C1595 0.950 . S
H1572 C1596 0.950 . S
H1573 C1597 0.951 1_554 S
H1574 C1599 0.951 . S
H1575 C1601 0.950 . S
H1576 C1602 0.950 . S
H1577 C1604 0.950 . S
H1578 C1607 0.947 1_655 S
H1579 C1608 0.950 . S
H1580 C1610 0.950 . S
H1581 C1611 0.950 . S
C1582 H1564 0.951 . S
C1582 C1583 1.366 . S
C1582 C1584 1.388 . S
C1583 C1582 1.366 . S
C1583 C1587 1.385 . S
C1584 H1565 0.951 . S
C1584 C1582 1.388 . S
C1584 C1585 1.366 . S
C1585 C1584 1.366 . S
C1585 C1586 1.414 . S
C1585 C1588 1.499 . S
C1586 H1566 0.950 . S
C1586 C1585 1.414 . S
C1586 C1587 1.374 . S
C1587 H1567 0.950 . S
C1587 C1583 1.385 . S
C1587 C1586 1.374 . S
C1588 C1585 1.499 . S
C1588 C1589 1.373 . S
C1588 C1590 1.389 . S
C1589 H1568 0.950 . S
C1589 C1588 1.373 . S
C1589 C1605 1.377 . S
C1590 C1588 1.389 . S
C1590 C1591 1.524 . S
C1590 C1604 1.377 . S
C1591 C1590 1.524 . S
C1591 C1592 1.397 . S
C1591 C1596 1.363 . S
C1592 H1569 0.950 . S
C1592 C1591 1.397 . S
C1592 C1593 1.334 . S
C1593 H1570 0.950 . S
C1593 C1592 1.334 . S
C1593 C1594 1.287 . S
C1594 C1593 1.287 . S
C1594 C1595 1.524 . S
C1594 H1613 0.913 . S
C1595 H1571 0.950 . S
C1595 C1594 1.524 . S
C1595 C1596 1.415 . S
C1596 H1572 0.950 . S
C1596 C1591 1.363 . S
C1596 C1595 1.415 . S
C1597 H1573 0.951 1_556 S
C1597 C1598 1.366 . S
C1597 C1599 1.388 . S
C1598 C1597 1.366 . S
C1598 C1602 1.385 . S
C1599 H1574 0.951 . S
C1599 C1597 1.388 . S
C1599 C1600 1.366 . S
C1600 C1599 1.366 . S
C1600 C1601 1.414 . S
C1600 C1603 1.499 . S
C1601 H1575 0.950 . S
C1601 C1600 1.414 . S
C1601 C1602 1.374 . S
C1602 H1576 0.950 . S
C1602 C1598 1.385 . S
C1602 C1601 1.374 . S
C1603 C1600 1.499 . S
C1603 C1604 1.373 . S
C1603 C1605 1.389 . S
C1604 H1577 0.950 . S
C1604 C1590 1.377 . S
C1604 C1603 1.373 . S
C1605 C1589 1.377 . S
C1605 C1603 1.389 . S
C1605 C1606 1.524 . S
C1606 C1605 1.524 . S
C1606 C1607 1.396 1_655 S
C1606 C1611 1.363 1_655 S
C1607 H1578 0.947 1_455 S
C1607 C1606 1.396 1_455 S
C1607 C1608 1.337 . S
C1608 H1579 0.950 . S
C1608 C1607 1.337 . S
C1608 C1609 1.287 . S
C1609 C1608 1.287 . S
C1609 C1610 1.524 . S
C1609 H1612 0.999 . S
C1610 H1580 0.950 . S
C1610 C1609 1.524 . S
C1610 C1611 1.415 . S
C1611 H1581 0.950 . S
C1611 C1606 1.363 1_455 S
C1611 C1610 1.415 . S
H1612 C1609 0.999 . S
H1613 C1594 0.913 . S
H1614 C1632 0.951 . S
H1615 C1634 0.951 . S
H1616 C1636 0.950 . S
H1617 C1637 0.950 . S
H1618 C1639 0.950 . S
H1619 C1642 0.950 . S
H1620 C1643 0.950 . S
H1621 C1645 0.950 . S
H1622 C1646 0.950 . S
H1623 C1647 0.951 . S
H1624 C1649 0.951 . S
H1625 C1651 0.950 . S
H1626 C1652 0.950 . S
H1627 C1654 0.950 . S
H1628 C1657 0.950 . S
H1629 C1658 0.950 . S
H1630 C1660 0.950 . S
H1631 C1661 0.950 . S
C1632 H1614 0.951 . S
C1632 C1633 1.366 . S
C1632 C1634 1.388 . S
C1633 C1632 1.366 . S
C1633 C1637 1.385 . S
C1634 H1615 0.951 . S
C1634 C1632 1.388 . S
C1634 C1635 1.366 . S
C1635 C1634 1.366 . S
C1635 C1636 1.414 . S
C1635 C1638 1.499 . S
C1636 H1616 0.950 . S
C1636 C1635 1.414 . S
C1636 C1637 1.374 . S
C1637 H1617 0.950 . S
C1637 C1633 1.385 . S
C1637 C1636 1.374 . S
C1638 C1635 1.499 . S
C1638 C1639 1.373 . S
C1638 C1640 1.389 . S
C1639 H1618 0.950 . S
C1639 C1638 1.373 . S
C1639 C1655 1.377 . S
C1640 C1638 1.389 . S
C1640 C1641 1.524 . S
C1640 C1654 1.377 . S
C1641 C1640 1.524 . S
C1641 C1642 1.397 . S
C1641 C1646 1.363 . S
C1642 H1619 0.950 . S
C1642 C1641 1.397 . S
C1642 C1643 1.334 . S
C1643 H1620 0.950 . S
C1643 C1642 1.334 . S
C1643 C1644 1.287 . S
C1644 C1643 1.287 . S
C1644 C1645 1.524 . S
C1644 H1663 0.913 . S
C1645 H1621 0.950 . S
C1645 C1644 1.524 . S
C1645 C1646 1.415 . S
C1646 H1622 0.950 . S
C1646 C1641 1.363 . S
C1646 C1645 1.415 . S
C1647 H1623 0.951 . S
C1647 C1648 1.366 . S
C1647 C1649 1.388 . S
C1648 C1647 1.366 . S
C1648 C1652 1.385 . S
C1649 H1624 0.951 . S
C1649 C1647 1.388 . S
C1649 C1650 1.366 . S
C1650 C1649 1.366 . S
C1650 C1651 1.414 . S
C1650 C1653 1.499 . S
C1651 H1625 0.950 . S
C1651 C1650 1.414 . S
C1651 C1652 1.374 . S
C1652 H1626 0.950 . S
C1652 C1648 1.385 . S
C1652 C1651 1.374 . S
C1653 C1650 1.499 . S
C1653 C1654 1.373 . S
C1653 C1655 1.389 . S
C1654 H1627 0.950 . S
C1654 C1640 1.377 . S
C1654 C1653 1.373 . S
C1655 C1639 1.377 . S
C1655 C1653 1.389 . S
C1655 C1656 1.524 . S
C1656 C1655 1.524 . S
C1656 C1657 1.397 . S
C1656 C1661 1.363 . S
C1657 H1628 0.950 . S
C1657 C1656 1.397 . S
C1657 C1658 1.334 . S
C1658 H1629 0.950 . S
C1658 C1657 1.334 . S
C1658 C1659 1.287 . S
C1659 C1658 1.287 . S
C1659 C1660 1.524 . S
C1659 H1662 0.999 . S
C1660 H1630 0.950 . S
C1660 C1659 1.524 . S
C1660 C1661 1.415 . S
C1661 H1631 0.950 . S
C1661 C1656 1.363 . S
C1661 C1660 1.415 . S
H1662 C1659 0.999 . S
H1663 C1644 0.913 . S
H1664 C1682 0.951 . S
H1665 C1684 0.951 . S
H1666 C1686 0.950 . S
H1667 C1687 0.950 . S
H1668 C1689 0.950 . S
H1669 C1692 0.949 . S
H1670 C1693 0.950 . S
H1671 C1695 0.950 . S
H1672 C1696 0.950 . S
H1673 C1697 0.951 . S
H1674 C1699 0.951 . S
H1675 C1701 0.950 . S
H1676 C1702 0.950 . S
H1677 C1704 0.950 . S
H1678 C1707 0.950 . S
H1679 C1708 0.950 . S
H1680 C1710 0.950 . S
H1681 C1711 0.950 . S
C1682 H1664 0.951 . S
C1682 C1683 1.366 . S
C1682 C1684 1.388 . S
C1683 C1682 1.366 . S
C1683 C1687 1.385 . S
C1684 H1665 0.951 . S
C1684 C1682 1.388 . S
C1684 C1685 1.366 . S
C1685 C1684 1.366 . S
C1685 C1686 1.414 . S
C1685 C1688 1.499 . S
C1686 H1666 0.950 . S
C1686 C1685 1.414 . S
C1686 C1687 1.374 . S
C1687 H1667 0.950 . S
C1687 C1683 1.385 . S
C1687 C1686 1.374 . S
C1688 C1685 1.499 . S
C1688 C1689 1.373 . S
C1688 C1690 1.389 . S
C1689 H1668 0.950 . S
C1689 C1688 1.373 . S
C1689 C1705 1.377 . S
C1690 C1688 1.389 . S
C1690 C1691 1.524 . S
C1690 C1704 1.377 . S
C1691 C1690 1.524 . S
C1691 C1692 1.396 . S
C1691 C1696 1.363 . S
C1692 H1669 0.949 . S
C1692 C1691 1.396 . S
C1692 C1693 1.335 1_455 S
C1693 H1670 0.950 . S
C1693 C1692 1.335 1_655 S
C1693 C1694 1.287 . S
C1694 C1693 1.287 . S
C1694 C1695 1.524 . S
C1694 H1713 0.913 . S
C1695 H1671 0.950 . S
C1695 C1694 1.524 . S
C1695 C1696 1.415 1_655 S
C1696 H1672 0.950 . S
C1696 C1691 1.363 . S
C1696 C1695 1.415 1_455 S
C1697 H1673 0.951 . S
C1697 C1698 1.366 . S
C1697 C1699 1.388 . S
C1698 C1697 1.366 . S
C1698 C1702 1.385 . S
C1699 H1674 0.951 . S
C1699 C1697 1.388 . S
C1699 C1700 1.366 . S
C1700 C1699 1.366 . S
C1700 C1701 1.414 . S
C1700 C1703 1.499 . S
C1701 H1675 0.950 . S
C1701 C1700 1.414 . S
C1701 C1702 1.374 . S
C1702 H1676 0.950 . S
C1702 C1698 1.385 . S
C1702 C1701 1.374 . S
C1703 C1700 1.499 . S
C1703 C1704 1.373 . S
C1703 C1705 1.389 . S
C1704 H1677 0.950 . S
C1704 C1690 1.377 . S
C1704 C1703 1.373 . S
C1705 C1689 1.377 . S
C1705 C1703 1.389 . S
C1705 C1706 1.524 . S
C1706 C1705 1.524 . S
C1706 C1707 1.397 . S
C1706 C1711 1.363 . S
C1707 H1678 0.950 . S
C1707 C1706 1.397 . S
C1707 C1708 1.334 . S
C1708 H1679 0.950 . S
C1708 C1707 1.334 . S
C1708 C1709 1.287 . S
C1709 C1708 1.287 . S
C1709 C1710 1.524 . S
C1709 H1712 0.999 . S
C1710 H1680 0.950 . S
C1710 C1709 1.524 . S
C1710 C1711 1.415 . S
C1711 H1681 0.950 . S
C1711 C1706 1.363 . S
C1711 C1710 1.415 . S
H1712 C1709 0.999 . S
H1713 C1694 0.913 . S
H1714 C1732 0.951 . S
H1715 C1734 0.951 . S
H1716 C1736 0.950 . S
H1717 C1737 0.950 . S
H1718 C1739 0.950 . S
H1719 C1742 0.950 . S
H1720 C1743 0.950 . S
H1721 C1745 0.950 . S
H1722 C1746 0.950 . S
H1723 C1747 0.951 . S
H1724 C1749 0.951 . S
H1725 C1751 0.950 . S
H1726 C1752 0.950 . S
H1727 C1754 0.950 . S
H1728 C1757 0.950 . S
H1729 C1758 0.950 . S
H1730 C1760 0.950 . S
H1731 C1761 0.950 . S
C1732 H1714 0.951 . S
C1732 C1733 1.366 . S
C1732 C1734 1.388 . S
C1733 C1732 1.366 . S
C1733 C1737 1.385 . S
C1734 H1715 0.951 . S
C1734 C1732 1.388 . S
C1734 C1735 1.366 . S
C1735 C1734 1.366 . S
C1735 C1736 1.414 . S
C1735 C1738 1.499 . S
C1736 H1716 0.950 . S
C1736 C1735 1.414 . S
C1736 C1737 1.374 . S
C1737 H1717 0.950 . S
C1737 C1733 1.385 . S
C1737 C1736 1.374 . S
C1738 C1735 1.499 . S
C1738 C1739 1.373 . S
C1738 C1740 1.389 . S
C1739 H1718 0.950 . S
C1739 C1738 1.373 . S
C1739 C1755 1.377 . S
C1740 C1738 1.389 . S
C1740 C1741 1.524 . S
C1740 C1754 1.377 . S
C1741 C1740 1.524 . S
C1741 C1742 1.397 . S
C1741 C1746 1.363 . S
C1742 H1719 0.950 . S
C1742 C1741 1.397 . S
C1742 C1743 1.334 . S
C1743 H1720 0.950 . S
C1743 C1742 1.334 . S
C1743 C1744 1.287 . S
C1744 C1743 1.287 . S
C1744 C1745 1.524 . S
C1744 H1763 0.913 . S
C1745 H1721 0.950 . S
C1745 C1744 1.524 . S
C1745 C1746 1.415 . S
C1746 H1722 0.950 . S
C1746 C1741 1.363 . S
C1746 C1745 1.415 . S
C1747 H1723 0.951 . S
C1747 C1748 1.366 . S
C1747 C1749 1.388 . S
C1748 C1747 1.366 . S
C1748 C1752 1.385 . S
C1749 H1724 0.951 . S
C1749 C1747 1.388 . S
C1749 C1750 1.366 . S
C1750 C1749 1.366 . S
C1750 C1751 1.414 . S
C1750 C1753 1.499 . S
C1751 H1725 0.950 . S
C1751 C1750 1.414 . S
C1751 C1752 1.374 . S
C1752 H1726 0.950 . S
C1752 C1748 1.385 . S
C1752 C1751 1.374 . S
C1753 C1750 1.499 . S
C1753 C1754 1.373 . S
C1753 C1755 1.389 . S
C1754 H1727 0.950 . S
C1754 C1740 1.377 . S
C1754 C1753 1.373 . S
C1755 C1739 1.377 . S
C1755 C1753 1.389 . S
C1755 C1756 1.524 . S
C1756 C1755 1.524 . S
C1756 C1757 1.397 . S
C1756 C1761 1.363 . S
C1757 H1728 0.950 . S
C1757 C1756 1.397 . S
C1757 C1758 1.334 . S
C1758 H1729 0.950 . S
C1758 C1757 1.334 . S
C1758 C1759 1.287 . S
C1759 C1758 1.287 . S
C1759 C1760 1.524 . S
C1759 H1762 0.999 . S
C1760 H1730 0.950 . S
C1760 C1759 1.524 . S
C1760 C1761 1.415 . S
C1761 H1731 0.950 . S
C1761 C1756 1.363 . S
C1761 C1760 1.415 . S
H1762 C1759 0.999 . S
H1763 C1744 0.913 . S
C583 C1 1.622 . S
C598 C496 1.593 . S
C633 C80 1.449 . S
C648 C518 1.431 . S
C698 C537 1.188 . S
C683 C140 1.377 . S
C733 C211 1.792 . S
C748 C558 1.537 . S
C798 C515 1.814 . S
C783 C31 1.849 . S
C848 C493 1.698 . S
C833 C61 1.691 . S
C898 C560 1.252 . S
C883 C151 1.271 . S
C948 C539 1.416 . S
C933 C200 1.428 . S
C983 C20 1.793 . S
C998 C557 1.746 . S
C1048 C516 1.328 . S
C1033 C121 1.570 . S
C1083 C181 1.638 . S
C1098 C498 1.509 . S
C1133 C91 1.478 . S
C1148 C536 1.486 . S
C1198 C494 1.594 . S
C1183 C260 1.650 . S
C1233 C320 1.249 . S
C1248 C514 1.245 . S
C1283 C361 1.482 . S
C1298 C540 1.267 . S
C1333 C451 1.693 . S
C1348 C561 1.438 . S
C1383 C271 1.797 . S
C1398 C517 1.766 . S
C1448 C497 1.768 . S
C1433 C301 1.777 . S
C1498 C556 1.142 . S
C1483 C380 1.175 . S
C1548 C535 1.520 . S
C1533 C440 1.534 . S
C1583 C241 1.561 . S
C1598 C559 1.536 . S
C1648 C519 1.255 . S
C1633 C391 1.491 . S
C1698 C495 1.302 . S
C1683 C421 1.420 . S
C1733 C331 1.412 . S
C1748 C538 1.409 . S
