# Generated by pormake.
# Topology anh, (6,3)-cn, num edge types: 1
# Building blocks:
#     Node 0, Type 0, BuildingBlock: BETDIP_clean_sbu_0, # of connection points: 6
#     Node 1, Type 0, BuildingBlock: BETDIP_clean_sbu_0, # of connection points: 6
#     Node 2, Type 0, BuildingBlock: BETDIP_clean_sbu_0, # of connection points: 6
#     Node 3, Type 1, BuildingBlock: QEWDON_clean_linker_0, # of connection points: 3
#     Node 4, Type 1, BuildingBlock: QEWDON_clean_linker_0, # of connection points: 3
#     Node 5, Type 1, BuildingBlock: QEWDON_clean_linker_0, # of connection points: 3
#     Node 6, Type 1, BuildingBlock: QEWDON_clean_linker_0, # of connection points: 3
#     Node 7, Type 1, BuildingBlock: QEWDON_clean_linker_0, # of connection points: 3
#     Node 8, Type 1, BuildingBlock: QEWDON_clean_linker_0, # of connection points: 3
#     Edge 9, Type (0, 1), BuildingBlock: OJICUG_clean_linker_0, # of connection points: 2
#     Edge 10, Type (0, 1), BuildingBlock: OJICUG_clean_linker_0, # of connection points: 2
#     Edge 11, Type (0, 1), BuildingBlock: OJICUG_clean_linker_0, # of connection points: 2
#     Edge 12, Type (0, 1), BuildingBlock: OJICUG_clean_linker_0, # of connection points: 2
#     Edge 13, Type (0, 1), BuildingBlock: OJICUG_clean_linker_0, # of connection points: 2
#     Edge 14, Type (0, 1), BuildingBlock: OJICUG_clean_linker_0, # of connection points: 2
#     Edge 15, Type (0, 1), BuildingBlock: OJICUG_clean_linker_0, # of connection points: 2
#     Edge 16, Type (0, 1), BuildingBlock: OJICUG_clean_linker_0, # of connection points: 2
#     Edge 17, Type (0, 1), BuildingBlock: OJICUG_clean_linker_0, # of connection points: 2
#     Edge 18, Type (0, 1), BuildingBlock: OJICUG_clean_linker_0, # of connection points: 2
#     Edge 19, Type (0, 1), BuildingBlock: OJICUG_clean_linker_0, # of connection points: 2
#     Edge 20, Type (0, 1), BuildingBlock: OJICUG_clean_linker_0, # of connection points: 2
#     Edge 21, Type (0, 1), BuildingBlock: OJICUG_clean_linker_0, # of connection points: 2
#     Edge 22, Type (0, 1), BuildingBlock: OJICUG_clean_linker_0, # of connection points: 2
#     Edge 23, Type (0, 1), BuildingBlock: OJICUG_clean_linker_0, # of connection points: 2
#     Edge 24, Type (0, 1), BuildingBlock: OJICUG_clean_linker_0, # of connection points: 2
#     Edge 25, Type (0, 1), BuildingBlock: OJICUG_clean_linker_0, # of connection points: 2
#     Edge 26, Type (0, 1), BuildingBlock: OJICUG_clean_linker_0, # of connection points: 2
# Relax obj value: 0.344
# Max RMSD: 0.152
# Mean RMSD: 0.132
data_MOF--net-anh--node1-BETDIP_clean_sbu_0--node2-QEWDON_clean_linker_0--edge1-OJICUG_clean_linker_0
_symmetry_space_group_name_H-M    P1
_symmetry_Int_Tables_number       1
_symmetry_cell_setting            triclinic
loop_
_symmetry_equiv_pos_as_xyz
'x, y, z'
_cell_length_a     23.502744
_cell_length_b     23.691177
_cell_length_c     35.101948
_cell_angle_alpha  93.570387
_cell_angle_beta   92.644343
_cell_angle_gamma 120.13151
loop_
_atom_site_label
_atom_site_type_symbol
_atom_site_fract_x
_atom_site_fract_y
_atom_site_fract_z
_atom_type_partial_charge
Tb0 Tb 0.27167 0.71742 0.14927 0.0
Tb1 Tb 0.20797 0.5784 0.131 0.0
C2 C 0.34697 0.83329 0.17672 0.0
C3 C 0.41183 0.88472 0.16671 0.0
C4 C 0.46946 0.89958 0.18906 0.0
C5 C 0.5302 0.95193 0.18167 0.0
C6 C 0.53426 0.99075 0.15199 0.0
C7 C 0.47735 0.97312 0.12799 0.0
C8 C 0.41662 0.92064 0.1353 0.0
C9 C 0.23891 0.68182 0.076 0.0
C10 C 0.36184 0.64991 0.13177 0.0
C11 C 1.12164 0.46435 0.10565 0.0
C12 C 1.05047 0.43943 0.1093 0.0
C13 C 1.01356 0.45167 0.08161 0.0
C14 C 0.96304 0.46271 0.09247 0.0
C15 C 0.95042 0.46281 0.13107 0.0
C16 C 0.97819 0.4381 0.15665 0.0
C17 C 1.02698 0.42522 0.14564 0.0
C18 C 0.23668 0.61653 0.20596 0.0
C19 C 1.12021 0.64956 0.1357 0.0
O20 O 0.34481 0.78322 0.19201 0.0
O21 O 0.29755 0.81553 0.15107 0.0
O22 O 0.26298 0.65792 0.09821 0.0
O23 O 0.23877 0.73101 0.09371 0.0
O24 O 0.35838 0.70197 0.14547 0.0
O25 O 0.30642 0.59408 0.12039 0.0
O26 O 1.1496 0.51182 0.08358 0.0
O27 O 1.15818 0.47767 0.13789 0.0
O28 O 0.21363 0.63875 0.18175 0.0
O29 O 0.24159 0.56957 0.18863 0.0
O30 O 1.12649 0.60022 0.12084 0.0
O31 O 1.17134 0.69906 0.15644 0.0
H32 H 0.46727 0.87253 0.21327 0.0
H33 H 0.57303 0.96509 0.20117 0.0
H34 H 0.47921 1.00238 0.10504 0.0
H35 H 0.37317 0.91003 0.11719 0.0
H36 H 1.02905 0.46095 0.05295 0.0
H37 H 0.93937 0.4782 0.07178 0.0
H38 H 0.96638 0.43436 0.18621 0.0
H39 H 1.05229 0.41306 0.16733 0.0
Tb40 Tb 0.76024 1.10738 0.49911 0.0
Tb41 Tb 0.69199 0.17102 0.46408 0.0
C42 C 0.783 1.03808 0.54065 0.0
C43 C 0.73222 0.9735 0.55122 0.0
C44 C 0.67944 0.96803 0.57132 0.0
C45 C 0.61981 0.90861 0.56881 0.0
C46 C 0.61182 0.85381 0.54601 0.0
C47 C 0.66734 0.85723 0.53029 0.0
C48 C 0.7271 0.91656 0.53296 0.0
C49 C 0.76494 1.11423 0.42524 0.0
C50 C 0.60278 1.01977 0.46814 0.0
C51 C 0.65862 0.23016 0.41916 0.0
C52 C 0.67033 0.29654 0.41776 0.0
C53 C 0.72451 0.34956 0.43943 0.0
C54 C 0.72348 0.407 0.44884 0.0
C55 C 0.6671 0.41037 0.4378 0.0
C56 C 0.61886 0.36193 0.41056 0.0
C57 C 0.62032 0.3048 0.40076 0.0
C58 C 0.68842 0.16781 0.53983 0.0
C59 C 0.85187 0.25668 0.48418 0.0
O60 O 0.77919 1.08864 0.55447 0.0
O61 O 0.79219 1.0397 0.5041 0.0
O62 O 0.71675 1.1011 0.44434 0.0
O63 O 0.81417 0.12182 0.44779 0.0
O64 O 0.65178 1.02705 0.49287 0.0
O65 O 0.61287 1.06935 0.44846 0.0
O66 O 0.70977 0.22298 0.41568 0.0
O67 O 0.62403 0.19902 0.44693 0.0
O68 O 0.73603 0.17771 0.52063 0.0
O69 O 0.64295 0.16665 0.51686 0.0
O70 O 0.79711 0.25221 0.46801 0.0
O71 O 0.84876 0.20687 0.50175 0.0
H72 H 0.68177 1.01079 0.58607 0.0
H73 H 0.57843 0.90752 0.58182 0.0
H74 H 0.66363 0.81497 0.51401 0.0
H75 H 0.76727 0.91916 0.5177 0.0
H76 H 0.76392 0.34417 0.45248 0.0
H77 H 0.76176 0.44434 0.46941 0.0
H78 H 0.57508 0.3635 0.40134 0.0
H79 H 0.57864 0.26441 0.38348 0.0
Tb80 Tb 0.63309 0.57948 0.83487 0.0
Tb81 Tb 0.74607 0.6365 0.78758 0.0
C82 C 0.56564 0.57671 0.88819 0.0
C83 C 0.5433 0.62445 0.89527 0.0
C84 C 0.57939 0.67865 0.92284 0.0
C85 C 0.57443 0.7349 0.92127 0.0
C86 C 0.53318 0.73777 0.89213 0.0
C87 C 0.49219 0.68111 0.86713 0.0
C88 C 0.49711 0.62511 0.86868 0.0
C89 C 0.59748 0.55521 0.76196 0.0
C90 C 0.69071 0.72923 0.80762 0.0
C91 C 0.82089 0.65542 0.73493 0.0
C92 C 0.86706 0.63286 0.72568 0.0
C93 C 0.84854 0.56658 0.72615 0.0
C94 C 0.89687 0.54928 0.73147 0.0
C95 C 0.9639 0.59814 0.73563 0.0
C96 C 0.98179 0.66239 0.72821 0.0
C97 C 0.93354 0.67974 0.72357 0.0
C98 C 0.77618 0.65183 0.86342 0.0
C99 C 0.68327 0.4834 0.80545 0.0
O100 O 0.62972 0.60219 0.89306 0.0
O101 O 0.54006 0.53688 0.85659 0.0
O102 O 0.64463 0.60844 0.77836 0.0
O103 O 0.56493 0.51578 0.78706 0.0
O104 O 0.6565 0.68486 0.83188 0.0
O105 O 0.72481 0.71631 0.78325 0.0
O106 O 0.75795 0.61096 0.73146 0.0
O107 O 0.83809 0.69427 0.76678 0.0
O108 O 0.73163 0.60253 0.84324 0.0
O109 O 0.81005 0.6955 0.84055 0.0
O110 O 0.72288 0.53264 0.78563 0.0
O111 O 0.64587 0.4919 0.83018 0.0
H112 H 0.61535 0.67957 0.94372 0.0
H113 H 0.606 0.77743 0.94128 0.0
H114 H 0.45767 0.68067 0.84541 0.0
H115 H 0.46786 0.58413 0.84723 0.0
H116 H 0.79715 0.52913 0.726 0.0
H117 H 0.88195 0.49924 0.73651 0.0
H118 H 1.03312 0.70117 0.73115 0.0
H119 H 0.94872 0.73097 0.72242 0.0
H120 H 0.78864 0.33265 0.32144 0.0
C121 C 0.77324 0.30307 0.29407 0.0
C122 C 0.76531 0.24 0.29147 0.0
C123 C 0.75965 0.32684 0.26118 0.0
H124 H 0.73709 0.15247 0.25496 0.0
C125 C 0.74542 0.20194 0.25611 0.0
C126 C 0.72963 0.22399 0.22347 0.0
C127 C 0.73713 0.28646 0.22623 0.0
C128 C 0.76983 0.39392 0.26156 0.0
H129 H 0.7237 0.30313 0.20112 0.0
C130 C 0.7986 0.42931 0.23072 0.0
C131 C 0.80458 0.4903 0.22669 0.0
C132 C 0.7492 0.42197 0.29022 0.0
H133 H 0.72643 0.3956 0.31445 0.0
C134 C 0.75675 0.48424 0.28705 0.0
H135 H 0.81777 0.40943 0.20951 0.0
C136 C 0.78456 0.51863 0.25534 0.0
H137 H 0.79091 0.56687 0.25336 0.0
H138 H 0.7409 0.50578 0.30919 0.0
H139 H 0.41247 0.50626 0.60712 0.0
C140 C 0.44313 0.49769 0.58818 0.0
C141 C 0.50347 0.50607 0.60302 0.0
C142 C 0.42618 0.48626 0.5484 0.0
H143 H 0.59335 0.5099 0.59011 0.0
C144 C 0.54582 0.50097 0.57827 0.0
C145 C 0.52766 0.48486 0.53878 0.0
C146 C 0.46712 0.4768 0.52408 0.0
C147 C 0.38151 0.5067 0.53158 0.0
H148 H 0.45366 0.46748 0.49346 0.0
C149 C 0.39999 0.57228 0.54052 0.0
C150 C 0.38187 0.60502 0.51527 0.0
C151 C 0.33579 0.47059 0.4999 0.0
H152 H 0.32159 0.41997 0.49212 0.0
C153 C 0.31236 0.50159 0.47637 0.0
H154 H 0.43792 0.60087 0.5638 0.0
C155 C 0.33772 0.56929 0.48295 0.0
H156 H 0.32552 0.59409 0.46205 0.0
H157 H 0.27861 0.47423 0.45131 0.0
H158 H 0.28979 0.7797 0.93587 0.0
C159 C 0.25496 0.74871 0.91181 0.0
C160 C 0.20729 0.68423 0.9167 0.0
C161 C 0.25899 0.77343 0.87621 0.0
H162 H 1.12501 0.59401 0.89016 0.0
C163 C 1.16204 0.64379 0.88592 0.0
C164 C 1.16447 0.66804 0.85 0.0
C165 C 0.2131 0.73329 0.84561 0.0
C166 C 0.31748 0.83671 0.86983 0.0
H167 H 0.21594 0.75302 0.81828 0.0
C168 C 0.37938 0.8465 0.88192 0.0
C169 C 0.43741 0.89939 0.87149 0.0
C170 C 0.31373 0.88323 0.84855 0.0
H171 H 0.26624 0.87664 0.83867 0.0
C172 C 0.37188 0.938 0.83922 0.0
H173 H 0.38233 0.8088 0.89649 0.0
C174 C 0.43373 0.94539 0.84986 0.0
H175 H 0.47801 0.98538 0.84037 0.0
H176 H 0.36883 0.97333 0.82242 0.0
H177 H 0.19825 0.59157 0.38737 0.0
C178 C 0.23914 0.63901 0.39862 0.0
C179 C 0.27903 0.68194 0.37232 0.0
C180 C 0.25182 0.65675 0.43871 0.0
H181 H 0.36614 0.77311 0.36554 0.0
C182 C 0.33445 0.74296 0.38622 0.0
C183 C 0.3509 0.76433 0.42573 0.0
C184 C 0.30804 0.72095 0.45146 0.0
C185 C 0.20913 0.60777 0.46713 0.0
H186 H 0.31863 0.73886 0.48138 0.0
C187 C 1.14529 0.5484 0.45715 0.0
C188 C 1.11106 0.50351 0.48522 0.0
C189 C 0.23502 0.61932 0.50575 0.0
H190 H 0.28314 0.66015 0.51577 0.0
C191 C 0.20131 0.57706 0.53291 0.0
H192 H 1.12261 0.53631 0.42808 0.0
C193 C 1.14071 0.52054 0.52297 0.0
H194 H 1.11674 0.48948 0.54538 0.0
H195 H 0.22315 0.58789 0.5622 0.0
H196 H 0.69729 1.08835 0.71595 0.0
C197 C 0.69125 0.12711 0.72954 0.0
C198 C 0.68379 0.17033 0.70637 0.0
C199 C 0.69338 0.13516 0.77003 0.0
H200 H 0.67562 0.25691 0.70584 0.0
C201 C 0.67934 0.22306 0.72381 0.0
C202 C 0.68156 0.23438 0.76381 0.0
C203 C 0.68695 0.18903 0.78659 0.0
C204 C 0.711 1.09382 0.7952 0.0
H205 H 0.68833 0.19733 0.81736 0.0
C206 C 0.69309 1.02573 0.78604 0.0
C207 C 0.71332 0.99228 0.81196 0.0
C208 C 0.75099 0.12622 0.82953 0.0
H209 H 0.76892 0.17764 0.8374 0.0
C210 C 0.77125 1.09459 0.85407 0.0
H211 H 0.66287 0.99891 0.75979 0.0
C212 C 0.75287 1.02928 0.84558 0.0
H213 H 0.77104 1.00774 0.86564 0.0
H214 H 0.8024 0.12147 0.88007 0.0
H215 H 0.72737 0.6687 0.0416 0.0
C216 C 0.76825 0.66535 0.05433 0.0
C217 C 0.8142 0.66439 0.03009 0.0
C218 C 0.77612 0.66439 0.09447 0.0
H219 H 0.90447 0.66318 0.02677 0.0
C220 C 0.86926 0.66246 0.04589 0.0
C221 C 0.87923 0.65904 0.08545 0.0
C222 C 0.83178 0.65947 0.10929 0.0
C223 C 0.72934 0.67245 0.12096 0.0
H224 H 0.83819 0.65454 0.13932 0.0
C225 C 0.66393 0.66076 0.10901 0.0
C226 C 0.62549 0.67355 0.13543 0.0
C227 C 0.75293 0.69658 0.15961 0.0
H228 H 0.80216 0.70979 0.17058 0.0
C229 C 0.71495 0.70687 0.18531 0.0
H230 H 0.64333 0.643 0.07966 0.0
C231 C 0.65259 0.69564 0.17353 0.0
H232 H 0.62534 0.70515 0.19459 0.0
H233 H 0.73478 0.72511 0.21479 0.0
C234 C 0.4365 0.60144 0.11666 0.0
C235 C 0.42926 0.65585 0.12809 0.0
H236 H 0.50275 0.56368 0.10899 0.0
C237 C 0.48813 0.71672 0.13687 0.0
H238 H 0.39299 0.55354 0.10952 0.0
C239 C 0.55095 0.72257 0.13585 0.0
C240 C 0.55853 0.66801 0.126 0.0
H241 H 0.48591 0.7602 0.14557 0.0
H242 H 0.59428 0.77005 0.14454 0.0
C243 C 0.49986 0.60734 0.11578 0.0
C244 C 0.97825 0.32404 0.49564 0.0
C245 C 0.91857 0.31898 0.48149 0.0
H246 H 1.08381 0.3832 0.5063 0.0
C247 C 0.92418 0.37388 0.46404 0.0
H248 H 0.97745 0.28352 0.5087 0.0
C249 C 0.98632 0.43218 0.46251 0.0
C250 C 1.04567 0.43787 0.47811 0.0
H251 H 0.88012 0.3725 0.45213 0.0
H252 H 0.98749 0.47378 0.45062 0.0
C253 C 1.03996 0.38175 0.49389 0.0
C254 C 0.70627 0.83009 0.77427 0.0
C255 C 0.68975 0.7935 0.80669 0.0
H256 H 0.72444 0.91869 0.74938 0.0
C257 C 0.67508 0.82097 0.83874 0.0
H258 H 0.71821 0.81147 0.74878 0.0
C259 C 0.67869 0.88257 0.839 0.0
C260 C 0.69633 0.92014 0.80705 0.0
H261 H 0.66337 0.79601 0.86448 0.0
H262 H 0.66933 0.90199 0.86519 0.0
C263 C 0.70906 0.89177 0.77434 0.0
C264 C 1.01981 0.61846 0.0899 0.0
C265 C 1.05776 0.65171 0.12472 0.0
H266 H 0.93495 0.59201 0.05136 0.0
C267 C 1.03573 0.68739 0.14728 0.0
H268 H 1.03549 0.59207 0.07094 0.0
C269 C 0.97721 0.68823 0.13564 0.0
C270 C 0.93924 0.65465 0.10057 0.0
H271 H 1.06341 0.71429 0.17416 0.0
H272 H 0.96268 0.71663 0.15377 0.0
C273 C 0.96197 0.61937 0.07828 0.0
C274 C 0.49782 0.94288 0.42478 0.0
C275 C 0.53748 0.95465 0.45916 0.0
H276 H 0.41018 0.87836 0.38821 0.0
C277 C 0.51241 0.90438 0.48396 0.0
H278 H 0.51355 0.97981 0.40485 0.0
C279 C 0.45149 0.84439 0.47429 0.0
C280 C 0.41334 0.83137 0.43891 0.0
H281 H 0.53959 0.91177 0.51127 0.0
H282 H 0.4349 0.80774 0.49439 0.0
C283 C 0.43771 0.8832 0.41498 0.0
C284 C 0.73617 0.41778 0.78162 0.0
C285 C 0.68394 0.41885 0.79943 0.0
H286 H 0.7765 0.36135 0.75701 0.0
C287 C 0.63289 0.3576 0.80908 0.0
H288 H 0.77778 0.46303 0.77483 0.0
C289 C 0.63309 0.29805 0.79965 0.0
C290 C 0.68427 0.29743 0.78014 0.0
H291 H 0.59159 0.35526 0.82287 0.0
H292 H 0.59178 0.25215 0.8063 0.0
C293 C 0.73601 0.35886 0.77185 0.0
C294 C 0.52813 0.76258 0.49871 0.0
C295 C 0.54521 0.79534 0.53593 0.0
H296 H 0.4593 0.67689 0.46215 0.0
C297 C 0.49822 0.77177 0.56296 0.0
H298 H 0.56189 0.78105 0.47663 0.0
C299 C 0.43829 0.71316 0.5541 0.0
C300 C 0.42476 0.6769 0.51826 0.0
H301 H 0.50935 0.7961 0.59172 0.0
H302 H 0.40557 0.6927 0.57651 0.0
C303 C 0.46833 0.70402 0.48992 0.0
C304 C 1.07774 0.61811 0.75047 0.0
C305 C 1.01187 0.58925 0.75925 0.0
H306 H 1.17882 0.66342 0.77261 0.0
C307 C 0.99645 0.57053 0.79632 0.0
H308 H 1.0907 0.63225 0.72196 0.0
C309 C 1.04668 0.59056 0.82559 0.0
C310 C 1.11307 0.62844 0.81802 0.0
H311 H 0.94602 0.54827 0.80397 0.0
H312 H 1.03298 0.5825 0.85463 0.0
C313 C 1.12806 0.63694 0.77965 0.0
C314 C 0.5839 1.11101 0.1559 0.0
C315 C 0.59298 1.05673 0.15271 0.0
H316 H 0.62139 0.20824 0.18135 0.0
C317 C 0.6563 1.06627 0.1613 0.0
H318 H 0.53572 1.10531 0.1492 0.0
C319 C 0.7063 0.1262 0.17943 0.0
C320 C 0.69271 0.17631 0.18965 0.0
H321 H 0.66484 1.02539 0.15817 0.0
H322 H 0.75262 0.13039 0.1896 0.0
C323 C 0.63344 0.17049 0.17445 0.0
C324 C 0.64608 0.43459 0.50303 0.0
C325 C 0.6463 0.44595 0.46426 0.0
H326 H 0.60587 0.43392 0.55585 0.0
C327 C 0.61274 0.4768 0.45074 0.0
H328 H 0.66979 0.4091 0.51414 0.0
C329 C 0.57659 0.49273 0.47532 0.0
C330 C 0.57219 0.47637 0.51343 0.0
H331 H 0.61182 0.4855 0.42085 0.0
H332 H 0.55052 0.51582 0.46408 0.0
C333 C 0.60885 0.44869 0.5271 0.0
C334 C 0.52516 0.81542 0.84994 0.0
C335 C 0.53263 0.79922 0.88703 0.0
H336 H 0.49486 0.86879 0.81579 0.0
C337 C 0.53316 0.83874 0.91873 0.0
H338 H 0.52749 0.78781 0.82487 0.0
C339 C 0.51593 0.8864 0.91334 0.0
C340 C 0.49674 0.89377 0.8763 0.0
H341 H 0.53974 0.8283 0.94767 0.0
H342 H 0.50694 0.90934 0.9382 0.0
C343 C 0.50876 0.86351 0.84464 0.0
C344 C 0.85044 0.4749 0.13399 0.0
C345 C 0.91602 0.49576 0.14664 0.0
H346 H 0.75965 0.46474 0.15071 0.0
C347 C 0.94649 0.54245 0.17868 0.0
H348 H 0.82644 0.44042 0.10873 0.0
C349 C 0.90894 0.55853 0.20169 0.0
C350 C 0.84013 0.52403 0.19425 0.0
H351 H 0.99797 0.56137 0.18811 0.0
H352 H 0.93171 0.58649 0.2292 0.0
C353 C 0.81268 0.49043 0.15754 0.0
C354 C 1.16806 0.66846 0.01828 0.0
C355 C 0.2209 0.66382 0.03478 0.0
H356 H 1.12078 0.67563 0.9667 0.0
C357 C 0.26151 0.65274 0.0112 0.0
H358 H 1.13633 0.67714 0.03618 0.0
C359 C 0.25335 0.65319 0.97149 0.0
C360 C 0.20333 0.66268 0.95529 0.0
H361 H 0.30287 0.64968 0.02356 0.0
H362 H 0.28877 0.65084 0.95374 0.0
C363 C 1.15888 0.66719 0.97869 0.0
C364 C 0.71357 1.11614 0.36336 0.0
C365 C 0.77056 0.14219 0.3887 0.0
H366 H 0.66731 0.12812 0.31329 0.0
C367 C 0.82731 0.20082 0.3819 0.0
H368 H 0.669 1.07158 0.36854 0.0
C369 C 0.82591 0.23422 0.35062 0.0
C370 C 0.76817 0.20842 0.32574 0.0
H371 H 0.87136 0.2223 0.40167 0.0
H372 H 0.86954 0.27983 0.34583 0.0
C373 C 0.7124 0.14884 0.33216 0.0
C374 C 0.60931 0.58963 0.69574 0.0
C375 C 0.57221 0.54525 0.72165 0.0
H376 H 0.61586 0.61178 0.63728 0.0
C377 C 0.51025 0.49057 0.70881 0.0
H378 H 0.65687 0.63246 0.7051 0.0
C379 C 0.4863 0.47955 0.67039 0.0
C380 C 0.52449 0.5225 0.64424 0.0
H381 H 0.48052 0.45584 0.72836 0.0
H382 H 0.43919 0.43622 0.66082 0.0
C383 C 0.58579 0.57802 0.65718 0.0
C384 C 0.62997 0.15386 0.60002 0.0
C385 C 0.68709 0.16575 0.58241 0.0
H386 H 0.58424 0.14587 0.65267 0.0
C387 C 0.74237 0.17629 0.60602 0.0
H388 H 0.58653 0.14578 0.58289 0.0
C389 C 0.74031 0.17442 0.64604 0.0
C390 C 0.68348 0.1636 0.66357 0.0
H391 H 0.78782 0.18748 0.59373 0.0
H392 H 0.78405 0.18393 0.66345 0.0
C393 C 0.62843 0.15346 0.64001 0.0
C394 C 0.74736 0.60198 0.92597 0.0
C395 C 0.78743 0.6564 0.90613 0.0
H396 H 0.72295 0.56282 0.98038 0.0
C397 C 0.83688 0.71401 0.92763 0.0
H398 H 0.70964 0.55631 0.91043 0.0
C399 C 0.8455 0.71703 0.9679 0.0
C400 C 0.80397 0.663 0.98758 0.0
H401 H 0.86895 0.75662 0.91334 0.0
H402 H 0.88442 0.76167 0.98374 0.0
C403 C 0.75483 0.60556 0.96611 0.0
C404 C 0.249 0.58952 0.27322 0.0
C405 C 0.24491 0.63231 0.24854 0.0
H406 H 0.26138 0.57067 0.33135 0.0
C407 C 0.24973 0.69036 0.26504 0.0
H408 H 0.24534 0.54429 0.26154 0.0
C409 C 0.26014 0.70598 0.30507 0.0
C410 C 0.26438 0.66325 0.32978 0.0
H411 H 0.24672 0.72434 0.24697 0.0
H412 H 0.26489 0.75169 0.31678 0.0
C413 C 0.25783 0.60439 0.31328 0.0
loop_
_geom_bond_atom_site_label_1
_geom_bond_atom_site_label_2
_geom_bond_distance
_geom_bond_site_symmetry_2
_ccdc_geom_bond_type
Tb0 C2 2.809 . S
Tb0 O20 2.484 . S
Tb0 O21 2.440 . S
Tb0 O22 2.658 1_455 S
Tb0 O23 2.409 . S
Tb0 O24 2.378 . S
Tb0 O28 2.325 . S
Tb0 O31 2.341 1_455 S
Tb1 C11 2.809 . S
Tb1 O22 2.325 . S
Tb1 O25 2.341 1_655 S
Tb1 O26 2.484 . S
Tb1 O27 2.440 . S
Tb1 O28 2.658 1_655 S
Tb1 O29 2.409 . S
Tb1 O30 2.378 . S
C2 Tb0 2.809 . S
C2 C3 1.514 . S
C2 O20 1.248 . S
C2 O21 1.266 . S
C3 C2 1.514 . S
C3 C4 1.359 . S
C3 C8 1.348 . S
C4 C3 1.359 . S
C4 C5 1.380 . S
C4 H32 0.929 . S
C5 C4 1.380 . S
C5 C6 1.347 . S
C5 H33 0.931 . S
C6 C5 1.347 . S
C6 C7 1.369 . S
C7 C6 1.369 . S
C7 C8 1.408 . S
C7 H34 0.930 . S
C8 C3 1.348 . S
C8 C7 1.408 . S
C8 H35 0.930 . S
C9 O22 1.281 1_455 S
C9 O23 1.254 . S
C10 O24 1.236 . S
C10 O25 1.266 . S
C11 Tb1 2.809 . S
C11 C12 1.514 . S
C11 O26 1.248 . S
C11 O27 1.266 . S
C12 C11 1.514 . S
C12 C13 1.359 . S
C12 C17 1.348 . S
C13 C12 1.359 . S
C13 C14 1.380 . S
C13 H36 0.929 . S
C14 C13 1.380 . S
C14 C15 1.347 . S
C14 H37 0.931 . S
C15 C14 1.347 . S
C15 C16 1.369 . S
C16 C15 1.369 . S
C16 C17 1.408 . S
C16 H38 0.930 . S
C17 C12 1.348 . S
C17 C16 1.408 . S
C17 H39 0.930 . S
C18 O28 1.281 . S
C18 O29 1.254 1_455 S
C19 O30 1.236 . S
C19 O31 1.266 . S
O20 Tb0 2.484 . S
O20 C2 1.248 . S
O21 Tb0 2.440 . S
O21 C2 1.266 . S
O22 Tb0 2.658 1_655 S
O22 Tb1 2.325 . S
O22 C9 1.281 1_655 S
O23 Tb0 2.409 . S
O23 C9 1.254 . S
O24 Tb0 2.378 . S
O24 C10 1.236 . S
O25 Tb1 2.341 1_455 S
O25 C10 1.266 . S
O26 Tb1 2.484 . S
O26 C11 1.248 . S
O27 Tb1 2.440 . S
O27 C11 1.266 . S
O28 Tb0 2.325 . S
O28 Tb1 2.658 1_455 S
O28 C18 1.281 . S
O29 Tb1 2.409 . S
O29 C18 1.254 1_655 S
O30 Tb1 2.378 . S
O30 C19 1.236 . S
O31 Tb0 2.341 1_655 S
O31 C19 1.266 . S
H32 C4 0.929 . S
H33 C5 0.931 . S
H34 C7 0.930 . S
H35 C8 0.930 . S
H36 C13 0.929 . S
H37 C14 0.931 . S
H38 C16 0.930 . S
H39 C17 0.930 . S
Tb40 C42 2.809 1_545 S
Tb40 O60 2.484 1_545 S
Tb40 O61 2.440 1_545 S
Tb40 O62 2.658 . S
Tb40 O63 2.409 . S
Tb40 O64 2.378 1_545 S
Tb40 O68 2.325 . S
Tb40 O71 2.341 . S
Tb41 C51 2.809 . S
Tb41 O62 2.325 . S
Tb41 O65 2.341 1_545 S
Tb41 O66 2.484 . S
Tb41 O67 2.440 . S
Tb41 O68 2.658 . S
Tb41 O69 2.409 . S
Tb41 O70 2.378 . S
C42 Tb40 2.809 1_565 S
C42 C43 1.514 . S
C42 O60 1.248 . S
C42 O61 1.266 . S
C43 C42 1.514 . S
C43 C44 1.359 . S
C43 C48 1.348 . S
C44 C43 1.359 . S
C44 C45 1.380 . S
C44 H72 0.929 . S
C45 C44 1.380 . S
C45 C46 1.347 . S
C45 H73 0.931 . S
C46 C45 1.347 . S
C46 C47 1.369 . S
C47 C46 1.369 . S
C47 C48 1.408 . S
C47 H74 0.930 . S
C48 C43 1.348 . S
C48 C47 1.408 . S
C48 H75 0.930 . S
C49 O62 1.281 . S
C49 O63 1.254 . S
C50 O64 1.236 . S
C50 O65 1.266 . S
C51 Tb41 2.809 . S
C51 C52 1.514 . S
C51 O66 1.248 . S
C51 O67 1.266 . S
C52 C51 1.514 . S
C52 C53 1.359 . S
C52 C57 1.348 . S
C53 C52 1.359 . S
C53 C54 1.380 . S
C53 H76 0.929 . S
C54 C53 1.380 . S
C54 C55 1.347 . S
C54 H77 0.931 . S
C55 C54 1.347 . S
C55 C56 1.369 . S
C56 C55 1.369 . S
C56 C57 1.408 . S
C56 H78 0.930 . S
C57 C52 1.348 . S
C57 C56 1.408 . S
C57 H79 0.930 . S
C58 O68 1.281 . S
C58 O69 1.254 . S
C59 O70 1.236 . S
C59 O71 1.266 . S
O60 Tb40 2.484 1_565 S
O60 C42 1.248 . S
O61 Tb40 2.440 1_565 S
O61 C42 1.266 . S
O62 Tb40 2.658 . S
O62 Tb41 2.325 . S
O62 C49 1.281 . S
O63 Tb40 2.409 . S
O63 C49 1.254 . S
O64 Tb40 2.378 1_565 S
O64 C50 1.236 . S
O65 Tb41 2.341 1_565 S
O65 C50 1.266 . S
O66 Tb41 2.484 . S
O66 C51 1.248 . S
O67 Tb41 2.440 . S
O67 C51 1.266 . S
O68 Tb40 2.325 . S
O68 Tb41 2.658 . S
O68 C58 1.281 . S
O69 Tb41 2.409 . S
O69 C58 1.254 . S
O70 Tb41 2.378 . S
O70 C59 1.236 . S
O71 Tb40 2.341 . S
O71 C59 1.266 . S
H72 C44 0.929 . S
H73 C45 0.931 . S
H74 C47 0.930 . S
H75 C48 0.930 . S
H76 C53 0.929 . S
H77 C54 0.931 . S
H78 C56 0.930 . S
H79 C57 0.930 . S
Tb80 C82 2.809 . S
Tb80 O100 2.484 . S
Tb80 O101 2.440 . S
Tb80 O102 2.658 . S
Tb80 O103 2.409 . S
Tb80 O104 2.378 . S
Tb80 O108 2.325 . S
Tb80 O111 2.341 . S
Tb81 C91 2.809 . S
Tb81 O102 2.325 . S
Tb81 O105 2.341 . S
Tb81 O106 2.484 . S
Tb81 O107 2.440 . S
Tb81 O108 2.658 . S
Tb81 O109 2.409 . S
Tb81 O110 2.378 . S
C82 Tb80 2.809 . S
C82 C83 1.514 . S
C82 O100 1.248 . S
C82 O101 1.266 . S
C83 C82 1.514 . S
C83 C84 1.359 . S
C83 C88 1.348 . S
C84 C83 1.359 . S
C84 C85 1.380 . S
C84 H112 0.929 . S
C85 C84 1.380 . S
C85 C86 1.347 . S
C85 H113 0.931 . S
C86 C85 1.347 . S
C86 C87 1.369 . S
C87 C86 1.369 . S
C87 C88 1.408 . S
C87 H114 0.930 . S
C88 C83 1.348 . S
C88 C87 1.408 . S
C88 H115 0.930 . S
C89 O102 1.281 . S
C89 O103 1.254 . S
C90 O104 1.236 . S
C90 O105 1.266 . S
C91 Tb81 2.809 . S
C91 C92 1.514 . S
C91 O106 1.248 . S
C91 O107 1.266 . S
C92 C91 1.514 . S
C92 C93 1.359 . S
C92 C97 1.348 . S
C93 C92 1.359 . S
C93 C94 1.380 . S
C93 H116 0.929 . S
C94 C93 1.380 . S
C94 C95 1.347 . S
C94 H117 0.931 . S
C95 C94 1.347 . S
C95 C96 1.369 . S
C96 C95 1.369 . S
C96 C97 1.408 . S
C96 H118 0.930 . S
C97 C92 1.348 . S
C97 C96 1.408 . S
C97 H119 0.930 . S
C98 O108 1.281 . S
C98 O109 1.254 . S
C99 O110 1.236 . S
C99 O111 1.266 . S
O100 Tb80 2.484 . S
O100 C82 1.248 . S
O101 Tb80 2.440 . S
O101 C82 1.266 . S
O102 Tb80 2.658 . S
O102 Tb81 2.325 . S
O102 C89 1.281 . S
O103 Tb80 2.409 . S
O103 C89 1.254 . S
O104 Tb80 2.378 . S
O104 C90 1.236 . S
O105 Tb81 2.341 . S
O105 C90 1.266 . S
O106 Tb81 2.484 . S
O106 C91 1.248 . S
O107 Tb81 2.440 . S
O107 C91 1.266 . S
O108 Tb80 2.325 . S
O108 Tb81 2.658 . S
O108 C98 1.281 . S
O109 Tb81 2.409 . S
O109 C98 1.254 . S
O110 Tb81 2.378 . S
O110 C99 1.236 . S
O111 Tb80 2.341 . S
O111 C99 1.266 . S
H112 C84 0.929 . S
H113 C85 0.931 . S
H114 C87 0.930 . S
H115 C88 0.930 . S
H116 C93 0.929 . S
H117 C94 0.931 . S
H118 C96 0.930 . S
H119 C97 0.930 . S
H120 C121 0.949 . S
C121 H120 0.949 . S
C121 C122 1.395 . S
C121 C123 1.391 . S
C122 C121 1.395 . S
C122 C125 1.390 1_545 S
C123 C121 1.391 . S
C123 C127 1.387 . S
C123 C128 1.491 . S
H124 C125 0.950 . S
C125 C122 1.390 1_565 S
C125 H124 0.950 . S
C125 C126 1.378 . S
C126 C125 1.378 . S
C126 C127 1.409 1_565 S
C127 C123 1.387 . S
C127 C126 1.409 1_545 S
C127 H129 0.951 . S
C128 C123 1.491 . S
C128 C130 1.382 . S
C128 C132 1.404 . S
H129 C127 0.951 . S
C130 C128 1.382 . S
C130 C131 1.390 . S
C130 H135 0.949 . S
C131 C130 1.390 . S
C131 C136 1.399 . S
C132 C128 1.404 . S
C132 H133 0.950 . S
C132 C134 1.375 . S
H133 C132 0.950 . S
C134 C132 1.375 . S
C134 C136 1.382 . S
C134 H138 0.950 . S
H135 C130 0.949 . S
C136 C131 1.399 . S
C136 C134 1.382 . S
C136 H137 0.952 . S
H137 C136 0.952 . S
H138 C134 0.950 . S
H139 C140 0.949 . S
C140 H139 0.949 . S
C140 C141 1.395 . S
C140 C142 1.391 . S
C141 C140 1.395 . S
C141 C144 1.390 . S
C142 C140 1.391 . S
C142 C146 1.387 . S
C142 C147 1.491 . S
H143 C144 0.950 . S
C144 C141 1.390 . S
C144 H143 0.950 . S
C144 C145 1.378 . S
C145 C144 1.378 . S
C145 C146 1.409 . S
C146 C142 1.387 . S
C146 C145 1.409 . S
C146 H148 0.951 . S
C147 C142 1.491 . S
C147 C149 1.382 . S
C147 C151 1.404 . S
H148 C146 0.951 . S
C149 C147 1.382 . S
C149 C150 1.390 . S
C149 H154 0.949 . S
C150 C149 1.390 . S
C150 C155 1.399 . S
C151 C147 1.404 . S
C151 H152 0.950 . S
C151 C153 1.375 . S
H152 C151 0.950 . S
C153 C151 1.375 . S
C153 C155 1.382 . S
C153 H157 0.950 . S
H154 C149 0.949 . S
C155 C150 1.399 . S
C155 C153 1.382 . S
C155 H156 0.952 . S
H156 C155 0.952 . S
H157 C153 0.950 . S
H158 C159 0.949 . S
C159 H158 0.949 . S
C159 C160 1.395 1_455 S
C159 C161 1.391 . S
C160 C159 1.395 1_655 S
C160 C163 1.390 . S
C161 C159 1.391 . S
C161 C165 1.387 1_455 S
C161 C166 1.491 . S
H162 C163 0.950 . S
C163 C160 1.390 . S
C163 H162 0.950 . S
C163 C164 1.378 . S
C164 C163 1.378 . S
C164 C165 1.409 . S
C165 C161 1.387 1_655 S
C165 C164 1.409 . S
C165 H167 0.951 . S
C166 C161 1.491 . S
C166 C168 1.382 . S
C166 C170 1.404 . S
H167 C165 0.951 . S
C168 C166 1.382 . S
C168 C169 1.390 . S
C168 H173 0.949 . S
C169 C168 1.390 . S
C169 C174 1.399 . S
C170 C166 1.404 . S
C170 H171 0.950 . S
C170 C172 1.375 . S
H171 C170 0.950 . S
C172 C170 1.375 . S
C172 C174 1.382 . S
C172 H176 0.950 . S
H173 C168 0.949 . S
C174 C169 1.399 . S
C174 C172 1.382 . S
C174 H175 0.952 . S
H175 C174 0.952 . S
H176 C172 0.950 . S
H177 C178 0.949 1_655 S
C178 H177 0.949 1_455 S
C178 C179 1.395 . S
C178 C180 1.391 . S
C179 C178 1.395 . S
C179 C182 1.390 . S
C180 C178 1.391 . S
C180 C184 1.387 . S
C180 C185 1.491 1_455 S
H181 C182 0.950 . S
C182 C179 1.390 . S
C182 H181 0.950 . S
C182 C183 1.378 . S
C183 C182 1.378 . S
C183 C184 1.409 . S
C184 C180 1.387 . S
C184 C183 1.409 . S
C184 H186 0.951 . S
C185 C180 1.491 1_655 S
C185 C187 1.382 . S
C185 C189 1.404 . S
H186 C184 0.951 . S
C187 C185 1.382 . S
C187 C188 1.390 . S
C187 H192 0.949 . S
C188 C187 1.390 . S
C188 C193 1.399 . S
C189 C185 1.404 . S
C189 H190 0.950 . S
C189 C191 1.375 . S
H190 C189 0.950 . S
C191 C189 1.375 . S
C191 C193 1.382 . S
C191 H195 0.950 . S
H192 C187 0.949 . S
C193 C188 1.399 . S
C193 C191 1.382 . S
C193 H194 0.952 . S
H194 C193 0.952 . S
H195 C191 0.950 . S
H196 C197 0.949 1_565 S
C197 H196 0.949 1_545 S
C197 C198 1.395 . S
C197 C199 1.391 . S
C198 C197 1.395 . S
C198 C201 1.390 . S
C199 C197 1.391 . S
C199 C203 1.387 . S
C199 C204 1.491 1_545 S
H200 C201 0.950 . S
C201 C198 1.390 . S
C201 H200 0.950 . S
C201 C202 1.378 . S
C202 C201 1.378 . S
C202 C203 1.409 . S
C203 C199 1.387 . S
C203 C202 1.409 . S
C203 H205 0.951 . S
C204 C199 1.491 1_565 S
C204 C206 1.382 . S
C204 C208 1.404 . S
H205 C203 0.951 . S
C206 C204 1.382 . S
C206 C207 1.390 . S
C206 H211 0.949 . S
C207 C206 1.390 . S
C207 C212 1.399 . S
C208 C204 1.404 . S
C208 H209 0.950 . S
C208 C210 1.375 . S
H209 C208 0.950 . S
C210 C208 1.375 . S
C210 C212 1.382 . S
C210 H214 0.950 . S
H211 C206 0.949 . S
C212 C207 1.399 . S
C212 C210 1.382 . S
C212 H213 0.952 . S
H213 C212 0.952 . S
H214 C210 0.950 . S
H215 C216 0.949 . S
C216 H215 0.949 . S
C216 C217 1.395 . S
C216 C218 1.391 . S
C217 C216 1.395 . S
C217 C220 1.390 . S
C218 C216 1.391 . S
C218 C222 1.387 . S
C218 C223 1.491 . S
H219 C220 0.950 . S
C220 C217 1.390 . S
C220 H219 0.950 . S
C220 C221 1.378 . S
C221 C220 1.378 . S
C221 C222 1.409 . S
C222 C218 1.387 . S
C222 C221 1.409 . S
C222 H224 0.951 . S
C223 C218 1.491 . S
C223 C225 1.382 . S
C223 C227 1.404 . S
H224 C222 0.951 . S
C225 C223 1.382 . S
C225 C226 1.390 . S
C225 H230 0.949 . S
C226 C225 1.390 . S
C226 C231 1.399 . S
C227 C223 1.404 . S
C227 H228 0.950 . S
C227 C229 1.375 . S
H228 C227 0.950 . S
C229 C227 1.375 . S
C229 C231 1.382 . S
C229 H233 0.950 . S
H230 C225 0.949 . S
C231 C226 1.399 . S
C231 C229 1.382 . S
C231 H232 0.952 . S
H232 C231 0.952 . S
H233 C229 0.950 . S
C234 C235 1.387 . S
C234 H238 0.950 . S
C234 C243 1.390 . S
C235 C234 1.387 . S
C235 C237 1.387 . S
H236 C243 0.950 . S
C237 C235 1.387 . S
C237 C239 1.390 . S
C237 H241 0.950 . S
H238 C234 0.950 . S
C239 C237 1.390 . S
C239 C240 1.387 . S
C239 H242 0.950 . S
C240 C239 1.387 . S
C240 C243 1.387 . S
H241 C237 0.950 . S
H242 C239 0.950 . S
C243 C234 1.390 . S
C243 H236 0.950 . S
C243 C240 1.387 . S
C244 C245 1.387 . S
C244 H248 0.950 . S
C244 C253 1.390 . S
C245 C244 1.387 . S
C245 C247 1.387 . S
H246 C253 0.950 . S
C247 C245 1.387 . S
C247 C249 1.390 . S
C247 H251 0.950 . S
H248 C244 0.950 . S
C249 C247 1.390 . S
C249 C250 1.387 . S
C249 H252 0.950 . S
C250 C249 1.387 . S
C250 C253 1.387 . S
H251 C247 0.950 . S
H252 C249 0.950 . S
C253 C244 1.390 . S
C253 H246 0.950 . S
C253 C250 1.387 . S
C254 C255 1.387 . S
C254 H258 0.950 . S
C254 C263 1.390 . S
C255 C254 1.387 . S
C255 C257 1.387 . S
H256 C263 0.950 . S
C257 C255 1.387 . S
C257 C259 1.390 . S
C257 H261 0.950 . S
H258 C254 0.950 . S
C259 C257 1.390 . S
C259 C260 1.387 . S
C259 H262 0.950 . S
C260 C259 1.387 . S
C260 C263 1.387 . S
H261 C257 0.950 . S
H262 C259 0.950 . S
C263 C254 1.390 . S
C263 H256 0.950 . S
C263 C260 1.387 . S
C264 C265 1.387 . S
C264 H268 0.950 . S
C264 C273 1.390 . S
C265 C264 1.387 . S
C265 C267 1.387 . S
H266 C273 0.950 . S
C267 C265 1.387 . S
C267 C269 1.390 . S
C267 H271 0.950 . S
H268 C264 0.950 . S
C269 C267 1.390 . S
C269 C270 1.387 . S
C269 H272 0.950 . S
C270 C269 1.387 . S
C270 C273 1.387 . S
H271 C267 0.950 . S
H272 C269 0.950 . S
C273 C264 1.390 . S
C273 H266 0.950 . S
C273 C270 1.387 . S
C274 C275 1.387 . S
C274 H278 0.950 . S
C274 C283 1.390 . S
C275 C274 1.387 . S
C275 C277 1.387 . S
H276 C283 0.950 . S
C277 C275 1.387 . S
C277 C279 1.390 . S
C277 H281 0.950 . S
H278 C274 0.950 . S
C279 C277 1.390 . S
C279 C280 1.387 . S
C279 H282 0.950 . S
C280 C279 1.387 . S
C280 C283 1.387 . S
H281 C277 0.950 . S
H282 C279 0.950 . S
C283 C274 1.390 . S
C283 H276 0.950 . S
C283 C280 1.387 . S
C284 C285 1.387 . S
C284 H288 0.950 . S
C284 C293 1.390 . S
C285 C284 1.387 . S
C285 C287 1.387 . S
H286 C293 0.950 . S
C287 C285 1.387 . S
C287 C289 1.390 . S
C287 H291 0.950 . S
H288 C284 0.950 . S
C289 C287 1.390 . S
C289 C290 1.387 . S
C289 H292 0.950 . S
C290 C289 1.387 . S
C290 C293 1.387 . S
H291 C287 0.950 . S
H292 C289 0.950 . S
C293 C284 1.390 . S
C293 H286 0.950 . S
C293 C290 1.387 . S
C294 C295 1.387 . S
C294 H298 0.950 . S
C294 C303 1.390 . S
C295 C294 1.387 . S
C295 C297 1.387 . S
H296 C303 0.950 . S
C297 C295 1.387 . S
C297 C299 1.390 . S
C297 H301 0.950 . S
H298 C294 0.950 . S
C299 C297 1.390 . S
C299 C300 1.387 . S
C299 H302 0.950 . S
C300 C299 1.387 . S
C300 C303 1.387 . S
H301 C297 0.950 . S
H302 C299 0.950 . S
C303 C294 1.390 . S
C303 H296 0.950 . S
C303 C300 1.387 . S
C304 C305 1.387 . S
C304 H308 0.950 . S
C304 C313 1.390 . S
C305 C304 1.387 . S
C305 C307 1.387 . S
H306 C313 0.950 . S
C307 C305 1.387 . S
C307 C309 1.390 . S
C307 H311 0.950 . S
H308 C304 0.950 . S
C309 C307 1.390 . S
C309 C310 1.387 . S
C309 H312 0.950 . S
C310 C309 1.387 . S
C310 C313 1.387 . S
H311 C307 0.950 . S
H312 C309 0.950 . S
C313 C304 1.390 . S
C313 H306 0.950 . S
C313 C310 1.387 . S
C314 C315 1.387 . S
C314 H318 0.950 . S
C314 C323 1.390 . S
C315 C314 1.387 . S
C315 C317 1.387 . S
H316 C323 0.950 . S
C317 C315 1.387 . S
C317 C319 1.390 . S
C317 H321 0.950 . S
H318 C314 0.950 . S
C319 C317 1.390 . S
C319 C320 1.387 . S
C319 H322 0.950 . S
C320 C319 1.387 . S
C320 C323 1.387 . S
H321 C317 0.950 . S
H322 C319 0.950 . S
C323 C314 1.390 . S
C323 H316 0.950 . S
C323 C320 1.387 . S
C324 C325 1.387 . S
C324 H328 0.950 . S
C324 C333 1.390 . S
C325 C324 1.387 . S
C325 C327 1.387 . S
H326 C333 0.950 . S
C327 C325 1.387 . S
C327 C329 1.390 . S
C327 H331 0.950 . S
H328 C324 0.950 . S
C329 C327 1.390 . S
C329 C330 1.387 . S
C329 H332 0.950 . S
C330 C329 1.387 . S
C330 C333 1.387 . S
H331 C327 0.950 . S
H332 C329 0.950 . S
C333 C324 1.390 . S
C333 H326 0.950 . S
C333 C330 1.387 . S
C334 C335 1.387 . S
C334 H338 0.950 . S
C334 C343 1.390 . S
C335 C334 1.387 . S
C335 C337 1.387 . S
H336 C343 0.950 . S
C337 C335 1.387 . S
C337 C339 1.390 . S
C337 H341 0.950 . S
H338 C334 0.950 . S
C339 C337 1.390 . S
C339 C340 1.387 . S
C339 H342 0.950 . S
C340 C339 1.387 . S
C340 C343 1.387 . S
H341 C337 0.950 . S
H342 C339 0.950 . S
C343 C334 1.390 . S
C343 H336 0.950 . S
C343 C340 1.387 . S
C344 C345 1.387 . S
C344 H348 0.950 . S
C344 C353 1.390 . S
C345 C344 1.387 . S
C345 C347 1.387 . S
H346 C353 0.950 . S
C347 C345 1.387 . S
C347 C349 1.390 . S
C347 H351 0.950 . S
H348 C344 0.950 . S
C349 C347 1.390 . S
C349 C350 1.387 . S
C349 H352 0.950 . S
C350 C349 1.387 . S
C350 C353 1.387 . S
H351 C347 0.950 . S
H352 C349 0.950 . S
C353 C344 1.390 . S
C353 H346 0.950 . S
C353 C350 1.387 . S
C354 C355 1.387 . S
C354 H358 0.950 . S
C354 C363 1.390 1_554 S
C355 C354 1.387 . S
C355 C357 1.387 1_455 S
H356 C363 0.950 . S
C357 C355 1.387 1_655 S
C357 C359 1.383 1_554 S
C357 H361 0.950 . S
H358 C354 0.950 . S
C359 C357 1.383 1_556 S
C359 C360 1.395 . S
C359 H362 0.950 . S
C360 C359 1.395 . S
C360 C363 1.387 1_655 S
H361 C357 0.950 . S
H362 C359 0.950 . S
C363 C354 1.390 1_556 S
C363 H356 0.950 . S
C363 C360 1.387 1_455 S
C364 C365 1.387 1_565 S
C364 H368 0.950 . S
C364 C373 1.390 . S
C365 C364 1.387 1_545 S
C365 C367 1.387 . S
H366 C373 0.950 . S
C367 C365 1.387 . S
C367 C369 1.390 . S
C367 H371 0.950 . S
H368 C364 0.950 . S
C369 C367 1.390 . S
C369 C370 1.387 . S
C369 H372 0.950 . S
C370 C369 1.387 . S
C370 C373 1.387 1_545 S
H371 C367 0.950 . S
H372 C369 0.950 . S
C373 C364 1.390 . S
C373 H366 0.950 . S
C373 C370 1.387 1_565 S
C374 C375 1.387 . S
C374 H378 0.950 . S
C374 C383 1.390 . S
C375 C374 1.387 . S
C375 C377 1.387 . S
H376 C383 0.950 . S
C377 C375 1.387 . S
C377 C379 1.390 . S
C377 H381 0.950 . S
H378 C374 0.950 . S
C379 C377 1.390 . S
C379 C380 1.387 . S
C379 H382 0.950 . S
C380 C379 1.387 . S
C380 C383 1.387 . S
H381 C377 0.950 . S
H382 C379 0.950 . S
C383 C374 1.390 . S
C383 H376 0.950 . S
C383 C380 1.387 . S
C384 C385 1.379 1_565 S
C384 H388 0.956 . S
C384 C393 1.392 . S
C385 C384 1.379 1_545 S
C385 C387 1.387 . S
H386 C393 0.950 . S
C387 C385 1.387 . S
C387 C389 1.390 . S
C387 H391 0.950 . S
H388 C384 0.956 . S
C389 C387 1.390 . S
C389 C390 1.387 . S
C389 H392 0.950 . S
C390 C389 1.387 . S
C390 C393 1.387 1_545 S
H391 C387 0.950 . S
H392 C389 0.950 . S
C393 C384 1.392 . S
C393 H386 0.950 . S
C393 C390 1.387 1_565 S
C394 C395 1.387 . S
C394 H398 0.950 . S
C394 C403 1.390 1_556 S
C395 C394 1.387 . S
C395 C397 1.387 . S
H396 C403 0.950 . S
C397 C395 1.387 . S
C397 C399 1.390 . S
C397 H401 0.950 . S
H398 C394 0.950 . S
C399 C397 1.390 . S
C399 C400 1.387 1_556 S
C399 H402 0.950 1_556 S
C400 C399 1.387 1_554 S
C400 C403 1.387 . S
H401 C397 0.950 . S
H402 C399 0.950 1_554 S
C403 C394 1.390 1_554 S
C403 H396 0.950 . S
C403 C400 1.387 . S
C404 C405 1.387 . S
C404 H408 0.950 . S
C404 C413 1.390 . S
C405 C404 1.387 . S
C405 C407 1.387 1_455 S
H406 C413 0.950 . S
C407 C405 1.387 1_655 S
C407 C409 1.390 . S
C407 H411 0.950 . S
H408 C404 0.950 . S
C409 C407 1.390 . S
C409 C410 1.387 1_655 S
C409 H412 0.950 . S
C410 C409 1.387 1_455 S
C410 C413 1.387 . S
H411 C407 0.950 . S
H412 C409 0.950 . S
C413 C404 1.390 . S
C413 H406 0.950 . S
C413 C410 1.387 . S
C235 C10 3.152 . S
C240 C226 3.079 . S
C245 C59 3.207 . S
C250 C188 3.136 . S
C255 C90 3.142 . S
C260 C207 3.074 . S
C265 C19 3.067 . S
C270 C221 3.033 . S
C280 C183 2.999 . S
C275 C50 3.035 . S
C290 C202 3.044 . S
C285 C99 3.075 . S
C295 C46 0.844 . S
C300 C150 0.791 . S
C305 C95 0.559 . S
C310 C164 0.444 . S
C315 C6 0.328 . S
C320 C126 0.229 . S
C330 C145 0.514 . S
C325 C55 0.580 . S
C340 C169 0.753 . S
C335 C86 0.747 . S
C345 C15 0.688 . S
C350 C131 0.718 . S
C360 C160 1.328 . S
C355 C9 1.349 . S
C365 C49 1.179 . S
C370 C122 1.239 . S
C375 C89 1.270 . S
C380 C141 1.270 . S
C390 C198 1.756 . S
C385 C58 1.730 . S
C400 C217 1.780 . S
C395 C98 1.720 . S
C405 C18 1.700 . S
C410 C179 1.835 . S
