# Generated by pormake.
# Topology rtl, (3,6)-cn, num edge types: 1
# Building blocks:
#     Node 0, Type 0, BuildingBlock: KAKCAD_clean_linker_0, # of connection points: 3
#     Node 1, Type 0, BuildingBlock: KAKCAD_clean_linker_0, # of connection points: 3
#     Node 2, Type 0, BuildingBlock: KAKCAD_clean_linker_0, # of connection points: 3
#     Node 3, Type 0, BuildingBlock: KAKCAD_clean_linker_0, # of connection points: 3
#     Node 4, Type 1, BuildingBlock: LEVNOQ01_clean_sbu_1, # of connection points: 6
#     Node 5, Type 1, BuildingBlock: LEVNOQ01_clean_sbu_1, # of connection points: 6
#     Edge 6, Type (0, 1), BuildingBlock: MIFKUJ_clean_linker_0, # of connection points: 2
#     Edge 7, Type (0, 1), BuildingBlock: MIFKUJ_clean_linker_0, # of connection points: 2
#     Edge 8, Type (0, 1), BuildingBlock: MIFKUJ_clean_linker_0, # of connection points: 2
#     Edge 9, Type (0, 1), BuildingBlock: MIFKUJ_clean_linker_0, # of connection points: 2
#     Edge 10, Type (0, 1), BuildingBlock: MIFKUJ_clean_linker_0, # of connection points: 2
#     Edge 11, Type (0, 1), BuildingBlock: MIFKUJ_clean_linker_0, # of connection points: 2
#     Edge 12, Type (0, 1), BuildingBlock: MIFKUJ_clean_linker_0, # of connection points: 2
#     Edge 13, Type (0, 1), BuildingBlock: MIFKUJ_clean_linker_0, # of connection points: 2
#     Edge 14, Type (0, 1), BuildingBlock: MIFKUJ_clean_linker_0, # of connection points: 2
#     Edge 15, Type (0, 1), BuildingBlock: MIFKUJ_clean_linker_0, # of connection points: 2
#     Edge 16, Type (0, 1), BuildingBlock: MIFKUJ_clean_linker_0, # of connection points: 2
#     Edge 17, Type (0, 1), BuildingBlock: MIFKUJ_clean_linker_0, # of connection points: 2
# Relax obj value: 0.026
# Max RMSD: 0.060
# Mean RMSD: 0.046
data_MOF--net-rtl--node1-LEVNOQ01_clean_sbu_1--node2-KAKCAD_clean_linker_0--edge1-MIFKUJ_clean_linker_0
_symmetry_space_group_name_H-M    P1
_symmetry_Int_Tables_number       1
_symmetry_cell_setting            triclinic
loop_
_symmetry_equiv_pos_as_xyz
'x, y, z'
_cell_length_a     46.521286
_cell_length_b     52.782082
_cell_length_c     37.005481
_cell_angle_alpha  89.883277
_cell_angle_beta   97.739407
_cell_angle_gamma 90.02786
loop_
_atom_site_label
_atom_site_type_symbol
_atom_site_fract_x
_atom_site_fract_y
_atom_site_fract_z
_atom_type_partial_charge
C0 C 0.22165 0.88506 0.96157 0.0
C1 C 0.21652 0.91042 0.951 0.0
C2 C 0.23608 0.87915 0.99616 0.0
C3 C 0.24567 0.89845 0.02107 0.0
C4 C 0.24052 0.92382 0.01052 0.0
C5 C 0.22617 0.92974 0.97586 0.0
C6 C 0.26044 0.89204 0.05815 0.0
C7 C 0.28103 0.87242 0.06297 0.0
C8 C 0.29371 0.86502 0.09804 0.0
C9 C 0.28606 0.87801 0.12843 0.0
C10 C 0.26544 0.89764 0.12431 0.0
C11 C 0.25291 0.90464 0.08898 0.0
C12 C 0.25528 0.9093 0.15696 0.0
C13 C 0.25089 0.89411 0.187 0.0
C14 C 0.24878 0.93531 0.15792 0.0
C15 C 0.23738 0.94569 0.18778 0.0
C16 C 0.23225 0.93026 0.21728 0.0
C17 C 0.31316 0.84252 0.10325 0.0
C18 C 0.30685 0.82072 0.08188 0.0
C19 C 0.33707 0.84201 0.13093 0.0
C20 C 0.35368 0.82 0.1378 0.0
C21 C 0.34685 0.798 0.11702 0.0
C22 C 0.32355 0.79882 0.08855 0.0
C23 C 0.23971 0.90448 0.21681 0.0
H24 H 0.21472 0.86975 0.94297 0.0
H25 H 0.23936 0.8594 0.00359 0.0
H26 H 0.24776 0.93912 0.02899 0.0
H27 H 0.22229 0.94947 0.96871 0.0
H28 H 0.28716 0.86284 0.03929 0.0
H29 H 0.23616 0.91903 0.08553 0.0
H30 H 0.29548 0.87227 0.15557 0.0
H31 H 0.25523 0.87396 0.18712 0.0
H32 H 0.25219 0.9476 0.13542 0.0
H33 H 0.23169 0.96559 0.18717 0.0
H34 H 0.28844 0.82026 0.06059 0.0
H35 H 0.34281 0.85856 0.14761 0.0
H36 H 0.23643 0.89213 0.2393 0.0
H37 H 0.31802 0.78243 0.07146 0.0
H38 H 0.37141 0.82006 0.16 0.0
C39 C 0.70566 0.6366 0.70241 0.0
C40 C 0.70218 0.61032 0.70624 0.0
C41 C 0.71733 0.6465 0.67256 0.0
C42 C 0.72583 0.63037 0.64576 0.0
C43 C 0.72248 0.60405 0.64958 0.0
C44 C 0.71088 0.59412 0.67962 0.0
C45 C 0.73801 0.64114 0.61392 0.0
C46 C 0.75803 0.66113 0.61881 0.0
C47 C 0.76862 0.67244 0.58892 0.0
C48 C 0.75962 0.66303 0.5537 0.0
C49 C 0.73918 0.64321 0.54797 0.0
C50 C 0.72861 0.63238 0.57848 0.0
C51 C 0.7275 0.63482 0.51025 0.0
C52 C 0.72365 0.65225 0.48114 0.0
C53 C 0.71889 0.60954 0.50324 0.0
C54 C 0.70581 0.60215 0.46862 0.0
C55 C 0.70154 0.61967 0.43964 0.0
C56 C 0.78756 0.69515 0.59448 0.0
C57 C 0.78039 0.7149 0.61708 0.0
C58 C 0.81239 0.69759 0.5769 0.0
C59 C 0.82964 0.71939 0.58183 0.0
C60 C 0.82217 0.73927 0.60406 0.0
C61 C 0.79744 0.73671 0.62174 0.0
C62 C 0.71119 0.64472 0.44632 0.0
H63 H 0.69948 0.64959 0.72265 0.0
H64 H 0.71932 0.66686 0.67022 0.0
H65 H 0.72902 0.59115 0.62948 0.0
H66 H 0.70829 0.5738 0.68171 0.0
H67 H 0.76541 0.66798 0.64609 0.0
H68 H 0.71203 0.61787 0.57468 0.0
H69 H 0.76802 0.67168 0.53072 0.0
H70 H 0.72953 0.67197 0.48526 0.0
H71 H 0.72195 0.59536 0.52459 0.0
H72 H 0.69843 0.58276 0.465 0.0
H73 H 0.76121 0.7137 0.63068 0.0
H74 H 0.8185 0.68263 0.55946 0.0
H75 H 0.70897 0.65873 0.42472 0.0
H76 H 0.79126 0.75161 0.63925 0.0
H77 H 0.84845 0.72093 0.56761 0.0
C78 C 0.78162 0.12483 0.13701 0.0
C79 C 0.81147 0.11931 0.143 0.0
C80 C 0.76782 0.13045 0.10194 0.0
C81 C 0.78355 0.1307 0.07203 0.0
C82 C 0.81333 0.12491 0.07803 0.0
C83 C 0.82707 0.11922 0.113 0.0
C84 C 0.76941 0.13787 0.03489 0.0
C85 C 0.74963 0.15809 0.03013 0.0
C86 C 0.73815 0.16643 0.99505 0.0
C87 C 0.74673 0.15432 0.96444 0.0
C88 C 0.76634 0.13391 0.96853 0.0
C89 C 0.77708 0.12556 0.00392 0.0
C90 C 0.77721 0.12253 0.93608 0.0
C91 C 0.75899 0.11975 0.90272 0.0
C92 C 0.80651 0.11544 0.93784 0.0
C93 C 0.81744 0.10644 0.90701 0.0
C94 C 0.79957 0.10464 0.8733 0.0
C95 C 0.7184 0.18868 0.99055 0.0
C96 C 0.69584 0.19108 0.01201 0.0
C97 C 0.72251 0.20802 0.96558 0.0
C98 C 0.70482 0.22955 0.96268 0.0
C99 C 0.68257 0.23219 0.98463 0.0
C100 C 0.67808 0.21254 0.00901 0.0
C101 C 0.77006 0.11098 0.87166 0.0
H102 H 0.76898 0.12525 0.15953 0.0
H103 H 0.74482 0.13462 0.09826 0.0
H104 H 0.82624 0.12525 0.05577 0.0
H105 H 0.84998 0.11469 0.11649 0.0
H106 H 0.74417 0.16819 0.05375 0.0
H107 H 0.79167 0.10949 0.00744 0.0
H108 H 0.73855 0.16121 0.93742 0.0
H109 H 0.73621 0.12463 0.90044 0.0
H110 H 0.82137 0.11756 0.9628 0.0
H111 H 0.84014 0.10124 0.90954 0.0
H112 H 0.69189 0.17633 0.03114 0.0
H113 H 0.73996 0.20689 0.94902 0.0
H114 H 0.75566 0.10992 0.84615 0.0
H115 H 0.66081 0.21372 0.02585 0.0
H116 H 0.70916 0.24445 0.944 0.0
C117 C 0.25117 0.42893 0.37045 0.0
C118 C 0.28133 0.43037 0.37039 0.0
C119 C 0.2398 0.4188 0.40055 0.0
C120 C 0.25839 0.41029 0.43129 0.0
C121 C 0.28852 0.41222 0.43141 0.0
C122 C 0.29985 0.42206 0.40127 0.0
C123 C 0.24663 0.39888 0.46296 0.0
C124 C 0.22506 0.38008 0.45768 0.0
C125 C 0.21545 0.36778 0.48766 0.0
C126 C 0.22697 0.37526 0.52315 0.0
C127 C 0.24875 0.39375 0.52883 0.0
C128 C 0.25841 0.40552 0.49864 0.0
C129 C 0.26282 0.39948 0.56625 0.0
C130 C 0.2461 0.40488 0.59419 0.0
C131 C 0.29319 0.39879 0.57443 0.0
C132 C 0.3066 0.40321 0.60994 0.0
C133 C 0.28992 0.40874 0.63786 0.0
C134 C 0.1956 0.34557 0.48201 0.0
C135 C 0.1724 0.34505 0.45338 0.0
C136 C 0.20071 0.32407 0.50446 0.0
C137 C 0.18345 0.30251 0.49815 0.0
C138 C 0.16074 0.30169 0.469 0.0
C139 C 0.15511 0.32334 0.44697 0.0
C140 C 0.25955 0.40971 0.62964 0.0
H141 H 0.23641 0.43509 0.34692 0.0
H142 H 0.21648 0.41765 0.39983 0.0
H143 H 0.3034 0.4056 0.45455 0.0
H144 H 0.32319 0.42315 0.40212 0.0
H145 H 0.21704 0.37402 0.43021 0.0
H146 H 0.2752 0.41987 0.50299 0.0
H147 H 0.21977 0.366 0.54652 0.0
H148 H 0.22265 0.40555 0.58853 0.0
H149 H 0.30655 0.39443 0.55344 0.0
H150 H 0.33006 0.40262 0.6155 0.0
H151 H 0.1677 0.36136 0.43577 0.0
H152 H 0.21861 0.32357 0.52643 0.0
H153 H 0.24622 0.4139 0.65072 0.0
H154 H 0.13784 0.32331 0.42422 0.0
H155 H 0.18809 0.28636 0.51608 0.0
O156 O 0.00662 0.05757 0.62126 0.0
Mg157 Mg 0.04421 0.05378 0.59606 0.0
O158 O 0.98262 0.02872 0.58598 0.0
Mg159 Mg 0.01432 0.01445 0.54588 0.0
O160 O 0.0366 0.05385 0.54047 0.0
O161 O 0.0594 0.08522 0.57392 0.0
O162 O 0.0467 0.00107 0.50595 0.0
O163 O 0.98077 0.03082 0.49793 0.0
Mg164 Mg 0.98812 0.97442 0.49533 0.0
O165 O 0.99141 0.97499 0.55109 0.0
O166 O 0.02681 0.96911 0.47342 0.0
O167 O 0.95704 0.99912 0.46871 0.0
O168 O 0.97218 0.94291 0.51571 0.0
C169 C 0.06996 0.00519 0.61584 0.0
C170 C 0.98383 0.04471 0.61203 0.0
C171 C 0.04966 0.07573 0.54253 0.0
C172 C 0.04799 0.98391 0.48194 0.0
C173 C 0.9608 0.02263 0.47368 0.0
C174 C 0.97873 0.95293 0.54752 0.0
O175 O 0.07593 0.02849 0.61851 0.0
O176 O 0.04798 0.99759 0.59405 0.0
O177 O 0.5198 0.50002 0.12606 0.0
Mg178 Mg 0.50004 0.47854 0.08136 0.0
O179 O 0.5256 0.53027 0.08717 0.0
Mg180 Mg 0.49317 0.51455 0.03863 0.0
O181 O 0.51893 0.47456 0.03459 0.0
O182 O 0.52537 0.4482 0.08282 0.0
O183 O 0.46007 0.49841 0.9897 0.0
O184 O 0.52639 0.52809 0.99939 0.0
Mg185 Mg 0.46499 0.55703 0.9862 0.0
O186 O 0.4713 0.55368 0.04118 0.0
O187 O 0.43521 0.53047 0.9624 0.0
O188 O 0.50503 0.55969 0.96644 0.0
O189 O 0.44976 0.58723 0.01219 0.0
C190 C 0.44495 0.48485 0.08593 0.0
C191 C 0.5306 0.52117 0.11929 0.0
C192 C 0.53032 0.45409 0.0505 0.0
C193 C 0.4395 0.5069 0.96634 0.0
C194 C 0.52681 0.54544 0.9752 0.0
C195 C 0.45898 0.57567 0.04227 0.0
O196 O 0.45824 0.46447 0.08249 0.0
O197 O 0.4564 0.5054 0.07663 0.0
H198 H 0.181 0.25313 0.47184 0.0
H199 H 0.15321 0.21406 0.46406 0.0
H200 H 0.07407 0.25702 0.43956 0.0
H201 H 0.10186 0.29653 0.44901 0.0
H202 H 0.06763 0.22108 0.48737 0.0
H203 H 0.10153 0.22198 0.37229 0.0
H204 H 0.1372 0.22697 0.3292 0.0
H205 H 0.18636 0.16435 0.37929 0.0
H206 H 0.15124 0.15919 0.42305 0.0
H207 H 0.00862 0.09967 0.49506 0.0
H208 H 0.01806 0.13707 0.45872 0.0
H209 H 0.11014 0.12406 0.48443 0.0
H210 H 0.10066 0.08692 0.52025 0.0
H211 H 0.09777 0.14728 0.41858 0.0
H212 H 0.07285 0.15691 0.54294 0.0
H213 H 0.03953 0.15229 0.5891 0.0
H214 H 0.97486 0.19573 0.52199 0.0
H215 H 0.00774 0.2003 0.47523 0.0
C216 C 0.15768 0.25436 0.46488 0.0
C217 C 0.14365 0.278 0.46139 0.0
C218 C 0.14181 0.23194 0.45984 0.0
C219 C 0.11155 0.23253 0.45054 0.0
C220 C 0.09743 0.25609 0.44639 0.0
C221 C 0.11335 0.27864 0.45162 0.0
C222 C 0.09486 0.20841 0.44826 0.0
C223 C 0.07358 0.20518 0.47138 0.0
C224 C 0.10273 0.18752 0.42769 0.0
C225 C 0.12371 0.19022 0.40101 0.0
C226 C 0.12 0.20932 0.37422 0.0
C227 C 0.14013 0.21218 0.34967 0.0
C228 C 0.16403 0.19599 0.35151 0.0
C229 C 0.16781 0.17685 0.37786 0.0
C230 C 0.14775 0.17391 0.4025 0.0
C231 C 0.03074 0.1041 0.49116 0.0
C232 C 0.05398 0.09054 0.51016 0.0
C233 C 0.03615 0.12558 0.47076 0.0
C234 C 0.06484 0.13366 0.46952 0.0
C235 C 0.08785 0.11825 0.48499 0.0
C236 C 0.08245 0.09697 0.50538 0.0
C237 C 0.07149 0.15989 0.45863 0.0
C238 C 0.09099 0.16351 0.43326 0.0
C239 C 0.06212 0.18117 0.47722 0.0
C240 C 0.04255 0.17866 0.50546 0.0
C241 C 0.05146 0.16535 0.53799 0.0
C242 C 0.03268 0.16275 0.56424 0.0
C243 C 0.00506 0.17364 0.55843 0.0
C244 C 0.99622 0.18724 0.5264 0.0
C245 C 0.01491 0.18983 0.50002 0.0
H246 H 0.99054 0.17161 0.57878 0.0
H247 H 0.17962 0.19826 0.33251 0.0
H248 H 0.4056 0.79224 0.13748 0.0
H249 H 0.4328 0.75264 0.14762 0.0
H250 H 0.35325 0.71019 0.12375 0.0
H251 H 0.32584 0.74954 0.11561 0.0
H252 H 0.38771 0.68728 0.17643 0.0
H253 H 0.39843 0.7234 0.05789 0.0
H254 H 0.41246 0.75652 0.01648 0.0
H255 H 0.50017 0.75401 0.07031 0.0
H256 H 0.48653 0.72106 0.11232 0.0
H257 H 0.40874 0.58264 0.0689 0.0
H258 H 0.39857 0.61837 0.10665 0.0
H259 H 0.49006 0.63546 0.12734 0.0
H260 H 0.50011 0.59954 0.08893 0.0
H261 H 0.46084 0.67296 0.09276 0.0
H262 H 0.4496 0.6261 0.19897 0.0
H263 H 0.43325 0.59074 0.23474 0.0
H264 H 0.34443 0.61106 0.20022 0.0
H265 H 0.36018 0.64629 0.16373 0.0
C266 C 0.39382 0.7745 0.1351 0.0
C267 C 0.36353 0.77411 0.12514 0.0
C268 C 0.40944 0.75185 0.14069 0.0
C269 C 0.39514 0.72839 0.13592 0.0
C270 C 0.36482 0.72801 0.12752 0.0
C271 C 0.34919 0.75058 0.12229 0.0
C272 C 0.41157 0.70421 0.13658 0.0
C273 C 0.40379 0.68409 0.15825 0.0
C274 C 0.43321 0.70025 0.11371 0.0
C275 C 0.44139 0.72006 0.08854 0.0
C276 C 0.42065 0.73007 0.06106 0.0
C277 C 0.42854 0.74877 0.03746 0.0
C278 C 0.45716 0.75743 0.04085 0.0
C279 C 0.47798 0.74734 0.06779 0.0
C280 C 0.47019 0.72866 0.0915 0.0
C281 C 0.42678 0.59313 0.08331 0.0
C282 C 0.45516 0.58835 0.07643 0.0
C283 C 0.42099 0.61363 0.1049 0.0
C284 C 0.44354 0.62975 0.11983 0.0
C285 C 0.47234 0.62327 0.11618 0.0
C286 C 0.47812 0.60261 0.09459 0.0
C287 C 0.43625 0.6556 0.13159 0.0
C288 C 0.44563 0.67617 0.11208 0.0
C289 C 0.41579 0.65978 0.15601 0.0
C290 C 0.40612 0.63888 0.17852 0.0
C291 C 0.42657 0.62299 0.19886 0.0
C292 C 0.4174 0.60295 0.21927 0.0
C293 C 0.38782 0.59865 0.21975 0.0
C294 C 0.36734 0.61443 0.19987 0.0
C295 C 0.37639 0.63449 0.17937 0.0
H296 H 0.38077 0.5831 0.23552 0.0
H297 H 0.46323 0.77191 0.02255 0.0
H298 H 0.88134 0.74424 0.61644 0.0
H299 H 0.9096 0.78363 0.62127 0.0
H300 H 0.83036 0.82705 0.60547 0.0
H301 H 0.80208 0.78786 0.60028 0.0
H302 H 0.86905 0.84224 0.56065 0.0
H303 H 0.86937 0.82518 0.68762 0.0
H304 H 0.87699 0.79963 0.74393 0.0
H305 H 0.96782 0.79381 0.73501 0.0
H306 H 0.96068 0.81901 0.67829 0.0
H307 H 0.93059 0.9601 0.57937 0.0
H308 H 0.90503 0.9257 0.60604 0.0
H309 H 0.98045 0.87803 0.60798 0.0
H310 H 0.00587 0.91236 0.58094 0.0
H311 H 0.94283 0.86636 0.66462 0.0
H312 H 0.94112 0.87682 0.53404 0.0
H313 H 0.9346 0.90151 0.47687 0.0
H314 H 0.8468 0.9184 0.49234 0.0
H315 H 0.85298 0.89405 0.54993 0.0
C316 C 0.86999 0.7622 0.61404 0.0
C317 C 0.83951 0.76298 0.608 0.0
C318 C 0.88613 0.78467 0.61715 0.0
C319 C 0.87205 0.80826 0.61409 0.0
C320 C 0.84164 0.80905 0.60815 0.0
C321 C 0.82552 0.78665 0.60534 0.0
C322 C 0.88897 0.83213 0.6147 0.0
C323 C 0.88475 0.8477 0.58372 0.0
C324 C 0.91003 0.83894 0.6444 0.0
C325 C 0.91443 0.82378 0.6785 0.0
C326 C 0.89093 0.81826 0.69747 0.0
C327 C 0.89517 0.80387 0.7295 0.0
C328 C 0.92286 0.79505 0.74299 0.0
C329 C 0.94638 0.80063 0.72451 0.0
C330 C 0.94225 0.81499 0.69243 0.0
C331 C 0.9423 0.94286 0.58772 0.0
C332 C 0.9702 0.93884 0.5785 0.0
C333 C 0.92761 0.92313 0.60265 0.0
C334 C 0.94074 0.89923 0.60843 0.0
C335 C 0.97 0.89635 0.60384 0.0
C336 C 0.98458 0.91601 0.58859 0.0
C337 C 0.92253 0.87641 0.6108 0.0
C338 C 0.92674 0.86098 0.64196 0.0
C339 C 0.90151 0.86948 0.58119 0.0
C340 C 0.89763 0.88394 0.54648 0.0
C341 C 0.92052 0.886 0.5254 0.0
C342 C 0.91687 0.89988 0.4929 0.0
C343 C 0.89034 0.91161 0.48106 0.0
C344 C 0.86737 0.90937 0.50161 0.0
C345 C 0.87092 0.89552 0.53417 0.0
H346 H 0.88756 0.92236 0.45589 0.0
H347 H 0.9261 0.78393 0.76781 0.0
H348 H 0.6646 0.2578 0.04166 0.0
H349 H 0.63607 0.29658 0.03973 0.0
H350 H 0.6324 0.29945 0.92273 0.0
H351 H 0.66076 0.26022 0.92432 0.0
H352 H 0.64539 0.34576 0.95423 0.0
H353 H 0.57268 0.28288 0.95807 0.0
H354 H 0.55024 0.2444 0.97978 0.0
H355 H 0.55077 0.27792 0.08549 0.0
H356 H 0.57362 0.31647 0.06461 0.0
H357 H 0.52977 0.44375 0.97692 0.0
H358 H 0.55486 0.40801 0.95134 0.0
H359 H 0.59671 0.38919 0.05913 0.0
H360 H 0.57257 0.42442 0.08441 0.0
H361 H 0.5573 0.3504 0.01592 0.0
H362 H 0.63523 0.4118 0.01188 0.0
H363 H 0.65855 0.44937 0.98905 0.0
H364 H 0.64905 0.41732 0.88155 0.0
H365 H 0.6242 0.38022 0.90329 0.0
C366 C 0.65737 0.26638 0.0154 0.0
C367 C 0.66479 0.25572 0.98311 0.0
C368 C 0.64112 0.28864 0.01436 0.0
C369 C 0.63177 0.30074 0.98103 0.0
C370 C 0.63935 0.29038 0.94872 0.0
C371 C 0.65562 0.26801 0.94972 0.0
C372 C 0.61457 0.32445 0.98053 0.0
C373 C 0.62573 0.34673 0.96694 0.0
C374 C 0.58892 0.32567 0.99708 0.0
C375 C 0.575 0.30255 0.00978 0.0
C376 C 0.56818 0.282 0.98602 0.0
C377 C 0.55536 0.26017 0.99818 0.0
C378 C 0.54911 0.25871 0.034 0.0
C379 C 0.55562 0.27909 0.05774 0.0
C380 C 0.56846 0.30095 0.04573 0.0
C381 C 0.54498 0.43237 0.99483 0.0
C382 C 0.54889 0.43661 0.0327 0.0
C383 C 0.55917 0.41198 0.98027 0.0
C384 C 0.57738 0.39592 0.00352 0.0
C385 C 0.58262 0.40128 0.04082 0.0
C386 C 0.56872 0.42143 0.05519 0.0
C387 C 0.58875 0.3718 0.9909 0.0
C388 C 0.57645 0.34934 0.00216 0.0
C389 C 0.61326 0.37052 0.97217 0.0
C390 C 0.62709 0.39348 0.95905 0.0
C391 C 0.63728 0.41307 0.98315 0.0
C392 C 0.65087 0.4343 0.97041 0.0
C393 C 0.65494 0.43593 0.93375 0.0
C394 C 0.64547 0.4163 0.9098 0.0
C395 C 0.6315 0.39522 0.92228 0.0
H396 H 0.66564 0.4523 0.92397 0.0
H397 H 0.53918 0.24179 0.04336 0.0
H398 H 0.18981 0.9074 0.24956 0.0
H399 H 0.16408 0.92386 0.29746 0.0
H400 H 0.21386 0.99293 0.30038 0.0
H401 H 0.24065 0.97614 0.25269 0.0
H402 H 0.20568 0.97453 0.3709 0.0
H403 H 0.14831 0.99587 0.25887 0.0
H404 H 0.124 0.98871 0.19632 0.0
H405 H 0.07058 0.93121 0.23551 0.0
H406 H 0.09487 0.93774 0.29825 0.0
H407 H 0.09066 0.01931 0.47532 0.0
H408 H 0.12757 0.01729 0.43353 0.0
H409 H 0.09854 0.94211 0.40093 0.0
H410 H 0.06206 0.94391 0.44204 0.0
H411 H 0.09834 0.97558 0.34298 0.0
H412 H 0.16171 0.95056 0.4534 0.0
H413 H 0.18649 0.95777 0.51575 0.0
H414 H 0.22814 0.02385 0.47911 0.0
H415 H 0.20329 0.0172 0.4166 0.0
C416 C 0.19575 0.92592 0.26071 0.0
C417 C 0.21737 0.94042 0.24731 0.0
C418 C 0.18081 0.9354 0.28792 0.0
C419 C 0.18684 0.95972 0.30217 0.0
C420 C 0.20885 0.97414 0.28963 0.0
C421 C 0.22392 0.96462 0.26221 0.0
C422 C 0.16905 0.96993 0.32913 0.0
C423 C 0.18224 0.97535 0.36468 0.0
C424 C 0.13849 0.97106 0.32093 0.0
C425 C 0.12351 0.96725 0.28328 0.0
C426 C 0.13149 0.9816 0.25414 0.0
C427 C 0.1177 0.97766 0.21864 0.0
C428 C 0.09578 0.95951 0.21194 0.0
C429 C 0.08756 0.94528 0.24075 0.0
C430 C 0.1013 0.94913 0.27629 0.0
C431 C 0.0926 0.0022 0.45973 0.0
C432 C 0.07322 0.98189 0.46164 0.0
C433 C 0.11362 0.0011 0.43587 0.0
C434 C 0.11551 0.97964 0.41389 0.0
C435 C 0.09721 0.95894 0.41735 0.0
C436 C 0.07636 0.96002 0.44093 0.0
C437 C 0.13482 0.97885 0.38518 0.0
C438 C 0.12182 0.97537 0.34909 0.0
C439 C 0.16542 0.97968 0.39296 0.0
C440 C 0.18035 0.98358 0.43047 0.0
C441 C 0.17593 0.96677 0.45872 0.0
C442 C 0.19004 0.97071 0.49407 0.0
C443 C 0.2088 0.99131 0.50142 0.0
C444 C 0.21356 0.00794 0.4734 0.0
C445 C 0.19948 0.00409 0.43802 0.0
H446 H 0.2197 0.99433 0.5288 0.0
H447 H 0.08514 0.95647 0.18444 0.0
H448 H 0.65488 0.6283 0.73412 0.0
H449 H 0.63435 0.61307 0.78737 0.0
H450 H 0.69872 0.55385 0.80284 0.0
H451 H 0.71955 0.56912 0.74923 0.0
H452 H 0.64384 0.5368 0.81173 0.0
H453 H 0.7066 0.60446 0.85807 0.0
H454 H 0.72725 0.64751 0.85805 0.0
H455 H 0.64367 0.67946 0.86712 0.0
H456 H 0.62242 0.63664 0.86668 0.0
H457 H 0.57531 0.51497 0.97419 0.0
H458 H 0.615 0.52153 0.9372 0.0
H459 H 0.57465 0.59107 0.89502 0.0
H460 H 0.53609 0.58513 0.93179 0.0
H461 H 0.63054 0.5978 0.90989 0.0
H462 H 0.56617 0.53234 0.85211 0.0
H463 H 0.5432 0.49016 0.84727 0.0
H464 H 0.62696 0.45507 0.85438 0.0
H465 H 0.65052 0.49693 0.86101 0.0
C466 C 0.66484 0.61215 0.74896 0.0
C467 C 0.68907 0.60012 0.73773 0.0
C468 C 0.65306 0.60344 0.77939 0.0
C469 C 0.66538 0.58264 0.79952 0.0
C470 C 0.68902 0.57004 0.78782 0.0
C471 C 0.70082 0.57873 0.75717 0.0
C472 C 0.6532 0.57435 0.83267 0.0
C473 C 0.64148 0.5499 0.8337 0.0
C474 C 0.65006 0.5915 0.86119 0.0
C475 C 0.66292 0.6173 0.86228 0.0
C476 C 0.69261 0.62067 0.85994 0.0
C477 C 0.70441 0.64504 0.86 0.0
C478 C 0.68678 0.6662 0.86257 0.0
C479 C 0.65731 0.66305 0.86518 0.0
C480 C 0.64539 0.63873 0.8651 0.0
C481 C 0.57523 0.53178 0.95735 0.0
C482 C 0.55237 0.5494 0.9558 0.0
C483 C 0.59781 0.53546 0.93614 0.0
C484 C 0.59772 0.55675 0.91312 0.0
C485 C 0.57537 0.57457 0.9126 0.0
C486 C 0.55311 0.571 0.9336 0.0
C487 C 0.61972 0.56068 0.88801 0.0
C488 C 0.63355 0.58437 0.88855 0.0
C489 C 0.62439 0.54293 0.86071 0.0
C490 C 0.61014 0.51776 0.85783 0.0
C491 C 0.57973 0.5156 0.85339 0.0
C492 C 0.5666 0.49173 0.85039 0.0
C493 C 0.58363 0.4699 0.85103 0.0
C494 C 0.61382 0.47192 0.85457 0.0
C495 C 0.62708 0.49571 0.85809 0.0
H496 H 0.57345 0.45143 0.84847 0.0
H497 H 0.69596 0.68505 0.86256 0.0
H498 H 0.79152 0.0911 0.19682 0.0
H499 H 0.81672 0.08139 0.25755 0.0
H500 H 0.89057 0.12494 0.23435 0.0
H501 H 0.8654 0.13502 0.17376 0.0
H502 H 0.9071 0.07993 0.26356 0.0
H503 H 0.84652 0.14761 0.29241 0.0
H504 H 0.80095 0.17138 0.2927 0.0
H505 H 0.76539 0.10991 0.34863 0.0
H506 H 0.81061 0.08559 0.34819 0.0
H507 H 0.97826 0.06694 0.44507 0.0
H508 H 0.95239 0.09037 0.39312 0.0
H509 H 0.87867 0.0408 0.3932 0.0
H510 H 0.90459 0.01703 0.44429 0.0
H511 H 0.86442 0.09388 0.37783 0.0
H512 H 0.9221 0.02461 0.34073 0.0
H513 H 0.96741 1.00043 0.34051 0.0
H514 H 0.00818 0.06563 0.29988 0.0
H515 H 0.96317 0.09033 0.30044 0.0
C516 C 0.81295 0.09893 0.2048 0.0
C517 C 0.82643 0.11382 0.18034 0.0
C518 C 0.82735 0.09335 0.23954 0.0
C519 C 0.85545 0.10264 0.25063 0.0
C520 C 0.86892 0.11756 0.22636 0.0
C521 C 0.85454 0.12318 0.19166 0.0
C522 C 0.87119 0.09592 0.28699 0.0
C523 C 0.89801 0.0835 0.28858 0.0
C524 C 0.85915 0.10015 0.31963 0.0
C525 C 0.83189 0.11469 0.31998 0.0
C526 C 0.8289 0.13907 0.3045 0.0
C527 C 0.80314 0.15265 0.30474 0.0
C528 C 0.78027 0.14214 0.3206 0.0
C529 C 0.78312 0.11802 0.33632 0.0
C530 C 0.80882 0.10433 0.33612 0.0
C531 C 0.95623 0.06156 0.43463 0.0
C532 C 0.94341 0.04015 0.44847 0.0
C533 C 0.94155 0.07485 0.40493 0.0
C534 C 0.91372 0.06715 0.38927 0.0
C535 C 0.90009 0.04704 0.40497 0.0
C536 C 0.91493 0.03346 0.43405 0.0
C537 C 0.90007 0.0779 0.35413 0.0
C538 C 0.87364 0.09086 0.35278 0.0
C539 C 0.91242 0.07421 0.32166 0.0
C540 C 0.93944 0.05941 0.32114 0.0
C541 C 0.94082 0.03386 0.33212 0.0
C542 C 0.96642 0.02005 0.33186 0.0
C543 C 0.9907 0.03152 0.32033 0.0
C544 C 0.98939 0.0568 0.30891 0.0
C545 C 0.96384 0.07071 0.3092 0.0
H546 H 0.0105 0.02079 0.32013 0.0
H547 H 0.76035 0.15269 0.32078 0.0
H548 H 0.2804 0.44867 0.68119 0.0
H549 H 0.30652 0.4591 0.74129 0.0
H550 H 0.35797 0.39132 0.73902 0.0
H551 H 0.33204 0.38089 0.67858 0.0
H552 H 0.33648 0.40274 0.80941 0.0
H553 H 0.38984 0.4392 0.72005 0.0
H554 H 0.39624 0.46375 0.66496 0.0
H555 H 0.36413 0.53046 0.71231 0.0
H556 H 0.35705 0.50618 0.76748 0.0
H557 H 0.45082 0.45777 0.94684 0.0
H558 H 0.4247 0.43404 0.89524 0.0
H559 H 0.36215 0.49447 0.87638 0.0
H560 H 0.38743 0.51787 0.92754 0.0
H561 H 0.39441 0.48197 0.81639 0.0
H562 H 0.33796 0.44524 0.90353 0.0
H563 H 0.33069 0.42104 0.95861 0.0
H564 H 0.36871 0.35529 0.91601 0.0
H565 H 0.37664 0.37926 0.86086 0.0
C566 C 0.29701 0.43584 0.69373 0.0
C567 C 0.30432 0.41405 0.67525 0.0
C568 C 0.31193 0.44182 0.72794 0.0
C569 C 0.33417 0.42598 0.74442 0.0
C570 C 0.34081 0.40371 0.7267 0.0
C571 C 0.32617 0.3979 0.69218 0.0
C572 C 0.3516 0.43375 0.77903 0.0
C573 C 0.34959 0.4198 0.81095 0.0
C574 C 0.36845 0.45611 0.78089 0.0
C575 C 0.37263 0.4708 0.74775 0.0
C576 C 0.38385 0.45904 0.71857 0.0
C577 C 0.38767 0.47292 0.68736 0.0
C578 C 0.38053 0.49863 0.68509 0.0
C579 C 0.36961 0.51053 0.71408 0.0
C580 C 0.3657 0.49672 0.74534 0.0
C581 C 0.43105 0.4656 0.93229 0.0
C582 C 0.42146 0.48986 0.94088 0.0
C583 C 0.41623 0.45209 0.90284 0.0
C584 C 0.39174 0.46273 0.88189 0.0
C585 C 0.38113 0.48608 0.89207 0.0
C586 C 0.39569 0.49942 0.92134 0.0
C587 C 0.37877 0.45135 0.847 0.0
C588 C 0.38168 0.46467 0.81488 0.0
C589 C 0.36281 0.4285 0.84511 0.0
C590 C 0.35832 0.41415 0.87834 0.0
C591 C 0.34514 0.42572 0.90611 0.0
C592 C 0.3408 0.41202 0.93729 0.0
C593 C 0.34935 0.38667 0.94088 0.0
C594 C 0.36218 0.37495 0.91324 0.0
C595 C 0.3666 0.38858 0.88202 0.0
H596 H 0.34593 0.37609 0.96502 0.0
H597 H 0.38352 0.50936 0.66092 0.0
H598 H 0.66592 0.64868 0.39027 0.0
H599 H 0.64023 0.63597 0.3316 0.0
H600 H 0.67416 0.56016 0.34837 0.0
H601 H 0.70231 0.57334 0.40542 0.0
H602 H 0.67312 0.57028 0.28175 0.0
H603 H 0.60233 0.57932 0.36373 0.0
H604 H 0.57548 0.60097 0.4078 0.0
H605 H 0.54683 0.65773 0.32771 0.0
H606 H 0.57383 0.63657 0.28329 0.0
H607 H 0.55993 0.50002 0.18019 0.0
H608 H 0.5912 0.52096 0.2294 0.0
H609 H 0.57546 0.59289 0.17496 0.0
H610 H 0.54435 0.57184 0.1247 0.0
H611 H 0.5678 0.58876 0.25539 0.0
H612 H 0.63657 0.57297 0.17134 0.0
H613 H 0.66076 0.54622 0.12996 0.0
H614 H 0.69021 0.49592 0.21857 0.0
H615 H 0.66582 0.52217 0.26039 0.0
C616 C 0.66861 0.62944 0.38127 0.0
C617 C 0.68625 0.61206 0.40311 0.0
C618 C 0.65337 0.62205 0.3478 0.0
C619 C 0.65456 0.5969 0.33579 0.0
C620 C 0.67263 0.57965 0.35703 0.0
C621 C 0.68845 0.58717 0.39008 0.0
C622 C 0.6367 0.58839 0.30147 0.0
C623 C 0.65007 0.57424 0.27624 0.0
C624 C 0.60661 0.59378 0.29371 0.0
C625 C 0.59037 0.60654 0.32035 0.0
C626 C 0.59048 0.59652 0.35562 0.0
C627 C 0.57521 0.60869 0.38064 0.0
C628 C 0.55954 0.63075 0.3706 0.0
C629 C 0.55903 0.64066 0.33547 0.0
C630 C 0.5743 0.62859 0.31036 0.0
C631 C 0.56312 0.5203 0.17853 0.0
C632 C 0.54968 0.53431 0.14856 0.0
C633 C 0.58108 0.53219 0.20664 0.0
C634 C 0.58569 0.55838 0.20565 0.0
C635 C 0.57217 0.5726 0.17602 0.0
C636 C 0.55453 0.56058 0.14738 0.0
C637 C 0.60426 0.57063 0.2363 0.0
C638 C 0.59097 0.58529 0.26085 0.0
C639 C 0.63419 0.5651 0.24395 0.0
C640 C 0.64919 0.54946 0.21894 0.0
C641 C 0.64802 0.5561 0.18195 0.0
C642 C 0.6618 0.54105 0.15842 0.0
C643 C 0.67697 0.51936 0.17161 0.0
C644 C 0.67845 0.51272 0.20839 0.0
C645 C 0.66468 0.5277 0.23202 0.0
H646 H 0.68762 0.50772 0.15335 0.0
H647 H 0.54772 0.64014 0.39001 0.0
H648 H 0.77556 0.07488 0.81571 0.0
H649 H 0.79716 0.06361 0.76098 0.0
H650 H 0.87397 0.10618 0.80143 0.0
H651 H 0.85212 0.11854 0.8547 0.0
H652 H 0.85914 0.11558 0.73196 0.0
H653 H 0.86782 0.03895 0.80813 0.0
H654 H 0.84757 0.00333 0.83989 0.0
H655 H 0.79896 0.97898 0.73901 0.0
H656 H 0.81871 0.01464 0.70676 0.0
H657 H 0.98345 0.07182 0.67417 0.0
H658 H 0.94312 0.0799 0.70765 0.0
H659 H 0.88687 0.03499 0.63065 0.0
H660 H 0.92785 0.02627 0.5967 0.0
H661 H 0.87867 0.02597 0.70314 0.0
H662 H 0.88001 0.09775 0.62561 0.0
H663 H 0.90253 0.13255 0.59483 0.0
H664 H 0.93297 0.16618 0.6985 0.0
H665 H 0.91103 0.1314 0.72995 0.0
C666 C 0.79693 0.08205 0.8127 0.0
C667 C 0.81221 0.09742 0.83988 0.0
C668 C 0.80934 0.07539 0.78155 0.0
C669 C 0.83733 0.08382 0.77722 0.0
C670 C 0.85236 0.09939 0.8041 0.0
C671 C 0.83995 0.10619 0.83489 0.0
C672 C 0.85167 0.07659 0.74519 0.0
C673 C 0.86336 0.09598 0.72564 0.0
C674 C 0.85613 0.05102 0.73574 0.0
C675 C 0.84444 0.02959 0.75516 0.0
C676 C 0.85266 0.02608 0.7928 0.0
C677 C 0.8413 0.00588 0.81087 0.0
C678 C 0.82191 0.98895 0.7915 0.0
C679 C 0.81392 0.99214 0.75399 0.0
C680 C 0.82519 0.01233 0.73581 0.0
C681 C 0.96257 0.06361 0.66407 0.0
C682 C 0.95884 0.04862 0.6324 0.0
C683 C 0.93945 0.06834 0.68329 0.0
C684 C 0.91183 0.05855 0.6712 0.0
C685 C 0.90799 0.04293 0.64021 0.0
C686 C 0.93137 0.03801 0.62086 0.0
C687 C 0.8875 0.06501 0.69163 0.0
C688 C 0.87379 0.04556 0.70876 0.0
C689 C 0.88118 0.09056 0.69899 0.0
C690 C 0.89386 0.1119 0.68014 0.0
C691 C 0.89158 0.11252 0.64186 0.0
C692 C 0.90426 0.13225 0.62429 0.0
C693 C 0.91917 0.15156 0.64469 0.0
C694 C 0.92137 0.15122 0.68272 0.0
C695 C 0.90875 0.13153 0.70043 0.0
H696 H 0.92902 0.16679 0.63104 0.0
H697 H 0.81314 0.97333 0.80554 0.0
H698 H 0.26652 0.47322 0.33 0.0
H699 H 0.28893 0.48932 0.27811 0.0
H700 H 0.34592 0.42446 0.28563 0.0
H701 H 0.32408 0.4087 0.33765 0.0
H702 H 0.37593 0.46517 0.27857 0.0
H703 H 0.28512 0.43135 0.21851 0.0
H704 H 0.23184 0.42779 0.20595 0.0
H705 H 0.22577 0.50631 0.17526 0.0
H706 H 0.27903 0.5104 0.18809 0.0
H707 H 0.4157 0.44384 0.10658 0.0
H708 H 0.38121 0.44272 0.15058 0.0
H709 H 0.38219 0.52426 0.15614 0.0
H710 H 0.41736 0.52568 0.11218 0.0
H711 H 0.32162 0.48432 0.15677 0.0
H712 H 0.41534 0.5166 0.21906 0.0
H713 H 0.46888 0.51614 0.2275 0.0
H714 H 0.46854 0.43647 0.25124 0.0
H715 H 0.41497 0.43643 0.24231 0.0
C716 C 0.2837 0.46237 0.32031 0.0
C717 C 0.29371 0.4398 0.33797 0.0
C718 C 0.29646 0.47156 0.29067 0.0
C719 C 0.3191 0.45808 0.27785 0.0
C720 C 0.32869 0.43533 0.29518 0.0
C721 C 0.31621 0.42633 0.32492 0.0
C722 C 0.33351 0.46761 0.24698 0.0
C723 C 0.3639 0.46951 0.25209 0.0
C724 C 0.31796 0.47373 0.21242 0.0
C725 C 0.286 0.47125 0.20469 0.0
C726 C 0.2724 0.4479 0.20938 0.0
C727 C 0.24221 0.44578 0.20215 0.0
C728 C 0.22543 0.46683 0.18993 0.0
C729 C 0.2388 0.49003 0.18481 0.0
C730 C 0.26897 0.49226 0.19203 0.0
C731 C 0.40818 0.46163 0.11645 0.0
C732 C 0.41963 0.48484 0.10629 0.0
C733 C 0.38833 0.46092 0.14147 0.0
C734 C 0.37935 0.48337 0.15661 0.0
C735 C 0.38888 0.50675 0.14454 0.0
C736 C 0.40898 0.5075 0.11951 0.0
C737 C 0.3637 0.48161 0.1887 0.0
C738 C 0.33331 0.48084 0.18371 0.0
C739 C 0.37911 0.47637 0.22342 0.0
C740 C 0.41124 0.47648 0.22973 0.0
C741 C 0.42672 0.49897 0.22583 0.0
C742 C 0.45705 0.4988 0.23073 0.0
C743 C 0.4721 0.47627 0.23982 0.0
C744 C 0.45685 0.45389 0.24416 0.0
C745 C 0.42652 0.45396 0.23921 0.0
H746 H 0.49558 0.47617 0.24357 0.0
H747 H 0.20206 0.46515 0.18435 0.0
H748 H 0.2299 0.94761 0.9045 0.0
H749 H 0.20391 0.95877 0.84483 0.0
H750 H 0.14243 0.89872 0.8543 0.0
H751 H 0.16842 0.88739 0.91417 0.0
H752 H 0.15682 0.90063 0.78605 0.0
H753 H 0.12418 0.95925 0.86933 0.0
H754 H 0.12836 0.99094 0.91861 0.0
H755 H 0.17354 0.04123 0.85433 0.0
H756 H 0.17001 0.00968 0.80485 0.0
H757 H 0.05269 0.96029 0.64423 0.0
H758 H 0.07752 0.93821 0.69823 0.0
H759 H 0.14995 0.98948 0.70046 0.0
H760 H 0.1255 0.01144 0.64708 0.0
H761 H 0.12495 0.98964 0.76408 0.0
H762 H 0.15828 0.92891 0.68122 0.0
H763 H 0.15189 0.89698 0.63225 0.0
H764 H 0.10191 0.85062 0.69616 0.0
H765 H 0.10767 0.88246 0.74534 0.0
C766 C 0.21076 0.93686 0.89401 0.0
C767 C 0.2011 0.91674 0.91423 0.0
C768 C 0.19595 0.94321 0.85984 0.0
C769 C 0.17098 0.9298 0.8453 0.0
C770 C 0.16164 0.90932 0.86498 0.0
C771 C 0.17654 0.90287 0.89917 0.0
C772 C 0.15439 0.93766 0.80993 0.0
C773 C 0.14947 0.92001 0.78137 0.0
C774 C 0.14483 0.96294 0.80376 0.0
C775 C 0.14705 0.98199 0.8335 0.0
C776 C 0.13522 0.97698 0.86582 0.0
C777 C 0.13744 0.99494 0.89377 0.0
C778 C 0.15126 0.01806 0.88964 0.0
C779 C 0.16286 0.0233 0.85751 0.0
C780 C 0.16074 0.00539 0.82949 0.0
C781 C 0.0743 0.96627 0.65559 0.0
C782 C 0.08702 0.98777 0.64176 0.0
C783 C 0.0884 0.95373 0.68648 0.0
C784 C 0.1154 0.96246 0.70357 0.0
C785 C 0.129 0.98262 0.68792 0.0
C786 C 0.11501 0.9951 0.65734 0.0
C787 C 0.12826 0.95287 0.73987 0.0
C788 C 0.13221 0.97023 0.76878 0.0
C789 C 0.13657 0.92733 0.74631 0.0
C790 C 0.13311 0.90821 0.71677 0.0
C791 C 0.14568 0.91202 0.68469 0.0
C792 C 0.14223 0.89391 0.65693 0.0
C793 C 0.12642 0.87182 0.66104 0.0
C794 C 0.1141 0.86776 0.69298 0.0
C795 C 0.11747 0.88582 0.72081 0.0
H796 H 0.12379 0.85782 0.63952 0.0
H797 H 0.15294 0.03195 0.91131 0.0
loop_
_geom_bond_atom_site_label_1
_geom_bond_atom_site_label_2
_geom_bond_distance
_geom_bond_site_symmetry_2
_ccdc_geom_bond_type
C0 C1 1.386 . S
C0 C2 1.397 . S
C0 H24 0.931 . S
C1 C0 1.386 . S
C1 C5 1.397 . S
C2 C0 1.397 . S
C2 C3 1.384 1_556 S
C2 H25 0.930 . S
C3 C2 1.384 1_554 S
C3 C4 1.377 . S
C3 C6 1.481 . S
C4 C3 1.377 . S
C4 C5 1.389 1_554 S
C4 H26 0.929 . S
C5 C1 1.397 . S
C5 C4 1.389 1_556 S
C5 H27 0.931 . S
C6 C3 1.481 . S
C6 C7 1.387 . S
C6 C11 1.390 . S
C7 C6 1.387 . S
C7 C8 1.401 . S
C7 H28 0.930 . S
C8 C7 1.401 . S
C8 C9 1.376 . S
C8 C17 1.511 . S
C9 C8 1.376 . S
C9 C10 1.392 . S
C9 H30 0.931 . S
C10 C9 1.392 . S
C10 C11 1.361 . S
C10 C12 1.500 . S
C11 C6 1.390 . S
C11 C10 1.361 . S
C11 H29 0.931 . S
C12 C10 1.500 . S
C12 C13 1.371 . S
C12 C14 1.365 . S
C13 C12 1.371 . S
C13 C23 1.386 . S
C13 H31 0.931 . S
C14 C12 1.365 . S
C14 C15 1.409 . S
C14 H32 0.929 . S
C15 C14 1.409 . S
C15 C16 1.380 . S
C15 H33 0.930 . S
C16 C15 1.380 . S
C16 C23 1.357 . S
C17 C8 1.511 . S
C17 C18 1.341 . S
C17 C19 1.371 . S
C18 C17 1.341 . S
C18 C22 1.394 . S
C18 H34 0.930 . S
C19 C17 1.371 . S
C19 C20 1.392 . S
C19 H35 0.931 . S
C20 C19 1.392 . S
C20 C21 1.331 . S
C20 H38 0.932 . S
C21 C20 1.331 . S
C21 C22 1.336 . S
C22 C18 1.394 . S
C22 C21 1.336 . S
C22 H37 0.929 . S
C23 C13 1.386 . S
C23 C16 1.357 . S
C23 H36 0.928 . S
H24 C0 0.931 . S
H25 C2 0.930 . S
H26 C4 0.929 . S
H27 C5 0.931 . S
H28 C7 0.930 . S
H29 C11 0.931 . S
H30 C9 0.931 . S
H31 C13 0.931 . S
H32 C14 0.929 . S
H33 C15 0.930 . S
H34 C18 0.930 . S
H35 C19 0.931 . S
H36 C23 0.928 . S
H37 C22 0.929 . S
H38 C20 0.932 . S
C39 C40 1.386 . S
C39 C41 1.397 . S
C39 H63 0.931 . S
C40 C39 1.386 . S
C40 C44 1.397 . S
C41 C39 1.397 . S
C41 C42 1.384 . S
C41 H64 0.930 . S
C42 C41 1.384 . S
C42 C43 1.377 . S
C42 C45 1.481 . S
C43 C42 1.377 . S
C43 C44 1.389 . S
C43 H65 0.929 . S
C44 C40 1.397 . S
C44 C43 1.389 . S
C44 H66 0.931 . S
C45 C42 1.481 . S
C45 C46 1.387 . S
C45 C50 1.390 . S
C46 C45 1.387 . S
C46 C47 1.401 . S
C46 H67 0.930 . S
C47 C46 1.401 . S
C47 C48 1.376 . S
C47 C56 1.511 . S
C48 C47 1.376 . S
C48 C49 1.392 . S
C48 H69 0.931 . S
C49 C48 1.392 . S
C49 C50 1.361 . S
C49 C51 1.500 . S
C50 C45 1.390 . S
C50 C49 1.361 . S
C50 H68 0.931 . S
C51 C49 1.500 . S
C51 C52 1.371 . S
C51 C53 1.365 . S
C52 C51 1.371 . S
C52 C62 1.386 . S
C52 H70 0.931 . S
C53 C51 1.365 . S
C53 C54 1.409 . S
C53 H71 0.929 . S
C54 C53 1.409 . S
C54 C55 1.380 . S
C54 H72 0.930 . S
C55 C54 1.380 . S
C55 C62 1.357 . S
C56 C47 1.511 . S
C56 C57 1.341 . S
C56 C58 1.371 . S
C57 C56 1.341 . S
C57 C61 1.394 . S
C57 H73 0.930 . S
C58 C56 1.371 . S
C58 C59 1.392 . S
C58 H74 0.931 . S
C59 C58 1.392 . S
C59 C60 1.331 . S
C59 H77 0.932 . S
C60 C59 1.331 . S
C60 C61 1.336 . S
C61 C57 1.394 . S
C61 C60 1.336 . S
C61 H76 0.929 . S
C62 C52 1.386 . S
C62 C55 1.357 . S
C62 H75 0.928 . S
H63 C39 0.931 . S
H64 C41 0.930 . S
H65 C43 0.929 . S
H66 C44 0.931 . S
H67 C46 0.930 . S
H68 C50 0.931 . S
H69 C48 0.931 . S
H70 C52 0.931 . S
H71 C53 0.929 . S
H72 C54 0.930 . S
H73 C57 0.930 . S
H74 C58 0.931 . S
H75 C62 0.928 . S
H76 C61 0.929 . S
H77 C59 0.932 . S
C78 C79 1.386 . S
C78 C80 1.397 . S
C78 H102 0.931 . S
C79 C78 1.386 . S
C79 C83 1.397 . S
C80 C78 1.397 . S
C80 C81 1.384 . S
C80 H103 0.930 . S
C81 C80 1.384 . S
C81 C82 1.377 . S
C81 C84 1.481 . S
C82 C81 1.377 . S
C82 C83 1.389 . S
C82 H104 0.929 . S
C83 C79 1.397 . S
C83 C82 1.389 . S
C83 H105 0.931 . S
C84 C81 1.481 . S
C84 C85 1.387 . S
C84 C89 1.390 . S
C85 C84 1.387 . S
C85 C86 1.391 1_554 S
C85 H106 0.930 . S
C86 C85 1.391 1_556 S
C86 C87 1.387 . S
C86 C95 1.510 . S
C87 C86 1.387 . S
C87 C88 1.392 . S
C87 H108 0.931 . S
C88 C87 1.392 . S
C88 C89 1.361 1_556 S
C88 C90 1.500 . S
C89 C84 1.390 . S
C89 C88 1.361 1_554 S
C89 H107 0.931 . S
C90 C88 1.500 . S
C90 C91 1.371 . S
C90 C92 1.365 . S
C91 C90 1.371 . S
C91 C101 1.386 . S
C91 H109 0.931 . S
C92 C90 1.365 . S
C92 C93 1.409 . S
C92 H110 0.929 . S
C93 C92 1.409 . S
C93 C94 1.380 . S
C93 H111 0.930 . S
C94 C93 1.380 . S
C94 C101 1.357 . S
C95 C86 1.510 . S
C95 C96 1.341 1_556 S
C95 C97 1.371 . S
C96 C95 1.341 1_554 S
C96 C100 1.394 . S
C96 H112 0.930 . S
C97 C95 1.371 . S
C97 C98 1.392 . S
C97 H113 0.931 . S
C98 C97 1.392 . S
C98 C99 1.331 . S
C98 H116 0.932 . S
C99 C98 1.331 . S
C99 C100 1.336 1_556 S
C100 C96 1.394 . S
C100 C99 1.336 1_554 S
C100 H115 0.929 . S
C101 C91 1.386 . S
C101 C94 1.357 . S
C101 H114 0.928 . S
H102 C78 0.931 . S
H103 C80 0.930 . S
H104 C82 0.929 . S
H105 C83 0.931 . S
H106 C85 0.930 . S
H107 C89 0.931 . S
H108 C87 0.931 . S
H109 C91 0.931 . S
H110 C92 0.929 . S
H111 C93 0.930 . S
H112 C96 0.930 . S
H113 C97 0.931 . S
H114 C101 0.928 . S
H115 C100 0.929 . S
H116 C98 0.932 . S
C117 C118 1.386 . S
C117 C119 1.397 . S
C117 H141 0.931 . S
C118 C117 1.386 . S
C118 C122 1.397 . S
C119 C117 1.397 . S
C119 C120 1.384 . S
C119 H142 0.930 . S
C120 C119 1.384 . S
C120 C121 1.377 . S
C120 C123 1.481 . S
C121 C120 1.377 . S
C121 C122 1.389 . S
C121 H143 0.929 . S
C122 C118 1.397 . S
C122 C121 1.389 . S
C122 H144 0.931 . S
C123 C120 1.481 . S
C123 C124 1.387 . S
C123 C128 1.390 . S
C124 C123 1.387 . S
C124 C125 1.401 . S
C124 H145 0.930 . S
C125 C124 1.401 . S
C125 C126 1.376 . S
C125 C134 1.511 . S
C126 C125 1.376 . S
C126 C127 1.392 . S
C126 H147 0.931 . S
C127 C126 1.392 . S
C127 C128 1.361 . S
C127 C129 1.500 . S
C128 C123 1.390 . S
C128 C127 1.361 . S
C128 H146 0.931 . S
C129 C127 1.500 . S
C129 C130 1.371 . S
C129 C131 1.365 . S
C130 C129 1.371 . S
C130 C140 1.386 . S
C130 H148 0.931 . S
C131 C129 1.365 . S
C131 C132 1.409 . S
C131 H149 0.929 . S
C132 C131 1.409 . S
C132 C133 1.380 . S
C132 H150 0.930 . S
C133 C132 1.380 . S
C133 C140 1.357 . S
C134 C125 1.511 . S
C134 C135 1.341 . S
C134 C136 1.371 . S
C135 C134 1.341 . S
C135 C139 1.394 . S
C135 H151 0.930 . S
C136 C134 1.371 . S
C136 C137 1.392 . S
C136 H152 0.931 . S
C137 C136 1.392 . S
C137 C138 1.331 . S
C137 H155 0.932 . S
C138 C137 1.331 . S
C138 C139 1.336 . S
C139 C135 1.394 . S
C139 C138 1.336 . S
C139 H154 0.929 . S
C140 C130 1.386 . S
C140 C133 1.357 . S
C140 H153 0.928 . S
H141 C117 0.931 . S
H142 C119 0.930 . S
H143 C121 0.929 . S
H144 C122 0.931 . S
H145 C124 0.930 . S
H146 C128 0.931 . S
H147 C126 0.931 . S
H148 C130 0.931 . S
H149 C131 0.929 . S
H150 C132 0.930 . S
H151 C135 0.930 . S
H152 C136 0.931 . S
H153 C140 0.928 . S
H154 C139 0.929 . S
H155 C137 0.932 . S
O156 Mg157 1.990 1_655 S
O156 C170 1.253 . S
Mg157 O156 1.990 1_455 S
Mg157 O160 2.180 . S
Mg157 O161 2.117 . S
Mg157 O175 2.030 . S
O158 Mg159 2.072 1_655 S
O158 C170 1.260 . S
Mg159 O158 2.072 1_455 S
Mg159 O160 2.099 . S
Mg159 O162 2.067 1_545 S
Mg159 O163 2.072 1_455 S
Mg159 O165 2.099 1_445 S
Mg159 O176 2.079 1_545 S
O160 Mg157 2.180 . S
O160 Mg159 2.099 . S
O160 C171 1.279 . S
O161 Mg157 2.117 . S
O161 C171 1.250 . S
O162 Mg159 2.067 1_565 S
O162 C172 1.278 . S
O163 Mg159 2.072 1_655 S
O163 C173 1.260 . S
Mg164 O165 2.180 . S
Mg164 O166 2.030 1_655 S
Mg164 O167 1.990 1_565 S
Mg164 O168 2.117 . S
O165 Mg159 2.099 1_665 S
O165 Mg164 2.180 . S
O165 C174 1.279 . S
O166 Mg164 2.030 1_455 S
O166 C172 1.248 . S
O167 Mg164 1.990 1_545 S
O167 C173 1.253 . S
O168 Mg164 2.117 . S
O168 C174 1.250 . S
C169 O175 1.237 1_565 S
C169 O176 1.266 . S
C170 O156 1.253 . S
C170 O158 1.260 . S
C171 O160 1.279 . S
C171 O161 1.250 . S
C172 O162 1.278 . S
C172 O166 1.248 . S
C173 O163 1.260 . S
C173 O167 1.253 . S
C174 O165 1.279 . S
C174 O168 1.250 . S
O175 Mg157 2.030 . S
O175 C169 1.237 1_545 S
O176 Mg159 2.079 1_565 S
O176 C169 1.266 . S
O177 Mg178 1.990 . S
O177 C191 1.253 . S
Mg178 O177 1.990 . S
Mg178 O181 2.180 . S
Mg178 O182 2.117 . S
Mg178 O196 2.030 . S
O179 Mg180 2.072 . S
O179 C191 1.260 . S
Mg180 O179 2.072 . S
Mg180 O181 2.099 . S
Mg180 O183 2.079 1_554 S
Mg180 O184 2.072 . S
Mg180 O186 2.099 . S
Mg180 O197 2.079 . S
O181 Mg178 2.180 . S
O181 Mg180 2.099 . S
O181 C192 1.279 . S
O182 Mg178 2.117 . S
O182 C192 1.250 . S
O183 Mg180 2.079 1_556 S
O183 C193 1.264 . S
O184 Mg180 2.072 . S
O184 C194 1.260 1_554 S
Mg185 O186 2.180 1_556 S
Mg185 O187 2.030 . S
Mg185 O188 1.990 . S
Mg185 O189 2.117 1_556 S
O186 Mg180 2.099 . S
O186 Mg185 2.180 1_554 S
O186 C195 1.279 . S
O187 Mg185 2.030 . S
O187 C193 1.248 . S
O188 Mg185 1.990 . S
O188 C194 1.253 . S
O189 Mg185 2.117 1_554 S
O189 C195 1.250 . S
C190 O196 1.248 . S
C190 O197 1.264 . S
C191 O177 1.253 . S
C191 O179 1.260 . S
C192 O181 1.279 . S
C192 O182 1.250 . S
C193 O183 1.264 . S
C193 O187 1.248 . S
C194 O184 1.260 1_556 S
C194 O188 1.253 . S
C195 O186 1.279 . S
C195 O189 1.250 . S
O196 Mg178 2.030 . S
O196 C190 1.248 . S
O197 Mg180 2.079 . S
O197 C190 1.264 . S
H198 C216 0.951 . S
H199 C218 0.951 . S
H200 C220 0.950 . S
H201 C221 0.950 . S
H202 C223 0.950 . S
H203 C226 0.950 . S
H204 C227 0.950 . S
H205 C229 0.950 . S
H206 C230 0.950 . S
H207 C231 0.951 . S
H208 C233 0.951 . S
H209 C235 0.950 . S
H210 C236 0.950 . S
H211 C238 0.950 . S
H212 C241 0.950 . S
H213 C242 0.950 . S
H214 C244 0.950 . S
H215 C245 0.950 . S
C216 H198 0.951 . S
C216 C217 1.366 . S
C216 C218 1.388 . S
C217 C216 1.366 . S
C217 C221 1.385 . S
C218 H199 0.951 . S
C218 C216 1.388 . S
C218 C219 1.366 . S
C219 C218 1.366 . S
C219 C220 1.414 . S
C219 C222 1.499 . S
C220 H200 0.950 . S
C220 C219 1.414 . S
C220 C221 1.374 . S
C221 H201 0.950 . S
C221 C217 1.385 . S
C221 C220 1.374 . S
C222 C219 1.499 . S
C222 C223 1.373 . S
C222 C224 1.389 . S
C223 H202 0.950 . S
C223 C222 1.373 . S
C223 C239 1.377 . S
C224 C222 1.389 . S
C224 C225 1.524 . S
C224 C238 1.377 . S
C225 C224 1.524 . S
C225 C226 1.397 . S
C225 C230 1.363 . S
C226 H203 0.950 . S
C226 C225 1.397 . S
C226 C227 1.334 . S
C227 H204 0.950 . S
C227 C226 1.334 . S
C227 C228 1.287 . S
C228 C227 1.287 . S
C228 C229 1.524 . S
C228 H247 0.913 . S
C229 H205 0.950 . S
C229 C228 1.524 . S
C229 C230 1.415 . S
C230 H206 0.950 . S
C230 C225 1.363 . S
C230 C229 1.415 . S
C231 H207 0.951 . S
C231 C232 1.366 . S
C231 C233 1.388 . S
C232 C231 1.366 . S
C232 C236 1.385 . S
C233 H208 0.951 . S
C233 C231 1.388 . S
C233 C234 1.366 . S
C234 C233 1.366 . S
C234 C235 1.414 . S
C234 C237 1.499 . S
C235 H209 0.950 . S
C235 C234 1.414 . S
C235 C236 1.374 . S
C236 H210 0.950 . S
C236 C232 1.385 . S
C236 C235 1.374 . S
C237 C234 1.499 . S
C237 C238 1.373 . S
C237 C239 1.389 . S
C238 H211 0.950 . S
C238 C224 1.377 . S
C238 C237 1.373 . S
C239 C223 1.377 . S
C239 C237 1.389 . S
C239 C240 1.524 . S
C240 C239 1.524 . S
C240 C241 1.397 . S
C240 C245 1.363 . S
C241 H212 0.950 . S
C241 C240 1.397 . S
C241 C242 1.334 . S
C242 H213 0.950 . S
C242 C241 1.334 . S
C242 C243 1.287 . S
C243 C242 1.287 . S
C243 C244 1.524 1_455 S
C243 H246 0.999 1_455 S
C244 H214 0.950 . S
C244 C243 1.524 1_655 S
C244 C245 1.415 1_655 S
C245 H215 0.950 . S
C245 C240 1.363 . S
C245 C244 1.415 1_455 S
H246 C243 0.999 1_655 S
H247 C228 0.913 . S
H248 C266 0.951 . S
H249 C268 0.951 . S
H250 C270 0.950 . S
H251 C271 0.950 . S
H252 C273 0.950 . S
H253 C276 0.950 . S
H254 C277 0.950 . S
H255 C279 0.950 . S
H256 C280 0.950 . S
H257 C281 0.951 . S
H258 C283 0.951 . S
H259 C285 0.950 . S
H260 C286 0.950 . S
H261 C288 0.950 . S
H262 C291 0.950 . S
H263 C292 0.950 . S
H264 C294 0.950 . S
H265 C295 0.950 . S
C266 H248 0.951 . S
C266 C267 1.366 . S
C266 C268 1.388 . S
C267 C266 1.366 . S
C267 C271 1.385 . S
C268 H249 0.951 . S
C268 C266 1.388 . S
C268 C269 1.366 . S
C269 C268 1.366 . S
C269 C270 1.414 . S
C269 C272 1.499 . S
C270 H250 0.950 . S
C270 C269 1.414 . S
C270 C271 1.374 . S
C271 H251 0.950 . S
C271 C267 1.385 . S
C271 C270 1.374 . S
C272 C269 1.499 . S
C272 C273 1.373 . S
C272 C274 1.389 . S
C273 H252 0.950 . S
C273 C272 1.373 . S
C273 C289 1.377 . S
C274 C272 1.389 . S
C274 C275 1.524 . S
C274 C288 1.377 . S
C275 C274 1.524 . S
C275 C276 1.397 . S
C275 C280 1.363 . S
C276 H253 0.950 . S
C276 C275 1.397 . S
C276 C277 1.334 1_554 S
C277 H254 0.950 . S
C277 C276 1.334 1_556 S
C277 C278 1.287 . S
C278 C277 1.287 . S
C278 C279 1.524 1_556 S
C278 H297 0.913 . S
C279 H255 0.950 . S
C279 C278 1.524 1_554 S
C279 C280 1.415 . S
C280 H256 0.950 . S
C280 C275 1.363 . S
C280 C279 1.415 . S
C281 H257 0.951 . S
C281 C282 1.366 . S
C281 C283 1.388 . S
C282 C281 1.366 . S
C282 C286 1.385 . S
C283 H258 0.951 . S
C283 C281 1.388 . S
C283 C284 1.366 . S
C284 C283 1.366 . S
C284 C285 1.414 . S
C284 C287 1.499 . S
C285 H259 0.950 . S
C285 C284 1.414 . S
C285 C286 1.374 . S
C286 H260 0.950 . S
C286 C282 1.385 . S
C286 C285 1.374 . S
C287 C284 1.499 . S
C287 C288 1.373 . S
C287 C289 1.389 . S
C288 H261 0.950 . S
C288 C274 1.377 . S
C288 C287 1.373 . S
C289 C273 1.377 . S
C289 C287 1.389 . S
C289 C290 1.524 . S
C290 C289 1.524 . S
C290 C291 1.397 . S
C290 C295 1.363 . S
C291 H262 0.950 . S
C291 C290 1.397 . S
C291 C292 1.334 . S
C292 H263 0.950 . S
C292 C291 1.334 . S
C292 C293 1.287 . S
C293 C292 1.287 . S
C293 C294 1.524 . S
C293 H296 0.999 . S
C294 H264 0.950 . S
C294 C293 1.524 . S
C294 C295 1.415 . S
C295 H265 0.950 . S
C295 C290 1.363 . S
C295 C294 1.415 . S
H296 C293 0.999 . S
H297 C278 0.913 . S
H298 C316 0.951 . S
H299 C318 0.951 . S
H300 C320 0.950 . S
H301 C321 0.950 . S
H302 C323 0.950 . S
H303 C326 0.950 . S
H304 C327 0.950 . S
H305 C329 0.950 . S
H306 C330 0.950 . S
H307 C331 0.951 . S
H308 C333 0.951 . S
H309 C335 0.950 . S
H310 C336 0.950 . S
H311 C338 0.950 . S
H312 C341 0.950 . S
H313 C342 0.950 . S
H314 C344 0.950 . S
H315 C345 0.950 . S
C316 H298 0.951 . S
C316 C317 1.366 . S
C316 C318 1.388 . S
C317 C316 1.366 . S
C317 C321 1.385 . S
C318 H299 0.951 . S
C318 C316 1.388 . S
C318 C319 1.366 . S
C319 C318 1.366 . S
C319 C320 1.414 . S
C319 C322 1.499 . S
C320 H300 0.950 . S
C320 C319 1.414 . S
C320 C321 1.374 . S
C321 H301 0.950 . S
C321 C317 1.385 . S
C321 C320 1.374 . S
C322 C319 1.499 . S
C322 C323 1.373 . S
C322 C324 1.389 . S
C323 H302 0.950 . S
C323 C322 1.373 . S
C323 C339 1.377 . S
C324 C322 1.389 . S
C324 C325 1.524 . S
C324 C338 1.377 . S
C325 C324 1.524 . S
C325 C326 1.397 . S
C325 C330 1.363 . S
C326 H303 0.950 . S
C326 C325 1.397 . S
C326 C327 1.334 . S
C327 H304 0.950 . S
C327 C326 1.334 . S
C327 C328 1.287 . S
C328 C327 1.287 . S
C328 C329 1.524 . S
C328 H347 0.913 . S
C329 H305 0.950 . S
C329 C328 1.524 . S
C329 C330 1.415 . S
C330 H306 0.950 . S
C330 C325 1.363 . S
C330 C329 1.415 . S
C331 H307 0.951 . S
C331 C332 1.366 . S
C331 C333 1.388 . S
C332 C331 1.366 . S
C332 C336 1.385 . S
C333 H308 0.951 . S
C333 C331 1.388 . S
C333 C334 1.366 . S
C334 C333 1.366 . S
C334 C335 1.414 . S
C334 C337 1.499 . S
C335 H309 0.950 . S
C335 C334 1.414 . S
C335 C336 1.374 . S
C336 H310 0.950 . S
C336 C332 1.385 . S
C336 C335 1.374 . S
C337 C334 1.499 . S
C337 C338 1.373 . S
C337 C339 1.389 . S
C338 H311 0.950 . S
C338 C324 1.377 . S
C338 C337 1.373 . S
C339 C323 1.377 . S
C339 C337 1.389 . S
C339 C340 1.524 . S
C340 C339 1.524 . S
C340 C341 1.397 . S
C340 C345 1.363 . S
C341 H312 0.950 . S
C341 C340 1.397 . S
C341 C342 1.334 . S
C342 H313 0.950 . S
C342 C341 1.334 . S
C342 C343 1.287 . S
C343 C342 1.287 . S
C343 C344 1.524 . S
C343 H346 0.999 . S
C344 H314 0.950 . S
C344 C343 1.524 . S
C344 C345 1.415 . S
C345 H315 0.950 . S
C345 C340 1.363 . S
C345 C344 1.415 . S
H346 C343 0.999 . S
H347 C328 0.913 . S
H348 C366 0.951 . S
H349 C368 0.951 . S
H350 C370 0.950 . S
H351 C371 0.950 . S
H352 C373 0.950 . S
H353 C376 0.950 . S
H354 C377 0.950 . S
H355 C379 0.950 . S
H356 C380 0.950 . S
H357 C381 0.951 . S
H358 C383 0.951 . S
H359 C385 0.950 . S
H360 C386 0.950 . S
H361 C388 0.950 . S
H362 C391 0.950 1_554 S
H363 C392 0.950 . S
H364 C394 0.950 . S
H365 C395 0.950 . S
C366 H348 0.951 . S
C366 C367 1.366 1_554 S
C366 C368 1.388 . S
C367 C366 1.366 1_556 S
C367 C371 1.385 . S
C368 H349 0.951 . S
C368 C366 1.388 . S
C368 C369 1.366 . S
C369 C368 1.366 . S
C369 C370 1.414 1_554 S
C369 C372 1.499 . S
C370 H350 0.950 . S
C370 C369 1.414 1_556 S
C370 C371 1.374 . S
C371 H351 0.950 . S
C371 C367 1.385 . S
C371 C370 1.374 . S
C372 C369 1.499 . S
C372 C373 1.373 1_554 S
C372 C374 1.389 . S
C373 H352 0.950 . S
C373 C372 1.373 1_556 S
C373 C389 1.377 . S
C374 C372 1.389 . S
C374 C375 1.524 . S
C374 C388 1.377 . S
C375 C374 1.524 . S
C375 C376 1.397 . S
C375 C380 1.363 . S
C376 H353 0.950 . S
C376 C375 1.397 . S
C376 C377 1.334 . S
C377 H354 0.950 . S
C377 C376 1.334 . S
C377 C378 1.287 . S
C378 C377 1.287 . S
C378 C379 1.524 . S
C378 H397 0.913 . S
C379 H355 0.950 . S
C379 C378 1.524 . S
C379 C380 1.415 . S
C380 H356 0.950 . S
C380 C375 1.363 . S
C380 C379 1.415 . S
C381 H357 0.951 . S
C381 C382 1.366 1_556 S
C381 C383 1.388 . S
C382 C381 1.366 1_554 S
C382 C386 1.385 . S
C383 H358 0.951 . S
C383 C381 1.388 . S
C383 C384 1.366 1_556 S
C384 C383 1.366 1_554 S
C384 C385 1.414 . S
C384 C387 1.499 . S
C385 H359 0.950 . S
C385 C384 1.414 . S
C385 C386 1.374 . S
C386 H360 0.950 . S
C386 C382 1.385 . S
C386 C385 1.374 . S
C387 C384 1.499 . S
C387 C388 1.373 . S
C387 C389 1.389 1_554 S
C388 H361 0.950 . S
C388 C374 1.377 . S
C388 C387 1.373 . S
C389 C373 1.377 . S
C389 C387 1.389 1_556 S
C389 C390 1.524 . S
C390 C389 1.524 . S
C390 C391 1.397 . S
C390 C395 1.363 . S
C391 H362 0.950 1_556 S
C391 C390 1.397 . S
C391 C392 1.334 . S
C392 H363 0.950 . S
C392 C391 1.334 . S
C392 C393 1.287 . S
C393 C392 1.287 . S
C393 C394 1.524 . S
C393 H396 0.999 . S
C394 H364 0.950 . S
C394 C393 1.524 . S
C394 C395 1.415 . S
C395 H365 0.950 . S
C395 C390 1.363 . S
C395 C394 1.415 . S
H396 C393 0.999 . S
H397 C378 0.913 . S
H398 C416 0.951 . S
H399 C418 0.951 . S
H400 C420 0.950 . S
H401 C421 0.950 . S
H402 C423 0.950 . S
H403 C426 0.950 . S
H404 C427 0.950 . S
H405 C429 0.950 . S
H406 C430 0.950 . S
H407 C431 0.951 . S
H408 C433 0.951 1_545 S
H409 C435 0.950 . S
H410 C436 0.950 . S
H411 C438 0.950 . S
H412 C441 0.950 . S
H413 C442 0.950 . S
H414 C444 0.950 1_545 S
H415 C445 0.950 1_545 S
C416 H398 0.951 . S
C416 C417 1.366 . S
C416 C418 1.388 . S
C417 C416 1.366 . S
C417 C421 1.385 . S
C418 H399 0.951 . S
C418 C416 1.388 . S
C418 C419 1.366 . S
C419 C418 1.366 . S
C419 C420 1.414 . S
C419 C422 1.499 . S
C420 H400 0.950 . S
C420 C419 1.414 . S
C420 C421 1.374 . S
C421 H401 0.950 . S
C421 C417 1.385 . S
C421 C420 1.374 . S
C422 C419 1.499 . S
C422 C423 1.373 . S
C422 C424 1.389 . S
C423 H402 0.950 . S
C423 C422 1.373 . S
C423 C439 1.377 . S
C424 C422 1.389 . S
C424 C425 1.524 . S
C424 C438 1.377 . S
C425 C424 1.524 . S
C425 C426 1.397 . S
C425 C430 1.363 . S
C426 H403 0.950 . S
C426 C425 1.397 . S
C426 C427 1.334 . S
C427 H404 0.950 . S
C427 C426 1.334 . S
C427 C428 1.287 . S
C428 C427 1.287 . S
C428 C429 1.524 . S
C428 H447 0.913 . S
C429 H405 0.950 . S
C429 C428 1.524 . S
C429 C430 1.415 . S
C430 H406 0.950 . S
C430 C425 1.363 . S
C430 C429 1.415 . S
C431 H407 0.951 . S
C431 C432 1.366 1_545 S
C431 C433 1.388 1_545 S
C432 C431 1.366 1_565 S
C432 C436 1.385 . S
C433 H408 0.951 1_565 S
C433 C431 1.388 1_565 S
C433 C434 1.366 . S
C434 C433 1.366 . S
C434 C435 1.414 . S
C434 C437 1.499 . S
C435 H409 0.950 . S
C435 C434 1.414 . S
C435 C436 1.374 . S
C436 H410 0.950 . S
C436 C432 1.385 . S
C436 C435 1.374 . S
C437 C434 1.499 . S
C437 C438 1.373 . S
C437 C439 1.389 . S
C438 H411 0.950 . S
C438 C424 1.377 . S
C438 C437 1.373 . S
C439 C423 1.377 . S
C439 C437 1.389 . S
C439 C440 1.524 . S
C440 C439 1.524 . S
C440 C441 1.397 . S
C440 C445 1.363 . S
C441 H412 0.950 . S
C441 C440 1.397 . S
C441 C442 1.334 . S
C442 H413 0.950 . S
C442 C441 1.334 . S
C442 C443 1.287 . S
C443 C442 1.287 . S
C443 C444 1.524 . S
C443 H446 0.999 . S
C444 H414 0.950 1_565 S
C444 C443 1.524 . S
C444 C445 1.415 . S
C445 H415 0.950 1_565 S
C445 C440 1.363 . S
C445 C444 1.415 . S
H446 C443 0.999 . S
H447 C428 0.913 . S
H448 C466 0.951 . S
H449 C468 0.951 . S
H450 C470 0.950 . S
H451 C471 0.950 . S
H452 C473 0.950 . S
H453 C476 0.950 . S
H454 C477 0.950 . S
H455 C479 0.950 . S
H456 C480 0.950 . S
H457 C481 0.951 . S
H458 C483 0.951 . S
H459 C485 0.950 . S
H460 C486 0.950 . S
H461 C488 0.950 . S
H462 C491 0.950 . S
H463 C492 0.950 . S
H464 C494 0.950 . S
H465 C495 0.950 . S
C466 H448 0.951 . S
C466 C467 1.366 . S
C466 C468 1.388 . S
C467 C466 1.366 . S
C467 C471 1.385 . S
C468 H449 0.951 . S
C468 C466 1.388 . S
C468 C469 1.366 . S
C469 C468 1.366 . S
C469 C470 1.414 . S
C469 C472 1.499 . S
C470 H450 0.950 . S
C470 C469 1.414 . S
C470 C471 1.374 . S
C471 H451 0.950 . S
C471 C467 1.385 . S
C471 C470 1.374 . S
C472 C469 1.499 . S
C472 C473 1.373 . S
C472 C474 1.389 . S
C473 H452 0.950 . S
C473 C472 1.373 . S
C473 C489 1.377 . S
C474 C472 1.389 . S
C474 C475 1.524 . S
C474 C488 1.377 . S
C475 C474 1.524 . S
C475 C476 1.397 . S
C475 C480 1.363 . S
C476 H453 0.950 . S
C476 C475 1.397 . S
C476 C477 1.334 . S
C477 H454 0.950 . S
C477 C476 1.334 . S
C477 C478 1.287 . S
C478 C477 1.287 . S
C478 C479 1.524 . S
C478 H497 0.913 . S
C479 H455 0.950 . S
C479 C478 1.524 . S
C479 C480 1.415 . S
C480 H456 0.950 . S
C480 C475 1.363 . S
C480 C479 1.415 . S
C481 H457 0.951 . S
C481 C482 1.366 . S
C481 C483 1.388 . S
C482 C481 1.366 . S
C482 C486 1.385 . S
C483 H458 0.951 . S
C483 C481 1.388 . S
C483 C484 1.366 . S
C484 C483 1.366 . S
C484 C485 1.414 . S
C484 C487 1.499 . S
C485 H459 0.950 . S
C485 C484 1.414 . S
C485 C486 1.374 . S
C486 H460 0.950 . S
C486 C482 1.385 . S
C486 C485 1.374 . S
C487 C484 1.499 . S
C487 C488 1.373 . S
C487 C489 1.389 . S
C488 H461 0.950 . S
C488 C474 1.377 . S
C488 C487 1.373 . S
C489 C473 1.377 . S
C489 C487 1.389 . S
C489 C490 1.524 . S
C490 C489 1.524 . S
C490 C491 1.397 . S
C490 C495 1.363 . S
C491 H462 0.950 . S
C491 C490 1.397 . S
C491 C492 1.334 . S
C492 H463 0.950 . S
C492 C491 1.334 . S
C492 C493 1.287 . S
C493 C492 1.287 . S
C493 C494 1.524 . S
C493 H496 0.999 . S
C494 H464 0.950 . S
C494 C493 1.524 . S
C494 C495 1.415 . S
C495 H465 0.950 . S
C495 C490 1.363 . S
C495 C494 1.415 . S
H496 C493 0.999 . S
H497 C478 0.913 . S
H498 C516 0.951 . S
H499 C518 0.951 . S
H500 C520 0.950 . S
H501 C521 0.950 . S
H502 C523 0.950 . S
H503 C526 0.950 . S
H504 C527 0.950 . S
H505 C529 0.950 . S
H506 C530 0.950 . S
H507 C531 0.951 . S
H508 C533 0.951 . S
H509 C535 0.950 . S
H510 C536 0.950 . S
H511 C538 0.950 . S
H512 C541 0.950 . S
H513 C542 0.950 . S
H514 C544 0.950 . S
H515 C545 0.950 . S
C516 H498 0.951 . S
C516 C517 1.366 . S
C516 C518 1.388 . S
C517 C516 1.366 . S
C517 C521 1.385 . S
C518 H499 0.951 . S
C518 C516 1.388 . S
C518 C519 1.366 . S
C519 C518 1.366 . S
C519 C520 1.414 . S
C519 C522 1.499 . S
C520 H500 0.950 . S
C520 C519 1.414 . S
C520 C521 1.374 . S
C521 H501 0.950 . S
C521 C517 1.385 . S
C521 C520 1.374 . S
C522 C519 1.499 . S
C522 C523 1.373 . S
C522 C524 1.389 . S
C523 H502 0.950 . S
C523 C522 1.373 . S
C523 C539 1.377 . S
C524 C522 1.389 . S
C524 C525 1.524 . S
C524 C538 1.377 . S
C525 C524 1.524 . S
C525 C526 1.397 . S
C525 C530 1.363 . S
C526 H503 0.950 . S
C526 C525 1.397 . S
C526 C527 1.334 . S
C527 H504 0.950 . S
C527 C526 1.334 . S
C527 C528 1.287 . S
C528 C527 1.287 . S
C528 C529 1.524 . S
C528 H547 0.913 . S
C529 H505 0.950 . S
C529 C528 1.524 . S
C529 C530 1.415 . S
C530 H506 0.950 . S
C530 C525 1.363 . S
C530 C529 1.415 . S
C531 H507 0.951 . S
C531 C532 1.366 . S
C531 C533 1.388 . S
C532 C531 1.366 . S
C532 C536 1.385 . S
C533 H508 0.951 . S
C533 C531 1.388 . S
C533 C534 1.366 . S
C534 C533 1.366 . S
C534 C535 1.414 . S
C534 C537 1.499 . S
C535 H509 0.950 . S
C535 C534 1.414 . S
C535 C536 1.374 . S
C536 H510 0.950 . S
C536 C532 1.385 . S
C536 C535 1.374 . S
C537 C534 1.499 . S
C537 C538 1.373 . S
C537 C539 1.389 . S
C538 H511 0.950 . S
C538 C524 1.377 . S
C538 C537 1.373 . S
C539 C523 1.377 . S
C539 C537 1.389 . S
C539 C540 1.524 . S
C540 C539 1.524 . S
C540 C541 1.397 . S
C540 C545 1.363 . S
C541 H512 0.950 . S
C541 C540 1.397 . S
C541 C542 1.334 1_545 S
C542 H513 0.950 . S
C542 C541 1.334 1_565 S
C542 C543 1.287 . S
C543 C542 1.287 . S
C543 C544 1.524 1_565 S
C543 H546 0.999 . S
C544 H514 0.950 . S
C544 C543 1.524 1_545 S
C544 C545 1.415 . S
C545 H515 0.950 . S
C545 C540 1.363 . S
C545 C544 1.415 . S
H546 C543 0.999 . S
H547 C528 0.913 . S
H548 C566 0.951 . S
H549 C568 0.951 . S
H550 C570 0.950 . S
H551 C571 0.950 . S
H552 C573 0.950 . S
H553 C576 0.950 . S
H554 C577 0.950 . S
H555 C579 0.950 . S
H556 C580 0.950 . S
H557 C581 0.951 . S
H558 C583 0.951 . S
H559 C585 0.950 . S
H560 C586 0.950 . S
H561 C588 0.950 . S
H562 C591 0.950 . S
H563 C592 0.950 . S
H564 C594 0.950 . S
H565 C595 0.950 . S
C566 H548 0.951 . S
C566 C567 1.366 . S
C566 C568 1.388 . S
C567 C566 1.366 . S
C567 C571 1.385 . S
C568 H549 0.951 . S
C568 C566 1.388 . S
C568 C569 1.366 . S
C569 C568 1.366 . S
C569 C570 1.414 . S
C569 C572 1.499 . S
C570 H550 0.950 . S
C570 C569 1.414 . S
C570 C571 1.374 . S
C571 H551 0.950 . S
C571 C567 1.385 . S
C571 C570 1.374 . S
C572 C569 1.499 . S
C572 C573 1.373 . S
C572 C574 1.389 . S
C573 H552 0.950 . S
C573 C572 1.373 . S
C573 C589 1.377 . S
C574 C572 1.389 . S
C574 C575 1.524 . S
C574 C588 1.377 . S
C575 C574 1.524 . S
C575 C576 1.397 . S
C575 C580 1.363 . S
C576 H553 0.950 . S
C576 C575 1.397 . S
C576 C577 1.334 . S
C577 H554 0.950 . S
C577 C576 1.334 . S
C577 C578 1.287 . S
C578 C577 1.287 . S
C578 C579 1.524 . S
C578 H597 0.913 . S
C579 H555 0.950 . S
C579 C578 1.524 . S
C579 C580 1.415 . S
C580 H556 0.950 . S
C580 C575 1.363 . S
C580 C579 1.415 . S
C581 H557 0.951 . S
C581 C582 1.366 . S
C581 C583 1.388 . S
C582 C581 1.366 . S
C582 C586 1.385 . S
C583 H558 0.951 . S
C583 C581 1.388 . S
C583 C584 1.366 . S
C584 C583 1.366 . S
C584 C585 1.414 . S
C584 C587 1.499 . S
C585 H559 0.950 . S
C585 C584 1.414 . S
C585 C586 1.374 . S
C586 H560 0.950 . S
C586 C582 1.385 . S
C586 C585 1.374 . S
C587 C584 1.499 . S
C587 C588 1.373 . S
C587 C589 1.389 . S
C588 H561 0.950 . S
C588 C574 1.377 . S
C588 C587 1.373 . S
C589 C573 1.377 . S
C589 C587 1.389 . S
C589 C590 1.524 . S
C590 C589 1.524 . S
C590 C591 1.397 . S
C590 C595 1.363 . S
C591 H562 0.950 . S
C591 C590 1.397 . S
C591 C592 1.334 . S
C592 H563 0.950 . S
C592 C591 1.334 . S
C592 C593 1.287 . S
C593 C592 1.287 . S
C593 C594 1.524 . S
C593 H596 0.999 . S
C594 H564 0.950 . S
C594 C593 1.524 . S
C594 C595 1.415 . S
C595 H565 0.950 . S
C595 C590 1.363 . S
C595 C594 1.415 . S
H596 C593 0.999 . S
H597 C578 0.913 . S
H598 C616 0.951 . S
H599 C618 0.951 . S
H600 C620 0.950 . S
H601 C621 0.950 . S
H602 C623 0.950 . S
H603 C626 0.950 . S
H604 C627 0.950 . S
H605 C629 0.950 . S
H606 C630 0.950 . S
H607 C631 0.951 . S
H608 C633 0.951 . S
H609 C635 0.950 . S
H610 C636 0.950 . S
H611 C638 0.950 . S
H612 C641 0.950 . S
H613 C642 0.950 . S
H614 C644 0.950 . S
H615 C645 0.950 . S
C616 H598 0.951 . S
C616 C617 1.366 . S
C616 C618 1.388 . S
C617 C616 1.366 . S
C617 C621 1.385 . S
C618 H599 0.951 . S
C618 C616 1.388 . S
C618 C619 1.366 . S
C619 C618 1.366 . S
C619 C620 1.414 . S
C619 C622 1.499 . S
C620 H600 0.950 . S
C620 C619 1.414 . S
C620 C621 1.374 . S
C621 H601 0.950 . S
C621 C617 1.385 . S
C621 C620 1.374 . S
C622 C619 1.499 . S
C622 C623 1.373 . S
C622 C624 1.389 . S
C623 H602 0.950 . S
C623 C622 1.373 . S
C623 C639 1.377 . S
C624 C622 1.389 . S
C624 C625 1.524 . S
C624 C638 1.377 . S
C625 C624 1.524 . S
C625 C626 1.397 . S
C625 C630 1.363 . S
C626 H603 0.950 . S
C626 C625 1.397 . S
C626 C627 1.334 . S
C627 H604 0.950 . S
C627 C626 1.334 . S
C627 C628 1.287 . S
C628 C627 1.287 . S
C628 C629 1.524 . S
C628 H647 0.913 . S
C629 H605 0.950 . S
C629 C628 1.524 . S
C629 C630 1.415 . S
C630 H606 0.950 . S
C630 C625 1.363 . S
C630 C629 1.415 . S
C631 H607 0.951 . S
C631 C632 1.366 . S
C631 C633 1.388 . S
C632 C631 1.366 . S
C632 C636 1.385 . S
C633 H608 0.951 . S
C633 C631 1.388 . S
C633 C634 1.366 . S
C634 C633 1.366 . S
C634 C635 1.414 . S
C634 C637 1.499 . S
C635 H609 0.950 . S
C635 C634 1.414 . S
C635 C636 1.374 . S
C636 H610 0.950 . S
C636 C632 1.385 . S
C636 C635 1.374 . S
C637 C634 1.499 . S
C637 C638 1.373 . S
C637 C639 1.389 . S
C638 H611 0.950 . S
C638 C624 1.377 . S
C638 C637 1.373 . S
C639 C623 1.377 . S
C639 C637 1.389 . S
C639 C640 1.524 . S
C640 C639 1.524 . S
C640 C641 1.397 . S
C640 C645 1.363 . S
C641 H612 0.950 . S
C641 C640 1.397 . S
C641 C642 1.334 . S
C642 H613 0.950 . S
C642 C641 1.334 . S
C642 C643 1.287 . S
C643 C642 1.287 . S
C643 C644 1.524 . S
C643 H646 0.999 . S
C644 H614 0.950 . S
C644 C643 1.524 . S
C644 C645 1.415 . S
C645 H615 0.950 . S
C645 C640 1.363 . S
C645 C644 1.415 . S
H646 C643 0.999 . S
H647 C628 0.913 . S
H648 C666 0.951 . S
H649 C668 0.951 . S
H650 C670 0.950 . S
H651 C671 0.950 . S
H652 C673 0.950 . S
H653 C676 0.950 . S
H654 C677 0.950 . S
H655 C679 0.950 1_565 S
H656 C680 0.950 . S
H657 C681 0.951 . S
H658 C683 0.951 . S
H659 C685 0.950 . S
H660 C686 0.950 . S
H661 C688 0.950 . S
H662 C691 0.950 . S
H663 C692 0.950 . S
H664 C694 0.950 . S
H665 C695 0.950 . S
C666 H648 0.951 . S
C666 C667 1.366 . S
C666 C668 1.388 . S
C667 C666 1.366 . S
C667 C671 1.385 . S
C668 H649 0.951 . S
C668 C666 1.388 . S
C668 C669 1.366 . S
C669 C668 1.366 . S
C669 C670 1.414 . S
C669 C672 1.499 . S
C670 H650 0.950 . S
C670 C669 1.414 . S
C670 C671 1.374 . S
C671 H651 0.950 . S
C671 C667 1.385 . S
C671 C670 1.374 . S
C672 C669 1.499 . S
C672 C673 1.373 . S
C672 C674 1.389 . S
C673 H652 0.950 . S
C673 C672 1.373 . S
C673 C689 1.377 . S
C674 C672 1.389 . S
C674 C675 1.524 . S
C674 C688 1.377 . S
C675 C674 1.524 . S
C675 C676 1.397 . S
C675 C680 1.363 . S
C676 H653 0.950 . S
C676 C675 1.397 . S
C676 C677 1.334 . S
C677 H654 0.950 . S
C677 C676 1.334 . S
C677 C678 1.287 1_545 S
C678 C677 1.287 1_565 S
C678 C679 1.524 1_565 S
C678 H697 0.913 . S
C679 H655 0.950 1_545 S
C679 C678 1.524 1_545 S
C679 C680 1.415 . S
C680 H656 0.950 . S
C680 C675 1.363 . S
C680 C679 1.415 . S
C681 H657 0.951 . S
C681 C682 1.366 . S
C681 C683 1.388 . S
C682 C681 1.366 . S
C682 C686 1.385 . S
C683 H658 0.951 . S
C683 C681 1.388 . S
C683 C684 1.366 . S
C684 C683 1.366 . S
C684 C685 1.414 . S
C684 C687 1.499 . S
C685 H659 0.950 . S
C685 C684 1.414 . S
C685 C686 1.374 . S
C686 H660 0.950 . S
C686 C682 1.385 . S
C686 C685 1.374 . S
C687 C684 1.499 . S
C687 C688 1.373 . S
C687 C689 1.389 . S
C688 H661 0.950 . S
C688 C674 1.377 . S
C688 C687 1.373 . S
C689 C673 1.377 . S
C689 C687 1.389 . S
C689 C690 1.524 . S
C690 C689 1.524 . S
C690 C691 1.397 . S
C690 C695 1.363 . S
C691 H662 0.950 . S
C691 C690 1.397 . S
C691 C692 1.334 . S
C692 H663 0.950 . S
C692 C691 1.334 . S
C692 C693 1.287 . S
C693 C692 1.287 . S
C693 C694 1.524 . S
C693 H696 0.999 . S
C694 H664 0.950 . S
C694 C693 1.524 . S
C694 C695 1.415 . S
C695 H665 0.950 . S
C695 C690 1.363 . S
C695 C694 1.415 . S
H696 C693 0.999 . S
H697 C678 0.913 . S
H698 C716 0.951 . S
H699 C718 0.951 . S
H700 C720 0.950 . S
H701 C721 0.950 . S
H702 C723 0.950 . S
H703 C726 0.950 . S
H704 C727 0.950 . S
H705 C729 0.950 . S
H706 C730 0.950 . S
H707 C731 0.951 . S
H708 C733 0.951 . S
H709 C735 0.950 . S
H710 C736 0.950 . S
H711 C738 0.950 . S
H712 C741 0.950 . S
H713 C742 0.950 . S
H714 C744 0.950 . S
H715 C745 0.950 . S
C716 H698 0.951 . S
C716 C717 1.366 . S
C716 C718 1.388 . S
C717 C716 1.366 . S
C717 C721 1.385 . S
C718 H699 0.951 . S
C718 C716 1.388 . S
C718 C719 1.366 . S
C719 C718 1.366 . S
C719 C720 1.414 . S
C719 C722 1.499 . S
C720 H700 0.950 . S
C720 C719 1.414 . S
C720 C721 1.374 . S
C721 H701 0.950 . S
C721 C717 1.385 . S
C721 C720 1.374 . S
C722 C719 1.499 . S
C722 C723 1.373 . S
C722 C724 1.389 . S
C723 H702 0.950 . S
C723 C722 1.373 . S
C723 C739 1.377 . S
C724 C722 1.389 . S
C724 C725 1.524 . S
C724 C738 1.377 . S
C725 C724 1.524 . S
C725 C726 1.397 . S
C725 C730 1.363 . S
C726 H703 0.950 . S
C726 C725 1.397 . S
C726 C727 1.334 . S
C727 H704 0.950 . S
C727 C726 1.334 . S
C727 C728 1.287 . S
C728 C727 1.287 . S
C728 C729 1.524 . S
C728 H747 0.913 . S
C729 H705 0.950 . S
C729 C728 1.524 . S
C729 C730 1.415 . S
C730 H706 0.950 . S
C730 C725 1.363 . S
C730 C729 1.415 . S
C731 H707 0.951 . S
C731 C732 1.366 . S
C731 C733 1.388 . S
C732 C731 1.366 . S
C732 C736 1.385 . S
C733 H708 0.951 . S
C733 C731 1.388 . S
C733 C734 1.366 . S
C734 C733 1.366 . S
C734 C735 1.414 . S
C734 C737 1.499 . S
C735 H709 0.950 . S
C735 C734 1.414 . S
C735 C736 1.374 . S
C736 H710 0.950 . S
C736 C732 1.385 . S
C736 C735 1.374 . S
C737 C734 1.499 . S
C737 C738 1.373 . S
C737 C739 1.389 . S
C738 H711 0.950 . S
C738 C724 1.377 . S
C738 C737 1.373 . S
C739 C723 1.377 . S
C739 C737 1.389 . S
C739 C740 1.524 . S
C740 C739 1.524 . S
C740 C741 1.397 . S
C740 C745 1.363 . S
C741 H712 0.950 . S
C741 C740 1.397 . S
C741 C742 1.334 . S
C742 H713 0.950 . S
C742 C741 1.334 . S
C742 C743 1.287 . S
C743 C742 1.287 . S
C743 C744 1.524 . S
C743 H746 0.999 . S
C744 H714 0.950 . S
C744 C743 1.524 . S
C744 C745 1.415 . S
C745 H715 0.950 . S
C745 C740 1.363 . S
C745 C744 1.415 . S
H746 C743 0.999 . S
H747 C728 0.913 . S
H748 C766 0.951 . S
H749 C768 0.951 . S
H750 C770 0.950 . S
H751 C771 0.950 . S
H752 C773 0.950 . S
H753 C776 0.950 . S
H754 C777 0.950 . S
H755 C779 0.950 . S
H756 C780 0.950 . S
H757 C781 0.951 . S
H758 C783 0.951 . S
H759 C785 0.950 1_545 S
H760 C786 0.950 . S
H761 C788 0.950 1_545 S
H762 C791 0.950 . S
H763 C792 0.950 . S
H764 C794 0.950 . S
H765 C795 0.950 . S
C766 H748 0.951 . S
C766 C767 1.366 . S
C766 C768 1.388 . S
C767 C766 1.366 . S
C767 C771 1.385 . S
C768 H749 0.951 . S
C768 C766 1.388 . S
C768 C769 1.366 . S
C769 C768 1.366 . S
C769 C770 1.414 . S
C769 C772 1.499 . S
C770 H750 0.950 . S
C770 C769 1.414 . S
C770 C771 1.374 . S
C771 H751 0.950 . S
C771 C767 1.385 . S
C771 C770 1.374 . S
C772 C769 1.499 . S
C772 C773 1.373 . S
C772 C774 1.389 . S
C773 H752 0.950 . S
C773 C772 1.373 . S
C773 C789 1.377 . S
C774 C772 1.389 . S
C774 C775 1.524 1_565 S
C774 C788 1.377 . S
C775 C774 1.524 1_545 S
C775 C776 1.397 1_545 S
C775 C780 1.363 . S
C776 H753 0.950 . S
C776 C775 1.397 1_565 S
C776 C777 1.334 1_565 S
C777 H754 0.950 . S
C777 C776 1.334 1_545 S
C777 C778 1.287 . S
C778 C777 1.287 . S
C778 C779 1.524 . S
C778 H797 0.913 . S
C779 H755 0.950 . S
C779 C778 1.524 . S
C779 C780 1.415 . S
C780 H756 0.950 . S
C780 C775 1.363 . S
C780 C779 1.415 . S
C781 H757 0.951 . S
C781 C782 1.366 . S
C781 C783 1.388 . S
C782 C781 1.366 . S
C782 C786 1.385 1_565 S
C783 H758 0.951 . S
C783 C781 1.388 . S
C783 C784 1.366 . S
C784 C783 1.366 . S
C784 C785 1.414 . S
C784 C787 1.499 . S
C785 H759 0.950 1_565 S
C785 C784 1.414 . S
C785 C786 1.374 1_565 S
C786 H760 0.950 . S
C786 C782 1.385 1_545 S
C786 C785 1.374 1_545 S
C787 C784 1.499 . S
C787 C788 1.373 . S
C787 C789 1.389 . S
C788 H761 0.950 1_565 S
C788 C774 1.377 . S
C788 C787 1.373 . S
C789 C773 1.377 . S
C789 C787 1.389 . S
C789 C790 1.524 . S
C790 C789 1.524 . S
C790 C791 1.397 . S
C790 C795 1.363 . S
C791 H762 0.950 . S
C791 C790 1.397 . S
C791 C792 1.334 . S
C792 H763 0.950 . S
C792 C791 1.334 . S
C792 C793 1.287 . S
C793 C792 1.287 . S
C793 C794 1.524 . S
C793 H796 0.999 . S
C794 H764 0.950 . S
C794 C793 1.524 . S
C794 C795 1.415 . S
C795 H765 0.950 . S
C795 C790 1.363 . S
C795 C794 1.415 . S
H796 C793 0.999 . S
H797 C778 0.913 . S
C232 C171 1.319 . S
C217 C138 1.497 . S
C267 C21 1.490 . S
C282 C195 1.316 . S
C317 C60 1.666 . S
C332 C174 1.467 . S
C367 C99 1.676 . S
C382 C192 1.465 . S
C432 C172 1.589 . S
C417 C16 1.604 . S
C482 C194 1.561 . S
C467 C40 1.600 . S
C517 C79 1.579 . S
C532 C173 1.512 . S
C567 C133 1.587 . S
C582 C193 1.527 . S
C632 C191 1.512 . S
C617 C55 1.578 . S
C682 C170 1.561 . S
C667 C94 1.600 . S
C732 C190 1.591 . S
C717 C118 1.605 . S
C767 C1 1.585 . S
C782 C169 1.533 . S
