# Generated by pormake.
# Topology dag, (6,3)-cn, num edge types: 1
# Building blocks:
#     Node 0, Type 0, BuildingBlock: OJICUG_clean_sbu_0, # of connection points: 6
#     Node 1, Type 0, BuildingBlock: OJICUG_clean_sbu_0, # of connection points: 6
#     Node 2, Type 0, BuildingBlock: OJICUG_clean_sbu_0, # of connection points: 6
#     Node 3, Type 0, BuildingBlock: OJICUG_clean_sbu_0, # of connection points: 6
#     Node 4, Type 1, BuildingBlock: ESEHIV_clean_linker_0, # of connection points: 3
#     Node 5, Type 1, BuildingBlock: ESEHIV_clean_linker_0, # of connection points: 3
#     Node 6, Type 1, BuildingBlock: ESEHIV_clean_linker_0, # of connection points: 3
#     Node 7, Type 1, BuildingBlock: ESEHIV_clean_linker_0, # of connection points: 3
#     Node 8, Type 1, BuildingBlock: ESEHIV_clean_linker_0, # of connection points: 3
#     Node 9, Type 1, BuildingBlock: ESEHIV_clean_linker_0, # of connection points: 3
#     Node 10, Type 1, BuildingBlock: ESEHIV_clean_linker_0, # of connection points: 3
#     Node 11, Type 1, BuildingBlock: ESEHIV_clean_linker_0, # of connection points: 3
#     Edge 12, Type (0, 1), BuildingBlock: OJICUG_clean_linker_0, # of connection points: 2
#     Edge 13, Type (0, 1), BuildingBlock: OJICUG_clean_linker_0, # of connection points: 2
#     Edge 14, Type (0, 1), BuildingBlock: OJICUG_clean_linker_0, # of connection points: 2
#     Edge 15, Type (0, 1), BuildingBlock: OJICUG_clean_linker_0, # of connection points: 2
#     Edge 16, Type (0, 1), BuildingBlock: OJICUG_clean_linker_0, # of connection points: 2
#     Edge 17, Type (0, 1), BuildingBlock: OJICUG_clean_linker_0, # of connection points: 2
#     Edge 18, Type (0, 1), BuildingBlock: OJICUG_clean_linker_0, # of connection points: 2
#     Edge 19, Type (0, 1), BuildingBlock: OJICUG_clean_linker_0, # of connection points: 2
#     Edge 20, Type (0, 1), BuildingBlock: OJICUG_clean_linker_0, # of connection points: 2
#     Edge 21, Type (0, 1), BuildingBlock: OJICUG_clean_linker_0, # of connection points: 2
#     Edge 22, Type (0, 1), BuildingBlock: OJICUG_clean_linker_0, # of connection points: 2
#     Edge 23, Type (0, 1), BuildingBlock: OJICUG_clean_linker_0, # of connection points: 2
#     Edge 24, Type (0, 1), BuildingBlock: OJICUG_clean_linker_0, # of connection points: 2
#     Edge 25, Type (0, 1), BuildingBlock: OJICUG_clean_linker_0, # of connection points: 2
#     Edge 26, Type (0, 1), BuildingBlock: OJICUG_clean_linker_0, # of connection points: 2
#     Edge 27, Type (0, 1), BuildingBlock: OJICUG_clean_linker_0, # of connection points: 2
#     Edge 28, Type (0, 1), BuildingBlock: OJICUG_clean_linker_0, # of connection points: 2
#     Edge 29, Type (0, 1), BuildingBlock: OJICUG_clean_linker_0, # of connection points: 2
#     Edge 30, Type (0, 1), BuildingBlock: OJICUG_clean_linker_0, # of connection points: 2
#     Edge 31, Type (0, 1), BuildingBlock: OJICUG_clean_linker_0, # of connection points: 2
#     Edge 32, Type (0, 1), BuildingBlock: OJICUG_clean_linker_0, # of connection points: 2
#     Edge 33, Type (0, 1), BuildingBlock: OJICUG_clean_linker_0, # of connection points: 2
#     Edge 34, Type (0, 1), BuildingBlock: OJICUG_clean_linker_0, # of connection points: 2
#     Edge 35, Type (0, 1), BuildingBlock: OJICUG_clean_linker_0, # of connection points: 2
# Relax obj value: 0.253
# Max RMSD: 0.198
# Mean RMSD: 0.164
data_MOF--net-dag--node1-OJICUG_clean_sbu_0--node2-ESEHIV_clean_linker_0--edge1-OJICUG_clean_linker_0
_symmetry_space_group_name_H-M    P1
_symmetry_Int_Tables_number       1
_symmetry_cell_setting            triclinic
loop_
_symmetry_equiv_pos_as_xyz
'x, y, z'
_cell_length_a     24.368703
_cell_length_b     25.941514
_cell_length_c     25.220198
_cell_angle_alpha  95.737274
_cell_angle_beta   90.0716
_cell_angle_gamma 90.040742
loop_
_atom_site_label
_atom_site_type_symbol
_atom_site_fract_x
_atom_site_fract_y
_atom_site_fract_z
_atom_type_partial_charge
Sc0 Sc 0.14849 0.89262 0.01314 0.0
Sc1 Sc 0.17577 0.76472 0.03892 0.0
Sc2 Sc 0.26301 0.86831 0.08928 0.0
O3 O 0.19559 0.84162 0.04736 0.0
C4 C 0.26408 0.94152 0.99499 0.0
C5 C 0.14489 0.79681 0.92394 0.0
C6 C 0.30557 0.76796 0.01862 0.0
C7 C 0.05914 0.8183 0.05926 0.0
C8 C 0.17601 0.95349 0.12722 0.0
C9 C 0.2228 0.77753 0.15688 0.0
O10 O 0.21688 0.92782 0.97778 0.0
O11 O 0.15647 0.76229 0.95455 0.0
O12 O 0.31346 0.81368 0.041 0.0
O13 O 0.07493 0.86139 0.04442 0.0
O14 O 0.21548 0.92457 0.13912 0.0
O15 O 0.19108 0.75565 0.12155 0.0
O16 O 0.15151 0.94785 0.08245 0.0
O17 O 0.09055 0.77907 0.05927 0.0
O18 O 0.25243 0.8162 0.14908 0.0
O19 O 0.14078 0.8444 0.94022 0.0
O20 O 0.28418 0.92671 0.03734 0.0
O21 O 0.25931 0.74483 0.01771 0.0
Sc22 Sc 0.76128 0.61108 0.45005 0.0
Sc23 Sc 0.67477 0.71538 0.50127 0.0
Sc24 Sc 0.64521 0.58775 0.52528 0.0
O25 O 0.69382 0.63823 0.49197 0.0
C26 C 0.66831 0.53055 0.40931 0.0
C27 C 0.72155 0.70227 0.38277 0.0
C28 C 0.55683 0.66588 0.48322 0.0
C29 C 0.8044 0.71158 0.52121 0.0
C30 C 0.76164 0.53614 0.5417 0.0
C31 C 0.6465 0.68038 0.61658 0.0
O32 O 0.71384 0.55296 0.40176 0.0
O33 O 0.69263 0.72606 0.41928 0.0
O34 O 0.57157 0.62404 0.50124 0.0
O35 O 0.81234 0.66693 0.4964 0.0
O36 O 0.71206 0.54526 0.55425 0.0
O37 O 0.65317 0.71542 0.58519 0.0
O38 O 0.78503 0.55523 0.50338 0.0
O39 O 0.75786 0.734 0.5248 0.0
O40 O 0.6457 0.63248 0.60069 0.0
O41 O 0.74845 0.66163 0.38938 0.0
O42 O 0.6405 0.5388 0.45191 0.0
O43 O 0.58982 0.70312 0.47837 0.0
Sc44 Sc 0.82952 0.21412 0.00516 0.0
Sc45 Sc 0.74239 0.11212 0.95037 0.0
Sc46 Sc 0.85807 0.08515 0.02444 0.0
O47 O 0.81016 0.1373 0.99303 0.0
C48 C 0.94796 0.16445 0.98767 0.0
C49 C 0.78089 0.2077 0.88872 0.0
C50 C 0.8346 0.03385 0.90543 0.0
C51 C 0.69939 0.20872 0.02496 0.0
C52 C 0.85579 0.1755 0.11907 0.0
C53 C 0.74258 0.03189 0.03718 0.0
O54 O 0.9156 0.20273 0.98609 0.0
O55 O 0.75033 0.16943 0.89556 0.0
O56 O 0.86053 0.03789 0.94952 0.0
O57 O 0.74524 0.23257 0.02567 0.0
O58 O 0.8597 0.12827 0.1009 0.0
O59 O 0.72116 0.05025 -0.00258 0.0
O60 O 0.84691 0.21173 0.08958 0.0
O61 O 0.69192 0.16319 0.00206 0.0
O62 O 0.79062 0.0434 0.05338 0.0
O63 O 0.81576 0.22631 0.92282 0.0
O64 O 0.93218 0.12089 0.00091 0.0
O65 O 0.79091 0.05908 0.89744 0.0
Sc66 Sc 0.35267 0.39258 0.51357 0.0
Sc67 Sc 0.23962 0.3676 0.58985 0.0
Sc68 Sc 0.32742 0.26524 0.54118 0.0
O69 O 0.30703 0.34147 0.54849 0.0
C70 C 0.35655 0.29547 0.42555 0.0
C71 C 0.23862 0.442 0.49705 0.0
C72 C 0.19742 0.26862 0.51926 0.0
C73 C 0.3254 0.45217 0.6286 0.0
C74 C 0.444 0.32047 0.55904 0.0
C75 C 0.27821 0.27596 0.65657 0.0
O76 O 0.36244 0.34298 0.44168 0.0
O77 O 0.2214 0.42973 0.54151 0.0
O78 O 0.24279 0.24447 0.52287 0.0
O79 O 0.34703 0.44874 0.58239 0.0
O80 O 0.41334 0.28058 0.55813 0.0
O81 O 0.24508 0.31117 0.64614 0.0
O82 O 0.42701 0.36394 0.54611 0.0
O83 O 0.28877 0.42075 0.64198 0.0
O84 O 0.31589 0.25887 0.62496 0.0
O85 O 0.28299 0.42429 0.47651 0.0
O86 O 0.34332 0.26147 0.45621 0.0
O87 O 0.19004 0.31565 0.53798 0.0
H88 H 0.00233 0.10604 0.22026 0.0
H89 H 0.13236 0.11694 0.33544 0.0
H90 H 0.98922 0.21499 0.35907 0.0
C91 C 0.01927 0.12276 0.25793 0.0
C92 C 0.99019 0.16198 0.28792 0.0
C93 C 0.07073 0.10652 0.27449 0.0
C94 C 0.09178 0.12826 0.32339 0.0
C95 C 0.06258 0.16715 0.35481 0.0
C96 C 0.01175 0.18433 0.33632 0.0
H97 H 0.4965 0.61103 0.71612 0.0
H98 H 0.37083 0.6173 0.83536 0.0
H99 H 0.51166 0.71906 0.85548 0.0
C100 C 0.48042 0.62705 0.75437 0.0
C101 C 0.50935 0.66685 0.78381 0.0
C102 C 0.43039 0.60898 0.77256 0.0
C103 C 0.4105 0.62992 0.82219 0.0
C104 C 0.43953 0.66953 0.85294 0.0
C105 C 0.4891 0.6881 0.8331 0.0
H106 H 0.8064 0.85767 0.06229 0.0
H107 H 0.84257 0.75731 0.18289 0.0
H108 H 0.68427 0.8311 0.1787 0.0
C109 C 0.79301 0.83692 0.09526 0.0
C110 C 0.74071 0.84678 0.1169 0.0
C111 C 0.8306 0.80596 0.1196 0.0
C112 C 0.81329 0.78023 0.16294 0.0
C113 C 0.75999 0.78806 0.18393 0.0
C114 C 0.72414 0.82219 0.16113 0.0
H115 H 0.69972 0.36112 0.56482 0.0
H116 H 0.65815 0.25902 0.68193 0.0
H117 H 0.8119 0.34234 0.69224 0.0
C118 C 0.71115 0.3412 0.59902 0.0
C119 C 0.76137 0.35305 0.62449 0.0
C120 C 0.67262 0.30947 0.621 0.0
C121 C 0.68757 0.2844 0.66558 0.0
C122 C 0.73833 0.29515 0.69148 0.0
C123 C 0.77477 0.33023 0.67081 0.0
H124 H 0.5034 0.36628 0.32429 0.0
H125 H 0.62575 0.36495 0.20212 0.0
H126 H 0.49429 0.25224 0.18953 0.0
C127 C 0.51951 0.35057 0.28596 0.0
C128 C 0.49343 0.30769 0.2587 0.0
C129 C 0.56692 0.37195 0.26565 0.0
C130 C 0.58834 0.34935 0.21727 0.0
C131 C 0.56259 0.30612 0.1891 0.0
C132 C 0.51478 0.28543 0.21029 0.0
H133 H 0.2047 0.12393 0.98299 0.0
H134 H 0.16219 0.2297 0.86966 0.0
H135 H 0.31204 0.14107 0.85166 0.0
C136 C 0.21548 0.14416 0.94884 0.0
C137 C 0.26401 0.13077 0.92107 0.0
C138 C 0.17712 0.17745 0.92882 0.0
C139 C 0.19133 0.20309 0.88445 0.0
C140 C 0.24057 0.19112 0.85644 0.0
C141 C 0.27639 0.15418 0.87485 0.0
H142 H 0.30381 0.62251 0.47862 0.0
H143 H 0.34026 0.72493 0.36002 0.0
H144 H 0.18415 0.64637 0.35889 0.0
C145 C 0.29074 0.64314 0.44544 0.0
C146 C 0.23953 0.6316 0.42194 0.0
C147 C 0.32804 0.6755 0.42253 0.0
C148 C 0.31108 0.70111 0.37896 0.0
C149 C 0.25859 0.69195 0.35635 0.0
C150 C 0.22328 0.65633 0.37766 0.0
H151 H 0.99911 0.87118 0.82057 0.0
H152 H 0.00865 0.75617 0.68681 0.0
H153 H 0.87824 0.86979 0.69671 0.0
C154 C 0.98334 0.85539 0.7821 0.0
C155 C 0.93642 0.87697 0.76096 0.0
C156 C 0.0092 0.81208 0.75555 0.0
C157 C 0.98824 0.78965 0.70699 0.0
C158 C 0.94092 0.81045 0.68493 0.0
C159 C 0.91533 0.8541 0.71243 0.0
C160 C 0.12982 0.0383 0.14809 0.0
C161 C 0.15585 -0.0048 0.16649 0.0
H162 H 0.08424 0.10764 0.16777 0.0
C163 C 0.15811 -0.00895 0.2216 0.0
H164 H 0.12828 0.04311 0.10592 0.0
C165 C 0.13186 0.028 0.25735 0.0
C166 C 0.10335 0.06962 0.23837 0.0
H167 H 0.17791 0.95816 0.23681 0.0
H168 H 0.13201 0.02289 0.29945 0.0
C169 C 0.10426 0.07515 0.18354 0.0
C170 C 0.64024 0.6595 0.71008 0.0
C171 C 0.62856 0.69406 0.67202 0.0
H172 H 0.6107 0.6246 0.77798 0.0
C173 C 0.58686 0.73097 0.68266 0.0
H174 H 0.67241 0.63083 0.7029 0.0
C175 C 0.5516 0.72741 0.72595 0.0
C176 C 0.5583 0.68734 0.75895 0.0
H177 H 0.5768 0.75783 0.65386 0.0
H178 H 0.51524 0.75153 0.72942 0.0
C179 C 0.60514 0.65602 0.75323 0.0
C180 C 0.7188 0.98617 0.11547 0.0
C181 C 0.71578 0.98876 0.06027 0.0
H182 H 0.72536 0.93653 0.17782 0.0
C183 C 0.7017 0.94425 0.02676 0.0
H184 H 0.72951 0.02022 0.14192 0.0
C185 C 0.70028 0.89614 0.04718 0.0
C186 C 0.71191 0.89274 0.10127 0.0
H187 H 0.69942 0.94547 0.98399 0.0
H188 H 0.69748 0.86134 0.01973 0.0
C189 C 0.71596 0.93832 0.13603 0.0
C190 C 0.52593 0.26873 0.58464 0.0
C191 C 0.50239 0.31649 0.57491 0.0
H192 H 0.59858 0.22863 0.60602 0.0
C193 C 0.53553 0.36103 0.57976 0.0
H194 H 0.50161 0.2336 0.58116 0.0
C195 C 0.59055 0.35812 0.59394 0.0
C196 C 0.61441 0.31052 0.60334 0.0
H197 H 0.51896 0.39857 0.57303 0.0
H198 H 0.61416 0.39369 0.59867 0.0
C199 C 0.58144 0.26581 0.59883 0.0
C200 C 0.58743 0.49336 0.35963 0.0
C201 C 0.64455 0.49413 0.36685 0.0
H202 H 0.51856 0.45578 0.3204 0.0
C203 C 0.67701 0.45764 0.33639 0.0
H204 H 0.56155 0.5217 0.38201 0.0
C205 C 0.65214 0.41878 0.30179 0.0
C206 C 0.59455 0.41648 0.29663 0.0
H207 H 0.72116 0.45749 0.34143 0.0
H208 H 0.67784 0.38927 0.2811 0.0
C209 C 0.5628 0.4554 0.32455 0.0
C210 C 0.03006 0.21767 0.96471 0.0
C211 C 0.00668 0.16966 0.97367 0.0
H212 H 0.10285 0.25837 0.9446 0.0
C213 C 0.04024 0.12543 0.96941 0.0
H214 H 0.00537 0.25254 0.96782 0.0
C215 C 0.09535 0.12875 0.95614 0.0
C216 C 0.11911 0.1765 0.94716 0.0
H217 H 0.02386 0.08764 0.97549 0.0
H218 H 0.11893 0.09322 0.95137 0.0
C219 C 0.08584 0.22105 0.95151 0.0
C220 C 0.19945 0.53066 0.50838 0.0
C221 C 0.21422 0.48674 0.47422 0.0
H222 H 0.19511 0.61357 0.51756 0.0
C223 C 0.21902 0.49092 0.41936 0.0
H224 H 0.19554 0.52844 0.55088 0.0
C225 C 0.21718 0.5395 0.40017 0.0
C226 C 0.2119 0.5843 0.43589 0.0
H227 H 0.23 0.45747 0.39224 0.0
H228 H 0.22764 0.54241 0.35882 0.0
C229 C 0.19889 0.57941 0.48935 0.0
C230 C 0.14 0.81535 0.82996 0.0
C231 C 0.12657 0.7823 0.86887 0.0
H232 H 0.11245 0.84973 0.76099 0.0
C233 C 0.08268 0.74747 0.85949 0.0
H234 H 0.17364 0.84261 0.83647 0.0
C235 C 0.04751 0.75171 0.81618 0.0
C236 C 0.05655 0.79034 0.78194 0.0
H237 H 0.0712 0.72207 0.88923 0.0
H238 H 0.00981 0.72943 0.81346 0.0
C239 C 0.1051 0.8194 0.78672 0.0
C240 C 0.8261 0.96287 0.83059 0.0
C241 C 0.85846 -0.00116 0.86196 0.0
H242 H 0.82542 0.89499 0.77462 0.0
C243 C 0.91562 -0.00196 0.85539 0.0
H244 H 0.78192 0.96271 0.83524 0.0
C245 C 0.9404 0.96038 0.82013 0.0
C246 C 0.90873 0.92173 0.79147 0.0
H247 H 0.94139 0.02592 0.87866 0.0
H248 H 0.9847 0.96061 0.81662 0.0
C249 C 0.8511 0.92427 0.79585 0.0
C250 C 0.36202 0.31297 0.33134 0.0
C251 C 0.37459 0.28009 0.37065 0.0
H252 H 0.39071 0.34638 0.26227 0.0
C253 C 0.41776 0.24447 0.36181 0.0
H254 H 0.32893 0.34083 0.33745 0.0
C255 C 0.4533 0.24783 0.3187 0.0
C256 C 0.44531 0.28637 0.28413 0.0
H257 H 0.42855 0.21917 0.39187 0.0
H258 H 0.49062 0.22503 0.31649 0.0
C259 C 0.39724 0.3161 0.28826 0.0
C260 C 0.30765 0.02826 0.00438 0.0
C261 C 0.28982 0.98491 0.97095 0.0
H262 H 0.31414 0.11105 0.01375 0.0
C263 C 0.28194 0.98951 0.91648 0.0
H264 H 0.3139 0.0257 0.04659 0.0
C265 C 0.2834 0.03819 0.8975 0.0
C266 C 0.29152 0.08269 0.93312 0.0
H267 H 0.26846 0.95648 0.88993 0.0
H268 H 0.27039 0.04154 0.85688 0.0
C269 C 0.30795 0.07715 0.98563 0.0
C270 C 0.46618 0.62498 0.46125 0.0
C271 C 0.49872 0.66993 0.46685 0.0
H272 H 0.38812 0.59153 0.44191 0.0
C273 C 0.47486 0.7175 0.45716 0.0
H274 H 0.48319 0.58747 0.46744 0.0
C275 C 0.41924 0.71993 0.44302 0.0
C276 C 0.38676 0.67484 0.43839 0.0
H277 H 0.4989 0.75281 0.46107 0.0
H278 H 0.40153 0.757 0.43628 0.0
C279 C 0.41125 0.62737 0.44698 0.0
C280 C 0.36844 0.53877 0.64831 0.0
C281 C 0.34549 0.4945 0.66741 0.0
H282 H 0.41168 0.60981 0.66655 0.0
C283 C 0.34624 0.49006 0.72251 0.0
H284 H 0.36761 0.54388 0.60619 0.0
C285 C 0.3724 0.52799 0.75739 0.0
C286 C 0.39788 0.57085 0.73756 0.0
H287 H 0.32887 0.45633 0.73829 0.0
H288 H 0.37458 0.52276 0.79941 0.0
C289 C 0.39401 0.57649 0.68289 0.0
C290 C 0.96843 0.85878 0.08277 0.0
C291 C 0.00126 0.81411 0.07639 0.0
H292 H 0.88987 0.89116 0.10228 0.0
C293 C 0.97778 0.76615 0.08551 0.0
H294 H 0.98507 0.89651 0.07684 0.0
C295 C 0.92233 0.76302 0.09973 0.0
C296 C 0.8895 0.80775 0.10487 0.0
H297 H 0.00197 0.73098 0.08102 0.0
H298 H 0.90495 0.72564 0.10587 0.0
C299 C 0.91351 0.85566 0.097 0.0
C300 C 0.80524 0.44991 0.53539 0.0
C301 C 0.78856 0.49458 0.56725 0.0
H302 H 0.81059 0.36712 0.52992 0.0
C303 C 0.78204 0.49273 0.62227 0.0
H304 H 0.81017 0.45055 0.49276 0.0
C305 C 0.78378 0.44528 0.64372 0.0
C306 C 0.79042 0.39935 0.60994 0.0
H307 H 0.76919 0.52689 0.64743 0.0
H308 H 0.77163 0.44394 0.68489 0.0
C309 C 0.80567 0.4022 0.55663 0.0
C310 C 0.91081 0.22675 0.18887 0.0
C311 C 0.87183 0.18774 0.1753 0.0
H312 H 0.97991 0.24952 0.23855 0.0
C313 C 0.86131 0.15092 0.21132 0.0
H314 H 0.91984 0.25544 0.1617 0.0
C315 C 0.89543 0.14776 0.25531 0.0
C316 C 0.94026 0.18147 0.26375 0.0
H317 H 0.83115 0.12066 0.2019 0.0
H318 H 0.89125 0.1149 0.27837 0.0
C319 C 0.94514 0.22347 0.23298 0.0
C320 C 0.20992 0.70608 0.2157 0.0
C321 C 0.22685 0.75683 0.20919 0.0
H322 H 0.20756 0.64534 0.26706 0.0
C323 C 0.25016 0.78725 0.25274 0.0
H324 H 0.19191 0.68168 0.18285 0.0
C325 C 0.25833 0.76677 0.30113 0.0
C326 C 0.24379 0.71529 0.307 0.0
H327 H 0.26286 0.8268 0.24928 0.0
H328 H 0.27698 0.79101 0.33375 0.0
C329 C 0.21858 0.6854 0.26408 0.0
C330 C 0.88127 0.7063 0.58524 0.0
C331 C 0.84913 0.73614 0.5537 0.0
H332 H 0.93434 0.70629 0.65262 0.0
C333 C 0.85378 0.79026 0.56032 0.0
H334 H 0.87789 0.66444 0.58116 0.0
C335 C 0.88726 0.81436 0.6003 0.0
C336 C 0.91532 0.78482 0.63557 0.0
H337 H 0.82965 0.814 0.53606 0.0
H338 H 0.88903 0.85628 0.6051 0.0
C339 C 0.91369 0.73042 0.62621 0.0
C340 C 0.65026 0.28709 0.06511 0.0
C341 C 0.65519 0.233 0.05827 0.0
H342 H 0.6146 0.3527 0.11005 0.0
C343 C 0.62311 0.20281 0.08952 0.0
H344 H 0.67418 0.31112 0.041 0.0
C345 C 0.59041 0.22654 0.13033 0.0
C346 C 0.58849 0.28088 0.13988 0.0
H347 H 0.62655 0.16095 0.08519 0.0
H348 H 0.56968 0.2022 0.15647 0.0
C349 C 0.61658 0.31079 0.10501 0.0
C350 C 0.21651 0.24215 0.72267 0.0
C351 C 0.27002 0.25263 0.70662 0.0
H352 H 0.16541 0.21219 0.78051 0.0
C353 C 0.3144 0.24207 0.73925 0.0
H354 H 0.18171 0.24928 0.69761 0.0
C355 C 0.30503 0.22272 0.78831 0.0
C356 C 0.2512 0.21243 0.80477 0.0
H357 H 0.35604 0.25018 0.72756 0.0
H358 H 0.33988 0.21649 0.81356 0.0
C359 C 0.20723 0.22151 0.77068 0.0
C360 C 0.70935 0.77386 0.32377 0.0
C361 C 0.72603 0.72309 0.33049 0.0
H362 H 0.70765 0.83456 0.27223 0.0
C363 C 0.74985 0.69273 0.28719 0.0
H364 H 0.69091 0.79823 0.35633 0.0
C365 C 0.75891 0.71332 0.23903 0.0
C366 C 0.74452 0.76474 0.23302 0.0
H367 H 0.76249 0.65319 0.2907 0.0
H368 H 0.77813 0.68923 0.20671 0.0
C369 C 0.71866 0.79456 0.27549 0.0
C370 C 0.81528 0.24199 0.80576 0.0
C371 C 0.77195 0.23318 0.84019 0.0
H372 H 0.83844 0.26647 0.73034 0.0
C373 C 0.71832 0.24613 0.82668 0.0
H374 H 0.85694 0.23182 0.81554 0.0
C375 C 0.70778 0.26719 0.77914 0.0
C376 C 0.75048 0.27421 0.74304 0.0
H377 H 0.68443 0.24011 0.85318 0.0
H378 H 0.66598 0.27814 0.77103 0.0
C379 C 0.80455 0.26183 0.75718 0.0
C380 C 0.1185 0.27134 0.45641 0.0
C381 C 0.15409 0.24236 0.48573 0.0
H382 H 0.06238 0.2704 0.39116 0.0
C383 C 0.15305 0.18808 0.47689 0.0
H384 H 0.1186 0.31329 0.4622 0.0
C385 C 0.12009 0.16341 0.43681 0.0
C386 C 0.08825 0.19255 0.4041 0.0
H387 H 0.17953 0.16475 0.49942 0.0
H388 H 0.12147 0.12154 0.42986 0.0
C389 C 0.08614 0.24668 0.4157 0.0
C390 C 0.35139 0.68841 0.97654 0.0
C391 C 0.34964 0.74263 0.98568 0.0
H392 H 0.38329 0.62255 0.92886 0.0
C393 C 0.38437 0.77232 0.95635 0.0
H394 H 0.32543 0.66462 -0.00093 0.0
C395 C 0.41637 0.74836 0.91506 0.0
C396 C 0.41481 0.69422 0.90301 0.0
H397 H 0.38351 0.81425 0.96237 0.0
H398 H 0.4392 0.77262 0.89037 0.0
C399 C 0.38415 0.66441 0.93602 0.0
loop_
_geom_bond_atom_site_label_1
_geom_bond_atom_site_label_2
_geom_bond_distance
_geom_bond_site_symmetry_2
_ccdc_geom_bond_type
Sc0 O3 2.025 . S
Sc0 O10 2.094 1_554 S
Sc0 O13 2.105 . S
Sc0 O16 2.105 . S
Sc0 O19 2.105 1_554 S
Sc1 O3 2.025 . S
Sc1 O11 2.105 1_554 S
Sc1 O15 2.105 . S
Sc1 O17 2.105 . S
Sc1 O21 2.105 1_554 S
Sc2 O3 2.025 . S
Sc2 O12 2.105 . S
Sc2 O14 2.105 . S
Sc2 O18 2.105 . S
Sc2 O20 2.105 . S
O3 Sc0 2.025 . S
O3 Sc1 2.025 . S
O3 Sc2 2.025 . S
C4 O10 1.269 . S
C4 O20 1.268 1_556 S
C5 O11 1.268 . S
C5 O19 1.268 . S
C6 O12 1.268 1_556 S
C6 O21 1.268 . S
C7 O13 1.268 . S
C7 O17 1.268 . S
C8 O14 1.268 . S
C8 O16 1.268 . S
C9 O15 1.268 . S
C9 O18 1.268 . S
O10 Sc0 2.094 1_556 S
O10 C4 1.269 . S
O11 Sc1 2.105 1_556 S
O11 C5 1.268 . S
O12 Sc2 2.105 . S
O12 C6 1.268 1_554 S
O13 Sc0 2.105 . S
O13 C7 1.268 . S
O14 Sc2 2.105 . S
O14 C8 1.268 . S
O15 Sc1 2.105 . S
O15 C9 1.268 . S
O16 Sc0 2.105 . S
O16 C8 1.268 . S
O17 Sc1 2.105 . S
O17 C7 1.268 . S
O18 Sc2 2.105 . S
O18 C9 1.268 . S
O19 Sc0 2.105 1_556 S
O19 C5 1.268 . S
O20 Sc2 2.105 . S
O20 C4 1.268 1_554 S
O21 Sc1 2.105 1_556 S
O21 C6 1.268 . S
Sc22 O25 2.025 . S
Sc22 O32 2.105 . S
Sc22 O35 2.105 . S
Sc22 O38 2.105 . S
Sc22 O41 2.105 . S
Sc23 O25 2.025 . S
Sc23 O33 2.105 . S
Sc23 O37 2.105 . S
Sc23 O39 2.105 . S
Sc23 O43 2.105 . S
Sc24 O25 2.025 . S
Sc24 O34 2.105 . S
Sc24 O36 2.105 . S
Sc24 O40 2.105 . S
Sc24 O42 2.105 . S
O25 Sc22 2.025 . S
O25 Sc23 2.025 . S
O25 Sc24 2.025 . S
C26 O32 1.268 . S
C26 O42 1.268 . S
C27 O33 1.268 . S
C27 O41 1.268 . S
C28 O34 1.268 . S
C28 O43 1.268 . S
C29 O35 1.268 . S
C29 O39 1.268 . S
C30 O36 1.268 . S
C30 O38 1.268 . S
C31 O37 1.268 . S
C31 O40 1.268 . S
O32 Sc22 2.105 . S
O32 C26 1.268 . S
O33 Sc23 2.105 . S
O33 C27 1.268 . S
O34 Sc24 2.105 . S
O34 C28 1.268 . S
O35 Sc22 2.105 . S
O35 C29 1.268 . S
O36 Sc24 2.105 . S
O36 C30 1.268 . S
O37 Sc23 2.105 . S
O37 C31 1.268 . S
O38 Sc22 2.105 . S
O38 C30 1.268 . S
O39 Sc23 2.105 . S
O39 C29 1.268 . S
O40 Sc24 2.105 . S
O40 C31 1.268 . S
O41 Sc22 2.105 . S
O41 C27 1.268 . S
O42 Sc24 2.105 . S
O42 C26 1.268 . S
O43 Sc23 2.105 . S
O43 C28 1.268 . S
Sc44 O47 2.026 . S
Sc44 O54 2.105 1_554 S
Sc44 O57 2.105 . S
Sc44 O60 2.105 . S
Sc44 O63 2.105 1_554 S
Sc45 O47 2.025 1_556 S
Sc45 O55 2.105 . S
Sc45 O59 2.105 1_556 S
Sc45 O61 2.105 1_556 S
Sc45 O65 2.105 . S
Sc46 O47 2.026 . S
Sc46 O56 2.105 1_554 S
Sc46 O58 2.105 . S
Sc46 O62 2.105 . S
Sc46 O64 2.105 1_554 S
O47 Sc44 2.026 . S
O47 Sc45 2.025 1_554 S
O47 Sc46 2.026 . S
C48 O54 1.268 . S
C48 O64 1.268 . S
C49 O55 1.268 . S
C49 O63 1.268 . S
C50 O56 1.268 . S
C50 O65 1.268 . S
C51 O57 1.268 . S
C51 O61 1.268 . S
C52 O58 1.268 . S
C52 O60 1.268 . S
C53 O59 1.268 . S
C53 O62 1.268 . S
O54 Sc44 2.105 1_556 S
O54 C48 1.268 . S
O55 Sc45 2.105 . S
O55 C49 1.268 . S
O56 Sc46 2.105 1_556 S
O56 C50 1.268 . S
O57 Sc44 2.105 . S
O57 C51 1.268 . S
O58 Sc46 2.105 . S
O58 C52 1.268 . S
O59 Sc45 2.105 1_554 S
O59 C53 1.268 . S
O60 Sc44 2.105 . S
O60 C52 1.268 . S
O61 Sc45 2.105 1_554 S
O61 C51 1.268 . S
O62 Sc46 2.105 . S
O62 C53 1.268 . S
O63 Sc44 2.105 1_556 S
O63 C49 1.268 . S
O64 Sc46 2.105 1_556 S
O64 C48 1.268 . S
O65 Sc45 2.105 . S
O65 C50 1.268 . S
Sc66 O69 2.025 . S
Sc66 O76 2.105 . S
Sc66 O79 2.105 . S
Sc66 O82 2.105 . S
Sc66 O85 2.105 . S
Sc67 O69 2.025 . S
Sc67 O77 2.105 . S
Sc67 O81 2.105 . S
Sc67 O83 2.105 . S
Sc67 O87 2.105 . S
Sc68 O69 2.025 . S
Sc68 O78 2.105 . S
Sc68 O80 2.105 . S
Sc68 O84 2.105 . S
Sc68 O86 2.105 . S
O69 Sc66 2.025 . S
O69 Sc67 2.025 . S
O69 Sc68 2.025 . S
C70 O76 1.268 . S
C70 O86 1.268 . S
C71 O77 1.268 . S
C71 O85 1.268 . S
C72 O78 1.268 . S
C72 O87 1.268 . S
C73 O79 1.268 . S
C73 O83 1.268 . S
C74 O80 1.268 . S
C74 O82 1.268 . S
C75 O81 1.268 . S
C75 O84 1.268 . S
O76 Sc66 2.105 . S
O76 C70 1.268 . S
O77 Sc67 2.105 . S
O77 C71 1.268 . S
O78 Sc68 2.105 . S
O78 C72 1.268 . S
O79 Sc66 2.105 . S
O79 C73 1.268 . S
O80 Sc68 2.105 . S
O80 C74 1.268 . S
O81 Sc67 2.105 . S
O81 C75 1.268 . S
O82 Sc66 2.105 . S
O82 C74 1.268 . S
O83 Sc67 2.105 . S
O83 C73 1.268 . S
O84 Sc68 2.105 . S
O84 C75 1.268 . S
O85 Sc66 2.105 . S
O85 C71 1.268 . S
O86 Sc68 2.105 . S
O86 C70 1.268 . S
O87 Sc67 2.105 . S
O87 C72 1.268 . S
H88 C91 0.931 . S
H89 C94 0.928 . S
H90 C96 0.930 . S
C91 H88 0.931 . S
C91 C92 1.413 . S
C91 C93 1.360 . S
C92 C91 1.413 . S
C92 C96 1.429 . S
C93 C91 1.360 . S
C93 C94 1.372 . S
C94 H89 0.928 . S
C94 C93 1.372 . S
C94 C95 1.404 . S
C95 C94 1.404 . S
C95 C96 1.391 . S
C96 H90 0.930 . S
C96 C92 1.429 . S
C96 C95 1.391 . S
H97 C100 0.931 . S
H98 C103 0.928 . S
H99 C105 0.930 . S
C100 H97 0.931 . S
C100 C101 1.413 . S
C100 C102 1.360 . S
C101 C100 1.413 . S
C101 C105 1.429 . S
C102 C100 1.360 . S
C102 C103 1.372 . S
C103 H98 0.928 . S
C103 C102 1.372 . S
C103 C104 1.404 . S
C104 C103 1.404 . S
C104 C105 1.391 . S
C105 H99 0.930 . S
C105 C101 1.429 . S
C105 C104 1.391 . S
H106 C109 0.931 . S
H107 C112 0.928 . S
H108 C114 0.930 . S
C109 H106 0.931 . S
C109 C110 1.413 . S
C109 C111 1.360 . S
C110 C109 1.413 . S
C110 C114 1.429 . S
C111 C109 1.360 . S
C111 C112 1.372 . S
C112 H107 0.928 . S
C112 C111 1.372 . S
C112 C113 1.404 . S
C113 C112 1.404 . S
C113 C114 1.391 . S
C114 H108 0.930 . S
C114 C110 1.429 . S
C114 C113 1.391 . S
H115 C118 0.931 . S
H116 C121 0.928 . S
H117 C123 0.930 . S
C118 H115 0.931 . S
C118 C119 1.413 . S
C118 C120 1.360 . S
C119 C118 1.413 . S
C119 C123 1.429 . S
C120 C118 1.360 . S
C120 C121 1.372 . S
C121 H116 0.928 . S
C121 C120 1.372 . S
C121 C122 1.404 . S
C122 C121 1.404 . S
C122 C123 1.391 . S
C123 H117 0.930 . S
C123 C119 1.429 . S
C123 C122 1.391 . S
H124 C127 0.931 . S
H125 C130 0.928 . S
H126 C132 0.930 . S
C127 H124 0.931 . S
C127 C128 1.413 . S
C127 C129 1.360 . S
C128 C127 1.413 . S
C128 C132 1.429 . S
C129 C127 1.360 . S
C129 C130 1.372 . S
C130 H125 0.928 . S
C130 C129 1.372 . S
C130 C131 1.404 . S
C131 C130 1.404 . S
C131 C132 1.391 . S
C132 H126 0.930 . S
C132 C128 1.429 . S
C132 C131 1.391 . S
H133 C136 0.931 . S
H134 C139 0.928 . S
H135 C141 0.930 . S
C136 H133 0.931 . S
C136 C137 1.413 . S
C136 C138 1.360 . S
C137 C136 1.413 . S
C137 C141 1.429 . S
C138 C136 1.360 . S
C138 C139 1.372 . S
C139 H134 0.928 . S
C139 C138 1.372 . S
C139 C140 1.404 . S
C140 C139 1.404 . S
C140 C141 1.391 . S
C141 H135 0.930 . S
C141 C137 1.429 . S
C141 C140 1.391 . S
H142 C145 0.931 . S
H143 C148 0.928 . S
H144 C150 0.930 . S
C145 H142 0.931 . S
C145 C146 1.413 . S
C145 C147 1.360 . S
C146 C145 1.413 . S
C146 C150 1.429 . S
C147 C145 1.360 . S
C147 C148 1.372 . S
C148 H143 0.928 . S
C148 C147 1.372 . S
C148 C149 1.404 . S
C149 C148 1.404 . S
C149 C150 1.391 . S
C150 H144 0.930 . S
C150 C146 1.429 . S
C150 C149 1.391 . S
H151 C154 0.931 . S
H152 C157 0.928 . S
H153 C159 0.930 . S
C154 H151 0.931 . S
C154 C155 1.413 . S
C154 C156 1.360 . S
C155 C154 1.413 . S
C155 C159 1.429 . S
C156 C154 1.360 . S
C156 C157 1.372 . S
C157 H152 0.928 . S
C157 C156 1.372 . S
C157 C158 1.404 . S
C158 C157 1.404 . S
C158 C159 1.391 . S
C159 H153 0.930 . S
C159 C155 1.429 . S
C159 C158 1.391 . S
C160 C161 1.387 1_545 S
C160 H164 0.950 . S
C160 C169 1.390 . S
C161 C160 1.387 1_565 S
C161 C163 1.387 . S
H162 C169 0.950 . S
C163 C161 1.387 . S
C163 C165 1.390 . S
C163 H167 0.950 . S
H164 C160 0.950 . S
C165 C163 1.390 . S
C165 C166 1.387 1_565 S
C165 H168 0.950 . S
C166 C165 1.387 1_545 S
C166 C169 1.387 . S
H167 C163 0.950 . S
H168 C165 0.950 . S
C169 C160 1.390 . S
C169 H162 0.950 . S
C169 C166 1.387 . S
C170 C171 1.387 . S
C170 H174 0.950 . S
C170 C179 1.390 . S
C171 C170 1.387 . S
C171 C173 1.387 . S
H172 C179 0.950 . S
C173 C171 1.387 . S
C173 C175 1.390 . S
C173 H177 0.950 . S
H174 C170 0.950 . S
C175 C173 1.390 . S
C175 C176 1.387 . S
C175 H178 0.950 . S
C176 C175 1.387 . S
C176 C179 1.387 . S
H177 C173 0.950 . S
H178 C175 0.950 . S
C179 C170 1.390 . S
C179 H172 0.950 . S
C179 C176 1.387 . S
C180 C181 1.387 . S
C180 H184 0.950 . S
C180 C189 1.390 1_545 S
C181 C180 1.387 . S
C181 C183 1.387 1_545 S
H182 C189 0.950 . S
C183 C181 1.387 1_565 S
C183 C185 1.390 . S
C183 H187 0.950 1_565 S
H184 C180 0.950 . S
C185 C183 1.390 . S
C185 C186 1.387 . S
C185 H188 0.950 . S
C186 C185 1.387 . S
C186 C189 1.387 . S
H187 C183 0.950 1_545 S
H188 C185 0.950 . S
C189 C180 1.390 1_565 S
C189 H182 0.950 . S
C189 C186 1.387 . S
C190 C191 1.387 . S
C190 H194 0.950 . S
C190 C199 1.390 . S
C191 C190 1.387 . S
C191 C193 1.387 . S
H192 C199 0.950 . S
C193 C191 1.387 . S
C193 C195 1.390 . S
C193 H197 0.950 . S
H194 C190 0.950 . S
C195 C193 1.390 . S
C195 C196 1.387 . S
C195 H198 0.950 . S
C196 C195 1.387 . S
C196 C199 1.387 . S
H197 C193 0.950 . S
H198 C195 0.950 . S
C199 C190 1.390 . S
C199 H192 0.950 . S
C199 C196 1.387 . S
C200 C201 1.387 . S
C200 H204 0.950 . S
C200 C209 1.390 . S
C201 C200 1.387 . S
C201 C203 1.387 . S
H202 C209 0.950 . S
C203 C201 1.387 . S
C203 C205 1.390 . S
C203 H207 0.950 . S
H204 C200 0.950 . S
C205 C203 1.390 . S
C205 C206 1.387 . S
C205 H208 0.950 . S
C206 C205 1.387 . S
C206 C209 1.387 . S
H207 C203 0.950 . S
H208 C205 0.950 . S
C209 C200 1.390 . S
C209 H202 0.950 . S
C209 C206 1.387 . S
C210 C211 1.387 . S
C210 H214 0.950 . S
C210 C219 1.390 . S
C211 C210 1.387 . S
C211 C213 1.387 . S
H212 C219 0.950 . S
C213 C211 1.387 . S
C213 C215 1.390 . S
C213 H217 0.950 . S
H214 C210 0.950 . S
C215 C213 1.390 . S
C215 C216 1.387 . S
C215 H218 0.950 . S
C216 C215 1.387 . S
C216 C219 1.387 . S
H217 C213 0.950 . S
H218 C215 0.950 . S
C219 C210 1.390 . S
C219 H212 0.950 . S
C219 C216 1.387 . S
C220 C221 1.387 . S
C220 H224 0.950 . S
C220 C229 1.390 . S
C221 C220 1.387 . S
C221 C223 1.387 . S
H222 C229 0.950 . S
C223 C221 1.387 . S
C223 C225 1.390 . S
C223 H227 0.950 . S
H224 C220 0.950 . S
C225 C223 1.390 . S
C225 C226 1.387 . S
C225 H228 0.950 . S
C226 C225 1.387 . S
C226 C229 1.387 . S
H227 C223 0.950 . S
H228 C225 0.950 . S
C229 C220 1.390 . S
C229 H222 0.950 . S
C229 C226 1.387 . S
C230 C231 1.387 . S
C230 H234 0.950 . S
C230 C239 1.390 . S
C231 C230 1.387 . S
C231 C233 1.387 . S
H232 C239 0.950 . S
C233 C231 1.387 . S
C233 C235 1.390 1_455 S
C233 H237 0.950 . S
H234 C230 0.950 . S
C235 C233 1.390 1_655 S
C235 C236 1.387 1_655 S
C235 H238 0.950 . S
C236 C235 1.387 1_455 S
C236 C239 1.387 . S
H237 C233 0.950 . S
H238 C235 0.950 . S
C239 C230 1.390 . S
C239 H232 0.950 . S
C239 C236 1.387 . S
C240 C241 1.387 . S
C240 H244 0.950 . S
C240 C249 1.390 1_545 S
C241 C240 1.387 . S
C241 C243 1.387 . S
H242 C249 0.950 . S
C243 C241 1.387 . S
C243 C245 1.390 1_545 S
C243 H247 0.950 . S
H244 C240 0.950 . S
C245 C243 1.390 1_565 S
C245 C246 1.387 . S
C245 H248 0.950 . S
C246 C245 1.387 . S
C246 C249 1.387 . S
H247 C243 0.950 . S
H248 C245 0.950 . S
C249 C240 1.390 1_565 S
C249 H242 0.950 . S
C249 C246 1.387 . S
C250 C251 1.387 . S
C250 H254 0.950 . S
C250 C259 1.390 . S
C251 C250 1.387 . S
C251 C253 1.387 . S
H252 C259 0.950 . S
C253 C251 1.387 . S
C253 C255 1.390 . S
C253 H257 0.950 . S
H254 C250 0.950 . S
C255 C253 1.390 . S
C255 C256 1.387 . S
C255 H258 0.950 . S
C256 C255 1.387 . S
C256 C259 1.387 . S
H257 C253 0.950 . S
H258 C255 0.950 . S
C259 C250 1.390 . S
C259 H252 0.950 . S
C259 C256 1.387 . S
C260 C261 1.387 1_544 S
C260 H264 0.950 . S
C260 C269 1.390 1_554 S
C261 C260 1.387 1_566 S
C261 C263 1.387 . S
H262 C269 0.950 1_554 S
C263 C261 1.387 . S
C263 C265 1.390 1_565 S
C263 H267 0.950 . S
H264 C260 0.950 . S
C265 C263 1.390 1_545 S
C265 C266 1.387 . S
C265 H268 0.950 . S
C266 C265 1.387 . S
C266 C269 1.387 . S
H267 C263 0.950 . S
H268 C265 0.950 . S
C269 C260 1.390 1_556 S
C269 H262 0.950 1_556 S
C269 C266 1.387 . S
C270 C271 1.387 . S
C270 H274 0.950 . S
C270 C279 1.390 . S
C271 C270 1.387 . S
C271 C273 1.387 . S
H272 C279 0.950 . S
C273 C271 1.387 . S
C273 C275 1.390 . S
C273 H277 0.950 . S
H274 C270 0.950 . S
C275 C273 1.390 . S
C275 C276 1.387 . S
C275 H278 0.950 . S
C276 C275 1.387 . S
C276 C279 1.387 . S
H277 C273 0.950 . S
H278 C275 0.950 . S
C279 C270 1.390 . S
C279 H272 0.950 . S
C279 C276 1.387 . S
C280 C281 1.387 . S
C280 H284 0.950 . S
C280 C289 1.390 . S
C281 C280 1.387 . S
C281 C283 1.387 . S
H282 C289 0.950 . S
C283 C281 1.387 . S
C283 C285 1.390 . S
C283 H287 0.950 . S
H284 C280 0.950 . S
C285 C283 1.390 . S
C285 C286 1.387 . S
C285 H288 0.950 . S
C286 C285 1.387 . S
C286 C289 1.387 . S
H287 C283 0.950 . S
H288 C285 0.950 . S
C289 C280 1.390 . S
C289 H282 0.950 . S
C289 C286 1.387 . S
C290 C291 1.387 . S
C290 H294 0.950 . S
C290 C299 1.390 . S
C291 C290 1.387 . S
C291 C293 1.387 . S
H292 C299 0.950 . S
C293 C291 1.387 . S
C293 C295 1.390 . S
C293 H297 0.950 . S
H294 C290 0.950 . S
C295 C293 1.390 . S
C295 C296 1.387 . S
C295 H298 0.950 . S
C296 C295 1.387 . S
C296 C299 1.387 . S
H297 C293 0.950 . S
H298 C295 0.950 . S
C299 C290 1.390 . S
C299 H292 0.950 . S
C299 C296 1.387 . S
C300 C301 1.387 . S
C300 H304 0.950 . S
C300 C309 1.390 . S
C301 C300 1.387 . S
C301 C303 1.387 . S
H302 C309 0.950 . S
C303 C301 1.387 . S
C303 C305 1.390 . S
C303 H307 0.950 . S
H304 C300 0.950 . S
C305 C303 1.390 . S
C305 C306 1.387 . S
C305 H308 0.950 . S
C306 C305 1.387 . S
C306 C309 1.387 . S
H307 C303 0.950 . S
H308 C305 0.950 . S
C309 C300 1.390 . S
C309 H302 0.950 . S
C309 C306 1.387 . S
C310 C311 1.387 . S
C310 H314 0.950 . S
C310 C319 1.390 . S
C311 C310 1.387 . S
C311 C313 1.387 . S
H312 C319 0.950 1_455 S
C313 C311 1.387 . S
C313 C315 1.390 . S
C313 H317 0.950 . S
H314 C310 0.950 . S
C315 C313 1.390 . S
C315 C316 1.387 . S
C315 H318 0.950 . S
C316 C315 1.387 . S
C316 C319 1.387 . S
H317 C313 0.950 . S
H318 C315 0.950 . S
C319 C310 1.390 . S
C319 H312 0.950 1_655 S
C319 C316 1.387 . S
C320 C321 1.387 . S
C320 H324 0.950 . S
C320 C329 1.390 . S
C321 C320 1.387 . S
C321 C323 1.387 . S
H322 C329 0.950 . S
C323 C321 1.387 . S
C323 C325 1.390 . S
C323 H327 0.950 . S
H324 C320 0.950 . S
C325 C323 1.390 . S
C325 C326 1.387 . S
C325 H328 0.950 . S
C326 C325 1.387 . S
C326 C329 1.387 . S
H327 C323 0.950 . S
H328 C325 0.950 . S
C329 C320 1.390 . S
C329 H322 0.950 . S
C329 C326 1.387 . S
C330 C331 1.387 . S
C330 H334 0.950 . S
C330 C339 1.390 . S
C331 C330 1.387 . S
C331 C333 1.387 . S
H332 C339 0.950 . S
C333 C331 1.387 . S
C333 C335 1.390 . S
C333 H337 0.950 . S
H334 C330 0.950 . S
C335 C333 1.390 . S
C335 C336 1.387 . S
C335 H338 0.950 . S
C336 C335 1.387 . S
C336 C339 1.387 . S
H337 C333 0.950 . S
H338 C335 0.950 . S
C339 C330 1.390 . S
C339 H332 0.950 . S
C339 C336 1.387 . S
C340 C341 1.387 . S
C340 H344 0.950 . S
C340 C349 1.390 . S
C341 C340 1.387 . S
C341 C343 1.387 . S
H342 C349 0.950 . S
C343 C341 1.387 . S
C343 C345 1.390 . S
C343 H347 0.950 . S
H344 C340 0.950 . S
C345 C343 1.390 . S
C345 C346 1.387 . S
C345 H348 0.950 . S
C346 C345 1.387 . S
C346 C349 1.387 . S
H347 C343 0.950 . S
H348 C345 0.950 . S
C349 C340 1.390 . S
C349 H342 0.950 . S
C349 C346 1.387 . S
C350 C351 1.387 . S
C350 H354 0.950 . S
C350 C359 1.390 . S
C351 C350 1.387 . S
C351 C353 1.387 . S
H352 C359 0.950 . S
C353 C351 1.387 . S
C353 C355 1.390 . S
C353 H357 0.950 . S
H354 C350 0.950 . S
C355 C353 1.390 . S
C355 C356 1.387 . S
C355 H358 0.950 . S
C356 C355 1.387 . S
C356 C359 1.387 . S
H357 C353 0.950 . S
H358 C355 0.950 . S
C359 C350 1.390 . S
C359 H352 0.950 . S
C359 C356 1.387 . S
C360 C361 1.387 . S
C360 H364 0.950 . S
C360 C369 1.390 . S
C361 C360 1.387 . S
C361 C363 1.387 . S
H362 C369 0.950 . S
C363 C361 1.387 . S
C363 C365 1.390 . S
C363 H367 0.950 . S
H364 C360 0.950 . S
C365 C363 1.390 . S
C365 C366 1.387 . S
C365 H368 0.950 . S
C366 C365 1.387 . S
C366 C369 1.387 . S
H367 C363 0.950 . S
H368 C365 0.950 . S
C369 C360 1.390 . S
C369 H362 0.950 . S
C369 C366 1.387 . S
C370 C371 1.387 . S
C370 H374 0.950 . S
C370 C379 1.390 . S
C371 C370 1.387 . S
C371 C373 1.387 . S
H372 C379 0.950 . S
C373 C371 1.387 . S
C373 C375 1.390 . S
C373 H377 0.950 . S
H374 C370 0.950 . S
C375 C373 1.390 . S
C375 C376 1.387 . S
C375 H378 0.950 . S
C376 C375 1.387 . S
C376 C379 1.387 . S
H377 C373 0.950 . S
H378 C375 0.950 . S
C379 C370 1.390 . S
C379 H372 0.950 . S
C379 C376 1.387 . S
C380 C381 1.387 . S
C380 H384 0.950 . S
C380 C389 1.390 . S
C381 C380 1.387 . S
C381 C383 1.387 . S
H382 C389 0.950 . S
C383 C381 1.387 . S
C383 C385 1.390 . S
C383 H387 0.950 . S
H384 C380 0.950 . S
C385 C383 1.390 . S
C385 C386 1.387 . S
C385 H388 0.950 . S
C386 C385 1.387 . S
C386 C389 1.387 . S
H387 C383 0.950 . S
H388 C385 0.950 . S
C389 C380 1.390 . S
C389 H382 0.950 . S
C389 C386 1.387 . S
C390 C391 1.387 . S
C390 H394 0.950 1_556 S
C390 C399 1.390 . S
C391 C390 1.387 . S
C391 C393 1.387 . S
H392 C399 0.950 . S
C393 C391 1.387 . S
C393 C395 1.390 . S
C393 H397 0.950 . S
H394 C390 0.950 1_554 S
C395 C393 1.390 . S
C395 C396 1.387 . S
C395 H398 0.950 . S
C396 C395 1.387 . S
C396 C399 1.387 . S
H397 C393 0.950 . S
H398 C395 0.950 . S
C399 C390 1.390 . S
C399 H392 0.950 . S
C399 C396 1.387 . S
C161 C8 1.462 . S
C166 C93 1.453 . S
C171 C31 1.375 . S
C176 C101 1.364 . S
C181 C53 1.467 . S
C186 C110 1.456 . S
C196 C120 1.441 . S
C191 C74 1.403 . S
C206 C129 1.452 . S
C201 C26 1.458 . S
C211 C48 1.404 1_455 S
C216 C138 1.441 . S
C221 C71 1.466 . S
C226 C146 1.451 . S
C231 C5 1.377 . S
C236 C156 1.371 1_455 S
C241 C50 1.457 . S
C246 C155 1.450 . S
C256 C128 1.367 . S
C251 C70 1.376 . S
C266 C137 1.452 . S
C261 C4 1.466 . S
C271 C28 1.403 . S
C276 C147 1.446 . S
C286 C102 1.443 . S
C281 C73 1.459 . S
C291 C7 1.404 1_655 S
C296 C111 1.446 . S
C306 C119 1.450 . S
C301 C30 1.464 . S
C316 C92 1.365 1_655 S
C311 C52 1.375 . S
C326 C149 1.447 . S
C321 C9 1.494 . S
C336 C158 1.367 . S
C331 C29 1.373 . S
C341 C51 1.371 . S
C346 C131 1.363 . S
C356 C140 1.440 . S
C351 C75 1.494 . S
C366 C113 1.447 . S
C361 C27 1.495 . S
C371 C49 1.494 . S
C376 C122 1.439 . S
C386 C95 1.362 . S
C381 C72 1.371 . S
C396 C104 1.357 . S
C391 C6 1.371 . S
