# Generated by pormake.
# Topology zzz, (3,6)-cn, num edge types: 1
# Building blocks:
#     Node 0, Type 0, BuildingBlock: CUQRIR_clean_linker_1, # of connection points: 3
#     Node 1, Type 0, BuildingBlock: CUQRIR_clean_linker_1, # of connection points: 3
#     Node 2, Type 0, BuildingBlock: CUQRIR_clean_linker_1, # of connection points: 3
#     Node 3, Type 0, BuildingBlock: CUQRIR_clean_linker_1, # of connection points: 3
#     Node 4, Type 0, BuildingBlock: CUQRIR_clean_linker_1, # of connection points: 3
#     Node 5, Type 0, BuildingBlock: CUQRIR_clean_linker_1, # of connection points: 3
#     Node 6, Type 0, BuildingBlock: CUQRIR_clean_linker_1, # of connection points: 3
#     Node 7, Type 0, BuildingBlock: CUQRIR_clean_linker_1, # of connection points: 3
#     Node 8, Type 1, BuildingBlock: BETDAH_clean_sbu_0, # of connection points: 6
#     Node 9, Type 1, BuildingBlock: BETDAH_clean_sbu_0, # of connection points: 6
#     Node 10, Type 1, BuildingBlock: BETDAH_clean_sbu_0, # of connection points: 6
#     Node 11, Type 1, BuildingBlock: BETDAH_clean_sbu_0, # of connection points: 6
#     Edge 12, Type (0, 1), BuildingBlock: EZIPEK_clean_linker_0, # of connection points: 2
#     Edge 13, Type (0, 1), BuildingBlock: EZIPEK_clean_linker_0, # of connection points: 2
#     Edge 14, Type (0, 1), BuildingBlock: EZIPEK_clean_linker_0, # of connection points: 2
#     Edge 15, Type (0, 1), BuildingBlock: EZIPEK_clean_linker_0, # of connection points: 2
#     Edge 16, Type (0, 1), BuildingBlock: EZIPEK_clean_linker_0, # of connection points: 2
#     Edge 17, Type (0, 1), BuildingBlock: EZIPEK_clean_linker_0, # of connection points: 2
#     Edge 18, Type (0, 1), BuildingBlock: EZIPEK_clean_linker_0, # of connection points: 2
#     Edge 19, Type (0, 1), BuildingBlock: EZIPEK_clean_linker_0, # of connection points: 2
#     Edge 20, Type (0, 1), BuildingBlock: EZIPEK_clean_linker_0, # of connection points: 2
#     Edge 21, Type (0, 1), BuildingBlock: EZIPEK_clean_linker_0, # of connection points: 2
#     Edge 22, Type (0, 1), BuildingBlock: EZIPEK_clean_linker_0, # of connection points: 2
#     Edge 23, Type (0, 1), BuildingBlock: EZIPEK_clean_linker_0, # of connection points: 2
#     Edge 24, Type (0, 1), BuildingBlock: EZIPEK_clean_linker_0, # of connection points: 2
#     Edge 25, Type (0, 1), BuildingBlock: EZIPEK_clean_linker_0, # of connection points: 2
#     Edge 26, Type (0, 1), BuildingBlock: EZIPEK_clean_linker_0, # of connection points: 2
#     Edge 27, Type (0, 1), BuildingBlock: EZIPEK_clean_linker_0, # of connection points: 2
#     Edge 28, Type (0, 1), BuildingBlock: EZIPEK_clean_linker_0, # of connection points: 2
#     Edge 29, Type (0, 1), BuildingBlock: EZIPEK_clean_linker_0, # of connection points: 2
#     Edge 30, Type (0, 1), BuildingBlock: EZIPEK_clean_linker_0, # of connection points: 2
#     Edge 31, Type (0, 1), BuildingBlock: EZIPEK_clean_linker_0, # of connection points: 2
#     Edge 32, Type (0, 1), BuildingBlock: EZIPEK_clean_linker_0, # of connection points: 2
#     Edge 33, Type (0, 1), BuildingBlock: EZIPEK_clean_linker_0, # of connection points: 2
#     Edge 34, Type (0, 1), BuildingBlock: EZIPEK_clean_linker_0, # of connection points: 2
#     Edge 35, Type (0, 1), BuildingBlock: EZIPEK_clean_linker_0, # of connection points: 2
# Relax obj value: 0.450
# Max RMSD: 0.223
# Mean RMSD: 0.157
data_MOF--net-zzz--node1-BETDAH_clean_sbu_0--node2-CUQRIR_clean_linker_1--edge1-EZIPEK_clean_linker_0
_symmetry_space_group_name_H-M    P1
_symmetry_Int_Tables_number       1
_symmetry_cell_setting            triclinic
loop_
_symmetry_equiv_pos_as_xyz
'x, y, z'
_cell_length_a     34.451604
_cell_length_b     34.337848
_cell_length_c     9.0410319
_cell_angle_alpha  89.578873
_cell_angle_beta   89.874003
_cell_angle_gamma 89.833284
loop_
_atom_site_label
_atom_site_type_symbol
_atom_site_fract_x
_atom_site_fract_y
_atom_site_fract_z
_atom_type_partial_charge
C0 C 0.7631 0.54364 0.3805 0.0
N1 N 0.79622 0.52133 0.39389 0.0
N2 N 0.74061 0.53195 0.26326 0.0
C3 C 0.75163 0.57527 0.48571 0.0
C4 C 0.76179 0.50248 0.20465 0.0
N5 N 0.79406 0.49524 0.2855 0.0
C6 C 0.7487 0.4779 0.07491 0.0
H7 H 0.73389 0.59789 0.42974 0.0
H8 H 0.77761 0.58874 0.53613 0.0
H9 H 0.73348 0.56251 0.57509 0.0
H10 H 0.77224 0.47252 0.99521 0.0
H11 H 0.72504 0.49202 0.01115 0.0
H12 H 0.73911 0.44893 0.11573 0.0
C13 C 1.02417 0.76975 0.42302 0.0
N14 N 0.04052 0.80635 0.41385 0.0
N15 N 1.02471 0.75092 0.28799 0.0
C16 C 1.01179 0.75149 0.56633 0.0
C17 C 0.03971 0.77876 0.19837 0.0
N18 N 0.05339 0.80931 0.27564 0.0
C19 C 0.04143 0.77608 0.03116 0.0
H20 H 1.00902 0.71945 0.55622 0.0
H21 H 0.98339 0.76398 0.59976 0.0
H22 H 0.03309 0.75857 0.65405 0.0
H23 H 1.02501 0.75086 0.98843 0.0
H24 H 0.07201 0.77454 0.99285 0.0
H25 H 0.02813 0.80235 0.98076 0.0
C26 C 0.79198 1.01024 0.40383 0.0
N27 N 0.75423 1.01918 0.36177 0.0
N28 N 0.81655 1.0081 0.28399 0.0
C29 C 0.80677 1.01285 0.55971 0.0
C30 C 0.79254 1.01631 0.17106 0.0
N31 N 0.75767 0.02977 0.2191 0.0
C32 C 0.80567 1.01509 0.01055 0.0
H33 H 0.83223 0.03254 0.56286 0.0
H34 H 0.81684 0.98375 0.59759 0.0
H35 H 0.7842 1.02402 0.63616 0.0
H36 H 0.83383 0.99972 0.99806 0.0
H37 H 0.80879 0.04495 0.9645 0.0
H38 H 0.78474 0.99861 0.943 0.0
C39 C 0.5377 0.79992 0.47685 0.0
N40 N 0.52106 0.76342 0.4797 0.0
N41 N 0.5319 0.81878 0.34237 0.0
C42 C 0.55674 0.81787 0.60834 0.0
C43 C 0.51212 0.79162 0.26523 0.0
N44 N 0.50358 0.76046 0.34996 0.0
C45 C 0.50133 0.79474 0.10348 0.0
H46 H 0.55878 0.84996 0.59541 0.0
H47 H 0.58633 0.80548 0.62072 0.0
H48 H 0.54018 0.81049 0.71017 0.0
H49 H 0.5069 0.76667 0.0474 0.0
H50 H 0.51819 0.81763 0.04501 0.0
H51 H 0.46981 0.80083 0.09298 0.0
C52 C 0.29287 0.52494 0.27302 0.0
N53 N 0.2563 0.541 0.26242 0.0
N54 N 0.30822 0.52916 0.41358 0.0
C55 C 0.31436 0.50853 0.14344 0.0
C56 C 0.2786 0.54655 0.48628 0.0
N57 N 0.24966 0.55648 0.39373 0.0
C58 C 0.27706 0.55374 0.65108 0.0
H59 H 0.30285 0.47913 0.11924 0.0
H60 H 0.34593 0.50636 0.16605 0.0
H61 H 0.30933 0.52706 0.04416 0.0
H62 H 0.28022 0.58532 0.67322 0.0
H63 H 0.29963 0.53705 0.71184 0.0
H64 H 0.24835 0.54491 0.69534 0.0
C65 C 0.03335 0.30811 0.24854 0.0
N66 N 1.01916 0.27067 0.24732 0.0
N67 N 0.02895 0.32522 0.38602 0.0
C68 C 0.04789 0.32864 0.11268 0.0
C69 C 1.01313 0.29576 0.46641 0.0
N70 N 1.00446 0.26508 0.38106 0.0
C71 C 1.00656 0.29598 0.63175 0.0
H72 H 0.07818 0.31927 0.09059 0.0
H73 H 0.04712 0.36071 0.1266 0.0
H74 H 0.03014 0.32035 0.01565 0.0
H75 H 0.97503 0.29798 0.65604 0.0
H76 H 1.02219 0.3201 0.68633 0.0
H77 H 1.01688 0.26811 0.68061 0.0
C78 C 0.27514 0.06237 0.35678 0.0
N79 N 0.30409 0.0348 0.34552 0.0
N80 N 0.24841 0.05296 0.46495 0.0
C81 C 0.27155 0.09674 0.25503 0.0
C82 C 0.26246 1.01872 0.51786 0.0
N83 N 0.29421 1.00698 0.44225 0.0
C84 C 0.24289 0.99461 0.63738 0.0
H85 H 0.29598 0.11696 0.27546 0.0
H86 H 0.24365 0.1123 0.27217 0.0
H87 H 0.27385 0.0869 0.13865 0.0
H88 H 0.22122 1.01182 0.70022 0.0
H89 H 0.26437 0.9832 0.71767 0.0
H90 H 0.22841 0.96924 0.58615 0.0
C91 C 0.49596 0.26113 0.29069 0.0
N92 N 0.52244 0.29082 0.27619 0.0
N93 N 0.50795 0.2336 0.39223 0.0
C94 C 0.45987 0.25794 0.19977 0.0
C95 C 0.54275 0.24738 0.43625 0.0
N96 N 0.55192 0.28058 0.36383 0.0
C97 C 0.569 0.22701 0.54704 0.0
H98 H 0.43761 0.27815 0.24416 0.0
H99 H 0.44825 0.22784 0.20322 0.0
H100 H 0.46605 0.26678 0.08377 0.0
H101 H 0.55211 0.20831 0.62404 0.0
H102 H 0.58579 0.24757 0.61487 0.0
H103 H 0.59028 0.20877 0.48649 0.0
Ho104 Ho 0.05196 1.02862 0.96087 0.0
Ho105 Ho 1.00479 0.0437 0.74335 0.0
C106 C 0.0338 0.95743 0.72854 0.0
C107 C 0.08909 0.99798 0.17847 0.0
C108 C 0.11678 0.96602 0.18606 0.0
C109 C 0.1139 0.94003 0.30411 0.0
C110 C 0.13986 0.90931 0.31623 0.0
C111 C 0.16376 0.89952 0.19557 0.0
C112 C 0.16996 0.92797 0.08496 0.0
C113 C 0.14589 0.96081 0.07835 0.0
C114 C 0.09667 0.0566 0.73051 0.0
C115 C 1.0252 0.11659 0.96626 0.0
C116 C 0.963 0.06154 0.51421 0.0
C117 C 0.93034 0.08574 0.46864 0.0
C118 C 0.9344 0.10716 0.3378 0.0
C119 C 0.91251 0.14075 0.3184 0.0
C120 C 0.89201 0.15551 0.43966 0.0
C121 C 0.87852 0.12873 0.54587 0.0
C122 C 0.899 0.0937 0.56397 0.0
C123 C 0.96386 1.01775 0.99114 0.0
O124 O 0.04336 0.96598 0.86684 0.0
O125 O 1.02339 0.98659 0.6438 0.0
O126 O 0.10074 0.02923 0.10949 0.0
O127 O 0.05381 0.98795 0.1439 0.0
O128 O 0.09908 0.06668 0.86707 0.0
O129 O 0.06871 0.03232 0.72 0.0
O130 O 1.01348 0.10691 0.83076 0.0
O131 O 0.03721 0.08809 0.05306 0.0
O132 O 0.95535 0.03281 0.60365 0.0
O133 O 0.9946 0.0801 0.5509 0.0
O134 O 0.96103 1.00422 0.85928 0.0
O135 O 0.98983 0.04365 0.98592 0.0
H136 H 0.09143 0.94346 0.38703 0.0
H137 H 0.13547 0.88911 0.40589 0.0
H138 H 0.18874 0.92179 0.99176 0.0
H139 H 0.14869 0.98085 0.98585 0.0
H140 H 0.95724 0.1005 0.25918 0.0
H141 H 0.92016 0.15995 0.22869 0.0
H142 H 0.85985 0.13846 0.63487 0.0
H143 H 0.89411 0.07628 0.66249 0.0
Ho144 Ho 0.54114 0.05384 0.94388 0.0
Ho145 Ho 0.51635 1.00088 0.76244 0.0
C146 C 0.60367 1.02157 0.69745 0.0
C147 C 0.57817 0.10425 0.10081 0.0
C148 C 0.61079 0.12977 0.06099 0.0
C149 C 0.6308 0.15047 0.16921 0.0
C150 C 0.66833 0.16343 0.14225 0.0
C151 C 0.68711 0.15342 1.00902 0.0
C152 C 0.66302 0.1429 0.88924 0.0
C153 C 0.62546 0.1296 0.91671 0.0
C154 C 0.5043 0.09029 0.71238 0.0
C155 C 0.45494 0.02959 0.01941 0.0
C156 C 0.48703 0.9576 0.55803 0.0
C157 C 0.45583 0.93144 0.5164 0.0
C158 C 0.43396 0.94158 0.39221 0.0
C159 C 0.39966 0.92222 0.36359 0.0
C160 C 0.38613 0.89331 0.46209 0.0
C161 C 0.41194 0.87819 0.56869 0.0
C162 C 0.44643 0.8979 0.59858 0.0
C163 C 0.54845 0.96416 1.00847 0.0
O164 O 0.59994 0.0366 0.83164 0.0
O165 O 0.57182 1.00954 0.63434 0.0
O166 O 0.54557 0.11185 0.03473 0.0
O167 O 0.58594 0.06706 0.10103 0.0
O168 O 0.49687 0.09549 0.85035 0.0
O169 O 0.52897 0.06259 0.70298 0.0
O170 O 0.45811 1.01594 0.88188 0.0
O171 O 0.48752 0.04081 0.08309 0.0
O172 O 0.51236 0.94518 0.65384 0.0
O173 O 0.47738 0.99397 0.57818 0.0
O174 O 0.55703 0.95743 0.87198 0.0
O175 O 0.52536 0.99304 1.00763 0.0
H176 H 0.61956 0.15372 0.27878 0.0
H177 H 0.68399 0.17527 0.23508 0.0
H178 H 0.67451 0.13883 0.77927 0.0
H179 H 0.60954 0.1158 0.82876 0.0
H180 H 0.44189 0.96633 0.3235 0.0
H181 H 0.38119 0.93405 0.27802 0.0
H182 H 0.40292 0.85498 0.64265 0.0
H183 H 0.46404 0.8886 0.69148 0.0
Ho184 Ho 0.49996 0.53272 0.97821 0.0
Ho185 Ho 0.54337 0.51734 0.74319 0.0
C186 C 0.5211 0.60699 0.75705 0.0
C187 C 0.46272 0.54841 0.21979 0.0
C188 C 0.43155 0.57308 0.27433 0.0
C189 C 0.43937 0.59481 0.40031 0.0
C190 C 0.42099 0.63032 0.41819 0.0
C191 C 0.39807 0.64516 0.30288 0.0
C192 C 0.38148 0.61893 0.20323 0.0
C193 C 0.39916 0.58249 0.18633 0.0
C194 C 0.4542 0.51187 0.73911 0.0
C195 C 0.52542 0.44527 0.97676 0.0
C196 C 0.57543 0.49085 0.50598 0.0
C197 C 0.60129 0.45848 0.47246 0.0
C198 C 0.59258 0.43522 0.35139 0.0
C199 C 0.6132 0.40109 0.32761 0.0
C200 C 0.64292 0.38938 0.42554 0.0
C201 C 0.65342 0.41444 0.54135 0.0
C202 C 0.63236 0.44855 0.56591 0.0
C203 C 0.59099 0.5398 0.97142 0.0
O204 O 0.51115 0.59642 0.89465 0.0
O205 O 0.53 0.57886 0.66462 0.0
O206 O 0.45285 0.52098 0.12934 0.0
O207 O 0.49422 0.56663 0.17741 0.0
O208 O 0.45237 0.49711 0.87018 0.0
O209 O 0.48187 0.53593 0.73991 0.0
O210 O 0.53177 0.45421 0.83497 0.0
O211 O 0.5201 0.47464 0.06587 0.0
O212 O 0.59011 0.51879 0.58439 0.0
O213 O 0.54065 0.48099 0.54942 0.0
O214 O 0.59319 0.55178 0.8364 0.0
O215 O 0.56252 0.51638 0.98072 0.0
H216 H 0.46325 0.58715 0.47287 0.0
H217 H 0.43248 0.64982 0.49956 0.0
H218 H 0.36205 0.62937 0.11758 0.0
H219 H 0.39158 0.56495 0.09181 0.0
H220 H 0.56854 0.44249 0.27929 0.0
H221 H 0.60357 0.38235 0.23977 0.0
H222 H 0.67597 0.40632 0.61883 0.0
H223 H 0.63938 0.46619 0.66097 0.0
Ho224 Ho 1.01838 0.51073 0.94016 0.0
Ho225 Ho 0.03288 0.56517 0.73828 0.0
C226 C 0.94632 0.53527 0.71319 0.0
C227 C 1.00014 0.46406 0.15625 0.0
C228 C 0.97134 0.43522 0.20249 0.0
C229 C 0.95065 0.44255 0.33176 0.0
C230 C 0.91611 0.42348 0.35937 0.0
C231 C 0.90279 0.3947 0.26173 0.0
C232 C 0.92817 0.38161 0.14989 0.0
C233 C 0.96187 0.40261 0.11734 0.0
C234 C 0.04391 0.47535 0.68483 0.0
C235 C 0.10561 0.53963 0.95619 0.0
C236 C 0.05016 0.6107 0.51753 0.0
C237 C 0.0775 0.64049 0.469 0.0
C238 C 0.09945 0.63297 0.3425 0.0
C239 C 0.13404 0.6527 0.32091 0.0
C240 C 0.14895 0.67506 0.43647 0.0
C241 C 0.12252 0.69111 0.53755 0.0
C242 C 0.08648 0.67302 0.55613 0.0
C243 C 1.00723 0.60036 0.99534 0.0
O244 O 0.95514 0.51798 0.84241 0.0
O245 O 0.97414 0.55414 0.6466 0.0
O246 O 1.02386 0.45468 0.05022 0.0
O247 O 0.98752 0.4998 0.14297 0.0
O248 O 0.05832 0.47041 0.81508 0.0
O249 O 1.01904 0.50265 0.69484 0.0
O250 O 0.09605 0.55499 0.8251 0.0
O251 O 0.07728 0.52488 0.03576 0.0
O252 O 1.02621 0.62002 0.62271 0.0
O253 O 0.06438 0.57561 0.53487 0.0
O254 O 0.99307 0.6055 0.86489 0.0
O255 O 0.03231 0.5733 0.98366 0.0
H256 H 0.96015 0.46451 0.40783 0.0
H257 H 0.89853 0.43388 0.45041 0.0
H258 H 0.91981 0.35829 0.07698 0.0
H259 H 0.97892 0.39486 0.02125 0.0
H260 H 0.09204 0.60928 0.26919 0.0
H261 H 0.15334 0.64214 0.23669 0.0
H262 H 0.13259 0.7107 0.62254 0.0
H263 H 0.0685 0.681 0.64929 0.0
C264 C 0.18008 0.03512 0.45025 0.0
C265 C 0.20734 0.06393 0.48398 0.0
C266 C 0.15613 0.095 0.63619 0.0
C267 C 0.13218 0.06087 0.62817 0.0
N268 N 0.13168 0.99337 0.55547 0.0
N269 N 0.22197 0.12143 0.62008 0.0
C270 C 0.14656 0.02966 0.54073 0.0
C271 C 0.19541 0.0943 0.57915 0.0
N272 N 0.18945 1.00984 0.34128 0.0
N273 N 0.14146 0.1281 0.69762 0.0
H274 H 0.25011 0.12143 0.57684 0.0
H275 H 0.21662 0.14214 0.70133 0.0
H276 H 0.11278 0.13013 0.73417 0.0
H277 H 0.15641 0.15443 0.69774 0.0
H278 H 0.1774 0.98253 0.3324 0.0
H279 H 0.21038 1.01701 0.26208 0.0
H280 H 0.14863 0.96889 0.53395 0.0
H281 H 0.10514 0.98737 0.60366 0.0
C282 C 0.46621 0.18607 0.53341 0.0
C283 C 0.49521 0.19378 0.42546 0.0
C284 C 0.52865 0.13428 0.50209 0.0
C285 C 0.49882 0.12373 0.60231 0.0
N286 N 0.43359 0.13742 0.68693 0.0
N287 N 0.54647 0.16731 0.2785 0.0
C288 C 0.46553 0.14881 0.60867 0.0
C289 C 0.52203 0.16386 0.39524 0.0
N290 N 0.44085 0.21494 0.56991 0.0
N291 N 0.56556 0.12156 0.52355 0.0
H292 H 0.54389 0.18929 0.19849 0.0
H293 H 0.54389 0.18929 0.19849 0.0
H294 H 0.57434 0.10594 0.6164 0.0
H295 H 0.58853 0.13185 0.46059 0.0
H296 H 0.42159 0.21284 0.6586 0.0
H297 H 0.44086 0.24176 0.51479 0.0
H298 H 0.40772 0.15322 0.68715 0.0
H299 H 0.43179 0.11023 0.73871 0.0
C300 C 0.36789 0.489 0.47894 0.0
C301 C 0.34785 0.5253 0.47474 0.0
C302 C 0.39482 0.55015 0.65902 0.0
C303 C 0.41806 0.51635 0.6456 0.0
N304 N 0.4282 0.45423 0.53089 0.0
N305 N 0.34915 0.59338 0.54047 0.0
C306 C 0.40512 0.48607 0.55098 0.0
C307 C 0.36375 0.55673 0.55807 0.0
N308 N 0.35023 0.45668 0.42427 0.0
N309 N 0.40139 0.57561 0.77155 0.0
H310 H 0.3296 0.60018 0.45736 0.0
H311 H 0.35928 0.61764 0.59685 0.0
H312 H 0.42356 0.5718 0.84863 0.0
H313 H 0.38247 0.59828 0.79765 0.0
H314 H 0.36148 0.42866 0.4363 0.0
H315 H 0.32236 0.4575 0.37986 0.0
H316 H 0.42186 0.43273 0.45453 0.0
H317 H 0.45499 0.45089 0.58321 0.0
C318 C 0.0664 0.38792 0.42976 0.0
C319 C 0.03138 0.36602 0.4376 0.0
C320 C 1.00525 0.41556 0.61111 0.0
C321 C 0.0383 0.43959 0.58951 0.0
N322 N 0.09817 0.45081 0.45886 0.0
N323 N 0.96419 0.36514 0.51305 0.0
C324 C 0.06805 0.4265 0.49172 0.0
C325 C 0.99985 0.38208 0.52073 0.0
N326 N 0.09907 0.37087 0.37433 0.0
N327 N 0.97928 0.42383 0.72119 0.0
H328 H 0.95787 0.34416 0.43511 0.0
H329 H 0.93983 0.37437 0.57141 0.0
H330 H 0.98183 0.44763 0.7909 0.0
H331 H 0.95722 0.40501 0.75416 0.0
H332 H 0.12634 0.38385 0.37767 0.0
H333 H 0.09953 0.34206 0.33899 0.0
H334 H 0.11879 0.44465 0.37783 0.0
H335 H 0.10044 0.47863 0.50377 0.0
C336 C 0.88454 0.98175 0.26479 0.0
C337 C 0.8587 1.01399 0.267 0.0
C338 C 0.90255 0.04906 0.09509 0.0
C339 C 0.92941 1.01762 0.09642 0.0
N340 N 0.94905 0.95652 0.20578 0.0
N341 N 0.84933 0.08184 0.22031 0.0
C342 C 0.92148 0.98485 0.18985 0.0
C343 C 0.8708 0.04911 0.19699 0.0
N344 N 0.87267 0.9475 0.32671 0.0
N345 N 0.90582 0.07776 0.99053 0.0
H346 H 0.82851 0.08237 0.30376 0.0
H347 H 0.8543 0.10857 0.16904 0.0
H348 H 0.92752 0.07787 0.91005 0.0
H349 H 0.88504 0.09943 0.97424 0.0
H350 H 0.88789 0.92141 0.31641 0.0
H351 H 0.8463 0.94525 0.38316 0.0
H352 H 0.94673 0.93368 0.28168 0.0
H353 H 0.97567 0.95768 0.15063 0.0
C354 C 0.50355 0.87835 0.2248 0.0
C355 C 0.5362 0.85969 0.29149 0.0
C356 C 0.57601 0.91513 0.19874 0.0
C357 C 0.54411 0.92982 0.11438 0.0
N358 N 0.4804 0.91669 0.01747 0.0
N359 N 0.60563 0.85842 0.31776 0.0
C360 C 0.50862 0.90904 0.1196 0.0
C361 C 0.57308 0.87786 0.27357 0.0
N362 N 0.46735 0.86513 0.25748 0.0
N363 N 0.60925 0.93652 0.20614 0.0
H364 H 0.60451 0.83076 0.36567 0.0
H365 H 0.63363 0.86823 0.29527 0.0
H366 H 0.61232 0.96318 0.15107 0.0
H367 H 0.63223 0.92939 0.27611 0.0
H368 H 0.44215 0.87498 0.20649 0.0
H369 H 0.46271 0.84589 0.34456 0.0
H370 H 0.48324 0.93778 0.9349 0.0
H371 H 0.45611 0.89916 1.00312 0.0
C372 C 0.68643 0.57325 0.15589 0.0
C373 C 0.69942 0.53871 0.22782 0.0
C374 C 0.64296 0.50443 0.1242 0.0
C375 C 0.62674 0.53978 0.06984 0.0
N376 N 0.63162 0.60987 0.05664 0.0
N377 N 0.68557 0.47394 0.30487 0.0
C378 C 0.64794 0.57491 0.09405 0.0
C379 C 0.67487 0.50576 0.22459 0.0
N380 N 0.71167 0.60333 0.13612 0.0
N381 N 0.63105 0.46967 0.06798 0.0
H382 H 0.7064 0.47541 0.38839 0.0
H383 H 0.67463 0.44652 0.28609 0.0
H384 H 0.61037 0.46753 0.98502 0.0
H385 H 0.64549 0.44347 0.0871 0.0
H386 H 0.70522 0.62778 0.07167 0.0
H387 H 0.74023 0.60204 0.17388 0.0
H388 H 0.64433 0.63646 0.08256 0.0
H389 H 0.60378 0.61218 0.01203 0.0
C390 C 0.05235 0.69335 0.15367 0.0
C391 C 1.02209 0.70947 0.24346 0.0
C392 C 0.98484 0.64888 0.19476 0.0
C393 C 1.01321 0.63618 0.09019 0.0
N394 N 0.06858 0.65428 0.94165 0.0
N395 N 0.95567 0.70401 0.32303 0.0
C396 C 0.04534 0.66072 0.06162 0.0
C397 C 0.98734 0.68734 0.2585 0.0
N398 N 0.08829 0.70973 0.15428 0.0
N399 N 0.95511 0.6245 0.2313 0.0
H400 H 0.95596 0.73249 0.36205 0.0
H401 H 0.9284 0.691 0.32534 0.0
H402 H 0.95213 0.59713 0.18333 0.0
H403 H 0.93552 0.63018 0.31644 0.0
H404 H 0.11186 0.6993 0.09392 0.0
H405 H 0.09566 0.73104 0.22892 0.0
H406 H 0.08917 0.67425 0.90447 0.0
H407 H 0.06538 0.63072 0.87105 0.0
C408 C 0.93392 0.25105 0.36678 0.0
C409 C 0.97214 0.24015 0.41197 0.0
C410 C 0.94536 0.18842 0.56124 0.0
C411 C 0.90911 0.19275 0.4891 0.0
N412 N 0.86687 0.23046 0.33552 0.0
N413 N 1.015 0.19647 0.53865 0.0
C414 C 0.90244 0.22574 0.39923 0.0
C415 C 0.97806 0.2081 0.50529 0.0
N416 N 0.92796 0.28506 0.29164 0.0
N417 N 0.94872 0.16401 0.67874 0.0
H418 H 0.03937 0.21144 0.50016 0.0
H419 H 1.02161 0.1704 0.59273 0.0
H420 H 0.92457 0.15322 0.73474 0.0
H421 H 0.97502 0.15904 0.73024 0.0
H422 H 0.90056 0.29655 0.26957 0.0
H423 H 0.95071 0.30267 0.2564 0.0
H424 H 0.86078 0.25113 0.25391 0.0
H425 H 0.84373 0.21215 0.363 0.0
C426 C 0.33056 0.95951 0.5902 0.0
C427 C 0.31075 0.96865 0.45828 0.0
C428 C 0.31868 0.9009 0.38014 0.0
C429 C 0.34442 0.89556 0.49927 0.0
N430 N 0.3435 0.90626 0.76007 0.0
N431 N 0.27019 0.94037 0.26586 0.0
C432 C 0.33892 0.92011 0.62043 0.0
C433 C 0.29947 0.9372 0.36482 0.0
N434 N 0.34181 0.98802 0.68409 0.0
N435 N 0.3152 0.87266 0.27662 0.0
H436 H 0.25293 0.96521 0.25627 0.0
H437 H 0.25293 0.96521 0.25627 0.0
H438 H 0.33029 0.84633 0.28736 0.0
H439 H 0.29768 0.87613 0.18328 0.0
H440 H 0.35964 0.98192 0.77377 0.0
H441 H 0.33621 1.01746 0.66342 0.0
H442 H 0.33563 0.92286 0.85092 0.0
H443 H 0.3499 0.87696 0.78038 0.0
C444 C 0.59311 0.31886 0.52689 0.0
C445 C 0.58714 0.30159 0.38811 0.0
C446 C 0.65041 0.32515 0.30792 0.0
C447 C 0.65142 0.34734 0.43894 0.0
N448 N 0.64524 0.33327 0.69687 0.0
N449 N 0.62113 0.26926 0.18925 0.0
C450 C 0.63051 0.33239 0.55822 0.0
C451 C 0.61931 0.2984 0.28998 0.0
N452 N 0.5635 0.32348 0.62446 0.0
N453 N 0.67593 0.33316 0.19712 0.0
H454 H 0.60002 0.24754 0.18587 0.0
H455 H 0.64527 0.26487 0.12152 0.0
H456 H 0.69786 0.35374 0.21174 0.0
H457 H 0.67387 0.32071 0.09256 0.0
H458 H 0.56692 0.34055 0.71768 0.0
H459 H 0.53529 0.31417 0.60255 0.0
H460 H 0.6317 0.31862 0.78343 0.0
H461 H 0.6731 0.3439 0.71695 0.0
C462 C 0.19492 0.58785 0.51159 0.0
C463 C 0.2269 0.59079 0.417 0.0
C464 C 0.21833 0.66169 0.40145 0.0
C465 C 0.18543 0.65784 0.49273 0.0
N466 N 0.15484 0.62149 0.68681 0.0
N467 N 0.27531 0.63119 0.29681 0.0
C468 C 0.17911 0.62237 0.56914 0.0
C469 C 0.24091 0.62805 0.3705 0.0
N470 N 0.17988 0.55206 0.5449 0.0
N471 N 0.2253 0.69668 0.3345 0.0
H472 H 0.29155 0.60703 0.26564 0.0
H473 H 0.28862 0.65769 0.27305 0.0
H474 H 0.20874 0.72127 0.36035 0.0
H475 H 0.24597 0.70086 0.25173 0.0
H476 H 0.15387 0.54793 0.60158 0.0
H477 H 0.19183 0.52641 0.50315 0.0
H478 H 0.14684 0.59565 0.73667 0.0
H479 H 0.14631 0.64678 0.74121 0.0
C480 C 0.12661 0.81002 0.29668 0.0
C481 C 0.09073 0.82523 0.23681 0.0
C482 C 0.12986 0.85534 0.05103 0.0
C483 C 0.16085 0.8584 0.14826 0.0
N484 N 0.19484 0.82556 0.34152 0.0
N485 N 0.06104 0.86624 0.05096 0.0
C486 C 0.16198 0.82961 0.2597 0.0
C487 C 0.09303 0.84923 0.1114 0.0
N488 N 0.12708 0.77874 0.3899 0.0
N489 N 0.13528 0.85839 0.9048 0.0
H490 H 0.03361 0.86356 0.09936 0.0
H491 H 0.0632 0.88524 0.96078 0.0
H492 H 0.16271 0.863 0.85838 0.0
H493 H 0.11206 0.85091 0.83864 0.0
H494 H 0.1527 0.76538 0.42447 0.0
H495 H 0.10184 0.76592 0.43007 0.0
H496 H 0.19649 0.80849 0.43707 0.0
H497 H 0.21982 0.84128 0.31407 0.0
C498 C 0.73536 0.0695 1.00714 0.0
C499 C 0.74599 0.06779 0.15857 0.0
C500 C 0.74705 0.13978 0.15317 0.0
C501 C 0.72839 0.13884 0.01502 0.0
N502 N 0.74062 0.1082 0.78325 0.0
N503 N 0.76143 0.10564 0.38046 0.0
C504 C 0.7355 0.10546 0.93212 0.0
C505 C 0.75252 0.10416 0.23368 0.0
N506 N 0.72343 0.03704 0.93644 0.0
N507 N 0.75847 0.17495 0.20607 0.0
H508 H 0.76663 0.08166 0.44711 0.0
H509 H 0.76172 0.13148 0.43998 0.0
H510 H 0.75307 0.20046 0.14563 0.0
H511 H 0.77547 0.17825 0.30027 0.0
H512 H 0.71422 0.03847 0.82744 0.0
H513 H 0.72018 1.01037 0.99116 0.0
H514 H 0.74755 0.08415 0.71842 0.0
H515 H 0.74105 0.13535 0.73021 0.0
C516 C 0.48057 0.70298 0.22273 0.0
C517 C 0.4728 0.73414 0.31737 0.0
C518 C 0.40438 0.71561 0.33356 0.0
C519 C 0.41294 0.68276 0.24805 0.0
N520 N 0.45419 0.65372 0.06521 0.0
N521 N 0.4254 0.77372 0.44861 0.0
C522 C 0.44926 0.68005 0.17457 0.0
C523 C 0.43424 0.74206 0.366 0.0
N524 N 0.51805 0.69503 0.18269 0.0
N525 N 0.36814 0.72012 0.39173 0.0
H526 H 0.44586 0.79411 0.48194 0.0
H527 H 0.44586 0.79411 0.48194 0.0
H528 H 0.34586 0.70054 0.36812 0.0
H529 H 0.36075 0.74342 0.45991 0.0
H530 H 0.52679 0.66984 0.1285 0.0
H531 H 0.54121 0.71263 0.21368 0.0
H532 H 0.48032 0.65023 0.01065 0.0
H533 H 0.43099 0.63918 0.01757 0.0
C534 C 0.81316 0.42984 0.38416 0.0
C535 C 0.81637 0.45972 0.27448 0.0
C536 C 0.84873 0.41317 0.11667 0.0
C537 C 0.86016 0.39191 0.24172 0.0
N538 N 0.84284 0.37062 0.48472 0.0
N539 N 0.84248 0.47954 0.03854 0.0
C540 C 0.8372 0.39606 0.37058 0.0
C541 C 0.83559 0.45123 0.14031 0.0
N542 N 0.78737 0.43357 0.49764 0.0
N543 N 0.85421 0.3988 0.97839 0.0
H544 H 0.8331 0.50793 0.05604 0.0
H545 H 0.8591 0.47458 0.94388 0.0
H546 H 0.86322 0.37009 0.96246 0.0
H547 H 0.84568 0.41411 0.88364 0.0
H548 H 0.78228 0.41164 0.5754 0.0
H549 H 0.76887 0.45749 0.50622 0.0
H550 H 0.83069 0.37411 0.58938 0.0
H551 H 0.86142 0.34671 0.47259 0.0
C552 C 0.99399 0.22382 0.05884 0.0
C553 C 1.02529 0.23782 0.14442 0.0
C554 C 0.05985 0.17567 0.08686 0.0
C555 C 1.02568 0.15919 0.02287 0.0
N556 N 0.95685 0.16714 0.99149 0.0
N557 N 0.08774 0.22444 0.25023 0.0
C558 C 0.99193 0.18338 0.01955 0.0
C559 C 0.05826 0.21297 0.16021 0.0
N560 N 0.96614 0.2494 0.01362 0.0
N561 N 0.09431 0.15623 0.07513 0.0
H562 H 0.08806 0.25172 0.30023 0.0
H563 H 0.11039 0.20611 0.28234 0.0
H564 H 0.0969 0.12962 0.02157 0.0
H565 H 0.12081 0.16818 0.10597 0.0
H566 H 0.94381 0.24177 0.94186 0.0
H567 H 0.9688 0.27919 0.03296 0.0
H568 H 0.93087 0.18276 0.99448 0.0
H569 H 0.95379 0.13733 0.97583 0.0
C570 C 0.34702 1.01066 0.13872 0.0
C571 C 0.3408 0.03609 0.25867 0.0
C572 C 0.407 0.06244 0.20764 0.0
C573 C 0.41539 0.0322 0.10276 0.0
N574 N 0.39357 0.96983 0.01419 0.0
N575 N 0.369 0.08277 0.42241 0.0
C576 C 0.38538 1.00423 0.0809 0.0
C577 C 0.37214 0.0609 0.29777 0.0
N578 N 0.31577 0.99434 0.07237 0.0
N579 N 0.43092 0.09396 0.21675 0.0
H580 H 0.34419 0.0824 0.48877 0.0
H581 H 0.39212 0.09843 0.46575 0.0
H582 H 0.45436 0.0984 0.14584 0.0
H583 H 0.42468 0.11804 0.28221 0.0
H584 H 0.31811 0.97642 0.9806 0.0
H585 H 0.2877 1.00365 0.09725 0.0
H586 H 0.37419 0.94666 0.01827 0.0
H587 H 0.42073 0.9629 0.9721 0.0
C588 C 0.54507 0.33489 0.06979 0.0
C589 C 0.51976 0.32773 0.19017 0.0
C590 C 0.49207 0.39361 0.14407 0.0
C591 C 0.52221 0.40334 0.04034 0.0
N592 N 0.58313 0.3828 0.93513 0.0
N593 N 0.4719 0.35369 0.35496 0.0
C594 C 0.55018 0.37371 0.01079 0.0
C595 C 0.49398 0.35812 0.23078 0.0
N596 N 0.56275 0.30383 1.00615 0.0
N597 N 0.46032 0.41723 0.15512 0.0
H598 H 0.47292 0.32855 0.42031 0.0
H599 H 0.45527 0.37611 0.39916 0.0
H600 H 0.45656 0.44194 0.08912 0.0
H601 H 0.43568 0.40945 0.21524 0.0
H602 H 0.58157 0.30617 0.91733 0.0
H603 H 0.55515 0.27533 0.03467 0.0
H604 H 0.60707 0.36425 0.93516 0.0
H605 H 0.58769 0.40981 0.88515 0.0
C606 C 0.19913 0.50336 0.16407 0.0
C607 C 0.22467 0.53584 0.15343 0.0
C608 C 0.17236 0.57117 0.021 0.0
C609 C 0.14773 0.53787 0.01746 0.0
N610 N 0.14376 0.46856 0.06321 0.0
N611 N 0.23876 0.59481 0.02193 0.0
C612 C 0.16305 0.50282 0.08226 0.0
C613 C 0.21226 0.56773 0.06515 0.0
N614 N 0.20868 0.47333 0.25668 0.0
N615 N 0.15701 0.60706 0.99658 0.0
H616 H 0.26827 0.59078 0.04273 0.0
H617 H 0.23205 0.61762 0.94951 0.0
H618 H 0.12735 0.61108 0.98173 0.0
H619 H 0.17325 0.63258 1.00211 0.0
H620 H 0.1896 0.45088 0.28378 0.0
H621 H 0.23497 0.47232 0.31358 0.0
H622 H 0.15498 0.44167 0.09622 0.0
H623 H 0.11848 0.46652 1.00084 0.0
C624 C 0.07065 0.85713 0.57787 0.0
C625 C 0.03707 0.84072 0.51335 0.0
C626 C 1.00007 0.8982 0.60802 0.0
C627 C 0.03459 0.91575 0.66487 0.0
N628 N 0.10371 0.91258 0.69053 0.0
N629 N 0.97038 0.85006 0.44593 0.0
C630 C 0.07018 0.89526 0.64561 0.0
C631 C 1.00185 0.86244 0.52382 0.0
N632 N 0.10287 0.83456 0.57393 0.0
N633 N 0.96511 0.91532 0.63752 0.0
H634 H 0.97066 0.82452 0.38437 0.0
H635 H 0.9451 0.86638 0.43284 0.0
H636 H 0.96262 0.94093 0.69793 0.0
H637 H 0.93849 0.90258 0.61364 0.0
H638 H 0.13061 0.8426 0.60733 0.0
H639 H 0.13061 0.8426 0.60733 0.0
H640 H 0.13133 0.90352 0.65944 0.0
H641 H 0.104 0.93667 0.75978 0.0
C642 C 0.68114 0.03116 0.38365 0.0
C643 C 0.71616 1.01638 0.44555 0.0
C644 C 0.67432 0.9948 0.66119 0.0
C645 C 0.64269 1.01864 0.61235 0.0
N646 N 0.61724 0.05787 0.41376 0.0
N647 N 0.7354 0.96222 0.60013 0.0
C648 C 0.64663 0.03607 0.47027 0.0
C649 C 0.71016 0.99216 0.57453 0.0
N650 N 0.67896 0.03361 0.23424 0.0
N651 N 0.66996 0.97404 0.78956 0.0
H652 H 0.756 0.95395 0.52192 0.0
H653 H 0.73258 0.942 0.68561 0.0
H654 H 0.64412 0.97395 0.84989 0.0
H655 H 0.69229 0.95865 0.84085 0.0
H656 H 0.65361 0.03916 0.17474 0.0
H657 H 0.65361 0.03916 0.17474 0.0
H658 H 0.62262 0.07869 0.33225 0.0
H659 H 0.58883 0.05628 0.45153 0.0
C660 C 0.49535 0.71689 0.67301 0.0
C661 C 0.52622 0.72933 0.58021 0.0
C662 C 0.55766 0.6649 0.63182 0.0
C663 C 0.52347 0.65016 0.70332 0.0
N664 N 0.4559 0.66246 0.75238 0.0
N665 N 0.58656 0.71279 0.46372 0.0
C666 C 0.49142 0.67649 0.71449 0.0
C667 C 0.55741 0.7026 0.55852 0.0
N668 N 0.46992 0.744 0.72449 0.0
N669 N 0.59101 0.6434 0.63686 0.0
H670 H 0.588 0.7403 0.41427 0.0
H671 H 0.6077 0.69334 0.42726 0.0
H672 H 0.59273 0.61662 0.69122 0.0
H673 H 0.61774 0.65377 0.60011 0.0
H674 H 0.44821 0.73745 0.80122 0.0
H675 H 0.47427 0.77364 0.70456 0.0
H676 H 0.43075 0.67943 0.7505 0.0
H677 H 0.45131 0.63285 0.76994 0.0
C678 C 0.83393 0.52771 0.63706 0.0
C679 C 0.83205 0.52852 0.47999 0.0
C680 C 0.90356 0.53529 0.47411 0.0
C681 C 0.90634 0.5335 0.63348 0.0
N682 N 0.87004 0.54894 0.85285 0.0
N683 N 0.86186 0.5502 0.26114 0.0
C684 C 0.87028 0.53541 0.71175 0.0
C685 C 0.8663 0.53754 0.40301 0.0
N686 N 0.80125 0.51954 0.7159 0.0
N687 N 0.93588 0.5334 0.38716 0.0
H688 H 0.88402 0.56177 0.19575 0.0
H689 H 0.88402 0.56177 0.19575 0.0
H690 H 0.96397 0.5291 0.42493 0.0
H691 H 0.93425 0.53069 0.27307 0.0
H692 H 0.80086 0.51791 0.83069 0.0
H693 H 0.77517 0.51229 0.66501 0.0
H694 H 0.84452 0.55818 0.9041 0.0
H695 H 0.89538 0.55593 0.9095 0.0
loop_
_geom_bond_atom_site_label_1
_geom_bond_atom_site_label_2
_geom_bond_distance
_geom_bond_site_symmetry_2
_ccdc_geom_bond_type
C0 N1 1.317 . S
C0 N2 1.348 . S
C0 C3 1.485 . S
N1 C0 1.317 . S
N1 N5 1.370 . S
N2 C0 1.348 . S
N2 C4 1.346 . S
C3 C0 1.485 . S
C3 H7 0.960 . S
C3 H8 0.961 . S
C3 H9 0.960 . S
C4 N2 1.346 . S
C4 N5 1.307 . S
C4 C6 1.486 . S
N5 N1 1.370 . S
N5 C4 1.307 . S
C6 C4 1.486 . S
C6 H10 0.960 . S
C6 H11 0.960 . S
C6 H12 0.959 . S
H7 C3 0.960 . S
H8 C3 0.961 . S
H9 C3 0.960 . S
H10 C6 0.960 . S
H11 C6 0.960 . S
H12 C6 0.959 . S
C13 N14 1.317 . S
C13 N15 1.348 . S
C13 C16 1.485 . S
N14 C13 1.317 . S
N14 N18 1.371 . S
N15 C13 1.348 . S
N15 C17 1.346 1_655 S
C16 C13 1.485 . S
C16 H20 0.960 1_655 S
C16 H21 0.961 . S
C16 H22 0.960 . S
C17 N15 1.346 1_455 S
C17 N18 1.307 1_455 S
C17 C19 1.486 . S
N18 N14 1.371 . S
N18 C17 1.307 1_655 S
C19 C17 1.486 . S
C19 H23 0.960 1_455 S
C19 H24 0.960 . S
C19 H25 0.959 . S
H20 C16 0.960 1_455 S
H21 C16 0.961 . S
H22 C16 0.960 . S
H23 C19 0.960 1_655 S
H24 C19 0.960 . S
H25 C19 0.959 . S
C26 N27 1.317 . S
C26 N28 1.348 . S
C26 C29 1.485 . S
N27 C26 1.317 . S
N27 N31 1.371 . S
N28 C26 1.348 . S
N28 C30 1.346 1_565 S
C29 C26 1.485 . S
C29 H33 0.960 1_565 S
C29 H34 0.961 . S
C29 H35 0.960 . S
C30 N28 1.346 1_545 S
C30 N31 1.307 1_545 S
C30 C32 1.486 . S
N31 N27 1.371 . S
N31 C30 1.307 1_565 S
C32 C30 1.486 . S
C32 H36 0.960 1_545 S
C32 H37 0.960 . S
C32 H38 0.959 . S
H33 C29 0.960 1_545 S
H34 C29 0.961 . S
H35 C29 0.960 . S
H36 C32 0.960 1_565 S
H37 C32 0.960 . S
H38 C32 0.959 . S
C39 N40 1.317 . S
C39 N41 1.348 . S
C39 C42 1.485 . S
N40 C39 1.317 . S
N40 N44 1.370 . S
N41 C39 1.348 . S
N41 C43 1.346 . S
C42 C39 1.485 . S
C42 H46 0.960 . S
C42 H47 0.961 . S
C42 H48 0.960 . S
C43 N41 1.346 . S
C43 N44 1.307 . S
C43 C45 1.486 . S
N44 N40 1.370 . S
N44 C43 1.307 . S
C45 C43 1.486 . S
C45 H49 0.960 . S
C45 H50 0.960 . S
C45 H51 0.959 . S
H46 C42 0.960 . S
H47 C42 0.961 . S
H48 C42 0.960 . S
H49 C45 0.960 . S
H50 C45 0.960 . S
H51 C45 0.959 . S
C52 N53 1.317 . S
C52 N54 1.348 1_556 S
C52 C55 1.485 . S
N53 C52 1.317 . S
N53 N57 1.370 1_556 S
N54 C52 1.348 1_554 S
N54 C56 1.346 . S
C55 C52 1.485 . S
C55 H59 0.960 . S
C55 H60 0.961 . S
C55 H61 0.960 . S
C56 N54 1.346 . S
C56 N57 1.307 . S
C56 C58 1.486 . S
N57 N53 1.370 1_554 S
N57 C56 1.307 . S
C58 C56 1.486 . S
C58 H62 0.960 . S
C58 H63 0.960 . S
C58 H64 0.959 . S
H59 C55 0.960 . S
H60 C55 0.961 . S
H61 C55 0.960 . S
H62 C58 0.960 . S
H63 C58 0.960 . S
H64 C58 0.959 . S
C65 N66 1.317 . S
C65 N67 1.350 1_556 S
C65 C68 1.485 . S
N66 C65 1.317 . S
N66 N70 1.371 1_556 S
N67 C65 1.350 1_554 S
N67 C69 1.345 1_655 S
C68 C65 1.485 . S
C68 H72 0.960 1_655 S
C68 H73 0.961 . S
C68 H74 0.960 . S
C69 N67 1.345 1_455 S
C69 N70 1.307 1_455 S
C69 C71 1.486 . S
N70 N66 1.371 1_554 S
N70 C69 1.307 1_655 S
C71 C69 1.486 . S
C71 H75 0.960 1_455 S
C71 H76 0.960 . S
C71 H77 0.959 . S
H72 C68 0.960 1_455 S
H73 C68 0.961 . S
H74 C68 0.960 . S
H75 C71 0.960 1_655 S
H76 C71 0.960 . S
H77 C71 0.959 . S
C78 N79 1.317 . S
C78 N80 1.350 1_556 S
C78 C81 1.485 . S
N79 C78 1.317 . S
N79 N83 1.371 1_556 S
N80 C78 1.350 1_554 S
N80 C82 1.345 1_565 S
C81 C78 1.485 . S
C81 H85 0.960 1_565 S
C81 H86 0.961 . S
C81 H87 0.960 . S
C82 N80 1.345 1_545 S
C82 N83 1.307 1_545 S
C82 C84 1.487 . S
N83 N79 1.371 1_554 S
N83 C82 1.307 1_565 S
C84 C82 1.487 . S
C84 H88 0.960 1_545 S
C84 H89 0.960 . S
C84 H90 0.959 . S
H85 C81 0.960 1_545 S
H86 C81 0.961 . S
H87 C81 0.960 . S
H88 C84 0.960 1_565 S
H89 C84 0.960 . S
H90 C84 0.959 . S
C91 N92 1.317 . S
C91 N93 1.348 1_556 S
C91 C94 1.485 . S
N92 C91 1.317 . S
N92 N96 1.370 1_556 S
N93 C91 1.348 1_554 S
N93 C95 1.346 . S
C94 C91 1.485 . S
C94 H98 0.960 . S
C94 H99 0.961 . S
C94 H100 0.960 . S
C95 N93 1.346 . S
C95 N96 1.307 . S
C95 C97 1.486 . S
N96 N92 1.370 1_554 S
N96 C95 1.307 . S
C97 C95 1.486 . S
C97 H101 0.960 . S
C97 H102 0.960 . S
C97 H103 0.959 . S
H98 C94 0.960 . S
H99 C94 0.961 . S
H100 C94 0.960 . S
H101 C97 0.960 . S
H102 C97 0.960 . S
H103 C97 0.959 . S
Ho104 C107 2.811 1_556 S
Ho104 O124 2.322 . S
Ho104 O126 2.378 1_556 S
Ho104 O127 2.524 1_556 S
Ho104 O128 2.381 . S
Ho104 O129 2.669 1_565 S
Ho104 O131 2.346 1_565 S
Ho104 O135 2.305 1_455 S
Ho105 C116 2.811 . S
Ho105 O125 2.346 1_545 S
Ho105 O129 2.305 1_655 S
Ho105 O130 2.322 . S
Ho105 O132 2.378 . S
Ho105 O133 2.524 . S
Ho105 O134 2.381 . S
Ho105 O135 2.669 1_545 S
C106 O124 1.259 1_655 S
C106 O125 1.268 . S
C107 Ho104 2.811 1_554 S
C107 C108 1.488 . S
C107 O126 1.215 . S
C107 O127 1.289 . S
C108 C107 1.488 . S
C108 C109 1.348 . S
C108 C113 1.413 . S
C109 C108 1.348 . S
C109 C110 1.442 . S
C109 H136 0.930 1_455 S
C110 C109 1.442 . S
C110 C111 1.381 . S
C110 H137 0.931 . S
C111 C110 1.381 . S
C111 C112 1.321 . S
C112 C111 1.321 . S
C112 C113 1.403 . S
C112 H138 0.934 . S
C113 C108 1.413 . S
C113 C112 1.403 . S
C113 H139 0.930 . S
C114 O128 1.275 . S
C114 O129 1.256 1_565 S
C115 O130 1.259 1_455 S
C115 O131 1.268 . S
C116 Ho105 2.811 . S
C116 C117 1.488 . S
C116 O132 1.215 . S
C116 O133 1.289 . S
C117 C116 1.488 . S
C117 C118 1.348 . S
C117 C122 1.413 . S
C118 C117 1.348 . S
C118 C119 1.442 . S
C118 H140 0.930 1_655 S
C119 C118 1.442 . S
C119 C120 1.381 . S
C119 H141 0.931 . S
C120 C119 1.381 . S
C120 C121 1.321 . S
C121 C120 1.321 . S
C121 C122 1.403 . S
C121 H142 0.934 . S
C122 C117 1.413 . S
C122 C121 1.403 . S
C122 H143 0.930 . S
C123 O134 1.275 . S
C123 O135 1.256 1_545 S
O124 Ho104 2.322 . S
O124 C106 1.259 1_455 S
O125 Ho105 2.346 1_565 S
O125 C106 1.268 . S
O126 Ho104 2.378 1_554 S
O126 C107 1.215 . S
O127 Ho104 2.524 1_554 S
O127 C107 1.289 . S
O128 Ho104 2.381 . S
O128 C114 1.275 . S
O129 Ho104 2.669 1_545 S
O129 Ho105 2.305 1_455 S
O129 C114 1.256 1_545 S
O130 Ho105 2.322 . S
O130 C115 1.259 1_655 S
O131 Ho104 2.346 1_545 S
O131 C115 1.268 . S
O132 Ho105 2.378 . S
O132 C116 1.215 . S
O133 Ho105 2.524 . S
O133 C116 1.289 . S
O134 Ho105 2.381 . S
O134 C123 1.275 . S
O135 Ho104 2.305 1_655 S
O135 Ho105 2.669 1_565 S
O135 C123 1.256 1_565 S
H136 C109 0.930 1_655 S
H137 C110 0.931 . S
H138 C112 0.934 . S
H139 C113 0.930 . S
H140 C118 0.930 1_455 S
H141 C119 0.931 . S
H142 C121 0.934 . S
H143 C122 0.930 . S
Ho144 C147 2.811 1_556 S
Ho144 O164 2.322 . S
Ho144 O166 2.378 1_556 S
Ho144 O167 2.524 1_556 S
Ho144 O168 2.381 . S
Ho144 O169 2.669 . S
Ho144 O171 2.346 . S
Ho144 O175 2.305 1_545 S
Ho145 C156 2.811 . S
Ho145 O165 2.346 . S
Ho145 O169 2.305 1_565 S
Ho145 O170 2.322 . S
Ho145 O172 2.378 . S
Ho145 O173 2.524 . S
Ho145 O174 2.381 . S
Ho145 O175 2.669 . S
C146 O164 1.259 1_565 S
C146 O165 1.268 . S
C147 Ho144 2.811 1_554 S
C147 C148 1.488 . S
C147 O166 1.215 . S
C147 O167 1.289 . S
C148 C147 1.488 . S
C148 C149 1.348 . S
C148 C153 1.413 . S
C149 C148 1.348 . S
C149 C150 1.442 . S
C149 H176 0.930 1_545 S
C150 C149 1.442 . S
C150 C151 1.381 . S
C150 H177 0.931 . S
C151 C150 1.381 . S
C151 C152 1.321 . S
C152 C151 1.321 . S
C152 C153 1.403 . S
C152 H178 0.934 . S
C153 C148 1.413 . S
C153 C152 1.403 . S
C153 H179 0.930 . S
C154 O168 1.275 . S
C154 O169 1.256 . S
C155 O170 1.259 1_545 S
C155 O171 1.268 . S
C156 Ho145 2.811 . S
C156 C157 1.488 . S
C156 O172 1.215 . S
C156 O173 1.289 . S
C157 C156 1.488 . S
C157 C158 1.348 . S
C157 C162 1.413 . S
C158 C157 1.348 . S
C158 C159 1.442 . S
C158 H180 0.930 1_565 S
C159 C158 1.442 . S
C159 C160 1.381 . S
C159 H181 0.931 . S
C160 C159 1.381 . S
C160 C161 1.321 . S
C161 C160 1.321 . S
C161 C162 1.403 . S
C161 H182 0.934 . S
C162 C157 1.413 . S
C162 C161 1.403 . S
C162 H183 0.930 . S
C163 O174 1.275 . S
C163 O175 1.256 . S
O164 Ho144 2.322 . S
O164 C146 1.259 1_545 S
O165 Ho145 2.346 . S
O165 C146 1.268 . S
O166 Ho144 2.378 1_554 S
O166 C147 1.215 . S
O167 Ho144 2.524 1_554 S
O167 C147 1.289 . S
O168 Ho144 2.381 . S
O168 C154 1.275 . S
O169 Ho144 2.669 . S
O169 Ho145 2.305 1_545 S
O169 C154 1.256 . S
O170 Ho145 2.322 . S
O170 C155 1.259 1_565 S
O171 Ho144 2.346 . S
O171 C155 1.268 . S
O172 Ho145 2.378 . S
O172 C156 1.215 . S
O173 Ho145 2.524 . S
O173 C156 1.289 . S
O174 Ho145 2.381 . S
O174 C163 1.275 . S
O175 Ho144 2.305 1_565 S
O175 Ho145 2.669 . S
O175 C163 1.256 . S
H176 C149 0.930 1_565 S
H177 C150 0.931 . S
H178 C152 0.934 . S
H179 C153 0.930 . S
H180 C158 0.930 1_545 S
H181 C159 0.931 . S
H182 C161 0.934 . S
H183 C162 0.930 . S
Ho184 C187 2.811 1_556 S
Ho184 O204 2.322 . S
Ho184 O206 2.378 1_556 S
Ho184 O207 2.524 1_556 S
Ho184 O208 2.381 . S
Ho184 O209 2.669 . S
Ho184 O211 2.346 . S
Ho184 O215 2.305 . S
Ho185 C196 2.811 . S
Ho185 O205 2.346 . S
Ho185 O209 2.305 . S
Ho185 O210 2.322 . S
Ho185 O212 2.378 . S
Ho185 O213 2.524 . S
Ho185 O214 2.381 . S
Ho185 O215 2.669 . S
C186 O204 1.259 . S
C186 O205 1.268 . S
C187 Ho184 2.811 1_554 S
C187 C188 1.488 . S
C187 O206 1.215 . S
C187 O207 1.289 . S
C188 C187 1.488 . S
C188 C189 1.348 . S
C188 C193 1.413 . S
C189 C188 1.348 . S
C189 C190 1.442 . S
C189 H216 0.930 . S
C190 C189 1.442 . S
C190 C191 1.381 . S
C190 H217 0.931 . S
C191 C190 1.381 . S
C191 C192 1.321 . S
C192 C191 1.321 . S
C192 C193 1.403 . S
C192 H218 0.934 . S
C193 C188 1.413 . S
C193 C192 1.403 . S
C193 H219 0.930 . S
C194 O208 1.275 . S
C194 O209 1.256 . S
C195 O210 1.259 . S
C195 O211 1.268 . S
C196 Ho185 2.811 . S
C196 C197 1.488 . S
C196 O212 1.215 . S
C196 O213 1.289 . S
C197 C196 1.488 . S
C197 C198 1.348 . S
C197 C202 1.413 . S
C198 C197 1.348 . S
C198 C199 1.442 . S
C198 H220 0.930 . S
C199 C198 1.442 . S
C199 C200 1.381 . S
C199 H221 0.931 . S
C200 C199 1.381 . S
C200 C201 1.321 . S
C201 C200 1.321 . S
C201 C202 1.403 . S
C201 H222 0.934 . S
C202 C197 1.413 . S
C202 C201 1.403 . S
C202 H223 0.930 . S
C203 O214 1.275 . S
C203 O215 1.256 . S
O204 Ho184 2.322 . S
O204 C186 1.259 . S
O205 Ho185 2.346 . S
O205 C186 1.268 . S
O206 Ho184 2.378 1_554 S
O206 C187 1.215 . S
O207 Ho184 2.524 1_554 S
O207 C187 1.289 . S
O208 Ho184 2.381 . S
O208 C194 1.275 . S
O209 Ho184 2.669 . S
O209 Ho185 2.305 . S
O209 C194 1.256 . S
O210 Ho185 2.322 . S
O210 C195 1.259 . S
O211 Ho184 2.346 . S
O211 C195 1.268 . S
O212 Ho185 2.378 . S
O212 C196 1.215 . S
O213 Ho185 2.524 . S
O213 C196 1.289 . S
O214 Ho185 2.381 . S
O214 C203 1.275 . S
O215 Ho184 2.305 . S
O215 Ho185 2.669 . S
O215 C203 1.256 . S
H216 C189 0.930 . S
H217 C190 0.931 . S
H218 C192 0.934 . S
H219 C193 0.930 . S
H220 C198 0.930 . S
H221 C199 0.931 . S
H222 C201 0.934 . S
H223 C202 0.930 . S
Ho224 C227 2.811 1_556 S
Ho224 O244 2.322 . S
Ho224 O246 2.378 1_556 S
Ho224 O247 2.524 1_556 S
Ho224 O248 2.381 . S
Ho224 O249 2.669 1_655 S
Ho224 O251 2.346 1_655 S
Ho224 O255 2.305 . S
Ho225 C236 2.811 . S
Ho225 O245 2.346 1_455 S
Ho225 O249 2.305 . S
Ho225 O250 2.322 . S
Ho225 O252 2.378 . S
Ho225 O253 2.524 . S
Ho225 O254 2.381 . S
Ho225 O255 2.669 1_455 S
C226 O244 1.259 . S
C226 O245 1.268 . S
C227 Ho224 2.811 1_554 S
C227 C228 1.488 . S
C227 O246 1.215 . S
C227 O247 1.289 . S
C228 C227 1.488 . S
C228 C229 1.348 . S
C228 C233 1.413 . S
C229 C228 1.348 . S
C229 C230 1.442 . S
C229 H256 0.930 . S
C230 C229 1.442 . S
C230 C231 1.381 . S
C230 H257 0.931 . S
C231 C230 1.381 . S
C231 C232 1.321 . S
C232 C231 1.321 . S
C232 C233 1.403 . S
C232 H258 0.934 . S
C233 C228 1.413 . S
C233 C232 1.403 . S
C233 H259 0.930 . S
C234 O248 1.282 . S
C234 O249 1.252 1_655 S
C235 O250 1.259 . S
C235 O251 1.268 . S
C236 Ho225 2.811 . S
C236 C237 1.488 . S
C236 O252 1.215 . S
C236 O253 1.289 . S
C237 C236 1.488 . S
C237 C238 1.348 . S
C237 C242 1.413 . S
C238 C237 1.348 . S
C238 C239 1.442 . S
C238 H260 0.930 . S
C239 C238 1.442 . S
C239 C240 1.381 . S
C239 H261 0.931 . S
C240 C239 1.381 . S
C240 C241 1.321 . S
C241 C240 1.321 . S
C241 C242 1.403 . S
C241 H262 0.934 . S
C242 C237 1.413 . S
C242 C241 1.403 . S
C242 H263 0.930 . S
C243 O254 1.285 . S
C243 O255 1.250 1_455 S
O244 Ho224 2.322 . S
O244 C226 1.259 . S
O245 Ho225 2.346 1_655 S
O245 C226 1.268 . S
O246 Ho224 2.378 1_554 S
O246 C227 1.215 . S
O247 Ho224 2.524 1_554 S
O247 C227 1.289 . S
O248 Ho224 2.381 . S
O248 C234 1.282 . S
O249 Ho224 2.669 1_455 S
O249 Ho225 2.305 . S
O249 C234 1.252 1_455 S
O250 Ho225 2.322 . S
O250 C235 1.259 . S
O251 Ho224 2.346 1_455 S
O251 C235 1.268 . S
O252 Ho225 2.378 . S
O252 C236 1.215 . S
O253 Ho225 2.524 . S
O253 C236 1.289 . S
O254 Ho225 2.381 . S
O254 C243 1.285 . S
O255 Ho224 2.305 . S
O255 Ho225 2.669 1_655 S
O255 C243 1.250 1_655 S
H256 C229 0.930 . S
H257 C230 0.931 . S
H258 C232 0.934 . S
H259 C233 0.930 . S
H260 C238 0.930 . S
H261 C239 0.931 . S
H262 C241 0.934 . S
H263 C242 0.930 . S
C264 C265 1.358 1_565 S
C264 C270 1.379 . S
C264 N272 1.356 . S
C265 C264 1.358 1_545 S
C265 C271 1.368 . S
C266 C267 1.378 . S
C266 C271 1.379 . S
C266 N273 1.356 . S
C267 C266 1.378 . S
C267 C270 1.348 1_545 S
N268 C270 1.356 . S
N268 H280 0.984 . S
N268 H281 0.985 . S
N269 C271 1.356 . S
N269 H274 0.984 . S
N269 H275 0.985 . S
C270 C264 1.379 . S
C270 C267 1.348 1_565 S
C270 N268 1.356 . S
C271 C265 1.368 . S
C271 C266 1.379 . S
C271 N269 1.356 . S
N272 C264 1.356 . S
N272 H278 0.984 . S
N272 H279 0.984 . S
N273 C266 1.356 . S
N273 H276 0.984 . S
N273 H277 0.985 . S
H274 N269 0.984 . S
H275 N269 0.985 . S
H276 N273 0.984 . S
H277 N273 0.985 . S
H278 N272 0.984 . S
H279 N272 0.984 . S
H280 N268 0.984 . S
H281 N268 0.985 . S
C282 C283 1.363 . S
C282 C288 1.379 . S
C282 N290 1.356 . S
C283 C282 1.363 . S
C283 C289 1.363 . S
C284 C285 1.363 . S
C284 C289 1.379 . S
C284 N291 1.356 . S
C285 C284 1.363 . S
C285 C288 1.363 . S
N286 C288 1.356 . S
N286 H298 0.984 . S
N286 H299 0.985 . S
N287 C289 1.356 . S
N287 H292 0.984 . S
N287 H293 0.985 . S
C288 C282 1.379 . S
C288 C285 1.363 . S
C288 N286 1.356 . S
C289 C283 1.363 . S
C289 C284 1.379 . S
C289 N287 1.356 . S
N290 C282 1.356 . S
N290 H296 0.984 . S
N290 H297 0.984 . S
N291 C284 1.356 . S
N291 H294 0.984 . S
N291 H295 0.985 . S
H292 N287 0.984 . S
H293 N287 0.985 . S
H294 N291 0.984 . S
H295 N291 0.985 . S
H296 N290 0.984 . S
H297 N290 0.984 . S
H298 N286 0.984 . S
H299 N286 0.985 . S
C300 C301 1.363 . S
C300 C306 1.379 . S
C300 N308 1.356 . S
C301 C300 1.363 . S
C301 C307 1.363 . S
C302 C303 1.363 . S
C302 C307 1.379 . S
C302 N309 1.356 . S
C303 C302 1.363 . S
C303 C306 1.363 . S
N304 C306 1.356 . S
N304 H316 0.984 . S
N304 H317 0.985 . S
N305 C307 1.356 . S
N305 H310 0.984 . S
N305 H311 0.985 . S
C306 C300 1.379 . S
C306 C303 1.363 . S
C306 N304 1.356 . S
C307 C301 1.363 . S
C307 C302 1.379 . S
C307 N305 1.356 . S
N308 C300 1.356 . S
N308 H314 0.984 . S
N308 H315 0.984 . S
N309 C302 1.356 . S
N309 H312 0.984 . S
N309 H313 0.985 . S
H310 N305 0.984 . S
H311 N305 0.985 . S
H312 N309 0.984 . S
H313 N309 0.985 . S
H314 N308 0.984 . S
H315 N308 0.984 . S
H316 N304 0.984 . S
H317 N304 0.985 . S
C318 C319 1.377 . S
C318 C324 1.379 . S
C318 N326 1.356 . S
C319 C318 1.377 . S
C319 C325 1.349 1_455 S
C320 C321 1.363 1_655 S
C320 C325 1.379 . S
C320 N327 1.356 . S
C321 C320 1.363 1_455 S
C321 C324 1.363 . S
N322 C324 1.356 . S
N322 H334 0.984 . S
N322 H335 0.985 . S
N323 C325 1.356 . S
N323 H328 0.984 . S
N323 H329 0.985 . S
C324 C318 1.379 . S
C324 C321 1.363 . S
C324 N322 1.356 . S
C325 C319 1.349 1_655 S
C325 C320 1.379 . S
C325 N323 1.356 . S
N326 C318 1.356 . S
N326 H332 0.984 . S
N326 H333 0.984 . S
N327 C320 1.356 . S
N327 H330 0.984 . S
N327 H331 0.985 . S
H328 N323 0.984 . S
H329 N323 0.985 . S
H330 N327 0.984 . S
H331 N327 0.985 . S
H332 N326 0.984 . S
H333 N326 0.984 . S
H334 N322 0.984 . S
H335 N322 0.985 . S
C336 C337 1.363 . S
C336 C342 1.379 . S
C336 N344 1.356 . S
C337 C336 1.363 . S
C337 C343 1.363 1_565 S
C338 C339 1.353 1_545 S
C338 C343 1.379 . S
C338 N345 1.356 . S
C339 C338 1.353 1_565 S
C339 C342 1.373 . S
N340 C342 1.356 . S
N340 H352 0.984 . S
N340 H353 0.985 . S
N341 C343 1.356 . S
N341 H346 0.984 . S
N341 H347 0.985 . S
C342 C336 1.379 . S
C342 C339 1.373 . S
C342 N340 1.356 . S
C343 C337 1.363 1_545 S
C343 C338 1.379 . S
C343 N341 1.356 . S
N344 C336 1.356 . S
N344 H350 0.984 . S
N344 H351 0.984 . S
N345 C338 1.356 . S
N345 H348 0.984 1_554 S
N345 H349 0.985 . S
H346 N341 0.984 . S
H347 N341 0.985 . S
H348 N345 0.984 1_556 S
H349 N345 0.985 . S
H350 N344 0.984 . S
H351 N344 0.984 . S
H352 N340 0.984 . S
H353 N340 0.985 . S
C354 C355 1.363 . S
C354 C360 1.379 . S
C354 N362 1.356 . S
C355 C354 1.363 . S
C355 C361 1.363 . S
C356 C357 1.363 . S
C356 C361 1.379 . S
C356 N363 1.356 . S
C357 C356 1.363 . S
C357 C360 1.363 . S
N358 C360 1.356 . S
N358 H370 0.984 . S
N358 H371 0.985 . S
N359 C361 1.356 . S
N359 H364 0.984 . S
N359 H365 0.985 . S
C360 C354 1.379 . S
C360 C357 1.363 . S
C360 N358 1.356 . S
C361 C355 1.363 . S
C361 C356 1.379 . S
C361 N359 1.356 . S
N362 C354 1.356 . S
N362 H368 0.984 . S
N362 H369 0.984 . S
N363 C356 1.356 . S
N363 H366 0.984 1_554 S
N363 H367 0.985 . S
H364 N359 0.984 . S
H365 N359 0.985 . S
H366 N363 0.984 1_556 S
H367 N363 0.985 . S
H368 N362 0.984 . S
H369 N362 0.984 . S
H370 N358 0.984 . S
H371 N358 0.985 . S
C372 C373 1.363 . S
C372 C378 1.379 . S
C372 N380 1.356 . S
C373 C372 1.363 . S
C373 C379 1.363 . S
C374 C375 1.363 . S
C374 C379 1.379 . S
C374 N381 1.356 . S
C375 C374 1.363 . S
C375 C378 1.363 . S
N376 C378 1.356 . S
N376 H388 0.984 . S
N376 H389 0.985 . S
N377 C379 1.356 . S
N377 H382 0.984 . S
N377 H383 0.985 . S
C378 C372 1.379 . S
C378 C375 1.363 . S
C378 N376 1.356 . S
C379 C373 1.363 . S
C379 C374 1.379 . S
C379 N377 1.356 . S
N380 C372 1.356 . S
N380 H386 0.984 . S
N380 H387 0.984 . S
N381 C374 1.356 . S
N381 H384 0.984 1_554 S
N381 H385 0.985 . S
H382 N377 0.984 . S
H383 N377 0.985 . S
H384 N381 0.984 1_556 S
H385 N381 0.985 . S
H386 N380 0.984 . S
H387 N380 0.984 . S
H388 N376 0.984 . S
H389 N376 0.985 . S
C390 C391 1.361 1_455 S
C390 C396 1.379 . S
C390 N398 1.356 . S
C391 C390 1.361 1_655 S
C391 C397 1.366 . S
C392 C393 1.363 . S
C392 C397 1.379 . S
C392 N399 1.356 . S
C393 C392 1.363 . S
C393 C396 1.363 1_655 S
N394 C396 1.356 . S
N394 H406 0.984 1_554 S
N394 H407 0.985 1_554 S
N395 C397 1.356 . S
N395 H400 0.984 . S
N395 H401 0.985 . S
C396 C390 1.379 . S
C396 C393 1.363 1_455 S
C396 N394 1.356 . S
C397 C391 1.366 . S
C397 C392 1.379 . S
C397 N395 1.356 . S
N398 C390 1.356 . S
N398 H404 0.984 . S
N398 H405 0.984 . S
N399 C392 1.356 . S
N399 H402 0.984 . S
N399 H403 0.985 . S
H400 N395 0.984 . S
H401 N395 0.985 . S
H402 N399 0.984 . S
H403 N399 0.985 . S
H404 N398 0.984 . S
H405 N398 0.984 . S
H406 N394 0.984 1_556 S
H407 N394 0.985 1_556 S
C408 C409 1.363 . S
C408 C414 1.379 . S
C408 N416 1.356 1_554 S
C409 C408 1.363 . S
C409 C415 1.363 . S
C410 C411 1.363 . S
C410 C415 1.379 . S
C410 N417 1.356 . S
C411 C410 1.363 . S
C411 C414 1.363 . S
N412 C414 1.356 . S
N412 H424 0.984 1_554 S
N412 H425 0.985 . S
N413 C415 1.356 1_455 S
N413 H418 0.984 . S
N413 H419 0.985 . S
C414 C408 1.379 . S
C414 C411 1.363 . S
C414 N412 1.356 . S
C415 C409 1.363 . S
C415 C410 1.379 . S
C415 N413 1.356 1_655 S
N416 C408 1.356 1_556 S
N416 H422 0.984 . S
N416 H423 0.984 1_655 S
N417 C410 1.356 . S
N417 H420 0.984 . S
N417 H421 0.985 . S
H418 N413 0.984 . S
H419 N413 0.985 . S
H420 N417 0.984 . S
H421 N417 0.985 . S
H422 N416 0.984 . S
H423 N416 0.984 1_455 S
H424 N412 0.984 1_556 S
H425 N412 0.985 . S
C426 C427 1.363 . S
C426 C432 1.379 . S
C426 N434 1.356 1_565 S
C427 C426 1.363 . S
C427 C433 1.363 . S
C428 C429 1.363 . S
C428 C433 1.379 . S
C428 N435 1.356 . S
C429 C428 1.363 . S
C429 C432 1.363 . S
N430 C432 1.356 . S
N430 H442 0.984 . S
N430 H443 0.985 . S
N431 C433 1.356 1_556 S
N431 H436 0.984 1_565 S
N431 H437 0.985 . S
C432 C426 1.379 . S
C432 C429 1.363 . S
C432 N430 1.356 . S
C433 C427 1.363 . S
C433 C428 1.379 . S
C433 N431 1.356 1_554 S
N434 C426 1.356 1_545 S
N434 H440 0.984 . S
N434 H441 0.984 . S
N435 C428 1.356 . S
N435 H438 0.984 . S
N435 H439 0.985 1_554 S
H436 N431 0.984 1_545 S
H437 N431 0.985 . S
H438 N435 0.984 . S
H439 N435 0.985 1_556 S
H440 N434 0.984 . S
H441 N434 0.984 . S
H442 N430 0.984 . S
H443 N430 0.985 . S
C444 C445 1.363 . S
C444 C450 1.379 . S
C444 N452 1.356 . S
C445 C444 1.363 . S
C445 C451 1.363 . S
C446 C447 1.363 . S
C446 C451 1.379 . S
C446 N453 1.356 . S
C447 C446 1.363 . S
C447 C450 1.363 . S
N448 C450 1.356 . S
N448 H460 0.984 . S
N448 H461 0.985 . S
N449 C451 1.356 1_556 S
N449 H454 0.984 . S
N449 H455 0.985 . S
C450 C444 1.379 . S
C450 C447 1.363 . S
C450 N448 1.356 . S
C451 C445 1.363 . S
C451 C446 1.379 . S
C451 N449 1.356 1_554 S
N452 C444 1.356 . S
N452 H458 0.984 . S
N452 H459 0.984 . S
N453 C446 1.356 . S
N453 H456 0.984 . S
N453 H457 0.985 1_554 S
H454 N449 0.984 . S
H455 N449 0.985 . S
H456 N453 0.984 . S
H457 N453 0.985 1_556 S
H458 N452 0.984 . S
H459 N452 0.984 . S
H460 N448 0.984 . S
H461 N448 0.985 . S
C462 C463 1.363 . S
C462 C468 1.379 . S
C462 N470 1.356 . S
C463 C462 1.363 . S
C463 C469 1.363 . S
C464 C465 1.363 . S
C464 C469 1.379 . S
C464 N471 1.356 . S
C465 C464 1.363 . S
C465 C468 1.363 . S
N466 C468 1.356 . S
N466 H478 0.984 . S
N466 H479 0.985 . S
N467 C469 1.356 . S
N467 H472 0.984 1_554 S
N467 H473 0.985 1_554 S
C468 C462 1.379 . S
C468 C465 1.363 . S
C468 N466 1.356 . S
C469 C463 1.363 . S
C469 C464 1.379 . S
C469 N467 1.356 . S
N470 C462 1.356 . S
N470 H476 0.984 . S
N470 H477 0.984 . S
N471 C464 1.356 . S
N471 H474 0.984 . S
N471 H475 0.985 . S
H472 N467 0.984 1_556 S
H473 N467 0.985 1_556 S
H474 N471 0.984 . S
H475 N471 0.985 . S
H476 N470 0.984 . S
H477 N470 0.984 . S
H478 N466 0.984 . S
H479 N466 0.985 . S
C480 C481 1.363 . S
C480 C486 1.379 . S
C480 N488 1.356 . S
C481 C480 1.363 . S
C481 C487 1.363 . S
C482 C483 1.363 . S
C482 C487 1.379 . S
C482 N489 1.356 . S
C483 C482 1.363 . S
C483 C486 1.363 . S
N484 C486 1.356 . S
N484 H496 0.984 . S
N484 H497 0.985 . S
N485 C487 1.356 1_655 S
N485 H490 0.984 . S
N485 H491 0.985 . S
C486 C480 1.379 . S
C486 C483 1.363 . S
C486 N484 1.356 . S
C487 C481 1.363 . S
C487 C482 1.379 . S
C487 N485 1.356 1_455 S
N488 C480 1.356 . S
N488 H494 0.984 . S
N488 H495 0.984 1_455 S
N489 C482 1.356 . S
N489 H492 0.984 . S
N489 H493 0.985 . S
H490 N485 0.984 . S
H491 N485 0.985 . S
H492 N489 0.984 . S
H493 N489 0.985 . S
H494 N488 0.984 . S
H495 N488 0.984 1_655 S
H496 N484 0.984 . S
H497 N484 0.985 . S
C498 C499 1.363 . S
C498 C504 1.379 . S
C498 N506 1.356 1_545 S
C499 C498 1.363 . S
C499 C505 1.363 . S
C500 C501 1.363 . S
C500 C505 1.379 . S
C500 N507 1.356 . S
C501 C500 1.363 . S
C501 C504 1.363 . S
N502 C504 1.356 . S
N502 H514 0.984 . S
N502 H515 0.985 . S
N503 C505 1.356 . S
N503 H508 0.984 1_545 S
N503 H509 0.985 . S
C504 C498 1.379 . S
C504 C501 1.363 . S
C504 N502 1.356 . S
C505 C499 1.363 . S
C505 C500 1.379 . S
C505 N503 1.356 . S
N506 C498 1.356 1_565 S
N506 H512 0.984 . S
N506 H513 0.984 . S
N507 C500 1.356 . S
N507 H510 0.984 . S
N507 H511 0.985 . S
H508 N503 0.984 1_565 S
H509 N503 0.985 . S
H510 N507 0.984 . S
H511 N507 0.985 . S
H512 N506 0.984 . S
H513 N506 0.984 . S
H514 N502 0.984 . S
H515 N502 0.985 . S
C516 C517 1.363 . S
C516 C522 1.379 . S
C516 N524 1.356 . S
C517 C516 1.363 . S
C517 C523 1.363 . S
C518 C519 1.363 . S
C518 C523 1.379 . S
C518 N525 1.356 . S
C519 C518 1.363 . S
C519 C522 1.363 . S
N520 C522 1.356 . S
N520 H532 0.984 . S
N520 H533 0.985 . S
N521 C523 1.356 . S
N521 H526 0.984 . S
N521 H527 0.985 . S
C522 C516 1.379 . S
C522 C519 1.363 . S
C522 N520 1.356 . S
C523 C517 1.363 . S
C523 C518 1.379 . S
C523 N521 1.356 . S
N524 C516 1.356 . S
N524 H530 0.984 . S
N524 H531 0.984 . S
N525 C518 1.356 . S
N525 H528 0.984 . S
N525 H529 0.985 . S
H526 N521 0.984 . S
H527 N521 0.985 . S
H528 N525 0.984 . S
H529 N525 0.985 . S
H530 N524 0.984 . S
H531 N524 0.984 . S
H532 N520 0.984 . S
H533 N520 0.985 . S
C534 C535 1.363 . S
C534 C540 1.379 . S
C534 N542 1.356 . S
C535 C534 1.363 . S
C535 C541 1.363 . S
C536 C537 1.363 . S
C536 C541 1.379 . S
C536 N543 1.356 . S
C537 C536 1.363 . S
C537 C540 1.363 . S
N538 C540 1.356 . S
N538 H550 0.984 . S
N538 H551 0.985 . S
N539 C541 1.356 . S
N539 H544 0.984 . S
N539 H545 0.985 . S
C540 C534 1.379 . S
C540 C537 1.363 . S
C540 N538 1.356 . S
C541 C535 1.363 . S
C541 C536 1.379 . S
C541 N539 1.356 . S
N542 C534 1.356 . S
N542 H548 0.984 . S
N542 H549 0.984 . S
N543 C536 1.356 . S
N543 H546 0.984 . S
N543 H547 0.985 . S
H544 N539 0.984 . S
H545 N539 0.985 . S
H546 N543 0.984 . S
H547 N543 0.985 . S
H548 N542 0.984 . S
H549 N542 0.984 . S
H550 N538 0.984 . S
H551 N538 0.985 . S
C552 C553 1.363 1_655 S
C552 C558 1.379 . S
C552 N560 1.356 . S
C553 C552 1.363 1_455 S
C553 C559 1.363 1_556 S
C554 C555 1.363 1_554 S
C554 C559 1.379 . S
C554 N561 1.356 . S
C555 C554 1.363 1_556 S
C555 C558 1.363 1_455 S
N556 C558 1.356 . S
N556 H568 0.984 . S
N556 H569 0.985 . S
N557 C559 1.356 . S
N557 H562 0.984 . S
N557 H563 0.985 . S
C558 C552 1.379 . S
C558 C555 1.363 1_655 S
C558 N556 1.356 . S
C559 C553 1.363 1_554 S
C559 C554 1.379 . S
C559 N557 1.356 . S
N560 C552 1.356 . S
N560 H566 0.984 . S
N560 H567 0.984 . S
N561 C554 1.356 . S
N561 H564 0.984 . S
N561 H565 0.985 . S
H562 N557 0.984 . S
H563 N557 0.985 . S
H564 N561 0.984 . S
H565 N561 0.985 . S
H566 N560 0.984 . S
H567 N560 0.984 . S
H568 N556 0.984 . S
H569 N556 0.985 . S
C570 C571 1.363 1_565 S
C570 C576 1.379 . S
C570 N578 1.356 . S
C571 C570 1.363 1_545 S
C571 C577 1.363 1_556 S
C572 C573 1.359 1_554 S
C572 C577 1.379 . S
C572 N579 1.360 . S
C573 C572 1.359 1_556 S
C573 C576 1.363 1_545 S
N574 C576 1.356 . S
N574 H586 0.984 . S
N574 H587 0.985 . S
N575 C577 1.356 . S
N575 H580 0.984 . S
N575 H581 0.985 . S
C576 C570 1.379 . S
C576 C573 1.363 1_565 S
C576 N574 1.356 . S
C577 C571 1.363 1_554 S
C577 C572 1.379 . S
C577 N575 1.356 . S
N578 C570 1.356 . S
N578 H584 0.984 . S
N578 H585 0.984 . S
N579 C572 1.360 . S
N579 H582 0.984 . S
N579 H583 0.985 . S
H580 N575 0.984 . S
H581 N575 0.985 . S
H582 N579 0.984 . S
H583 N579 0.985 . S
H584 N578 0.984 . S
H585 N578 0.984 . S
H586 N574 0.984 . S
H587 N574 0.985 . S
C588 C589 1.363 . S
C588 C594 1.379 . S
C588 N596 1.356 . S
C589 C588 1.363 . S
C589 C595 1.363 1_556 S
C590 C591 1.363 1_554 S
C590 C595 1.379 . S
C590 N597 1.356 . S
C591 C590 1.363 1_556 S
C591 C594 1.363 . S
N592 C594 1.356 . S
N592 H604 0.984 . S
N592 H605 0.985 . S
N593 C595 1.356 . S
N593 H598 0.984 . S
N593 H599 0.985 . S
C594 C588 1.379 . S
C594 C591 1.363 . S
C594 N592 1.356 . S
C595 C589 1.363 1_554 S
C595 C590 1.379 . S
C595 N593 1.356 . S
N596 C588 1.356 . S
N596 H602 0.984 . S
N596 H603 0.984 . S
N597 C590 1.356 . S
N597 H600 0.984 . S
N597 H601 0.985 . S
H598 N593 0.984 . S
H599 N593 0.985 . S
H600 N597 0.984 . S
H601 N597 0.985 . S
H602 N596 0.984 . S
H603 N596 0.984 . S
H604 N592 0.984 . S
H605 N592 0.985 . S
C606 C607 1.363 1_554 S
C606 C612 1.379 . S
C606 N614 1.356 . S
C607 C606 1.363 1_556 S
C607 C613 1.363 . S
C608 C609 1.363 . S
C608 C613 1.379 . S
C608 N615 1.356 . S
C609 C608 1.363 . S
C609 C612 1.363 1_556 S
N610 C612 1.356 . S
N610 H622 0.984 . S
N610 H623 0.985 . S
N611 C613 1.356 . S
N611 H616 0.984 . S
N611 H617 0.985 . S
C612 C606 1.379 . S
C612 C609 1.363 1_554 S
C612 N610 1.356 . S
C613 C607 1.363 . S
C613 C608 1.379 . S
C613 N611 1.356 . S
N614 C606 1.356 . S
N614 H620 0.984 . S
N614 H621 0.984 . S
N615 C608 1.356 . S
N615 H618 0.984 . S
N615 H619 0.985 . S
H616 N611 0.984 . S
H617 N611 0.985 . S
H618 N615 0.984 . S
H619 N615 0.985 . S
H620 N614 0.984 . S
H621 N614 0.984 . S
H622 N610 0.984 . S
H623 N610 0.985 . S
C624 C625 1.363 1_455 S
C624 C630 1.379 . S
C624 N632 1.356 . S
C625 C624 1.363 1_655 S
C625 C631 1.363 . S
C626 C627 1.363 . S
C626 C631 1.379 . S
C626 N633 1.356 . S
C627 C626 1.363 . S
C627 C630 1.363 1_655 S
N628 C630 1.356 . S
N628 H640 0.984 . S
N628 H641 0.985 . S
N629 C631 1.356 . S
N629 H634 0.984 . S
N629 H635 0.985 1_556 S
C630 C624 1.379 . S
C630 C627 1.363 1_455 S
C630 N628 1.356 . S
C631 C625 1.363 . S
C631 C626 1.379 . S
C631 N629 1.356 . S
N632 C624 1.356 . S
N632 H638 0.984 . S
N632 H639 0.984 . S
N633 C626 1.356 . S
N633 H636 0.984 . S
N633 H637 0.985 1_556 S
H634 N629 0.984 . S
H635 N629 0.985 1_554 S
H636 N633 0.984 . S
H637 N633 0.985 1_554 S
H638 N632 0.984 . S
H639 N632 0.984 . S
H640 N628 0.984 . S
H641 N628 0.985 . S
C642 C643 1.363 1_545 S
C642 C648 1.379 . S
C642 N650 1.356 . S
C643 C642 1.363 1_565 S
C643 C649 1.363 . S
C644 C645 1.363 . S
C644 C649 1.379 . S
C644 N651 1.356 . S
C645 C644 1.363 . S
C645 C648 1.363 1_565 S
N646 C648 1.356 . S
N646 H658 0.984 . S
N646 H659 0.985 . S
N647 C649 1.356 . S
N647 H652 0.984 . S
N647 H653 0.985 1_556 S
C648 C642 1.379 . S
C648 C645 1.363 1_545 S
C648 N646 1.356 . S
C649 C643 1.363 . S
C649 C644 1.379 . S
C649 N647 1.356 . S
N650 C642 1.356 . S
N650 H656 0.984 . S
N650 H657 0.984 . S
N651 C644 1.356 . S
N651 H654 0.984 . S
N651 H655 0.985 1_556 S
H652 N647 0.984 . S
H653 N647 0.985 1_554 S
H654 N651 0.984 . S
H655 N651 0.985 1_554 S
H656 N650 0.984 . S
H657 N650 0.984 . S
H658 N646 0.984 . S
H659 N646 0.985 . S
C660 C661 1.363 . S
C660 C666 1.379 . S
C660 N668 1.356 . S
C661 C660 1.363 . S
C661 C667 1.363 . S
C662 C663 1.363 . S
C662 C667 1.379 . S
C662 N669 1.356 . S
C663 C662 1.363 . S
C663 C666 1.363 . S
N664 C666 1.356 . S
N664 H676 0.984 . S
N664 H677 0.985 . S
N665 C667 1.356 . S
N665 H670 0.984 . S
N665 H671 0.985 1_556 S
C666 C660 1.379 . S
C666 C663 1.363 . S
C666 N664 1.356 . S
C667 C661 1.363 . S
C667 C662 1.379 . S
C667 N665 1.356 . S
N668 C660 1.356 . S
N668 H674 0.984 . S
N668 H675 0.984 . S
N669 C662 1.356 . S
N669 H672 0.984 . S
N669 H673 0.985 1_556 S
H670 N665 0.984 . S
H671 N665 0.985 1_554 S
H672 N669 0.984 . S
H673 N669 0.985 1_554 S
H674 N668 0.984 . S
H675 N668 0.984 . S
H676 N664 0.984 . S
H677 N664 0.985 . S
C678 C679 1.363 . S
C678 C684 1.379 . S
C678 N686 1.356 . S
C679 C678 1.363 . S
C679 C685 1.363 . S
C680 C681 1.363 . S
C680 C685 1.379 . S
C680 N687 1.356 . S
C681 C680 1.363 . S
C681 C684 1.363 . S
N682 C684 1.356 . S
N682 H694 0.984 1_556 S
N682 H695 0.985 . S
N683 C685 1.356 . S
N683 H688 0.984 . S
N683 H689 0.985 . S
C684 C678 1.379 . S
C684 C681 1.363 . S
C684 N682 1.356 . S
C685 C679 1.363 . S
C685 C680 1.379 . S
C685 N683 1.356 . S
N686 C678 1.356 . S
N686 H692 0.984 1_556 S
N686 H693 0.984 . S
N687 C680 1.356 . S
N687 H690 0.984 . S
N687 H691 0.985 . S
H688 N683 0.984 . S
H689 N683 0.985 . S
H690 N687 0.984 . S
H691 N687 0.985 . S
H692 N686 0.984 1_554 S
H693 N686 0.984 . S
H694 N682 0.984 1_554 S
H695 N682 0.985 . S
C265 N80 1.998 1_545 S
C267 C114 2.169 1_545 S
C285 C154 2.187 . S
C283 N93 2.017 . S
C303 C194 2.199 . S
C301 N54 2.034 . S
C321 C234 2.183 1_455 S
C319 N67 2.013 1_455 S
C339 C123 2.170 1_564 S
C337 N28 2.000 . S
C355 N41 2.014 . S
C357 C163 2.188 1_554 S
C373 N2 2.029 . S
C375 C203 2.199 1_554 S
C391 N15 2.014 . S
C393 C243 2.183 1_654 S
C411 C120 0.831 . S
C409 N70 0.847 . S
C429 C160 0.828 . S
C427 N83 0.845 . S
C447 C200 0.823 . S
C445 N96 0.840 . S
C463 N57 0.843 . S
C465 C240 0.821 . S
C481 N18 0.852 1_455 S
C483 C111 0.834 . S
C501 C151 0.828 . S
C499 N31 0.846 1_545 S
C519 C191 0.823 . S
C517 N44 0.843 . S
C535 N5 0.846 . S
C537 C231 0.827 . S
C553 N66 2.412 1_455 S
C555 C115 2.527 . S
C571 N79 2.372 1_545 S
C573 C155 2.488 . S
C591 C195 2.473 . S
C589 N92 2.363 . S
C609 C235 2.516 . S
C607 N53 2.399 . S
C625 N14 2.400 . S
C627 C106 2.534 . S
C645 C146 2.488 . S
C643 N27 2.358 . S
C663 C186 2.473 . S
C661 N40 2.342 . S
C679 N1 2.383 . S
C681 C226 2.520 . S
