# Generated by pormake.
# Topology nom, (4,4)-cn, num edge types: 1
# Building blocks:
#     Node 0, Type 0, BuildingBlock: AZAVOO_clean_linker_0, # of connection points: 4
#     Node 1, Type 0, BuildingBlock: AZAVOO_clean_linker_0, # of connection points: 4
#     Node 2, Type 0, BuildingBlock: AZAVOO_clean_linker_0, # of connection points: 4
#     Node 3, Type 0, BuildingBlock: AZAVOO_clean_linker_0, # of connection points: 4
#     Node 4, Type 0, BuildingBlock: AZAVOO_clean_linker_0, # of connection points: 4
#     Node 5, Type 0, BuildingBlock: AZAVOO_clean_linker_0, # of connection points: 4
#     Node 6, Type 1, BuildingBlock: TATPOV_clean_sbu_0, # of connection points: 4
#     Node 7, Type 1, BuildingBlock: TATPOV_clean_sbu_0, # of connection points: 4
#     Node 8, Type 1, BuildingBlock: TATPOV_clean_sbu_0, # of connection points: 4
#     Node 9, Type 1, BuildingBlock: TATPOV_clean_sbu_0, # of connection points: 4
#     Node 10, Type 1, BuildingBlock: TATPOV_clean_sbu_0, # of connection points: 4
#     Node 11, Type 1, BuildingBlock: TATPOV_clean_sbu_0, # of connection points: 4
#     Edge 12, Type (0, 1), BuildingBlock: MIFKUJ_clean_linker_0, # of connection points: 2
#     Edge 13, Type (0, 1), BuildingBlock: MIFKUJ_clean_linker_0, # of connection points: 2
#     Edge 14, Type (0, 1), BuildingBlock: MIFKUJ_clean_linker_0, # of connection points: 2
#     Edge 15, Type (0, 1), BuildingBlock: MIFKUJ_clean_linker_0, # of connection points: 2
#     Edge 16, Type (0, 1), BuildingBlock: MIFKUJ_clean_linker_0, # of connection points: 2
#     Edge 17, Type (0, 1), BuildingBlock: MIFKUJ_clean_linker_0, # of connection points: 2
#     Edge 18, Type (0, 1), BuildingBlock: MIFKUJ_clean_linker_0, # of connection points: 2
#     Edge 19, Type (0, 1), BuildingBlock: MIFKUJ_clean_linker_0, # of connection points: 2
#     Edge 20, Type (0, 1), BuildingBlock: MIFKUJ_clean_linker_0, # of connection points: 2
#     Edge 21, Type (0, 1), BuildingBlock: MIFKUJ_clean_linker_0, # of connection points: 2
#     Edge 22, Type (0, 1), BuildingBlock: MIFKUJ_clean_linker_0, # of connection points: 2
#     Edge 23, Type (0, 1), BuildingBlock: MIFKUJ_clean_linker_0, # of connection points: 2
#     Edge 24, Type (0, 1), BuildingBlock: MIFKUJ_clean_linker_0, # of connection points: 2
#     Edge 25, Type (0, 1), BuildingBlock: MIFKUJ_clean_linker_0, # of connection points: 2
#     Edge 26, Type (0, 1), BuildingBlock: MIFKUJ_clean_linker_0, # of connection points: 2
#     Edge 27, Type (0, 1), BuildingBlock: MIFKUJ_clean_linker_0, # of connection points: 2
#     Edge 28, Type (0, 1), BuildingBlock: MIFKUJ_clean_linker_0, # of connection points: 2
#     Edge 29, Type (0, 1), BuildingBlock: MIFKUJ_clean_linker_0, # of connection points: 2
#     Edge 30, Type (0, 1), BuildingBlock: MIFKUJ_clean_linker_0, # of connection points: 2
#     Edge 31, Type (0, 1), BuildingBlock: MIFKUJ_clean_linker_0, # of connection points: 2
#     Edge 32, Type (0, 1), BuildingBlock: MIFKUJ_clean_linker_0, # of connection points: 2
#     Edge 33, Type (0, 1), BuildingBlock: MIFKUJ_clean_linker_0, # of connection points: 2
#     Edge 34, Type (0, 1), BuildingBlock: MIFKUJ_clean_linker_0, # of connection points: 2
#     Edge 35, Type (0, 1), BuildingBlock: MIFKUJ_clean_linker_0, # of connection points: 2
# Relax obj value: 0.151
# Max RMSD: 0.225
# Mean RMSD: 0.171
data_MOF--net-nom--node1-TATPOV_clean_sbu_0--node2-AZAVOO_clean_linker_0--edge1-MIFKUJ_clean_linker_0
_symmetry_space_group_name_H-M    P1
_symmetry_Int_Tables_number       1
_symmetry_cell_setting            triclinic
loop_
_symmetry_equiv_pos_as_xyz
'x, y, z'
_cell_length_a     59.173115
_cell_length_b     61.480672
_cell_length_c     74.57513
_cell_angle_alpha  90.492521
_cell_angle_beta   90.312325
_cell_angle_gamma 121.01714
loop_
_atom_site_label
_atom_site_type_symbol
_atom_site_fract_x
_atom_site_fract_y
_atom_site_fract_z
_atom_type_partial_charge
H0 H 0.04045 0.45769 0.19521 0.0
H1 H 0.19429 0.62662 0.35303 0.0
H2 H 6e-05 0.44041 0.28746 0.0
H3 H 0.9625 0.4136 0.26797 0.0
H4 H 0.93357 0.46486 0.27563 0.0
H5 H 0.97234 0.49245 0.29427 0.0
H6 H 0.0586 0.47404 0.27266 0.0
H7 H 0.05551 0.46394 0.2406 0.0
H8 H 0.00997 0.49994 0.23219 0.0
H9 H 0.01351 0.51021 0.26423 0.0
H10 H 0.10821 0.51511 0.29902 0.0
H11 H 0.14982 0.54546 0.28501 0.0
H12 H 0.11064 0.57883 0.25747 0.0
H13 H 0.06978 0.54974 0.27266 0.0
H14 H 0.09163 0.5092 0.34021 0.0
H15 H 0.13394 0.53817 0.35495 0.0
H16 H 0.13694 0.60134 0.32759 0.0
H17 H 0.09438 0.57223 0.31323 0.0
H18 H 0.03217 0.47742 0.35461 0.0
H19 H 0.045 0.48879 0.3862 0.0
H20 H 0.06827 0.56642 0.37519 0.0
H21 H 0.05509 0.55486 0.34374 0.0
H22 H 0.97633 0.4449 0.32717 0.0
H23 H 0.9346 0.43248 0.34237 0.0
H24 H 0.95975 0.51149 0.34994 0.0
H25 H 0.00052 0.52377 0.33407 0.0
O26 O 0.04166 0.46211 0.20784 0.0
O27 O 0.01844 0.48096 0.20423 0.0
O28 O 0.17436 0.58183 0.36187 0.0
O29 O 0.17747 0.61478 0.34748 0.0
C30 C 0.01461 0.48695 0.30081 0.0
C31 C 0.03776 0.49845 0.29033 0.0
C32 C 0.06235 0.51583 0.29833 0.0
C33 C 0.06401 0.52092 0.31695 0.0
C34 C 0.04087 0.50979 0.32735 0.0
C35 C 0.01602 0.49341 0.31922 0.0
C36 C 0.98906 0.46847 0.29213 0.0
C37 C 0.98535 0.44559 0.28518 0.0
C38 C 0.96367 0.43016 0.27414 0.0
C39 C 0.945 0.43712 0.27008 0.0
C40 C 0.9478 0.45916 0.2782 0.0
C41 C 0.96977 0.47482 0.28902 0.0
C42 C 0.03618 0.49274 0.27078 0.0
C43 C 0.04807 0.47981 0.26385 0.0
C44 C 0.04621 0.47402 0.24554 0.0
C45 C 0.03245 0.48109 0.23383 0.0
C46 C 0.02068 0.49418 0.24084 0.0
C47 C 0.02261 0.50001 0.25913 0.0
C48 C 0.08606 0.53043 0.28706 0.0
C49 C 0.10862 0.52881 0.28979 0.0
C50 C 0.13234 0.54608 0.28163 0.0
C51 C 0.13374 0.56492 0.27029 0.0
C52 C 0.11049 0.56505 0.26649 0.0
C53 C 0.08698 0.54817 0.27494 0.0
C54 C 0.09 0.53859 0.3256 0.0
C55 C 0.10145 0.5293 0.33745 0.0
C56 C 0.12562 0.54589 0.34583 0.0
C57 C 0.13886 0.57208 0.34241 0.0
C58 C 0.12731 0.58129 0.33049 0.0
C59 C 0.10305 0.5647 0.32222 0.0
C60 C 0.04307 0.5154 0.34689 0.0
C61 C 0.03929 0.49669 0.35916 0.0
C62 C 0.04664 0.50321 0.37715 0.0
C63 C 0.05798 0.52854 0.383 0.0
C64 C 0.05993 0.54683 0.37093 0.0
C65 C 0.05234 0.54026 0.35303 0.0
C66 C 0.99156 0.48527 0.32955 0.0
C67 C 0.97281 0.45949 0.33213 0.0
C68 C 0.94911 0.45243 0.34082 0.0
C69 C 0.94425 0.47108 0.34743 0.0
C70 C 0.96329 0.4968 0.3452 0.0
C71 C 0.98657 0.50381 0.33619 0.0
C72 C 0.03041 0.4748 0.2144 0.0
C73 C 0.16461 0.58976 0.35121 0.0
H74 H 0.50565 0.088 0.36124 0.0
H75 H 0.50472 0.18513 0.54866 0.0
H76 H 0.51155 0.03389 0.45007 0.0
H77 H 0.50994 0.99822 0.43432 0.0
H78 H 0.426 0.95288 0.4434 0.0
H79 H 0.42771 0.98924 0.45869 0.0
H80 H 0.52234 0.08765 0.43859 0.0
H81 H 0.52331 0.09267 0.40605 0.0
H82 H 0.43903 0.04033 0.40332 0.0
H83 H 0.43829 0.03572 0.43591 0.0
H84 H 0.5341 0.12349 0.47134 0.0
H85 H 0.54519 0.16492 0.45978 0.0
H86 H 0.46487 0.13299 0.44095 0.0
H87 H 0.45391 0.09153 0.45267 0.0
H88 H 0.53212 0.10343 0.50953 0.0
H89 H 0.54475 0.13919 0.53015 0.0
H90 H 0.47239 0.13711 0.51694 0.0
H91 H 0.4599 0.10121 0.49651 0.0
H92 H 0.51326 0.04193 0.51253 0.0
H93 H 0.52233 0.04156 0.54452 0.0
H94 H 0.46346 0.06097 0.55686 0.0
H95 H 0.45375 0.06017 0.52489 0.0
H96 H 0.48687 0.99729 0.48664 0.0
H97 H 0.46213 0.95402 0.49833 0.0
H98 H 0.40084 0.96759 0.51589 0.0
H99 H 0.4248 0.00987 0.50326 0.0
O100 O 0.50482 0.08568 0.37409 0.0
O101 O 0.46152 0.05846 0.3734 0.0
O102 O 0.53807 0.17258 0.54586 0.0
O103 O 0.50033 0.17117 0.54046 0.0
C104 C 0.47217 0.03498 0.46696 0.0
C105 C 0.47957 0.05873 0.45941 0.0
C106 C 0.48626 0.07981 0.47075 0.0
C107 C 0.487 0.07744 0.48956 0.0
C108 C 0.47958 0.05363 0.49698 0.0
C109 C 0.47074 0.03217 0.48574 0.0
C110 C 0.46976 0.01412 0.45548 0.0
C111 C 0.49273 0.01639 0.44838 0.0
C112 C 0.49184 0.99585 0.43967 0.0
C113 C 0.46794 0.97255 0.43796 0.0
C114 C 0.44471 0.97058 0.44454 0.0
C115 C 0.44561 0.99128 0.45321 0.0
C116 C 0.48023 0.06142 0.43961 0.0
C117 C 0.5041 0.07737 0.43094 0.0
C118 C 0.5046 0.08015 0.41235 0.0
C119 C 0.48124 0.06693 0.40208 0.0
C120 C 0.45738 0.0508 0.41083 0.0
C121 C 0.4569 0.04808 0.42943 0.0
C122 C 0.49317 0.1046 0.46296 0.0
C123 C 0.51891 0.12547 0.46475 0.0
C124 C 0.52516 0.14909 0.45819 0.0
C125 C 0.50582 0.15221 0.4496 0.0
C126 C 0.48019 0.13109 0.44743 0.0
C127 C 0.4739 0.10748 0.45412 0.0
C128 C 0.4951 0.09975 0.50155 0.0
C129 C 0.51906 0.11076 0.51111 0.0
C130 C 0.52622 0.13119 0.52285 0.0
C131 C 0.50955 0.141 0.5252 0.0
C132 C 0.48566 0.13001 0.51547 0.0
C133 C 0.47851 0.10957 0.50374 0.0
C134 C 0.48308 0.05136 0.51643 0.0
C135 C 0.502 0.04562 0.52219 0.0
C136 C 0.50724 0.04554 0.54043 0.0
C137 C 0.49368 0.0513 0.55321 0.0
C138 C 0.47397 0.05606 0.54738 0.0
C139 C 0.4686 0.05594 0.52913 0.0
C140 C 0.45739 0.00655 0.49382 0.0
C141 C 0.46801 0.99075 0.49291 0.0
C142 C 0.45395 0.96614 0.49974 0.0
C143 C 0.42927 0.95715 0.50783 0.0
C144 C 0.41937 0.97354 0.50931 0.0
C145 C 0.43318 0.99785 0.50228 0.0
C146 C 0.48182 0.07002 0.38234 0.0
C147 C 0.51695 0.16255 0.53779 0.0
H148 H 0.61206 0.5834 0.76321 0.0
H149 H 0.53333 0.4129 0.59376 0.0
H150 H 0.56636 0.59972 0.6762 0.0
H151 H 0.56591 0.6274 0.6998 0.0
H152 H 0.48214 0.57614 0.70597 0.0
H153 H 0.48277 0.54856 0.68235 0.0
H154 H 0.58987 0.5639 0.68633 0.0
H155 H 0.60685 0.57511 0.71711 0.0
H156 H 0.5271 0.54181 0.7364 0.0
H157 H 0.51035 0.53029 0.7056 0.0
H158 H 0.58684 0.52182 0.6579 0.0
H159 H 0.59962 0.49283 0.67019 0.0
H160 H 0.5315 0.46077 0.70456 0.0
H161 H 0.51809 0.48856 0.69137 0.0
H162 H 0.57027 0.53057 0.62061 0.0
H163 H 0.57566 0.50201 0.60044 0.0
H164 H 0.51275 0.43745 0.6276 0.0
H165 H 0.50723 0.46627 0.64747 0.0
H166 H 0.54713 0.5652 0.61394 0.0
H167 H 0.54978 0.55679 0.58242 0.0
H168 H 0.48507 0.47959 0.58858 0.0
H169 H 0.48324 0.48819 0.62048 0.0
H170 H 0.52969 0.59502 0.64112 0.0
H171 H 0.5004 0.60868 0.62888 0.0
H172 H 0.43535 0.531 0.62957 0.0
H173 H 0.46467 0.51763 0.64154 0.0
O174 O 0.60489 0.5786 0.75115 0.0
O175 O 0.56355 0.56156 0.76036 0.0
O176 O 0.56355 0.45847 0.58792 0.0
O177 O 0.53189 0.4246 0.60174 0.0
C178 C 0.52652 0.55263 0.66714 0.0
C179 C 0.53883 0.54035 0.67493 0.0
C180 C 0.54168 0.52239 0.66483 0.0
C181 C 0.53371 0.51792 0.64664 0.0
C182 C 0.52107 0.52995 0.639 0.0
C183 C 0.51645 0.54644 0.64945 0.0
C184 C 0.52464 0.57209 0.67773 0.0
C185 C 0.54777 0.59496 0.68224 0.0
C186 C 0.54751 0.61066 0.69573 0.0
C187 C 0.52405 0.60377 0.70479 0.0
C188 C 0.50044 0.58203 0.69908 0.0
C189 C 0.50075 0.56624 0.68562 0.0
C190 C 0.54891 0.54641 0.69373 0.0
C191 C 0.5761 0.55891 0.69724 0.0
C192 C 0.58574 0.56536 0.71482 0.0
C193 C 0.56833 0.55944 0.72922 0.0
C194 C 0.54105 0.54672 0.72563 0.0
C195 C 0.53143 0.54017 0.70805 0.0
C196 C 0.55137 0.50708 0.67359 0.0
C197 C 0.57473 0.5085 0.66808 0.0
C198 C 0.58212 0.49209 0.67526 0.0
C199 C 0.56641 0.47423 0.68822 0.0
C200 C 0.54372 0.47383 0.69429 0.0
C201 C 0.53617 0.48992 0.68693 0.0
C202 C 0.53833 0.50047 0.63546 0.0
C203 C 0.55776 0.51025 0.62222 0.0
C204 C 0.56078 0.4939 0.61072 0.0
C205 C 0.54457 0.46743 0.61237 0.0
C206 C 0.52551 0.45773 0.62593 0.0
C207 C 0.52239 0.47412 0.63736 0.0
C208 C 0.51539 0.52717 0.61949 0.0
C209 C 0.53276 0.54681 0.60831 0.0
C210 C 0.5342 0.54189 0.59021 0.0
C211 C 0.51806 0.51726 0.58302 0.0
C212 C 0.49824 0.49856 0.59382 0.0
C213 C 0.49695 0.50349 0.61198 0.0
C214 C 0.49927 0.55535 0.6422 0.0
C215 C 0.50909 0.58105 0.63864 0.0
C216 C 0.49234 0.58878 0.63169 0.0
C217 C 0.46558 0.57089 0.62814 0.0
C218 C 0.45593 0.5452 0.63182 0.0
C219 C 0.47261 0.53753 0.63875 0.0
C220 C 0.57867 0.56655 0.74786 0.0
C221 C 0.54734 0.45 0.59993 0.0
H222 H 0.03028 0.43603 0.93689 0.0
H223 H 0.17529 0.5049 0.75914 0.0
H224 H 0.98273 0.44778 0.84591 0.0
H225 H 0.94716 0.43199 0.86747 0.0
H226 H 0.92334 0.35484 0.85258 0.0
H227 H 0.95982 0.37113 0.83121 0.0
H228 H 0.04004 0.46634 0.86187 0.0
H229 H 0.0395 0.46123 0.8944 0.0
H230 H 0.00418 0.38021 0.8868 0.0
H231 H 0.00515 0.38566 0.85428 0.0
H232 H 0.08527 0.49048 0.83494 0.0
H233 H 0.1278 0.50431 0.84956 0.0
H234 H 0.10616 0.42595 0.85499 0.0
H235 H 0.06396 0.41238 0.83993 0.0
H236 H 0.06743 0.49457 0.79553 0.0
H237 H 0.10822 0.51933 0.77878 0.0
H238 H 0.12338 0.45785 0.78309 0.0
H239 H 0.08227 0.43311 0.79958 0.0
H240 H 0.00687 0.46774 0.78388 0.0
H241 H 0.01941 0.48758 0.7546 0.0
H242 H 0.05437 0.44249 0.74202 0.0
H243 H 0.03974 0.42135 0.77071 0.0
H244 H 0.96484 0.44183 0.80443 0.0
H245 H 0.92104 0.42015 0.78994 0.0
H246 H 0.93068 0.35712 0.7759 0.0
H247 H 0.97454 0.37907 0.79011 0.0
O248 O 0.03048 0.43763 0.92398 0.0
O249 O 0.01227 0.3961 0.91936 0.0
O250 O 0.15024 0.52648 0.76382 0.0
O251 O 0.15914 0.49558 0.76584 0.0
C252 C 0.99843 0.4208 0.82674 0.0
C253 C 0.02253 0.42955 0.83603 0.0
C254 C 0.0465 0.44209 0.82668 0.0
C255 C 0.04647 0.4467 0.80818 0.0
C256 C 0.02224 0.43723 0.79876 0.0
C257 C 0.99822 0.42386 0.80804 0.0
C258 C 0.97381 0.4106 0.83709 0.0
C259 C 0.96943 0.42748 0.84701 0.0
C260 C 0.94896 0.41835 0.85926 0.0
C261 C 0.93235 0.39209 0.86179 0.0
C262 C 0.93593 0.37516 0.85106 0.0
C263 C 0.95656 0.38438 0.83877 0.0
C264 C 0.02267 0.42637 0.85575 0.0
C265 C 0.03236 0.44753 0.86727 0.0
C266 C 0.03195 0.44454 0.88584 0.0
C267 C 0.02177 0.4203 0.89321 0.0
C268 C 0.01214 0.39914 0.88158 0.0
C269 C 0.01264 0.40218 0.86301 0.0
C270 C 0.0717 0.45048 0.83631 0.0
C271 C 0.08977 0.47636 0.83932 0.0
C272 C 0.11392 0.48418 0.84778 0.0
C273 C 0.12033 0.4662 0.8534 0.0
C274 C 0.10192 0.44024 0.85061 0.0
C275 C 0.07779 0.43246 0.84214 0.0
C276 C 0.07189 0.46204 0.79872 0.0
C277 C 0.0796 0.4865 0.79285 0.0
C278 C 0.10291 0.5006 0.78329 0.0
C279 C 0.11905 0.49054 0.77957 0.0
C280 C 0.1114 0.46614 0.78571 0.0
C281 C 0.088 0.45201 0.79519 0.0
C282 C 0.02261 0.44327 0.7795 0.0
C283 C 0.01605 0.46125 0.77443 0.0
C284 C 0.02376 0.47296 0.7578 0.0
C285 C 0.03871 0.46729 0.74612 0.0
C286 C 0.04289 0.44741 0.75056 0.0
C287 C 0.0346 0.43529 0.76703 0.0
C288 C 0.9728 0.41202 0.79817 0.0
C289 C 0.9576 0.42353 0.79796 0.0
C290 C 0.93271 0.41119 0.7897 0.0
C291 C 0.92257 0.38699 0.78187 0.0
C292 C 0.93804 0.3757 0.78193 0.0
C293 C 0.96305 0.38822 0.78994 0.0
C294 C 0.02118 0.41718 0.91295 0.0
C295 C 0.14372 0.50536 0.76928 0.0
H296 H 0.39581 0.97214 0.87483 0.0
H297 H 0.4201 0.83684 0.04006 0.0
H298 H 0.4397 0.02607 0.96437 0.0
H299 H 0.45743 0.06223 0.94403 0.0
H300 H 0.5342 0.07008 0.94793 0.0
H301 H 0.51634 0.03399 0.96805 0.0
H302 H 0.40187 0.96434 0.95265 0.0
H303 H 0.39144 0.96452 0.92086 0.0
H304 H 0.47365 0.99595 0.90806 0.0
H305 H 0.48372 0.9953 0.93983 0.0
H306 H 0.39087 0.91486 0.97589 0.0
H307 H 0.37651 0.8741 0.96064 0.0
H308 H 0.45474 0.90525 0.93891 0.0
H309 H 0.46846 0.94557 0.95375 0.0
H310 H 0.40459 0.9331 0.01711 0.0
H311 H 0.3898 0.89409 0.03394 0.0
H312 H 0.4527 0.88706 0.01089 0.0
H313 H 0.4673 0.92616 0.99418 0.0
H314 H 0.44008 0.98136 0.0357 0.0
H315 H 0.45152 0.97445 0.06585 0.0
H316 H 0.51683 0.97028 0.04402 0.0
H317 H 0.50417 0.9757 0.01394 0.0
H318 H 0.46347 0.03958 0.00891 0.0
H319 H 0.49618 0.08055 0.02263 0.0
H320 H 0.55608 0.06083 0.01643 0.0
H321 H 0.52363 0.02056 0.00239 0.0
O322 O 0.40035 0.97213 0.88733 0.0
O323 O 0.44289 0.98854 0.88149 0.0
O324 O 0.39211 0.85555 0.04371 0.0
O325 O 0.42527 0.85206 0.0333 0.0
C326 C 0.46532 0.00324 0.97741 0.0
C327 C 0.44972 0.98008 0.9679 0.0
C328 C 0.44093 0.95679 0.97658 0.0
C329 C 0.44643 0.95663 0.99499 0.0
C330 C 0.46246 0.97971 0.00434 0.0
C331 C 0.47213 0.00302 0.99555 0.0
C332 C 0.47677 0.02754 0.96773 0.0
C333 C 0.46047 0.03604 0.96115 0.0
C334 C 0.47059 0.05657 0.94952 0.0
C335 C 0.49718 0.0689 0.94438 0.0
C336 C 0.51376 0.06122 0.95186 0.0
C337 C 0.50359 0.04062 0.96337 0.0
C338 C 0.44357 0.98008 0.94855 0.0
C339 C 0.41757 0.97122 0.94294 0.0
C340 C 0.41169 0.97139 0.92478 0.0
C341 C 0.43173 0.98036 0.91192 0.0
C342 C 0.45776 0.98901 0.91761 0.0
C343 C 0.46359 0.98877 0.93576 0.0
C344 C 0.43064 0.93313 0.96581 0.0
C345 C 0.40462 0.91288 0.96751 0.0
C346 C 0.39655 0.88964 0.95889 0.0
C347 C 0.41445 0.88638 0.94851 0.0
C348 C 0.44022 0.90713 0.94642 0.0
C349 C 0.44818 0.93023 0.95497 0.0
C350 C 0.43686 0.93228 0.00438 0.0
C351 C 0.41501 0.92298 0.01564 0.0
C352 C 0.40665 0.90074 0.02524 0.0
C353 C 0.42009 0.88746 0.02377 0.0
C354 C 0.44192 0.89681 0.01234 0.0
C355 C 0.45024 0.91906 0.00273 0.0
C356 C 0.47139 0.97911 0.02277 0.0
C357 C 0.45705 0.9793 0.03756 0.0
C358 C 0.46376 0.9755 0.05475 0.0
C359 C 0.48508 0.9717 0.05737 0.0
C360 C 0.50005 0.97269 0.04248 0.0
C361 C 0.49306 0.97607 0.02532 0.0
C362 C 0.49118 0.02707 0.00485 0.0
C363 C 0.48364 0.04414 0.01068 0.0
C364 C 0.50228 0.06741 0.01854 0.0
C365 C 0.52871 0.07393 0.02053 0.0
C366 C 0.53597 0.05651 0.01488 0.0
C367 C 0.5174 0.03337 0.00707 0.0
C368 C 0.42544 0.98063 0.89266 0.0
C369 C 0.41156 0.86407 0.0342 0.0
H370 H 0.60012 0.5669 0.03717 0.0
H371 H 0.63727 0.47744 0.22324 0.0
H372 H 0.53979 0.57609 0.13361 0.0
H373 H 0.53233 0.60305 0.11362 0.0
H374 H 0.61575 0.65892 0.11505 0.0
H375 H 0.62296 0.63175 0.13537 0.0
H376 H 0.56359 0.54092 0.11098 0.0
H377 H 0.57173 0.54563 0.07868 0.0
H378 H 0.64958 0.61052 0.08911 0.0
H379 H 0.64114 0.60554 0.12136 0.0
H380 H 0.57591 0.50185 0.14059 0.0
H381 H 0.59648 0.47904 0.12869 0.0
H382 H 0.67021 0.55035 0.12372 0.0
H383 H 0.64991 0.57257 0.13677 0.0
H384 H 0.55536 0.50085 0.17694 0.0
H385 H 0.56253 0.47231 0.19559 0.0
H386 H 0.64596 0.52817 0.19809 0.0
H387 H 0.63845 0.55655 0.17952 0.0
H388 H 0.53318 0.52888 0.18808 0.0
H389 H 0.52243 0.51906 0.21987 0.0
H390 H 0.60284 0.57549 0.23432 0.0
H391 H 0.61312 0.58531 0.20271 0.0
H392 H 0.52869 0.5665 0.17283 0.0
H393 H 0.51397 0.59284 0.18747 0.0
H394 H 0.59481 0.65515 0.19075 0.0
H395 H 0.60918 0.62873 0.17588 0.0
O396 O 0.59736 0.5653 0.05 0.0
O397 O 0.63724 0.59848 0.05608 0.0
O398 O 0.5909 0.46001 0.21382 0.0
O399 O 0.6339 0.48824 0.21572 0.0
C400 C 0.58634 0.58416 0.14626 0.0
C401 C 0.59634 0.57019 0.13792 0.0
C402 C 0.59956 0.55254 0.1479 0.0
C403 C 0.59192 0.54829 0.16604 0.0
C404 C 0.58119 0.56176 0.17415 0.0
C405 C 0.57893 0.58004 0.16439 0.0
C406 C 0.58192 0.60187 0.13566 0.0
C407 C 0.55635 0.59437 0.12988 0.0
C408 C 0.55214 0.60991 0.1186 0.0
C409 C 0.57349 0.63316 0.11284 0.0
C410 C 0.599 0.64109 0.11927 0.0
C411 C 0.60314 0.6256 0.13075 0.0
C412 C 0.60178 0.57288 0.11843 0.0
C413 C 0.5824 0.55607 0.10623 0.0
C414 C 0.5871 0.55884 0.08781 0.0
C415 C 0.61131 0.57847 0.08131 0.0
C416 C 0.63073 0.59521 0.09366 0.0
C417 C 0.62598 0.59242 0.11207 0.0
C418 C 0.61142 0.53885 0.13949 0.0
C419 C 0.59652 0.51245 0.13694 0.0
C420 C 0.60826 0.49951 0.12999 0.0
C421 C 0.63507 0.51281 0.12529 0.0
C422 C 0.64969 0.53939 0.1275 0.0
C423 C 0.63803 0.55222 0.13471 0.0
C424 C 0.59639 0.53071 0.17691 0.0
C425 C 0.57515 0.50685 0.18154 0.0
C426 C 0.57932 0.4906 0.19217 0.0
C427 C 0.60484 0.49795 0.19831 0.0
C428 C 0.62608 0.52189 0.19355 0.0
C429 C 0.62187 0.53812 0.18293 0.0
C430 C 0.5739 0.55776 0.19324 0.0
C431 C 0.54822 0.53941 0.19822 0.0
C432 C 0.54215 0.53382 0.2163 0.0
C433 C 0.5617 0.54663 0.22958 0.0
C434 C 0.58716 0.5657 0.22446 0.0
C435 C 0.59318 0.5712 0.20643 0.0
C436 C 0.56995 0.59577 0.17338 0.0
C437 C 0.54315 0.58581 0.1768 0.0
C438 C 0.53484 0.60084 0.18521 0.0
C439 C 0.55325 0.62608 0.19028 0.0
C440 C 0.58012 0.6359 0.18681 0.0
C441 C 0.58839 0.62085 0.17842 0.0
C442 C 0.61618 0.58143 0.06173 0.0
C443 C 0.60935 0.48085 0.20972 0.0
Zn444 Zn 0.69898 0.51394 0.41135 0.0
Zn445 Zn 0.66413 0.46284 0.41086 0.0
O446 O 0.69978 0.46587 0.4066 0.0
O447 O 0.72866 0.5069 0.4078 0.0
O448 O 0.63919 0.42521 0.41251 0.0
O449 O 0.68612 0.51642 0.43602 0.0
O450 O 0.6586 0.4751 0.43497 0.0
C451 C 0.72351 0.4843 0.40578 0.0
C452 C 0.65845 0.4961 0.38343 0.0
O453 O 0.65042 0.47434 0.39008 0.0
O454 O 0.6788 0.51556 0.38982 0.0
C455 C 0.62467 0.41045 0.39993 0.0
O456 O 0.62545 0.41969 0.38397 0.0
C457 C 0.66796 0.49636 0.44308 0.0
Zn458 Zn 0.20071 0.66467 0.57837 0.0
Zn459 Zn 0.23726 0.65146 0.57705 0.0
O460 O 0.25824 0.69022 0.57441 0.0
O461 O 0.22823 0.7011 0.57307 0.0
O462 O 0.26639 0.64381 0.57931 0.0
O463 O 0.19122 0.65243 0.60374 0.0
O464 O 0.21632 0.63601 0.60014 0.0
C465 C 0.25215 0.70713 0.5724 0.0
C466 C 0.1934 0.62902 0.54955 0.0
O467 O 0.21588 0.63299 0.55447 0.0
O468 O 0.18253 0.63915 0.55798 0.0
C469 C 0.2656 0.62383 0.57374 0.0
O470 O 0.24447 0.60626 0.56517 0.0
C471 C 0.19972 0.63856 0.60933 0.0
Zn472 Zn 0.54315 0.20304 0.74562 0.0
Zn473 Zn 0.5953 0.2209 0.74494 0.0
O474 O 0.5927 0.25229 0.73961 0.0
O475 O 0.5501 0.23789 0.73989 0.0
O476 O 0.63441 0.23494 0.7449 0.0
O477 O 0.54225 0.19266 0.77117 0.0
O478 O 0.58494 0.20734 0.77054 0.0
C479 C 0.57357 0.25608 0.73799 0.0
C480 C 0.55747 0.17808 0.71922 0.0
O481 O 0.58077 0.19339 0.72507 0.0
O482 O 0.53805 0.17853 0.72582 0.0
C483 C 0.64914 0.25079 0.73321 0.0
O484 O 0.63842 0.25743 0.72056 0.0
C485 C 0.56317 0.19664 0.7789 0.0
Zn486 Zn 0.44053 0.58415 0.91384 0.0
Zn487 Zn 0.43544 0.62612 0.91472 0.0
O488 O 0.39802 0.59602 0.91416 0.0
O489 O 0.40049 0.56161 0.91152 0.0
O490 O 0.42902 0.65516 0.91628 0.0
O491 O 0.45846 0.59543 0.93825 0.0
O492 O 0.45613 0.63003 0.93766 0.0
C493 C 0.38682 0.57204 0.91256 0.0
C494 C 0.46523 0.61874 0.88428 0.0
O495 O 0.45536 0.63081 0.89142 0.0
O496 O 0.46244 0.59892 0.89151 0.0
C497 C 0.4367 0.67317 0.90522 0.0
O498 O 0.45086 0.67419 0.89139 0.0
C499 C 0.4634 0.61624 0.94539 0.0
Zn500 Zn 0.83766 0.40646 0.06938 0.0
Zn501 Zn 0.79627 0.35873 0.0683 0.0
O502 O 0.77892 0.38006 0.07091 0.0
O503 O 0.81271 0.41904 0.07417 0.0
O504 O 0.76522 0.32318 0.06661 0.0
O505 O 0.84614 0.40257 0.04384 0.0
O506 O 0.81462 0.3623 0.04422 0.0
C507 C 0.78804 0.40363 0.07365 0.0
C508 C 0.83831 0.37535 0.09782 0.0
O509 O 0.81601 0.35898 0.09107 0.0
O510 O 0.85221 0.39666 0.0904 0.0
C511 C 0.74561 0.31489 0.07701 0.0
O512 O 0.74577 0.32978 0.08982 0.0
C513 C 0.83341 0.38102 0.03618 0.0
Zn514 Zn 0.41635 0.8439 0.25702 0.0
Zn515 Zn 0.44392 0.82008 0.25326 0.0
O516 O 0.40562 0.79122 0.25079 0.0
O517 O 0.38247 0.80979 0.2538 0.0
O518 O 0.4638 0.80214 0.24948 0.0
O519 O 0.43487 0.86543 0.23567 0.0
O520 O 0.45701 0.84578 0.23278 0.0
C521 C 0.38344 0.78987 0.25132 0.0
C522 C 0.44866 0.84892 0.28785 0.0
O523 O 0.4544 0.83486 0.27873 0.0
O524 O 0.43334 0.85563 0.28146 0.0
C525 C 0.45755 0.78215 0.25815 0.0
O526 O 0.43863 0.77402 0.27 0.0
C527 C 0.45178 0.86239 0.22752 0.0
H528 H 0.17674 0.5622 0.25954 0.0
H529 H 0.22064 0.59762 0.25215 0.0
H530 H 0.19316 0.6499 0.25874 0.0
H531 H 0.14979 0.61508 0.26685 0.0
H532 H 0.22536 0.65964 0.22839 0.0
H533 H 0.22387 0.64338 0.29197 0.0
H534 H 0.21739 0.61658 0.31814 0.0
H535 H 0.27725 0.60276 0.29899 0.0
H536 H 0.28377 0.62918 0.27253 0.0
H537 H 0.33295 0.78029 0.25052 0.0
H538 H 0.29218 0.73908 0.24917 0.0
H539 H 0.33697 0.7017 0.24683 0.0
H540 H 0.37802 0.74296 0.24837 0.0
H541 H 0.29828 0.68052 0.27142 0.0
H542 H 0.30439 0.70273 0.20994 0.0
H543 H 0.31075 0.73014 0.1842 0.0
H544 H 0.24253 0.73325 0.19926 0.0
H545 H 0.23596 0.70615 0.22526 0.0
C546 C 0.18001 0.58122 0.25942 0.0
C547 C 0.15964 0.58571 0.26382 0.0
C548 C 0.20505 0.60138 0.25508 0.0
C549 C 0.21006 0.6263 0.25494 0.0
C550 C 0.18958 0.63074 0.25862 0.0
C551 C 0.16471 0.61072 0.26316 0.0
C552 C 0.23696 0.64813 0.25219 0.0
C553 C 0.24135 0.66428 0.23777 0.0
C554 C 0.25787 0.65373 0.26424 0.0
C555 C 0.25405 0.63796 0.28016 0.0
C556 C 0.23547 0.63442 0.29325 0.0
C557 C 0.23182 0.61934 0.30815 0.0
C558 C 0.24684 0.6079 0.31019 0.0
C559 C 0.26559 0.61158 0.29736 0.0
C560 C 0.26927 0.6266 0.28242 0.0
C561 C 0.33419 0.76335 0.24958 0.0
C562 C 0.35875 0.76493 0.24956 0.0
C563 C 0.31085 0.73979 0.24871 0.0
C564 C 0.31156 0.71735 0.2477 0.0
C565 C 0.33601 0.71882 0.24754 0.0
C566 C 0.35943 0.74241 0.24838 0.0
C567 C 0.28665 0.69242 0.24777 0.0
C568 C 0.28256 0.67567 0.26175 0.0
C569 C 0.26602 0.68631 0.23532 0.0
C570 C 0.26979 0.70252 0.21963 0.0
C571 C 0.29084 0.7094 0.20785 0.0
C572 C 0.29447 0.72486 0.19319 0.0
C573 C 0.27708 0.73347 0.19011 0.0
C574 C 0.25599 0.72658 0.20167 0.0
C575 C 0.25228 0.71113 0.21635 0.0
H576 H 0.27992 0.74544 0.17876 0.0
H577 H 0.244 0.59624 0.32174 0.0
H578 H 0.49266 0.1642 0.41742 0.0
H579 H 0.50546 0.20659 0.40664 0.0
H580 H 0.54684 0.23961 0.45655 0.0
H581 H 0.53373 0.19742 0.46748 0.0
H582 H 0.51857 0.26105 0.44522 0.0
H583 H 0.57963 0.23847 0.4201 0.0
H584 H 0.59098 0.21147 0.40232 0.0
H585 H 0.55506 0.22186 0.35556 0.0
H586 H 0.54319 0.24866 0.37315 0.0
H587 H 0.61908 0.38599 0.43137 0.0
H588 H 0.59158 0.34083 0.43715 0.0
H589 H 0.56309 0.32738 0.38242 0.0
H590 H 0.59107 0.37283 0.37638 0.0
H591 H 0.57685 0.29396 0.39235 0.0
H592 H 0.52254 0.32263 0.41631 0.0
H593 H 0.51151 0.34992 0.43398 0.0
H594 H 0.53375 0.32828 0.48251 0.0
H595 H 0.5453 0.30113 0.46512 0.0
C596 C 0.50421 0.1805 0.42615 0.0
C597 C 0.51243 0.17757 0.44322 0.0
C598 C 0.5116 0.20467 0.41995 0.0
C599 C 0.52727 0.22622 0.43075 0.0
C600 C 0.53476 0.22322 0.448 0.0
C601 C 0.52749 0.19914 0.45416 0.0
C602 C 0.53705 0.25211 0.42396 0.0
C603 C 0.53135 0.26831 0.43369 0.0
C604 C 0.55297 0.26126 0.40855 0.0
C605 C 0.56024 0.24529 0.39798 0.0
C606 C 0.57397 0.23482 0.40606 0.0
C607 C 0.58053 0.21959 0.39602 0.0
C608 C 0.57367 0.21489 0.37784 0.0
C609 C 0.56031 0.22548 0.36965 0.0
C610 C 0.55367 0.24069 0.37965 0.0
C611 C 0.60689 0.37352 0.42054 0.0
C612 C 0.60728 0.38304 0.4034 0.0
C613 C 0.59101 0.34768 0.42392 0.0
C614 C 0.57495 0.33077 0.4103 0.0
C615 C 0.57523 0.34014 0.39315 0.0
C616 C 0.5912 0.3661 0.38973 0.0
C617 C 0.55907 0.30321 0.41395 0.0
C618 C 0.56359 0.28665 0.40364 0.0
C619 C 0.54198 0.29372 0.4288 0.0
C620 C 0.53492 0.30993 0.43937 0.0
C621 C 0.52525 0.32381 0.43074 0.0
C622 C 0.51888 0.33924 0.44071 0.0
C623 C 0.52196 0.34086 0.45935 0.0
C624 C 0.53137 0.327 0.46806 0.0
C625 C 0.53779 0.31156 0.45816 0.0
H626 H 0.51703 0.35282 0.46704 0.0
H627 H 0.57877 0.20309 0.37008 0.0
H628 H 0.46263 0.61253 0.63762 0.0
H629 H 0.43082 0.62373 0.62688 0.0
H630 H 0.39528 0.55779 0.59196 0.0
H631 H 0.42759 0.54702 0.60212 0.0
H632 H 0.39833 0.59741 0.57532 0.0
H633 H 0.36795 0.55724 0.63222 0.0
H634 H 0.37133 0.55093 0.66451 0.0
H635 H 0.38552 0.62553 0.67607 0.0
H636 H 0.38259 0.63242 0.64379 0.0
H637 H 0.27229 0.585 0.56236 0.0
H638 H 0.30838 0.57815 0.57022 0.0
H639 H 0.34514 0.64701 0.60214 0.0
H640 H 0.30925 0.65401 0.59441 0.0
H641 H 0.34219 0.607 0.62006 0.0
H642 H 0.37066 0.64596 0.56254 0.0
H643 H 0.36627 0.65099 0.53017 0.0
H644 H 0.35417 0.5769 0.51975 0.0
H645 H 0.35813 0.57128 0.5521 0.0
C646 C 0.44832 0.60066 0.62744 0.0
C647 C 0.44749 0.57875 0.62085 0.0
C648 C 0.42999 0.60694 0.62144 0.0
C649 C 0.41039 0.59135 0.60883 0.0
C650 C 0.41013 0.57001 0.60176 0.0
C651 C 0.42846 0.56376 0.60771 0.0
C652 C 0.38964 0.59678 0.6034 0.0
C653 C 0.38588 0.59925 0.58509 0.0
C654 C 0.37364 0.59957 0.61616 0.0
C655 C 0.37534 0.59545 0.63558 0.0
C656 C 0.372 0.57238 0.64163 0.0
C657 C 0.3738 0.56868 0.65993 0.0
C658 C 0.37871 0.58784 0.67233 0.0
C659 C 0.38176 0.61072 0.66645 0.0
C660 C 0.38002 0.61453 0.64815 0.0
C661 C 0.28813 0.59876 0.57097 0.0
C662 C 0.28787 0.62004 0.57776 0.0
C663 C 0.30878 0.59487 0.57539 0.0
C664 C 0.3295 0.61216 0.58669 0.0
C665 C 0.32934 0.63345 0.5934 0.0
C666 C 0.30883 0.63744 0.58891 0.0
C667 C 0.35092 0.60766 0.59201 0.0
C668 C 0.35474 0.60529 0.6103 0.0
C669 C 0.3668 0.60477 0.57923 0.0
C670 C 0.36442 0.6081 0.55977 0.0
C671 C 0.36683 0.63065 0.55336 0.0
C672 C 0.36447 0.63362 0.53501 0.0
C673 C 0.35987 0.61425 0.52291 0.0
C674 C 0.3577 0.59188 0.52914 0.0
C675 C 0.36002 0.5888 0.54748 0.0
H676 H 0.35806 0.61659 0.50871 0.0
H677 H 0.38009 0.58494 0.68649 0.0
H678 H 0.88385 0.33887 0.78939 0.0
H679 H 0.83867 0.31581 0.77772 0.0
H680 H 0.85512 0.38025 0.74546 0.0
H681 H 0.9002 0.40376 0.75773 0.0
H682 H 0.80989 0.36282 0.75999 0.0
H683 H 0.8489 0.32404 0.72715 0.0
H684 H 0.87455 0.30314 0.72258 0.0
H685 H 0.81931 0.2402 0.75424 0.0
H686 H 0.79351 0.26089 0.75922 0.0
H687 H 0.68656 0.29114 0.71428 0.0
H688 H 0.73439 0.31395 0.71892 0.0
H689 H 0.72515 0.26153 0.76034 0.0
H690 H 0.67734 0.23859 0.75581 0.0
H691 H 0.76771 0.27398 0.73747 0.0
H692 H 0.73165 0.31629 0.77202 0.0
H693 H 0.70617 0.33757 0.77545 0.0
H694 H 0.75694 0.39467 0.73823 0.0
H695 H 0.78251 0.37349 0.73441 0.0
C696 C 0.87784 0.348 0.77969 0.0
C697 C 0.89547 0.37299 0.77434 0.0
C698 C 0.85207 0.33478 0.77295 0.0
C699 C 0.84359 0.34605 0.76039 0.0
C700 C 0.86122 0.3711 0.75507 0.0
C701 C 0.88692 0.3845 0.76206 0.0
C702 C 0.81601 0.332 0.75343 0.0
C703 C 0.80089 0.34359 0.75472 0.0
C704 C 0.80403 0.30675 0.74674 0.0
C705 C 0.81937 0.29412 0.74365 0.0
C706 C 0.84231 0.30581 0.73323 0.0
C707 C 0.85686 0.29399 0.73056 0.0
C708 C 0.84859 0.27038 0.73814 0.0
C709 C 0.8257 0.2585 0.74838 0.0
C710 C 0.81108 0.27025 0.75111 0.0
C711 C 0.69471 0.28427 0.72423 0.0
C712 C 0.67814 0.26319 0.73479 0.0
C713 C 0.72203 0.29736 0.72688 0.0
C714 C 0.73322 0.28954 0.74009 0.0
C715 C 0.71685 0.26785 0.75009 0.0
C716 C 0.68954 0.25485 0.74753 0.0
C717 C 0.7618 0.30476 0.74429 0.0
C718 C 0.77699 0.29336 0.7425 0.0
C719 C 0.77395 0.33027 0.7503 0.0
C720 C 0.7588 0.34317 0.75279 0.0
C721 C 0.73726 0.33328 0.76448 0.0
C722 C 0.72282 0.34534 0.7665 0.0
C723 C 0.72988 0.36742 0.75702 0.0
C724 C 0.75147 0.37754 0.74555 0.0
C725 C 0.76595 0.36553 0.74345 0.0
H726 H 0.71867 0.37672 0.7586 0.0
H727 H 0.8599 0.26127 0.73607 0.0
H728 H 0.42865 0.87535 0.91631 0.0
H729 H 0.42522 0.83557 0.90739 0.0
H730 H 0.38009 0.79987 0.95477 0.0
H731 H 0.38502 0.84012 0.96441 0.0
H732 H 0.41847 0.79187 0.9528 0.0
H733 H 0.35343 0.7833 0.91048 0.0
H734 H 0.3346 0.79657 0.88637 0.0
H735 H 0.3961 0.80649 0.85096 0.0
H736 H 0.41553 0.79362 0.87492 0.0
H737 H 0.40316 0.67336 0.9301 0.0
H738 H 0.39258 0.70629 0.93555 0.0
H739 H 0.44373 0.75035 0.89251 0.0
H740 H 0.45409 0.71719 0.8867 0.0
H741 H 0.39812 0.7513 0.89242 0.0
H742 H 0.46497 0.76386 0.93572 0.0
H743 H 0.48402 0.75083 0.95985 0.0
H744 H 0.41829 0.73349 0.99349 0.0
H745 H 0.39867 0.74611 0.96946 0.0
C746 C 0.41779 0.85899 0.92477 0.0
C747 C 0.40745 0.86107 0.94121 0.0
C748 C 0.41551 0.8361 0.91951 0.0
C749 C 0.40228 0.81462 0.93035 0.0
C750 C 0.39041 0.81619 0.94618 0.0
C751 C 0.39302 0.8392 0.95159 0.0
C752 C 0.40357 0.7916 0.92629 0.0
C753 C 0.4134 0.78267 0.9397 0.0
C754 C 0.39775 0.78 0.90904 0.0
C755 C 0.38604 0.78765 0.89456 0.0
C756 C 0.36305 0.78848 0.89759 0.0
C757 C 0.35225 0.7959 0.88394 0.0
C758 C 0.36417 0.80241 0.86716 0.0
C759 C 0.38689 0.80145 0.86397 0.0
C760 C 0.39778 0.79405 0.87757 0.0
C761 C 0.41213 0.69001 0.92174 0.0
C762 C 0.4297 0.69279 0.90808 0.0
C763 C 0.40605 0.7088 0.92488 0.0
C764 C 0.41765 0.7309 0.91459 0.0
C765 C 0.43459 0.73343 0.90061 0.0
C766 C 0.44058 0.71454 0.89737 0.0
C767 C 0.41298 0.75181 0.91892 0.0
C768 C 0.40272 0.76036 0.90556 0.0
C769 C 0.41835 0.76309 0.93623 0.0
C770 C 0.43023 0.75567 0.95072 0.0
C771 C 0.45449 0.75709 0.94821 0.0
C772 C 0.4654 0.74981 0.96188 0.0
C773 C 0.45234 0.74127 0.97817 0.0
C774 C 0.42837 0.74007 0.98085 0.0
C775 C 0.41735 0.7473 0.96722 0.0
H776 H 0.46081 0.73563 0.98873 0.0
H777 H 0.35578 0.80816 0.85661 0.0
H778 H 0.68512 0.52334 0.13261 0.0
H779 H 0.70705 0.50203 0.12068 0.0
H780 H 0.63628 0.44908 0.09157 0.0
H781 H 0.61433 0.47103 0.10278 0.0
H782 H 0.66338 0.42764 0.11256 0.0
H783 H 0.67921 0.48924 0.06747 0.0
H784 H 0.69253 0.53194 0.05663 0.0
H785 H 0.77018 0.56127 0.07885 0.0
H786 H 0.7572 0.51881 0.09008 0.0
H787 H 0.73463 0.37866 0.06768 0.0
H788 H 0.70494 0.39452 0.07356 0.0
H789 H 0.77079 0.46529 0.0933 0.0
H790 H 0.80056 0.44999 0.08687 0.0
H791 H 0.74109 0.47475 0.0734 0.0
H792 H 0.72577 0.41688 0.12154 0.0
H793 H 0.71403 0.37566 0.13457 0.0
H794 H 0.63769 0.34084 0.1092 0.0
H795 H 0.64912 0.38182 0.09583 0.0
C796 C 0.67423 0.50742 0.12346 0.0
C797 C 0.64801 0.49913 0.1185 0.0
C798 C 0.68676 0.49514 0.11679 0.0
C799 C 0.67328 0.47415 0.1052 0.0
C800 C 0.64693 0.46527 0.10054 0.0
C801 C 0.63443 0.47779 0.10703 0.0
C802 C 0.68717 0.46192 0.09782 0.0
C803 C 0.68005 0.43763 0.10369 0.0
C804 C 0.70921 0.47534 0.08661 0.0
C805 C 0.71716 0.50086 0.07973 0.0
C806 C 0.69906 0.50483 0.07017 0.0
C807 C 0.70657 0.52899 0.06394 0.0
C808 C 0.73217 0.54932 0.06708 0.0
C809 C 0.75035 0.54551 0.07643 0.0
C810 C 0.74294 0.52139 0.08272 0.0
C811 C 0.74275 0.39764 0.0732 0.0
C812 C 0.76993 0.41308 0.07682 0.0
C813 C 0.72575 0.40663 0.07663 0.0
C814 C 0.73559 0.43099 0.08407 0.0
C815 C 0.76275 0.44646 0.0875 0.0
C816 C 0.77975 0.43765 0.08386 0.0
C817 C 0.71782 0.44058 0.08847 0.0
C818 C 0.72419 0.46445 0.08203 0.0
C819 C 0.69536 0.42692 0.0994 0.0
C820 C 0.68841 0.40233 0.10752 0.0
C821 C 0.70655 0.40039 0.11864 0.0
C822 C 0.69994 0.37708 0.1261 0.0
C823 C 0.67516 0.35563 0.12267 0.0
C824 C 0.6569 0.35746 0.11181 0.0
C825 C 0.66342 0.38072 0.1043 0.0
H826 H 0.67008 0.3376 0.12845 0.0
H827 H 0.73794 0.56801 0.06224 0.0
H828 H 0.44687 0.92913 0.52513 0.0
H829 H 0.42007 0.88638 0.53737 0.0
H830 H 0.34943 0.88319 0.51849 0.0
H831 H 0.37586 0.9252 0.50562 0.0
H832 H 0.34908 0.87107 0.55547 0.0
H833 H 0.36823 0.8505 0.49681 0.0
H834 H 0.39778 0.85304 0.47268 0.0
H835 H 0.43351 0.82431 0.50812 0.0
H836 H 0.40439 0.82195 0.53256 0.0
H837 H 0.24504 0.74531 0.56115 0.0
H838 H 0.27859 0.7878 0.5521 0.0
H839 H 0.33954 0.77157 0.56502 0.0
H840 H 0.30585 0.72849 0.57359 0.0
H841 H 0.34963 0.79471 0.53408 0.0
H842 H 0.32798 0.81128 0.59204 0.0
H843 H 0.29904 0.8091 0.61651 0.0
H844 H 0.26942 0.84609 0.58356 0.0
H845 H 0.29791 0.84818 0.55881 0.0
C846 C 0.42567 0.91917 0.52332 0.0
C847 C 0.41352 0.93077 0.51456 0.0
C848 C 0.41041 0.89483 0.53041 0.0
C849 C 0.38282 0.88181 0.52892 0.0
C850 C 0.3707 0.8931 0.51993 0.0
C851 C 0.38587 0.9172 0.51268 0.0
C852 C 0.36624 0.85662 0.53707 0.0
C853 C 0.34904 0.8543 0.55077 0.0
C854 C 0.36695 0.83504 0.53127 0.0
C855 C 0.38437 0.83636 0.51657 0.0
C856 C 0.38256 0.84496 0.49951 0.0
C857 C 0.39919 0.84631 0.48576 0.0
C858 C 0.41758 0.83892 0.48888 0.0
C859 C 0.4193 0.83008 0.50573 0.0
C860 C 0.40273 0.82872 0.51953 0.0
C861 C 0.26558 0.75079 0.56226 0.0
C862 C 0.27276 0.73352 0.56818 0.0
C863 C 0.28478 0.77519 0.55713 0.0
C864 C 0.31165 0.78307 0.55815 0.0
C865 C 0.31894 0.76594 0.56417 0.0
C866 C 0.29967 0.74136 0.56913 0.0
C867 C 0.33188 0.80892 0.55231 0.0
C868 C 0.34985 0.81145 0.53905 0.0
C869 C 0.33205 0.8308 0.55862 0.0
C870 C 0.31498 0.82974 0.57352 0.0
C871 C 0.31518 0.81881 0.58997 0.0
C872 C 0.29886 0.81761 0.6039 0.0
C873 C 0.28237 0.82741 0.60158 0.0
C874 C 0.2822 0.8385 0.58534 0.0
C875 C 0.29846 0.83973 0.57137 0.0
H876 H 0.26975 0.82646 0.61237 0.0
H877 H 0.43045 0.83998 0.47823 0.0
H878 H 0.61518 0.48074 0.69591 0.0
H879 H 0.62473 0.44853 0.70638 0.0
H880 H 0.54153 0.39278 0.70603 0.0
H881 H 0.53185 0.42428 0.69505 0.0
H882 H 0.56802 0.394 0.7379 0.0
H883 H 0.57791 0.39332 0.67289 0.0
H884 H 0.59842 0.41314 0.6442 0.0
H885 H 0.67421 0.43137 0.66479 0.0
H886 H 0.65416 0.41194 0.69371 0.0
H887 H 0.53696 0.26972 0.73296 0.0
H888 H 0.54448 0.31171 0.72695 0.0
H889 H 0.62856 0.34277 0.72805 0.0
H890 H 0.62121 0.30036 0.73389 0.0
H891 H 0.61289 0.36111 0.70002 0.0
H892 H 0.6018 0.35466 0.76293 0.0
H893 H 0.58154 0.33441 0.79155 0.0
H894 H 0.50962 0.33054 0.77585 0.0
H895 H 0.5293 0.35042 0.74702 0.0
C896 C 0.59895 0.46156 0.69792 0.0
C897 C 0.57271 0.45517 0.69478 0.0
C898 C 0.60445 0.44326 0.70398 0.0
C899 C 0.5838 0.41838 0.70704 0.0
C900 C 0.55771 0.41199 0.70393 0.0
C901 C 0.55222 0.4301 0.69775 0.0
C902 C 0.58888 0.39854 0.71335 0.0
C903 C 0.57787 0.38681 0.72966 0.0
C904 C 0.60264 0.38989 0.70289 0.0
C905 C 0.61462 0.40151 0.68552 0.0
C906 C 0.59899 0.40178 0.67135 0.0
C907 C 0.61051 0.41289 0.65504 0.0
C908 C 0.63761 0.42359 0.6527 0.0
C909 C 0.65323 0.42313 0.66664 0.0
C910 C 0.6418 0.41208 0.68299 0.0
C911 C 0.5571 0.2854 0.73196 0.0
C912 C 0.57849 0.28169 0.73404 0.0
C913 C 0.56136 0.30945 0.72859 0.0
C914 C 0.58708 0.33042 0.7274 0.0
C915 C 0.60856 0.32683 0.72907 0.0
C916 C 0.60431 0.30262 0.73243 0.0
C917 C 0.59095 0.35585 0.72421 0.0
C918 C 0.60368 0.36869 0.70854 0.0
C919 C 0.57893 0.36569 0.73533 0.0
C920 C 0.56703 0.35398 0.75277 0.0
C921 C 0.58162 0.34938 0.76554 0.0
C922 C 0.57023 0.33797 0.7818 0.0
C923 C 0.5443 0.33118 0.78551 0.0
C924 C 0.52971 0.33583 0.77297 0.0
C925 C 0.54099 0.34722 0.75667 0.0
H926 H 0.53552 0.32233 0.79811 0.0
H927 H 0.6465 0.43218 0.64006 0.0
H928 H 0.15284 0.44778 0.84685 0.0
H929 H 0.19661 0.46274 0.8597 0.0
H930 H 0.19069 0.51864 0.89135 0.0
H931 H 0.14681 0.50367 0.87863 0.0
H932 H 0.23689 0.53904 0.87378 0.0
H933 H 0.18519 0.46622 0.91073 0.0
H934 H 0.15319 0.42107 0.91638 0.0
H935 H 0.20255 0.39983 0.88874 0.0
H936 H 0.2347 0.44485 0.8827 0.0
H937 H 0.35147 0.58418 0.92474 0.0
H938 H 0.30442 0.56259 0.91771 0.0
H939 H 0.30987 0.50486 0.88813 0.0
H940 H 0.35694 0.52594 0.89572 0.0
H941 H 0.26357 0.48458 0.90492 0.0
H942 H 0.31396 0.55572 0.8667 0.0
H943 H 0.34633 0.60042 0.85996 0.0
H944 H 0.29956 0.62418 0.8883 0.0
H945 H 0.26708 0.57963 0.89542 0.0
C946 C 0.16068 0.46299 0.85676 0.0
C947 C 0.14639 0.47455 0.86174 0.0
C948 C 0.18569 0.47152 0.86408 0.0
C949 C 0.19677 0.49164 0.87659 0.0
C950 C 0.18247 0.50308 0.8817 0.0
C951 C 0.15747 0.49458 0.87438 0.0
C952 C 0.22381 0.50162 0.88369 0.0
C953 C 0.24261 0.52723 0.88085 0.0
C954 C 0.23143 0.48596 0.89237 0.0
C955 C 0.21224 0.4589 0.89613 0.0
C956 C 0.18913 0.45191 0.90574 0.0
C957 C 0.17098 0.42634 0.90903 0.0
C958 C 0.1758 0.40759 0.90289 0.0
C959 C 0.19883 0.41437 0.89348 0.0
C960 C 0.21704 0.43991 0.89014 0.0
C961 C 0.34255 0.56665 0.91699 0.0
C962 C 0.35788 0.55689 0.91056 0.0
C963 C 0.3157 0.55438 0.91294 0.0
C964 C 0.30382 0.53252 0.90199 0.0
C965 C 0.3187 0.52181 0.8965 0.0
C966 C 0.34557 0.53387 0.90083 0.0
C967 C 0.27652 0.52206 0.8952 0.0
C968 C 0.25776 0.49639 0.89796 0.0
C969 C 0.26893 0.53758 0.88625 0.0
C970 C 0.28821 0.56436 0.88173 0.0
C971 C 0.31065 0.57049 0.87157 0.0
C972 C 0.32902 0.5958 0.86768 0.0
C973 C 0.32504 0.61513 0.87374 0.0
C974 C 0.30263 0.60919 0.88364 0.0
C975 C 0.28422 0.58391 0.88759 0.0
H976 H 0.3393 0.63472 0.87073 0.0
H977 H 0.16172 0.3878 0.90544 0.0
H978 H 0.52515 0.09917 0.04991 0.0
H979 H 0.55993 0.13971 0.06282 0.0
H980 H 0.61264 0.14552 0.02088 0.0
H981 H 0.57813 0.10534 0.00793 0.0
H982 H 0.63567 0.15414 0.05365 0.0
H983 H 0.58365 0.18099 0.02054 0.0
H984 H 0.54292 0.18073 0.01284 0.0
H985 H 0.53785 0.20192 0.06702 0.0
H986 H 0.57839 0.20198 0.0751 0.0
H987 H 0.73893 0.28037 0.05116 0.0
H988 H 0.70014 0.23872 0.04535 0.0
H989 H 0.66081 0.24918 0.09021 0.0
H990 H 0.6996 0.29133 0.09598 0.0
H991 H 0.62866 0.23069 0.0612 0.0
H992 H 0.68349 0.20866 0.09347 0.0
H993 H 0.72431 0.20916 0.10121 0.0
H994 H 0.72398 0.17858 0.04916 0.0
H995 H 0.68335 0.17823 0.04101 0.0
C996 C 0.54408 0.10928 0.04336 0.0
C997 C 0.54901 0.09899 0.028 0.0
C998 C 0.56391 0.13237 0.05076 0.0
C999 C 0.58887 0.14557 0.04282 0.0
C1000 C 0.59361 0.13552 0.02732 0.0
C1001 C 0.57389 0.11253 0.01996 0.0
C1002 C 0.61048 0.16961 0.05069 0.0
C1003 C 0.63421 0.17094 0.0552 0.0
C1004 C 0.60819 0.19121 0.05334 0.0
C1005 C 0.58385 0.19118 0.04848 0.0
C1006 C 0.57371 0.18537 0.03085 0.0
C1007 C 0.55069 0.18531 0.02641 0.0
C1008 C 0.53775 0.19122 0.03945 0.0
C1009 C 0.54786 0.19729 0.05695 0.0
C1010 C 0.57086 0.19735 0.06146 0.0
C1011 C 0.72213 0.27382 0.05989 0.0
C1012 C 0.7224 0.28916 0.07407 0.0
C1013 C 0.69998 0.24992 0.05659 0.0
C1014 C 0.67771 0.24069 0.0675 0.0
C1015 C 0.67784 0.25592 0.08168 0.0
C1016 C 0.70005 0.27994 0.08498 0.0
C1017 C 0.65415 0.21543 0.06359 0.0
C1018 C 0.63002 0.21382 0.05991 0.0
C1019 C 0.65602 0.19349 0.06173 0.0
C1020 C 0.68044 0.19357 0.0666 0.0
C1021 C 0.69221 0.20221 0.08363 0.0
C1022 C 0.71531 0.20243 0.0881 0.0
C1023 C 0.72676 0.19394 0.07568 0.0
C1024 C 0.7151 0.18515 0.05877 0.0
C1025 C 0.69201 0.1849 0.05423 0.0
H1026 H 0.74464 0.19413 0.07916 0.0
H1027 H 0.51994 0.19116 0.03598 0.0
H1028 H 0.57011 0.67578 0.18362 0.0
H1029 H 0.55543 0.70228 0.1978 0.0
H1030 H 0.50161 0.63939 0.23055 0.0
H1031 H 0.51636 0.61278 0.21651 0.0
H1032 H 0.47808 0.66267 0.21575 0.0
H1033 H 0.55766 0.68807 0.24868 0.0
H1034 H 0.60488 0.70308 0.25267 0.0
H1035 H 0.62544 0.77227 0.22578 0.0
H1036 H 0.57831 0.75752 0.22139 0.0
H1037 H 0.44464 0.73573 0.27114 0.0
H1038 H 0.46264 0.70942 0.26201 0.0
H1039 H 0.51611 0.76801 0.22627 0.0
H1040 H 0.49837 0.79453 0.23537 0.0
H1041 H 0.53984 0.74603 0.24448 0.0
H1042 H 0.46073 0.71951 0.20982 0.0
H1043 H 0.41359 0.7047 0.20551 0.0
H1044 H 0.39241 0.6376 0.23547 0.0
H1045 H 0.43948 0.65221 0.24018 0.0
C1046 C 0.5554 0.66767 0.19401 0.0
C1047 C 0.54445 0.6422 0.19899 0.0
C1048 C 0.54701 0.68283 0.20208 0.0
C1049 C 0.52765 0.67287 0.21537 0.0
C1050 C 0.51659 0.64743 0.22033 0.0
C1051 C 0.52496 0.63224 0.21225 0.0
C1052 C 0.5184 0.68884 0.22368 0.0
C1053 C 0.49151 0.68068 0.22232 0.0
C1054 C 0.53605 0.71259 0.23189 0.0
C1055 C 0.56443 0.72158 0.23457 0.0
C1056 C 0.57224 0.7064 0.24349 0.0
C1057 C 0.599 0.71488 0.24585 0.0
C1058 C 0.61815 0.73858 0.23945 0.0
C1059 C 0.61058 0.7539 0.23072 0.0
C1060 C 0.58385 0.7455 0.22831 0.0
C1061 C 0.46041 0.74314 0.26147 0.0
C1062 C 0.46992 0.76713 0.25385 0.0
C1063 C 0.47062 0.72805 0.25625 0.0
C1064 C 0.49046 0.73667 0.24332 0.0
C1065 C 0.50076 0.76102 0.23625 0.0
C1066 C 0.49052 0.77609 0.24142 0.0
C1067 C 0.49959 0.71986 0.23648 0.0
C1068 C 0.52642 0.72789 0.23806 0.0
C1069 C 0.48192 0.696 0.22845 0.0
C1070 C 0.45362 0.68709 0.22553 0.0
C1071 C 0.44602 0.7017 0.21562 0.0
C1072 C 0.41932 0.69332 0.21308 0.0
C1073 C 0.40002 0.67026 0.22026 0.0
C1074 C 0.40739 0.65549 0.22994 0.0
C1075 C 0.43407 0.6638 0.23254 0.0
H1076 H 0.37935 0.66381 0.21828 0.0
H1077 H 0.63885 0.74511 0.24129 0.0
H1078 H 0.89504 0.44193 0.33302 0.0
H1079 H 0.85403 0.43754 0.34442 0.0
H1080 H 0.89565 0.48094 0.39172 0.0
H1081 H 0.93669 0.48572 0.38024 0.0
H1082 H 0.84192 0.43853 0.39783 0.0
H1083 H 0.89248 0.51265 0.36052 0.0
H1084 H 0.91533 0.5337 0.33269 0.0
H1085 H 0.84342 0.48905 0.30257 0.0
H1086 H 0.82025 0.46742 0.33021 0.0
H1087 H 0.77568 0.51927 0.40103 0.0
H1088 H 0.81065 0.51148 0.39247 0.0
H1089 H 0.75518 0.43079 0.39212 0.0
H1090 H 0.71995 0.43836 0.40081 0.0
H1091 H 0.81394 0.48854 0.36208 0.0
H1092 H 0.79038 0.40187 0.40445 0.0
H1093 H 0.76876 0.382 0.43289 0.0
H1094 H 0.78854 0.45482 0.45438 0.0
H1095 H 0.81055 0.47515 0.42616 0.0
C1096 C 0.89518 0.44988 0.34607 0.0
C1097 C 0.91889 0.46422 0.35577 0.0
C1098 C 0.87185 0.44742 0.35253 0.0
C1099 C 0.87193 0.459 0.36886 0.0
C1100 C 0.89521 0.47177 0.37915 0.0
C1101 C 0.9186 0.47458 0.37256 0.0
C1102 C 0.84888 0.46078 0.37413 0.0
C1103 C 0.83557 0.44922 0.38996 0.0
C1104 C 0.84091 0.47502 0.36394 0.0
C1105 C 0.85473 0.48822 0.34737 0.0
C1106 C 0.88161 0.50717 0.34793 0.0
C1107 C 0.8946 0.51923 0.3322 0.0
C1108 C 0.88085 0.51267 0.31586 0.0
C1109 C 0.85406 0.49408 0.31523 0.0
C1110 C 0.84098 0.48192 0.33092 0.0
C1111 C 0.77088 0.49984 0.39927 0.0
C1112 C 0.74498 0.47944 0.40161 0.0
C1113 C 0.7909 0.49543 0.3943 0.0
C1114 C 0.78551 0.47058 0.39168 0.0
C1115 C 0.75979 0.45012 0.39423 0.0
C1116 C 0.73969 0.4545 0.39916 0.0
C1117 C 0.80685 0.46632 0.38586 0.0
C1118 C 0.81991 0.47747 0.36986 0.0
C1119 C 0.81463 0.45185 0.39599 0.0
C1120 C 0.80185 0.43996 0.41313 0.0
C1121 C 0.79018 0.41364 0.41527 0.0
C1122 C 0.77786 0.4023 0.43135 0.0
C1123 C 0.7772 0.41713 0.44541 0.0
C1124 C 0.78897 0.44334 0.44345 0.0
C1125 C 0.80134 0.45478 0.42741 0.0
H1126 H 0.76762 0.40831 0.45783 0.0
H1127 H 0.89095 0.52203 0.3037 0.0
H1128 H 0.1071 0.56757 0.39129 0.0
H1129 H 0.12851 0.5798 0.42081 0.0
H1130 H 0.05829 0.51928 0.4449 0.0
H1131 H 0.03664 0.50686 0.41524 0.0
H1132 H 0.08143 0.56829 0.46274 0.0
H1133 H 0.10638 0.50996 0.44036 0.0
H1134 H 0.12402 0.49355 0.41753 0.0
H1135 H 0.19825 0.56396 0.41927 0.0
H1136 H 0.18093 0.58094 0.44193 0.0
H1137 H 0.14245 0.59103 0.54704 0.0
H1138 H 0.11816 0.56804 0.51992 0.0
H1139 H 0.18917 0.61023 0.48903 0.0
H1140 H 0.21385 0.63173 0.51651 0.0
H1141 H 0.16281 0.56625 0.47517 0.0
H1142 H 0.13917 0.62713 0.49354 0.0
H1143 H 0.12308 0.64745 0.51435 0.0
H1144 H 0.0488 0.57751 0.51805 0.0
H1145 H 0.06458 0.5567 0.49741 0.0
C1146 C 0.09612 0.55705 0.40291 0.0
C1147 C 0.07017 0.53639 0.40106 0.0
C1148 C 0.10844 0.5639 0.4197 0.0
C1149 C 0.09502 0.55028 0.43494 0.0
C1150 C 0.06894 0.52992 0.43323 0.0
C1151 C 0.05666 0.52284 0.41635 0.0
C1152 C 0.10837 0.55761 0.45265 0.0
C1153 C 0.09893 0.56742 0.46566 0.0
C1154 C 0.13164 0.55716 0.45609 0.0
C1155 C 0.14229 0.54677 0.44277 0.0
C1156 C 0.12642 0.522 0.43581 0.0
C1157 C 0.13637 0.51259 0.4229 0.0
C1158 C 0.16222 0.52772 0.41693 0.0
C1159 C 0.17822 0.55226 0.42391 0.0
C1160 C 0.16836 0.56177 0.4368 0.0
C1161 C 0.15288 0.59495 0.53447 0.0
C1162 C 0.17986 0.61317 0.5337 0.0
C1163 C 0.13899 0.58201 0.51896 0.0
C1164 C 0.15158 0.588 0.50228 0.0
C1165 C 0.17892 0.60536 0.50169 0.0
C1166 C 0.19302 0.61767 0.51735 0.0
C1167 C 0.1361 0.57731 0.48538 0.0
C1168 C 0.14514 0.5669 0.47245 0.0
C1169 C 0.11275 0.57776 0.48181 0.0
C1170 C 0.10315 0.59031 0.49409 0.0
C1171 C 0.11945 0.61606 0.49887 0.0
C1172 C 0.11039 0.62767 0.51063 0.0
C1173 C 0.08496 0.61376 0.51756 0.0
C1174 C 0.0685 0.58824 0.5127 0.0
C1175 C 0.07749 0.57654 0.50096 0.0
H1176 H 0.07798 0.62277 0.52667 0.0
H1177 H 0.16988 0.52041 0.40693 0.0
H1178 H 0.46187 0.03621 0.58258 0.0
H1179 H 0.47545 0.05109 0.61347 0.0
H1180 H 0.55708 0.08922 0.59808 0.0
H1181 H 0.54376 0.07497 0.5671 0.0
H1182 H 0.54521 0.06883 0.63551 0.0
H1183 H 0.53435 0.1229 0.59419 0.0
H1184 H 0.51001 0.1302 0.57043 0.0
H1185 H 0.44477 0.10735 0.60585 0.0
H1186 H 0.46849 0.09918 0.62969 0.0
H1187 H 0.594 0.17421 0.69897 0.0
H1188 H 0.58521 0.14646 0.67275 0.0
H1189 H 0.50157 0.11357 0.67993 0.0
H1190 H 0.51003 0.14108 0.70586 0.0
H1191 H 0.51701 0.13113 0.64635 0.0
H1192 H 0.53018 0.07975 0.6887 0.0
H1193 H 0.55456 0.07095 0.71158 0.0
H1194 H 0.61677 0.08973 0.67421 0.0
H1195 H 0.59292 0.099 0.65117 0.0
C1196 C 0.48272 0.0473 0.58585 0.0
C1197 C 0.50172 0.05489 0.57236 0.0
C1198 C 0.49043 0.05552 0.60351 0.0
C1199 C 0.51722 0.07142 0.60791 0.0
C1200 C 0.53633 0.07683 0.5949 0.0
C1201 C 0.52863 0.0687 0.57719 0.0
C1202 C 0.52474 0.08638 0.62474 0.0
C1203 C 0.53932 0.08262 0.63792 0.0
C1204 C 0.51699 0.10435 0.6277 0.0
C1205 C 0.50308 0.11019 0.61366 0.0
C1206 C 0.51474 0.11926 0.59687 0.0
C1207 C 0.50106 0.12356 0.58339 0.0
C1208 C 0.47585 0.11924 0.58661 0.0
C1209 C 0.4643 0.11067 0.60336 0.0
C1210 C 0.47784 0.10617 0.61687 0.0
C1211 C 0.57375 0.16085 0.69506 0.0
C1212 C 0.55273 0.16007 0.70437 0.0
C1213 C 0.56877 0.14494 0.68016 0.0
C1214 C 0.54273 0.128 0.67444 0.0
C1215 C 0.52179 0.12659 0.68411 0.0
C1216 C 0.52671 0.14239 0.69892 0.0
C1217 C 0.53704 0.11326 0.65754 0.0
C1218 C 0.52294 0.11731 0.64412 0.0
C1219 C 0.5455 0.09582 0.65441 0.0
C1220 C 0.5599 0.09036 0.66828 0.0
C1221 C 0.54918 0.08226 0.68542 0.0
C1222 C 0.56287 0.07712 0.6984 0.0
C1223 C 0.58723 0.07985 0.69437 0.0
C1224 C 0.59792 0.08767 0.67733 0.0
C1225 C 0.58431 0.09285 0.6643 0.0
H1226 H 0.5978 0.07585 0.70444 0.0
H1227 H 0.46529 0.12258 0.57615 0.0
H1228 H 0.5585 0.61529 0.73241 0.0
H1229 H 0.5548 0.62786 0.76285 0.0
H1230 H 0.48726 0.63239 0.74675 0.0
H1231 H 0.49081 0.6197 0.71605 0.0
H1232 H 0.52587 0.67137 0.77483 0.0
H1233 H 0.47182 0.58127 0.76019 0.0
H1234 H 0.46484 0.54077 0.74813 0.0
H1235 H 0.5209 0.54338 0.78621 0.0
H1236 H 0.52888 0.58437 0.7981 0.0
H1237 H 0.45654 0.64393 0.85774 0.0
H1238 H 0.47313 0.65047 0.82711 0.0
H1239 H 0.52097 0.61864 0.84112 0.0
H1240 H 0.50336 0.61088 0.87143 0.0
H1241 H 0.49411 0.59592 0.81341 0.0
H1242 H 0.54708 0.6836 0.82988 0.0
H1243 H 0.55663 0.72493 0.84206 0.0
H1244 H 0.50603 0.72819 0.80206 0.0
H1245 H 0.49588 0.68669 0.78978 0.0
C1246 C 0.54346 0.6199 0.73515 0.0
C1247 C 0.52488 0.6165 0.7219 0.0
C1248 C 0.54137 0.62702 0.75255 0.0
C1249 C 0.52074 0.63095 0.75696 0.0
C1250 C 0.5034 0.62957 0.74349 0.0
C1251 C 0.50531 0.62215 0.72606 0.0
C1252 C 0.51478 0.63215 0.77599 0.0
C1253 C 0.5187 0.65492 0.78333 0.0
C1254 C 0.50606 0.61076 0.787 0.0
C1255 C 0.50121 0.58607 0.77987 0.0
C1256 C 0.48294 0.5734 0.76582 0.0
C1257 C 0.47878 0.55034 0.75903 0.0
C1258 C 0.49246 0.53954 0.76637 0.0
C1259 C 0.51036 0.5518 0.78051 0.0
C1260 C 0.51477 0.57498 0.78724 0.0
C1261 C 0.47098 0.63879 0.85433 0.0
C1262 C 0.47847 0.62665 0.86684 0.0
C1263 C 0.48059 0.64268 0.83685 0.0
C1264 C 0.49838 0.63511 0.83177 0.0
C1265 C 0.50712 0.62447 0.84466 0.0
C1266 C 0.49708 0.62006 0.86198 0.0
C1267 C 0.50547 0.63538 0.81268 0.0
C1268 C 0.50153 0.61265 0.80515 0.0
C1269 C 0.51446 0.65693 0.80166 0.0
C1270 C 0.52053 0.6819 0.80901 0.0
C1271 C 0.53781 0.69302 0.82377 0.0
C1272 C 0.54337 0.71651 0.83068 0.0
C1273 C 0.53189 0.72915 0.82287 0.0
C1274 C 0.51488 0.71836 0.80811 0.0
C1275 C 0.50924 0.69487 0.80115 0.0
H1276 H 0.53622 0.74733 0.82824 0.0
H1277 H 0.48916 0.52164 0.76114 0.0
H1278 H 0.92153 0.35373 0.88507 0.0
H1279 H 0.89781 0.3449 0.91338 0.0
H1280 H 0.8785 0.40201 0.90176 0.0
H1281 H 0.90106 0.41023 0.87306 0.0
H1282 H 0.91403 0.40623 0.93511 0.0
H1283 H 0.83064 0.35358 0.90305 0.0
H1284 H 0.80047 0.31745 0.88348 0.0
H1285 H 0.80418 0.26578 0.92005 0.0
H1286 H 0.83472 0.30167 0.93971 0.0
H1287 H 0.85213 0.4167 0.0104 0.0
H1288 H 0.86353 0.41275 0.97971 0.0
H1289 H 0.8418 0.33521 0.98937 0.0
H1290 H 0.82871 0.3387 0.01997 0.0
H1291 H 0.82764 0.33763 0.95715 0.0
H1292 H 0.90823 0.38603 0.98955 0.0
H1293 H 0.94099 0.41984 0.00962 0.0
H1294 H 0.94699 0.47649 0.97343 0.0
H1295 H 0.91399 0.44302 0.95325 0.0
C1296 C 0.91133 0.3637 0.88816 0.0
C1297 C 0.91348 0.38294 0.87689 0.0
C1298 C 0.89791 0.35869 0.90439 0.0
C1299 C 0.88656 0.37288 0.90958 0.0
C1300 C 0.88716 0.39088 0.89789 0.0
C1301 C 0.90023 0.39566 0.88159 0.0
C1302 C 0.87781 0.3719 0.92818 0.0
C1303 C 0.89502 0.39143 0.93993 0.0
C1304 C 0.85361 0.35187 0.93453 0.0
C1305 C 0.83523 0.33034 0.92273 0.0
C1306 C 0.82527 0.33455 0.90682 0.0
C1307 C 0.80804 0.3141 0.89573 0.0
C1308 C 0.80049 0.28934 0.90049 0.0
C1309 C 0.81009 0.28497 0.91636 0.0
C1310 C 0.82734 0.30536 0.92749 0.0
C1311 C 0.84976 0.3988 0.00598 0.0
C1312 C 0.8399 0.37811 0.01759 0.0
C1313 C 0.85639 0.39657 0.98845 0.0
C1314 C 0.8543 0.37392 0.98234 0.0
C1315 C 0.84378 0.35295 0.9938 0.0
C1316 C 0.83641 0.35497 0.01127 0.0
C1317 C 0.86355 0.37254 0.96412 0.0
C1318 C 0.84668 0.35247 0.95245 0.0
C1319 C 0.88849 0.39178 0.9579 0.0
C1320 C 0.90848 0.412 0.96995 0.0
C1321 C 0.91642 0.4057 0.98592 0.0
C1322 C 0.93505 0.42481 0.99731 0.0
C1323 C 0.94603 0.45029 0.99282 0.0
C1324 C 0.93846 0.45673 0.9769 0.0
C1325 C 0.91981 0.4377 0.96547 0.0
H1326 H 0.96044 0.46506 0.00166 0.0
H1327 H 0.78714 0.27354 0.89189 0.0
H1328 H 0.49995 0.93734 0.06493 0.0
H1329 H 0.5046 0.92294 0.09425 0.0
H1330 H 0.48504 0.9743 0.11974 0.0
H1331 H 0.48196 0.99007 0.0904 0.0
H1332 H 0.52162 0.97095 0.13906 0.0
H1333 H 0.43797 0.9126 0.11065 0.0
H1334 H 0.40928 0.88444 0.0862 0.0
H1335 H 0.44423 0.83849 0.09124 0.0
H1336 H 0.47346 0.86663 0.11552 0.0
H1337 H 0.45382 0.90571 0.21709 0.0
H1338 H 0.46986 0.92775 0.18875 0.0
H1339 H 0.49373 0.87498 0.17281 0.0
H1340 H 0.47778 0.85277 0.20129 0.0
H1341 H 0.46079 0.87873 0.14823 0.0
H1342 H 0.54011 0.93474 0.18023 0.0
H1343 H 0.56758 0.9631 0.20496 0.0
H1344 H 0.53912 0.01335 0.19401 0.0
H1345 H 0.51117 0.98509 0.16936 0.0
C1346 C 0.4974 0.94619 0.07674 0.0
C1347 C 0.49036 0.96477 0.07527 0.0
C1348 C 0.4998 0.93771 0.09351 0.0
C1349 C 0.49464 0.94718 0.10913 0.0
C1350 C 0.48895 0.96663 0.10782 0.0
C1351 C 0.48688 0.97539 0.09103 0.0
C1352 C 0.49297 0.93538 0.12667 0.0
C1353 C 0.50825 0.95082 0.14113 0.0
C1354 C 0.47591 0.909 0.1292 0.0
C1355 C 0.4581 0.89187 0.11477 0.0
C1356 C 0.43966 0.89659 0.10646 0.0
C1357 C 0.4233 0.88063 0.09264 0.0
C1358 C 0.42498 0.85973 0.08714 0.0
C1359 C 0.44299 0.85471 0.09549 0.0
C1360 C 0.45945 0.87065 0.10928 0.0
C1361 C 0.46284 0.89899 0.20768 0.0
C1362 C 0.46434 0.87737 0.21134 0.0
C1363 C 0.47217 0.91173 0.19155 0.0
C1364 C 0.48308 0.90304 0.17876 0.0
C1365 C 0.48545 0.882 0.18259 0.0
C1366 C 0.47637 0.86937 0.19885 0.0
C1367 C 0.4892 0.91432 0.16072 0.0
C1368 C 0.47458 0.89878 0.14614 0.0
C1369 C 0.50663 0.9406 0.15817 0.0
C1370 C 0.52338 0.95767 0.17301 0.0
C1371 C 0.53952 0.95172 0.18318 0.0
C1372 C 0.55523 0.96781 0.19717 0.0
C1373 C 0.55506 0.98999 0.20107 0.0
C1374 C 0.53922 0.99615 0.19097 0.0
C1375 C 0.52347 0.98012 0.17697 0.0
H1376 H 0.56724 0.00243 0.2119 0.0
H1377 H 0.41228 0.84737 0.07647 0.0
H1378 H 0.5772 0.57633 0.25986 0.0
H1379 H 0.58258 0.56317 0.2896 0.0
H1380 H 0.54124 0.48505 0.27176 0.0
H1381 H 0.53634 0.49805 0.24183 0.0
H1382 H 0.54047 0.50081 0.31397 0.0
H1383 H 0.5942 0.50199 0.26289 0.0
H1384 H 0.61776 0.52264 0.23517 0.0
H1385 H 0.66703 0.59201 0.2645 0.0
H1386 H 0.64325 0.57189 0.29235 0.0
H1387 H 0.61262 0.45924 0.36726 0.0
H1388 H 0.58775 0.46474 0.34319 0.0
H1389 H 0.64526 0.54495 0.34248 0.0
H1390 H 0.67034 0.53966 0.36626 0.0
H1391 H 0.63436 0.5251 0.30947 0.0
H1392 H 0.58531 0.52274 0.36136 0.0
H1393 H 0.55993 0.50469 0.38896 0.0
H1394 H 0.50147 0.43955 0.35913 0.0
H1395 H 0.52671 0.45707 0.33138 0.0
C1396 C 0.56843 0.55627 0.26245 0.0
C1397 C 0.55699 0.53828 0.24844 0.0
C1398 C 0.57122 0.54877 0.27949 0.0
C1399 C 0.5625 0.52321 0.28271 0.0
C1400 C 0.54789 0.50483 0.26948 0.0
C1401 C 0.54521 0.51234 0.25236 0.0
C1402 C 0.57489 0.51708 0.29741 0.0
C1403 C 0.56084 0.5057 0.31301 0.0
C1404 C 0.60154 0.52386 0.29607 0.0
C1405 C 0.61689 0.53552 0.27963 0.0
C1406 C 0.61003 0.52167 0.2634 0.0
C1407 C 0.62338 0.53327 0.24767 0.0
C1408 C 0.64389 0.55861 0.24806 0.0
C1409 C 0.65114 0.57238 0.26421 0.0
C1410 C 0.63773 0.56089 0.27997 0.0
C1411 C 0.61999 0.47804 0.36194 0.0
C1412 C 0.64352 0.49901 0.36864 0.0
C1413 C 0.60565 0.48116 0.3483 0.0
C1414 C 0.61456 0.50529 0.34119 0.0
C1415 C 0.63805 0.52617 0.3478 0.0
C1416 C 0.65236 0.52309 0.3614 0.0
C1417 C 0.60011 0.50886 0.32638 0.0
C1418 C 0.61388 0.51984 0.31057 0.0
C1419 C 0.57324 0.50166 0.32766 0.0
C1420 C 0.55807 0.49108 0.34433 0.0
C1421 C 0.56718 0.50445 0.36072 0.0
C1422 C 0.55278 0.49434 0.37638 0.0
C1423 C 0.52914 0.47095 0.37581 0.0
C1424 C 0.51981 0.45765 0.35956 0.0
C1425 C 0.53414 0.46767 0.34386 0.0
H1426 H 0.51802 0.46316 0.38795 0.0
H1427 H 0.65414 0.56757 0.23584 0.0
H1428 H 0.43144 0.93897 0.41384 0.0
H1429 H 0.43428 0.90731 0.39572 0.0
H1430 H 0.50649 0.92549 0.42309 0.0
H1431 H 0.50355 0.95704 0.44153 0.0
H1432 H 0.51339 0.93022 0.38815 0.0
H1433 H 0.45467 0.86523 0.4254 0.0
H1434 H 0.41616 0.84075 0.44471 0.0
H1435 H 0.3642 0.82427 0.39957 0.0
H1436 H 0.40237 0.8489 0.37999 0.0
H1437 H 0.45974 0.82324 0.31288 0.0
H1438 H 0.4717 0.83546 0.34463 0.0
H1439 H 0.47318 0.90535 0.33536 0.0
H1440 H 0.46077 0.89311 0.30407 0.0
H1441 H 0.43994 0.8456 0.36847 0.0
H1442 H 0.52351 0.95151 0.35862 0.0
H1443 H 0.56273 0.97542 0.3398 0.0
H1444 H 0.56707 0.90842 0.33192 0.0
H1445 H 0.52812 0.88415 0.35092 0.0
C1446 C 0.44748 0.9357 0.41641 0.0
C1447 C 0.46747 0.95076 0.42892 0.0
C1448 C 0.44905 0.9175 0.40609 0.0
C1449 C 0.47055 0.91395 0.40813 0.0
C1450 C 0.48974 0.92793 0.42133 0.0
C1451 C 0.48814 0.94608 0.43171 0.0
C1452 C 0.47484 0.89882 0.39452 0.0
C1453 C 0.49759 0.91147 0.38405 0.0
C1454 C 0.45467 0.87398 0.38958 0.0
C1455 C 0.43147 0.85896 0.40121 0.0
C1456 C 0.43504 0.8565 0.41959 0.0
C1457 C 0.41325 0.84258 0.43059 0.0
C1458 C 0.38775 0.83099 0.42338 0.0
C1459 C 0.38398 0.83324 0.40514 0.0
C1460 C 0.4057 0.84711 0.39406 0.0
C1461 C 0.46312 0.8414 0.31764 0.0
C1462 C 0.45922 0.85722 0.30615 0.0
C1463 C 0.46986 0.84828 0.3357 0.0
C1464 C 0.47349 0.87135 0.34223 0.0
C1465 C 0.47077 0.8876 0.33051 0.0
C1466 C 0.46354 0.88054 0.31268 0.0
C1467 C 0.47743 0.87798 0.36151 0.0
C1468 C 0.45622 0.86383 0.37301 0.0
C1469 C 0.49916 0.90131 0.36754 0.0
C1470 C 0.52283 0.91598 0.35623 0.0
C1471 C 0.53294 0.94189 0.35301 0.0
C1472 C 0.55511 0.95551 0.34227 0.0
C1473 C 0.56738 0.94345 0.33466 0.0
C1474 C 0.55752 0.91773 0.33779 0.0
C1475 C 0.53537 0.90403 0.34853 0.0
H1476 H 0.58453 0.95402 0.32634 0.0
H1477 H 0.37091 0.82025 0.43193 0.0
H1478 H 0.53609 0.54551 0.5524 0.0
H1479 H 0.55869 0.53867 0.52778 0.0
H1480 H 0.53848 0.46607 0.54956 0.0
H1481 H 0.51773 0.47366 0.57492 0.0
H1482 H 0.58748 0.4907 0.54376 0.0
H1483 H 0.51304 0.47335 0.50801 0.0
H1484 H 0.47858 0.48005 0.49529 0.0
H1485 H 0.53791 0.5494 0.47146 0.0
H1486 H 0.57276 0.54331 0.48423 0.0
H1487 H 0.63574 0.45781 0.46539 0.0
H1488 H 0.60836 0.45926 0.48933 0.0
H1489 H 0.64214 0.53945 0.48105 0.0
H1490 H 0.66992 0.53833 0.45732 0.0
H1491 H 0.58469 0.50822 0.47926 0.0
H1492 H 0.65876 0.5244 0.51683 0.0
H1493 H 0.69171 0.5153 0.52918 0.0
H1494 H 0.62976 0.44392 0.54885 0.0
H1495 H 0.59641 0.45244 0.53638 0.0
C1496 C 0.53614 0.52793 0.55183 0.0
C1497 C 0.52529 0.5103 0.56577 0.0
C1498 C 0.54883 0.52389 0.5376 0.0
C1499 C 0.55029 0.50181 0.53676 0.0
C1500 C 0.53771 0.4833 0.54994 0.0
C1501 C 0.52545 0.48753 0.56434 0.0
C1502 C 0.56734 0.49935 0.52337 0.0
C1503 C 0.58642 0.49401 0.5296 0.0
C1504 C 0.56645 0.5042 0.50493 0.0
C1505 C 0.54554 0.50796 0.49721 0.0
C1506 C 0.51876 0.49013 0.50017 0.0
C1507 C 0.49915 0.4938 0.49293 0.0
C1508 C 0.50605 0.51516 0.48261 0.0
C1509 C 0.53259 0.53287 0.47947 0.0
C1510 C 0.55228 0.5293 0.48669 0.0
C1511 C 0.63774 0.47586 0.46892 0.0
C1512 C 0.65494 0.49795 0.45946 0.0
C1513 C 0.62207 0.47663 0.48255 0.0
C1514 C 0.62318 0.49942 0.48678 0.0
C1515 C 0.64101 0.52168 0.47787 0.0
C1516 C 0.65699 0.52102 0.46443 0.0
C1517 C 0.60463 0.49974 0.49978 0.0
C1518 C 0.58538 0.50468 0.49343 0.0
C1519 C 0.60504 0.49409 0.51803 0.0
C1520 C 0.62509 0.48892 0.52547 0.0
C1521 C 0.65215 0.50664 0.52362 0.0
C1522 C 0.67091 0.50162 0.53068 0.0
C1523 C 0.66284 0.47901 0.53974 0.0
C1524 C 0.63599 0.4614 0.54179 0.0
C1525 C 0.61715 0.46632 0.53474 0.0
H1526 H 0.67739 0.47516 0.54521 0.0
H1527 H 0.49084 0.51797 0.47701 0.0
H1528 H 0.06063 0.51877 0.74437 0.0
H1529 H 0.08726 0.54698 0.72054 0.0
H1530 H 0.07759 0.48304 0.68975 0.0
H1531 H 0.04955 0.45421 0.71316 0.0
H1532 H 0.13227 0.5259 0.69597 0.0
H1533 H 0.0471 0.50781 0.67453 0.0
H1534 H 0.0039 0.50443 0.6774 0.0
H1535 H 0.04237 0.58382 0.69073 0.0
H1536 H 0.08581 0.5876 0.6882 0.0
H1537 H 0.19327 0.59234 0.61631 0.0
H1538 H 0.16659 0.56317 0.63981 0.0
H1539 H 0.15272 0.62028 0.66212 0.0
H1540 H 0.17811 0.64895 0.63791 0.0
H1541 H 0.10911 0.57944 0.66018 0.0
H1542 H 0.19338 0.59926 0.68294 0.0
H1543 H 0.23763 0.60461 0.68225 0.0
H1544 H 0.20332 0.52545 0.66944 0.0
H1545 H 0.15887 0.51969 0.66981 0.0
C1546 C 0.06334 0.51044 0.73233 0.0
C1547 C 0.05268 0.48405 0.73072 0.0
C1548 C 0.07886 0.52672 0.7188 0.0
C1549 C 0.08437 0.51704 0.70347 0.0
C1550 C 0.07359 0.4908 0.70158 0.0
C1551 C 0.05765 0.4744 0.715 0.0
C1552 C 0.10228 0.53462 0.68979 0.0
C1553 C 0.12717 0.53738 0.68788 0.0
C1554 C 0.09582 0.55017 0.67987 0.0
C1555 C 0.0697 0.54793 0.68134 0.0
C1556 C 0.04635 0.5245 0.67823 0.0
C1557 C 0.02182 0.52252 0.67976 0.0
C1558 C 0.02039 0.54388 0.68429 0.0
C1559 C 0.0435 0.56728 0.68725 0.0
C1560 C 0.06808 0.56936 0.68575 0.0
C1561 C 0.18496 0.59884 0.62645 0.0
C1562 C 0.18773 0.62289 0.62531 0.0
C1563 C 0.16976 0.58216 0.63994 0.0
C1564 C 0.15773 0.58951 0.6529 0.0
C1565 C 0.16162 0.61406 0.65224 0.0
C1566 C 0.17626 0.6305 0.63848 0.0
C1567 C 0.13953 0.57107 0.66628 0.0
C1568 C 0.11446 0.56808 0.66818 0.0
C1569 C 0.14609 0.5557 0.67648 0.0
C1570 C 0.1728 0.5591 0.67623 0.0
C1571 C 0.19528 0.58303 0.67983 0.0
C1572 C 0.2204 0.58613 0.67953 0.0
C1573 C 0.22329 0.5654 0.67576 0.0
C1574 C 0.20106 0.5415 0.67233 0.0
C1575 C 0.17589 0.5383 0.67261 0.0
H1576 H 0.24275 0.56784 0.67553 0.0
H1577 H 0.00138 0.54231 0.68546 0.0
H1578 H 0.54421 0.11412 0.94245 0.0
H1579 H 0.56222 0.14126 0.91609 0.0
H1580 H 0.49018 0.0921 0.88672 0.0
H1581 H 0.47233 0.06482 0.91273 0.0
H1582 H 0.53459 0.10055 0.86895 0.0
H1583 H 0.50325 0.14884 0.9007 0.0
H1584 H 0.50081 0.17302 0.9264 0.0
H1585 H 0.58391 0.22662 0.92282 0.0
H1586 H 0.5869 0.20253 0.89722 0.0
H1587 H 0.51925 0.16252 0.79658 0.0
H1588 H 0.51641 0.14637 0.8267 0.0
H1589 H 0.60057 0.19457 0.8336 0.0
H1590 H 0.6038 0.21069 0.80304 0.0
H1591 H 0.56077 0.19101 0.86401 0.0
H1592 H 0.59052 0.14438 0.82964 0.0
H1593 H 0.59126 0.12018 0.80334 0.0
H1594 H 0.51015 0.06329 0.8118 0.0
H1595 H 0.5088 0.08739 0.83798 0.0
C1596 C 0.53216 0.10933 0.93041 0.0
C1597 C 0.50685 0.08741 0.92963 0.0
C1598 C 0.54242 0.12486 0.91543 0.0
C1599 C 0.52753 0.11858 0.8995 0.0
C1600 C 0.50197 0.09719 0.89891 0.0
C1601 C 0.49169 0.08179 0.91384 0.0
C1602 C 0.53881 0.13325 0.88299 0.0
C1603 C 0.54036 0.12034 0.86789 0.0
C1604 C 0.54714 0.15928 0.88182 0.0
C1605 C 0.54537 0.1737 0.89722 0.0
C1606 C 0.52105 0.16563 0.90551 0.0
C1607 C 0.51956 0.17935 0.92003 0.0
C1608 C 0.54221 0.20129 0.92628 0.0
C1609 C 0.56639 0.20959 0.91799 0.0
C1610 C 0.568 0.19592 0.90348 0.0
C1611 C 0.5372 0.16987 0.80448 0.0
C1612 C 0.56178 0.18784 0.79743 0.0
C1613 C 0.53551 0.1606 0.82167 0.0
C1614 C 0.55827 0.16932 0.83224 0.0
C1615 C 0.58283 0.18773 0.82554 0.0
C1616 C 0.58462 0.19677 0.80812 0.0
C1617 C 0.55581 0.15804 0.84999 0.0
C1618 C 0.55577 0.17146 0.86527 0.0
C1619 C 0.54883 0.13244 0.8514 0.0
C1620 C 0.54951 0.11782 0.83568 0.0
C1621 C 0.57276 0.12684 0.82578 0.0
C1622 C 0.57331 0.11312 0.81092 0.0
C1623 C 0.55075 0.09024 0.80588 0.0
C1624 C 0.52761 0.08103 0.81571 0.0
C1625 C 0.52695 0.0947 0.83058 0.0
H1626 H 0.55122 0.07963 0.79437 0.0
H1627 H 0.54101 0.2119 0.93752 0.0
H1628 H 0.53464 0.64456 0.11016 0.0
H1629 H 0.51961 0.65421 0.08237 0.0
H1630 H 0.5871 0.66166 0.05485 0.0
H1631 H 0.60217 0.65195 0.08248 0.0
H1632 H 0.56675 0.69123 0.03943 0.0
H1633 H 0.5392 0.60521 0.05776 0.0
H1634 H 0.52128 0.57088 0.07993 0.0
H1635 H 0.44974 0.57266 0.08227 0.0
H1636 H 0.4675 0.60735 0.06031 0.0
H1637 H 0.48453 0.59306 0.96431 0.0
H1638 H 0.5066 0.60554 0.99347 0.0
H1639 H 0.4958 0.66977 0.99548 0.0
H1640 H 0.47398 0.65764 0.96603 0.0
H1641 H 0.48694 0.60796 0.0246 0.0
H1642 H 0.54776 0.71724 0.02103 0.0
H1643 H 0.5694 0.75082 -0.00153 0.0
H1644 H 0.57906 0.69982 0.96413 0.0
H1645 H 0.55779 0.66607 0.98657 0.0
C1646 C 0.54677 0.64921 0.09834 0.0
C1647 C 0.56922 0.64694 0.09833 0.0
C1648 C 0.53827 0.6549 0.08253 0.0
C1649 C 0.55203 0.65817 0.06656 0.0
C1650 C 0.57626 0.65923 0.06707 0.0
C1651 C 0.58482 0.6536 0.08289 0.0
C1652 C 0.5384 0.65416 0.04913 0.0
C1653 C 0.54909 0.67322 0.0362 0.0
C1654 C 0.51582 0.63037 0.04484 0.0
C1655 C 0.50475 0.60898 0.05756 0.0
C1656 C 0.51969 0.59833 0.06307 0.0
C1657 C 0.50957 0.57882 0.07559 0.0
C1658 C 0.4844 0.56963 0.08253 0.0
C1659 C 0.46925 0.57984 0.0769 0.0
C1660 C 0.47933 0.59942 0.06442 0.0
C1661 C 0.48692 0.60992 0.97087 0.0
C1662 C 0.47741 0.62431 0.96286 0.0
C1663 C 0.49951 0.617 0.98756 0.0
C1664 C 0.50288 0.6386 0.99661 0.0
C1665 C 0.49365 0.65319 0.98863 0.0
C1666 C 0.4811 0.64616 0.97184 0.0
C1667 C 0.5152 0.64503 0.01469 0.0
C1668 C 0.50424 0.62627 0.02783 0.0
C1669 C 0.53785 0.66887 0.01892 0.0
C1670 C 0.5509 0.68907 0.00539 0.0
C1671 C 0.55456 0.71323 0.00868 0.0
C1672 C 0.56676 0.73228 0.99591 0.0
C1673 C 0.5755 0.72742 0.97984 0.0
C1674 C 0.57217 0.70352 0.97654 0.0
C1675 C 0.56001 0.68442 0.98927 0.0
H1676 H 0.58493 0.74219 0.96997 0.0
H1677 H 0.47661 0.55456 0.09225 0.0
H1678 H 0.91703 0.3857 0.26283 0.0
H1679 H 0.89128 0.36467 0.23564 0.0
H1680 H 0.90121 0.43561 0.21793 0.0
H1681 H 0.92773 0.45698 0.2445 0.0
H1682 H 0.8508 0.39309 0.20957 0.0
H1683 H 0.94423 0.42189 0.2055 0.0
H1684 H 0.98449 0.423 0.21577 0.0
H1685 H 0.94683 0.34254 0.20703 0.0
H1686 H 0.90606 0.34085 0.19712 0.0
H1687 H 0.88726 0.40207 0.11312 0.0
H1688 H 0.89896 0.40117 0.14437 0.0
H1689 H 0.82034 0.33853 0.15399 0.0
H1690 H 0.80835 0.33939 0.12261 0.0
H1691 H 0.89927 0.36787 0.16838 0.0
H1692 H 0.8017 0.35295 0.19422 0.0
H1693 H 0.76371 0.35586 0.1837 0.0
H1694 H 0.8138 0.41491 0.14744 0.0
H1695 H 0.85209 0.41256 0.15793 0.0
C1696 C 0.9135 0.39679 0.25325 0.0
C1697 C 0.92481 0.42315 0.25578 0.0
C1698 C 0.89859 0.38467 0.23781 0.0
C1699 C 0.89456 0.39866 0.22477 0.0
C1700 C 0.90399 0.42447 0.22792 0.0
C1701 C 0.91911 0.43665 0.24321 0.0
C1702 C 0.88374 0.3876 0.20684 0.0
C1703 C 0.86105 0.38706 0.20066 0.0
C1704 C 0.89738 0.3801 0.19518 0.0
C1705 C 0.92202 0.38119 0.20079 0.0
C1706 C 0.94447 0.40441 0.2059 0.0
C1707 C 0.96739 0.40515 0.21164 0.0
C1708 C 0.96822 0.38286 0.21207 0.0
C1709 C 0.94614 0.35978 0.20672 0.0
C1710 C 0.92311 0.35891 0.20107 0.0
C1711 C 0.87259 0.38771 0.12176 0.0
C1712 C 0.84676 0.37107 0.11547 0.0
C1713 C 0.87937 0.38712 0.13961 0.0
C1714 C 0.86041 0.37003 0.15154 0.0
C1715 C 0.83518 0.35203 0.145 0.0
C1716 C 0.82839 0.35251 0.12707 0.0
C1717 C 0.86638 0.3735 0.17102 0.0
C1718 C 0.88834 0.37286 0.17747 0.0
C1719 C 0.85234 0.38034 0.18284 0.0
C1720 C 0.82962 0.38233 0.1767 0.0
C1721 C 0.80458 0.36659 0.18404 0.0
C1722 C 0.78301 0.36814 0.17808 0.0
C1723 C 0.78632 0.38548 0.16485 0.0
C1724 C 0.81123 0.40142 0.15763 0.0
C1725 C 0.83287 0.39998 0.16358 0.0
H1726 H 0.76958 0.38662 0.16023 0.0
H1727 H 0.98599 0.38349 0.21651 0.0
loop_
_geom_bond_atom_site_label_1
_geom_bond_atom_site_label_2
_geom_bond_distance
_geom_bond_site_symmetry_2
_ccdc_geom_bond_type
H0 O26 0.856 . S
H1 O29 0.854 . S
H2 C37 0.930 1_455 S
H3 C38 0.930 . S
H4 C40 0.930 . S
H5 C41 0.930 . S
H6 C43 0.931 . S
H7 C44 0.930 . S
H8 C46 0.930 . S
H9 C47 0.929 . S
H10 C49 0.930 . S
H11 C50 0.931 . S
H12 C52 0.930 . S
H13 C53 0.929 . S
H14 C55 0.931 . S
H15 C56 0.930 . S
H16 C58 0.930 . S
H17 C59 0.932 . S
H18 C61 0.930 . S
H19 C62 0.929 . S
H20 C64 0.931 . S
H21 C65 0.930 . S
H22 C67 0.929 . S
H23 C68 0.931 . S
H24 C70 0.930 . S
H25 C71 0.924 1_455 S
O26 H0 0.856 . S
O26 C72 1.300 . S
O27 C72 1.209 . S
O28 C73 1.199 . S
O29 H1 0.854 . S
O29 C73 1.297 . S
C30 C31 1.404 . S
C30 C35 1.397 . S
C30 C36 1.492 . S
C31 C30 1.404 . S
C31 C32 1.396 . S
C31 C42 1.492 . S
C32 C31 1.396 . S
C32 C33 1.397 . S
C32 C48 1.509 . S
C33 C32 1.397 . S
C33 C34 1.412 . S
C33 C54 1.485 . S
C34 C33 1.412 . S
C34 C35 1.388 . S
C34 C60 1.490 . S
C35 C30 1.397 . S
C35 C34 1.388 . S
C35 C66 1.519 1_455 S
C36 C30 1.492 . S
C36 C37 1.363 1_455 S
C36 C41 1.390 1_455 S
C37 H2 0.930 1_655 S
C37 C36 1.363 1_655 S
C37 C38 1.372 . S
C38 H3 0.930 . S
C38 C37 1.372 . S
C38 C39 1.383 . S
C39 C38 1.383 . S
C39 C40 1.395 . S
C40 H4 0.930 . S
C40 C39 1.395 . S
C40 C41 1.362 . S
C41 H5 0.930 . S
C41 C36 1.390 1_655 S
C41 C40 1.362 . S
C42 C31 1.492 . S
C42 C43 1.377 . S
C42 C47 1.397 . S
C43 H6 0.931 . S
C43 C42 1.377 . S
C43 C44 1.376 . S
C44 H7 0.930 . S
C44 C43 1.376 . S
C44 C45 1.376 . S
C45 C44 1.376 . S
C45 C46 1.378 . S
C45 C72 1.486 . S
C46 H8 0.930 . S
C46 C45 1.378 . S
C46 C47 1.376 . S
C47 H9 0.929 . S
C47 C42 1.397 . S
C47 C46 1.376 . S
C48 C32 1.509 . S
C48 C49 1.391 . S
C48 C53 1.386 . S
C49 H10 0.930 . S
C49 C48 1.391 . S
C49 C50 1.375 . S
C50 H11 0.931 . S
C50 C49 1.375 . S
C50 C51 1.375 . S
C51 C50 1.375 . S
C51 C52 1.361 . S
C52 H12 0.930 . S
C52 C51 1.361 . S
C52 C53 1.399 . S
C53 H13 0.929 . S
C53 C48 1.386 . S
C53 C52 1.399 . S
C54 C33 1.485 . S
C54 C55 1.394 . S
C54 C59 1.360 . S
C55 H14 0.931 . S
C55 C54 1.394 . S
C55 C56 1.372 . S
C56 H15 0.930 . S
C56 C55 1.372 . S
C56 C57 1.397 . S
C57 C56 1.397 . S
C57 C58 1.390 . S
C57 C73 1.476 . S
C58 H16 0.930 . S
C58 C57 1.390 . S
C58 C59 1.366 . S
C59 H17 0.932 . S
C59 C54 1.360 . S
C59 C58 1.366 . S
C60 C34 1.490 . S
C60 C61 1.380 . S
C60 C65 1.386 . S
C61 H18 0.930 . S
C61 C60 1.380 . S
C61 C62 1.381 . S
C62 H19 0.929 . S
C62 C61 1.381 . S
C62 C63 1.371 . S
C63 C62 1.371 . S
C63 C64 1.380 . S
C64 H20 0.931 . S
C64 C63 1.380 . S
C64 C65 1.387 . S
C65 H21 0.930 . S
C65 C60 1.386 . S
C65 C64 1.387 . S
C66 C35 1.519 1_655 S
C66 C67 1.377 . S
C66 C71 1.361 . S
C67 H22 0.929 . S
C67 C66 1.377 . S
C67 C68 1.386 . S
C68 H23 0.931 . S
C68 C67 1.386 . S
C68 C69 1.363 . S
C69 C68 1.363 . S
C69 C70 1.385 . S
C70 H24 0.930 . S
C70 C69 1.385 . S
C70 C71 1.396 . S
C71 H25 0.924 1_655 S
C71 C66 1.361 . S
C71 C70 1.396 . S
C72 O26 1.300 . S
C72 O27 1.209 . S
C72 C45 1.486 . S
C73 O28 1.199 . S
C73 O29 1.297 . S
C73 C57 1.476 . S
H74 O100 0.856 . S
H75 O103 0.854 . S
H76 C111 0.930 . S
H77 C112 0.930 . S
H78 C114 0.930 . S
H79 C115 0.930 . S
H80 C117 0.931 . S
H81 C118 0.930 . S
H82 C120 0.930 . S
H83 C121 0.929 . S
H84 C123 0.930 . S
H85 C124 0.931 . S
H86 C126 0.930 . S
H87 C127 0.929 . S
H88 C129 0.931 . S
H89 C130 0.930 . S
H90 C132 0.930 . S
H91 C133 0.932 . S
H92 C135 0.930 . S
H93 C136 0.929 . S
H94 C138 0.931 . S
H95 C139 0.930 . S
H96 C141 0.929 . S
H97 C142 0.931 . S
H98 C144 0.930 . S
H99 C145 0.929 1_545 S
O100 H74 0.856 . S
O100 C146 1.300 . S
O101 C146 1.209 . S
O102 C147 1.199 . S
O103 H75 0.854 . S
O103 C147 1.297 . S
C104 C105 1.404 . S
C104 C109 1.397 . S
C104 C110 1.492 . S
C105 C104 1.404 . S
C105 C106 1.396 . S
C105 C116 1.492 . S
C106 C105 1.396 . S
C106 C107 1.397 . S
C106 C122 1.509 . S
C107 C106 1.397 . S
C107 C108 1.412 . S
C107 C128 1.485 . S
C108 C107 1.412 . S
C108 C109 1.388 . S
C108 C134 1.490 . S
C109 C104 1.397 . S
C109 C108 1.388 . S
C109 C140 1.519 . S
C110 C104 1.492 . S
C110 C111 1.363 . S
C110 C115 1.390 1_545 S
C111 H76 0.930 . S
C111 C110 1.363 . S
C111 C112 1.372 1_545 S
C112 H77 0.930 . S
C112 C111 1.372 1_565 S
C112 C113 1.383 . S
C113 C112 1.383 . S
C113 C114 1.395 . S
C114 H78 0.930 . S
C114 C113 1.395 . S
C114 C115 1.362 . S
C115 H79 0.930 . S
C115 C110 1.390 1_565 S
C115 C114 1.362 . S
C116 C105 1.492 . S
C116 C117 1.377 . S
C116 C121 1.397 . S
C117 H80 0.931 . S
C117 C116 1.377 . S
C117 C118 1.376 . S
C118 H81 0.930 . S
C118 C117 1.376 . S
C118 C119 1.376 . S
C119 C118 1.376 . S
C119 C120 1.378 . S
C119 C146 1.486 . S
C120 H82 0.930 . S
C120 C119 1.378 . S
C120 C121 1.376 . S
C121 H83 0.929 . S
C121 C116 1.397 . S
C121 C120 1.376 . S
C122 C106 1.509 . S
C122 C123 1.391 . S
C122 C127 1.386 . S
C123 H84 0.930 . S
C123 C122 1.391 . S
C123 C124 1.375 . S
C124 H85 0.931 . S
C124 C123 1.375 . S
C124 C125 1.375 . S
C125 C124 1.375 . S
C125 C126 1.361 . S
C126 H86 0.930 . S
C126 C125 1.361 . S
C126 C127 1.399 . S
C127 H87 0.929 . S
C127 C122 1.386 . S
C127 C126 1.399 . S
C128 C107 1.485 . S
C128 C129 1.394 . S
C128 C133 1.360 . S
C129 H88 0.931 . S
C129 C128 1.394 . S
C129 C130 1.372 . S
C130 H89 0.930 . S
C130 C129 1.372 . S
C130 C131 1.397 . S
C131 C130 1.397 . S
C131 C132 1.390 . S
C131 C147 1.476 . S
C132 H90 0.930 . S
C132 C131 1.390 . S
C132 C133 1.366 . S
C133 H91 0.932 . S
C133 C128 1.360 . S
C133 C132 1.366 . S
C134 C108 1.490 . S
C134 C135 1.380 . S
C134 C139 1.386 . S
C135 H92 0.930 . S
C135 C134 1.380 . S
C135 C136 1.381 . S
C136 H93 0.929 . S
C136 C135 1.381 . S
C136 C137 1.371 . S
C137 C136 1.371 . S
C137 C138 1.380 . S
C138 H94 0.931 . S
C138 C137 1.380 . S
C138 C139 1.387 . S
C139 H95 0.930 . S
C139 C134 1.386 . S
C139 C138 1.387 . S
C140 C109 1.519 . S
C140 C141 1.377 1_545 S
C140 C145 1.361 1_545 S
C141 H96 0.929 . S
C141 C140 1.377 1_565 S
C141 C142 1.386 . S
C142 H97 0.931 . S
C142 C141 1.386 . S
C142 C143 1.363 . S
C143 C142 1.363 . S
C143 C144 1.385 . S
C144 H98 0.930 . S
C144 C143 1.385 . S
C144 C145 1.396 . S
C145 H99 0.929 1_565 S
C145 C140 1.361 1_565 S
C145 C144 1.396 . S
C146 O100 1.300 . S
C146 O101 1.209 . S
C146 C119 1.486 . S
C147 O102 1.199 . S
C147 O103 1.297 . S
C147 C131 1.476 . S
H148 O174 0.856 . S
H149 O177 0.854 . S
H150 C185 0.930 . S
H151 C186 0.930 . S
H152 C188 0.930 . S
H153 C189 0.930 . S
H154 C191 0.931 . S
H155 C192 0.930 . S
H156 C194 0.930 . S
H157 C195 0.929 . S
H158 C197 0.930 . S
H159 C198 0.931 . S
H160 C200 0.930 . S
H161 C201 0.929 . S
H162 C203 0.931 . S
H163 C204 0.930 . S
H164 C206 0.930 . S
H165 C207 0.932 . S
H166 C209 0.930 . S
H167 C210 0.929 . S
H168 C212 0.931 . S
H169 C213 0.930 . S
H170 C215 0.929 . S
H171 C216 0.931 . S
H172 C218 0.930 . S
H173 C219 0.929 . S
O174 H148 0.856 . S
O174 C220 1.300 . S
O175 C220 1.209 . S
O176 C221 1.199 . S
O177 H149 0.854 . S
O177 C221 1.297 . S
C178 C179 1.404 . S
C178 C183 1.397 . S
C178 C184 1.492 . S
C179 C178 1.404 . S
C179 C180 1.396 . S
C179 C190 1.492 . S
C180 C179 1.396 . S
C180 C181 1.397 . S
C180 C196 1.509 . S
C181 C180 1.397 . S
C181 C182 1.412 . S
C181 C202 1.485 . S
C182 C181 1.412 . S
C182 C183 1.388 . S
C182 C208 1.490 . S
C183 C178 1.397 . S
C183 C182 1.388 . S
C183 C214 1.519 . S
C184 C178 1.492 . S
C184 C185 1.363 . S
C184 C189 1.390 . S
C185 H150 0.930 . S
C185 C184 1.363 . S
C185 C186 1.372 . S
C186 H151 0.930 . S
C186 C185 1.372 . S
C186 C187 1.383 . S
C187 C186 1.383 . S
C187 C188 1.395 . S
C188 H152 0.930 . S
C188 C187 1.395 . S
C188 C189 1.362 . S
C189 H153 0.930 . S
C189 C184 1.390 . S
C189 C188 1.362 . S
C190 C179 1.492 . S
C190 C191 1.377 . S
C190 C195 1.397 . S
C191 H154 0.931 . S
C191 C190 1.377 . S
C191 C192 1.376 . S
C192 H155 0.930 . S
C192 C191 1.376 . S
C192 C193 1.376 . S
C193 C192 1.376 . S
C193 C194 1.378 . S
C193 C220 1.486 . S
C194 H156 0.930 . S
C194 C193 1.378 . S
C194 C195 1.376 . S
C195 H157 0.929 . S
C195 C190 1.397 . S
C195 C194 1.376 . S
C196 C180 1.509 . S
C196 C197 1.391 . S
C196 C201 1.386 . S
C197 H158 0.930 . S
C197 C196 1.391 . S
C197 C198 1.375 . S
C198 H159 0.931 . S
C198 C197 1.375 . S
C198 C199 1.375 . S
C199 C198 1.375 . S
C199 C200 1.361 . S
C200 H160 0.930 . S
C200 C199 1.361 . S
C200 C201 1.399 . S
C201 H161 0.929 . S
C201 C196 1.386 . S
C201 C200 1.399 . S
C202 C181 1.485 . S
C202 C203 1.394 . S
C202 C207 1.360 . S
C203 H162 0.931 . S
C203 C202 1.394 . S
C203 C204 1.372 . S
C204 H163 0.930 . S
C204 C203 1.372 . S
C204 C205 1.397 . S
C205 C204 1.397 . S
C205 C206 1.390 . S
C205 C221 1.476 . S
C206 H164 0.930 . S
C206 C205 1.390 . S
C206 C207 1.366 . S
C207 H165 0.932 . S
C207 C202 1.360 . S
C207 C206 1.366 . S
C208 C182 1.490 . S
C208 C209 1.380 . S
C208 C213 1.386 . S
C209 H166 0.930 . S
C209 C208 1.380 . S
C209 C210 1.381 . S
C210 H167 0.929 . S
C210 C209 1.381 . S
C210 C211 1.371 . S
C211 C210 1.371 . S
C211 C212 1.380 . S
C212 H168 0.931 . S
C212 C211 1.380 . S
C212 C213 1.387 . S
C213 H169 0.930 . S
C213 C208 1.386 . S
C213 C212 1.387 . S
C214 C183 1.519 . S
C214 C215 1.377 . S
C214 C219 1.361 . S
C215 H170 0.929 . S
C215 C214 1.377 . S
C215 C216 1.386 . S
C216 H171 0.931 . S
C216 C215 1.386 . S
C216 C217 1.363 . S
C217 C216 1.363 . S
C217 C218 1.385 . S
C218 H172 0.930 . S
C218 C217 1.385 . S
C218 C219 1.396 . S
C219 H173 0.929 . S
C219 C214 1.361 . S
C219 C218 1.396 . S
C220 O174 1.300 . S
C220 O175 1.209 . S
C220 C193 1.486 . S
C221 O176 1.199 . S
C221 O177 1.297 . S
C221 C205 1.476 . S
H222 O248 0.856 . S
H223 O251 0.854 . S
H224 C259 0.930 1_455 S
H225 C260 0.930 . S
H226 C262 0.930 . S
H227 C263 0.930 . S
H228 C265 0.931 . S
H229 C266 0.930 . S
H230 C268 0.930 . S
H231 C269 0.929 . S
H232 C271 0.930 . S
H233 C272 0.931 . S
H234 C274 0.930 . S
H235 C275 0.929 . S
H236 C277 0.931 . S
H237 C278 0.930 . S
H238 C280 0.930 . S
H239 C281 0.932 . S
H240 C283 0.930 . S
H241 C284 0.929 . S
H242 C286 0.931 . S
H243 C287 0.930 . S
H244 C289 0.929 . S
H245 C290 0.931 . S
H246 C292 0.930 . S
H247 C293 0.975 . S
O248 H222 0.856 . S
O248 C294 1.300 . S
O249 C294 1.209 . S
O250 C295 1.199 . S
O251 H223 0.854 . S
O251 C295 1.297 . S
C252 C253 1.404 . S
C252 C257 1.397 . S
C252 C258 1.492 . S
C253 C252 1.404 . S
C253 C254 1.396 . S
C253 C264 1.492 . S
C254 C253 1.396 . S
C254 C255 1.397 . S
C254 C270 1.509 . S
C255 C254 1.397 . S
C255 C256 1.412 . S
C255 C276 1.485 . S
C256 C255 1.412 . S
C256 C257 1.388 . S
C256 C282 1.490 . S
C257 C252 1.397 . S
C257 C256 1.388 . S
C257 C288 1.519 1_455 S
C258 C252 1.492 . S
C258 C259 1.363 1_455 S
C258 C263 1.390 1_455 S
C259 H224 0.930 1_655 S
C259 C258 1.363 1_655 S
C259 C260 1.372 . S
C260 H225 0.930 . S
C260 C259 1.372 . S
C260 C261 1.383 . S
C261 C260 1.383 . S
C261 C262 1.395 . S
C262 H226 0.930 . S
C262 C261 1.395 . S
C262 C263 1.362 . S
C263 H227 0.930 . S
C263 C258 1.390 1_655 S
C263 C262 1.362 . S
C264 C253 1.492 . S
C264 C265 1.377 . S
C264 C269 1.397 . S
C265 H228 0.931 . S
C265 C264 1.377 . S
C265 C266 1.376 . S
C266 H229 0.930 . S
C266 C265 1.376 . S
C266 C267 1.376 . S
C267 C266 1.376 . S
C267 C268 1.378 . S
C267 C294 1.486 . S
C268 H230 0.930 . S
C268 C267 1.378 . S
C268 C269 1.376 . S
C269 H231 0.929 . S
C269 C264 1.397 . S
C269 C268 1.376 . S
C270 C254 1.509 . S
C270 C271 1.391 . S
C270 C275 1.386 . S
C271 H232 0.930 . S
C271 C270 1.391 . S
C271 C272 1.375 . S
C272 H233 0.931 . S
C272 C271 1.375 . S
C272 C273 1.375 . S
C273 C272 1.375 . S
C273 C274 1.361 . S
C274 H234 0.930 . S
C274 C273 1.361 . S
C274 C275 1.399 . S
C275 H235 0.929 . S
C275 C270 1.386 . S
C275 C274 1.399 . S
C276 C255 1.485 . S
C276 C277 1.394 . S
C276 C281 1.360 . S
C277 H236 0.931 . S
C277 C276 1.394 . S
C277 C278 1.372 . S
C278 H237 0.930 . S
C278 C277 1.372 . S
C278 C279 1.397 . S
C279 C278 1.397 . S
C279 C280 1.390 . S
C279 C295 1.476 . S
C280 H238 0.930 . S
C280 C279 1.390 . S
C280 C281 1.366 . S
C281 H239 0.932 . S
C281 C276 1.360 . S
C281 C280 1.366 . S
C282 C256 1.490 . S
C282 C283 1.380 . S
C282 C287 1.386 . S
C283 H240 0.930 . S
C283 C282 1.380 . S
C283 C284 1.381 . S
C284 H241 0.929 . S
C284 C283 1.381 . S
C284 C285 1.371 . S
C285 C284 1.371 . S
C285 C286 1.380 . S
C286 H242 0.931 . S
C286 C285 1.380 . S
C286 C287 1.387 . S
C287 H243 0.930 . S
C287 C282 1.386 . S
C287 C286 1.387 . S
C288 C257 1.519 1_655 S
C288 C289 1.377 . S
C288 C293 1.361 . S
C289 H244 0.929 . S
C289 C288 1.377 . S
C289 C290 1.386 . S
C290 H245 0.931 . S
C290 C289 1.386 . S
C290 C291 1.363 . S
C291 C290 1.363 . S
C291 C292 1.385 . S
C292 H246 0.930 . S
C292 C291 1.385 . S
C292 C293 1.396 . S
C293 H247 0.975 . S
C293 C288 1.361 . S
C293 C292 1.396 . S
C294 O248 1.300 . S
C294 O249 1.209 . S
C294 C267 1.486 . S
C295 O250 1.199 . S
C295 O251 1.297 . S
C295 C279 1.476 . S
H296 O322 0.856 . S
H297 O325 0.854 . S
H298 C333 0.930 . S
H299 C334 0.930 . S
H300 C336 0.930 . S
H301 C337 0.930 . S
H302 C339 0.931 . S
H303 C340 0.930 . S
H304 C342 0.930 . S
H305 C343 0.929 . S
H306 C345 0.930 . S
H307 C346 0.931 . S
H308 C348 0.930 . S
H309 C349 0.929 . S
H310 C351 0.931 . S
H311 C352 0.930 . S
H312 C354 0.930 . S
H313 C355 0.932 . S
H314 C357 0.930 . S
H315 C358 0.929 . S
H316 C360 0.931 . S
H317 C361 0.930 . S
H318 C363 0.912 1_556 S
H319 C364 0.931 . S
H320 C366 0.930 . S
H321 C367 0.929 . S
O322 H296 0.856 . S
O322 C368 1.300 . S
O323 C368 1.209 . S
O324 C369 1.199 . S
O325 H297 0.854 . S
O325 C369 1.297 . S
C326 C327 1.404 . S
C326 C331 1.397 . S
C326 C332 1.492 1_565 S
C327 C326 1.404 . S
C327 C328 1.396 . S
C327 C338 1.492 . S
C328 C327 1.396 . S
C328 C329 1.397 . S
C328 C344 1.509 . S
C329 C328 1.397 . S
C329 C330 1.412 1_556 S
C329 C350 1.485 1_556 S
C330 C329 1.412 1_554 S
C330 C331 1.388 1_554 S
C330 C356 1.490 . S
C331 C326 1.397 . S
C331 C330 1.388 1_556 S
C331 C362 1.519 1_566 S
C332 C326 1.492 1_545 S
C332 C333 1.363 . S
C332 C337 1.390 . S
C333 H298 0.930 . S
C333 C332 1.363 . S
C333 C334 1.372 . S
C334 H299 0.930 . S
C334 C333 1.372 . S
C334 C335 1.383 . S
C335 C334 1.383 . S
C335 C336 1.395 . S
C336 H300 0.930 . S
C336 C335 1.395 . S
C336 C337 1.362 . S
C337 H301 0.930 . S
C337 C332 1.390 . S
C337 C336 1.362 . S
C338 C327 1.492 . S
C338 C339 1.377 . S
C338 C343 1.397 . S
C339 H302 0.931 . S
C339 C338 1.377 . S
C339 C340 1.376 . S
C340 H303 0.930 . S
C340 C339 1.376 . S
C340 C341 1.376 . S
C341 C340 1.376 . S
C341 C342 1.378 . S
C341 C368 1.486 . S
C342 H304 0.930 . S
C342 C341 1.378 . S
C342 C343 1.376 . S
C343 H305 0.929 . S
C343 C338 1.397 . S
C343 C342 1.376 . S
C344 C328 1.509 . S
C344 C345 1.391 . S
C344 C349 1.386 . S
C345 H306 0.930 . S
C345 C344 1.391 . S
C345 C346 1.375 . S
C346 H307 0.931 . S
C346 C345 1.375 . S
C346 C347 1.375 . S
C347 C346 1.375 . S
C347 C348 1.361 . S
C348 H308 0.930 . S
C348 C347 1.361 . S
C348 C349 1.399 . S
C349 H309 0.929 . S
C349 C344 1.386 . S
C349 C348 1.399 . S
C350 C329 1.485 1_554 S
C350 C351 1.394 . S
C350 C355 1.360 . S
C351 H310 0.931 . S
C351 C350 1.394 . S
C351 C352 1.372 . S
C352 H311 0.930 . S
C352 C351 1.372 . S
C352 C353 1.397 . S
C353 C352 1.397 . S
C353 C354 1.390 . S
C353 C369 1.476 . S
C354 H312 0.930 . S
C354 C353 1.390 . S
C354 C355 1.366 . S
C355 H313 0.932 . S
C355 C350 1.360 . S
C355 C354 1.366 . S
C356 C330 1.490 . S
C356 C357 1.380 . S
C356 C361 1.386 . S
C357 H314 0.930 . S
C357 C356 1.380 . S
C357 C358 1.381 . S
C358 H315 0.929 . S
C358 C357 1.381 . S
C358 C359 1.371 . S
C359 C358 1.371 . S
C359 C360 1.380 . S
C360 H316 0.931 . S
C360 C359 1.380 . S
C360 C361 1.387 . S
C361 H317 0.930 . S
C361 C356 1.386 . S
C361 C360 1.387 . S
C362 C331 1.519 1_544 S
C362 C363 1.380 . S
C362 C367 1.361 . S
C363 H318 0.912 1_554 S
C363 C362 1.380 . S
C363 C364 1.403 . S
C364 H319 0.931 . S
C364 C363 1.403 . S
C364 C365 1.363 . S
C365 C364 1.363 . S
C365 C366 1.385 . S
C366 H320 0.930 . S
C366 C365 1.385 . S
C366 C367 1.396 . S
C367 H321 0.929 . S
C367 C362 1.361 . S
C367 C366 1.396 . S
C368 O322 1.300 . S
C368 O323 1.209 . S
C368 C341 1.486 . S
C369 O324 1.199 . S
C369 O325 1.297 . S
C369 C353 1.476 . S
H370 O396 0.856 . S
H371 O399 0.854 . S
H372 C407 0.930 . S
H373 C408 0.930 . S
H374 C410 0.930 . S
H375 C411 0.930 . S
H376 C413 0.931 . S
H377 C414 0.930 . S
H378 C416 0.930 . S
H379 C417 0.929 . S
H380 C419 0.930 . S
H381 C420 0.931 . S
H382 C422 0.930 . S
H383 C423 0.929 . S
H384 C425 0.931 . S
H385 C426 0.930 . S
H386 C428 0.930 . S
H387 C429 0.932 . S
H388 C431 0.930 . S
H389 C432 0.929 . S
H390 C434 0.931 . S
H391 C435 0.930 . S
H392 C437 0.929 . S
H393 C438 0.931 . S
H394 C440 0.930 . S
H395 C441 0.929 . S
O396 H370 0.856 . S
O396 C442 1.300 . S
O397 C442 1.209 . S
O398 C443 1.199 . S
O399 H371 0.854 . S
O399 C443 1.297 . S
C400 C401 1.404 . S
C400 C405 1.397 . S
C400 C406 1.492 . S
C401 C400 1.404 . S
C401 C402 1.396 . S
C401 C412 1.492 . S
C402 C401 1.396 . S
C402 C403 1.397 . S
C402 C418 1.509 . S
C403 C402 1.397 . S
C403 C404 1.412 . S
C403 C424 1.485 . S
C404 C403 1.412 . S
C404 C405 1.388 . S
C404 C430 1.490 . S
C405 C400 1.397 . S
C405 C404 1.388 . S
C405 C436 1.519 . S
C406 C400 1.492 . S
C406 C407 1.363 . S
C406 C411 1.390 . S
C407 H372 0.930 . S
C407 C406 1.363 . S
C407 C408 1.372 . S
C408 H373 0.930 . S
C408 C407 1.372 . S
C408 C409 1.383 . S
C409 C408 1.383 . S
C409 C410 1.395 . S
C410 H374 0.930 . S
C410 C409 1.395 . S
C410 C411 1.362 . S
C411 H375 0.930 . S
C411 C406 1.390 . S
C411 C410 1.362 . S
C412 C401 1.492 . S
C412 C413 1.377 . S
C412 C417 1.397 . S
C413 H376 0.931 . S
C413 C412 1.377 . S
C413 C414 1.376 . S
C414 H377 0.930 . S
C414 C413 1.376 . S
C414 C415 1.376 . S
C415 C414 1.376 . S
C415 C416 1.378 . S
C415 C442 1.486 . S
C416 H378 0.930 . S
C416 C415 1.378 . S
C416 C417 1.376 . S
C417 H379 0.929 . S
C417 C412 1.397 . S
C417 C416 1.376 . S
C418 C402 1.509 . S
C418 C419 1.391 . S
C418 C423 1.386 . S
C419 H380 0.930 . S
C419 C418 1.391 . S
C419 C420 1.375 . S
C420 H381 0.931 . S
C420 C419 1.375 . S
C420 C421 1.375 . S
C421 C420 1.375 . S
C421 C422 1.361 . S
C422 H382 0.930 . S
C422 C421 1.361 . S
C422 C423 1.399 . S
C423 H383 0.929 . S
C423 C418 1.386 . S
C423 C422 1.399 . S
C424 C403 1.485 . S
C424 C425 1.394 . S
C424 C429 1.360 . S
C425 H384 0.931 . S
C425 C424 1.394 . S
C425 C426 1.372 . S
C426 H385 0.930 . S
C426 C425 1.372 . S
C426 C427 1.397 . S
C427 C426 1.397 . S
C427 C428 1.390 . S
C427 C443 1.476 . S
C428 H386 0.930 . S
C428 C427 1.390 . S
C428 C429 1.366 . S
C429 H387 0.932 . S
C429 C424 1.360 . S
C429 C428 1.366 . S
C430 C404 1.490 . S
C430 C431 1.380 . S
C430 C435 1.386 . S
C431 H388 0.930 . S
C431 C430 1.380 . S
C431 C432 1.381 . S
C432 H389 0.929 . S
C432 C431 1.381 . S
C432 C433 1.371 . S
C433 C432 1.371 . S
C433 C434 1.380 . S
C434 H390 0.931 . S
C434 C433 1.380 . S
C434 C435 1.387 . S
C435 H391 0.930 . S
C435 C430 1.386 . S
C435 C434 1.387 . S
C436 C405 1.519 . S
C436 C437 1.377 . S
C436 C441 1.361 . S
C437 H392 0.929 . S
C437 C436 1.377 . S
C437 C438 1.386 . S
C438 H393 0.931 . S
C438 C437 1.386 . S
C438 C439 1.363 . S
C439 C438 1.363 . S
C439 C440 1.385 . S
C440 H394 0.930 . S
C440 C439 1.385 . S
C440 C441 1.396 . S
C441 H395 0.929 . S
C441 C436 1.361 . S
C441 C440 1.396 . S
C442 O396 1.300 . S
C442 O397 1.209 . S
C442 C415 1.486 . S
C443 O398 1.199 . S
C443 O399 1.297 . S
C443 C427 1.476 . S
Zn444 O447 2.031 . S
Zn444 O449 2.049 . S
Zn444 O454 2.067 . S
Zn445 O446 1.962 . S
Zn445 O448 1.986 . S
Zn445 O450 1.996 . S
Zn445 O453 1.943 . S
O446 Zn445 1.962 . S
O446 C451 1.254 . S
O447 Zn444 2.031 . S
O447 C451 1.269 . S
O448 Zn445 1.986 . S
O448 C455 1.262 . S
O449 Zn444 2.049 . S
O449 C457 1.260 . S
O450 Zn445 1.996 . S
O450 C457 1.257 . S
C451 O446 1.254 . S
C451 O447 1.269 . S
C452 O453 1.249 . S
C452 O454 1.270 . S
O453 Zn445 1.943 . S
O453 C452 1.249 . S
O454 Zn444 2.067 . S
O454 C452 1.270 . S
C455 O448 1.262 . S
C455 O456 1.232 . S
O456 C455 1.232 . S
C457 O449 1.260 . S
C457 O450 1.257 . S
Zn458 O461 2.031 . S
Zn458 O463 2.049 . S
Zn458 O468 2.067 . S
Zn459 O460 1.962 . S
Zn459 O462 1.986 . S
Zn459 O464 1.996 . S
Zn459 O467 1.943 . S
O460 Zn459 1.962 . S
O460 C465 1.254 . S
O461 Zn458 2.031 . S
O461 C465 1.269 . S
O462 Zn459 1.986 . S
O462 C469 1.262 . S
O463 Zn458 2.049 . S
O463 C471 1.260 . S
O464 Zn459 1.996 . S
O464 C471 1.257 . S
C465 O460 1.254 . S
C465 O461 1.269 . S
C466 O467 1.249 . S
C466 O468 1.270 . S
O467 Zn459 1.943 . S
O467 C466 1.249 . S
O468 Zn458 2.067 . S
O468 C466 1.270 . S
C469 O462 1.262 . S
C469 O470 1.232 . S
O470 C469 1.232 . S
C471 O463 1.260 . S
C471 O464 1.257 . S
Zn472 O475 2.031 . S
Zn472 O477 2.049 . S
Zn472 O482 2.067 . S
Zn473 O474 1.962 . S
Zn473 O476 1.986 . S
Zn473 O478 1.996 . S
Zn473 O481 1.943 . S
O474 Zn473 1.962 . S
O474 C479 1.254 . S
O475 Zn472 2.031 . S
O475 C479 1.269 . S
O476 Zn473 1.986 . S
O476 C483 1.262 . S
O477 Zn472 2.049 . S
O477 C485 1.260 . S
O478 Zn473 1.996 . S
O478 C485 1.257 . S
C479 O474 1.254 . S
C479 O475 1.269 . S
C480 O481 1.249 . S
C480 O482 1.270 . S
O481 Zn473 1.943 . S
O481 C480 1.249 . S
O482 Zn472 2.067 . S
O482 C480 1.270 . S
C483 O476 1.262 . S
C483 O484 1.232 . S
O484 C483 1.232 . S
C485 O477 1.260 . S
C485 O478 1.257 . S
Zn486 O489 2.031 . S
Zn486 O491 2.049 . S
Zn486 O496 2.067 . S
Zn487 O488 1.962 . S
Zn487 O490 1.986 . S
Zn487 O492 1.996 . S
Zn487 O495 1.943 . S
O488 Zn487 1.962 . S
O488 C493 1.254 . S
O489 Zn486 2.031 . S
O489 C493 1.269 . S
O490 Zn487 1.986 . S
O490 C497 1.262 . S
O491 Zn486 2.049 . S
O491 C499 1.260 . S
O492 Zn487 1.996 . S
O492 C499 1.257 . S
C493 O488 1.254 . S
C493 O489 1.269 . S
C494 O495 1.249 . S
C494 O496 1.270 . S
O495 Zn487 1.943 . S
O495 C494 1.249 . S
O496 Zn486 2.067 . S
O496 C494 1.270 . S
C497 O490 1.262 . S
C497 O498 1.232 . S
O498 C497 1.232 . S
C499 O491 1.260 . S
C499 O492 1.257 . S
Zn500 O503 2.031 . S
Zn500 O505 2.049 . S
Zn500 O510 2.067 . S
Zn501 O502 1.962 . S
Zn501 O504 1.986 . S
Zn501 O506 1.996 . S
Zn501 O509 1.943 . S
O502 Zn501 1.962 . S
O502 C507 1.254 . S
O503 Zn500 2.031 . S
O503 C507 1.269 . S
O504 Zn501 1.986 . S
O504 C511 1.262 . S
O505 Zn500 2.049 . S
O505 C513 1.260 . S
O506 Zn501 1.996 . S
O506 C513 1.257 . S
C507 O502 1.254 . S
C507 O503 1.269 . S
C508 O509 1.249 . S
C508 O510 1.270 . S
O509 Zn501 1.943 . S
O509 C508 1.249 . S
O510 Zn500 2.067 . S
O510 C508 1.270 . S
C511 O504 1.262 . S
C511 O512 1.232 . S
O512 C511 1.232 . S
C513 O505 1.260 . S
C513 O506 1.257 . S
Zn514 O517 2.031 . S
Zn514 O519 2.049 . S
Zn514 O524 2.067 . S
Zn515 O516 1.962 . S
Zn515 O518 1.986 . S
Zn515 O520 1.996 . S
Zn515 O523 1.943 . S
O516 Zn515 1.962 . S
O516 C521 1.254 . S
O517 Zn514 2.031 . S
O517 C521 1.269 . S
O518 Zn515 1.986 . S
O518 C525 1.262 . S
O519 Zn514 2.049 . S
O519 C527 1.260 . S
O520 Zn515 1.996 . S
O520 C527 1.257 . S
C521 O516 1.254 . S
C521 O517 1.269 . S
C522 O523 1.249 . S
C522 O524 1.270 . S
O523 Zn515 1.943 . S
O523 C522 1.249 . S
O524 Zn514 2.067 . S
O524 C522 1.270 . S
C525 O518 1.262 . S
C525 O526 1.232 . S
O526 C525 1.232 . S
C527 O519 1.260 . S
C527 O520 1.257 . S
H528 C546 0.951 . S
H529 C548 0.951 . S
H530 C550 0.950 . S
H531 C551 0.950 . S
H532 C553 0.950 . S
H533 C556 0.950 . S
H534 C557 0.950 . S
H535 C559 0.950 . S
H536 C560 0.950 . S
H537 C561 0.951 . S
H538 C563 0.951 . S
H539 C565 0.950 . S
H540 C566 0.950 . S
H541 C568 0.950 . S
H542 C571 0.950 . S
H543 C572 0.950 . S
H544 C574 0.950 . S
H545 C575 0.950 . S
C546 H528 0.951 . S
C546 C547 1.366 . S
C546 C548 1.388 . S
C547 C546 1.366 . S
C547 C551 1.385 . S
C548 H529 0.951 . S
C548 C546 1.388 . S
C548 C549 1.366 . S
C549 C548 1.366 . S
C549 C550 1.414 . S
C549 C552 1.499 . S
C550 H530 0.950 . S
C550 C549 1.414 . S
C550 C551 1.374 . S
C551 H531 0.950 . S
C551 C547 1.385 . S
C551 C550 1.374 . S
C552 C549 1.499 . S
C552 C553 1.373 . S
C552 C554 1.389 . S
C553 H532 0.950 . S
C553 C552 1.373 . S
C553 C569 1.377 . S
C554 C552 1.389 . S
C554 C555 1.524 . S
C554 C568 1.377 . S
C555 C554 1.524 . S
C555 C556 1.397 . S
C555 C560 1.363 . S
C556 H533 0.950 . S
C556 C555 1.397 . S
C556 C557 1.334 . S
C557 H534 0.950 . S
C557 C556 1.334 . S
C557 C558 1.287 . S
C558 C557 1.287 . S
C558 C559 1.524 . S
C558 H577 0.913 . S
C559 H535 0.950 . S
C559 C558 1.524 . S
C559 C560 1.415 . S
C560 H536 0.950 . S
C560 C555 1.363 . S
C560 C559 1.415 . S
C561 H537 0.951 . S
C561 C562 1.366 . S
C561 C563 1.388 . S
C562 C561 1.366 . S
C562 C566 1.385 . S
C563 H538 0.951 . S
C563 C561 1.388 . S
C563 C564 1.366 . S
C564 C563 1.366 . S
C564 C565 1.414 . S
C564 C567 1.499 . S
C565 H539 0.950 . S
C565 C564 1.414 . S
C565 C566 1.374 . S
C566 H540 0.950 . S
C566 C562 1.385 . S
C566 C565 1.374 . S
C567 C564 1.499 . S
C567 C568 1.373 . S
C567 C569 1.389 . S
C568 H541 0.950 . S
C568 C554 1.377 . S
C568 C567 1.373 . S
C569 C553 1.377 . S
C569 C567 1.389 . S
C569 C570 1.524 . S
C570 C569 1.524 . S
C570 C571 1.397 . S
C570 C575 1.363 . S
C571 H542 0.950 . S
C571 C570 1.397 . S
C571 C572 1.334 . S
C572 H543 0.950 . S
C572 C571 1.334 . S
C572 C573 1.287 . S
C573 C572 1.287 . S
C573 C574 1.524 . S
C573 H576 0.999 . S
C574 H544 0.950 . S
C574 C573 1.524 . S
C574 C575 1.415 . S
C575 H545 0.950 . S
C575 C570 1.363 . S
C575 C574 1.415 . S
H576 C573 0.999 . S
H577 C558 0.913 . S
H578 C596 0.951 . S
H579 C598 0.951 . S
H580 C600 0.950 . S
H581 C601 0.950 . S
H582 C603 0.950 . S
H583 C606 0.950 . S
H584 C607 0.950 . S
H585 C609 0.950 . S
H586 C610 0.950 . S
H587 C611 0.951 . S
H588 C613 0.951 . S
H589 C615 0.950 . S
H590 C616 0.950 . S
H591 C618 0.950 . S
H592 C621 0.950 . S
H593 C622 0.950 . S
H594 C624 0.950 . S
H595 C625 0.950 . S
C596 H578 0.951 . S
C596 C597 1.366 . S
C596 C598 1.388 . S
C597 C596 1.366 . S
C597 C601 1.385 . S
C598 H579 0.951 . S
C598 C596 1.388 . S
C598 C599 1.366 . S
C599 C598 1.366 . S
C599 C600 1.414 . S
C599 C602 1.499 . S
C600 H580 0.950 . S
C600 C599 1.414 . S
C600 C601 1.374 . S
C601 H581 0.950 . S
C601 C597 1.385 . S
C601 C600 1.374 . S
C602 C599 1.499 . S
C602 C603 1.373 . S
C602 C604 1.389 . S
C603 H582 0.950 . S
C603 C602 1.373 . S
C603 C619 1.377 . S
C604 C602 1.389 . S
C604 C605 1.524 . S
C604 C618 1.377 . S
C605 C604 1.524 . S
C605 C606 1.397 . S
C605 C610 1.363 . S
C606 H583 0.950 . S
C606 C605 1.397 . S
C606 C607 1.334 . S
C607 H584 0.950 . S
C607 C606 1.334 . S
C607 C608 1.287 . S
C608 C607 1.287 . S
C608 C609 1.524 . S
C608 H627 0.913 . S
C609 H585 0.950 . S
C609 C608 1.524 . S
C609 C610 1.415 . S
C610 H586 0.950 . S
C610 C605 1.363 . S
C610 C609 1.415 . S
C611 H587 0.951 . S
C611 C612 1.366 . S
C611 C613 1.388 . S
C612 C611 1.366 . S
C612 C616 1.385 . S
C613 H588 0.951 . S
C613 C611 1.388 . S
C613 C614 1.366 . S
C614 C613 1.366 . S
C614 C615 1.414 . S
C614 C617 1.499 . S
C615 H589 0.950 . S
C615 C614 1.414 . S
C615 C616 1.374 . S
C616 H590 0.950 . S
C616 C612 1.385 . S
C616 C615 1.374 . S
C617 C614 1.499 . S
C617 C618 1.373 . S
C617 C619 1.389 . S
C618 H591 0.950 . S
C618 C604 1.377 . S
C618 C617 1.373 . S
C619 C603 1.377 . S
C619 C617 1.389 . S
C619 C620 1.524 . S
C620 C619 1.524 . S
C620 C621 1.397 . S
C620 C625 1.363 . S
C621 H592 0.950 . S
C621 C620 1.397 . S
C621 C622 1.334 . S
C622 H593 0.950 . S
C622 C621 1.334 . S
C622 C623 1.287 . S
C623 C622 1.287 . S
C623 C624 1.524 . S
C623 H626 0.999 . S
C624 H594 0.950 . S
C624 C623 1.524 . S
C624 C625 1.415 . S
C625 H595 0.950 . S
C625 C620 1.363 . S
C625 C624 1.415 . S
H626 C623 0.999 . S
H627 C608 0.913 . S
H628 C646 0.951 . S
H629 C648 0.951 . S
H630 C650 0.950 . S
H631 C651 0.950 . S
H632 C653 0.950 . S
H633 C656 0.950 . S
H634 C657 0.950 . S
H635 C659 0.950 . S
H636 C660 0.950 . S
H637 C661 0.951 . S
H638 C663 0.951 . S
H639 C665 0.950 . S
H640 C666 0.950 . S
H641 C668 0.950 . S
H642 C671 0.950 . S
H643 C672 0.950 . S
H644 C674 0.950 . S
H645 C675 0.950 . S
C646 H628 0.951 . S
C646 C647 1.366 . S
C646 C648 1.388 . S
C647 C646 1.366 . S
C647 C651 1.385 . S
C648 H629 0.951 . S
C648 C646 1.388 . S
C648 C649 1.366 . S
C649 C648 1.366 . S
C649 C650 1.414 . S
C649 C652 1.499 . S
C650 H630 0.950 . S
C650 C649 1.414 . S
C650 C651 1.374 . S
C651 H631 0.950 . S
C651 C647 1.385 . S
C651 C650 1.374 . S
C652 C649 1.499 . S
C652 C653 1.373 . S
C652 C654 1.389 . S
C653 H632 0.950 . S
C653 C652 1.373 . S
C653 C669 1.377 . S
C654 C652 1.389 . S
C654 C655 1.524 . S
C654 C668 1.377 . S
C655 C654 1.524 . S
C655 C656 1.397 . S
C655 C660 1.363 . S
C656 H633 0.950 . S
C656 C655 1.397 . S
C656 C657 1.334 . S
C657 H634 0.950 . S
C657 C656 1.334 . S
C657 C658 1.287 . S
C658 C657 1.287 . S
C658 C659 1.524 . S
C658 H677 0.913 . S
C659 H635 0.950 . S
C659 C658 1.524 . S
C659 C660 1.415 . S
C660 H636 0.950 . S
C660 C655 1.363 . S
C660 C659 1.415 . S
C661 H637 0.951 . S
C661 C662 1.366 . S
C661 C663 1.388 . S
C662 C661 1.366 . S
C662 C666 1.385 . S
C663 H638 0.951 . S
C663 C661 1.388 . S
C663 C664 1.366 . S
C664 C663 1.366 . S
C664 C665 1.414 . S
C664 C667 1.499 . S
C665 H639 0.950 . S
C665 C664 1.414 . S
C665 C666 1.374 . S
C666 H640 0.950 . S
C666 C662 1.385 . S
C666 C665 1.374 . S
C667 C664 1.499 . S
C667 C668 1.373 . S
C667 C669 1.389 . S
C668 H641 0.950 . S
C668 C654 1.377 . S
C668 C667 1.373 . S
C669 C653 1.377 . S
C669 C667 1.389 . S
C669 C670 1.524 . S
C670 C669 1.524 . S
C670 C671 1.397 . S
C670 C675 1.363 . S
C671 H642 0.950 . S
C671 C670 1.397 . S
C671 C672 1.334 . S
C672 H643 0.950 . S
C672 C671 1.334 . S
C672 C673 1.287 . S
C673 C672 1.287 . S
C673 C674 1.524 . S
C673 H676 0.999 . S
C674 H644 0.950 . S
C674 C673 1.524 . S
C674 C675 1.415 . S
C675 H645 0.950 . S
C675 C670 1.363 . S
C675 C674 1.415 . S
H676 C673 0.999 . S
H677 C658 0.913 . S
H678 C696 0.951 . S
H679 C698 0.951 . S
H680 C700 0.950 . S
H681 C701 0.950 . S
H682 C703 0.950 . S
H683 C706 0.950 . S
H684 C707 0.950 . S
H685 C709 0.950 . S
H686 C710 0.950 . S
H687 C711 0.951 . S
H688 C713 0.951 . S
H689 C715 0.950 . S
H690 C716 0.950 . S
H691 C718 0.950 . S
H692 C721 0.950 . S
H693 C722 0.950 . S
H694 C724 0.950 . S
H695 C725 0.950 . S
C696 H678 0.951 . S
C696 C697 1.366 . S
C696 C698 1.388 . S
C697 C696 1.366 . S
C697 C701 1.385 . S
C698 H679 0.951 . S
C698 C696 1.388 . S
C698 C699 1.366 . S
C699 C698 1.366 . S
C699 C700 1.414 . S
C699 C702 1.499 . S
C700 H680 0.950 . S
C700 C699 1.414 . S
C700 C701 1.374 . S
C701 H681 0.950 . S
C701 C697 1.385 . S
C701 C700 1.374 . S
C702 C699 1.499 . S
C702 C703 1.373 . S
C702 C704 1.389 . S
C703 H682 0.950 . S
C703 C702 1.373 . S
C703 C719 1.377 . S
C704 C702 1.389 . S
C704 C705 1.524 . S
C704 C718 1.377 . S
C705 C704 1.524 . S
C705 C706 1.397 . S
C705 C710 1.363 . S
C706 H683 0.950 . S
C706 C705 1.397 . S
C706 C707 1.334 . S
C707 H684 0.950 . S
C707 C706 1.334 . S
C707 C708 1.287 . S
C708 C707 1.287 . S
C708 C709 1.524 . S
C708 H727 0.913 . S
C709 H685 0.950 . S
C709 C708 1.524 . S
C709 C710 1.415 . S
C710 H686 0.950 . S
C710 C705 1.363 . S
C710 C709 1.415 . S
C711 H687 0.951 . S
C711 C712 1.366 . S
C711 C713 1.388 . S
C712 C711 1.366 . S
C712 C716 1.385 . S
C713 H688 0.951 . S
C713 C711 1.388 . S
C713 C714 1.366 . S
C714 C713 1.366 . S
C714 C715 1.414 . S
C714 C717 1.499 . S
C715 H689 0.950 . S
C715 C714 1.414 . S
C715 C716 1.374 . S
C716 H690 0.950 . S
C716 C712 1.385 . S
C716 C715 1.374 . S
C717 C714 1.499 . S
C717 C718 1.373 . S
C717 C719 1.389 . S
C718 H691 0.950 . S
C718 C704 1.377 . S
C718 C717 1.373 . S
C719 C703 1.377 . S
C719 C717 1.389 . S
C719 C720 1.524 . S
C720 C719 1.524 . S
C720 C721 1.397 . S
C720 C725 1.363 . S
C721 H692 0.950 . S
C721 C720 1.397 . S
C721 C722 1.334 . S
C722 H693 0.950 . S
C722 C721 1.334 . S
C722 C723 1.287 . S
C723 C722 1.287 . S
C723 C724 1.524 . S
C723 H726 0.999 . S
C724 H694 0.950 . S
C724 C723 1.524 . S
C724 C725 1.415 . S
C725 H695 0.950 . S
C725 C720 1.363 . S
C725 C724 1.415 . S
H726 C723 0.999 . S
H727 C708 0.913 . S
H728 C746 0.951 . S
H729 C748 0.951 . S
H730 C750 0.950 . S
H731 C751 0.950 . S
H732 C753 0.950 . S
H733 C756 0.950 . S
H734 C757 0.950 . S
H735 C759 0.950 . S
H736 C760 0.950 . S
H737 C761 0.951 . S
H738 C763 0.951 . S
H739 C765 0.950 . S
H740 C766 0.950 . S
H741 C768 0.950 . S
H742 C771 0.950 . S
H743 C772 0.950 . S
H744 C774 0.950 1_554 S
H745 C775 0.950 . S
C746 H728 0.951 . S
C746 C747 1.366 . S
C746 C748 1.388 . S
C747 C746 1.366 . S
C747 C751 1.385 . S
C748 H729 0.951 . S
C748 C746 1.388 . S
C748 C749 1.366 . S
C749 C748 1.366 . S
C749 C750 1.414 . S
C749 C752 1.499 . S
C750 H730 0.950 . S
C750 C749 1.414 . S
C750 C751 1.374 . S
C751 H731 0.950 . S
C751 C747 1.385 . S
C751 C750 1.374 . S
C752 C749 1.499 . S
C752 C753 1.373 . S
C752 C754 1.389 . S
C753 H732 0.950 . S
C753 C752 1.373 . S
C753 C769 1.377 . S
C754 C752 1.389 . S
C754 C755 1.524 . S
C754 C768 1.377 . S
C755 C754 1.524 . S
C755 C756 1.397 . S
C755 C760 1.363 . S
C756 H733 0.950 . S
C756 C755 1.397 . S
C756 C757 1.334 . S
C757 H734 0.950 . S
C757 C756 1.334 . S
C757 C758 1.287 . S
C758 C757 1.287 . S
C758 C759 1.524 . S
C758 H777 0.913 . S
C759 H735 0.950 . S
C759 C758 1.524 . S
C759 C760 1.415 . S
C760 H736 0.950 . S
C760 C755 1.363 . S
C760 C759 1.415 . S
C761 H737 0.951 . S
C761 C762 1.366 . S
C761 C763 1.388 . S
C762 C761 1.366 . S
C762 C766 1.385 . S
C763 H738 0.951 . S
C763 C761 1.388 . S
C763 C764 1.366 . S
C764 C763 1.366 . S
C764 C765 1.414 . S
C764 C767 1.499 . S
C765 H739 0.950 . S
C765 C764 1.414 . S
C765 C766 1.374 . S
C766 H740 0.950 . S
C766 C762 1.385 . S
C766 C765 1.374 . S
C767 C764 1.499 . S
C767 C768 1.373 . S
C767 C769 1.389 . S
C768 H741 0.950 . S
C768 C754 1.377 . S
C768 C767 1.373 . S
C769 C753 1.377 . S
C769 C767 1.389 . S
C769 C770 1.524 . S
C770 C769 1.524 . S
C770 C771 1.397 . S
C770 C775 1.363 . S
C771 H742 0.950 . S
C771 C770 1.397 . S
C771 C772 1.334 . S
C772 H743 0.950 . S
C772 C771 1.334 . S
C772 C773 1.287 . S
C773 C772 1.287 . S
C773 C774 1.524 . S
C773 H776 0.999 1_556 S
C774 H744 0.950 1_556 S
C774 C773 1.524 . S
C774 C775 1.415 . S
C775 H745 0.950 . S
C775 C770 1.363 . S
C775 C774 1.415 . S
H776 C773 0.999 1_554 S
H777 C758 0.913 . S
H778 C796 0.951 . S
H779 C798 0.951 . S
H780 C800 0.950 . S
H781 C801 0.950 . S
H782 C803 0.950 . S
H783 C806 0.950 . S
H784 C807 0.950 . S
H785 C809 0.950 . S
H786 C810 0.950 . S
H787 C811 0.951 . S
H788 C813 0.951 . S
H789 C815 0.950 . S
H790 C816 0.950 . S
H791 C818 0.950 . S
H792 C821 0.950 . S
H793 C822 0.950 . S
H794 C824 0.950 . S
H795 C825 0.950 . S
C796 H778 0.951 . S
C796 C797 1.366 . S
C796 C798 1.388 . S
C797 C796 1.366 . S
C797 C801 1.385 . S
C798 H779 0.951 . S
C798 C796 1.388 . S
C798 C799 1.366 . S
C799 C798 1.366 . S
C799 C800 1.414 . S
C799 C802 1.499 . S
C800 H780 0.950 . S
C800 C799 1.414 . S
C800 C801 1.374 . S
C801 H781 0.950 . S
C801 C797 1.385 . S
C801 C800 1.374 . S
C802 C799 1.499 . S
C802 C803 1.373 . S
C802 C804 1.389 . S
C803 H782 0.950 . S
C803 C802 1.373 . S
C803 C819 1.377 . S
C804 C802 1.389 . S
C804 C805 1.524 . S
C804 C818 1.377 . S
C805 C804 1.524 . S
C805 C806 1.397 . S
C805 C810 1.363 . S
C806 H783 0.950 . S
C806 C805 1.397 . S
C806 C807 1.334 . S
C807 H784 0.950 . S
C807 C806 1.334 . S
C807 C808 1.287 . S
C808 C807 1.287 . S
C808 C809 1.524 . S
C808 H827 0.913 . S
C809 H785 0.950 . S
C809 C808 1.524 . S
C809 C810 1.415 . S
C810 H786 0.950 . S
C810 C805 1.363 . S
C810 C809 1.415 . S
C811 H787 0.951 . S
C811 C812 1.366 . S
C811 C813 1.388 . S
C812 C811 1.366 . S
C812 C816 1.385 . S
C813 H788 0.951 . S
C813 C811 1.388 . S
C813 C814 1.366 . S
C814 C813 1.366 . S
C814 C815 1.414 . S
C814 C817 1.499 . S
C815 H789 0.950 . S
C815 C814 1.414 . S
C815 C816 1.374 . S
C816 H790 0.950 . S
C816 C812 1.385 . S
C816 C815 1.374 . S
C817 C814 1.499 . S
C817 C818 1.373 . S
C817 C819 1.389 . S
C818 H791 0.950 . S
C818 C804 1.377 . S
C818 C817 1.373 . S
C819 C803 1.377 . S
C819 C817 1.389 . S
C819 C820 1.524 . S
C820 C819 1.524 . S
C820 C821 1.397 . S
C820 C825 1.363 . S
C821 H792 0.950 . S
C821 C820 1.397 . S
C821 C822 1.334 . S
C822 H793 0.950 . S
C822 C821 1.334 . S
C822 C823 1.287 . S
C823 C822 1.287 . S
C823 C824 1.524 . S
C823 H826 0.999 . S
C824 H794 0.950 . S
C824 C823 1.524 . S
C824 C825 1.415 . S
C825 H795 0.950 . S
C825 C820 1.363 . S
C825 C824 1.415 . S
H826 C823 0.999 . S
H827 C808 0.913 . S
H828 C846 0.951 . S
H829 C848 0.951 . S
H830 C850 0.950 . S
H831 C851 0.950 . S
H832 C853 0.950 . S
H833 C856 0.950 . S
H834 C857 0.950 . S
H835 C859 0.950 . S
H836 C860 0.950 . S
H837 C861 0.951 . S
H838 C863 0.951 . S
H839 C865 0.950 . S
H840 C866 0.950 . S
H841 C868 0.950 . S
H842 C871 0.950 . S
H843 C872 0.950 . S
H844 C874 0.950 . S
H845 C875 0.950 . S
C846 H828 0.951 . S
C846 C847 1.366 . S
C846 C848 1.388 . S
C847 C846 1.366 . S
C847 C851 1.385 . S
C848 H829 0.951 . S
C848 C846 1.388 . S
C848 C849 1.366 . S
C849 C848 1.366 . S
C849 C850 1.414 . S
C849 C852 1.499 . S
C850 H830 0.950 . S
C850 C849 1.414 . S
C850 C851 1.374 . S
C851 H831 0.950 . S
C851 C847 1.385 . S
C851 C850 1.374 . S
C852 C849 1.499 . S
C852 C853 1.373 . S
C852 C854 1.389 . S
C853 H832 0.950 . S
C853 C852 1.373 . S
C853 C869 1.377 . S
C854 C852 1.389 . S
C854 C855 1.524 . S
C854 C868 1.377 . S
C855 C854 1.524 . S
C855 C856 1.397 . S
C855 C860 1.363 . S
C856 H833 0.950 . S
C856 C855 1.397 . S
C856 C857 1.334 . S
C857 H834 0.950 . S
C857 C856 1.334 . S
C857 C858 1.287 . S
C858 C857 1.287 . S
C858 C859 1.524 . S
C858 H877 0.913 . S
C859 H835 0.950 . S
C859 C858 1.524 . S
C859 C860 1.415 . S
C860 H836 0.950 . S
C860 C855 1.363 . S
C860 C859 1.415 . S
C861 H837 0.951 . S
C861 C862 1.366 . S
C861 C863 1.388 . S
C862 C861 1.366 . S
C862 C866 1.385 . S
C863 H838 0.951 . S
C863 C861 1.388 . S
C863 C864 1.366 . S
C864 C863 1.366 . S
C864 C865 1.414 . S
C864 C867 1.499 . S
C865 H839 0.950 . S
C865 C864 1.414 . S
C865 C866 1.374 . S
C866 H840 0.950 . S
C866 C862 1.385 . S
C866 C865 1.374 . S
C867 C864 1.499 . S
C867 C868 1.373 . S
C867 C869 1.389 . S
C868 H841 0.950 . S
C868 C854 1.377 . S
C868 C867 1.373 . S
C869 C853 1.377 . S
C869 C867 1.389 . S
C869 C870 1.524 . S
C870 C869 1.524 . S
C870 C871 1.397 . S
C870 C875 1.363 . S
C871 H842 0.950 . S
C871 C870 1.397 . S
C871 C872 1.334 . S
C872 H843 0.950 . S
C872 C871 1.334 . S
C872 C873 1.287 . S
C873 C872 1.287 . S
C873 C874 1.524 . S
C873 H876 0.999 . S
C874 H844 0.950 . S
C874 C873 1.524 . S
C874 C875 1.415 . S
C875 H845 0.950 . S
C875 C870 1.363 . S
C875 C874 1.415 . S
H876 C873 0.999 . S
H877 C858 0.913 . S
H878 C896 0.951 . S
H879 C898 0.951 . S
H880 C900 0.950 . S
H881 C901 0.950 . S
H882 C903 0.950 . S
H883 C906 0.950 . S
H884 C907 0.950 . S
H885 C909 0.950 . S
H886 C910 0.950 . S
H887 C911 0.951 . S
H888 C913 0.951 . S
H889 C915 0.950 . S
H890 C916 0.950 . S
H891 C918 0.950 . S
H892 C921 0.950 . S
H893 C922 0.950 . S
H894 C924 0.950 . S
H895 C925 0.950 . S
C896 H878 0.951 . S
C896 C897 1.366 . S
C896 C898 1.388 . S
C897 C896 1.366 . S
C897 C901 1.385 . S
C898 H879 0.951 . S
C898 C896 1.388 . S
C898 C899 1.366 . S
C899 C898 1.366 . S
C899 C900 1.414 . S
C899 C902 1.499 . S
C900 H880 0.950 . S
C900 C899 1.414 . S
C900 C901 1.374 . S
C901 H881 0.950 . S
C901 C897 1.385 . S
C901 C900 1.374 . S
C902 C899 1.499 . S
C902 C903 1.373 . S
C902 C904 1.389 . S
C903 H882 0.950 . S
C903 C902 1.373 . S
C903 C919 1.377 . S
C904 C902 1.389 . S
C904 C905 1.524 . S
C904 C918 1.377 . S
C905 C904 1.524 . S
C905 C906 1.397 . S
C905 C910 1.363 . S
C906 H883 0.950 . S
C906 C905 1.397 . S
C906 C907 1.334 . S
C907 H884 0.950 . S
C907 C906 1.334 . S
C907 C908 1.287 . S
C908 C907 1.287 . S
C908 C909 1.524 . S
C908 H927 0.913 . S
C909 H885 0.950 . S
C909 C908 1.524 . S
C909 C910 1.415 . S
C910 H886 0.950 . S
C910 C905 1.363 . S
C910 C909 1.415 . S
C911 H887 0.951 . S
C911 C912 1.366 . S
C911 C913 1.388 . S
C912 C911 1.366 . S
C912 C916 1.385 . S
C913 H888 0.951 . S
C913 C911 1.388 . S
C913 C914 1.366 . S
C914 C913 1.366 . S
C914 C915 1.414 . S
C914 C917 1.499 . S
C915 H889 0.950 . S
C915 C914 1.414 . S
C915 C916 1.374 . S
C916 H890 0.950 . S
C916 C912 1.385 . S
C916 C915 1.374 . S
C917 C914 1.499 . S
C917 C918 1.373 . S
C917 C919 1.389 . S
C918 H891 0.950 . S
C918 C904 1.377 . S
C918 C917 1.373 . S
C919 C903 1.377 . S
C919 C917 1.389 . S
C919 C920 1.524 . S
C920 C919 1.524 . S
C920 C921 1.397 . S
C920 C925 1.363 . S
C921 H892 0.950 . S
C921 C920 1.397 . S
C921 C922 1.334 . S
C922 H893 0.950 . S
C922 C921 1.334 . S
C922 C923 1.287 . S
C923 C922 1.287 . S
C923 C924 1.524 . S
C923 H926 0.999 . S
C924 H894 0.950 . S
C924 C923 1.524 . S
C924 C925 1.415 . S
C925 H895 0.950 . S
C925 C920 1.363 . S
C925 C924 1.415 . S
H926 C923 0.999 . S
H927 C908 0.913 . S
H928 C946 0.951 . S
H929 C948 0.951 . S
H930 C950 0.950 . S
H931 C951 0.950 . S
H932 C953 0.950 . S
H933 C956 0.950 . S
H934 C957 0.950 . S
H935 C959 0.950 . S
H936 C960 0.950 . S
H937 C961 0.951 . S
H938 C963 0.951 . S
H939 C965 0.950 . S
H940 C966 0.950 . S
H941 C968 0.950 . S
H942 C971 0.950 . S
H943 C972 0.950 . S
H944 C974 0.950 . S
H945 C975 0.950 . S
C946 H928 0.951 . S
C946 C947 1.366 . S
C946 C948 1.388 . S
C947 C946 1.366 . S
C947 C951 1.385 . S
C948 H929 0.951 . S
C948 C946 1.388 . S
C948 C949 1.366 . S
C949 C948 1.366 . S
C949 C950 1.414 . S
C949 C952 1.499 . S
C950 H930 0.950 . S
C950 C949 1.414 . S
C950 C951 1.374 . S
C951 H931 0.950 . S
C951 C947 1.385 . S
C951 C950 1.374 . S
C952 C949 1.499 . S
C952 C953 1.373 . S
C952 C954 1.389 . S
C953 H932 0.950 . S
C953 C952 1.373 . S
C953 C969 1.377 . S
C954 C952 1.389 . S
C954 C955 1.524 . S
C954 C968 1.377 . S
C955 C954 1.524 . S
C955 C956 1.397 . S
C955 C960 1.363 . S
C956 H933 0.950 . S
C956 C955 1.397 . S
C956 C957 1.334 . S
C957 H934 0.950 . S
C957 C956 1.334 . S
C957 C958 1.287 . S
C958 C957 1.287 . S
C958 C959 1.524 . S
C958 H977 0.913 . S
C959 H935 0.950 . S
C959 C958 1.524 . S
C959 C960 1.415 . S
C960 H936 0.950 . S
C960 C955 1.363 . S
C960 C959 1.415 . S
C961 H937 0.951 . S
C961 C962 1.366 . S
C961 C963 1.388 . S
C962 C961 1.366 . S
C962 C966 1.385 . S
C963 H938 0.951 . S
C963 C961 1.388 . S
C963 C964 1.366 . S
C964 C963 1.366 . S
C964 C965 1.414 . S
C964 C967 1.499 . S
C965 H939 0.950 . S
C965 C964 1.414 . S
C965 C966 1.374 . S
C966 H940 0.950 . S
C966 C962 1.385 . S
C966 C965 1.374 . S
C967 C964 1.499 . S
C967 C968 1.373 . S
C967 C969 1.389 . S
C968 H941 0.950 . S
C968 C954 1.377 . S
C968 C967 1.373 . S
C969 C953 1.377 . S
C969 C967 1.389 . S
C969 C970 1.524 . S
C970 C969 1.524 . S
C970 C971 1.397 . S
C970 C975 1.363 . S
C971 H942 0.950 . S
C971 C970 1.397 . S
C971 C972 1.334 . S
C972 H943 0.950 . S
C972 C971 1.334 . S
C972 C973 1.287 . S
C973 C972 1.287 . S
C973 C974 1.524 . S
C973 H976 0.999 . S
C974 H944 0.950 . S
C974 C973 1.524 . S
C974 C975 1.415 . S
C975 H945 0.950 . S
C975 C970 1.363 . S
C975 C974 1.415 . S
H976 C973 0.999 . S
H977 C958 0.913 . S
H978 C996 0.951 . S
H979 C998 0.951 . S
H980 C1000 0.950 . S
H981 C1001 0.950 1_556 S
H982 C1003 0.950 . S
H983 C1006 0.950 . S
H984 C1007 0.950 . S
H985 C1009 0.950 . S
H986 C1010 0.950 . S
H987 C1011 0.951 . S
H988 C1013 0.951 . S
H989 C1015 0.950 . S
H990 C1016 0.950 . S
H991 C1018 0.950 . S
H992 C1021 0.950 . S
H993 C1022 0.950 . S
H994 C1024 0.950 . S
H995 C1025 0.950 . S
C996 H978 0.951 . S
C996 C997 1.366 . S
C996 C998 1.388 . S
C997 C996 1.366 . S
C997 C1001 1.385 . S
C998 H979 0.951 . S
C998 C996 1.388 . S
C998 C999 1.366 . S
C999 C998 1.366 . S
C999 C1000 1.414 . S
C999 C1002 1.499 . S
C1000 H980 0.950 . S
C1000 C999 1.414 . S
C1000 C1001 1.374 . S
C1001 H981 0.950 1_554 S
C1001 C997 1.385 . S
C1001 C1000 1.374 . S
C1002 C999 1.499 . S
C1002 C1003 1.373 . S
C1002 C1004 1.389 . S
C1003 H982 0.950 . S
C1003 C1002 1.373 . S
C1003 C1019 1.377 . S
C1004 C1002 1.389 . S
C1004 C1005 1.524 . S
C1004 C1018 1.377 . S
C1005 C1004 1.524 . S
C1005 C1006 1.397 . S
C1005 C1010 1.363 . S
C1006 H983 0.950 . S
C1006 C1005 1.397 . S
C1006 C1007 1.334 . S
C1007 H984 0.950 . S
C1007 C1006 1.334 . S
C1007 C1008 1.287 . S
C1008 C1007 1.287 . S
C1008 C1009 1.524 . S
C1008 H1027 0.913 . S
C1009 H985 0.950 . S
C1009 C1008 1.524 . S
C1009 C1010 1.415 . S
C1010 H986 0.950 . S
C1010 C1005 1.363 . S
C1010 C1009 1.415 . S
C1011 H987 0.951 . S
C1011 C1012 1.366 . S
C1011 C1013 1.388 . S
C1012 C1011 1.366 . S
C1012 C1016 1.385 . S
C1013 H988 0.951 . S
C1013 C1011 1.388 . S
C1013 C1014 1.366 . S
C1014 C1013 1.366 . S
C1014 C1015 1.414 . S
C1014 C1017 1.499 . S
C1015 H989 0.950 . S
C1015 C1014 1.414 . S
C1015 C1016 1.374 . S
C1016 H990 0.950 . S
C1016 C1012 1.385 . S
C1016 C1015 1.374 . S
C1017 C1014 1.499 . S
C1017 C1018 1.373 . S
C1017 C1019 1.389 . S
C1018 H991 0.950 . S
C1018 C1004 1.377 . S
C1018 C1017 1.373 . S
C1019 C1003 1.377 . S
C1019 C1017 1.389 . S
C1019 C1020 1.524 . S
C1020 C1019 1.524 . S
C1020 C1021 1.397 . S
C1020 C1025 1.363 . S
C1021 H992 0.950 . S
C1021 C1020 1.397 . S
C1021 C1022 1.334 . S
C1022 H993 0.950 . S
C1022 C1021 1.334 . S
C1022 C1023 1.287 . S
C1023 C1022 1.287 . S
C1023 C1024 1.524 . S
C1023 H1026 0.999 . S
C1024 H994 0.950 . S
C1024 C1023 1.524 . S
C1024 C1025 1.415 . S
C1025 H995 0.950 . S
C1025 C1020 1.363 . S
C1025 C1024 1.415 . S
H1026 C1023 0.999 . S
H1027 C1008 0.913 . S
H1028 C1046 0.951 . S
H1029 C1048 0.951 . S
H1030 C1050 0.950 . S
H1031 C1051 0.950 . S
H1032 C1053 0.950 . S
H1033 C1056 0.950 . S
H1034 C1057 0.950 . S
H1035 C1059 0.950 . S
H1036 C1060 0.950 . S
H1037 C1061 0.951 . S
H1038 C1063 0.951 . S
H1039 C1065 0.950 . S
H1040 C1066 0.950 . S
H1041 C1068 0.950 . S
H1042 C1071 0.950 . S
H1043 C1072 0.950 . S
H1044 C1074 0.950 . S
H1045 C1075 0.950 . S
C1046 H1028 0.951 . S
C1046 C1047 1.366 . S
C1046 C1048 1.388 . S
C1047 C1046 1.366 . S
C1047 C1051 1.385 . S
C1048 H1029 0.951 . S
C1048 C1046 1.388 . S
C1048 C1049 1.366 . S
C1049 C1048 1.366 . S
C1049 C1050 1.414 . S
C1049 C1052 1.499 . S
C1050 H1030 0.950 . S
C1050 C1049 1.414 . S
C1050 C1051 1.374 . S
C1051 H1031 0.950 . S
C1051 C1047 1.385 . S
C1051 C1050 1.374 . S
C1052 C1049 1.499 . S
C1052 C1053 1.373 . S
C1052 C1054 1.389 . S
C1053 H1032 0.950 . S
C1053 C1052 1.373 . S
C1053 C1069 1.377 . S
C1054 C1052 1.389 . S
C1054 C1055 1.524 . S
C1054 C1068 1.377 . S
C1055 C1054 1.524 . S
C1055 C1056 1.397 . S
C1055 C1060 1.363 . S
C1056 H1033 0.950 . S
C1056 C1055 1.397 . S
C1056 C1057 1.334 . S
C1057 H1034 0.950 . S
C1057 C1056 1.334 . S
C1057 C1058 1.287 . S
C1058 C1057 1.287 . S
C1058 C1059 1.524 . S
C1058 H1077 0.913 . S
C1059 H1035 0.950 . S
C1059 C1058 1.524 . S
C1059 C1060 1.415 . S
C1060 H1036 0.950 . S
C1060 C1055 1.363 . S
C1060 C1059 1.415 . S
C1061 H1037 0.951 . S
C1061 C1062 1.366 . S
C1061 C1063 1.388 . S
C1062 C1061 1.366 . S
C1062 C1066 1.385 . S
C1063 H1038 0.951 . S
C1063 C1061 1.388 . S
C1063 C1064 1.366 . S
C1064 C1063 1.366 . S
C1064 C1065 1.414 . S
C1064 C1067 1.499 . S
C1065 H1039 0.950 . S
C1065 C1064 1.414 . S
C1065 C1066 1.374 . S
C1066 H1040 0.950 . S
C1066 C1062 1.385 . S
C1066 C1065 1.374 . S
C1067 C1064 1.499 . S
C1067 C1068 1.373 . S
C1067 C1069 1.389 . S
C1068 H1041 0.950 . S
C1068 C1054 1.377 . S
C1068 C1067 1.373 . S
C1069 C1053 1.377 . S
C1069 C1067 1.389 . S
C1069 C1070 1.524 . S
C1070 C1069 1.524 . S
C1070 C1071 1.397 . S
C1070 C1075 1.363 . S
C1071 H1042 0.950 . S
C1071 C1070 1.397 . S
C1071 C1072 1.334 . S
C1072 H1043 0.950 . S
C1072 C1071 1.334 . S
C1072 C1073 1.287 . S
C1073 C1072 1.287 . S
C1073 C1074 1.524 . S
C1073 H1076 0.999 . S
C1074 H1044 0.950 . S
C1074 C1073 1.524 . S
C1074 C1075 1.415 . S
C1075 H1045 0.950 . S
C1075 C1070 1.363 . S
C1075 C1074 1.415 . S
H1076 C1073 0.999 . S
H1077 C1058 0.913 . S
H1078 C1096 0.951 . S
H1079 C1098 0.951 . S
H1080 C1100 0.950 . S
H1081 C1101 0.950 . S
H1082 C1103 0.950 . S
H1083 C1106 0.950 . S
H1084 C1107 0.950 . S
H1085 C1109 0.950 . S
H1086 C1110 0.950 . S
H1087 C1111 0.951 . S
H1088 C1113 0.951 . S
H1089 C1115 0.950 . S
H1090 C1116 0.950 . S
H1091 C1118 0.950 . S
H1092 C1121 0.950 . S
H1093 C1122 0.950 . S
H1094 C1124 0.950 . S
H1095 C1125 0.950 . S
C1096 H1078 0.951 . S
C1096 C1097 1.366 . S
C1096 C1098 1.388 . S
C1097 C1096 1.366 . S
C1097 C1101 1.385 . S
C1098 H1079 0.951 . S
C1098 C1096 1.388 . S
C1098 C1099 1.366 . S
C1099 C1098 1.366 . S
C1099 C1100 1.414 . S
C1099 C1102 1.499 . S
C1100 H1080 0.950 . S
C1100 C1099 1.414 . S
C1100 C1101 1.374 . S
C1101 H1081 0.950 . S
C1101 C1097 1.385 . S
C1101 C1100 1.374 . S
C1102 C1099 1.499 . S
C1102 C1103 1.373 . S
C1102 C1104 1.389 . S
C1103 H1082 0.950 . S
C1103 C1102 1.373 . S
C1103 C1119 1.377 . S
C1104 C1102 1.389 . S
C1104 C1105 1.524 . S
C1104 C1118 1.377 . S
C1105 C1104 1.524 . S
C1105 C1106 1.397 . S
C1105 C1110 1.363 . S
C1106 H1083 0.950 . S
C1106 C1105 1.397 . S
C1106 C1107 1.334 . S
C1107 H1084 0.950 . S
C1107 C1106 1.334 . S
C1107 C1108 1.287 . S
C1108 C1107 1.287 . S
C1108 C1109 1.524 . S
C1108 H1127 0.913 . S
C1109 H1085 0.950 . S
C1109 C1108 1.524 . S
C1109 C1110 1.415 . S
C1110 H1086 0.950 . S
C1110 C1105 1.363 . S
C1110 C1109 1.415 . S
C1111 H1087 0.951 . S
C1111 C1112 1.366 . S
C1111 C1113 1.388 . S
C1112 C1111 1.366 . S
C1112 C1116 1.385 . S
C1113 H1088 0.951 . S
C1113 C1111 1.388 . S
C1113 C1114 1.366 . S
C1114 C1113 1.366 . S
C1114 C1115 1.414 . S
C1114 C1117 1.499 . S
C1115 H1089 0.950 . S
C1115 C1114 1.414 . S
C1115 C1116 1.374 . S
C1116 H1090 0.950 . S
C1116 C1112 1.385 . S
C1116 C1115 1.374 . S
C1117 C1114 1.499 . S
C1117 C1118 1.373 . S
C1117 C1119 1.389 . S
C1118 H1091 0.950 . S
C1118 C1104 1.377 . S
C1118 C1117 1.373 . S
C1119 C1103 1.377 . S
C1119 C1117 1.389 . S
C1119 C1120 1.524 . S
C1120 C1119 1.524 . S
C1120 C1121 1.397 . S
C1120 C1125 1.363 . S
C1121 H1092 0.950 . S
C1121 C1120 1.397 . S
C1121 C1122 1.334 . S
C1122 H1093 0.950 . S
C1122 C1121 1.334 . S
C1122 C1123 1.287 . S
C1123 C1122 1.287 . S
C1123 C1124 1.524 . S
C1123 H1126 0.999 . S
C1124 H1094 0.950 . S
C1124 C1123 1.524 . S
C1124 C1125 1.415 . S
C1125 H1095 0.950 . S
C1125 C1120 1.363 . S
C1125 C1124 1.415 . S
H1126 C1123 0.999 . S
H1127 C1108 0.913 . S
H1128 C1146 0.951 . S
H1129 C1148 0.951 . S
H1130 C1150 0.950 . S
H1131 C1151 0.950 . S
H1132 C1153 0.950 . S
H1133 C1156 0.950 . S
H1134 C1157 0.950 . S
H1135 C1159 0.950 . S
H1136 C1160 0.950 . S
H1137 C1161 0.951 . S
H1138 C1163 0.951 . S
H1139 C1165 0.950 . S
H1140 C1166 0.950 . S
H1141 C1168 0.950 . S
H1142 C1171 0.950 . S
H1143 C1172 0.950 . S
H1144 C1174 0.950 . S
H1145 C1175 0.950 . S
C1146 H1128 0.951 . S
C1146 C1147 1.366 . S
C1146 C1148 1.388 . S
C1147 C1146 1.366 . S
C1147 C1151 1.385 . S
C1148 H1129 0.951 . S
C1148 C1146 1.388 . S
C1148 C1149 1.366 . S
C1149 C1148 1.366 . S
C1149 C1150 1.414 . S
C1149 C1152 1.499 . S
C1150 H1130 0.950 . S
C1150 C1149 1.414 . S
C1150 C1151 1.374 . S
C1151 H1131 0.950 . S
C1151 C1147 1.385 . S
C1151 C1150 1.374 . S
C1152 C1149 1.499 . S
C1152 C1153 1.373 . S
C1152 C1154 1.389 . S
C1153 H1132 0.950 . S
C1153 C1152 1.373 . S
C1153 C1169 1.377 . S
C1154 C1152 1.389 . S
C1154 C1155 1.524 . S
C1154 C1168 1.377 . S
C1155 C1154 1.524 . S
C1155 C1156 1.397 . S
C1155 C1160 1.363 . S
C1156 H1133 0.950 . S
C1156 C1155 1.397 . S
C1156 C1157 1.334 . S
C1157 H1134 0.950 . S
C1157 C1156 1.334 . S
C1157 C1158 1.287 . S
C1158 C1157 1.287 . S
C1158 C1159 1.524 . S
C1158 H1177 0.913 . S
C1159 H1135 0.950 . S
C1159 C1158 1.524 . S
C1159 C1160 1.415 . S
C1160 H1136 0.950 . S
C1160 C1155 1.363 . S
C1160 C1159 1.415 . S
C1161 H1137 0.951 . S
C1161 C1162 1.366 . S
C1161 C1163 1.388 . S
C1162 C1161 1.366 . S
C1162 C1166 1.385 . S
C1163 H1138 0.951 . S
C1163 C1161 1.388 . S
C1163 C1164 1.366 . S
C1164 C1163 1.366 . S
C1164 C1165 1.414 . S
C1164 C1167 1.499 . S
C1165 H1139 0.950 . S
C1165 C1164 1.414 . S
C1165 C1166 1.374 . S
C1166 H1140 0.950 . S
C1166 C1162 1.385 . S
C1166 C1165 1.374 . S
C1167 C1164 1.499 . S
C1167 C1168 1.373 . S
C1167 C1169 1.389 . S
C1168 H1141 0.950 . S
C1168 C1154 1.377 . S
C1168 C1167 1.373 . S
C1169 C1153 1.377 . S
C1169 C1167 1.389 . S
C1169 C1170 1.524 . S
C1170 C1169 1.524 . S
C1170 C1171 1.397 . S
C1170 C1175 1.363 . S
C1171 H1142 0.950 . S
C1171 C1170 1.397 . S
C1171 C1172 1.334 . S
C1172 H1143 0.950 . S
C1172 C1171 1.334 . S
C1172 C1173 1.287 . S
C1173 C1172 1.287 . S
C1173 C1174 1.524 . S
C1173 H1176 0.999 . S
C1174 H1144 0.950 . S
C1174 C1173 1.524 . S
C1174 C1175 1.415 . S
C1175 H1145 0.950 . S
C1175 C1170 1.363 . S
C1175 C1174 1.415 . S
H1176 C1173 0.999 . S
H1177 C1158 0.913 . S
H1178 C1196 0.951 . S
H1179 C1198 0.951 . S
H1180 C1200 0.950 . S
H1181 C1201 0.950 . S
H1182 C1203 0.950 . S
H1183 C1206 0.950 . S
H1184 C1207 0.950 . S
H1185 C1209 0.950 . S
H1186 C1210 0.950 . S
H1187 C1211 0.951 . S
H1188 C1213 0.951 . S
H1189 C1215 0.950 . S
H1190 C1216 0.950 . S
H1191 C1218 0.950 . S
H1192 C1221 0.950 . S
H1193 C1222 0.950 . S
H1194 C1224 0.950 . S
H1195 C1225 0.950 . S
C1196 H1178 0.951 . S
C1196 C1197 1.366 . S
C1196 C1198 1.388 . S
C1197 C1196 1.366 . S
C1197 C1201 1.385 . S
C1198 H1179 0.951 . S
C1198 C1196 1.388 . S
C1198 C1199 1.366 . S
C1199 C1198 1.366 . S
C1199 C1200 1.414 . S
C1199 C1202 1.499 . S
C1200 H1180 0.950 . S
C1200 C1199 1.414 . S
C1200 C1201 1.374 . S
C1201 H1181 0.950 . S
C1201 C1197 1.385 . S
C1201 C1200 1.374 . S
C1202 C1199 1.499 . S
C1202 C1203 1.373 . S
C1202 C1204 1.389 . S
C1203 H1182 0.950 . S
C1203 C1202 1.373 . S
C1203 C1219 1.377 . S
C1204 C1202 1.389 . S
C1204 C1205 1.524 . S
C1204 C1218 1.377 . S
C1205 C1204 1.524 . S
C1205 C1206 1.397 . S
C1205 C1210 1.363 . S
C1206 H1183 0.950 . S
C1206 C1205 1.397 . S
C1206 C1207 1.334 . S
C1207 H1184 0.950 . S
C1207 C1206 1.334 . S
C1207 C1208 1.287 . S
C1208 C1207 1.287 . S
C1208 C1209 1.524 . S
C1208 H1227 0.913 . S
C1209 H1185 0.950 . S
C1209 C1208 1.524 . S
C1209 C1210 1.415 . S
C1210 H1186 0.950 . S
C1210 C1205 1.363 . S
C1210 C1209 1.415 . S
C1211 H1187 0.951 . S
C1211 C1212 1.366 . S
C1211 C1213 1.388 . S
C1212 C1211 1.366 . S
C1212 C1216 1.385 . S
C1213 H1188 0.951 . S
C1213 C1211 1.388 . S
C1213 C1214 1.366 . S
C1214 C1213 1.366 . S
C1214 C1215 1.414 . S
C1214 C1217 1.499 . S
C1215 H1189 0.950 . S
C1215 C1214 1.414 . S
C1215 C1216 1.374 . S
C1216 H1190 0.950 . S
C1216 C1212 1.385 . S
C1216 C1215 1.374 . S
C1217 C1214 1.499 . S
C1217 C1218 1.373 . S
C1217 C1219 1.389 . S
C1218 H1191 0.950 . S
C1218 C1204 1.377 . S
C1218 C1217 1.373 . S
C1219 C1203 1.377 . S
C1219 C1217 1.389 . S
C1219 C1220 1.524 . S
C1220 C1219 1.524 . S
C1220 C1221 1.397 . S
C1220 C1225 1.363 . S
C1221 H1192 0.950 . S
C1221 C1220 1.397 . S
C1221 C1222 1.334 . S
C1222 H1193 0.950 . S
C1222 C1221 1.334 . S
C1222 C1223 1.287 . S
C1223 C1222 1.287 . S
C1223 C1224 1.524 . S
C1223 H1226 0.999 . S
C1224 H1194 0.950 . S
C1224 C1223 1.524 . S
C1224 C1225 1.415 . S
C1225 H1195 0.950 . S
C1225 C1220 1.363 . S
C1225 C1224 1.415 . S
H1226 C1223 0.999 . S
H1227 C1208 0.913 . S
H1228 C1246 0.951 . S
H1229 C1248 0.951 . S
H1230 C1250 0.950 . S
H1231 C1251 0.950 . S
H1232 C1253 0.950 . S
H1233 C1256 0.950 . S
H1234 C1257 0.950 . S
H1235 C1259 0.950 . S
H1236 C1260 0.950 . S
H1237 C1261 0.951 . S
H1238 C1263 0.951 . S
H1239 C1265 0.950 . S
H1240 C1266 0.950 . S
H1241 C1268 0.950 . S
H1242 C1271 0.950 . S
H1243 C1272 0.950 . S
H1244 C1274 0.950 . S
H1245 C1275 0.950 . S
C1246 H1228 0.951 . S
C1246 C1247 1.366 . S
C1246 C1248 1.388 . S
C1247 C1246 1.366 . S
C1247 C1251 1.385 . S
C1248 H1229 0.951 . S
C1248 C1246 1.388 . S
C1248 C1249 1.366 . S
C1249 C1248 1.366 . S
C1249 C1250 1.414 . S
C1249 C1252 1.499 . S
C1250 H1230 0.950 . S
C1250 C1249 1.414 . S
C1250 C1251 1.374 . S
C1251 H1231 0.950 . S
C1251 C1247 1.385 . S
C1251 C1250 1.374 . S
C1252 C1249 1.499 . S
C1252 C1253 1.373 . S
C1252 C1254 1.389 . S
C1253 H1232 0.950 . S
C1253 C1252 1.373 . S
C1253 C1269 1.377 . S
C1254 C1252 1.389 . S
C1254 C1255 1.524 . S
C1254 C1268 1.377 . S
C1255 C1254 1.524 . S
C1255 C1256 1.397 . S
C1255 C1260 1.363 . S
C1256 H1233 0.950 . S
C1256 C1255 1.397 . S
C1256 C1257 1.334 . S
C1257 H1234 0.950 . S
C1257 C1256 1.334 . S
C1257 C1258 1.287 . S
C1258 C1257 1.287 . S
C1258 C1259 1.524 . S
C1258 H1277 0.913 . S
C1259 H1235 0.950 . S
C1259 C1258 1.524 . S
C1259 C1260 1.415 . S
C1260 H1236 0.950 . S
C1260 C1255 1.363 . S
C1260 C1259 1.415 . S
C1261 H1237 0.951 . S
C1261 C1262 1.366 . S
C1261 C1263 1.388 . S
C1262 C1261 1.366 . S
C1262 C1266 1.385 . S
C1263 H1238 0.951 . S
C1263 C1261 1.388 . S
C1263 C1264 1.366 . S
C1264 C1263 1.366 . S
C1264 C1265 1.414 . S
C1264 C1267 1.499 . S
C1265 H1239 0.950 . S
C1265 C1264 1.414 . S
C1265 C1266 1.374 . S
C1266 H1240 0.950 . S
C1266 C1262 1.385 . S
C1266 C1265 1.374 . S
C1267 C1264 1.499 . S
C1267 C1268 1.373 . S
C1267 C1269 1.389 . S
C1268 H1241 0.950 . S
C1268 C1254 1.377 . S
C1268 C1267 1.373 . S
C1269 C1253 1.377 . S
C1269 C1267 1.389 . S
C1269 C1270 1.524 . S
C1270 C1269 1.524 . S
C1270 C1271 1.397 . S
C1270 C1275 1.363 . S
C1271 H1242 0.950 . S
C1271 C1270 1.397 . S
C1271 C1272 1.334 . S
C1272 H1243 0.950 . S
C1272 C1271 1.334 . S
C1272 C1273 1.287 . S
C1273 C1272 1.287 . S
C1273 C1274 1.524 . S
C1273 H1276 0.999 . S
C1274 H1244 0.950 . S
C1274 C1273 1.524 . S
C1274 C1275 1.415 . S
C1275 H1245 0.950 . S
C1275 C1270 1.363 . S
C1275 C1274 1.415 . S
H1276 C1273 0.999 . S
H1277 C1258 0.913 . S
H1278 C1296 0.951 . S
H1279 C1298 0.951 . S
H1280 C1300 0.950 . S
H1281 C1301 0.950 . S
H1282 C1303 0.950 . S
H1283 C1306 0.950 . S
H1284 C1307 0.950 . S
H1285 C1309 0.950 . S
H1286 C1310 0.950 . S
H1287 C1311 0.951 . S
H1288 C1313 0.951 1_556 S
H1289 C1315 0.950 . S
H1290 C1316 0.950 . S
H1291 C1318 0.950 . S
H1292 C1321 0.950 . S
H1293 C1322 0.950 . S
H1294 C1324 0.950 . S
H1295 C1325 0.950 . S
C1296 H1278 0.951 . S
C1296 C1297 1.366 . S
C1296 C1298 1.388 . S
C1297 C1296 1.366 . S
C1297 C1301 1.385 . S
C1298 H1279 0.951 . S
C1298 C1296 1.388 . S
C1298 C1299 1.366 . S
C1299 C1298 1.366 . S
C1299 C1300 1.414 . S
C1299 C1302 1.499 . S
C1300 H1280 0.950 . S
C1300 C1299 1.414 . S
C1300 C1301 1.374 . S
C1301 H1281 0.950 . S
C1301 C1297 1.385 . S
C1301 C1300 1.374 . S
C1302 C1299 1.499 . S
C1302 C1303 1.373 . S
C1302 C1304 1.389 . S
C1303 H1282 0.950 . S
C1303 C1302 1.373 . S
C1303 C1319 1.377 . S
C1304 C1302 1.389 . S
C1304 C1305 1.524 . S
C1304 C1318 1.377 . S
C1305 C1304 1.524 . S
C1305 C1306 1.397 . S
C1305 C1310 1.363 . S
C1306 H1283 0.950 . S
C1306 C1305 1.397 . S
C1306 C1307 1.334 . S
C1307 H1284 0.950 . S
C1307 C1306 1.334 . S
C1307 C1308 1.287 . S
C1308 C1307 1.287 . S
C1308 C1309 1.524 . S
C1308 H1327 0.913 . S
C1309 H1285 0.950 . S
C1309 C1308 1.524 . S
C1309 C1310 1.415 . S
C1310 H1286 0.950 . S
C1310 C1305 1.363 . S
C1310 C1309 1.415 . S
C1311 H1287 0.951 . S
C1311 C1312 1.366 . S
C1311 C1313 1.388 . S
C1312 C1311 1.366 . S
C1312 C1316 1.385 . S
C1313 H1288 0.951 1_554 S
C1313 C1311 1.388 . S
C1313 C1314 1.366 1_554 S
C1314 C1313 1.366 1_556 S
C1314 C1315 1.414 1_556 S
C1314 C1317 1.499 . S
C1315 H1289 0.950 . S
C1315 C1314 1.414 1_554 S
C1315 C1316 1.374 . S
C1316 H1290 0.950 . S
C1316 C1312 1.385 . S
C1316 C1315 1.374 . S
C1317 C1314 1.499 . S
C1317 C1318 1.373 . S
C1317 C1319 1.389 . S
C1318 H1291 0.950 . S
C1318 C1304 1.377 . S
C1318 C1317 1.373 . S
C1319 C1303 1.377 . S
C1319 C1317 1.389 . S
C1319 C1320 1.524 . S
C1320 C1319 1.524 . S
C1320 C1321 1.397 1_556 S
C1320 C1325 1.363 . S
C1321 H1292 0.950 . S
C1321 C1320 1.397 1_554 S
C1321 C1322 1.334 . S
C1322 H1293 0.950 . S
C1322 C1321 1.334 . S
C1322 C1323 1.287 . S
C1323 C1322 1.287 . S
C1323 C1324 1.524 1_554 S
C1323 H1326 0.999 . S
C1324 H1294 0.950 . S
C1324 C1323 1.524 1_556 S
C1324 C1325 1.415 . S
C1325 H1295 0.950 . S
C1325 C1320 1.363 . S
C1325 C1324 1.415 . S
H1326 C1323 0.999 . S
H1327 C1308 0.913 . S
H1328 C1346 0.951 . S
H1329 C1348 0.951 . S
H1330 C1350 0.950 . S
H1331 C1351 0.950 1_545 S
H1332 C1353 0.950 . S
H1333 C1356 0.950 . S
H1334 C1357 0.950 . S
H1335 C1359 0.950 . S
H1336 C1360 0.950 . S
H1337 C1361 0.951 . S
H1338 C1363 0.951 . S
H1339 C1365 0.950 . S
H1340 C1366 0.950 . S
H1341 C1368 0.950 . S
H1342 C1371 0.950 . S
H1343 C1372 0.950 . S
H1344 C1374 0.950 1_545 S
H1345 C1375 0.950 . S
C1346 H1328 0.951 . S
C1346 C1347 1.366 . S
C1346 C1348 1.388 . S
C1347 C1346 1.366 . S
C1347 C1351 1.385 . S
C1348 H1329 0.951 . S
C1348 C1346 1.388 . S
C1348 C1349 1.366 . S
C1349 C1348 1.366 . S
C1349 C1350 1.414 . S
C1349 C1352 1.499 . S
C1350 H1330 0.950 . S
C1350 C1349 1.414 . S
C1350 C1351 1.374 . S
C1351 H1331 0.950 1_565 S
C1351 C1347 1.385 . S
C1351 C1350 1.374 . S
C1352 C1349 1.499 . S
C1352 C1353 1.373 . S
C1352 C1354 1.389 . S
C1353 H1332 0.950 . S
C1353 C1352 1.373 . S
C1353 C1369 1.377 . S
C1354 C1352 1.389 . S
C1354 C1355 1.524 . S
C1354 C1368 1.377 . S
C1355 C1354 1.524 . S
C1355 C1356 1.397 . S
C1355 C1360 1.363 . S
C1356 H1333 0.950 . S
C1356 C1355 1.397 . S
C1356 C1357 1.334 . S
C1357 H1334 0.950 . S
C1357 C1356 1.334 . S
C1357 C1358 1.287 . S
C1358 C1357 1.287 . S
C1358 C1359 1.524 . S
C1358 H1377 0.913 . S
C1359 H1335 0.950 . S
C1359 C1358 1.524 . S
C1359 C1360 1.415 . S
C1360 H1336 0.950 . S
C1360 C1355 1.363 . S
C1360 C1359 1.415 . S
C1361 H1337 0.951 . S
C1361 C1362 1.366 . S
C1361 C1363 1.388 . S
C1362 C1361 1.366 . S
C1362 C1366 1.385 . S
C1363 H1338 0.951 . S
C1363 C1361 1.388 . S
C1363 C1364 1.366 . S
C1364 C1363 1.366 . S
C1364 C1365 1.414 . S
C1364 C1367 1.499 . S
C1365 H1339 0.950 . S
C1365 C1364 1.414 . S
C1365 C1366 1.374 . S
C1366 H1340 0.950 . S
C1366 C1362 1.385 . S
C1366 C1365 1.374 . S
C1367 C1364 1.499 . S
C1367 C1368 1.373 . S
C1367 C1369 1.389 . S
C1368 H1341 0.950 . S
C1368 C1354 1.377 . S
C1368 C1367 1.373 . S
C1369 C1353 1.377 . S
C1369 C1367 1.389 . S
C1369 C1370 1.524 . S
C1370 C1369 1.524 . S
C1370 C1371 1.397 . S
C1370 C1375 1.363 . S
C1371 H1342 0.950 . S
C1371 C1370 1.397 . S
C1371 C1372 1.334 . S
C1372 H1343 0.950 . S
C1372 C1371 1.334 . S
C1372 C1373 1.287 . S
C1373 C1372 1.287 . S
C1373 C1374 1.524 . S
C1373 H1376 0.999 . S
C1374 H1344 0.950 1_565 S
C1374 C1373 1.524 . S
C1374 C1375 1.415 . S
C1375 H1345 0.950 . S
C1375 C1370 1.363 . S
C1375 C1374 1.415 . S
H1376 C1373 0.999 . S
H1377 C1358 0.913 . S
H1378 C1396 0.951 . S
H1379 C1398 0.951 . S
H1380 C1400 0.950 . S
H1381 C1401 0.950 . S
H1382 C1403 0.950 . S
H1383 C1406 0.950 . S
H1384 C1407 0.950 . S
H1385 C1409 0.950 . S
H1386 C1410 0.950 . S
H1387 C1411 0.951 . S
H1388 C1413 0.951 . S
H1389 C1415 0.950 . S
H1390 C1416 0.950 . S
H1391 C1418 0.950 . S
H1392 C1421 0.950 . S
H1393 C1422 0.950 . S
H1394 C1424 0.950 . S
H1395 C1425 0.950 . S
C1396 H1378 0.951 . S
C1396 C1397 1.366 . S
C1396 C1398 1.388 . S
C1397 C1396 1.366 . S
C1397 C1401 1.385 . S
C1398 H1379 0.951 . S
C1398 C1396 1.388 . S
C1398 C1399 1.366 . S
C1399 C1398 1.366 . S
C1399 C1400 1.414 . S
C1399 C1402 1.499 . S
C1400 H1380 0.950 . S
C1400 C1399 1.414 . S
C1400 C1401 1.374 . S
C1401 H1381 0.950 . S
C1401 C1397 1.385 . S
C1401 C1400 1.374 . S
C1402 C1399 1.499 . S
C1402 C1403 1.373 . S
C1402 C1404 1.389 . S
C1403 H1382 0.950 . S
C1403 C1402 1.373 . S
C1403 C1419 1.377 . S
C1404 C1402 1.389 . S
C1404 C1405 1.524 . S
C1404 C1418 1.377 . S
C1405 C1404 1.524 . S
C1405 C1406 1.397 . S
C1405 C1410 1.363 . S
C1406 H1383 0.950 . S
C1406 C1405 1.397 . S
C1406 C1407 1.334 . S
C1407 H1384 0.950 . S
C1407 C1406 1.334 . S
C1407 C1408 1.287 . S
C1408 C1407 1.287 . S
C1408 C1409 1.524 . S
C1408 H1427 0.913 . S
C1409 H1385 0.950 . S
C1409 C1408 1.524 . S
C1409 C1410 1.415 . S
C1410 H1386 0.950 . S
C1410 C1405 1.363 . S
C1410 C1409 1.415 . S
C1411 H1387 0.951 . S
C1411 C1412 1.366 . S
C1411 C1413 1.388 . S
C1412 C1411 1.366 . S
C1412 C1416 1.385 . S
C1413 H1388 0.951 . S
C1413 C1411 1.388 . S
C1413 C1414 1.366 . S
C1414 C1413 1.366 . S
C1414 C1415 1.414 . S
C1414 C1417 1.499 . S
C1415 H1389 0.950 . S
C1415 C1414 1.414 . S
C1415 C1416 1.374 . S
C1416 H1390 0.950 . S
C1416 C1412 1.385 . S
C1416 C1415 1.374 . S
C1417 C1414 1.499 . S
C1417 C1418 1.373 . S
C1417 C1419 1.389 . S
C1418 H1391 0.950 . S
C1418 C1404 1.377 . S
C1418 C1417 1.373 . S
C1419 C1403 1.377 . S
C1419 C1417 1.389 . S
C1419 C1420 1.524 . S
C1420 C1419 1.524 . S
C1420 C1421 1.397 . S
C1420 C1425 1.363 . S
C1421 H1392 0.950 . S
C1421 C1420 1.397 . S
C1421 C1422 1.334 . S
C1422 H1393 0.950 . S
C1422 C1421 1.334 . S
C1422 C1423 1.287 . S
C1423 C1422 1.287 . S
C1423 C1424 1.524 . S
C1423 H1426 0.999 . S
C1424 H1394 0.950 . S
C1424 C1423 1.524 . S
C1424 C1425 1.415 . S
C1425 H1395 0.950 . S
C1425 C1420 1.363 . S
C1425 C1424 1.415 . S
H1426 C1423 0.999 . S
H1427 C1408 0.913 . S
H1428 C1446 0.951 . S
H1429 C1448 0.951 . S
H1430 C1450 0.950 . S
H1431 C1451 0.950 . S
H1432 C1453 0.950 . S
H1433 C1456 0.950 . S
H1434 C1457 0.950 . S
H1435 C1459 0.950 . S
H1436 C1460 0.950 . S
H1437 C1461 0.951 . S
H1438 C1463 0.951 . S
H1439 C1465 0.950 . S
H1440 C1466 0.950 . S
H1441 C1468 0.950 . S
H1442 C1471 0.950 . S
H1443 C1472 0.950 . S
H1444 C1474 0.950 . S
H1445 C1475 0.950 . S
C1446 H1428 0.951 . S
C1446 C1447 1.366 . S
C1446 C1448 1.388 . S
C1447 C1446 1.366 . S
C1447 C1451 1.385 . S
C1448 H1429 0.951 . S
C1448 C1446 1.388 . S
C1448 C1449 1.366 . S
C1449 C1448 1.366 . S
C1449 C1450 1.414 . S
C1449 C1452 1.499 . S
C1450 H1430 0.950 . S
C1450 C1449 1.414 . S
C1450 C1451 1.374 . S
C1451 H1431 0.950 . S
C1451 C1447 1.385 . S
C1451 C1450 1.374 . S
C1452 C1449 1.499 . S
C1452 C1453 1.373 . S
C1452 C1454 1.389 . S
C1453 H1432 0.950 . S
C1453 C1452 1.373 . S
C1453 C1469 1.377 . S
C1454 C1452 1.389 . S
C1454 C1455 1.524 . S
C1454 C1468 1.377 . S
C1455 C1454 1.524 . S
C1455 C1456 1.397 . S
C1455 C1460 1.363 . S
C1456 H1433 0.950 . S
C1456 C1455 1.397 . S
C1456 C1457 1.334 . S
C1457 H1434 0.950 . S
C1457 C1456 1.334 . S
C1457 C1458 1.287 . S
C1458 C1457 1.287 . S
C1458 C1459 1.524 . S
C1458 H1477 0.913 . S
C1459 H1435 0.950 . S
C1459 C1458 1.524 . S
C1459 C1460 1.415 . S
C1460 H1436 0.950 . S
C1460 C1455 1.363 . S
C1460 C1459 1.415 . S
C1461 H1437 0.951 . S
C1461 C1462 1.366 . S
C1461 C1463 1.388 . S
C1462 C1461 1.366 . S
C1462 C1466 1.385 . S
C1463 H1438 0.951 . S
C1463 C1461 1.388 . S
C1463 C1464 1.366 . S
C1464 C1463 1.366 . S
C1464 C1465 1.414 . S
C1464 C1467 1.499 . S
C1465 H1439 0.950 . S
C1465 C1464 1.414 . S
C1465 C1466 1.374 . S
C1466 H1440 0.950 . S
C1466 C1462 1.385 . S
C1466 C1465 1.374 . S
C1467 C1464 1.499 . S
C1467 C1468 1.373 . S
C1467 C1469 1.389 . S
C1468 H1441 0.950 . S
C1468 C1454 1.377 . S
C1468 C1467 1.373 . S
C1469 C1453 1.377 . S
C1469 C1467 1.389 . S
C1469 C1470 1.524 . S
C1470 C1469 1.524 . S
C1470 C1471 1.397 . S
C1470 C1475 1.363 . S
C1471 H1442 0.950 . S
C1471 C1470 1.397 . S
C1471 C1472 1.334 . S
C1472 H1443 0.950 . S
C1472 C1471 1.334 . S
C1472 C1473 1.287 . S
C1473 C1472 1.287 . S
C1473 C1474 1.524 . S
C1473 H1476 0.999 . S
C1474 H1444 0.950 . S
C1474 C1473 1.524 . S
C1474 C1475 1.415 . S
C1475 H1445 0.950 . S
C1475 C1470 1.363 . S
C1475 C1474 1.415 . S
H1476 C1473 0.999 . S
H1477 C1458 0.913 . S
H1478 C1496 0.951 . S
H1479 C1498 0.951 . S
H1480 C1500 0.950 . S
H1481 C1501 0.950 . S
H1482 C1503 0.950 . S
H1483 C1506 0.950 . S
H1484 C1507 0.950 . S
H1485 C1509 0.950 . S
H1486 C1510 0.950 . S
H1487 C1511 0.951 . S
H1488 C1513 0.951 . S
H1489 C1515 0.950 . S
H1490 C1516 0.950 . S
H1491 C1518 0.950 . S
H1492 C1521 0.950 . S
H1493 C1522 0.950 . S
H1494 C1524 0.950 . S
H1495 C1525 0.950 . S
C1496 H1478 0.951 . S
C1496 C1497 1.366 . S
C1496 C1498 1.388 . S
C1497 C1496 1.366 . S
C1497 C1501 1.385 . S
C1498 H1479 0.951 . S
C1498 C1496 1.388 . S
C1498 C1499 1.366 . S
C1499 C1498 1.366 . S
C1499 C1500 1.414 . S
C1499 C1502 1.499 . S
C1500 H1480 0.950 . S
C1500 C1499 1.414 . S
C1500 C1501 1.374 . S
C1501 H1481 0.950 . S
C1501 C1497 1.385 . S
C1501 C1500 1.374 . S
C1502 C1499 1.499 . S
C1502 C1503 1.373 . S
C1502 C1504 1.389 . S
C1503 H1482 0.950 . S
C1503 C1502 1.373 . S
C1503 C1519 1.377 . S
C1504 C1502 1.389 . S
C1504 C1505 1.524 . S
C1504 C1518 1.377 . S
C1505 C1504 1.524 . S
C1505 C1506 1.397 . S
C1505 C1510 1.363 . S
C1506 H1483 0.950 . S
C1506 C1505 1.397 . S
C1506 C1507 1.334 . S
C1507 H1484 0.950 . S
C1507 C1506 1.334 . S
C1507 C1508 1.287 . S
C1508 C1507 1.287 . S
C1508 C1509 1.524 . S
C1508 H1527 0.913 . S
C1509 H1485 0.950 . S
C1509 C1508 1.524 . S
C1509 C1510 1.415 . S
C1510 H1486 0.950 . S
C1510 C1505 1.363 . S
C1510 C1509 1.415 . S
C1511 H1487 0.951 . S
C1511 C1512 1.366 . S
C1511 C1513 1.388 . S
C1512 C1511 1.366 . S
C1512 C1516 1.385 . S
C1513 H1488 0.951 . S
C1513 C1511 1.388 . S
C1513 C1514 1.366 . S
C1514 C1513 1.366 . S
C1514 C1515 1.414 . S
C1514 C1517 1.499 . S
C1515 H1489 0.950 . S
C1515 C1514 1.414 . S
C1515 C1516 1.374 . S
C1516 H1490 0.950 . S
C1516 C1512 1.385 . S
C1516 C1515 1.374 . S
C1517 C1514 1.499 . S
C1517 C1518 1.373 . S
C1517 C1519 1.389 . S
C1518 H1491 0.950 . S
C1518 C1504 1.377 . S
C1518 C1517 1.373 . S
C1519 C1503 1.377 . S
C1519 C1517 1.389 . S
C1519 C1520 1.524 . S
C1520 C1519 1.524 . S
C1520 C1521 1.397 . S
C1520 C1525 1.363 . S
C1521 H1492 0.950 . S
C1521 C1520 1.397 . S
C1521 C1522 1.334 . S
C1522 H1493 0.950 . S
C1522 C1521 1.334 . S
C1522 C1523 1.287 . S
C1523 C1522 1.287 . S
C1523 C1524 1.524 . S
C1523 H1526 0.999 . S
C1524 H1494 0.950 . S
C1524 C1523 1.524 . S
C1524 C1525 1.415 . S
C1525 H1495 0.950 . S
C1525 C1520 1.363 . S
C1525 C1524 1.415 . S
H1526 C1523 0.999 . S
H1527 C1508 0.913 . S
H1528 C1546 0.951 . S
H1529 C1548 0.951 . S
H1530 C1550 0.950 . S
H1531 C1551 0.950 . S
H1532 C1553 0.950 . S
H1533 C1556 0.950 . S
H1534 C1557 0.950 . S
H1535 C1559 0.950 . S
H1536 C1560 0.950 . S
H1537 C1561 0.951 . S
H1538 C1563 0.951 . S
H1539 C1565 0.950 . S
H1540 C1566 0.950 . S
H1541 C1568 0.950 . S
H1542 C1571 0.950 . S
H1543 C1572 0.950 . S
H1544 C1574 0.950 . S
H1545 C1575 0.950 . S
C1546 H1528 0.951 . S
C1546 C1547 1.366 . S
C1546 C1548 1.388 . S
C1547 C1546 1.366 . S
C1547 C1551 1.385 . S
C1548 H1529 0.951 . S
C1548 C1546 1.388 . S
C1548 C1549 1.366 . S
C1549 C1548 1.366 . S
C1549 C1550 1.414 . S
C1549 C1552 1.499 . S
C1550 H1530 0.950 . S
C1550 C1549 1.414 . S
C1550 C1551 1.374 . S
C1551 H1531 0.950 . S
C1551 C1547 1.385 . S
C1551 C1550 1.374 . S
C1552 C1549 1.499 . S
C1552 C1553 1.373 . S
C1552 C1554 1.389 . S
C1553 H1532 0.950 . S
C1553 C1552 1.373 . S
C1553 C1569 1.377 . S
C1554 C1552 1.389 . S
C1554 C1555 1.524 . S
C1554 C1568 1.377 . S
C1555 C1554 1.524 . S
C1555 C1556 1.397 . S
C1555 C1560 1.363 . S
C1556 H1533 0.950 . S
C1556 C1555 1.397 . S
C1556 C1557 1.334 . S
C1557 H1534 0.950 . S
C1557 C1556 1.334 . S
C1557 C1558 1.287 . S
C1558 C1557 1.287 . S
C1558 C1559 1.524 . S
C1558 H1577 0.913 . S
C1559 H1535 0.950 . S
C1559 C1558 1.524 . S
C1559 C1560 1.415 . S
C1560 H1536 0.950 . S
C1560 C1555 1.363 . S
C1560 C1559 1.415 . S
C1561 H1537 0.951 . S
C1561 C1562 1.366 . S
C1561 C1563 1.388 . S
C1562 C1561 1.366 . S
C1562 C1566 1.385 . S
C1563 H1538 0.951 . S
C1563 C1561 1.388 . S
C1563 C1564 1.366 . S
C1564 C1563 1.366 . S
C1564 C1565 1.414 . S
C1564 C1567 1.499 . S
C1565 H1539 0.950 . S
C1565 C1564 1.414 . S
C1565 C1566 1.374 . S
C1566 H1540 0.950 . S
C1566 C1562 1.385 . S
C1566 C1565 1.374 . S
C1567 C1564 1.499 . S
C1567 C1568 1.373 . S
C1567 C1569 1.389 . S
C1568 H1541 0.950 . S
C1568 C1554 1.377 . S
C1568 C1567 1.373 . S
C1569 C1553 1.377 . S
C1569 C1567 1.389 . S
C1569 C1570 1.524 . S
C1570 C1569 1.524 . S
C1570 C1571 1.397 . S
C1570 C1575 1.363 . S
C1571 H1542 0.950 . S
C1571 C1570 1.397 . S
C1571 C1572 1.334 . S
C1572 H1543 0.950 . S
C1572 C1571 1.334 . S
C1572 C1573 1.287 . S
C1573 C1572 1.287 . S
C1573 C1574 1.524 . S
C1573 H1576 0.999 . S
C1574 H1544 0.950 . S
C1574 C1573 1.524 . S
C1574 C1575 1.415 . S
C1575 H1545 0.950 . S
C1575 C1570 1.363 . S
C1575 C1574 1.415 . S
H1576 C1573 0.999 . S
H1577 C1558 0.913 . S
H1578 C1596 0.951 . S
H1579 C1598 0.951 . S
H1580 C1600 0.950 . S
H1581 C1601 0.950 . S
H1582 C1603 0.950 . S
H1583 C1606 0.950 . S
H1584 C1607 0.950 . S
H1585 C1609 0.950 . S
H1586 C1610 0.950 . S
H1587 C1611 0.951 . S
H1588 C1613 0.951 . S
H1589 C1615 0.950 . S
H1590 C1616 0.950 . S
H1591 C1618 0.950 . S
H1592 C1621 0.950 . S
H1593 C1622 0.950 . S
H1594 C1624 0.950 . S
H1595 C1625 0.950 . S
C1596 H1578 0.951 . S
C1596 C1597 1.366 . S
C1596 C1598 1.388 . S
C1597 C1596 1.366 . S
C1597 C1601 1.385 . S
C1598 H1579 0.951 . S
C1598 C1596 1.388 . S
C1598 C1599 1.366 . S
C1599 C1598 1.366 . S
C1599 C1600 1.414 . S
C1599 C1602 1.499 . S
C1600 H1580 0.950 . S
C1600 C1599 1.414 . S
C1600 C1601 1.374 . S
C1601 H1581 0.950 . S
C1601 C1597 1.385 . S
C1601 C1600 1.374 . S
C1602 C1599 1.499 . S
C1602 C1603 1.373 . S
C1602 C1604 1.389 . S
C1603 H1582 0.950 . S
C1603 C1602 1.373 . S
C1603 C1619 1.377 . S
C1604 C1602 1.389 . S
C1604 C1605 1.524 . S
C1604 C1618 1.377 . S
C1605 C1604 1.524 . S
C1605 C1606 1.397 . S
C1605 C1610 1.363 . S
C1606 H1583 0.950 . S
C1606 C1605 1.397 . S
C1606 C1607 1.334 . S
C1607 H1584 0.950 . S
C1607 C1606 1.334 . S
C1607 C1608 1.287 . S
C1608 C1607 1.287 . S
C1608 C1609 1.524 . S
C1608 H1627 0.913 . S
C1609 H1585 0.950 . S
C1609 C1608 1.524 . S
C1609 C1610 1.415 . S
C1610 H1586 0.950 . S
C1610 C1605 1.363 . S
C1610 C1609 1.415 . S
C1611 H1587 0.951 . S
C1611 C1612 1.366 . S
C1611 C1613 1.388 . S
C1612 C1611 1.366 . S
C1612 C1616 1.385 . S
C1613 H1588 0.951 . S
C1613 C1611 1.388 . S
C1613 C1614 1.366 . S
C1614 C1613 1.366 . S
C1614 C1615 1.414 . S
C1614 C1617 1.499 . S
C1615 H1589 0.950 . S
C1615 C1614 1.414 . S
C1615 C1616 1.374 . S
C1616 H1590 0.950 . S
C1616 C1612 1.385 . S
C1616 C1615 1.374 . S
C1617 C1614 1.499 . S
C1617 C1618 1.373 . S
C1617 C1619 1.389 . S
C1618 H1591 0.950 . S
C1618 C1604 1.377 . S
C1618 C1617 1.373 . S
C1619 C1603 1.377 . S
C1619 C1617 1.389 . S
C1619 C1620 1.524 . S
C1620 C1619 1.524 . S
C1620 C1621 1.397 . S
C1620 C1625 1.363 . S
C1621 H1592 0.950 . S
C1621 C1620 1.397 . S
C1621 C1622 1.334 . S
C1622 H1593 0.950 . S
C1622 C1621 1.334 . S
C1622 C1623 1.287 . S
C1623 C1622 1.287 . S
C1623 C1624 1.524 . S
C1623 H1626 0.999 . S
C1624 H1594 0.950 . S
C1624 C1623 1.524 . S
C1624 C1625 1.415 . S
C1625 H1595 0.950 . S
C1625 C1620 1.363 . S
C1625 C1624 1.415 . S
H1626 C1623 0.999 . S
H1627 C1608 0.913 . S
H1628 C1646 0.951 . S
H1629 C1648 0.951 . S
H1630 C1650 0.950 . S
H1631 C1651 0.950 . S
H1632 C1653 0.950 . S
H1633 C1656 0.950 . S
H1634 C1657 0.950 . S
H1635 C1659 0.950 . S
H1636 C1660 0.950 . S
H1637 C1661 0.951 . S
H1638 C1663 0.951 . S
H1639 C1665 0.950 . S
H1640 C1666 0.950 . S
H1641 C1668 0.950 . S
H1642 C1671 0.950 . S
H1643 C1672 0.950 . S
H1644 C1674 0.950 . S
H1645 C1675 0.950 . S
C1646 H1628 0.951 . S
C1646 C1647 1.366 . S
C1646 C1648 1.388 . S
C1647 C1646 1.366 . S
C1647 C1651 1.385 . S
C1648 H1629 0.951 . S
C1648 C1646 1.388 . S
C1648 C1649 1.366 . S
C1649 C1648 1.366 . S
C1649 C1650 1.414 . S
C1649 C1652 1.499 . S
C1650 H1630 0.950 . S
C1650 C1649 1.414 . S
C1650 C1651 1.374 . S
C1651 H1631 0.950 . S
C1651 C1647 1.385 . S
C1651 C1650 1.374 . S
C1652 C1649 1.499 . S
C1652 C1653 1.373 . S
C1652 C1654 1.389 . S
C1653 H1632 0.950 . S
C1653 C1652 1.373 . S
C1653 C1669 1.377 . S
C1654 C1652 1.389 . S
C1654 C1655 1.524 . S
C1654 C1668 1.377 . S
C1655 C1654 1.524 . S
C1655 C1656 1.397 . S
C1655 C1660 1.363 . S
C1656 H1633 0.950 . S
C1656 C1655 1.397 . S
C1656 C1657 1.334 . S
C1657 H1634 0.950 . S
C1657 C1656 1.334 . S
C1657 C1658 1.287 . S
C1658 C1657 1.287 . S
C1658 C1659 1.524 . S
C1658 H1677 0.913 . S
C1659 H1635 0.950 . S
C1659 C1658 1.524 . S
C1659 C1660 1.415 . S
C1660 H1636 0.950 . S
C1660 C1655 1.363 . S
C1660 C1659 1.415 . S
C1661 H1637 0.951 . S
C1661 C1662 1.366 . S
C1661 C1663 1.388 . S
C1662 C1661 1.366 . S
C1662 C1666 1.385 . S
C1663 H1638 0.951 . S
C1663 C1661 1.388 . S
C1663 C1664 1.366 . S
C1664 C1663 1.366 . S
C1664 C1665 1.414 . S
C1664 C1667 1.499 1_556 S
C1665 H1639 0.950 . S
C1665 C1664 1.414 . S
C1665 C1666 1.374 . S
C1666 H1640 0.950 . S
C1666 C1662 1.385 . S
C1666 C1665 1.374 . S
C1667 C1664 1.499 1_554 S
C1667 C1668 1.373 . S
C1667 C1669 1.389 . S
C1668 H1641 0.950 . S
C1668 C1654 1.377 . S
C1668 C1667 1.373 . S
C1669 C1653 1.377 . S
C1669 C1667 1.389 . S
C1669 C1670 1.524 1_554 S
C1670 C1669 1.524 1_556 S
C1670 C1671 1.397 . S
C1670 C1675 1.363 . S
C1671 H1642 0.950 . S
C1671 C1670 1.397 . S
C1671 C1672 1.334 . S
C1672 H1643 0.950 . S
C1672 C1671 1.334 . S
C1672 C1673 1.287 . S
C1673 C1672 1.287 . S
C1673 C1674 1.524 . S
C1673 H1676 0.999 . S
C1674 H1644 0.950 . S
C1674 C1673 1.524 . S
C1674 C1675 1.415 . S
C1675 H1645 0.950 . S
C1675 C1670 1.363 . S
C1675 C1674 1.415 . S
H1676 C1673 0.999 . S
H1677 C1658 0.913 . S
H1678 C1696 0.951 . S
H1679 C1698 0.951 . S
H1680 C1700 0.950 . S
H1681 C1701 0.950 . S
H1682 C1703 0.950 . S
H1683 C1706 0.950 . S
H1684 C1707 0.950 . S
H1685 C1709 0.950 . S
H1686 C1710 0.950 . S
H1687 C1711 0.951 . S
H1688 C1713 0.951 . S
H1689 C1715 0.950 . S
H1690 C1716 0.950 . S
H1691 C1718 0.950 . S
H1692 C1721 0.950 . S
H1693 C1722 0.950 . S
H1694 C1724 0.950 . S
H1695 C1725 0.950 . S
C1696 H1678 0.951 . S
C1696 C1697 1.366 . S
C1696 C1698 1.388 . S
C1697 C1696 1.366 . S
C1697 C1701 1.385 . S
C1698 H1679 0.951 . S
C1698 C1696 1.388 . S
C1698 C1699 1.366 . S
C1699 C1698 1.366 . S
C1699 C1700 1.414 . S
C1699 C1702 1.499 . S
C1700 H1680 0.950 . S
C1700 C1699 1.414 . S
C1700 C1701 1.374 . S
C1701 H1681 0.950 . S
C1701 C1697 1.385 . S
C1701 C1700 1.374 . S
C1702 C1699 1.499 . S
C1702 C1703 1.373 . S
C1702 C1704 1.389 . S
C1703 H1682 0.950 . S
C1703 C1702 1.373 . S
C1703 C1719 1.377 . S
C1704 C1702 1.389 . S
C1704 C1705 1.524 . S
C1704 C1718 1.377 . S
C1705 C1704 1.524 . S
C1705 C1706 1.397 . S
C1705 C1710 1.363 . S
C1706 H1683 0.950 . S
C1706 C1705 1.397 . S
C1706 C1707 1.334 . S
C1707 H1684 0.950 . S
C1707 C1706 1.334 . S
C1707 C1708 1.287 . S
C1708 C1707 1.287 . S
C1708 C1709 1.524 . S
C1708 H1727 0.913 . S
C1709 H1685 0.950 . S
C1709 C1708 1.524 . S
C1709 C1710 1.415 . S
C1710 H1686 0.950 . S
C1710 C1705 1.363 . S
C1710 C1709 1.415 . S
C1711 H1687 0.951 . S
C1711 C1712 1.366 . S
C1711 C1713 1.388 . S
C1712 C1711 1.366 . S
C1712 C1716 1.385 . S
C1713 H1688 0.951 . S
C1713 C1711 1.388 . S
C1713 C1714 1.366 . S
C1714 C1713 1.366 . S
C1714 C1715 1.414 . S
C1714 C1717 1.499 . S
C1715 H1689 0.950 . S
C1715 C1714 1.414 . S
C1715 C1716 1.374 . S
C1716 H1690 0.950 . S
C1716 C1712 1.385 . S
C1716 C1715 1.374 . S
C1717 C1714 1.499 . S
C1717 C1718 1.373 . S
C1717 C1719 1.389 . S
C1718 H1691 0.950 . S
C1718 C1704 1.377 . S
C1718 C1717 1.373 . S
C1719 C1703 1.377 . S
C1719 C1717 1.389 . S
C1719 C1720 1.524 . S
C1720 C1719 1.524 . S
C1720 C1721 1.397 . S
C1720 C1725 1.363 . S
C1721 H1692 0.950 . S
C1721 C1720 1.397 . S
C1721 C1722 1.334 . S
C1722 H1693 0.950 . S
C1722 C1721 1.334 . S
C1722 C1723 1.287 . S
C1723 C1722 1.287 . S
C1723 C1724 1.524 . S
C1723 H1726 0.999 . S
C1724 H1694 0.950 . S
C1724 C1723 1.524 . S
C1724 C1725 1.415 . S
C1725 H1695 0.950 . S
C1725 C1720 1.363 . S
C1725 C1724 1.415 . S
H1726 C1723 0.999 . S
H1727 C1708 0.913 . S
C562 C521 1.263 . S
C547 C51 1.245 . S
C597 C125 1.323 . S
C612 C455 1.302 . S
C647 C217 2.523 . S
C662 C469 2.519 . S
C697 C291 1.371 . S
C712 C483 1.346 . S
C762 C497 0.713 . S
C747 C347 0.712 . S
C797 C421 0.635 . S
C812 C507 0.634 . S
C847 C143 2.392 . S
C862 C465 2.396 . S
C897 C199 1.572 . S
C912 C479 1.592 . S
C947 C273 0.246 . S
C962 C493 0.223 . S
C1012 C511 1.568 . S
C997 C365 1.574 . S
C1062 C525 1.758 . S
C1047 C439 1.804 . S
C1112 C451 2.495 . S
C1097 C69 2.466 . S
C1147 C63 1.304 . S
C1162 C466 1.346 . S
C1197 C137 1.607 . S
C1212 C480 1.629 . S
C1262 C494 1.345 . S
C1247 C187 1.316 . S
C1297 C261 1.400 . S
C1312 C513 1.381 . S
C1362 C527 1.269 . S
C1347 C359 1.280 . S
C1412 C452 0.887 . S
C1397 C433 0.879 . S
C1462 C522 1.562 . S
C1447 C113 1.582 . S
C1497 C211 1.073 . S
C1512 C457 1.089 . S
C1562 C471 1.305 . S
C1547 C285 1.267 . S
C1597 C335 1.251 . S
C1612 C485 1.235 . S
C1647 C409 1.242 . S
C1662 C499 1.243 . S
C1697 C39 1.641 . S
C1712 C508 1.635 . S
