# Generated by pormake.
# Topology zzz, (3,6)-cn, num edge types: 1
# Building blocks:
#     Node 0, Type 0, BuildingBlock: VETTIZ_charged_linker_0, # of connection points: 3
#     Node 1, Type 0, BuildingBlock: VETTIZ_charged_linker_0, # of connection points: 3
#     Node 2, Type 0, BuildingBlock: VETTIZ_charged_linker_0, # of connection points: 3
#     Node 3, Type 0, BuildingBlock: VETTIZ_charged_linker_0, # of connection points: 3
#     Node 4, Type 0, BuildingBlock: VETTIZ_charged_linker_0, # of connection points: 3
#     Node 5, Type 0, BuildingBlock: VETTIZ_charged_linker_0, # of connection points: 3
#     Node 6, Type 0, BuildingBlock: VETTIZ_charged_linker_0, # of connection points: 3
#     Node 7, Type 0, BuildingBlock: VETTIZ_charged_linker_0, # of connection points: 3
#     Node 8, Type 1, BuildingBlock: MIFKUJ_clean_sbu_0, # of connection points: 6
#     Node 9, Type 1, BuildingBlock: MIFKUJ_clean_sbu_0, # of connection points: 6
#     Node 10, Type 1, BuildingBlock: MIFKUJ_clean_sbu_0, # of connection points: 6
#     Node 11, Type 1, BuildingBlock: MIFKUJ_clean_sbu_0, # of connection points: 6
#     Edge 12, Type (0, 1), BuildingBlock: OJICUG_clean_linker_0, # of connection points: 2
#     Edge 13, Type (0, 1), BuildingBlock: OJICUG_clean_linker_0, # of connection points: 2
#     Edge 14, Type (0, 1), BuildingBlock: OJICUG_clean_linker_0, # of connection points: 2
#     Edge 15, Type (0, 1), BuildingBlock: OJICUG_clean_linker_0, # of connection points: 2
#     Edge 16, Type (0, 1), BuildingBlock: OJICUG_clean_linker_0, # of connection points: 2
#     Edge 17, Type (0, 1), BuildingBlock: OJICUG_clean_linker_0, # of connection points: 2
#     Edge 18, Type (0, 1), BuildingBlock: OJICUG_clean_linker_0, # of connection points: 2
#     Edge 19, Type (0, 1), BuildingBlock: OJICUG_clean_linker_0, # of connection points: 2
#     Edge 20, Type (0, 1), BuildingBlock: OJICUG_clean_linker_0, # of connection points: 2
#     Edge 21, Type (0, 1), BuildingBlock: OJICUG_clean_linker_0, # of connection points: 2
#     Edge 22, Type (0, 1), BuildingBlock: OJICUG_clean_linker_0, # of connection points: 2
#     Edge 23, Type (0, 1), BuildingBlock: OJICUG_clean_linker_0, # of connection points: 2
#     Edge 24, Type (0, 1), BuildingBlock: OJICUG_clean_linker_0, # of connection points: 2
#     Edge 25, Type (0, 1), BuildingBlock: OJICUG_clean_linker_0, # of connection points: 2
#     Edge 26, Type (0, 1), BuildingBlock: OJICUG_clean_linker_0, # of connection points: 2
#     Edge 27, Type (0, 1), BuildingBlock: OJICUG_clean_linker_0, # of connection points: 2
#     Edge 28, Type (0, 1), BuildingBlock: OJICUG_clean_linker_0, # of connection points: 2
#     Edge 29, Type (0, 1), BuildingBlock: OJICUG_clean_linker_0, # of connection points: 2
#     Edge 30, Type (0, 1), BuildingBlock: OJICUG_clean_linker_0, # of connection points: 2
#     Edge 31, Type (0, 1), BuildingBlock: OJICUG_clean_linker_0, # of connection points: 2
#     Edge 32, Type (0, 1), BuildingBlock: OJICUG_clean_linker_0, # of connection points: 2
#     Edge 33, Type (0, 1), BuildingBlock: OJICUG_clean_linker_0, # of connection points: 2
#     Edge 34, Type (0, 1), BuildingBlock: OJICUG_clean_linker_0, # of connection points: 2
#     Edge 35, Type (0, 1), BuildingBlock: OJICUG_clean_linker_0, # of connection points: 2
# Relax obj value: 0.331
# Max RMSD: 0.212
# Mean RMSD: 0.194
data_MOF--net-zzz--node1-MIFKUJ_clean_sbu_0--node2-VETTIZ_charged_linker_0--edge1-OJICUG_clean_linker_0
_symmetry_space_group_name_H-M    P1
_symmetry_Int_Tables_number       1
_symmetry_cell_setting            triclinic
loop_
_symmetry_equiv_pos_as_xyz
'x, y, z'
_cell_length_a     43.393298
_cell_length_b     44.202528
_cell_length_c     16.683773
_cell_angle_alpha  89.555611
_cell_angle_beta   89.805578
_cell_angle_gamma 91.647461
loop_
_atom_site_label
_atom_site_type_symbol
_atom_site_fract_x
_atom_site_fract_y
_atom_site_fract_z
_atom_type_partial_charge
C0 C 0.79036 0.54364 0.27384 0.0
C1 C 0.81929 0.55454 0.30342 0.0
C2 C 0.83213 0.58187 0.27149 0.0
C3 C 0.79486 0.57991 0.16638 0.0
C4 C 0.77779 0.55795 0.20591 0.0
C5 C 0.74747 0.55225 0.162 0.0
H6 H 0.67829 0.55887 0.79254 0.0
C7 C 0.78332 0.58303 0.08564 0.0
C8 C 0.75384 0.56916 0.08247 0.0
H9 H 0.63216 0.53452 0.01449 0.0
H10 H 0.68046 0.54318 0.0871 0.0
H11 H 0.71876 0.61639 0.84895 0.0
H12 H 0.72867 0.52367 0.81081 0.0
H13 H 0.76737 0.53297 0.83305 0.0
H14 H 0.74886 0.54931 0.7464 0.0
H15 H 0.72064 0.59592 0.75638 0.0
H16 H 0.755 0.61151 0.80241 0.0
C17 C 0.72191 0.56711 0.21122 0.0
C18 C 0.74156 0.51808 0.14997 0.0
C19 C 0.86367 0.56371 0.87929 0.0
C20 C 0.85913 0.55117 0.80284 0.0
C21 C 0.83277 0.55962 0.7594 0.0
C22 C 0.80931 0.57531 0.79705 0.0
C23 C 0.81121 0.58042 0.87957 0.0
C24 C 0.83888 0.5769 0.91833 0.0
C25 C 0.83622 0.5817 0.00718 0.0
C26 C 0.80136 0.58618 0.01515 0.0
C27 C 0.78694 0.5837 0.94042 0.0
C28 C 0.85612 0.60992 0.02995 0.0
C29 C 0.8468 0.55272 0.05123 0.0
C30 C 0.67803 0.55633 0.85718 0.0
C31 C 0.65103 0.54701 0.89774 0.0
C32 C 0.65252 0.54217 0.98161 0.0
C33 C 0.68035 0.5476 0.02386 0.0
C34 C 0.70689 0.55784 0.9818 0.0
C35 C 0.70526 0.56159 0.89962 0.0
C36 C 0.73566 0.57012 0.86221 0.0
C37 C 0.75526 0.57488 0.93637 0.0
C38 C 0.7387 0.56698 0.00673 0.0
C39 C 0.73246 0.60002 0.81441 0.0
C40 C 0.74583 0.54287 0.81043 0.0
H41 H 0.82975 0.61533 0.17752 0.0
H42 H 0.77889 0.52393 0.30043 0.0
H43 H 0.76147 0.50802 0.11884 0.0
H44 H 0.72079 0.51348 0.11338 0.0
H45 H 0.73819 0.50629 0.20852 0.0
H46 H 0.72947 0.59014 0.23091 0.0
H47 H 0.71622 0.55341 0.2657 0.0
H48 H 0.70067 0.57023 0.17664 0.0
H49 H 0.8848 0.56022 0.91169 0.0
H50 H 0.8286 0.55207 0.69888 0.0
H51 H 0.78949 0.58077 0.76238 0.0
H52 H 0.87633 0.61311 0.98925 0.0
H53 H 0.8661 0.60766 0.09063 0.0
H54 H 0.84254 0.63083 0.02678 0.0
H55 H 0.83256 0.53267 0.03268 0.0
H56 H 0.8454 0.55441 0.11694 0.0
H57 H 0.87135 0.54825 0.03838 0.0
H58 H 0.85341 0.59166 0.29471 0.0
C59 C 0.81956 0.59491 0.20302 0.0
C60 C 0.97691 0.80799 0.7448 0.0
C61 C 0.97423 0.83945 0.75078 0.0
C62 C 0.95313 0.85127 0.80617 0.0
C63 C 0.94605 0.80175 0.8646 0.0
C64 C 0.96189 0.78941 0.80175 0.0
C65 C 0.96287 0.75563 0.809 0.0
H66 H 0.98834 0.63537 0.00858 0.0
C67 C 0.94177 0.77863 0.92713 0.0
C68 C 0.94796 0.75093 0.8919 0.0
H69 H 0.93806 0.64015 0.78423 0.0
H70 H 0.92482 0.69184 0.81451 0.0
H71 H 0.02102 0.70912 0.01225 0.0
H72 H 0.93081 0.67985 0.10356 0.0
H73 H 0.95466 0.69971 0.17348 0.0
H74 H 0.96524 0.66285 0.14049 0.0
H75 H 0.01756 0.67992 0.08785 0.0
H76 H 0.01364 0.71898 0.11358 0.0
C77 C 0.99664 0.74543 0.80772 0.0
C78 C 0.94429 0.74162 0.73911 0.0
C79 C 0.96034 0.81911 0.20499 0.0
C80 C 0.97609 0.80849 0.27204 0.0
C81 C 0.98521 0.778 0.27296 0.0
C82 C 0.9787 0.75871 0.2073 0.0
C83 C 0.964 0.77038 0.13904 0.0
C84 C 0.95568 0.80041 0.13884 0.0
C85 C 0.94467 0.81112 0.05894 0.0
C86 C 0.94615 0.78212 0.01106 0.0
C87 C 0.957 0.75785 0.05823 0.0
C88 C 0.96724 0.83675 0.02783 0.0
C89 C 0.91111 0.82137 0.0679 0.0
C90 C 0.97583 0.64795 0.96397 0.0
C91 C 0.96565 0.63391 0.89179 0.0
C92 C 0.94732 0.65042 0.83812 0.0
C93 C 0.94094 0.68046 0.85236 0.0
C94 C 0.95447 0.69471 0.91769 0.0
C95 C 0.96886 0.6787 0.97679 0.0
C96 C 0.97354 0.69865 0.05061 0.0
C97 C 0.96003 0.72875 0.022 0.0
C98 C 0.9516 0.72564 0.94176 0.0
C99 C 0.00834 0.70187 0.06751 0.0
C100 C 0.95515 0.68455 0.1213 0.0
H101 H 0.92299 0.84177 0.90525 0.0
H102 H 0.99174 0.7984 0.6999 0.0
H103 H 0.94852 0.75451 0.68244 0.0
H104 H 0.91913 0.74163 0.75179 0.0
H105 H 0.95154 0.71833 0.72612 0.0
H106 H 0.01017 0.75657 0.85631 0.0
H107 H 0.00789 0.75109 0.74941 0.0
H108 H 0.99781 0.72057 0.81612 0.0
H109 H 0.95395 0.8426 0.20101 0.0
H110 H 0.99769 0.76926 0.32384 0.0
H111 H 0.98618 0.73581 0.21064 0.0
H112 H 0.98204 0.84669 0.0756 0.0
H113 H 0.9548 0.85624 0.00303 0.0
H114 H 0.98349 0.82832 0.98213 0.0
H115 H 0.89719 0.80466 0.104 0.0
H116 H 0.89943 0.82324 0.00937 0.0
H117 H 0.91039 0.84361 0.09836 0.0
H118 H 0.94985 0.87541 0.81011 0.0
C119 C 0.93848 0.83223 0.8626 0.0
C120 C 0.85473 0.96695 0.94456 0.0
C121 C 0.86698 0.95477 0.87312 0.0
C122 C 0.85033 0.93119 0.83431 0.0
C123 C 0.80839 0.93615 0.92709 0.0
C124 C 0.82547 0.95644 0.97186 0.0
C125 C 0.80869 0.96347 0.04951 0.0
H126 H 0.67557 0.9409 0.26904 0.0
C127 C 0.77894 0.93014 0.96615 0.0
C128 C 0.77909 0.94388 0.04132 0.0
H129 H 0.75227 1.00073 0.32811 0.0
H130 H 0.78058 0.98306 0.21166 0.0
H131 H 0.66183 0.95467 0.13504 0.0
H132 H 0.71394 0.88184 0.19137 0.0
H133 H 0.68965 0.87348 0.1085 0.0
H134 H 0.67349 0.8896 0.19748 0.0
H135 H 0.65157 0.92149 0.08376 0.0
H136 H 0.67561 0.95075 0.03606 0.0
C137 C 0.80204 0.99758 0.04965 0.0
C138 C 0.82856 0.95331 0.12071 0.0
C139 C 0.68203 0.93028 0.80887 0.0
C140 C 0.65111 0.92641 0.83514 0.0
C141 C 0.645 0.90655 0.90049 0.0
C142 C 0.66919 0.89694 0.94902 0.0
C143 C 0.69909 0.90773 0.93182 0.0
C144 C 0.70579 0.92021 0.85798 0.0
C145 C 0.73994 0.92597 0.84728 0.0
C146 C 0.75125 0.91899 0.93227 0.0
C147 C 0.72627 0.91183 0.98302 0.0
C148 C 0.74679 0.95935 0.82312 0.0
C149 C 0.75171 0.90416 0.78301 0.0
C150 C 0.69879 0.94972 0.25827 0.0
C151 C 0.7118 0.97186 0.30837 0.0
C152 C 0.74171 0.98354 0.2904 0.0
C153 C 0.75798 0.97341 0.22261 0.0
C154 C 0.74372 0.95229 0.17075 0.0
C155 C 0.71438 0.94118 0.18907 0.0
C156 C 0.70047 0.92224 0.1237 0.0
C157 C 0.72683 0.92263 0.06328 0.0
C158 C 0.75245 0.93997 0.09139 0.0
C159 C 0.67101 0.93792 0.09256 0.0
C160 C 0.69386 0.89 0.15691 0.0
H161 H 0.81007 0.90198 0.83563 0.0
H162 H 0.86761 0.98392 0.97805 0.0
H163 H 0.83705 0.93014 0.1105 0.0
H164 H 0.81555 0.95224 0.17759 0.0
H165 H 0.84892 0.96883 0.12826 0.0
H166 H 0.79234 0.00462 0.99097 0.0
H167 H 0.82354 0.01123 0.05998 0.0
H168 H 0.78491 0.00358 0.0953 0.0
H169 H 0.68801 0.94382 0.7567 0.0
H170 H 0.62155 0.90081 0.91856 0.0
H171 H 0.66395 0.88339 0.00134 0.0
H172 H 0.73682 0.97493 0.86768 0.0
H173 H 0.73711 0.96455 0.76322 0.0
H174 H 0.77196 0.96425 0.81924 0.0
H175 H 0.7348 0.90151 0.73343 0.0
H176 H 0.75563 0.88135 0.80893 0.0
H177 H 0.77316 0.91309 0.75409 0.0
H178 H 0.85948 0.9206 0.78133 0.0
C179 C 0.82135 0.9214 0.86233 0.0
C180 C 0.48374 0.72108 0.24218 0.0
C181 C 0.4672 0.69738 0.28281 0.0
C182 C 0.43613 0.69113 0.26193 0.0
C183 C 0.44155 0.72459 0.14926 0.0
C184 C 0.46955 0.73536 0.17644 0.0
C185 C 0.47992 0.763 0.1274 0.0
H186 H 0.45641 0.84482 0.78187 0.0
C187 C 0.43502 0.73828 0.07243 0.0
C188 C 0.45587 0.76262 0.05999 0.0
H189 H 0.51825 0.86934 0.97417 0.0
H190 H 0.50343 0.82284 0.04615 0.0
H191 H 0.47559 0.785 0.76375 0.0
H192 H 0.39765 0.81747 0.88201 0.0
H193 H 0.38684 0.78474 0.8266 0.0
H194 H 0.40612 0.81616 0.77647 0.0
H195 H 0.43868 0.77677 0.72288 0.0
H196 H 0.4571 0.75017 0.7888 0.0
C197 C 0.51281 0.7585 0.09537 0.0
C198 C 0.47725 0.79107 0.18126 0.0
C199 C 0.40387 0.66496 0.85975 0.0
C200 C 0.40657 0.66842 0.77642 0.0
C201 C 0.40262 0.69726 0.74202 0.0
C202 C 0.40176 0.72288 0.79079 0.0
C203 C 0.40611 0.71942 0.87356 0.0
C204 C 0.40457 0.69083 0.9077 0.0
C205 C 0.41044 0.69145 0.99646 0.0
C206 C 0.41893 0.72505 0.00748 0.0
C207 C 0.41771 0.74083 0.93449 0.0
C208 C 0.43774 0.67079 0.01646 0.0
C209 C 0.38048 0.68107 0.04056 0.0
C210 C 0.46635 0.84046 0.84018 0.0
C211 C 0.48783 0.861 0.87343 0.0
C212 C 0.50131 0.85394 0.94792 0.0
C213 C 0.4924 0.82727 0.99003 0.0
C214 C 0.47002 0.80744 0.95681 0.0
C215 C 0.45805 0.81393 0.88206 0.0
C216 C 0.43687 0.7892 0.85167 0.0
C217 C 0.435 0.76845 0.92458 0.0
C218 C 0.45472 0.77899 0.98607 0.0
C219 C 0.45263 0.77446 0.77814 0.0
C220 C 0.40512 0.80252 0.83269 0.0
H221 H 0.39913 0.70109 0.18234 0.0
H222 H 0.50683 0.72781 0.26042 0.0
H223 H 0.45608 0.78929 0.21902 0.0
H224 H 0.47513 0.81223 0.14661 0.0
H225 H 0.49737 0.79331 0.222 0.0
H226 H 0.51405 0.73652 0.06368 0.0
H227 H 0.52969 0.75845 0.14528 0.0
H228 H 0.52012 0.7764 0.05228 0.0
H229 H 0.40598 0.64284 0.88706 0.0
H230 H 0.4036 0.7003 0.67755 0.0
H231 H 0.40007 0.74456 0.7623 0.0
H232 H 0.45862 0.67788 0.9815 0.0
H233 H 0.43198 0.64675 0.00292 0.0
H234 H 0.44377 0.67115 0.08064 0.0
H235 H 0.36576 0.66595 0.00277 0.0
H236 H 0.36647 0.7007 0.05751 0.0
H237 H 0.38542 0.66743 0.0948 0.0
H238 H 0.42235 0.67419 0.29422 0.0
C239 C 0.42304 0.70528 0.19604 0.0
C240 C 0.36986 0.44044 0.22177 0.0
C241 C 0.38654 0.42947 0.28882 0.0
C242 C 0.37385 0.40491 0.33395 0.0
C243 C 0.3273 0.4069 0.25819 0.0
C244 C 0.34021 0.42779 0.20599 0.0
C245 C 0.31808 0.43359 0.13683 0.0
H246 H 0.17233 0.40049 0.99096 0.0
C247 C 0.29613 0.39974 0.23456 0.0
C248 C 0.29034 0.41277 0.15987 0.0
H249 H 0.23831 0.46468 0.88833 0.0
H250 H 0.27633 0.45005 0.98836 0.0
H251 H 0.21855 0.34509 0.05624 0.0
H252 H 0.16802 0.41759 0.1248 0.0
H253 H 0.18871 0.41634 0.21524 0.0
H254 H 0.16293 0.38532 0.18515 0.0
H255 H 0.178 0.35136 0.06902 0.0
H256 H 0.20091 0.33805 0.15109 0.0
C257 C 0.33329 0.42396 0.05791 0.0
C258 C 0.3098 0.46726 0.13753 0.0
C259 C 0.21171 0.40493 0.43359 0.0
C260 C 0.17992 0.39897 0.42344 0.0
C261 C 0.17012 0.37701 0.36733 0.0
C262 C 0.1911 0.36565 0.31229 0.0
C263 C 0.22121 0.37755 0.31241 0.0
C264 C 0.23223 0.39328 0.37758 0.0
C265 C 0.26628 0.39982 0.37014 0.0
C266 C 0.27184 0.38927 0.28396 0.0
C267 C 0.24409 0.38018 0.24812 0.0
C268 C 0.28295 0.38114 0.43431 0.0
C269 C 0.27347 0.43407 0.37999 0.0
C270 C 0.19525 0.41082 0.9877 0.0
C271 C 0.20228 0.4334 0.93094 0.0
C272 C 0.23217 0.44713 0.93162 0.0
C273 C 0.2541 0.4388 0.98987 0.0
C274 C 0.24559 0.41749 0.04972 0.0
C275 C 0.21629 0.40432 0.04789 0.0
C276 C 0.20825 0.38656 0.12198 0.0
C277 C 0.23843 0.38932 0.16759 0.0
C278 C 0.26068 0.40718 0.12473 0.0
C279 C 0.20088 0.35342 0.09854 0.0
C280 C 0.18077 0.40206 0.16442 0.0
H281 H 0.33566 0.37358 0.35001 0.0
H282 H 0.37948 0.45834 0.18385 0.0
H283 H 0.30246 0.474 0.19865 0.0
H284 H 0.29057 0.47222 0.09697 0.0
H285 H 0.33003 0.48181 0.11975 0.0
H286 H 0.34191 0.40059 0.06357 0.0
H287 H 0.35317 0.43937 0.04263 0.0
H288 H 0.31702 0.42391 0.00727 0.0
H289 H 0.22 0.42044 0.47902 0.0
H290 H 0.14598 0.37036 0.36232 0.0
H291 H 0.18304 0.35001 0.26743 0.0
H292 H 0.27043 0.38164 0.49254 0.0
H293 H 0.3063 0.39071 0.44675 0.0
H294 H 0.28457 0.35711 0.416 0.0
H295 H 0.26041 0.44747 0.33554 0.0
H296 H 0.2984 0.43939 0.37142 0.0
H297 H 0.26739 0.44172 0.44112 0.0
H298 H 0.38612 0.39536 0.38412 0.0
C299 C 0.34448 0.39319 0.31756 0.0
C300 C 0.88005 0.17407 0.3552 0.0
C301 C 0.87162 0.14588 0.32118 0.0
C302 C 0.86604 0.14494 0.23789 0.0
C303 C 0.89082 0.19428 0.22313 0.0
C304 C 0.88956 0.19802 0.30479 0.0
C305 C 0.90364 0.22797 0.32986 0.0
H306 H 0.00435 0.34373 0.2569 0.0
C307 C 0.91119 0.21848 0.18952 0.0
C308 C 0.91782 0.23905 0.2508 0.0
H309 H 0.94296 0.32912 0.45926 0.0
H310 H 0.91989 0.2859 0.39521 0.0
H311 H 0.0177 0.26858 0.23132 0.0
H312 H 0.95224 0.32609 0.11236 0.0
H313 H 0.97371 0.30489 0.04318 0.0
H314 H 0.99315 0.33308 0.1034 0.0
H315 H 0.03022 0.30053 0.17099 0.0
H316 H 0.01934 0.26502 0.12608 0.0
C317 C 0.92852 0.22225 0.39441 0.0
C318 C 0.87716 0.24828 0.35836 0.0
C319 C 0.96743 0.1934 0.93521 0.0
C320 C 0.99303 0.20584 0.8947 0.0
C321 C 0.00557 0.23401 0.91968 0.0
C322 C 0.99332 0.24868 0.98739 0.0
C323 C 0.96852 0.23483 0.03026 0.0
C324 C 0.95579 0.20788 0.00225 0.0
C325 C 0.93028 0.19531 0.05403 0.0
C326 C 0.92925 0.21921 0.11853 0.0
C327 C 0.95202 0.24225 0.1059 0.0
C328 C 0.94081 0.16429 0.08671 0.0
C329 C 0.90014 0.19352 0.00415 0.0
C330 C 0.98593 0.33102 0.28693 0.0
C331 C 0.97578 0.3395 0.36406 0.0
C332 C 0.9516 0.32269 0.40097 0.0
C333 C 0.93801 0.29768 0.36342 0.0
C334 C 0.94897 0.28864 0.28853 0.0
C335 C 0.97219 0.30526 0.25031 0.0
C336 C 0.98011 0.29152 0.16998 0.0
C337 C 0.95684 0.26489 0.16585 0.0
C338 C 0.93935 0.26328 0.23696 0.0
C339 C 0.01367 0.2809 0.17408 0.0
C340 C 0.97471 0.31511 0.10327 0.0
H341 H 0.87341 0.16643 0.12498 0.0
H342 H 0.88307 0.17655 0.41906 0.0
H343 H 0.85397 0.23882 0.34227 0.0
H344 H 0.87848 0.27102 0.32961 0.0
H345 H 0.87733 0.25098 0.4245 0.0
H346 H 0.9434 0.20341 0.37606 0.0
H347 H 0.91774 0.2161 0.45298 0.0
H348 H 0.94421 0.24188 0.40437 0.0
H349 H 0.957 0.17211 0.91589 0.0
H350 H 0.02514 0.24423 0.88814 0.0
H351 H 0.00377 0.26996 0.00449 0.0
H352 H 0.96411 0.16664 0.11401 0.0
H353 H 0.94201 0.14745 0.03781 0.0
H354 H 0.92572 0.15422 0.13316 0.0
H355 H 0.90187 0.2074 0.9483 0.0
H356 H 0.88031 0.20268 0.0373 0.0
H357 H 0.89441 0.16989 0.98613 0.0
H358 H 0.85736 0.12438 0.21002 0.0
C359 C 0.87561 0.16921 0.18846 0.0
C360 C 0.29801 0.07701 0.93476 0.0
C361 C 0.3266 0.09215 0.91512 0.0
C362 C 0.3324 0.12146 0.94644 0.0
C363 C 0.28947 0.11445 0.03497 0.0
C364 C 0.27899 0.08958 0.99414 0.0
C365 C 0.24766 0.07921 0.02803 0.0
H366 H 0.15466 0.08513 0.36425 0.0
C367 C 0.27296 0.11638 0.10982 0.0
C368 C 0.24625 0.09789 0.10548 0.0
H369 H 0.12839 0.0454 0.13835 0.0
H370 H 0.17927 0.05929 0.08268 0.0
H371 H 0.21109 0.0561 0.37649 0.0
H372 H 0.1929 0.14563 0.30642 0.0
H373 H 0.22511 0.14577 0.37185 0.0
H374 H 0.18925 0.12803 0.40374 0.0
H375 H 0.22193 0.08616 0.44129 0.0
H376 H 0.24905 0.07111 0.37052 0.0
C377 C 0.24709 0.04493 0.04506 0.0
C378 C 0.22296 0.08853 0.96715 0.0
C379 C 0.34375 0.11665 0.34551 0.0
C380 C 0.33816 0.11049 0.42656 0.0
C381 C 0.30834 0.11354 0.45816 0.0
C382 C 0.28366 0.11945 0.40674 0.0
C383 C 0.28909 0.12136 0.32372 0.0
C384 C 0.31894 0.12192 0.2949 0.0
C385 C 0.32058 0.12415 0.20534 0.0
C386 C 0.28617 0.12312 0.185 0.0
C387 C 0.2682 0.11958 0.2544 0.0
C388 C 0.33749 0.0962 0.17334 0.0
C389 C 0.33742 0.15428 0.18175 0.0
C390 C 0.15936 0.08027 0.30189 0.0
C391 C 0.13717 0.06532 0.25476 0.0
C392 C 0.14493 0.05766 0.17523 0.0
C393 C 0.17416 0.066 0.14274 0.0
C394 C 0.19578 0.08175 0.19071 0.0
C395 C 0.18825 0.08789 0.26952 0.0
C396 C 0.2147 0.10141 0.31562 0.0
C397 C 0.23811 0.1064 0.249 0.0
C398 C 0.22733 0.09455 0.17556 0.0
C399 C 0.22481 0.07771 0.37929 0.0
C400 C 0.20504 0.13184 0.35185 0.0
H401 H 0.31807 0.15506 0.03002 0.0
H402 H 0.29157 0.05559 0.90767 0.0
H403 H 0.22657 0.11262 0.94877 0.0
H404 H 0.19941 0.08654 0.99161 0.0
H405 H 0.22417 0.07442 0.91242 0.0
H406 H 0.26657 0.03899 0.08479 0.0
H407 H 0.24915 0.03205 0.98848 0.0
H408 H 0.22545 0.03735 0.07515 0.0
H409 H 0.3669 0.11552 0.32147 0.0
H410 H 0.30394 0.10978 0.52146 0.0
H411 H 0.26116 0.12123 0.43263 0.0
H412 H 0.32508 0.07488 0.19166 0.0
H413 H 0.36143 0.09554 0.19633 0.0
H414 H 0.33969 0.0963 0.10747 0.0
H415 H 0.35391 0.16202 0.22868 0.0
H416 H 0.32081 0.17265 0.17229 0.0
H417 H 0.3517 0.15182 0.12713 0.0
H418 H 0.35303 0.1346 0.9312 0.0
C419 C 0.31336 0.13293 0.00552 0.0
C420 C 0.53803 0.28801 0.93966 0.0
C421 C 0.55166 0.31142 0.89216 0.0
C422 C 0.58175 0.32203 0.90959 0.0
C423 C 0.58096 0.29261 0.03139 0.0
C424 C 0.55389 0.27814 0.00834 0.0
C425 C 0.54545 0.25246 0.06593 0.0
H426 H 0.56548 0.19182 0.43868 0.0
C427 C 0.5886 0.28277 0.1126 0.0
C428 C 0.56897 0.25808 0.13272 0.0
H429 H 0.51525 0.1509 0.24224 0.0
H430 H 0.52895 0.19431 0.15691 0.0
H431 H 0.62543 0.21518 0.33985 0.0
H432 H 0.54193 0.2549 0.41644 0.0
H433 H 0.5666 0.28646 0.39873 0.0
H434 H 0.57624 0.25901 0.4747 0.0
H435 H 0.61448 0.22282 0.44156 0.0
H436 H 0.63433 0.25113 0.38123 0.0
C437 C 0.55057 0.22202 0.02303 0.0
C438 C 0.51208 0.2559 0.09604 0.0
C439 C 0.63738 0.36252 0.28992 0.0
C440 C 0.63421 0.36644 0.37309 0.0
C441 C 0.62887 0.34041 0.42151 0.0
C442 C 0.62254 0.31215 0.38687 0.0
C443 C 0.62023 0.31003 0.30324 0.0
C444 C 0.6286 0.33471 0.25593 0.0
C445 C 0.62101 0.3298 0.16896 0.0
C446 C 0.60565 0.2983 0.17281 0.0
C447 C 0.60529 0.28698 0.25154 0.0
C448 C 0.65136 0.33052 0.11943 0.0
C449 C 0.59817 0.35444 0.14309 0.0
C450 C 0.55716 0.19217 0.37756 0.0
C451 C 0.53925 0.16788 0.34738 0.0
C452 C 0.52929 0.1692 0.26684 0.0
C453 C 0.53733 0.19422 0.21737 0.0
C454 C 0.55577 0.21797 0.24847 0.0
C455 C 0.56533 0.21662 0.32737 0.0
C456 C 0.58491 0.2437 0.35057 0.0
C457 C 0.58797 0.26012 0.27062 0.0
C458 C 0.57013 0.2455 0.21142 0.0
C459 C 0.61649 0.23279 0.38038 0.0
C460 C 0.56674 0.26198 0.41349 0.0
H461 H 0.61923 0.3216 0.99105 0.0
H462 H 0.51554 0.27843 0.92485 0.0
H463 H 0.50912 0.27882 0.12149 0.0
H464 H 0.50587 0.23921 0.14346 0.0
H465 H 0.4954 0.25279 0.04622 0.0
H466 H 0.56624 0.22485 0.97042 0.0
H467 H 0.5285 0.21186 0.00095 0.0
H468 H 0.56192 0.20544 0.06242 0.0
H469 H 0.64307 0.38161 0.25114 0.0
H470 H 0.62669 0.34205 0.48592 0.0
H471 H 0.61747 0.29352 0.42669 0.0
H472 H 0.67221 0.33221 0.15793 0.0
H473 H 0.65256 0.35023 0.07769 0.0
H474 H 0.65382 0.30951 0.08416 0.0
H475 H 0.57768 0.35405 0.18337 0.0
H476 H 0.58965 0.35188 0.08159 0.0
H477 H 0.60924 0.37737 0.14547 0.0
H478 H 0.59296 0.33928 0.87223 0.0
C479 C 0.59668 0.31234 0.97861 0.0
Zn480 Zn 0.99255 0.05913 0.59287 0.0
Zn481 Zn 0.01552 0.96797 0.55011 0.0
C482 C 0.00863 0.12083 0.64374 0.0
O483 O 0.99953 0.12772 0.57099 0.0
C484 C 0.01842 0.91093 0.45977 0.0
O485 O 0.04814 0.91516 0.4716 0.0
O486 O 0.95565 0.07621 0.53996 0.0
O487 O 0.02266 0.0485 0.50313 0.0
O488 O 0.03215 1.00046 0.47442 0.0
C489 C 0.93841 0.06083 0.49322 0.0
O490 O 0.94587 0.03325 0.47377 0.0
O491 O 0.00948 0.09301 0.66434 0.0
C492 C 0.06128 0.93191 0.64971 0.0
O493 O 0.08933 0.93065 0.67873 0.0
O494 O 0.05402 0.95556 0.61063 0.0
O495 O 0.98314 0.97988 0.63399 0.0
O496 O 0.97264 0.02725 0.66402 0.0
O497 O 1.00002 0.93099 0.48415 0.0
C498 C 0.03556 0.02869 0.46004 0.0
C499 C 0.96871 0.99899 0.67549 0.0
Zn500 Zn 0.48513 0.03689 0.6757 0.0
Zn501 Zn 0.5597 0.01338 0.60834 0.0
C502 C 0.43526 0.03682 0.78396 0.0
O503 O 0.4324 0.0096 0.75336 0.0
C504 C 0.61696 0.01911 0.5117 0.0
O505 O 0.61348 0.04836 0.51977 0.0
O506 O 0.45216 0.04042 0.59249 0.0
O507 O 0.51846 0.06648 0.63257 0.0
O508 O 0.53363 0.03779 0.53366 0.0
C509 C 0.44369 0.06782 0.59349 0.0
O510 O 0.45925 0.08761 0.63692 0.0
O511 O 0.45971 0.05267 0.76884 0.0
C512 C 0.58374 0.03249 0.76631 0.0
O513 O 0.58659 0.05208 0.82476 0.0
O514 O 0.57173 0.04073 0.70054 0.0
O515 O 0.53971 0.97595 0.65768 0.0
O516 O 0.49541 0.99332 0.70275 0.0
O517 O 0.59699 1.00077 0.54264 0.0
C518 C 0.52547 0.06344 0.55879 0.0
C519 C 0.5145 0.9721 0.69608 0.0
Zn520 Zn 0.52283 0.46438 0.62757 0.0
Zn521 Zn 0.51188 0.54116 0.54881 0.0
C522 C 0.51728 0.40128 0.66774 0.0
O523 O 0.52532 0.39941 0.59197 0.0
C524 C 0.4942 0.59224 0.46146 0.0
O525 O 0.46785 0.57858 0.48035 0.0
O526 O 0.56449 0.45497 0.5836 0.0
O527 O 0.49285 0.46459 0.53434 0.0
O528 O 0.49095 0.51015 0.47765 0.0
C529 C 0.57492 0.46409 0.51627 0.0
O530 O 0.55909 0.48348 0.47425 0.0
O531 O 0.5128 0.42734 0.69712 0.0
C532 C 0.48914 0.58019 0.6583 0.0
O533 O 0.51798 0.58938 0.64818 0.0
O534 O 0.48038 0.55516 0.62795 0.0
O535 O 0.55056 0.53209 0.61254 0.0
O536 O 0.52823 0.50067 0.69977 0.0
O537 O 0.51921 0.57938 0.47938 0.0
C538 C 0.48356 0.48212 0.47903 0.0
C539 C 0.54946 0.52004 0.68224 0.0
Zn540 Zn 0.03966 0.4746 0.68064 0.0
Zn541 Zn 0.9626 0.48413 0.59373 0.0
C542 C 0.09177 0.47694 0.78032 0.0
O543 O 0.09171 0.50444 0.74985 0.0
C544 C 0.9138 0.48932 0.46916 0.0
O545 O 0.91724 0.46021 0.45812 0.0
O546 O 0.07157 0.48141 0.59383 0.0
O547 O 0.01199 0.44112 0.63103 0.0
O548 O 0.99854 0.46982 0.52994 0.0
C549 C 0.08365 0.45558 0.58685 0.0
O550 O 0.07241 0.43234 0.62803 0.0
O551 O 0.0686 0.45917 0.76751 0.0
C552 C 0.924 0.44543 0.7035 0.0
O553 O 0.91695 0.41953 0.73906 0.0
O554 O 0.94423 0.44633 0.64822 0.0
O555 O 0.97299 0.51512 0.67832 0.0
O556 O 0.02033 0.51224 0.72754 0.0
O557 O 0.93111 0.5032 0.51926 0.0
C558 C 0.00614 0.44408 0.55638 0.0
C559 C 0.99426 0.52472 0.72486 0.0
C560 C 0.09675 0.02633 0.29605 0.0
C561 C 0.10704 0.05671 0.29259 0.0
H562 H 0.06606 0.99356 0.35165 0.0
C563 C 0.09104 0.07826 0.33684 0.0
H564 H 0.10878 0.00922 0.26314 0.0
C565 C 0.06663 0.06942 0.38765 0.0
C566 C 0.05776 0.03871 0.39604 0.0
H567 H 0.09843 0.10188 0.33505 0.0
H568 H 0.05582 0.08653 0.42338 0.0
C569 C 0.07242 0.0174 0.34742 0.0
C570 C 0.5364 0.11153 0.3702 0.0
C571 C 0.5325 0.14091 0.39941 0.0
H572 H 0.53747 0.06416 0.3974 0.0
C573 C 0.5245 0.14442 0.48059 0.0
H574 H 0.54283 0.10804 0.30824 0.0
C575 C 0.52152 0.11928 0.53192 0.0
C576 C 0.5266 0.08999 0.50344 0.0
H577 H 0.52098 0.16673 0.50481 0.0
H578 H 0.51589 0.12292 0.59433 0.0
C579 C 0.53357 0.08639 0.42161 0.0
C580 C 0.41763 0.47559 0.33019 0.0
C581 C 0.41567 0.44415 0.31823 0.0
H582 H 0.44081 0.51238 0.3906 0.0
C583 C 0.43908 0.42618 0.34989 0.0
H584 H 0.39992 0.49004 0.30713 0.0
C585 C 0.46186 0.43875 0.39948 0.0
C586 C 0.46233 0.46976 0.417 0.0
H587 H 0.43862 0.40195 0.34049 0.0
H588 H 0.47847 0.42396 0.42645 0.0
C589 C 0.44089 0.48832 0.37878 0.0
C590 C 0.99799 0.36251 0.48836 0.0
C591 C 0.9891 0.36591 0.40782 0.0
H592 H 0.01048 0.38433 0.59819 0.0
C593 C 0.9885 0.39511 0.37448 0.0
H594 H 0.99867 0.3402 0.51551 0.0
C595 C 0.99488 0.4205 0.4222 0.0
C596 C 0.00214 0.41716 0.50409 0.0
H597 H 0.98144 0.39838 0.31287 0.0
H598 H 0.99315 0.44279 0.39546 0.0
C599 C 0.00458 0.38781 0.53584 0.0
C600 C 0.91734 0.94652 0.80294 0.0
C601 C 0.89623 0.96662 0.83581 0.0
H602 H 0.95665 0.94091 0.72772 0.0
C603 C 0.90117 0.99782 0.8226 0.0
H604 H 0.91447 0.92236 0.81291 0.0
C605 C 0.92545 0.00847 0.77315 0.0
C606 C 0.94537 0.98814 0.73591 0.0
H607 H 0.88523 0.01387 0.8466 0.0
H608 H 0.92775 0.03256 0.76146 0.0
C609 C 0.94154 0.95714 0.75373 0.0
C610 C 0.52579 0.89841 0.81043 0.0
C611 C 0.49525 0.88979 0.83003 0.0
H612 H 0.55582 0.93081 0.75045 0.0
C613 C 0.47123 0.90812 0.80416 0.0
H614 H 0.54469 0.88455 0.82913 0.0
C615 C 0.47752 0.9346 0.76007 0.0
C616 C 0.50797 0.94312 0.73931 0.0
H617 H 0.44748 0.902 0.81853 0.0
H618 H 0.45846 0.94833 0.74182 0.0
C619 C 0.53208 0.92467 0.7647 0.0
C620 C 0.61567 0.56141 0.78573 0.0
C621 C 0.62227 0.54184 0.85013 0.0
H622 H 0.58802 0.56979 0.68241 0.0
C623 C 0.60298 0.51611 0.86259 0.0
H624 H 0.62956 0.58183 0.77527 0.0
C625 C 0.57873 0.50938 0.80943 0.0
C626 C 0.57342 0.52814 0.74246 0.0
H627 H 0.60746 0.50047 0.91118 0.0
H628 H 0.56486 0.48891 0.81916 0.0
C629 C 0.59181 0.55453 0.73233 0.0
C630 C 0.004 0.59362 0.86102 0.0
C631 C 0.97325 0.60254 0.86833 0.0
H632 H 0.03506 0.56186 0.80966 0.0
C633 C 0.94982 0.58382 0.83581 0.0
H634 H 0.02258 0.60777 0.88459 0.0
C635 C 0.95694 0.5586 0.79063 0.0
C636 C 0.98763 0.55051 0.77868 0.0
H637 H 0.92592 0.59003 0.84033 0.0
H638 H 0.93833 0.54602 0.76239 0.0
C639 C 0.01113 0.56762 0.81704 0.0
C640 C 0.89178 0.09331 0.3272 0.0
C641 C 0.87779 0.11752 0.36684 0.0
H642 H 0.92188 0.05593 0.33719 0.0
C643 C 0.87772 0.11745 0.45126 0.0
H644 H 0.89248 0.0921 0.26249 0.0
C645 C 0.89589 0.0973 0.49363 0.0
C646 C 0.91306 0.07591 0.45257 0.0
H647 H 0.86605 0.1347 0.48444 0.0
H648 H 0.89805 0.09969 0.55798 0.0
C649 C 0.90906 0.07253 0.36994 0.0
C650 C 0.37501 0.1141 0.54002 0.0
C651 C 0.36313 0.09814 0.47461 0.0
H652 H 0.41039 0.11707 0.62824 0.0
C653 C 0.37683 0.07124 0.45039 0.0
H654 H 0.36476 0.13493 0.55912 0.0
C655 C 0.40271 0.06076 0.49009 0.0
C656 C 0.41547 0.0774 0.55348 0.0
H657 H 0.36777 0.05866 0.39975 0.0
H658 H 0.41319 0.04022 0.46979 0.0
C659 C 0.4012 0.10394 0.57881 0.0
C660 C 0.63256 0.40325 0.48805 0.0
C661 C 0.6286 0.39718 0.40596 0.0
H662 H 0.61847 0.42965 0.58815 0.0
C663 C 0.61311 0.41855 0.35865 0.0
H664 H 0.64529 0.38815 0.52613 0.0
C665 C 0.59865 0.44288 0.39395 0.0
C666 C 0.59878 0.44607 0.47739 0.0
H667 H 0.60921 0.4151 0.29534 0.0
H668 H 0.58466 0.45715 0.35657 0.0
C669 C 0.61744 0.42725 0.52362 0.0
C670 C 0.1318 0.42863 0.42035 0.0
C671 C 0.1571 0.41784 0.46371 0.0
H672 H 0.08847 0.4507 0.42613 0.0
C673 C 0.1605 0.42567 0.54454 0.0
H674 H 0.12911 0.42369 0.35721 0.0
C675 C 0.13775 0.44191 0.5828 0.0
C676 C 0.11149 0.45069 0.54073 0.0
H677 H 0.1798 0.41786 0.57927 0.0
H678 H 0.13952 0.44559 0.64675 0.0
C679 C 0.10903 0.44484 0.45881 0.0
C680 C 0.02821 0.85553 0.7162 0.0
C681 C 0.99638 0.86009 0.70947 0.0
H682 H 0.07377 0.87479 0.70225 0.0
C683 C 0.98627 0.8869 0.67516 0.0
H684 H 0.03664 0.83505 0.74341 0.0
C685 C 0.00745 0.90975 0.65393 0.0
C686 C 0.03914 0.90629 0.66431 0.0
H687 H 0.96186 0.89079 0.66861 0.0
H688 H 0.99867 0.93044 0.6323 0.0
C689 C 0.04943 0.87847 0.69372 0.0
C690 C 0.6059 0.95914 0.8638 0.0
C691 C 0.6275 0.94824 0.80818 0.0
H692 H 0.57478 0.99429 0.89335 0.0
C693 C 0.63066 0.96332 0.73388 0.0
H694 H 0.60285 0.9488 0.92237 0.0
C695 C 0.61582 0.99041 0.72007 0.0
C696 C 0.5956 0.00188 0.77686 0.0
H697 H 0.64648 0.95568 0.68857 0.0
H698 H 0.62243 0.00382 0.66849 0.0
C699 C 0.59006 0.98563 0.84803 0.0
C700 C 0.45192 0.65442 0.69678 0.0
C701 C 0.42377 0.64537 0.73249 0.0
H702 H 0.49478 0.64098 0.64807 0.0
C703 C 0.41644 0.61429 0.74076 0.0
H704 H 0.45861 0.67816 0.69126 0.0
C705 C 0.43741 0.59272 0.71556 0.0
C706 C 0.46627 0.60207 0.68424 0.0
H707 H 0.39508 0.60677 0.7693 0.0
H708 H 0.43155 0.56888 0.72313 0.0
C709 C 0.47302 0.63307 0.67383 0.0
C710 C 0.87952 0.51718 0.69493 0.0
C711 C 0.87831 0.52555 0.77605 0.0
H712 H 0.89134 0.48295 0.61185 0.0
C713 C 0.89269 0.50679 0.83315 0.0
H714 H 0.86887 0.53042 0.64848 0.0
C715 C 0.90819 0.48109 0.80949 0.0
C716 C 0.90893 0.47304 0.72877 0.0
H717 H 0.89138 0.51115 0.89672 0.0
H718 H 0.91912 0.46723 0.85441 0.0
C719 C 0.89369 0.49064 0.67249 0.0
C720 C 0.01633 0.15869 0.84572 0.0
C721 C 0.00604 0.1879 0.82864 0.0
H722 H 0.02561 0.11465 0.80077 0.0
C723 C 1.00135 0.19634 0.7485 0.0
H724 H 0.01978 0.15158 0.90728 0.0
C725 C 0.00446 0.17506 0.68715 0.0
C726 C 0.01211 0.14496 0.70511 0.0
H727 H 0.99294 0.21855 0.734 0.0
H728 H 0.99882 0.1817 0.62644 0.0
C729 C 0.0194 0.13747 0.78469 0.0
C730 C 0.37429 0.09407 0.8276 0.0
C731 C 0.35222 0.07692 0.87227 0.0
H732 H 0.41832 0.09539 0.76901 0.0
C733 C 0.3577 0.04606 0.88599 0.0
H734 H 0.3707 0.11763 0.8133 0.0
C735 C 0.38485 0.03311 0.85818 0.0
C736 C 0.40753 0.05085 0.81791 0.0
H737 H 0.34163 0.03211 0.92086 0.0
H738 H 0.3884 0.00931 0.86963 0.0
C739 C 0.40179 0.08138 0.80228 0.0
C740 C 0.51625 0.35215 0.85497 0.0
C741 C 0.53449 0.32813 0.83062 0.0
H742 H 0.49645 0.3944 0.82243 0.0
C743 C 0.543 0.32608 0.74974 0.0
H744 H 0.51004 0.35453 0.91754 0.0
C745 C 0.53513 0.34876 0.69512 0.0
C746 C 0.51928 0.37431 0.72096 0.0
H747 H 0.55767 0.30812 0.73011 0.0
H748 H 0.54354 0.34734 0.63411 0.0
C749 C 0.50882 0.37514 0.80073 0.0
C750 C 0.17148 0.47588 0.8741 0.0
C751 C 0.17652 0.44471 0.88082 0.0
H752 H 0.14056 0.51045 0.83858 0.0
C753 C 0.15377 0.42429 0.85131 0.0
H754 H 0.1882 0.49224 0.89717 0.0
C755 C 0.12602 0.43466 0.82049 0.0
C756 C 0.12053 0.46576 0.81659 0.0
H757 H 0.15703 0.40011 0.85444 0.0
H758 H 0.10895 0.41828 0.79921 0.0
C759 C 0.14388 0.48628 0.84193 0.0
C760 C 0.96494 0.85263 0.36093 0.0
C761 C 0.98577 0.83098 0.33405 0.0
H762 H 0.95873 0.89474 0.42112 0.0
C763 C 0.01695 0.83456 0.3552 0.0
H764 H 0.94072 0.85048 0.34579 0.0
C765 C 0.02734 0.86013 0.39768 0.0
C766 C 0.00679 0.88272 0.42028 0.0
H767 H 0.03365 0.81856 0.33468 0.0
H768 H 0.05173 0.86264 0.4105 0.0
C769 C 0.97529 0.87813 0.40361 0.0
C770 C 0.68785 0.01585 0.37725 0.0
C771 C 0.69206 0.9845 0.37245 0.0
H772 H 0.66066 0.05141 0.4244 0.0
C773 C 0.67325 0.96499 0.4199 0.0
H774 H 0.70171 0.03143 0.3408 0.0
C775 C 0.64949 0.97632 0.46679 0.0
C776 C 0.64398 0.0075 0.46769 0.0
H777 H 0.67607 0.94074 0.41798 0.0
H778 H 0.6349 0.9605 0.50053 0.0
C779 C 0.66406 0.02723 0.42444 0.0
C780 C 0.50632 0.65899 0.31956 0.0
C781 C 0.48149 0.67694 0.34219 0.0
H782 H 0.53024 0.61761 0.34054 0.0
C783 C 0.4652 0.66946 0.41279 0.0
H784 H 0.51902 0.66405 0.26485 0.0
C785 C 0.47091 0.64268 0.45406 0.0
C786 C 0.49364 0.62316 0.42715 0.0
H787 H 0.44604 0.68291 0.43184 0.0
H788 H 0.45624 0.63637 0.50448 0.0
C789 C 0.51252 0.63228 0.36228 0.0
C790 C 0.84429 0.50576 0.33861 0.0
C791 C 0.83885 0.53613 0.3572 0.0
H792 H 0.87246 0.46732 0.35811 0.0
C793 C 0.85688 0.55018 0.41701 0.0
H794 H 0.83118 0.49442 0.29195 0.0
C795 C 0.88089 0.53489 0.45382 0.0
C796 C 0.88749 0.50507 0.432 0.0
H797 H 0.85321 0.57351 0.43302 0.0
H798 H 0.89469 0.54672 0.49826 0.0
C799 C 0.86832 0.4904 0.3756 0.0
loop_
_geom_bond_atom_site_label_1
_geom_bond_atom_site_label_2
_geom_bond_distance
_geom_bond_site_symmetry_2
_ccdc_geom_bond_type
C0 C1 1.391 . S
C0 C4 1.391 . S
C0 H42 0.948 . S
C1 C0 1.391 . S
C1 C2 1.391 . S
C2 C1 1.391 . S
C2 H58 0.947 . S
C2 C59 1.392 . S
C3 C4 1.391 . S
C3 C7 1.397 . S
C3 C59 1.419 . S
C4 C0 1.391 . S
C4 C3 1.391 . S
C4 C5 1.399 . S
C5 C4 1.399 . S
C5 C8 1.396 . S
C5 C17 1.453 . S
C5 C18 1.684 . S
H6 C30 0.948 . S
C7 C3 1.397 . S
C7 C8 1.394 . S
C7 C26 1.723 . S
C8 C5 1.396 . S
C8 C7 1.394 . S
C8 C38 1.723 . S
H9 C32 0.947 . S
H10 C33 0.948 . S
H11 C39 0.982 . S
H12 C40 0.979 . S
H13 C40 0.980 . S
H14 C40 0.983 . S
H15 C39 0.979 . S
H16 C39 0.977 . S
C17 C5 1.453 . S
C17 H46 0.982 . S
C17 H47 0.979 . S
C17 H48 0.977 . S
C18 C5 1.684 . S
C18 H43 0.979 . S
C18 H44 0.980 . S
C18 H45 0.983 . S
C19 C20 1.391 . S
C19 C24 1.391 . S
C19 H49 0.948 . S
C20 C19 1.391 . S
C20 C21 1.391 . S
C21 C20 1.391 . S
C21 C22 1.392 . S
C21 H50 0.947 . S
C22 C21 1.392 . S
C22 C23 1.419 . S
C22 H51 0.948 . S
C23 C22 1.419 . S
C23 C24 1.391 . S
C23 C27 1.397 . S
C24 C19 1.391 . S
C24 C23 1.391 . S
C24 C25 1.399 . S
C25 C24 1.399 . S
C25 C26 1.396 1_556 S
C25 C28 1.453 1_556 S
C25 C29 1.684 1_556 S
C26 C7 1.723 . S
C26 C25 1.396 1_554 S
C26 C27 1.394 1_554 S
C27 C23 1.397 . S
C27 C26 1.394 1_556 S
C27 C37 1.723 . S
C28 C25 1.453 1_554 S
C28 H52 0.982 . S
C28 H53 0.979 . S
C28 H54 0.977 . S
C29 C25 1.684 1_554 S
C29 H55 0.979 . S
C29 H56 0.980 . S
C29 H57 0.983 . S
C30 H6 0.948 . S
C30 C31 1.391 . S
C30 C35 1.391 . S
C31 C30 1.391 . S
C31 C32 1.391 1_556 S
C32 H9 0.947 . S
C32 C31 1.391 1_554 S
C32 C33 1.392 . S
C33 H10 0.948 . S
C33 C32 1.392 . S
C33 C34 1.419 . S
C34 C33 1.419 . S
C34 C35 1.391 1_554 S
C34 C38 1.397 . S
C35 C30 1.391 . S
C35 C34 1.391 1_556 S
C35 C36 1.399 . S
C36 C35 1.399 . S
C36 C37 1.396 . S
C36 C39 1.453 . S
C36 C40 1.684 . S
C37 C27 1.723 . S
C37 C36 1.396 . S
C37 C38 1.394 1_556 S
C38 C8 1.723 . S
C38 C34 1.397 . S
C38 C37 1.394 1_554 S
C39 H11 0.982 . S
C39 H15 0.979 . S
C39 H16 0.977 . S
C39 C36 1.453 . S
C40 H12 0.979 . S
C40 H13 0.980 . S
C40 H14 0.983 . S
C40 C36 1.684 . S
H41 C59 0.948 . S
H42 C0 0.948 . S
H43 C18 0.979 . S
H44 C18 0.980 . S
H45 C18 0.983 . S
H46 C17 0.982 . S
H47 C17 0.979 . S
H48 C17 0.977 . S
H49 C19 0.948 . S
H50 C21 0.947 . S
H51 C22 0.948 . S
H52 C28 0.982 . S
H53 C28 0.979 . S
H54 C28 0.977 . S
H55 C29 0.979 . S
H56 C29 0.980 . S
H57 C29 0.983 . S
H58 C2 0.947 . S
C59 C2 1.392 . S
C59 C3 1.419 . S
C59 H41 0.948 . S
C60 C61 1.391 . S
C60 C64 1.391 . S
C60 H102 0.948 . S
C61 C60 1.391 . S
C61 C62 1.391 . S
C62 C61 1.391 . S
C62 H118 0.947 . S
C62 C119 1.392 . S
C63 C64 1.391 . S
C63 C67 1.397 1_655 S
C63 C119 1.419 . S
C64 C60 1.391 . S
C64 C63 1.391 . S
C64 C65 1.399 . S
C65 C64 1.399 . S
C65 C68 1.396 1_655 S
C65 C77 1.453 1_655 S
C65 C78 1.684 . S
H66 C90 0.948 . S
C67 C63 1.397 1_455 S
C67 C68 1.394 . S
C67 C86 1.723 1_556 S
C68 C65 1.396 1_455 S
C68 C67 1.394 . S
C68 C98 1.723 1_556 S
H69 C92 0.947 . S
H70 C93 0.948 . S
H71 C99 0.982 . S
H72 C100 0.979 . S
H73 C100 0.980 . S
H74 C100 0.983 . S
H75 C99 0.979 . S
H76 C99 0.977 . S
C77 C65 1.453 1_455 S
C77 H106 0.982 . S
C77 H107 0.979 . S
C77 H108 0.977 . S
C78 C65 1.684 . S
C78 H103 0.979 . S
C78 H104 0.980 . S
C78 H105 0.983 . S
C79 C80 1.391 . S
C79 C84 1.391 . S
C79 H109 0.948 . S
C80 C79 1.391 . S
C80 C81 1.391 . S
C81 C80 1.391 . S
C81 C82 1.392 . S
C81 H110 0.947 . S
C82 C81 1.392 . S
C82 C83 1.419 . S
C82 H111 0.948 . S
C83 C82 1.419 . S
C83 C84 1.391 . S
C83 C87 1.397 1_655 S
C84 C79 1.391 . S
C84 C83 1.391 . S
C84 C85 1.399 . S
C85 C84 1.399 . S
C85 C86 1.396 1_655 S
C85 C88 1.453 1_655 S
C85 C89 1.684 . S
C86 C67 1.723 1_554 S
C86 C85 1.396 1_455 S
C86 C87 1.394 . S
C87 C83 1.397 1_455 S
C87 C86 1.394 . S
C87 C97 1.723 . S
C88 C85 1.453 1_455 S
C88 H112 0.982 . S
C88 H113 0.979 . S
C88 H114 0.977 . S
C89 C85 1.684 . S
C89 H115 0.979 . S
C89 H116 0.980 . S
C89 H117 0.983 . S
C90 H66 0.948 . S
C90 C91 1.391 1_554 S
C90 C95 1.391 . S
C91 C90 1.391 1_556 S
C91 C92 1.391 . S
C92 H69 0.947 . S
C92 C91 1.391 . S
C92 C93 1.392 . S
C93 H70 0.948 . S
C93 C92 1.392 . S
C93 C94 1.419 . S
C94 C93 1.419 . S
C94 C95 1.391 1_556 S
C94 C98 1.397 1_656 S
C95 C90 1.391 . S
C95 C94 1.391 1_554 S
C95 C96 1.399 . S
C96 C95 1.399 . S
C96 C97 1.396 1_655 S
C96 C99 1.453 1_655 S
C96 C100 1.684 . S
C97 C87 1.723 . S
C97 C96 1.396 1_455 S
C97 C98 1.394 . S
C98 C68 1.723 1_554 S
C98 C94 1.397 1_454 S
C98 C97 1.394 . S
C99 H71 0.982 . S
C99 H75 0.979 . S
C99 H76 0.977 . S
C99 C96 1.453 1_455 S
C100 H72 0.979 . S
C100 H73 0.980 . S
C100 H74 0.983 . S
C100 C96 1.684 . S
H101 C119 0.948 1_554 S
H102 C60 0.948 . S
H103 C78 0.979 . S
H104 C78 0.980 . S
H105 C78 0.983 . S
H106 C77 0.982 . S
H107 C77 0.979 . S
H108 C77 0.977 . S
H109 C79 0.948 . S
H110 C81 0.947 . S
H111 C82 0.948 . S
H112 C88 0.982 . S
H113 C88 0.979 . S
H114 C88 0.977 . S
H115 C89 0.979 . S
H116 C89 0.980 . S
H117 C89 0.983 . S
H118 C62 0.947 . S
C119 C62 1.392 . S
C119 C63 1.419 . S
C119 H101 0.948 1_556 S
C120 C121 1.391 1_554 S
C120 C124 1.391 . S
C120 H162 0.948 . S
C121 C120 1.391 1_556 S
C121 C122 1.391 . S
C122 C121 1.391 . S
C122 H178 0.947 . S
C122 C179 1.392 . S
C123 C124 1.391 1_556 S
C123 C127 1.397 1_556 S
C123 C179 1.419 . S
C124 C120 1.391 . S
C124 C123 1.391 1_554 S
C124 C125 1.399 . S
C125 C124 1.399 . S
C125 C128 1.396 . S
C125 C137 1.453 . S
C125 C138 1.684 . S
H126 C150 0.948 . S
C127 C123 1.397 1_554 S
C127 C128 1.394 . S
C127 C146 1.723 1_554 S
C128 C125 1.396 . S
C128 C127 1.394 . S
C128 C158 1.723 . S
H129 C152 0.947 . S
H130 C153 0.948 . S
H131 C159 0.982 . S
H132 C160 0.979 . S
H133 C160 0.980 . S
H134 C160 0.983 . S
H135 C159 0.979 . S
H136 C159 0.977 . S
C137 C125 1.453 . S
C137 H166 0.982 . S
C137 H167 0.979 . S
C137 H168 0.977 . S
C138 C125 1.684 . S
C138 H163 0.979 . S
C138 H164 0.980 . S
C138 H165 0.983 . S
C139 C140 1.391 . S
C139 C144 1.391 . S
C139 H169 0.948 . S
C140 C139 1.391 . S
C140 C141 1.391 . S
C141 C140 1.391 . S
C141 C142 1.392 . S
C141 H170 0.947 . S
C142 C141 1.392 . S
C142 C143 1.419 . S
C142 H171 0.948 1_556 S
C143 C142 1.419 . S
C143 C144 1.391 . S
C143 C147 1.397 . S
C144 C139 1.391 . S
C144 C143 1.391 . S
C144 C145 1.399 . S
C145 C144 1.399 . S
C145 C146 1.396 . S
C145 C148 1.453 . S
C145 C149 1.684 . S
C146 C127 1.723 1_556 S
C146 C145 1.396 . S
C146 C147 1.394 . S
C147 C143 1.397 . S
C147 C146 1.394 . S
C147 C157 1.723 1_556 S
C148 C145 1.453 . S
C148 H172 0.982 . S
C148 H173 0.979 . S
C148 H174 0.977 . S
C149 C145 1.684 . S
C149 H175 0.979 . S
C149 H176 0.980 . S
C149 H177 0.983 . S
C150 H126 0.948 . S
C150 C151 1.391 . S
C150 C155 1.391 . S
C151 C150 1.391 . S
C151 C152 1.391 . S
C152 H129 0.947 . S
C152 C151 1.391 . S
C152 C153 1.392 . S
C153 H130 0.948 . S
C153 C152 1.392 . S
C153 C154 1.419 . S
C154 C153 1.419 . S
C154 C155 1.391 . S
C154 C158 1.397 . S
C155 C150 1.391 . S
C155 C154 1.391 . S
C155 C156 1.399 . S
C156 C155 1.399 . S
C156 C157 1.396 . S
C156 C159 1.453 . S
C156 C160 1.684 . S
C157 C147 1.723 1_554 S
C157 C156 1.396 . S
C157 C158 1.394 . S
C158 C128 1.723 . S
C158 C154 1.397 . S
C158 C157 1.394 . S
C159 H131 0.982 . S
C159 H135 0.979 . S
C159 H136 0.977 . S
C159 C156 1.453 . S
C160 H132 0.979 . S
C160 H133 0.980 . S
C160 H134 0.983 . S
C160 C156 1.684 . S
H161 C179 0.948 . S
H162 C120 0.948 . S
H163 C138 0.979 . S
H164 C138 0.980 . S
H165 C138 0.983 . S
H166 C137 0.982 . S
H167 C137 0.979 . S
H168 C137 0.977 . S
H169 C139 0.948 . S
H170 C141 0.947 . S
H171 C142 0.948 1_554 S
H172 C148 0.982 . S
H173 C148 0.979 . S
H174 C148 0.977 . S
H175 C149 0.979 . S
H176 C149 0.980 . S
H177 C149 0.983 . S
H178 C122 0.947 . S
C179 C122 1.392 . S
C179 C123 1.419 . S
C179 H161 0.948 . S
C180 C181 1.391 . S
C180 C184 1.391 . S
C180 H222 0.948 . S
C181 C180 1.391 . S
C181 C182 1.391 . S
C182 C181 1.391 . S
C182 H238 0.947 . S
C182 C239 1.392 . S
C183 C184 1.391 . S
C183 C187 1.397 . S
C183 C239 1.419 . S
C184 C180 1.391 . S
C184 C183 1.391 . S
C184 C185 1.399 . S
C185 C184 1.399 . S
C185 C188 1.396 . S
C185 C197 1.453 . S
C185 C198 1.684 . S
H186 C210 0.948 . S
C187 C183 1.397 . S
C187 C188 1.394 . S
C187 C206 1.723 . S
C188 C185 1.396 . S
C188 C187 1.394 . S
C188 C218 1.723 . S
H189 C212 0.947 . S
H190 C213 0.948 . S
H191 C219 0.982 . S
H192 C220 0.979 . S
H193 C220 0.980 . S
H194 C220 0.983 . S
H195 C219 0.979 . S
H196 C219 0.977 . S
C197 C185 1.453 . S
C197 H226 0.982 . S
C197 H227 0.979 . S
C197 H228 0.977 . S
C198 C185 1.684 . S
C198 H223 0.979 . S
C198 H224 0.980 . S
C198 H225 0.983 . S
C199 C200 1.391 . S
C199 C204 1.391 . S
C199 H229 0.948 . S
C200 C199 1.391 . S
C200 C201 1.391 . S
C201 C200 1.391 . S
C201 C202 1.392 . S
C201 H230 0.947 . S
C202 C201 1.392 . S
C202 C203 1.419 . S
C202 H231 0.948 . S
C203 C202 1.419 . S
C203 C204 1.391 . S
C203 C207 1.397 . S
C204 C199 1.391 . S
C204 C203 1.391 . S
C204 C205 1.399 1_556 S
C205 C204 1.399 1_554 S
C205 C206 1.396 . S
C205 C208 1.453 . S
C205 C209 1.684 . S
C206 C187 1.723 . S
C206 C205 1.396 . S
C206 C207 1.394 1_554 S
C207 C203 1.397 . S
C207 C206 1.394 1_556 S
C207 C217 1.723 . S
C208 C205 1.453 . S
C208 H232 0.982 . S
C208 H233 0.979 . S
C208 H234 0.977 . S
C209 C205 1.684 . S
C209 H235 0.979 . S
C209 H236 0.980 . S
C209 H237 0.983 . S
C210 H186 0.948 . S
C210 C211 1.391 . S
C210 C215 1.391 . S
C211 C210 1.391 . S
C211 C212 1.391 1_556 S
C212 H189 0.947 . S
C212 C211 1.391 1_554 S
C212 C213 1.392 . S
C213 H190 0.948 . S
C213 C212 1.392 . S
C213 C214 1.419 . S
C214 C213 1.419 . S
C214 C215 1.391 1_554 S
C214 C218 1.397 . S
C215 C210 1.391 . S
C215 C214 1.391 1_556 S
C215 C216 1.399 . S
C216 C215 1.399 . S
C216 C217 1.396 . S
C216 C219 1.453 . S
C216 C220 1.684 . S
C217 C207 1.723 . S
C217 C216 1.396 . S
C217 C218 1.394 1_556 S
C218 C188 1.723 . S
C218 C214 1.397 . S
C218 C217 1.394 1_554 S
C219 H191 0.982 . S
C219 H195 0.979 . S
C219 H196 0.977 . S
C219 C216 1.453 . S
C220 H192 0.979 . S
C220 H193 0.980 . S
C220 H194 0.983 . S
C220 C216 1.684 . S
H221 C239 0.948 . S
H222 C180 0.948 . S
H223 C198 0.979 . S
H224 C198 0.980 . S
H225 C198 0.983 . S
H226 C197 0.982 . S
H227 C197 0.979 . S
H228 C197 0.977 . S
H229 C199 0.948 . S
H230 C201 0.947 . S
H231 C202 0.948 . S
H232 C208 0.982 . S
H233 C208 0.979 . S
H234 C208 0.977 . S
H235 C209 0.979 . S
H236 C209 0.980 . S
H237 C209 0.983 . S
H238 C182 0.947 . S
C239 C182 1.392 . S
C239 C183 1.419 . S
C239 H221 0.948 . S
C240 C241 1.391 . S
C240 C244 1.391 . S
C240 H282 0.948 . S
C241 C240 1.391 . S
C241 C242 1.391 . S
C242 C241 1.391 . S
C242 H298 0.947 . S
C242 C299 1.392 . S
C243 C244 1.391 . S
C243 C247 1.397 . S
C243 C299 1.419 . S
C244 C240 1.391 . S
C244 C243 1.391 . S
C244 C245 1.399 . S
C245 C244 1.399 . S
C245 C248 1.396 . S
C245 C257 1.453 . S
C245 C258 1.684 . S
H246 C270 0.948 . S
C247 C243 1.397 . S
C247 C248 1.394 . S
C247 C266 1.723 . S
C248 C245 1.396 . S
C248 C247 1.394 . S
C248 C278 1.723 . S
H249 C272 0.947 . S
H250 C273 0.948 . S
H251 C279 0.982 . S
H252 C280 0.979 . S
H253 C280 0.980 . S
H254 C280 0.983 . S
H255 C279 0.979 . S
H256 C279 0.977 . S
C257 C245 1.453 . S
C257 H286 0.982 . S
C257 H287 0.979 . S
C257 H288 0.977 . S
C258 C245 1.684 . S
C258 H283 0.979 . S
C258 H284 0.980 1_554 S
C258 H285 0.983 . S
C259 C260 1.391 . S
C259 C264 1.391 . S
C259 H289 0.948 . S
C260 C259 1.391 . S
C260 C261 1.391 . S
C261 C260 1.391 . S
C261 C262 1.392 . S
C261 H290 0.947 . S
C262 C261 1.392 . S
C262 C263 1.419 . S
C262 H291 0.948 . S
C263 C262 1.419 . S
C263 C264 1.391 . S
C263 C267 1.397 . S
C264 C259 1.391 . S
C264 C263 1.391 . S
C264 C265 1.399 . S
C265 C264 1.399 . S
C265 C266 1.396 . S
C265 C268 1.453 . S
C265 C269 1.684 . S
C266 C247 1.723 . S
C266 C265 1.396 . S
C266 C267 1.394 . S
C267 C263 1.397 . S
C267 C266 1.394 . S
C267 C277 1.723 . S
C268 C265 1.453 . S
C268 H292 0.982 . S
C268 H293 0.979 . S
C268 H294 0.977 . S
C269 C265 1.684 . S
C269 H295 0.979 . S
C269 H296 0.980 . S
C269 H297 0.983 . S
C270 H246 0.948 . S
C270 C271 1.391 . S
C270 C275 1.391 . S
C271 C270 1.391 . S
C271 C272 1.391 . S
C272 H249 0.947 . S
C272 C271 1.391 . S
C272 C273 1.392 . S
C273 H250 0.948 . S
C273 C272 1.392 . S
C273 C274 1.419 1_556 S
C274 C273 1.419 1_554 S
C274 C275 1.391 1_554 S
C274 C278 1.397 . S
C275 C270 1.391 . S
C275 C274 1.391 1_556 S
C275 C276 1.399 1_556 S
C276 C275 1.399 1_554 S
C276 C277 1.396 . S
C276 C279 1.453 . S
C276 C280 1.684 . S
C277 C267 1.723 . S
C277 C276 1.396 . S
C277 C278 1.394 . S
C278 C248 1.723 . S
C278 C274 1.397 . S
C278 C277 1.394 . S
C279 H251 0.982 . S
C279 H255 0.979 . S
C279 H256 0.977 . S
C279 C276 1.453 . S
C280 H252 0.979 . S
C280 H253 0.980 . S
C280 H254 0.983 . S
C280 C276 1.684 . S
H281 C299 0.948 . S
H282 C240 0.948 . S
H283 C258 0.979 . S
H284 C258 0.980 1_556 S
H285 C258 0.983 . S
H286 C257 0.982 . S
H287 C257 0.979 . S
H288 C257 0.977 . S
H289 C259 0.948 . S
H290 C261 0.947 . S
H291 C262 0.948 . S
H292 C268 0.982 . S
H293 C268 0.979 . S
H294 C268 0.977 . S
H295 C269 0.979 . S
H296 C269 0.980 . S
H297 C269 0.983 . S
H298 C242 0.947 . S
C299 C242 1.392 . S
C299 C243 1.419 . S
C299 H281 0.948 . S
C300 C301 1.391 . S
C300 C304 1.391 . S
C300 H342 0.948 . S
C301 C300 1.391 . S
C301 C302 1.391 . S
C302 C301 1.391 . S
C302 H358 0.947 . S
C302 C359 1.392 . S
C303 C304 1.391 . S
C303 C307 1.397 1_655 S
C303 C359 1.419 . S
C304 C300 1.391 . S
C304 C303 1.391 . S
C304 C305 1.399 . S
C305 C304 1.399 . S
C305 C308 1.396 1_655 S
C305 C317 1.453 1_655 S
C305 C318 1.684 . S
H306 C330 0.948 . S
C307 C303 1.397 1_455 S
C307 C308 1.394 . S
C307 C326 1.723 . S
C308 C305 1.396 1_455 S
C308 C307 1.394 . S
C308 C338 1.723 . S
H309 C332 0.947 . S
H310 C333 0.948 . S
H311 C339 0.982 . S
H312 C340 0.979 . S
H313 C340 0.980 1_556 S
H314 C340 0.983 1_556 S
H315 C339 0.979 . S
H316 C339 0.977 1_556 S
C317 C305 1.453 1_455 S
C317 H346 0.982 . S
C317 H347 0.979 . S
C317 H348 0.977 . S
C318 C305 1.684 . S
C318 H343 0.979 . S
C318 H344 0.980 . S
C318 H345 0.983 . S
C319 C320 1.391 . S
C319 C324 1.391 . S
C319 H349 0.948 . S
C320 C319 1.391 . S
C320 C321 1.391 . S
C321 C320 1.391 . S
C321 C322 1.392 . S
C321 H350 0.947 . S
C322 C321 1.392 . S
C322 C323 1.419 . S
C322 H351 0.948 . S
C323 C322 1.419 . S
C323 C324 1.391 . S
C323 C327 1.396 1_656 S
C324 C319 1.391 . S
C324 C323 1.391 . S
C324 C325 1.399 1_556 S
C325 C324 1.399 1_554 S
C325 C326 1.396 1_655 S
C325 C328 1.453 1_655 S
C325 C329 1.684 . S
C326 C307 1.723 . S
C326 C325 1.396 1_455 S
C326 C327 1.395 . S
C327 C323 1.396 1_454 S
C327 C326 1.395 . S
C327 C337 1.723 . S
C328 C325 1.453 1_455 S
C328 H352 0.982 . S
C328 H353 0.979 . S
C328 H354 0.977 . S
C329 C325 1.684 . S
C329 H355 0.979 . S
C329 H356 0.980 . S
C329 H357 0.983 . S
C330 H306 0.948 . S
C330 C331 1.391 . S
C330 C335 1.391 . S
C331 C330 1.391 . S
C331 C332 1.391 . S
C332 H309 0.947 . S
C332 C331 1.391 . S
C332 C333 1.392 . S
C333 H310 0.948 . S
C333 C332 1.392 . S
C333 C334 1.419 . S
C334 C333 1.419 . S
C334 C335 1.391 . S
C334 C338 1.396 1_655 S
C335 C330 1.391 . S
C335 C334 1.391 . S
C335 C336 1.399 . S
C336 C335 1.399 . S
C336 C337 1.396 1_655 S
C336 C339 1.453 1_655 S
C336 C340 1.684 . S
C337 C327 1.723 . S
C337 C336 1.396 1_455 S
C337 C338 1.395 . S
C338 C308 1.723 . S
C338 C334 1.396 1_455 S
C338 C337 1.395 . S
C339 H311 0.982 . S
C339 H315 0.979 . S
C339 H316 0.977 1_554 S
C339 C336 1.453 1_455 S
C340 H312 0.979 . S
C340 H313 0.980 1_554 S
C340 H314 0.983 1_554 S
C340 C336 1.684 . S
H341 C359 0.948 . S
H342 C300 0.948 . S
H343 C318 0.979 . S
H344 C318 0.980 . S
H345 C318 0.983 . S
H346 C317 0.982 . S
H347 C317 0.979 . S
H348 C317 0.977 . S
H349 C319 0.948 . S
H350 C321 0.947 . S
H351 C322 0.948 . S
H352 C328 0.982 . S
H353 C328 0.979 . S
H354 C328 0.977 . S
H355 C329 0.979 . S
H356 C329 0.980 . S
H357 C329 0.983 . S
H358 C302 0.947 . S
C359 C302 1.392 . S
C359 C303 1.419 . S
C359 H341 0.948 . S
C360 C361 1.391 . S
C360 C364 1.391 . S
C360 H402 0.948 . S
C361 C360 1.391 . S
C361 C362 1.391 . S
C362 C361 1.391 . S
C362 H418 0.947 . S
C362 C419 1.392 . S
C363 C364 1.387 1_554 S
C363 C367 1.402 . S
C363 C419 1.417 1_554 S
C364 C360 1.391 . S
C364 C363 1.387 1_556 S
C364 C365 1.399 . S
C365 C364 1.399 . S
C365 C368 1.396 1_556 S
C365 C377 1.453 . S
C365 C378 1.684 . S
H366 C390 0.948 . S
C367 C363 1.402 . S
C367 C368 1.394 . S
C367 C386 1.723 . S
C368 C365 1.396 1_554 S
C368 C367 1.394 . S
C368 C398 1.723 . S
H369 C392 0.947 . S
H370 C393 0.948 . S
H371 C399 0.982 . S
H372 C400 0.979 . S
H373 C400 0.980 . S
H374 C400 0.983 . S
H375 C399 0.979 . S
H376 C399 0.977 . S
C377 C365 1.453 . S
C377 H406 0.982 . S
C377 H407 0.979 . S
C377 H408 0.977 1_556 S
C378 C365 1.684 . S
C378 H403 0.979 . S
C378 H404 0.980 . S
C378 H405 0.983 . S
C379 C380 1.391 . S
C379 C384 1.391 . S
C379 H409 0.948 . S
C380 C379 1.391 . S
C380 C381 1.391 . S
C381 C380 1.391 . S
C381 C382 1.392 . S
C381 H410 0.947 . S
C382 C381 1.392 . S
C382 C383 1.419 . S
C382 H411 0.948 . S
C383 C382 1.419 . S
C383 C384 1.391 . S
C383 C387 1.397 . S
C384 C379 1.391 . S
C384 C383 1.391 . S
C384 C385 1.399 . S
C385 C384 1.399 . S
C385 C386 1.396 . S
C385 C388 1.453 . S
C385 C389 1.684 . S
C386 C367 1.723 . S
C386 C385 1.396 . S
C386 C387 1.394 . S
C387 C383 1.397 . S
C387 C386 1.394 . S
C387 C397 1.723 . S
C388 C385 1.453 . S
C388 H412 0.982 . S
C388 H413 0.979 . S
C388 H414 0.977 . S
C389 C385 1.684 . S
C389 H415 0.979 . S
C389 H416 0.980 . S
C389 H417 0.983 . S
C390 H366 0.948 . S
C390 C391 1.391 . S
C390 C395 1.391 . S
C391 C390 1.391 . S
C391 C392 1.391 . S
C392 H369 0.947 . S
C392 C391 1.391 . S
C392 C393 1.392 . S
C393 H370 0.948 . S
C393 C392 1.392 . S
C393 C394 1.419 . S
C394 C393 1.419 . S
C394 C395 1.391 . S
C394 C398 1.397 . S
C395 C390 1.391 . S
C395 C394 1.391 . S
C395 C396 1.399 . S
C396 C395 1.399 . S
C396 C397 1.396 . S
C396 C399 1.453 . S
C396 C400 1.684 . S
C397 C387 1.723 . S
C397 C396 1.396 . S
C397 C398 1.394 . S
C398 C368 1.723 . S
C398 C394 1.397 . S
C398 C397 1.394 . S
C399 H371 0.982 . S
C399 H375 0.979 . S
C399 H376 0.977 . S
C399 C396 1.453 . S
C400 H372 0.979 . S
C400 H373 0.980 . S
C400 H374 0.983 . S
C400 C396 1.684 . S
H401 C419 0.948 1_554 S
H402 C360 0.948 . S
H403 C378 0.979 . S
H404 C378 0.980 . S
H405 C378 0.983 . S
H406 C377 0.982 . S
H407 C377 0.979 . S
H408 C377 0.977 1_554 S
H409 C379 0.948 . S
H410 C381 0.947 . S
H411 C382 0.948 . S
H412 C388 0.982 . S
H413 C388 0.979 . S
H414 C388 0.977 . S
H415 C389 0.979 . S
H416 C389 0.980 . S
H417 C389 0.983 . S
H418 C362 0.947 . S
C419 C362 1.392 . S
C419 C363 1.417 1_556 S
C419 H401 0.948 1_556 S
C420 C421 1.391 . S
C420 C424 1.391 . S
C420 H462 0.948 . S
C421 C420 1.391 . S
C421 C422 1.391 . S
C422 C421 1.391 . S
C422 H478 0.947 . S
C422 C479 1.392 . S
C423 C424 1.391 . S
C423 C427 1.397 1_556 S
C423 C479 1.419 . S
C424 C420 1.391 . S
C424 C423 1.391 . S
C424 C425 1.399 . S
C425 C424 1.399 . S
C425 C428 1.396 1_556 S
C425 C437 1.453 . S
C425 C438 1.684 . S
H426 C450 0.948 . S
C427 C423 1.397 1_554 S
C427 C428 1.394 . S
C427 C446 1.723 . S
C428 C425 1.396 1_554 S
C428 C427 1.394 . S
C428 C458 1.723 . S
H429 C452 0.947 . S
H430 C453 0.948 . S
H431 C459 0.982 . S
H432 C460 0.979 . S
H433 C460 0.980 . S
H434 C460 0.983 . S
H435 C459 0.979 . S
H436 C459 0.977 . S
C437 C425 1.453 . S
C437 H466 0.982 . S
C437 H467 0.979 . S
C437 H468 0.977 . S
C438 C425 1.684 . S
C438 H463 0.979 . S
C438 H464 0.980 . S
C438 H465 0.983 . S
C439 C440 1.391 . S
C439 C444 1.391 . S
C439 H469 0.948 . S
C440 C439 1.391 . S
C440 C441 1.391 . S
C441 C440 1.391 . S
C441 C442 1.392 . S
C441 H470 0.947 . S
C442 C441 1.392 . S
C442 C443 1.419 . S
C442 H471 0.948 . S
C443 C442 1.419 . S
C443 C444 1.391 . S
C443 C447 1.397 . S
C444 C439 1.391 . S
C444 C443 1.391 . S
C444 C445 1.399 . S
C445 C444 1.399 . S
C445 C446 1.396 . S
C445 C448 1.453 . S
C445 C449 1.684 . S
C446 C427 1.723 . S
C446 C445 1.396 . S
C446 C447 1.394 . S
C447 C443 1.397 . S
C447 C446 1.394 . S
C447 C457 1.723 . S
C448 C445 1.453 . S
C448 H472 0.982 . S
C448 H473 0.979 . S
C448 H474 0.977 . S
C449 C445 1.684 . S
C449 H475 0.979 . S
C449 H476 0.980 . S
C449 H477 0.983 . S
C450 H426 0.948 . S
C450 C451 1.391 . S
C450 C455 1.391 . S
C451 C450 1.391 . S
C451 C452 1.391 . S
C452 H429 0.947 . S
C452 C451 1.391 . S
C452 C453 1.392 . S
C453 H430 0.948 . S
C453 C452 1.392 . S
C453 C454 1.419 . S
C454 C453 1.419 . S
C454 C455 1.391 . S
C454 C458 1.397 . S
C455 C450 1.391 . S
C455 C454 1.391 . S
C455 C456 1.399 . S
C456 C455 1.399 . S
C456 C457 1.396 . S
C456 C459 1.453 . S
C456 C460 1.684 . S
C457 C447 1.723 . S
C457 C456 1.396 . S
C457 C458 1.394 . S
C458 C428 1.723 . S
C458 C454 1.397 . S
C458 C457 1.394 . S
C459 H431 0.982 . S
C459 H435 0.979 . S
C459 H436 0.977 . S
C459 C456 1.453 . S
C460 H432 0.979 . S
C460 H433 0.980 . S
C460 H434 0.983 . S
C460 C456 1.684 . S
H461 C479 0.948 1_554 S
H462 C420 0.948 . S
H463 C438 0.979 . S
H464 C438 0.980 . S
H465 C438 0.983 . S
H466 C437 0.982 . S
H467 C437 0.979 . S
H468 C437 0.977 . S
H469 C439 0.948 . S
H470 C441 0.947 . S
H471 C442 0.948 . S
H472 C448 0.982 . S
H473 C448 0.979 . S
H474 C448 0.977 . S
H475 C449 0.979 . S
H476 C449 0.980 . S
H477 C449 0.983 . S
H478 C422 0.947 . S
C479 C422 1.392 . S
C479 C423 1.419 . S
C479 H461 0.948 1_556 S
Zn480 O486 1.969 . S
Zn480 O487 1.965 1_655 S
Zn480 O491 2.024 1_655 S
Zn480 O496 1.969 . S
Zn481 O488 1.969 . S
Zn481 O494 1.969 . S
Zn481 O495 1.965 1_455 S
Zn481 O497 2.024 1_455 S
C482 O483 1.229 1_455 S
C482 O491 1.058 . S
O483 C482 1.229 1_655 S
C484 O485 1.229 1_655 S
C484 O497 1.058 . S
O485 C484 1.229 1_455 S
O486 Zn480 1.969 . S
O486 C489 1.267 . S
O487 Zn480 1.965 1_455 S
O487 C498 1.260 . S
O488 Zn481 1.969 . S
O488 C498 1.258 1_565 S
C489 O486 1.267 . S
C489 O490 1.228 1_655 S
O490 C489 1.228 1_455 S
O491 Zn480 2.024 1_455 S
O491 C482 1.058 . S
C492 O493 1.228 1_455 S
C492 O494 1.267 . S
O493 C492 1.228 1_655 S
O494 Zn481 1.969 . S
O494 C492 1.267 . S
O495 Zn481 1.965 1_655 S
O495 C499 1.260 . S
O496 Zn480 1.969 . S
O496 C499 1.258 1_545 S
O497 Zn481 2.024 1_655 S
O497 C484 1.058 . S
C498 O487 1.260 . S
C498 O488 1.258 1_545 S
C499 O495 1.260 . S
C499 O496 1.258 1_565 S
Zn500 O506 1.969 1_545 S
Zn500 O507 1.965 . S
Zn500 O511 2.024 . S
Zn500 O516 1.969 1_545 S
Zn501 O508 1.969 1_565 S
Zn501 O514 1.969 1_565 S
Zn501 O515 1.965 . S
Zn501 O517 2.024 . S
C502 O503 1.229 . S
C502 O511 1.058 . S
O503 C502 1.229 . S
C504 O505 1.229 . S
C504 O517 1.058 . S
O505 C504 1.229 . S
O506 Zn500 1.969 1_565 S
O506 C509 1.267 1_565 S
O507 Zn500 1.965 . S
O507 C518 1.260 . S
O508 Zn501 1.969 1_545 S
O508 C518 1.258 . S
C509 O506 1.267 1_545 S
C509 O510 1.228 . S
O510 C509 1.228 . S
O511 Zn500 2.024 . S
O511 C502 1.058 . S
C512 O513 1.228 . S
C512 O514 1.267 1_565 S
O513 C512 1.228 . S
O514 Zn501 1.969 1_545 S
O514 C512 1.267 1_545 S
O515 Zn501 1.965 . S
O515 C519 1.260 . S
O516 Zn500 1.969 1_565 S
O516 C519 1.258 . S
O517 Zn501 2.024 . S
O517 C504 1.058 . S
C518 O507 1.260 . S
C518 O508 1.258 . S
C519 O515 1.260 . S
C519 O516 1.258 . S
Zn520 O526 1.969 . S
Zn520 O527 1.965 . S
Zn520 O531 2.024 . S
Zn520 O536 1.969 . S
Zn521 O528 1.969 . S
Zn521 O534 1.969 . S
Zn521 O535 1.965 . S
Zn521 O537 2.024 . S
C522 O523 1.229 . S
C522 O531 1.058 . S
O523 C522 1.229 . S
C524 O525 1.229 . S
C524 O537 1.058 . S
O525 C524 1.229 . S
O526 Zn520 1.969 . S
O526 C529 1.267 . S
O527 Zn520 1.965 . S
O527 C538 1.260 . S
O528 Zn521 1.969 . S
O528 C538 1.258 . S
C529 O526 1.267 . S
C529 O530 1.228 . S
O530 C529 1.228 . S
O531 Zn520 2.024 . S
O531 C522 1.058 . S
C532 O533 1.228 . S
C532 O534 1.267 . S
O533 C532 1.228 . S
O534 Zn521 1.969 . S
O534 C532 1.267 . S
O535 Zn521 1.965 . S
O535 C539 1.260 . S
O536 Zn520 1.969 . S
O536 C539 1.258 . S
O537 Zn521 2.024 . S
O537 C524 1.058 . S
C538 O527 1.260 . S
C538 O528 1.258 . S
C539 O535 1.260 . S
C539 O536 1.258 . S
Zn540 O546 1.969 . S
Zn540 O547 1.965 . S
Zn540 O551 2.024 . S
Zn540 O556 1.969 . S
Zn541 O548 1.969 . S
Zn541 O554 1.969 . S
Zn541 O555 1.965 . S
Zn541 O557 2.024 . S
C542 O543 1.229 . S
C542 O551 1.058 . S
O543 C542 1.229 . S
C544 O545 1.229 . S
C544 O557 1.058 . S
O545 C544 1.229 . S
O546 Zn540 1.969 . S
O546 C549 1.267 . S
O547 Zn540 1.965 . S
O547 C558 1.260 1_455 S
O548 Zn541 1.969 . S
O548 C558 1.258 . S
C549 O546 1.267 . S
C549 O550 1.228 . S
O550 C549 1.228 . S
O551 Zn540 2.024 . S
O551 C542 1.058 . S
C552 O553 1.228 . S
C552 O554 1.267 . S
O553 C552 1.228 . S
O554 Zn541 1.969 . S
O554 C552 1.267 . S
O555 Zn541 1.965 . S
O555 C559 1.260 1_655 S
O556 Zn540 1.969 . S
O556 C559 1.258 . S
O557 Zn541 2.024 . S
O557 C544 1.058 . S
C558 O547 1.260 1_655 S
C558 O548 1.258 . S
C559 O555 1.260 1_455 S
C559 O556 1.258 . S
C560 C561 1.387 . S
C560 H564 0.950 . S
C560 C569 1.390 . S
C561 C560 1.387 . S
C561 C563 1.387 . S
H562 C569 0.950 1_565 S
C563 C561 1.387 . S
C563 C565 1.390 . S
C563 H567 0.950 . S
H564 C560 0.950 . S
C565 C563 1.390 . S
C565 C566 1.387 . S
C565 H568 0.950 . S
C566 C565 1.387 . S
C566 C569 1.387 . S
H567 C563 0.950 . S
H568 C565 0.950 . S
C569 C560 1.390 . S
C569 H562 0.950 1_545 S
C569 C566 1.387 . S
C570 C571 1.387 . S
C570 H574 0.950 . S
C570 C579 1.390 . S
C571 C570 1.387 . S
C571 C573 1.387 . S
H572 C579 0.950 . S
C573 C571 1.387 . S
C573 C575 1.390 . S
C573 H577 0.950 . S
H574 C570 0.950 . S
C575 C573 1.390 . S
C575 C576 1.387 . S
C575 H578 0.950 . S
C576 C575 1.387 . S
C576 C579 1.387 . S
H577 C573 0.950 . S
H578 C575 0.950 . S
C579 C570 1.390 . S
C579 H572 0.950 . S
C579 C576 1.387 . S
C580 C581 1.387 . S
C580 H584 0.950 . S
C580 C589 1.390 . S
C581 C580 1.387 . S
C581 C583 1.387 . S
H582 C589 0.950 . S
C583 C581 1.387 . S
C583 C585 1.390 . S
C583 H587 0.950 . S
H584 C580 0.950 . S
C585 C583 1.390 . S
C585 C586 1.387 . S
C585 H588 0.950 . S
C586 C585 1.387 . S
C586 C589 1.387 . S
H587 C583 0.950 . S
H588 C585 0.950 . S
C589 C580 1.390 . S
C589 H582 0.950 . S
C589 C586 1.387 . S
C590 C591 1.387 1_455 S
C590 H594 0.950 . S
C590 C599 1.390 . S
C591 C590 1.387 1_655 S
C591 C593 1.387 . S
H592 C599 0.950 . S
C593 C591 1.387 . S
C593 C595 1.390 . S
C593 H597 0.950 . S
H594 C590 0.950 . S
C595 C593 1.390 . S
C595 C596 1.387 . S
C595 H598 0.950 . S
C596 C595 1.387 . S
C596 C599 1.387 1_655 S
H597 C593 0.950 . S
H598 C595 0.950 . S
C599 C590 1.390 . S
C599 H592 0.950 . S
C599 C596 1.387 1_455 S
C600 C601 1.387 . S
C600 H604 0.950 . S
C600 C609 1.390 . S
C601 C600 1.387 . S
C601 C603 1.387 . S
H602 C609 0.950 . S
C603 C601 1.387 . S
C603 C605 1.390 . S
C603 H607 0.950 . S
H604 C600 0.950 . S
C605 C603 1.390 . S
C605 C606 1.387 . S
C605 H608 0.950 1_565 S
C606 C605 1.387 . S
C606 C609 1.387 . S
H607 C603 0.950 . S
H608 C605 0.950 1_545 S
C609 C600 1.390 . S
C609 H602 0.950 . S
C609 C606 1.387 . S
C610 C611 1.387 . S
C610 H614 0.950 . S
C610 C619 1.390 . S
C611 C610 1.387 . S
C611 C613 1.387 . S
H612 C619 0.950 . S
C613 C611 1.387 . S
C613 C615 1.390 . S
C613 H617 0.950 . S
H614 C610 0.950 . S
C615 C613 1.390 . S
C615 C616 1.387 . S
C615 H618 0.950 . S
C616 C615 1.387 . S
C616 C619 1.387 . S
H617 C613 0.950 . S
H618 C615 0.950 . S
C619 C610 1.390 . S
C619 H612 0.950 . S
C619 C616 1.387 . S
C620 C621 1.387 . S
C620 H624 0.950 . S
C620 C629 1.390 . S
C621 C620 1.387 . S
C621 C623 1.387 . S
H622 C629 0.950 . S
C623 C621 1.387 . S
C623 C625 1.390 . S
C623 H627 0.950 . S
H624 C620 0.950 . S
C625 C623 1.390 . S
C625 C626 1.387 . S
C625 H628 0.950 . S
C626 C625 1.387 . S
C626 C629 1.387 . S
H627 C623 0.950 . S
H628 C625 0.950 . S
C629 C620 1.390 . S
C629 H622 0.950 . S
C629 C626 1.387 . S
C630 C631 1.387 . S
C630 H634 0.950 . S
C630 C639 1.390 . S
C631 C630 1.387 . S
C631 C633 1.387 . S
H632 C639 0.950 . S
C633 C631 1.387 . S
C633 C635 1.390 . S
C633 H637 0.951 . S
H634 C630 0.950 . S
C635 C633 1.390 . S
C635 C636 1.387 . S
C635 H638 0.950 . S
C636 C635 1.387 . S
C636 C639 1.387 . S
H637 C633 0.951 . S
H638 C635 0.950 . S
C639 C630 1.390 . S
C639 H632 0.950 . S
C639 C636 1.387 . S
C640 C641 1.387 . S
C640 H644 0.951 . S
C640 C649 1.390 . S
C641 C640 1.387 . S
C641 C643 1.387 . S
H642 C649 0.950 . S
C643 C641 1.387 . S
C643 C645 1.390 . S
C643 H647 0.950 . S
H644 C640 0.951 . S
C645 C643 1.390 . S
C645 C646 1.387 . S
C645 H648 0.950 . S
C646 C645 1.387 . S
C646 C649 1.387 . S
H647 C643 0.950 . S
H648 C645 0.950 . S
C649 C640 1.390 . S
C649 H642 0.950 . S
C649 C646 1.387 . S
C650 C651 1.387 . S
C650 H654 0.950 . S
C650 C659 1.390 . S
C651 C650 1.387 . S
C651 C653 1.387 . S
H652 C659 0.950 . S
C653 C651 1.387 . S
C653 C655 1.390 . S
C653 H657 0.950 . S
H654 C650 0.950 . S
C655 C653 1.390 . S
C655 C656 1.387 . S
C655 H658 0.950 . S
C656 C655 1.387 . S
C656 C659 1.387 . S
H657 C653 0.950 . S
H658 C655 0.950 . S
C659 C650 1.390 . S
C659 H652 0.950 . S
C659 C656 1.387 . S
C660 C661 1.387 . S
C660 H664 0.950 . S
C660 C669 1.390 . S
C661 C660 1.387 . S
C661 C663 1.387 . S
H662 C669 0.950 . S
C663 C661 1.387 . S
C663 C665 1.390 . S
C663 H667 0.950 . S
H664 C660 0.950 . S
C665 C663 1.390 . S
C665 C666 1.387 . S
C665 H668 0.950 . S
C666 C665 1.387 . S
C666 C669 1.387 . S
H667 C663 0.950 . S
H668 C665 0.950 . S
C669 C660 1.390 . S
C669 H662 0.950 . S
C669 C666 1.387 . S
C670 C671 1.387 . S
C670 H674 0.950 . S
C670 C679 1.390 . S
C671 C670 1.387 . S
C671 C673 1.387 . S
H672 C679 0.950 . S
C673 C671 1.387 . S
C673 C675 1.390 . S
C673 H677 0.950 . S
H674 C670 0.950 . S
C675 C673 1.390 . S
C675 C676 1.387 . S
C675 H678 0.950 . S
C676 C675 1.387 . S
C676 C679 1.387 . S
H677 C673 0.950 . S
H678 C675 0.950 . S
C679 C670 1.390 . S
C679 H672 0.950 . S
C679 C676 1.387 . S
C680 C681 1.387 . S
C680 H684 0.950 . S
C680 C689 1.390 . S
C681 C680 1.387 . S
C681 C683 1.387 1_455 S
H682 C689 0.950 . S
C683 C681 1.387 1_655 S
C683 C685 1.390 . S
C683 H687 0.950 . S
H684 C680 0.950 . S
C685 C683 1.390 . S
C685 C686 1.387 1_655 S
C685 H688 0.950 . S
C686 C685 1.387 1_455 S
C686 C689 1.387 . S
H687 C683 0.950 . S
H688 C685 0.950 . S
C689 C680 1.390 . S
C689 H682 0.950 . S
C689 C686 1.387 . S
C690 C691 1.387 . S
C690 H694 0.950 . S
C690 C699 1.390 . S
C691 C690 1.387 . S
C691 C693 1.387 . S
H692 C699 0.950 . S
C693 C691 1.387 . S
C693 C695 1.390 . S
C693 H697 0.950 . S
H694 C690 0.950 . S
C695 C693 1.390 . S
C695 C696 1.387 . S
C695 H698 0.950 . S
C696 C695 1.387 . S
C696 C699 1.387 . S
H697 C693 0.950 . S
H698 C695 0.950 . S
C699 C690 1.390 . S
C699 H692 0.950 . S
C699 C696 1.387 . S
C700 C701 1.387 . S
C700 H704 0.950 . S
C700 C709 1.390 . S
C701 C700 1.387 . S
C701 C703 1.387 . S
H702 C709 0.950 . S
C703 C701 1.387 . S
C703 C705 1.390 . S
C703 H707 0.950 . S
H704 C700 0.950 . S
C705 C703 1.390 . S
C705 C706 1.387 . S
C705 H708 0.950 . S
C706 C705 1.387 . S
C706 C709 1.387 . S
H707 C703 0.950 . S
H708 C705 0.950 . S
C709 C700 1.390 . S
C709 H702 0.950 . S
C709 C706 1.387 . S
C710 C711 1.387 . S
C710 H714 0.950 . S
C710 C719 1.390 . S
C711 C710 1.387 . S
C711 C713 1.387 . S
H712 C719 0.950 . S
C713 C711 1.387 . S
C713 C715 1.390 . S
C713 H717 0.950 . S
H714 C710 0.950 . S
C715 C713 1.390 . S
C715 C716 1.387 . S
C715 H718 0.950 . S
C716 C715 1.387 . S
C716 C719 1.387 . S
H717 C713 0.950 . S
H718 C715 0.950 . S
C719 C710 1.390 . S
C719 H712 0.950 . S
C719 C716 1.387 . S
C720 C721 1.387 . S
C720 H724 0.950 . S
C720 C729 1.390 . S
C721 C720 1.387 . S
C721 C723 1.387 1_455 S
H722 C729 0.950 . S
C723 C721 1.387 1_655 S
C723 C725 1.390 . S
C723 H727 0.950 . S
H724 C720 0.950 . S
C725 C723 1.390 . S
C725 C726 1.387 1_655 S
C725 H728 0.950 . S
C726 C725 1.387 1_455 S
C726 C729 1.387 . S
H727 C723 0.950 . S
H728 C725 0.950 . S
C729 C720 1.390 . S
C729 H722 0.950 . S
C729 C726 1.387 . S
C730 C731 1.387 . S
C730 H734 0.950 . S
C730 C739 1.390 . S
C731 C730 1.387 . S
C731 C733 1.387 . S
H732 C739 0.950 . S
C733 C731 1.387 . S
C733 C735 1.390 . S
C733 H737 0.950 . S
H734 C730 0.950 . S
C735 C733 1.390 . S
C735 C736 1.387 . S
C735 H738 0.950 . S
C736 C735 1.387 . S
C736 C739 1.387 . S
H737 C733 0.950 . S
H738 C735 0.950 . S
C739 C730 1.390 . S
C739 H732 0.950 . S
C739 C736 1.387 . S
C740 C741 1.387 . S
C740 H744 0.950 . S
C740 C749 1.390 . S
C741 C740 1.387 . S
C741 C743 1.387 . S
H742 C749 0.950 . S
C743 C741 1.387 . S
C743 C745 1.390 . S
C743 H747 0.950 . S
H744 C740 0.950 . S
C745 C743 1.390 . S
C745 C746 1.387 . S
C745 H748 0.950 . S
C746 C745 1.387 . S
C746 C749 1.387 . S
H747 C743 0.950 . S
H748 C745 0.950 . S
C749 C740 1.390 . S
C749 H742 0.950 . S
C749 C746 1.387 . S
C750 C751 1.387 . S
C750 H754 0.950 . S
C750 C759 1.390 . S
C751 C750 1.387 . S
C751 C753 1.387 . S
H752 C759 0.950 . S
C753 C751 1.387 . S
C753 C755 1.390 . S
C753 H757 0.950 . S
H754 C750 0.950 . S
C755 C753 1.390 . S
C755 C756 1.387 . S
C755 H758 0.950 . S
C756 C755 1.387 . S
C756 C759 1.387 . S
H757 C753 0.950 . S
H758 C755 0.950 . S
C759 C750 1.390 . S
C759 H752 0.950 . S
C759 C756 1.387 . S
C760 C761 1.387 . S
C760 H764 0.950 . S
C760 C769 1.390 . S
C761 C760 1.387 . S
C761 C763 1.387 1_655 S
H762 C769 0.950 . S
C763 C761 1.387 1_455 S
C763 C765 1.390 . S
C763 H767 0.950 . S
H764 C760 0.950 . S
C765 C763 1.390 . S
C765 C766 1.387 1_455 S
C765 H768 0.950 . S
C766 C765 1.387 1_655 S
C766 C769 1.387 . S
H767 C763 0.950 . S
H768 C765 0.950 . S
C769 C760 1.390 . S
C769 H762 0.950 . S
C769 C766 1.387 . S
C770 C771 1.387 . S
C770 H774 0.950 . S
C770 C779 1.390 . S
C771 C770 1.387 . S
C771 C773 1.387 . S
H772 C779 0.950 . S
C773 C771 1.387 . S
C773 C775 1.390 . S
C773 H777 0.950 . S
H774 C770 0.950 . S
C775 C773 1.390 . S
C775 C776 1.387 . S
C775 H778 0.950 . S
C776 C775 1.387 . S
C776 C779 1.387 . S
H777 C773 0.950 . S
H778 C775 0.950 . S
C779 C770 1.390 . S
C779 H772 0.950 . S
C779 C776 1.387 . S
C780 C781 1.387 . S
C780 H784 0.950 . S
C780 C789 1.390 . S
C781 C780 1.387 . S
C781 C783 1.387 . S
H782 C789 0.950 . S
C783 C781 1.387 . S
C783 C785 1.390 . S
C783 H787 0.950 . S
H784 C780 0.950 . S
C785 C783 1.390 . S
C785 C786 1.387 . S
C785 H788 0.950 . S
C786 C785 1.387 . S
C786 C789 1.387 . S
H787 C783 0.950 . S
H788 C785 0.950 . S
C789 C780 1.390 . S
C789 H782 0.950 . S
C789 C786 1.387 . S
C790 C791 1.387 . S
C790 H794 0.950 . S
C790 C799 1.390 . S
C791 C790 1.387 . S
C791 C793 1.387 . S
H792 C799 0.950 . S
C793 C791 1.387 . S
C793 C795 1.390 . S
C793 H797 0.950 . S
H794 C790 0.950 . S
C795 C793 1.390 . S
C795 C796 1.387 . S
C795 H798 0.950 . S
C796 C795 1.387 . S
C796 C799 1.387 . S
H797 C793 0.950 . S
H798 C795 0.950 . S
C799 C790 1.390 . S
C799 H792 0.950 . S
C799 C796 1.387 . S
C561 C391 2.125 . S
C566 C498 2.061 . S
C576 C518 1.746 . S
C571 C451 1.849 . S
C586 C538 2.025 . S
C581 C241 1.742 . S
C596 C558 1.741 . S
C591 C331 1.586 . S
C606 C499 2.063 . S
C601 C121 1.887 . S
C611 C211 1.885 . S
C616 C519 1.745 . S
C621 C31 1.984 . S
C626 C539 2.025 . S
C631 C91 1.599 1_455 S
C636 C559 1.743 . S
C646 C489 0.849 . S
C641 C301 0.847 . S
C656 C509 1.044 . S
C651 C380 1.193 . S
C666 C529 0.874 . S
C661 C440 0.911 . S
C671 C260 1.017 . S
C676 C549 1.037 . S
C681 C61 0.863 1_455 S
C686 C492 0.849 . S
C696 C512 1.044 . S
C691 C140 1.107 . S
C706 C532 0.874 . S
C701 C200 0.917 . S
C711 C20 1.112 . S
C716 C552 1.044 . S
C721 C320 2.316 1_455 S
C726 C482 2.146 . S
C731 C361 2.033 . S
C736 C502 2.189 . S
C746 C522 2.088 . S
C741 C421 1.895 . S
C756 C542 2.245 . S
C751 C271 2.350 . S
C761 C80 2.298 . S
C766 C484 2.143 . S
C776 C504 2.188 . S
C771 C151 2.359 . S
C786 C524 2.090 . S
C781 C181 1.958 . S
C791 C1 2.025 . S
C796 C544 2.251 . S
