# Generated by pormake.
# Topology zzz, (3,6)-cn, num edge types: 1
# Building blocks:
#     Node 0, Type 0, BuildingBlock: VETTIZ_charged_linker_0, # of connection points: 3
#     Node 1, Type 0, BuildingBlock: VETTIZ_charged_linker_0, # of connection points: 3
#     Node 2, Type 0, BuildingBlock: VETTIZ_charged_linker_0, # of connection points: 3
#     Node 3, Type 0, BuildingBlock: VETTIZ_charged_linker_0, # of connection points: 3
#     Node 4, Type 0, BuildingBlock: VETTIZ_charged_linker_0, # of connection points: 3
#     Node 5, Type 0, BuildingBlock: VETTIZ_charged_linker_0, # of connection points: 3
#     Node 6, Type 0, BuildingBlock: VETTIZ_charged_linker_0, # of connection points: 3
#     Node 7, Type 0, BuildingBlock: VETTIZ_charged_linker_0, # of connection points: 3
#     Node 8, Type 1, BuildingBlock: KUMBOL_clean_sbu_0, # of connection points: 6
#     Node 9, Type 1, BuildingBlock: KUMBOL_clean_sbu_0, # of connection points: 6
#     Node 10, Type 1, BuildingBlock: KUMBOL_clean_sbu_0, # of connection points: 6
#     Node 11, Type 1, BuildingBlock: KUMBOL_clean_sbu_0, # of connection points: 6
#     Edge 12, Type (0, 1), BuildingBlock: ZUJKAS_clean_linker_0, # of connection points: 2
#     Edge 13, Type (0, 1), BuildingBlock: ZUJKAS_clean_linker_0, # of connection points: 2
#     Edge 14, Type (0, 1), BuildingBlock: ZUJKAS_clean_linker_0, # of connection points: 2
#     Edge 15, Type (0, 1), BuildingBlock: ZUJKAS_clean_linker_0, # of connection points: 2
#     Edge 16, Type (0, 1), BuildingBlock: ZUJKAS_clean_linker_0, # of connection points: 2
#     Edge 17, Type (0, 1), BuildingBlock: ZUJKAS_clean_linker_0, # of connection points: 2
#     Edge 18, Type (0, 1), BuildingBlock: ZUJKAS_clean_linker_0, # of connection points: 2
#     Edge 19, Type (0, 1), BuildingBlock: ZUJKAS_clean_linker_0, # of connection points: 2
#     Edge 20, Type (0, 1), BuildingBlock: ZUJKAS_clean_linker_0, # of connection points: 2
#     Edge 21, Type (0, 1), BuildingBlock: ZUJKAS_clean_linker_0, # of connection points: 2
#     Edge 22, Type (0, 1), BuildingBlock: ZUJKAS_clean_linker_0, # of connection points: 2
#     Edge 23, Type (0, 1), BuildingBlock: ZUJKAS_clean_linker_0, # of connection points: 2
#     Edge 24, Type (0, 1), BuildingBlock: ZUJKAS_clean_linker_0, # of connection points: 2
#     Edge 25, Type (0, 1), BuildingBlock: ZUJKAS_clean_linker_0, # of connection points: 2
#     Edge 26, Type (0, 1), BuildingBlock: ZUJKAS_clean_linker_0, # of connection points: 2
#     Edge 27, Type (0, 1), BuildingBlock: ZUJKAS_clean_linker_0, # of connection points: 2
#     Edge 28, Type (0, 1), BuildingBlock: ZUJKAS_clean_linker_0, # of connection points: 2
#     Edge 29, Type (0, 1), BuildingBlock: ZUJKAS_clean_linker_0, # of connection points: 2
#     Edge 30, Type (0, 1), BuildingBlock: ZUJKAS_clean_linker_0, # of connection points: 2
#     Edge 31, Type (0, 1), BuildingBlock: ZUJKAS_clean_linker_0, # of connection points: 2
#     Edge 32, Type (0, 1), BuildingBlock: ZUJKAS_clean_linker_0, # of connection points: 2
#     Edge 33, Type (0, 1), BuildingBlock: ZUJKAS_clean_linker_0, # of connection points: 2
#     Edge 34, Type (0, 1), BuildingBlock: ZUJKAS_clean_linker_0, # of connection points: 2
#     Edge 35, Type (0, 1), BuildingBlock: ZUJKAS_clean_linker_0, # of connection points: 2
# Relax obj value: 0.279
# Max RMSD: 0.230
# Mean RMSD: 0.213
data_MOF--net-zzz--node1-KUMBOL_clean_sbu_0--node2-VETTIZ_charged_linker_0--edge1-ZUJKAS_clean_linker_0
_symmetry_space_group_name_H-M    P1
_symmetry_Int_Tables_number       1
_symmetry_cell_setting            triclinic
loop_
_symmetry_equiv_pos_as_xyz
'x, y, z'
_cell_length_a     70.471845
_cell_length_b     70.424296
_cell_length_c     24.679228
_cell_angle_alpha  90.391314
_cell_angle_beta   90.070225
_cell_angle_gamma 89.949213
loop_
_atom_site_label
_atom_site_type_symbol
_atom_site_fract_x
_atom_site_fract_y
_atom_site_fract_z
_atom_type_partial_charge
C0 C 0.77508 0.56151 0.29736 0.0
C1 C 0.79389 0.56792 0.31071 0.0
C2 C 0.8025 0.58104 0.27604 0.0
C3 C 0.77526 0.58137 0.2168 0.0
C4 C 0.76584 0.56874 0.24968 0.0
C5 C 0.74605 0.56454 0.22542 0.0
H6 H 0.68814 0.57941 0.99844 0.0
C7 C 0.76375 0.58545 0.16845 0.0
C8 C 0.74621 0.57587 0.17183 0.0
H9 H 0.67258 0.54404 0.13296 0.0
H10 H 0.7024 0.55304 0.18016 0.0
H11 H 0.70796 0.6144 0.05994 0.0
H12 H 0.72491 0.56151 0.98841 0.0
H13 H 0.74527 0.57545 0.98261 0.0
H14 H 0.72364 0.58261 0.94879 0.0
H15 H 0.70728 0.60897 0.98872 0.0
H16 H 0.72811 0.61898 0.01989 0.0
C17 C 0.73067 0.57211 0.26411 0.0
C18 C 0.74402 0.54309 0.21516 0.0
C19 C 0.79837 0.61631 0.0142 0.0
C20 C 0.79528 0.61352 0.95851 0.0
C21 C 0.7764 0.61136 0.94033 0.0
C22 C 0.7617 0.60854 0.97758 0.0
C23 C 0.76615 0.60656 0.03289 0.0
C24 C 0.78417 0.61101 0.05035 0.0
C25 C 0.78773 0.60482 0.10735 0.0
C26 C 0.76882 0.59576 0.12152 0.0
C27 C 0.75625 0.59703 0.0782 0.0
C28 C 0.79168 0.62299 0.14165 0.0
C29 C 0.80413 0.58986 0.10576 0.0
C30 C 0.69083 0.57348 0.03814 0.0
C31 C 0.67801 0.56073 0.06089 0.0
C32 C 0.68227 0.55379 0.1136 0.0
C33 C 0.6996 0.55882 0.14068 0.0
C34 C 0.71289 0.57069 0.11454 0.0
C35 C 0.7079 0.57776 0.06413 0.0
C36 C 0.72347 0.5883 0.0374 0.0
C37 C 0.73834 0.58814 0.0811 0.0
C38 C 0.73278 0.57762 0.12729 0.0
C39 C 0.71642 0.60873 0.02539 0.0
C40 C 0.72965 0.57656 0.98655 0.0
H41 H 0.80126 0.59784 0.20779 0.0
H42 H 0.76789 0.55144 0.32307 0.0
H43 H 0.75582 0.53782 0.18925 0.0
H44 H 0.73055 0.53969 0.19433 0.0
H45 H 0.74437 0.53522 0.25403 0.0
H46 H 0.73286 0.5875 0.2724 0.0
H47 H 0.73117 0.56447 0.30334 0.0
H48 H 0.71632 0.57036 0.24652 0.0
H49 H 0.81248 0.61909 0.02975 0.0
H50 H 0.77314 0.60986 0.89767 0.0
H51 H 0.74778 0.6064 0.96121 0.0
H52 H 0.78523 0.63586 0.1232 0.0
H53 H 0.80714 0.62568 0.14561 0.0
H54 H 0.78524 0.6223 0.18257 0.0
H55 H 0.80451 0.58207 0.06637 0.0
H56 H 0.80253 0.57834 0.13549 0.0
H57 H 0.8182 0.59668 0.11152 0.0
H58 H 0.81687 0.58594 0.28317 0.0
C59 C 0.7933 0.58798 0.23097 0.0
C60 C 0.9208 0.78207 0.98123 0.0
C61 C 0.91531 0.80111 0.9892 0.0
C62 C 0.9067 0.80643 0.03856 0.0
C63 C 0.91617 0.77656 0.07661 0.0
C64 C 0.92083 0.76985 0.02585 0.0
C65 C 0.92804 0.74977 0.02817 0.0
H66 H 0.98725 0.68987 0.11229 0.0
C67 C 0.92454 0.76384 0.11698 0.0
C68 C 0.92964 0.74719 0.08982 0.0
H69 H 0.93679 0.67734 0.01762 0.0
H70 H 0.92151 0.70557 0.05592 0.0
H71 H 0.98886 0.73973 0.11088 0.0
H72 H 0.95458 0.70799 0.2256 0.0
H73 H 0.97133 0.72472 0.25249 0.0
H74 H 0.97964 0.70325 0.22047 0.0
H75 H 0.9999 0.7221 0.15318 0.0
H76 H 0.99241 0.74441 0.18169 0.0
C77 C 0.94753 0.74816 0.99979 0.0
C78 C 0.91316 0.73679 1.00076 0.0
C79 C 0.95154 0.79972 0.27655 0.0
C80 C 0.96744 0.79815 0.31023 0.0
C81 C 0.97861 0.78137 0.30466 0.0
C82 C 0.97374 0.76675 0.26641 0.0
C83 C 0.95785 0.76909 0.23211 0.0
C84 C 0.94736 0.78566 0.23788 0.0
C85 C 0.93232 0.78773 0.19587 0.0
C86 C 0.93436 0.76912 0.16517 0.0
C87 C 0.94934 0.75773 0.18584 0.0
C88 C 0.93717 0.80552 0.161 0.0
C89 C 0.91283 0.78898 0.22457 0.0
C90 C 0.9732 0.69357 0.09815 0.0
C91 C 0.9637 0.68188 0.0586 0.0
C92 C 0.94482 0.6864 0.04491 0.0
C93 C 0.93626 0.70291 0.06455 0.0
C94 C 0.9468 0.71542 0.09643 0.0
C95 C 0.96385 0.71021 0.11851 0.0
C96 C 0.96917 0.72462 0.16368 0.0
C97 C 0.95313 0.73963 0.1594 0.0
C98 C 0.94131 0.73401 0.11639 0.0
C99 C 0.98873 0.73323 0.1518 0.0
C100 C 0.96869 0.71461 0.21881 0.0
H101 H 0.90083 0.79866 0.1201 0.0
H102 H 0.92673 0.77743 0.94295 0.0
H103 H 0.90668 0.74379 0.96496 0.0
H104 H 0.90153 0.73319 0.02929 0.0
H105 H 0.91967 0.7236 0.98456 0.0
H106 H 0.95793 0.75811 0.01849 0.0
H107 H 0.94634 0.75139 0.95596 0.0
H108 H 0.95333 0.73356 1.00268 0.0
H109 H 0.9429 0.81245 0.2775 0.0
H110 H 0.99106 0.77953 0.32982 0.0
H111 H 0.98256 0.75429 0.26374 0.0
H112 H 0.9486 0.81449 0.17875 0.0
H113 H 0.92487 0.81523 0.15694 0.0
H114 H 0.9425 0.80149 0.12018 0.0
H115 H 0.91211 0.77887 0.25897 0.0
H116 H 0.90097 0.78505 0.19737 0.0
H117 H 0.91029 0.80351 0.24087 0.0
H118 H 0.90148 0.82076 0.04466 0.0
C119 C 0.90679 0.79395 0.08234 0.0
C120 C 0.8337 0.97289 0.12298 0.0
C121 C 0.84348 0.96636 0.07535 0.0
C122 C 0.83441 0.95298 0.042 0.0
C123 C 0.80661 0.95306 0.09916 0.0
C124 C 0.81512 0.96562 0.13471 0.0
C125 C 0.80148 0.96988 0.18218 0.0
H126 H 0.71217 0.94799 0.29047 0.0
C127 C 0.78743 0.94836 0.11825 0.0
C128 C 0.78395 0.95751 0.16834 0.0
H129 H 0.7487 0.99193 0.3532 0.0
H130 H 0.7731 0.98332 0.28512 0.0
H131 H 0.71247 0.96131 0.18972 0.0
H132 H 0.74317 0.91562 0.2573 0.0
H133 H 0.73584 0.9078 0.19263 0.0
H134 H 0.71835 0.91607 0.24074 0.0
H135 H 0.70461 0.93765 0.17807 0.0
H136 H 0.71964 0.94991 0.13031 0.0
C137 C 0.79667 0.99118 0.18205 0.0
C138 C 0.81057 0.96373 0.23591 0.0
C139 C 0.74054 0.92287 0.9835 0.0
C140 C 0.72098 0.91998 0.98878 0.0
C141 C 0.71345 0.91541 0.03974 0.0
C142 C 0.72479 0.91698 0.08614 0.0
C143 C 0.74343 0.92385 0.08099 0.0
C144 C 0.75149 0.92501 0.03035 0.0
C145 C 0.77176 0.93136 0.03292 0.0
C146 C 0.77324 0.93731 0.09237 0.0
C147 C 0.75653 0.93307 0.11984 0.0
C148 C 0.77434 0.9484 0.99388 0.0
C149 C 0.78421 0.9137 0.01929 0.0
C150 C 0.72555 0.95558 0.2912 0.0
C151 C 0.7284 0.97038 0.32823 0.0
C152 C 0.74592 0.98038 0.32516 0.0
C153 C 0.75998 0.97553 0.28545 0.0
C154 C 0.75619 0.96112 0.24675 0.0
C155 C 0.73893 0.95173 0.25075 0.0
C156 C 0.73491 0.93918 0.20354 0.0
C157 C 0.75287 0.94145 0.17102 0.0
C158 C 0.76598 0.95412 0.19566 0.0
C159 C 0.71703 0.94721 0.17382 0.0
C160 C 0.7328 0.91856 0.22434 0.0
H161 H 0.81066 0.9365 0.02539 0.0
H162 H 0.84031 0.98311 0.14993 0.0
H163 H 0.8144 0.94841 0.23429 0.0
H164 H 0.80067 0.9659 0.27023 0.0
H165 H 0.82369 0.97201 0.24415 0.0
H166 H 0.79119 0.99547 0.14168 0.0
H167 H 0.80951 0.99978 0.19123 0.0
H168 H 0.78569 0.99478 0.21224 0.0
H169 H 0.74658 0.92588 0.94414 0.0
H170 H 0.6984 0.91277 0.0444 0.0
H171 H 0.71816 0.91431 0.12434 0.0
H172 H 0.76229 0.95853 0.998 0.0
H173 H 0.77492 0.94351 0.95104 0.0
H174 H 0.7872 0.95684 1.00171 0.0
H175 H 0.77595 0.90024 0.01778 0.0
H176 H 0.79524 0.91125 0.05067 0.0
H177 H 0.79115 0.91512 0.97913 0.0
H178 H 0.84118 0.94782 1.00529 0.0
C179 C 0.81645 0.94629 0.0538 0.0
C180 C 0.56036 0.74905 0.30673 0.0
C181 C 0.56566 0.72974 0.31659 0.0
C182 C 0.57658 0.72028 0.27727 0.0
C183 C 0.57697 0.74795 0.22023 0.0
C184 C 0.56652 0.75805 0.25791 0.0
C185 C 0.5629 0.77829 0.23716 0.0
H186 H 0.57996 0.8407 0.02397 0.0
C187 C 0.58078 0.75993 0.17289 0.0
C188 C 0.57305 0.77818 0.18171 0.0
H189 H 0.54422 0.85343 0.16083 0.0
H190 H 0.55168 0.82205 0.20004 0.0
H191 H 0.61366 0.81733 0.08124 0.0
H192 H 0.56089 0.80608 1.00258 0.0
H193 H 0.57313 0.78484 0.99223 0.0
H194 H 0.58249 0.80665 0.96483 0.0
H195 H 0.60935 0.81957 0.00984 0.0
H196 H 0.61766 0.7976 0.03861 0.0
C197 C 0.57191 0.79278 0.27631 0.0
C198 C 0.54138 0.78124 0.23106 0.0
C199 C 0.60407 0.72743 1.00294 0.0
C200 C 0.60525 0.73405 0.94968 0.0
C201 C 0.6065 0.75362 0.94013 0.0
C202 C 0.60466 0.76655 0.98307 0.0
C203 C 0.60053 0.75974 0.03527 0.0
C204 C 0.60129 0.74051 0.04497 0.0
C205 C 0.59586 0.73575 0.10198 0.0
C206 C 0.58985 0.75516 0.1234 0.0
C207 C 0.59264 0.76902 0.08427 0.0
C208 C 0.61399 0.72825 0.13081 0.0
C209 C 0.57893 0.72155 0.0996 0.0
C210 C 0.57402 0.83712 0.06311 0.0
C211 C 0.56188 0.84975 0.08952 0.0
C212 C 0.55376 0.84396 0.13943 0.0
C213 C 0.55798 0.82577 0.16191 0.0
C214 C 0.56979 0.81301 0.13312 0.0
C215 C 0.57732 0.81909 0.08428 0.0
C216 C 0.58708 0.80378 0.05351 0.0
C217 C 0.58558 0.78757 0.09269 0.0
C218 C 0.57553 0.79251 0.14043 0.0
C219 C 0.60802 0.80982 0.04481 0.0
C220 C 0.57551 0.80012 1.00046 0.0
H221 H 0.59028 0.72062 0.20283 0.0
H222 H 0.55188 0.7568 0.33597 0.0
H223 H 0.53507 0.76966 0.20606 0.0
H224 H 0.538 0.79477 0.21092 0.0
H225 H 0.53435 0.78123 0.27135 0.0
H226 H 0.58728 0.78973 0.28168 0.0
H227 H 0.56499 0.79217 0.3167 0.0
H228 H 0.57056 0.80742 0.26084 0.0
H229 H 0.60289 0.71236 0.01085 0.0
H230 H 0.60745 0.75889 0.89908 0.0
H231 H 0.6052 0.7813 0.97305 0.0
H232 H 0.62723 0.73246 0.10948 0.0
H233 H 0.614 0.7125 0.13305 0.0
H234 H 0.61563 0.73426 0.17222 0.0
H235 H 0.56939 0.72476 0.06487 0.0
H236 H 0.56954 0.72224 0.13526 0.0
H237 H 0.584 0.70671 0.09458 0.0
H238 H 0.58047 0.70548 0.2821 0.0
C239 C 0.58233 0.72919 0.23035 0.0
C240 C 0.3379 0.46846 0.07376 0.0
C241 C 0.34386 0.46914 0.12936 0.0
C242 C 0.32994 0.46758 0.16966 0.0
C243 C 0.306 0.46029 0.10287 0.0
C244 C 0.31839 0.46444 0.06143 0.0
C245 C 0.30788 0.46287 1.00667 0.0
H246 H 0.22119 0.43825 0.88703 0.0
C247 C 0.28808 0.45326 0.08004 0.0
C248 C 0.28767 0.45672 0.02404 0.0
H249 H 0.25111 0.48947 0.84579 0.0
H250 H 0.27447 0.48292 0.91754 0.0
H251 H 0.25684 0.40903 0.93423 0.0
H252 H 0.21692 0.45086 0.98526 0.0
H253 H 0.22281 0.4405 0.04656 0.0
H254 H 0.21189 0.42625 0.99402 0.0
H255 H 0.23155 0.40632 0.93873 0.0
H256 H 0.24678 0.40132 0.99578 0.0
C257 C 0.31715 0.44736 0.97134 0.0
C258 C 0.30828 0.48213 0.97786 0.0
C259 C 0.24311 0.41968 0.20526 0.0
C260 C 0.22459 0.41344 0.19543 0.0
C261 C 0.21955 0.40723 0.14312 0.0
C262 C 0.23179 0.41052 0.09945 0.0
C263 C 0.24852 0.42096 0.10862 0.0
C264 C 0.25451 0.42426 0.16108 0.0
C265 C 0.27176 0.43661 0.16372 0.0
C266 C 0.27457 0.4411 0.10418 0.0
C267 C 0.26072 0.43227 0.07233 0.0
C268 C 0.2879 0.42425 0.18759 0.0
C269 C 0.26688 0.45484 0.19713 0.0
C270 C 0.23347 0.44744 0.88984 0.0
C271 C 0.23443 0.46394 0.85844 0.0
C272 C 0.25004 0.47633 0.86808 0.0
C273 C 0.26394 0.47233 0.90854 0.0
C274 C 0.26242 0.45578 0.94002 0.0
C275 C 0.24663 0.4443 0.93166 0.0
C276 C 0.24254 0.43199 0.97948 0.0
C277 C 0.2585 0.43758 0.01746 0.0
C278 C 0.27122 0.45052 0.99344 0.0
C279 C 0.24438 0.411 0.96134 0.0
C280 C 0.22258 0.43746 1.00254 0.0
H281 H 0.30193 0.46153 0.1904 0.0
H282 H 0.34809 0.47035 0.0415 0.0
H283 H 0.29833 0.49233 0.99739 0.0
H284 H 0.30463 0.48048 0.93442 0.0
H285 H 0.32277 0.48833 0.97921 0.0
H286 H 0.31749 0.43359 0.99313 0.0
H287 H 0.33194 0.45131 0.96075 0.0
H288 H 0.309 0.44531 0.93316 0.0
H289 H 0.24716 0.42453 0.24544 0.0
H290 H 0.20531 0.40216 0.13499 0.0
H291 H 0.22685 0.40665 0.05982 0.0
H292 H 0.28797 0.4099 0.16844 0.0
H293 H 0.28588 0.42236 0.23187 0.0
H294 H 0.30223 0.4299 0.18082 0.0
H295 H 0.25135 0.45756 0.19886 0.0
H296 H 0.27259 0.46793 0.17852 0.0
H297 H 0.2721 0.45379 0.23949 0.0
H298 H 0.33368 0.46897 0.21214 0.0
C299 C 0.31132 0.4632 0.15688 0.0
C300 C 0.0978 0.23855 0.19392 0.0
C301 C 0.10701 0.22142 0.18108 0.0
C302 C 0.11481 0.219 0.12888 0.0
C303 C 0.09879 0.24748 0.09963 0.0
C304 C 0.0937 0.25128 0.15246 0.0
C305 C 0.08122 0.26845 0.15722 0.0
H306 H 0.0485 0.34702 0.04137 0.0
C307 C 0.08777 0.26022 0.06431 0.0
C308 C 0.07798 0.27292 0.09782 0.0
H309 H 0.05289 0.33185 0.21097 0.0
H310 H 0.05953 0.30001 0.18664 0.0
H311 H 0.08473 0.31652 0.98884 0.0
H312 H 0.02584 0.29821 0.99732 0.0
H313 H 0.03733 0.30238 0.93286 0.0
H314 H 0.03051 0.32202 0.97453 0.0
H315 H 0.06671 0.33125 0.95857 0.0
H316 H 0.07241 0.30846 0.92901 0.0
C317 C 0.09263 0.2842 0.1875 0.0
C318 C 0.06237 0.26256 0.18516 0.0
C319 C 0.07108 0.23267 0.8828 0.0
C320 C 0.05344 0.23208 0.85646 0.0
C321 C 0.04032 0.24683 0.86926 0.0
C322 C 0.04478 0.26141 0.90778 0.0
C323 C 0.06242 0.26127 0.93481 0.0
C324 C 0.07456 0.24611 0.92409 0.0
C325 C 0.08829 0.24283 0.96956 0.0
C326 C 0.08256 0.25846 1.00901 0.0
C327 C 0.06865 0.27061 0.98693 0.0
C328 C 0.10858 0.24606 0.94781 0.0
C329 C 0.08501 0.22248 0.99301 0.0
C330 C 0.05083 0.33667 0.07289 0.0
C331 C 0.05111 0.34245 0.12887 0.0
C332 C 0.0535 0.32832 0.16818 0.0
C333 C 0.05747 0.30966 0.15396 0.0
C334 C 0.05903 0.30445 0.09941 0.0
C335 C 0.0545 0.31713 0.05904 0.0
C336 C 0.05561 0.30689 1.00348 0.0
C337 C 0.06195 0.28655 0.01914 0.0
C338 C 0.06565 0.28656 0.07503 0.0
C339 C 0.07075 0.31636 0.96787 0.0
C340 C 0.03616 0.30729 0.97549 0.0
H341 H 0.11689 0.22976 0.04872 0.0
H342 H 0.09183 0.24097 0.23379 0.0
H343 H 0.05814 0.24794 0.17278 0.0
H344 H 0.05019 0.27157 0.17352 0.0
H345 H 0.06381 0.26279 0.22998 0.0
H346 H 0.1079 0.28052 0.19216 0.0
H347 H 0.08702 0.28675 0.22895 0.0
H348 H 0.0926 0.29781 0.1652 0.0
H349 H 0.08108 0.22112 0.87728 0.0
H350 H 0.02635 0.24671 0.85094 0.0
H351 H 0.03389 0.2714 0.91925 0.0
H352 H 0.10914 0.25896 0.92206 0.0
H353 H 0.11329 0.23376 0.92277 0.0
H354 H 0.11897 0.24846 0.98074 0.0
H355 H 0.07387 0.21425 0.97144 0.0
H356 H 0.07979 0.22284 0.03534 0.0
H357 H 0.09804 0.21365 0.99075 0.0
H358 H 0.12252 0.20616 0.11857 0.0
C359 C 0.11112 0.23232 0.08824 0.0
C360 C 0.2814 0.05522 0.86513 0.0
C361 C 0.29845 0.06462 0.84797 0.0
C362 C 0.30231 0.08273 0.87011 0.0
C363 C 0.2765 0.0797 0.93307 0.0
C364 C 0.27008 0.06366 0.90715 0.0
C365 C 0.25044 0.05846 0.93035 0.0
H366 H 0.19088 0.07281 0.1539 0.0
C367 C 0.26502 0.08354 0.98107 0.0
C368 C 0.24869 0.07202 0.97977 0.0
H369 H 0.17571 0.03898 0.01453 0.0
H370 H 0.20615 0.04755 0.97056 0.0
H371 H 0.2277 0.05679 0.16505 0.0
H372 H 0.20892 0.10848 0.09529 0.0
H373 H 0.22945 0.11411 0.13294 0.0
H374 H 0.20957 0.10315 0.16635 0.0
H375 H 0.228 0.07819 0.20395 0.0
H376 H 0.2486 0.0701 0.16665 0.0
C377 C 0.24998 0.03751 0.94715 0.0
C378 C 0.2353 0.06295 0.88731 0.0
C379 C 0.30216 0.1043 0.14438 0.0
C380 C 0.29753 0.10294 0.19937 0.0
C381 C 0.27843 0.10377 0.21519 0.0
C382 C 0.26408 0.10314 0.17587 0.0
C383 C 0.26908 0.10072 0.12096 0.0
C384 C 0.28779 0.10253 0.1057 0.0
C385 C 0.29071 0.09914 0.04615 0.0
C386 C 0.27071 0.09294 0.02928 0.0
C387 C 0.25839 0.09354 0.0735 0.0
C388 C 0.30554 0.08303 0.0387 0.0
C389 C 0.29704 0.11816 0.0204 0.0
C390 C 0.19376 0.0674 0.11349 0.0
C391 C 0.18084 0.05527 0.0881 0.0
C392 C 0.18541 0.04847 0.03532 0.0
C393 C 0.20299 0.05339 0.00992 0.0
C394 C 0.21603 0.06527 0.03747 0.0
C395 C 0.21088 0.07202 0.08832 0.0
C396 C 0.22608 0.08323 0.11527 0.0
C397 C 0.24073 0.08402 0.07084 0.0
C398 C 0.23547 0.07315 0.02469 0.0
C399 C 0.23297 0.07169 0.16537 0.0
C400 C 0.21817 0.10329 0.12866 0.0
H401 H 0.29419 0.10451 0.9251 0.0
H402 H 0.27714 0.04193 0.84655 0.0
H403 H 0.23642 0.078 0.8743 0.0
H404 H 0.2208 0.06081 0.90295 0.0
H405 H 0.23721 0.05373 0.85099 0.0
H406 H 0.26146 0.03452 0.97681 0.0
H407 H 0.25199 0.02809 0.9113 0.0
H408 H 0.23623 0.03389 0.96618 0.0
H409 H 0.3169 0.10427 0.13205 0.0
H410 H 0.2746 0.10306 0.25764 0.0
H411 H 0.24975 0.10307 0.19013 0.0
H412 H 0.30111 0.07009 0.06099 0.0
H413 H 0.31971 0.08745 0.05389 0.0
H414 H 0.3077 0.07893 0.99603 0.0
H415 H 0.3009 0.12911 0.05121 0.0
H416 H 0.28554 0.12444 0.9954 0.0
H417 H 0.30993 0.11629 0.99507 0.0
H418 H 0.31456 0.09081 0.85728 0.0
C419 C 0.29111 0.09046 0.91103 0.0
C420 C 0.4641 0.27748 0.86853 0.0
C421 C 0.45457 0.29374 0.84721 0.0
C422 C 0.43549 0.29692 0.86209 0.0
C423 C 0.43773 0.2724 0.92883 0.0
C424 C 0.45476 0.26635 0.90836 0.0
C425 C 0.46001 0.24732 0.9344 0.0
H426 H 0.44511 0.19178 0.16209 0.0
C427 C 0.43326 0.26181 0.97739 0.0
C428 C 0.44523 0.24588 0.98039 0.0
H429 H 0.47971 0.17523 0.02587 0.0
H430 H 0.47074 0.20467 0.97868 0.0
H431 H 0.45877 0.22819 0.17392 0.0
H432 H 0.40902 0.20808 0.09831 0.0
H433 H 0.40271 0.22891 0.13423 0.0
H434 H 0.41408 0.20968 0.1696 0.0
H435 H 0.43665 0.23172 0.20676 0.0
H436 H 0.44706 0.2499 0.1647 0.0
C437 C 0.48044 0.24788 0.95615 0.0
C438 C 0.45713 0.23162 0.89143 0.0
C439 C 0.41581 0.30321 0.13504 0.0
C440 C 0.41685 0.29937 0.19065 0.0
C441 C 0.41423 0.28064 0.20849 0.0
C442 C 0.41354 0.26569 0.17084 0.0
C443 C 0.41648 0.26958 0.11568 0.0
C444 C 0.41618 0.28812 0.09806 0.0
C445 C 0.41981 0.28968 0.03828 0.0
C446 C 0.424 0.26886 0.02412 0.0
C447 C 0.42295 0.2575 0.07026 0.0
C448 C 0.43729 0.30265 0.0292 0.0
C449 C 0.40171 0.29759 0.01086 0.0
C450 C 0.45065 0.19422 0.12176 0.0
C451 C 0.46313 0.18119 0.09801 0.0
C452 C 0.46997 0.18504 0.04521 0.0
C453 C 0.46477 0.20204 0.01788 0.0
C454 C 0.45245 0.21514 0.04337 0.0
C455 C 0.44563 0.2108 0.09445 0.0
C456 C 0.43363 0.22614 0.11828 0.0
C457 C 0.43262 0.23984 0.07141 0.0
C458 C 0.44399 0.23385 0.02725 0.0
C459 C 0.44439 0.23445 0.16845 0.0
C460 C 0.4138 0.21784 0.13124 0.0
H461 H 0.41222 0.28823 0.9118 0.0
H462 H 0.47823 0.27379 0.85498 0.0
H463 H 0.44261 0.23244 0.87385 0.0
H464 H 0.45875 0.21729 0.90839 0.0
H465 H 0.46751 0.23323 0.8579 0.0
H466 H 0.48219 0.25986 0.98532 0.0
H467 H 0.4907 0.2498 0.9225 0.0
H468 H 0.48409 0.23456 0.97733 0.0
H469 H 0.41692 0.31769 0.1209 0.0
H470 H 0.41446 0.27737 0.25131 0.0
H471 H 0.41215 0.2516 0.18632 0.0
H472 H 0.44995 0.29694 0.05056 0.0
H473 H 0.43461 0.3173 0.04419 0.0
H474 H 0.44092 0.30414 0.98596 0.0
H475 H 0.39287 0.30602 0.03959 0.0
H476 H 0.39266 0.28596 0.99461 0.0
H477 H 0.40521 0.30759 0.97783 0.0
H478 H 0.42745 0.30847 0.84453 0.0
C479 C 0.42692 0.28599 0.9021 0.0
Gd480 Gd 0.99185 0.02063 0.54362 0.0
Gd481 Gd 0.03112 1.00757 0.62861 0.0
C482 C 0.04997 0.05232 0.75346 0.0
C483 C 0.08285 0.0574 0.72866 0.0
C484 C 0.06308 0.03583 0.67557 0.0
C485 C 0.04784 0.03955 0.70939 0.0
C486 C 0.08082 0.04459 0.68537 0.0
C487 C 0.06754 0.06106 0.763 0.0
C488 C 0.03451 0.05571 0.78746 0.0
C489 C 0.01752 0.04624 0.7779 0.0
N490 N 0.03115 0.03037 0.70029 0.0
C491 C 0.01614 0.03348 0.73453 0.0
H492 H 1.00269 0.02682 0.72851 0.0
C493 C 0.07658 0.01664 0.6071 0.0
N494 N 0.06095 0.02284 0.63522 0.0
C495 C 0.09424 0.02524 0.61426 0.0
C496 C 0.09632 0.03951 0.65307 0.0
H497 H 0.07545 1.00486 0.57895 0.0
H498 H 0.06948 0.07058 0.79724 0.0
H499 H 0.02097 1.00095 0.44544 0.0
H500 H 0.03556 0.06551 0.82135 0.0
H501 H 1.00542 0.04875 0.80396 0.0
H502 H 0.09637 0.06416 0.73687 0.0
H503 H 0.94744 0.02183 0.59463 0.0
H504 H 0.98861 0.96224 0.3514 0.0
H505 H 0.01861 0.97905 0.36996 0.0
H506 H 0.92776 0.96245 0.43563 0.0
H507 H 0.10632 0.02055 0.59066 0.0
H508 H 0.11012 0.04593 0.65937 0.0
H509 H 0.95504 0.95592 0.37664 0.0
H510 H 0.917 1.0055 0.58284 0.0
N511 N 0.99223 0.99772 0.47192 0.0
C512 C 0.98945 0.97211 0.38518 0.0
C513 C 1.00635 0.98163 0.39534 0.0
C514 C 0.97385 0.97538 0.41872 0.0
C515 C 0.97563 0.98845 0.46225 0.0
C516 C 1.00748 0.99446 0.43859 0.0
N517 N 0.96229 1.00464 0.53708 0.0
C518 C 0.96033 0.99187 0.49605 0.0
C519 C 0.92913 1.00123 0.5588 0.0
C520 C 0.92725 0.98724 0.51909 0.0
C521 C 0.94663 0.01012 0.56628 0.0
C522 C 0.94279 0.98267 0.4864 0.0
H523 H 0.91358 0.98054 0.51276 0.0
O524 O 0.96878 0.04044 0.53238 0.0
O525 O 0.01591 0.03261 0.59359 0.0
O526 O 1.00395 0.99952 0.67412 0.0
O527 O 0.97871 0.01139 0.62371 0.0
O528 O 0.98944 0.04459 0.60478 0.0
O529 O 0.99005 0.03732 0.46987 0.0
O530 O 0.05318 0.98652 0.63766 0.0
O531 O 1.00703 0.99549 0.57888 0.0
O532 O 0.01898 0.02843 0.49757 0.0
O533 O 0.04449 0.01829 0.55005 0.0
O534 O 0.03376 0.98405 0.5668 0.0
O535 O 0.03355 0.99169 0.70364 0.0
C536 C 1.00707 0.0459 0.61809 0.0
C537 C 0.94109 0.96962 0.44352 0.0
C538 C 0.95659 0.96596 0.40981 0.0
C539 C 0.97493 0.04643 0.48607 0.0
C540 C 0.97399 0.06708 0.47832 0.0
C541 C 0.95652 0.07634 0.48614 0.0
C542 C 0.98987 0.07762 0.46219 0.0
C543 C 0.98815 0.0972 0.45369 0.0
C544 C 0.95492 0.09587 0.47807 0.0
C545 C 0.97068 0.1063 0.46173 0.0
C546 C 0.98556 1.00313 0.66768 0.0
C547 C 0.01609 0.98234 0.55433 0.0
C548 C 0.04784 0.98162 0.68586 0.0
C549 C 0.04821 0.96117 0.69677 0.0
C550 C 0.06567 0.95163 0.69248 0.0
C551 C 0.03197 0.95115 0.71287 0.0
C552 C 0.03345 0.93187 0.72612 0.0
C553 C 0.06701 0.93239 0.70473 0.0
C554 C 0.05101 0.92255 0.72194 0.0
C555 C 0.03749 0.02577 0.50501 0.0
H556 H 0.94407 0.06842 0.49827 0.0
H557 H 1.00343 0.07069 0.45556 0.0
H558 H 0.9414 0.10289 0.48399 0.0
H559 H 0.96923 0.12141 0.45473 0.0
H560 H 0.07834 0.95916 0.68009 0.0
H561 H 0.01841 0.95833 0.71655 0.0
H562 H 0.08053 0.92516 0.70156 0.0
H563 H 0.05231 0.90767 0.73223 0.0
Gd564 Gd 0.50593 0.99331 0.5446 0.0
Gd565 Gd 0.51738 0.03306 0.63115 0.0
C566 C 0.47351 0.04871 0.76121 0.0
C567 C 0.46759 0.08192 0.74218 0.0
C568 C 0.48865 0.06339 0.68405 0.0
C569 C 0.4858 0.04758 0.71604 0.0
C570 C 0.47962 0.08078 0.69711 0.0
C571 C 0.46469 0.06598 0.77441 0.0
C572 C 0.47042 0.03248 0.7921 0.0
C573 C 0.47941 0.01562 0.77779 0.0
N574 N 0.49492 0.03113 0.70313 0.0
C575 C 0.4917 0.01521 0.73347 0.0
H576 H 0.49773 1.00177 0.72321 0.0
C577 C 0.5056 0.07811 0.61358 0.0
N578 N 0.50071 0.06205 0.6414 0.0
C579 C 0.49671 0.09545 0.62412 0.0
C580 C 0.48348 0.09676 0.66574 0.0
H581 H 0.51677 0.07768 0.58365 0.0
H582 H 0.45555 0.06715 0.80955 0.0
H583 H 0.52396 0.02381 0.44776 0.0
H584 H 0.46098 0.03277 0.82673 0.0
H585 H 0.47688 1.00285 0.80083 0.0
H586 H 0.46067 0.09517 0.75295 0.0
H587 H 0.50752 0.94888 0.5949 0.0
H588 H 0.5645 0.99383 0.35393 0.0
H589 H 0.54595 0.02282 0.3729 0.0
H590 H 0.56747 0.93274 0.43549 0.0
H591 H 0.50047 0.1079 0.60103 0.0
H592 H 0.47684 0.11031 0.67457 0.0
H593 H 0.57246 0.96049 0.37768 0.0
H594 H 0.52543 0.91937 0.58201 0.0
N595 N 0.52859 0.99512 0.47302 0.0
C596 C 0.55447 0.99401 0.38719 0.0
C597 C 0.544 0.01034 0.39764 0.0
C598 C 0.552 0.97813 0.41994 0.0
C599 C 0.53881 0.97907 0.46311 0.0
C600 C 0.5311 0.01066 0.44052 0.0
N601 N 0.52358 0.96473 0.53753 0.0
C602 C 0.53632 0.96353 0.49645 0.0
C603 C 0.52893 0.93176 0.55831 0.0
C604 C 0.54288 0.93071 0.51857 0.0
C605 C 0.5191 0.94874 0.56632 0.0
C606 C 0.5465 0.94654 0.48639 0.0
H607 H 0.55034 0.91743 0.5119 0.0
O608 O 0.48689 0.96949 0.53512 0.0
O609 O 0.49319 0.01713 0.5938 0.0
O610 O 0.52672 1.00629 0.67638 0.0
O611 O 0.51599 0.98067 0.62448 0.0
O612 O 0.4815 0.99052 0.60338 0.0
O613 O 0.48996 0.98968 0.46984 0.0
O614 O 0.53724 0.05624 0.63727 0.0
O615 O 0.53014 0.00927 0.58183 0.0
O616 O 0.49688 0.02016 0.49944 0.0
O617 O 0.50546 0.04603 0.55364 0.0
O618 O 0.54112 0.0361 0.57024 0.0
O619 O 0.53351 0.0374 0.70554 0.0
C620 C 0.47981 1.00815 0.6167 0.0
C621 C 0.55957 0.94565 0.44368 0.0
C622 C 0.56235 0.96141 0.41064 0.0
C623 C 0.48113 0.97464 0.48746 0.0
C624 C 0.46063 0.97309 0.47811 0.0
C625 C 0.4521 0.95516 0.48256 0.0
C626 C 0.44954 0.98886 0.46398 0.0
C627 C 0.43014 0.98654 0.45286 0.0
C628 C 0.43276 0.95292 0.47246 0.0
C629 C 0.42182 0.96849 0.45728 0.0
C630 C 0.52405 0.98777 0.66875 0.0
C631 C 0.54315 0.01843 0.55788 0.0
C632 C 0.54257 0.05202 0.68605 0.0
C633 C 0.56297 0.0539 0.69636 0.0
C634 C 0.57139 0.07178 0.68945 0.0
C635 C 0.57406 0.03854 0.71344 0.0
C636 C 0.5934 0.0412 0.72478 0.0
C637 C 0.59066 0.07436 0.69986 0.0
C638 C 0.60164 0.05918 0.71776 0.0
C639 C 0.49848 0.03876 0.50802 0.0
H640 H 0.46046 0.94285 0.49361 0.0
H641 H 0.456 1.00276 0.46022 0.0
H642 H 0.42628 0.93905 0.4759 0.0
H643 H 0.40685 0.96648 0.44905 0.0
H644 H 0.56301 0.08379 0.67613 0.0
H645 H 0.56764 0.02471 0.71911 0.0
H646 H 0.59707 0.08818 0.69442 0.0
H647 H 0.61657 0.06144 0.72596 0.0
Gd648 Gd 0.49123 0.52164 0.62406 0.0
Gd649 Gd 0.53285 0.50544 0.55241 0.0
C650 C 0.58736 0.49696 0.64933 0.0
C651 C 0.60944 0.51742 0.60205 0.0
C652 C 0.57627 0.51616 0.57445 0.0
C653 C 0.57256 0.50307 0.61491 0.0
C654 C 0.59487 0.52316 0.56708 0.0
C655 C 0.60573 0.50427 0.64281 0.0
C656 C 0.58343 0.48329 0.68853 0.0
C657 C 0.56518 0.47596 0.69271 0.0
N658 N 0.55477 0.49579 0.61945 0.0
C659 C 0.55104 0.48218 0.65735 0.0
H660 H 0.53716 0.47623 0.66191 0.0
C661 C 0.56602 0.5315 0.49474 0.0
N662 N 0.56206 0.52112 0.54017 0.0
C663 C 0.5841 0.53899 0.48633 0.0
C664 C 0.59854 0.53504 0.52312 0.0
H665 H 0.55502 0.53427 0.46515 0.0
H666 H 0.61728 0.49957 0.66847 0.0
H667 H 0.48878 0.55292 0.51759 0.0
H668 H 0.59445 0.47813 0.7153 0.0
H669 H 0.56199 0.46537 0.72296 0.0
H670 H 0.62378 0.52265 0.59691 0.0
H671 H 0.46671 0.49047 0.70071 0.0
H672 H 0.43319 0.551 0.45228 0.0
H673 H 0.46533 0.5647 0.45444 0.0
H674 H 0.40251 0.50205 0.55221 0.0
H675 H 0.58692 0.5476 0.45108 0.0
H676 H 0.61264 0.54063 0.51612 0.0
H677 H 0.41016 0.52719 0.48749 0.0
H678 H 0.43572 0.47479 0.70151 0.0
N679 N 0.47054 0.53242 0.55448 0.0
C680 C 0.44353 0.54558 0.48076 0.0
C681 C 0.4616 0.55346 0.48216 0.0
C682 C 0.43901 0.53087 0.5161 0.0
C683 C 0.45292 0.52456 0.55326 0.0
C684 C 0.47492 0.54675 0.51927 0.0
N685 N 0.46196 0.50502 0.62621 0.0
C686 C 0.44862 0.51031 0.58958 0.0
C687 C 0.43924 0.48445 0.6691 0.0
C688 C 0.42585 0.48881 0.62963 0.0
C689 C 0.45704 0.49307 0.66761 0.0
C690 C 0.43026 0.50219 0.59003 0.0
H691 H 0.41192 0.48235 0.63137 0.0
O692 O 0.47718 0.52549 0.7012 0.0
O693 O 0.52306 0.52072 0.62705 0.0
O694 O 0.51748 0.47906 0.58385 0.0
O695 O 0.49344 0.4901 0.64058 0.0
O696 O 0.50887 0.51429 0.69765 0.0
O697 O 0.48241 0.54981 0.65023 0.0
O698 O 0.54229 0.50027 0.47024 0.0
O699 O 0.50095 0.50596 0.54963 0.0
O700 O 0.50687 0.54796 0.5937 0.0
O701 O 0.53416 0.53779 0.54871 0.0
O702 O 0.51521 0.51401 0.48018 0.0
O703 O 0.54509 0.4781 0.53072 0.0
C704 C 0.52543 0.51673 0.67675 0.0
C705 C 0.41662 0.50815 0.5524 0.0
C706 C 0.42096 0.5225 0.51567 0.0
C707 C 0.47627 0.54383 0.69694 0.0
C708 C 0.48141 0.55466 0.74588 0.0
C709 C 0.47274 0.54997 0.79521 0.0
C710 C 0.49423 0.56988 0.74407 0.0
C711 C 0.49803 0.58054 0.79106 0.0
C712 C 0.47674 0.56036 0.84211 0.0
C713 C 0.48925 0.57565 0.8401 0.0
C714 C 0.50363 0.47617 0.61932 0.0
C715 C 0.49872 0.51066 0.50039 0.0
C716 C 0.54834 0.48324 0.48082 0.0
C717 C 0.54641 0.46911 0.43759 0.0
C718 C 0.56033 0.46876 0.39707 0.0
C719 C 0.53118 0.45634 0.4353 0.0
C720 C 0.52992 0.44326 0.39215 0.0
C721 C 0.55916 0.45576 0.35447 0.0
C722 C 0.54405 0.44305 0.35192 0.0
C723 C 0.52251 0.55143 0.5654 0.0
H724 H 0.46276 0.5383 0.79738 0.0
H725 H 0.50092 0.57373 0.70615 0.0
H726 H 0.47003 0.55665 0.88 0.0
H727 H 0.49216 0.5836 0.87692 0.0
H728 H 0.57214 0.47861 0.39843 0.0
H729 H 0.52029 0.45678 0.4663 0.0
H730 H 0.56998 0.45552 0.3234 0.0
H731 H 0.54352 0.43291 0.31873 0.0
Gd732 Gd 1.00349 0.49529 0.62339 0.0
Gd733 Gd 0.02084 0.53519 0.54905 0.0
C734 C 0.03022 0.59099 0.64008 0.0
C735 C 0.01084 0.61284 0.58817 0.0
C736 C 0.01133 0.57918 0.56478 0.0
C737 C 0.02407 0.57582 0.60668 0.0
C738 C 1.00501 0.59785 0.55433 0.0
C739 C 0.02333 0.6094 0.63106 0.0
C740 C 0.04349 0.58736 0.68083 0.0
C741 C 0.05056 0.56905 0.68722 0.0
N742 N 0.03096 0.55795 0.61371 0.0
C743 C 0.04436 0.55453 0.65275 0.0
H744 H 0.05 0.54055 0.65925 0.0
C745 C 0.99604 0.56791 0.48549 0.0
N746 N 1.00605 0.56452 0.53211 0.0
C747 C 0.98935 0.58609 0.47382 0.0
C748 C 0.99365 0.6011 0.50878 0.0
H749 H 0.99305 0.55642 0.45743 0.0
H750 H 0.02793 0.62117 0.65632 0.0
H751 H 0.97549 0.48675 0.51214 0.0
H752 H 0.04859 0.59866 0.70704 0.0
H753 H 0.06087 0.56611 0.71859 0.0
H754 H 1.0061 0.62723 0.58077 0.0
H755 H 0.029 0.4761 0.72303 0.0
H756 H 0.97862 0.42792 0.47392 0.0
H757 H 0.96578 0.45991 0.45631 0.0
H758 H 0.02012 0.4028 0.60861 0.0
H759 H 0.9811 0.58854 0.43751 0.0
H760 H 0.98866 0.61525 0.49927 0.0
H761 H 0.99943 0.40694 0.52935 0.0
H762 H 0.0412 0.44471 0.74994 0.0
N763 N 0.99438 0.47075 0.56238 0.0
C764 C 0.98323 0.43982 0.49865 0.0
C765 C 0.97581 0.45779 0.48897 0.0
C766 C 0.99611 0.43728 0.54104 0.0
C767 C 1.00142 0.45318 0.57282 0.0
C768 C 0.98134 0.47308 0.52165 0.0
N769 N 0.01731 0.46619 0.64842 0.0
C770 C 0.01324 0.45085 0.61708 0.0
C771 C 0.03352 0.44623 0.71221 0.0
C772 C 0.03033 0.43049 0.67892 0.0
C773 C 0.0266 0.46398 0.69675 0.0
C774 C 0.01983 0.43258 0.63119 0.0
H775 H 0.03556 0.41669 0.69121 0.0
O776 O 0.99588 0.48992 0.70733 0.0
O777 O 1.00518 0.52719 0.62396 0.0
O778 O 0.04658 0.51972 0.58613 0.0
O779 O 0.03561 0.49236 0.62869 0.0
O780 O 0.01363 0.51341 0.69351 0.0
O781 O 0.97423 0.48837 0.64295 0.0
O782 O 0.02696 0.54258 0.46569 0.0
O783 O 0.01909 0.50337 0.54797 0.0
O784 O 0.97845 0.5091 0.57993 0.0
O785 O 0.98851 0.53817 0.54671 0.0
O786 O 0.01146 0.51718 0.47777 0.0
O787 O 0.04826 0.54716 0.5286 0.0
C788 C 0.01026 0.52981 0.67287 0.0
C789 C 0.01511 0.41689 0.59855 0.0
C790 C 1.0033 0.41924 0.55351 0.0
C791 C 0.97833 0.48665 0.69425 0.0
C792 C 0.96406 0.48173 0.73448 0.0
C793 C 0.96776 0.46776 0.77326 0.0
C794 C 0.94743 0.49245 0.73752 0.0
C795 C 0.93462 0.48971 0.78014 0.0
C796 C 0.95477 0.46454 0.81489 0.0
C797 C 0.93832 0.47557 0.81871 0.0
C798 C 0.04957 0.50396 0.61458 0.0
C799 C 0.01406 0.50072 0.49898 0.0
C800 C 0.04345 0.5497 0.47806 0.0
C801 C 0.05821 0.54948 0.43677 0.0
C802 C 0.05984 0.56539 0.40331 0.0
C803 C 0.07056 0.53408 0.43019 0.0
C804 C 0.0847 0.53465 0.39003 0.0
C805 C 0.07385 0.56604 0.36364 0.0
C806 C 0.08628 0.55081 0.35704 0.0
C807 C 0.97497 0.52552 0.55591 0.0
H808 H 0.98075 0.45953 0.77162 0.0
H809 H 0.94508 0.50375 0.70857 0.0
H810 H 0.95764 0.45377 0.84487 0.0
H811 H 0.92861 0.4732 0.85196 0.0
H812 H 0.0503 0.57736 0.40808 0.0
H813 H 0.069 0.52171 0.4557 0.0
H814 H 0.07513 0.57841 0.33809 0.0
H815 H 0.09723 0.55176 0.32644 0.0
H816 H 0.14242 0.06149 0.06845 0.0
H817 H 0.11608 0.05777 0.13363 0.0
H818 H 0.15483 0.03316 0.24868 0.0
H819 H 0.18087 0.03693 0.1844 0.0
H820 H 0.09987 0.02683 0.19151 0.0
H821 H 0.13291 0.07739 0.33553 0.0
H822 H 0.14073 0.07502 0.26621 0.0
H823 H 0.14863 0.05842 0.31661 0.0
C824 C 0.14517 0.05481 0.10706 0.0
C825 C 0.1638 0.04932 0.12077 0.0
C826 C 0.13012 0.05285 0.14468 0.0
C827 C 0.13339 0.04556 0.19708 0.0
C828 C 0.15181 0.03924 0.2094 0.0
H829 H 0.07655 0.02133 0.49974 0.0
H830 H 0.09789 0.027 0.42449 0.0
C831 C 0.16672 0.04116 0.17213 0.0
C832 C 0.11795 0.04482 0.23964 0.0
H833 H 0.10787 0.05829 0.37045 0.0
C834 C 0.10153 0.0339 0.23039 0.0
C835 C 0.11985 0.05407 0.2907 0.0
C836 C 0.13637 0.06704 0.3028 0.0
C837 C 0.08761 0.03124 0.27117 0.0
C838 C 0.08984 0.04001 0.32287 0.0
C839 C 0.10601 0.05138 0.3314 0.0
C840 C 0.0762 0.03692 0.36946 0.0
C841 C 0.07104 0.01836 0.25907 0.0
C842 C 0.05662 0.04087 0.36528 0.0
C843 C 0.04419 0.03763 0.40919 0.0
C844 C 0.05091 0.03043 0.45898 0.0
C845 C 0.07056 0.0269 0.46307 0.0
C846 C 0.08294 0.03014 0.4194 0.0
H847 H 0.07384 0.00899 0.22356 0.0
H848 H 0.06764 0.00933 0.29448 0.0
H849 H 0.05839 0.02713 0.24968 0.0
H850 H 0.05089 0.04657 0.32807 0.0
H851 H 0.02923 0.04063 0.4038 0.0
H852 H 0.47884 0.18204 0.1984 0.0
H853 H 0.4837 0.15577 0.26097 0.0
H854 H 0.46461 0.11627 0.13833 0.0
H855 H 0.45997 0.14278 0.07492 0.0
H856 H 0.45692 0.1323 0.30064 0.0
H857 H 0.51129 0.08898 0.19373 0.0
H858 H 0.5057 0.11298 0.17396 0.0
H859 H 0.49017 0.09378 0.15538 0.0
C860 C 0.47609 0.1677 0.18424 0.0
C861 C 0.46922 0.16453 0.13133 0.0
C862 C 0.47876 0.15265 0.22029 0.0
C863 C 0.47468 0.13386 0.20477 0.0
C864 C 0.46828 0.13052 0.15132 0.0
H865 H 0.48469 0.03009 0.40567 0.0
H866 H 0.47736 0.05194 0.33141 0.0
C867 C 0.46567 0.14568 0.11489 0.0
C868 C 0.47624 0.11826 0.24595 0.0
H869 H 0.49941 0.07678 0.27589 0.0
C870 C 0.4662 0.12015 0.29498 0.0
C871 C 0.48812 0.10217 0.23888 0.0
C872 C 0.49958 0.09934 0.18788 0.0
C873 C 0.46789 0.10675 0.33694 0.0
C874 C 0.48035 0.09104 0.33078 0.0
C875 C 0.48992 0.08878 0.28109 0.0
C876 C 0.48435 0.07749 0.37633 0.0
C877 C 0.45609 0.10954 0.38737 0.0
C878 C 0.49091 0.08432 0.42657 0.0
C879 C 0.49498 0.07187 0.46915 0.0
C880 C 0.49289 0.05208 0.46313 0.0
C881 C 0.48639 0.0452 0.41255 0.0
C882 C 0.48225 0.05772 0.36973 0.0
H883 H 0.44301 0.11779 0.37868 0.0
H884 H 0.45195 0.09575 0.40541 0.0
H885 H 0.46445 0.11768 0.41777 0.0
H886 H 0.49322 0.09938 0.43278 0.0
H887 H 0.50006 0.07795 0.50644 0.0
H888 H 0.37056 0.49788 0.11624 0.0
H889 H 0.39862 0.50346 0.1738 0.0
H890 H 0.38813 0.45052 0.25536 0.0
H891 H 0.36168 0.44426 0.19508 0.0
H892 H 0.40107 0.51072 0.27187 0.0
H893 H 0.44211 0.44442 0.25656 0.0
H894 H 0.4225 0.44901 0.2118 0.0
H895 H 0.41855 0.43892 0.27804 0.0
C896 C 0.37496 0.48697 0.14433 0.0
C897 C 0.36397 0.47044 0.14999 0.0
C898 C 0.39085 0.49031 0.1783 0.0
C899 C 0.39606 0.47735 0.21943 0.0
C900 C 0.38537 0.46055 0.22334 0.0
H901 H 0.46949 0.48425 0.5127 0.0
H902 H 0.44408 0.47649 0.44715 0.0
C903 C 0.36999 0.45699 0.18857 0.0
C904 C 0.41126 0.48208 0.26125 0.0
H905 H 0.44797 0.46343 0.33627 0.0
C906 C 0.41146 0.50035 0.28498 0.0
C907 C 0.42496 0.46872 0.28004 0.0
C908 C 0.42712 0.44927 0.25479 0.0
C909 C 0.42445 0.50547 0.32631 0.0
C910 C 0.43783 0.49205 0.34563 0.0
C911 C 0.43765 0.47376 0.32239 0.0
C912 C 0.45278 0.49709 0.38737 0.0
C913 C 0.42338 0.52519 0.35012 0.0
C914 C 0.46635 0.51115 0.37624 0.0
C915 C 0.48076 0.51561 0.41362 0.0
C916 C 0.48211 0.50631 0.46384 0.0
C917 C 0.46865 0.49206 0.47513 0.0
C918 C 0.45418 0.48752 0.43736 0.0
H919 H 0.40971 0.5323 0.3406 0.0
H920 H 0.42508 0.52463 0.39467 0.0
H921 H 0.43503 0.53397 0.33344 0.0
H922 H 0.46606 0.5185 0.33784 0.0
H923 H 0.49102 0.5264 0.40299 0.0
H924 H 0.0227 0.36978 0.11578 0.0
H925 H 0.01754 0.39812 0.17317 0.0
H926 H 0.07001 0.38664 0.25693 0.0
H927 H 0.0759 0.35995 0.19692 0.0
H928 H 0.01 0.40219 0.2704 0.0
H929 H 0.07758 0.44039 0.25626 0.0
H930 H 0.07246 0.42061 0.21228 0.0
H931 H 0.08255 0.4168 0.27876 0.0
C932 C 0.03357 0.37394 0.14452 0.0
C933 C 0.04986 0.36256 0.15079 0.0
C934 C 0.03048 0.39003 0.17839 0.0
C935 C 0.04344 0.39512 0.22002 0.0
C936 C 0.05996 0.38399 0.22463 0.0
H937 H 0.03757 0.46899 0.51506 0.0
H938 H 0.04445 0.44311 0.44964 0.0
C939 C 0.06329 0.36842 0.19004 0.0
C940 C 0.03914 0.41082 0.26124 0.0
H941 H 0.0592 0.44696 0.33675 0.0
C942 C 0.02082 0.41206 0.28403 0.0
C943 C 0.05298 0.42407 0.28032 0.0
C944 C 0.0724 0.4255 0.2551 0.0
C945 C 0.01617 0.42552 0.32493 0.0
C946 C 0.03017 0.43821 0.34522 0.0
C947 C 0.04846 0.43709 0.32259 0.0
C948 C 0.02571 0.45353 0.38688 0.0
C949 C 0.99622 0.42588 0.34678 0.0
C950 C 0.01292 0.46818 0.37425 0.0
C951 C 0.00904 0.48291 0.41141 0.0
C952 C 0.01765 0.48359 0.46303 0.0
C953 C 0.03042 0.46888 0.47618 0.0
C954 C 0.03445 0.4541 0.43849 0.0
H955 H 0.98843 0.41255 0.33727 0.0
H956 H 0.99635 0.42805 0.39127 0.0
H957 H 0.98836 0.43786 0.3283 0.0
H958 H 1.00614 0.46846 0.33486 0.0
H959 H 0.99927 0.49399 0.39939 0.0
H960 H 0.8745 0.94423 0.05672 0.0
H961 H 0.90041 0.95072 0.99365 0.0
H962 H 0.88164 0.00869 0.98044 0.0
H963 H 0.8551 1.00202 0.04255 0.0
H964 H 0.89149 0.96565 0.88055 0.0
H965 H 0.94298 0.00932 0.99816 0.0
H966 H 0.92713 0.99266 0.03021 0.0
H967 H 0.91808 0.01473 1.00529 0.0
C968 C 0.87629 0.95862 0.04226 0.0
C969 C 0.86273 0.97267 0.05578 0.0
C970 C 0.89104 0.96223 1.00541 0.0
C971 C 0.89308 0.98018 0.98165 0.0
C972 C 0.88051 0.99471 0.99817 0.0
H973 H 0.94899 0.01608 0.68414 0.0
H974 H 0.92738 0.00948 0.7587 0.0
C975 C 0.86545 0.99099 0.03453 0.0
C976 C 0.90726 0.98307 0.9366 0.0
H977 H 0.94939 1.00478 0.90491 0.0
C978 C 0.90411 0.97425 0.88598 0.0
C979 C 0.92397 0.994 0.94339 0.0
C980 C 0.92846 1.0032 0.99716 0.0
C981 C 0.91685 0.97645 0.84215 0.0
C982 C 0.93336 0.98774 0.84854 0.0
C983 C 0.93676 0.9962 0.89952 0.0
C984 C 0.94681 0.99135 0.80215 0.0
C985 C 0.9127 0.96653 0.78911 0.0
C986 C 0.96519 0.98348 0.80098 0.0
C987 C 0.97763 0.987 0.7573 0.0
C988 C 0.9721 0.99861 0.71354 0.0
C989 C 0.95374 1.00658 0.71545 0.0
C990 C 0.9413 1.00295 0.75876 0.0
H991 H 0.90098 0.95608 0.79277 0.0
H992 H 0.9086 0.97721 0.75836 0.0
H993 H 0.92558 0.95908 0.77408 0.0
H994 H 0.9699 0.97449 0.8338 0.0
H995 H 0.99163 0.98065 0.75796 0.0
H996 H 0.52708 0.86299 0.05527 0.0
H997 H 0.52125 0.88773 0.98721 0.0
H998 H 0.58081 0.90156 0.98721 0.0
H999 H 0.58666 0.8767 0.054 0.0
H1000 H 0.52611 0.92573 0.97735 0.0
H1001 H 0.57347 0.89003 0.82944 0.0
H1002 H 0.56678 0.87909 0.89243 0.0
H1003 H 0.58547 0.89651 0.89092 0.0
C1004 C 0.53882 0.87171 0.04197 0.0
C1005 C 0.55731 0.86791 0.06061 0.0
C1006 C 0.53553 0.88574 1.00245 0.0
C1007 C 0.55065 0.89629 0.98038 0.0
C1008 C 0.56891 0.89336 1.00187 0.0
H1009 H 0.5483 0.99361 0.75545 0.0
H1010 H 0.55512 0.97203 0.83107 0.0
C1011 C 0.57221 0.87931 0.04095 0.0
C1012 C 0.54748 0.90989 0.93417 0.0
H1013 H 0.56175 0.92041 0.80467 0.0
C1014 C 0.53395 0.92451 0.93973 0.0
C1015 C 0.5575 0.90839 0.88428 0.0
C1016 C 0.57147 0.89256 0.87356 0.0
C1017 C 0.53046 0.93764 0.89773 0.0
C1018 C 0.54068 0.93629 0.84853 0.0
C1019 C 0.55406 0.92164 0.84257 0.0
C1020 C 0.53695 0.94942 0.802 0.0
C1021 C 0.51563 0.95284 0.90565 0.0
C1022 C 0.52457 0.94396 0.76011 0.0
C1023 C 0.52062 0.95627 0.71692 0.0
C1024 C 0.52905 0.97439 0.71392 0.0
C1025 C 0.54156 0.9798 0.75597 0.0
C1026 C 0.54548 0.96745 0.79935 0.0
H1027 H 0.50868 0.95199 0.94594 0.0
H1028 H 0.52226 0.96705 0.90151 0.0
H1029 H 0.50461 0.95153 0.87363 0.0
H1030 H 0.51768 0.93023 0.76126 0.0
H1031 H 0.51048 0.95171 0.68671 0.0
H1032 H 0.67919 0.55006 0.95459 0.0
H1033 H 0.65328 0.54462 0.8916 0.0
H1034 H 0.61308 0.55048 0.02221 0.0
H1035 H 0.63936 0.55716 0.08575 0.0
H1036 H 0.62907 0.51873 0.87901 0.0
H1037 H 0.58711 0.58404 0.91641 0.0
H1038 H 0.61048 0.58073 0.94472 0.0
H1039 H 0.59015 0.5699 0.97597 0.0
C1040 C 0.66484 0.55032 0.97032 0.0
C1041 C 0.66155 0.55432 0.02569 0.0
C1042 C 0.6499 0.54712 0.93387 0.0
C1043 C 0.63088 0.54748 0.95101 0.0
C1044 C 0.62745 0.55066 1.00687 0.0
H1045 H 0.53212 0.50362 0.77787 0.0
H1046 H 0.55752 0.51193 0.84145 0.0
C1047 C 0.64257 0.55411 0.04368 0.0
C1048 C 0.61518 0.54379 0.91004 0.0
H1049 H 0.57315 0.56081 0.85808 0.0
C1050 C 0.61694 0.52808 0.87468 0.0
C1051 C 0.59921 0.55594 0.90295 0.0
C1052 C 0.59666 0.5737 0.93661 0.0
C1053 C 0.60339 0.52409 0.83394 0.0
C1054 C 0.58731 0.5359 0.82763 0.0
C1055 C 0.58546 0.55169 0.8625 0.0
C1056 C 0.57182 0.53116 0.78742 0.0
C1057 C 0.60635 0.50721 0.7973 0.0
C1058 C 0.57126 0.53904 0.73497 0.0
C1059 C 0.55659 0.53424 0.69802 0.0
C1060 C 0.54225 0.52126 0.71246 0.0
C1061 C 0.54297 0.51348 0.76493 0.0
C1062 C 0.5575 0.51828 0.8016 0.0
H1063 H 0.62015 0.50002 0.80456 0.0
H1064 H 0.59471 0.49685 0.80341 0.0
H1065 H 0.60581 0.51196 0.75465 0.0
H1066 H 0.58214 0.54896 0.72265 0.0
H1067 H 0.55634 0.54084 0.65852 0.0
H1068 H 0.9917 0.68239 0.98141 0.0
H1069 H 0.99918 0.65739 0.91492 0.0
H1070 H 0.9618 0.61898 0.99827 0.0
H1071 H 0.95375 0.64427 0.06302 0.0
H1072 H 0.01466 0.62474 0.91081 0.0
H1073 H 0.94002 0.61127 0.85345 0.0
H1074 H 0.94658 0.63049 0.89827 0.0
H1075 H 0.94413 0.60668 0.92375 0.0
C1076 C 0.98551 0.66845 0.98646 0.0
C1077 C 0.97244 0.66533 0.02856 0.0
C1078 C 0.98959 0.65411 0.9478 0.0
C1079 C 0.98069 0.63614 0.9497 0.0
C1080 C 0.96845 0.63272 0.99377 0.0
H1081 H 0.0226 0.53565 0.77574 0.0
H1082 H 0.015 0.56114 0.83941 0.0
C1083 C 0.96418 0.64712 0.03193 0.0
C1084 C 0.98438 0.62117 0.90605 0.0
H1085 H 0.96291 0.58933 0.81889 0.0
C1086 C 1.00323 0.61716 0.89075 0.0
C1087 C 0.96967 0.61115 0.87828 0.0
C1088 C 0.94898 0.61524 0.88883 0.0
C1089 C 1.00776 0.6035 0.85036 0.0
C1090 C 0.99316 0.59291 0.82434 0.0
C1091 C 0.97426 0.59716 0.8386 0.0
C1092 C 0.99737 0.57703 0.78406 0.0
C1093 C 0.02832 0.60085 0.83525 0.0
C1094 C 0.98956 0.57666 0.73122 0.0
C1095 C 0.99374 0.56168 0.69436 0.0
C1096 C 1.00597 0.5467 0.70916 0.0
C1097 C 0.01342 0.54702 0.7622 0.0
C1098 C 0.00917 0.56179 0.79887 0.0
H1099 H 0.03686 0.61366 0.84522 0.0
H1100 H 0.03429 0.58878 0.8584 0.0
H1101 H 0.02985 0.59769 0.7914 0.0
H1102 H 0.98027 0.58803 0.71832 0.0
H1103 H 0.98732 0.56177 0.65448 0.0
H1104 H 0.11094 0.21994 0.29156 0.0
H1105 H 0.09677 0.19606 0.35083 0.0
H1106 H 0.08044 0.16301 0.21053 0.0
H1107 H 0.09466 0.1865 0.15163 0.0
H1108 H 0.05923 0.18905 0.34791 0.0
H1109 H 0.09757 0.12175 0.31028 0.0
H1110 H 0.10717 0.14449 0.29096 0.0
H1111 H 0.09018 0.1325 0.24814 0.0
C1112 C 0.105 0.20718 0.27364 0.0
C1113 C 0.10408 0.20499 0.21703 0.0
C1114 C 0.09685 0.19362 0.30744 0.0
C1115 C 0.08776 0.17766 0.2851 0.0
C1116 C 0.08787 0.1749 0.22878 0.0
H1117 H 0.99763 0.10248 0.34925 0.0
H1118 H 0.02368 0.12201 0.31426 0.0
C1119 C 0.0961 0.18835 0.19506 0.0
C1120 C 0.07587 0.16531 0.31929 0.0
H1121 H 0.06534 0.11887 0.34342 0.0
C1122 C 0.06084 0.17373 0.34813 0.0
C1123 C 0.0779 0.14533 0.31899 0.0
C1124 C 0.09421 0.13553 0.29082 0.0
C1125 C 0.04724 0.16261 0.37441 0.0
C1126 C 0.04887 0.14265 0.372 0.0
C1127 C 0.06422 0.13423 0.34498 0.0
C1128 C 0.03394 0.13029 0.39368 0.0
C1129 C 0.03066 0.17217 0.40212 0.0
C1130 C 0.03139 0.12843 0.44976 0.0
C1131 C 0.01659 0.11732 0.46962 0.0
C1132 C 1.00432 0.10803 0.43345 0.0
C1133 C 1.00708 0.10959 0.37748 0.0
C1134 C 0.02187 0.12066 0.35766 0.0
H1135 H 0.03043 0.18775 0.39534 0.0
H1136 H 0.01709 0.16603 0.38721 0.0
H1137 H 0.03145 0.16961 0.44638 0.0
H1138 H 0.04072 0.13572 0.47794 0.0
H1139 H 0.01456 0.11614 0.51298 0.0
H1140 H 0.3096 0.11721 0.29784 0.0
H1141 H 0.33466 0.10348 0.35602 0.0
H1142 H 0.34145 0.0572 0.24222 0.0
H1143 H 0.31693 0.0707 0.1847 0.0
H1144 H 0.33682 0.06288 0.39834 0.0
H1145 H 0.39521 0.08236 0.25872 0.0
H1146 H 0.37259 0.09452 0.25931 0.0
H1147 H 0.37499 0.07191 0.22574 0.0
C1148 C 0.31659 0.10416 0.28561 0.0
C1149 C 0.3119 0.09526 0.23637 0.0
C1150 C 0.33076 0.09637 0.3186 0.0
C1151 C 0.34009 0.07965 0.30237 0.0
C1152 C 0.3347 0.07038 0.2545 0.0
H1153 H 0.40831 0.98802 0.36284 0.0
H1154 H 0.38802 0.01422 0.33336 0.0
C1155 C 0.32078 0.07813 0.22173 0.0
C1156 C 0.35561 0.07144 0.33433 0.0
H1157 H 0.40122 0.05626 0.31903 0.0
C1158 C 0.35112 0.06193 0.38232 0.0
C1159 C 0.3741 0.07013 0.31252 0.0
C1160 C 0.3796 0.08041 0.26144 0.0
C1161 C 0.3644 0.04994 0.40704 0.0
C1162 C 0.38247 0.04772 0.38317 0.0
C1163 C 0.38733 0.05817 0.33718 0.0
C1164 C 0.39543 0.03264 0.40063 0.0
C1165 C 0.35867 0.03859 0.45599 0.0
C1166 C 0.40643 0.03464 0.44766 0.0
C1167 C 0.4181 0.01974 0.46441 0.0
C1168 C 0.41864 1.0027 0.43446 0.0
C1169 C 0.40786 1.00095 0.38687 0.0
C1170 C 0.3964 0.01586 0.36995 0.0
H1171 H 0.34384 0.04158 0.46875 0.0
H1172 H 0.36004 0.02318 0.44697 0.0
H1173 H 0.36833 0.04192 0.4903 0.0
H1174 H 0.40581 0.0476 0.4715 0.0
H1175 H 0.42633 0.02132 0.50127 0.0
H1176 H 0.44765 0.32089 0.17109 0.0
H1177 H 0.46277 0.34388 0.23093 0.0
H1178 H 0.42083 0.33299 0.35391 0.0
H1179 H 0.40531 0.30964 0.29342 0.0
H1180 H 0.43002 0.37472 0.31509 0.0
H1181 H 0.49156 0.33107 0.38045 0.0
H1182 H 0.48523 0.32907 0.31002 0.0
H1183 H 0.46903 0.32079 0.36075 0.0
C1184 C 0.44141 0.32354 0.21055 0.0
C1185 C 0.42503 0.31383 0.2273 0.0
C1186 C 0.45024 0.33647 0.24487 0.0
C1187 C 0.44294 0.3399 0.29666 0.0
C1188 C 0.42662 0.33031 0.31396 0.0
H1189 H 0.51579 0.42064 0.47219 0.0
H1190 H 0.49154 0.39578 0.46234 0.0
C1191 C 0.41778 0.31713 0.27953 0.0
C1192 C 0.45216 0.35439 0.33054 0.0
H1193 H 0.49532 0.36492 0.38514 0.0
C1194 C 0.44403 0.37253 0.33223 0.0
C1195 C 0.47046 0.35136 0.35216 0.0
C1196 C 0.47959 0.33198 0.35124 0.0
C1197 C 0.4544 0.38814 0.35142 0.0
C1198 C 0.47324 0.38536 0.36925 0.0
C1199 C 0.48081 0.36695 0.37158 0.0
C1200 C 0.48622 0.40147 0.37764 0.0
C1201 C 0.44555 0.40763 0.34937 0.0
C1202 C 0.49108 0.41276 0.33325 0.0
C1203 C 0.50481 0.42681 0.33867 0.0
C1204 C 0.51402 0.42971 0.38851 0.0
C1205 C 0.50876 0.41875 0.43346 0.0
C1206 C 0.49502 0.40457 0.42789 0.0
H1207 H 0.42981 0.40684 0.35024 0.0
H1208 H 0.4505 0.41665 0.38364 0.0
H1209 H 0.44974 0.41459 0.31101 0.0
H1210 H 0.48469 0.41029 0.29387 0.0
H1211 H 0.50853 0.43518 0.30355 0.0
H1212 H 0.21624 0.45012 0.20233 0.0
H1213 H 0.19216 0.46554 0.25749 0.0
H1214 H 0.17509 0.41112 0.32042 0.0
H1215 H 0.19957 0.39539 0.26396 0.0
H1216 H 0.14542 0.43349 0.28186 0.0
H1217 H 0.19067 0.47614 0.41921 0.0
H1218 H 0.19772 0.47884 0.34995 0.0
H1219 H 0.19965 0.45593 0.38158 0.0
C1220 C 0.20755 0.44147 0.22866 0.0
C1221 C 0.20982 0.42168 0.23003 0.0
C1222 C 0.19393 0.45029 0.26039 0.0
C1223 C 0.18235 0.43951 0.29434 0.0
C1224 C 0.18428 0.41963 0.29521 0.0
H1225 H 0.10251 0.51357 0.46781 0.0
H1226 H 0.12487 0.48733 0.45359 0.0
C1227 C 0.19807 0.41069 0.26307 0.0
C1228 C 0.1671 0.44928 0.32408 0.0
H1229 H 0.15926 0.48908 0.40007 0.0
C1230 C 0.14834 0.44527 0.30917 0.0
C1231 C 0.17101 0.4646 0.35967 0.0
C1232 C 0.19088 0.469 0.37892 0.0
C1233 C 0.13348 0.45716 0.32553 0.0
C1234 C 0.13763 0.47348 0.35697 0.0
C1235 C 0.15617 0.47662 0.37552 0.0
C1236 C 0.12338 0.48844 0.36611 0.0
C1237 C 0.1136 0.45256 0.30705 0.0
C1238 C 0.1154 0.49776 0.32154 0.0
C1239 C 0.10258 0.51254 0.32943 0.0
C1240 C 0.09775 0.51846 0.38209 0.0
C1241 C 0.10579 0.50912 0.42678 0.0
C1242 C 0.1186 0.49423 0.41879 0.0
H1243 H 0.11189 0.43707 0.29991 0.0
H1244 H 0.10288 0.45732 0.33718 0.0
H1245 H 0.11074 0.45987 0.26818 0.0
H1246 H 0.11931 0.49378 0.28056 0.0
H1247 H 0.09649 0.51936 0.29425 0.0
H1248 H 0.91411 0.80172 0.8777 0.0
H1249 H 0.93048 0.82446 0.81841 0.0
H1250 H 0.9499 0.85558 0.95885 0.0
H1251 H 0.93387 0.83315 0.01787 0.0
H1252 H 0.92979 0.87443 0.84231 0.0
H1253 H 0.99559 0.83042 0.84323 0.0
H1254 H 0.97225 0.81987 0.84654 0.0
H1255 H 0.98177 0.83205 0.9045 0.0
C1256 C 0.92156 0.81365 0.89565 0.0
C1257 C 0.9224 0.81591 0.95224 0.0
C1258 C 0.93086 0.82654 0.86193 0.0
C1259 C 0.94118 0.84164 0.88464 0.0
C1260 C 0.94173 0.84412 0.94087 0.0
H1261 H 0.02932 0.91845 0.82716 0.0
H1262 H 1.00448 0.89719 0.86002 0.0
C1263 C 0.93242 0.83138 0.9744 0.0
C1264 C 0.95257 0.85433 0.85074 0.0
H1265 H 0.99823 0.86183 0.81153 0.0
C1266 C 0.94466 0.87162 0.8343 0.0
C1267 C 0.97195 0.85051 0.84143 0.0
C1268 C 0.981 0.83219 0.85956 0.0
C1269 C 0.95598 0.8857 0.8106 0.0
C1270 C 0.97553 0.88212 0.80301 0.0
C1271 C 0.9832 0.86446 0.81744 0.0
C1272 C 0.98877 0.89692 0.78455 0.0
C1273 C 0.94722 0.90461 0.79674 0.0
C1274 C 0.98779 0.90417 0.73176 0.0
C1275 C 1.00186 0.91652 0.71326 0.0
C1276 C 0.01709 0.92143 0.74723 0.0
C1277 C 0.01765 0.91474 0.80051 0.0
C1278 C 1.00355 0.90262 0.81912 0.0
H1279 H 0.93265 0.90613 0.81338 0.0
H1280 H 0.95612 0.91642 0.81255 0.0
H1281 H 0.94642 0.90601 0.75204 0.0
H1282 H 0.97664 0.89968 0.70431 0.0
H1283 H 1.00136 0.9215 0.67183 0.0
H1284 H 0.72127 0.95575 0.95343 0.0
H1285 H 0.69784 0.97133 0.89677 0.0
H1286 H 0.66863 0.91795 0.87418 0.0
H1287 H 0.69178 0.9024 0.93425 0.0
H1288 H 0.68708 0.96768 0.79598 0.0
H1289 H 0.62665 0.95037 0.9322 0.0
H1290 H 0.65096 0.94576 0.95067 0.0
H1291 H 0.6388 0.93018 0.90418 0.0
C1292 C 0.71004 0.94725 0.93551 0.0
C1293 C 0.70833 0.92787 0.94739 0.0
C1294 C 0.69664 0.95617 0.9033 0.0
C1295 C 0.68137 0.94585 0.8818 0.0
C1296 C 0.68009 0.92624 0.89146 0.0
H1297 H 0.59639 1.0053 0.68326 0.0
H1298 H 0.61671 0.97953 0.71704 0.0
C1299 C 0.69336 0.91733 0.92503 0.0
C1300 C 0.66657 0.95619 0.85161 0.0
H1301 H 0.62013 0.96991 0.85775 0.0
C1302 C 0.67237 0.9679 0.80887 0.0
C1303 C 0.64744 0.95666 0.86922 0.0
C1304 C 0.64056 0.94522 0.91685 0.0
C1305 C 0.65975 0.98064 0.78476 0.0
C1306 C 0.64082 0.98125 0.80294 0.0
C1307 C 0.63471 0.96905 0.84384 0.0
C1308 C 0.62785 0.99604 0.78405 0.0
C1309 C 0.66686 0.99414 0.74212 0.0
C1310 C 0.62751 0.01356 0.81118 0.0
C1311 C 0.61614 0.0282 0.79198 0.0
C1312 C 0.60491 0.02542 0.74562 0.0
C1313 C 0.60492 1.00768 0.71923 0.0
C1314 C 0.61644 0.99304 0.73831 0.0
H1315 H 0.68177 0.99114 0.73029 0.0
H1316 H 0.65771 0.99326 0.70554 0.0
H1317 H 0.66602 0.00893 0.75787 0.0
H1318 H 0.63628 0.01596 0.84667 0.0
H1319 H 0.61611 0.04169 0.81333 0.0
H1320 H 0.62422 0.70302 0.91106 0.0
H1321 H 0.61021 0.67726 0.85687 0.0
H1322 H 0.55792 0.70908 0.84594 0.0
H1323 H 0.57239 0.73514 0.89591 0.0
H1324 H 0.58334 0.65739 0.89279 0.0
H1325 H 0.55674 0.68685 0.70071 0.0
H1326 H 0.57318 0.69981 0.7431 0.0
H1327 H 0.54799 0.70081 0.75607 0.0
C1328 C 0.61013 0.7048 0.89423 0.0
C1329 C 0.59949 0.72109 0.90606 0.0
C1330 C 0.60206 0.69009 0.86381 0.0
C1331 C 0.58309 0.69133 0.84634 0.0
C1332 C 0.57278 0.70802 0.85664 0.0
H1333 H 0.49139 0.61606 0.82979 0.0
H1334 H 0.5137 0.64269 0.83348 0.0
C1335 C 0.58103 0.72291 0.88547 0.0
C1336 C 0.57309 0.67423 0.82605 0.0
H1337 H 0.5395 0.6593 0.7355 0.0
C1338 C 0.57424 0.65767 0.85734 0.0
C1339 C 0.56097 0.67461 0.78021 0.0
C1340 C 0.55983 0.69146 0.74294 0.0
C1341 C 0.56297 0.64184 0.8456 0.0
C1342 C 0.55017 0.64269 0.80175 0.0
C1343 C 0.54941 0.65886 0.76916 0.0
C1344 C 0.5363 0.62748 0.79279 0.0
C1345 C 0.56406 0.62462 0.88161 0.0
C1346 C 0.54172 0.6104 0.76784 0.0
C1347 C 0.52904 0.59519 0.76572 0.0
C1348 C 0.51094 0.59695 0.78906 0.0
C1349 C 0.50539 0.61434 0.81227 0.0
C1350 C 0.51799 0.62954 0.81397 0.0
H1351 H 0.57427 0.62655 0.91554 0.0
H1352 H 0.54985 0.62148 0.89871 0.0
H1353 H 0.56851 0.61208 0.85726 0.0
H1354 H 0.5559 0.60868 0.7516 0.0
H1355 H 0.53361 0.58188 0.74773 0.0
H1356 H 0.82732 0.59473 0.99109 0.0
H1357 H 0.85016 0.57854 0.9358 0.0
H1358 H 0.82246 0.59841 0.79126 0.0
H1359 H 0.79959 0.61625 0.84684 0.0
H1360 H 0.82914 0.55209 0.8317 0.0
H1361 H 0.89056 0.601 0.80805 0.0
H1362 H 0.87738 0.60218 0.87052 0.0
H1363 H 0.86623 0.6093 0.80853 0.0
C1364 C 0.82632 0.59676 0.9478 0.0
C1365 C 0.81141 0.60718 0.92385 0.0
C1366 C 0.83941 0.58712 0.91616 0.0
C1367 C 0.83787 0.58733 0.85986 0.0
C1368 C 0.82375 0.59823 0.83498 0.0
H1369 H 0.90995 0.50144 0.70182 0.0
H1370 H 0.88519 0.52579 0.71062 0.0
C1371 C 0.81068 0.60831 0.86686 0.0
C1372 C 0.85007 0.57433 0.82906 0.0
H1373 H 0.89679 0.56778 0.79933 0.0
C1374 C 0.84377 0.55557 0.82236 0.0
C1375 C 0.86916 0.579 0.81877 0.0
C1376 C 0.87634 0.59899 0.8265 0.0
C1377 C 0.85651 0.54104 0.80891 0.0
C1378 C 0.87581 0.54558 0.80148 0.0
C1379 C 0.88189 0.5645 0.80489 0.0
C1380 C 0.89018 0.53063 0.79601 0.0
C1381 C 0.84971 0.52074 0.80695 0.0
C1382 C 0.90084 0.52537 0.84144 0.0
C1383 C 0.91484 0.51148 0.83672 0.0
C1384 C 0.9184 0.5028 0.78636 0.0
C1385 C 0.90746 0.50796 0.74107 0.0
C1386 C 0.89339 0.5218 0.74592 0.0
H1387 H 0.83418 0.51957 0.81392 0.0
H1388 H 0.85313 0.51433 0.76691 0.0
H1389 H 0.85723 0.51233 0.83826 0.0
H1390 H 0.89845 0.53216 0.88038 0.0
H1391 H 0.92331 0.50802 0.87197 0.0
H1392 H 0.07601 0.21211 0.7839 0.0
H1393 H 0.06974 0.18168 0.73898 0.0
H1394 H 0.01395 0.18061 0.8101 0.0
H1395 H 0.02004 0.21126 0.85414 0.0
H1396 H 0.06415 0.14757 0.77207 0.0
H1397 H 0.99871 0.16614 0.66216 0.0
H1398 H 0.01306 0.18388 0.69547 0.0
H1399 H 0.9959 0.17038 0.73332 0.0
C1400 C 0.06224 0.20561 0.78942 0.0
C1401 C 0.04848 0.21459 0.82256 0.0
C1402 C 0.05867 0.18799 0.76363 0.0
C1403 C 0.04117 0.17855 0.76969 0.0
C1404 C 0.02737 0.18755 0.80258 0.0
H1405 H 0.98912 0.07012 0.68657 0.0
H1406 H 0.99895 0.1012 0.72045 0.0
C1407 C 0.03088 0.20528 0.82805 0.0
C1408 C 0.03769 0.15913 0.74357 0.0
H1409 H 1.00512 0.13298 0.67099 0.0
C1410 C 0.05128 0.14453 0.74954 0.0
C1411 C 0.02109 0.15473 0.7132 0.0
C1412 C 1.00648 0.16968 0.70011 0.0
C1413 C 0.04835 0.12586 0.72882 0.0
C1414 C 0.03135 0.12126 0.70052 0.0
C1415 C 0.01807 0.13603 0.69314 0.0
C1416 C 0.02633 0.10123 0.68095 0.0
C1417 C 0.06318 0.11101 0.73992 0.0
C1418 C 0.03831 0.09014 0.64715 0.0
C1419 C 0.03267 0.07193 0.62789 0.0
C1420 C 0.01484 0.06424 0.64171 0.0
C1421 C 1.003 0.07536 0.6753 0.0
C1422 C 0.00864 0.09333 0.69469 0.0
H1423 H 0.07295 0.11532 0.77315 0.0
H1424 H 0.05627 0.0975 0.75106 0.0
H1425 H 0.07179 0.10858 0.7029 0.0
H1426 H 0.05184 0.09575 0.63419 0.0
H1427 H 0.04204 0.0641 0.6011 0.0
H1428 H 0.31614 0.08247 0.76319 0.0
H1429 H 0.34579 0.07344 0.71863 0.0
H1430 H 0.34474 0.01958 0.79988 0.0
H1431 H 0.31522 0.0289 0.84683 0.0
H1432 H 0.38133 0.05937 0.79142 0.0
H1433 H 0.35736 0.01313 0.62115 0.0
H1434 H 0.34288 0.03225 0.64755 0.0
H1435 H 0.34573 0.01096 0.68602 0.0
C1436 C 0.32195 0.06851 0.77113 0.0
C1437 C 0.31312 0.0565 0.80932 0.0
C1438 C 0.33905 0.0634 0.7455 0.0
C1439 C 0.34777 0.04588 0.75596 0.0
C1440 C 0.3384 0.03322 0.79102 0.0
H1441 H 0.45288 0.98879 0.67177 0.0
H1442 H 0.42149 0.99913 0.70196 0.0
C1443 C 0.32132 0.03847 0.81744 0.0
C1444 C 0.36718 0.04153 0.73308 0.0
H1445 H 0.39046 0.01611 0.63422 0.0
C1446 C 0.38328 0.04995 0.75693 0.0
C1447 C 0.36991 0.0295 0.68753 0.0
C1448 C 0.35314 0.02092 0.65854 0.0
C1449 C 0.40186 0.0462 0.7377 0.0
C1450 C 0.4047 0.03376 0.693 0.0
C1451 C 0.38852 0.02561 0.66851 0.0
C1452 C 0.4243 0.02795 0.67387 0.0
C1453 C 0.41847 0.05511 0.76643 0.0
C1454 C 0.43672 0.04061 0.64738 0.0
C1455 C 0.45483 0.03457 0.62903 0.0
C1456 C 0.4612 0.01585 0.63803 0.0
C1457 C 0.4487 1.00337 0.66461 0.0
C1458 C 0.43061 0.00926 0.68192 0.0
H1459 H 0.41421 0.06278 0.80398 0.0
H1460 H 0.42898 0.044 0.77707 0.0
H1461 H 0.42545 0.06534 0.73887 0.0
H1462 H 0.43229 0.05509 0.63999 0.0
H1463 H 0.46372 0.04445 0.6073 0.0
H1464 H 0.48565 0.31568 0.87072 0.0
H1465 H 0.49495 0.34538 0.82626 0.0
H1466 H 0.4529 0.33553 0.70224 0.0
H1467 H 0.44328 0.30624 0.74746 0.0
H1468 H 0.50829 0.35676 0.73025 0.0
H1469 H 0.43603 0.38661 0.75424 0.0
H1470 H 0.443 0.36454 0.78506 0.0
H1471 H 0.43634 0.36519 0.71461 0.0
C1472 C 0.4788 0.31957 0.83306 0.0
C1473 C 0.46383 0.30845 0.81248 0.0
C1474 C 0.48397 0.33671 0.80788 0.0
C1475 C 0.47429 0.34319 0.76149 0.0
C1476 C 0.46025 0.33135 0.7388 0.0
H1477 H 0.51137 0.44216 0.56724 0.0
H1478 H 0.50433 0.40986 0.59843 0.0
C1479 C 0.45497 0.31436 0.76421 0.0
C1480 C 0.47843 0.36248 0.73808 0.0
H1481 H 0.45778 0.40485 0.70332 0.0
C1482 C 0.49721 0.36723 0.72434 0.0
C1483 C 0.4641 0.37647 0.7308 0.0
C1484 C 0.44378 0.37306 0.74743 0.0
C1485 C 0.50199 0.38526 0.70345 0.0
C1486 C 0.48761 0.39903 0.695 0.0
C1487 C 0.46885 0.39434 0.709 0.0
C1488 C 0.4918 0.41871 0.67464 0.0
C1489 C 0.52256 0.38959 0.69222 0.0
C1490 C 0.48678 0.43468 0.70601 0.0
C1491 C 0.49067 0.45314 0.68804 0.0
C1492 C 0.49959 0.45631 0.63782 0.0
C1493 C 0.50459 0.44034 0.60622 0.0
C1494 C 0.50063 0.4218 0.62422 0.0
H1495 H 0.53221 0.37942 0.71273 0.0
H1496 H 0.52517 0.38855 0.64798 0.0
H1497 H 0.52622 0.4042 0.70575 0.0
H1498 H 0.48004 0.43286 0.74506 0.0
H1499 H 0.48702 0.46493 0.71429 0.0
H1500 H 0.21267 0.43999 0.79425 0.0
H1501 H 0.18268 0.44683 0.74814 0.0
H1502 H 0.18734 0.50566 0.79449 0.0
H1503 H 0.21732 0.49893 0.8416 0.0
H1504 H 0.14979 0.48334 0.82039 0.0
H1505 H 0.17242 0.48038 0.60451 0.0
H1506 H 0.18156 0.46292 0.65089 0.0
H1507 H 0.18863 0.48724 0.658 0.0
C1508 C 0.20751 0.45448 0.79439 0.0
C1509 C 0.2177 0.46887 0.82224 0.0
C1510 C 0.19027 0.45837 0.76764 0.0
C1511 C 0.18256 0.47679 0.76757 0.0
C1512 C 0.19289 0.49132 0.79375 0.0
H1513 H 0.0829 0.52411 0.59813 0.0
H1514 H 0.11478 0.51731 0.63352 0.0
C1515 C 0.21023 0.48746 0.82035 0.0
C1516 C 0.16334 0.48064 0.74276 0.0
H1517 H 0.13984 0.48517 0.62148 0.0
C1518 C 0.14766 0.48378 0.77689 0.0
C1519 C 0.16033 0.48112 0.68596 0.0
C1520 C 0.17655 0.47781 0.6473 0.0
C1521 C 0.12926 0.48732 0.75604 0.0
C1522 C 0.12622 0.48786 0.69914 0.0
C1523 C 0.14196 0.48484 0.66498 0.0
C1524 C 0.10685 0.49151 0.67476 0.0
C1525 C 0.11323 0.49071 0.79539 0.0
C1526 C 0.0916 0.4791 0.68436 0.0
C1527 C 0.07336 0.48287 0.66364 0.0
C1528 C 0.06956 0.49925 0.63281 0.0
C1529 C 0.08501 0.5114 0.62184 0.0
C1530 C 0.10336 0.50751 0.6422 0.0
H1531 H 0.11854 0.49445 0.8365 0.0
H1532 H 0.10377 0.50225 0.78111 0.0
H1533 H 0.10467 0.47755 0.79874 0.0
H1534 H 0.09378 0.46641 0.70813 0.0
H1535 H 0.06224 0.47287 0.67233 0.0
H1536 H 1.00259 0.81424 0.33385 0.0
H1537 H 0.0091 0.84448 0.38068 0.0
H1538 H 0.94945 0.85131 0.41338 0.0
H1539 H 0.94303 0.82092 0.36947 0.0
H1540 H 0.99767 0.87936 0.35252 0.0
H1541 H 0.96868 0.86721 0.55777 0.0
H1542 H 0.97222 0.84803 0.50995 0.0
H1543 H 0.95175 0.86322 0.5047 0.0
C1544 C 0.99091 0.82185 0.35246 0.0
C1545 C 0.97225 0.81487 0.34718 0.0
C1546 C 0.99462 0.83937 0.37892 0.0
C1547 C 0.97985 0.85047 0.40152 0.0
C1548 C 0.96131 0.84317 0.39786 0.0
H1549 H 0.98005 0.96516 0.56249 0.0
H1550 H 0.96994 0.93439 0.52339 0.0
C1551 C 0.95762 0.82568 0.37181 0.0
C1552 C 0.98364 0.87015 0.42498 0.0
H1553 H 0.97728 0.89894 0.5368 0.0
C1554 C 0.99329 0.88349 0.39304 0.0
C1555 C 0.97753 0.87614 0.47736 0.0
C1556 C 0.9671 0.86286 0.51463 0.0
C1557 C 0.99698 0.90224 0.41129 0.0
C1558 C 0.99169 0.90805 0.46462 0.0
C1559 C 0.98161 0.89482 0.49626 0.0
C1560 C 0.99732 0.92726 0.48863 0.0
C1561 C 1.006 0.91576 0.37177 0.0
C1562 C 0.0161 0.93382 0.48392 0.0
C1563 C 0.02157 0.95171 0.50402 0.0
C1564 C 0.00873 0.96372 0.53149 0.0
C1565 C 0.99016 0.9568 0.53952 0.0
C1566 C 0.98445 0.93897 0.5177 0.0
H1567 H 1.00208 0.91208 0.32936 0.0
H1568 H 1.00171 0.93067 0.37973 0.0
H1569 H 0.02167 0.91464 0.37492 0.0
H1570 H 0.02679 0.92502 0.46484 0.0
H1571 H 0.03616 0.95608 0.49832 0.0
H1572 H 0.70632 0.94663 0.38981 0.0
H1573 H 0.67563 0.95341 0.43215 0.0
H1574 H 0.68158 0.01248 0.39151 0.0
H1575 H 0.71228 1.00566 0.34806 0.0
H1576 H 0.66227 0.97706 0.51547 0.0
H1577 H 0.63106 0.99885 0.31936 0.0
H1578 H 0.6536 0.98679 0.32395 0.0
H1579 H 0.65201 0.01182 0.33815 0.0
C1580 C 0.70131 0.96118 0.39062 0.0
C1581 C 0.71199 0.97558 0.36514 0.0
C1582 C 0.68361 0.96503 0.4149 0.0
C1583 C 0.6758 0.98341 0.41434 0.0
C1584 C 0.68691 0.99806 0.39173 0.0
H1585 H 0.56841 0.03737 0.49581 0.0
H1586 H 0.59969 0.02762 0.46419 0.0
C1587 C 0.70471 0.99421 0.36754 0.0
C1588 C 0.65588 0.98702 0.43533 0.0
H1589 H 0.61198 1.00326 0.39698 0.0
C1590 C 0.65128 0.98281 0.48952 0.0
C1591 C 0.64122 0.99422 0.40173 0.0
C1592 C 0.64458 0.99803 0.34243 0.0
C1593 C 0.63297 0.98641 0.51141 0.0
C1594 C 0.61837 0.994 0.47796 0.0
C1595 C 0.62292 0.99765 0.42334 0.0
C1596 C 0.59876 0.99947 0.49874 0.0
C1597 C 0.62979 0.98267 0.57085 0.0
C1598 C 0.58714 0.98706 0.52905 0.0
C1599 C 0.5691 0.99288 0.54839 0.0
C1600 C 0.56182 0.01102 0.53627 0.0
C1601 C 0.57334 0.02322 0.50558 0.0
C1602 C 0.59136 0.01758 0.48716 0.0
H1603 H 0.64338 0.98208 0.59364 0.0
H1604 H 0.62068 0.99379 0.58953 0.0
H1605 H 0.62266 0.96874 0.57548 0.0
H1606 H 0.59192 0.9728 0.5377 0.0
H1607 H 0.56087 0.98319 0.57283 0.0
H1608 H 0.58877 0.70796 0.37913 0.0
H1609 H 0.57971 0.68013 0.42998 0.0
H1610 H 0.52097 0.69711 0.41995 0.0
H1611 H 0.53002 0.72393 0.36222 0.0
H1612 H 0.56639 0.66839 0.51226 0.0
H1613 H 0.51176 0.6472 0.36185 0.0
H1614 H 0.52669 0.66753 0.3516 0.0
H1615 H 0.50605 0.66917 0.39474 0.0
C1616 C 0.57386 0.70594 0.38811 0.0
C1617 C 0.56012 0.71802 0.36492 0.0
C1618 C 0.56863 0.68983 0.41751 0.0
C1619 C 0.54944 0.68554 0.4271 0.0
C1620 C 0.5358 0.69912 0.41055 0.0
H1621 H 0.49928 0.58285 0.57371 0.0
H1622 H 0.50558 0.61538 0.54417 0.0
C1623 C 0.54102 0.71493 0.37882 0.0
C1624 C 0.54417 0.66662 0.45214 0.0
H1625 H 0.51517 0.62766 0.43802 0.0
C1626 C 0.55519 0.65959 0.4955 0.0
C1627 C 0.52961 0.65463 0.43102 0.0
C1628 C 0.518 0.65991 0.38195 0.0
C1629 C 0.55229 0.64132 0.51739 0.0
C1630 C 0.53767 0.62957 0.49651 0.0
C1631 C 0.52631 0.63665 0.45438 0.0
C1632 C 0.53418 0.60976 0.51674 0.0
C1633 C 0.56497 0.63472 0.56283 0.0
C1634 C 0.54809 0.59554 0.51148 0.0
C1635 C 0.54452 0.57685 0.52843 0.0
C1636 C 0.52687 0.57169 0.55076 0.0
C1637 C 0.51306 0.58608 0.55674 0.0
C1638 C 0.51662 0.60477 0.53963 0.0
H1639 H 0.57222 0.64679 0.58334 0.0
H1640 H 0.55679 0.62666 0.59344 0.0
H1641 H 0.57606 0.62516 0.546 0.0
H1642 H 0.56168 0.59879 0.49336 0.0
H1643 H 0.55566 0.56648 0.52386 0.0
H1644 H 0.8035 0.53157 0.34646 0.0
H1645 H 0.83114 0.52342 0.40273 0.0
H1646 H 0.84227 0.58314 0.42703 0.0
H1647 H 0.81337 0.59084 0.38012 0.0
H1648 H 0.86427 0.52552 0.38783 0.0
H1649 H 0.86011 0.57244 0.56632 0.0
H1650 H 0.84005 0.56961 0.52194 0.0
H1651 H 0.85836 0.58693 0.50757 0.0
C1652 C 0.81117 0.54284 0.36693 0.0
C1653 C 0.806 0.5619 0.35835 0.0
C1654 C 0.82741 0.53824 0.39826 0.0
C1655 C 0.83933 0.55254 0.42057 0.0
C1656 C 0.83345 0.57148 0.41369 0.0
H1657 H 0.95975 0.55857 0.51264 0.0
H1658 H 0.92723 0.56441 0.48172 0.0
C1659 C 0.81676 0.57596 0.38555 0.0
C1660 C 0.85862 0.54794 0.44563 0.0
H1661 H 0.89159 0.56263 0.54027 0.0
C1662 C 0.86986 0.53349 0.42197 0.0
C1663 C 0.86665 0.55814 0.4904 0.0
C1664 C 0.85552 0.57246 0.52322 0.0
C1665 C 0.88847 0.52936 0.4402 0.0
C1666 C 0.89665 0.54014 0.48291 0.0
C1667 C 0.88556 0.55448 0.50701 0.0
C1668 C 0.9166 0.53666 0.50318 0.0
C1669 C 0.89943 0.51365 0.41257 0.0
C1670 C 0.92172 0.51925 0.52673 0.0
C1671 C 0.94045 0.51581 0.5442 0.0
C1672 C 0.95477 0.5297 0.53892 0.0
C1673 C 0.94945 0.54733 0.51664 0.0
C1674 C 0.93069 0.55076 0.49916 0.0
H1675 H 0.89298 0.50949 0.37315 0.0
H1676 H 0.91438 0.51793 0.40561 0.0
H1677 H 0.8995 0.50096 0.43902 0.0
H1678 H 0.91118 0.50822 0.53167 0.0
H1679 H 0.94369 0.5021 0.56156 0.0
loop_
_geom_bond_atom_site_label_1
_geom_bond_atom_site_label_2
_geom_bond_distance
_geom_bond_site_symmetry_2
_ccdc_geom_bond_type
C0 C1 1.391 . S
C0 C4 1.391 . S
C0 H42 0.948 . S
C1 C0 1.391 . S
C1 C2 1.391 . S
C2 C1 1.391 . S
C2 H58 0.947 . S
C2 C59 1.392 . S
C3 C4 1.391 . S
C3 C7 1.397 . S
C3 C59 1.419 . S
C4 C0 1.391 . S
C4 C3 1.391 . S
C4 C5 1.399 . S
C5 C4 1.399 . S
C5 C8 1.396 . S
C5 C17 1.453 . S
C5 C18 1.684 . S
H6 C30 0.948 . S
C7 C3 1.397 . S
C7 C8 1.394 . S
C7 C26 1.723 . S
C8 C5 1.396 . S
C8 C7 1.394 . S
C8 C38 1.723 . S
H9 C32 0.947 . S
H10 C33 0.948 . S
H11 C39 0.982 . S
H12 C40 0.979 1_554 S
H13 C40 0.980 . S
H14 C40 0.983 . S
H15 C39 0.979 1_556 S
H16 C39 0.977 1_556 S
C17 C5 1.453 . S
C17 H46 0.982 . S
C17 H47 0.979 . S
C17 H48 0.977 . S
C18 C5 1.684 . S
C18 H43 0.979 . S
C18 H44 0.980 . S
C18 H45 0.983 . S
C19 C20 1.391 1_554 S
C19 C24 1.391 . S
C19 H49 0.948 . S
C20 C19 1.391 1_556 S
C20 C21 1.391 . S
C21 C20 1.391 . S
C21 C22 1.392 . S
C21 H50 0.947 . S
C22 C21 1.392 . S
C22 C23 1.419 1_556 S
C22 H51 0.948 . S
C23 C22 1.419 1_554 S
C23 C24 1.391 . S
C23 C27 1.397 . S
C24 C19 1.391 . S
C24 C23 1.391 . S
C24 C25 1.399 . S
C25 C24 1.399 . S
C25 C26 1.396 . S
C25 C28 1.453 . S
C25 C29 1.684 . S
C26 C7 1.723 . S
C26 C25 1.396 . S
C26 C27 1.394 . S
C27 C23 1.397 . S
C27 C26 1.394 . S
C27 C37 1.723 . S
C28 C25 1.453 . S
C28 H52 0.982 . S
C28 H53 0.979 . S
C28 H54 0.977 . S
C29 C25 1.684 . S
C29 H55 0.979 . S
C29 H56 0.980 . S
C29 H57 0.983 . S
C30 H6 0.948 . S
C30 C31 1.391 . S
C30 C35 1.391 . S
C31 C30 1.391 . S
C31 C32 1.391 . S
C32 H9 0.947 . S
C32 C31 1.391 . S
C32 C33 1.392 . S
C33 H10 0.948 . S
C33 C32 1.392 . S
C33 C34 1.419 . S
C34 C33 1.419 . S
C34 C35 1.391 . S
C34 C38 1.397 . S
C35 C30 1.391 . S
C35 C34 1.391 . S
C35 C36 1.399 . S
C36 C35 1.399 . S
C36 C37 1.396 . S
C36 C39 1.453 . S
C36 C40 1.684 1_554 S
C37 C27 1.723 . S
C37 C36 1.396 . S
C37 C38 1.394 . S
C38 C8 1.723 . S
C38 C34 1.397 . S
C38 C37 1.394 . S
C39 H11 0.982 . S
C39 H15 0.979 1_554 S
C39 H16 0.977 1_554 S
C39 C36 1.453 . S
C40 H12 0.979 1_556 S
C40 H13 0.980 . S
C40 H14 0.983 . S
C40 C36 1.684 1_556 S
H41 C59 0.948 . S
H42 C0 0.948 . S
H43 C18 0.979 . S
H44 C18 0.980 . S
H45 C18 0.983 . S
H46 C17 0.982 . S
H47 C17 0.979 . S
H48 C17 0.977 . S
H49 C19 0.948 . S
H50 C21 0.947 . S
H51 C22 0.948 . S
H52 C28 0.982 . S
H53 C28 0.979 . S
H54 C28 0.977 . S
H55 C29 0.979 . S
H56 C29 0.980 . S
H57 C29 0.983 . S
H58 C2 0.947 . S
C59 C2 1.392 . S
C59 C3 1.419 . S
C59 H41 0.948 . S
C60 C61 1.391 . S
C60 C64 1.391 1_556 S
C60 H102 0.948 . S
C61 C60 1.391 . S
C61 C62 1.391 1_556 S
C62 C61 1.391 1_554 S
C62 H118 0.947 . S
C62 C119 1.392 . S
C63 C64 1.391 . S
C63 C67 1.397 . S
C63 C119 1.419 . S
C64 C60 1.391 1_554 S
C64 C63 1.391 . S
C64 C65 1.399 . S
C65 C64 1.399 . S
C65 C68 1.396 . S
C65 C77 1.447 1_554 S
C65 C78 1.684 1_554 S
H66 C90 0.948 . S
C67 C63 1.397 . S
C67 C68 1.394 . S
C67 C86 1.723 . S
C68 C65 1.396 . S
C68 C67 1.394 . S
C68 C98 1.723 . S
H69 C92 0.947 . S
H70 C93 0.948 . S
H71 C99 0.982 . S
H72 C100 0.979 . S
H73 C100 0.980 . S
H74 C100 0.983 . S
H75 C99 0.979 . S
H76 C99 0.977 . S
C77 C65 1.447 1_556 S
C77 H106 0.977 1_556 S
C77 H107 0.992 . S
C77 H108 0.975 1_556 S
C78 C65 1.684 1_556 S
C78 H103 0.979 . S
C78 H104 0.980 . S
C78 H105 0.983 . S
C79 C80 1.391 . S
C79 C84 1.391 . S
C79 H109 0.948 . S
C80 C79 1.391 . S
C80 C81 1.391 . S
C81 C80 1.391 . S
C81 C82 1.392 . S
C81 H110 0.947 . S
C82 C81 1.392 . S
C82 C83 1.419 . S
C82 H111 0.948 . S
C83 C82 1.419 . S
C83 C84 1.391 . S
C83 C87 1.397 . S
C84 C79 1.391 . S
C84 C83 1.391 . S
C84 C85 1.399 . S
C85 C84 1.399 . S
C85 C86 1.396 . S
C85 C88 1.453 . S
C85 C89 1.684 . S
C86 C67 1.723 . S
C86 C85 1.396 . S
C86 C87 1.394 . S
C87 C83 1.397 . S
C87 C86 1.394 . S
C87 C97 1.723 . S
C88 C85 1.453 . S
C88 H112 0.982 . S
C88 H113 0.979 . S
C88 H114 0.977 . S
C89 C85 1.684 . S
C89 H115 0.979 . S
C89 H116 0.980 . S
C89 H117 0.983 . S
C90 H66 0.948 . S
C90 C91 1.391 . S
C90 C95 1.391 . S
C91 C90 1.391 . S
C91 C92 1.391 . S
C92 H69 0.947 . S
C92 C91 1.391 . S
C92 C93 1.392 . S
C93 H70 0.948 . S
C93 C92 1.392 . S
C93 C94 1.419 . S
C94 C93 1.419 . S
C94 C95 1.391 . S
C94 C98 1.397 . S
C95 C90 1.391 . S
C95 C94 1.391 . S
C95 C96 1.399 . S
C96 C95 1.399 . S
C96 C97 1.396 . S
C96 C99 1.453 . S
C96 C100 1.684 . S
C97 C87 1.723 . S
C97 C96 1.396 . S
C97 C98 1.394 . S
C98 C68 1.723 . S
C98 C94 1.397 . S
C98 C97 1.394 . S
C99 H71 0.982 . S
C99 H75 0.979 . S
C99 H76 0.977 . S
C99 C96 1.453 . S
C100 H72 0.979 . S
C100 H73 0.980 . S
C100 H74 0.983 . S
C100 C96 1.684 . S
H101 C119 0.948 . S
H102 C60 0.948 . S
H103 C78 0.979 . S
H104 C78 0.980 . S
H105 C78 0.983 . S
H106 C77 0.977 1_554 S
H107 C77 0.992 . S
H108 C77 0.975 1_554 S
H109 C79 0.948 . S
H110 C81 0.947 . S
H111 C82 0.948 . S
H112 C88 0.982 . S
H113 C88 0.979 . S
H114 C88 0.977 . S
H115 C89 0.979 . S
H116 C89 0.980 . S
H117 C89 0.983 . S
H118 C62 0.947 . S
C119 C62 1.392 . S
C119 C63 1.419 . S
C119 H101 0.948 . S
C120 C121 1.391 . S
C120 C124 1.391 . S
C120 H162 0.948 . S
C121 C120 1.391 . S
C121 C122 1.391 . S
C122 C121 1.391 . S
C122 H178 0.947 . S
C122 C179 1.392 . S
C123 C124 1.391 . S
C123 C127 1.397 . S
C123 C179 1.419 . S
C124 C120 1.391 . S
C124 C123 1.391 . S
C124 C125 1.399 . S
C125 C124 1.399 . S
C125 C128 1.396 . S
C125 C137 1.453 . S
C125 C138 1.684 . S
H126 C150 0.948 . S
C127 C123 1.397 . S
C127 C128 1.394 . S
C127 C146 1.723 . S
C128 C125 1.396 . S
C128 C127 1.394 . S
C128 C158 1.723 . S
H129 C152 0.947 . S
H130 C153 0.948 . S
H131 C159 0.982 . S
H132 C160 0.979 . S
H133 C160 0.980 . S
H134 C160 0.983 . S
H135 C159 0.979 . S
H136 C159 0.977 . S
C137 C125 1.453 . S
C137 H166 0.982 . S
C137 H167 0.979 . S
C137 H168 0.977 . S
C138 C125 1.684 . S
C138 H163 0.979 . S
C138 H164 0.980 . S
C138 H165 0.983 . S
C139 C140 1.391 . S
C139 C144 1.391 1_556 S
C139 H169 0.948 . S
C140 C139 1.391 . S
C140 C141 1.391 1_556 S
C141 C140 1.391 1_554 S
C141 C142 1.392 . S
C141 H170 0.947 . S
C142 C141 1.392 . S
C142 C143 1.419 . S
C142 H171 0.948 . S
C143 C142 1.419 . S
C143 C144 1.391 . S
C143 C147 1.397 . S
C144 C139 1.391 1_554 S
C144 C143 1.391 . S
C144 C145 1.399 . S
C145 C144 1.399 . S
C145 C146 1.396 . S
C145 C148 1.460 . S
C145 C149 1.684 1_554 S
C146 C127 1.723 . S
C146 C145 1.396 . S
C146 C147 1.394 . S
C147 C143 1.397 . S
C147 C146 1.394 . S
C147 C157 1.723 . S
C148 C145 1.460 . S
C148 H172 0.988 . S
C148 H173 0.965 1_554 S
C148 H174 0.979 . S
C149 C145 1.684 1_556 S
C149 H175 0.979 . S
C149 H176 0.980 . S
C149 H177 0.983 . S
C150 H126 0.948 . S
C150 C151 1.391 . S
C150 C155 1.391 . S
C151 C150 1.391 . S
C151 C152 1.391 . S
C152 H129 0.947 . S
C152 C151 1.391 . S
C152 C153 1.392 . S
C153 H130 0.948 . S
C153 C152 1.392 . S
C153 C154 1.419 . S
C154 C153 1.419 . S
C154 C155 1.391 . S
C154 C158 1.397 . S
C155 C150 1.391 . S
C155 C154 1.391 . S
C155 C156 1.399 . S
C156 C155 1.399 . S
C156 C157 1.396 . S
C156 C159 1.453 . S
C156 C160 1.684 . S
C157 C147 1.723 . S
C157 C156 1.396 . S
C157 C158 1.394 . S
C158 C128 1.723 . S
C158 C154 1.397 . S
C158 C157 1.394 . S
C159 H131 0.982 . S
C159 H135 0.979 . S
C159 H136 0.977 . S
C159 C156 1.453 . S
C160 H132 0.979 . S
C160 H133 0.980 . S
C160 H134 0.983 . S
C160 C156 1.684 . S
H161 C179 0.948 . S
H162 C120 0.948 . S
H163 C138 0.979 . S
H164 C138 0.980 . S
H165 C138 0.983 . S
H166 C137 0.982 . S
H167 C137 0.979 . S
H168 C137 0.977 . S
H169 C139 0.948 . S
H170 C141 0.947 . S
H171 C142 0.948 . S
H172 C148 0.988 . S
H173 C148 0.965 1_556 S
H174 C148 0.979 . S
H175 C149 0.979 . S
H176 C149 0.980 . S
H177 C149 0.983 . S
H178 C122 0.947 . S
C179 C122 1.392 . S
C179 C123 1.419 . S
C179 H161 0.948 . S
C180 C181 1.391 . S
C180 C184 1.391 . S
C180 H222 0.948 . S
C181 C180 1.391 . S
C181 C182 1.391 . S
C182 C181 1.391 . S
C182 H238 0.947 . S
C182 C239 1.392 . S
C183 C184 1.391 . S
C183 C187 1.397 . S
C183 C239 1.419 . S
C184 C180 1.391 . S
C184 C183 1.391 . S
C184 C185 1.399 . S
C185 C184 1.399 . S
C185 C188 1.396 . S
C185 C197 1.453 . S
C185 C198 1.684 . S
H186 C210 0.948 . S
C187 C183 1.397 . S
C187 C188 1.394 . S
C187 C206 1.723 . S
C188 C185 1.396 . S
C188 C187 1.394 . S
C188 C218 1.723 . S
H189 C212 0.947 . S
H190 C213 0.948 . S
H191 C219 0.982 . S
H192 C220 0.979 1_554 S
H193 C220 0.980 . S
H194 C220 0.983 . S
H195 C219 0.979 1_556 S
H196 C219 0.977 1_556 S
C197 C185 1.453 . S
C197 H226 0.982 . S
C197 H227 0.979 . S
C197 H228 0.977 . S
C198 C185 1.684 . S
C198 H223 0.979 . S
C198 H224 0.980 . S
C198 H225 0.983 . S
C199 C200 1.391 1_554 S
C199 C204 1.391 . S
C199 H229 0.948 . S
C200 C199 1.391 1_556 S
C200 C201 1.391 . S
C201 C200 1.391 . S
C201 C202 1.392 . S
C201 H230 0.947 . S
C202 C201 1.392 . S
C202 C203 1.419 1_556 S
C202 H231 0.948 . S
C203 C202 1.419 1_554 S
C203 C204 1.391 . S
C203 C207 1.397 . S
C204 C199 1.391 . S
C204 C203 1.391 . S
C204 C205 1.399 . S
C205 C204 1.399 . S
C205 C206 1.396 . S
C205 C208 1.453 . S
C205 C209 1.684 . S
C206 C187 1.723 . S
C206 C205 1.396 . S
C206 C207 1.394 . S
C207 C203 1.397 . S
C207 C206 1.394 . S
C207 C217 1.723 . S
C208 C205 1.453 . S
C208 H232 0.982 . S
C208 H233 0.979 . S
C208 H234 0.977 . S
C209 C205 1.684 . S
C209 H235 0.979 . S
C209 H236 0.980 . S
C209 H237 0.983 . S
C210 H186 0.948 . S
C210 C211 1.391 . S
C210 C215 1.391 . S
C211 C210 1.391 . S
C211 C212 1.391 . S
C212 H189 0.947 . S
C212 C211 1.391 . S
C212 C213 1.392 . S
C213 H190 0.948 . S
C213 C212 1.392 . S
C213 C214 1.419 . S
C214 C213 1.419 . S
C214 C215 1.391 . S
C214 C218 1.397 . S
C215 C210 1.391 . S
C215 C214 1.391 . S
C215 C216 1.399 . S
C216 C215 1.399 . S
C216 C217 1.396 . S
C216 C219 1.453 . S
C216 C220 1.684 1_554 S
C217 C207 1.723 . S
C217 C216 1.396 . S
C217 C218 1.394 . S
C218 C188 1.723 . S
C218 C214 1.397 . S
C218 C217 1.394 . S
C219 H191 0.982 . S
C219 H195 0.979 1_554 S
C219 H196 0.977 1_554 S
C219 C216 1.453 . S
C220 H192 0.979 1_556 S
C220 H193 0.980 . S
C220 H194 0.983 . S
C220 C216 1.684 1_556 S
H221 C239 0.948 . S
H222 C180 0.948 . S
H223 C198 0.979 . S
H224 C198 0.980 . S
H225 C198 0.983 . S
H226 C197 0.982 . S
H227 C197 0.979 . S
H228 C197 0.977 . S
H229 C199 0.948 . S
H230 C201 0.947 . S
H231 C202 0.948 . S
H232 C208 0.982 . S
H233 C208 0.979 . S
H234 C208 0.977 . S
H235 C209 0.979 . S
H236 C209 0.980 . S
H237 C209 0.983 . S
H238 C182 0.947 . S
C239 C182 1.392 . S
C239 C183 1.419 . S
C239 H221 0.948 . S
C240 C241 1.391 . S
C240 C244 1.391 . S
C240 H282 0.948 1_554 S
C241 C240 1.391 . S
C241 C242 1.391 . S
C242 C241 1.391 . S
C242 H298 0.947 . S
C242 C299 1.392 . S
C243 C244 1.391 . S
C243 C247 1.397 . S
C243 C299 1.419 . S
C244 C240 1.391 . S
C244 C243 1.391 . S
C244 C245 1.399 1_554 S
C245 C244 1.399 1_556 S
C245 C248 1.396 . S
C245 C257 1.453 . S
C245 C258 1.684 . S
H246 C270 0.948 . S
C247 C243 1.397 . S
C247 C248 1.394 1_554 S
C247 C266 1.723 . S
C248 C245 1.396 . S
C248 C247 1.394 1_556 S
C248 C278 1.723 . S
H249 C272 0.947 . S
H250 C273 0.948 . S
H251 C279 0.982 . S
H252 C280 0.979 . S
H253 C280 0.980 . S
H254 C280 0.983 . S
H255 C279 0.979 . S
H256 C279 0.977 . S
C257 C245 1.453 . S
C257 H286 0.982 . S
C257 H287 0.979 . S
C257 H288 0.977 . S
C258 C245 1.684 . S
C258 H283 0.979 . S
C258 H284 0.980 . S
C258 H285 0.983 . S
C259 C260 1.391 . S
C259 C264 1.391 . S
C259 H289 0.948 . S
C260 C259 1.391 . S
C260 C261 1.391 . S
C261 C260 1.391 . S
C261 C262 1.392 . S
C261 H290 0.947 . S
C262 C261 1.392 . S
C262 C263 1.419 . S
C262 H291 0.948 . S
C263 C262 1.419 . S
C263 C264 1.391 . S
C263 C267 1.397 . S
C264 C259 1.391 . S
C264 C263 1.391 . S
C264 C265 1.399 . S
C265 C264 1.399 . S
C265 C266 1.396 . S
C265 C268 1.453 . S
C265 C269 1.684 . S
C266 C247 1.723 . S
C266 C265 1.396 . S
C266 C267 1.394 . S
C267 C263 1.397 . S
C267 C266 1.394 . S
C267 C277 1.723 1_554 S
C268 C265 1.453 . S
C268 H292 0.982 . S
C268 H293 0.979 . S
C268 H294 0.977 . S
C269 C265 1.684 . S
C269 H295 0.979 . S
C269 H296 0.980 . S
C269 H297 0.983 . S
C270 H246 0.948 . S
C270 C271 1.391 . S
C270 C275 1.391 . S
C271 C270 1.391 . S
C271 C272 1.391 . S
C272 H249 0.947 . S
C272 C271 1.391 . S
C272 C273 1.392 . S
C273 H250 0.948 . S
C273 C272 1.392 . S
C273 C274 1.419 . S
C274 C273 1.419 . S
C274 C275 1.391 . S
C274 C278 1.397 . S
C275 C270 1.391 . S
C275 C274 1.391 . S
C275 C276 1.399 . S
C276 C275 1.399 . S
C276 C277 1.396 . S
C276 C279 1.453 . S
C276 C280 1.684 . S
C277 C267 1.723 1_556 S
C277 C276 1.396 . S
C277 C278 1.394 . S
C278 C248 1.723 . S
C278 C274 1.397 . S
C278 C277 1.394 . S
C279 H251 0.982 . S
C279 H255 0.979 . S
C279 H256 0.977 . S
C279 C276 1.453 . S
C280 H252 0.979 . S
C280 H253 0.980 . S
C280 H254 0.983 . S
C280 C276 1.684 . S
H281 C299 0.948 . S
H282 C240 0.948 1_556 S
H283 C258 0.979 . S
H284 C258 0.980 . S
H285 C258 0.983 . S
H286 C257 0.982 . S
H287 C257 0.979 . S
H288 C257 0.977 . S
H289 C259 0.948 . S
H290 C261 0.947 . S
H291 C262 0.948 . S
H292 C268 0.982 . S
H293 C268 0.979 . S
H294 C268 0.977 . S
H295 C269 0.979 . S
H296 C269 0.980 . S
H297 C269 0.983 . S
H298 C242 0.947 . S
C299 C242 1.392 . S
C299 C243 1.419 . S
C299 H281 0.948 . S
C300 C301 1.391 . S
C300 C304 1.391 . S
C300 H342 0.948 . S
C301 C300 1.391 . S
C301 C302 1.391 . S
C302 C301 1.391 . S
C302 H358 0.947 . S
C302 C359 1.392 . S
C303 C304 1.391 . S
C303 C307 1.397 . S
C303 C359 1.419 . S
C304 C300 1.391 . S
C304 C303 1.391 . S
C304 C305 1.399 . S
C305 C304 1.399 . S
C305 C308 1.396 . S
C305 C317 1.453 . S
C305 C318 1.684 . S
H306 C330 0.948 1_556 S
C307 C303 1.397 . S
C307 C308 1.394 . S
C307 C326 1.723 1_554 S
C308 C305 1.396 . S
C308 C307 1.394 . S
C308 C338 1.723 . S
H309 C332 0.947 . S
H310 C333 0.948 . S
H311 C339 0.982 . S
H312 C340 0.979 . S
H313 C340 0.980 . S
H314 C340 0.983 . S
H315 C339 0.979 . S
H316 C339 0.977 . S
C317 C305 1.453 . S
C317 H346 0.982 . S
C317 H347 0.979 . S
C317 H348 0.977 . S
C318 C305 1.684 . S
C318 H343 0.979 . S
C318 H344 0.980 . S
C318 H345 0.983 . S
C319 C320 1.391 . S
C319 C324 1.391 . S
C319 H349 0.948 . S
C320 C319 1.391 . S
C320 C321 1.391 . S
C321 C320 1.391 . S
C321 C322 1.392 . S
C321 H350 0.947 . S
C322 C321 1.392 . S
C322 C323 1.419 . S
C322 H351 0.948 . S
C323 C322 1.419 . S
C323 C324 1.391 . S
C323 C327 1.397 . S
C324 C319 1.391 . S
C324 C323 1.391 . S
C324 C325 1.399 . S
C325 C324 1.399 . S
C325 C326 1.396 . S
C325 C328 1.453 . S
C325 C329 1.684 . S
C326 C307 1.723 1_556 S
C326 C325 1.396 . S
C326 C327 1.394 . S
C327 C323 1.397 . S
C327 C326 1.394 . S
C327 C337 1.723 . S
C328 C325 1.453 . S
C328 H352 0.982 . S
C328 H353 0.979 . S
C328 H354 0.977 . S
C329 C325 1.684 . S
C329 H355 0.979 . S
C329 H356 0.980 . S
C329 H357 0.983 . S
C330 H306 0.948 1_554 S
C330 C331 1.391 . S
C330 C335 1.391 . S
C331 C330 1.391 . S
C331 C332 1.391 . S
C332 H309 0.947 . S
C332 C331 1.391 . S
C332 C333 1.392 . S
C333 H310 0.948 . S
C333 C332 1.392 . S
C333 C334 1.419 . S
C334 C333 1.419 . S
C334 C335 1.391 . S
C334 C338 1.397 . S
C335 C330 1.391 . S
C335 C334 1.391 . S
C335 C336 1.399 1_554 S
C336 C335 1.399 1_556 S
C336 C337 1.396 . S
C336 C339 1.453 . S
C336 C340 1.684 . S
C337 C327 1.723 . S
C337 C336 1.396 . S
C337 C338 1.394 1_556 S
C338 C308 1.723 . S
C338 C334 1.397 . S
C338 C337 1.394 1_554 S
C339 H311 0.982 . S
C339 H315 0.979 . S
C339 H316 0.977 . S
C339 C336 1.453 . S
C340 H312 0.979 . S
C340 H313 0.980 . S
C340 H314 0.983 . S
C340 C336 1.684 . S
H341 C359 0.948 . S
H342 C300 0.948 . S
H343 C318 0.979 . S
H344 C318 0.980 . S
H345 C318 0.983 . S
H346 C317 0.982 . S
H347 C317 0.979 . S
H348 C317 0.977 . S
H349 C319 0.948 . S
H350 C321 0.947 . S
H351 C322 0.948 . S
H352 C328 0.982 . S
H353 C328 0.979 . S
H354 C328 0.977 . S
H355 C329 0.979 . S
H356 C329 0.980 . S
H357 C329 0.983 . S
H358 C302 0.947 . S
C359 C302 1.392 . S
C359 C303 1.419 . S
C359 H341 0.948 . S
C360 C361 1.391 . S
C360 C364 1.391 . S
C360 H402 0.948 . S
C361 C360 1.391 . S
C361 C362 1.391 . S
C362 C361 1.391 . S
C362 H418 0.947 . S
C362 C419 1.392 . S
C363 C364 1.391 . S
C363 C367 1.397 . S
C363 C419 1.419 . S
C364 C360 1.391 . S
C364 C363 1.391 . S
C364 C365 1.399 . S
C365 C364 1.399 . S
C365 C368 1.396 . S
C365 C377 1.453 . S
C365 C378 1.684 . S
H366 C390 0.948 . S
C367 C363 1.397 . S
C367 C368 1.394 . S
C367 C386 1.723 1_556 S
C368 C365 1.396 . S
C368 C367 1.394 . S
C368 C398 1.723 1_556 S
H369 C392 0.947 . S
H370 C393 0.948 . S
H371 C399 0.982 . S
H372 C400 0.979 . S
H373 C400 0.980 . S
H374 C400 0.983 . S
H375 C399 0.979 . S
H376 C399 0.977 . S
C377 C365 1.453 . S
C377 H406 0.982 . S
C377 H407 0.979 . S
C377 H408 0.977 . S
C378 C365 1.684 . S
C378 H403 0.979 . S
C378 H404 0.980 . S
C378 H405 0.983 . S
C379 C380 1.391 . S
C379 C384 1.391 . S
C379 H409 0.948 . S
C380 C379 1.391 . S
C380 C381 1.391 . S
C381 C380 1.391 . S
C381 C382 1.392 . S
C381 H410 0.947 . S
C382 C381 1.392 . S
C382 C383 1.419 . S
C382 H411 0.948 . S
C383 C382 1.419 . S
C383 C384 1.391 . S
C383 C387 1.397 . S
C384 C379 1.391 . S
C384 C383 1.391 . S
C384 C385 1.399 . S
C385 C384 1.399 . S
C385 C386 1.396 . S
C385 C388 1.453 . S
C385 C389 1.681 1_554 S
C386 C367 1.723 1_554 S
C386 C385 1.396 . S
C386 C387 1.394 . S
C387 C383 1.397 . S
C387 C386 1.394 . S
C387 C397 1.723 . S
C388 C385 1.453 . S
C388 H412 0.982 . S
C388 H413 0.979 . S
C388 H414 0.977 1_554 S
C389 C385 1.681 1_556 S
C389 H415 0.978 1_556 S
C389 H416 0.986 . S
C389 H417 0.981 1_556 S
C390 H366 0.948 . S
C390 C391 1.391 . S
C390 C395 1.391 . S
C391 C390 1.391 . S
C391 C392 1.391 1_554 S
C392 H369 0.947 . S
C392 C391 1.391 1_556 S
C392 C393 1.392 . S
C393 H370 0.948 . S
C393 C392 1.392 . S
C393 C394 1.419 1_556 S
C394 C393 1.419 1_554 S
C394 C395 1.391 . S
C394 C398 1.397 . S
C395 C390 1.391 . S
C395 C394 1.391 . S
C395 C396 1.399 . S
C396 C395 1.399 . S
C396 C397 1.396 . S
C396 C399 1.453 . S
C396 C400 1.684 . S
C397 C387 1.723 . S
C397 C396 1.396 . S
C397 C398 1.394 . S
C398 C368 1.723 1_554 S
C398 C394 1.397 . S
C398 C397 1.394 . S
C399 H371 0.982 . S
C399 H375 0.979 . S
C399 H376 0.977 . S
C399 C396 1.453 . S
C400 H372 0.979 . S
C400 H373 0.980 . S
C400 H374 0.983 . S
C400 C396 1.684 . S
H401 C419 0.948 . S
H402 C360 0.948 . S
H403 C378 0.979 . S
H404 C378 0.980 . S
H405 C378 0.983 . S
H406 C377 0.982 . S
H407 C377 0.979 . S
H408 C377 0.977 . S
H409 C379 0.948 . S
H410 C381 0.947 . S
H411 C382 0.948 . S
H412 C388 0.982 . S
H413 C388 0.979 . S
H414 C388 0.977 1_556 S
H415 C389 0.978 1_554 S
H416 C389 0.986 . S
H417 C389 0.981 1_554 S
H418 C362 0.947 . S
C419 C362 1.392 . S
C419 C363 1.419 . S
C419 H401 0.948 . S
C420 C421 1.391 . S
C420 C424 1.391 . S
C420 H462 0.948 . S
C421 C420 1.391 . S
C421 C422 1.391 . S
C422 C421 1.391 . S
C422 H478 0.947 . S
C422 C479 1.392 . S
C423 C424 1.391 . S
C423 C427 1.397 . S
C423 C479 1.419 . S
C424 C420 1.391 . S
C424 C423 1.391 . S
C424 C425 1.399 . S
C425 C424 1.399 . S
C425 C428 1.396 . S
C425 C437 1.453 . S
C425 C438 1.684 . S
H426 C450 0.948 . S
C427 C423 1.397 . S
C427 C428 1.394 . S
C427 C446 1.723 1_556 S
C428 C425 1.396 . S
C428 C427 1.394 . S
C428 C458 1.723 1_556 S
H429 C452 0.947 1_556 S
H430 C453 0.948 . S
H431 C459 0.982 . S
H432 C460 0.979 . S
H433 C460 0.980 . S
H434 C460 0.983 . S
H435 C459 0.979 . S
H436 C459 0.977 . S
C437 C425 1.453 . S
C437 H466 0.982 . S
C437 H467 0.979 . S
C437 H468 0.977 . S
C438 C425 1.684 . S
C438 H463 0.979 . S
C438 H464 0.980 . S
C438 H465 0.983 . S
C439 C440 1.391 . S
C439 C444 1.391 . S
C439 H469 0.948 . S
C440 C439 1.391 . S
C440 C441 1.391 . S
C441 C440 1.391 . S
C441 C442 1.392 . S
C441 H470 0.947 . S
C442 C441 1.392 . S
C442 C443 1.419 . S
C442 H471 0.948 . S
C443 C442 1.419 . S
C443 C444 1.391 . S
C443 C447 1.397 . S
C444 C439 1.391 . S
C444 C443 1.391 . S
C444 C445 1.399 . S
C445 C444 1.399 . S
C445 C446 1.396 . S
C445 C448 1.453 . S
C445 C449 1.684 . S
C446 C427 1.723 1_554 S
C446 C445 1.396 . S
C446 C447 1.394 . S
C447 C443 1.397 . S
C447 C446 1.394 . S
C447 C457 1.723 . S
C448 C445 1.453 . S
C448 H472 0.982 . S
C448 H473 0.979 . S
C448 H474 0.977 1_554 S
C449 C445 1.684 . S
C449 H475 0.979 . S
C449 H476 0.980 1_554 S
C449 H477 0.983 . S
C450 H426 0.948 . S
C450 C451 1.391 . S
C450 C455 1.391 . S
C451 C450 1.391 . S
C451 C452 1.391 . S
C452 H429 0.947 1_554 S
C452 C451 1.391 . S
C452 C453 1.392 1_554 S
C453 H430 0.948 . S
C453 C452 1.392 1_556 S
C453 C454 1.419 1_556 S
C454 C453 1.419 1_554 S
C454 C455 1.391 . S
C454 C458 1.397 . S
C455 C450 1.391 . S
C455 C454 1.391 . S
C455 C456 1.399 . S
C456 C455 1.399 . S
C456 C457 1.396 . S
C456 C459 1.453 . S
C456 C460 1.684 . S
C457 C447 1.723 . S
C457 C456 1.396 . S
C457 C458 1.394 . S
C458 C428 1.723 1_554 S
C458 C454 1.397 . S
C458 C457 1.394 . S
C459 H431 0.982 . S
C459 H435 0.979 . S
C459 H436 0.977 . S
C459 C456 1.453 . S
C460 H432 0.979 . S
C460 H433 0.980 . S
C460 H434 0.983 . S
C460 C456 1.684 . S
H461 C479 0.948 . S
H462 C420 0.948 . S
H463 C438 0.979 . S
H464 C438 0.980 . S
H465 C438 0.983 . S
H466 C437 0.982 . S
H467 C437 0.979 . S
H468 C437 0.977 . S
H469 C439 0.948 . S
H470 C441 0.947 . S
H471 C442 0.948 . S
H472 C448 0.982 . S
H473 C448 0.979 . S
H474 C448 0.977 1_556 S
H475 C449 0.979 . S
H476 C449 0.980 1_556 S
H477 C449 0.983 . S
H478 C422 0.947 . S
C479 C422 1.392 . S
C479 C423 1.419 . S
C479 H461 0.948 . S
Gd480 N511 2.661 . S
Gd480 N517 2.601 . S
Gd480 O524 2.545 . S
Gd480 O525 2.606 1_655 S
Gd480 O527 2.429 . S
Gd480 O528 2.545 1_655 S
Gd480 O529 2.412 . S
Gd480 O531 2.362 1_545 S
Gd480 O532 2.324 1_655 S
Gd480 C539 2.828 . S
Gd481 N490 2.661 1_565 S
Gd481 N494 2.601 . S
Gd481 O525 2.362 1_565 S
Gd481 O526 2.324 1_455 S
Gd481 O530 2.545 . S
Gd481 O531 2.606 1_455 S
Gd481 O533 2.429 . S
Gd481 O534 2.545 . S
Gd481 O535 2.412 . S
Gd481 C548 2.828 . S
C482 C485 1.417 . S
C482 C487 1.431 . S
C482 C488 1.412 . S
C483 C486 1.437 . S
C483 C487 1.317 . S
C483 H502 0.929 . S
C484 C485 1.426 . S
C484 C486 1.413 . S
C484 N494 1.359 1_545 S
C485 C482 1.417 . S
C485 C484 1.426 . S
C485 N490 1.350 . S
C486 C483 1.437 . S
C486 C484 1.413 . S
C486 C496 1.391 1_545 S
C487 C482 1.431 . S
C487 C483 1.317 . S
C487 H498 0.930 . S
C488 C482 1.412 . S
C488 C489 1.355 . S
C488 H500 0.930 . S
C489 C488 1.355 . S
C489 C491 1.402 . S
C489 H501 0.930 1_455 S
N490 Gd481 2.661 1_545 S
N490 C485 1.350 . S
N490 C491 1.307 . S
C491 C489 1.402 . S
C491 N490 1.307 . S
C491 H492 0.930 1_455 S
H492 C491 0.930 1_655 S
C493 N494 1.334 . S
C493 C495 1.394 . S
C493 H497 0.930 . S
N494 Gd481 2.601 . S
N494 C484 1.359 1_565 S
N494 C493 1.334 . S
C495 C493 1.394 . S
C495 C496 1.359 . S
C495 H507 0.930 . S
C496 C486 1.391 1_565 S
C496 C495 1.359 . S
C496 H508 0.929 . S
H497 C493 0.930 . S
H498 C487 0.930 . S
H499 C516 0.930 . S
H500 C488 0.930 . S
H501 C489 0.930 1_655 S
H502 C483 0.929 . S
H503 C521 0.930 . S
H504 C512 0.930 . S
H505 C513 0.930 . S
H506 C537 0.929 . S
H507 C495 0.930 . S
H508 C496 0.929 . S
H509 C538 0.930 . S
H510 C519 0.930 . S
N511 Gd480 2.661 . S
N511 C515 1.346 1_545 S
N511 C516 1.307 1_645 S
C512 H504 0.930 . S
C512 C513 1.355 1_655 S
C512 C514 1.412 . S
C513 H505 0.930 . S
C513 C512 1.355 1_455 S
C513 C516 1.402 . S
C514 C512 1.412 . S
C514 C515 1.433 . S
C514 C538 1.431 . S
C515 N511 1.346 1_565 S
C515 C514 1.433 . S
C515 C518 1.415 1_565 S
C516 H499 0.930 . S
C516 N511 1.307 1_465 S
C516 C513 1.402 . S
N517 Gd480 2.601 . S
N517 C518 1.359 . S
N517 C521 1.334 . S
C518 C515 1.415 1_545 S
C518 N517 1.359 . S
C518 C522 1.413 . S
C519 H510 0.930 . S
C519 C520 1.359 . S
C519 C521 1.394 . S
C520 C519 1.359 . S
C520 C522 1.391 . S
C520 H523 0.929 . S
C521 H503 0.930 . S
C521 N517 1.334 . S
C521 C519 1.394 . S
C522 C518 1.413 . S
C522 C520 1.391 . S
C522 C537 1.437 1_545 S
H523 C520 0.929 . S
O524 Gd480 2.545 . S
O524 C539 1.258 . S
O525 Gd480 2.606 1_455 S
O525 Gd481 2.362 1_545 S
O525 C536 1.284 . S
O526 Gd481 2.324 1_655 S
O526 C546 1.254 1_565 S
O527 Gd480 2.429 . S
O527 C546 1.268 . S
O528 Gd480 2.545 1_455 S
O528 C536 1.250 . S
O529 Gd480 2.412 . S
O529 C539 1.252 . S
O530 Gd481 2.545 . S
O530 C548 1.258 . S
O531 Gd480 2.362 1_565 S
O531 Gd481 2.606 1_655 S
O531 C547 1.284 . S
O532 Gd480 2.324 1_455 S
O532 C555 1.254 . S
O533 Gd481 2.429 . S
O533 C555 1.268 1_565 S
O534 Gd481 2.545 . S
O534 C547 1.250 1_455 S
O535 Gd481 2.412 . S
O535 C548 1.252 . S
C536 O525 1.284 . S
C536 O528 1.250 . S
C537 H506 0.929 . S
C537 C522 1.437 1_565 S
C537 C538 1.317 . S
C538 H509 0.930 . S
C538 C514 1.431 . S
C538 C537 1.317 . S
C539 Gd480 2.828 . S
C539 O524 1.258 . S
C539 O529 1.252 . S
C539 C540 1.497 . S
C540 C539 1.497 . S
C540 C541 1.395 . S
C540 C542 1.380 . S
C541 C540 1.395 . S
C541 C544 1.398 . S
C541 H556 0.930 . S
C542 C540 1.380 . S
C542 C543 1.391 . S
C542 H557 0.930 1_655 S
C543 C542 1.391 . S
C543 C545 1.387 . S
C544 C541 1.398 . S
C544 C545 1.380 . S
C544 H558 0.930 . S
C545 C543 1.387 . S
C545 C544 1.380 . S
C545 H559 0.930 . S
C546 O526 1.254 1_545 S
C546 O527 1.268 . S
C547 O531 1.284 . S
C547 O534 1.250 1_655 S
C548 Gd481 2.828 . S
C548 O530 1.258 . S
C548 O535 1.252 . S
C548 C549 1.497 . S
C549 C548 1.497 . S
C549 C550 1.395 . S
C549 C551 1.380 . S
C550 C549 1.395 . S
C550 C553 1.398 . S
C550 H560 0.930 . S
C551 C549 1.380 . S
C551 C552 1.391 . S
C551 H561 0.930 1_455 S
C552 C551 1.391 . S
C552 C554 1.387 . S
C553 C550 1.398 . S
C553 C554 1.380 . S
C553 H562 0.930 . S
C554 C552 1.387 . S
C554 C553 1.380 . S
C554 H563 0.930 . S
C555 O532 1.254 . S
C555 O533 1.268 1_545 S
H556 C541 0.930 . S
H557 C542 0.930 1_455 S
H558 C544 0.930 . S
H559 C545 0.930 . S
H560 C550 0.930 . S
H561 C551 0.930 1_655 S
H562 C553 0.930 . S
H563 C554 0.930 . S
Gd564 N595 2.661 . S
Gd564 N601 2.601 . S
Gd564 O608 2.545 . S
Gd564 O609 2.606 1_565 S
Gd564 O611 2.429 . S
Gd564 O612 2.545 1_565 S
Gd564 O613 2.412 . S
Gd564 O615 2.362 . S
Gd564 O616 2.324 1_565 S
Gd564 C623 2.828 . S
Gd565 N574 2.661 . S
Gd565 N578 2.601 . S
Gd565 O609 2.362 . S
Gd565 O610 2.324 1_545 S
Gd565 O614 2.545 . S
Gd565 O615 2.606 1_545 S
Gd565 O617 2.429 . S
Gd565 O618 2.545 . S
Gd565 O619 2.412 . S
Gd565 C632 2.828 . S
C566 C569 1.417 . S
C566 C571 1.431 . S
C566 C572 1.412 . S
C567 C570 1.437 . S
C567 C571 1.317 . S
C567 H586 0.929 . S
C568 C569 1.426 . S
C568 C570 1.413 . S
C568 N578 1.359 . S
C569 C566 1.417 . S
C569 C568 1.426 . S
C569 N574 1.350 . S
C570 C567 1.437 . S
C570 C568 1.413 . S
C570 C580 1.391 . S
C571 C566 1.431 . S
C571 C567 1.317 . S
C571 H582 0.930 . S
C572 C566 1.412 . S
C572 C573 1.355 . S
C572 H584 0.930 . S
C573 C572 1.355 . S
C573 C575 1.402 . S
C573 H585 0.930 1_545 S
N574 Gd565 2.661 . S
N574 C569 1.350 . S
N574 C575 1.307 . S
C575 C573 1.402 . S
C575 N574 1.307 . S
C575 H576 0.930 1_545 S
H576 C575 0.930 1_565 S
C577 N578 1.334 . S
C577 C579 1.394 . S
C577 H581 0.930 . S
N578 Gd565 2.601 . S
N578 C568 1.359 . S
N578 C577 1.334 . S
C579 C577 1.394 . S
C579 C580 1.359 . S
C579 H591 0.930 . S
C580 C570 1.391 . S
C580 C579 1.359 . S
C580 H592 0.929 . S
H581 C577 0.930 . S
H582 C571 0.930 . S
H583 C600 0.930 . S
H584 C572 0.930 . S
H585 C573 0.930 1_565 S
H586 C567 0.929 . S
H587 C605 0.930 . S
H588 C596 0.930 . S
H589 C597 0.930 . S
H590 C621 0.929 . S
H591 C579 0.930 . S
H592 C580 0.929 . S
H593 C622 0.930 . S
H594 C603 0.930 . S
N595 Gd564 2.661 . S
N595 C599 1.350 . S
N595 C600 1.307 1_565 S
C596 H588 0.930 . S
C596 C597 1.355 1_565 S
C596 C598 1.412 . S
C597 H589 0.930 . S
C597 C596 1.355 1_545 S
C597 C600 1.402 . S
C598 C596 1.412 . S
C598 C599 1.417 . S
C598 C622 1.431 . S
C599 N595 1.350 . S
C599 C598 1.417 . S
C599 C602 1.426 . S
C600 H583 0.930 . S
C600 N595 1.307 1_545 S
C600 C597 1.402 . S
N601 Gd564 2.601 . S
N601 C602 1.359 . S
N601 C605 1.334 . S
C602 C599 1.426 . S
C602 N601 1.359 . S
C602 C606 1.413 . S
C603 H594 0.930 . S
C603 C604 1.359 . S
C603 C605 1.394 . S
C604 C603 1.359 . S
C604 C606 1.391 . S
C604 H607 0.929 . S
C605 H587 0.930 . S
C605 N601 1.334 . S
C605 C603 1.394 . S
C606 C602 1.413 . S
C606 C604 1.391 . S
C606 C621 1.437 . S
H607 C604 0.929 . S
O608 Gd564 2.545 . S
O608 C623 1.258 . S
O609 Gd564 2.606 1_545 S
O609 Gd565 2.362 . S
O609 C620 1.284 . S
O610 Gd565 2.324 1_565 S
O610 C630 1.254 . S
O611 Gd564 2.429 . S
O611 C630 1.268 . S
O612 Gd564 2.545 1_545 S
O612 C620 1.250 . S
O613 Gd564 2.412 . S
O613 C623 1.252 . S
O614 Gd565 2.545 . S
O614 C632 1.258 . S
O615 Gd564 2.362 . S
O615 Gd565 2.606 1_565 S
O615 C631 1.284 . S
O616 Gd564 2.324 1_545 S
O616 C639 1.254 . S
O617 Gd565 2.429 . S
O617 C639 1.268 . S
O618 Gd565 2.545 . S
O618 C631 1.250 1_545 S
O619 Gd565 2.412 . S
O619 C632 1.252 . S
C620 O609 1.284 . S
C620 O612 1.250 . S
C621 H590 0.929 . S
C621 C606 1.437 . S
C621 C622 1.317 . S
C622 H593 0.930 . S
C622 C598 1.431 . S
C622 C621 1.317 . S
C623 Gd564 2.828 . S
C623 O608 1.258 . S
C623 O613 1.252 . S
C623 C624 1.497 . S
C624 C623 1.497 . S
C624 C625 1.395 . S
C624 C626 1.429 . S
C625 C624 1.395 . S
C625 C628 1.398 . S
C625 H640 0.930 . S
C626 C624 1.429 . S
C626 C627 1.396 . S
C626 H641 0.878 1_565 S
C627 C626 1.396 . S
C627 C629 1.387 . S
C628 C625 1.398 . S
C628 C629 1.380 . S
C628 H642 0.930 . S
C629 C627 1.387 . S
C629 C628 1.380 . S
C629 H643 0.930 . S
C630 O610 1.254 . S
C630 O611 1.268 . S
C631 O615 1.284 . S
C631 O618 1.250 1_565 S
C632 Gd565 2.828 . S
C632 O614 1.258 . S
C632 O619 1.252 . S
C632 C633 1.497 . S
C633 C632 1.497 . S
C633 C634 1.395 . S
C633 C635 1.380 . S
C634 C633 1.395 . S
C634 C637 1.398 . S
C634 H644 0.930 . S
C635 C633 1.380 . S
C635 C636 1.391 . S
C635 H645 0.935 . S
C636 C635 1.391 . S
C636 C638 1.387 . S
C637 C634 1.398 . S
C637 C638 1.380 . S
C637 H646 0.930 . S
C638 C636 1.387 . S
C638 C637 1.380 . S
C638 H647 0.930 . S
C639 O616 1.254 . S
C639 O617 1.268 . S
H640 C625 0.930 . S
H641 C626 0.878 1_545 S
H642 C628 0.930 . S
H643 C629 0.930 . S
H644 C634 0.930 . S
H645 C635 0.935 . S
H646 C637 0.930 . S
H647 C638 0.930 . S
Gd648 N679 2.661 . S
Gd648 N685 2.601 . S
Gd648 O692 2.545 . S
Gd648 O693 2.606 . S
Gd648 O695 2.429 . S
Gd648 O696 2.545 . S
Gd648 O697 2.412 . S
Gd648 O699 2.362 . S
Gd648 O700 2.324 . S
Gd648 C707 2.828 . S
Gd649 N658 2.661 . S
Gd649 N662 2.601 . S
Gd649 O693 2.362 . S
Gd649 O694 2.324 . S
Gd649 O698 2.545 . S
Gd649 O699 2.606 . S
Gd649 O701 2.429 . S
Gd649 O702 2.545 . S
Gd649 O703 2.412 . S
Gd649 C716 2.828 . S
C650 C653 1.417 . S
C650 C655 1.431 . S
C650 C656 1.412 . S
C651 C654 1.437 . S
C651 C655 1.317 . S
C651 H670 0.929 . S
C652 C653 1.426 . S
C652 C654 1.413 . S
C652 N662 1.359 . S
C653 C650 1.417 . S
C653 C652 1.426 . S
C653 N658 1.350 . S
C654 C651 1.437 . S
C654 C652 1.413 . S
C654 C664 1.391 . S
C655 C650 1.431 . S
C655 C651 1.317 . S
C655 H666 0.930 . S
C656 C650 1.412 . S
C656 C657 1.355 . S
C656 H668 0.930 . S
C657 C656 1.355 . S
C657 C659 1.402 . S
C657 H669 0.930 . S
N658 Gd649 2.661 . S
N658 C653 1.350 . S
N658 C659 1.307 . S
C659 C657 1.402 . S
C659 N658 1.307 . S
C659 H660 0.930 . S
H660 C659 0.930 . S
C661 N662 1.334 . S
C661 C663 1.394 . S
C661 H665 0.930 . S
N662 Gd649 2.601 . S
N662 C652 1.359 . S
N662 C661 1.334 . S
C663 C661 1.394 . S
C663 C664 1.359 . S
C663 H675 0.930 . S
C664 C654 1.391 . S
C664 C663 1.359 . S
C664 H676 0.929 . S
H665 C661 0.930 . S
H666 C655 0.930 . S
H667 C684 0.930 . S
H668 C656 0.930 . S
H669 C657 0.930 . S
H670 C651 0.929 . S
H671 C689 0.930 . S
H672 C680 0.930 . S
H673 C681 0.930 . S
H674 C705 0.929 . S
H675 C663 0.930 . S
H676 C664 0.929 . S
H677 C706 0.930 . S
H678 C687 0.930 . S
N679 Gd648 2.661 . S
N679 C683 1.350 . S
N679 C684 1.307 . S
C680 H672 0.930 . S
C680 C681 1.355 . S
C680 C682 1.412 . S
C681 H673 0.930 . S
C681 C680 1.355 . S
C681 C684 1.402 . S
C682 C680 1.412 . S
C682 C683 1.417 . S
C682 C706 1.431 . S
C683 N679 1.350 . S
C683 C682 1.417 . S
C683 C686 1.426 . S
C684 H667 0.930 . S
C684 N679 1.307 . S
C684 C681 1.402 . S
N685 Gd648 2.601 . S
N685 C686 1.359 . S
N685 C689 1.334 . S
C686 C683 1.426 . S
C686 N685 1.359 . S
C686 C690 1.413 . S
C687 H678 0.930 . S
C687 C688 1.359 . S
C687 C689 1.394 . S
C688 C687 1.359 . S
C688 C690 1.391 . S
C688 H691 0.929 . S
C689 H671 0.930 . S
C689 N685 1.334 . S
C689 C687 1.394 . S
C690 C686 1.413 . S
C690 C688 1.391 . S
C690 C705 1.437 . S
H691 C688 0.929 . S
O692 Gd648 2.545 . S
O692 C707 1.258 . S
O693 Gd648 2.606 . S
O693 Gd649 2.362 . S
O693 C704 1.284 . S
O694 Gd649 2.324 . S
O694 C714 1.254 . S
O695 Gd648 2.429 . S
O695 C714 1.268 . S
O696 Gd648 2.545 . S
O696 C704 1.250 . S
O697 Gd648 2.412 . S
O697 C707 1.252 . S
O698 Gd649 2.545 . S
O698 C716 1.258 . S
O699 Gd648 2.362 . S
O699 Gd649 2.606 . S
O699 C715 1.284 . S
O700 Gd648 2.324 . S
O700 C723 1.254 . S
O701 Gd649 2.429 . S
O701 C723 1.268 . S
O702 Gd649 2.545 . S
O702 C715 1.250 . S
O703 Gd649 2.412 . S
O703 C716 1.252 . S
C704 O693 1.284 . S
C704 O696 1.250 . S
C705 H674 0.929 . S
C705 C690 1.437 . S
C705 C706 1.317 . S
C706 H677 0.930 . S
C706 C682 1.431 . S
C706 C705 1.317 . S
C707 Gd648 2.828 . S
C707 O692 1.258 . S
C707 O697 1.252 . S
C707 C708 1.497 . S
C708 C707 1.497 . S
C708 C709 1.395 . S
C708 C710 1.380 . S
C709 C708 1.395 . S
C709 C712 1.398 . S
C709 H724 0.930 . S
C710 C708 1.380 . S
C710 C711 1.391 . S
C710 H725 0.930 . S
C711 C710 1.391 . S
C711 C713 1.387 . S
C712 C709 1.398 . S
C712 C713 1.380 . S
C712 H726 0.930 . S
C713 C711 1.387 . S
C713 C712 1.380 . S
C713 H727 0.930 . S
C714 O694 1.254 . S
C714 O695 1.268 . S
C715 O699 1.284 . S
C715 O702 1.250 . S
C716 Gd649 2.828 . S
C716 O698 1.258 . S
C716 O703 1.252 . S
C716 C717 1.497 . S
C717 C716 1.497 . S
C717 C718 1.395 . S
C717 C719 1.380 . S
C718 C717 1.395 . S
C718 C721 1.398 . S
C718 H728 0.930 . S
C719 C717 1.380 . S
C719 C720 1.391 . S
C719 H729 0.930 . S
C720 C719 1.391 . S
C720 C722 1.387 . S
C721 C718 1.398 . S
C721 C722 1.380 . S
C721 H730 0.930 . S
C722 C720 1.387 . S
C722 C721 1.380 . S
C722 H731 0.930 . S
C723 O700 1.254 . S
C723 O701 1.268 . S
H724 C709 0.930 . S
H725 C710 0.930 . S
H726 C712 0.930 . S
H727 C713 0.930 . S
H728 C718 0.930 . S
H729 C719 0.930 . S
H730 C721 0.930 . S
H731 C722 0.930 . S
Gd732 N763 2.661 . S
Gd732 N769 2.601 . S
Gd732 O776 2.545 . S
Gd732 O777 2.587 1_655 S
Gd732 O779 2.429 1_655 S
Gd732 O780 2.545 . S
Gd732 O781 2.412 . S
Gd732 O783 2.362 1_655 S
Gd732 O784 2.324 . S
Gd732 C791 2.828 . S
Gd733 N742 2.661 . S
Gd733 N746 2.601 . S
Gd733 O777 2.394 . S
Gd733 O778 2.324 . S
Gd733 O782 2.545 . S
Gd733 O783 2.606 . S
Gd733 O785 2.429 1_455 S
Gd733 O786 2.545 . S
Gd733 O787 2.412 . S
Gd733 C800 2.828 . S
C734 C737 1.417 . S
C734 C739 1.431 . S
C734 C740 1.412 . S
C735 C738 1.437 . S
C735 C739 1.317 . S
C735 H754 0.929 . S
C736 C737 1.426 . S
C736 C738 1.413 . S
C736 N746 1.359 . S
C737 C734 1.417 . S
C737 C736 1.426 . S
C737 N742 1.350 . S
C738 C735 1.437 . S
C738 C736 1.413 . S
C738 C748 1.391 . S
C739 C734 1.431 . S
C739 C735 1.317 . S
C739 H750 0.930 . S
C740 C734 1.412 . S
C740 C741 1.355 . S
C740 H752 0.930 . S
C741 C740 1.355 . S
C741 C743 1.402 . S
C741 H753 0.930 . S
N742 Gd733 2.661 . S
N742 C737 1.350 . S
N742 C743 1.307 . S
C743 C741 1.402 . S
C743 N742 1.307 . S
C743 H744 0.930 . S
H744 C743 0.930 . S
C745 N746 1.334 . S
C745 C747 1.394 . S
C745 H749 0.930 1_455 S
N746 Gd733 2.601 . S
N746 C736 1.359 . S
N746 C745 1.334 . S
C747 C745 1.394 . S
C747 C748 1.359 . S
C747 H759 0.930 1_455 S
C748 C738 1.391 . S
C748 C747 1.359 . S
C748 H760 0.929 . S
H749 C745 0.930 1_655 S
H750 C739 0.930 . S
H751 C768 0.930 . S
H752 C740 0.930 . S
H753 C741 0.930 . S
H754 C735 0.929 . S
H755 C773 0.930 . S
H756 C764 0.930 . S
H757 C765 0.930 . S
H758 C789 0.929 . S
H759 C747 0.930 1_655 S
H760 C748 0.929 . S
H761 C790 0.930 . S
H762 C771 0.930 . S
N763 Gd732 2.661 . S
N763 C767 1.350 . S
N763 C768 1.307 . S
C764 H756 0.930 . S
C764 C765 1.355 . S
C764 C766 1.412 . S
C765 H757 0.930 . S
C765 C764 1.355 . S
C765 C768 1.402 . S
C766 C764 1.412 . S
C766 C767 1.417 . S
C766 C790 1.431 . S
C767 N763 1.350 . S
C767 C766 1.417 . S
C767 C770 1.426 . S
C768 H751 0.930 . S
C768 N763 1.307 . S
C768 C765 1.402 . S
N769 Gd732 2.601 . S
N769 C770 1.359 . S
N769 C773 1.334 1_655 S
C770 C767 1.426 . S
C770 N769 1.359 . S
C770 C774 1.413 . S
C771 H762 0.930 . S
C771 C772 1.359 1_455 S
C771 C773 1.394 . S
C772 C771 1.359 1_655 S
C772 C774 1.391 . S
C772 H775 0.929 . S
C773 H755 0.930 . S
C773 N769 1.334 1_455 S
C773 C771 1.394 . S
C774 C770 1.413 . S
C774 C772 1.391 . S
C774 C789 1.437 . S
H775 C772 0.929 . S
O776 Gd732 2.545 . S
O776 C791 1.258 . S
O777 Gd732 2.587 1_455 S
O777 Gd733 2.394 . S
O777 C788 1.263 1_455 S
O778 Gd733 2.324 . S
O778 C798 1.254 . S
O779 Gd732 2.429 1_455 S
O779 C798 1.268 . S
O780 Gd732 2.545 . S
O780 C788 1.250 . S
O781 Gd732 2.412 . S
O781 C791 1.252 . S
O782 Gd733 2.545 . S
O782 C800 1.258 . S
O783 Gd732 2.362 1_455 S
O783 Gd733 2.606 . S
O783 C799 1.284 . S
O784 Gd732 2.324 . S
O784 C807 1.254 . S
O785 Gd733 2.429 1_655 S
O785 C807 1.268 . S
O786 Gd733 2.545 . S
O786 C799 1.250 . S
O787 Gd733 2.412 . S
O787 C800 1.252 . S
C788 O777 1.263 1_655 S
C788 O780 1.250 . S
C789 H758 0.929 . S
C789 C774 1.437 . S
C789 C790 1.317 . S
C790 H761 0.930 . S
C790 C766 1.431 . S
C790 C789 1.317 . S
C791 Gd732 2.828 . S
C791 O776 1.258 . S
C791 O781 1.252 . S
C791 C792 1.497 . S
C792 C791 1.497 . S
C792 C793 1.395 . S
C792 C794 1.380 . S
C793 C792 1.395 . S
C793 C796 1.398 . S
C793 H808 0.930 . S
C794 C792 1.380 . S
C794 C795 1.391 . S
C794 H809 0.930 . S
C795 C794 1.391 . S
C795 C797 1.387 . S
C796 C793 1.398 . S
C796 C797 1.380 . S
C796 H810 0.930 . S
C797 C795 1.387 . S
C797 C796 1.380 . S
C797 H811 0.930 . S
C798 O778 1.254 . S
C798 O779 1.268 . S
C799 O783 1.284 . S
C799 O786 1.250 . S
C800 Gd733 2.828 . S
C800 O782 1.258 . S
C800 O787 1.252 . S
C800 C801 1.497 . S
C801 C800 1.497 . S
C801 C802 1.395 . S
C801 C803 1.380 . S
C802 C801 1.395 . S
C802 C805 1.398 . S
C802 H812 0.930 . S
C803 C801 1.380 . S
C803 C804 1.391 . S
C803 H813 0.930 . S
C804 C803 1.391 . S
C804 C806 1.387 . S
C805 C802 1.398 . S
C805 C806 1.380 . S
C805 H814 0.930 . S
C806 C804 1.387 . S
C806 C805 1.380 . S
C806 H815 0.930 . S
C807 O784 1.254 . S
C807 O785 1.268 . S
H808 C793 0.930 . S
H809 C794 0.930 . S
H810 C796 0.930 . S
H811 C797 0.930 . S
H812 C802 0.930 . S
H813 C803 0.930 . S
H814 C805 0.930 . S
H815 C806 0.930 . S
H816 C824 0.929 . S
H817 C826 0.930 . S
H818 C828 0.930 . S
H819 C831 0.929 . S
H820 C834 0.930 . S
H821 C836 0.960 . S
H822 C836 0.960 . S
H823 C836 0.960 . S
C824 H816 0.929 . S
C824 C825 1.377 . S
C824 C826 1.384 . S
C825 C824 1.377 . S
C825 C831 1.390 . S
C826 H817 0.930 . S
C826 C824 1.384 . S
C826 C827 1.372 . S
C827 C826 1.372 . S
C827 C828 1.400 . S
C827 C832 1.490 . S
C828 H818 0.930 . S
C828 C827 1.400 . S
C828 C831 1.386 . S
H829 C845 0.930 . S
H830 C846 0.931 . S
C831 H819 0.929 . S
C831 C825 1.390 . S
C831 C828 1.386 . S
C832 C827 1.490 . S
C832 C834 1.395 . S
C832 C835 1.403 . S
H833 C839 0.930 . S
C834 H820 0.930 . S
C834 C832 1.395 . S
C834 C837 1.403 . S
C835 C832 1.403 . S
C835 C836 1.524 . S
C835 C839 1.400 . S
C836 H821 0.960 . S
C836 H822 0.960 . S
C836 H823 0.960 . S
C836 C835 1.524 . S
C837 C834 1.403 . S
C837 C838 1.392 . S
C837 C841 1.495 . S
C838 C837 1.392 . S
C838 C839 1.385 . S
C838 C840 1.478 . S
C839 H833 0.930 . S
C839 C835 1.400 . S
C839 C838 1.385 . S
C840 C838 1.478 . S
C840 C842 1.381 . S
C840 C846 1.383 . S
C841 C837 1.495 . S
C841 H847 0.959 . S
C841 H848 0.961 . S
C841 H849 0.960 . S
C842 C840 1.381 . S
C842 C843 1.394 . S
C842 H850 0.930 . S
C843 C842 1.394 . S
C843 C844 1.383 . S
C843 H851 0.929 . S
C844 C843 1.383 . S
C844 C845 1.377 . S
C845 H829 0.930 . S
C845 C844 1.377 . S
C845 C846 1.379 . S
C846 H830 0.931 . S
C846 C840 1.383 . S
C846 C845 1.379 . S
H847 C841 0.959 . S
H848 C841 0.961 . S
H849 C841 0.960 . S
H850 C842 0.930 . S
H851 C843 0.929 . S
H852 C860 0.929 . S
H853 C862 0.930 . S
H854 C864 0.930 . S
H855 C867 0.929 . S
H856 C870 0.930 . S
H857 C872 0.960 . S
H858 C872 0.960 . S
H859 C872 0.960 . S
C860 H852 0.929 . S
C860 C861 1.377 . S
C860 C862 1.384 . S
C861 C860 1.377 . S
C861 C867 1.390 . S
C862 H853 0.930 . S
C862 C860 1.384 . S
C862 C863 1.372 . S
C863 C862 1.372 . S
C863 C864 1.400 . S
C863 C868 1.490 . S
C864 H854 0.930 . S
C864 C863 1.400 . S
C864 C867 1.386 . S
H865 C881 0.930 . S
H866 C882 0.931 . S
C867 H855 0.929 . S
C867 C861 1.390 . S
C867 C864 1.386 . S
C868 C863 1.490 . S
C868 C870 1.395 . S
C868 C871 1.403 . S
H869 C875 0.930 . S
C870 H856 0.930 . S
C870 C868 1.395 . S
C870 C873 1.403 . S
C871 C868 1.403 . S
C871 C872 1.524 . S
C871 C875 1.400 . S
C872 H857 0.960 . S
C872 H858 0.960 . S
C872 H859 0.960 . S
C872 C871 1.524 . S
C873 C870 1.403 . S
C873 C874 1.392 . S
C873 C877 1.495 . S
C874 C873 1.392 . S
C874 C875 1.385 . S
C874 C876 1.478 . S
C875 H869 0.930 . S
C875 C871 1.400 . S
C875 C874 1.385 . S
C876 C874 1.478 . S
C876 C878 1.381 . S
C876 C882 1.383 . S
C877 C873 1.495 . S
C877 H883 0.959 . S
C877 H884 0.961 . S
C877 H885 0.960 . S
C878 C876 1.381 . S
C878 C879 1.394 . S
C878 H886 0.930 . S
C879 C878 1.394 . S
C879 C880 1.383 . S
C879 H887 0.929 . S
C880 C879 1.383 . S
C880 C881 1.377 . S
C881 H865 0.930 . S
C881 C880 1.377 . S
C881 C882 1.379 . S
C882 H866 0.931 . S
C882 C876 1.383 . S
C882 C881 1.379 . S
H883 C877 0.959 . S
H884 C877 0.961 . S
H885 C877 0.960 . S
H886 C878 0.930 . S
H887 C879 0.929 . S
H888 C896 0.929 . S
H889 C898 0.930 . S
H890 C900 0.930 . S
H891 C903 0.929 . S
H892 C906 0.930 . S
H893 C908 0.960 . S
H894 C908 0.960 . S
H895 C908 0.960 . S
C896 H888 0.929 . S
C896 C897 1.377 . S
C896 C898 1.384 . S
C897 C896 1.377 . S
C897 C903 1.390 . S
C898 H889 0.930 . S
C898 C896 1.384 . S
C898 C899 1.372 . S
C899 C898 1.372 . S
C899 C900 1.400 . S
C899 C904 1.490 . S
C900 H890 0.930 . S
C900 C899 1.400 . S
C900 C903 1.386 . S
H901 C917 0.930 . S
H902 C918 0.931 . S
C903 H891 0.929 . S
C903 C897 1.390 . S
C903 C900 1.386 . S
C904 C899 1.490 . S
C904 C906 1.395 . S
C904 C907 1.403 . S
H905 C911 0.930 . S
C906 H892 0.930 . S
C906 C904 1.395 . S
C906 C909 1.403 . S
C907 C904 1.403 . S
C907 C908 1.524 . S
C907 C911 1.400 . S
C908 H893 0.960 . S
C908 H894 0.960 . S
C908 H895 0.960 . S
C908 C907 1.524 . S
C909 C906 1.403 . S
C909 C910 1.392 . S
C909 C913 1.495 . S
C910 C909 1.392 . S
C910 C911 1.385 . S
C910 C912 1.478 . S
C911 H905 0.930 . S
C911 C907 1.400 . S
C911 C910 1.385 . S
C912 C910 1.478 . S
C912 C914 1.381 . S
C912 C918 1.383 . S
C913 C909 1.495 . S
C913 H919 0.959 . S
C913 H920 0.961 . S
C913 H921 0.960 . S
C914 C912 1.381 . S
C914 C915 1.394 . S
C914 H922 0.930 . S
C915 C914 1.394 . S
C915 C916 1.383 . S
C915 H923 0.929 . S
C916 C915 1.383 . S
C916 C917 1.377 . S
C917 H901 0.930 . S
C917 C916 1.377 . S
C917 C918 1.379 . S
C918 H902 0.931 . S
C918 C912 1.383 . S
C918 C917 1.379 . S
H919 C913 0.959 . S
H920 C913 0.961 . S
H921 C913 0.960 . S
H922 C914 0.930 . S
H923 C915 0.929 . S
H924 C932 0.929 . S
H925 C934 0.930 . S
H926 C936 0.930 . S
H927 C939 0.929 . S
H928 C942 0.930 . S
H929 C944 0.960 . S
H930 C944 0.960 . S
H931 C944 0.960 . S
C932 H924 0.929 . S
C932 C933 1.377 . S
C932 C934 1.384 . S
C933 C932 1.377 . S
C933 C939 1.390 . S
C934 H925 0.930 . S
C934 C932 1.384 . S
C934 C935 1.372 . S
C935 C934 1.372 . S
C935 C936 1.400 . S
C935 C940 1.490 . S
C936 H926 0.930 . S
C936 C935 1.400 . S
C936 C939 1.386 . S
H937 C953 0.930 . S
H938 C954 0.931 . S
C939 H927 0.929 . S
C939 C933 1.390 . S
C939 C936 1.386 . S
C940 C935 1.490 . S
C940 C942 1.395 . S
C940 C943 1.403 . S
H941 C947 0.930 . S
C942 H928 0.930 . S
C942 C940 1.395 . S
C942 C945 1.403 . S
C943 C940 1.403 . S
C943 C944 1.524 . S
C943 C947 1.400 . S
C944 H929 0.960 . S
C944 H930 0.960 . S
C944 H931 0.960 . S
C944 C943 1.524 . S
C945 C942 1.403 . S
C945 C946 1.392 . S
C945 C949 1.495 . S
C946 C945 1.392 . S
C946 C947 1.385 . S
C946 C948 1.478 . S
C947 H941 0.930 . S
C947 C943 1.400 . S
C947 C946 1.385 . S
C948 C946 1.478 . S
C948 C950 1.381 . S
C948 C954 1.383 . S
C949 C945 1.495 . S
C949 H955 0.959 1_455 S
C949 H956 0.961 1_455 S
C949 H957 0.958 1_455 S
C950 C948 1.381 . S
C950 C951 1.394 . S
C950 H958 0.930 . S
C951 C950 1.394 . S
C951 C952 1.383 . S
C951 H959 0.929 . S
C952 C951 1.383 . S
C952 C953 1.377 . S
C953 H937 0.930 . S
C953 C952 1.377 . S
C953 C954 1.379 . S
C954 H938 0.931 . S
C954 C948 1.383 . S
C954 C953 1.379 . S
H955 C949 0.959 1_655 S
H956 C949 0.961 1_655 S
H957 C949 0.958 1_655 S
H958 C950 0.930 . S
H959 C951 0.929 . S
H960 C968 0.929 . S
H961 C970 0.930 . S
H962 C972 0.930 . S
H963 C975 0.929 . S
H964 C978 0.930 . S
H965 C980 0.960 . S
H966 C980 0.960 . S
H967 C980 0.960 . S
C968 H960 0.929 . S
C968 C969 1.377 . S
C968 C970 1.384 1_554 S
C969 C968 1.377 . S
C969 C975 1.390 . S
C970 H961 0.930 . S
C970 C968 1.384 1_556 S
C970 C971 1.372 . S
C971 C970 1.372 . S
C971 C972 1.400 . S
C971 C976 1.490 . S
C972 H962 0.930 . S
C972 C971 1.400 . S
C972 C975 1.386 1_556 S
H973 C989 0.930 . S
H974 C990 0.931 1_545 S
C975 H963 0.929 . S
C975 C969 1.390 . S
C975 C972 1.386 1_554 S
C976 C971 1.490 . S
C976 C978 1.395 . S
C976 C979 1.403 . S
H977 C983 0.930 . S
C978 H964 0.930 . S
C978 C976 1.395 . S
C978 C981 1.403 . S
C979 C976 1.403 . S
C979 C980 1.524 . S
C979 C983 1.400 . S
C980 H965 0.960 . S
C980 H966 0.960 . S
C980 H967 0.960 . S
C980 C979 1.524 . S
C981 C978 1.403 . S
C981 C982 1.392 . S
C981 C985 1.495 . S
C982 C981 1.392 . S
C982 C983 1.385 . S
C982 C984 1.478 . S
C983 H977 0.930 . S
C983 C979 1.400 . S
C983 C982 1.385 . S
C984 C982 1.478 . S
C984 C986 1.381 . S
C984 C990 1.383 . S
C985 C981 1.495 . S
C985 H991 0.959 . S
C985 H992 0.961 . S
C985 H993 0.960 . S
C986 C984 1.381 . S
C986 C987 1.394 . S
C986 H994 0.930 . S
C987 C986 1.394 . S
C987 C988 1.383 . S
C987 H995 0.929 . S
C988 C987 1.383 . S
C988 C989 1.377 1_565 S
C989 H973 0.930 . S
C989 C988 1.377 1_545 S
C989 C990 1.379 1_545 S
C990 H974 0.931 1_565 S
C990 C984 1.383 . S
C990 C989 1.379 1_565 S
H991 C985 0.959 . S
H992 C985 0.961 . S
H993 C985 0.960 . S
H994 C986 0.930 . S
H995 C987 0.929 . S
H996 C1004 0.929 . S
H997 C1006 0.930 . S
H998 C1008 0.930 . S
H999 C1011 0.929 . S
H1000 C1014 0.930 . S
H1001 C1016 0.960 . S
H1002 C1016 0.960 . S
H1003 C1016 0.960 . S
C1004 H996 0.929 . S
C1004 C1005 1.377 . S
C1004 C1006 1.384 1_554 S
C1005 C1004 1.377 . S
C1005 C1011 1.390 . S
C1006 H997 0.930 . S
C1006 C1004 1.384 1_556 S
C1006 C1007 1.372 . S
C1007 C1006 1.372 . S
C1007 C1008 1.400 . S
C1007 C1012 1.490 . S
C1008 H998 0.930 . S
C1008 C1007 1.400 . S
C1008 C1011 1.386 1_556 S
H1009 C1025 0.930 . S
H1010 C1026 0.931 . S
C1011 H999 0.929 . S
C1011 C1005 1.390 . S
C1011 C1008 1.386 1_554 S
C1012 C1007 1.490 . S
C1012 C1014 1.395 . S
C1012 C1015 1.403 . S
H1013 C1019 0.930 . S
C1014 H1000 0.930 . S
C1014 C1012 1.395 . S
C1014 C1017 1.403 . S
C1015 C1012 1.403 . S
C1015 C1016 1.524 . S
C1015 C1019 1.400 . S
C1016 H1001 0.960 . S
C1016 H1002 0.960 . S
C1016 H1003 0.960 . S
C1016 C1015 1.524 . S
C1017 C1014 1.403 . S
C1017 C1018 1.392 . S
C1017 C1021 1.495 . S
C1018 C1017 1.392 . S
C1018 C1019 1.385 . S
C1018 C1020 1.478 . S
C1019 H1013 0.930 . S
C1019 C1015 1.400 . S
C1019 C1018 1.385 . S
C1020 C1018 1.478 . S
C1020 C1022 1.381 . S
C1020 C1026 1.383 . S
C1021 C1017 1.495 . S
C1021 H1027 0.959 . S
C1021 H1028 0.961 . S
C1021 H1029 0.960 . S
C1022 C1020 1.381 . S
C1022 C1023 1.394 . S
C1022 H1030 0.930 . S
C1023 C1022 1.394 . S
C1023 C1024 1.383 . S
C1023 H1031 0.929 . S
C1024 C1023 1.383 . S
C1024 C1025 1.377 . S
C1025 H1009 0.930 . S
C1025 C1024 1.377 . S
C1025 C1026 1.379 . S
C1026 H1010 0.931 . S
C1026 C1020 1.383 . S
C1026 C1025 1.379 . S
H1027 C1021 0.959 . S
H1028 C1021 0.961 . S
H1029 C1021 0.960 . S
H1030 C1022 0.930 . S
H1031 C1023 0.929 . S
H1032 C1040 0.929 . S
H1033 C1042 0.930 . S
H1034 C1044 0.931 . S
H1035 C1047 0.929 . S
H1036 C1050 0.930 . S
H1037 C1052 0.960 . S
H1038 C1052 0.960 . S
H1039 C1052 0.960 . S
C1040 H1032 0.929 . S
C1040 C1041 1.377 1_556 S
C1040 C1042 1.384 . S
C1041 C1040 1.377 1_554 S
C1041 C1047 1.390 . S
C1042 H1033 0.930 . S
C1042 C1040 1.384 . S
C1042 C1043 1.372 . S
C1043 C1042 1.372 . S
C1043 C1044 1.400 . S
C1043 C1048 1.490 . S
C1044 H1034 0.931 . S
C1044 C1043 1.400 . S
C1044 C1047 1.386 1_556 S
H1045 C1061 0.930 . S
H1046 C1062 0.931 . S
C1047 H1035 0.929 . S
C1047 C1041 1.390 . S
C1047 C1044 1.386 1_554 S
C1048 C1043 1.490 . S
C1048 C1050 1.395 . S
C1048 C1051 1.403 . S
H1049 C1055 0.930 . S
C1050 H1036 0.930 . S
C1050 C1048 1.395 . S
C1050 C1053 1.403 . S
C1051 C1048 1.403 . S
C1051 C1052 1.524 . S
C1051 C1055 1.400 . S
C1052 H1037 0.960 . S
C1052 H1038 0.960 . S
C1052 H1039 0.960 . S
C1052 C1051 1.524 . S
C1053 C1050 1.403 . S
C1053 C1054 1.392 . S
C1053 C1057 1.495 . S
C1054 C1053 1.392 . S
C1054 C1055 1.385 . S
C1054 C1056 1.478 . S
C1055 H1049 0.930 . S
C1055 C1051 1.400 . S
C1055 C1054 1.385 . S
C1056 C1054 1.478 . S
C1056 C1058 1.381 . S
C1056 C1062 1.383 . S
C1057 C1053 1.495 . S
C1057 H1063 0.959 . S
C1057 H1064 0.961 . S
C1057 H1065 0.960 . S
C1058 C1056 1.381 . S
C1058 C1059 1.394 . S
C1058 H1066 0.930 . S
C1059 C1058 1.394 . S
C1059 C1060 1.383 . S
C1059 H1067 0.929 . S
C1060 C1059 1.383 . S
C1060 C1061 1.377 . S
C1061 H1045 0.930 . S
C1061 C1060 1.377 . S
C1061 C1062 1.379 . S
C1062 H1046 0.931 . S
C1062 C1056 1.383 . S
C1062 C1061 1.379 . S
H1063 C1057 0.959 . S
H1064 C1057 0.961 . S
H1065 C1057 0.960 . S
H1066 C1058 0.930 . S
H1067 C1059 0.929 . S
H1068 C1076 0.929 . S
H1069 C1078 0.930 . S
H1070 C1080 0.930 . S
H1071 C1083 0.929 . S
H1072 C1086 0.930 . S
H1073 C1088 0.960 . S
H1074 C1088 0.960 . S
H1075 C1088 0.960 . S
C1076 H1068 0.929 . S
C1076 C1077 1.377 1_556 S
C1076 C1078 1.384 . S
C1077 C1076 1.377 1_554 S
C1077 C1083 1.390 . S
C1078 H1069 0.930 . S
C1078 C1076 1.384 . S
C1078 C1079 1.372 . S
C1079 C1078 1.372 . S
C1079 C1080 1.400 . S
C1079 C1084 1.490 . S
C1080 H1070 0.930 . S
C1080 C1079 1.400 . S
C1080 C1083 1.386 1_556 S
H1081 C1097 0.930 . S
H1082 C1098 0.931 . S
C1083 H1071 0.929 . S
C1083 C1077 1.390 . S
C1083 C1080 1.386 1_554 S
C1084 C1079 1.490 . S
C1084 C1086 1.395 . S
C1084 C1087 1.403 . S
H1085 C1091 0.930 . S
C1086 H1072 0.930 . S
C1086 C1084 1.395 . S
C1086 C1089 1.403 . S
C1087 C1084 1.403 . S
C1087 C1088 1.524 . S
C1087 C1091 1.400 . S
C1088 H1073 0.960 . S
C1088 H1074 0.960 . S
C1088 H1075 0.960 . S
C1088 C1087 1.524 . S
C1089 C1086 1.403 . S
C1089 C1090 1.392 . S
C1089 C1093 1.495 1_655 S
C1090 C1089 1.392 . S
C1090 C1091 1.385 . S
C1090 C1092 1.478 . S
C1091 H1085 0.930 . S
C1091 C1087 1.400 . S
C1091 C1090 1.385 . S
C1092 C1090 1.478 . S
C1092 C1094 1.381 . S
C1092 C1098 1.383 . S
C1093 C1089 1.495 1_455 S
C1093 H1099 0.959 . S
C1093 H1100 0.961 . S
C1093 H1101 0.960 . S
C1094 C1092 1.381 . S
C1094 C1095 1.394 . S
C1094 H1102 0.930 . S
C1095 C1094 1.394 . S
C1095 C1096 1.383 . S
C1095 H1103 0.929 . S
C1096 C1095 1.383 . S
C1096 C1097 1.377 . S
C1097 H1081 0.930 . S
C1097 C1096 1.377 . S
C1097 C1098 1.379 . S
C1098 H1082 0.931 . S
C1098 C1092 1.383 . S
C1098 C1097 1.379 . S
H1099 C1093 0.959 . S
H1100 C1093 0.961 . S
H1101 C1093 0.960 . S
H1102 C1094 0.930 . S
H1103 C1095 0.929 . S
H1104 C1112 0.929 . S
H1105 C1114 0.930 . S
H1106 C1116 0.930 . S
H1107 C1119 0.929 . S
H1108 C1122 0.930 . S
H1109 C1124 0.960 . S
H1110 C1124 0.960 . S
H1111 C1124 0.960 . S
C1112 H1104 0.929 . S
C1112 C1113 1.377 . S
C1112 C1114 1.384 . S
C1113 C1112 1.377 . S
C1113 C1119 1.390 . S
C1114 H1105 0.930 . S
C1114 C1112 1.384 . S
C1114 C1115 1.372 . S
C1115 C1114 1.372 . S
C1115 C1116 1.400 . S
C1115 C1120 1.490 . S
C1116 H1106 0.930 . S
C1116 C1115 1.400 . S
C1116 C1119 1.386 . S
H1117 C1133 0.930 1_655 S
H1118 C1134 0.931 . S
C1119 H1107 0.929 . S
C1119 C1113 1.390 . S
C1119 C1116 1.386 . S
C1120 C1115 1.490 . S
C1120 C1122 1.395 . S
C1120 C1123 1.403 . S
H1121 C1127 0.930 . S
C1122 H1108 0.930 . S
C1122 C1120 1.395 . S
C1122 C1125 1.403 . S
C1123 C1120 1.403 . S
C1123 C1124 1.524 . S
C1123 C1127 1.400 . S
C1124 H1109 0.960 . S
C1124 H1110 0.960 . S
C1124 H1111 0.960 . S
C1124 C1123 1.524 . S
C1125 C1122 1.403 . S
C1125 C1126 1.392 . S
C1125 C1129 1.495 . S
C1126 C1125 1.392 . S
C1126 C1127 1.385 . S
C1126 C1128 1.478 . S
C1127 H1121 0.930 . S
C1127 C1123 1.400 . S
C1127 C1126 1.385 . S
C1128 C1126 1.478 . S
C1128 C1130 1.381 . S
C1128 C1134 1.383 . S
C1129 C1125 1.495 . S
C1129 H1135 0.959 . S
C1129 H1136 0.961 1_455 S
C1129 H1137 0.960 . S
C1130 C1128 1.381 . S
C1130 C1131 1.394 . S
C1130 H1138 0.930 . S
C1131 C1130 1.394 . S
C1131 C1132 1.383 . S
C1131 H1139 0.929 . S
C1132 C1131 1.383 . S
C1132 C1133 1.377 . S
C1133 H1117 0.930 1_455 S
C1133 C1132 1.377 . S
C1133 C1134 1.379 . S
C1134 H1118 0.931 . S
C1134 C1128 1.383 . S
C1134 C1133 1.379 . S
H1135 C1129 0.959 . S
H1136 C1129 0.961 1_655 S
H1137 C1129 0.960 . S
H1138 C1130 0.930 . S
H1139 C1131 0.929 . S
H1140 C1148 0.929 . S
H1141 C1150 0.930 . S
H1142 C1152 0.930 . S
H1143 C1155 0.929 . S
H1144 C1158 0.930 . S
H1145 C1160 0.960 . S
H1146 C1160 0.960 . S
H1147 C1160 0.960 . S
C1148 H1140 0.929 . S
C1148 C1149 1.377 . S
C1148 C1150 1.384 . S
C1149 C1148 1.377 . S
C1149 C1155 1.390 . S
C1150 H1141 0.930 . S
C1150 C1148 1.384 . S
C1150 C1151 1.372 . S
C1151 C1150 1.372 . S
C1151 C1152 1.400 . S
C1151 C1156 1.490 . S
C1152 H1142 0.930 . S
C1152 C1151 1.400 . S
C1152 C1155 1.386 . S
H1153 C1169 0.930 . S
H1154 C1170 0.948 . S
C1155 H1143 0.929 . S
C1155 C1149 1.390 . S
C1155 C1152 1.386 . S
C1156 C1151 1.490 . S
C1156 C1158 1.395 . S
C1156 C1159 1.403 . S
H1157 C1163 0.930 . S
C1158 H1144 0.930 . S
C1158 C1156 1.395 . S
C1158 C1161 1.403 . S
C1159 C1156 1.403 . S
C1159 C1160 1.524 . S
C1159 C1163 1.400 . S
C1160 H1145 0.960 . S
C1160 H1146 0.960 . S
C1160 H1147 0.960 . S
C1160 C1159 1.524 . S
C1161 C1158 1.403 . S
C1161 C1162 1.392 . S
C1161 C1165 1.495 . S
C1162 C1161 1.392 . S
C1162 C1163 1.385 . S
C1162 C1164 1.478 . S
C1163 H1157 0.930 . S
C1163 C1159 1.400 . S
C1163 C1162 1.385 . S
C1164 C1162 1.478 . S
C1164 C1166 1.381 . S
C1164 C1170 1.383 . S
C1165 C1161 1.495 . S
C1165 H1171 0.959 . S
C1165 H1172 0.961 . S
C1165 H1173 0.960 . S
C1166 C1164 1.381 . S
C1166 C1167 1.394 . S
C1166 H1174 0.930 . S
C1167 C1166 1.394 . S
C1167 C1168 1.383 . S
C1167 H1175 0.929 . S
C1168 C1167 1.383 . S
C1168 C1169 1.377 1_545 S
C1169 H1153 0.930 . S
C1169 C1168 1.377 1_565 S
C1169 C1170 1.379 1_565 S
C1170 H1154 0.948 . S
C1170 C1164 1.383 . S
C1170 C1169 1.379 1_545 S
H1171 C1165 0.959 . S
H1172 C1165 0.961 . S
H1173 C1165 0.960 . S
H1174 C1166 0.930 . S
H1175 C1167 0.929 . S
H1176 C1184 0.929 . S
H1177 C1186 0.930 . S
H1178 C1188 0.930 . S
H1179 C1191 0.929 . S
H1180 C1194 0.930 . S
H1181 C1196 0.960 . S
H1182 C1196 0.960 . S
H1183 C1196 0.960 . S
C1184 H1176 0.929 . S
C1184 C1185 1.377 . S
C1184 C1186 1.384 . S
C1185 C1184 1.377 . S
C1185 C1191 1.390 . S
C1186 H1177 0.930 . S
C1186 C1184 1.384 . S
C1186 C1187 1.372 . S
C1187 C1186 1.372 . S
C1187 C1188 1.400 . S
C1187 C1192 1.490 . S
C1188 H1178 0.930 . S
C1188 C1187 1.400 . S
C1188 C1191 1.386 . S
H1189 C1205 0.930 . S
H1190 C1206 0.931 . S
C1191 H1179 0.929 . S
C1191 C1185 1.390 . S
C1191 C1188 1.386 . S
C1192 C1187 1.490 . S
C1192 C1194 1.395 . S
C1192 C1195 1.403 . S
H1193 C1199 0.930 . S
C1194 H1180 0.930 . S
C1194 C1192 1.395 . S
C1194 C1197 1.403 . S
C1195 C1192 1.403 . S
C1195 C1196 1.524 . S
C1195 C1199 1.400 . S
C1196 H1181 0.960 . S
C1196 H1182 0.960 . S
C1196 H1183 0.960 . S
C1196 C1195 1.524 . S
C1197 C1194 1.403 . S
C1197 C1198 1.392 . S
C1197 C1201 1.495 . S
C1198 C1197 1.392 . S
C1198 C1199 1.385 . S
C1198 C1200 1.478 . S
C1199 H1193 0.930 . S
C1199 C1195 1.400 . S
C1199 C1198 1.385 . S
C1200 C1198 1.478 . S
C1200 C1202 1.381 . S
C1200 C1206 1.383 . S
C1201 C1197 1.495 . S
C1201 H1207 0.959 . S
C1201 H1208 0.961 . S
C1201 H1209 0.960 . S
C1202 C1200 1.381 . S
C1202 C1203 1.394 . S
C1202 H1210 0.930 . S
C1203 C1202 1.394 . S
C1203 C1204 1.383 . S
C1203 H1211 0.929 . S
C1204 C1203 1.383 . S
C1204 C1205 1.377 . S
C1205 H1189 0.930 . S
C1205 C1204 1.377 . S
C1205 C1206 1.379 . S
C1206 H1190 0.931 . S
C1206 C1200 1.383 . S
C1206 C1205 1.379 . S
H1207 C1201 0.959 . S
H1208 C1201 0.961 . S
H1209 C1201 0.960 . S
H1210 C1202 0.930 . S
H1211 C1203 0.929 . S
H1212 C1220 0.929 . S
H1213 C1222 0.930 . S
H1214 C1224 0.930 . S
H1215 C1227 0.929 . S
H1216 C1230 0.930 . S
H1217 C1232 0.960 . S
H1218 C1232 0.960 . S
H1219 C1232 0.960 . S
C1220 H1212 0.929 . S
C1220 C1221 1.377 . S
C1220 C1222 1.384 . S
C1221 C1220 1.377 . S
C1221 C1227 1.390 . S
C1222 H1213 0.930 . S
C1222 C1220 1.384 . S
C1222 C1223 1.372 . S
C1223 C1222 1.372 . S
C1223 C1224 1.400 . S
C1223 C1228 1.490 . S
C1224 H1214 0.930 . S
C1224 C1223 1.400 . S
C1224 C1227 1.386 . S
H1225 C1241 0.930 . S
H1226 C1242 0.931 . S
C1227 H1215 0.929 . S
C1227 C1221 1.390 . S
C1227 C1224 1.386 . S
C1228 C1223 1.490 . S
C1228 C1230 1.395 . S
C1228 C1231 1.403 . S
H1229 C1235 0.930 . S
C1230 H1216 0.930 . S
C1230 C1228 1.395 . S
C1230 C1233 1.403 . S
C1231 C1228 1.403 . S
C1231 C1232 1.524 . S
C1231 C1235 1.400 . S
C1232 H1217 0.960 . S
C1232 H1218 0.960 . S
C1232 H1219 0.960 . S
C1232 C1231 1.524 . S
C1233 C1230 1.403 . S
C1233 C1234 1.392 . S
C1233 C1237 1.495 . S
C1234 C1233 1.392 . S
C1234 C1235 1.385 . S
C1234 C1236 1.478 . S
C1235 H1229 0.930 . S
C1235 C1231 1.400 . S
C1235 C1234 1.385 . S
C1236 C1234 1.478 . S
C1236 C1238 1.381 . S
C1236 C1242 1.383 . S
C1237 C1233 1.495 . S
C1237 H1243 0.959 . S
C1237 H1244 0.961 . S
C1237 H1245 0.960 . S
C1238 C1236 1.381 . S
C1238 C1239 1.394 . S
C1238 H1246 0.930 . S
C1239 C1238 1.394 . S
C1239 C1240 1.383 . S
C1239 H1247 0.929 . S
C1240 C1239 1.383 . S
C1240 C1241 1.377 . S
C1241 H1225 0.930 . S
C1241 C1240 1.377 . S
C1241 C1242 1.379 . S
C1242 H1226 0.931 . S
C1242 C1236 1.383 . S
C1242 C1241 1.379 . S
H1243 C1237 0.959 . S
H1244 C1237 0.961 . S
H1245 C1237 0.960 . S
H1246 C1238 0.930 . S
H1247 C1239 0.929 . S
H1248 C1256 0.929 . S
H1249 C1258 0.930 . S
H1250 C1260 0.930 . S
H1251 C1263 0.929 1_554 S
H1252 C1266 0.930 . S
H1253 C1268 0.994 . S
H1254 C1268 0.960 . S
H1255 C1268 0.960 . S
C1256 H1248 0.929 . S
C1256 C1257 1.377 . S
C1256 C1258 1.384 . S
C1257 C1256 1.377 . S
C1257 C1263 1.390 . S
C1258 H1249 0.930 . S
C1258 C1256 1.384 . S
C1258 C1259 1.372 . S
C1259 C1258 1.372 . S
C1259 C1260 1.400 . S
C1259 C1264 1.490 . S
C1260 H1250 0.930 . S
C1260 C1259 1.400 . S
C1260 C1263 1.386 . S
H1261 C1277 0.930 . S
H1262 C1278 0.931 . S
C1263 H1251 0.929 1_556 S
C1263 C1257 1.390 . S
C1263 C1260 1.386 . S
C1264 C1259 1.490 . S
C1264 C1266 1.395 . S
C1264 C1267 1.403 . S
H1265 C1271 0.930 . S
C1266 H1252 0.930 . S
C1266 C1264 1.395 . S
C1266 C1269 1.403 . S
C1267 C1264 1.403 . S
C1267 C1268 1.524 . S
C1267 C1271 1.400 . S
C1268 H1253 0.994 . S
C1268 H1254 0.960 . S
C1268 H1255 0.960 . S
C1268 C1267 1.524 . S
C1269 C1266 1.403 . S
C1269 C1270 1.392 . S
C1269 C1273 1.495 . S
C1270 C1269 1.392 . S
C1270 C1271 1.385 . S
C1270 C1272 1.478 . S
C1271 H1265 0.930 . S
C1271 C1267 1.400 . S
C1271 C1270 1.385 . S
C1272 C1270 1.478 . S
C1272 C1274 1.381 . S
C1272 C1278 1.383 . S
C1273 C1269 1.495 . S
C1273 H1279 0.959 . S
C1273 H1280 0.961 . S
C1273 H1281 0.960 . S
C1274 C1272 1.381 . S
C1274 C1275 1.394 . S
C1274 H1282 0.930 . S
C1275 C1274 1.394 . S
C1275 C1276 1.383 1_655 S
C1275 H1283 0.929 . S
C1276 C1275 1.383 1_455 S
C1276 C1277 1.377 . S
C1277 H1261 0.930 . S
C1277 C1276 1.377 . S
C1277 C1278 1.379 1_455 S
C1278 H1262 0.931 . S
C1278 C1272 1.383 . S
C1278 C1277 1.379 1_655 S
H1279 C1273 0.959 . S
H1280 C1273 0.961 . S
H1281 C1273 0.960 . S
H1282 C1274 0.930 . S
H1283 C1275 0.929 . S
H1284 C1292 0.929 1_554 S
H1285 C1294 0.930 . S
H1286 C1296 0.930 . S
H1287 C1299 0.929 . S
H1288 C1302 0.930 . S
H1289 C1304 0.960 . S
H1290 C1304 0.960 . S
H1291 C1304 0.960 . S
C1292 H1284 0.929 1_556 S
C1292 C1293 1.377 . S
C1292 C1294 1.384 . S
C1293 C1292 1.377 . S
C1293 C1299 1.390 . S
C1294 H1285 0.930 . S
C1294 C1292 1.384 . S
C1294 C1295 1.372 . S
C1295 C1294 1.372 . S
C1295 C1296 1.400 . S
C1295 C1300 1.490 . S
C1296 H1286 0.930 . S
C1296 C1295 1.400 . S
C1296 C1299 1.386 . S
H1297 C1313 0.930 . S
H1298 C1314 0.931 . S
C1299 H1287 0.929 . S
C1299 C1293 1.390 . S
C1299 C1296 1.386 . S
C1300 C1295 1.490 . S
C1300 C1302 1.395 . S
C1300 C1303 1.403 . S
H1301 C1307 0.930 . S
C1302 H1288 0.930 . S
C1302 C1300 1.395 . S
C1302 C1305 1.403 . S
C1303 C1300 1.403 . S
C1303 C1304 1.524 . S
C1303 C1307 1.400 . S
C1304 H1289 0.960 . S
C1304 H1290 0.960 . S
C1304 H1291 0.960 . S
C1304 C1303 1.524 . S
C1305 C1302 1.403 . S
C1305 C1306 1.392 . S
C1305 C1309 1.495 1_565 S
C1306 C1305 1.392 . S
C1306 C1307 1.385 . S
C1306 C1308 1.478 . S
C1307 H1301 0.930 . S
C1307 C1303 1.400 . S
C1307 C1306 1.385 . S
C1308 C1306 1.478 . S
C1308 C1310 1.381 1_565 S
C1308 C1314 1.383 . S
C1309 C1305 1.495 1_545 S
C1309 H1315 0.959 . S
C1309 H1316 0.961 . S
C1309 H1317 0.960 . S
C1310 C1308 1.381 1_545 S
C1310 C1311 1.394 . S
C1310 H1318 0.930 . S
C1311 C1310 1.394 . S
C1311 C1312 1.383 . S
C1311 H1319 0.929 . S
C1312 C1311 1.383 . S
C1312 C1313 1.377 1_545 S
C1313 H1297 0.930 . S
C1313 C1312 1.377 1_565 S
C1313 C1314 1.379 . S
C1314 H1298 0.931 . S
C1314 C1308 1.383 . S
C1314 C1313 1.379 . S
H1315 C1309 0.959 . S
H1316 C1309 0.961 . S
H1317 C1309 0.960 . S
H1318 C1310 0.930 . S
H1319 C1311 0.929 . S
H1320 C1328 0.929 . S
H1321 C1330 0.930 . S
H1322 C1332 0.930 . S
H1323 C1335 0.929 . S
H1324 C1338 0.930 . S
H1325 C1340 0.960 . S
H1326 C1340 0.960 . S
H1327 C1340 0.960 . S
C1328 H1320 0.929 . S
C1328 C1329 1.377 . S
C1328 C1330 1.384 . S
C1329 C1328 1.377 . S
C1329 C1335 1.390 . S
C1330 H1321 0.930 . S
C1330 C1328 1.384 . S
C1330 C1331 1.372 . S
C1331 C1330 1.372 . S
C1331 C1332 1.400 . S
C1331 C1336 1.490 . S
C1332 H1322 0.930 . S
C1332 C1331 1.400 . S
C1332 C1335 1.386 . S
H1333 C1349 0.930 . S
H1334 C1350 0.931 . S
C1335 H1323 0.929 . S
C1335 C1329 1.390 . S
C1335 C1332 1.386 . S
C1336 C1331 1.490 . S
C1336 C1338 1.395 . S
C1336 C1339 1.403 . S
H1337 C1343 0.930 . S
C1338 H1324 0.930 . S
C1338 C1336 1.395 . S
C1338 C1341 1.403 . S
C1339 C1336 1.403 . S
C1339 C1340 1.524 . S
C1339 C1343 1.400 . S
C1340 H1325 0.960 . S
C1340 H1326 0.960 . S
C1340 H1327 0.960 . S
C1340 C1339 1.524 . S
C1341 C1338 1.403 . S
C1341 C1342 1.392 . S
C1341 C1345 1.495 . S
C1342 C1341 1.392 . S
C1342 C1343 1.385 . S
C1342 C1344 1.478 . S
C1343 H1337 0.930 . S
C1343 C1339 1.400 . S
C1343 C1342 1.385 . S
C1344 C1342 1.478 . S
C1344 C1346 1.381 . S
C1344 C1350 1.383 . S
C1345 C1341 1.495 . S
C1345 H1351 0.959 . S
C1345 H1352 0.961 . S
C1345 H1353 0.960 . S
C1346 C1344 1.381 . S
C1346 C1347 1.394 . S
C1346 H1354 0.930 . S
C1347 C1346 1.394 . S
C1347 C1348 1.383 . S
C1347 H1355 0.929 . S
C1348 C1347 1.383 . S
C1348 C1349 1.377 . S
C1349 H1333 0.930 . S
C1349 C1348 1.377 . S
C1349 C1350 1.379 . S
C1350 H1334 0.931 . S
C1350 C1344 1.383 . S
C1350 C1349 1.379 . S
H1351 C1345 0.959 . S
H1352 C1345 0.961 . S
H1353 C1345 0.960 . S
H1354 C1346 0.930 . S
H1355 C1347 0.929 . S
H1356 C1364 0.929 1_554 S
H1357 C1366 0.930 . S
H1358 C1368 0.930 . S
H1359 C1371 0.929 . S
H1360 C1374 0.930 . S
H1361 C1376 0.960 . S
H1362 C1376 0.960 . S
H1363 C1376 0.960 . S
C1364 H1356 0.929 1_556 S
C1364 C1365 1.377 . S
C1364 C1366 1.384 . S
C1365 C1364 1.377 . S
C1365 C1371 1.390 . S
C1366 H1357 0.930 . S
C1366 C1364 1.384 . S
C1366 C1367 1.372 . S
C1367 C1366 1.372 . S
C1367 C1368 1.400 . S
C1367 C1372 1.490 . S
C1368 H1358 0.930 . S
C1368 C1367 1.400 . S
C1368 C1371 1.386 . S
H1369 C1385 0.930 . S
H1370 C1386 0.931 . S
C1371 H1359 0.929 . S
C1371 C1365 1.390 . S
C1371 C1368 1.386 . S
C1372 C1367 1.490 . S
C1372 C1374 1.395 . S
C1372 C1375 1.403 . S
H1373 C1379 0.930 . S
C1374 H1360 0.930 . S
C1374 C1372 1.395 . S
C1374 C1377 1.403 . S
C1375 C1372 1.403 . S
C1375 C1376 1.524 . S
C1375 C1379 1.400 . S
C1376 H1361 0.960 . S
C1376 H1362 0.960 . S
C1376 H1363 0.960 . S
C1376 C1375 1.524 . S
C1377 C1374 1.403 . S
C1377 C1378 1.392 . S
C1377 C1381 1.495 . S
C1378 C1377 1.392 . S
C1378 C1379 1.385 . S
C1378 C1380 1.478 . S
C1379 H1373 0.930 . S
C1379 C1375 1.400 . S
C1379 C1378 1.385 . S
C1380 C1378 1.478 . S
C1380 C1382 1.381 . S
C1380 C1386 1.383 . S
C1381 C1377 1.495 . S
C1381 H1387 0.959 . S
C1381 H1388 0.961 . S
C1381 H1389 0.960 . S
C1382 C1380 1.381 . S
C1382 C1383 1.394 . S
C1382 H1390 0.930 . S
C1383 C1382 1.394 . S
C1383 C1384 1.383 . S
C1383 H1391 0.929 . S
C1384 C1383 1.383 . S
C1384 C1385 1.377 . S
C1385 H1369 0.930 . S
C1385 C1384 1.377 . S
C1385 C1386 1.379 . S
C1386 H1370 0.931 . S
C1386 C1380 1.383 . S
C1386 C1385 1.379 . S
H1387 C1381 0.959 . S
H1388 C1381 0.961 . S
H1389 C1381 0.960 . S
H1390 C1382 0.930 . S
H1391 C1383 0.929 . S
H1392 C1400 0.929 . S
H1393 C1402 0.930 . S
H1394 C1404 0.930 . S
H1395 C1407 0.929 . S
H1396 C1410 0.930 . S
H1397 C1412 0.960 . S
H1398 C1412 0.960 . S
H1399 C1412 0.960 . S
C1400 H1392 0.929 . S
C1400 C1401 1.377 . S
C1400 C1402 1.384 . S
C1401 C1400 1.377 . S
C1401 C1407 1.390 . S
C1402 H1393 0.930 . S
C1402 C1400 1.384 . S
C1402 C1403 1.372 . S
C1403 C1402 1.372 . S
C1403 C1404 1.400 . S
C1403 C1408 1.490 . S
C1404 H1394 0.930 . S
C1404 C1403 1.400 . S
C1404 C1407 1.386 . S
H1405 C1421 0.930 . S
H1406 C1422 0.931 . S
C1407 H1395 0.929 . S
C1407 C1401 1.390 . S
C1407 C1404 1.386 . S
C1408 C1403 1.490 . S
C1408 C1410 1.395 . S
C1408 C1411 1.403 . S
H1409 C1415 0.930 . S
C1410 H1396 0.930 . S
C1410 C1408 1.395 . S
C1410 C1413 1.403 . S
C1411 C1408 1.403 . S
C1411 C1412 1.524 . S
C1411 C1415 1.400 . S
C1412 H1397 0.960 . S
C1412 H1398 0.960 . S
C1412 H1399 0.960 . S
C1412 C1411 1.524 . S
C1413 C1410 1.403 . S
C1413 C1414 1.392 . S
C1413 C1417 1.495 . S
C1414 C1413 1.392 . S
C1414 C1415 1.385 . S
C1414 C1416 1.478 . S
C1415 H1409 0.930 . S
C1415 C1411 1.400 . S
C1415 C1414 1.385 . S
C1416 C1414 1.478 . S
C1416 C1418 1.381 . S
C1416 C1422 1.383 . S
C1417 C1413 1.495 . S
C1417 H1423 0.959 . S
C1417 H1424 0.961 . S
C1417 H1425 0.960 . S
C1418 C1416 1.381 . S
C1418 C1419 1.394 . S
C1418 H1426 0.930 . S
C1419 C1418 1.394 . S
C1419 C1420 1.383 . S
C1419 H1427 0.929 . S
C1420 C1419 1.383 . S
C1420 C1421 1.377 . S
C1421 H1405 0.930 . S
C1421 C1420 1.377 . S
C1421 C1422 1.379 . S
C1422 H1406 0.931 . S
C1422 C1416 1.383 . S
C1422 C1421 1.379 . S
H1423 C1417 0.959 . S
H1424 C1417 0.961 . S
H1425 C1417 0.960 . S
H1426 C1418 0.930 . S
H1427 C1419 0.929 . S
H1428 C1436 0.929 . S
H1429 C1438 0.930 . S
H1430 C1440 0.930 . S
H1431 C1443 0.929 . S
H1432 C1446 0.930 . S
H1433 C1448 0.960 . S
H1434 C1448 0.960 . S
H1435 C1448 0.960 . S
C1436 H1428 0.929 . S
C1436 C1437 1.377 . S
C1436 C1438 1.384 . S
C1437 C1436 1.377 . S
C1437 C1443 1.390 . S
C1438 H1429 0.930 . S
C1438 C1436 1.384 . S
C1438 C1439 1.372 . S
C1439 C1438 1.372 . S
C1439 C1440 1.400 . S
C1439 C1444 1.490 . S
C1440 H1430 0.930 . S
C1440 C1439 1.400 . S
C1440 C1443 1.386 . S
H1441 C1457 0.930 . S
H1442 C1458 0.931 . S
C1443 H1431 0.929 . S
C1443 C1437 1.390 . S
C1443 C1440 1.386 . S
C1444 C1439 1.490 . S
C1444 C1446 1.395 . S
C1444 C1447 1.403 . S
H1445 C1451 0.930 . S
C1446 H1432 0.930 . S
C1446 C1444 1.395 . S
C1446 C1449 1.403 . S
C1447 C1444 1.403 . S
C1447 C1448 1.524 . S
C1447 C1451 1.400 . S
C1448 H1433 0.960 . S
C1448 H1434 0.960 . S
C1448 H1435 0.960 . S
C1448 C1447 1.524 . S
C1449 C1446 1.403 . S
C1449 C1450 1.392 . S
C1449 C1453 1.495 . S
C1450 C1449 1.392 . S
C1450 C1451 1.385 . S
C1450 C1452 1.478 . S
C1451 H1445 0.930 . S
C1451 C1447 1.400 . S
C1451 C1450 1.385 . S
C1452 C1450 1.478 . S
C1452 C1454 1.381 . S
C1452 C1458 1.383 . S
C1453 C1449 1.495 . S
C1453 H1459 0.959 . S
C1453 H1460 0.961 . S
C1453 H1461 0.960 . S
C1454 C1452 1.381 . S
C1454 C1455 1.394 . S
C1454 H1462 0.930 . S
C1455 C1454 1.394 . S
C1455 C1456 1.383 . S
C1455 H1463 0.929 . S
C1456 C1455 1.383 . S
C1456 C1457 1.377 . S
C1457 H1441 0.930 . S
C1457 C1456 1.377 . S
C1457 C1458 1.379 . S
C1458 H1442 0.931 . S
C1458 C1452 1.383 . S
C1458 C1457 1.379 . S
H1459 C1453 0.959 . S
H1460 C1453 0.961 . S
H1461 C1453 0.960 . S
H1462 C1454 0.930 . S
H1463 C1455 0.929 . S
H1464 C1472 0.929 . S
H1465 C1474 0.930 . S
H1466 C1476 0.930 . S
H1467 C1479 0.929 . S
H1468 C1482 0.930 . S
H1469 C1484 0.960 . S
H1470 C1484 0.960 . S
H1471 C1484 0.960 . S
C1472 H1464 0.929 . S
C1472 C1473 1.377 . S
C1472 C1474 1.384 . S
C1473 C1472 1.377 . S
C1473 C1479 1.390 . S
C1474 H1465 0.930 . S
C1474 C1472 1.384 . S
C1474 C1475 1.372 . S
C1475 C1474 1.372 . S
C1475 C1476 1.400 . S
C1475 C1480 1.490 . S
C1476 H1466 0.930 . S
C1476 C1475 1.400 . S
C1476 C1479 1.386 . S
H1477 C1493 0.930 . S
H1478 C1494 0.931 . S
C1479 H1467 0.929 . S
C1479 C1473 1.390 . S
C1479 C1476 1.386 . S
C1480 C1475 1.490 . S
C1480 C1482 1.395 . S
C1480 C1483 1.403 . S
H1481 C1487 0.930 . S
C1482 H1468 0.930 . S
C1482 C1480 1.395 . S
C1482 C1485 1.403 . S
C1483 C1480 1.403 . S
C1483 C1484 1.524 . S
C1483 C1487 1.400 . S
C1484 H1469 0.960 . S
C1484 H1470 0.960 . S
C1484 H1471 0.960 . S
C1484 C1483 1.524 . S
C1485 C1482 1.403 . S
C1485 C1486 1.392 . S
C1485 C1489 1.495 . S
C1486 C1485 1.392 . S
C1486 C1487 1.385 . S
C1486 C1488 1.478 . S
C1487 H1481 0.930 . S
C1487 C1483 1.400 . S
C1487 C1486 1.385 . S
C1488 C1486 1.478 . S
C1488 C1490 1.381 . S
C1488 C1494 1.383 . S
C1489 C1485 1.495 . S
C1489 H1495 0.959 . S
C1489 H1496 0.961 . S
C1489 H1497 0.960 . S
C1490 C1488 1.381 . S
C1490 C1491 1.394 . S
C1490 H1498 0.930 . S
C1491 C1490 1.394 . S
C1491 C1492 1.383 . S
C1491 H1499 0.929 . S
C1492 C1491 1.383 . S
C1492 C1493 1.377 . S
C1493 H1477 0.930 . S
C1493 C1492 1.377 . S
C1493 C1494 1.379 . S
C1494 H1478 0.931 . S
C1494 C1488 1.383 . S
C1494 C1493 1.379 . S
H1495 C1489 0.959 . S
H1496 C1489 0.961 . S
H1497 C1489 0.960 . S
H1498 C1490 0.930 . S
H1499 C1491 0.929 . S
H1500 C1508 0.929 . S
H1501 C1510 0.930 . S
H1502 C1512 0.930 . S
H1503 C1515 0.929 . S
H1504 C1518 0.930 . S
H1505 C1520 0.960 . S
H1506 C1520 0.960 . S
H1507 C1520 0.960 . S
C1508 H1500 0.929 . S
C1508 C1509 1.377 . S
C1508 C1510 1.384 . S
C1509 C1508 1.377 . S
C1509 C1515 1.390 . S
C1510 H1501 0.930 . S
C1510 C1508 1.384 . S
C1510 C1511 1.372 . S
C1511 C1510 1.372 . S
C1511 C1512 1.400 . S
C1511 C1516 1.490 . S
C1512 H1502 0.930 . S
C1512 C1511 1.400 . S
C1512 C1515 1.386 . S
H1513 C1529 0.930 . S
H1514 C1530 0.931 . S
C1515 H1503 0.929 . S
C1515 C1509 1.390 . S
C1515 C1512 1.386 . S
C1516 C1511 1.490 . S
C1516 C1518 1.395 . S
C1516 C1519 1.403 . S
H1517 C1523 0.930 . S
C1518 H1504 0.930 . S
C1518 C1516 1.395 . S
C1518 C1521 1.403 . S
C1519 C1516 1.403 . S
C1519 C1520 1.524 . S
C1519 C1523 1.400 . S
C1520 H1505 0.960 . S
C1520 H1506 0.960 . S
C1520 H1507 0.960 . S
C1520 C1519 1.524 . S
C1521 C1518 1.403 . S
C1521 C1522 1.392 . S
C1521 C1525 1.495 . S
C1522 C1521 1.392 . S
C1522 C1523 1.385 . S
C1522 C1524 1.478 . S
C1523 H1517 0.930 . S
C1523 C1519 1.400 . S
C1523 C1522 1.385 . S
C1524 C1522 1.478 . S
C1524 C1526 1.381 . S
C1524 C1530 1.383 . S
C1525 C1521 1.495 . S
C1525 H1531 0.959 . S
C1525 H1532 0.961 . S
C1525 H1533 0.960 . S
C1526 C1524 1.381 . S
C1526 C1527 1.394 . S
C1526 H1534 0.930 . S
C1527 C1526 1.394 . S
C1527 C1528 1.383 . S
C1527 H1535 0.929 . S
C1528 C1527 1.383 . S
C1528 C1529 1.377 . S
C1529 H1513 0.930 . S
C1529 C1528 1.377 . S
C1529 C1530 1.379 . S
C1530 H1514 0.931 . S
C1530 C1524 1.383 . S
C1530 C1529 1.379 . S
H1531 C1525 0.959 . S
H1532 C1525 0.961 . S
H1533 C1525 0.960 . S
H1534 C1526 0.930 . S
H1535 C1527 0.929 . S
H1536 C1544 0.929 . S
H1537 C1546 0.930 . S
H1538 C1548 0.930 . S
H1539 C1551 0.929 . S
H1540 C1554 0.930 . S
H1541 C1556 0.960 . S
H1542 C1556 0.960 . S
H1543 C1556 0.960 . S
C1544 H1536 0.929 . S
C1544 C1545 1.377 . S
C1544 C1546 1.384 . S
C1545 C1544 1.377 . S
C1545 C1551 1.390 . S
C1546 H1537 0.930 . S
C1546 C1544 1.384 . S
C1546 C1547 1.372 . S
C1547 C1546 1.372 . S
C1547 C1548 1.400 . S
C1547 C1552 1.490 . S
C1548 H1538 0.930 . S
C1548 C1547 1.400 . S
C1548 C1551 1.386 . S
H1549 C1565 0.930 . S
H1550 C1566 0.931 . S
C1551 H1539 0.929 . S
C1551 C1545 1.390 . S
C1551 C1548 1.386 . S
C1552 C1547 1.490 . S
C1552 C1554 1.395 . S
C1552 C1555 1.403 . S
H1553 C1559 0.930 . S
C1554 H1540 0.930 . S
C1554 C1552 1.395 . S
C1554 C1557 1.403 . S
C1555 C1552 1.403 . S
C1555 C1556 1.524 . S
C1555 C1559 1.400 . S
C1556 H1541 0.960 . S
C1556 H1542 0.960 . S
C1556 H1543 0.960 . S
C1556 C1555 1.524 . S
C1557 C1554 1.403 . S
C1557 C1558 1.392 . S
C1557 C1561 1.495 . S
C1558 C1557 1.392 . S
C1558 C1559 1.385 . S
C1558 C1560 1.478 . S
C1559 H1553 0.930 . S
C1559 C1555 1.400 . S
C1559 C1558 1.385 . S
C1560 C1558 1.478 . S
C1560 C1562 1.381 . S
C1560 C1566 1.383 . S
C1561 C1557 1.495 . S
C1561 H1567 0.959 . S
C1561 H1568 0.961 . S
C1561 H1569 0.960 . S
C1562 C1560 1.381 . S
C1562 C1563 1.394 . S
C1562 H1570 0.930 . S
C1563 C1562 1.394 . S
C1563 C1564 1.383 . S
C1563 H1571 0.929 1_655 S
C1564 C1563 1.383 . S
C1564 C1565 1.377 . S
C1565 H1549 0.930 . S
C1565 C1564 1.377 . S
C1565 C1566 1.379 . S
C1566 H1550 0.931 . S
C1566 C1560 1.383 . S
C1566 C1565 1.379 . S
H1567 C1561 0.959 . S
H1568 C1561 0.961 . S
H1569 C1561 0.960 . S
H1570 C1562 0.930 . S
H1571 C1563 0.929 1_455 S
H1572 C1580 0.929 . S
H1573 C1582 0.930 . S
H1574 C1584 0.930 . S
H1575 C1587 0.929 . S
H1576 C1590 0.930 . S
H1577 C1592 0.960 . S
H1578 C1592 0.960 . S
H1579 C1592 0.960 . S
C1580 H1572 0.929 . S
C1580 C1581 1.377 . S
C1580 C1582 1.384 . S
C1581 C1580 1.377 . S
C1581 C1587 1.390 . S
C1582 H1573 0.930 . S
C1582 C1580 1.384 . S
C1582 C1583 1.372 . S
C1583 C1582 1.372 . S
C1583 C1584 1.400 . S
C1583 C1588 1.490 . S
C1584 H1574 0.930 . S
C1584 C1583 1.400 . S
C1584 C1587 1.386 . S
H1585 C1601 0.930 1_545 S
H1586 C1602 0.936 . S
C1587 H1575 0.929 . S
C1587 C1581 1.390 . S
C1587 C1584 1.386 . S
C1588 C1583 1.490 . S
C1588 C1590 1.395 . S
C1588 C1591 1.403 . S
H1589 C1595 0.930 . S
C1590 H1576 0.930 . S
C1590 C1588 1.395 . S
C1590 C1593 1.403 . S
C1591 C1588 1.403 . S
C1591 C1592 1.524 . S
C1591 C1595 1.400 . S
C1592 H1577 0.960 . S
C1592 H1578 0.960 . S
C1592 H1579 0.960 . S
C1592 C1591 1.524 . S
C1593 C1590 1.403 . S
C1593 C1594 1.392 . S
C1593 C1597 1.495 . S
C1594 C1593 1.392 . S
C1594 C1595 1.385 . S
C1594 C1596 1.478 . S
C1595 H1589 0.930 . S
C1595 C1591 1.400 . S
C1595 C1594 1.385 . S
C1596 C1594 1.478 . S
C1596 C1598 1.381 . S
C1596 C1602 1.383 . S
C1597 C1593 1.495 . S
C1597 H1603 0.959 . S
C1597 H1604 0.961 . S
C1597 H1605 0.960 . S
C1598 C1596 1.381 . S
C1598 C1599 1.394 . S
C1598 H1606 0.930 . S
C1599 C1598 1.394 . S
C1599 C1600 1.383 . S
C1599 H1607 0.929 . S
C1600 C1599 1.383 . S
C1600 C1601 1.377 . S
C1601 H1585 0.930 1_565 S
C1601 C1600 1.377 . S
C1601 C1602 1.379 . S
C1602 H1586 0.936 . S
C1602 C1596 1.383 . S
C1602 C1601 1.379 . S
H1603 C1597 0.959 . S
H1604 C1597 0.961 . S
H1605 C1597 0.960 . S
H1606 C1598 0.930 . S
H1607 C1599 0.929 . S
H1608 C1616 0.929 . S
H1609 C1618 0.930 . S
H1610 C1620 0.930 . S
H1611 C1623 0.929 . S
H1612 C1626 0.930 . S
H1613 C1628 0.960 . S
H1614 C1628 0.960 . S
H1615 C1628 0.960 . S
C1616 H1608 0.929 . S
C1616 C1617 1.377 . S
C1616 C1618 1.384 . S
C1617 C1616 1.377 . S
C1617 C1623 1.390 . S
C1618 H1609 0.930 . S
C1618 C1616 1.384 . S
C1618 C1619 1.372 . S
C1619 C1618 1.372 . S
C1619 C1620 1.400 . S
C1619 C1624 1.490 . S
C1620 H1610 0.930 . S
C1620 C1619 1.400 . S
C1620 C1623 1.386 . S
H1621 C1637 0.930 . S
H1622 C1638 0.931 . S
C1623 H1611 0.929 . S
C1623 C1617 1.390 . S
C1623 C1620 1.386 . S
C1624 C1619 1.490 . S
C1624 C1626 1.395 . S
C1624 C1627 1.403 . S
H1625 C1631 0.930 . S
C1626 H1612 0.930 . S
C1626 C1624 1.395 . S
C1626 C1629 1.403 . S
C1627 C1624 1.403 . S
C1627 C1628 1.524 . S
C1627 C1631 1.400 . S
C1628 H1613 0.960 . S
C1628 H1614 0.960 . S
C1628 H1615 0.960 . S
C1628 C1627 1.524 . S
C1629 C1626 1.403 . S
C1629 C1630 1.392 . S
C1629 C1633 1.495 . S
C1630 C1629 1.392 . S
C1630 C1631 1.385 . S
C1630 C1632 1.478 . S
C1631 H1625 0.930 . S
C1631 C1627 1.400 . S
C1631 C1630 1.385 . S
C1632 C1630 1.478 . S
C1632 C1634 1.381 . S
C1632 C1638 1.383 . S
C1633 C1629 1.495 . S
C1633 H1639 0.959 . S
C1633 H1640 0.961 . S
C1633 H1641 0.960 . S
C1634 C1632 1.381 . S
C1634 C1635 1.394 . S
C1634 H1642 0.930 . S
C1635 C1634 1.394 . S
C1635 C1636 1.383 . S
C1635 H1643 0.929 . S
C1636 C1635 1.383 . S
C1636 C1637 1.377 . S
C1637 H1621 0.930 . S
C1637 C1636 1.377 . S
C1637 C1638 1.379 . S
C1638 H1622 0.931 . S
C1638 C1632 1.383 . S
C1638 C1637 1.379 . S
H1639 C1633 0.959 . S
H1640 C1633 0.961 . S
H1641 C1633 0.960 . S
H1642 C1634 0.930 . S
H1643 C1635 0.929 . S
H1644 C1652 0.929 . S
H1645 C1654 0.930 . S
H1646 C1656 0.930 . S
H1647 C1659 0.929 . S
H1648 C1662 0.930 . S
H1649 C1664 0.960 . S
H1650 C1664 0.960 . S
H1651 C1664 0.960 . S
C1652 H1644 0.929 . S
C1652 C1653 1.377 . S
C1652 C1654 1.384 . S
C1653 C1652 1.377 . S
C1653 C1659 1.390 . S
C1654 H1645 0.930 . S
C1654 C1652 1.384 . S
C1654 C1655 1.372 . S
C1655 C1654 1.372 . S
C1655 C1656 1.400 . S
C1655 C1660 1.490 . S
C1656 H1646 0.930 . S
C1656 C1655 1.400 . S
C1656 C1659 1.386 . S
H1657 C1673 0.930 . S
H1658 C1674 0.931 . S
C1659 H1647 0.929 . S
C1659 C1653 1.390 . S
C1659 C1656 1.386 . S
C1660 C1655 1.490 . S
C1660 C1662 1.395 . S
C1660 C1663 1.403 . S
H1661 C1667 0.930 . S
C1662 H1648 0.930 . S
C1662 C1660 1.395 . S
C1662 C1665 1.403 . S
C1663 C1660 1.403 . S
C1663 C1664 1.524 . S
C1663 C1667 1.400 . S
C1664 H1649 0.960 . S
C1664 H1650 0.960 . S
C1664 H1651 0.960 . S
C1664 C1663 1.524 . S
C1665 C1662 1.403 . S
C1665 C1666 1.392 . S
C1665 C1669 1.495 . S
C1666 C1665 1.392 . S
C1666 C1667 1.385 . S
C1666 C1668 1.478 . S
C1667 H1661 0.930 . S
C1667 C1663 1.400 . S
C1667 C1666 1.385 . S
C1668 C1666 1.478 . S
C1668 C1670 1.381 . S
C1668 C1674 1.383 . S
C1669 C1665 1.495 . S
C1669 H1675 0.959 . S
C1669 H1676 0.961 . S
C1669 H1677 0.960 . S
C1670 C1668 1.381 . S
C1670 C1671 1.394 . S
C1670 H1678 0.930 . S
C1671 C1670 1.394 . S
C1671 C1672 1.383 . S
C1671 H1679 0.929 . S
C1672 C1671 1.383 . S
C1672 C1673 1.377 . S
C1673 H1657 0.930 . S
C1673 C1672 1.377 . S
C1673 C1674 1.379 . S
C1674 H1658 0.931 . S
C1674 C1668 1.383 . S
C1674 C1673 1.379 . S
H1675 C1669 0.959 . S
H1676 C1669 0.961 . S
H1677 C1669 0.960 . S
H1678 C1670 0.930 . S
H1679 C1671 0.929 . S
C825 C391 2.160 . S
C844 C555 2.085 . S
C880 C639 2.157 . S
C861 C451 2.187 . S
C916 C715 2.114 . S
C897 C241 2.054 . S
C952 C799 2.088 . S
C933 C331 2.030 . S
C988 C546 2.126 1_565 S
C969 C121 1.956 . S
C1005 C211 2.124 . S
C1024 C630 2.120 . S
C1041 C31 2.259 . S
C1060 C704 2.124 . S
C1077 C91 2.086 . S
C1096 C788 2.088 . S
C1132 C543 0.374 1_455 S
C1113 C301 0.599 . S
C1168 C627 0.385 1_545 S
C1149 C380 0.334 . S
C1204 C720 0.441 . S
C1185 C440 0.275 . S
C1221 C260 0.578 . S
C1240 C804 0.411 . S
C1257 C61 0.486 . S
C1276 C552 0.503 . S
C1312 C636 0.358 . S
C1293 C140 0.424 . S
C1348 C711 0.392 . S
C1329 C200 0.490 . S
C1365 C20 0.503 . S
C1384 C795 0.430 . S
C1401 C320 2.681 . S
C1420 C536 2.709 . S
C1437 C361 2.384 . S
C1456 C620 2.664 . S
C1492 C714 2.643 . S
C1473 C421 2.252 . S
C1528 C798 2.687 . S
C1509 C271 2.542 . S
C1545 C80 2.738 . S
C1564 C547 2.699 . S
C1600 C631 2.633 . S
C1581 C151 2.685 . S
C1636 C723 2.662 . S
C1617 C181 2.188 . S
C1653 C1 2.237 . S
C1672 C807 2.682 . S
