# Generated by pormake.
# Topology dag, (6,3)-cn, num edge types: 1
# Building blocks:
#     Node 0, Type 0, BuildingBlock: IZENUY_clean_sbu_0, # of connection points: 6
#     Node 1, Type 0, BuildingBlock: IZENUY_clean_sbu_0, # of connection points: 6
#     Node 2, Type 0, BuildingBlock: IZENUY_clean_sbu_0, # of connection points: 6
#     Node 3, Type 0, BuildingBlock: IZENUY_clean_sbu_0, # of connection points: 6
#     Node 4, Type 1, BuildingBlock: BETDAH_clean_linker_0, # of connection points: 3
#     Node 5, Type 1, BuildingBlock: BETDAH_clean_linker_0, # of connection points: 3
#     Node 6, Type 1, BuildingBlock: BETDAH_clean_linker_0, # of connection points: 3
#     Node 7, Type 1, BuildingBlock: BETDAH_clean_linker_0, # of connection points: 3
#     Node 8, Type 1, BuildingBlock: BETDAH_clean_linker_0, # of connection points: 3
#     Node 9, Type 1, BuildingBlock: BETDAH_clean_linker_0, # of connection points: 3
#     Node 10, Type 1, BuildingBlock: BETDAH_clean_linker_0, # of connection points: 3
#     Node 11, Type 1, BuildingBlock: BETDAH_clean_linker_0, # of connection points: 3
#     Edge 12, Type (0, 1), BuildingBlock: CIFDUS_clean_linker_0, # of connection points: 2
#     Edge 13, Type (0, 1), BuildingBlock: CIFDUS_clean_linker_0, # of connection points: 2
#     Edge 14, Type (0, 1), BuildingBlock: CIFDUS_clean_linker_0, # of connection points: 2
#     Edge 15, Type (0, 1), BuildingBlock: CIFDUS_clean_linker_0, # of connection points: 2
#     Edge 16, Type (0, 1), BuildingBlock: CIFDUS_clean_linker_0, # of connection points: 2
#     Edge 17, Type (0, 1), BuildingBlock: CIFDUS_clean_linker_0, # of connection points: 2
#     Edge 18, Type (0, 1), BuildingBlock: CIFDUS_clean_linker_0, # of connection points: 2
#     Edge 19, Type (0, 1), BuildingBlock: CIFDUS_clean_linker_0, # of connection points: 2
#     Edge 20, Type (0, 1), BuildingBlock: CIFDUS_clean_linker_0, # of connection points: 2
#     Edge 21, Type (0, 1), BuildingBlock: CIFDUS_clean_linker_0, # of connection points: 2
#     Edge 22, Type (0, 1), BuildingBlock: CIFDUS_clean_linker_0, # of connection points: 2
#     Edge 23, Type (0, 1), BuildingBlock: CIFDUS_clean_linker_0, # of connection points: 2
#     Edge 24, Type (0, 1), BuildingBlock: CIFDUS_clean_linker_0, # of connection points: 2
#     Edge 25, Type (0, 1), BuildingBlock: CIFDUS_clean_linker_0, # of connection points: 2
#     Edge 26, Type (0, 1), BuildingBlock: CIFDUS_clean_linker_0, # of connection points: 2
#     Edge 27, Type (0, 1), BuildingBlock: CIFDUS_clean_linker_0, # of connection points: 2
#     Edge 28, Type (0, 1), BuildingBlock: CIFDUS_clean_linker_0, # of connection points: 2
#     Edge 29, Type (0, 1), BuildingBlock: CIFDUS_clean_linker_0, # of connection points: 2
#     Edge 30, Type (0, 1), BuildingBlock: CIFDUS_clean_linker_0, # of connection points: 2
#     Edge 31, Type (0, 1), BuildingBlock: CIFDUS_clean_linker_0, # of connection points: 2
#     Edge 32, Type (0, 1), BuildingBlock: CIFDUS_clean_linker_0, # of connection points: 2
#     Edge 33, Type (0, 1), BuildingBlock: CIFDUS_clean_linker_0, # of connection points: 2
#     Edge 34, Type (0, 1), BuildingBlock: CIFDUS_clean_linker_0, # of connection points: 2
#     Edge 35, Type (0, 1), BuildingBlock: CIFDUS_clean_linker_0, # of connection points: 2
# Relax obj value: 0.093
# Max RMSD: 0.105
# Mean RMSD: 0.090
data_MOF--net-dag--node1-IZENUY_clean_sbu_0--node2-BETDAH_clean_linker_0--edge1-CIFDUS_clean_linker_0
_symmetry_space_group_name_H-M    P1
_symmetry_Int_Tables_number       1
_symmetry_cell_setting            triclinic
loop_
_symmetry_equiv_pos_as_xyz
'x, y, z'
_cell_length_a     33.854156
_cell_length_b     36.002813
_cell_length_c     31.181852
_cell_angle_alpha  94.293348
_cell_angle_beta   90.077573
_cell_angle_gamma 89.857338
loop_
_atom_site_label
_atom_site_type_symbol
_atom_site_fract_x
_atom_site_fract_y
_atom_site_fract_z
_atom_type_partial_charge
Fe0 Fe 0.17072 0.85291 0.08005 0.0
Fe1 Fe 0.08325 0.87449 0.07633 0.0
O2 O 0.12065 0.84032 0.06971 0.0
Fe3 Fe 0.10714 0.79394 0.05236 0.0
O4 O 0.12812 0.77645 0.09988 0.0
O5 O 0.1837 0.80853 0.10318 0.0
O6 O 0.16074 0.87196 0.13478 0.0
C7 C 0.13558 0.8971 0.14397 0.0
C8 C 0.17887 0.80436 0.00774 0.0
O9 O 0.10866 0.90379 0.11772 0.0
C10 C 0.05586 0.83044 0.00346 0.0
O11 O 0.16571 0.89914 0.05809 0.0
O12 O 0.10429 0.89986 0.03417 0.0
O13 O 0.15246 0.78325 0.02111 0.0
O14 O 0.18545 0.83585 0.0266 0.0
C15 C 0.04676 0.81783 0.11228 0.0
O16 O 0.04964 0.85255 0.03609 0.0
O17 O 0.08466 0.80817 0.00284 0.0
C18 C 0.13945 0.91147 0.0335 0.0
O19 O 0.06076 0.85024 0.11877 0.0
O20 O 0.05922 0.79616 0.08107 0.0
C21 C 0.16249 0.78186 0.11459 0.0
Fe22 Fe 0.69077 0.64822 0.48111 0.0
Fe23 Fe 0.6225 0.70534 0.48678 0.0
O24 O 0.63928 0.6585 0.48308 0.0
Fe25 Fe 0.60427 0.62231 0.48096 0.0
O26 O 0.62427 0.60419 0.52857 0.0
O27 O 0.68685 0.6054 0.51009 0.0
O28 O 0.69918 0.67416 0.5327 0.0
C29 C 0.69042 0.70812 0.5404 0.0
C30 C 0.66275 0.59488 0.42141 0.0
O31 O 0.66561 0.72366 0.51708 0.0
C32 C 0.5662 0.6694 0.4307 0.0
O33 O 0.70327 0.68891 0.45103 0.0
O34 O 0.6453 0.71278 0.43598 0.0
O35 O 0.63349 0.59017 0.44553 0.0
O36 O 0.68666 0.62133 0.42943 0.0
C37 C 0.5733 0.67549 0.54372 0.0
O38 O 0.57586 0.69611 0.4573 0.0
O39 O 0.58197 0.63795 0.43276 0.0
C40 C 0.68159 0.70833 0.42798 0.0
O41 O 0.59853 0.70031 0.53793 0.0
O42 O 0.56872 0.64782 0.51661 0.0
C43 C 0.65914 0.59271 0.53206 0.0
Fe44 Fe 0.89193 0.20916 1.00132 0.0
Fe45 Fe 0.89941 0.12447 0.98687 0.0
O46 O 0.86986 0.16488 0.99012 0.0
Fe47 Fe 0.81816 0.1605 0.98211 0.0
O48 O 0.8203 0.1884 0.93655 0.0
O49 O 0.85719 0.23333 0.96718 0.0
O50 O 0.92426 0.20344 0.95461 0.0
C51 C 0.94698 0.17596 0.94708 0.0
C52 C 0.82443 0.21765 0.04966 0.0
O53 O 0.94325 0.14689 0.96692 0.0
C54 C 0.83112 0.10152 0.02935 0.0
O55 O 0.9304 0.19209 0.0372 0.0
O56 O 0.9149 0.13319 0.04216 0.0
O57 O 0.80509 0.20117 0.01902 0.0
O58 O 0.86165 0.21827 0.04887 0.0
C59 C 0.85045 0.10724 0.91969 0.0
O60 O 0.86113 0.09406 0.00619 0.0
O61 O 0.81312 0.13206 0.02759 0.0
C62 C 0.93211 0.16246 0.05688 0.0
O63 O 0.88549 0.11388 0.93136 0.0
O64 O 0.82178 0.11883 0.94338 0.0
C65 C 0.83478 0.22066 0.93681 0.0
Fe66 Fe 0.39119 0.38352 0.57095 0.0
Fe67 Fe 0.30755 0.35479 0.58512 0.0
O68 O 0.35872 0.34595 0.57642 0.0
Fe69 Fe 0.37751 0.29968 0.57334 0.0
O70 O 0.41074 0.30972 0.61876 0.0
O71 O 0.43355 0.36166 0.59544 0.0
O72 O 0.37908 0.40346 0.62422 0.0
C73 C 0.34482 0.41256 0.6368 0.0
C74 C 0.42055 0.3339 0.5087 0.0
O75 O 0.31466 0.39992 0.61649 0.0
C76 C 0.30893 0.29022 0.52702 0.0
O77 O 0.355 0.41265 0.5454 0.0
O78 O 0.30251 0.37727 0.53505 0.0
O79 O 0.41681 0.30834 0.5343 0.0
O80 O 0.40532 0.36555 0.51739 0.0
C81 C 0.32084 0.30048 0.64048 0.0
O82 O 0.29134 0.3114 0.55528 0.0
O83 O 0.34598 0.28649 0.52777 0.0
C84 C 0.32352 0.40418 0.5252 0.0
O85 O 0.30902 0.33316 0.63569 0.0
O86 O 0.34164 0.28289 0.61181 0.0
C87 C 0.43549 0.33592 0.62076 0.0
H88 H 0.10567 0.08875 0.20003 0.0
H89 H 0.20793 0.11613 0.27814 0.0
H90 H 0.13594 0.20331 0.23208 0.0
C91 C 0.12388 0.10948 0.21754 0.0
C92 C 0.1159 0.1474 0.21406 0.0
C93 C 0.15687 0.0978 0.24053 0.0
C94 C 0.18188 0.12475 0.26123 0.0
C95 C 0.17391 0.1629 0.25826 0.0
C96 C 0.14136 0.17385 0.23446 0.0
N97 N 0.1996 0.19116 0.27569 0.0
C98 C 0.21958 0.19049 0.31454 0.0
H99 H 0.3998 0.59246 0.698 0.0
H100 H 0.40677 0.70761 0.74465 0.0
H101 H 0.3081 0.64058 0.77945 0.0
C102 C 0.38829 0.61617 0.71765 0.0
C103 C 0.35254 0.61235 0.73948 0.0
C104 C 0.40841 0.65018 0.71923 0.0
C105 C 0.39175 0.68099 0.74288 0.0
C106 C 0.35592 0.67783 0.76496 0.0
C107 C 0.33604 0.64332 0.76311 0.0
N108 N 0.34079 0.71038 0.78769 0.0
C109 C 0.3103 0.71171 0.81757 0.0
H110 H 0.86147 0.90133 0.13703 0.0
H111 H 0.80928 0.84899 0.24237 0.0
H112 H 0.74617 0.9355 0.18253 0.0
C113 C 0.83643 0.89806 0.15809 0.0
C114 C 0.80331 0.92121 0.1554 0.0
C115 C 0.83875 0.87217 0.18935 0.0
C116 C 0.80719 0.86867 0.21782 0.0
C117 C 0.77348 0.89146 0.2149 0.0
C118 C 0.77205 0.91787 0.18421 0.0
N119 N 0.74077 0.88929 0.2428 0.0
C120 C 0.73255 0.85854 0.2654 0.0
H121 H 0.63102 0.40867 0.6571 0.0
H122 H 0.68869 0.31284 0.70298 0.0
H123 H 0.75786 0.40343 0.66107 0.0
C124 C 0.65794 0.3943 0.665 0.0
C125 C 0.69464 0.41059 0.6572 0.0
C126 C 0.65537 0.35888 0.68077 0.0
C127 C 0.69028 0.34033 0.69114 0.0
C128 C 0.72727 0.35705 0.68494 0.0
C129 C 0.7292 0.39162 0.66729 0.0
N130 N 0.76319 0.33927 0.69462 0.0
C131 C 0.76698 0.3162 0.72804 0.0
H132 H 0.57309 0.42221 0.33593 0.0
H133 H 0.67448 0.38205 0.26341 0.0
H134 H 0.59015 0.30458 0.30878 0.0
C135 C 0.58944 0.39917 0.32006 0.0
C136 C 0.57655 0.36266 0.3241 0.0
C137 C 0.62454 0.40654 0.2984 0.0
C138 C 0.64696 0.37666 0.27947 0.0
C139 C 0.6341 0.33972 0.28287 0.0
C140 C 0.59942 0.33305 0.30574 0.0
N141 N 0.65633 0.30836 0.26634 0.0
C142 C 0.67954 0.30674 0.22945 0.0
H143 H 0.13771 0.10601 0.929 0.0
H144 H 0.20196 0.18816 0.86459 0.0
H145 H 0.26295 0.09342 0.91006 0.0
C146 C 0.16532 0.1156 0.91613 0.0
C147 C 0.20002 0.0951 0.92139 0.0
C148 C 0.16576 0.14906 0.89587 0.0
C149 C 0.20149 0.16222 0.88008 0.0
C150 C 0.23664 0.14186 0.88504 0.0
C151 C 0.2358 0.10888 0.90642 0.0
N152 N 0.27343 0.15391 0.86945 0.0
C153 C 0.27737 0.1741 0.83342 0.0
H154 H 0.38653 0.55744 0.36039 0.0
H155 H 0.33447 0.65431 0.31079 0.0
H156 H 0.2602 0.5672 0.35324 0.0
C157 C 0.36045 0.57218 0.35058 0.0
C158 C 0.32298 0.55738 0.35783 0.0
C159 C 0.36488 0.607 0.3338 0.0
C160 C 0.33117 0.62714 0.32311 0.0
C161 C 0.29328 0.61249 0.32967 0.0
C162 C 0.28944 0.57803 0.34767 0.0
N163 N 0.25839 0.63217 0.32005 0.0
C164 C 0.25625 0.65943 0.29076 0.0
H165 H 0.89289 0.90085 0.86155 0.0
H166 H 0.91885 0.82054 0.75584 0.0
H167 H 0.8381 0.91068 0.73868 0.0
C168 C 0.88757 0.88954 0.82883 0.0
C169 C 0.86211 0.90866 0.80265 0.0
C170 C 0.90861 0.85792 0.81236 0.0
C171 C 0.9026 0.84462 0.76931 0.0
C172 C 0.87637 0.86307 0.7431 0.0
C173 C 0.85686 0.89552 0.75954 0.0
N174 N 0.87302 0.85151 0.69891 0.0
C175 C 0.84751 0.82325 0.68398 0.0
H176 H 0.20062 0.93927 0.16244 0.0
H177 H 0.08191 0.91903 0.20427 0.0
H178 H 0.08145 0.97855 0.24732 0.0
H179 H 0.10907 0.04126 0.25943 0.0
H180 H 0.22551 0.06418 0.21282 0.0
H181 H 0.23324 0.9988 0.18628 0.0
C182 C 0.17546 0.94725 0.18262 0.0
C183 C 0.1414 0.92489 0.18053 0.0
C184 C 0.17476 0.98243 0.2057 0.0
C185 C 0.1085 0.93579 0.20581 0.0
C186 C 0.1081 0.96998 0.23003 0.0
C187 C 0.13663 0.03156 0.24474 0.0
C188 C 0.1665 0.05744 0.23763 0.0
C189 C 0.14018 0.99435 0.22823 0.0
C190 C 0.20216 0.0447 0.21875 0.0
C191 C 0.20638 0.00739 0.20313 0.0
H192 H 0.55755 0.6252 0.60036 0.0
H193 H 0.52744 0.73585 0.5676 0.0
H194 H 0.47486 0.73935 0.62197 0.0
H195 H 0.43353 0.70788 0.67346 0.0
H196 H 0.46791 0.59884 0.70954 0.0
H197 H 0.52291 0.59782 0.65935 0.0
C198 C 0.53976 0.65024 0.6057 0.0
C199 C 0.54578 0.68007 0.58009 0.0
C200 C 0.51022 0.65217 0.63724 0.0
C201 C 0.52311 0.71262 0.58724 0.0
C202 C 0.49303 0.71451 0.6181 0.0
C203 C 0.45356 0.68428 0.67118 0.0
C204 C 0.44576 0.65303 0.69445 0.0
C205 C 0.48574 0.68407 0.64265 0.0
C206 C 0.47228 0.62276 0.69099 0.0
C207 C 0.50393 0.62218 0.66245 0.0
H208 H 0.8356 0.02785 0.00962 0.0
H209 H 0.79188 0.1096 0.10623 0.0
H210 H 0.77543 0.0599 0.15293 0.0
H211 H 0.78094 0.99389 0.16891 0.0
H212 H 0.82489 0.91299 0.07122 0.0
H213 H 0.83389 0.96187 0.02207 0.0
C214 C 0.82213 0.03476 0.04078 0.0
C215 C 0.81551 0.07218 0.05497 0.0
C216 C 0.81317 0.00629 0.06724 0.0
C217 C 0.79729 0.08087 0.09486 0.0
C218 C 0.78813 0.05252 0.12155 0.0
C219 C 0.79164 0.98689 0.13654 0.0
C220 C 0.80284 0.95001 0.12389 0.0
C221 C 0.79696 0.01521 0.10849 0.0
C222 C 0.81684 0.94132 0.08193 0.0
C223 C 0.8219 0.96919 0.05381 0.0
H224 H 0.4967 0.28688 0.61723 0.0
H225 H 0.45224 0.38662 0.68561 0.0
H226 H 0.51678 0.39844 0.71886 0.0
H227 H 0.58805 0.38716 0.71688 0.0
H228 H 0.63449 0.29067 0.64362 0.0
H229 H 0.56734 0.27003 0.62496 0.0
C230 C 0.50097 0.31028 0.64078 0.0
C231 C 0.46995 0.33575 0.64944 0.0
C232 C 0.53876 0.31772 0.65835 0.0
C233 C 0.47576 0.36656 0.679 0.0
C234 C 0.51271 0.37346 0.69769 0.0
C235 C 0.58332 0.36104 0.69789 0.0
C236 C 0.61605 0.3407 0.68119 0.0
C237 C 0.54482 0.35026 0.68593 0.0
C238 C 0.60971 0.30675 0.65694 0.0
C239 C 0.57131 0.2952 0.64583 0.0
H240 H 0.62027 0.57479 0.3506 0.0
H241 H 0.72384 0.54604 0.42124 0.0
H242 H 0.72657 0.48495 0.38093 0.0
H243 H 0.69072 0.43583 0.33677 0.0
H244 H 0.58642 0.46508 0.26744 0.0
H245 H 0.59337 0.53013 0.29459 0.0
C246 C 0.64433 0.55564 0.35576 0.0
C247 C 0.6719 0.56467 0.38851 0.0
C248 C 0.6453 0.52052 0.33287 0.0
C249 C 0.70268 0.53969 0.39565 0.0
C250 C 0.70395 0.50464 0.37292 0.0
C251 C 0.67072 0.45683 0.32605 0.0
C252 C 0.63799 0.44578 0.30039 0.0
C253 C 0.67429 0.4941 0.3429 0.0
C254 C 0.61185 0.47308 0.28713 0.0
C255 C 0.61555 0.51018 0.30307 0.0
H256 H 0.00898 0.22346 0.95765 0.0
H257 H 0.96345 0.13102 0.87689 0.0
H258 H 0.02866 0.1197 0.84512 0.0
H259 H 0.10018 0.12724 0.85264 0.0
H260 H 0.14736 0.21602 0.93747 0.0
H261 H 0.08034 0.23843 0.95468 0.0
C262 C 0.0132 0.20198 0.93175 0.0
C263 C 0.98175 0.17814 0.91932 0.0
C264 C 0.05128 0.19463 0.91499 0.0
C265 C 0.98741 0.14975 0.88656 0.0
C266 C 0.02471 0.1431 0.86871 0.0
C267 C 0.09565 0.1524 0.87348 0.0
C268 C 0.12829 0.16998 0.8939 0.0
C269 C 0.05718 0.16405 0.88439 0.0
C270 C 0.12248 0.20232 0.92119 0.0
C271 C 0.08416 0.21479 0.93141 0.0
H272 H 0.35576 0.41 0.44768 0.0
H273 H 0.26343 0.45453 0.53135 0.0
H274 H 0.2515 0.50466 0.4836 0.0
H275 H 0.27386 0.54004 0.4231 0.0
H276 H 0.36587 0.49408 0.33922 0.0
H277 H 0.37119 0.44008 0.3816 0.0
C278 C 0.33233 0.43017 0.45466 0.0
C279 C 0.31029 0.42876 0.49251 0.0
C280 C 0.32599 0.45885 0.42732 0.0
C281 C 0.28029 0.45504 0.50189 0.0
C282 C 0.27376 0.48379 0.47481 0.0
C283 C 0.29428 0.51773 0.41341 0.0
C284 C 0.31999 0.52151 0.37852 0.0
C285 C 0.29728 0.48662 0.43808 0.0
C286 C 0.34638 0.49231 0.36651 0.0
C287 C 0.34942 0.46135 0.39067 0.0
H288 H 0.06264 0.82239 0.91557 0.0
H289 H 0.9779 0.82958 0.01908 0.0
H290 H 0.92389 0.83272 0.96789 0.0
H291 H 0.90127 0.84146 0.89514 0.0
H292 H 0.985 0.83901 0.79101 0.0
H293 H 0.03848 0.82499 0.84037 0.0
C294 C 0.03226 0.82386 0.92659 0.0
C295 C 0.0242 0.82616 0.97093 0.0
C296 C 0.00113 0.82673 0.89685 0.0
C297 C 0.98479 0.82825 0.98505 0.0
C298 C 0.95387 0.83004 0.95584 0.0
C299 C 0.93116 0.83734 0.88316 0.0
C300 C 0.93923 0.8417 0.83967 0.0
C301 C 0.96178 0.83059 0.91187 0.0
C302 C 0.97797 0.83566 0.82437 0.0
C303 C 0.00864 0.82803 0.85269 0.0
H304 H 0.80635 0.04513 0.92358 0.0
H305 H 0.88459 0.10126 0.84098 0.0
H306 H 0.88912 0.04506 0.79195 0.0
H307 H 0.87977 0.97733 0.77942 0.0
H308 H 0.80839 0.9195 0.86703 0.0
H309 H 0.7917 0.97864 0.90702 0.0
C310 C 0.82318 0.04533 0.894 0.0
C311 C 0.84473 0.07725 0.88544 0.0
C312 C 0.82732 0.0123 0.86727 0.0
C313 C 0.86747 0.077 0.8478 0.0
C314 C 0.87031 0.04481 0.82002 0.0
C315 C 0.85954 0.97801 0.80643 0.0
C316 C 0.84492 0.94442 0.82016 0.0
C317 C 0.85166 0.01188 0.83033 0.0
C318 C 0.81957 0.94523 0.85581 0.0
C319 C 0.81028 0.97896 0.87878 0.0
H320 H 0.42329 0.37379 0.43836 0.0
H321 H 0.48107 0.2836 0.49742 0.0
H322 H 0.53287 0.28201 0.44274 0.0
H323 H 0.56544 0.31096 0.38291 0.0
H324 H 0.50648 0.4003 0.32335 0.0
H325 H 0.45153 0.39745 0.37345 0.0
C326 C 0.44697 0.35348 0.43899 0.0
C327 C 0.44857 0.3292 0.47224 0.0
C328 C 0.4767 0.3528 0.40758 0.0
C329 C 0.47915 0.30268 0.47222 0.0
C330 C 0.50892 0.30187 0.44108 0.0
C331 C 0.54017 0.3292 0.38021 0.0
C332 C 0.54049 0.35626 0.34986 0.0
C333 C 0.50852 0.32744 0.40922 0.0
C334 C 0.50746 0.37978 0.34702 0.0
C335 C 0.47594 0.37812 0.37559 0.0
H336 H 0.2027 0.95913 0.03899 0.0
H337 H 0.09662 0.93275 0.96592 0.0
H338 H 0.10795 0.98533 0.92292 0.0
H339 H 0.14558 0.04053 0.90823 0.0
H340 H 0.25009 0.06972 0.98233 0.0
H341 H 0.24235 0.01389 0.02193 0.0
C342 C 0.18229 0.96474 0.01342 0.0
C343 C 0.14864 0.94219 0.00606 0.0
C344 C 0.18869 0.9955 0.98892 0.0
C345 C 0.12248 0.94987 0.97274 0.0
C346 C 0.12896 0.97991 0.94798 0.0
C347 C 0.16666 0.03476 0.93313 0.0
C348 C 0.19807 0.0595 0.94266 0.0
C349 C 0.16154 0.00323 0.95625 0.0
C350 C 0.2257 0.05108 0.97424 0.0
C351 C 0.22111 0.0193 0.99711 0.0
H352 H 0.54505 0.62443 0.36099 0.0
H353 H 0.5054 0.71934 0.44244 0.0
H354 H 0.43914 0.7129 0.41172 0.0
H355 H 0.39009 0.67244 0.37282 0.0
H356 H 0.4297 0.576 0.29425 0.0
H357 H 0.49838 0.59125 0.31192 0.0
C358 C 0.52213 0.64425 0.37127 0.0
C359 C 0.52986 0.67176 0.40461 0.0
C360 C 0.48394 0.63987 0.35419 0.0
C361 C 0.50014 0.69769 0.41706 0.0
C362 C 0.46212 0.69387 0.3997 0.0
C363 C 0.41391 0.6557 0.35827 0.0
C364 C 0.40505 0.62298 0.33269 0.0
C365 C 0.45326 0.66396 0.3698 0.0
C366 C 0.43602 0.60122 0.31423 0.0
C367 C 0.47521 0.60976 0.32461 0.0
H368 H 0.29029 0.46867 0.64308 0.0
H369 H 0.39188 0.42513 0.70639 0.0
H370 H 0.39642 0.48211 0.75356 0.0
H371 H 0.38031 0.54819 0.76592 0.0
H372 H 0.28337 0.59457 0.69813 0.0
H373 H 0.26705 0.53262 0.66481 0.0
C374 C 0.3126 0.47132 0.66811 0.0
C375 C 0.34113 0.44308 0.67091 0.0
C376 C 0.31591 0.50485 0.69418 0.0
C377 C 0.37004 0.44681 0.70327 0.0
C378 C 0.37263 0.47936 0.73025 0.0
C379 C 0.35456 0.5443 0.7453 0.0
C380 C 0.33306 0.57561 0.73433 0.0
C381 C 0.34698 0.50918 0.72453 0.0
C382 C 0.30002 0.57067 0.70728 0.0
C383 C 0.29117 0.53536 0.6877 0.0
H384 H 0.01846 0.84687 0.18905 0.0
H385 H 0.98738 0.77392 0.0781 0.0
H386 H 0.91785 0.77828 0.09812 0.0
H387 H 0.86561 0.81409 0.13784 0.0
H388 H 0.89643 0.88785 0.24773 0.0
H389 H 0.96624 0.87143 0.2382 0.0
C390 C 0.99656 0.83097 0.17009 0.0
C391 C 0.00793 0.81077 0.13171 0.0
C392 C 0.95649 0.83411 0.18139 0.0
C393 C 0.97942 0.78985 0.1077 0.0
C394 C 0.93953 0.79259 0.1189 0.0
C395 C 0.88755 0.82514 0.16074 0.0
C396 C 0.8763 0.852 0.19341 0.0
C397 C 0.92761 0.81623 0.15434 0.0
C398 C 0.90468 0.86678 0.22269 0.0
C399 C 0.94457 0.85774 0.21688 0.0
H400 H 0.71419 0.57206 0.59067 0.0
H401 H 0.61475 0.53247 0.51368 0.0
H402 H 0.61889 0.47205 0.54333 0.0
H403 H 0.64896 0.43107 0.59197 0.0
H404 H 0.74473 0.47013 0.67473 0.0
H405 H 0.74461 0.52968 0.64136 0.0
C406 C 0.69367 0.55004 0.58054 0.0
C407 C 0.66398 0.55662 0.55051 0.0
C408 C 0.69559 0.51532 0.5986 0.0
C409 C 0.63746 0.52806 0.53733 0.0
C410 C 0.63987 0.49349 0.55409 0.0
C411 C 0.66948 0.45273 0.60331 0.0
C412 C 0.69632 0.44633 0.6363 0.0
C413 C 0.66841 0.48699 0.58509 0.0
C414 C 0.72372 0.4743 0.64931 0.0
C415 C 0.72351 0.50844 0.63043 0.0
H416 H 0.99808 0.20374 0.07535 0.0
H417 H 0.92802 0.11436 0.11985 0.0
H418 H 0.97721 0.10406 0.17507 0.0
H419 H 0.04222 0.11725 0.20711 0.0
H420 H 0.11471 0.20343 0.15908 0.0
H421 H 0.06218 0.21871 0.10971 0.0
C422 C 0.9933 0.18245 0.09762 0.0
C423 C 0.95955 0.15977 0.09344 0.0
C424 C 0.02224 0.17599 0.1286 0.0
C425 C 0.95392 0.13203 0.12225 0.0
C426 C 0.98204 0.12609 0.1538 0.0
C427 C 0.0466 0.13935 0.18581 0.0
C428 C 0.08255 0.15895 0.18676 0.0
C429 C 0.01673 0.1473 0.1566 0.0
C430 C 0.08727 0.18807 0.15951 0.0
C431 C 0.05733 0.19666 0.13093 0.0
H432 H 0.2277 0.78808 0.16787 0.0
H433 H 0.13215 0.71401 0.12756 0.0
H434 H 0.15398 0.66954 0.17721 0.0
H435 H 0.1983 0.65189 0.23399 0.0
H436 H 0.29337 0.72455 0.27704 0.0
H437 H 0.27396 0.76916 0.22459 0.0
C438 C 0.21189 0.76211 0.16981 0.0
C439 C 0.17815 0.7547 0.14402 0.0
C440 C 0.22446 0.73635 0.19904 0.0
C441 C 0.15797 0.72083 0.14712 0.0
C442 C 0.17044 0.69518 0.17552 0.0
C443 C 0.21486 0.67743 0.23155 0.0
C444 C 0.24707 0.68519 0.25885 0.0
C445 C 0.20331 0.70276 0.20187 0.0
C446 C 0.26843 0.71822 0.25596 0.0
C447 C 0.25728 0.74365 0.2261 0.0
H448 H 0.7602 0.692 0.57997 0.0
H449 H 0.67167 0.77796 0.57333 0.0
H450 H 0.71137 0.82033 0.62004 0.0
H451 H 0.77358 0.83496 0.65831 0.0
H452 H 0.86322 0.75047 0.66385 0.0
H453 H 0.8209 0.7055 0.62244 0.0
C454 C 0.74937 0.71982 0.5892 0.0
C455 C 0.71311 0.7318 0.57274 0.0
C456 C 0.77271 0.74443 0.61574 0.0
C457 C 0.69962 0.76804 0.58508 0.0
C458 C 0.72231 0.79238 0.61184 0.0
C459 C 0.78344 0.8065 0.65088 0.0
C460 C 0.8211 0.79571 0.66392 0.0
C461 C 0.75922 0.78117 0.62663 0.0
C462 C 0.83407 0.75907 0.65409 0.0
C463 C 0.80996 0.73349 0.63034 0.0
H464 H 0.74671 0.2385 0.0538 0.0
H465 H 0.85472 0.24248 0.12772 0.0
H466 H 0.82006 0.2734 0.18906 0.0
H467 H 0.75802 0.29617 0.22348 0.0
H468 H 0.65025 0.29251 0.14985 0.0
H469 H 0.68573 0.26516 0.08658 0.0
C470 C 0.76271 0.24624 0.08326 0.0
C471 C 0.80326 0.23788 0.08612 0.0
C472 C 0.74261 0.26431 0.11847 0.0
C473 C 0.82354 0.24851 0.12451 0.0
C474 C 0.80373 0.2662 0.1597 0.0
C475 C 0.74264 0.29005 0.19323 0.0
C476 C 0.70186 0.29657 0.19083 0.0
C477 C 0.7632 0.27392 0.15724 0.0
C478 C 0.68185 0.28807 0.15197 0.0
C479 C 0.70206 0.27219 0.11598 0.0
H480 H 0.33293 0.22813 0.6572 0.0
H481 H 0.2806 0.33081 0.71077 0.0
H482 H 0.26132 0.30054 0.77499 0.0
H483 H 0.26066 0.24494 0.81711 0.0
H484 H 0.313 0.14272 0.76333 0.0
H485 H 0.3308 0.17259 0.69803 0.0
C486 C 0.31724 0.24393 0.68283 0.0
C487 C 0.30833 0.28174 0.67903 0.0
C488 C 0.3062 0.22637 0.71971 0.0
C489 C 0.28784 0.30166 0.71267 0.0
C490 C 0.27681 0.28439 0.74952 0.0
C491 C 0.27574 0.22935 0.79084 0.0
C492 C 0.28559 0.19188 0.79451 0.0
C493 C 0.28598 0.2468 0.75351 0.0
C494 C 0.30517 0.17168 0.76075 0.0
C495 C 0.31539 0.18874 0.72357 0.0
H496 H 0.64341 0.74105 0.36488 0.0
H497 H 0.75963 0.72643 0.41822 0.0
H498 H 0.78677 0.77054 0.36998 0.0
H499 H 0.77597 0.81746 0.31675 0.0
H500 H 0.65922 0.83208 0.26537 0.0
H501 H 0.63355 0.78373 0.30884 0.0
C502 C 0.67476 0.74728 0.36581 0.0
C503 C 0.69937 0.73093 0.39546 0.0
C504 C 0.68991 0.77286 0.33855 0.0
C505 C 0.74003 0.73877 0.39574 0.0
C506 C 0.75552 0.76413 0.36835 0.0
C507 C 0.74506 0.80958 0.31498 0.0
C508 C 0.71921 0.82797 0.28848 0.0
C509 C 0.73055 0.78197 0.34031 0.0
C510 C 0.67932 0.818 0.2859 0.0
C511 C 0.66472 0.7905 0.31068 0.0
H512 H 0.78688 0.20254 0.86846 0.0
H513 H 0.85879 0.29193 0.92603 0.0
H514 H 0.84307 0.32981 0.86649 0.0
H515 H 0.8103 0.3369 0.79694 0.0
H516 H 0.73908 0.2476 0.73929 0.0
H517 H 0.75302 0.2101 0.80018 0.0
C518 C 0.79902 0.23038 0.86821 0.0
C519 C 0.82403 0.24433 0.90175 0.0
C520 C 0.79003 0.2519 0.83383 0.0
C521 C 0.83946 0.28047 0.90071 0.0
C522 C 0.83054 0.30215 0.86665 0.0
C523 C 0.79781 0.30925 0.79806 0.0
C524 C 0.77387 0.29464 0.76425 0.0
C525 C 0.8061 0.28805 0.83294 0.0
C526 C 0.75764 0.25903 0.76535 0.0
C527 C 0.76562 0.23773 0.80002 0.0
H528 H 0.33584 0.24031 0.46331 0.0
H529 H 0.2292 0.29314 0.5138 0.0
H530 H 0.19129 0.26321 0.4544 0.0
H531 H 0.18925 0.22641 0.38469 0.0
H532 H 0.29558 0.17504 0.33281 0.0
H533 H 0.33279 0.19951 0.39639 0.0
C534 C 0.30425 0.24501 0.46162 0.0
C535 C 0.28555 0.26925 0.49295 0.0
C536 C 0.28256 0.2279 0.4271 0.0
C537 C 0.2445 0.2748 0.49018 0.0
C538 C 0.22272 0.2577 0.45615 0.0
C539 C 0.22039 0.21995 0.38797 0.0
C540 C 0.23983 0.19882 0.35479 0.0
C541 C 0.24154 0.23478 0.42404 0.0
C542 C 0.28017 0.19096 0.35853 0.0
C543 C 0.3014 0.20518 0.39463 0.0
H544 H 0.18546 0.73423 0.96668 0.0
H545 H 0.22903 0.84683 0.96449 0.0
H546 H 0.27237 0.82778 0.90486 0.0
H547 H 0.29956 0.77935 0.85426 0.0
H548 H 0.25836 0.66645 0.85531 0.0
H549 H 0.21238 0.68523 0.91424 0.0
C550 C 0.20432 0.75458 0.95302 0.0
C551 C 0.20403 0.7919 0.9704 0.0
C552 C 0.22965 0.74338 0.91854 0.0
C553 C 0.22874 0.81787 0.9522 0.0
C554 C 0.25358 0.80706 0.91794 0.0
C555 C 0.28028 0.75897 0.86738 0.0
C556 C 0.28192 0.72178 0.85089 0.0
C557 C 0.25449 0.76995 0.9011 0.0
C558 C 0.25723 0.69534 0.8678 0.0
C559 C 0.2311 0.70609 0.90141 0.0
loop_
_geom_bond_atom_site_label_1
_geom_bond_atom_site_label_2
_geom_bond_distance
_geom_bond_site_symmetry_2
_ccdc_geom_bond_type
Fe0 O2 1.918 . S
Fe0 O5 1.997 . S
Fe0 O6 2.002 . S
Fe0 O11 1.976 . S
Fe0 O14 1.996 . S
Fe1 O2 1.918 . S
Fe1 O9 1.997 . S
Fe1 O12 1.996 . S
Fe1 O16 1.976 1_554 S
Fe1 O19 2.002 . S
O2 Fe0 1.918 . S
O2 Fe1 1.918 . S
O2 Fe3 1.918 . S
Fe3 O2 1.918 . S
Fe3 O4 2.002 . S
Fe3 O13 1.977 . S
Fe3 O17 1.996 1_554 S
Fe3 O20 1.997 . S
O4 Fe3 2.002 . S
O4 C21 1.295 . S
O5 Fe0 1.997 . S
O5 C21 1.235 . S
O6 Fe0 2.002 . S
O6 C7 1.295 . S
C7 O6 1.295 . S
C7 O9 1.235 . S
C8 O13 1.286 1_556 S
C8 O14 1.255 1_556 S
O9 Fe1 1.997 . S
O9 C7 1.235 . S
C10 O16 1.287 . S
C10 O17 1.255 . S
O11 Fe0 1.976 . S
O11 C18 1.285 1_554 S
O12 Fe1 1.996 . S
O12 C18 1.254 1_554 S
O13 Fe3 1.977 . S
O13 C8 1.286 1_554 S
O14 Fe0 1.996 . S
O14 C8 1.255 1_554 S
C15 O19 1.295 . S
C15 O20 1.235 . S
O16 Fe1 1.976 1_556 S
O16 C10 1.287 . S
O17 Fe3 1.996 1_556 S
O17 C10 1.255 . S
C18 O11 1.285 1_556 S
C18 O12 1.254 1_556 S
O19 Fe1 2.002 . S
O19 C15 1.295 . S
O20 Fe3 1.997 . S
O20 C15 1.235 . S
C21 O4 1.295 . S
C21 O5 1.235 . S
Fe22 O24 1.918 . S
Fe22 O27 1.997 . S
Fe22 O28 2.002 . S
Fe22 O33 1.976 . S
Fe22 O36 1.996 . S
Fe23 O24 1.918 . S
Fe23 O31 1.997 . S
Fe23 O34 1.996 . S
Fe23 O38 1.976 . S
Fe23 O41 2.002 . S
O24 Fe22 1.918 . S
O24 Fe23 1.918 . S
O24 Fe25 1.918 . S
Fe25 O24 1.918 . S
Fe25 O26 2.002 . S
Fe25 O35 1.976 . S
Fe25 O39 1.996 . S
Fe25 O42 1.997 . S
O26 Fe25 2.002 . S
O26 C43 1.295 . S
O27 Fe22 1.997 . S
O27 C43 1.235 . S
O28 Fe22 2.002 . S
O28 C29 1.295 . S
C29 O28 1.295 . S
C29 O31 1.235 . S
C30 O35 1.287 . S
C30 O36 1.255 . S
O31 Fe23 1.997 . S
O31 C29 1.235 . S
C32 O38 1.287 . S
C32 O39 1.255 . S
O33 Fe22 1.976 . S
O33 C40 1.287 . S
O34 Fe23 1.996 . S
O34 C40 1.255 . S
O35 Fe25 1.976 . S
O35 C30 1.287 . S
O36 Fe22 1.996 . S
O36 C30 1.255 . S
C37 O41 1.295 . S
C37 O42 1.235 . S
O38 Fe23 1.976 . S
O38 C32 1.287 . S
O39 Fe25 1.996 . S
O39 C32 1.255 . S
C40 O33 1.287 . S
C40 O34 1.255 . S
O41 Fe23 2.002 . S
O41 C37 1.295 . S
O42 Fe25 1.997 . S
O42 C37 1.235 . S
C43 O26 1.295 . S
C43 O27 1.235 . S
Fe44 O46 1.918 . S
Fe44 O49 1.997 1_554 S
Fe44 O50 2.002 1_554 S
Fe44 O55 1.976 . S
Fe44 O58 1.996 . S
Fe45 O46 1.918 . S
Fe45 O53 1.997 1_554 S
Fe45 O56 1.996 . S
Fe45 O60 1.976 . S
Fe45 O63 2.002 1_554 S
O46 Fe44 1.918 . S
O46 Fe45 1.918 . S
O46 Fe47 1.918 1_554 S
Fe47 O46 1.918 1_556 S
Fe47 O48 2.002 . S
Fe47 O57 1.976 1_556 S
Fe47 O61 1.996 1_556 S
Fe47 O64 1.997 . S
O48 Fe47 2.002 . S
O48 C65 1.295 . S
O49 Fe44 1.997 1_556 S
O49 C65 1.235 . S
O50 Fe44 2.002 1_556 S
O50 C51 1.295 . S
C51 O50 1.295 . S
C51 O53 1.235 . S
C52 O57 1.287 . S
C52 O58 1.255 . S
O53 Fe45 1.997 1_556 S
O53 C51 1.235 . S
C54 O60 1.287 . S
C54 O61 1.255 . S
O55 Fe44 1.976 . S
O55 C62 1.287 . S
O56 Fe45 1.996 . S
O56 C62 1.255 . S
O57 Fe47 1.976 1_554 S
O57 C52 1.287 . S
O58 Fe44 1.996 . S
O58 C52 1.255 . S
C59 O63 1.295 . S
C59 O64 1.235 . S
O60 Fe45 1.976 . S
O60 C54 1.287 . S
O61 Fe47 1.996 1_554 S
O61 C54 1.255 . S
C62 O55 1.287 . S
C62 O56 1.255 . S
O63 Fe45 2.002 1_556 S
O63 C59 1.295 . S
O64 Fe47 1.997 . S
O64 C59 1.235 . S
C65 O48 1.295 . S
C65 O49 1.235 . S
Fe66 O68 1.918 . S
Fe66 O71 1.997 . S
Fe66 O72 2.002 . S
Fe66 O77 1.976 . S
Fe66 O80 1.996 . S
Fe67 O68 1.918 . S
Fe67 O75 1.997 . S
Fe67 O78 1.996 . S
Fe67 O82 1.976 . S
Fe67 O85 2.002 . S
O68 Fe66 1.918 . S
O68 Fe67 1.918 . S
O68 Fe69 1.918 . S
Fe69 O68 1.918 . S
Fe69 O70 2.002 . S
Fe69 O79 1.976 . S
Fe69 O83 1.996 . S
Fe69 O86 1.997 . S
O70 Fe69 2.002 . S
O70 C87 1.295 . S
O71 Fe66 1.997 . S
O71 C87 1.235 . S
O72 Fe66 2.002 . S
O72 C73 1.295 . S
C73 O72 1.295 . S
C73 O75 1.235 . S
C74 O79 1.287 . S
C74 O80 1.255 . S
O75 Fe67 1.997 . S
O75 C73 1.235 . S
C76 O82 1.287 . S
C76 O83 1.255 . S
O77 Fe66 1.976 . S
O77 C84 1.287 . S
O78 Fe67 1.996 . S
O78 C84 1.255 . S
O79 Fe69 1.976 . S
O79 C74 1.287 . S
O80 Fe66 1.996 . S
O80 C74 1.255 . S
C81 O85 1.295 . S
C81 O86 1.235 . S
O82 Fe67 1.976 . S
O82 C76 1.287 . S
O83 Fe69 1.996 . S
O83 C76 1.255 . S
C84 O77 1.287 . S
C84 O78 1.255 . S
O85 Fe67 2.002 . S
O85 C81 1.295 . S
O86 Fe69 1.997 . S
O86 C81 1.235 . S
C87 O70 1.295 . S
C87 O71 1.235 . S
H88 C91 0.929 . S
H89 C94 0.929 . S
H90 C96 0.930 . S
C91 H88 0.929 . S
C91 C92 1.398 . S
C91 C93 1.396 . S
C92 C91 1.398 . S
C92 C96 1.407 . S
C93 C91 1.396 . S
C93 C94 1.394 . S
C94 H89 0.929 . S
C94 C93 1.394 . S
C94 C95 1.382 . S
C95 C94 1.382 . S
C95 C96 1.392 . S
C95 N97 1.420 . S
C96 H90 0.930 . S
C96 C92 1.407 . S
C96 C95 1.392 . S
N97 C95 1.420 . S
N97 C98 1.244 . S
C98 N97 1.244 . S
H99 C102 0.929 . S
H100 C105 0.929 . S
H101 C107 0.930 . S
C102 H99 0.929 . S
C102 C103 1.398 . S
C102 C104 1.396 . S
C103 C102 1.398 . S
C103 C107 1.407 . S
C104 C102 1.396 . S
C104 C105 1.394 . S
C105 H100 0.929 . S
C105 C104 1.394 . S
C105 C106 1.382 . S
C106 C105 1.382 . S
C106 C107 1.392 . S
C106 N108 1.420 . S
C107 H101 0.930 . S
C107 C103 1.407 . S
C107 C106 1.392 . S
N108 C106 1.420 . S
N108 C109 1.244 . S
C109 N108 1.244 . S
H110 C113 0.929 . S
H111 C116 0.929 . S
H112 C118 0.930 . S
C113 H110 0.929 . S
C113 C114 1.398 . S
C113 C115 1.396 . S
C114 C113 1.398 . S
C114 C118 1.407 . S
C115 C113 1.396 . S
C115 C116 1.394 . S
C116 H111 0.929 . S
C116 C115 1.394 . S
C116 C117 1.382 . S
C117 C116 1.382 . S
C117 C118 1.392 . S
C117 N119 1.420 . S
C118 H112 0.930 . S
C118 C114 1.407 . S
C118 C117 1.392 . S
N119 C117 1.420 . S
N119 C120 1.244 . S
C120 N119 1.244 . S
H121 C124 0.929 . S
H122 C127 0.929 . S
H123 C129 0.930 . S
C124 H121 0.929 . S
C124 C125 1.398 . S
C124 C126 1.396 . S
C125 C124 1.398 . S
C125 C129 1.407 . S
C126 C124 1.396 . S
C126 C127 1.394 . S
C127 H122 0.929 . S
C127 C126 1.394 . S
C127 C128 1.382 . S
C128 C127 1.382 . S
C128 C129 1.392 . S
C128 N130 1.420 . S
C129 H123 0.930 . S
C129 C125 1.407 . S
C129 C128 1.392 . S
N130 C128 1.420 . S
N130 C131 1.244 . S
C131 N130 1.244 . S
H132 C135 0.929 . S
H133 C138 0.929 . S
H134 C140 0.930 . S
C135 H132 0.929 . S
C135 C136 1.398 . S
C135 C137 1.396 . S
C136 C135 1.398 . S
C136 C140 1.407 . S
C137 C135 1.396 . S
C137 C138 1.394 . S
C138 H133 0.929 . S
C138 C137 1.394 . S
C138 C139 1.382 . S
C139 C138 1.382 . S
C139 C140 1.392 . S
C139 N141 1.420 . S
C140 H134 0.930 . S
C140 C136 1.407 . S
C140 C139 1.392 . S
N141 C139 1.420 . S
N141 C142 1.244 . S
C142 N141 1.244 . S
H143 C146 0.929 . S
H144 C149 0.929 . S
H145 C151 0.930 . S
C146 H143 0.929 . S
C146 C147 1.398 . S
C146 C148 1.396 . S
C147 C146 1.398 . S
C147 C151 1.407 . S
C148 C146 1.396 . S
C148 C149 1.394 . S
C149 H144 0.929 . S
C149 C148 1.394 . S
C149 C150 1.382 . S
C150 C149 1.382 . S
C150 C151 1.392 . S
C150 N152 1.420 . S
C151 H145 0.930 . S
C151 C147 1.407 . S
C151 C150 1.392 . S
N152 C150 1.420 . S
N152 C153 1.244 . S
C153 N152 1.244 . S
H154 C157 0.929 . S
H155 C160 0.929 . S
H156 C162 0.930 . S
C157 H154 0.929 . S
C157 C158 1.398 . S
C157 C159 1.396 . S
C158 C157 1.398 . S
C158 C162 1.407 . S
C159 C157 1.396 . S
C159 C160 1.394 . S
C160 H155 0.929 . S
C160 C159 1.394 . S
C160 C161 1.382 . S
C161 C160 1.382 . S
C161 C162 1.392 . S
C161 N163 1.420 . S
C162 H156 0.930 . S
C162 C158 1.407 . S
C162 C161 1.392 . S
N163 C161 1.420 . S
N163 C164 1.244 . S
C164 N163 1.244 . S
H165 C168 0.929 . S
H166 C171 0.929 . S
H167 C173 0.930 . S
C168 H165 0.929 . S
C168 C169 1.398 . S
C168 C170 1.396 . S
C169 C168 1.398 . S
C169 C173 1.407 . S
C170 C168 1.396 . S
C170 C171 1.394 . S
C171 H166 0.929 . S
C171 C170 1.394 . S
C171 C172 1.382 . S
C172 C171 1.382 . S
C172 C173 1.392 . S
C172 N174 1.420 . S
C173 H167 0.930 . S
C173 C169 1.407 . S
C173 C172 1.392 . S
N174 C172 1.420 . S
N174 C175 1.244 . S
C175 N174 1.244 . S
H176 C182 0.927 1_545 S
H177 C185 0.930 . S
H178 C186 0.930 . S
H179 C187 0.930 . S
H180 C190 0.930 . S
H181 C191 0.930 . S
C182 H176 0.927 1_565 S
C182 C183 1.355 . S
C182 C184 1.415 1_565 S
C183 C182 1.355 . S
C183 C185 1.419 . S
C184 C182 1.415 1_545 S
C184 C189 1.425 . S
C184 C191 1.409 . S
C185 H177 0.930 . S
C185 C183 1.419 . S
C185 C186 1.362 . S
C186 H178 0.930 . S
C186 C185 1.362 . S
C186 C189 1.409 1_565 S
C187 H179 0.930 . S
C187 C188 1.355 . S
C187 C189 1.415 . S
C188 C187 1.355 . S
C188 C190 1.419 . S
C189 C184 1.425 . S
C189 C186 1.409 1_545 S
C189 C187 1.415 . S
C190 H180 0.930 . S
C190 C188 1.419 . S
C190 C191 1.362 . S
C191 H181 0.930 . S
C191 C184 1.409 . S
C191 C190 1.362 . S
H192 C198 0.930 . S
H193 C201 0.930 . S
H194 C202 0.930 . S
H195 C203 0.930 . S
H196 C206 0.930 . S
H197 C207 0.930 . S
C198 H192 0.930 . S
C198 C199 1.355 . S
C198 C200 1.415 . S
C199 C198 1.355 . S
C199 C201 1.419 . S
C200 C198 1.415 . S
C200 C205 1.425 . S
C200 C207 1.409 . S
C201 H193 0.930 . S
C201 C199 1.419 . S
C201 C202 1.362 . S
C202 H194 0.930 . S
C202 C201 1.362 . S
C202 C205 1.409 . S
C203 H195 0.930 . S
C203 C204 1.355 . S
C203 C205 1.415 . S
C204 C203 1.355 . S
C204 C206 1.419 . S
C205 C200 1.425 . S
C205 C202 1.409 . S
C205 C203 1.415 . S
C206 H196 0.930 . S
C206 C204 1.419 . S
C206 C207 1.362 . S
C207 H197 0.930 . S
C207 C200 1.409 . S
C207 C206 1.362 . S
H208 C214 0.930 . S
H209 C217 0.930 . S
H210 C218 0.930 . S
H211 C219 0.930 . S
H212 C222 0.930 . S
H213 C223 0.930 . S
C214 H208 0.930 . S
C214 C215 1.355 . S
C214 C216 1.415 1_545 S
C215 C214 1.355 . S
C215 C217 1.419 . S
C216 C214 1.415 1_565 S
C216 C221 1.425 . S
C216 C223 1.409 . S
C217 H209 0.930 . S
C217 C215 1.419 . S
C217 C218 1.362 1_545 S
C218 H210 0.930 . S
C218 C217 1.362 1_565 S
C218 C221 1.409 . S
C219 H211 0.930 . S
C219 C220 1.355 . S
C219 C221 1.415 . S
C220 C219 1.355 . S
C220 C222 1.419 . S
C221 C216 1.425 . S
C221 C218 1.409 . S
C221 C219 1.415 . S
C222 H212 0.930 . S
C222 C220 1.419 . S
C222 C223 1.362 . S
C223 H213 0.930 . S
C223 C216 1.409 . S
C223 C222 1.362 . S
H224 C230 0.930 . S
H225 C233 0.930 . S
H226 C234 0.930 . S
H227 C235 0.930 . S
H228 C238 0.930 . S
H229 C239 0.930 . S
C230 H224 0.930 . S
C230 C231 1.355 . S
C230 C232 1.415 . S
C231 C230 1.355 . S
C231 C233 1.419 . S
C232 C230 1.415 . S
C232 C237 1.425 . S
C232 C239 1.409 . S
C233 H225 0.930 . S
C233 C231 1.419 . S
C233 C234 1.362 . S
C234 H226 0.930 . S
C234 C233 1.362 . S
C234 C237 1.409 . S
C235 H227 0.930 . S
C235 C236 1.355 . S
C235 C237 1.415 . S
C236 C235 1.355 . S
C236 C238 1.419 . S
C237 C232 1.425 . S
C237 C234 1.409 . S
C237 C235 1.415 . S
C238 H228 0.930 . S
C238 C236 1.419 . S
C238 C239 1.362 . S
C239 H229 0.930 . S
C239 C232 1.409 . S
C239 C238 1.362 . S
H240 C246 0.930 . S
H241 C249 0.930 . S
H242 C250 0.930 . S
H243 C251 0.930 . S
H244 C254 0.930 . S
H245 C255 0.930 . S
C246 H240 0.930 . S
C246 C247 1.355 . S
C246 C248 1.415 . S
C247 C246 1.355 . S
C247 C249 1.419 . S
C248 C246 1.415 . S
C248 C253 1.425 . S
C248 C255 1.409 . S
C249 H241 0.930 . S
C249 C247 1.419 . S
C249 C250 1.362 . S
C250 H242 0.930 . S
C250 C249 1.362 . S
C250 C253 1.409 . S
C251 H243 0.930 . S
C251 C252 1.355 . S
C251 C253 1.415 . S
C252 C251 1.355 . S
C252 C254 1.419 . S
C253 C248 1.425 . S
C253 C250 1.409 . S
C253 C251 1.415 . S
C254 H244 0.930 . S
C254 C252 1.419 . S
C254 C255 1.362 . S
C255 H245 0.930 . S
C255 C248 1.409 . S
C255 C254 1.362 . S
H256 C262 0.930 . S
H257 C265 0.930 . S
H258 C266 0.930 . S
H259 C267 0.930 . S
H260 C270 0.930 . S
H261 C271 0.930 . S
C262 H256 0.930 . S
C262 C263 1.355 1_455 S
C262 C264 1.415 . S
C263 C262 1.355 1_655 S
C263 C265 1.419 . S
C264 C262 1.415 . S
C264 C269 1.425 . S
C264 C271 1.409 . S
C265 H257 0.930 . S
C265 C263 1.419 . S
C265 C266 1.362 1_655 S
C266 H258 0.930 . S
C266 C265 1.362 1_455 S
C266 C269 1.409 . S
C267 H259 0.930 . S
C267 C268 1.355 . S
C267 C269 1.415 . S
C268 C267 1.355 . S
C268 C270 1.419 . S
C269 C264 1.425 . S
C269 C266 1.409 . S
C269 C267 1.415 . S
C270 H260 0.930 . S
C270 C268 1.419 . S
C270 C271 1.362 . S
C271 H261 0.930 . S
C271 C264 1.409 . S
C271 C270 1.362 . S
H272 C278 0.930 . S
H273 C281 0.930 . S
H274 C282 0.930 . S
H275 C283 0.930 . S
H276 C286 0.930 . S
H277 C287 0.930 . S
C278 H272 0.930 . S
C278 C279 1.355 . S
C278 C280 1.415 . S
C279 C278 1.355 . S
C279 C281 1.419 . S
C280 C278 1.415 . S
C280 C285 1.425 . S
C280 C287 1.409 . S
C281 H273 0.930 . S
C281 C279 1.419 . S
C281 C282 1.362 . S
C282 H274 0.930 . S
C282 C281 1.362 . S
C282 C285 1.409 . S
C283 H275 0.930 . S
C283 C284 1.355 . S
C283 C285 1.415 . S
C284 C283 1.355 . S
C284 C286 1.419 . S
C285 C280 1.425 . S
C285 C282 1.409 . S
C285 C283 1.415 . S
C286 H276 0.930 . S
C286 C284 1.419 . S
C286 C287 1.362 . S
C287 H277 0.930 . S
C287 C280 1.409 . S
C287 C286 1.362 . S
H288 C294 0.930 . S
H289 C297 0.929 1_655 S
H290 C298 0.930 . S
H291 C299 0.930 . S
H292 C302 0.934 . S
H293 C303 0.930 . S
C294 H288 0.930 . S
C294 C295 1.355 . S
C294 C296 1.415 . S
C295 C294 1.355 . S
C295 C297 1.419 . S
C296 C294 1.415 . S
C296 C301 1.425 1_455 S
C296 C303 1.409 . S
C297 H289 0.929 1_455 S
C297 C295 1.419 . S
C297 C298 1.362 1_455 S
C298 H290 0.930 . S
C298 C297 1.362 1_655 S
C298 C301 1.409 . S
C299 H291 0.930 . S
C299 C300 1.355 . S
C299 C301 1.415 . S
C300 C299 1.355 . S
C300 C302 1.403 1_655 S
C301 C296 1.425 1_655 S
C301 C298 1.409 . S
C301 C299 1.415 . S
C302 H292 0.934 . S
C302 C300 1.403 1_455 S
C302 C303 1.375 . S
C303 H293 0.930 . S
C303 C296 1.409 . S
C303 C302 1.375 . S
H304 C310 0.930 . S
H305 C313 0.930 . S
H306 C314 0.930 . S
H307 C315 0.930 . S
H308 C318 0.930 . S
H309 C319 0.930 . S
C310 H304 0.930 . S
C310 C311 1.355 . S
C310 C312 1.415 1_545 S
C311 C310 1.355 . S
C311 C313 1.419 . S
C312 C310 1.415 1_565 S
C312 C317 1.425 . S
C312 C319 1.409 . S
C313 H305 0.930 . S
C313 C311 1.419 . S
C313 C314 1.362 . S
C314 H306 0.930 . S
C314 C313 1.362 . S
C314 C317 1.409 1_545 S
C315 H307 0.930 . S
C315 C316 1.355 . S
C315 C317 1.415 . S
C316 C315 1.355 . S
C316 C318 1.419 . S
C317 C312 1.425 . S
C317 C314 1.409 1_565 S
C317 C315 1.415 . S
C318 H308 0.930 . S
C318 C316 1.419 . S
C318 C319 1.362 . S
C319 H309 0.930 . S
C319 C312 1.409 . S
C319 C318 1.362 . S
H320 C326 0.930 . S
H321 C329 0.930 . S
H322 C330 0.930 . S
H323 C331 0.930 . S
H324 C334 0.930 . S
H325 C335 0.930 . S
C326 H320 0.930 . S
C326 C327 1.355 . S
C326 C328 1.415 . S
C327 C326 1.355 . S
C327 C329 1.419 . S
C328 C326 1.415 . S
C328 C333 1.425 . S
C328 C335 1.409 . S
C329 H321 0.930 . S
C329 C327 1.419 . S
C329 C330 1.362 . S
C330 H322 0.930 . S
C330 C329 1.362 . S
C330 C333 1.409 . S
C331 H323 0.930 . S
C331 C332 1.355 . S
C331 C333 1.415 . S
C332 C331 1.355 . S
C332 C334 1.419 . S
C333 C328 1.425 . S
C333 C330 1.409 . S
C333 C331 1.415 . S
C334 H324 0.930 . S
C334 C332 1.419 . S
C334 C335 1.362 . S
C335 H325 0.930 . S
C335 C328 1.409 . S
C335 C334 1.362 . S
H336 C342 0.930 1_554 S
H337 C345 0.930 . S
H338 C346 0.930 . S
H339 C347 0.930 . S
H340 C350 0.930 . S
H341 C351 0.930 1_554 S
C342 H336 0.930 1_556 S
C342 C343 1.355 . S
C342 C344 1.415 1_565 S
C343 C342 1.355 . S
C343 C345 1.419 . S
C344 C342 1.415 1_545 S
C344 C349 1.425 . S
C344 C351 1.409 . S
C345 H337 0.930 . S
C345 C343 1.419 . S
C345 C346 1.362 . S
C346 H338 0.930 . S
C346 C345 1.362 . S
C346 C349 1.409 1_565 S
C347 H339 0.930 . S
C347 C348 1.355 . S
C347 C349 1.415 . S
C348 C347 1.355 . S
C348 C350 1.419 . S
C349 C344 1.425 . S
C349 C346 1.409 1_545 S
C349 C347 1.415 . S
C350 H340 0.930 . S
C350 C348 1.419 . S
C350 C351 1.362 . S
C351 H341 0.930 1_556 S
C351 C344 1.409 . S
C351 C350 1.362 . S
H352 C358 0.930 . S
H353 C361 0.930 . S
H354 C362 0.930 . S
H355 C363 0.930 . S
H356 C366 0.930 . S
H357 C367 0.930 . S
C358 H352 0.930 . S
C358 C359 1.355 . S
C358 C360 1.415 . S
C359 C358 1.355 . S
C359 C361 1.419 . S
C360 C358 1.415 . S
C360 C365 1.425 . S
C360 C367 1.409 . S
C361 H353 0.930 . S
C361 C359 1.419 . S
C361 C362 1.362 . S
C362 H354 0.930 . S
C362 C361 1.362 . S
C362 C365 1.409 . S
C363 H355 0.930 . S
C363 C364 1.355 . S
C363 C365 1.415 . S
C364 C363 1.355 . S
C364 C366 1.419 . S
C365 C360 1.425 . S
C365 C362 1.409 . S
C365 C363 1.415 . S
C366 H356 0.930 . S
C366 C364 1.419 . S
C366 C367 1.362 . S
C367 H357 0.930 . S
C367 C360 1.409 . S
C367 C366 1.362 . S
H368 C374 0.930 . S
H369 C377 0.930 . S
H370 C378 0.930 . S
H371 C379 0.930 . S
H372 C382 0.930 . S
H373 C383 0.930 . S
C374 H368 0.930 . S
C374 C375 1.355 . S
C374 C376 1.415 . S
C375 C374 1.355 . S
C375 C377 1.419 . S
C376 C374 1.415 . S
C376 C381 1.425 . S
C376 C383 1.409 . S
C377 H369 0.930 . S
C377 C375 1.419 . S
C377 C378 1.362 . S
C378 H370 0.930 . S
C378 C377 1.362 . S
C378 C381 1.409 . S
C379 H371 0.930 . S
C379 C380 1.355 . S
C379 C381 1.415 . S
C380 C379 1.355 . S
C380 C382 1.419 . S
C381 C376 1.425 . S
C381 C378 1.409 . S
C381 C379 1.415 . S
C382 H372 0.930 . S
C382 C380 1.419 . S
C382 C383 1.362 . S
C383 H373 0.930 . S
C383 C376 1.409 . S
C383 C382 1.362 . S
H384 C390 0.930 . S
H385 C393 0.921 1_455 S
H386 C394 0.930 . S
H387 C395 0.930 . S
H388 C398 0.930 . S
H389 C399 0.930 . S
C390 H384 0.930 . S
C390 C391 1.355 1_655 S
C390 C392 1.415 . S
C391 C390 1.355 1_455 S
C391 C393 1.418 1_455 S
C392 C390 1.415 . S
C392 C397 1.425 . S
C392 C399 1.409 . S
C393 H385 0.921 1_655 S
C393 C391 1.418 1_655 S
C393 C394 1.373 . S
C394 H386 0.930 . S
C394 C393 1.373 . S
C394 C397 1.409 . S
C395 H387 0.930 . S
C395 C396 1.355 . S
C395 C397 1.415 . S
C396 C395 1.355 . S
C396 C398 1.419 . S
C397 C392 1.425 . S
C397 C394 1.409 . S
C397 C395 1.415 . S
C398 H388 0.930 . S
C398 C396 1.419 . S
C398 C399 1.362 . S
C399 H389 0.930 . S
C399 C392 1.409 . S
C399 C398 1.362 . S
H400 C406 0.930 . S
H401 C409 0.930 . S
H402 C410 0.930 . S
H403 C411 0.930 . S
H404 C414 0.930 . S
H405 C415 0.930 . S
C406 H400 0.930 . S
C406 C407 1.355 . S
C406 C408 1.415 . S
C407 C406 1.355 . S
C407 C409 1.419 . S
C408 C406 1.415 . S
C408 C413 1.425 . S
C408 C415 1.409 . S
C409 H401 0.930 . S
C409 C407 1.419 . S
C409 C410 1.362 . S
C410 H402 0.930 . S
C410 C409 1.362 . S
C410 C413 1.409 . S
C411 H403 0.930 . S
C411 C412 1.355 . S
C411 C413 1.415 . S
C412 C411 1.355 . S
C412 C414 1.419 . S
C413 C408 1.425 . S
C413 C410 1.409 . S
C413 C411 1.415 . S
C414 H404 0.930 . S
C414 C412 1.419 . S
C414 C415 1.362 . S
C415 H405 0.930 . S
C415 C408 1.409 . S
C415 C414 1.362 . S
H416 C422 0.930 1_455 S
H417 C425 0.930 . S
H418 C426 0.930 . S
H419 C427 0.930 . S
H420 C430 0.930 . S
H421 C431 0.930 . S
C422 H416 0.930 1_655 S
C422 C423 1.355 . S
C422 C424 1.415 1_655 S
C423 C422 1.355 . S
C423 C425 1.419 . S
C424 C422 1.415 1_455 S
C424 C429 1.425 1_455 S
C424 C431 1.409 . S
C425 H417 0.930 . S
C425 C423 1.419 . S
C425 C426 1.362 . S
C426 H418 0.930 . S
C426 C425 1.362 . S
C426 C429 1.409 . S
C427 H419 0.930 . S
C427 C428 1.355 1_655 S
C427 C429 1.415 . S
C428 C427 1.355 1_455 S
C428 C430 1.419 . S
C429 C424 1.425 1_655 S
C429 C426 1.409 . S
C429 C427 1.415 . S
C430 H420 0.930 . S
C430 C428 1.419 . S
C430 C431 1.362 . S
C431 H421 0.930 . S
C431 C424 1.409 . S
C431 C430 1.362 . S
H432 C438 0.930 . S
H433 C441 0.930 . S
H434 C442 0.930 . S
H435 C443 0.930 . S
H436 C446 0.930 . S
H437 C447 0.930 . S
C438 H432 0.930 . S
C438 C439 1.355 . S
C438 C440 1.415 . S
C439 C438 1.355 . S
C439 C441 1.419 . S
C440 C438 1.415 . S
C440 C445 1.425 . S
C440 C447 1.409 . S
C441 H433 0.930 . S
C441 C439 1.419 . S
C441 C442 1.362 . S
C442 H434 0.930 . S
C442 C441 1.362 . S
C442 C445 1.409 . S
C443 H435 0.930 . S
C443 C444 1.355 . S
C443 C445 1.415 . S
C444 C443 1.355 . S
C444 C446 1.419 . S
C445 C440 1.425 . S
C445 C442 1.409 . S
C445 C443 1.415 . S
C446 H436 0.930 . S
C446 C444 1.419 . S
C446 C447 1.362 . S
C447 H437 0.930 . S
C447 C440 1.409 . S
C447 C446 1.362 . S
H448 C454 0.930 . S
H449 C457 0.930 . S
H450 C458 0.930 . S
H451 C459 0.930 . S
H452 C462 0.930 . S
H453 C463 0.930 . S
C454 H448 0.930 . S
C454 C455 1.355 . S
C454 C456 1.415 . S
C455 C454 1.355 . S
C455 C457 1.419 . S
C456 C454 1.415 . S
C456 C461 1.425 . S
C456 C463 1.409 . S
C457 H449 0.930 . S
C457 C455 1.419 . S
C457 C458 1.362 . S
C458 H450 0.930 . S
C458 C457 1.362 . S
C458 C461 1.409 . S
C459 H451 0.930 . S
C459 C460 1.355 . S
C459 C461 1.415 . S
C460 C459 1.355 . S
C460 C462 1.419 . S
C461 C456 1.425 . S
C461 C458 1.409 . S
C461 C459 1.415 . S
C462 H452 0.930 . S
C462 C460 1.419 . S
C462 C463 1.362 . S
C463 H453 0.930 . S
C463 C456 1.409 . S
C463 C462 1.362 . S
H464 C470 0.930 . S
H465 C473 0.930 . S
H466 C474 0.930 . S
H467 C475 0.930 . S
H468 C478 0.930 . S
H469 C479 0.930 . S
C470 H464 0.930 . S
C470 C471 1.355 . S
C470 C472 1.415 . S
C471 C470 1.355 . S
C471 C473 1.419 . S
C472 C470 1.415 . S
C472 C477 1.425 . S
C472 C479 1.409 . S
C473 H465 0.930 . S
C473 C471 1.419 . S
C473 C474 1.362 . S
C474 H466 0.930 . S
C474 C473 1.362 . S
C474 C477 1.409 . S
C475 H467 0.930 . S
C475 C476 1.355 . S
C475 C477 1.415 . S
C476 C475 1.355 . S
C476 C478 1.419 . S
C477 C472 1.425 . S
C477 C474 1.409 . S
C477 C475 1.415 . S
C478 H468 0.930 . S
C478 C476 1.419 . S
C478 C479 1.362 . S
C479 H469 0.930 . S
C479 C472 1.409 . S
C479 C478 1.362 . S
H480 C486 0.930 . S
H481 C489 0.930 . S
H482 C490 0.930 . S
H483 C491 0.930 . S
H484 C494 0.930 . S
H485 C495 0.930 . S
C486 H480 0.930 . S
C486 C487 1.355 . S
C486 C488 1.415 . S
C487 C486 1.355 . S
C487 C489 1.419 . S
C488 C486 1.415 . S
C488 C493 1.425 . S
C488 C495 1.409 . S
C489 H481 0.930 . S
C489 C487 1.419 . S
C489 C490 1.362 . S
C490 H482 0.930 . S
C490 C489 1.362 . S
C490 C493 1.409 . S
C491 H483 0.930 . S
C491 C492 1.355 . S
C491 C493 1.415 . S
C492 C491 1.355 . S
C492 C494 1.419 . S
C493 C488 1.425 . S
C493 C490 1.409 . S
C493 C491 1.415 . S
C494 H484 0.930 . S
C494 C492 1.419 . S
C494 C495 1.362 . S
C495 H485 0.930 . S
C495 C488 1.409 . S
C495 C494 1.362 . S
H496 C502 0.930 . S
H497 C505 0.930 . S
H498 C506 0.930 . S
H499 C507 0.930 . S
H500 C510 0.930 . S
H501 C511 0.930 . S
C502 H496 0.930 . S
C502 C503 1.355 . S
C502 C504 1.415 . S
C503 C502 1.355 . S
C503 C505 1.419 . S
C504 C502 1.415 . S
C504 C509 1.425 . S
C504 C511 1.409 . S
C505 H497 0.930 . S
C505 C503 1.419 . S
C505 C506 1.362 . S
C506 H498 0.930 . S
C506 C505 1.362 . S
C506 C509 1.409 . S
C507 H499 0.930 . S
C507 C508 1.355 . S
C507 C509 1.415 . S
C508 C507 1.355 . S
C508 C510 1.419 . S
C509 C504 1.425 . S
C509 C506 1.409 . S
C509 C507 1.415 . S
C510 H500 0.930 . S
C510 C508 1.419 . S
C510 C511 1.362 . S
C511 H501 0.930 . S
C511 C504 1.409 . S
C511 C510 1.362 . S
H512 C518 0.930 . S
H513 C521 0.930 . S
H514 C522 0.930 . S
H515 C523 0.930 . S
H516 C526 0.930 . S
H517 C527 0.930 . S
C518 H512 0.930 . S
C518 C519 1.355 . S
C518 C520 1.415 . S
C519 C518 1.355 . S
C519 C521 1.419 . S
C520 C518 1.415 . S
C520 C525 1.425 . S
C520 C527 1.409 . S
C521 H513 0.930 . S
C521 C519 1.419 . S
C521 C522 1.362 . S
C522 H514 0.930 . S
C522 C521 1.362 . S
C522 C525 1.409 . S
C523 H515 0.930 . S
C523 C524 1.355 . S
C523 C525 1.415 . S
C524 C523 1.355 . S
C524 C526 1.419 . S
C525 C520 1.425 . S
C525 C522 1.409 . S
C525 C523 1.415 . S
C526 H516 0.930 . S
C526 C524 1.419 . S
C526 C527 1.362 . S
C527 H517 0.930 . S
C527 C520 1.409 . S
C527 C526 1.362 . S
H528 C534 0.930 . S
H529 C537 0.930 . S
H530 C538 0.930 . S
H531 C539 0.930 . S
H532 C542 0.930 . S
H533 C543 0.930 . S
C534 H528 0.930 . S
C534 C535 1.355 . S
C534 C536 1.415 . S
C535 C534 1.355 . S
C535 C537 1.419 . S
C536 C534 1.415 . S
C536 C541 1.425 . S
C536 C543 1.409 . S
C537 H529 0.930 . S
C537 C535 1.419 . S
C537 C538 1.362 . S
C538 H530 0.930 . S
C538 C537 1.362 . S
C538 C541 1.409 . S
C539 H531 0.930 . S
C539 C540 1.355 . S
C539 C541 1.415 . S
C540 C539 1.355 . S
C540 C542 1.419 . S
C541 C536 1.425 . S
C541 C538 1.409 . S
C541 C539 1.415 . S
C542 H532 0.930 . S
C542 C540 1.419 . S
C542 C543 1.362 . S
C543 H533 0.930 . S
C543 C536 1.409 . S
C543 C542 1.362 . S
H544 C550 0.930 . S
H545 C553 0.930 . S
H546 C554 0.930 . S
H547 C555 0.930 . S
H548 C558 0.930 . S
H549 C559 0.930 . S
C550 H544 0.930 . S
C550 C551 1.355 . S
C550 C552 1.415 . S
C551 C550 1.355 . S
C551 C553 1.419 . S
C552 C550 1.415 . S
C552 C557 1.425 . S
C552 C559 1.409 . S
C553 H545 0.930 . S
C553 C551 1.419 . S
C553 C554 1.362 . S
C554 H546 0.930 . S
C554 C553 1.362 . S
C554 C557 1.409 . S
C555 H547 0.930 . S
C555 C556 1.355 . S
C555 C557 1.415 . S
C556 C555 1.355 . S
C556 C558 1.419 . S
C557 C552 1.425 . S
C557 C554 1.409 . S
C557 C555 1.415 . S
C558 H548 0.930 . S
C558 C556 1.419 . S
C558 C559 1.362 . S
C559 H549 0.930 . S
C559 C552 1.409 . S
C559 C558 1.362 . S
C183 C7 1.484 . S
C188 C93 1.366 . S
C199 C37 1.414 . S
C204 C104 1.375 . S
C215 C54 1.375 . S
C220 C114 1.347 . S
C236 C126 1.386 . S
C231 C87 1.437 . S
C252 C137 1.417 . S
C247 C30 1.437 . S
C263 C51 1.441 . S
C268 C148 1.371 . S
C279 C84 1.395 . S
C284 C158 1.372 . S
C295 C10 1.395 . S
C300 C170 1.346 . S
C311 C59 1.344 . S
C316 C169 1.345 . S
C332 C136 1.221 . S
C327 C74 1.228 . S
C348 C147 1.336 . S
C343 C18 1.379 . S
C359 C32 1.403 . S
C364 C159 1.394 . S
C380 C103 1.323 . S
C375 C73 1.344 . S
C391 C15 1.447 . S
C396 C115 1.372 . S
C412 C125 1.383 . S
C407 C43 1.364 . S
C428 C92 1.170 . S
C423 C62 1.229 . S
C444 C164 1.468 . S
C439 C21 1.482 . S
C460 C175 1.435 . S
C455 C29 1.426 . S
C471 C52 1.365 . S
C476 C142 1.359 . S
C492 C153 1.406 . S
C487 C81 1.436 . S
C508 C120 1.426 . S
C503 C40 1.453 . S
C519 C65 1.433 . S
C524 C131 1.430 . S
C540 C98 1.367 . S
C535 C76 1.391 . S
C556 C109 1.445 . S
C551 C8 1.451 . S
