# Generated by pormake.
# Topology pts, (4,4)-cn, num edge types: 1
# Building blocks:
#     Node 0, Type 0, BuildingBlock: KUFVIS_clean_linker_0, # of connection points: 4
#     Node 1, Type 0, BuildingBlock: KUFVIS_clean_linker_0, # of connection points: 4
#     Node 2, Type 1, BuildingBlock: UXUYUI_clean_sbu_0, # of connection points: 4
#     Node 3, Type 1, BuildingBlock: UXUYUI_clean_sbu_0, # of connection points: 4
#     Edge 4, Type (0, 1), BuildingBlock: FUNLAD_clean_linker_1, # of connection points: 2
#     Edge 5, Type (0, 1), BuildingBlock: FUNLAD_clean_linker_1, # of connection points: 2
#     Edge 6, Type (0, 1), BuildingBlock: FUNLAD_clean_linker_1, # of connection points: 2
#     Edge 7, Type (0, 1), BuildingBlock: FUNLAD_clean_linker_1, # of connection points: 2
#     Edge 8, Type (0, 1), BuildingBlock: FUNLAD_clean_linker_1, # of connection points: 2
#     Edge 9, Type (0, 1), BuildingBlock: FUNLAD_clean_linker_1, # of connection points: 2
#     Edge 10, Type (0, 1), BuildingBlock: FUNLAD_clean_linker_1, # of connection points: 2
#     Edge 11, Type (0, 1), BuildingBlock: FUNLAD_clean_linker_1, # of connection points: 2
# Relax obj value: 0.008
# Max RMSD: 0.067
# Mean RMSD: 0.060
data_MOF--net-pts--node1-UXUYUI_clean_sbu_0--node2-KUFVIS_clean_linker_0--edge1-FUNLAD_clean_linker_1
_symmetry_space_group_name_H-M    P1
_symmetry_Int_Tables_number       1
_symmetry_cell_setting            triclinic
loop_
_symmetry_equiv_pos_as_xyz
'x, y, z'
_cell_length_a     33.166474
_cell_length_b     33.388878
_cell_length_c     42.558177
_cell_angle_alpha  90.035111
_cell_angle_beta   90.046764
_cell_angle_gamma 90.081983
loop_
_atom_site_label
_atom_site_type_symbol
_atom_site_fract_x
_atom_site_fract_y
_atom_site_fract_z
_atom_type_partial_charge
H0 H 0.37561 0.99117 0.99896 0.0
H1 H 0.48817 0.0162 0.95343 0.0
H2 H 0.4836 0.98816 0.05307 0.0
H3 H 0.54363 0.01676 0.05446 0.0
H4 H 0.65645 0.99619 0.00817 0.0
H5 H 0.54778 0.98709 0.95504 0.0
C6 C 0.40793 0.99573 0.99999 0.0
C7 C 0.42711 0.99109 0.02889 0.0
C8 C 0.42947 1.00565 0.97278 0.0
C9 C 0.47188 0.00854 0.97459 0.0
C10 C 0.49285 1.00199 0.00336 0.0
C11 C 0.46941 0.994 0.03066 0.0
C12 C 0.53871 1.00193 0.00461 0.0
C13 C 0.55979 0.00883 0.0333 0.0
C14 C 0.60214 1.00524 0.0351 0.0
C15 C 0.62377 0.99707 0.00762 0.0
C16 C 0.60441 0.99155 0.97889 0.0
C17 C 0.56205 0.99351 0.97733 0.0
H18 H 0.01575 0.64655 0.50074 0.0
H19 H 1.00336 0.53822 0.55247 0.0
H20 H 0.03066 0.53563 0.45249 0.0
H21 H 1.00646 0.47645 0.45235 0.0
H22 H 0.01904 0.36693 0.50273 0.0
H23 H 0.02506 0.47692 0.55347 0.0
C24 C 0.01819 0.61432 0.50131 0.0
C25 C 0.02451 0.59322 0.47338 0.0
C26 C 0.01246 0.5947 0.52992 0.0
C27 C 0.01031 0.55253 0.53037 0.0
C28 C 0.01687 0.52961 0.50257 0.0
C29 C 0.02442 0.55107 0.47423 0.0
C30 C 0.01581 0.48392 0.50291 0.0
C31 C 0.01096 0.46164 0.47461 0.0
C32 C 0.01159 0.4195 0.47441 0.0
C33 C 0.01586 0.39914 0.50293 0.0
C34 C 0.01883 0.41959 0.53157 0.0
C35 C 0.02016 0.46183 0.53133 0.0
Li36 Li 0.01944 0.043 0.2737 0.0
Li37 Li 0.01898 0.9707 0.27589 0.0
Li38 Li 0.06072 0.00769 0.23438 0.0
Li39 Li 0.98292 1.00507 0.23402 0.0
C40 C 0.08851 0.02748 0.30301 0.0
N41 N 0.13257 0.06953 0.34728 0.0
C42 C 0.0741 0.0314 0.33371 0.0
C43 C 0.12537 0.04497 0.29484 0.0
C44 C 0.09678 0.05281 0.35574 0.0
C45 C 0.14721 0.06606 0.31756 0.0
C46 C 0.95135 0.98731 0.30226 0.0
C47 C 0.90877 0.93212 0.3178 0.0
N48 N 0.91131 0.9444 0.34821 0.0
C49 C 0.95349 0.9994 0.33368 0.0
C50 C 0.92873 0.95345 0.29424 0.0
C51 C 0.93302 0.97733 0.35655 0.0
C52 C 0.98016 0.10282 0.31018 0.0
N53 N 0.01626 0.0933 0.29704 0.0
C54 C 0.04464 0.1552 0.31551 0.0
C55 C 0.04806 0.11904 0.299 0.0
C56 C 1.00781 0.16542 0.32989 0.0
C57 C 0.9754 0.13856 0.32693 0.0
H58 H 0.9548 0.08274 0.30747 0.0
H59 H 0.07616 0.11172 0.2876 0.0
C60 C 0.01779 0.88618 0.28641 0.0
N61 N 0.02006 0.92224 0.30126 0.0
C62 C 0.01867 0.85039 0.30359 0.0
C63 C 0.02431 0.88929 0.35116 0.0
C64 C 0.02349 0.92426 0.33307 0.0
C65 C 0.0222 0.85161 0.33654 0.0
H66 H 0.01535 0.8851 0.26112 0.0
H67 H 0.02545 0.95299 0.34455 0.0
C68 C 0.01816 0.09116 0.22417 0.0
N69 N 0.01264 0.17357 0.22136 0.0
C70 C 0.98056 0.10978 0.22631 0.0
C71 C 0.05292 0.11433 0.22036 0.0
C72 C 0.97842 0.15153 0.22493 0.0
C73 C 0.0495 0.15599 0.21902 0.0
C74 C 1.00965 0.94092 0.20344 0.0
C75 C 0.02945 0.94629 0.17478 0.0
C76 C 0.97553 0.91637 0.20489 0.0
C77 C 0.01459 0.92718 0.14794 0.0
C78 C 0.96156 0.89784 0.17752 0.0
N79 N 0.98121 0.9036 0.14984 0.0
C80 C 0.14086 0.98348 0.22493 0.0
C81 C 0.11776 0.02653 0.18458 0.0
C82 C 0.17929 0.98208 0.21148 0.0
N83 N 0.11115 1.00587 0.21166 0.0
C84 C 0.15572 0.02541 0.16998 0.0
C85 C 0.18722 1.00307 0.18361 0.0
H86 H 0.1349 0.96737 0.24648 0.0
H87 H 0.09374 0.04426 0.1745 0.0
C88 C 0.8983 1.00655 0.22271 0.0
N89 N 0.9347 1.00539 0.208 0.0
C90 C 0.86239 0.00704 0.20537 0.0
C91 C 0.90184 1.00606 0.1578 0.0
C92 C 0.93702 1.00568 0.17609 0.0
C93 C 0.86373 0.00681 0.1723 0.0
H94 H 0.897 0.00731 0.24806 0.0
H95 H 0.96619 1.00566 0.16478 0.0
O96 O 0.06666 0.00674 0.28107 0.0
O97 O 0.97181 0.00805 0.27955 0.0
O98 O 0.02095 0.05045 0.22632 0.0
O99 O 0.02348 0.95979 0.2299 0.0
H100 H 0.04536 0.01878 0.34032 0.0
H101 H 0.13682 0.04277 0.27114 0.0
H102 H 0.08582 0.05629 0.37951 0.0
H103 H 0.17571 0.07983 0.31153 0.0
H104 H 0.89133 0.90576 0.31191 0.0
H105 H 0.97114 0.02524 0.34046 0.0
H106 H 0.92688 0.94353 0.2701 0.0
H107 H 0.93456 0.98626 0.38096 0.0
H108 H 0.07087 0.17431 0.31718 0.0
H109 H 0.94644 0.14521 0.33745 0.0
H110 H 0.0161 0.82238 0.29099 0.0
H111 H 0.02684 0.89172 0.37647 0.0
H112 H 0.95341 0.09217 0.22938 0.0
H113 H 0.08226 0.10029 0.21888 0.0
H114 H 0.94957 0.16642 0.22677 0.0
H115 H 0.07615 0.17436 0.21628 0.0
H116 H 0.05587 0.96518 0.17321 0.0
H117 H 0.95982 0.91187 0.22685 0.0
H118 H 0.02954 0.93119 0.12557 0.0
H119 H 0.93506 0.87894 0.17827 0.0
H120 H 0.20271 0.9647 0.22282 0.0
H121 H 0.16053 0.04282 0.14887 0.0
H122 H 0.83423 0.00725 0.21809 0.0
H123 H 0.90445 1.00596 0.13243 0.0
Li124 Li 0.97194 1.00649 0.77443 0.0
Li125 Li 0.04758 0.00669 0.77617 0.0
Li126 Li 1.00985 0.04166 0.7316 0.0
Li127 Li 0.01361 0.96718 0.73604 0.0
C128 C 0.99653 0.08376 0.79653 0.0
N129 N 0.97089 0.14581 0.83463 0.0
C130 C 1.00724 0.08464 0.82829 0.0
C131 C 0.97327 0.11484 0.78406 0.0
C132 C 0.99385 0.11614 0.84719 0.0
C133 C 0.96046 0.14582 0.80372 0.0
C134 C 0.02337 0.94362 0.80952 0.0
C135 C 0.07405 0.90619 0.83762 0.0
N136 N 0.05197 0.90972 0.8644 0.0
C137 C 1.00116 0.94681 0.83729 0.0
C138 C 0.06009 0.92308 0.80963 0.0
C139 C 0.01613 0.92948 0.8648 0.0
C140 C 0.89047 0.9846 0.78275 0.0
N141 N 0.9207 1.00555 0.7969 0.0
C142 C 0.876 0.02416 0.8388 0.0
C143 C 0.9142 0.02484 0.82465 0.0
C144 C 0.84403 1.00347 0.8242 0.0
C145 C 0.85177 0.98366 0.79578 0.0
H146 H 0.89627 0.96896 0.76097 0.0
H147 H 0.93851 0.04086 0.83588 0.0
C148 C 0.13202 0.01525 0.78644 0.0
N149 N 0.09626 0.01079 0.80176 0.0
C150 C 0.16834 0.01802 0.8032 0.0
C151 C 0.13057 0.01223 0.85138 0.0
C152 C 0.09504 0.00943 0.83371 0.0
C153 C 0.16799 0.01628 0.83624 0.0
H154 H 0.13243 0.01689 0.76108 0.0
H155 H 0.06654 1.00577 0.84561 0.0
C156 C 0.9323 0.01759 0.71316 0.0
N157 N 0.86555 0.05052 0.68412 0.0
C158 C 0.91796 1.00152 0.68494 0.0
C159 C 0.91244 0.05015 0.72673 0.0
C160 C 0.88425 0.01867 0.67058 0.0
C161 C 0.87881 0.06643 0.71169 0.0
C162 C 0.07834 0.98694 0.70642 0.0
C163 C 0.07097 0.99724 0.67512 0.0
C164 C 0.10475 0.9556 0.71339 0.0
C165 C 0.09012 0.9758 0.65122 0.0
C166 C 0.12325 0.93485 0.68881 0.0
N167 N 0.1156 0.94529 0.6585 0.0
C168 C 0.03095 0.12152 0.7156 0.0
C169 C 0.99152 0.08938 0.67669 0.0
C170 C 0.03176 0.157 0.698 0.0
N171 N 0.01068 0.08873 0.70495 0.0
C172 C 0.99154 0.12419 0.65834 0.0
C173 C 0.01158 0.15884 0.66889 0.0
H174 H 0.04633 0.12022 0.738 0.0
H175 H 0.97625 0.06288 0.66826 0.0
C176 C 0.02852 0.88359 0.72817 0.0
N177 N 0.0157 0.917 0.71285 0.0
C178 C 0.03102 0.84681 0.71251 0.0
C179 C 1.00592 0.87885 0.66563 0.0
C180 C 1.00463 0.91526 0.68207 0.0
C181 C 0.01919 0.84392 0.68096 0.0
H182 H 0.03698 0.88541 0.75259 0.0
H183 H 0.99525 0.94224 0.67013 0.0
O184 O 1.00973 0.05326 0.77762 0.0
O185 O 1.00915 0.96042 0.78237 0.0
O186 O 0.96553 1.00139 0.72739 0.0
O187 O 0.05891 0.00673 0.73009 0.0
H188 H 0.02526 0.06103 0.83835 0.0
H189 H 0.96536 0.11532 0.75943 0.0
H190 H 1.00168 0.11698 0.87186 0.0
H191 H 0.94235 0.16996 0.79437 0.0
H192 H 0.10254 0.89048 0.83809 0.0
H193 H 0.97267 0.96247 0.83764 0.0
H194 H 0.07803 0.92086 0.78849 0.0
H195 H 0.99928 0.93177 0.88648 0.0
H196 H 0.87149 0.04054 0.86046 0.0
H197 H 0.82806 0.96739 0.78375 0.0
H198 H 0.19605 0.02217 0.79023 0.0
H199 H 0.12879 0.01096 0.87678 0.0
H200 H 0.9327 0.97615 0.67418 0.0
H201 H 0.92256 0.06237 0.74884 0.0
H202 H 0.87294 1.00663 0.64867 0.0
H203 H 0.86318 0.09164 0.72198 0.0
H204 H 0.0504 0.02126 0.66936 0.0
H205 H 0.11049 0.94707 0.73751 0.0
H206 H 0.08459 0.98331 0.62687 0.0
H207 H 0.14356 0.91036 0.69383 0.0
H208 H 0.04818 0.18228 0.70738 0.0
H209 H 0.97592 0.12396 0.63598 0.0
H210 H 0.04177 0.82071 0.72508 0.0
H211 H 0.99765 0.87837 0.64102 0.0
H212 H 0.37743 0.9596 0.05249 0.0
C213 C 0.40087 0.98194 0.05622 0.0
H214 H 0.41785 0.03207 0.08296 0.0
H215 H 0.23945 0.0777 0.11945 0.0
H216 H 0.2622 0.13554 0.09008 0.0
H217 H 0.32851 0.1357 0.06394 0.0
H218 H 0.37269 0.07838 0.06736 0.0
C219 C 0.39677 0.0073 0.08057 0.0
C220 C 0.35812 0.00817 0.09899 0.0
C221 C 0.33233 0.042 0.0966 0.0
C222 C 0.29348 0.04151 0.11095 0.0
C223 C 0.26882 0.07601 0.10849 0.0
C224 C 0.28154 0.10954 0.09177 0.0
C225 C 0.3189 0.10965 0.07711 0.0
C226 C 0.34407 0.07643 0.07937 0.0
H227 H 0.25376 0.99761 0.18679 0.0
C228 C 0.22898 1.00248 0.1705 0.0
H229 H 0.21311 0.01046 0.1229 0.0
H230 H 0.40187 0.94123 0.11264 0.0
H231 H 0.37806 0.88194 0.13997 0.0
H232 H 0.30851 0.87833 0.16024 0.0
H233 H 0.26268 0.93413 0.15405 0.0
C234 C 0.23741 1.006 0.13964 0.0
C235 C 0.27977 0.00696 0.1272 0.0
C236 C 0.30573 0.97325 0.12989 0.0
C237 C 0.34525 0.97438 0.11659 0.0
C238 C 0.37111 0.94121 0.12109 0.0
C239 C 0.35791 0.90712 0.13689 0.0
C240 C 0.3188 0.90516 0.14842 0.0
C241 C 0.29287 0.93764 0.14494 0.0
H242 H 0.04268 0.40795 0.57987 0.0
C243 C 0.02349 0.39614 0.56134 0.0
H244 H 0.98592 0.3484 0.5468 0.0
H245 H 0.07522 0.20692 0.61131 0.0
H246 H 0.10553 0.20354 0.5596 0.0
H247 H 0.09574 0.25803 0.52127 0.0
H248 H 0.05612 0.31654 0.53462 0.0
C249 C 1.00603 0.35977 0.56488 0.0
C250 C 0.01697 0.33057 0.59006 0.0
C251 C 0.03998 0.29628 0.58194 0.0
C252 C 0.04482 0.26434 0.60381 0.0
C253 C 0.06921 0.23129 0.59527 0.0
C254 C 0.08713 0.22913 0.56573 0.0
C255 C 0.08167 0.25983 0.54416 0.0
C256 C 0.05861 0.29315 0.55208 0.0
H257 H 0.99593 0.19281 0.62584 0.0
C258 C 0.01096 0.19543 0.64848 0.0
H259 H 0.04174 0.23618 0.67844 0.0
H260 H 0.97342 0.39282 0.6139 0.0
H261 H 0.94379 0.39686 0.66597 0.0
H262 H 0.95137 0.34136 0.70373 0.0
H263 H 0.98846 0.2814 0.68974 0.0
C264 C 0.0277 0.2312 0.65579 0.0
C265 C 0.02571 0.26611 0.63364 0.0
C266 C 1.00454 0.30139 0.64237 0.0
C267 C 1.00013 0.33356 0.62055 0.0
C268 C 0.97781 0.36774 0.6296 0.0
C269 C 0.96064 0.37042 0.65939 0.0
C270 C 0.96493 0.33916 0.68066 0.0
C271 C 0.98642 0.30493 0.67235 0.0
H272 H 0.6132 0.0335 0.08198 0.0
C273 C 0.62457 0.0117 0.06524 0.0
H274 H 0.66958 0.96854 0.05578 0.0
H275 H 0.79761 0.07811 0.13026 0.0
H276 H 0.78884 0.12545 0.08759 0.0
H277 H 0.73421 0.11668 0.04882 0.0
H278 H 0.68756 0.06099 0.05277 0.0
C279 C 0.65962 0.99246 0.07122 0.0
C280 C 0.68747 1.00238 0.09773 0.0
C281 C 0.71482 0.03494 0.09495 0.0
C282 C 0.74723 0.03929 0.11677 0.0
C283 C 0.77333 0.07265 0.11381 0.0
C284 C 0.7685 0.10019 0.08953 0.0
C285 C 0.73768 0.0953 0.06774 0.0
C286 C 0.71109 0.06314 0.07029 0.0
H287 H 0.83085 1.00136 0.12706 0.0
C288 C 0.82668 1.00665 0.15207 0.0
H289 H 0.78263 0.01808 0.18714 0.0
H290 H 0.63862 0.93911 0.11145 0.0
H291 H 0.64719 0.89164 0.1542 0.0
H292 H 0.70404 0.89814 0.19129 0.0
H293 H 0.75271 0.952 0.18593 0.0
C294 C 0.78869 0.01289 0.16247 0.0
C295 C 0.753 0.01048 0.14089 0.0
C296 C 0.72445 0.97911 0.14457 0.0
C297 C 0.69178 0.97509 0.12299 0.0
C298 C 0.66416 0.94316 0.12699 0.0
C299 C 0.66865 0.91585 0.15147 0.0
C300 C 0.70063 0.91955 0.17238 0.0
C301 C 0.72833 0.95068 0.16906 0.0
H302 H 0.97881 0.61603 0.572 0.0
C303 C 1.00637 0.6198 0.55855 0.0
H304 H 0.05918 0.65298 0.55092 0.0
H305 H 0.01156 0.82527 0.58835 0.0
H306 H 0.02548 0.83135 0.53281 0.0
H307 H 0.03707 0.77143 0.50019 0.0
H308 H 0.03523 0.70543 0.52294 0.0
C309 C 0.03177 0.65056 0.5648 0.0
C310 C 0.02123 0.68608 0.58485 0.0
C311 C 0.02185 0.72495 0.57104 0.0
C312 C 0.01437 0.7596 0.58971 0.0
C313 C 0.01621 0.79787 0.57529 0.0
C314 C 0.02432 0.80189 0.54337 0.0
C315 C 0.0309 0.76819 0.52504 0.0
C316 C 0.02977 0.73025 0.53854 0.0
H317 H 0.04752 0.78496 0.67156 0.0
C318 C 0.02327 0.80481 0.66431 0.0
H319 H 0.97344 0.81202 0.63405 0.0
H320 H 0.02206 0.61742 0.62006 0.0
H321 H 1.00481 0.61136 0.67517 0.0
H322 H 0.98604 0.67081 0.70629 0.0
H323 H 0.98531 0.73687 0.68265 0.0
C324 C 0.99818 0.7928 0.64122 0.0
C325 C 1.0058 0.75575 0.6222 0.0
C326 C 1.00419 0.71697 0.63592 0.0
C327 C 0.01289 0.68225 0.61745 0.0
C328 C 0.01378 0.64445 0.63244 0.0
C329 C 1.00426 0.64058 0.66417 0.0
C330 C 0.99385 0.67408 0.68173 0.0
C331 C 0.99379 0.71188 0.66791 0.0
H332 H 0.42337 1.00292 0.92051 0.0
C333 C 0.40759 0.01022 0.94213 0.0
H334 H 0.35326 0.03163 0.96183 0.0
H335 H 0.25061 0.0904 0.85109 0.0
H336 H 0.2731 0.15396 0.8726 0.0
H337 H 0.32772 0.15665 0.91193 0.0
H338 H 0.36035 0.09577 0.92993 0.0
C339 C 0.36821 0.02074 0.94082 0.0
C340 C 0.34244 0.01932 0.91193 0.0
C341 C 0.32377 0.05507 0.90132 0.0
C342 C 0.29207 0.05352 0.87871 0.0
C343 C 0.27429 0.08981 0.86859 0.0
C344 C 0.28705 0.12651 0.88062 0.0
C345 C 0.31781 0.12803 0.90277 0.0
C346 C 0.33612 0.09286 0.91303 0.0
H347 H 0.20155 0.02639 0.88065 0.0
C348 C 0.20536 0.01977 0.85579 0.0
H349 H 0.24848 1.00467 0.82097 0.0
H350 H 0.37116 0.94437 0.92651 0.0
H351 H 0.35014 0.88153 0.90356 0.0
H352 H 0.29696 0.87935 0.86308 0.0
H353 H 0.26408 0.94023 0.84562 0.0
C354 C 0.24319 0.0139 0.84505 0.0
C355 C 0.27883 0.01614 0.86665 0.0
C356 C 0.29913 0.98059 0.8757 0.0
C357 C 0.33053 0.98202 0.89865 0.0
C358 C 0.34811 0.94553 0.90863 0.0
C359 C 0.33614 0.90905 0.89573 0.0
C360 C 0.30617 0.90781 0.87296 0.0
C361 C 0.28761 0.94301 0.86311 0.0
H362 H 0.02604 0.41007 0.4238 0.0
C363 C 0.01171 0.39658 0.44417 0.0
H364 H 0.98225 0.3451 0.46196 0.0
H365 H 0.96675 0.27037 0.32306 0.0
H366 H 0.91046 0.31626 0.31747 0.0
H367 H 0.8983 0.36915 0.35684 0.0
H368 H 0.94265 0.37677 0.40199 0.0
C369 C 0.9979 0.35858 0.44222 0.0
C370 C 1.00829 0.33102 0.41584 0.0
C371 C 0.98216 0.32679 0.38971 0.0
C372 C 0.98884 0.29577 0.36725 0.0
C373 C 0.96257 0.29276 0.34114 0.0
C374 C 0.93027 0.31903 0.33758 0.0
C375 C 0.92344 0.34885 0.35974 0.0
C376 C 0.94901 0.35285 0.38555 0.0
H377 H 0.9756 0.20396 0.36404 0.0
C378 C 1.00208 0.20259 0.34901 0.0
H379 H 0.05417 0.23459 0.33456 0.0
H380 H 0.06561 0.33224 0.46212 0.0
H381 H 0.12224 0.28696 0.46752 0.0
H382 H 0.13354 0.23295 0.42897 0.0
H383 H 0.08829 0.22389 0.38475 0.0
C384 C 0.02733 0.2343 0.34907 0.0
C385 C 0.02141 0.26865 0.3712 0.0
C386 C 0.04854 0.27402 0.39665 0.0
C387 C 0.0419 0.30509 0.419 0.0
C388 C 0.06906 0.30911 0.44453 0.0
C389 C 0.10175 0.28334 0.44791 0.0
C390 C 0.10814 0.25297 0.42618 0.0
C391 C 0.08194 0.24816 0.40085 0.0
H392 H 0.65402 0.96042 0.95507 0.0
C393 C 0.63054 0.98268 0.95148 0.0
H394 H 0.61337 0.03284 0.92494 0.0
H395 H 0.79224 0.07768 0.88833 0.0
H396 H 0.77015 0.13551 0.91804 0.0
H397 H 0.70385 0.13602 0.94419 0.0
H398 H 0.65901 0.07908 0.94046 0.0
C399 C 0.63442 0.0081 0.92717 0.0
C400 C 0.67287 0.00896 0.90852 0.0
C401 C 0.69898 0.0426 0.91103 0.0
C402 C 0.7378 0.04192 0.89663 0.0
C403 C 0.76286 0.07618 0.89929 0.0
C404 C 0.75052 0.10968 0.91621 0.0
C405 C 0.71316 0.11 0.93087 0.0
C406 C 0.68762 0.077 0.92844 0.0
H407 H 0.7774 0.99919 0.82057 0.0
C408 C 0.80214 1.0032 0.83707 0.0
H409 H 0.81768 0.00961 0.88492 0.0
H410 H 0.6284 0.94243 0.89466 0.0
H411 H 0.65143 0.88325 0.8668 0.0
H412 H 0.72078 0.8794 0.84614 0.0
H413 H 0.76719 0.93484 0.85252 0.0
C414 C 0.79349 1.00603 0.86794 0.0
C415 C 0.75108 0.00738 0.88018 0.0
C416 C 0.72473 0.97394 0.87725 0.0
C417 C 0.6853 0.97524 0.89067 0.0
C418 C 0.65909 0.94228 0.88606 0.0
C419 C 0.67184 0.90826 0.86996 0.0
C420 C 0.71084 0.90617 0.85822 0.0
C421 C 0.73712 0.93843 0.86183 0.0
H422 H 0.01581 0.60153 0.42183 0.0
C423 C 0.02772 0.61547 0.44297 0.0
H424 H 0.05648 0.66679 0.46183 0.0
H425 H 0.10399 0.75747 0.33933 0.0
H426 H 0.16734 0.72344 0.34912 0.0
H427 H 0.1717 0.669 0.38815 0.0
H428 H 0.1126 0.64823 0.41769 0.0
C429 C 0.04186 0.65343 0.44153 0.0
C430 C 0.03711 0.67999 0.41356 0.0
C431 C 0.07153 0.69134 0.39597 0.0
C432 C 0.06887 0.72252 0.3732 0.0
C433 C 0.10413 0.73375 0.35664 0.0
C434 C 0.14072 0.71451 0.36207 0.0
C435 C 0.1432 0.68389 0.38407 0.0
C436 C 0.10912 0.67235 0.40093 0.0
H437 H 0.0185 0.81889 0.38175 0.0
C438 C 0.02293 0.81486 0.35661 0.0
H439 H 0.03698 0.77203 0.32148 0.0
H440 H 0.96487 0.66585 0.44288 0.0
H441 H 0.90097 0.69761 0.43138 0.0
H442 H 0.89563 0.74889 0.3899 0.0
H443 H 0.95444 0.76925 0.36006 0.0
C444 C 0.02986 0.7774 0.34598 0.0
C445 C 0.0317 0.74248 0.36802 0.0
C446 C 0.99671 0.72953 0.38432 0.0
C447 C 0.99952 0.69878 0.40746 0.0
C448 C 0.96444 0.68821 0.42453 0.0
C449 C 0.9275 0.70628 0.41821 0.0
C450 C 0.9245 0.73523 0.39492 0.0
C451 C 0.95857 0.74681 0.37809 0.0
loop_
_geom_bond_atom_site_label_1
_geom_bond_atom_site_label_2
_geom_bond_distance
_geom_bond_site_symmetry_2
_ccdc_geom_bond_type
H0 C6 0.928 1_565 S
H1 C9 0.931 . S
H2 C11 0.932 . S
H3 C13 0.930 . S
H4 C15 0.930 . S
H5 C17 0.931 . S
C6 H0 0.928 1_545 S
C6 C7 1.379 1_545 S
C6 C8 1.397 1_554 S
C7 C6 1.379 1_565 S
C7 C11 1.383 . S
C8 C6 1.397 1_556 S
C8 C9 1.400 . S
C9 H1 0.931 . S
C9 C8 1.400 . S
C9 C10 1.375 1_556 S
C10 C9 1.375 1_554 S
C10 C11 1.414 1_545 S
C10 C12 1.501 . S
C11 H2 0.932 . S
C11 C7 1.383 . S
C11 C10 1.414 1_565 S
C12 C10 1.501 . S
C12 C13 1.384 . S
C12 C17 1.408 1_544 S
C13 H3 0.930 . S
C13 C12 1.384 . S
C13 C14 1.389 . S
C14 C13 1.389 . S
C14 C15 1.405 . S
C15 H4 0.930 . S
C15 C14 1.405 . S
C15 C16 1.363 1_544 S
C16 C15 1.363 1_566 S
C16 C17 1.400 . S
C17 H5 0.931 . S
C17 C12 1.408 1_566 S
C17 C16 1.400 . S
H18 C24 0.930 . S
H19 C27 0.931 . S
H20 C29 0.931 . S
H21 C31 0.931 . S
H22 C33 0.930 . S
H23 C35 0.931 . S
C24 H18 0.930 . S
C24 C25 1.380 . S
C24 C26 1.394 . S
C25 C24 1.380 . S
C25 C29 1.382 . S
C26 C24 1.394 . S
C26 C27 1.400 1_455 S
C27 H19 0.931 . S
C27 C26 1.400 1_655 S
C27 C28 1.375 1_655 S
C28 C27 1.375 1_455 S
C28 C29 1.415 . S
C28 C30 1.501 . S
C29 H20 0.931 . S
C29 C25 1.382 . S
C29 C28 1.415 . S
C30 C28 1.501 . S
C30 C31 1.383 1_455 S
C30 C35 1.408 . S
C31 H21 0.931 . S
C31 C30 1.383 1_655 S
C31 C32 1.389 1_655 S
C32 C31 1.389 1_455 S
C32 C33 1.406 . S
C33 H22 0.930 . S
C33 C32 1.406 . S
C33 C34 1.364 . S
C34 C33 1.364 . S
C34 C35 1.400 . S
C35 H23 0.931 . S
C35 C30 1.408 . S
C35 C34 1.400 . S
Li36 N53 1.990 . S
Li36 O96 1.957 1_545 S
Li36 O97 1.970 1_455 S
Li36 O98 1.961 . S
Li37 N61 1.990 . S
Li37 O96 1.969 . S
Li37 O97 1.956 1_465 S
Li37 O99 1.961 . S
Li38 N83 1.990 . S
Li38 O96 1.961 1_545 S
Li38 O98 1.956 . S
Li38 O99 1.970 1_545 S
Li39 N89 1.990 . S
Li39 O97 1.961 1_565 S
Li39 O98 1.968 1_665 S
Li39 O99 1.958 1_655 S
C40 C42 1.348 1_545 S
C40 C43 1.356 . S
C40 O96 1.325 1_545 S
N41 C44 1.314 1_545 S
N41 C45 1.279 . S
C42 C40 1.348 1_565 S
C42 C44 1.353 . S
C42 H100 0.929 . S
C43 C40 1.356 . S
C43 C45 1.358 . S
C43 H101 0.930 . S
C44 N41 1.314 1_565 S
C44 C42 1.353 . S
C44 H102 0.930 . S
C45 N41 1.279 . S
C45 C43 1.358 . S
C45 H103 0.930 . S
C46 C49 1.348 . S
C46 C50 1.356 1_545 S
C46 O97 1.325 . S
C47 N48 1.279 . S
C47 C50 1.358 . S
C47 H104 0.930 . S
N48 C47 1.279 . S
N48 C51 1.314 1_565 S
C49 C46 1.348 . S
C49 C51 1.353 . S
C49 H105 0.929 . S
C50 C46 1.356 1_565 S
C50 C47 1.358 . S
C50 H106 0.930 . S
C51 N48 1.314 1_545 S
C51 C49 1.353 . S
C51 H107 0.930 . S
C52 N53 1.314 1_655 S
C52 C57 1.353 . S
C52 H58 0.930 . S
N53 Li36 1.990 . S
N53 C52 1.314 1_455 S
N53 C55 1.279 . S
C54 C55 1.358 . S
C54 C56 1.356 . S
C54 H108 0.930 . S
C55 N53 1.279 . S
C55 C54 1.358 . S
C55 H59 0.930 . S
C56 C54 1.356 . S
C56 C57 1.348 1_455 S
C57 C52 1.353 . S
C57 C56 1.348 1_655 S
C57 H109 0.929 . S
H58 C52 0.930 . S
H59 C55 0.930 . S
C60 N61 1.314 . S
C60 C62 1.353 . S
C60 H66 0.930 . S
N61 Li37 1.990 . S
N61 C60 1.314 . S
N61 C64 1.279 1_455 S
C62 C60 1.353 . S
C62 C65 1.348 . S
C62 H110 0.929 . S
C63 C64 1.358 . S
C63 C65 1.356 1_655 S
C63 H111 0.930 . S
C64 N61 1.279 1_655 S
C64 C63 1.358 . S
C64 H67 0.930 . S
C65 C62 1.348 . S
C65 C63 1.356 1_455 S
H66 C60 0.930 . S
H67 C64 0.930 . S
C68 C70 1.348 1_455 S
C68 C71 1.356 . S
C68 O98 1.325 . S
N69 C72 1.314 1_455 S
N69 C73 1.279 . S
C70 C68 1.348 1_655 S
C70 C72 1.353 . S
C70 H112 0.929 . S
C71 C68 1.356 . S
C71 C73 1.358 . S
C71 H113 0.930 . S
C72 N69 1.314 1_655 S
C72 C70 1.353 . S
C72 H114 0.930 . S
C73 N69 1.279 . S
C73 C71 1.358 . S
C73 H115 0.930 . S
C74 C75 1.348 . S
C74 C76 1.356 1_455 S
C74 O99 1.325 . S
C75 C74 1.348 . S
C75 C77 1.353 . S
C75 H116 0.929 . S
C76 C74 1.356 1_655 S
C76 C78 1.358 . S
C76 H117 0.930 . S
C77 C75 1.353 . S
C77 N79 1.314 . S
C77 H118 0.930 . S
C78 C76 1.358 . S
C78 N79 1.279 1_655 S
C78 H119 0.930 . S
N79 C77 1.314 . S
N79 C78 1.279 1_455 S
C80 C82 1.353 . S
C80 N83 1.314 1_565 S
C80 H86 0.930 . S
C81 N83 1.279 . S
C81 C84 1.358 . S
C81 H87 0.930 . S
C82 C80 1.353 . S
C82 C85 1.348 1_565 S
C82 H120 0.929 . S
N83 Li38 1.990 . S
N83 C80 1.314 1_545 S
N83 C81 1.279 . S
C84 C81 1.358 . S
C84 C85 1.356 . S
C84 H121 0.930 . S
C85 C82 1.348 1_545 S
C85 C84 1.356 . S
H86 C80 0.930 . S
H87 C81 0.930 . S
C88 N89 1.314 1_545 S
C88 C90 1.353 . S
C88 H94 0.930 . S
N89 Li39 1.990 . S
N89 C88 1.314 1_565 S
N89 C92 1.279 . S
C90 C88 1.353 . S
C90 C93 1.348 . S
C90 H122 0.929 . S
C91 C92 1.358 . S
C91 C93 1.356 1_565 S
C91 H123 0.930 . S
C92 N89 1.279 . S
C92 C91 1.358 . S
C92 H95 0.930 . S
C93 C90 1.348 . S
C93 C91 1.356 1_545 S
H94 C88 0.930 . S
H95 C92 0.930 . S
O96 Li36 1.957 1_565 S
O96 Li37 1.969 . S
O96 Li38 1.961 1_565 S
O96 C40 1.325 1_565 S
O97 Li36 1.970 1_655 S
O97 Li37 1.956 1_645 S
O97 Li39 1.961 1_545 S
O97 C46 1.325 . S
O98 Li36 1.961 . S
O98 Li38 1.956 . S
O98 Li39 1.968 1_445 S
O98 C68 1.325 . S
O99 Li37 1.961 . S
O99 Li38 1.970 1_565 S
O99 Li39 1.958 1_455 S
O99 C74 1.325 . S
H100 C42 0.929 . S
H101 C43 0.930 . S
H102 C44 0.930 . S
H103 C45 0.930 . S
H104 C47 0.930 . S
H105 C49 0.929 . S
H106 C50 0.930 . S
H107 C51 0.930 . S
H108 C54 0.930 . S
H109 C57 0.929 . S
H110 C62 0.929 . S
H111 C63 0.930 . S
H112 C70 0.929 . S
H113 C71 0.930 . S
H114 C72 0.930 . S
H115 C73 0.930 . S
H116 C75 0.929 . S
H117 C76 0.930 . S
H118 C77 0.930 . S
H119 C78 0.930 . S
H120 C82 0.929 . S
H121 C84 0.930 . S
H122 C90 0.929 . S
H123 C91 0.930 . S
Li124 N141 1.990 . S
Li124 O184 1.956 1_655 S
Li124 O185 1.970 1_645 S
Li124 O186 1.961 . S
Li125 N149 1.990 . S
Li125 O184 1.973 1_565 S
Li125 O185 1.954 . S
Li125 O187 1.961 1_565 S
Li126 N171 1.990 . S
Li126 O184 1.961 . S
Li126 O186 1.958 1_455 S
Li126 O187 1.970 . S
Li127 N177 1.990 . S
Li127 O185 1.961 . S
Li127 O186 1.969 1_465 S
Li127 O187 1.956 1_565 S
C128 C130 1.348 . S
C128 C131 1.356 1_455 S
C128 O184 1.325 . S
N129 C132 1.332 . S
N129 C133 1.263 1_455 S
C130 C128 1.348 . S
C130 C132 1.353 . S
C130 H188 0.929 . S
C131 C128 1.356 1_655 S
C131 C133 1.358 . S
C131 H189 0.930 . S
C132 N129 1.332 . S
C132 C130 1.353 . S
C132 H190 0.930 . S
C133 N129 1.263 1_655 S
C133 C131 1.358 . S
C133 H191 0.930 . S
C134 C137 1.348 1_455 S
C134 C138 1.356 . S
C134 O185 1.325 . S
C135 N136 1.279 . S
C135 C138 1.358 . S
C135 H192 0.930 . S
N136 C135 1.279 . S
N136 C139 1.314 1_455 S
C137 C134 1.348 1_655 S
C137 C139 1.353 . S
C137 H193 0.929 . S
C138 C134 1.356 . S
C138 C135 1.358 . S
C138 H194 0.930 . S
C139 N136 1.314 1_655 S
C139 C137 1.353 . S
C139 H195 0.930 . S
C140 N141 1.314 1_565 S
C140 C145 1.353 . S
C140 H146 0.930 . S
N141 Li124 1.990 . S
N141 C140 1.314 1_545 S
N141 C143 1.279 . S
C142 C143 1.358 . S
C142 C144 1.356 . S
C142 H196 0.930 . S
C143 N141 1.279 . S
C143 C142 1.358 . S
C143 H147 0.930 . S
C144 C142 1.356 . S
C144 C145 1.348 1_545 S
C145 C140 1.353 . S
C145 C144 1.348 1_565 S
C145 H197 0.929 . S
H146 C140 0.930 . S
H147 C143 0.930 . S
C148 N149 1.314 1_545 S
C148 C150 1.353 . S
C148 H154 0.930 . S
N149 Li125 1.990 . S
N149 C148 1.314 1_565 S
N149 C152 1.279 . S
C150 C148 1.353 . S
C150 C153 1.348 . S
C150 H198 0.929 . S
C151 C152 1.358 . S
C151 C153 1.356 1_565 S
C151 H199 0.930 . S
C152 N149 1.279 . S
C152 C151 1.358 . S
C152 H155 0.930 . S
C153 C150 1.348 . S
C153 C151 1.356 1_545 S
H154 C148 0.930 . S
H155 C152 0.930 . S
C156 C158 1.348 1_545 S
C156 C159 1.356 . S
C156 O186 1.325 . S
N157 C160 1.314 1_545 S
N157 C161 1.279 . S
C158 C156 1.348 1_565 S
C158 C160 1.353 . S
C158 H200 0.929 . S
C159 C156 1.356 . S
C159 C161 1.358 . S
C159 H201 0.930 . S
C160 N157 1.314 1_565 S
C160 C158 1.353 . S
C160 H202 0.930 . S
C161 N157 1.279 . S
C161 C159 1.358 . S
C161 H203 0.930 . S
C162 C163 1.348 . S
C162 C164 1.356 1_545 S
C162 O187 1.325 . S
C163 C162 1.348 . S
C163 C165 1.353 . S
C163 H204 0.929 . S
C164 C162 1.356 1_565 S
C164 C166 1.358 . S
C164 H205 0.930 . S
C165 C163 1.353 . S
C165 N167 1.314 1_545 S
C165 H206 0.930 . S
C166 C164 1.358 . S
C166 N167 1.279 . S
C166 H207 0.930 . S
N167 C165 1.314 1_565 S
N167 C166 1.279 . S
C168 C170 1.353 . S
C168 N171 1.314 . S
C168 H174 0.930 . S
C169 N171 1.279 1_655 S
C169 C172 1.358 . S
C169 H175 0.930 . S
C170 C168 1.353 . S
C170 C173 1.348 . S
C170 H208 0.929 . S
N171 Li126 1.990 . S
N171 C168 1.314 . S
N171 C169 1.279 1_455 S
C172 C169 1.358 . S
C172 C173 1.356 1_655 S
C172 H209 0.930 . S
C173 C170 1.348 . S
C173 C172 1.356 1_455 S
H174 C168 0.930 . S
H175 C169 0.930 . S
C176 N177 1.314 1_655 S
C176 C178 1.353 . S
C176 H182 0.930 . S
N177 Li127 1.990 . S
N177 C176 1.314 1_455 S
N177 C180 1.279 . S
C178 C176 1.353 . S
C178 C181 1.348 1_655 S
C178 H210 0.929 . S
C179 C180 1.358 . S
C179 C181 1.356 . S
C179 H211 0.930 . S
C180 N177 1.279 . S
C180 C179 1.358 . S
C180 H183 0.930 . S
C181 C178 1.348 1_455 S
C181 C179 1.356 . S
H182 C176 0.930 . S
H183 C180 0.930 . S
O184 Li124 1.956 1_455 S
O184 Li125 1.973 1_545 S
O184 Li126 1.961 . S
O184 C128 1.325 . S
O185 Li124 1.970 1_465 S
O185 Li125 1.954 . S
O185 Li127 1.961 . S
O185 C134 1.325 . S
O186 Li124 1.961 . S
O186 Li126 1.958 1_655 S
O186 Li127 1.969 1_645 S
O186 C156 1.325 . S
O187 Li125 1.961 1_545 S
O187 Li126 1.970 . S
O187 Li127 1.956 1_545 S
O187 C162 1.325 . S
H188 C130 0.929 . S
H189 C131 0.930 . S
H190 C132 0.930 . S
H191 C133 0.930 . S
H192 C135 0.930 . S
H193 C137 0.929 . S
H194 C138 0.930 . S
H195 C139 0.930 . S
H196 C142 0.930 . S
H197 C145 0.929 . S
H198 C150 0.929 . S
H199 C151 0.930 . S
H200 C158 0.929 . S
H201 C159 0.930 . S
H202 C160 0.930 . S
H203 C161 0.930 . S
H204 C163 0.929 . S
H205 C164 0.930 . S
H206 C165 0.930 . S
H207 C166 0.930 . S
H208 C170 0.929 . S
H209 C172 0.930 . S
H210 C178 0.929 . S
H211 C179 0.930 . S
H212 C213 0.951 . S
C213 H212 0.951 . S
C213 C219 1.262 1_565 S
H214 C219 0.955 . S
H215 C223 0.949 . S
H216 C224 0.950 . S
H217 C225 0.951 . S
H218 C226 0.951 . S
C219 C213 1.262 1_545 S
C219 H214 0.955 . S
C219 C220 1.477 1_545 S
C220 C219 1.477 1_565 S
C220 C221 1.383 1_565 S
C220 C237 1.408 . S
C221 C220 1.383 1_545 S
C221 C222 1.438 . S
C221 C226 1.429 . S
C222 C221 1.438 . S
C222 C223 1.428 . S
C222 C235 1.394 1_545 S
C223 H215 0.949 . S
C223 C222 1.428 . S
C223 C224 1.345 . S
C224 H216 0.950 . S
C224 C223 1.345 . S
C224 C225 1.424 . S
C225 H217 0.951 . S
C225 C224 1.424 . S
C225 C226 1.347 . S
C226 H218 0.951 . S
C226 C221 1.429 . S
C226 C225 1.347 . S
H227 C228 0.955 . S
C228 H227 0.955 . S
C228 C234 1.262 1_545 S
H229 C234 0.950 . S
H230 C238 0.949 . S
H231 C239 0.950 . S
H232 C240 0.951 . S
H233 C241 0.951 . S
C234 C228 1.262 1_565 S
C234 H229 0.950 . S
C234 C235 1.478 . S
C235 C222 1.394 1_565 S
C235 C234 1.478 . S
C235 C236 1.397 . S
C236 C235 1.397 . S
C236 C237 1.438 . S
C236 C241 1.429 . S
C237 C220 1.408 . S
C237 C236 1.438 . S
C237 C238 1.428 . S
C238 H230 0.949 . S
C238 C237 1.428 . S
C238 C239 1.345 . S
C239 H231 0.950 . S
C239 C238 1.345 . S
C239 C240 1.424 . S
C240 H232 0.951 . S
C240 C239 1.424 . S
C240 C241 1.347 . S
C241 H233 0.951 . S
C241 C236 1.429 . S
C241 C240 1.347 . S
H242 C243 0.951 . S
C243 H242 0.951 . S
C243 C249 1.265 1_455 S
H244 C249 0.950 . S
H245 C253 0.949 . S
H246 C254 0.950 . S
H247 C255 0.951 . S
H248 C256 0.951 . S
C249 C243 1.265 1_655 S
C249 H244 0.950 . S
C249 C250 1.473 1_655 S
C250 C249 1.473 1_455 S
C250 C251 1.387 1_455 S
C250 C267 1.409 . S
C251 C250 1.387 1_655 S
C251 C252 1.438 . S
C251 C256 1.429 . S
C252 C251 1.438 . S
C252 C253 1.428 . S
C252 C265 1.394 1_655 S
C253 H245 0.949 . S
C253 C252 1.428 . S
C253 C254 1.345 . S
C254 H246 0.950 . S
C254 C253 1.345 . S
C254 C255 1.424 . S
C255 H247 0.951 . S
C255 C254 1.424 . S
C255 C256 1.347 . S
C256 H248 0.951 . S
C256 C251 1.429 . S
C256 C255 1.347 . S
H257 C258 0.951 1_655 S
C258 H257 0.951 1_455 S
C258 C264 1.265 . S
H259 C264 0.950 . S
H260 C268 0.949 . S
H261 C269 0.950 . S
H262 C270 0.951 . S
H263 C271 0.951 . S
C264 C258 1.265 . S
C264 H259 0.950 . S
C264 C265 1.478 . S
C265 C252 1.394 1_455 S
C265 C264 1.478 . S
C265 C266 1.397 . S
C266 C265 1.397 . S
C266 C267 1.438 . S
C266 C271 1.429 . S
C267 C250 1.409 . S
C267 C266 1.438 . S
C267 C268 1.428 . S
C268 H260 0.949 . S
C268 C267 1.428 . S
C268 C269 1.345 . S
C269 H261 0.950 . S
C269 C268 1.345 . S
C269 C270 1.424 . S
C270 H262 0.951 . S
C270 C269 1.424 . S
C270 C271 1.347 . S
C271 H263 0.951 . S
C271 C266 1.429 . S
C271 C270 1.347 . S
H272 C273 0.951 . S
C273 H272 0.951 . S
C273 C279 1.265 . S
H274 C279 0.950 . S
H275 C283 0.949 . S
H276 C284 0.950 . S
H277 C285 0.951 . S
H278 C286 0.951 . S
C279 C273 1.265 . S
C279 H274 0.950 . S
C279 C280 1.478 . S
C280 C279 1.478 . S
C280 C281 1.397 . S
C280 C297 1.394 1_545 S
C281 C280 1.397 . S
C281 C282 1.438 . S
C281 C286 1.429 . S
C282 C281 1.438 . S
C282 C283 1.428 . S
C282 C295 1.394 . S
C283 H275 0.949 . S
C283 C282 1.428 . S
C283 C284 1.345 . S
C284 H276 0.950 . S
C284 C283 1.345 . S
C284 C285 1.424 . S
C285 H277 0.951 . S
C285 C284 1.424 . S
C285 C286 1.347 . S
C286 H278 0.951 . S
C286 C281 1.429 . S
C286 C285 1.347 . S
H287 C288 0.951 . S
C288 H287 0.951 . S
C288 C294 1.265 . S
H289 C294 0.950 1_565 S
H290 C298 0.949 . S
H291 C299 0.950 . S
H292 C300 0.951 . S
H293 C301 0.951 . S
C294 C288 1.265 . S
C294 H289 0.950 1_545 S
C294 C295 1.478 . S
C295 C282 1.394 . S
C295 C294 1.478 . S
C295 C296 1.397 1_545 S
C296 C295 1.397 1_565 S
C296 C297 1.438 . S
C296 C301 1.429 . S
C297 C280 1.394 1_565 S
C297 C296 1.438 . S
C297 C298 1.428 . S
C298 H290 0.949 . S
C298 C297 1.428 . S
C298 C299 1.345 . S
C299 H291 0.950 . S
C299 C298 1.345 . S
C299 C300 1.424 . S
C300 H292 0.951 . S
C300 C299 1.424 . S
C300 C301 1.347 . S
C301 H293 0.951 . S
C301 C296 1.429 . S
C301 C300 1.347 . S
H302 C303 0.951 . S
C303 H302 0.951 . S
C303 C309 1.265 1_655 S
H304 C309 0.950 . S
H305 C313 0.949 . S
H306 C314 0.950 . S
H307 C315 0.951 . S
H308 C316 0.951 . S
C309 C303 1.265 1_455 S
C309 H304 0.950 . S
C309 C310 1.478 . S
C310 C309 1.478 . S
C310 C311 1.397 . S
C310 C327 1.394 1_455 S
C311 C310 1.397 . S
C311 C312 1.438 . S
C311 C316 1.429 . S
C312 C311 1.438 . S
C312 C313 1.428 . S
C312 C325 1.394 1_455 S
C313 H305 0.949 . S
C313 C312 1.428 . S
C313 C314 1.345 . S
C314 H306 0.950 . S
C314 C313 1.345 . S
C314 C315 1.424 . S
C315 H307 0.951 . S
C315 C314 1.424 . S
C315 C316 1.347 . S
C316 H308 0.951 . S
C316 C311 1.429 . S
C316 C315 1.347 . S
H317 C318 0.951 . S
C318 H317 0.951 . S
C318 C324 1.265 1_455 S
H319 C324 0.950 . S
H320 C328 0.949 . S
H321 C329 0.950 . S
H322 C330 0.951 . S
H323 C331 0.951 . S
C324 C318 1.265 1_655 S
C324 H319 0.950 . S
C324 C325 1.478 . S
C325 C312 1.394 1_655 S
C325 C324 1.478 . S
C325 C326 1.397 . S
C326 C325 1.397 . S
C326 C327 1.438 . S
C326 C331 1.429 . S
C327 C310 1.394 1_655 S
C327 C326 1.438 . S
C327 C328 1.428 . S
C328 H320 0.949 . S
C328 C327 1.428 . S
C328 C329 1.345 . S
C329 H321 0.950 . S
C329 C328 1.345 . S
C329 C330 1.424 . S
C330 H322 0.951 . S
C330 C329 1.424 . S
C330 C331 1.347 . S
C331 H323 0.951 . S
C331 C326 1.429 . S
C331 C330 1.347 . S
H332 C333 0.951 . S
C333 H332 0.951 . S
C333 C339 1.265 . S
H334 C339 0.950 . S
H335 C343 0.949 . S
H336 C344 0.950 . S
H337 C345 0.951 . S
H338 C346 0.951 . S
C339 C333 1.265 . S
C339 H334 0.950 . S
C339 C340 1.478 . S
C340 C339 1.478 . S
C340 C341 1.397 . S
C340 C357 1.394 1_545 S
C341 C340 1.397 . S
C341 C342 1.438 . S
C341 C346 1.429 . S
C342 C341 1.438 . S
C342 C343 1.428 . S
C342 C355 1.394 . S
C343 H335 0.949 . S
C343 C342 1.428 . S
C343 C344 1.345 . S
C344 H336 0.950 . S
C344 C343 1.345 . S
C344 C345 1.424 . S
C345 H337 0.951 . S
C345 C344 1.424 . S
C345 C346 1.347 . S
C346 H338 0.951 . S
C346 C341 1.429 . S
C346 C345 1.347 . S
H347 C348 0.951 . S
C348 H347 0.951 . S
C348 C354 1.266 . S
H349 C354 0.948 1_565 S
H350 C358 0.949 . S
H351 C359 0.950 . S
H352 C360 0.951 . S
H353 C361 0.951 . S
C354 C348 1.266 . S
C354 H349 0.948 1_545 S
C354 C355 1.479 . S
C355 C342 1.394 . S
C355 C354 1.479 . S
C355 C356 1.397 1_545 S
C356 C355 1.397 1_565 S
C356 C357 1.438 . S
C356 C361 1.429 . S
C357 C340 1.394 1_565 S
C357 C356 1.438 . S
C357 C358 1.428 . S
C358 H350 0.949 . S
C358 C357 1.428 . S
C358 C359 1.345 . S
C359 H351 0.950 . S
C359 C358 1.345 . S
C359 C360 1.424 . S
C360 H352 0.951 . S
C360 C359 1.424 . S
C360 C361 1.347 . S
C361 H353 0.951 . S
C361 C356 1.429 . S
C361 C360 1.347 . S
H362 C363 0.951 . S
C363 H362 0.951 . S
C363 C369 1.265 1_455 S
H364 C369 0.950 . S
H365 C373 0.949 . S
H366 C374 0.950 . S
H367 C375 0.951 . S
H368 C376 0.951 . S
C369 C363 1.265 1_655 S
C369 H364 0.950 . S
C369 C370 1.478 . S
C370 C369 1.478 . S
C370 C371 1.400 . S
C370 C387 1.394 . S
C371 C370 1.400 . S
C371 C372 1.432 1_655 S
C371 C376 1.431 . S
C372 C371 1.432 1_455 S
C372 C373 1.428 . S
C372 C385 1.394 . S
C373 H365 0.949 . S
C373 C372 1.428 . S
C373 C374 1.345 . S
C374 H366 0.950 . S
C374 C373 1.345 . S
C374 C375 1.424 1_455 S
C375 H367 0.951 . S
C375 C374 1.424 1_655 S
C375 C376 1.347 . S
C376 H368 0.951 . S
C376 C371 1.431 . S
C376 C375 1.347 . S
H377 C378 0.954 . S
C378 H377 0.954 . S
C378 C384 1.263 1_655 S
H379 C384 0.950 . S
H380 C388 0.949 . S
H381 C389 0.950 . S
H382 C390 0.951 . S
H383 C391 0.951 . S
C384 C378 1.263 1_455 S
C384 H379 0.950 . S
C384 C385 1.478 . S
C385 C372 1.394 . S
C385 C384 1.478 . S
C385 C386 1.397 . S
C386 C385 1.397 . S
C386 C387 1.438 1_455 S
C386 C391 1.429 . S
C387 C370 1.394 . S
C387 C386 1.438 1_655 S
C387 C388 1.428 . S
C388 H380 0.949 . S
C388 C387 1.428 . S
C388 C389 1.345 . S
C389 H381 0.950 . S
C389 C388 1.345 . S
C389 C390 1.424 1_655 S
C390 H382 0.951 . S
C390 C389 1.424 1_455 S
C390 C391 1.347 . S
C391 H383 0.951 . S
C391 C386 1.429 . S
C391 C390 1.347 . S
H392 C393 0.951 . S
C393 H392 0.951 . S
C393 C399 1.264 1_565 S
H394 C399 0.951 . S
H395 C403 0.949 . S
H396 C404 0.950 . S
H397 C405 0.951 . S
H398 C406 0.951 . S
C399 C393 1.264 1_545 S
C399 H394 0.951 . S
C399 C400 1.478 1_545 S
C400 C399 1.478 1_565 S
C400 C401 1.377 1_565 S
C400 C417 1.415 . S
C401 C400 1.377 1_545 S
C401 C402 1.438 . S
C401 C406 1.429 . S
C402 C401 1.438 . S
C402 C403 1.428 . S
C402 C415 1.394 1_545 S
C403 H395 0.949 . S
C403 C402 1.428 . S
C403 C404 1.345 . S
C404 H396 0.950 . S
C404 C403 1.345 . S
C404 C405 1.424 . S
C405 H397 0.951 . S
C405 C404 1.424 . S
C405 C406 1.347 . S
C406 H398 0.951 . S
C406 C401 1.429 . S
C406 C405 1.347 . S
H407 C408 0.954 . S
C408 H407 0.954 . S
C408 C414 1.263 1_545 S
H409 C414 0.950 . S
H410 C418 0.949 . S
H411 C419 0.950 . S
H412 C420 0.951 . S
H413 C421 0.951 . S
C414 C408 1.263 1_565 S
C414 H409 0.950 . S
C414 C415 1.478 . S
C415 C402 1.394 1_565 S
C415 C414 1.478 . S
C415 C416 1.397 . S
C416 C415 1.397 . S
C416 C417 1.438 . S
C416 C421 1.429 . S
C417 C400 1.415 . S
C417 C416 1.438 . S
C417 C418 1.428 . S
C418 H410 0.949 . S
C418 C417 1.428 . S
C418 C419 1.345 . S
C419 H411 0.950 . S
C419 C418 1.345 . S
C419 C420 1.424 . S
C420 H412 0.951 . S
C420 C419 1.424 . S
C420 C421 1.347 . S
C421 H413 0.951 . S
C421 C416 1.429 . S
C421 C420 1.347 . S
H422 C423 0.951 1_655 S
C423 H422 0.951 1_455 S
C423 C429 1.265 . S
H424 C429 0.950 . S
H425 C433 0.949 . S
H426 C434 0.950 . S
H427 C435 0.951 . S
H428 C436 0.951 . S
C429 C423 1.265 . S
C429 H424 0.950 . S
C429 C430 1.478 . S
C430 C429 1.478 . S
C430 C431 1.397 . S
C430 C447 1.394 1_455 S
C431 C430 1.397 . S
C431 C432 1.438 . S
C431 C436 1.429 . S
C432 C431 1.438 . S
C432 C433 1.428 . S
C432 C445 1.394 . S
C433 H425 0.949 . S
C433 C432 1.428 . S
C433 C434 1.345 . S
C434 H426 0.950 . S
C434 C433 1.345 . S
C434 C435 1.424 . S
C435 H427 0.951 . S
C435 C434 1.424 . S
C435 C436 1.347 . S
C436 H428 0.951 . S
C436 C431 1.429 . S
C436 C435 1.347 . S
H437 C438 0.951 . S
C438 H437 0.951 . S
C438 C444 1.265 1_455 S
H439 C444 0.950 . S
H440 C448 0.949 . S
H441 C449 0.950 . S
H442 C450 0.951 . S
H443 C451 0.951 . S
C444 C438 1.265 1_655 S
C444 H439 0.950 . S
C444 C445 1.478 1_655 S
C445 C432 1.394 . S
C445 C444 1.478 1_455 S
C445 C446 1.397 1_455 S
C446 C445 1.397 1_655 S
C446 C447 1.438 . S
C446 C451 1.429 . S
C447 C430 1.394 1_655 S
C447 C446 1.438 . S
C447 C448 1.428 . S
C448 H440 0.949 . S
C448 C447 1.428 . S
C448 C449 1.345 . S
C449 H441 0.950 . S
C449 C448 1.345 . S
C449 C450 1.424 . S
C450 H442 0.951 . S
C450 C449 1.424 . S
C450 C451 1.347 . S
C451 H443 0.951 . S
C451 C446 1.429 . S
C451 C450 1.347 . S
C228 C85 1.536 . S
C213 C7 1.445 . S
C258 C173 1.535 . S
C243 C34 1.492 . S
C288 C93 1.553 . S
C273 C14 1.539 . S
C318 C181 1.529 . S
C303 C26 1.459 1_655 S
C348 C153 1.543 . S
C333 C8 1.530 . S
C378 C56 1.544 1_655 S
C363 C32 1.477 . S
C408 C144 1.532 . S
C393 C16 1.443 . S
C423 C25 1.518 . S
C438 C65 1.550 . S
