# Generated by pormake.
# Topology dag, (6,3)-cn, num edge types: 1
# Building blocks:
#     Node 0, Type 0, BuildingBlock: OJICUG_clean_sbu_0, # of connection points: 6
#     Node 1, Type 0, BuildingBlock: OJICUG_clean_sbu_0, # of connection points: 6
#     Node 2, Type 0, BuildingBlock: OJICUG_clean_sbu_0, # of connection points: 6
#     Node 3, Type 0, BuildingBlock: OJICUG_clean_sbu_0, # of connection points: 6
#     Node 4, Type 1, BuildingBlock: BETDIP_clean_linker_0, # of connection points: 3
#     Node 5, Type 1, BuildingBlock: BETDIP_clean_linker_0, # of connection points: 3
#     Node 6, Type 1, BuildingBlock: BETDIP_clean_linker_0, # of connection points: 3
#     Node 7, Type 1, BuildingBlock: BETDIP_clean_linker_0, # of connection points: 3
#     Node 8, Type 1, BuildingBlock: BETDIP_clean_linker_0, # of connection points: 3
#     Node 9, Type 1, BuildingBlock: BETDIP_clean_linker_0, # of connection points: 3
#     Node 10, Type 1, BuildingBlock: BETDIP_clean_linker_0, # of connection points: 3
#     Node 11, Type 1, BuildingBlock: BETDIP_clean_linker_0, # of connection points: 3
#     Edge 12, Type (0, 1), BuildingBlock: ZUJKAS_clean_linker_0, # of connection points: 2
#     Edge 13, Type (0, 1), BuildingBlock: ZUJKAS_clean_linker_0, # of connection points: 2
#     Edge 14, Type (0, 1), BuildingBlock: ZUJKAS_clean_linker_0, # of connection points: 2
#     Edge 15, Type (0, 1), BuildingBlock: ZUJKAS_clean_linker_0, # of connection points: 2
#     Edge 16, Type (0, 1), BuildingBlock: ZUJKAS_clean_linker_0, # of connection points: 2
#     Edge 17, Type (0, 1), BuildingBlock: ZUJKAS_clean_linker_0, # of connection points: 2
#     Edge 18, Type (0, 1), BuildingBlock: ZUJKAS_clean_linker_0, # of connection points: 2
#     Edge 19, Type (0, 1), BuildingBlock: ZUJKAS_clean_linker_0, # of connection points: 2
#     Edge 20, Type (0, 1), BuildingBlock: ZUJKAS_clean_linker_0, # of connection points: 2
#     Edge 21, Type (0, 1), BuildingBlock: ZUJKAS_clean_linker_0, # of connection points: 2
#     Edge 22, Type (0, 1), BuildingBlock: ZUJKAS_clean_linker_0, # of connection points: 2
#     Edge 23, Type (0, 1), BuildingBlock: ZUJKAS_clean_linker_0, # of connection points: 2
#     Edge 24, Type (0, 1), BuildingBlock: ZUJKAS_clean_linker_0, # of connection points: 2
#     Edge 25, Type (0, 1), BuildingBlock: ZUJKAS_clean_linker_0, # of connection points: 2
#     Edge 26, Type (0, 1), BuildingBlock: ZUJKAS_clean_linker_0, # of connection points: 2
#     Edge 27, Type (0, 1), BuildingBlock: ZUJKAS_clean_linker_0, # of connection points: 2
#     Edge 28, Type (0, 1), BuildingBlock: ZUJKAS_clean_linker_0, # of connection points: 2
#     Edge 29, Type (0, 1), BuildingBlock: ZUJKAS_clean_linker_0, # of connection points: 2
#     Edge 30, Type (0, 1), BuildingBlock: ZUJKAS_clean_linker_0, # of connection points: 2
#     Edge 31, Type (0, 1), BuildingBlock: ZUJKAS_clean_linker_0, # of connection points: 2
#     Edge 32, Type (0, 1), BuildingBlock: ZUJKAS_clean_linker_0, # of connection points: 2
#     Edge 33, Type (0, 1), BuildingBlock: ZUJKAS_clean_linker_0, # of connection points: 2
#     Edge 34, Type (0, 1), BuildingBlock: ZUJKAS_clean_linker_0, # of connection points: 2
#     Edge 35, Type (0, 1), BuildingBlock: ZUJKAS_clean_linker_0, # of connection points: 2
# Relax obj value: 0.094
# Max RMSD: 0.106
# Mean RMSD: 0.087
data_MOF--net-dag--node1-OJICUG_clean_sbu_0--node2-BETDIP_clean_linker_0--edge1-ZUJKAS_clean_linker_0
_symmetry_space_group_name_H-M    P1
_symmetry_Int_Tables_number       1
_symmetry_cell_setting            triclinic
loop_
_symmetry_equiv_pos_as_xyz
'x, y, z'
_cell_length_a     49.610254
_cell_length_b     48.688948
_cell_length_c     50.730576
_cell_angle_alpha  86.092634
_cell_angle_beta   90.060566
_cell_angle_gamma 90.009373
loop_
_atom_site_label
_atom_site_type_symbol
_atom_site_fract_x
_atom_site_fract_y
_atom_site_fract_z
_atom_type_partial_charge
Sc0 Sc 0.12875 0.86847 0.00153 0.0
Sc1 Sc 0.15211 0.80008 0.00144 0.0
Sc2 Sc 0.19436 0.85576 0.97965 0.0
O3 O 0.15844 0.84139 0.99423 0.0
C4 C 0.15257 0.89529 0.94746 0.0
C5 C 0.0954 0.81976 0.97738 0.0
C6 C 0.18473 0.80291 0.94701 0.0
C7 C 0.12359 0.82484 0.05114 0.0
C8 C 0.18091 0.90015 0.02091 0.0
C9 C 0.21288 0.80667 0.02089 0.0
O10 O 0.13357 0.89107 0.96401 0.0
O11 O 0.11309 0.80124 0.98243 0.0
O12 O 0.1948 0.82648 0.94997 0.0
O13 O 0.12084 0.84879 0.03987 0.0
O14 O 0.19766 0.88688 0.00773 0.0
O15 O 0.19033 0.79423 0.02119 0.0
O16 O 0.15565 0.89583 0.02025 0.0
O17 O 0.134 0.80493 0.0397 0.0
O18 O 0.21726 0.8288 0.00673 0.0
O19 O 0.09838 0.84448 0.98342 0.0
O20 O 0.17574 0.88437 0.95064 0.0
O21 O 0.16948 0.79043 0.96407 0.0
Sc22 Sc 0.69473 0.64273 0.54921 0.0
Sc23 Sc 0.64965 0.6967 0.52933 0.0
Sc24 Sc 0.63039 0.62758 0.52499 0.0
O25 O 0.65828 0.65571 0.53451 0.0
C26 C 0.68434 0.60038 0.50481 0.0
C27 C 0.71109 0.69434 0.51029 0.0
C28 C 0.62297 0.67402 0.47784 0.0
C29 C 0.68172 0.69342 0.58408 0.0
C30 C 0.655 0.59912 0.5784 0.0
C31 C 0.59383 0.672 0.55162 0.0
O32 O 0.69975 0.6123 0.52051 0.0
O33 O 0.68814 0.70591 0.5111 0.0
O34 O 0.62062 0.64962 0.48815 0.0
O35 O 0.6941 0.67134 0.57967 0.0
O36 O 0.63686 0.60215 0.56074 0.0
O37 O 0.61009 0.69195 0.54695 0.0
O38 O 0.67694 0.61268 0.57733 0.0
O39 O 0.66489 0.70485 0.56789 0.0
O40 O 0.59872 0.64775 0.54509 0.0
O41 O 0.71637 0.67143 0.5228 0.0
O42 O 0.65904 0.60439 0.50387 0.0
O43 O 0.63326 0.6934 0.49012 0.0
Sc44 Sc 0.84399 0.19699 0.03797 0.0
Sc45 Sc 0.80112 0.14142 0.05867 0.0
Sc46 Sc 0.86667 0.12881 0.03608 0.0
O47 O 0.83722 0.15576 0.04423 0.0
C48 C 0.87232 0.17421 0.98765 0.0
C49 C 0.78296 0.19102 0.0183 0.0
C50 C 0.81464 0.09822 0.01582 0.0
C51 C 0.81178 0.1936 0.09241 0.0
C52 C 0.90065 0.17582 0.06157 0.0
C53 C 0.8422 0.10065 0.08971 0.0
O54 O 0.86019 0.19327 -0.00117 0.0
O55 O 0.7786 0.16787 0.03076 0.0
O56 O 0.83964 0.10388 0.01479 0.0
O57 O 0.82874 0.20509 0.07642 0.0
O58 O 0.8968 0.1509 0.05658 0.0
O59 O 0.8198 0.11338 0.08813 0.0
O60 O 0.88381 0.19486 0.05531 0.0
O61 O 0.79974 0.17131 0.08802 0.0
O62 O 0.86036 0.10385 0.07212 0.0
O63 O 0.80514 0.20392 0.0198 0.0
O64 O 0.87644 0.15054 -0.00093 0.0
O65 O 0.79839 0.10945 0.03121 0.0
Sc66 Sc 0.36367 0.36086 0.50495 0.0
Sc67 Sc 0.30031 0.34488 0.47884 0.0
Sc68 Sc 0.34392 0.29158 0.5039 0.0
O69 O 0.33594 0.33242 0.49588 0.0
C70 C 0.40101 0.3137 0.48327 0.0
C71 C 0.34226 0.3858 0.44888 0.0
C72 C 0.314 0.29163 0.44803 0.0
C73 C 0.30899 0.39061 0.52006 0.0
C74 C 0.36827 0.31779 0.55493 0.0
C75 C 0.28198 0.29627 0.5204 0.0
O76 O 0.39647 0.33825 0.48914 0.0
O77 O 0.31971 0.37331 0.4503 0.0
O78 O 0.32949 0.28069 0.46576 0.0
O79 O 0.33425 0.38671 0.52194 0.0
O80 O 0.35975 0.29737 0.54292 0.0
O81 O 0.27717 0.31778 0.50548 0.0
O82 O 0.37018 0.3419 0.54386 0.0
O83 O 0.29395 0.37718 0.50526 0.0
O84 O 0.30498 0.28469 0.52198 0.0
O85 O 0.35998 0.38311 0.467 0.0
O86 O 0.38377 0.29448 0.48692 0.0
O87 O 0.30224 0.31452 0.45023 0.0
H88 H 0.17803 0.21208 0.17247 0.0
H89 H 0.24363 0.15655 0.15962 0.0
H90 H 0.16751 0.14588 0.12164 0.0
H91 H 0.2677 0.18218 0.18413 0.0
C92 C 0.2545 0.19485 0.19524 0.0
C93 C 0.18621 0.19486 0.16262 0.0
C94 C 0.16963 0.18009 0.14622 0.0
C95 C 0.21291 0.18662 0.16774 0.0
C96 C 0.22328 0.16356 0.15576 0.0
C97 C 0.20708 0.14896 0.1388 0.0
C98 C 0.18037 0.15746 0.13416 0.0
N99 N 0.22773 0.20081 0.18659 0.0
H100 H 0.25206 0.64435 0.66296 0.0
H101 H 0.32297 0.6929 0.67474 0.0
H102 H 0.3191 0.64103 0.60963 0.0
H103 H 0.31013 0.67729 0.71878 0.0
C104 C 0.28918 0.68379 0.71745 0.0
C105 C 0.2718 0.65149 0.65641 0.0
C106 C 0.28373 0.64087 0.63422 0.0
C107 C 0.28588 0.67013 0.67113 0.0
C108 C 0.3119 0.67874 0.66322 0.0
C109 C 0.32407 0.66826 0.64105 0.0
C110 C 0.30962 0.6497 0.62643 0.0
N111 N 0.27398 0.679 0.69449 0.0
H112 H 0.96332 0.81969 0.30175 0.0
H113 H 0.90211 0.88176 0.30659 0.0
H114 H 0.96016 0.88847 0.24389 0.0
H115 H 0.9048 0.86731 0.35089 0.0
C116 C 0.90512 0.84518 0.34919 0.0
C117 C 0.95429 0.83891 0.29417 0.0
C118 C 0.96496 0.85321 0.27157 0.0
C119 C 0.93208 0.84937 0.30731 0.0
C120 C 0.91988 0.87401 0.29722 0.0
C121 C 0.93014 0.8884 0.2745 0.0
C122 C 0.95279 0.87796 0.26199 0.0
N123 N 0.92148 0.83386 0.32967 0.0
H124 H 0.54376 0.31584 0.795 0.0
H125 H 0.60504 0.3784 0.79487 0.0
H126 H 0.54128 0.38536 0.73783 0.0
H127 H 0.63059 0.3429 0.80917 0.0
C128 C 0.61779 0.33022 0.82239 0.0
C129 C 0.55203 0.33516 0.78677 0.0
C130 C 0.53899 0.34982 0.76558 0.0
C131 C 0.57625 0.34484 0.79699 0.0
C132 C 0.58695 0.37008 0.78656 0.0
C133 C 0.57429 0.38492 0.76536 0.0
C134 C 0.55036 0.37464 0.75504 0.0
N135 N 0.58967 0.3285 0.81729 0.0
H136 H 0.67878 0.27997 0.37128 0.0
H137 H 0.73923 0.34371 0.36881 0.0
H138 H 0.66326 0.35626 0.40632 0.0
H139 H 0.76587 0.31342 0.35197 0.0
C140 C 0.75325 0.29819 0.34336 0.0
C141 C 0.68549 0.30008 0.37655 0.0
C142 C 0.66785 0.31713 0.38954 0.0
C143 C 0.71131 0.30927 0.369 0.0
C144 C 0.71975 0.3358 0.37505 0.0
C145 C 0.70239 0.35291 0.38838 0.0
C146 C 0.67661 0.34331 0.39565 0.0
N147 N 0.72707 0.29212 0.35349 0.0
H148 H 0.04061 0.18623 0.74318 0.0
H149 H 0.09661 0.1196 0.7364 0.0
H150 H 0.04402 0.12013 0.80366 0.0
H151 H 0.07772 0.2092 0.72338 0.0
C152 C 0.08337 0.19554 0.70824 0.0
C153 C 0.04916 0.16686 0.75092 0.0
C154 C 0.04006 0.15482 0.77522 0.0
C155 C 0.06962 0.1541 0.73693 0.0
C156 C 0.08045 0.12895 0.74702 0.0
C157 C 0.07189 0.11694 0.77151 0.0
C158 C 0.05133 0.12977 0.78513 0.0
N159 N 0.0806 0.16663 0.71325 0.0
H160 H 0.44189 0.68443 0.24423 0.0
H161 H 0.38756 0.61568 0.2414 0.0
H162 H 0.44311 0.61985 0.30606 0.0
H163 H 0.42981 0.69429 0.20266 0.0
C164 C 0.41011 0.68529 0.19983 0.0
C165 C 0.4345 0.66474 0.25229 0.0
C166 C 0.44483 0.6538 0.27657 0.0
C167 C 0.41397 0.65075 0.23938 0.0
C168 C 0.40389 0.62591 0.25102 0.0
C169 C 0.41397 0.61479 0.27529 0.0
C170 C 0.43469 0.6287 0.28766 0.0
N171 N 0.40157 0.66171 0.21568 0.0
H172 H 0.75671 0.8445 0.86886 0.0
H173 H 0.82261 0.78875 0.85736 0.0
H174 H 0.82857 0.84915 0.91509 0.0
H175 H 0.73965 0.82927 0.83327 0.0
C176 C 0.75027 0.81133 0.82715 0.0
C177 C 0.77656 0.83663 0.87382 0.0
C178 C 0.79117 0.84888 0.89359 0.0
C179 C 0.78776 0.81456 0.86089 0.0
C180 C 0.81371 0.80514 0.86788 0.0
C181 C 0.82877 0.81779 0.8871 0.0
C182 C 0.81706 0.83921 0.90024 0.0
N183 N 0.77433 0.80193 0.84009 0.0
H184 H 0.15112 0.93851 0.0447 0.0
H185 H 0.16732 0.97731 0.06798 0.0
H186 H 0.24944 0.95124 0.05722 0.0
H187 H 0.23339 0.91251 0.03306 0.0
H188 H 0.19693 0.98011 0.11256 0.0
H189 H 0.25155 0.03025 0.02635 0.0
H190 H 0.22884 0.00173 0.02318 0.0
H191 H 0.26195 0.99587 0.0368 0.0
C192 C 0.17265 0.94085 0.04731 0.0
C193 C 0.19095 0.92249 0.03676 0.0
C194 C 0.18189 0.96307 0.06069 0.0
C195 C 0.2096 0.96742 0.064 0.0
C196 C 0.22799 0.94862 0.05438 0.0
H197 H 0.23693 0.10687 0.16293 0.0
H198 H 0.24599 0.06185 0.14605 0.0
C199 C 0.21875 0.92642 0.0407 0.0
C200 C 0.21869 0.99216 0.07699 0.0
H201 H 0.24905 0.05462 0.06452 0.0
C202 C 0.20869 0.99628 0.10228 0.0
C203 C 0.23401 0.01317 0.06342 0.0
C204 C 0.2446 0.01027 0.03587 0.0
C205 C 0.21202 0.02149 0.1137 0.0
C206 C 0.22658 0.04288 0.09976 0.0
C207 C 0.23805 0.03813 0.07519 0.0
C208 C 0.22644 0.07137 0.10837 0.0
C209 C 0.19821 0.02557 0.13967 0.0
C210 C 0.21425 0.09225 0.09207 0.0
C211 C 0.20964 0.11811 0.10137 0.0
C212 C 0.21691 0.12356 0.12729 0.0
C213 C 0.23102 0.10332 0.14289 0.0
C214 C 0.23592 0.07746 0.1334 0.0
H215 H 0.18364 0.00882 0.14518 0.0
H216 H 0.21355 0.02581 0.15557 0.0
H217 H 0.18724 0.04549 0.1388 0.0
H218 H 0.20698 0.08813 0.07257 0.0
H219 H 0.19931 0.13349 0.08865 0.0
H220 H 0.57131 0.72161 0.56258 0.0
H221 H 0.52734 0.72926 0.58293 0.0
H222 H 0.51356 0.64164 0.59045 0.0
H223 H 0.55719 0.63373 0.57046 0.0
H224 H 0.47652 0.71253 0.56394 0.0
H225 H 0.49628 0.66575 0.66451 0.0
H226 H 0.52301 0.67612 0.6418 0.0
H227 H 0.50615 0.64366 0.63932 0.0
C228 C 0.55904 0.70396 0.56882 0.0
C229 C 0.56784 0.67704 0.56487 0.0
C230 C 0.53394 0.70839 0.58041 0.0
C231 C 0.51744 0.686 0.58856 0.0
C232 C 0.52624 0.65919 0.58481 0.0
H233 H 0.36317 0.6319 0.62941 0.0
H234 H 0.41023 0.64145 0.61837 0.0
C235 C 0.55116 0.65473 0.57316 0.0
C236 C 0.49024 0.69024 0.59954 0.0
H237 H 0.44961 0.66847 0.65101 0.0
C238 C 0.47068 0.70353 0.58323 0.0
C239 C 0.48279 0.67858 0.62477 0.0
C240 C 0.50324 0.66547 0.64372 0.0
C241 C 0.44342 0.7036 0.59071 0.0
C242 C 0.43576 0.69028 0.61519 0.0
C243 C 0.45558 0.67853 0.63217 0.0
C244 C 0.40715 0.68532 0.62212 0.0
C245 C 0.42276 0.71631 0.57175 0.0
C246 C 0.38989 0.70689 0.62803 0.0
C247 C 0.3628 0.7015 0.63426 0.0
C248 C 0.35267 0.67448 0.63451 0.0
C249 C 0.37021 0.653 0.62884 0.0
C250 C 0.39715 0.65837 0.62275 0.0
H251 H 0.43174 0.72335 0.55241 0.0
H252 H 0.40652 0.70125 0.56835 0.0
H253 H 0.41336 0.73428 0.58045 0.0
H254 H 0.39737 0.7278 0.62787 0.0
H255 H 0.34973 0.71843 0.63858 0.0
H256 H 0.81064 0.08922 0.13377 0.0
H257 H 0.81951 0.05519 0.17073 0.0
H258 H 0.89426 0.03323 0.13442 0.0
H259 H 0.8858 0.06688 0.09764 0.0
H260 H 0.85611 0.9879 0.15097 0.0
H261 H 0.88146 0.05873 0.22921 0.0
H262 H 0.85185 0.0656 0.2092 0.0
H263 H 0.88459 0.06918 0.19449 0.0
C264 C 0.82902 0.07724 0.13371 0.0
C265 C 0.84747 0.08081 0.11265 0.0
C266 C 0.83407 0.0579 0.15488 0.0
C267 C 0.85758 0.04188 0.15526 0.0
C268 C 0.87603 0.04549 0.13444 0.0
H269 H 0.95326 0.93666 0.25557 0.0
H270 H 0.93152 0.97482 0.22981 0.0
C271 C 0.87111 0.06479 0.11343 0.0
C272 C 0.8629 0.02051 0.17673 0.0
H273 H 0.88637 0.01117 0.24 0.0
C274 C 0.8623 0.99287 0.1706 0.0
C275 C 0.87114 0.02726 0.20216 0.0
C276 C 0.87248 0.05677 0.20935 0.0
C277 C 0.87058 0.97176 0.18899 0.0
C278 C 0.87944 0.97852 0.21427 0.0
C279 C 0.87933 0.00611 0.22068 0.0
C280 C 0.89145 0.95741 0.2331 0.0
C281 C 0.87111 0.94253 0.1808 0.0
C282 C 0.87593 0.93546 0.24416 0.0
C283 C 0.88832 0.91356 0.25879 0.0
C284 C 0.91642 0.91332 0.26254 0.0
C285 C 0.93163 0.93613 0.25268 0.0
C286 C 0.91923 0.958 0.23814 0.0
H287 H 0.86772 0.94143 0.15924 0.0
H288 H 0.89073 0.93263 0.18608 0.0
H289 H 0.85502 0.93047 0.19145 0.0
H290 H 0.85441 0.93479 0.24064 0.0
H291 H 0.8761 0.89622 0.26602 0.0
H292 H 0.3846 0.26947 0.58116 0.0
H293 H 0.40619 0.26399 0.62474 0.0
H294 H 0.39548 0.35062 0.63431 0.0
H295 H 0.37406 0.35631 0.59103 0.0
H296 H 0.45393 0.29355 0.63522 0.0
H297 H 0.37405 0.31436 0.70722 0.0
H298 H 0.36677 0.30391 0.67444 0.0
H299 H 0.37489 0.3392 0.67939 0.0
C300 C 0.38629 0.28721 0.59282 0.0
C301 C 0.3778 0.31337 0.58256 0.0
C302 C 0.39862 0.28403 0.61769 0.0
C303 C 0.40212 0.30683 0.63286 0.0
C304 C 0.39251 0.33266 0.62317 0.0
H305 H 0.49427 0.37785 0.7472 0.0
H306 H 0.45917 0.36137 0.71851 0.0
C307 C 0.3805 0.33591 0.59828 0.0
C308 C 0.41896 0.30483 0.65703 0.0
H309 H 0.41984 0.3219 0.72115 0.0
C310 C 0.44644 0.29904 0.65425 0.0
C311 C 0.40906 0.31214 0.6817 0.0
C312 C 0.37951 0.31751 0.68599 0.0
C313 C 0.46472 0.30244 0.67489 0.0
C314 C 0.45504 0.31112 0.69925 0.0
C315 C 0.42725 0.31526 0.70251 0.0
C316 C 0.47376 0.31939 0.72012 0.0
C317 C 0.49443 0.29871 0.6697 0.0
C318 C 0.49295 0.301 0.73153 0.0
C319 C 0.51343 0.31052 0.74758 0.0
C320 C 0.5148 0.33853 0.75274 0.0
C321 C 0.49417 0.35631 0.74309 0.0
C322 C 0.47393 0.34686 0.72688 0.0
H323 H 0.4988 0.29741 0.64834 0.0
H324 H 0.50628 0.31601 0.67697 0.0
H325 H 0.50147 0.27934 0.68028 0.0
H326 H 0.4928 0.27957 0.72709 0.0
H327 H 0.52897 0.29625 0.75469 0.0
H328 H 0.7344 0.57628 0.50818 0.0
H329 H 0.75097 0.53844 0.48313 0.0
H330 H 0.67689 0.53983 0.43851 0.0
H331 H 0.66028 0.57754 0.46312 0.0
H332 H 0.72517 0.48793 0.48379 0.0
H333 H 0.73347 0.53258 0.3811 0.0
H334 H 0.73242 0.55354 0.40915 0.0
H335 H 0.70172 0.54063 0.3956 0.0
C336 C 0.72187 0.56891 0.49265 0.0
C337 C 0.69592 0.57984 0.48778 0.0
C338 C 0.73139 0.54731 0.47837 0.0
C339 C 0.71533 0.53661 0.45872 0.0
C340 C 0.68989 0.54818 0.45317 0.0
H341 H 0.67298 0.39997 0.38099 0.0
H342 H 0.68348 0.44512 0.39641 0.0
C343 C 0.6803 0.56958 0.46749 0.0
C344 C 0.72328 0.51122 0.44623 0.0
H345 H 0.72565 0.48325 0.38643 0.0
C346 C 0.72606 0.48692 0.46251 0.0
C347 C 0.72448 0.51005 0.4185 0.0
C348 C 0.72314 0.53568 0.4001 0.0
C349 C 0.72763 0.46116 0.45178 0.0
C350 C 0.72691 0.45984 0.424 0.0
C351 C 0.72611 0.48432 0.40771 0.0
C352 C 0.72282 0.43338 0.4118 0.0
C353 C 0.72792 0.4355 0.47026 0.0
C354 C 0.74185 0.41203 0.41462 0.0
C355 C 0.73576 0.38601 0.40601 0.0
C356 C 0.71058 0.38108 0.39448 0.0
C357 C 0.69231 0.40301 0.39031 0.0
C358 C 0.69838 0.42888 0.39889 0.0
H359 H 0.7244 0.44009 0.49113 0.0
H360 H 0.71226 0.42078 0.46444 0.0
H361 H 0.74782 0.42526 0.46913 0.0
H362 H 0.76101 0.41524 0.42418 0.0
H363 H 0.75023 0.36948 0.40941 0.0
H364 H 0.90045 0.13895 0.95854 0.0
H365 H 0.92043 0.1481 0.91522 0.0
H366 H 0.88799 0.23046 0.91084 0.0
H367 H 0.86815 0.22168 0.95493 0.0
H368 H 0.89787 0.16344 0.86649 0.0
H369 H 0.96874 0.24337 0.89902 0.0
H370 H 0.94997 0.22135 0.92241 0.0
H371 H 0.93324 0.24882 0.9035 0.0
C372 C 0.89739 0.15904 0.94849 0.0
C373 C 0.88289 0.17968 0.96045 0.0
C374 C 0.90877 0.16419 0.92358 0.0
C375 C 0.90594 0.19003 0.9099 0.0
C376 C 0.89077 0.21051 0.92126 0.0
H377 H 0.99225 0.17874 0.75835 0.0
H378 H 0.95621 0.19584 0.78616 0.0
C379 C 0.87939 0.2054 0.9464 0.0
C380 C 0.92019 0.19516 0.88438 0.0
H381 H 0.97692 0.2257 0.85813 0.0
C382 C 0.91478 0.17752 0.86426 0.0
C383 C 0.94215 0.21365 0.88161 0.0
C384 C 0.94911 0.23284 0.90275 0.0
C385 C 0.93217 0.17603 0.8426 0.0
C386 C 0.95522 0.19318 0.84077 0.0
C387 C 0.95922 0.2126 0.85964 0.0
C388 C 0.97788 0.18747 0.82291 0.0
C389 C 0.92699 0.15442 0.82323 0.0
C390 C 0.00244 0.17852 0.83419 0.0
C391 C 0.02299 0.16916 0.81844 0.0
C392 C 0.01942 0.16838 0.79103 0.0
C393 C 0.99547 0.17897 0.77945 0.0
C394 C 0.97482 0.18851 0.79532 0.0
H395 H 0.91016 0.14044 0.82955 0.0
H396 H 0.92173 0.16462 0.80368 0.0
H397 H 0.94535 0.1418 0.82077 0.0
H398 H 0.00532 0.17764 0.85541 0.0
H399 H 0.04146 0.16175 0.82786 0.0
H400 H 0.38686 0.41809 0.43995 0.0
H401 H 0.39454 0.45279 0.40388 0.0
H402 H 0.31857 0.4323 0.36879 0.0
H403 H 0.31033 0.3977 0.40521 0.0
H404 H 0.39756 0.4498 0.34946 0.0
H405 H 0.31145 0.51486 0.37787 0.0
H406 H 0.32399 0.48653 0.39918 0.0
H407 H 0.30342 0.48004 0.37112 0.0
C408 C 0.37176 0.42077 0.42456 0.0
C409 C 0.3478 0.40526 0.42572 0.0
C410 C 0.37626 0.4406 0.40387 0.0
C411 C 0.35696 0.44539 0.38388 0.0
C412 C 0.33349 0.42927 0.38431 0.0
H413 H 0.40026 0.56684 0.25293 0.0
H414 H 0.38325 0.52416 0.27562 0.0
C415 C 0.32889 0.40942 0.4051 0.0
C416 C 0.36125 0.46813 0.36339 0.0
H417 H 0.33854 0.5322 0.34269 0.0
C418 C 0.38449 0.46769 0.34766 0.0
C419 C 0.3442 0.49148 0.36129 0.0
C420 C 0.31946 0.49352 0.37835 0.0
C421 C 0.39173 0.49042 0.33062 0.0
C422 C 0.375 0.514 0.32898 0.0
C423 C 0.3512 0.514 0.34391 0.0
C424 C 0.38343 0.54 0.31446 0.0
C425 C 0.41797 0.48961 0.31565 0.0
C426 C 0.38829 0.56324 0.32864 0.0
C427 C 0.39769 0.58757 0.31578 0.0
C428 C 0.40247 0.58921 0.2884 0.0
C429 C 0.39677 0.56618 0.27403 0.0
C430 C 0.3873 0.54174 0.28698 0.0
H431 H 0.43072 0.47182 0.32265 0.0
H432 H 0.41365 0.48786 0.29436 0.0
H433 H 0.4296 0.50885 0.31761 0.0
H434 H 0.38529 0.56238 0.34984 0.0
H435 H 0.40133 0.60511 0.32733 0.0
H436 H 0.07477 0.76822 0.9707 0.0
H437 H 0.0317 0.75706 0.95001 0.0
H438 H 0.01588 0.84357 0.93339 0.0
H439 H 0.05848 0.85493 0.95386 0.0
H440 H 0.97927 0.77627 0.96614 0.0
H441 H 0.00212 0.80916 0.862 0.0
H442 H 0.02811 0.80113 0.88633 0.0
H443 H 0.01185 0.83423 0.88458 0.0
C444 C 0.06222 0.78484 0.9624 0.0
C445 C 0.07007 0.81248 0.96398 0.0
C446 C 0.03766 0.77841 0.95062 0.0
C447 C 0.02087 0.79948 0.93985 0.0
C448 C 0.0288 0.82699 0.94116 0.0
H449 H 0.87092 0.85295 0.8903 0.0
H450 H 0.91773 0.84192 0.90102 0.0
C451 C 0.0531 0.83344 0.95308 0.0
C452 C 0.99414 0.79336 0.92871 0.0
H453 H 0.9551 0.80865 0.87431 0.0
C454 C 0.97402 0.7826 0.94587 0.0
C455 C 0.98749 0.80153 0.90224 0.0
C456 C 0.0086 0.81191 0.88263 0.0
C457 C 0.94692 0.78204 0.93785 0.0
C458 C 0.94001 0.79217 0.91192 0.0
C459 C 0.96046 0.80099 0.89421 0.0
C460 C 0.91169 0.79782 0.90413 0.0
C461 C 0.92565 0.7726 0.95769 0.0
C462 C 0.89281 0.77658 0.90196 0.0
C463 C 0.86581 0.78287 0.89595 0.0
C464 C 0.85742 0.81046 0.89219 0.0
C465 C 0.87664 0.83152 0.89365 0.0
C466 C 0.90344 0.82525 0.89955 0.0
H467 H 0.93413 0.76821 0.97781 0.0
H468 H 0.9097 0.7885 0.95864 0.0
H469 H 0.91601 0.75354 0.9514 0.0
H470 H 0.89889 0.75526 0.90513 0.0
H471 H 0.85142 0.76626 0.89486 0.0
H472 H 0.83767 0.07994 0.97151 0.0
H473 H 0.82479 0.03981 0.94812 0.0
H474 H 0.75693 0.02584 0.00044 0.0
H475 H 0.76929 0.06653 0.02354 0.0
H476 H 0.82511 0.98917 0.97152 0.0
H477 H 0.72343 0.01132 0.9298 0.0
H478 H 0.74501 0.03783 0.94143 0.0
H479 H 0.72594 0.01596 0.96452 0.0
C480 C 0.8197 0.06866 0.97774 0.0
C481 C 0.80461 0.07629 -0.00049 0.0
C482 C 0.81232 0.04576 0.96431 0.0
C483 C 0.78982 0.02988 0.97242 0.0
C484 C 0.77404 0.03809 0.99346 0.0
H485 H 0.78597 0.85625 0.94601 0.0
H486 H 0.78033 0.90023 0.96611 0.0
C487 C 0.78123 0.06127 0.00675 0.0
C488 C 0.78508 0.00309 0.96094 0.0
H489 H 0.73879 0.96481 0.9295 0.0
C490 C 0.80625 0.98394 0.96225 0.0
C491 C 0.7605 0.99631 0.94876 0.0
C492 C 0.73749 0.01652 0.94578 0.0
C493 C 0.80362 0.95824 0.95174 0.0
C494 C 0.7788 0.95107 0.94027 0.0
C495 C 0.75761 0.97023 0.93871 0.0
C496 C 0.77534 0.92411 0.92886 0.0
C497 C 0.82773 0.93924 0.9525 0.0
C498 C 0.77245 0.9228 0.90145 0.0
C499 C 0.77524 0.89763 0.88999 0.0
C500 C 0.7811 0.87358 0.90583 0.0
C501 C 0.78163 0.8746 0.93342 0.0
C502 C 0.77851 0.89967 0.94487 0.0
H503 H 0.84681 0.95042 0.95594 0.0
H504 H 0.82523 0.92314 0.96887 0.0
H505 H 0.82963 0.9289 0.93374 0.0
H506 H 0.76993 0.94146 0.88879 0.0
H507 H 0.77491 0.89733 0.86866 0.0
H508 H 0.4444 0.34802 0.47705 0.0
H509 H 0.48878 0.33769 0.45982 0.0
H510 H 0.46337 0.25492 0.44732 0.0
H511 H 0.41852 0.26498 0.46463 0.0
H512 H 0.52429 0.29157 0.48064 0.0
H513 H 0.49574 0.28913 0.37446 0.0
H514 H 0.47534 0.30678 0.39746 0.0
H515 H 0.47592 0.2699 0.39912 0.0
C516 C 0.44806 0.32759 0.4706 0.0
C517 C 0.42779 0.30733 0.47223 0.0
C518 C 0.47351 0.32174 0.46081 0.0
C519 C 0.47924 0.29561 0.45228 0.0
C520 C 0.45919 0.27527 0.4537 0.0
H521 H 0.65062 0.26801 0.4135 0.0
H522 H 0.60443 0.25597 0.42765 0.0
C523 C 0.43363 0.28106 0.46364 0.0
C524 C 0.50646 0.29012 0.4421 0.0
H525 H 0.54195 0.28789 0.38471 0.0
C526 C 0.52823 0.29013 0.45975 0.0
C527 C 0.51132 0.28838 0.41484 0.0
C528 C 0.48846 0.28861 0.39519 0.0
C529 C 0.55492 0.28988 0.45067 0.0
C530 C 0.55983 0.28942 0.42326 0.0
C531 C 0.53803 0.28803 0.40573 0.0
C532 C 0.58709 0.29458 0.41225 0.0
C533 C 0.57764 0.29195 0.47025 0.0
C534 C 0.59232 0.31983 0.39827 0.0
C535 C 0.61846 0.3267 0.39027 0.0
C536 C 0.63989 0.30839 0.396 0.0
C537 C 0.63445 0.2825 0.40889 0.0
C538 C 0.60818 0.27566 0.41705 0.0
H539 H 0.57023 0.2953 0.49044 0.0
H540 H 0.58956 0.27262 0.47121 0.0
H541 H 0.59138 0.30913 0.46381 0.0
H542 H 0.57628 0.33467 0.39435 0.0
H543 H 0.62201 0.3466 0.37997 0.0
H544 H 0.18579 0.90716 0.90476 0.0
H545 H 0.17751 0.9401 0.86692 0.0
H546 H 0.09997 0.95958 0.89918 0.0
H547 H 0.10768 0.9265 0.93656 0.0
H548 H 0.09803 0.9538 0.84557 0.0
H549 H 0.18181 0.02327 0.87136 0.0
H550 H 0.1909 0.98833 0.86614 0.0
H551 H 0.17012 0.99551 0.89381 0.0
C552 C 0.16693 0.91839 0.90375 0.0
C553 C 0.14751 0.91432 0.92387 0.0
C554 C 0.16229 0.93727 0.88215 0.0
C555 C 0.13829 0.95256 0.88044 0.0
C556 C 0.11865 0.948 0.90011 0.0
H557 H 0.08734 0.10789 0.82281 0.0
H558 H 0.10636 0.06615 0.8445 0.0
C559 C 0.12316 0.9291 0.92155 0.0
C560 C 0.13358 0.97411 0.85887 0.0
H561 H 0.15376 0.03844 0.83616 0.0
C562 C 0.11042 0.97215 0.84316 0.0
C563 C 0.14979 0.99803 0.85589 0.0
C564 C 0.17445 0.00167 0.87276 0.0
C565 C 0.1022 0.99407 0.82558 0.0
C566 C 0.11791 0.01837 0.82329 0.0
C567 C 0.14187 0.01971 0.83791 0.0
C568 C 0.10789 0.04392 0.80902 0.0
C569 C 0.0759 0.99173 0.81092 0.0
C570 C 0.10282 0.04547 0.7817 0.0
C571 C 0.09154 0.06934 0.76923 0.0
C572 C 0.08522 0.09197 0.78392 0.0
C573 C 0.09133 0.09059 0.81105 0.0
C574 C 0.10248 0.06684 0.82343 0.0
H575 H 0.06411 0.97335 0.81818 0.0
H576 H 0.06333 0.01035 0.81288 0.0
H577 H 0.08008 0.99005 0.78961 0.0
H578 H 0.10729 0.02814 0.77014 0.0
H579 H 0.08714 0.06985 0.74828 0.0
H580 H 0.60093 0.63755 0.44549 0.0
H581 H 0.57919 0.64728 0.40309 0.0
H582 H 0.59847 0.73345 0.40565 0.0
H583 H 0.61997 0.72396 0.44889 0.0
H584 H 0.54679 0.72671 0.39393 0.0
H585 H 0.60573 0.66351 0.3293 0.0
H586 H 0.59622 0.64261 0.3582 0.0
H587 H 0.61796 0.67194 0.36132 0.0
C588 C 0.60097 0.65858 0.43702 0.0
C589 C 0.61216 0.67999 0.45077 0.0
C590 C 0.58875 0.66407 0.4125 0.0
C591 C 0.5877 0.69101 0.40084 0.0
C592 C 0.59933 0.71245 0.41415 0.0
H593 H 0.49153 0.67772 0.25709 0.0
H594 H 0.52846 0.69653 0.28271 0.0
C595 C 0.61159 0.70697 0.43886 0.0
C596 C 0.57169 0.69661 0.37634 0.0
H597 H 0.55736 0.66802 0.31846 0.0
C598 C 0.54954 0.71449 0.37704 0.0
C599 C 0.57561 0.68143 0.35384 0.0
C600 C 0.6004 0.66408 0.35053 0.0
C601 C 0.52968 0.71518 0.35729 0.0
C602 C 0.53172 0.69699 0.33678 0.0
C603 C 0.55538 0.68152 0.33449 0.0
C604 C 0.50813 0.69027 0.32039 0.0
C605 C 0.50615 0.73453 0.35928 0.0
C606 C 0.48436 0.68084 0.33296 0.0
C607 C 0.46337 0.67029 0.31845 0.0
C608 C 0.46579 0.66851 0.29104 0.0
C609 C 0.48909 0.67897 0.27819 0.0
C610 C 0.51019 0.68964 0.2928 0.0
H611 H 0.51262 0.75388 0.36783 0.0
H612 H 0.49673 0.73972 0.3397 0.0
H613 H 0.49076 0.72473 0.37272 0.0
H614 H 0.48248 0.68034 0.35426 0.0
H615 H 0.44553 0.66268 0.32886 0.0
H616 H 0.32937 0.41326 0.56344 0.0
H617 H 0.31406 0.45487 0.58301 0.0
H618 H 0.24749 0.46149 0.52817 0.0
H619 H 0.26238 0.41933 0.50878 0.0
H620 H 0.31281 0.50374 0.55361 0.0
H621 H 0.21211 0.48064 0.59762 0.0
H622 H 0.23538 0.454 0.58942 0.0
H623 H 0.21613 0.47227 0.56387 0.0
C624 C 0.31116 0.42323 0.55586 0.0
C625 C 0.29722 0.41317 0.5344 0.0
C626 C 0.30239 0.44697 0.56711 0.0
C627 C 0.27962 0.46124 0.55709 0.0
C628 C 0.26485 0.45055 0.53651 0.0
H629 H 0.27483 0.63629 0.58159 0.0
H630 H 0.26677 0.59341 0.56016 0.0
C631 C 0.27346 0.42653 0.52538 0.0
C632 C 0.27368 0.48889 0.56608 0.0
H633 H 0.22707 0.52698 0.59712 0.0
C634 C 0.29401 0.50885 0.56304 0.0
C635 C 0.24914 0.49542 0.57836 0.0
C636 C 0.22696 0.47444 0.58276 0.0
C637 C 0.29087 0.53496 0.57253 0.0
C638 C 0.26629 0.54167 0.58469 0.0
C639 C 0.24569 0.52188 0.58741 0.0
C640 C 0.26305 0.56826 0.59683 0.0
C641 C 0.31445 0.55466 0.57045 0.0
C642 C 0.2614 0.56859 0.62441 0.0
C643 C 0.26551 0.5931 0.63663 0.0
C644 C 0.2715 0.61751 0.62139 0.0
C645 C 0.27046 0.61764 0.59372 0.0
C646 C 0.26595 0.5932 0.5815 0.0
H647 H 0.33359 0.5441 0.56596 0.0
H648 H 0.31062 0.57069 0.55428 0.0
H649 H 0.31718 0.56503 0.5891 0.0
H650 H 0.25911 0.54956 0.63657 0.0
H651 H 0.26637 0.59245 0.65801 0.0
H652 H 0.11275 0.77552 0.07888 0.0
H653 H 0.09216 0.76878 0.12287 0.0
H654 H 0.09104 0.85662 0.12915 0.0
H655 H 0.11144 0.86361 0.08554 0.0
H656 H 0.10906 0.82122 0.17705 0.0
H657 H 0.01061 0.79226 0.13342 0.0
H658 H 0.04082 0.77494 0.12397 0.0
H659 H 0.03603 0.81059 0.11379 0.0
C660 C 0.10841 0.79337 0.08977 0.0
C661 C 0.11346 0.82012 0.07856 0.0
C662 C 0.09662 0.78947 0.11484 0.0
C663 C 0.08997 0.81224 0.12908 0.0
C664 C 0.09604 0.83881 0.11842 0.0
H665 H 0.00854 0.88112 0.25085 0.0
H666 H 0.04189 0.86478 0.22038 0.0
C667 C 0.10757 0.84274 0.09341 0.0
C668 C 0.07497 0.80906 0.15427 0.0
H669 H 0.0109 0.80181 0.17795 0.0
C670 C 0.08771 0.8164 0.17746 0.0
C671 C 0.04722 0.80254 0.15473 0.0
C672 C 0.03265 0.79469 0.13021 0.0
C673 C 0.07305 0.81878 0.20085 0.0
C674 C 0.04484 0.81442 0.20075 0.0
C675 C 0.03251 0.80523 0.17802 0.0
C676 C 0.02721 0.82279 0.22241 0.0
C677 C 0.08783 0.82664 0.22522 0.0
C678 C 0.0077 0.80469 0.23372 0.0
C679 C 0.98824 0.81417 0.25089 0.0
C680 C 0.98785 0.84196 0.25683 0.0
C681 C 0.00817 0.85966 0.24645 0.0
C682 C 0.02752 0.85022 0.22931 0.0
H683 H 0.10886 0.81877 0.22543 0.0
H684 H 0.08885 0.84941 0.22515 0.0
H685 H 0.07753 0.81857 0.24357 0.0
H686 H 0.00693 0.78351 0.22848 0.0
H687 H 0.9727 0.8001 0.25838 0.0
H688 H 0.68534 0.58963 0.62357 0.0
H689 H 0.67733 0.55486 0.66006 0.0
H690 H 0.60613 0.52763 0.62066 0.0
H691 H 0.61375 0.56206 0.58431 0.0
H692 H 0.62677 0.54664 0.69248 0.0
H693 H 0.6553 0.45751 0.63573 0.0
H694 H 0.66587 0.49231 0.62628 0.0
H695 H 0.63225 0.48133 0.61906 0.0
C696 C 0.66798 0.57624 0.62266 0.0
C697 C 0.65028 0.57859 0.60089 0.0
C698 C 0.66343 0.55647 0.64354 0.0
C699 C 0.64132 0.53858 0.64283 0.0
C700 C 0.62347 0.54108 0.62138 0.0
H701 H 0.54964 0.43322 0.74842 0.0
H702 H 0.56944 0.47203 0.72207 0.0
C703 C 0.62786 0.56087 0.60065 0.0
C704 C 0.63661 0.51707 0.66431 0.0
H705 H 0.6313 0.44748 0.67587 0.0
C706 C 0.62811 0.52493 0.68906 0.0
C707 C 0.6387 0.48884 0.6598 0.0
C708 C 0.64875 0.47938 0.63386 0.0
C709 C 0.62035 0.50516 0.70909 0.0
C710 C 0.62092 0.47695 0.70401 0.0
C711 C 0.63072 0.46913 0.67968 0.0
C712 C 0.60985 0.45521 0.7228 0.0
C713 C 0.61129 0.51461 0.73535 0.0
C714 C 0.62597 0.43286 0.73192 0.0
C715 C 0.61465 0.41054 0.74678 0.0
C716 C 0.58692 0.41007 0.75255 0.0
C717 C 0.57102 0.43292 0.74413 0.0
C718 C 0.58237 0.45525 0.72934 0.0
H719 H 0.6196 0.53524 0.73889 0.0
H720 H 0.58897 0.51615 0.73547 0.0
H721 H 0.61751 0.4998 0.75185 0.0
H722 H 0.64717 0.43234 0.72687 0.0
H723 H 0.62737 0.39312 0.75269 0.0
H724 H 0.93632 0.14053 0.08705 0.0
H725 H 0.97947 0.15161 0.10675 0.0
H726 H 0.96637 0.23787 0.08574 0.0
H727 H 0.92287 0.22702 0.06587 0.0
H728 H 0.01744 0.21599 0.06984 0.0
H729 H 0.99614 0.18969 0.17565 0.0
H730 H 0.98535 0.16361 0.15457 0.0
H731 H 0.96983 0.19706 0.15152 0.0
C732 C 0.94242 0.16192 0.08677 0.0
C733 C 0.92612 0.18289 0.07482 0.0
C734 C 0.96702 0.16822 0.09824 0.0
C735 C 0.97589 0.19558 0.09802 0.0
C736 C 0.95969 0.21665 0.08632 0.0
H737 H 0.14656 0.23094 0.13535 0.0
H738 H 0.0987 0.24097 0.12629 0.0
C739 C 0.93487 0.21039 0.075 0.0
C740 C 0.00304 0.2015 0.10829 0.0
H741 H 0.04283 0.1894 0.1627 0.0
C742 C 0.02299 0.21087 0.09027 0.0
C743 C 0.01006 0.19487 0.13496 0.0
C744 C 0.98916 0.186 0.15537 0.0
C745 C 0.05022 0.21164 0.09778 0.0
C746 C 0.05746 0.20329 0.12411 0.0
C747 C 0.03723 0.19572 0.14251 0.0
C748 C 0.08593 0.19846 0.13191 0.0
C749 C 0.07118 0.21947 0.07707 0.0
C750 C 0.09433 0.17147 0.13898 0.0
C751 C 0.12138 0.16577 0.14429 0.0
C752 C 0.14067 0.18696 0.14264 0.0
C753 C 0.13211 0.21422 0.13667 0.0
C754 C 0.10488 0.21993 0.13131 0.0
H755 H 0.06249 0.2215 0.05684 0.0
H756 H 0.08032 0.2395 0.08128 0.0
H757 H 0.08753 0.20386 0.07751 0.0
H758 H 0.08001 0.15462 0.1397 0.0
H759 H 0.12727 0.14465 0.1494 0.0
H760 H 0.2638 0.82736 0.02713 0.0
H761 H 0.3002 0.80742 0.05479 0.0
H762 H 0.2486 0.73964 0.0807 0.0
H763 H 0.21218 0.75912 0.05301 0.0
H764 H 0.30004 0.79522 0.10988 0.0
H765 H 0.31696 0.70142 0.05595 0.0
H766 H 0.29837 0.73078 0.04189 0.0
H767 H 0.28244 0.70638 0.06511 0.0
C768 C 0.26018 0.80813 0.03859 0.0
C769 C 0.23504 0.79479 0.03769 0.0
C770 C 0.28103 0.7968 0.05439 0.0
C771 C 0.27721 0.77185 0.06941 0.0
C772 C 0.25213 0.75862 0.0688 0.0
H773 H 0.35947 0.66851 0.18623 0.0
H774 H 0.3292 0.69084 0.15342 0.0
C775 C 0.23127 0.76991 0.05306 0.0
C776 C 0.2991 0.76 0.08645 0.0
H777 H 0.33718 0.70213 0.0986 0.0
C778 C 0.30843 0.77501 0.10728 0.0
C779 C 0.30998 0.73367 0.0829 0.0
C780 C 0.30164 0.7172 0.0601 0.0
C781 C 0.32761 0.76388 0.12536 0.0
C782 C 0.33797 0.73724 0.1222 0.0
C783 C 0.32912 0.72253 0.10098 0.0
C784 C 0.35693 0.72365 0.14149 0.0
C785 C 0.33582 0.78023 0.14829 0.0
C786 C 0.38274 0.73451 0.14536 0.0
C787 C 0.40013 0.72179 0.16417 0.0
C788 C 0.39201 0.69798 0.17927 0.0
C789 C 0.36634 0.68687 0.17497 0.0
C790 C 0.34901 0.69958 0.1562 0.0
H791 H 0.32191 0.79771 0.15093 0.0
H792 H 0.33638 0.7669 0.16693 0.0
H793 H 0.35634 0.78872 0.14466 0.0
H794 H 0.38939 0.75282 0.13386 0.0
H795 H 0.41986 0.73066 0.16706 0.0
H796 H 0.65794 0.73917 0.60286 0.0
H797 H 0.66788 0.76032 0.64422 0.0
H798 H 0.72757 0.69785 0.66366 0.0
H799 H 0.71804 0.67663 0.62249 0.0
H800 H 0.66556 0.73532 0.69765 0.0
H801 H 0.76826 0.77161 0.66913 0.0
H802 H 0.74368 0.76169 0.64527 0.0
H803 H 0.76216 0.73584 0.66473 0.0
C804 C 0.67324 0.72995 0.61587 0.0
C805 C 0.68731 0.70628 0.6092 0.0
C806 C 0.67883 0.74204 0.63951 0.0
C807 C 0.6987 0.73083 0.65674 0.0
C808 C 0.71248 0.70706 0.65037 0.0
H809 H 0.77079 0.76591 0.80497 0.0
H810 H 0.7563 0.74664 0.76405 0.0
C811 C 0.70689 0.69491 0.62684 0.0
C812 C 0.70504 0.74379 0.68153 0.0
H813 H 0.75612 0.7739 0.71419 0.0
C814 C 0.68526 0.74399 0.70127 0.0
C815 C 0.73077 0.75502 0.68607 0.0
C816 C 0.7524 0.75631 0.66512 0.0
C817 C 0.69085 0.75437 0.72585 0.0
C818 C 0.71674 0.76523 0.73052 0.0
C819 C 0.73634 0.76543 0.71058 0.0
C820 C 0.72421 0.77615 0.75607 0.0
C821 C 0.66932 0.75283 0.74688 0.0
C822 C 0.71092 0.79912 0.76516 0.0
C823 C 0.71912 0.81015 0.78861 0.0
C824 C 0.74087 0.79854 0.80318 0.0
C825 C 0.75398 0.77537 0.79417 0.0
C826 C 0.74574 0.76433 0.77079 0.0
H827 H 0.65318 0.73796 0.74253 0.0
H828 H 0.67806 0.74671 0.76657 0.0
H829 H 0.65992 0.77341 0.74788 0.0
H830 H 0.69461 0.80888 0.75383 0.0
H831 H 0.70879 0.8281 0.7951 0.0
H832 H 0.77331 0.17868 0.12923 0.0
H833 H 0.7656 0.19809 0.17167 0.0
H834 H 0.8303 0.25595 0.15576 0.0
H835 H 0.83835 0.23665 0.11314 0.0
H836 H 0.83108 0.22566 0.20762 0.0
H837 H 0.73244 0.27503 0.1831 0.0
H838 H 0.73506 0.23966 0.17532 0.0
H839 H 0.75581 0.26525 0.15811 0.0
C840 C 0.78585 0.19564 0.1346 0.0
C841 C 0.8064 0.20617 0.11767 0.0
C842 C 0.78133 0.20675 0.15884 0.0
C843 C 0.79722 0.22858 0.16664 0.0
C844 C 0.81777 0.23916 0.14995 0.0
H845 H 0.7976 0.31206 0.31412 0.0
H846 H 0.81042 0.29526 0.27137 0.0
C847 C 0.82225 0.22815 0.12558 0.0
C848 C 0.79259 0.23987 0.19255 0.0
H849 H 0.74531 0.27194 0.22827 0.0
C850 C 0.81246 0.23602 0.21216 0.0
C851 C 0.76827 0.25331 0.19825 0.0
C852 C 0.74672 0.25882 0.17756 0.0
C853 C 0.8082 0.24443 0.23776 0.0
C854 C 0.78364 0.25746 0.2436 0.0
C855 C 0.76406 0.2618 0.22376 0.0
C856 C 0.7774 0.26628 0.27027 0.0
C857 C 0.82958 0.23848 0.25854 0.0
C858 C 0.75456 0.25566 0.28369 0.0
C859 C 0.74711 0.26538 0.30788 0.0
C860 C 0.76237 0.28596 0.31904 0.0
C861 C 0.78562 0.29607 0.30595 0.0
C862 C 0.79301 0.28642 0.28164 0.0
H863 H 0.84403 0.22255 0.25271 0.0
H864 H 0.84111 0.25759 0.26136 0.0
H865 H 0.82037 0.23145 0.27777 0.0
H866 H 0.74225 0.24011 0.27522 0.0
H867 H 0.72912 0.25709 0.31752 0.0
H868 H 0.22778 0.29862 0.51099 0.0
H869 H 0.1916 0.28066 0.54005 0.0
H870 H 0.25063 0.25157 0.59798 0.0
H871 H 0.28681 0.26812 0.56841 0.0
H872 H 0.21366 0.2148 0.5947 0.0
H873 H 0.16273 0.31511 0.60272 0.0
H874 H 0.16441 0.30554 0.56927 0.0
H875 H 0.195 0.31226 0.58689 0.0
C876 C 0.23298 0.28833 0.52992 0.0
C877 C 0.26008 0.28484 0.5375 0.0
C878 C 0.21229 0.27829 0.54661 0.0
C879 C 0.21832 0.26538 0.57152 0.0
C880 C 0.24543 0.26155 0.57891 0.0
H881 H 0.11131 0.24335 0.70527 0.0
H882 H 0.14319 0.25979 0.67095 0.0
C883 C 0.26611 0.271 0.562 0.0
C884 C 0.19656 0.2555 0.5899 0.0
H885 H 0.13981 0.27565 0.62136 0.0
C886 C 0.19755 0.22815 0.60059 0.0
C887 C 0.17572 0.27301 0.59788 0.0
C888 C 0.17452 0.30317 0.58881 0.0
C889 C 0.17856 0.21788 0.61921 0.0
C890 C 0.15715 0.23508 0.62645 0.0
C891 C 0.15601 0.26236 0.61558 0.0
C892 C 0.13663 0.2257 0.64637 0.0
C893 C 0.18238 0.18906 0.63164 0.0
C894 C 0.12175 0.20148 0.64369 0.0
C895 C 0.10404 0.19175 0.66361 0.0
C896 C 0.10032 0.20656 0.68612 0.0
C897 C 0.11396 0.23156 0.68809 0.0
C898 C 0.13213 0.24095 0.66849 0.0
H899 H 0.20361 0.18208 0.63002 0.0
H900 H 0.17671 0.18773 0.65285 0.0
H901 H 0.16952 0.17462 0.62122 0.0
H902 H 0.1241 0.18987 0.62638 0.0
H903 H 0.09338 0.17261 0.66146 0.0
H904 H 0.70681 0.74093 0.47711 0.0
H905 H 0.74216 0.76358 0.45016 0.0
H906 H 0.7993 0.70201 0.47917 0.0
H907 H 0.76413 0.67914 0.50639 0.0
H908 H 0.81756 0.75787 0.48024 0.0
H909 H 0.77595 0.73475 0.38255 0.0
H910 H 0.75229 0.75007 0.40398 0.0
H911 H 0.7656 0.71641 0.41302 0.0
C912 C 0.72685 0.73211 0.4778 0.0
C913 C 0.73256 0.70813 0.49392 0.0
C914 C 0.74699 0.74503 0.46225 0.0
C915 C 0.7732 0.73424 0.46245 0.0
C916 C 0.77912 0.71053 0.47867 0.0
H917 H 0.89803 0.78913 0.34976 0.0
H918 H 0.86787 0.76076 0.37848 0.0
C919 C 0.75896 0.6975 0.49417 0.0
C920 C 0.79452 0.74812 0.44612 0.0
H921 H 0.81152 0.76756 0.38241 0.0
C922 C 0.81639 0.75984 0.45884 0.0
C923 C 0.79304 0.75032 0.41823 0.0
C924 C 0.7706 0.73702 0.40355 0.0
C925 C 0.83645 0.77453 0.44437 0.0
C926 C 0.83435 0.77773 0.41653 0.0
C927 C 0.81294 0.76524 0.40378 0.0
C928 C 0.85372 0.79461 0.40026 0.0
C929 C 0.85972 0.78648 0.45896 0.0
C930 C 0.85565 0.82303 0.40299 0.0
C931 C 0.87279 0.83927 0.3866 0.0
C932 C 0.88821 0.82738 0.3672 0.0
C933 C 0.88646 0.79887 0.36463 0.0
C934 C 0.86924 0.78264 0.38098 0.0
H935 H 0.86216 0.77625 0.47908 0.0
H936 H 0.87887 0.78452 0.44792 0.0
H937 H 0.85594 0.80868 0.46106 0.0
H938 H 0.84345 0.83274 0.41742 0.0
H939 H 0.87368 0.86123 0.38884 0.0
H940 H 0.7863 0.23783 0.98553 0.0
H941 H 0.75251 0.25671 0.95442 0.0
H942 H 0.69784 0.19113 0.97896 0.0
H943 H 0.73163 0.17175 0.01032 0.0
H944 H 0.72468 0.21827 0.91312 0.0
H945 H 0.65855 0.27291 0.98139 0.0
H946 H 0.69408 0.26837 0.98828 0.0
H947 H 0.67197 0.23925 0.99109 0.0
C948 C 0.76706 0.22742 0.98457 0.0
C949 C 0.76175 0.20319 0.00047 0.0
C950 C 0.7478 0.23827 0.96674 0.0
C951 C 0.72279 0.22531 0.96455 0.0
C952 C 0.71707 0.20143 0.98056 0.0
H953 H 0.59442 0.29299 0.85897 0.0
H954 H 0.61764 0.26427 0.89365 0.0
C955 C 0.73642 0.19041 0.99841 0.0
C956 C 0.70336 0.23639 0.94453 0.0
H957 H 0.65018 0.28048 0.93571 0.0
C958 C 0.70813 0.23157 0.91802 0.0
C959 C 0.68175 0.25345 0.95115 0.0
C960 C 0.67607 0.25897 0.97949 0.0
C961 C 0.69235 0.24425 0.89775 0.0
C962 C 0.67172 0.26269 0.9042 0.0
C963 C 0.6661 0.26644 0.93084 0.0
C964 C 0.65739 0.27992 0.8835 0.0
C965 C 0.69818 0.2381 0.86956 0.0
C966 C 0.67201 0.29854 0.86673 0.0
C967 C 0.65889 0.31484 0.84703 0.0
C968 C 0.63087 0.313 0.84383 0.0
C969 C 0.61608 0.29473 0.86092 0.0
C970 C 0.62928 0.27836 0.88072 0.0
H971 H 0.70817 0.21778 0.86854 0.0
H972 H 0.67942 0.23828 0.85758 0.0
H973 H 0.712 0.25404 0.86061 0.0
H974 H 0.69363 0.30053 0.86895 0.0
H975 H 0.6707 0.32891 0.83423 0.0
H976 H 0.27456 0.30199 0.41125 0.0
H977 H 0.26822 0.2805 0.36968 0.0
H978 H 0.33712 0.22836 0.38683 0.0
H979 H 0.34371 0.24975 0.42883 0.0
H980 H 0.33421 0.2598 0.33338 0.0
H981 H 0.24263 0.19882 0.3608 0.0
H982 H 0.24203 0.23394 0.3697 0.0
H983 H 0.26607 0.21033 0.38503 0.0
C984 C 0.28835 0.28587 0.40635 0.0
C985 C 0.30964 0.27756 0.42341 0.0
C986 C 0.2846 0.27355 0.38262 0.0
C987 C 0.30207 0.25276 0.3754 0.0
C988 C 0.32337 0.24431 0.39224 0.0
H989 H 0.30108 0.18059 0.22078 0.0
H990 H 0.31538 0.19278 0.26484 0.0
C991 C 0.32702 0.25648 0.41621 0.0
C992 C 0.29826 0.24072 0.34973 0.0
H993 H 0.25251 0.20552 0.31489 0.0
C994 C 0.31663 0.24752 0.32932 0.0
C995 C 0.27526 0.22483 0.34469 0.0
C996 C 0.25543 0.2163 0.36624 0.0
C997 C 0.31178 0.24003 0.30348 0.0
C998 C 0.28822 0.22496 0.29823 0.0
C999 C 0.27048 0.21722 0.31896 0.0
C1000 C 0.2806 0.21835 0.27116 0.0
C1001 C 0.33117 0.24947 0.28182 0.0
C1002 C 0.25626 0.22849 0.26028 0.0
C1003 C 0.24799 0.22139 0.23535 0.0
C1004 C 0.26394 0.20397 0.22085 0.0
C1005 C 0.28853 0.19419 0.23154 0.0
C1006 C 0.29675 0.2012 0.2566 0.0
H1007 H 0.34502 0.26575 0.28807 0.0
H1008 H 0.34356 0.23173 0.27645 0.0
H1009 H 0.3201 0.2575 0.26388 0.0
H1010 H 0.24352 0.24176 0.27122 0.0
H1011 H 0.22896 0.22933 0.22765 0.0
H1012 H 0.1987 0.82812 0.89957 0.0
H1013 H 0.21258 0.80662 0.85975 0.0
H1014 H 0.20112 0.72627 0.89954 0.0
H1015 H 0.18613 0.74777 0.93927 0.0
H1016 H 0.25518 0.77604 0.85416 0.0
H1017 H 0.16487 0.71549 0.83037 0.0
H1018 H 0.1642 0.74127 0.85428 0.0
H1019 H 0.177 0.70732 0.8633 0.0
C1020 C 0.19883 0.80585 0.89976 0.0
C1021 C 0.1914 0.7896 0.92255 0.0
C1022 C 0.20674 0.79359 0.87697 0.0
C1023 C 0.20766 0.76483 0.87653 0.0
C1024 C 0.19993 0.74849 0.89917 0.0
H1025 H 0.30973 0.68349 0.76678 0.0
H1026 H 0.28938 0.70209 0.80572 0.0
C1027 C 0.19154 0.76079 0.92192 0.0
C1028 C 0.21862 0.75224 0.85299 0.0
H1029 H 0.20526 0.70584 0.80718 0.0
C1030 C 0.24416 0.7608 0.84381 0.0
C1031 C 0.20413 0.73261 0.8393 0.0
C1032 C 0.17592 0.72383 0.84714 0.0
C1033 C 0.25571 0.75022 0.82145 0.0
C1034 C 0.24175 0.72972 0.80843 0.0
C1035 C 0.21607 0.72132 0.8174 0.0
C1036 C 0.25337 0.71704 0.78527 0.0
C1037 C 0.28246 0.76166 0.81169 0.0
C1038 C 0.23939 0.71822 0.76114 0.0
C1039 C 0.25076 0.70712 0.73902 0.0
C1040 C 0.27635 0.69478 0.74073 0.0
C1041 C 0.29009 0.69316 0.76497 0.0
C1042 C 0.27856 0.70391 0.78714 0.0
H1043 H 0.28623 0.78248 0.81863 0.0
H1044 H 0.2989 0.74795 0.8195 0.0
H1045 H 0.28347 0.76299 0.78978 0.0
H1046 H 0.21987 0.72816 0.75931 0.0
H1047 H 0.23973 0.70865 0.72055 0.0
loop_
_geom_bond_atom_site_label_1
_geom_bond_atom_site_label_2
_geom_bond_distance
_geom_bond_site_symmetry_2
_ccdc_geom_bond_type
Sc0 O3 2.025 . S
Sc0 O10 2.105 1_554 S
Sc0 O13 2.105 . S
Sc0 O16 2.105 . S
Sc0 O19 2.105 1_554 S
Sc1 O3 2.025 . S
Sc1 O11 2.105 1_554 S
Sc1 O15 2.105 . S
Sc1 O17 2.105 . S
Sc1 O21 2.105 1_554 S
Sc2 O3 2.025 1_556 S
Sc2 O12 2.105 . S
Sc2 O14 2.105 1_556 S
Sc2 O18 2.105 1_556 S
Sc2 O20 2.105 . S
O3 Sc0 2.025 . S
O3 Sc1 2.025 . S
O3 Sc2 2.025 1_554 S
C4 O10 1.268 . S
C4 O20 1.268 . S
C5 O11 1.268 . S
C5 O19 1.268 . S
C6 O12 1.268 . S
C6 O21 1.268 . S
C7 O13 1.268 . S
C7 O17 1.268 . S
C8 O14 1.268 . S
C8 O16 1.268 . S
C9 O15 1.268 . S
C9 O18 1.268 . S
O10 Sc0 2.105 1_556 S
O10 C4 1.268 . S
O11 Sc1 2.105 1_556 S
O11 C5 1.268 . S
O12 Sc2 2.105 . S
O12 C6 1.268 . S
O13 Sc0 2.105 . S
O13 C7 1.268 . S
O14 Sc2 2.105 1_554 S
O14 C8 1.268 . S
O15 Sc1 2.105 . S
O15 C9 1.268 . S
O16 Sc0 2.105 . S
O16 C8 1.268 . S
O17 Sc1 2.105 . S
O17 C7 1.268 . S
O18 Sc2 2.105 1_554 S
O18 C9 1.268 . S
O19 Sc0 2.105 1_556 S
O19 C5 1.268 . S
O20 Sc2 2.105 . S
O20 C4 1.268 . S
O21 Sc1 2.105 1_556 S
O21 C6 1.268 . S
Sc22 O25 2.025 . S
Sc22 O32 2.105 . S
Sc22 O35 2.105 . S
Sc22 O38 2.105 . S
Sc22 O41 2.105 . S
Sc23 O25 2.025 . S
Sc23 O33 2.105 . S
Sc23 O37 2.105 . S
Sc23 O39 2.105 . S
Sc23 O43 2.105 . S
Sc24 O25 2.025 . S
Sc24 O34 2.105 . S
Sc24 O36 2.105 . S
Sc24 O40 2.105 . S
Sc24 O42 2.105 . S
O25 Sc22 2.025 . S
O25 Sc23 2.025 . S
O25 Sc24 2.025 . S
C26 O32 1.268 . S
C26 O42 1.268 . S
C27 O33 1.268 . S
C27 O41 1.268 . S
C28 O34 1.268 . S
C28 O43 1.268 . S
C29 O35 1.268 . S
C29 O39 1.268 . S
C30 O36 1.268 . S
C30 O38 1.268 . S
C31 O37 1.268 . S
C31 O40 1.268 . S
O32 Sc22 2.105 . S
O32 C26 1.268 . S
O33 Sc23 2.105 . S
O33 C27 1.268 . S
O34 Sc24 2.105 . S
O34 C28 1.268 . S
O35 Sc22 2.105 . S
O35 C29 1.268 . S
O36 Sc24 2.105 . S
O36 C30 1.268 . S
O37 Sc23 2.105 . S
O37 C31 1.268 . S
O38 Sc22 2.105 . S
O38 C30 1.268 . S
O39 Sc23 2.105 . S
O39 C29 1.268 . S
O40 Sc24 2.105 . S
O40 C31 1.268 . S
O41 Sc22 2.105 . S
O41 C27 1.268 . S
O42 Sc24 2.105 . S
O42 C26 1.268 . S
O43 Sc23 2.105 . S
O43 C28 1.268 . S
Sc44 O47 2.025 . S
Sc44 O54 2.105 1_554 S
Sc44 O57 2.105 . S
Sc44 O60 2.105 . S
Sc44 O63 2.105 . S
Sc45 O47 2.025 . S
Sc45 O55 2.105 . S
Sc45 O59 2.105 . S
Sc45 O61 2.105 . S
Sc45 O65 2.105 . S
Sc46 O47 2.025 . S
Sc46 O56 2.105 . S
Sc46 O58 2.105 . S
Sc46 O62 2.105 . S
Sc46 O64 2.105 1_554 S
O47 Sc44 2.025 . S
O47 Sc45 2.025 . S
O47 Sc46 2.025 . S
C48 O54 1.268 . S
C48 O64 1.268 . S
C49 O55 1.268 . S
C49 O63 1.268 . S
C50 O56 1.268 . S
C50 O65 1.268 . S
C51 O57 1.268 . S
C51 O61 1.268 . S
C52 O58 1.268 . S
C52 O60 1.268 . S
C53 O59 1.268 . S
C53 O62 1.268 . S
O54 Sc44 2.105 1_556 S
O54 C48 1.268 . S
O55 Sc45 2.105 . S
O55 C49 1.268 . S
O56 Sc46 2.105 . S
O56 C50 1.268 . S
O57 Sc44 2.105 . S
O57 C51 1.268 . S
O58 Sc46 2.105 . S
O58 C52 1.268 . S
O59 Sc45 2.105 . S
O59 C53 1.268 . S
O60 Sc44 2.105 . S
O60 C52 1.268 . S
O61 Sc45 2.105 . S
O61 C51 1.268 . S
O62 Sc46 2.105 . S
O62 C53 1.268 . S
O63 Sc44 2.105 . S
O63 C49 1.268 . S
O64 Sc46 2.105 1_556 S
O64 C48 1.268 . S
O65 Sc45 2.105 . S
O65 C50 1.268 . S
Sc66 O69 2.025 . S
Sc66 O76 2.105 . S
Sc66 O79 2.105 . S
Sc66 O82 2.105 . S
Sc66 O85 2.105 . S
Sc67 O69 2.025 . S
Sc67 O77 2.105 . S
Sc67 O81 2.105 . S
Sc67 O83 2.105 . S
Sc67 O87 2.105 . S
Sc68 O69 2.025 . S
Sc68 O78 2.105 . S
Sc68 O80 2.105 . S
Sc68 O84 2.105 . S
Sc68 O86 2.105 . S
O69 Sc66 2.025 . S
O69 Sc67 2.025 . S
O69 Sc68 2.025 . S
C70 O76 1.268 . S
C70 O86 1.268 . S
C71 O77 1.268 . S
C71 O85 1.268 . S
C72 O78 1.268 . S
C72 O87 1.268 . S
C73 O79 1.268 . S
C73 O83 1.268 . S
C74 O80 1.268 . S
C74 O82 1.268 . S
C75 O81 1.268 . S
C75 O84 1.268 . S
O76 Sc66 2.105 . S
O76 C70 1.268 . S
O77 Sc67 2.105 . S
O77 C71 1.268 . S
O78 Sc68 2.105 . S
O78 C72 1.268 . S
O79 Sc66 2.105 . S
O79 C73 1.268 . S
O80 Sc68 2.105 . S
O80 C74 1.268 . S
O81 Sc67 2.105 . S
O81 C75 1.268 . S
O82 Sc66 2.105 . S
O82 C74 1.268 . S
O83 Sc67 2.105 . S
O83 C73 1.268 . S
O84 Sc68 2.105 . S
O84 C75 1.268 . S
O85 Sc66 2.105 . S
O85 C71 1.268 . S
O86 Sc68 2.105 . S
O86 C70 1.268 . S
O87 Sc67 2.105 . S
O87 C72 1.268 . S
H88 C93 0.930 . S
H89 C96 0.930 . S
H90 C98 0.930 . S
H91 C92 1.016 . S
C92 H91 1.016 . S
C92 N99 1.286 . S
C93 H88 0.930 . S
C93 C94 1.397 . S
C93 C95 1.361 . S
C94 C93 1.397 . S
C94 C98 1.390 . S
C95 C93 1.361 . S
C95 C96 1.393 . S
C95 N99 1.413 . S
C96 H89 0.930 . S
C96 C95 1.393 . S
C96 C97 1.399 . S
C97 C96 1.399 . S
C97 C98 1.381 . S
C98 H90 0.930 . S
C98 C94 1.390 . S
C98 C97 1.381 . S
N99 C92 1.286 . S
N99 C95 1.413 . S
H100 C105 0.930 . S
H101 C108 0.930 . S
H102 C110 0.930 . S
H103 C104 1.016 . S
C104 H103 1.016 . S
C104 N111 1.286 . S
C105 H100 0.930 . S
C105 C106 1.397 . S
C105 C107 1.361 . S
C106 C105 1.397 . S
C106 C110 1.390 . S
C107 C105 1.361 . S
C107 C108 1.393 . S
C107 N111 1.413 . S
C108 H101 0.930 . S
C108 C107 1.393 . S
C108 C109 1.399 . S
C109 C108 1.399 . S
C109 C110 1.381 . S
C110 H102 0.930 . S
C110 C106 1.390 . S
C110 C109 1.381 . S
N111 C104 1.286 . S
N111 C107 1.413 . S
H112 C117 0.930 . S
H113 C120 0.930 . S
H114 C122 0.930 . S
H115 C116 1.016 . S
C116 H115 1.016 . S
C116 N123 1.286 . S
C117 H112 0.930 . S
C117 C118 1.397 . S
C117 C119 1.361 . S
C118 C117 1.397 . S
C118 C122 1.390 . S
C119 C117 1.361 . S
C119 C120 1.393 . S
C119 N123 1.413 . S
C120 H113 0.930 . S
C120 C119 1.393 . S
C120 C121 1.399 . S
C121 C120 1.399 . S
C121 C122 1.381 . S
C122 H114 0.930 . S
C122 C118 1.390 . S
C122 C121 1.381 . S
N123 C116 1.286 . S
N123 C119 1.413 . S
H124 C129 0.930 . S
H125 C132 0.930 . S
H126 C134 0.930 . S
H127 C128 1.016 . S
C128 H127 1.016 . S
C128 N135 1.286 . S
C129 H124 0.930 . S
C129 C130 1.397 . S
C129 C131 1.361 . S
C130 C129 1.397 . S
C130 C134 1.390 . S
C131 C129 1.361 . S
C131 C132 1.393 . S
C131 N135 1.413 . S
C132 H125 0.930 . S
C132 C131 1.393 . S
C132 C133 1.399 . S
C133 C132 1.399 . S
C133 C134 1.381 . S
C134 H126 0.930 . S
C134 C130 1.390 . S
C134 C133 1.381 . S
N135 C128 1.286 . S
N135 C131 1.413 . S
H136 C141 0.930 . S
H137 C144 0.930 . S
H138 C146 0.930 . S
H139 C140 1.016 . S
C140 H139 1.016 . S
C140 N147 1.286 . S
C141 H136 0.930 . S
C141 C142 1.397 . S
C141 C143 1.361 . S
C142 C141 1.397 . S
C142 C146 1.390 . S
C143 C141 1.361 . S
C143 C144 1.393 . S
C143 N147 1.413 . S
C144 H137 0.930 . S
C144 C143 1.393 . S
C144 C145 1.399 . S
C145 C144 1.399 . S
C145 C146 1.381 . S
C146 H138 0.930 . S
C146 C142 1.390 . S
C146 C145 1.381 . S
N147 C140 1.286 . S
N147 C143 1.413 . S
H148 C153 0.930 . S
H149 C156 0.930 . S
H150 C158 0.930 . S
H151 C152 1.016 . S
C152 H151 1.016 . S
C152 N159 1.286 . S
C153 H148 0.930 . S
C153 C154 1.397 . S
C153 C155 1.361 . S
C154 C153 1.397 . S
C154 C158 1.390 . S
C155 C153 1.361 . S
C155 C156 1.393 . S
C155 N159 1.413 . S
C156 H149 0.930 . S
C156 C155 1.393 . S
C156 C157 1.399 . S
C157 C156 1.399 . S
C157 C158 1.381 . S
C158 H150 0.930 . S
C158 C154 1.390 . S
C158 C157 1.381 . S
N159 C152 1.286 . S
N159 C155 1.413 . S
H160 C165 0.930 . S
H161 C168 0.930 . S
H162 C170 0.930 . S
H163 C164 1.016 . S
C164 H163 1.016 . S
C164 N171 1.286 . S
C165 H160 0.930 . S
C165 C166 1.397 . S
C165 C167 1.361 . S
C166 C165 1.397 . S
C166 C170 1.390 . S
C167 C165 1.361 . S
C167 C168 1.393 . S
C167 N171 1.413 . S
C168 H161 0.930 . S
C168 C167 1.393 . S
C168 C169 1.399 . S
C169 C168 1.399 . S
C169 C170 1.381 . S
C170 H162 0.930 . S
C170 C166 1.390 . S
C170 C169 1.381 . S
N171 C164 1.286 . S
N171 C167 1.413 . S
H172 C177 0.930 . S
H173 C180 0.930 . S
H174 C182 0.930 . S
H175 C176 1.016 . S
C176 H175 1.016 . S
C176 N183 1.286 . S
C177 H172 0.930 . S
C177 C178 1.397 . S
C177 C179 1.361 . S
C178 C177 1.397 . S
C178 C182 1.390 . S
C179 C177 1.361 . S
C179 C180 1.393 . S
C179 N183 1.413 . S
C180 H173 0.930 . S
C180 C179 1.393 . S
C180 C181 1.399 . S
C181 C180 1.399 . S
C181 C182 1.381 . S
C182 H174 0.930 . S
C182 C178 1.390 . S
C182 C181 1.381 . S
N183 C176 1.286 . S
N183 C179 1.413 . S
H184 C192 0.929 . S
H185 C194 0.930 . S
H186 C196 0.930 . S
H187 C199 0.929 . S
H188 C202 0.930 . S
H189 C204 0.960 . S
H190 C204 0.960 . S
H191 C204 0.960 . S
C192 H184 0.929 . S
C192 C193 1.377 . S
C192 C194 1.384 . S
C193 C192 1.377 . S
C193 C199 1.390 . S
C194 H185 0.930 . S
C194 C192 1.384 . S
C194 C195 1.372 . S
C195 C194 1.372 . S
C195 C196 1.400 . S
C195 C200 1.490 1_565 S
C196 H186 0.930 . S
C196 C195 1.400 . S
C196 C199 1.386 . S
H197 C213 0.930 . S
H198 C214 0.931 . S
C199 H187 0.929 . S
C199 C193 1.390 . S
C199 C196 1.386 . S
C200 C195 1.490 1_545 S
C200 C202 1.395 . S
C200 C203 1.403 . S
H201 C207 0.930 . S
C202 H188 0.930 . S
C202 C200 1.395 . S
C202 C205 1.403 . S
C203 C200 1.403 . S
C203 C204 1.524 . S
C203 C207 1.400 . S
C204 H189 0.960 . S
C204 H190 0.960 . S
C204 H191 0.960 . S
C204 C203 1.524 . S
C205 C202 1.403 . S
C205 C206 1.392 . S
C205 C209 1.495 . S
C206 C205 1.392 . S
C206 C207 1.385 . S
C206 C208 1.478 . S
C207 H201 0.930 . S
C207 C203 1.400 . S
C207 C206 1.385 . S
C208 C206 1.478 . S
C208 C210 1.381 . S
C208 C214 1.383 . S
C209 C205 1.495 . S
C209 H215 0.959 . S
C209 H216 0.961 . S
C209 H217 0.960 . S
C210 C208 1.381 . S
C210 C211 1.394 . S
C210 H218 0.930 . S
C211 C210 1.394 . S
C211 C212 1.383 . S
C211 H219 0.929 . S
C212 C211 1.383 . S
C212 C213 1.377 . S
C213 H197 0.930 . S
C213 C212 1.377 . S
C213 C214 1.379 . S
C214 H198 0.931 . S
C214 C208 1.383 . S
C214 C213 1.379 . S
H215 C209 0.959 . S
H216 C209 0.961 . S
H217 C209 0.960 . S
H218 C210 0.930 . S
H219 C211 0.929 . S
H220 C228 0.929 . S
H221 C230 0.930 . S
H222 C232 0.930 . S
H223 C235 0.929 . S
H224 C238 0.930 . S
H225 C240 0.960 . S
H226 C240 0.960 . S
H227 C240 0.960 . S
C228 H220 0.929 . S
C228 C229 1.377 . S
C228 C230 1.384 . S
C229 C228 1.377 . S
C229 C235 1.390 . S
C230 H221 0.930 . S
C230 C228 1.384 . S
C230 C231 1.372 . S
C231 C230 1.372 . S
C231 C232 1.400 . S
C231 C236 1.490 . S
C232 H222 0.930 . S
C232 C231 1.400 . S
C232 C235 1.386 . S
H233 C249 0.930 . S
H234 C250 0.931 . S
C235 H223 0.929 . S
C235 C229 1.390 . S
C235 C232 1.386 . S
C236 C231 1.490 . S
C236 C238 1.395 . S
C236 C239 1.403 . S
H237 C243 0.930 . S
C238 H224 0.930 . S
C238 C236 1.395 . S
C238 C241 1.403 . S
C239 C236 1.403 . S
C239 C240 1.524 . S
C239 C243 1.400 . S
C240 H225 0.960 . S
C240 H226 0.960 . S
C240 H227 0.960 . S
C240 C239 1.524 . S
C241 C238 1.403 . S
C241 C242 1.392 . S
C241 C245 1.495 . S
C242 C241 1.392 . S
C242 C243 1.385 . S
C242 C244 1.478 . S
C243 H237 0.930 . S
C243 C239 1.400 . S
C243 C242 1.385 . S
C244 C242 1.478 . S
C244 C246 1.381 . S
C244 C250 1.383 . S
C245 C241 1.495 . S
C245 H251 0.959 . S
C245 H252 0.961 . S
C245 H253 0.960 . S
C246 C244 1.381 . S
C246 C247 1.394 . S
C246 H254 0.930 . S
C247 C246 1.394 . S
C247 C248 1.383 . S
C247 H255 0.929 . S
C248 C247 1.383 . S
C248 C249 1.377 . S
C249 H233 0.930 . S
C249 C248 1.377 . S
C249 C250 1.379 . S
C250 H234 0.931 . S
C250 C244 1.383 . S
C250 C249 1.379 . S
H251 C245 0.959 . S
H252 C245 0.961 . S
H253 C245 0.960 . S
H254 C246 0.930 . S
H255 C247 0.929 . S
H256 C264 0.929 . S
H257 C266 0.968 . S
H258 C268 0.930 . S
H259 C271 0.929 . S
H260 C274 0.930 . S
H261 C276 0.960 . S
H262 C276 0.960 . S
H263 C276 0.960 . S
C264 H256 0.929 . S
C264 C265 1.377 . S
C264 C266 1.384 . S
C265 C264 1.377 . S
C265 C271 1.390 . S
C266 H257 0.968 . S
C266 C264 1.384 . S
C266 C267 1.372 . S
C267 C266 1.372 . S
C267 C268 1.400 . S
C267 C272 1.492 1_545 S
C268 H258 0.930 . S
C268 C267 1.400 . S
C268 C271 1.386 . S
H269 C285 0.930 . S
H270 C286 0.931 . S
C271 H259 0.929 . S
C271 C265 1.390 . S
C271 C268 1.386 . S
C272 C267 1.492 1_565 S
C272 C274 1.393 . S
C272 C275 1.403 . S
H273 C279 0.930 . S
C274 H260 0.930 . S
C274 C272 1.393 . S
C274 C277 1.403 . S
C275 C272 1.403 . S
C275 C276 1.524 1_565 S
C275 C279 1.400 . S
C276 H261 0.960 . S
C276 H262 0.960 . S
C276 H263 0.960 . S
C276 C275 1.524 1_545 S
C277 C274 1.403 . S
C277 C278 1.392 . S
C277 C281 1.495 . S
C278 C277 1.392 . S
C278 C279 1.385 . S
C278 C280 1.478 . S
C279 H273 0.930 . S
C279 C275 1.400 . S
C279 C278 1.385 . S
C280 C278 1.478 . S
C280 C282 1.381 . S
C280 C286 1.383 . S
C281 C277 1.495 . S
C281 H287 0.959 . S
C281 H288 0.961 . S
C281 H289 0.960 . S
C282 C280 1.381 . S
C282 C283 1.394 . S
C282 H290 0.930 . S
C283 C282 1.394 . S
C283 C284 1.383 . S
C283 H291 0.929 . S
C284 C283 1.383 . S
C284 C285 1.377 . S
C285 H269 0.930 . S
C285 C284 1.377 . S
C285 C286 1.379 . S
C286 H270 0.931 . S
C286 C280 1.383 . S
C286 C285 1.379 . S
H287 C281 0.959 . S
H288 C281 0.961 . S
H289 C281 0.960 . S
H290 C282 0.930 . S
H291 C283 0.929 . S
H292 C300 0.929 . S
H293 C302 0.930 . S
H294 C304 0.930 . S
H295 C307 0.929 . S
H296 C310 0.930 . S
H297 C312 0.960 . S
H298 C312 0.960 . S
H299 C312 0.960 . S
C300 H292 0.929 . S
C300 C301 1.377 . S
C300 C302 1.384 . S
C301 C300 1.377 . S
C301 C307 1.390 . S
C302 H293 0.930 . S
C302 C300 1.384 . S
C302 C303 1.372 . S
C303 C302 1.372 . S
C303 C304 1.400 . S
C303 C308 1.490 . S
C304 H294 0.930 . S
C304 C303 1.400 . S
C304 C307 1.386 . S
H305 C321 0.930 . S
H306 C322 0.931 . S
C307 H295 0.929 . S
C307 C301 1.390 . S
C307 C304 1.386 . S
C308 C303 1.490 . S
C308 C310 1.395 . S
C308 C311 1.403 . S
H309 C315 0.930 . S
C310 H296 0.930 . S
C310 C308 1.395 . S
C310 C313 1.403 . S
C311 C308 1.403 . S
C311 C312 1.524 . S
C311 C315 1.400 . S
C312 H297 0.960 . S
C312 H298 0.960 . S
C312 H299 0.960 . S
C312 C311 1.524 . S
C313 C310 1.403 . S
C313 C314 1.392 . S
C313 C317 1.495 . S
C314 C313 1.392 . S
C314 C315 1.385 . S
C314 C316 1.478 . S
C315 H309 0.930 . S
C315 C311 1.400 . S
C315 C314 1.385 . S
C316 C314 1.478 . S
C316 C318 1.381 . S
C316 C322 1.383 . S
C317 C313 1.495 . S
C317 H323 0.959 . S
C317 H324 0.961 . S
C317 H325 0.960 . S
C318 C316 1.381 . S
C318 C319 1.394 . S
C318 H326 0.930 . S
C319 C318 1.394 . S
C319 C320 1.383 . S
C319 H327 0.929 . S
C320 C319 1.383 . S
C320 C321 1.377 . S
C321 H305 0.930 . S
C321 C320 1.377 . S
C321 C322 1.379 . S
C322 H306 0.931 . S
C322 C316 1.383 . S
C322 C321 1.379 . S
H323 C317 0.959 . S
H324 C317 0.961 . S
H325 C317 0.960 . S
H326 C318 0.930 . S
H327 C319 0.929 . S
H328 C336 0.929 . S
H329 C338 0.930 . S
H330 C340 0.930 . S
H331 C343 0.929 . S
H332 C346 0.930 . S
H333 C348 0.960 . S
H334 C348 0.960 . S
H335 C348 0.960 . S
C336 H328 0.929 . S
C336 C337 1.377 . S
C336 C338 1.384 . S
C337 C336 1.377 . S
C337 C343 1.390 . S
C338 H329 0.930 . S
C338 C336 1.384 . S
C338 C339 1.372 . S
C339 C338 1.372 . S
C339 C340 1.400 . S
C339 C344 1.490 . S
C340 H330 0.930 . S
C340 C339 1.400 . S
C340 C343 1.386 . S
H341 C357 0.930 . S
H342 C358 0.931 . S
C343 H331 0.929 . S
C343 C337 1.390 . S
C343 C340 1.386 . S
C344 C339 1.490 . S
C344 C346 1.395 . S
C344 C347 1.403 . S
H345 C351 0.930 . S
C346 H332 0.930 . S
C346 C344 1.395 . S
C346 C349 1.403 . S
C347 C344 1.403 . S
C347 C348 1.524 . S
C347 C351 1.400 . S
C348 H333 0.960 . S
C348 H334 0.960 . S
C348 H335 0.960 . S
C348 C347 1.524 . S
C349 C346 1.403 . S
C349 C350 1.392 . S
C349 C353 1.495 . S
C350 C349 1.392 . S
C350 C351 1.385 . S
C350 C352 1.478 . S
C351 H345 0.930 . S
C351 C347 1.400 . S
C351 C350 1.385 . S
C352 C350 1.478 . S
C352 C354 1.381 . S
C352 C358 1.383 . S
C353 C349 1.495 . S
C353 H359 0.959 . S
C353 H360 0.961 . S
C353 H361 0.960 . S
C354 C352 1.381 . S
C354 C355 1.394 . S
C354 H362 0.930 . S
C355 C354 1.394 . S
C355 C356 1.383 . S
C355 H363 0.929 . S
C356 C355 1.383 . S
C356 C357 1.377 . S
C357 H341 0.930 . S
C357 C356 1.377 . S
C357 C358 1.379 . S
C358 H342 0.931 . S
C358 C352 1.383 . S
C358 C357 1.379 . S
H359 C353 0.959 . S
H360 C353 0.961 . S
H361 C353 0.960 . S
H362 C354 0.930 . S
H363 C355 0.929 . S
H364 C372 0.929 . S
H365 C374 0.930 . S
H366 C376 0.930 . S
H367 C379 0.929 . S
H368 C382 0.930 . S
H369 C384 0.960 . S
H370 C384 0.960 . S
H371 C384 0.960 . S
C372 H364 0.929 . S
C372 C373 1.377 . S
C372 C374 1.384 . S
C373 C372 1.377 . S
C373 C379 1.390 . S
C374 H365 0.930 . S
C374 C372 1.384 . S
C374 C375 1.372 . S
C375 C374 1.372 . S
C375 C376 1.400 . S
C375 C380 1.490 . S
C376 H366 0.930 . S
C376 C375 1.400 . S
C376 C379 1.386 . S
H377 C393 0.930 . S
H378 C394 0.931 1_655 S
C379 H367 0.929 . S
C379 C373 1.390 . S
C379 C376 1.386 . S
C380 C375 1.490 . S
C380 C382 1.395 . S
C380 C383 1.403 . S
H381 C387 0.930 1_455 S
C382 H368 0.930 . S
C382 C380 1.395 . S
C382 C385 1.403 . S
C383 C380 1.403 . S
C383 C384 1.524 . S
C383 C387 1.400 . S
C384 H369 0.960 . S
C384 H370 0.960 . S
C384 H371 0.960 . S
C384 C383 1.524 . S
C385 C382 1.403 . S
C385 C386 1.392 . S
C385 C389 1.495 . S
C386 C385 1.392 . S
C386 C387 1.385 . S
C386 C388 1.478 1_655 S
C387 H381 0.930 1_655 S
C387 C383 1.400 . S
C387 C386 1.385 . S
C388 C386 1.478 1_455 S
C388 C390 1.381 . S
C388 C394 1.383 . S
C389 C385 1.495 . S
C389 H395 0.959 . S
C389 H396 0.961 . S
C389 H397 0.960 . S
C390 C388 1.381 . S
C390 C391 1.394 . S
C390 H398 0.930 . S
C391 C390 1.394 . S
C391 C392 1.383 . S
C391 H399 0.929 . S
C392 C391 1.383 . S
C392 C393 1.377 . S
C393 H377 0.930 . S
C393 C392 1.377 . S
C393 C394 1.379 . S
C394 H378 0.931 1_455 S
C394 C388 1.383 . S
C394 C393 1.379 . S
H395 C389 0.959 . S
H396 C389 0.961 . S
H397 C389 0.960 . S
H398 C390 0.930 . S
H399 C391 0.929 . S
H400 C408 0.929 . S
H401 C410 0.930 . S
H402 C412 0.930 . S
H403 C415 0.929 . S
H404 C418 0.930 . S
H405 C420 0.960 . S
H406 C420 0.960 . S
H407 C420 0.960 . S
C408 H400 0.929 . S
C408 C409 1.377 . S
C408 C410 1.384 . S
C409 C408 1.377 . S
C409 C415 1.390 . S
C410 H401 0.930 . S
C410 C408 1.384 . S
C410 C411 1.372 . S
C411 C410 1.372 . S
C411 C412 1.400 . S
C411 C416 1.490 . S
C412 H402 0.930 . S
C412 C411 1.400 . S
C412 C415 1.386 . S
H413 C429 0.930 . S
H414 C430 0.931 . S
C415 H403 0.929 . S
C415 C409 1.390 . S
C415 C412 1.386 . S
C416 C411 1.490 . S
C416 C418 1.395 . S
C416 C419 1.403 . S
H417 C423 0.930 . S
C418 H404 0.930 . S
C418 C416 1.395 . S
C418 C421 1.403 . S
C419 C416 1.403 . S
C419 C420 1.524 . S
C419 C423 1.400 . S
C420 H405 0.960 . S
C420 H406 0.960 . S
C420 H407 0.960 . S
C420 C419 1.524 . S
C421 C418 1.403 . S
C421 C422 1.392 . S
C421 C425 1.495 . S
C422 C421 1.392 . S
C422 C423 1.385 . S
C422 C424 1.478 . S
C423 H417 0.930 . S
C423 C419 1.400 . S
C423 C422 1.385 . S
C424 C422 1.478 . S
C424 C426 1.381 . S
C424 C430 1.383 . S
C425 C421 1.495 . S
C425 H431 0.959 . S
C425 H432 0.961 . S
C425 H433 0.960 . S
C426 C424 1.381 . S
C426 C427 1.394 . S
C426 H434 0.930 . S
C427 C426 1.394 . S
C427 C428 1.383 . S
C427 H435 0.929 . S
C428 C427 1.383 . S
C428 C429 1.377 . S
C429 H413 0.930 . S
C429 C428 1.377 . S
C429 C430 1.379 . S
C430 H414 0.931 . S
C430 C424 1.383 . S
C430 C429 1.379 . S
H431 C425 0.959 . S
H432 C425 0.961 . S
H433 C425 0.960 . S
H434 C426 0.930 . S
H435 C427 0.929 . S
H436 C444 0.929 . S
H437 C446 0.930 . S
H438 C448 0.930 . S
H439 C451 0.929 . S
H440 C454 0.930 . S
H441 C456 0.960 1_655 S
H442 C456 0.960 . S
H443 C456 0.960 . S
C444 H436 0.929 . S
C444 C445 1.377 . S
C444 C446 1.384 . S
C445 C444 1.377 . S
C445 C451 1.390 . S
C446 H437 0.930 . S
C446 C444 1.384 . S
C446 C447 1.372 . S
C447 C446 1.372 . S
C447 C448 1.400 . S
C447 C452 1.490 1_455 S
C448 H438 0.930 . S
C448 C447 1.400 . S
C448 C451 1.386 . S
H449 C465 0.930 . S
H450 C466 0.931 . S
C451 H439 0.929 . S
C451 C445 1.390 . S
C451 C448 1.386 . S
C452 C447 1.490 1_655 S
C452 C454 1.395 . S
C452 C455 1.403 . S
H453 C459 0.930 . S
C454 H440 0.930 . S
C454 C452 1.395 . S
C454 C457 1.403 . S
C455 C452 1.403 . S
C455 C456 1.524 1_655 S
C455 C459 1.400 . S
C456 H441 0.960 1_455 S
C456 H442 0.960 . S
C456 H443 0.960 . S
C456 C455 1.524 1_455 S
C457 C454 1.403 . S
C457 C458 1.392 . S
C457 C461 1.495 . S
C458 C457 1.392 . S
C458 C459 1.385 . S
C458 C460 1.478 . S
C459 H453 0.930 . S
C459 C455 1.400 . S
C459 C458 1.385 . S
C460 C458 1.478 . S
C460 C462 1.381 . S
C460 C466 1.383 . S
C461 C457 1.495 . S
C461 H467 0.959 . S
C461 H468 0.961 . S
C461 H469 0.960 . S
C462 C460 1.381 . S
C462 C463 1.394 . S
C462 H470 0.930 . S
C463 C462 1.394 . S
C463 C464 1.383 . S
C463 H471 0.929 . S
C464 C463 1.383 . S
C464 C465 1.377 . S
C465 H449 0.930 . S
C465 C464 1.377 . S
C465 C466 1.379 . S
C466 H450 0.931 . S
C466 C460 1.383 . S
C466 C465 1.379 . S
H467 C461 0.959 . S
H468 C461 0.961 . S
H469 C461 0.960 . S
H470 C462 0.930 . S
H471 C463 0.929 . S
H472 C480 0.929 . S
H473 C482 0.930 . S
H474 C484 0.930 . S
H475 C487 0.929 1_554 S
H476 C490 0.930 . S
H477 C492 0.960 1_565 S
H478 C492 0.960 . S
H479 C492 0.960 . S
C480 H472 0.929 . S
C480 C481 1.377 . S
C480 C482 1.384 . S
C481 C480 1.377 . S
C481 C487 1.390 . S
C482 H473 0.930 . S
C482 C480 1.384 . S
C482 C483 1.372 . S
C483 C482 1.372 . S
C483 C484 1.400 . S
C483 C488 1.490 1_545 S
C484 H474 0.930 . S
C484 C483 1.400 . S
C484 C487 1.386 . S
H485 C501 0.930 . S
H486 C502 0.931 . S
C487 H475 0.929 1_556 S
C487 C481 1.390 . S
C487 C484 1.386 . S
C488 C483 1.490 1_565 S
C488 C490 1.395 . S
C488 C491 1.403 . S
H489 C495 0.930 . S
C490 H476 0.930 . S
C490 C488 1.395 . S
C490 C493 1.403 . S
C491 C488 1.403 . S
C491 C492 1.524 1_565 S
C491 C495 1.400 . S
C492 H477 0.960 1_545 S
C492 H478 0.960 . S
C492 H479 0.960 . S
C492 C491 1.524 1_545 S
C493 C490 1.403 . S
C493 C494 1.392 . S
C493 C497 1.495 . S
C494 C493 1.392 . S
C494 C495 1.385 . S
C494 C496 1.478 . S
C495 H489 0.930 . S
C495 C491 1.400 . S
C495 C494 1.385 . S
C496 C494 1.478 . S
C496 C498 1.381 . S
C496 C502 1.383 . S
C497 C493 1.495 . S
C497 H503 0.959 . S
C497 H504 0.961 . S
C497 H505 0.960 . S
C498 C496 1.381 . S
C498 C499 1.394 . S
C498 H506 0.930 . S
C499 C498 1.394 . S
C499 C500 1.383 . S
C499 H507 0.929 . S
C500 C499 1.383 . S
C500 C501 1.377 . S
C501 H485 0.930 . S
C501 C500 1.377 . S
C501 C502 1.379 . S
C502 H486 0.931 . S
C502 C496 1.383 . S
C502 C501 1.379 . S
H503 C497 0.959 . S
H504 C497 0.961 . S
H505 C497 0.960 . S
H506 C498 0.930 . S
H507 C499 0.929 . S
H508 C516 0.929 . S
H509 C518 0.930 . S
H510 C520 0.930 . S
H511 C523 0.929 . S
H512 C526 0.930 . S
H513 C528 0.960 . S
H514 C528 0.960 . S
H515 C528 0.960 . S
C516 H508 0.929 . S
C516 C517 1.377 . S
C516 C518 1.384 . S
C517 C516 1.377 . S
C517 C523 1.390 . S
C518 H509 0.930 . S
C518 C516 1.384 . S
C518 C519 1.372 . S
C519 C518 1.372 . S
C519 C520 1.400 . S
C519 C524 1.490 . S
C520 H510 0.930 . S
C520 C519 1.400 . S
C520 C523 1.386 . S
H521 C537 0.930 . S
H522 C538 0.931 . S
C523 H511 0.929 . S
C523 C517 1.390 . S
C523 C520 1.386 . S
C524 C519 1.490 . S
C524 C526 1.395 . S
C524 C527 1.403 . S
H525 C531 0.930 . S
C526 H512 0.930 . S
C526 C524 1.395 . S
C526 C529 1.403 . S
C527 C524 1.403 . S
C527 C528 1.524 . S
C527 C531 1.400 . S
C528 H513 0.960 . S
C528 H514 0.960 . S
C528 H515 0.960 . S
C528 C527 1.524 . S
C529 C526 1.403 . S
C529 C530 1.392 . S
C529 C533 1.495 . S
C530 C529 1.392 . S
C530 C531 1.385 . S
C530 C532 1.478 . S
C531 H525 0.930 . S
C531 C527 1.400 . S
C531 C530 1.385 . S
C532 C530 1.478 . S
C532 C534 1.381 . S
C532 C538 1.383 . S
C533 C529 1.495 . S
C533 H539 0.959 . S
C533 H540 0.961 . S
C533 H541 0.960 . S
C534 C532 1.381 . S
C534 C535 1.394 . S
C534 H542 0.930 . S
C535 C534 1.394 . S
C535 C536 1.383 . S
C535 H543 0.929 . S
C536 C535 1.383 . S
C536 C537 1.377 . S
C537 H521 0.930 . S
C537 C536 1.377 . S
C537 C538 1.379 . S
C538 H522 0.931 . S
C538 C532 1.383 . S
C538 C537 1.379 . S
H539 C533 0.959 . S
H540 C533 0.961 . S
H541 C533 0.960 . S
H542 C534 0.930 . S
H543 C535 0.929 . S
H544 C552 0.929 . S
H545 C554 0.930 . S
H546 C556 0.930 1_545 S
H547 C559 0.929 . S
H548 C562 0.930 . S
H549 C564 0.960 . S
H550 C564 0.960 . S
H551 C564 0.960 . S
C552 H544 0.929 . S
C552 C553 1.377 . S
C552 C554 1.384 . S
C553 C552 1.377 . S
C553 C559 1.390 . S
C554 H545 0.930 . S
C554 C552 1.384 . S
C554 C555 1.372 . S
C555 C554 1.372 . S
C555 C556 1.400 . S
C555 C560 1.502 . S
C556 H546 0.930 1_565 S
C556 C555 1.400 . S
C556 C559 1.386 . S
H557 C573 0.930 . S
H558 C574 0.931 . S
C559 H547 0.929 . S
C559 C553 1.390 . S
C559 C556 1.386 . S
C560 C555 1.502 . S
C560 C562 1.396 . S
C560 C563 1.390 1_565 S
H561 C567 0.930 . S
C562 H548 0.930 . S
C562 C560 1.396 . S
C562 C565 1.403 1_565 S
C563 C560 1.390 1_545 S
C563 C564 1.524 . S
C563 C567 1.400 . S
C564 H549 0.960 . S
C564 H550 0.960 . S
C564 H551 0.960 . S
C564 C563 1.524 . S
C565 C562 1.403 1_545 S
C565 C566 1.392 . S
C565 C569 1.495 . S
C566 C565 1.392 . S
C566 C567 1.385 . S
C566 C568 1.478 . S
C567 H561 0.930 . S
C567 C563 1.400 . S
C567 C566 1.385 . S
C568 C566 1.478 . S
C568 C570 1.381 . S
C568 C574 1.383 . S
C569 C565 1.495 . S
C569 H575 0.974 . S
C569 H576 0.961 . S
C569 H577 0.960 . S
C570 C568 1.381 . S
C570 C571 1.394 . S
C570 H578 0.930 . S
C571 C570 1.394 . S
C571 C572 1.383 . S
C571 H579 0.929 . S
C572 C571 1.383 . S
C572 C573 1.377 . S
C573 H557 0.930 . S
C573 C572 1.377 . S
C573 C574 1.379 . S
C574 H558 0.931 . S
C574 C568 1.383 . S
C574 C573 1.379 . S
H575 C569 0.974 . S
H576 C569 0.961 . S
H577 C569 0.960 . S
H578 C570 0.930 . S
H579 C571 0.929 . S
H580 C588 0.929 . S
H581 C590 0.930 . S
H582 C592 0.930 . S
H583 C595 0.929 . S
H584 C598 0.930 . S
H585 C600 0.960 . S
H586 C600 0.960 . S
H587 C600 0.960 . S
C588 H580 0.929 . S
C588 C589 1.377 . S
C588 C590 1.384 . S
C589 C588 1.377 . S
C589 C595 1.390 . S
C590 H581 0.930 . S
C590 C588 1.384 . S
C590 C591 1.372 . S
C591 C590 1.372 . S
C591 C592 1.400 . S
C591 C596 1.490 . S
C592 H582 0.930 . S
C592 C591 1.400 . S
C592 C595 1.386 . S
H593 C609 0.930 . S
H594 C610 0.931 . S
C595 H583 0.929 . S
C595 C589 1.390 . S
C595 C592 1.386 . S
C596 C591 1.490 . S
C596 C598 1.395 . S
C596 C599 1.403 . S
H597 C603 0.930 . S
C598 H584 0.930 . S
C598 C596 1.395 . S
C598 C601 1.403 . S
C599 C596 1.403 . S
C599 C600 1.524 . S
C599 C603 1.400 . S
C600 H585 0.960 . S
C600 H586 0.960 . S
C600 H587 0.960 . S
C600 C599 1.524 . S
C601 C598 1.403 . S
C601 C602 1.392 . S
C601 C605 1.495 . S
C602 C601 1.392 . S
C602 C603 1.385 . S
C602 C604 1.478 . S
C603 H597 0.930 . S
C603 C599 1.400 . S
C603 C602 1.385 . S
C604 C602 1.478 . S
C604 C606 1.381 . S
C604 C610 1.383 . S
C605 C601 1.495 . S
C605 H611 0.959 . S
C605 H612 0.961 . S
C605 H613 0.960 . S
C606 C604 1.381 . S
C606 C607 1.394 . S
C606 H614 0.930 . S
C607 C606 1.394 . S
C607 C608 1.383 . S
C607 H615 0.929 . S
C608 C607 1.383 . S
C608 C609 1.377 . S
C609 H593 0.930 . S
C609 C608 1.377 . S
C609 C610 1.379 . S
C610 H594 0.931 . S
C610 C604 1.383 . S
C610 C609 1.379 . S
H611 C605 0.959 . S
H612 C605 0.961 . S
H613 C605 0.960 . S
H614 C606 0.930 . S
H615 C607 0.929 . S
H616 C624 0.929 . S
H617 C626 0.930 . S
H618 C628 0.930 . S
H619 C631 0.929 . S
H620 C634 0.930 . S
H621 C636 0.960 . S
H622 C636 0.960 . S
H623 C636 0.960 . S
C624 H616 0.929 . S
C624 C625 1.377 . S
C624 C626 1.384 . S
C625 C624 1.377 . S
C625 C631 1.390 . S
C626 H617 0.930 . S
C626 C624 1.384 . S
C626 C627 1.372 . S
C627 C626 1.372 . S
C627 C628 1.400 . S
C627 C632 1.490 . S
C628 H618 0.930 . S
C628 C627 1.400 . S
C628 C631 1.386 . S
H629 C645 0.930 . S
H630 C646 0.931 . S
C631 H619 0.929 . S
C631 C625 1.390 . S
C631 C628 1.386 . S
C632 C627 1.490 . S
C632 C634 1.395 . S
C632 C635 1.403 . S
H633 C639 0.930 . S
C634 H620 0.930 . S
C634 C632 1.395 . S
C634 C637 1.403 . S
C635 C632 1.403 . S
C635 C636 1.524 . S
C635 C639 1.400 . S
C636 H621 0.960 . S
C636 H622 0.960 . S
C636 H623 0.960 . S
C636 C635 1.524 . S
C637 C634 1.403 . S
C637 C638 1.392 . S
C637 C641 1.495 . S
C638 C637 1.392 . S
C638 C639 1.385 . S
C638 C640 1.478 . S
C639 H633 0.930 . S
C639 C635 1.400 . S
C639 C638 1.385 . S
C640 C638 1.478 . S
C640 C642 1.381 . S
C640 C646 1.383 . S
C641 C637 1.495 . S
C641 H647 0.959 . S
C641 H648 0.961 . S
C641 H649 0.960 . S
C642 C640 1.381 . S
C642 C643 1.394 . S
C642 H650 0.930 . S
C643 C642 1.394 . S
C643 C644 1.383 . S
C643 H651 0.929 . S
C644 C643 1.383 . S
C644 C645 1.377 . S
C645 H629 0.930 . S
C645 C644 1.377 . S
C645 C646 1.379 . S
C646 H630 0.931 . S
C646 C640 1.383 . S
C646 C645 1.379 . S
H647 C641 0.959 . S
H648 C641 0.961 . S
H649 C641 0.960 . S
H650 C642 0.930 . S
H651 C643 0.929 . S
H652 C660 0.929 . S
H653 C662 0.930 . S
H654 C664 0.930 . S
H655 C667 0.929 . S
H656 C670 0.930 . S
H657 C672 0.960 . S
H658 C672 0.960 . S
H659 C672 0.960 . S
C660 H652 0.929 . S
C660 C661 1.377 . S
C660 C662 1.384 . S
C661 C660 1.377 . S
C661 C667 1.390 . S
C662 H653 0.930 . S
C662 C660 1.384 . S
C662 C663 1.372 . S
C663 C662 1.372 . S
C663 C664 1.400 . S
C663 C668 1.490 . S
C664 H654 0.930 . S
C664 C663 1.400 . S
C664 C667 1.386 . S
H665 C681 0.930 . S
H666 C682 0.931 1_455 S
C667 H655 0.929 . S
C667 C661 1.390 . S
C667 C664 1.386 . S
C668 C663 1.490 . S
C668 C670 1.395 . S
C668 C671 1.403 . S
H669 C675 0.930 . S
C670 H656 0.930 . S
C670 C668 1.395 . S
C670 C673 1.403 . S
C671 C668 1.403 . S
C671 C672 1.524 . S
C671 C675 1.400 . S
C672 H657 0.960 . S
C672 H658 0.960 . S
C672 H659 0.960 . S
C672 C671 1.524 . S
C673 C670 1.403 . S
C673 C674 1.392 . S
C673 C677 1.495 . S
C674 C673 1.392 . S
C674 C675 1.385 . S
C674 C676 1.478 1_455 S
C675 H669 0.930 . S
C675 C671 1.400 . S
C675 C674 1.385 . S
C676 C674 1.478 1_655 S
C676 C678 1.381 . S
C676 C682 1.383 . S
C677 C673 1.495 . S
C677 H683 0.959 . S
C677 H684 0.961 . S
C677 H685 0.960 1_455 S
C678 C676 1.381 . S
C678 C679 1.394 . S
C678 H686 0.930 . S
C679 C678 1.394 . S
C679 C680 1.383 . S
C679 H687 0.929 . S
C680 C679 1.383 . S
C680 C681 1.377 . S
C681 H665 0.930 . S
C681 C680 1.377 . S
C681 C682 1.379 . S
C682 H666 0.931 1_655 S
C682 C676 1.383 . S
C682 C681 1.379 . S
H683 C677 0.959 . S
H684 C677 0.961 . S
H685 C677 0.960 1_655 S
H686 C678 0.930 . S
H687 C679 0.929 . S
H688 C696 0.929 . S
H689 C698 0.930 . S
H690 C700 0.930 . S
H691 C703 0.929 . S
H692 C706 0.930 . S
H693 C708 0.960 . S
H694 C708 0.960 . S
H695 C708 0.960 . S
C696 H688 0.929 . S
C696 C697 1.377 . S
C696 C698 1.384 . S
C697 C696 1.377 . S
C697 C703 1.390 . S
C698 H689 0.930 . S
C698 C696 1.384 . S
C698 C699 1.372 . S
C699 C698 1.372 . S
C699 C700 1.400 . S
C699 C704 1.490 . S
C700 H690 0.930 . S
C700 C699 1.400 . S
C700 C703 1.386 . S
H701 C717 0.930 . S
H702 C718 0.931 . S
C703 H691 0.929 . S
C703 C697 1.390 . S
C703 C700 1.386 . S
C704 C699 1.490 . S
C704 C706 1.395 . S
C704 C707 1.403 . S
H705 C711 0.930 . S
C706 H692 0.930 . S
C706 C704 1.395 . S
C706 C709 1.403 . S
C707 C704 1.403 . S
C707 C708 1.524 . S
C707 C711 1.400 . S
C708 H693 0.960 . S
C708 H694 0.960 . S
C708 H695 0.960 . S
C708 C707 1.524 . S
C709 C706 1.403 . S
C709 C710 1.392 . S
C709 C713 1.495 . S
C710 C709 1.392 . S
C710 C711 1.385 . S
C710 C712 1.478 . S
C711 H705 0.930 . S
C711 C707 1.400 . S
C711 C710 1.385 . S
C712 C710 1.478 . S
C712 C714 1.381 . S
C712 C718 1.383 . S
C713 C709 1.495 . S
C713 H719 0.959 . S
C713 H720 0.961 . S
C713 H721 0.960 . S
C714 C712 1.381 . S
C714 C715 1.394 . S
C714 H722 0.930 . S
C715 C714 1.394 . S
C715 C716 1.383 . S
C715 H723 0.929 . S
C716 C715 1.383 . S
C716 C717 1.377 . S
C717 H701 0.930 . S
C717 C716 1.377 . S
C717 C718 1.379 . S
C718 H702 0.931 . S
C718 C712 1.383 . S
C718 C717 1.379 . S
H719 C713 0.959 . S
H720 C713 0.961 . S
H721 C713 0.960 . S
H722 C714 0.930 . S
H723 C715 0.929 . S
H724 C732 0.929 . S
H725 C734 0.930 . S
H726 C736 0.930 . S
H727 C739 0.929 . S
H728 C742 0.930 . S
H729 C744 0.960 1_455 S
H730 C744 0.960 . S
H731 C744 0.960 . S
C732 H724 0.929 . S
C732 C733 1.377 . S
C732 C734 1.384 . S
C733 C732 1.377 . S
C733 C739 1.390 . S
C734 H725 0.930 . S
C734 C732 1.384 . S
C734 C735 1.372 . S
C735 C734 1.372 . S
C735 C736 1.400 . S
C735 C740 1.490 1_655 S
C736 H726 0.930 . S
C736 C735 1.400 . S
C736 C739 1.386 . S
H737 C753 0.930 . S
H738 C754 0.931 . S
C739 H727 0.929 . S
C739 C733 1.390 . S
C739 C736 1.386 . S
C740 C735 1.490 1_455 S
C740 C742 1.395 . S
C740 C743 1.403 . S
H741 C747 0.930 . S
C742 H728 0.930 . S
C742 C740 1.395 . S
C742 C745 1.403 . S
C743 C740 1.403 . S
C743 C744 1.524 1_455 S
C743 C747 1.400 . S
C744 H729 0.960 1_655 S
C744 H730 0.960 . S
C744 H731 0.960 . S
C744 C743 1.524 1_655 S
C745 C742 1.403 . S
C745 C746 1.392 . S
C745 C749 1.495 . S
C746 C745 1.392 . S
C746 C747 1.385 . S
C746 C748 1.478 . S
C747 H741 0.930 . S
C747 C743 1.400 . S
C747 C746 1.385 . S
C748 C746 1.478 . S
C748 C750 1.381 . S
C748 C754 1.383 . S
C749 C745 1.495 . S
C749 H755 0.959 . S
C749 H756 0.961 . S
C749 H757 0.960 . S
C750 C748 1.381 . S
C750 C751 1.394 . S
C750 H758 0.930 . S
C751 C750 1.394 . S
C751 C752 1.383 . S
C751 H759 0.929 . S
C752 C751 1.383 . S
C752 C753 1.377 . S
C753 H737 0.930 . S
C753 C752 1.377 . S
C753 C754 1.379 . S
C754 H738 0.931 . S
C754 C748 1.383 . S
C754 C753 1.379 . S
H755 C749 0.959 . S
H756 C749 0.961 . S
H757 C749 0.960 . S
H758 C750 0.930 . S
H759 C751 0.929 . S
H760 C768 0.929 . S
H761 C770 0.930 . S
H762 C772 0.930 . S
H763 C775 0.929 . S
H764 C778 0.930 . S
H765 C780 0.960 . S
H766 C780 0.960 . S
H767 C780 0.960 . S
C768 H760 0.929 . S
C768 C769 1.377 . S
C768 C770 1.384 . S
C769 C768 1.377 . S
C769 C775 1.390 . S
C770 H761 0.930 . S
C770 C768 1.384 . S
C770 C771 1.372 . S
C771 C770 1.372 . S
C771 C772 1.400 . S
C771 C776 1.490 . S
C772 H762 0.930 . S
C772 C771 1.400 . S
C772 C775 1.386 . S
H773 C789 0.930 . S
H774 C790 0.931 . S
C775 H763 0.929 . S
C775 C769 1.390 . S
C775 C772 1.386 . S
C776 C771 1.490 . S
C776 C778 1.395 . S
C776 C779 1.403 . S
H777 C783 0.930 . S
C778 H764 0.930 . S
C778 C776 1.395 . S
C778 C781 1.403 . S
C779 C776 1.403 . S
C779 C780 1.524 . S
C779 C783 1.400 . S
C780 H765 0.960 . S
C780 H766 0.960 . S
C780 H767 0.960 . S
C780 C779 1.524 . S
C781 C778 1.403 . S
C781 C782 1.392 . S
C781 C785 1.495 . S
C782 C781 1.392 . S
C782 C783 1.385 . S
C782 C784 1.478 . S
C783 H777 0.930 . S
C783 C779 1.400 . S
C783 C782 1.385 . S
C784 C782 1.478 . S
C784 C786 1.381 . S
C784 C790 1.383 . S
C785 C781 1.495 . S
C785 H791 0.959 . S
C785 H792 0.961 . S
C785 H793 0.960 . S
C786 C784 1.381 . S
C786 C787 1.394 . S
C786 H794 0.930 . S
C787 C786 1.394 . S
C787 C788 1.383 . S
C787 H795 0.929 . S
C788 C787 1.383 . S
C788 C789 1.377 . S
C789 H773 0.930 . S
C789 C788 1.377 . S
C789 C790 1.379 . S
C790 H774 0.931 . S
C790 C784 1.383 . S
C790 C789 1.379 . S
H791 C785 0.959 . S
H792 C785 0.961 . S
H793 C785 0.960 . S
H794 C786 0.930 . S
H795 C787 0.929 . S
H796 C804 0.929 . S
H797 C806 0.930 . S
H798 C808 0.930 . S
H799 C811 0.929 . S
H800 C814 0.930 . S
H801 C816 0.960 . S
H802 C816 0.960 . S
H803 C816 0.960 . S
C804 H796 0.929 . S
C804 C805 1.377 . S
C804 C806 1.384 . S
C805 C804 1.377 . S
C805 C811 1.390 . S
C806 H797 0.930 . S
C806 C804 1.384 . S
C806 C807 1.372 . S
C807 C806 1.372 . S
C807 C808 1.400 . S
C807 C812 1.490 . S
C808 H798 0.930 . S
C808 C807 1.400 . S
C808 C811 1.386 . S
H809 C825 0.930 . S
H810 C826 0.931 . S
C811 H799 0.929 . S
C811 C805 1.390 . S
C811 C808 1.386 . S
C812 C807 1.490 . S
C812 C814 1.395 . S
C812 C815 1.403 . S
H813 C819 0.930 . S
C814 H800 0.930 . S
C814 C812 1.395 . S
C814 C817 1.403 . S
C815 C812 1.403 . S
C815 C816 1.524 . S
C815 C819 1.400 . S
C816 H801 0.960 . S
C816 H802 0.960 . S
C816 H803 0.960 . S
C816 C815 1.524 . S
C817 C814 1.403 . S
C817 C818 1.392 . S
C817 C821 1.495 . S
C818 C817 1.392 . S
C818 C819 1.385 . S
C818 C820 1.478 . S
C819 H813 0.930 . S
C819 C815 1.400 . S
C819 C818 1.385 . S
C820 C818 1.478 . S
C820 C822 1.381 . S
C820 C826 1.383 . S
C821 C817 1.495 . S
C821 H827 0.959 . S
C821 H828 0.961 . S
C821 H829 0.960 . S
C822 C820 1.381 . S
C822 C823 1.394 . S
C822 H830 0.930 . S
C823 C822 1.394 . S
C823 C824 1.383 . S
C823 H831 0.929 . S
C824 C823 1.383 . S
C824 C825 1.377 . S
C825 H809 0.930 . S
C825 C824 1.377 . S
C825 C826 1.379 . S
C826 H810 0.931 . S
C826 C820 1.383 . S
C826 C825 1.379 . S
H827 C821 0.959 . S
H828 C821 0.961 . S
H829 C821 0.960 . S
H830 C822 0.930 . S
H831 C823 0.929 . S
H832 C840 0.929 . S
H833 C842 0.930 . S
H834 C844 0.930 . S
H835 C847 0.929 . S
H836 C850 0.930 . S
H837 C852 0.960 . S
H838 C852 0.960 . S
H839 C852 0.960 . S
C840 H832 0.929 . S
C840 C841 1.377 . S
C840 C842 1.384 . S
C841 C840 1.377 . S
C841 C847 1.390 . S
C842 H833 0.930 . S
C842 C840 1.384 . S
C842 C843 1.372 . S
C843 C842 1.372 . S
C843 C844 1.400 . S
C843 C848 1.490 . S
C844 H834 0.930 . S
C844 C843 1.400 . S
C844 C847 1.386 . S
H845 C861 0.930 . S
H846 C862 0.931 . S
C847 H835 0.929 . S
C847 C841 1.390 . S
C847 C844 1.386 . S
C848 C843 1.490 . S
C848 C850 1.395 . S
C848 C851 1.403 . S
H849 C855 0.930 . S
C850 H836 0.930 . S
C850 C848 1.395 . S
C850 C853 1.403 . S
C851 C848 1.403 . S
C851 C852 1.524 . S
C851 C855 1.400 . S
C852 H837 0.960 . S
C852 H838 0.960 . S
C852 H839 0.960 . S
C852 C851 1.524 . S
C853 C850 1.403 . S
C853 C854 1.392 . S
C853 C857 1.495 . S
C854 C853 1.392 . S
C854 C855 1.385 . S
C854 C856 1.478 . S
C855 H849 0.930 . S
C855 C851 1.400 . S
C855 C854 1.385 . S
C856 C854 1.478 . S
C856 C858 1.381 . S
C856 C862 1.383 . S
C857 C853 1.495 . S
C857 H863 0.959 . S
C857 H864 0.961 . S
C857 H865 0.960 . S
C858 C856 1.381 . S
C858 C859 1.394 . S
C858 H866 0.930 . S
C859 C858 1.394 . S
C859 C860 1.383 . S
C859 H867 0.929 . S
C860 C859 1.383 . S
C860 C861 1.377 . S
C861 H845 0.930 . S
C861 C860 1.377 . S
C861 C862 1.379 . S
C862 H846 0.931 . S
C862 C856 1.383 . S
C862 C861 1.379 . S
H863 C857 0.959 . S
H864 C857 0.961 . S
H865 C857 0.960 . S
H866 C858 0.930 . S
H867 C859 0.929 . S
H868 C876 0.929 . S
H869 C878 0.930 . S
H870 C880 0.930 . S
H871 C883 0.929 . S
H872 C886 0.930 . S
H873 C888 0.960 . S
H874 C888 0.960 . S
H875 C888 0.960 . S
C876 H868 0.929 . S
C876 C877 1.377 . S
C876 C878 1.384 . S
C877 C876 1.377 . S
C877 C883 1.390 . S
C878 H869 0.930 . S
C878 C876 1.384 . S
C878 C879 1.372 . S
C879 C878 1.372 . S
C879 C880 1.400 . S
C879 C884 1.490 . S
C880 H870 0.930 . S
C880 C879 1.400 . S
C880 C883 1.386 . S
H881 C897 0.930 . S
H882 C898 0.931 . S
C883 H871 0.929 . S
C883 C877 1.390 . S
C883 C880 1.386 . S
C884 C879 1.490 . S
C884 C886 1.395 . S
C884 C887 1.403 . S
H885 C891 0.930 . S
C886 H872 0.930 . S
C886 C884 1.395 . S
C886 C889 1.403 . S
C887 C884 1.403 . S
C887 C888 1.524 . S
C887 C891 1.400 . S
C888 H873 0.960 . S
C888 H874 0.960 . S
C888 H875 0.960 . S
C888 C887 1.524 . S
C889 C886 1.403 . S
C889 C890 1.392 . S
C889 C893 1.495 . S
C890 C889 1.392 . S
C890 C891 1.385 . S
C890 C892 1.478 . S
C891 H885 0.930 . S
C891 C887 1.400 . S
C891 C890 1.385 . S
C892 C890 1.478 . S
C892 C894 1.381 . S
C892 C898 1.383 . S
C893 C889 1.495 . S
C893 H899 0.959 . S
C893 H900 0.961 . S
C893 H901 0.960 . S
C894 C892 1.381 . S
C894 C895 1.394 . S
C894 H902 0.930 . S
C895 C894 1.394 . S
C895 C896 1.383 . S
C895 H903 0.929 . S
C896 C895 1.383 . S
C896 C897 1.377 . S
C897 H881 0.930 . S
C897 C896 1.377 . S
C897 C898 1.379 . S
C898 H882 0.931 . S
C898 C892 1.383 . S
C898 C897 1.379 . S
H899 C893 0.959 . S
H900 C893 0.961 . S
H901 C893 0.960 . S
H902 C894 0.930 . S
H903 C895 0.929 . S
H904 C912 0.929 . S
H905 C914 0.930 . S
H906 C916 0.930 . S
H907 C919 0.929 . S
H908 C922 0.930 . S
H909 C924 0.960 . S
H910 C924 0.960 . S
H911 C924 0.960 . S
C912 H904 0.929 . S
C912 C913 1.377 . S
C912 C914 1.384 . S
C913 C912 1.377 . S
C913 C919 1.390 . S
C914 H905 0.930 . S
C914 C912 1.384 . S
C914 C915 1.372 . S
C915 C914 1.372 . S
C915 C916 1.400 . S
C915 C920 1.490 . S
C916 H906 0.930 . S
C916 C915 1.400 . S
C916 C919 1.386 . S
H917 C933 0.930 . S
H918 C934 0.931 . S
C919 H907 0.929 . S
C919 C913 1.390 . S
C919 C916 1.386 . S
C920 C915 1.490 . S
C920 C922 1.395 . S
C920 C923 1.403 . S
H921 C927 0.930 . S
C922 H908 0.930 . S
C922 C920 1.395 . S
C922 C925 1.403 . S
C923 C920 1.403 . S
C923 C924 1.524 . S
C923 C927 1.400 . S
C924 H909 0.960 . S
C924 H910 0.960 . S
C924 H911 0.960 . S
C924 C923 1.524 . S
C925 C922 1.403 . S
C925 C926 1.392 . S
C925 C929 1.495 . S
C926 C925 1.392 . S
C926 C927 1.385 . S
C926 C928 1.478 . S
C927 H921 0.930 . S
C927 C923 1.400 . S
C927 C926 1.385 . S
C928 C926 1.478 . S
C928 C930 1.381 . S
C928 C934 1.383 . S
C929 C925 1.495 . S
C929 H935 0.959 . S
C929 H936 0.961 . S
C929 H937 0.960 . S
C930 C928 1.381 . S
C930 C931 1.394 . S
C930 H938 0.930 . S
C931 C930 1.394 . S
C931 C932 1.383 . S
C931 H939 0.929 . S
C932 C931 1.383 . S
C932 C933 1.377 . S
C933 H917 0.930 . S
C933 C932 1.377 . S
C933 C934 1.379 . S
C934 H918 0.931 . S
C934 C928 1.383 . S
C934 C933 1.379 . S
H935 C929 0.959 . S
H936 C929 0.961 . S
H937 C929 0.960 . S
H938 C930 0.930 . S
H939 C931 0.929 . S
H940 C948 0.929 . S
H941 C950 0.930 . S
H942 C952 0.930 . S
H943 C955 0.929 . S
H944 C958 0.930 . S
H945 C960 0.960 . S
H946 C960 0.960 . S
H947 C960 0.960 . S
C948 H940 0.929 . S
C948 C949 1.377 . S
C948 C950 1.384 . S
C949 C948 1.377 . S
C949 C955 1.390 . S
C950 H941 0.930 . S
C950 C948 1.384 . S
C950 C951 1.372 . S
C951 C950 1.372 . S
C951 C952 1.400 . S
C951 C956 1.490 . S
C952 H942 0.930 . S
C952 C951 1.400 . S
C952 C955 1.386 . S
H953 C969 0.930 . S
H954 C970 0.931 . S
C955 H943 0.929 . S
C955 C949 1.390 . S
C955 C952 1.386 . S
C956 C951 1.490 . S
C956 C958 1.395 . S
C956 C959 1.403 . S
H957 C963 0.930 . S
C958 H944 0.930 . S
C958 C956 1.395 . S
C958 C961 1.403 . S
C959 C956 1.403 . S
C959 C960 1.524 . S
C959 C963 1.400 . S
C960 H945 0.960 . S
C960 H946 0.960 . S
C960 H947 0.960 . S
C960 C959 1.524 . S
C961 C958 1.403 . S
C961 C962 1.392 . S
C961 C965 1.495 . S
C962 C961 1.392 . S
C962 C963 1.385 . S
C962 C964 1.478 . S
C963 H957 0.930 . S
C963 C959 1.400 . S
C963 C962 1.385 . S
C964 C962 1.478 . S
C964 C966 1.381 . S
C964 C970 1.383 . S
C965 C961 1.495 . S
C965 H971 0.959 . S
C965 H972 0.961 . S
C965 H973 0.960 . S
C966 C964 1.381 . S
C966 C967 1.394 . S
C966 H974 0.930 . S
C967 C966 1.394 . S
C967 C968 1.383 . S
C967 H975 0.929 . S
C968 C967 1.383 . S
C968 C969 1.377 . S
C969 H953 0.930 . S
C969 C968 1.377 . S
C969 C970 1.379 . S
C970 H954 0.931 . S
C970 C964 1.383 . S
C970 C969 1.379 . S
H971 C965 0.959 . S
H972 C965 0.961 . S
H973 C965 0.960 . S
H974 C966 0.930 . S
H975 C967 0.929 . S
H976 C984 0.929 . S
H977 C986 0.930 . S
H978 C988 0.930 . S
H979 C991 0.929 . S
H980 C994 0.930 . S
H981 C996 0.960 . S
H982 C996 0.960 . S
H983 C996 0.960 . S
C984 H976 0.929 . S
C984 C985 1.377 . S
C984 C986 1.384 . S
C985 C984 1.377 . S
C985 C991 1.390 . S
C986 H977 0.930 . S
C986 C984 1.384 . S
C986 C987 1.372 . S
C987 C986 1.372 . S
C987 C988 1.400 . S
C987 C992 1.490 . S
C988 H978 0.930 . S
C988 C987 1.400 . S
C988 C991 1.386 . S
H989 C1005 0.930 . S
H990 C1006 0.931 . S
C991 H979 0.929 . S
C991 C985 1.390 . S
C991 C988 1.386 . S
C992 C987 1.490 . S
C992 C994 1.395 . S
C992 C995 1.403 . S
H993 C999 0.930 . S
C994 H980 0.930 . S
C994 C992 1.395 . S
C994 C997 1.403 . S
C995 C992 1.403 . S
C995 C996 1.524 . S
C995 C999 1.400 . S
C996 H981 0.960 . S
C996 H982 0.960 . S
C996 H983 0.960 . S
C996 C995 1.524 . S
C997 C994 1.403 . S
C997 C998 1.392 . S
C997 C1001 1.495 . S
C998 C997 1.392 . S
C998 C999 1.385 . S
C998 C1000 1.478 . S
C999 H993 0.930 . S
C999 C995 1.400 . S
C999 C998 1.385 . S
C1000 C998 1.478 . S
C1000 C1002 1.381 . S
C1000 C1006 1.383 . S
C1001 C997 1.495 . S
C1001 H1007 0.959 . S
C1001 H1008 0.961 . S
C1001 H1009 0.960 . S
C1002 C1000 1.381 . S
C1002 C1003 1.394 . S
C1002 H1010 0.930 . S
C1003 C1002 1.394 . S
C1003 C1004 1.383 . S
C1003 H1011 0.929 . S
C1004 C1003 1.383 . S
C1004 C1005 1.377 . S
C1005 H989 0.930 . S
C1005 C1004 1.377 . S
C1005 C1006 1.379 . S
C1006 H990 0.931 . S
C1006 C1000 1.383 . S
C1006 C1005 1.379 . S
H1007 C1001 0.959 . S
H1008 C1001 0.961 . S
H1009 C1001 0.960 . S
H1010 C1002 0.930 . S
H1011 C1003 0.929 . S
H1012 C1020 0.929 . S
H1013 C1022 0.930 . S
H1014 C1024 0.930 . S
H1015 C1027 0.929 . S
H1016 C1030 0.930 . S
H1017 C1032 0.960 . S
H1018 C1032 0.960 . S
H1019 C1032 0.960 . S
C1020 H1012 0.929 . S
C1020 C1021 1.377 . S
C1020 C1022 1.384 . S
C1021 C1020 1.377 . S
C1021 C1027 1.390 . S
C1022 H1013 0.930 . S
C1022 C1020 1.384 . S
C1022 C1023 1.372 . S
C1023 C1022 1.372 . S
C1023 C1024 1.400 . S
C1023 C1028 1.490 . S
C1024 H1014 0.930 . S
C1024 C1023 1.400 . S
C1024 C1027 1.386 . S
H1025 C1041 0.930 . S
H1026 C1042 0.931 . S
C1027 H1015 0.929 . S
C1027 C1021 1.390 . S
C1027 C1024 1.386 . S
C1028 C1023 1.490 . S
C1028 C1030 1.395 . S
C1028 C1031 1.403 . S
H1029 C1035 0.930 . S
C1030 H1016 0.930 . S
C1030 C1028 1.395 . S
C1030 C1033 1.403 . S
C1031 C1028 1.403 . S
C1031 C1032 1.524 . S
C1031 C1035 1.400 . S
C1032 H1017 0.960 . S
C1032 H1018 0.960 . S
C1032 H1019 0.960 . S
C1032 C1031 1.524 . S
C1033 C1030 1.403 . S
C1033 C1034 1.392 . S
C1033 C1037 1.495 . S
C1034 C1033 1.392 . S
C1034 C1035 1.385 . S
C1034 C1036 1.478 . S
C1035 H1029 0.930 . S
C1035 C1031 1.400 . S
C1035 C1034 1.385 . S
C1036 C1034 1.478 . S
C1036 C1038 1.381 . S
C1036 C1042 1.383 . S
C1037 C1033 1.495 . S
C1037 H1043 0.959 . S
C1037 H1044 0.961 . S
C1037 H1045 0.960 . S
C1038 C1036 1.381 . S
C1038 C1039 1.394 . S
C1038 H1046 0.930 . S
C1039 C1038 1.394 . S
C1039 C1040 1.383 . S
C1039 H1047 0.929 . S
C1040 C1039 1.383 . S
C1040 C1041 1.377 . S
C1041 H1025 0.930 . S
C1041 C1040 1.377 . S
C1041 C1042 1.379 . S
C1042 H1026 0.931 . S
C1042 C1036 1.383 . S
C1042 C1041 1.379 . S
H1043 C1037 0.959 . S
H1044 C1037 0.961 . S
H1045 C1037 0.960 . S
H1046 C1038 0.930 . S
H1047 C1039 0.929 . S
C193 C8 1.306 . S
C212 C97 1.244 . S
C229 C31 1.374 . S
C248 C109 1.349 . S
C265 C53 1.321 . S
C284 C121 1.264 . S
C320 C130 1.152 . S
C301 C74 1.202 . S
C356 C145 1.265 . S
C337 C26 1.315 . S
C373 C48 1.196 . S
C392 C154 1.170 . S
C409 C71 1.318 . S
C428 C169 1.303 . S
C445 C5 1.372 . S
C464 C181 1.335 . S
C481 C50 1.194 1_556 S
C500 C178 1.149 . S
C536 C142 1.205 . S
C517 C70 1.206 . S
C572 C157 1.272 . S
C553 C4 1.304 . S
C589 C28 1.210 . S
C608 C166 1.158 . S
C644 C106 1.156 . S
C625 C73 1.192 . S
C661 C7 1.206 . S
C680 C118 1.195 . S
C716 C133 1.297 . S
C697 C30 1.300 . S
C752 C94 1.196 . S
C733 C52 1.209 . S
C788 C164 1.350 . S
C769 C9 1.342 . S
C824 C176 1.341 . S
C805 C29 1.339 . S
C841 C51 1.317 . S
C860 C140 1.316 . S
C896 C152 1.286 . S
C877 C75 1.314 . S
C932 C116 1.355 . S
C913 C27 1.345 . S
C949 C49 1.314 1_556 S
C968 C128 1.289 . S
C1004 C92 1.317 . S
C985 C72 1.318 . S
C1040 C104 1.312 . S
C1021 C6 1.345 . S
