# Generated by pormake.
# Topology rtl, (3,6)-cn, num edge types: 1
# Building blocks:
#     Node 0, Type 0, BuildingBlock: KAKCAD_clean_linker_0, # of connection points: 3
#     Node 1, Type 0, BuildingBlock: KAKCAD_clean_linker_0, # of connection points: 3
#     Node 2, Type 0, BuildingBlock: KAKCAD_clean_linker_0, # of connection points: 3
#     Node 3, Type 0, BuildingBlock: KAKCAD_clean_linker_0, # of connection points: 3
#     Node 4, Type 1, BuildingBlock: VOLQOD_clean_sbu_1, # of connection points: 6
#     Node 5, Type 1, BuildingBlock: VOLQOD_clean_sbu_1, # of connection points: 6
#     Edge 6, Type (0, 1), BuildingBlock: KIFKEQ_clean_linker_1, # of connection points: 2
#     Edge 7, Type (0, 1), BuildingBlock: KIFKEQ_clean_linker_1, # of connection points: 2
#     Edge 8, Type (0, 1), BuildingBlock: KIFKEQ_clean_linker_1, # of connection points: 2
#     Edge 9, Type (0, 1), BuildingBlock: KIFKEQ_clean_linker_1, # of connection points: 2
#     Edge 10, Type (0, 1), BuildingBlock: KIFKEQ_clean_linker_1, # of connection points: 2
#     Edge 11, Type (0, 1), BuildingBlock: KIFKEQ_clean_linker_1, # of connection points: 2
#     Edge 12, Type (0, 1), BuildingBlock: KIFKEQ_clean_linker_1, # of connection points: 2
#     Edge 13, Type (0, 1), BuildingBlock: KIFKEQ_clean_linker_1, # of connection points: 2
#     Edge 14, Type (0, 1), BuildingBlock: KIFKEQ_clean_linker_1, # of connection points: 2
#     Edge 15, Type (0, 1), BuildingBlock: KIFKEQ_clean_linker_1, # of connection points: 2
#     Edge 16, Type (0, 1), BuildingBlock: KIFKEQ_clean_linker_1, # of connection points: 2
#     Edge 17, Type (0, 1), BuildingBlock: KIFKEQ_clean_linker_1, # of connection points: 2
# Relax obj value: 0.078
# Max RMSD: 0.156
# Mean RMSD: 0.088
data_MOF--net-rtl--node1-VOLQOD_clean_sbu_1--node2-KAKCAD_clean_linker_0--edge1-KIFKEQ_clean_linker_1
_symmetry_space_group_name_H-M    P1
_symmetry_Int_Tables_number       1
_symmetry_cell_setting            triclinic
loop_
_symmetry_equiv_pos_as_xyz
'x, y, z'
_cell_length_a     45.652417
_cell_length_b     39.47404
_cell_length_c     29.671224
_cell_angle_alpha  89.869204
_cell_angle_beta   90.313396
_cell_angle_gamma 90.02983
loop_
_atom_site_label
_atom_site_type_symbol
_atom_site_fract_x
_atom_site_fract_y
_atom_site_fract_z
_atom_type_partial_charge
C0 C 0.08985 0.74995 0.84433 0.0
C1 C 0.09195 0.78546 0.84215 0.0
C2 C 0.09679 0.73277 0.88435 0.0
C3 C 0.10531 0.75097 0.92287 0.0
C4 C 0.10755 0.78639 0.92047 0.0
C5 C 0.10104 0.80343 0.88052 0.0
C6 C 0.11169 0.7336 0.966 0.0
C7 C 0.13296 0.70804 0.96848 0.0
C8 C 0.14189 0.69477 0.01052 0.0
C9 C 0.12829 0.70673 0.04996 0.0
C10 C 0.1075 0.73284 0.04779 0.0
C11 C 0.0989 0.74557 0.00566 0.0
C12 C 0.09793 0.75031 0.0893 0.0
C13 C 0.08822 0.73218 0.12722 0.0
C14 C 0.09968 0.78579 0.09147 0.0
C15 C 0.09209 0.80286 0.13067 0.0
C16 C 0.08246 0.7849 0.16868 0.0
C17 C 0.16796 0.67213 0.01352 0.0
C18 C 0.17401 0.64838 0.9795 0.0
C19 C 0.1884 0.67614 0.04877 0.0
C20 C 0.2145 0.65783 0.04925 0.0
C21 C 0.22128 0.63548 0.01402 0.0
C22 C 0.20042 0.63041 0.9796 0.0
C23 C 0.08027 0.74941 0.16655 0.0
H24 H 0.08297 0.73555 0.8151 0.0
H25 H 0.09496 0.70542 0.88552 0.0
H26 H 0.11437 0.80096 0.94961 0.0
H27 H 0.10255 0.83082 0.87994 0.0
H28 H 0.14401 0.70044 0.9379 0.0
H29 H 0.0829 0.76584 0.00383 0.0
H30 H 0.13508 0.69721 0.08265 0.0
H31 H 0.08672 0.70481 0.12635 0.0
H32 H 0.10751 0.80041 0.06301 0.0
H33 H 0.09366 0.83024 0.13121 0.0
H34 H 0.15863 0.64421 0.95215 0.0
H35 H 0.18495 0.69448 0.07528 0.0
H36 H 0.07294 0.73501 0.1955 0.0
H37 H 0.20489 0.61351 0.95179 0.0
H38 H 0.22967 0.66182 0.07691 0.0
C39 C 0.57488 0.76654 0.65849 0.0
C40 C 0.56854 0.73163 0.65874 0.0
C41 C 0.58637 0.782 0.61977 0.0
C42 C 0.59164 0.76273 0.58086 0.0
C43 C 0.58589 0.72776 0.5818 0.0
C44 C 0.57447 0.71247 0.62009 0.0
C45 C 0.60377 0.77797 0.53916 0.0
C46 C 0.62842 0.79921 0.54057 0.0
C47 C 0.64335 0.80747 0.50067 0.0
C48 C 0.63338 0.79434 0.45928 0.0
C49 C 0.60846 0.77351 0.4574 0.0
C50 C 0.5931 0.76696 0.49728 0.0
C51 C 0.60045 0.755 0.41545 0.0
C52 C 0.6029 0.77011 0.37265 0.0
C53 C 0.59113 0.7211 0.41824 0.0
C54 C 0.58412 0.70291 0.3796 0.0
C55 C 0.58689 0.71768 0.33673 0.0
C56 C 0.6713 0.82643 0.50283 0.0
C57 C 0.67334 0.85725 0.52623 0.0
C58 C 0.69642 0.81309 0.48234 0.0
C59 C 0.72316 0.83003 0.48556 0.0
C60 C 0.72527 0.86084 0.50891 0.0
C61 C 0.70008 0.87452 0.52886 0.0
C62 C 0.59622 0.75161 0.33364 0.0
H63 H 0.5706 0.7819 0.68792 0.0
H64 H 0.59077 0.80896 0.62005 0.0
H65 H 0.59063 0.71193 0.55295 0.0
H66 H 0.57074 0.68537 0.61961 0.0
H67 H 0.63727 0.80724 0.57281 0.0
H68 H 0.5735 0.75148 0.49617 0.0
H69 H 0.64581 0.79918 0.42894 0.0
H70 H 0.60993 0.79619 0.36927 0.0
H71 H 0.58964 0.7082 0.45039 0.0
H72 H 0.57643 0.67712 0.38353 0.0
H73 H 0.65423 0.86799 0.54229 0.0
H74 H 0.69551 0.78918 0.46453 0.0
H75 H 0.59879 0.76373 0.30114 0.0
H76 H 0.70123 0.89819 0.54719 0.0
H77 H 0.74223 0.81908 0.46962 0.0
C78 C 0.88838 0.22569 0.15605 0.0
C79 C 0.91805 0.22551 0.16928 0.0
C80 C 0.87939 0.24289 0.11722 0.0
C81 C 0.89991 0.25976 0.09026 0.0
C82 C 0.92941 0.26028 0.10358 0.0
C83 C 0.93835 0.24369 0.143 0.0
C84 C 0.89063 0.27461 0.04673 0.0
C85 C 0.86719 0.29747 0.04485 0.0
C86 C 0.85596 0.30872 0.00319 0.0
C87 C 0.86893 0.29693 0.96323 0.0
C88 C 0.89256 0.27406 0.96462 0.0
C89 C 0.90344 0.26336 0.00668 0.0
C90 C 0.90431 0.25903 0.92251 0.0
C91 C 0.88521 0.24897 0.88767 0.0
C92 C 0.93446 0.25261 0.91799 0.0
C93 C 0.94509 0.23544 0.88033 0.0
C94 C 0.92585 0.22455 0.8462 0.0
C95 C 0.82964 0.33101 0.00139 0.0
C96 C 0.80692 0.32685 0.03283 0.0
C97 C 0.82646 0.35581 0.9675 0.0
C98 C 0.80097 0.37534 0.9646 0.0
C99 C 0.7784 0.37093 0.99598 0.0
C100 C 0.78173 0.34679 0.03037 0.0
C101 C 0.89588 0.23203 0.84989 0.0
H102 H 0.87211 0.21152 0.17464 0.0
H103 H 0.85655 0.24181 0.10721 0.0
H104 H 0.94556 0.27333 0.08331 0.0
H105 H 0.96125 0.24487 0.1525 0.0
H106 H 0.85764 0.30623 0.07608 0.0
H107 H 0.92079 0.24464 0.00837 0.0
H108 H 0.86013 0.30476 0.93089 0.0
H109 H 0.86182 0.25293 0.89033 0.0
H110 H 0.94982 0.26048 0.94388 0.0
H111 H 0.96837 0.23043 0.87808 0.0
H112 H 0.80814 0.30755 0.05874 0.0
H113 H 0.84365 0.36016 0.94316 0.0
H114 H 0.88046 0.22356 0.82442 0.0
H115 H 0.76441 0.34258 0.05458 0.0
H116 H 0.79892 0.39399 0.93792 0.0
C117 C 0.39797 0.28054 0.34212 0.0
C118 C 0.42808 0.28323 0.33385 0.0
C119 C 0.3879 0.26229 0.37923 0.0
C120 C 0.40782 0.24691 0.40916 0.0
C121 C 0.43799 0.24899 0.40029 0.0
C122 C 0.44805 0.26678 0.36255 0.0
C123 C 0.39695 0.23142 0.45134 0.0
C124 C 0.37322 0.20887 0.45023 0.0
C125 C 0.35972 0.1981 0.49026 0.0
C126 C 0.371 0.20951 0.53178 0.0
C127 C 0.39488 0.23203 0.53352 0.0
C128 C 0.40791 0.24251 0.493 0.0
C129 C 0.40424 0.24754 0.57696 0.0
C130 C 0.38326 0.25763 0.60876 0.0
C131 C 0.43394 0.25464 0.58561 0.0
C132 C 0.4423 0.27266 0.62411 0.0
C133 C 0.42116 0.28382 0.65502 0.0
C134 C 0.33229 0.17763 0.48862 0.0
C135 C 0.31116 0.18375 0.45489 0.0
C136 C 0.32621 0.15321 0.52189 0.0
C137 C 0.29932 0.13619 0.52223 0.0
C138 C 0.27798 0.1429 0.489 0.0
C139 C 0.28453 0.16642 0.45485 0.0
C140 C 0.39163 0.27536 0.64738 0.0
H141 H 0.38228 0.29322 0.32036 0.0
H142 H 0.36456 0.26143 0.38563 0.0
H143 H 0.45373 0.23736 0.42298 0.0
H144 H 0.4714 0.26882 0.35675 0.0
H145 H 0.36492 0.20036 0.4179 0.0
H146 H 0.4253 0.26122 0.4936 0.0
H147 H 0.36045 0.20196 0.56282 0.0
H148 H 0.36015 0.25303 0.60308 0.0
H149 H 0.45071 0.24688 0.56211 0.0
H150 H 0.46522 0.27889 0.62871 0.0
H151 H 0.31473 0.2027 0.42906 0.0
H152 H 0.34208 0.14746 0.54805 0.0
H153 H 0.37482 0.28301 0.67087 0.0
H154 H 0.26895 0.17178 0.42814 0.0
H155 H 0.29503 0.11846 0.54929 0.0
O156 O 0.92922 0.00059 0.51081 0.0
Zn157 Zn 0.96518 0.03056 0.50903 0.0
O158 O 0.00111 0.00333 0.50674 0.0
Zn159 Zn 0.02588 0.01387 0.55885 0.0
Zn160 Zn 0.99128 0.95505 0.50722 0.0
Zn161 Zn 0.0224 0.01371 0.45155 0.0
O162 O 0.06549 0.03105 0.53979 0.0
O163 O 0.06222 0.03316 0.46517 0.0
O164 O 0.96481 0.06021 0.56414 0.0
O165 O 0.00741 0.04972 0.59777 0.0
O166 O 0.03245 0.97248 0.59716 0.0
O167 O 0.00843 0.93152 0.56155 0.0
O168 O 0.00682 0.93098 0.4526 0.0
O169 O 0.96183 0.06137 0.45464 0.0
O170 O 0.02844 0.97206 0.41403 0.0
O171 O 0.00059 0.04748 0.41365 0.0
C172 C 0.92582 0.96855 0.50974 0.0
C173 C 0.07655 0.0379 0.50154 0.0
C174 C 0.02437 0.94168 0.59417 0.0
C175 C 0.9831 0.06549 0.59592 0.0
C176 C 0.02118 0.9411 0.41848 0.0
C177 C 0.97734 0.06469 0.41932 0.0
O178 O 0.94768 0.94857 0.50801 0.0
O179 O 0.57297 0.50617 0.98933 0.0
Zn180 Zn 0.53608 0.53415 0.99199 0.0
O181 O 0.50114 0.50538 0.99371 0.0
Zn182 Zn 0.47603 0.51569 0.94185 0.0
Zn183 Zn 0.51274 0.45757 0.99229 0.0
Zn184 Zn 0.47954 0.51442 0.04891 0.0
O185 O 0.43543 0.5293 0.96111 0.0
O186 O 0.43907 0.53186 0.03562 0.0
O187 O 0.53514 0.56556 0.93865 0.0
O188 O 0.49244 0.55451 0.90562 0.0
O189 O 0.47207 0.4751 0.90133 0.0
O190 O 0.49552 0.43406 0.93796 0.0
O191 O 0.49942 0.43249 0.04819 0.0
O192 O 0.53882 0.56371 0.04687 0.0
O193 O 0.47481 0.47201 0.08535 0.0
O194 O 0.50026 0.54877 0.08767 0.0
C195 C 0.57759 0.47438 0.98769 0.0
C196 C 0.42428 0.53552 -0.00055 0.0
C197 C 0.4804 0.44438 0.90443 0.0
C198 C 0.51616 0.57144 0.90802 0.0
C199 C 0.48401 0.44172 0.08166 0.0
C200 C 0.52326 0.56652 0.08211 0.0
O201 O 0.55656 0.45318 0.98824 0.0
H202 H 0.22476 0.1708 0.46741 0.0
H203 H 0.26445 0.0777 0.51478 0.0
H204 H 0.1768 0.14398 0.46921 0.0
H205 H 0.21601 0.05146 0.51828 0.0
H206 H 0.11882 0.03704 0.56728 0.0
H207 H 0.16809 0.06119 0.56371 0.0
H208 H 0.15133 0.09477 0.42746 0.0
H209 H 0.1022 0.07045 0.43065 0.0
C210 C 0.22339 0.14453 0.47779 0.0
C211 C 0.24865 0.12638 0.49059 0.0
C212 C 0.19584 0.12927 0.47903 0.0
C213 C 0.19278 0.09567 0.49376 0.0
C214 C 0.21782 0.07752 0.5071 0.0
C215 C 0.24551 0.09264 0.50525 0.0
C216 C 0.12566 0.04951 0.53652 0.0
C217 C 0.10657 0.05193 0.49928 0.0
C218 C 0.1539 0.06311 0.53444 0.0
C219 C 0.16341 0.07985 0.49536 0.0
C220 C 0.14442 0.08217 0.4581 0.0
C221 C 0.11636 0.06814 0.45991 0.0
H222 H 0.23521 0.57125 0.98485 0.0
H223 H 0.27411 0.66282 0.03821 0.0
H224 H 0.28386 0.54544 0.98095 0.0
H225 H 0.32216 0.6365 0.03585 0.0
H226 H 0.39727 0.5644 0.07164 0.0
H227 H 0.34755 0.58672 0.07539 0.0
H228 H 0.33224 0.55677 0.93743 0.0
H229 H 0.38215 0.53449 0.93334 0.0
C230 C 0.25402 0.5859 0.99568 0.0
C231 C 0.25061 0.61906 0.01222 0.0
C232 C 0.28181 0.57106 0.99356 0.0
C233 C 0.30665 0.58893 0.00845 0.0
C234 C 0.30329 0.62196 0.02491 0.0
C235 C 0.27567 0.63694 0.02647 0.0
C236 C 0.38331 0.56238 0.04213 0.0
C237 C 0.39373 0.54783 0.0021 0.0
C238 C 0.35489 0.57527 0.04427 0.0
C239 C 0.33616 0.57352 0.00666 0.0
C240 C 0.34623 0.55823 0.96698 0.0
C241 C 0.37483 0.5457 0.9646 0.0
H242 H 0.77703 0.83349 0.53597 0.0
H243 H 0.73798 0.92707 0.49037 0.0
H244 H 0.8249 0.86059 0.53856 0.0
H245 H 0.78617 0.95417 0.49112 0.0
H246 H 0.87449 0.99974 0.53339 0.0
H247 H 0.82561 0.97471 0.53624 0.0
H248 H 0.86085 0.87983 0.48828 0.0
H249 H 0.90957 0.90435 0.48726 0.0
C250 C 0.77881 0.85989 0.52628 0.0
C251 C 0.75393 0.87816 0.51268 0.0
C252 C 0.80625 0.87542 0.52748 0.0
C253 C 0.80956 0.90949 0.51442 0.0
C254 C 0.78445 0.928 0.50181 0.0
C255 C 0.75686 0.91252 0.50121 0.0
C256 C 0.87173 0.97353 0.52351 0.0
C257 C 0.89594 0.95398 0.51039 0.0
C258 C 0.84369 0.95921 0.52494 0.0
C259 C 0.83923 0.92513 0.51282 0.0
C260 C 0.86347 0.90588 0.49895 0.0
C261 C 0.89146 0.92003 0.49806 0.0
H262 H 0.75088 0.40699 0.06151 0.0
H263 H 0.7436 0.37785 0.92175 0.0
H264 H 0.70303 0.43487 0.05665 0.0
H265 H 0.69558 0.4054 0.91703 0.0
H266 H 0.59612 0.41269 0.95807 0.0
H267 H 0.64615 0.39084 0.95718 0.0
H268 H 0.67781 0.48505 0.01267 0.0
H269 H 0.62775 0.50729 0.01302 0.0
C270 C 0.7391 0.40684 0.02971 0.0
C271 C 0.75079 0.39031 0.99201 0.0
C272 C 0.71188 0.42289 0.02687 0.0
C273 C 0.69569 0.42214 0.9865 0.0
C274 C 0.70764 0.40617 0.94856 0.0
C275 C 0.7351 0.39064 0.95118 0.0
C276 C 0.61375 0.42883 0.96986 0.0
C277 C 0.60801 0.46168 0.98571 0.0
C278 C 0.64236 0.41639 0.96906 0.0
C279 C 0.66573 0.43632 0.98481 0.0
C280 C 0.6601 0.4692 0.00047 0.0
C281 C 0.63151 0.48191 0.0005 0.0
H282 H 0.11459 0.83382 0.20999 0.0
H283 H 0.03332 0.7785 0.22044 0.0
H284 H 0.10018 0.86961 0.2728 0.0
H285 H 0.0185 0.8148 0.28313 0.0
H286 H 0.013 0.8722 0.41825 0.0
H287 H 0.02883 0.83179 0.36114 0.0
H288 H 0.06445 0.91406 0.28228 0.0
H289 H 0.04931 0.95422 0.33943 0.0
C290 C 0.09364 0.82931 0.22591 0.0
C291 C 0.0749 0.8037 0.2101 0.0
C292 C 0.08533 0.84986 0.26173 0.0
C293 C 0.05798 0.84543 0.28243 0.0
C294 C 0.03977 0.81876 0.268 0.0
C295 C 0.0482 0.798 0.23216 0.0
C296 C 0.02422 0.88164 0.38872 0.0
C297 C 0.03 0.91646 0.38354 0.0
C298 C 0.03318 0.85849 0.35594 0.0
C299 C 0.04811 0.86968 0.31738 0.0
C300 C 0.05354 0.90451 0.31204 0.0
C301 C 0.04466 0.92759 0.34472 0.0
H302 H 0.52492 0.68464 0.66114 0.0
H303 H 0.58505 0.73931 0.74717 0.0
H304 H 0.5107 0.64918 0.72418 0.0
H305 H 0.56965 0.7048 0.81136 0.0
H306 H 0.56775 0.60435 0.89182 0.0
H307 H 0.57739 0.64755 0.83522 0.0
H308 H 0.48644 0.64469 0.79403 0.0
H309 H 0.47707 0.60053 0.84953 0.0
C310 C 0.53476 0.68942 0.69382 0.0
C311 C 0.55647 0.71437 0.69904 0.0
C312 C 0.52635 0.66932 0.73018 0.0
C313 C 0.53921 0.67388 0.77287 0.0
C314 C 0.5597 0.70021 0.77873 0.0
C315 C 0.56826 0.72028 0.74213 0.0
C316 C 0.54978 0.61302 0.87079 0.0
C317 C 0.52172 0.59869 0.87482 0.0
C318 C 0.55524 0.63807 0.83859 0.0
C319 C 0.53271 0.64962 0.80994 0.0
C320 C 0.50443 0.63599 0.81498 0.0
C321 C 0.49904 0.61069 0.84686 0.0
H322 H 0.96993 0.19111 0.18011 0.0
H323 H 0.88855 0.21266 0.24827 0.0
H324 H 0.98497 0.1553 0.24227 0.0
H325 H 0.90237 0.17403 0.30836 0.0
H326 H 0.94454 0.12213 0.42896 0.0
H327 H 0.93174 0.16344 0.37089 0.0
H328 H 0.976 0.10216 0.27152 0.0
H329 H 0.99016 0.06228 0.33005 0.0
C330 C 0.95522 0.18844 0.20838 0.0
C331 C 0.92789 0.20488 0.20875 0.0
C332 C 0.96365 0.16721 0.24382 0.0
C333 C 0.94474 0.16113 0.28026 0.0
C334 C 0.91769 0.17815 0.28118 0.0
C335 C 0.9095 0.19996 0.24615 0.0
C336 C 0.9515 0.11763 0.39464 0.0
C337 C 0.96843 0.08909 0.38403 0.0
C338 C 0.94406 0.14122 0.36123 0.0
C339 C 0.95291 0.1364 0.31628 0.0
C340 C 0.96942 0.10738 0.3058 0.0
C341 C 0.97735 0.08426 0.33932 0.0
H342 H 0.47006 0.2795 0.70924 0.0
H343 H 0.39147 0.33852 0.68777 0.0
H344 H 0.48494 0.31808 0.76928 0.0
H345 H 0.40549 0.37575 0.74919 0.0
H346 H 0.45437 0.45855 0.82343 0.0
H347 H 0.44063 0.41908 0.76425 0.0
H348 H 0.47327 0.33579 0.84483 0.0
H349 H 0.48787 0.37548 0.90366 0.0
C350 C 0.45589 0.30056 0.71745 0.0
C351 C 0.42958 0.30588 0.69357 0.0
C352 C 0.46425 0.32246 0.75222 0.0
C353 C 0.44648 0.35013 0.76397 0.0
C354 C 0.41995 0.35503 0.74061 0.0
C355 C 0.41167 0.33331 0.70578 0.0
C356 C 0.45866 0.43183 0.8286 0.0
C357 C 0.47218 0.4202 0.86838 0.0
C358 C 0.4506 0.40914 0.79472 0.0
C359 C 0.45565 0.37419 0.79987 0.0
C360 C 0.46934 0.36256 0.83954 0.0
C361 C 0.47758 0.38531 0.87338 0.0
H362 H 0.59836 0.65057 0.32237 0.0
H363 H 0.55981 0.73858 0.25828 0.0
H364 H 0.5822 0.61556 0.25957 0.0
H365 H 0.54508 0.70336 0.19413 0.0
H366 H 0.55769 0.62276 0.07309 0.0
H367 H 0.57383 0.66152 0.13273 0.0
H368 H 0.52615 0.60269 0.23069 0.0
H369 H 0.50942 0.56438 0.17127 0.0
C370 C 0.58646 0.66253 0.29496 0.0
C371 C 0.57989 0.69736 0.2959 0.0
C372 C 0.57742 0.64245 0.25893 0.0
C373 C 0.56221 0.65683 0.22252 0.0
C374 C 0.55682 0.69183 0.22203 0.0
C375 C 0.56541 0.71193 0.2586 0.0
C376 C 0.55055 0.61822 0.10734 0.0
C377 C 0.53237 0.5905 0.11762 0.0
C378 C 0.55966 0.64046 0.14125 0.0
C379 C 0.55125 0.63486 0.18603 0.0
C380 C 0.53297 0.60734 0.1963 0.0
C381 C 0.52336 0.58555 0.16233 0.0
H382 H 0.91205 0.23078 0.75672 0.0
H383 H 0.96361 0.17111 0.84994 0.0
H384 H 0.92731 0.19414 0.69501 0.0
H385 H 0.97844 0.1341 0.78863 0.0
H386 H 0.01895 0.08967 0.6628 0.0
H387 H 0.00692 0.13038 0.7214 0.0
H388 H 0.91866 0.13769 0.6688 0.0
H389 H 0.93092 0.09783 0.60945 0.0
C390 C 0.92664 0.2098 0.76397 0.0
C391 C 0.93663 0.20379 0.80813 0.0
C392 C 0.93531 0.18873 0.72869 0.0
C393 C 0.95399 0.16102 0.73685 0.0
C394 C 0.96441 0.15547 0.78095 0.0
C395 C 0.95589 0.17667 0.81614 0.0
C396 C 0.99699 0.10002 0.66366 0.0
C397 C 0.97589 0.09041 0.63144 0.0
C398 C 0.99006 0.12328 0.6974 0.0
C399 C 0.9618 0.13732 0.6999 0.0
C400 C 0.94078 0.12784 0.66749 0.0
C401 C 0.94776 0.10475 0.6336 0.0
H402 H 0.45635 0.26527 0.25668 0.0
H403 H 0.42291 0.35113 0.32956 0.0
H404 H 0.47011 0.30253 0.19409 0.0
H405 H 0.43803 0.38878 0.26891 0.0
H406 H 0.43695 0.44359 0.13705 0.0
H407 H 0.4242 0.40419 0.19659 0.0
H408 H 0.50173 0.34528 0.16777 0.0
H409 H 0.51353 0.38404 0.10614 0.0
C410 C 0.45239 0.29224 0.25936 0.0
C411 C 0.43843 0.30552 0.29738 0.0
C412 C 0.46037 0.31364 0.22376 0.0
C413 C 0.45491 0.34875 0.22603 0.0
C414 C 0.44183 0.36186 0.26517 0.0
C415 C 0.4334 0.34043 0.30017 0.0
C416 C 0.45124 0.42218 0.14337 0.0
C417 C 0.47632 0.417 0.11712 0.0
C418 C 0.44407 0.39965 0.17782 0.0
C419 C 0.46215 0.3717 0.1877 0.0
C420 C 0.48711 0.36628 0.16097 0.0
C421 C 0.49398 0.38857 0.12577 0.0
H422 H 0.04265 0.7782 0.79047 0.0
H423 H 0.12295 0.83548 0.80101 0.0
H424 H 0.0265 0.81461 0.72837 0.0
H425 H 0.10726 0.87139 0.7385 0.0
H426 H 0.05418 0.9551 0.67213 0.0
H427 H 0.07118 0.91504 0.7287 0.0
H428 H 0.03484 0.83241 0.65113 0.0
H429 H 0.01706 0.87271 0.59482 0.0
C430 C 0.05709 0.79813 0.7788 0.0
C431 C 0.08389 0.80429 0.80073 0.0
C432 C 0.04787 0.81898 0.74328 0.0
C433 C 0.06541 0.84623 0.72892 0.0
C434 C 0.09289 0.85118 0.74948 0.0
C435 C 0.10197 0.83054 0.78509 0.0
C436 C 0.04976 0.92841 0.66704 0.0
C437 C 0.03427 0.91715 0.62887 0.0
C438 C 0.05973 0.90538 0.69936 0.0
C439 C 0.05463 0.87046 0.69424 0.0
C440 C 0.03894 0.85916 0.65625 0.0
C441 C 0.02884 0.88226 0.62391 0.0
loop_
_geom_bond_atom_site_label_1
_geom_bond_atom_site_label_2
_geom_bond_distance
_geom_bond_site_symmetry_2
_ccdc_geom_bond_type
C0 C1 1.386 . S
C0 C2 1.397 . S
C0 H24 0.931 . S
C1 C0 1.386 . S
C1 C5 1.397 . S
C2 C0 1.397 . S
C2 C3 1.384 . S
C2 H25 0.930 . S
C3 C2 1.384 . S
C3 C4 1.377 . S
C3 C6 1.481 . S
C4 C3 1.377 . S
C4 C5 1.389 . S
C4 H26 0.929 . S
C5 C1 1.397 . S
C5 C4 1.389 . S
C5 H27 0.931 . S
C6 C3 1.481 . S
C6 C7 1.387 . S
C6 C11 1.390 1_556 S
C7 C6 1.387 . S
C7 C8 1.401 1_556 S
C7 H28 0.930 . S
C8 C7 1.401 1_554 S
C8 C9 1.376 . S
C8 C17 1.511 . S
C9 C8 1.376 . S
C9 C10 1.392 . S
C9 H30 0.931 . S
C10 C9 1.392 . S
C10 C11 1.361 . S
C10 C12 1.500 . S
C11 C6 1.390 1_554 S
C11 C10 1.361 . S
C11 H29 0.931 . S
C12 C10 1.500 . S
C12 C13 1.371 . S
C12 C14 1.365 . S
C13 C12 1.371 . S
C13 C23 1.386 . S
C13 H31 0.931 . S
C14 C12 1.365 . S
C14 C15 1.409 . S
C14 H32 0.929 . S
C15 C14 1.409 . S
C15 C16 1.380 . S
C15 H33 0.930 . S
C16 C15 1.380 . S
C16 C23 1.357 . S
C17 C8 1.511 . S
C17 C18 1.341 1_554 S
C17 C19 1.371 . S
C18 C17 1.341 1_556 S
C18 C22 1.394 . S
C18 H34 0.930 . S
C19 C17 1.371 . S
C19 C20 1.392 . S
C19 H35 0.931 . S
C20 C19 1.392 . S
C20 C21 1.331 . S
C20 H38 0.932 . S
C21 C20 1.331 . S
C21 C22 1.336 1_554 S
C22 C18 1.394 . S
C22 C21 1.336 1_556 S
C22 H37 0.929 . S
C23 C13 1.386 . S
C23 C16 1.357 . S
C23 H36 0.928 . S
H24 C0 0.931 . S
H25 C2 0.930 . S
H26 C4 0.929 . S
H27 C5 0.931 . S
H28 C7 0.930 . S
H29 C11 0.931 . S
H30 C9 0.931 . S
H31 C13 0.931 . S
H32 C14 0.929 . S
H33 C15 0.930 . S
H34 C18 0.930 . S
H35 C19 0.931 . S
H36 C23 0.928 . S
H37 C22 0.929 . S
H38 C20 0.932 . S
C39 C40 1.386 . S
C39 C41 1.397 . S
C39 H63 0.931 . S
C40 C39 1.386 . S
C40 C44 1.397 . S
C41 C39 1.397 . S
C41 C42 1.384 . S
C41 H64 0.930 . S
C42 C41 1.384 . S
C42 C43 1.377 . S
C42 C45 1.481 . S
C43 C42 1.377 . S
C43 C44 1.389 . S
C43 H65 0.929 . S
C44 C40 1.397 . S
C44 C43 1.389 . S
C44 H66 0.931 . S
C45 C42 1.481 . S
C45 C46 1.387 . S
C45 C50 1.390 . S
C46 C45 1.387 . S
C46 C47 1.401 . S
C46 H67 0.930 . S
C47 C46 1.401 . S
C47 C48 1.376 . S
C47 C56 1.511 . S
C48 C47 1.376 . S
C48 C49 1.392 . S
C48 H69 0.931 . S
C49 C48 1.392 . S
C49 C50 1.361 . S
C49 C51 1.500 . S
C50 C45 1.390 . S
C50 C49 1.361 . S
C50 H68 0.931 . S
C51 C49 1.500 . S
C51 C52 1.371 . S
C51 C53 1.365 . S
C52 C51 1.371 . S
C52 C62 1.386 . S
C52 H70 0.931 . S
C53 C51 1.365 . S
C53 C54 1.409 . S
C53 H71 0.929 . S
C54 C53 1.409 . S
C54 C55 1.380 . S
C54 H72 0.930 . S
C55 C54 1.380 . S
C55 C62 1.357 . S
C56 C47 1.511 . S
C56 C57 1.341 . S
C56 C58 1.371 . S
C57 C56 1.341 . S
C57 C61 1.394 . S
C57 H73 0.930 . S
C58 C56 1.371 . S
C58 C59 1.392 . S
C58 H74 0.931 . S
C59 C58 1.392 . S
C59 C60 1.331 . S
C59 H77 0.932 . S
C60 C59 1.331 . S
C60 C61 1.336 . S
C61 C57 1.394 . S
C61 C60 1.336 . S
C61 H76 0.929 . S
C62 C52 1.386 . S
C62 C55 1.357 . S
C62 H75 0.928 . S
H63 C39 0.931 . S
H64 C41 0.930 . S
H65 C43 0.929 . S
H66 C44 0.931 . S
H67 C46 0.930 . S
H68 C50 0.931 . S
H69 C48 0.931 . S
H70 C52 0.931 . S
H71 C53 0.929 . S
H72 C54 0.930 . S
H73 C57 0.930 . S
H74 C58 0.931 . S
H75 C62 0.928 . S
H76 C61 0.929 . S
H77 C59 0.932 . S
C78 C79 1.386 . S
C78 C80 1.397 . S
C78 H102 0.931 . S
C79 C78 1.386 . S
C79 C83 1.397 . S
C80 C78 1.397 . S
C80 C81 1.384 . S
C80 H103 0.930 . S
C81 C80 1.384 . S
C81 C82 1.377 . S
C81 C84 1.481 . S
C82 C81 1.377 . S
C82 C83 1.389 . S
C82 H104 0.929 . S
C83 C79 1.397 . S
C83 C82 1.389 . S
C83 H105 0.931 . S
C84 C81 1.481 . S
C84 C85 1.387 . S
C84 C89 1.390 . S
C85 C84 1.387 . S
C85 C86 1.401 . S
C85 H106 0.930 . S
C86 C85 1.401 . S
C86 C87 1.376 1_554 S
C86 C95 1.511 . S
C87 C86 1.376 1_556 S
C87 C88 1.392 . S
C87 H108 0.931 . S
C88 C87 1.392 . S
C88 C89 1.361 1_556 S
C88 C90 1.500 . S
C89 C84 1.390 . S
C89 C88 1.361 1_554 S
C89 H107 0.931 . S
C90 C88 1.500 . S
C90 C91 1.371 . S
C90 C92 1.365 . S
C91 C90 1.371 . S
C91 C101 1.386 . S
C91 H109 0.931 . S
C92 C90 1.365 . S
C92 C93 1.409 . S
C92 H110 0.929 . S
C93 C92 1.409 . S
C93 C94 1.380 . S
C93 H111 0.930 . S
C94 C93 1.380 . S
C94 C101 1.357 . S
C95 C86 1.511 . S
C95 C96 1.341 . S
C95 C97 1.371 1_554 S
C96 C95 1.341 . S
C96 C100 1.394 . S
C96 H112 0.930 . S
C97 C95 1.371 1_556 S
C97 C98 1.392 . S
C97 H113 0.931 . S
C98 C97 1.392 . S
C98 C99 1.331 1_556 S
C98 H116 0.932 . S
C99 C98 1.331 1_554 S
C99 C100 1.336 . S
C100 C96 1.394 . S
C100 C99 1.336 . S
C100 H115 0.929 . S
C101 C91 1.386 . S
C101 C94 1.357 . S
C101 H114 0.928 . S
H102 C78 0.931 . S
H103 C80 0.930 . S
H104 C82 0.929 . S
H105 C83 0.931 . S
H106 C85 0.930 . S
H107 C89 0.931 . S
H108 C87 0.931 . S
H109 C91 0.931 . S
H110 C92 0.929 . S
H111 C93 0.930 . S
H112 C96 0.930 . S
H113 C97 0.931 . S
H114 C101 0.928 . S
H115 C100 0.929 . S
H116 C98 0.932 . S
C117 C118 1.386 . S
C117 C119 1.397 . S
C117 H141 0.931 . S
C118 C117 1.386 . S
C118 C122 1.397 . S
C119 C117 1.397 . S
C119 C120 1.384 . S
C119 H142 0.930 . S
C120 C119 1.384 . S
C120 C121 1.377 . S
C120 C123 1.481 . S
C121 C120 1.377 . S
C121 C122 1.389 . S
C121 H143 0.929 . S
C122 C118 1.397 . S
C122 C121 1.389 . S
C122 H144 0.931 . S
C123 C120 1.481 . S
C123 C124 1.387 . S
C123 C128 1.390 . S
C124 C123 1.387 . S
C124 C125 1.401 . S
C124 H145 0.930 . S
C125 C124 1.401 . S
C125 C126 1.376 . S
C125 C134 1.511 . S
C126 C125 1.376 . S
C126 C127 1.392 . S
C126 H147 0.931 . S
C127 C126 1.392 . S
C127 C128 1.361 . S
C127 C129 1.500 . S
C128 C123 1.390 . S
C128 C127 1.361 . S
C128 H146 0.931 . S
C129 C127 1.500 . S
C129 C130 1.371 . S
C129 C131 1.365 . S
C130 C129 1.371 . S
C130 C140 1.386 . S
C130 H148 0.931 . S
C131 C129 1.365 . S
C131 C132 1.409 . S
C131 H149 0.929 . S
C132 C131 1.409 . S
C132 C133 1.380 . S
C132 H150 0.930 . S
C133 C132 1.380 . S
C133 C140 1.357 . S
C134 C125 1.511 . S
C134 C135 1.341 . S
C134 C136 1.371 . S
C135 C134 1.341 . S
C135 C139 1.394 . S
C135 H151 0.930 . S
C136 C134 1.371 . S
C136 C137 1.392 . S
C136 H152 0.931 . S
C137 C136 1.392 . S
C137 C138 1.331 . S
C137 H155 0.932 . S
C138 C137 1.331 . S
C138 C139 1.336 . S
C139 C135 1.394 . S
C139 C138 1.336 . S
C139 H154 0.929 . S
C140 C130 1.386 . S
C140 C133 1.357 . S
C140 H153 0.928 . S
H141 C117 0.931 . S
H142 C119 0.930 . S
H143 C121 0.929 . S
H144 C122 0.931 . S
H145 C124 0.930 . S
H146 C128 0.931 . S
H147 C126 0.931 . S
H148 C130 0.931 . S
H149 C131 0.929 . S
H150 C132 0.930 . S
H151 C135 0.930 . S
H152 C136 0.931 . S
H153 C140 0.928 . S
H154 C139 0.929 . S
H155 C137 0.932 . S
O156 Zn157 1.953 1_565 S
O156 C172 1.225 . S
Zn157 O156 1.953 1_545 S
Zn157 O158 1.949 1_655 S
Zn157 O164 1.919 . S
Zn157 O169 1.924 . S
O158 Zn157 1.949 1_455 S
O158 Zn159 1.923 . S
O158 Zn160 1.950 1_445 S
O158 Zn161 1.945 . S
Zn159 O158 1.923 . S
Zn159 O162 1.933 . S
Zn159 O165 1.941 . S
Zn159 O166 1.965 1_545 S
Zn160 O158 1.950 1_665 S
Zn160 O167 1.938 1_655 S
Zn160 O168 1.906 1_655 S
Zn160 O178 1.953 . S
Zn161 O158 1.945 . S
Zn161 O163 1.932 . S
Zn161 O170 1.977 1_545 S
Zn161 O171 1.910 1_455 S
O162 Zn159 1.933 . S
O162 C173 1.226 . S
O163 Zn161 1.932 . S
O163 C173 1.307 . S
O164 Zn157 1.919 . S
O164 C175 1.253 . S
O165 Zn159 1.941 . S
O165 C175 1.283 1_455 S
O166 Zn159 1.965 1_565 S
O166 C174 1.303 . S
O167 Zn160 1.938 1_455 S
O167 C174 1.247 . S
O168 Zn160 1.906 1_455 S
O168 C176 1.304 . S
O169 Zn157 1.924 . S
O169 C177 1.311 . S
O170 Zn161 1.977 1_565 S
O170 C176 1.272 . S
O171 Zn161 1.910 1_655 S
O171 C177 1.231 . S
C172 O156 1.225 . S
C172 O178 1.298 . S
C173 O162 1.226 . S
C173 O163 1.307 . S
C174 O166 1.303 . S
C174 O167 1.247 . S
C175 O164 1.253 . S
C175 O165 1.283 1_655 S
C176 O168 1.304 . S
C176 O170 1.272 . S
C177 O169 1.311 . S
C177 O171 1.231 . S
O178 Zn160 1.953 . S
O178 C172 1.298 . S
O179 Zn180 1.953 . S
O179 C195 1.225 1_556 S
Zn180 O179 1.953 . S
Zn180 O181 1.949 1_556 S
Zn180 O187 1.919 . S
Zn180 O192 1.924 1_556 S
O181 Zn180 1.949 1_554 S
O181 Zn182 1.923 1_554 S
O181 Zn183 1.950 . S
O181 Zn184 1.945 . S
Zn182 O181 1.923 1_556 S
Zn182 O185 1.933 . S
Zn182 O188 1.941 . S
Zn182 O189 1.965 . S
Zn183 O181 1.950 . S
Zn183 O190 1.938 1_554 S
Zn183 O191 1.906 . S
Zn183 O201 1.953 . S
Zn184 O181 1.945 . S
Zn184 O186 1.932 . S
Zn184 O193 1.977 . S
Zn184 O194 1.910 . S
O185 Zn182 1.933 . S
O185 C196 1.226 1_556 S
O186 Zn184 1.932 . S
O186 C196 1.307 . S
O187 Zn180 1.919 . S
O187 C198 1.253 . S
O188 Zn182 1.941 . S
O188 C198 1.283 . S
O189 Zn182 1.965 . S
O189 C197 1.303 . S
O190 Zn183 1.938 1_556 S
O190 C197 1.247 . S
O191 Zn183 1.906 . S
O191 C199 1.304 . S
O192 Zn180 1.924 1_554 S
O192 C200 1.311 . S
O193 Zn184 1.977 . S
O193 C199 1.272 . S
O194 Zn184 1.910 . S
O194 C200 1.231 . S
C195 O179 1.225 1_554 S
C195 O201 1.298 . S
C196 O185 1.226 1_554 S
C196 O186 1.307 . S
C197 O189 1.303 . S
C197 O190 1.247 . S
C198 O187 1.253 . S
C198 O188 1.283 . S
C199 O191 1.304 . S
C199 O193 1.272 . S
C200 O192 1.311 . S
C200 O194 1.231 . S
O201 Zn183 1.953 . S
O201 C195 1.298 . S
H202 C210 0.950 . S
H203 C215 0.950 . S
H204 C212 0.950 . S
H205 C214 0.950 . S
H206 C216 0.950 . S
H207 C218 0.950 . S
H208 C220 0.950 . S
H209 C221 0.950 . S
C210 H202 0.950 . S
C210 C211 1.386 . S
C210 C212 1.391 . S
C211 C210 1.386 . S
C211 C215 1.393 . S
C212 H204 0.950 . S
C212 C210 1.391 . S
C212 C213 1.400 . S
C213 C212 1.400 . S
C213 C214 1.398 . S
C213 C219 1.491 . S
C214 H205 0.950 . S
C214 C213 1.398 . S
C214 C215 1.391 . S
C215 H203 0.950 . S
C215 C211 1.393 . S
C215 C214 1.391 . S
C216 H206 0.950 . S
C216 C217 1.386 . S
C216 C218 1.391 . S
C217 C216 1.386 . S
C217 C221 1.393 . S
C218 H207 0.950 . S
C218 C216 1.391 . S
C218 C219 1.400 . S
C219 C213 1.491 . S
C219 C218 1.400 . S
C219 C220 1.398 . S
C220 H208 0.950 . S
C220 C219 1.398 . S
C220 C221 1.391 . S
C221 H209 0.950 . S
C221 C217 1.393 . S
C221 C220 1.391 . S
H222 C230 0.950 . S
H223 C235 0.950 . S
H224 C232 0.950 . S
H225 C234 0.950 . S
H226 C236 0.950 . S
H227 C238 0.950 . S
H228 C240 0.950 1_556 S
H229 C241 0.947 1_556 S
C230 H222 0.950 . S
C230 C231 1.386 1_556 S
C230 C232 1.391 . S
C231 C230 1.386 1_554 S
C231 C235 1.393 . S
C232 H224 0.950 . S
C232 C230 1.391 . S
C232 C233 1.400 1_556 S
C233 C232 1.400 1_554 S
C233 C234 1.398 . S
C233 C239 1.491 . S
C234 H225 0.950 . S
C234 C233 1.398 . S
C234 C235 1.391 . S
C235 H223 0.950 . S
C235 C231 1.393 . S
C235 C234 1.391 . S
C236 H226 0.950 . S
C236 C237 1.386 . S
C236 C238 1.391 . S
C237 C236 1.386 . S
C237 C241 1.395 . S
C238 H227 0.950 . S
C238 C236 1.391 . S
C238 C239 1.400 . S
C239 C233 1.491 . S
C239 C238 1.400 . S
C239 C240 1.398 . S
C240 H228 0.950 1_554 S
C240 C239 1.398 . S
C240 C241 1.391 . S
C241 H229 0.947 1_554 S
C241 C237 1.395 . S
C241 C240 1.391 . S
H242 C250 0.950 . S
H243 C255 0.950 . S
H244 C252 0.950 . S
H245 C254 0.950 . S
H246 C256 0.950 . S
H247 C258 0.950 . S
H248 C260 0.950 . S
H249 C261 0.950 . S
C250 H242 0.950 . S
C250 C251 1.386 . S
C250 C252 1.391 . S
C251 C250 1.386 . S
C251 C255 1.393 . S
C252 H244 0.950 . S
C252 C250 1.391 . S
C252 C253 1.400 . S
C253 C252 1.400 . S
C253 C254 1.398 . S
C253 C259 1.491 . S
C254 H245 0.950 . S
C254 C253 1.398 . S
C254 C255 1.391 . S
C255 H243 0.950 . S
C255 C251 1.393 . S
C255 C254 1.391 . S
C256 H246 0.950 . S
C256 C257 1.386 . S
C256 C258 1.391 . S
C257 C256 1.386 . S
C257 C261 1.393 . S
C258 H247 0.950 . S
C258 C256 1.391 . S
C258 C259 1.400 . S
C259 C253 1.491 . S
C259 C258 1.400 . S
C259 C260 1.398 . S
C260 H248 0.950 . S
C260 C259 1.398 . S
C260 C261 1.391 . S
C261 H249 0.950 . S
C261 C257 1.393 . S
C261 C260 1.391 . S
H262 C270 0.950 . S
H263 C275 0.950 . S
H264 C272 0.950 . S
H265 C274 0.950 . S
H266 C276 0.950 . S
H267 C278 0.950 . S
H268 C280 0.950 . S
H269 C281 0.950 . S
C270 H262 0.950 . S
C270 C271 1.386 . S
C270 C272 1.391 . S
C271 C270 1.386 . S
C271 C275 1.393 1_554 S
C272 H264 0.950 . S
C272 C270 1.391 . S
C272 C273 1.400 . S
C273 C272 1.400 . S
C273 C274 1.398 1_554 S
C273 C279 1.491 . S
C274 H265 0.950 . S
C274 C273 1.398 1_556 S
C274 C275 1.391 . S
C275 H263 0.950 . S
C275 C271 1.393 1_556 S
C275 C274 1.391 . S
C276 H266 0.950 . S
C276 C277 1.386 1_556 S
C276 C278 1.391 . S
C277 C276 1.386 1_554 S
C277 C281 1.393 . S
C278 H267 0.950 . S
C278 C276 1.391 . S
C278 C279 1.400 1_556 S
C279 C273 1.491 . S
C279 C278 1.400 1_554 S
C279 C280 1.398 . S
C280 H268 0.950 . S
C280 C279 1.398 . S
C280 C281 1.391 . S
C281 H269 0.950 . S
C281 C277 1.393 . S
C281 C280 1.391 . S
H282 C290 0.950 . S
H283 C295 0.950 . S
H284 C292 0.950 . S
H285 C294 0.950 . S
H286 C296 0.950 . S
H287 C298 0.950 . S
H288 C300 0.950 . S
H289 C301 0.950 . S
C290 H282 0.950 . S
C290 C291 1.386 . S
C290 C292 1.391 . S
C291 C290 1.386 . S
C291 C295 1.393 . S
C292 H284 0.950 . S
C292 C290 1.391 . S
C292 C293 1.400 . S
C293 C292 1.400 . S
C293 C294 1.398 . S
C293 C299 1.491 . S
C294 H285 0.950 . S
C294 C293 1.398 . S
C294 C295 1.391 . S
C295 H283 0.950 . S
C295 C291 1.393 . S
C295 C294 1.391 . S
C296 H286 0.950 . S
C296 C297 1.386 . S
C296 C298 1.391 . S
C297 C296 1.386 . S
C297 C301 1.393 . S
C298 H287 0.950 . S
C298 C296 1.391 . S
C298 C299 1.400 . S
C299 C293 1.491 . S
C299 C298 1.400 . S
C299 C300 1.398 . S
C300 H288 0.950 . S
C300 C299 1.398 . S
C300 C301 1.391 . S
C301 H289 0.950 . S
C301 C297 1.393 . S
C301 C300 1.391 . S
H302 C310 0.950 . S
H303 C315 0.950 . S
H304 C312 0.950 . S
H305 C314 0.950 . S
H306 C316 0.950 . S
H307 C318 0.950 . S
H308 C320 0.950 . S
H309 C321 0.950 . S
C310 H302 0.950 . S
C310 C311 1.386 . S
C310 C312 1.391 . S
C311 C310 1.386 . S
C311 C315 1.393 . S
C312 H304 0.950 . S
C312 C310 1.391 . S
C312 C313 1.400 . S
C313 C312 1.400 . S
C313 C314 1.398 . S
C313 C319 1.491 . S
C314 H305 0.950 . S
C314 C313 1.398 . S
C314 C315 1.391 . S
C315 H303 0.950 . S
C315 C311 1.393 . S
C315 C314 1.391 . S
C316 H306 0.950 . S
C316 C317 1.386 . S
C316 C318 1.391 . S
C317 C316 1.386 . S
C317 C321 1.393 . S
C318 H307 0.950 . S
C318 C316 1.391 . S
C318 C319 1.400 . S
C319 C313 1.491 . S
C319 C318 1.400 . S
C319 C320 1.398 . S
C320 H308 0.950 . S
C320 C319 1.398 . S
C320 C321 1.391 . S
C321 H309 0.950 . S
C321 C317 1.393 . S
C321 C320 1.391 . S
H322 C330 0.950 . S
H323 C335 0.950 . S
H324 C332 0.950 . S
H325 C334 0.950 . S
H326 C336 0.950 . S
H327 C338 0.950 . S
H328 C340 0.950 . S
H329 C341 0.950 . S
C330 H322 0.950 . S
C330 C331 1.386 . S
C330 C332 1.391 . S
C331 C330 1.386 . S
C331 C335 1.393 . S
C332 H324 0.950 . S
C332 C330 1.391 . S
C332 C333 1.400 . S
C333 C332 1.400 . S
C333 C334 1.398 . S
C333 C339 1.491 . S
C334 H325 0.950 . S
C334 C333 1.398 . S
C334 C335 1.391 . S
C335 H323 0.950 . S
C335 C331 1.393 . S
C335 C334 1.391 . S
C336 H326 0.950 . S
C336 C337 1.386 . S
C336 C338 1.391 . S
C337 C336 1.386 . S
C337 C341 1.393 . S
C338 H327 0.950 . S
C338 C336 1.391 . S
C338 C339 1.400 . S
C339 C333 1.491 . S
C339 C338 1.400 . S
C339 C340 1.398 . S
C340 H328 0.950 . S
C340 C339 1.398 . S
C340 C341 1.391 . S
C341 H329 0.950 . S
C341 C337 1.393 . S
C341 C340 1.391 . S
H342 C350 0.950 . S
H343 C355 0.950 . S
H344 C352 0.950 . S
H345 C354 0.950 . S
H346 C356 0.950 . S
H347 C358 0.950 . S
H348 C360 0.950 . S
H349 C361 0.950 . S
C350 H342 0.950 . S
C350 C351 1.386 . S
C350 C352 1.391 . S
C351 C350 1.386 . S
C351 C355 1.393 . S
C352 H344 0.950 . S
C352 C350 1.391 . S
C352 C353 1.400 . S
C353 C352 1.400 . S
C353 C354 1.398 . S
C353 C359 1.491 . S
C354 H345 0.950 . S
C354 C353 1.398 . S
C354 C355 1.391 . S
C355 H343 0.950 . S
C355 C351 1.393 . S
C355 C354 1.391 . S
C356 H346 0.950 . S
C356 C357 1.386 . S
C356 C358 1.391 . S
C357 C356 1.386 . S
C357 C361 1.393 . S
C358 H347 0.950 . S
C358 C356 1.391 . S
C358 C359 1.400 . S
C359 C353 1.491 . S
C359 C358 1.400 . S
C359 C360 1.398 . S
C360 H348 0.950 . S
C360 C359 1.398 . S
C360 C361 1.391 . S
C361 H349 0.950 . S
C361 C357 1.393 . S
C361 C360 1.391 . S
H362 C370 0.950 . S
H363 C375 0.950 . S
H364 C372 0.950 . S
H365 C374 0.950 . S
H366 C376 0.950 . S
H367 C378 0.950 . S
H368 C380 0.950 . S
H369 C381 0.950 . S
C370 H362 0.950 . S
C370 C371 1.386 . S
C370 C372 1.391 . S
C371 C370 1.386 . S
C371 C375 1.393 . S
C372 H364 0.950 . S
C372 C370 1.391 . S
C372 C373 1.400 . S
C373 C372 1.400 . S
C373 C374 1.398 . S
C373 C379 1.491 . S
C374 H365 0.950 . S
C374 C373 1.398 . S
C374 C375 1.391 . S
C375 H363 0.950 . S
C375 C371 1.393 . S
C375 C374 1.391 . S
C376 H366 0.950 . S
C376 C377 1.386 . S
C376 C378 1.391 . S
C377 C376 1.386 . S
C377 C381 1.393 . S
C378 H367 0.950 . S
C378 C376 1.391 . S
C378 C379 1.400 . S
C379 C373 1.491 . S
C379 C378 1.400 . S
C379 C380 1.398 . S
C380 H368 0.950 . S
C380 C379 1.398 . S
C380 C381 1.391 . S
C381 H369 0.950 . S
C381 C377 1.393 . S
C381 C380 1.391 . S
H382 C390 0.950 . S
H383 C395 0.950 . S
H384 C392 0.950 . S
H385 C394 0.950 . S
H386 C396 0.950 . S
H387 C398 0.950 1_455 S
H388 C400 0.950 . S
H389 C401 0.950 . S
C390 H382 0.950 . S
C390 C391 1.386 . S
C390 C392 1.391 . S
C391 C390 1.386 . S
C391 C395 1.393 . S
C392 H384 0.950 . S
C392 C390 1.391 . S
C392 C393 1.400 . S
C393 C392 1.400 . S
C393 C394 1.398 . S
C393 C399 1.491 . S
C394 H385 0.950 . S
C394 C393 1.398 . S
C394 C395 1.391 . S
C395 H383 0.950 . S
C395 C391 1.393 . S
C395 C394 1.391 . S
C396 H386 0.950 . S
C396 C397 1.386 1_455 S
C396 C398 1.391 1_455 S
C397 C396 1.386 1_655 S
C397 C401 1.393 . S
C398 H387 0.950 1_655 S
C398 C396 1.391 1_655 S
C398 C399 1.400 . S
C399 C393 1.491 . S
C399 C398 1.400 . S
C399 C400 1.398 . S
C400 H388 0.950 . S
C400 C399 1.398 . S
C400 C401 1.391 . S
C401 H389 0.950 . S
C401 C397 1.393 . S
C401 C400 1.391 . S
H402 C410 0.950 . S
H403 C415 0.950 . S
H404 C412 0.950 . S
H405 C414 0.950 . S
H406 C416 0.950 . S
H407 C418 0.950 . S
H408 C420 0.950 . S
H409 C421 0.950 . S
C410 H402 0.950 . S
C410 C411 1.386 . S
C410 C412 1.391 . S
C411 C410 1.386 . S
C411 C415 1.393 . S
C412 H404 0.950 . S
C412 C410 1.391 . S
C412 C413 1.400 . S
C413 C412 1.400 . S
C413 C414 1.398 . S
C413 C419 1.491 . S
C414 H405 0.950 . S
C414 C413 1.398 . S
C414 C415 1.391 . S
C415 H403 0.950 . S
C415 C411 1.393 . S
C415 C414 1.391 . S
C416 H406 0.950 . S
C416 C417 1.386 . S
C416 C418 1.391 . S
C417 C416 1.386 . S
C417 C421 1.393 . S
C418 H407 0.950 . S
C418 C416 1.391 . S
C418 C419 1.400 . S
C419 C413 1.491 . S
C419 C418 1.400 . S
C419 C420 1.398 . S
C420 H408 0.950 . S
C420 C419 1.398 . S
C420 C421 1.391 . S
C421 H409 0.950 . S
C421 C417 1.393 . S
C421 C420 1.391 . S
H422 C430 0.950 . S
H423 C435 0.950 . S
H424 C432 0.950 . S
H425 C434 0.950 . S
H426 C436 0.950 . S
H427 C438 0.950 . S
H428 C440 0.950 . S
H429 C441 0.950 1_655 S
C430 H422 0.950 . S
C430 C431 1.386 . S
C430 C432 1.391 . S
C431 C430 1.386 . S
C431 C435 1.393 . S
C432 H424 0.950 . S
C432 C430 1.391 . S
C432 C433 1.400 . S
C433 C432 1.400 . S
C433 C434 1.398 . S
C433 C439 1.491 . S
C434 H425 0.950 . S
C434 C433 1.398 . S
C434 C435 1.391 . S
C435 H423 0.950 . S
C435 C431 1.393 . S
C435 C434 1.391 . S
C436 H426 0.950 . S
C436 C437 1.386 . S
C436 C438 1.391 . S
C437 C436 1.386 . S
C437 C441 1.393 . S
C438 H427 0.950 . S
C438 C436 1.391 . S
C438 C439 1.400 . S
C439 C433 1.491 . S
C439 C438 1.400 . S
C439 C440 1.398 . S
C440 H428 0.950 . S
C440 C439 1.398 . S
C440 C441 1.391 . S
C441 H429 0.950 1_455 S
C441 C437 1.393 . S
C441 C440 1.391 . S
C217 C173 1.648 . S
C211 C138 1.616 . S
C231 C21 1.627 . S
C237 C196 1.646 . S
C251 C60 1.649 . S
C257 C172 1.667 . S
C271 C99 1.639 . S
C277 C195 1.669 . S
C297 C176 1.629 . S
C291 C16 1.642 . S
C317 C198 1.635 . S
C311 C40 1.635 . S
C331 C79 1.671 . S
C337 C177 1.637 . S
C351 C133 1.612 . S
C357 C197 1.593 . S
C377 C200 1.628 . S
C371 C55 1.661 . S
C397 C175 1.624 . S
C391 C94 1.646 . S
C417 C199 1.621 . S
C411 C118 1.652 . S
C431 C1 1.614 . S
C437 C174 1.594 . S
