# Generated by pormake.
# Topology anh, (6,3)-cn, num edge types: 1
# Building blocks:
#     Node 0, Type 0, BuildingBlock: GEDQOX_clean_sbu_0, # of connection points: 6
#     Node 1, Type 0, BuildingBlock: GEDQOX_clean_sbu_0, # of connection points: 6
#     Node 2, Type 0, BuildingBlock: GEDQOX_clean_sbu_0, # of connection points: 6
#     Node 3, Type 1, BuildingBlock: VETTIZ_charged_linker_0, # of connection points: 3
#     Node 4, Type 1, BuildingBlock: VETTIZ_charged_linker_0, # of connection points: 3
#     Node 5, Type 1, BuildingBlock: VETTIZ_charged_linker_0, # of connection points: 3
#     Node 6, Type 1, BuildingBlock: VETTIZ_charged_linker_0, # of connection points: 3
#     Node 7, Type 1, BuildingBlock: VETTIZ_charged_linker_0, # of connection points: 3
#     Node 8, Type 1, BuildingBlock: VETTIZ_charged_linker_0, # of connection points: 3
#     Edge 9, Type (0, 1), BuildingBlock: ZUJKAS_clean_linker_0, # of connection points: 2
#     Edge 10, Type (0, 1), BuildingBlock: ZUJKAS_clean_linker_0, # of connection points: 2
#     Edge 11, Type (0, 1), BuildingBlock: ZUJKAS_clean_linker_0, # of connection points: 2
#     Edge 12, Type (0, 1), BuildingBlock: ZUJKAS_clean_linker_0, # of connection points: 2
#     Edge 13, Type (0, 1), BuildingBlock: ZUJKAS_clean_linker_0, # of connection points: 2
#     Edge 14, Type (0, 1), BuildingBlock: ZUJKAS_clean_linker_0, # of connection points: 2
#     Edge 15, Type (0, 1), BuildingBlock: ZUJKAS_clean_linker_0, # of connection points: 2
#     Edge 16, Type (0, 1), BuildingBlock: ZUJKAS_clean_linker_0, # of connection points: 2
#     Edge 17, Type (0, 1), BuildingBlock: ZUJKAS_clean_linker_0, # of connection points: 2
#     Edge 18, Type (0, 1), BuildingBlock: ZUJKAS_clean_linker_0, # of connection points: 2
#     Edge 19, Type (0, 1), BuildingBlock: ZUJKAS_clean_linker_0, # of connection points: 2
#     Edge 20, Type (0, 1), BuildingBlock: ZUJKAS_clean_linker_0, # of connection points: 2
#     Edge 21, Type (0, 1), BuildingBlock: ZUJKAS_clean_linker_0, # of connection points: 2
#     Edge 22, Type (0, 1), BuildingBlock: ZUJKAS_clean_linker_0, # of connection points: 2
#     Edge 23, Type (0, 1), BuildingBlock: ZUJKAS_clean_linker_0, # of connection points: 2
#     Edge 24, Type (0, 1), BuildingBlock: ZUJKAS_clean_linker_0, # of connection points: 2
#     Edge 25, Type (0, 1), BuildingBlock: ZUJKAS_clean_linker_0, # of connection points: 2
#     Edge 26, Type (0, 1), BuildingBlock: ZUJKAS_clean_linker_0, # of connection points: 2
# Relax obj value: 0.165
# Max RMSD: 0.202
# Mean RMSD: 0.154
data_MOF--net-anh--node1-GEDQOX_clean_sbu_0--node2-VETTIZ_charged_linker_0--edge1-ZUJKAS_clean_linker_0
_symmetry_space_group_name_H-M    P1
_symmetry_Int_Tables_number       1
_symmetry_cell_setting            triclinic
loop_
_symmetry_equiv_pos_as_xyz
'x, y, z'
_cell_length_a     44.902747
_cell_length_b     43.578608
_cell_length_c     82.527669
_cell_angle_alpha  93.249409
_cell_angle_beta   90.653002
_cell_angle_gamma 107.74701
loop_
_atom_site_label
_atom_site_type_symbol
_atom_site_fract_x
_atom_site_fract_y
_atom_site_fract_z
_atom_type_partial_charge
Nd0 Nd 0.07955 0.54149 0.14973 0.0
Nd1 Nd 0.05917 0.47036 0.15622 0.0
C2 C 0.10639 0.59893 0.13861 0.0
C3 C 0.13748 0.62302 0.14032 0.0
C4 C 0.14317 0.65247 0.13308 0.0
C5 C 0.17237 0.67603 0.13517 0.0
C6 C 0.19637 0.67048 0.14457 0.0
C7 C 0.19061 0.64061 0.1516 0.0
C8 C 0.1614 0.61711 0.14951 0.0
C9 C 0.07258 0.5293 0.18189 0.0
C10 C 0.13399 0.50415 0.15474 0.0
C11 C 1.03277 0.41296 0.16739 0.0
C12 C 1.00117 0.38968 0.16836 0.0
C13 C 0.99026 0.37889 0.18353 0.0
C14 C 0.96056 0.35672 0.18481 0.0
C15 C 0.94122 0.34467 0.17091 0.0
C16 C 0.95215 0.3555 0.15571 0.0
C17 C 0.98179 0.37791 0.15445 0.0
C18 C 0.06787 0.48364 0.12425 0.0
C19 C 1.00465 0.50732 0.15098 0.0
O20 O 0.10491 0.57178 0.13051 0.0
O21 O 0.09005 0.59464 0.15176 0.0
O22 O 0.0652 0.55259 0.17548 0.0
O23 O 0.08487 0.51467 0.17167 0.0
O24 O 0.12655 0.52866 0.1488 0.0
O25 O 0.11214 0.47973 0.16051 0.0
O26 O 1.0385 0.43996 0.17639 0.0
O27 O 1.04492 0.41704 0.15303 0.0
O28 O 0.07593 0.46073 0.13068 0.0
O29 O 0.05444 0.49724 0.13435 0.0
O30 O 1.01209 0.48299 0.15712 0.0
O31 O 1.02654 0.53159 0.14511 0.0
H32 H 0.12489 0.65743 0.12599 0.0
H33 H 0.17587 0.69888 0.12976 0.0
H34 H 0.20867 0.63537 0.15872 0.0
H35 H 0.15739 0.59445 0.15519 0.0
H36 H 1.00481 0.38756 0.19442 0.0
H37 H 0.95295 0.34856 0.19666 0.0
H38 H 0.93764 0.34688 0.14481 0.0
H39 H 0.98948 0.38596 0.14259 0.0
Nd40 Nd 0.52376 1.00204 0.51201 0.0
Nd41 Nd 0.59128 0.02035 0.5021 0.0
C42 C 0.46878 0.97652 0.525 0.0
C43 C 0.44359 0.94574 0.52237 0.0
C44 C 0.42093 0.9358 0.53411 0.0
C45 C 0.39666 0.90673 0.53153 0.0
C46 C 0.3946 0.88713 0.51713 0.0
C47 C 0.41768 0.8972 0.50548 0.0
C48 C 0.442 0.92613 0.50811 0.0
C49 C 0.5319 1.00526 0.47919 0.0
C50 C 0.55791 0.945 0.50522 0.0
C51 C 0.64623 0.04529 0.48892 0.0
C52 C 0.66968 0.07723 0.48821 0.0
C53 C 0.66116 0.10569 0.48958 0.0
C54 C 0.68392 0.13581 0.48903 0.0
C55 C 0.71561 0.13797 0.48724 0.0
C56 C 0.72398 0.10934 0.48599 0.0
C57 C 0.7012 0.07928 0.48646 0.0
C58 C 0.58278 0.0159 0.53487 0.0
C59 C 0.55753 0.07713 0.5092 0.0
O60 O 0.49505 0.97484 0.53131 0.0
O61 O 0.47305 0.99576 0.51306 0.0
O62 O 0.51071 0.0146 0.48672 0.0
O63 O 0.5466 0.9931 0.4887 0.0
O64 O 0.53603 0.95421 0.51288 0.0
O65 O 0.58019 0.96574 0.49758 0.0
O66 O 0.61947 0.04082 0.48119 0.0
O67 O 0.64303 0.0329 0.50308 0.0
O68 O 0.60365 1.00628 0.52716 0.0
O69 O 0.56844 0.02882 0.52554 0.0
O70 O 0.57826 0.06769 0.50066 0.0
O71 O 0.53651 0.05658 0.51758 0.0
H72 H 0.42197 0.95054 0.54524 0.0
H73 H 0.37965 0.89954 0.54088 0.0
H74 H 0.41668 0.88305 0.49416 0.0
H75 H 0.45941 0.93338 0.49894 0.0
H76 H 0.63696 0.10465 0.4911 0.0
H77 H 0.67676 0.15741 0.49019 0.0
H78 H 0.7481 0.11013 0.48438 0.0
H79 H 0.70822 0.05757 0.48542 0.0
Nd80 Nd 0.5092 0.49624 0.83193 0.0
Nd81 Nd 0.58049 0.52271 0.84683 0.0
C82 C 0.45822 0.4882 0.81391 0.0
C83 C 0.44854 0.51078 0.80412 0.0
C84 C 0.41733 0.50394 0.79894 0.0
C85 C 0.40666 0.52845 0.79323 0.0
C86 C 0.42679 0.56051 0.79333 0.0
C87 C 0.45884 0.5661 0.79683 0.0
C88 C 0.4696 0.54134 0.80197 0.0
C89 C 0.51742 0.49301 0.86467 0.0
C90 C 0.54377 0.57496 0.84093 0.0
C91 C 0.63092 0.53344 0.86532 0.0
C92 C 0.66009 0.5256 0.86226 0.0
C93 C 0.67078 0.50752 0.87319 0.0
C94 C 0.69621 0.49652 0.86941 0.0
C95 C 0.71139 0.50348 0.85462 0.0
C96 C 0.70094 0.52213 0.84386 0.0
C97 C 0.67548 0.53292 0.84759 0.0
C98 C 0.57925 0.52009 0.81325 0.0
C99 C 0.54665 0.44438 0.83646 0.0
O100 O 0.48219 0.4797 0.80872 0.0
O101 O 0.45986 0.49545 0.8296 0.0
O102 O 0.49506 0.47197 0.8561 0.0
O103 O 0.53237 0.51539 0.85619 0.0
O104 O 0.52227 0.55187 0.83232 0.0
O105 O 0.56646 0.56913 0.84944 0.0
O106 O 0.60611 0.50835 0.86663 0.0
O107 O 0.62563 0.55569 0.85663 0.0
O108 O 0.60514 0.52981 0.82187 0.0
O109 O 0.557 0.51217 0.8227 0.0
O110 O 0.56822 0.46702 0.84529 0.0
O111 O 0.52346 0.45036 0.82851 0.0
H112 H 0.40085 0.48022 0.80018 0.0
H113 H 0.38215 0.52258 0.78979 0.0
H114 H 0.47544 0.59006 0.79699 0.0
H115 H 0.49404 0.5468 0.80541 0.0
H116 H 0.65894 0.5012 0.88446 0.0
H117 H 0.70357 0.48203 0.87792 0.0
H118 H 0.7125 0.52854 0.83254 0.0
H119 H 0.66755 0.5465 0.8388 0.0
C120 C 0.63767 0.08519 0.20664 0.0
C121 C 0.66186 0.1089 0.21543 0.0
C122 C 0.66236 0.10953 0.23254 0.0
C123 C 0.61512 0.06403 0.23187 0.0
C124 C 0.61457 0.06309 0.2151 0.0
C125 C 0.58701 0.0364 0.20778 0.0
H126 H 0.45492 0.91347 0.21949 0.0
C127 C 0.58793 0.038 0.23699 0.0
C128 C 0.57128 0.02159 0.22294 0.0
H129 H 0.49356 0.94724 0.1737 0.0
H130 H 0.53708 0.98721 0.18795 0.0
H131 H 0.51809 0.91412 0.2359 0.0
H132 H 0.46783 0.98382 0.23786 0.0
H133 H 0.48106 0.98146 0.25773 0.0
H134 H 0.45467 0.94604 0.24725 0.0
H135 H 0.48465 0.90963 0.24829 0.0
H136 H 0.52369 0.93175 0.25578 0.0
C137 C 0.59961 0.01252 0.19747 0.0
C138 C 0.56618 0.05189 0.19812 0.0
C139 C 0.56977 0.02333 0.29717 0.0
C140 C 0.54679 1.0011 0.30569 0.0
C141 C 0.52296 0.97709 0.2968 0.0
C142 C 0.52185 0.9754 0.2798 0.0
C143 C 0.54485 0.99788 0.27148 0.0
C144 C 0.56838 0.02119 0.28016 0.0
C145 C 0.59114 0.04265 0.26925 0.0
C146 C 0.5773 0.02838 0.2526 0.0
C147 C 0.55014 1.00233 0.25401 0.0
C148 C 0.62377 0.03843 0.27232 0.0
C149 C 0.58986 0.0776 0.27255 0.0
C150 C 0.47255 0.92969 0.21251 0.0
C151 C 0.47061 0.92746 0.19546 0.0
C152 C 0.49456 0.94847 0.18685 0.0
C153 C 0.51971 0.97173 0.19515 0.0
C154 C 0.52103 0.97389 0.21224 0.0
C155 C 0.49775 0.95285 0.22058 0.0
C156 C 0.50302 0.95794 0.23865 0.0
C157 C 0.53311 0.98582 0.23987 0.0
C158 C 0.54361 0.99525 0.2244 0.0
C159 C 0.5074 0.9268 0.24513 0.0
C160 C 0.47522 0.96763 0.24589 0.0
H161 H 0.64106 0.08924 0.25377 0.0
H162 H 0.63649 0.08409 0.1935 0.0
H163 H 0.5647 0.07432 0.20474 0.0
H164 H 0.54177 0.03623 0.19645 0.0
H165 H 0.57589 0.05842 0.18602 0.0
H166 H 0.62094 0.00966 0.20336 0.0
H167 H 0.60594 0.02127 0.18521 0.0
H168 H 0.58292 0.98792 0.19616 0.0
H169 H 0.58828 0.04227 0.30356 0.0
H170 H 0.50529 0.95926 0.30299 0.0
H171 H 0.5031 0.95657 0.27381 0.0
H172 H 0.62161 0.01343 0.27559 0.0
H173 H 0.6368 0.0552 0.28245 0.0
H174 H 0.63824 0.04185 0.26144 0.0
H175 H 0.56559 0.07764 0.27509 0.0
H176 H 0.59658 0.09254 0.26204 0.0
H177 H 0.60496 0.08981 0.28324 0.0
H178 H 0.68101 0.127 0.23964 0.0
C179 C 0.63921 0.08735 0.24077 0.0
C180 C 0.55505 0.60121 0.53603 0.0
C181 C 0.5523 0.6299 0.54375 0.0
C182 C 0.55119 0.63247 0.5608 0.0
C183 C 0.55509 0.57856 0.56229 0.0
C184 C 0.55607 0.57569 0.54554 0.0
C185 C 0.55761 0.54277 0.53957 0.0
H186 H 0.56103 0.39376 0.55889 0.0
C187 C 0.55619 0.54802 0.56873 0.0
C188 C 0.55735 0.52661 0.5555 0.0
H189 H 0.56445 0.42881 0.51079 0.0
H190 H 0.5609 0.48021 0.52227 0.0
H191 H 0.60913 0.4557 0.57487 0.0
H192 H 0.50882 0.42206 0.57213 0.0
H193 H 0.51892 0.44006 0.5918 0.0
H194 H 0.53136 0.40575 0.58533 0.0
H195 H 0.58657 0.42465 0.58708 0.0
H196 H 0.59709 0.46679 0.59383 0.0
C197 C 0.58866 0.54727 0.53072 0.0
C198 C 0.52811 0.52589 0.52882 0.0
C199 C 0.55967 0.53842 0.62993 0.0
C200 C 0.56076 0.51299 0.63949 0.0
C201 C 0.55936 0.48292 0.63171 0.0
C202 C 0.55777 0.47842 0.61478 0.0
C203 C 0.55752 0.50421 0.60538 0.0
C204 C 0.55803 0.53346 0.61295 0.0
C205 C 0.55685 0.55779 0.60091 0.0
C206 C 0.55634 0.53846 0.5849 0.0
C207 C 0.55688 0.50725 0.58766 0.0
C208 C 0.58716 0.58672 0.60335 0.0
C209 C 0.52615 0.56665 0.60332 0.0
C210 C 0.56138 0.41249 0.55075 0.0
C211 C 0.56349 0.40724 0.53392 0.0
C212 C 0.56287 0.43217 0.52382 0.0
C213 C 0.56095 0.46203 0.53052 0.0
C214 C 0.55952 0.46695 0.54748 0.0
C215 C 0.55969 0.44217 0.55719 0.0
C216 C 0.55865 0.45111 0.5749 0.0
C217 C 0.55776 0.48544 0.57441 0.0
C218 C 0.55814 0.49488 0.55836 0.0
C219 C 0.58922 0.44934 0.58324 0.0
C220 C 0.52805 0.42856 0.58154 0.0
H221 H 0.55173 0.61079 0.58298 0.0
H222 H 0.55577 0.59852 0.52292 0.0
H223 H 0.50703 0.52999 0.53433 0.0
H224 H 0.52302 0.49946 0.52752 0.0
H225 H 0.53036 0.53545 0.51655 0.0
H226 H 0.60823 0.56567 0.53753 0.0
H227 H 0.58712 0.55557 0.51835 0.0
H228 H 0.59564 0.52508 0.52977 0.0
H229 H 0.56068 0.56184 0.63549 0.0
H230 H 0.55933 0.46266 0.63873 0.0
H231 H 0.55697 0.45498 0.6097 0.0
H232 H 0.60773 0.57811 0.60544 0.0
H233 H 0.58562 0.60277 0.61404 0.0
H234 H 0.59282 0.60126 0.59264 0.0
H235 H 0.50781 0.54688 0.60872 0.0
H236 H 0.5154 0.57013 0.59171 0.0
H237 H 0.53012 0.5887 0.61153 0.0
H238 H 0.5495 0.65442 0.56703 0.0
C239 C 0.55261 0.6071 0.57007 0.0
C240 C 0.20852 0.65075 0.86047 0.0
C241 C 0.23902 0.66448 0.86701 0.0
C242 C 0.24398 0.6655 0.88398 0.0
C243 C 0.18894 0.63695 0.88723 0.0
C244 C 0.18417 0.63682 0.87065 0.0
C245 C 0.15129 0.61861 0.86513 0.0
H246 H 1.00328 0.5381 0.8835 0.0
C247 C 0.15873 0.61913 0.89413 0.0
C248 C 0.13672 0.60836 0.88116 0.0
H249 H 1.04088 0.55756 0.83593 0.0
H250 H 0.09251 0.5835 0.84802 0.0
H251 H 0.06155 0.51567 0.89707 0.0
H252 H 1.03746 0.60383 0.90086 0.0
H253 H 0.05558 0.60188 0.91955 0.0
H254 H 1.01977 0.57086 0.91317 0.0
H255 H 1.03041 0.52094 0.90924 0.0
H256 H 0.07001 0.53141 0.91722 0.0
C257 C 0.15201 0.58924 0.85373 0.0
C258 C 0.1369 0.64244 0.85722 0.0
C259 C 0.14898 0.60335 0.95491 0.0
C260 C 0.12305 0.58935 0.9644 0.0
C261 C 0.09314 0.57708 0.95688 0.0
C262 C 0.08901 0.57805 0.94016 0.0
C263 C 0.11504 0.59157 0.93075 0.0
C264 C 0.14435 0.60457 0.93812 0.0
C265 C 0.16882 0.61937 0.92607 0.0
C266 C 0.14943 0.61207 0.91028 0.0
C267 C 0.11806 0.59543 0.91317 0.0
C268 C 0.19386 0.60164 0.92616 0.0
C269 C 0.18176 0.65608 0.93058 0.0
C270 C 1.02279 0.54782 0.87574 0.0
C271 C 1.01833 0.54612 0.85882 0.0
C272 C 1.04406 0.55862 0.84901 0.0
C273 C 0.07387 0.57378 0.85607 0.0
C274 C 0.07789 0.57606 0.87309 0.0
C275 C 1.05267 0.5626 0.88258 0.0
C276 C 0.06135 0.56623 0.90036 0.0
C277 C 0.09595 0.58459 0.90005 0.0
C278 C 0.10538 0.59057 0.88411 0.0
C279 C 0.05542 0.53192 0.90646 0.0
C280 C 1.04253 0.58652 0.90907 0.0
H281 H 0.22435 0.65266 0.90689 0.0
H282 H 0.20377 0.6498 0.84752 0.0
H283 H 0.14342 0.666 0.86444 0.0
H284 H 0.1111 0.63403 0.85665 0.0
H285 H 0.14548 0.6471 0.84475 0.0
H286 H 0.17284 0.58141 0.8564 0.0
H287 H 0.15282 0.59511 0.84079 0.0
H288 H 0.13185 0.56756 0.85531 0.0
H289 H 0.17218 0.61324 0.96045 0.0
H290 H 0.07291 0.56598 0.96394 0.0
H291 H 0.06566 0.56796 0.9352 0.0
H292 H 0.18267 0.57518 0.92676 0.0
H293 H 0.2102 0.61018 0.93683 0.0
H294 H 0.20754 0.60442 0.91502 0.0
H295 H 0.16283 0.66569 0.935 0.0
H296 H 0.19129 0.67024 0.92012 0.0
H297 H 0.20013 0.66134 0.94037 0.0
H298 H 0.26731 0.67564 0.88933 0.0
C299 C 0.21907 0.65185 0.89413 0.0
C300 C 0.98133 0.44155 0.45435 0.0
C301 C 0.95742 0.41741 0.44561 0.0
C302 C 0.95795 0.41525 0.42852 0.0
C303 C 1.0055 0.46037 0.42906 0.0
C304 C 1.00501 0.46283 0.44582 0.0
C305 C 1.03205 0.49027 0.45304 0.0
H306 H 0.16503 0.61202 0.44108 0.0
C307 C 1.03334 0.48554 0.42387 0.0
C308 C 1.04909 0.50326 0.43784 0.0
H309 H 0.12096 0.58532 0.48664 0.0
H310 H 0.07981 0.54228 0.47254 0.0
H311 H 0.15474 0.53945 0.42572 0.0
H312 H 0.1031 0.60731 0.42179 0.0
H313 H 0.1017 0.58801 0.40244 0.0
H314 H 0.139 0.61154 0.41152 0.0
H315 H 0.16827 0.57493 0.4145 0.0
H316 H 0.14266 0.53754 0.40527 0.0
C317 C 1.05204 0.47606 0.46401 0.0
C318 C 1.01869 0.51517 0.46198 0.0
C319 C 0.05544 0.49399 0.36375 0.0
C320 C 0.07944 0.51469 0.35512 0.0
C321 C 0.10391 0.53818 0.36388 0.0
C322 C 0.10427 0.54128 0.38088 0.0
C323 C 0.07989 0.5207 0.3893 0.0
C324 C 0.05615 0.49743 0.38073 0.0
C325 C 1.03226 0.47764 0.3917 0.0
C326 C 1.04539 0.49315 0.40827 0.0
C327 C 0.07324 0.51833 0.40678 0.0
C328 C 1.03258 0.44216 0.38951 0.0
C329 C 1.0003 0.48263 0.38764 0.0
C330 C 0.14675 0.59664 0.44806 0.0
C331 C 0.14638 0.60184 0.46499 0.0
C332 C 0.12169 0.5818 0.47356 0.0
C333 C 0.09789 0.55681 0.46536 0.0
C334 C 0.0986 0.552 0.44838 0.0
C335 C 0.12274 0.57191 0.44005 0.0
C336 C 0.11931 0.56427 0.42202 0.0
C337 C 0.08921 0.53636 0.42085 0.0
C338 C 0.07718 0.52905 0.43631 0.0
C339 C 0.14773 0.55368 0.41644 0.0
C340 C 0.11579 0.59426 0.41388 0.0
H341 H 0.98079 0.43334 0.40724 0.0
H342 H 0.98144 0.44399 0.46748 0.0
H343 H 0.99713 0.5164 0.45562 0.0
H344 H 1.03486 0.54004 0.46228 0.0
H345 H 1.01251 0.50859 0.47459 0.0
H346 H 0.05482 0.45356 0.45808 0.0
H347 H 1.0408 0.46997 0.47582 0.0
H348 H 0.07603 0.49239 0.46636 0.0
H349 H 1.0365 0.47541 0.35743 0.0
H350 H 0.12249 0.55471 0.35756 0.0
H351 H 0.12341 0.5598 0.38678 0.0
H352 H 0.0566 0.44106 0.38714 0.0
H353 H 1.01716 0.42906 0.3791 0.0
H354 H 1.0257 0.42866 0.4005 0.0
H355 H 1.00349 0.50763 0.38404 0.0
H356 H 0.98488 0.47991 0.39814 0.0
H357 H 0.98783 0.46575 0.37742 0.0
H358 H 0.94016 0.39661 0.42151 0.0
C359 C 0.98176 0.4365 0.42023 0.0
C360 C 0.53985 0.91761 0.81027 0.0
C361 C 0.53611 0.8871 0.80227 0.0
C362 C 0.535 0.8843 0.78517 0.0
C363 C 0.54112 0.94127 0.78418 0.0
C364 C 0.54203 0.94433 0.80097 0.0
C365 C 0.54483 0.97846 0.80719 0.0
H366 H 0.5622 0.13382 0.78914 0.0
C367 C 0.54404 0.97314 0.77798 0.0
C368 C 0.54615 0.99526 0.79138 0.0
H369 H 0.55319 0.09678 0.83684 0.0
H370 H 0.54833 0.04293 0.82491 0.0
H371 H 0.6069 0.09444 0.77465 0.0
H372 H 0.50778 0.07889 0.77331 0.0
H373 H 0.51595 0.06345 0.75439 0.0
H374 H 0.53343 0.1058 0.76024 0.0
H375 H 0.58842 0.11748 0.76301 0.0
H376 H 0.5935 0.08029 0.75472 0.0
C377 C 0.57555 0.99199 0.81744 0.0
C378 C 0.51515 0.97777 0.81667 0.0
C379 C 0.54674 0.98555 0.71696 0.0
C380 C 0.54921 0.01209 0.70753 0.0
C381 C 0.55176 0.04235 0.71543 0.0
C382 C 0.55192 0.04621 0.73238 0.0
C383 C 0.54944 0.01952 0.74165 0.0
C384 C 0.54679 0.98981 0.73394 0.0
C385 C 0.54395 0.96415 0.7458 0.0
C386 C 0.54536 0.98343 0.7619 0.0
C387 C 0.54874 0.01578 0.75935 0.0
C388 C 0.5726 0.95159 0.74387 0.0
C389 C 0.51178 0.93799 0.74263 0.0
C390 C 0.55958 0.11423 0.79707 0.0
C391 C 0.55862 0.11956 0.81393 0.0
C392 C 0.55417 0.09319 0.82379 0.0
C393 C 0.55137 0.06205 0.81684 0.0
C394 C 0.55249 0.0572 0.79984 0.0
C395 C 0.55626 0.0832 0.79035 0.0
C396 C 0.55548 0.07404 0.77255 0.0
C397 C 0.55102 0.03825 0.77276 0.0
C398 C 0.54952 0.02823 0.78874 0.0
C399 C 0.58757 0.09256 0.76573 0.0
C400 C 0.5269 0.08102 0.76458 0.0
H401 H 0.53658 0.9071 0.76318 0.0
H402 H 0.54055 0.92045 0.8234 0.0
H403 H 0.49405 0.96018 0.81061 0.0
H404 H 0.51029 1.00113 0.81715 0.0
H405 H 0.51696 0.97052 0.82924 0.0
H406 H 0.59517 0.98644 0.81106 0.0
H407 H 0.57338 0.98108 0.82938 0.0
H408 H 0.58271 0.01847 0.81955 0.0
H409 H 0.54446 0.96191 0.71126 0.0
H410 H 0.55415 0.06328 0.70847 0.0
H411 H 0.55412 0.06994 0.73758 0.0
H412 H 0.59401 0.97167 0.74151 0.0
H413 H 0.56883 0.93324 0.73353 0.0
H414 H 0.57854 0.94131 0.75493 0.0
H415 H 0.49407 0.94857 0.73783 0.0
H416 H 0.50158 0.92688 0.75382 0.0
H417 H 0.51348 0.91875 0.7336 0.0
H418 H 0.5326 0.86127 0.77872 0.0
C419 C 0.53752 0.91106 0.77614 0.0
C420 C 0.65468 0.50601 0.14079 0.0
C421 C 0.68246 0.50715 0.13232 0.0
C422 C 0.68141 0.50663 0.11531 0.0
C423 C 0.62665 0.50401 0.11504 0.0
C424 C 0.62688 0.50467 0.13182 0.0
C425 C 0.59477 0.50418 0.13809 0.0
H426 H 0.444 0.50238 0.1167 0.0
C427 C 0.59504 0.50238 0.10895 0.0
C428 C 0.57562 0.50248 0.1223 0.0
H429 H 0.47941 0.50645 0.16577 0.0
H430 H 0.52993 0.50391 0.15547 0.0
H431 H 0.50263 0.55072 0.10278 0.0
H432 H 0.46945 0.44775 0.10408 0.0
H433 H 0.48831 0.45436 0.08555 0.0
H434 H 0.45494 0.46851 0.08923 0.0
H435 H 0.46995 0.52549 0.09067 0.0
H436 H 0.50927 0.53554 0.0835 0.0
C437 C 0.59837 0.5357 0.14844 0.0
C438 C 0.58149 0.47391 0.14766 0.0
C439 C 0.57592 0.49898 0.04771 0.0
C440 C 0.54897 0.49594 0.03803 0.0
C441 C 0.52035 0.49231 0.04577 0.0
C442 C 0.51876 0.49288 0.06268 0.0
C443 C 0.54595 0.49669 0.07219 0.0
C444 C 0.57374 0.499 0.06467 0.0
C445 C 0.59983 0.50135 0.07675 0.0
C446 C 0.58312 0.50063 0.09277 0.0
C447 C 0.5518 0.49839 0.08997 0.0
C448 C 0.62537 0.5342 0.07505 0.0
C449 C 0.61095 0.47116 0.07354 0.0
C450 C 0.46257 0.50306 0.12536 0.0
C451 C 0.45769 0.50529 0.14203 0.0
C452 C 0.4825 0.50503 0.15279 0.0
C453 C 0.51182 0.50373 0.14681 0.0
C454 C 0.51633 0.50225 0.12989 0.0
C455 C 0.49135 0.50147 0.11967 0.0
C456 C 0.49842 0.49874 0.10215 0.0
C457 C 0.53213 0.49914 0.10317 0.0
C458 C 0.54338 0.50116 0.1194 0.0
C459 C 0.49475 0.52894 0.09421 0.0
C460 C 0.47664 0.46584 0.09474 0.0
H461 H 0.6554 0.50473 0.09378 0.0
H462 H 0.65478 0.50659 0.15392 0.0
H463 H 0.58211 0.45195 0.1403 0.0
H464 H 0.5569 0.47038 0.15083 0.0
H465 H 0.59546 0.47562 0.15907 0.0
H466 H 0.61077 0.55695 0.14161 0.0
H467 H 0.6121 0.53646 0.15982 0.0
H468 H 0.57554 0.53851 0.15171 0.0
H469 H 0.59837 0.50181 0.04229 0.0
H470 H 0.49893 0.48887 0.03876 0.0
H471 H 0.4963 0.4906 0.06764 0.0
H472 H 0.61468 0.55319 0.07206 0.0
H473 H 0.64156 0.53243 0.06522 0.0
H474 H 0.6391 0.54377 0.08642 0.0
H475 H 0.59188 0.45033 0.06797 0.0
H476 H 0.61775 0.46212 0.08483 0.0
H477 H 0.63079 0.47608 0.06515 0.0
H478 H 0.70216 0.50745 0.10853 0.0
C479 C 0.654 0.505 0.10672 0.0
H480 H 0.18525 0.54826 0.14234 0.0
H481 H 0.2397 0.54794 0.14232 0.0
H482 H 0.21421 0.46101 0.16825 0.0
H483 H 0.15961 0.46071 0.16793 0.0
H484 H 0.28248 0.5525 0.16569 0.0
H485 H 0.26155 0.43337 0.1326 0.0
H486 H 0.23167 0.45308 0.13427 0.0
H487 H 0.23971 0.4312 0.15078 0.0
C488 C 0.19109 0.52892 0.14799 0.0
C489 C 0.16762 0.50435 0.15502 0.0
C490 C 0.22245 0.52879 0.14799 0.0
C491 C 0.23146 0.50408 0.15498 0.0
C492 C 0.20814 0.4799 0.16231 0.0
H493 H 0.41551 0.46777 0.16277 0.0
H494 H 0.36131 0.46774 0.16747 0.0
C495 C 0.17674 0.47991 0.16224 0.0
C496 C 0.26516 0.50406 0.15482 0.0
H497 H 0.31275 0.45835 0.14371 0.0
C498 C 0.28895 0.53185 0.16084 0.0
C499 C 0.27417 0.47723 0.14857 0.0
C500 C 0.2505 0.44716 0.14104 0.0
C501 C 0.32092 0.53349 0.16086 0.0
C502 C 0.32989 0.50677 0.15452 0.0
C503 C 0.30615 0.47882 0.14871 0.0
C504 C 0.36372 0.50809 0.15285 0.0
C505 C 0.34485 0.56387 0.16788 0.0
C506 C 0.38356 0.53083 0.1432 0.0
C507 C 0.41441 0.53084 0.14053 0.0
C508 C 0.42663 0.50815 0.14742 0.0
C509 C 0.40715 0.48592 0.15749 0.0
C510 C 0.376 0.48572 0.16005 0.0
H511 H 0.33422 0.57776 0.17649 0.0
H512 H 0.36427 0.55828 0.1743 0.0
H513 H 0.35483 0.57951 0.15789 0.0
H514 H 0.37486 0.54801 0.13722 0.0
H515 H 0.42856 0.54816 0.13261 0.0
H516 H 0.77383 0.15857 0.50201 0.0
H517 H 0.81494 0.20972 0.49921 0.0
H518 H 0.75372 0.24024 0.46757 0.0
H519 H 0.71249 0.18926 0.47038 0.0
H520 H 0.84278 0.23162 0.47146 0.0
H521 H 0.78772 0.31979 0.49802 0.0
H522 H 0.77259 0.27709 0.50084 0.0
H523 H 0.76362 0.29308 0.4824 0.0
C524 C 0.76908 0.17626 0.49452 0.0
C525 C 0.7399 0.16984 0.4864 0.0
C526 C 0.79253 0.20554 0.493 0.0
C527 C 0.78729 0.22905 0.48338 0.0
C528 C 0.75806 0.22287 0.47541 0.0
H529 H 0.89485 0.39672 0.43799 0.0
H530 H 0.85463 0.35246 0.44934 0.0
C531 C 0.73452 0.19365 0.47699 0.0
C532 C 0.81314 0.25885 0.48062 0.0
H533 H 0.83243 0.34112 0.48174 0.0
C534 C 0.84071 0.25558 0.47394 0.0
C535 C 0.81041 0.29011 0.48386 0.0
C536 C 0.78211 0.29531 0.49183 0.0
C537 C 0.86507 0.2826 0.46978 0.0
C538 C 0.86196 0.31378 0.47258 0.0
C539 C 0.83474 0.31717 0.47963 0.0
C540 C 0.88579 0.34284 0.46716 0.0
C541 C 0.89338 0.27746 0.46176 0.0
C542 C 0.91644 0.35277 0.47379 0.0
C543 C 0.93955 0.37804 0.46728 0.0
C544 C 0.93234 0.39371 0.45403 0.0
C545 C 0.90123 0.38475 0.44802 0.0
C546 C 0.87819 0.35962 0.45455 0.0
H547 H 0.88952 0.25176 0.45771 0.0
H548 H 0.89965 0.29234 0.45109 0.0
H549 H 0.91358 0.285 0.47053 0.0
H550 H 0.92266 0.34038 0.48368 0.0
H551 H 0.9633 0.38434 0.47214 0.0
H552 H 0.4994 0.59578 0.82599 0.0
H553 H 0.4987 0.65103 0.82372 0.0
H554 H 0.58303 0.68604 0.85364 0.0
H555 H 0.58459 0.63065 0.85544 0.0
H556 H 0.49504 0.69782 0.84572 0.0
H557 H 0.60812 0.73831 0.81455 0.0
H558 H 0.58857 0.69639 0.81758 0.0
H559 H 0.61074 0.72269 0.83399 0.0
C560 C 0.51801 0.61514 0.83199 0.0
C561 C 0.5424 0.60864 0.84063 0.0
C562 C 0.51743 0.64683 0.83077 0.0
C563 C 0.54116 0.67287 0.83822 0.0
C564 C 0.56491 0.66646 0.84741 0.0
H565 H 0.57414 0.88034 0.8272 0.0
H566 H 0.57468 0.82979 0.83885 0.0
C567 C 0.56564 0.6347 0.84853 0.0
C568 C 0.54105 0.70657 0.83605 0.0
H569 H 0.58284 0.77748 0.82048 0.0
C570 C 0.51435 0.71528 0.8403 0.0
C571 C 0.56621 0.72946 0.82895 0.0
C572 C 0.59492 0.72126 0.82336 0.0
C573 C 0.51198 0.746 0.83749 0.0
C574 C 0.53684 0.76858 0.83007 0.0
C575 C 0.56389 0.76025 0.82627 0.0
C576 C 0.53426 0.79979 0.82477 0.0
C577 C 0.48278 0.75391 0.84242 0.0
C578 C 0.51116 0.79981 0.81318 0.0
C579 C 0.51086 0.82851 0.80655 0.0
C580 C 0.53373 0.85789 0.8113 0.0
C581 C 0.55608 0.85814 0.82342 0.0
C582 C 0.55649 0.82927 0.83 0.0
H583 H 0.47129 0.73931 0.85251 0.0
H584 H 0.48799 0.77989 0.84626 0.0
H585 H 0.46591 0.74821 0.83192 0.0
H586 H 0.49411 0.77738 0.80873 0.0
H587 H 0.49328 0.82758 0.79728 0.0
H588 H 0.98022 0.55443 0.14113 0.0
H589 H 0.9256 0.55416 0.14061 0.0
H590 H 0.89744 0.45903 0.15872 0.0
H591 H 0.95208 0.45945 0.15964 0.0
H592 H 0.87517 0.51737 0.12406 0.0
H593 H 0.85121 0.50139 0.18919 0.0
H594 H 0.89023 0.5107 0.18154 0.0
H595 H 0.86428 0.46993 0.17971 0.0
C596 C 0.9625 0.53345 0.14511 0.0
C597 C 0.97096 0.50705 0.15052 0.0
C598 C 0.93106 0.53332 0.14479 0.0
C599 C 0.90694 0.50686 0.14993 0.0
C600 C 0.91531 0.48025 0.15513 0.0
H601 H 0.70059 0.4597 0.14654 0.0
H602 H 0.75471 0.45955 0.15179 0.0
C603 C 0.94678 0.48042 0.15552 0.0
C604 C 0.87319 0.5068 0.14925 0.0
H605 H 0.80728 0.4968 0.17175 0.0
C606 C 0.86052 0.51304 0.13456 0.0
C607 C 0.85349 0.501 0.16284 0.0
C608 C 0.86553 0.49568 0.17925 0.0
C609 C 0.82919 0.51329 0.13303 0.0
C610 C 0.80957 0.5077 0.14663 0.0
C611 C 0.82205 0.50114 0.16129 0.0
C612 C 0.77631 0.50895 0.14575 0.0
C613 C 0.81717 0.51888 0.11666 0.0
C614 C 0.76992 0.53713 0.1414 0.0
C615 C 0.73902 0.53729 0.13858 0.0
C616 C 0.71341 0.50945 0.14024 0.0
C617 C 0.71962 0.48181 0.14557 0.0
C618 C 0.75068 0.48162 0.14839 0.0
H619 H 0.8318 0.51392 0.10668 0.0
H620 H 0.79265 0.50342 0.11424 0.0
H621 H 0.81776 0.54449 0.11644 0.0
H622 H 0.78897 0.55879 0.13957 0.0
H623 H 0.73518 0.55879 0.13419 0.0
H624 H 0.39646 0.82955 0.50254 0.0
H625 H 0.35272 0.78075 0.4961 0.0
H626 H 0.28966 0.82586 0.51915 0.0
H627 H 0.33295 0.87539 0.52489 0.0
H628 H 0.31211 0.74002 0.51535 0.0
H629 H 0.24723 0.79702 0.47506 0.0
H630 H 0.28705 0.81696 0.48201 0.0
H631 H 0.25517 0.81606 0.49517 0.0
C632 C 0.37324 0.82931 0.50607 0.0
C633 C 0.36826 0.85665 0.51408 0.0
C634 C 0.34829 0.80124 0.50251 0.0
C635 C 0.3178 0.79982 0.50687 0.0
C636 C 0.31286 0.82663 0.51533 0.0
H637 H 0.13979 0.64698 0.48797 0.0
H638 H 0.18092 0.69412 0.49999 0.0
C639 C 0.33777 0.85481 0.51881 0.0
C640 C 0.29129 0.77032 0.50244 0.0
H641 H 0.22208 0.74275 0.48067 0.0
C642 C 0.29241 0.74063 0.50778 0.0
C643 C 0.26557 0.77112 0.49255 0.0
C644 C 0.26371 0.80192 0.48573 0.0
C645 C 0.26857 0.71177 0.50348 0.0
C646 C 0.24307 0.7126 0.49351 0.0
C647 C 0.24161 0.74228 0.48841 0.0
C648 C 0.21858 0.68276 0.48739 0.0
C649 C 0.27079 0.68057 0.50962 0.0
C650 C 0.22622 0.66079 0.47639 0.0
C651 C 0.20285 0.63402 0.46949 0.0
C652 C 0.17137 0.62868 0.47347 0.0
C653 C 0.16387 0.65029 0.48481 0.0
C654 C 0.18728 0.67727 0.49162 0.0
H655 H 0.28747 0.68487 0.52017 0.0
H656 H 0.24751 0.66515 0.51322 0.0
H657 H 0.27912 0.6671 0.49978 0.0
H658 H 0.25018 0.66483 0.47281 0.0
H659 H 0.20935 0.61769 0.46085 0.0
H660 H 0.5922 0.42241 0.84962 0.0
H661 H 0.59535 0.36727 0.84792 0.0
H662 H 0.50813 0.3349 0.82032 0.0
H663 H 0.50495 0.38995 0.82169 0.0
H664 H 0.55516 0.3098 0.85821 0.0
H665 H 0.56682 0.30295 0.79137 0.0
H666 H 0.5711 0.3405 0.80295 0.0
H667 H 0.53279 0.31324 0.79774 0.0
C668 C 0.57366 0.40362 0.84315 0.0
C669 C 0.54844 0.4108 0.83566 0.0
C670 C 0.57548 0.37205 0.84224 0.0
C671 C 0.55222 0.34701 0.8338 0.0
C672 C 0.52669 0.35393 0.82662 0.0
H673 H 0.51909 0.13872 0.8344 0.0
H674 H 0.51874 0.19429 0.84098 0.0
C675 C 0.52488 0.38548 0.82747 0.0
C676 C 0.55483 0.31374 0.83232 0.0
H677 H 0.55898 0.25426 0.8045 0.0
C678 C 0.5561 0.29765 0.84648 0.0
C679 C 0.55649 0.29806 0.81702 0.0
C680 C 0.55704 0.31464 0.8014 0.0
C681 C 0.55849 0.26612 0.84572 0.0
C682 C 0.55918 0.2501 0.83039 0.0
C683 C 0.55827 0.26641 0.81627 0.0
C684 C 0.56133 0.21665 0.82849 0.0
C685 C 0.56086 0.25051 0.86133 0.0
C686 C 0.58549 0.21065 0.81946 0.0
C687 C 0.58553 0.17905 0.8156 0.0
C688 C 0.56145 0.15267 0.82071 0.0
C689 C 0.53815 0.15862 0.83049 0.0
C690 C 0.53796 0.19037 0.83426 0.0
H691 H 0.56862 0.26872 0.87173 0.0
H692 H 0.5375 0.23401 0.86405 0.0
H693 H 0.57743 0.23613 0.86031 0.0
H694 H 0.60381 0.23045 0.8149 0.0
H695 H 0.60384 0.17515 0.80808 0.0
H696 H 0.51562 0.89592 0.51972 0.0
H697 H 0.51608 0.84033 0.52138 0.0
H698 H 0.59868 0.86032 0.49268 0.0
H699 H 0.59878 0.91633 0.49117 0.0
H700 H 0.51312 0.79189 0.4973 0.0
H701 H 0.62532 0.82421 0.53309 0.0
H702 H 0.60427 0.85283 0.53017 0.0
H703 H 0.62698 0.84279 0.5141 0.0
C704 C 0.53392 0.88859 0.51372 0.0
C705 C 0.55734 0.91077 0.50543 0.0
C706 C 0.53408 0.85671 0.51466 0.0
C707 C 0.55767 0.84625 0.50737 0.0
C708 C 0.5806 0.86802 0.49868 0.0
H709 H 0.59147 0.65997 0.52027 0.0
H710 H 0.59282 0.71073 0.5082 0.0
C711 C 0.58051 0.9 0.49775 0.0
C712 C 0.55831 0.81271 0.50922 0.0
H713 H 0.60016 0.76901 0.52674 0.0
C714 C 0.53228 0.78688 0.50361 0.0
C715 C 0.58338 0.80614 0.51739 0.0
C716 C 0.6115 0.83289 0.52417 0.0
C717 C 0.53033 0.75477 0.50628 0.0
C718 C 0.55486 0.74831 0.51498 0.0
C719 C 0.58143 0.774 0.52002 0.0
C720 C 0.55206 0.71569 0.52049 0.0
C721 C 0.50185 0.72804 0.49993 0.0
C722 C 0.52855 0.7015 0.53124 0.0
C723 C 0.52782 0.67277 0.53812 0.0
C724 C 0.55063 0.65756 0.53445 0.0
C725 C 0.57345 0.67102 0.52318 0.0
C726 C 0.57432 0.70005 0.51637 0.0
H727 H 0.49051 0.73545 0.48943 0.0
H728 H 0.50794 0.70588 0.49615 0.0
H729 H 0.48454 0.72212 0.50966 0.0
H730 H 0.51148 0.71337 0.53485 0.0
H731 H 0.50992 0.66289 0.54674 0.0
H732 H 0.72542 0.48019 0.82504 0.0
H733 H 0.77405 0.46922 0.81773 0.0
H734 H 0.80729 0.4904 0.86759 0.0
H735 H 0.75932 0.50202 0.87492 0.0
H736 H 0.83058 0.51649 0.82143 0.0
H737 H 0.83518 0.41194 0.8548 0.0
H738 H 0.79891 0.42029 0.85054 0.0
H739 H 0.82339 0.44012 0.86789 0.0
C740 C 0.74298 0.48217 0.83448 0.0
C741 C 0.73865 0.49232 0.85055 0.0
C742 C 0.77056 0.47554 0.8303 0.0
C743 C 0.79402 0.47848 0.84215 0.0
C744 C 0.7891 0.48707 0.85833 0.0
H745 H 0.96983 0.56824 0.86561 0.0
H746 H 0.91561 0.54556 0.85572 0.0
C747 C 0.76167 0.49386 0.8625 0.0
C748 C 0.82557 0.47802 0.83752 0.0
H749 H 0.88582 0.45352 0.85145 0.0
C750 C 0.84244 0.50186 0.82748 0.0
C751 C 0.84094 0.4586 0.84517 0.0
C752 C 0.8235 0.43106 0.85505 0.0
C753 C 0.87498 0.50947 0.8266 0.0
C754 C 0.89076 0.49288 0.836 0.0
C755 C 0.87357 0.46642 0.84439 0.0
C756 C 0.92418 0.50736 0.84039 0.0
C757 C 0.89262 0.53714 0.81684 0.0
C758 C 0.9468 0.4933 0.83494 0.0
C759 C 0.97798 0.50654 0.84046 0.0
C760 C 0.98641 0.53337 0.85173 0.0
C761 C 0.96373 0.54748 0.85696 0.0
C762 C 0.93291 0.53466 0.85128 0.0
H763 H 0.87756 0.54136 0.80697 0.0
H764 H 0.90067 0.55947 0.82495 0.0
H765 H 0.91354 0.53252 0.81146 0.0
H766 H 0.94026 0.47202 0.82663 0.0
H767 H 0.99524 0.49529 0.83638 0.0
H768 H 0.23057 0.71151 0.12279 0.0
H769 H 0.27987 0.75498 0.12797 0.0
H770 H 0.28038 0.73108 0.17795 0.0
H771 H 0.23113 0.68787 0.17293 0.0
H772 H 0.2914 0.8083 0.14974 0.0
H773 H 0.36844 0.73493 0.16414 0.0
H774 H 0.33041 0.71766 0.15427 0.0
H775 H 0.33384 0.72589 0.17594 0.0
C776 C 0.24119 0.71551 0.13489 0.0
C777 C 0.22694 0.6961 0.14743 0.0
C778 C 0.26942 0.74024 0.1378 0.0
C779 C 0.28406 0.74591 0.15327 0.0
C780 C 0.26993 0.72661 0.16581 0.0
H781 H 0.40901 0.9131 0.20275 0.0
H782 H 0.3649 0.87007 0.19032 0.0
C783 C 0.24174 0.70189 0.16292 0.0
C784 C 0.31322 0.77306 0.15661 0.0
H785 H 0.38783 0.79142 0.17214 0.0
C786 C 0.31262 0.8046 0.15444 0.0
C787 C 0.34104 0.76819 0.16251 0.0
C788 C 0.34366 0.73481 0.1642 0.0
C789 C 0.33864 0.83146 0.15875 0.0
C790 C 0.36578 0.82665 0.16559 0.0
C791 C 0.3669 0.79508 0.16703 0.0
C792 C 0.39242 0.85397 0.1723 0.0
C793 C 0.33674 0.86479 0.1561 0.0
C794 C 0.42265 0.85902 0.16641 0.0
C795 C 0.44802 0.88357 0.17357 0.0
C796 C 0.4436 0.90314 0.18689 0.0
C797 C 0.4132 0.89826 0.19258 0.0
C798 C 0.38792 0.87389 0.18539 0.0
H799 H 0.31887 0.8641 0.14654 0.0
H800 H 0.32992 0.87514 0.16755 0.0
H801 H 0.35967 0.8811 0.15259 0.0
H802 H 0.42663 0.84372 0.15639 0.0
H803 H 0.47121 0.88656 0.16903 0.0
H804 H 0.58546 0.12206 0.4878 0.0
H805 H 0.58689 0.17861 0.48829 0.0
H806 H 0.53388 0.16671 0.53202 0.0
H807 H 0.53127 0.10975 0.53121 0.0
H808 H 0.51278 0.20088 0.51214 0.0
H809 H 0.64204 0.2515 0.51639 0.0
H810 H 0.62827 0.22513 0.4986 0.0
H811 H 0.62208 0.20929 0.51839 0.0
C812 C 0.5742 0.13151 0.49756 0.0
C813 C 0.55845 0.11146 0.50954 0.0
C814 C 0.57519 0.16396 0.49787 0.0
C815 C 0.56111 0.17726 0.51039 0.0
C816 C 0.54504 0.15712 0.52226 0.0
H817 H 0.59895 0.37287 0.54646 0.0
H818 H 0.59784 0.31789 0.53865 0.0
C819 C 0.5436 0.12454 0.5218 0.0
C820 C 0.56282 0.21202 0.51116 0.0
H821 H 0.61378 0.28862 0.5132 0.0
C822 C 0.53487 0.22008 0.51235 0.0
C823 C 0.59166 0.23714 0.51154 0.0
C824 C 0.62272 0.2304 0.51132 0.0
C825 C 0.53495 0.25237 0.51426 0.0
C826 C 0.56377 0.2775 0.51445 0.0
C827 C 0.59166 0.26944 0.51287 0.0
C828 C 0.56587 0.31201 0.51806 0.0
C829 C 0.50424 0.25908 0.51686 0.0
C830 C 0.54907 0.32769 0.50879 0.0
C831 C 0.54917 0.35921 0.51346 0.0
C832 C 0.56635 0.37568 0.52739 0.0
C833 C 0.58475 0.36062 0.53594 0.0
C834 C 0.58437 0.32918 0.53139 0.0
H835 H 0.48559 0.23728 0.52029 0.0
H836 H 0.50672 0.2786 0.5265 0.0
H837 H 0.49645 0.26691 0.50542 0.0
H838 H 0.53535 0.31534 0.49815 0.0
H839 H 0.53486 0.37013 0.50656 0.0
H840 H 0.45512 0.62253 0.78333 0.0
H841 H 0.43842 0.67024 0.78989 0.0
H842 H 0.35232 0.60953 0.80808 0.0
H843 H 0.36919 0.56261 0.80297 0.0
H844 H 0.35661 0.67241 0.78568 0.0
H845 H 0.42491 0.68778 0.84376 0.0
H846 H 0.44058 0.68066 0.8243 0.0
H847 H 0.41325 0.64796 0.83372 0.0
C848 C 0.43252 0.61917 0.78865 0.0
C849 C 0.4139 0.58832 0.79286 0.0
C850 C 0.42296 0.64654 0.79219 0.0
C851 C 0.39428 0.64323 0.7995 0.0
C852 C 0.37453 0.61242 0.80233 0.0
H853 H 0.2466 0.63289 0.83887 0.0
H854 H 0.2901 0.6464 0.8209 0.0
C855 C 0.38424 0.58537 0.79919 0.0
C856 C 0.3855 0.67103 0.80645 0.0
H857 H 0.37436 0.69554 0.84513 0.0
C858 C 0.3615 0.67919 0.79851 0.0
C859 C 0.39249 0.68072 0.82304 0.0
C860 C 0.41939 0.67413 0.83176 0.0
C861 C 0.34096 0.69172 0.80741 0.0
C862 C 0.34404 0.69478 0.82456 0.0
C863 C 0.37141 0.69235 0.83202 0.0
C864 C 0.31615 0.69044 0.83468 0.0
C865 C 0.3141 0.69805 0.79854 0.0
C866 C 0.31653 0.71007 0.84885 0.0
C867 C 0.29131 0.70218 0.85936 0.0
C868 C 0.26555 0.67444 0.85588 0.0
C869 C 0.26547 0.65501 0.84169 0.0
C870 C 0.29038 0.66287 0.83128 0.0
H871 H 0.32204 0.70929 0.78697 0.0
H872 H 0.29567 0.67481 0.79542 0.0
H873 H 0.30383 0.7141 0.80599 0.0
H874 H 0.33652 0.73104 0.85191 0.0
H875 H 0.29205 0.71759 0.87021 0.0
H876 H 0.91487 0.2892 0.15187 0.0
H877 H 0.86416 0.24835 0.15509 0.0
H878 H 0.84663 0.30464 0.19647 0.0
H879 H 0.89702 0.34566 0.19324 0.0
H880 H 0.84587 0.21388 0.18387 0.0
H881 H 0.76526 0.28263 0.16791 0.0
H882 H 0.80568 0.29413 0.16211 0.0
H883 H 0.79581 0.30366 0.18243 0.0
C884 C 0.89997 0.29308 0.16149 0.0
C885 C 0.90991 0.32063 0.17231 0.0
C886 C 0.87111 0.26969 0.16335 0.0
C887 C 0.85152 0.27369 0.17589 0.0
C888 C 0.8612 0.30135 0.18656 0.0
H889 H 0.68753 0.17324 0.22383 0.0
H890 H 0.73241 0.21136 0.21207 0.0
C891 C 0.89011 0.3246 0.18479 0.0
C892 C 0.82185 0.24811 0.17854 0.0
H893 H 0.74319 0.23443 0.18164 0.0
C894 C 0.82331 0.2181 0.18315 0.0
C895 C 0.79256 0.25382 0.1776 0.0
C896 C 0.78956 0.2852 0.1721 0.0
C897 C 0.79641 0.19416 0.18766 0.0
C898 C 0.76716 0.20019 0.18717 0.0
C899 C 0.7656 0.22983 0.182 0.0
C900 C 0.73847 0.17722 0.1933 0.0
C901 C 0.79982 0.16332 0.19372 0.0
C902 C 0.72639 0.14553 0.18639 0.0
C903 C 0.70086 0.12347 0.19324 0.0
C904 C 0.6869 0.13282 0.20706 0.0
C905 C 0.69816 0.16504 0.21342 0.0
C906 C 0.72367 0.18695 0.20662 0.0
H907 H 0.82461 0.16544 0.19666 0.0
H908 H 0.78593 0.15649 0.20473 0.0
H909 H 0.79102 0.14351 0.18417 0.0
H910 H 0.73705 0.13769 0.17589 0.0
H911 H 0.69277 0.09886 0.18805 0.0
H912 H 1.04921 0.52813 0.10848 0.0
H913 H 0.06519 0.54828 0.08183 0.0
H914 H 0.12402 0.48648 0.0772 0.0
H915 H 0.10742 0.46563 0.10366 0.0
H916 H 0.12299 0.58013 0.07122 0.0
H917 H 0.07358 0.46373 0.035 0.0
H918 H 0.06414 0.46924 0.05593 0.0
H919 H 0.1006 0.46244 0.05094 0.0
C920 C 0.06533 0.51866 0.1017 0.0
C921 C 0.07685 0.49511 0.10802 0.0
C922 C 0.07455 0.53026 0.08652 0.0
C923 C 0.09546 0.51856 0.07742 0.0
C924 C 0.1073 0.49531 0.08383 0.0
H925 H 0.16264 0.56265 0.97952 0.0
H926 H 0.16136 0.54833 0.00795 0.0
C927 C 0.09788 0.48349 0.09896 0.0
C928 C 0.10496 0.53097 0.06129 0.0
H929 H 0.10323 0.50809 0.02093 0.0
C930 C 0.11876 0.56436 0.06023 0.0
C931 C 0.09947 0.51035 0.04696 0.0
C932 C 0.08338 0.47449 0.04718 0.0
C933 C 0.12689 0.5777 0.04521 0.0
C934 C 0.12098 0.55714 0.03091 0.0
C935 C 0.10797 0.52372 0.03198 0.0
C936 C 0.12536 0.56987 0.01458 0.0
C937 C 0.14153 0.6137 0.04469 0.0
C938 C 0.10592 0.58713 0.00905 0.0
C939 C 0.10648 0.59509 0.99289 0.0
C940 C 0.12658 0.58603 0.982 0.0
C941 C 0.1472 0.5702 0.98774 0.0
C942 C 0.14638 0.5619 0.0039 0.0
H943 H 0.1517 0.62502 0.05672 0.0
H944 H 0.16015 0.61942 0.03559 0.0
H945 H 0.12334 0.62466 0.0411 0.0
H946 H 0.08922 0.59308 0.01703 0.0
H947 H 0.09036 0.6073 0.98874 0.0
H948 H 0.57038 0.98 0.46119 0.0
H949 H 0.57708 0.98109 0.43174 0.0
H950 H 0.51085 0.0344 0.42812 0.0
H951 H 0.50396 0.03331 0.45752 0.0
H952 H 0.52666 0.95604 0.40732 0.0
H953 H 0.58947 0.08665 0.40347 0.0
H954 H 0.58787 0.06624 0.42205 0.0
H955 H 0.55473 0.07745 0.41524 0.0
C956 C 0.55738 0.99206 0.4541 0.0
C957 C 0.53659 1.00651 0.46157 0.0
C958 C 0.56124 0.99268 0.43733 0.0
C959 C 0.5447 0.00811 0.42784 0.0
C960 C 0.52414 0.02277 0.4353 0.0
H961 H 0.49729 0.99134 0.32593 0.0
H962 H 0.49846 0.99247 0.35558 0.0
C963 C 0.5201 0.02197 0.45205 0.0
C964 C 0.54774 0.00759 0.41002 0.0
H965 H 0.57078 0.05624 0.37855 0.0
C966 C 0.5365 0.97788 0.40102 0.0
C967 C 0.56081 0.03613 0.40191 0.0
C968 C 0.57418 0.06845 0.41112 0.0
C969 C 0.53715 0.97609 0.38401 0.0
C970 C 0.54922 1.00476 0.37587 0.0
C971 C 0.56133 0.03436 0.38488 0.0
C972 C 0.54877 1.00445 0.35796 0.0
C973 C 0.52485 0.9436 0.37483 0.0
C974 C 0.57676 0.01128 0.34955 0.0
C975 C 0.57619 0.01031 0.33258 0.0
C976 C 0.5476 1.00277 0.32375 0.0
C977 C 0.51966 0.99655 0.33231 0.0
C978 C 0.52026 0.99734 0.34925 0.0
H979 H 0.52232 0.92342 0.38288 0.0
H980 H 0.50152 0.94116 0.36931 0.0
H981 H 0.5406 0.94136 0.36486 0.0
H982 H 0.59899 0.01686 0.35612 0.0
H983 H 0.59811 0.01487 0.3264 0.0
H984 H 0.52708 0.51394 0.79464 0.0
H985 H 0.523 0.51486 0.76507 0.0
H986 H 0.62239 0.53096 0.76227 0.0
H987 H 0.62634 0.52947 0.79188 0.0
H988 H 0.59528 0.57322 0.74362 0.0
H989 H 0.53472 0.44153 0.7324 0.0
H990 H 0.51871 0.46274 0.7476 0.0
H991 H 0.55672 0.4584 0.75098 0.0
C992 C 0.54784 0.51702 0.7877 0.0
C993 C 0.57678 0.52081 0.79547 0.0
C994 C 0.54558 0.51784 0.77084 0.0
C995 C 0.57236 0.52261 0.76153 0.0
C996 C 0.60147 0.52712 0.76929 0.0
H997 H 0.59646 0.49022 0.65979 0.0
H998 H 0.59874 0.49446 0.68943 0.0
C999 C 0.60366 0.52618 0.78615 0.0
C1000 C 0.56998 0.52258 0.74367 0.0
H1001 H 0.5425 0.47322 0.70967 0.0
C1002 C 0.58367 0.55144 0.73616 0.0
C1003 C 0.55493 0.49403 0.73406 0.0
C1004 C 0.54057 0.46228 0.74158 0.0
C1005 C 0.58265 0.55247 0.71919 0.0
C1006 C 0.56757 0.52391 0.70961 0.0
C1007 C 0.55388 0.49508 0.71712 0.0
C1008 C 0.56698 0.52297 0.69169 0.0
C1009 C 0.59824 0.58378 0.71156 0.0
C1010 C 0.54839 0.53774 0.6832 0.0
C1011 C 0.54671 0.53505 0.66621 0.0
C1012 C 0.56358 0.51749 0.65749 0.0
C1013 C 0.58268 0.50336 0.66612 0.0
C1014 C 0.5842 0.50593 0.68305 0.0
H1015 H 0.61257 0.60261 0.72054 0.0
H1016 H 0.61345 0.57985 0.70164 0.0
H1017 H 0.58008 0.59289 0.70614 0.0
H1018 H 0.53469 0.55072 0.68972 0.0
H1019 H 0.53155 0.54594 0.65994 0.0
H1020 H 0.54283 0.03864 0.55316 0.0
H1021 H 0.53581 0.03582 0.58253 0.0
H1022 H 0.60385 0.98445 0.58537 0.0
H1023 H 0.61136 0.98772 0.55613 0.0
H1024 H 0.51701 0.9825 0.60133 0.0
H1025 H 0.63732 0.05919 0.61933 0.0
H1026 H 0.62131 0.05675 0.59897 0.0
H1027 H 0.63604 0.02536 0.60558 0.0
C1028 C 0.55635 0.02687 0.56009 0.0
C1029 C 0.5779 0.01371 0.55245 0.0
C1030 C 0.55227 0.0252 0.57683 0.0
C1031 C 0.56973 0.01044 0.58616 0.0
C1032 C 0.59069 0.99662 0.57846 0.0
H1033 H 0.58162 0.98001 0.68891 0.0
H1034 H 0.58474 0.97724 0.65925 0.0
C1035 C 0.59485 0.99837 0.56175 0.0
C1036 C 0.56595 0.00936 0.60395 0.0
H1037 H 0.60585 0.03249 0.6403 0.0
C1038 C 0.53638 0.99352 0.60987 0.0
C1039 C 0.59129 0.02378 0.61505 0.0
C1040 C 0.62321 0.0425 0.60946 0.0
C1041 C 0.53159 0.9913 0.6266 0.0
C1042 C 0.55697 1.00559 0.63766 0.0
C1043 C 0.58652 0.02137 0.63176 0.0
C1044 C 0.55327 1.00532 0.65545 0.0
C1045 C 0.49958 0.97329 0.63233 0.0
C1046 C 0.53451 0.02198 0.66308 0.0
C1047 C 0.53268 0.0236 0.67998 0.0
C1048 C 0.54965 0.00863 0.68955 0.0
C1049 C 0.56802 0.99148 0.68185 0.0
C1050 C 0.56995 0.99001 0.66494 0.0
H1051 H 0.48482 0.95726 0.62244 0.0
H1052 H 0.50137 0.95851 0.64261 0.0
H1053 H 0.4876 0.99093 0.63663 0.0
H1054 H 0.52182 0.03435 0.65599 0.0
H1055 H 0.51814 0.03676 0.68556 0.0
H1056 H 0.56641 0.53263 0.88278 0.0
H1057 H 0.57798 0.53126 0.91162 0.0
H1058 H 0.49328 0.45187 0.91524 0.0
H1059 H 0.48301 0.4516 0.88602 0.0
H1060 H 0.54973 0.5435 0.93606 0.0
H1061 H 0.55048 0.41777 0.94006 0.0
H1062 H 0.54982 0.43531 0.92085 0.0
H1063 H 0.51404 0.41858 0.93136 0.0
C1064 C 0.55068 0.51435 0.88965 0.0
C1065 C 0.52411 0.49183 0.88213 0.0
C1066 C 0.55719 0.51372 0.90618 0.0
C1067 C 0.53688 0.49105 0.91564 0.0
C1068 C 0.50997 0.46886 0.90816 0.0
H1069 H 0.5157 0.52211 0.01781 0.0
H1070 H 0.51509 0.52062 0.98839 0.0
C1071 C 0.50388 0.46894 0.89149 0.0
C1072 C 0.54282 0.49224 0.93348 0.0
H1073 H 0.54402 0.44558 0.96522 0.0
C1074 C 0.54888 0.52209 0.94236 0.0
C1075 C 0.54249 0.46458 0.9418 0.0
C1076 C 0.53922 0.43237 0.93297 0.0
C1077 C 0.55357 0.52487 0.95928 0.0
C1078 C 0.55062 0.49674 0.96772 0.0
C1079 C 0.54573 0.46709 0.95882 0.0
C1080 C 0.5512 0.49736 0.98575 0.0
C1081 C 0.56201 0.55808 0.96783 0.0
C1082 C 0.57077 0.48355 0.99417 0.0
C1083 C 0.5703 0.48321 0.01113 0.0
C1084 C 0.55033 0.49682 0.02001 0.0
C1085 C 0.53101 0.51086 0.01147 0.0
C1086 C 0.53107 0.51064 0.99457 0.0
H1087 H 0.5747 0.57691 0.95969 0.0
H1088 H 0.54028 0.56348 0.97136 0.0
H1089 H 0.57687 0.55986 0.9789 0.0
H1090 H 0.58632 0.47288 0.98763 0.0
H1091 H 0.58517 0.47173 0.01721 0.0
H1092 H 0.09285 0.48577 0.19784 0.0
H1093 H 0.0934 0.47968 0.2272 0.0
H1094 H 1.05063 0.55536 0.23471 0.0
H1095 H 1.05031 0.56179 0.20546 0.0
H1096 H 0.10352 0.56343 0.2546 0.0
H1097 H 1.01994 0.43991 0.25662 0.0
H1098 H 1.05153 0.44353 0.24295 0.0
H1099 H 1.02288 0.46357 0.2391 0.0
C1100 C 0.08336 0.50091 0.20577 0.0
C1101 C 0.0716 0.5243 0.19942 0.0
C1102 C 0.08353 0.49729 0.2225 0.0
C1103 C 0.07177 0.51686 0.23309 0.0
C1104 C 0.05974 0.53998 0.22673 0.0
H1105 H 1.02868 0.50534 0.33463 0.0
H1106 H 1.02768 0.50429 0.30496 0.0
C1107 C 0.05956 0.5436 0.21003 0.0
C1108 C 0.07332 0.51449 0.2509 0.0
H1109 H 1.04639 0.46415 0.28134 0.0
C1110 C 0.09107 0.54172 0.26046 0.0
C1111 C 0.05683 0.48621 0.25847 0.0
C1112 C 1.03648 0.45668 0.24881 0.0
C1113 C 0.09282 0.54147 0.27742 0.0
C1114 C 0.07675 0.51303 0.285 0.0
C1115 C 0.05891 0.4858 0.27546 0.0
C1116 C 0.0773 0.51163 0.30288 0.0
C1117 C 0.11124 0.57189 0.28713 0.0
C1118 C 0.10545 0.51544 0.31149 0.0
C1119 C 0.10611 0.51596 0.32844 0.0
C1120 C 0.07856 0.51249 0.33708 0.0
C1121 C 1.05025 0.50776 0.32835 0.0
C1122 C 1.04964 0.50727 0.31141 0.0
H1123 H 0.11618 0.59344 0.27983 0.0
H1124 H 0.09846 0.57608 0.29806 0.0
H1125 H 0.13395 0.56936 0.29123 0.0
H1126 H 0.12696 0.51824 0.30509 0.0
H1127 H 0.12818 0.51905 0.33478 0.0
loop_
_geom_bond_atom_site_label_1
_geom_bond_atom_site_label_2
_geom_bond_distance
_geom_bond_site_symmetry_2
_ccdc_geom_bond_type
Nd0 C2 2.836 . S
Nd0 O20 2.500 . S
Nd0 O21 2.492 . S
Nd0 O22 2.487 . S
Nd0 O23 2.682 . S
Nd0 O24 2.410 . S
Nd0 O29 2.414 . S
Nd0 O31 2.424 1_455 S
Nd1 C11 2.836 1_455 S
Nd1 O23 2.414 . S
Nd1 O25 2.424 . S
Nd1 O26 2.500 1_455 S
Nd1 O27 2.492 1_455 S
Nd1 O28 2.487 . S
Nd1 O29 2.682 . S
Nd1 O30 2.410 1_455 S
C2 Nd0 2.836 . S
C2 C3 1.498 . S
C2 O20 1.258 . S
C2 O21 1.239 . S
C3 C2 1.498 . S
C3 C4 1.366 . S
C3 C8 1.407 . S
C4 C3 1.366 . S
C4 C5 1.392 . S
C4 H32 0.930 . S
C5 C4 1.392 . S
C5 C6 1.398 . S
C5 H33 0.929 . S
C6 C5 1.398 . S
C6 C7 1.352 . S
C7 C6 1.352 . S
C7 C8 1.384 . S
C7 H34 0.930 . S
C8 C3 1.407 . S
C8 C7 1.384 . S
C8 H35 0.929 . S
C9 O22 1.241 . S
C9 O23 1.273 . S
C10 O24 1.251 . S
C10 O25 1.268 . S
C11 Nd1 2.836 1_655 S
C11 C12 1.498 . S
C11 O26 1.258 . S
C11 O27 1.239 . S
C12 C11 1.498 . S
C12 C13 1.366 . S
C12 C17 1.407 . S
C13 C12 1.366 . S
C13 C14 1.392 . S
C13 H36 0.930 . S
C14 C13 1.392 . S
C14 C15 1.398 . S
C14 H37 0.929 . S
C15 C14 1.398 . S
C15 C16 1.352 . S
C16 C15 1.352 . S
C16 C17 1.384 . S
C16 H38 0.930 . S
C17 C12 1.407 . S
C17 C16 1.384 . S
C17 H39 0.929 . S
C18 O28 1.241 . S
C18 O29 1.273 . S
C19 O30 1.251 . S
C19 O31 1.268 . S
O20 Nd0 2.500 . S
O20 C2 1.258 . S
O21 Nd0 2.492 . S
O21 C2 1.239 . S
O22 Nd0 2.487 . S
O22 C9 1.241 . S
O23 Nd0 2.682 . S
O23 Nd1 2.414 . S
O23 C9 1.273 . S
O24 Nd0 2.410 . S
O24 C10 1.251 . S
O25 Nd1 2.424 . S
O25 C10 1.268 . S
O26 Nd1 2.500 1_655 S
O26 C11 1.258 . S
O27 Nd1 2.492 1_655 S
O27 C11 1.239 . S
O28 Nd1 2.487 . S
O28 C18 1.241 . S
O29 Nd0 2.414 . S
O29 Nd1 2.682 . S
O29 C18 1.273 . S
O30 Nd1 2.410 1_655 S
O30 C19 1.251 . S
O31 Nd0 2.424 1_655 S
O31 C19 1.268 . S
H32 C4 0.930 . S
H33 C5 0.929 . S
H34 C7 0.930 . S
H35 C8 0.929 . S
H36 C13 0.930 . S
H37 C14 0.929 . S
H38 C16 0.930 . S
H39 C17 0.929 . S
Nd40 C42 2.836 1_545 S
Nd40 O60 2.500 1_545 S
Nd40 O61 2.492 1_545 S
Nd40 O62 2.487 . S
Nd40 O63 2.682 . S
Nd40 O64 2.410 1_545 S
Nd40 O69 2.414 . S
Nd40 O71 2.424 . S
Nd41 C51 2.836 . S
Nd41 O63 2.414 . S
Nd41 O65 2.424 1_545 S
Nd41 O66 2.500 . S
Nd41 O67 2.492 . S
Nd41 O68 2.487 . S
Nd41 O69 2.682 . S
Nd41 O70 2.410 . S
C42 Nd40 2.836 1_565 S
C42 C43 1.498 . S
C42 O60 1.258 . S
C42 O61 1.239 . S
C43 C42 1.498 . S
C43 C44 1.366 . S
C43 C48 1.407 . S
C44 C43 1.366 . S
C44 C45 1.392 . S
C44 H72 0.930 . S
C45 C44 1.392 . S
C45 C46 1.398 . S
C45 H73 0.929 . S
C46 C45 1.398 . S
C46 C47 1.352 . S
C47 C46 1.352 . S
C47 C48 1.384 . S
C47 H74 0.930 . S
C48 C43 1.407 . S
C48 C47 1.384 . S
C48 H75 0.929 . S
C49 O62 1.241 . S
C49 O63 1.273 . S
C50 O64 1.251 . S
C50 O65 1.268 . S
C51 Nd41 2.836 . S
C51 C52 1.498 . S
C51 O66 1.258 . S
C51 O67 1.239 . S
C52 C51 1.498 . S
C52 C53 1.366 . S
C52 C57 1.407 . S
C53 C52 1.366 . S
C53 C54 1.392 . S
C53 H76 0.930 . S
C54 C53 1.392 . S
C54 C55 1.398 . S
C54 H77 0.929 . S
C55 C54 1.398 . S
C55 C56 1.352 . S
C56 C55 1.352 . S
C56 C57 1.384 . S
C56 H78 0.930 . S
C57 C52 1.407 . S
C57 C56 1.384 . S
C57 H79 0.929 . S
C58 O68 1.241 . S
C58 O69 1.273 . S
C59 O70 1.251 . S
C59 O71 1.268 . S
O60 Nd40 2.500 1_565 S
O60 C42 1.258 . S
O61 Nd40 2.492 1_565 S
O61 C42 1.239 . S
O62 Nd40 2.487 . S
O62 C49 1.241 . S
O63 Nd40 2.682 . S
O63 Nd41 2.414 . S
O63 C49 1.273 . S
O64 Nd40 2.410 1_565 S
O64 C50 1.251 . S
O65 Nd41 2.424 1_565 S
O65 C50 1.268 . S
O66 Nd41 2.500 . S
O66 C51 1.258 . S
O67 Nd41 2.492 . S
O67 C51 1.239 . S
O68 Nd41 2.487 . S
O68 C58 1.241 . S
O69 Nd40 2.414 . S
O69 Nd41 2.682 . S
O69 C58 1.273 . S
O70 Nd41 2.410 . S
O70 C59 1.251 . S
O71 Nd40 2.424 . S
O71 C59 1.268 . S
H72 C44 0.930 . S
H73 C45 0.929 . S
H74 C47 0.930 . S
H75 C48 0.929 . S
H76 C53 0.930 . S
H77 C54 0.929 . S
H78 C56 0.930 . S
H79 C57 0.929 . S
Nd80 C82 2.836 . S
Nd80 O100 2.500 . S
Nd80 O101 2.492 . S
Nd80 O102 2.487 . S
Nd80 O103 2.682 . S
Nd80 O104 2.410 . S
Nd80 O109 2.414 . S
Nd80 O111 2.424 . S
Nd81 C91 2.836 . S
Nd81 O103 2.414 . S
Nd81 O105 2.424 . S
Nd81 O106 2.500 . S
Nd81 O107 2.492 . S
Nd81 O108 2.487 . S
Nd81 O109 2.682 . S
Nd81 O110 2.410 . S
C82 Nd80 2.836 . S
C82 C83 1.498 . S
C82 O100 1.258 . S
C82 O101 1.239 . S
C83 C82 1.498 . S
C83 C84 1.366 . S
C83 C88 1.407 . S
C84 C83 1.366 . S
C84 C85 1.392 . S
C84 H112 0.930 . S
C85 C84 1.392 . S
C85 C86 1.398 . S
C85 H113 0.929 . S
C86 C85 1.398 . S
C86 C87 1.352 . S
C87 C86 1.352 . S
C87 C88 1.384 . S
C87 H114 0.930 . S
C88 C83 1.407 . S
C88 C87 1.384 . S
C88 H115 0.929 . S
C89 O102 1.241 . S
C89 O103 1.273 . S
C90 O104 1.251 . S
C90 O105 1.268 . S
C91 Nd81 2.836 . S
C91 C92 1.498 . S
C91 O106 1.258 . S
C91 O107 1.239 . S
C92 C91 1.498 . S
C92 C93 1.366 . S
C92 C97 1.407 . S
C93 C92 1.366 . S
C93 C94 1.392 . S
C93 H116 0.930 . S
C94 C93 1.392 . S
C94 C95 1.398 . S
C94 H117 0.929 . S
C95 C94 1.398 . S
C95 C96 1.352 . S
C96 C95 1.352 . S
C96 C97 1.384 . S
C96 H118 0.930 . S
C97 C92 1.407 . S
C97 C96 1.384 . S
C97 H119 0.929 . S
C98 O108 1.241 . S
C98 O109 1.273 . S
C99 O110 1.251 . S
C99 O111 1.268 . S
O100 Nd80 2.500 . S
O100 C82 1.258 . S
O101 Nd80 2.492 . S
O101 C82 1.239 . S
O102 Nd80 2.487 . S
O102 C89 1.241 . S
O103 Nd80 2.682 . S
O103 Nd81 2.414 . S
O103 C89 1.273 . S
O104 Nd80 2.410 . S
O104 C90 1.251 . S
O105 Nd81 2.424 . S
O105 C90 1.268 . S
O106 Nd81 2.500 . S
O106 C91 1.258 . S
O107 Nd81 2.492 . S
O107 C91 1.239 . S
O108 Nd81 2.487 . S
O108 C98 1.241 . S
O109 Nd80 2.414 . S
O109 Nd81 2.682 . S
O109 C98 1.273 . S
O110 Nd81 2.410 . S
O110 C99 1.251 . S
O111 Nd80 2.424 . S
O111 C99 1.268 . S
H112 C84 0.930 . S
H113 C85 0.929 . S
H114 C87 0.930 . S
H115 C88 0.929 . S
H116 C93 0.930 . S
H117 C94 0.929 . S
H118 C96 0.930 . S
H119 C97 0.929 . S
C120 C121 1.391 . S
C120 C124 1.391 . S
C120 H162 0.948 . S
C121 C120 1.391 . S
C121 C122 1.391 . S
C122 C121 1.391 . S
C122 H178 0.947 . S
C122 C179 1.392 . S
C123 C124 1.391 . S
C123 C127 1.397 . S
C123 C179 1.419 . S
C124 C120 1.391 . S
C124 C123 1.391 . S
C124 C125 1.399 . S
C125 C124 1.399 . S
C125 C128 1.396 . S
C125 C137 1.453 . S
C125 C138 1.684 . S
H126 C150 0.948 . S
C127 C123 1.397 . S
C127 C128 1.394 . S
C127 C146 1.723 . S
C128 C125 1.396 . S
C128 C127 1.394 . S
C128 C158 1.723 . S
H129 C152 0.947 . S
H130 C153 0.948 . S
H131 C159 0.982 . S
H132 C160 0.979 . S
H133 C160 0.980 . S
H134 C160 0.983 . S
H135 C159 0.979 . S
H136 C159 0.977 . S
C137 C125 1.453 . S
C137 H166 0.982 . S
C137 H167 0.979 . S
C137 H168 0.977 . S
C138 C125 1.684 . S
C138 H163 0.979 . S
C138 H164 0.980 . S
C138 H165 0.983 . S
C139 C140 1.391 . S
C139 C144 1.391 . S
C139 H169 0.948 . S
C140 C139 1.391 . S
C140 C141 1.391 . S
C141 C140 1.391 . S
C141 C142 1.392 . S
C141 H170 0.947 1_545 S
C142 C141 1.392 . S
C142 C143 1.419 . S
C142 H171 0.948 1_545 S
C143 C142 1.419 . S
C143 C144 1.391 . S
C143 C147 1.397 . S
C144 C139 1.391 . S
C144 C143 1.391 . S
C144 C145 1.399 . S
C145 C144 1.399 . S
C145 C146 1.396 . S
C145 C148 1.453 . S
C145 C149 1.684 . S
C146 C127 1.723 . S
C146 C145 1.396 . S
C146 C147 1.394 . S
C147 C143 1.397 . S
C147 C146 1.394 . S
C147 C157 1.723 1_545 S
C148 C145 1.453 . S
C148 H172 0.982 . S
C148 H173 0.979 . S
C148 H174 0.977 . S
C149 C145 1.684 . S
C149 H175 0.979 . S
C149 H176 0.980 . S
C149 H177 0.983 . S
C150 H126 0.948 . S
C150 C151 1.391 . S
C150 C155 1.391 . S
C151 C150 1.391 . S
C151 C152 1.391 . S
C152 H129 0.947 . S
C152 C151 1.391 . S
C152 C153 1.392 . S
C153 H130 0.948 . S
C153 C152 1.392 . S
C153 C154 1.419 . S
C154 C153 1.419 . S
C154 C155 1.391 . S
C154 C158 1.397 1_565 S
C155 C150 1.391 . S
C155 C154 1.391 . S
C155 C156 1.399 . S
C156 C155 1.399 . S
C156 C157 1.396 . S
C156 C159 1.453 . S
C156 C160 1.684 . S
C157 C147 1.723 1_565 S
C157 C156 1.396 . S
C157 C158 1.394 1_565 S
C158 C128 1.723 . S
C158 C154 1.397 1_545 S
C158 C157 1.394 1_545 S
C159 H131 0.982 . S
C159 H135 0.979 . S
C159 H136 0.977 . S
C159 C156 1.453 . S
C160 H132 0.979 . S
C160 H133 0.980 . S
C160 H134 0.983 . S
C160 C156 1.684 . S
H161 C179 0.948 . S
H162 C120 0.948 . S
H163 C138 0.979 . S
H164 C138 0.980 . S
H165 C138 0.983 . S
H166 C137 0.982 . S
H167 C137 0.979 . S
H168 C137 0.977 . S
H169 C139 0.948 . S
H170 C141 0.947 1_565 S
H171 C142 0.948 1_565 S
H172 C148 0.982 . S
H173 C148 0.979 . S
H174 C148 0.977 . S
H175 C149 0.979 . S
H176 C149 0.980 . S
H177 C149 0.983 . S
H178 C122 0.947 . S
C179 C122 1.392 . S
C179 C123 1.419 . S
C179 H161 0.948 . S
C180 C181 1.391 . S
C180 C184 1.391 . S
C180 H222 0.948 . S
C181 C180 1.391 . S
C181 C182 1.391 . S
C182 C181 1.391 . S
C182 H238 0.947 . S
C182 C239 1.392 . S
C183 C184 1.391 . S
C183 C187 1.397 . S
C183 C239 1.419 . S
C184 C180 1.391 . S
C184 C183 1.391 . S
C184 C185 1.399 . S
C185 C184 1.399 . S
C185 C188 1.396 . S
C185 C197 1.453 . S
C185 C198 1.684 . S
H186 C210 0.948 . S
C187 C183 1.397 . S
C187 C188 1.394 . S
C187 C206 1.723 . S
C188 C185 1.396 . S
C188 C187 1.394 . S
C188 C218 1.723 . S
H189 C212 0.947 . S
H190 C213 0.948 . S
H191 C219 0.982 . S
H192 C220 0.979 . S
H193 C220 0.980 . S
H194 C220 0.983 . S
H195 C219 0.979 . S
H196 C219 0.977 . S
C197 C185 1.453 . S
C197 H226 0.982 . S
C197 H227 0.979 . S
C197 H228 0.977 . S
C198 C185 1.684 . S
C198 H223 0.979 . S
C198 H224 0.980 . S
C198 H225 0.983 . S
C199 C200 1.391 . S
C199 C204 1.391 . S
C199 H229 0.948 . S
C200 C199 1.391 . S
C200 C201 1.391 . S
C201 C200 1.391 . S
C201 C202 1.392 . S
C201 H230 0.947 . S
C202 C201 1.392 . S
C202 C203 1.419 . S
C202 H231 0.948 . S
C203 C202 1.419 . S
C203 C204 1.391 . S
C203 C207 1.397 . S
C204 C199 1.391 . S
C204 C203 1.391 . S
C204 C205 1.399 . S
C205 C204 1.399 . S
C205 C206 1.396 . S
C205 C208 1.453 . S
C205 C209 1.684 . S
C206 C187 1.723 . S
C206 C205 1.396 . S
C206 C207 1.394 . S
C207 C203 1.397 . S
C207 C206 1.394 . S
C207 C217 1.723 . S
C208 C205 1.453 . S
C208 H232 0.982 . S
C208 H233 0.979 . S
C208 H234 0.977 . S
C209 C205 1.684 . S
C209 H235 0.979 . S
C209 H236 0.980 . S
C209 H237 0.983 . S
C210 H186 0.948 . S
C210 C211 1.391 . S
C210 C215 1.391 . S
C211 C210 1.391 . S
C211 C212 1.391 . S
C212 H189 0.947 . S
C212 C211 1.391 . S
C212 C213 1.392 . S
C213 H190 0.948 . S
C213 C212 1.392 . S
C213 C214 1.419 . S
C214 C213 1.419 . S
C214 C215 1.391 . S
C214 C218 1.397 . S
C215 C210 1.391 . S
C215 C214 1.391 . S
C215 C216 1.399 . S
C216 C215 1.399 . S
C216 C217 1.396 . S
C216 C219 1.453 . S
C216 C220 1.684 . S
C217 C207 1.723 . S
C217 C216 1.396 . S
C217 C218 1.394 . S
C218 C188 1.723 . S
C218 C214 1.397 . S
C218 C217 1.394 . S
C219 H191 0.982 . S
C219 H195 0.979 . S
C219 H196 0.977 . S
C219 C216 1.453 . S
C220 H192 0.979 . S
C220 H193 0.980 . S
C220 H194 0.983 . S
C220 C216 1.684 . S
H221 C239 0.948 . S
H222 C180 0.948 . S
H223 C198 0.979 . S
H224 C198 0.980 . S
H225 C198 0.983 . S
H226 C197 0.982 . S
H227 C197 0.979 . S
H228 C197 0.977 . S
H229 C199 0.948 . S
H230 C201 0.947 . S
H231 C202 0.948 . S
H232 C208 0.982 . S
H233 C208 0.979 . S
H234 C208 0.977 . S
H235 C209 0.979 . S
H236 C209 0.980 . S
H237 C209 0.983 . S
H238 C182 0.947 . S
C239 C182 1.392 . S
C239 C183 1.419 . S
C239 H221 0.948 . S
C240 C241 1.391 . S
C240 C244 1.391 . S
C240 H282 0.948 . S
C241 C240 1.391 . S
C241 C242 1.391 . S
C242 C241 1.391 . S
C242 H298 0.947 . S
C242 C299 1.392 . S
C243 C244 1.391 . S
C243 C247 1.397 . S
C243 C299 1.419 . S
C244 C240 1.391 . S
C244 C243 1.391 . S
C244 C245 1.399 . S
C245 C244 1.399 . S
C245 C248 1.396 . S
C245 C257 1.453 . S
C245 C258 1.684 . S
H246 C270 0.948 . S
C247 C243 1.397 . S
C247 C248 1.394 . S
C247 C266 1.723 . S
C248 C245 1.396 . S
C248 C247 1.394 . S
C248 C278 1.723 . S
H249 C272 0.947 . S
H250 C273 0.948 1_455 S
H251 C279 0.982 . S
H252 C280 0.979 . S
H253 C280 0.980 . S
H254 C280 0.983 . S
H255 C279 0.979 . S
H256 C279 0.977 . S
C257 C245 1.453 . S
C257 H286 0.982 . S
C257 H287 0.979 . S
C257 H288 0.977 . S
C258 C245 1.684 . S
C258 H283 0.979 . S
C258 H284 0.980 . S
C258 H285 0.983 . S
C259 C260 1.391 . S
C259 C264 1.391 . S
C259 H289 0.948 . S
C260 C259 1.391 . S
C260 C261 1.391 . S
C261 C260 1.391 . S
C261 C262 1.392 . S
C261 H290 0.947 1_455 S
C262 C261 1.392 . S
C262 C263 1.419 . S
C262 H291 0.948 1_455 S
C263 C262 1.419 . S
C263 C264 1.391 . S
C263 C267 1.397 . S
C264 C259 1.391 . S
C264 C263 1.391 . S
C264 C265 1.399 . S
C265 C264 1.399 . S
C265 C266 1.396 . S
C265 C268 1.453 . S
C265 C269 1.684 . S
C266 C247 1.723 . S
C266 C265 1.396 . S
C266 C267 1.394 . S
C267 C263 1.397 . S
C267 C266 1.394 . S
C267 C277 1.723 . S
C268 C265 1.453 . S
C268 H292 0.982 . S
C268 H293 0.979 . S
C268 H294 0.977 . S
C269 C265 1.684 . S
C269 H295 0.979 . S
C269 H296 0.980 . S
C269 H297 0.983 . S
C270 H246 0.948 . S
C270 C271 1.391 . S
C270 C275 1.391 . S
C271 C270 1.391 . S
C271 C272 1.391 . S
C272 H249 0.947 . S
C272 C271 1.391 . S
C272 C273 1.392 . S
C273 H250 0.948 1_655 S
C273 C272 1.392 . S
C273 C274 1.419 . S
C274 C273 1.419 . S
C274 C275 1.391 . S
C274 C278 1.397 1_655 S
C275 C270 1.391 . S
C275 C274 1.391 . S
C275 C276 1.399 . S
C276 C275 1.399 . S
C276 C277 1.396 1_655 S
C276 C279 1.453 . S
C276 C280 1.684 . S
C277 C267 1.723 . S
C277 C276 1.396 1_455 S
C277 C278 1.394 . S
C278 C248 1.723 . S
C278 C274 1.397 1_455 S
C278 C277 1.394 . S
C279 H251 0.982 . S
C279 H255 0.979 . S
C279 H256 0.977 . S
C279 C276 1.453 . S
C280 H252 0.979 . S
C280 H253 0.980 . S
C280 H254 0.983 . S
C280 C276 1.684 . S
H281 C299 0.948 . S
H282 C240 0.948 . S
H283 C258 0.979 . S
H284 C258 0.980 . S
H285 C258 0.983 . S
H286 C257 0.982 . S
H287 C257 0.979 . S
H288 C257 0.977 . S
H289 C259 0.948 . S
H290 C261 0.947 1_655 S
H291 C262 0.948 1_655 S
H292 C268 0.982 . S
H293 C268 0.979 . S
H294 C268 0.977 . S
H295 C269 0.979 . S
H296 C269 0.980 . S
H297 C269 0.983 . S
H298 C242 0.947 . S
C299 C242 1.392 . S
C299 C243 1.419 . S
C299 H281 0.948 . S
C300 C301 1.391 . S
C300 C304 1.391 . S
C300 H342 0.948 . S
C301 C300 1.391 . S
C301 C302 1.391 . S
C302 C301 1.391 . S
C302 H358 0.947 . S
C302 C359 1.392 . S
C303 C304 1.391 . S
C303 C307 1.397 . S
C303 C359 1.419 . S
C304 C300 1.391 . S
C304 C303 1.391 . S
C304 C305 1.399 . S
C305 C304 1.399 . S
C305 C308 1.396 . S
C305 C317 1.453 . S
C305 C318 1.684 . S
H306 C330 0.948 . S
C307 C303 1.397 . S
C307 C308 1.394 . S
C307 C326 1.723 . S
C308 C305 1.396 . S
C308 C307 1.394 . S
C308 C338 1.723 1_655 S
H309 C332 0.947 . S
H310 C333 0.948 . S
H311 C339 0.982 . S
H312 C340 0.979 . S
H313 C340 0.980 . S
H314 C340 0.983 . S
H315 C339 0.979 . S
H316 C339 0.977 . S
C317 C305 1.453 . S
C317 H346 0.982 1_655 S
C317 H347 0.979 . S
C317 H348 0.977 1_655 S
C318 C305 1.684 . S
C318 H343 0.979 . S
C318 H344 0.980 . S
C318 H345 0.983 . S
C319 C320 1.391 1_655 S
C319 C324 1.391 . S
C319 H349 0.948 . S
C320 C319 1.391 1_455 S
C320 C321 1.391 . S
C321 C320 1.391 . S
C321 C322 1.392 . S
C321 H350 0.947 . S
C322 C321 1.392 . S
C322 C323 1.419 . S
C322 H351 0.948 . S
C323 C322 1.419 . S
C323 C324 1.391 1_455 S
C323 C327 1.397 . S
C324 C319 1.391 . S
C324 C323 1.391 1_655 S
C324 C325 1.399 . S
C325 C324 1.399 . S
C325 C326 1.396 . S
C325 C328 1.453 . S
C325 C329 1.684 . S
C326 C307 1.723 . S
C326 C325 1.396 . S
C326 C327 1.394 1_655 S
C327 C323 1.397 . S
C327 C326 1.394 1_455 S
C327 C337 1.723 . S
C328 C325 1.453 . S
C328 H352 0.982 . S
C328 H353 0.979 . S
C328 H354 0.977 . S
C329 C325 1.684 . S
C329 H355 0.979 . S
C329 H356 0.980 . S
C329 H357 0.983 . S
C330 H306 0.948 . S
C330 C331 1.391 . S
C330 C335 1.391 . S
C331 C330 1.391 . S
C331 C332 1.391 . S
C332 H309 0.947 . S
C332 C331 1.391 . S
C332 C333 1.392 . S
C333 H310 0.948 . S
C333 C332 1.392 . S
C333 C334 1.419 . S
C334 C333 1.419 . S
C334 C335 1.391 . S
C334 C338 1.397 . S
C335 C330 1.391 . S
C335 C334 1.391 . S
C335 C336 1.399 . S
C336 C335 1.399 . S
C336 C337 1.396 . S
C336 C339 1.453 . S
C336 C340 1.684 . S
C337 C327 1.723 . S
C337 C336 1.396 . S
C337 C338 1.394 . S
C338 C308 1.723 1_455 S
C338 C334 1.397 . S
C338 C337 1.394 . S
C339 H311 0.982 . S
C339 H315 0.979 . S
C339 H316 0.977 . S
C339 C336 1.453 . S
C340 H312 0.979 . S
C340 H313 0.980 . S
C340 H314 0.983 . S
C340 C336 1.684 . S
H341 C359 0.948 . S
H342 C300 0.948 . S
H343 C318 0.979 . S
H344 C318 0.980 . S
H345 C318 0.983 . S
H346 C317 0.982 1_455 S
H347 C317 0.979 . S
H348 C317 0.977 1_455 S
H349 C319 0.948 . S
H350 C321 0.947 . S
H351 C322 0.948 . S
H352 C328 0.982 . S
H353 C328 0.979 . S
H354 C328 0.977 . S
H355 C329 0.979 . S
H356 C329 0.980 . S
H357 C329 0.983 . S
H358 C302 0.947 . S
C359 C302 1.392 . S
C359 C303 1.419 . S
C359 H341 0.948 . S
C360 C361 1.391 . S
C360 C364 1.391 . S
C360 H402 0.948 . S
C361 C360 1.391 . S
C361 C362 1.391 . S
C362 C361 1.391 . S
C362 H418 0.947 . S
C362 C419 1.392 . S
C363 C364 1.391 . S
C363 C367 1.397 . S
C363 C419 1.419 . S
C364 C360 1.391 . S
C364 C363 1.391 . S
C364 C365 1.399 . S
C365 C364 1.399 . S
C365 C368 1.376 1_565 S
C365 C377 1.453 1_565 S
C365 C378 1.684 . S
H366 C390 0.948 . S
C367 C363 1.397 . S
C367 C368 1.371 1_565 S
C367 C386 1.723 . S
C368 C365 1.376 1_545 S
C368 C367 1.371 1_545 S
C368 C398 1.759 . S
H369 C392 0.947 . S
H370 C393 0.948 . S
H371 C399 0.982 . S
H372 C400 0.979 . S
H373 C400 0.980 . S
H374 C400 0.983 . S
H375 C399 0.979 . S
H376 C399 0.977 . S
C377 C365 1.453 1_545 S
C377 H406 0.982 . S
C377 H407 0.979 1_545 S
C377 H408 0.977 . S
C378 C365 1.684 . S
C378 H403 0.979 . S
C378 H404 0.980 1_565 S
C378 H405 0.983 . S
C379 C380 1.391 1_565 S
C379 C384 1.391 . S
C379 H409 0.948 . S
C380 C379 1.391 1_545 S
C380 C381 1.391 . S
C381 C380 1.391 . S
C381 C382 1.392 . S
C381 H410 0.947 . S
C382 C381 1.392 . S
C382 C383 1.419 . S
C382 H411 0.948 . S
C383 C382 1.419 . S
C383 C384 1.391 1_545 S
C383 C387 1.397 . S
C384 C379 1.391 . S
C384 C383 1.391 1_565 S
C384 C385 1.399 . S
C385 C384 1.399 . S
C385 C386 1.396 . S
C385 C388 1.453 . S
C385 C389 1.684 . S
C386 C367 1.723 . S
C386 C385 1.396 . S
C386 C387 1.394 1_565 S
C387 C383 1.397 . S
C387 C386 1.394 1_545 S
C387 C397 1.723 . S
C388 C385 1.453 . S
C388 H412 0.982 . S
C388 H413 0.979 . S
C388 H414 0.977 . S
C389 C385 1.684 . S
C389 H415 0.979 . S
C389 H416 0.980 . S
C389 H417 0.983 . S
C390 H366 0.948 . S
C390 C391 1.391 . S
C390 C395 1.391 . S
C391 C390 1.391 . S
C391 C392 1.391 . S
C392 H369 0.947 . S
C392 C391 1.391 . S
C392 C393 1.392 . S
C393 H370 0.948 . S
C393 C392 1.392 . S
C393 C394 1.419 . S
C394 C393 1.419 . S
C394 C395 1.391 . S
C394 C398 1.397 . S
C395 C390 1.391 . S
C395 C394 1.391 . S
C395 C396 1.399 . S
C396 C395 1.399 . S
C396 C397 1.396 . S
C396 C399 1.453 . S
C396 C400 1.684 . S
C397 C387 1.723 . S
C397 C396 1.396 . S
C397 C398 1.394 . S
C398 C368 1.759 . S
C398 C394 1.397 . S
C398 C397 1.394 . S
C399 H371 0.982 . S
C399 H375 0.979 . S
C399 H376 0.977 . S
C399 C396 1.453 . S
C400 H372 0.979 . S
C400 H373 0.980 . S
C400 H374 0.983 . S
C400 C396 1.684 . S
H401 C419 0.948 . S
H402 C360 0.948 . S
H403 C378 0.979 . S
H404 C378 0.980 1_545 S
H405 C378 0.983 . S
H406 C377 0.982 . S
H407 C377 0.979 1_565 S
H408 C377 0.977 . S
H409 C379 0.948 . S
H410 C381 0.947 . S
H411 C382 0.948 . S
H412 C388 0.982 . S
H413 C388 0.979 . S
H414 C388 0.977 . S
H415 C389 0.979 . S
H416 C389 0.980 . S
H417 C389 0.983 . S
H418 C362 0.947 . S
C419 C362 1.392 . S
C419 C363 1.419 . S
C419 H401 0.948 . S
C420 C421 1.391 . S
C420 C424 1.391 . S
C420 H462 0.948 . S
C421 C420 1.391 . S
C421 C422 1.391 . S
C422 C421 1.391 . S
C422 H478 0.947 . S
C422 C479 1.392 . S
C423 C424 1.391 . S
C423 C427 1.397 . S
C423 C479 1.419 . S
C424 C420 1.391 . S
C424 C423 1.391 . S
C424 C425 1.399 . S
C425 C424 1.399 . S
C425 C428 1.396 . S
C425 C437 1.453 . S
C425 C438 1.684 . S
H426 C450 0.948 . S
C427 C423 1.397 . S
C427 C428 1.394 . S
C427 C446 1.723 . S
C428 C425 1.396 . S
C428 C427 1.394 . S
C428 C458 1.723 . S
H429 C452 0.947 . S
H430 C453 0.948 . S
H431 C459 0.982 . S
H432 C460 0.979 . S
H433 C460 0.980 . S
H434 C460 0.983 . S
H435 C459 0.979 . S
H436 C459 0.977 . S
C437 C425 1.453 . S
C437 H466 0.982 . S
C437 H467 0.979 . S
C437 H468 0.977 . S
C438 C425 1.684 . S
C438 H463 0.979 . S
C438 H464 0.980 . S
C438 H465 0.983 . S
C439 C440 1.391 . S
C439 C444 1.391 . S
C439 H469 0.948 . S
C440 C439 1.391 . S
C440 C441 1.391 . S
C441 C440 1.391 . S
C441 C442 1.392 . S
C441 H470 0.947 . S
C442 C441 1.392 . S
C442 C443 1.419 . S
C442 H471 0.948 . S
C443 C442 1.419 . S
C443 C444 1.391 . S
C443 C447 1.397 . S
C444 C439 1.391 . S
C444 C443 1.391 . S
C444 C445 1.399 . S
C445 C444 1.399 . S
C445 C446 1.396 . S
C445 C448 1.453 . S
C445 C449 1.684 . S
C446 C427 1.723 . S
C446 C445 1.396 . S
C446 C447 1.394 . S
C447 C443 1.397 . S
C447 C446 1.394 . S
C447 C457 1.723 . S
C448 C445 1.453 . S
C448 H472 0.982 . S
C448 H473 0.979 . S
C448 H474 0.977 . S
C449 C445 1.684 . S
C449 H475 0.979 . S
C449 H476 0.980 . S
C449 H477 0.983 . S
C450 H426 0.948 . S
C450 C451 1.391 . S
C450 C455 1.391 . S
C451 C450 1.391 . S
C451 C452 1.391 . S
C452 H429 0.947 . S
C452 C451 1.391 . S
C452 C453 1.392 . S
C453 H430 0.948 . S
C453 C452 1.392 . S
C453 C454 1.419 . S
C454 C453 1.419 . S
C454 C455 1.391 . S
C454 C458 1.397 . S
C455 C450 1.391 . S
C455 C454 1.391 . S
C455 C456 1.399 . S
C456 C455 1.399 . S
C456 C457 1.396 . S
C456 C459 1.453 . S
C456 C460 1.684 . S
C457 C447 1.723 . S
C457 C456 1.396 . S
C457 C458 1.394 . S
C458 C428 1.723 . S
C458 C454 1.397 . S
C458 C457 1.394 . S
C459 H431 0.982 . S
C459 H435 0.979 . S
C459 H436 0.977 . S
C459 C456 1.453 . S
C460 H432 0.979 . S
C460 H433 0.980 . S
C460 H434 0.983 . S
C460 C456 1.684 . S
H461 C479 0.948 . S
H462 C420 0.948 . S
H463 C438 0.979 . S
H464 C438 0.980 . S
H465 C438 0.983 . S
H466 C437 0.982 . S
H467 C437 0.979 . S
H468 C437 0.977 . S
H469 C439 0.948 . S
H470 C441 0.947 . S
H471 C442 0.948 . S
H472 C448 0.982 . S
H473 C448 0.979 . S
H474 C448 0.977 . S
H475 C449 0.979 . S
H476 C449 0.980 . S
H477 C449 0.983 . S
H478 C422 0.947 . S
C479 C422 1.392 . S
C479 C423 1.419 . S
C479 H461 0.948 . S
H480 C488 0.929 . S
H481 C490 0.930 . S
H482 C492 0.930 . S
H483 C495 0.929 . S
H484 C498 0.930 . S
H485 C500 0.960 . S
H486 C500 0.960 . S
H487 C500 0.960 . S
C488 H480 0.929 . S
C488 C489 1.377 . S
C488 C490 1.384 . S
C489 C488 1.377 . S
C489 C495 1.390 . S
C490 H481 0.930 . S
C490 C488 1.384 . S
C490 C491 1.372 . S
C491 C490 1.372 . S
C491 C492 1.400 . S
C491 C496 1.490 . S
C492 H482 0.930 . S
C492 C491 1.400 . S
C492 C495 1.386 . S
H493 C509 0.930 . S
H494 C510 0.931 . S
C495 H483 0.929 . S
C495 C489 1.390 . S
C495 C492 1.386 . S
C496 C491 1.490 . S
C496 C498 1.395 . S
C496 C499 1.403 . S
H497 C503 0.930 . S
C498 H484 0.930 . S
C498 C496 1.395 . S
C498 C501 1.403 . S
C499 C496 1.403 . S
C499 C500 1.524 . S
C499 C503 1.400 . S
C500 H485 0.960 . S
C500 H486 0.960 . S
C500 H487 0.960 . S
C500 C499 1.524 . S
C501 C498 1.403 . S
C501 C502 1.392 . S
C501 C505 1.495 . S
C502 C501 1.392 . S
C502 C503 1.385 . S
C502 C504 1.478 . S
C503 H497 0.930 . S
C503 C499 1.400 . S
C503 C502 1.385 . S
C504 C502 1.478 . S
C504 C506 1.381 . S
C504 C510 1.383 . S
C505 C501 1.495 . S
C505 H511 0.959 . S
C505 H512 0.961 . S
C505 H513 0.960 . S
C506 C504 1.381 . S
C506 C507 1.394 . S
C506 H514 0.930 . S
C507 C506 1.394 . S
C507 C508 1.383 . S
C507 H515 0.929 . S
C508 C507 1.383 . S
C508 C509 1.377 . S
C509 H493 0.930 . S
C509 C508 1.377 . S
C509 C510 1.379 . S
C510 H494 0.931 . S
C510 C504 1.383 . S
C510 C509 1.379 . S
H511 C505 0.959 . S
H512 C505 0.961 . S
H513 C505 0.960 . S
H514 C506 0.930 . S
H515 C507 0.929 . S
H516 C524 0.929 . S
H517 C526 0.930 . S
H518 C528 0.930 . S
H519 C531 0.929 . S
H520 C534 0.930 . S
H521 C536 0.960 . S
H522 C536 0.960 . S
H523 C536 0.960 . S
C524 H516 0.929 . S
C524 C525 1.377 . S
C524 C526 1.384 . S
C525 C524 1.377 . S
C525 C531 1.390 . S
C526 H517 0.930 . S
C526 C524 1.384 . S
C526 C527 1.372 . S
C527 C526 1.372 . S
C527 C528 1.400 . S
C527 C532 1.490 . S
C528 H518 0.930 . S
C528 C527 1.400 . S
C528 C531 1.386 . S
H529 C545 0.930 . S
H530 C546 0.931 . S
C531 H519 0.929 . S
C531 C525 1.390 . S
C531 C528 1.386 . S
C532 C527 1.490 . S
C532 C534 1.395 . S
C532 C535 1.403 . S
H533 C539 0.930 . S
C534 H520 0.930 . S
C534 C532 1.395 . S
C534 C537 1.403 . S
C535 C532 1.403 . S
C535 C536 1.524 . S
C535 C539 1.400 . S
C536 H521 0.960 . S
C536 H522 0.960 . S
C536 H523 0.960 . S
C536 C535 1.524 . S
C537 C534 1.403 . S
C537 C538 1.392 . S
C537 C541 1.495 . S
C538 C537 1.392 . S
C538 C539 1.385 . S
C538 C540 1.478 . S
C539 H533 0.930 . S
C539 C535 1.400 . S
C539 C538 1.385 . S
C540 C538 1.478 . S
C540 C542 1.381 . S
C540 C546 1.383 . S
C541 C537 1.495 . S
C541 H547 0.959 . S
C541 H548 0.961 . S
C541 H549 0.960 . S
C542 C540 1.381 . S
C542 C543 1.394 . S
C542 H550 0.930 . S
C543 C542 1.394 . S
C543 C544 1.383 . S
C543 H551 0.929 . S
C544 C543 1.383 . S
C544 C545 1.377 . S
C545 H529 0.930 . S
C545 C544 1.377 . S
C545 C546 1.379 . S
C546 H530 0.931 . S
C546 C540 1.383 . S
C546 C545 1.379 . S
H547 C541 0.959 . S
H548 C541 0.961 . S
H549 C541 0.960 . S
H550 C542 0.930 . S
H551 C543 0.929 . S
H552 C560 0.929 . S
H553 C562 0.930 . S
H554 C564 0.930 . S
H555 C567 0.929 . S
H556 C570 0.930 . S
H557 C572 0.960 . S
H558 C572 0.960 . S
H559 C572 0.960 . S
C560 H552 0.929 . S
C560 C561 1.377 . S
C560 C562 1.384 . S
C561 C560 1.377 . S
C561 C567 1.390 . S
C562 H553 0.930 . S
C562 C560 1.384 . S
C562 C563 1.372 . S
C563 C562 1.372 . S
C563 C564 1.400 . S
C563 C568 1.490 . S
C564 H554 0.930 . S
C564 C563 1.400 . S
C564 C567 1.386 . S
H565 C581 0.930 . S
H566 C582 0.931 . S
C567 H555 0.929 . S
C567 C561 1.390 . S
C567 C564 1.386 . S
C568 C563 1.490 . S
C568 C570 1.395 . S
C568 C571 1.403 . S
H569 C575 0.930 . S
C570 H556 0.930 . S
C570 C568 1.395 . S
C570 C573 1.403 . S
C571 C568 1.403 . S
C571 C572 1.524 . S
C571 C575 1.400 . S
C572 H557 0.960 . S
C572 H558 0.960 . S
C572 H559 0.960 . S
C572 C571 1.524 . S
C573 C570 1.403 . S
C573 C574 1.392 . S
C573 C577 1.495 . S
C574 C573 1.392 . S
C574 C575 1.385 . S
C574 C576 1.478 . S
C575 H569 0.930 . S
C575 C571 1.400 . S
C575 C574 1.385 . S
C576 C574 1.478 . S
C576 C578 1.381 . S
C576 C582 1.383 . S
C577 C573 1.495 . S
C577 H583 0.959 . S
C577 H584 0.961 . S
C577 H585 0.960 . S
C578 C576 1.381 . S
C578 C579 1.394 . S
C578 H586 0.930 . S
C579 C578 1.394 . S
C579 C580 1.383 . S
C579 H587 0.929 . S
C580 C579 1.383 . S
C580 C581 1.377 . S
C581 H565 0.930 . S
C581 C580 1.377 . S
C581 C582 1.379 . S
C582 H566 0.931 . S
C582 C576 1.383 . S
C582 C581 1.379 . S
H583 C577 0.959 . S
H584 C577 0.961 . S
H585 C577 0.960 . S
H586 C578 0.930 . S
H587 C579 0.929 . S
H588 C596 0.929 . S
H589 C598 0.930 . S
H590 C600 0.930 . S
H591 C603 0.929 . S
H592 C606 0.930 . S
H593 C608 0.960 . S
H594 C608 0.960 . S
H595 C608 0.960 . S
C596 H588 0.929 . S
C596 C597 1.377 . S
C596 C598 1.384 . S
C597 C596 1.377 . S
C597 C603 1.390 . S
C598 H589 0.930 . S
C598 C596 1.384 . S
C598 C599 1.372 . S
C599 C598 1.372 . S
C599 C600 1.400 . S
C599 C604 1.490 . S
C600 H590 0.930 . S
C600 C599 1.400 . S
C600 C603 1.386 . S
H601 C617 0.930 . S
H602 C618 0.931 . S
C603 H591 0.929 . S
C603 C597 1.390 . S
C603 C600 1.386 . S
C604 C599 1.490 . S
C604 C606 1.395 . S
C604 C607 1.403 . S
H605 C611 0.930 . S
C606 H592 0.930 . S
C606 C604 1.395 . S
C606 C609 1.403 . S
C607 C604 1.403 . S
C607 C608 1.524 . S
C607 C611 1.400 . S
C608 H593 0.960 . S
C608 H594 0.960 . S
C608 H595 0.960 . S
C608 C607 1.524 . S
C609 C606 1.403 . S
C609 C610 1.392 . S
C609 C613 1.495 . S
C610 C609 1.392 . S
C610 C611 1.385 . S
C610 C612 1.478 . S
C611 H605 0.930 . S
C611 C607 1.400 . S
C611 C610 1.385 . S
C612 C610 1.478 . S
C612 C614 1.381 . S
C612 C618 1.383 . S
C613 C609 1.495 . S
C613 H619 0.959 . S
C613 H620 0.961 . S
C613 H621 0.960 . S
C614 C612 1.381 . S
C614 C615 1.394 . S
C614 H622 0.930 . S
C615 C614 1.394 . S
C615 C616 1.383 . S
C615 H623 0.929 . S
C616 C615 1.383 . S
C616 C617 1.377 . S
C617 H601 0.930 . S
C617 C616 1.377 . S
C617 C618 1.379 . S
C618 H602 0.931 . S
C618 C612 1.383 . S
C618 C617 1.379 . S
H619 C613 0.959 . S
H620 C613 0.961 . S
H621 C613 0.960 . S
H622 C614 0.930 . S
H623 C615 0.929 . S
H624 C632 0.929 . S
H625 C634 0.930 . S
H626 C636 0.930 . S
H627 C639 0.929 . S
H628 C642 0.930 . S
H629 C644 0.960 . S
H630 C644 0.960 . S
H631 C644 0.960 . S
C632 H624 0.929 . S
C632 C633 1.377 . S
C632 C634 1.384 . S
C633 C632 1.377 . S
C633 C639 1.390 . S
C634 H625 0.930 . S
C634 C632 1.384 . S
C634 C635 1.372 . S
C635 C634 1.372 . S
C635 C636 1.400 . S
C635 C640 1.490 . S
C636 H626 0.930 . S
C636 C635 1.400 . S
C636 C639 1.386 . S
H637 C653 0.930 . S
H638 C654 0.931 . S
C639 H627 0.929 . S
C639 C633 1.390 . S
C639 C636 1.386 . S
C640 C635 1.490 . S
C640 C642 1.395 . S
C640 C643 1.403 . S
H641 C647 0.930 . S
C642 H628 0.930 . S
C642 C640 1.395 . S
C642 C645 1.403 . S
C643 C640 1.403 . S
C643 C644 1.524 . S
C643 C647 1.400 . S
C644 H629 0.960 . S
C644 H630 0.960 . S
C644 H631 0.960 . S
C644 C643 1.524 . S
C645 C642 1.403 . S
C645 C646 1.392 . S
C645 C649 1.495 . S
C646 C645 1.392 . S
C646 C647 1.385 . S
C646 C648 1.478 . S
C647 H641 0.930 . S
C647 C643 1.400 . S
C647 C646 1.385 . S
C648 C646 1.478 . S
C648 C650 1.381 . S
C648 C654 1.383 . S
C649 C645 1.495 . S
C649 H655 0.959 . S
C649 H656 0.961 . S
C649 H657 0.960 . S
C650 C648 1.381 . S
C650 C651 1.394 . S
C650 H658 0.930 . S
C651 C650 1.394 . S
C651 C652 1.383 . S
C651 H659 0.929 . S
C652 C651 1.383 . S
C652 C653 1.377 . S
C653 H637 0.930 . S
C653 C652 1.377 . S
C653 C654 1.379 . S
C654 H638 0.931 . S
C654 C648 1.383 . S
C654 C653 1.379 . S
H655 C649 0.959 . S
H656 C649 0.961 . S
H657 C649 0.960 . S
H658 C650 0.930 . S
H659 C651 0.929 . S
H660 C668 0.929 . S
H661 C670 0.930 . S
H662 C672 0.930 . S
H663 C675 0.929 . S
H664 C678 0.930 . S
H665 C680 0.960 . S
H666 C680 0.960 . S
H667 C680 0.960 . S
C668 H660 0.929 . S
C668 C669 1.377 . S
C668 C670 1.384 . S
C669 C668 1.377 . S
C669 C675 1.390 . S
C670 H661 0.930 . S
C670 C668 1.384 . S
C670 C671 1.372 . S
C671 C670 1.372 . S
C671 C672 1.400 . S
C671 C676 1.490 . S
C672 H662 0.930 . S
C672 C671 1.400 . S
C672 C675 1.386 . S
H673 C689 0.930 . S
H674 C690 0.931 . S
C675 H663 0.929 . S
C675 C669 1.390 . S
C675 C672 1.386 . S
C676 C671 1.490 . S
C676 C678 1.395 . S
C676 C679 1.403 . S
H677 C683 0.930 . S
C678 H664 0.930 . S
C678 C676 1.395 . S
C678 C681 1.403 . S
C679 C676 1.403 . S
C679 C680 1.524 . S
C679 C683 1.400 . S
C680 H665 0.960 . S
C680 H666 0.960 . S
C680 H667 0.960 . S
C680 C679 1.524 . S
C681 C678 1.403 . S
C681 C682 1.392 . S
C681 C685 1.495 . S
C682 C681 1.392 . S
C682 C683 1.385 . S
C682 C684 1.478 . S
C683 H677 0.930 . S
C683 C679 1.400 . S
C683 C682 1.385 . S
C684 C682 1.478 . S
C684 C686 1.381 . S
C684 C690 1.383 . S
C685 C681 1.495 . S
C685 H691 0.959 . S
C685 H692 0.961 . S
C685 H693 0.960 . S
C686 C684 1.381 . S
C686 C687 1.394 . S
C686 H694 0.930 . S
C687 C686 1.394 . S
C687 C688 1.383 . S
C687 H695 0.929 . S
C688 C687 1.383 . S
C688 C689 1.377 . S
C689 H673 0.930 . S
C689 C688 1.377 . S
C689 C690 1.379 . S
C690 H674 0.931 . S
C690 C684 1.383 . S
C690 C689 1.379 . S
H691 C685 0.959 . S
H692 C685 0.961 . S
H693 C685 0.960 . S
H694 C686 0.930 . S
H695 C687 0.929 . S
H696 C704 0.929 . S
H697 C706 0.930 . S
H698 C708 0.930 . S
H699 C711 0.929 . S
H700 C714 0.930 . S
H701 C716 0.960 . S
H702 C716 0.960 . S
H703 C716 0.960 . S
C704 H696 0.929 . S
C704 C705 1.377 . S
C704 C706 1.384 . S
C705 C704 1.377 . S
C705 C711 1.390 . S
C706 H697 0.930 . S
C706 C704 1.384 . S
C706 C707 1.372 . S
C707 C706 1.372 . S
C707 C708 1.400 . S
C707 C712 1.490 . S
C708 H698 0.930 . S
C708 C707 1.400 . S
C708 C711 1.386 . S
H709 C725 0.930 . S
H710 C726 0.931 . S
C711 H699 0.929 . S
C711 C705 1.390 . S
C711 C708 1.386 . S
C712 C707 1.490 . S
C712 C714 1.395 . S
C712 C715 1.403 . S
H713 C719 0.930 . S
C714 H700 0.930 . S
C714 C712 1.395 . S
C714 C717 1.403 . S
C715 C712 1.403 . S
C715 C716 1.524 . S
C715 C719 1.400 . S
C716 H701 0.960 . S
C716 H702 0.960 . S
C716 H703 0.960 . S
C716 C715 1.524 . S
C717 C714 1.403 . S
C717 C718 1.392 . S
C717 C721 1.495 . S
C718 C717 1.392 . S
C718 C719 1.385 . S
C718 C720 1.478 . S
C719 H713 0.930 . S
C719 C715 1.400 . S
C719 C718 1.385 . S
C720 C718 1.478 . S
C720 C722 1.381 . S
C720 C726 1.383 . S
C721 C717 1.495 . S
C721 H727 0.959 . S
C721 H728 0.961 . S
C721 H729 0.960 . S
C722 C720 1.381 . S
C722 C723 1.394 . S
C722 H730 0.930 . S
C723 C722 1.394 . S
C723 C724 1.383 . S
C723 H731 0.929 . S
C724 C723 1.383 . S
C724 C725 1.377 . S
C725 H709 0.930 . S
C725 C724 1.377 . S
C725 C726 1.379 . S
C726 H710 0.931 . S
C726 C720 1.383 . S
C726 C725 1.379 . S
H727 C721 0.959 . S
H728 C721 0.961 . S
H729 C721 0.960 . S
H730 C722 0.930 . S
H731 C723 0.929 . S
H732 C740 0.929 . S
H733 C742 0.930 . S
H734 C744 0.930 . S
H735 C747 0.929 . S
H736 C750 0.930 . S
H737 C752 0.960 . S
H738 C752 0.960 . S
H739 C752 0.960 . S
C740 H732 0.929 . S
C740 C741 1.377 . S
C740 C742 1.384 . S
C741 C740 1.377 . S
C741 C747 1.390 . S
C742 H733 0.930 . S
C742 C740 1.384 . S
C742 C743 1.372 . S
C743 C742 1.372 . S
C743 C744 1.400 . S
C743 C748 1.490 . S
C744 H734 0.930 . S
C744 C743 1.400 . S
C744 C747 1.386 . S
H745 C761 0.930 . S
H746 C762 0.931 . S
C747 H735 0.929 . S
C747 C741 1.390 . S
C747 C744 1.386 . S
C748 C743 1.490 . S
C748 C750 1.395 . S
C748 C751 1.403 . S
H749 C755 0.930 . S
C750 H736 0.930 . S
C750 C748 1.395 . S
C750 C753 1.403 . S
C751 C748 1.403 . S
C751 C752 1.524 . S
C751 C755 1.400 . S
C752 H737 0.960 . S
C752 H738 0.960 . S
C752 H739 0.960 . S
C752 C751 1.524 . S
C753 C750 1.403 . S
C753 C754 1.392 . S
C753 C757 1.495 . S
C754 C753 1.392 . S
C754 C755 1.385 . S
C754 C756 1.478 . S
C755 H749 0.930 . S
C755 C751 1.400 . S
C755 C754 1.385 . S
C756 C754 1.478 . S
C756 C758 1.381 . S
C756 C762 1.383 . S
C757 C753 1.495 . S
C757 H763 0.959 . S
C757 H764 0.961 . S
C757 H765 0.960 . S
C758 C756 1.381 . S
C758 C759 1.394 . S
C758 H766 0.930 . S
C759 C758 1.394 . S
C759 C760 1.383 . S
C759 H767 0.929 . S
C760 C759 1.383 . S
C760 C761 1.377 . S
C761 H745 0.930 . S
C761 C760 1.377 . S
C761 C762 1.379 . S
C762 H746 0.931 . S
C762 C756 1.383 . S
C762 C761 1.379 . S
H763 C757 0.959 . S
H764 C757 0.961 . S
H765 C757 0.960 . S
H766 C758 0.930 . S
H767 C759 0.929 . S
H768 C776 0.929 . S
H769 C778 0.930 . S
H770 C780 0.930 . S
H771 C783 0.929 . S
H772 C786 0.930 . S
H773 C788 0.960 . S
H774 C788 0.960 . S
H775 C788 0.960 . S
C776 H768 0.929 . S
C776 C777 1.377 . S
C776 C778 1.384 . S
C777 C776 1.377 . S
C777 C783 1.390 . S
C778 H769 0.930 . S
C778 C776 1.384 . S
C778 C779 1.372 . S
C779 C778 1.372 . S
C779 C780 1.400 . S
C779 C784 1.490 . S
C780 H770 0.930 . S
C780 C779 1.400 . S
C780 C783 1.386 . S
H781 C797 0.930 . S
H782 C798 0.931 . S
C783 H771 0.929 . S
C783 C777 1.390 . S
C783 C780 1.386 . S
C784 C779 1.490 . S
C784 C786 1.395 . S
C784 C787 1.403 . S
H785 C791 0.930 . S
C786 H772 0.930 . S
C786 C784 1.395 . S
C786 C789 1.403 . S
C787 C784 1.403 . S
C787 C788 1.524 . S
C787 C791 1.400 . S
C788 H773 0.960 . S
C788 H774 0.960 . S
C788 H775 0.960 . S
C788 C787 1.524 . S
C789 C786 1.403 . S
C789 C790 1.392 . S
C789 C793 1.495 . S
C790 C789 1.392 . S
C790 C791 1.385 . S
C790 C792 1.478 . S
C791 H785 0.930 . S
C791 C787 1.400 . S
C791 C790 1.385 . S
C792 C790 1.478 . S
C792 C794 1.381 . S
C792 C798 1.383 . S
C793 C789 1.495 . S
C793 H799 0.959 . S
C793 H800 0.961 . S
C793 H801 0.960 . S
C794 C792 1.381 . S
C794 C795 1.394 . S
C794 H802 0.930 . S
C795 C794 1.394 . S
C795 C796 1.383 . S
C795 H803 0.929 . S
C796 C795 1.383 . S
C796 C797 1.377 . S
C797 H781 0.930 . S
C797 C796 1.377 . S
C797 C798 1.379 . S
C798 H782 0.931 . S
C798 C792 1.383 . S
C798 C797 1.379 . S
H799 C793 0.959 . S
H800 C793 0.961 . S
H801 C793 0.960 . S
H802 C794 0.930 . S
H803 C795 0.929 . S
H804 C812 0.929 . S
H805 C814 0.930 . S
H806 C816 0.930 . S
H807 C819 0.929 . S
H808 C822 0.930 . S
H809 C824 0.960 . S
H810 C824 0.960 . S
H811 C824 0.960 . S
C812 H804 0.929 . S
C812 C813 1.377 . S
C812 C814 1.384 . S
C813 C812 1.377 . S
C813 C819 1.390 . S
C814 H805 0.930 . S
C814 C812 1.384 . S
C814 C815 1.372 . S
C815 C814 1.372 . S
C815 C816 1.400 . S
C815 C820 1.490 . S
C816 H806 0.930 . S
C816 C815 1.400 . S
C816 C819 1.386 . S
H817 C833 0.930 . S
H818 C834 0.931 . S
C819 H807 0.929 . S
C819 C813 1.390 . S
C819 C816 1.386 . S
C820 C815 1.490 . S
C820 C822 1.395 . S
C820 C823 1.403 . S
H821 C827 0.930 . S
C822 H808 0.930 . S
C822 C820 1.395 . S
C822 C825 1.403 . S
C823 C820 1.403 . S
C823 C824 1.524 . S
C823 C827 1.400 . S
C824 H809 0.960 . S
C824 H810 0.960 . S
C824 H811 0.960 . S
C824 C823 1.524 . S
C825 C822 1.403 . S
C825 C826 1.392 . S
C825 C829 1.495 . S
C826 C825 1.392 . S
C826 C827 1.385 . S
C826 C828 1.478 . S
C827 H821 0.930 . S
C827 C823 1.400 . S
C827 C826 1.385 . S
C828 C826 1.478 . S
C828 C830 1.381 . S
C828 C834 1.383 . S
C829 C825 1.495 . S
C829 H835 0.959 . S
C829 H836 0.961 . S
C829 H837 0.960 . S
C830 C828 1.381 . S
C830 C831 1.394 . S
C830 H838 0.930 . S
C831 C830 1.394 . S
C831 C832 1.383 . S
C831 H839 0.929 . S
C832 C831 1.383 . S
C832 C833 1.377 . S
C833 H817 0.930 . S
C833 C832 1.377 . S
C833 C834 1.379 . S
C834 H818 0.931 . S
C834 C828 1.383 . S
C834 C833 1.379 . S
H835 C829 0.959 . S
H836 C829 0.961 . S
H837 C829 0.960 . S
H838 C830 0.930 . S
H839 C831 0.929 . S
H840 C848 0.929 . S
H841 C850 0.930 . S
H842 C852 0.930 . S
H843 C855 0.929 . S
H844 C858 0.930 . S
H845 C860 0.960 . S
H846 C860 0.960 . S
H847 C860 0.960 . S
C848 H840 0.929 . S
C848 C849 1.377 . S
C848 C850 1.384 . S
C849 C848 1.377 . S
C849 C855 1.390 . S
C850 H841 0.930 . S
C850 C848 1.384 . S
C850 C851 1.372 . S
C851 C850 1.372 . S
C851 C852 1.400 . S
C851 C856 1.490 . S
C852 H842 0.930 . S
C852 C851 1.400 . S
C852 C855 1.386 . S
H853 C869 0.930 . S
H854 C870 0.931 . S
C855 H843 0.929 . S
C855 C849 1.390 . S
C855 C852 1.386 . S
C856 C851 1.490 . S
C856 C858 1.395 . S
C856 C859 1.403 . S
H857 C863 0.930 . S
C858 H844 0.930 . S
C858 C856 1.395 . S
C858 C861 1.403 . S
C859 C856 1.403 . S
C859 C860 1.524 . S
C859 C863 1.400 . S
C860 H845 0.960 . S
C860 H846 0.960 . S
C860 H847 0.960 . S
C860 C859 1.524 . S
C861 C858 1.403 . S
C861 C862 1.392 . S
C861 C865 1.495 . S
C862 C861 1.392 . S
C862 C863 1.385 . S
C862 C864 1.478 . S
C863 H857 0.930 . S
C863 C859 1.400 . S
C863 C862 1.385 . S
C864 C862 1.478 . S
C864 C866 1.381 . S
C864 C870 1.383 . S
C865 C861 1.495 . S
C865 H871 0.959 . S
C865 H872 0.961 . S
C865 H873 0.960 . S
C866 C864 1.381 . S
C866 C867 1.394 . S
C866 H874 0.930 . S
C867 C866 1.394 . S
C867 C868 1.383 . S
C867 H875 0.929 . S
C868 C867 1.383 . S
C868 C869 1.377 . S
C869 H853 0.930 . S
C869 C868 1.377 . S
C869 C870 1.379 . S
C870 H854 0.931 . S
C870 C864 1.383 . S
C870 C869 1.379 . S
H871 C865 0.959 . S
H872 C865 0.961 . S
H873 C865 0.960 . S
H874 C866 0.930 . S
H875 C867 0.929 . S
H876 C884 0.929 . S
H877 C886 0.930 . S
H878 C888 0.930 . S
H879 C891 0.929 . S
H880 C894 0.930 . S
H881 C896 0.960 . S
H882 C896 0.960 . S
H883 C896 0.960 . S
C884 H876 0.929 . S
C884 C885 1.377 . S
C884 C886 1.384 . S
C885 C884 1.377 . S
C885 C891 1.390 . S
C886 H877 0.930 . S
C886 C884 1.384 . S
C886 C887 1.372 . S
C887 C886 1.372 . S
C887 C888 1.400 . S
C887 C892 1.490 . S
C888 H878 0.930 . S
C888 C887 1.400 . S
C888 C891 1.386 . S
H889 C905 0.930 . S
H890 C906 0.931 . S
C891 H879 0.929 . S
C891 C885 1.390 . S
C891 C888 1.386 . S
C892 C887 1.490 . S
C892 C894 1.395 . S
C892 C895 1.403 . S
H893 C899 0.930 . S
C894 H880 0.930 . S
C894 C892 1.395 . S
C894 C897 1.403 . S
C895 C892 1.403 . S
C895 C896 1.524 . S
C895 C899 1.400 . S
C896 H881 0.960 . S
C896 H882 0.960 . S
C896 H883 0.960 . S
C896 C895 1.524 . S
C897 C894 1.403 . S
C897 C898 1.392 . S
C897 C901 1.495 . S
C898 C897 1.392 . S
C898 C899 1.385 . S
C898 C900 1.478 . S
C899 H893 0.930 . S
C899 C895 1.400 . S
C899 C898 1.385 . S
C900 C898 1.478 . S
C900 C902 1.381 . S
C900 C906 1.383 . S
C901 C897 1.495 . S
C901 H907 0.959 . S
C901 H908 0.961 . S
C901 H909 0.960 . S
C902 C900 1.381 . S
C902 C903 1.394 . S
C902 H910 0.930 . S
C903 C902 1.394 . S
C903 C904 1.383 . S
C903 H911 0.929 . S
C904 C903 1.383 . S
C904 C905 1.377 . S
C905 H889 0.930 . S
C905 C904 1.377 . S
C905 C906 1.379 . S
C906 H890 0.931 . S
C906 C900 1.383 . S
C906 C905 1.379 . S
H907 C901 0.959 . S
H908 C901 0.961 . S
H909 C901 0.960 . S
H910 C902 0.930 . S
H911 C903 0.929 . S
H912 C920 0.929 1_655 S
H913 C922 0.930 1_655 S
H914 C924 0.930 . S
H915 C927 0.929 . S
H916 C930 0.930 . S
H917 C932 0.960 . S
H918 C932 0.960 . S
H919 C932 0.960 . S
C920 H912 0.929 1_455 S
C920 C921 1.377 . S
C920 C922 1.384 . S
C921 C920 1.377 . S
C921 C927 1.390 . S
C922 H913 0.930 1_455 S
C922 C920 1.384 . S
C922 C923 1.372 . S
C923 C922 1.372 . S
C923 C924 1.400 . S
C923 C928 1.490 . S
C924 H914 0.930 . S
C924 C923 1.400 . S
C924 C927 1.386 . S
H925 C941 0.930 . S
H926 C942 0.931 . S
C927 H915 0.929 . S
C927 C921 1.390 . S
C927 C924 1.386 . S
C928 C923 1.490 . S
C928 C930 1.395 . S
C928 C931 1.403 . S
H929 C935 0.930 . S
C930 H916 0.930 . S
C930 C928 1.395 . S
C930 C933 1.403 . S
C931 C928 1.403 . S
C931 C932 1.524 . S
C931 C935 1.400 . S
C932 H917 0.960 . S
C932 H918 0.960 . S
C932 H919 0.960 . S
C932 C931 1.524 . S
C933 C930 1.403 . S
C933 C934 1.392 . S
C933 C937 1.495 . S
C934 C933 1.392 . S
C934 C935 1.385 . S
C934 C936 1.478 . S
C935 H929 0.930 . S
C935 C931 1.400 . S
C935 C934 1.385 . S
C936 C934 1.478 . S
C936 C938 1.381 . S
C936 C942 1.383 . S
C937 C933 1.495 . S
C937 H943 0.959 . S
C937 H944 0.961 . S
C937 H945 0.960 . S
C938 C936 1.381 . S
C938 C939 1.394 1_554 S
C938 H946 0.930 1_455 S
C939 C938 1.394 1_556 S
C939 C940 1.383 . S
C939 H947 0.929 1_455 S
C940 C939 1.383 . S
C940 C941 1.377 . S
C941 H925 0.930 . S
C941 C940 1.377 . S
C941 C942 1.379 1_556 S
C942 H926 0.931 . S
C942 C936 1.383 . S
C942 C941 1.379 1_554 S
H943 C937 0.959 . S
H944 C937 0.961 . S
H945 C937 0.960 . S
H946 C938 0.930 1_655 S
H947 C939 0.929 1_655 S
H948 C956 0.929 1_565 S
H949 C958 0.930 1_565 S
H950 C960 0.930 . S
H951 C963 0.929 . S
H952 C966 0.930 . S
H953 C968 0.960 . S
H954 C968 0.960 . S
H955 C968 0.960 . S
C956 H948 0.929 1_545 S
C956 C957 1.377 . S
C956 C958 1.384 . S
C957 C956 1.377 . S
C957 C963 1.390 . S
C958 H949 0.930 1_545 S
C958 C956 1.384 . S
C958 C959 1.372 . S
C959 C958 1.372 . S
C959 C960 1.400 . S
C959 C964 1.490 . S
C960 H950 0.930 . S
C960 C959 1.400 . S
C960 C963 1.386 . S
H961 C977 0.930 . S
H962 C978 0.931 . S
C963 H951 0.929 . S
C963 C957 1.390 . S
C963 C960 1.386 . S
C964 C959 1.490 . S
C964 C966 1.395 1_545 S
C964 C967 1.403 . S
H965 C971 0.930 . S
C966 H952 0.930 . S
C966 C964 1.395 1_565 S
C966 C969 1.403 . S
C967 C964 1.403 . S
C967 C968 1.524 . S
C967 C971 1.400 . S
C968 H953 0.960 . S
C968 H954 0.960 . S
C968 H955 0.960 . S
C968 C967 1.524 . S
C969 C966 1.403 . S
C969 C970 1.392 1_565 S
C969 C973 1.495 . S
C970 C969 1.392 1_545 S
C970 C971 1.385 . S
C970 C972 1.478 . S
C971 H965 0.930 . S
C971 C967 1.400 . S
C971 C970 1.385 . S
C972 C970 1.478 . S
C972 C974 1.381 . S
C972 C978 1.383 . S
C973 C969 1.495 . S
C973 H979 0.959 . S
C973 H980 0.961 . S
C973 H981 0.960 . S
C974 C972 1.381 . S
C974 C975 1.394 . S
C974 H982 0.930 1_545 S
C975 C974 1.394 . S
C975 C976 1.383 . S
C975 H983 0.929 . S
C976 C975 1.383 . S
C976 C977 1.377 . S
C977 H961 0.930 . S
C977 C976 1.377 . S
C977 C978 1.379 . S
C978 H962 0.931 . S
C978 C972 1.383 . S
C978 C977 1.379 . S
H979 C973 0.959 . S
H980 C973 0.961 . S
H981 C973 0.960 . S
H982 C974 0.930 1_565 S
H983 C975 0.929 . S
H984 C992 0.929 . S
H985 C994 0.930 . S
H986 C996 0.930 . S
H987 C999 0.929 . S
H988 C1002 0.930 . S
H989 C1004 0.960 . S
H990 C1004 0.960 . S
H991 C1004 0.960 . S
C992 H984 0.929 . S
C992 C993 1.377 . S
C992 C994 1.384 . S
C993 C992 1.377 . S
C993 C999 1.390 . S
C994 H985 0.930 . S
C994 C992 1.384 . S
C994 C995 1.372 . S
C995 C994 1.372 . S
C995 C996 1.400 . S
C995 C1000 1.490 . S
C996 H986 0.930 . S
C996 C995 1.400 . S
C996 C999 1.386 . S
H997 C1013 0.930 . S
H998 C1014 0.931 . S
C999 H987 0.929 . S
C999 C993 1.390 . S
C999 C996 1.386 . S
C1000 C995 1.490 . S
C1000 C1002 1.395 . S
C1000 C1003 1.403 . S
H1001 C1007 0.930 . S
C1002 H988 0.930 . S
C1002 C1000 1.395 . S
C1002 C1005 1.403 . S
C1003 C1000 1.403 . S
C1003 C1004 1.524 . S
C1003 C1007 1.400 . S
C1004 H989 0.960 . S
C1004 H990 0.960 . S
C1004 H991 0.960 . S
C1004 C1003 1.524 . S
C1005 C1002 1.403 . S
C1005 C1006 1.392 . S
C1005 C1009 1.495 . S
C1006 C1005 1.392 . S
C1006 C1007 1.385 . S
C1006 C1008 1.478 . S
C1007 H1001 0.930 . S
C1007 C1003 1.400 . S
C1007 C1006 1.385 . S
C1008 C1006 1.478 . S
C1008 C1010 1.381 . S
C1008 C1014 1.383 . S
C1009 C1005 1.495 . S
C1009 H1015 0.959 . S
C1009 H1016 0.961 . S
C1009 H1017 0.960 . S
C1010 C1008 1.381 . S
C1010 C1011 1.394 . S
C1010 H1018 0.930 . S
C1011 C1010 1.394 . S
C1011 C1012 1.383 . S
C1011 H1019 0.929 . S
C1012 C1011 1.383 . S
C1012 C1013 1.377 . S
C1013 H997 0.930 . S
C1013 C1012 1.377 . S
C1013 C1014 1.379 . S
C1014 H998 0.931 . S
C1014 C1008 1.383 . S
C1014 C1013 1.379 . S
H1015 C1009 0.959 . S
H1016 C1009 0.961 . S
H1017 C1009 0.960 . S
H1018 C1010 0.930 . S
H1019 C1011 0.929 . S
H1020 C1028 0.929 . S
H1021 C1030 0.930 . S
H1022 C1032 0.930 1_565 S
H1023 C1035 0.929 1_565 S
H1024 C1038 0.930 . S
H1025 C1040 0.960 . S
H1026 C1040 0.960 . S
H1027 C1040 0.960 . S
C1028 H1020 0.929 . S
C1028 C1029 1.377 . S
C1028 C1030 1.384 . S
C1029 C1028 1.377 . S
C1029 C1035 1.390 . S
C1030 H1021 0.930 . S
C1030 C1028 1.384 . S
C1030 C1031 1.372 . S
C1031 C1030 1.372 . S
C1031 C1032 1.400 . S
C1031 C1036 1.490 . S
C1032 H1022 0.930 1_545 S
C1032 C1031 1.400 . S
C1032 C1035 1.386 . S
H1033 C1049 0.930 . S
H1034 C1050 0.931 . S
C1035 H1023 0.929 1_545 S
C1035 C1029 1.390 . S
C1035 C1032 1.386 . S
C1036 C1031 1.490 . S
C1036 C1038 1.395 1_545 S
C1036 C1039 1.403 . S
H1037 C1043 0.930 . S
C1038 H1024 0.930 . S
C1038 C1036 1.395 1_565 S
C1038 C1041 1.403 . S
C1039 C1036 1.403 . S
C1039 C1040 1.524 . S
C1039 C1043 1.400 . S
C1040 H1025 0.960 . S
C1040 H1026 0.960 . S
C1040 H1027 0.960 . S
C1040 C1039 1.524 . S
C1041 C1038 1.403 . S
C1041 C1042 1.392 1_565 S
C1041 C1045 1.495 . S
C1042 C1041 1.392 1_545 S
C1042 C1043 1.385 . S
C1042 C1044 1.478 . S
C1043 H1037 0.930 . S
C1043 C1039 1.400 . S
C1043 C1042 1.385 . S
C1044 C1042 1.478 . S
C1044 C1046 1.381 . S
C1044 C1050 1.383 1_545 S
C1045 C1041 1.495 . S
C1045 H1051 0.959 . S
C1045 H1052 0.961 . S
C1045 H1053 0.960 . S
C1046 C1044 1.381 . S
C1046 C1047 1.394 . S
C1046 H1054 0.930 . S
C1047 C1046 1.394 . S
C1047 C1048 1.383 . S
C1047 H1055 0.929 . S
C1048 C1047 1.383 . S
C1048 C1049 1.377 1_545 S
C1049 H1033 0.930 . S
C1049 C1048 1.377 1_565 S
C1049 C1050 1.379 . S
C1050 H1034 0.931 . S
C1050 C1044 1.383 1_565 S
C1050 C1049 1.379 . S
H1051 C1045 0.959 . S
H1052 C1045 0.961 . S
H1053 C1045 0.960 . S
H1054 C1046 0.930 . S
H1055 C1047 0.929 . S
H1056 C1064 0.929 . S
H1057 C1066 0.930 . S
H1058 C1068 0.930 . S
H1059 C1071 0.929 . S
H1060 C1074 0.930 . S
H1061 C1076 0.960 . S
H1062 C1076 0.960 . S
H1063 C1076 0.960 . S
C1064 H1056 0.929 . S
C1064 C1065 1.377 . S
C1064 C1066 1.384 . S
C1065 C1064 1.377 . S
C1065 C1071 1.390 . S
C1066 H1057 0.930 . S
C1066 C1064 1.384 . S
C1066 C1067 1.372 . S
C1067 C1066 1.372 . S
C1067 C1068 1.400 . S
C1067 C1072 1.490 . S
C1068 H1058 0.930 . S
C1068 C1067 1.400 . S
C1068 C1071 1.386 . S
H1069 C1085 0.930 . S
H1070 C1086 0.931 . S
C1071 H1059 0.929 . S
C1071 C1065 1.390 . S
C1071 C1068 1.386 . S
C1072 C1067 1.490 . S
C1072 C1074 1.395 . S
C1072 C1075 1.403 . S
H1073 C1079 0.930 . S
C1074 H1060 0.930 . S
C1074 C1072 1.395 . S
C1074 C1077 1.403 . S
C1075 C1072 1.403 . S
C1075 C1076 1.524 . S
C1075 C1079 1.400 . S
C1076 H1061 0.960 . S
C1076 H1062 0.960 . S
C1076 H1063 0.960 . S
C1076 C1075 1.524 . S
C1077 C1074 1.403 . S
C1077 C1078 1.392 . S
C1077 C1081 1.495 . S
C1078 C1077 1.392 . S
C1078 C1079 1.385 . S
C1078 C1080 1.478 . S
C1079 H1073 0.930 . S
C1079 C1075 1.400 . S
C1079 C1078 1.385 . S
C1080 C1078 1.478 . S
C1080 C1082 1.381 . S
C1080 C1086 1.383 . S
C1081 C1077 1.495 . S
C1081 H1087 0.959 . S
C1081 H1088 0.961 . S
C1081 H1089 0.960 . S
C1082 C1080 1.381 . S
C1082 C1083 1.394 1_556 S
C1082 H1090 0.930 . S
C1083 C1082 1.394 1_554 S
C1083 C1084 1.383 . S
C1083 H1091 0.929 . S
C1084 C1083 1.383 . S
C1084 C1085 1.377 . S
C1085 H1069 0.930 . S
C1085 C1084 1.377 . S
C1085 C1086 1.379 1_554 S
C1086 H1070 0.931 . S
C1086 C1080 1.383 . S
C1086 C1085 1.379 1_556 S
H1087 C1081 0.959 . S
H1088 C1081 0.961 . S
H1089 C1081 0.960 . S
H1090 C1082 0.930 . S
H1091 C1083 0.929 . S
H1092 C1100 0.929 . S
H1093 C1102 0.930 . S
H1094 C1104 0.930 . S
H1095 C1107 0.929 . S
H1096 C1110 0.930 . S
H1097 C1112 0.960 . S
H1098 C1112 0.960 . S
H1099 C1112 0.960 . S
C1100 H1092 0.929 . S
C1100 C1101 1.377 . S
C1100 C1102 1.384 . S
C1101 C1100 1.377 . S
C1101 C1107 1.390 1_455 S
C1102 H1093 0.930 . S
C1102 C1100 1.384 . S
C1102 C1103 1.372 . S
C1103 C1102 1.372 . S
C1103 C1104 1.400 1_455 S
C1103 C1108 1.490 . S
C1104 H1094 0.930 . S
C1104 C1103 1.400 1_655 S
C1104 C1107 1.386 . S
H1105 C1121 0.930 . S
H1106 C1122 0.931 . S
C1107 H1095 0.929 . S
C1107 C1101 1.390 1_655 S
C1107 C1104 1.386 . S
C1108 C1103 1.490 . S
C1108 C1110 1.395 . S
C1108 C1111 1.403 1_455 S
H1109 C1115 0.930 . S
C1110 H1096 0.930 . S
C1110 C1108 1.395 . S
C1110 C1113 1.403 . S
C1111 C1108 1.403 1_655 S
C1111 C1112 1.524 . S
C1111 C1115 1.400 . S
C1112 H1097 0.960 . S
C1112 H1098 0.960 . S
C1112 H1099 0.960 . S
C1112 C1111 1.524 . S
C1113 C1110 1.403 . S
C1113 C1114 1.392 . S
C1113 C1117 1.495 . S
C1114 C1113 1.392 . S
C1114 C1115 1.385 1_455 S
C1114 C1116 1.478 . S
C1115 H1109 0.930 . S
C1115 C1111 1.400 . S
C1115 C1114 1.385 1_655 S
C1116 C1114 1.478 . S
C1116 C1118 1.381 . S
C1116 C1122 1.383 1_455 S
C1117 C1113 1.495 . S
C1117 H1123 0.959 . S
C1117 H1124 0.961 . S
C1117 H1125 0.960 . S
C1118 C1116 1.381 . S
C1118 C1119 1.394 . S
C1118 H1126 0.930 . S
C1119 C1118 1.394 . S
C1119 C1120 1.383 . S
C1119 H1127 0.929 . S
C1120 C1119 1.383 . S
C1120 C1121 1.377 1_455 S
C1121 H1105 0.930 . S
C1121 C1120 1.377 1_655 S
C1121 C1122 1.379 . S
C1122 H1106 0.931 . S
C1122 C1116 1.383 1_655 S
C1122 C1121 1.379 . S
H1123 C1117 0.959 . S
H1124 C1117 0.961 . S
H1125 C1117 0.960 . S
H1126 C1118 0.930 . S
H1127 C1119 0.929 . S
C489 C10 3.067 . S
C508 C451 3.063 . S
C525 C55 1.150 . S
C544 C301 1.124 . S
C561 C90 1.835 . S
C580 C361 1.712 . S
C597 C19 2.911 . S
C616 C421 2.786 . S
C652 C331 1.280 . S
C633 C46 1.251 . S
C688 C391 2.032 . S
C669 C99 2.003 . S
C705 C50 1.847 . S
C724 C181 1.714 . S
C741 C95 0.487 . S
C760 C271 0.424 . S
C777 C6 1.297 . S
C796 C151 1.305 . S
C832 C211 1.980 . S
C813 C59 1.977 . S
C868 C241 0.487 . S
C849 C86 0.343 . S
C885 C15 1.172 . S
C904 C121 1.126 . S
C940 C260 1.099 . S
C921 C18 1.097 . S
C957 C49 1.455 . S
C976 C140 1.450 . S
C993 C98 1.343 . S
C1012 C200 1.366 . S
C1048 C380 1.352 . S
C1029 C58 1.336 . S
C1084 C440 1.750 . S
C1065 C89 1.691 . S
C1101 C9 1.459 . S
C1120 C320 1.461 . S
